
     RDKit          3D

 40 43  0  0  0  0  0  0  0  0999 V2000
  -23.7774  -41.6789   -2.6767 C   0  0  0  0  0  0  0  0  0  0  0  0
  -23.4309  -41.5189   -4.0389 O   0  0  0  0  0  0  0  0  0  0  0  0
  -23.4209  -42.6468   -4.8382 C   0  0  0  0  0  0  0  0  0  0  0  0
  -24.3042  -43.5221   -4.6776 O   0  0  0  0  0  0  0  0  0  0  0  0
  -22.4148  -42.8661   -5.8737 C   0  0  0  0  0  0  0  0  0  0  0  0
  -22.3480  -44.0299   -6.5865 C   0  0  0  0  0  0  0  0  0  0  0  0
  -21.3770  -44.2520   -7.5860 C   0  0  0  0  0  0  0  0  0  0  0  0
  -20.4354  -43.2772   -7.8850 C   0  0  0  0  0  0  0  0  0  0  0  0
  -20.4778  -42.0947   -7.1865 C   0  0  0  0  0  0  0  0  0  0  0  0
  -21.4798  -41.9232   -6.1874 C   0  0  0  0  0  0  0  0  0  0  0  0
  -19.6542  -40.8767   -7.2577 C   0  0  0  0  0  0  0  0  0  0  0  0
  -19.3076  -40.3292   -6.1113 O   0  0  0  0  0  0  0  0  0  0  0  0
  -19.1265  -40.1211   -8.3193 N   0  0  0  0  0  0  0  0  0  0  0  0
  -18.8919  -40.5601   -9.6752 C   0  0  1  0  0  0  0  0  0  0  0  0
  -20.0561  -40.0919  -10.5395 C   0  0  0  0  0  0  0  0  0  0  0  0
  -21.2582  -40.9781  -10.4803 C   0  0  0  0  0  0  0  0  0  0  0  0
  -21.4498  -42.2362  -10.9947 C   0  0  0  0  0  0  0  0  0  0  0  0
  -22.6607  -42.8455  -10.8076 C   0  0  0  0  0  0  0  0  0  0  0  0
  -23.2100  -44.1699  -11.2024 C   0  0  0  0  0  0  0  0  0  0  0  0
  -23.8981  -44.8535  -10.0215 C   0  0  0  0  0  0  0  0  0  0  0  0
  -23.2039  -46.1921   -9.7285 C   0  0  0  0  0  0  0  0  0  0  0  0
  -21.7547  -46.0070   -9.4283 C   0  0  0  0  0  0  0  0  0  0  0  0
  -21.5435  -45.5070   -8.1427 O   0  0  0  0  0  0  0  0  0  0  0  0
  -23.6842  -42.1643  -10.0902 C   0  0  0  0  0  0  0  0  0  0  0  0
  -23.5404  -40.9171   -9.5619 C   0  0  0  0  0  0  0  0  0  0  0  0
  -22.3112  -40.3482   -9.7742 C   0  0  0  0  0  0  0  0  0  0  0  0
  -17.6248  -39.9011  -10.1956 C   0  0  2  0  0  0  0  0  0  0  0  0
  -17.0317  -40.7365  -11.1808 O   0  0  0  0  0  0  0  0  0  0  0  0
  -16.5806  -39.7437   -9.1460 C   0  0  0  0  0  0  0  0  0  0  0  0
  -15.7001  -38.6225   -9.2982 N   0  0  0  0  0  0  0  0  0  0  0  0
  -16.4704  -37.3914   -9.3914 C   0  0  0  0  0  0  0  0  0  0  0  0
  -17.7048  -37.4279   -8.6053 C   0  0  0  0  0  0  0  0  0  0  0  0
  -17.7335  -37.8546   -7.3024 C   0  0  0  0  0  0  0  0  0  0  0  0
  -18.8834  -37.9021   -6.5365 C   0  0  0  0  0  0  0  0  0  0  0  0
  -20.0673  -37.4937   -7.1267 C   0  0  0  0  0  0  0  0  0  0  0  0
  -20.0544  -37.0608   -8.4393 C   0  0  0  0  0  0  0  0  0  0  0  0
  -18.8848  -37.0217   -9.1910 C   0  0  0  0  0  0  0  0  0  0  0  0
  -18.8419  -38.3744   -5.1277 C   0  0  0  0  0  0  0  0  0  0  0  0
  -19.4421  -37.3149   -4.2240 C   0  0  0  0  0  0  0  0  0  0  0  0
  -17.4227  -38.6832   -4.7254 C   0  0  0  0  0  0  0  0  0  0  0  0
  1  2  1  0
  2  3  1  0
  3  4  2  0
  3  5  1  0
  5  6  2  0
  6  7  1  0
  7  8  2  0
  8  9  1  0
  9 10  2  0
  9 11  1  0
 11 12  2  0
 11 13  1  0
 13 14  1  0
 14 15  1  6
 15 16  1  0
 16 17  1  0
 17 18  2  0
 18 19  1  0
 19 20  1  0
 20 21  1  0
 21 22  1  0
 22 23  1  0
 18 24  1  0
 24 25  2  0
 25 26  1  0
 14 27  1  0
 27 28  1  6
 27 29  1  0
 29 30  1  0
 30 31  1  0
 31 32  1  0
 32 33  2  0
 33 34  1  0
 34 35  2  0
 35 36  1  0
 36 37  2  0
 34 38  1  0
 38 39  1  0
 38 40  1  0
 10  5  1  0
 23  7  1  0
 26 16  2  0
 37 32  1  0
M  END
$$$$
