
     RDKit          3D

 40 43  0  0  0  0  0  0  0  0999 V2000
  -18.8048  -47.6356   -6.7521 C   0  0  0  0  0  0  0  0  0  0  0  0
  -19.0254  -46.5817   -5.8347 O   0  0  0  0  0  0  0  0  0  0  0  0
  -20.1244  -45.7682   -6.0395 C   0  0  0  0  0  0  0  0  0  0  0  0
  -21.2097  -46.0481   -5.4776 O   0  0  0  0  0  0  0  0  0  0  0  0
  -20.0760  -44.5834   -6.8918 C   0  0  0  0  0  0  0  0  0  0  0  0
  -21.0839  -44.2716   -7.7599 C   0  0  0  0  0  0  0  0  0  0  0  0
  -21.0439  -43.1310   -8.5899 C   0  0  0  0  0  0  0  0  0  0  0  0
  -19.9565  -42.2695   -8.5542 C   0  0  0  0  0  0  0  0  0  0  0  0
  -18.9273  -42.5550   -7.6898 C   0  0  0  0  0  0  0  0  0  0  0  0
  -19.0193  -43.7202   -6.8741 C   0  0  0  0  0  0  0  0  0  0  0  0
  -17.6610  -41.8625   -7.4005 C   0  0  0  0  0  0  0  0  0  0  0  0
  -16.5909  -42.6182   -7.2656 O   0  0  0  0  0  0  0  0  0  0  0  0
  -17.3100  -40.5128   -7.2225 N   0  0  0  0  0  0  0  0  0  0  0  0
  -18.0327  -39.3514   -7.6861 C   0  0  1  0  0  0  0  0  0  0  0  0
  -18.8554  -38.8035   -6.5265 C   0  0  0  0  0  0  0  0  0  0  0  0
  -20.1576  -39.5058   -6.3138 C   0  0  0  0  0  0  0  0  0  0  0  0
  -21.3031  -39.4829   -7.0696 C   0  0  0  0  0  0  0  0  0  0  0  0
  -22.3791  -40.2196   -6.6547 C   0  0  0  0  0  0  0  0  0  0  0  0
  -23.7422  -40.4379   -7.2078 C   0  0  0  0  0  0  0  0  0  0  0  0
  -24.0975  -41.9242   -7.2230 C   0  0  0  0  0  0  0  0  0  0  0  0
  -24.3766  -42.3697   -8.6663 C   0  0  0  0  0  0  0  0  0  0  0  0
  -23.2046  -42.1231   -9.5553 C   0  0  0  0  0  0  0  0  0  0  0  0
  -22.1901  -43.0613   -9.3607 O   0  0  0  0  0  0  0  0  0  0  0  0
  -22.2848  -40.9850   -5.4583 C   0  0  0  0  0  0  0  0  0  0  0  0
  -21.1704  -41.0388   -4.6768 C   0  0  0  0  0  0  0  0  0  0  0  0
  -20.1195  -40.2859   -5.1330 C   0  0  0  0  0  0  0  0  0  0  0  0
  -17.0352  -38.2823   -8.1016 C   0  0  2  0  0  0  0  0  0  0  0  0
  -17.7060  -37.0346   -8.2192 O   0  0  0  0  0  0  0  0  0  0  0  0
  -16.4467  -38.5304   -9.4466 C   0  0  0  0  0  0  0  0  0  0  0  0
  -15.2707  -39.3500   -9.4769 N   0  0  0  0  0  0  0  0  0  0  0  0
  -14.9448  -39.7055  -10.8498 C   0  0  0  0  0  0  0  0  0  0  0  0
  -14.4945  -38.5622  -11.6455 C   0  0  0  0  0  0  0  0  0  0  0  0
  -13.4818  -37.7342  -11.2340 C   0  0  0  0  0  0  0  0  0  0  0  0
  -13.0370  -36.6467  -11.9623 C   0  0  0  0  0  0  0  0  0  0  0  0
  -13.6546  -36.3873  -13.1739 C   0  0  0  0  0  0  0  0  0  0  0  0
  -14.6769  -37.2130  -13.6023 C   0  0  0  0  0  0  0  0  0  0  0  0
  -15.1081  -38.3020  -12.8523 C   0  0  0  0  0  0  0  0  0  0  0  0
  -11.9316  -35.7913  -11.4566 C   0  0  0  0  0  0  0  0  0  0  0  0
  -11.1293  -36.5628  -10.4267 C   0  0  0  0  0  0  0  0  0  0  0  0
  -12.4869  -34.5216  -10.8646 C   0  0  0  0  0  0  0  0  0  0  0  0
  1  2  1  0
  2  3  1  0
  3  4  2  0
  3  5  1  0
  5  6  2  0
  6  7  1  0
  7  8  2  0
  8  9  1  0
  9 10  2  0
  9 11  1  0
 11 12  2  0
 11 13  1  0
 13 14  1  0
 14 15  1  1
 15 16  1  0
 16 17  1  0
 17 18  2  0
 18 19  1  0
 19 20  1  0
 20 21  1  0
 21 22  1  0
 22 23  1  0
 18 24  1  0
 24 25  2  0
 25 26  1  0
 14 27  1  0
 27 28  1  6
 27 29  1  0
 29 30  1  0
 30 31  1  0
 31 32  1  0
 32 33  2  0
 33 34  1  0
 34 35  2  0
 35 36  1  0
 36 37  2  0
 34 38  1  0
 38 39  1  0
 38 40  1  0
 10  5  1  0
 23  7  1  0
 26 16  2  0
 37 32  1  0
M  END
$$$$
