
     RDKit          3D

 40 43  0  0  0  0  0  0  0  0999 V2000
  -19.5156  -46.7740   -4.2139 C   0  0  0  0  0  0  0  0  0  0  0  0
  -19.8778  -45.4237   -4.4296 O   0  0  0  0  0  0  0  0  0  0  0  0
  -20.8060  -45.1553   -5.4184 C   0  0  0  0  0  0  0  0  0  0  0  0
  -21.9005  -45.7669   -5.4166 O   0  0  0  0  0  0  0  0  0  0  0  0
  -20.5646  -44.1793   -6.4776 C   0  0  0  0  0  0  0  0  0  0  0  0
  -21.4881  -43.9203   -7.4507 C   0  0  0  0  0  0  0  0  0  0  0  0
  -21.2619  -42.9819   -8.4800 C   0  0  0  0  0  0  0  0  0  0  0  0
  -20.0686  -42.2761   -8.5425 C   0  0  0  0  0  0  0  0  0  0  0  0
  -19.1203  -42.5132   -7.5768 C   0  0  0  0  0  0  0  0  0  0  0  0
  -19.4008  -43.4717   -6.5600 C   0  0  0  0  0  0  0  0  0  0  0  0
  -17.7822  -41.9441   -7.3473 C   0  0  0  0  0  0  0  0  0  0  0  0
  -16.8316  -42.7882   -7.0034 O   0  0  0  0  0  0  0  0  0  0  0  0
  -17.2560  -40.6420   -7.4102 N   0  0  0  0  0  0  0  0  0  0  0  0
  -17.7951  -39.5133   -8.1324 C   0  0  1  0  0  0  0  0  0  0  0  0
  -18.5763  -38.6458   -7.1532 C   0  0  0  0  0  0  0  0  0  0  0  0
  -19.9694  -39.1199   -6.8913 C   0  0  0  0  0  0  0  0  0  0  0  0
  -21.0729  -39.1018   -7.7074 C   0  0  0  0  0  0  0  0  0  0  0  0
  -22.2541  -39.5981   -7.2269 C   0  0  0  0  0  0  0  0  0  0  0  0
  -23.6134  -39.7463   -7.8117 C   0  0  0  0  0  0  0  0  0  0  0  0
  -24.1684  -41.1484   -7.5635 C   0  0  0  0  0  0  0  0  0  0  0  0
  -24.4536  -41.8324   -8.9090 C   0  0  0  0  0  0  0  0  0  0  0  0
  -23.2275  -41.9187   -9.7539 C   0  0  0  0  0  0  0  0  0  0  0  0
  -22.3590  -42.9211   -9.3199 O   0  0  0  0  0  0  0  0  0  0  0  0
  -22.3091  -40.1163   -5.9023 C   0  0  0  0  0  0  0  0  0  0  0  0
  -21.2417  -40.1555   -5.0569 C   0  0  0  0  0  0  0  0  0  0  0  0
  -20.0815  -39.6484   -5.5827 C   0  0  0  0  0  0  0  0  0  0  0  0
  -16.6460  -38.6841   -8.6823 C   0  0  2  0  0  0  0  0  0  0  0  0
  -17.1674  -37.6338   -9.4857 O   0  0  0  0  0  0  0  0  0  0  0  0
  -15.7563  -39.4579   -9.5913 C   0  0  0  0  0  0  0  0  0  0  0  0
  -14.4441  -39.7468   -9.0909 N   0  0  0  0  0  0  0  0  0  0  0  0
  -13.5619  -40.1176  -10.1871 C   0  0  0  0  0  0  0  0  0  0  0  0
  -13.7402  -39.2792  -11.3739 C   0  0  0  0  0  0  0  0  0  0  0  0
  -13.2801  -37.9890  -11.4377 C   0  0  0  0  0  0  0  0  0  0  0  0
  -13.4357  -37.1734  -12.5430 C   0  0  0  0  0  0  0  0  0  0  0  0
  -14.0940  -37.6977  -13.6422 C   0  0  0  0  0  0  0  0  0  0  0  0
  -14.5635  -38.9967  -13.5932 C   0  0  0  0  0  0  0  0  0  0  0  0
  -14.3955  -39.7992  -12.4697 C   0  0  0  0  0  0  0  0  0  0  0  0
  -12.9095  -35.7832  -12.5445 C   0  0  0  0  0  0  0  0  0  0  0  0
  -11.4071  -35.8142  -12.7479 C   0  0  0  0  0  0  0  0  0  0  0  0
  -13.2630  -35.0930  -11.2523 C   0  0  0  0  0  0  0  0  0  0  0  0
  1  2  1  0
  2  3  1  0
  3  4  2  0
  3  5  1  0
  5  6  2  0
  6  7  1  0
  7  8  2  0
  8  9  1  0
  9 10  2  0
  9 11  1  0
 11 12  2  0
 11 13  1  0
 13 14  1  0
 14 15  1  1
 15 16  1  0
 16 17  1  0
 17 18  2  0
 18 19  1  0
 19 20  1  0
 20 21  1  0
 21 22  1  0
 22 23  1  0
 18 24  1  0
 24 25  2  0
 25 26  1  0
 14 27  1  0
 27 28  1  6
 27 29  1  0
 29 30  1  0
 30 31  1  0
 31 32  1  0
 32 33  2  0
 33 34  1  0
 34 35  2  0
 35 36  1  0
 36 37  2  0
 34 38  1  0
 38 39  1  0
 38 40  1  0
 10  5  1  0
 23  7  1  0
 26 16  2  0
 37 32  1  0
M  END
$$$$
