
     RDKit          3D

 40 43  0  0  0  0  0  0  0  0999 V2000
  -21.2180  -47.5261   -6.3745 C   0  0  0  0  0  0  0  0  0  0  0  0
  -20.7299  -46.3947   -5.6796 O   0  0  0  0  0  0  0  0  0  0  0  0
  -21.3599  -45.1835   -5.8970 C   0  0  0  0  0  0  0  0  0  0  0  0
  -22.4181  -44.9210   -5.2779 O   0  0  0  0  0  0  0  0  0  0  0  0
  -20.8407  -44.1845   -6.8271 C   0  0  0  0  0  0  0  0  0  0  0  0
  -21.5160  -43.8265   -7.9598 C   0  0  0  0  0  0  0  0  0  0  0  0
  -21.0202  -42.8652   -8.8660 C   0  0  0  0  0  0  0  0  0  0  0  0
  -19.8038  -42.2382   -8.6351 C   0  0  0  0  0  0  0  0  0  0  0  0
  -19.1016  -42.5755   -7.5032 C   0  0  0  0  0  0  0  0  0  0  0  0
  -19.6488  -43.5529   -6.6218 C   0  0  0  0  0  0  0  0  0  0  0  0
  -17.8150  -42.1059   -6.9638 C   0  0  0  0  0  0  0  0  0  0  0  0
  -17.0102  -43.0240   -6.4701 O   0  0  0  0  0  0  0  0  0  0  0  0
  -17.2153  -40.8400   -6.8440 N   0  0  0  0  0  0  0  0  0  0  0  0
  -17.5213  -39.6504   -7.6039 C   0  0  1  0  0  0  0  0  0  0  0  0
  -18.4457  -38.7724   -6.7694 C   0  0  0  0  0  0  0  0  0  0  0  0
  -19.8869  -39.1633   -6.8362 C   0  0  0  0  0  0  0  0  0  0  0  0
  -20.7849  -39.0398   -7.8669 C   0  0  0  0  0  0  0  0  0  0  0  0
  -22.0681  -39.4754   -7.6763 C   0  0  0  0  0  0  0  0  0  0  0  0
  -23.2749  -39.5099   -8.5447 C   0  0  0  0  0  0  0  0  0  0  0  0
  -23.9483  -40.8809   -8.4951 C   0  0  0  0  0  0  0  0  0  0  0  0
  -23.9738  -41.4907   -9.9048 C   0  0  0  0  0  0  0  0  0  0  0  0
  -22.6009  -41.6245  -10.4719 C   0  0  0  0  0  0  0  0  0  0  0  0
  -21.9045  -42.6987   -9.9162 O   0  0  0  0  0  0  0  0  0  0  0  0
  -22.4372  -40.0408   -6.4232 C   0  0  0  0  0  0  0  0  0  0  0  0
  -21.5818  -40.1840   -5.3729 C   0  0  0  0  0  0  0  0  0  0  0  0
  -20.3087  -39.7345   -5.6115 C   0  0  0  0  0  0  0  0  0  0  0  0
  -16.2357  -38.8780   -7.8513 C   0  0  2  0  0  0  0  0  0  0  0  0
  -16.5391  -37.6664   -8.5298 O   0  0  0  0  0  0  0  0  0  0  0  0
  -15.2922  -39.5966   -8.7514 C   0  0  0  0  0  0  0  0  0  0  0  0
  -14.2536  -40.3448   -8.1056 N   0  0  0  0  0  0  0  0  0  0  0  0
  -13.1911  -40.6453   -9.0533 C   0  0  0  0  0  0  0  0  0  0  0  0
  -13.1378  -39.7019  -10.1714 C   0  0  0  0  0  0  0  0  0  0  0  0
  -12.7751  -38.3895  -10.0085 C   0  0  0  0  0  0  0  0  0  0  0  0
  -12.7180  -37.4758  -11.0443 C   0  0  0  0  0  0  0  0  0  0  0  0
  -13.0470  -37.9201  -12.3135 C   0  0  0  0  0  0  0  0  0  0  0  0
  -13.4146  -39.2402  -12.4938 C   0  0  0  0  0  0  0  0  0  0  0  0
  -13.4651  -40.1421  -11.4362 C   0  0  0  0  0  0  0  0  0  0  0  0
  -12.3140  -36.0669  -10.7963 C   0  0  0  0  0  0  0  0  0  0  0  0
  -13.3502  -35.1340  -11.3926 C   0  0  0  0  0  0  0  0  0  0  0  0
  -10.9523  -35.8057  -11.3867 C   0  0  0  0  0  0  0  0  0  0  0  0
  1  2  1  0
  2  3  1  0
  3  4  2  0
  3  5  1  0
  5  6  2  0
  6  7  1  0
  7  8  2  0
  8  9  1  0
  9 10  2  0
  9 11  1  0
 11 12  2  0
 11 13  1  0
 13 14  1  0
 14 15  1  1
 15 16  1  0
 16 17  1  0
 17 18  2  0
 18 19  1  0
 19 20  1  0
 20 21  1  0
 21 22  1  0
 22 23  1  0
 18 24  1  0
 24 25  2  0
 25 26  1  0
 14 27  1  0
 27 28  1  6
 27 29  1  0
 29 30  1  0
 30 31  1  0
 31 32  1  0
 32 33  2  0
 33 34  1  0
 34 35  2  0
 35 36  1  0
 36 37  2  0
 34 38  1  0
 38 39  1  0
 38 40  1  0
 10  5  1  0
 23  7  1  0
 26 16  2  0
 37 32  1  0
M  END
$$$$
