
     RDKit          3D

 40 43  0  0  0  0  0  0  0  0999 V2000
  -23.0029  -46.9096   -6.9478 C   0  0  0  0  0  0  0  0  0  0  0  0
  -22.4546  -45.6345   -6.6747 O   0  0  0  0  0  0  0  0  0  0  0  0
  -21.1445  -45.4024   -7.0502 C   0  0  0  0  0  0  0  0  0  0  0  0
  -20.2719  -46.2687   -6.8048 O   0  0  0  0  0  0  0  0  0  0  0  0
  -20.7274  -44.1780   -7.7280 C   0  0  0  0  0  0  0  0  0  0  0  0
  -21.5067  -43.5677   -8.6698 C   0  0  0  0  0  0  0  0  0  0  0  0
  -21.1101  -42.3867   -9.3325 C   0  0  0  0  0  0  0  0  0  0  0  0
  -19.8889  -41.7925   -9.0465 C   0  0  0  0  0  0  0  0  0  0  0  0
  -19.0831  -42.3816   -8.1022 C   0  0  0  0  0  0  0  0  0  0  0  0
  -19.5329  -43.5738   -7.4634 C   0  0  0  0  0  0  0  0  0  0  0  0
  -17.7619  -42.0161   -7.5660 C   0  0  0  0  0  0  0  0  0  0  0  0
  -16.9007  -42.9977   -7.3950 O   0  0  0  0  0  0  0  0  0  0  0  0
  -17.1757  -40.8009   -7.1707 N   0  0  0  0  0  0  0  0  0  0  0  0
  -17.5684  -39.4690   -7.5679 C   0  0  1  0  0  0  0  0  0  0  0  0
  -18.4299  -38.8726   -6.4616 C   0  0  0  0  0  0  0  0  0  0  0  0
  -19.8643  -39.2898   -6.5100 C   0  0  0  0  0  0  0  0  0  0  0  0
  -20.8525  -38.9410   -7.3965 C   0  0  0  0  0  0  0  0  0  0  0  0
  -22.1059  -39.4613   -7.2218 C   0  0  0  0  0  0  0  0  0  0  0  0
  -23.3844  -39.3191   -7.9680 C   0  0  0  0  0  0  0  0  0  0  0  0
  -24.0272  -40.6821   -8.2216 C   0  0  0  0  0  0  0  0  0  0  0  0
  -24.1675  -40.9093   -9.7344 C   0  0  0  0  0  0  0  0  0  0  0  0
  -22.8483  -40.8382  -10.4267 C   0  0  0  0  0  0  0  0  0  0  0  0
  -22.0870  -41.9907  -10.2277 O   0  0  0  0  0  0  0  0  0  0  0  0
  -22.3524  -40.3443   -6.1328 C   0  0  0  0  0  0  0  0  0  0  0  0
  -21.4046  -40.7190   -5.2291 C   0  0  0  0  0  0  0  0  0  0  0  0
  -20.1657  -40.1731   -5.4455 C   0  0  0  0  0  0  0  0  0  0  0  0
  -16.3234  -38.6086   -7.7101 C   0  0  2  0  0  0  0  0  0  0  0  0
  -16.7043  -37.2874   -8.0704 O   0  0  0  0  0  0  0  0  0  0  0  0
  -15.4273  -39.0633   -8.8088 C   0  0  0  0  0  0  0  0  0  0  0  0
  -15.9137  -40.1497   -9.6080 N   0  0  0  0  0  0  0  0  0  0  0  0
  -14.8186  -40.7493  -10.3556 C   0  0  0  0  0  0  0  0  0  0  0  0
  -14.1725  -39.8114  -11.2754 C   0  0  0  0  0  0  0  0  0  0  0  0
  -14.5007  -38.4807  -11.3181 C   0  0  0  0  0  0  0  0  0  0  0  0
  -13.9098  -37.5726  -12.1767 C   0  0  0  0  0  0  0  0  0  0  0  0
  -12.9329  -38.0425  -13.0377 C   0  0  0  0  0  0  0  0  0  0  0  0
  -12.5910  -39.3813  -13.0065 C   0  0  0  0  0  0  0  0  0  0  0  0
  -13.1994  -40.2772  -12.1337 C   0  0  0  0  0  0  0  0  0  0  0  0
  -14.3132  -36.1419  -12.1683 C   0  0  0  0  0  0  0  0  0  0  0  0
  -15.4166  -35.9243  -13.1855 C   0  0  0  0  0  0  0  0  0  0  0  0
  -13.1245  -35.2656  -12.4686 C   0  0  0  0  0  0  0  0  0  0  0  0
  1  2  1  0
  2  3  1  0
  3  4  2  0
  3  5  1  0
  5  6  2  0
  6  7  1  0
  7  8  2  0
  8  9  1  0
  9 10  2  0
  9 11  1  0
 11 12  2  0
 11 13  1  0
 13 14  1  0
 14 15  1  1
 15 16  1  0
 16 17  1  0
 17 18  2  0
 18 19  1  0
 19 20  1  0
 20 21  1  0
 21 22  1  0
 22 23  1  0
 18 24  1  0
 24 25  2  0
 25 26  1  0
 14 27  1  0
 27 28  1  6
 27 29  1  0
 29 30  1  0
 30 31  1  0
 31 32  1  0
 32 33  2  0
 33 34  1  0
 34 35  2  0
 35 36  1  0
 36 37  2  0
 34 38  1  0
 38 39  1  0
 38 40  1  0
 10  5  1  0
 23  7  1  0
 26 16  2  0
 37 32  1  0
M  END
$$$$
