
     RDKit          3D

 40 43  0  0  0  0  0  0  0  0999 V2000
  -21.9296  -47.5329   -7.7948 C   0  0  0  0  0  0  0  0  0  0  0  0
  -21.8815  -46.3275   -7.0561 O   0  0  0  0  0  0  0  0  0  0  0  0
  -20.6753  -45.6543   -6.9989 C   0  0  0  0  0  0  0  0  0  0  0  0
  -19.7103  -46.1727   -6.3889 O   0  0  0  0  0  0  0  0  0  0  0  0
  -20.4736  -44.3505   -7.6250 C   0  0  0  0  0  0  0  0  0  0  0  0
  -21.3992  -43.7965   -8.4636 C   0  0  0  0  0  0  0  0  0  0  0  0
  -21.2110  -42.5392   -9.0759 C   0  0  0  0  0  0  0  0  0  0  0  0
  -20.0549  -41.8071   -8.8447 C   0  0  0  0  0  0  0  0  0  0  0  0
  -19.1056  -42.3367   -8.0043 C   0  0  0  0  0  0  0  0  0  0  0  0
  -19.3470  -43.6107   -7.4124 C   0  0  0  0  0  0  0  0  0  0  0  0
  -17.8009  -41.8316   -7.5465 C   0  0  0  0  0  0  0  0  0  0  0  0
  -16.8118  -42.7000   -7.5053 O   0  0  0  0  0  0  0  0  0  0  0  0
  -17.3417  -40.5737   -7.1182 N   0  0  0  0  0  0  0  0  0  0  0  0
  -17.9307  -39.2848   -7.3971 C   0  0  1  0  0  0  0  0  0  0  0  0
  -18.7654  -38.8678   -6.1924 C   0  0  0  0  0  0  0  0  0  0  0  0
  -20.1349  -39.4657   -6.1596 C   0  0  0  0  0  0  0  0  0  0  0  0
  -21.2295  -39.2010   -6.9445 C   0  0  0  0  0  0  0  0  0  0  0  0
  -22.3884  -39.8896   -6.7100 C   0  0  0  0  0  0  0  0  0  0  0  0
  -23.7323  -39.8749   -7.3469 C   0  0  0  0  0  0  0  0  0  0  0  0
  -24.2171  -41.2944   -7.6396 C   0  0  0  0  0  0  0  0  0  0  0  0
  -24.4529  -41.4545   -9.1490 C   0  0  0  0  0  0  0  0  0  0  0  0
  -23.2154  -41.1736   -9.9327 C   0  0  0  0  0  0  0  0  0  0  0  0
  -22.3011  -42.2258   -9.8672 O   0  0  0  0  0  0  0  0  0  0  0  0
  -22.4303  -40.8557   -5.6655 C   0  0  0  0  0  0  0  0  0  0  0  0
  -21.3710  -41.1522   -4.8621 C   0  0  0  0  0  0  0  0  0  0  0  0
  -20.2331  -40.4380   -5.1353 C   0  0  0  0  0  0  0  0  0  0  0  0
  -16.8202  -38.2625   -7.5763 C   0  0  2  0  0  0  0  0  0  0  0  0
  -17.3610  -36.9543   -7.4477 O   0  0  0  0  0  0  0  0  0  0  0  0
  -16.2156  -38.2963   -8.9366 C   0  0  0  0  0  0  0  0  0  0  0  0
  -15.1779  -39.2646   -9.1395 N   0  0  0  0  0  0  0  0  0  0  0  0
  -15.3052  -39.8641  -10.4593 C   0  0  0  0  0  0  0  0  0  0  0  0
  -14.8602  -38.9776  -11.5360 C   0  0  0  0  0  0  0  0  0  0  0  0
  -13.7364  -38.1990  -11.4291 C   0  0  0  0  0  0  0  0  0  0  0  0
  -13.2934  -37.3515  -12.4273 C   0  0  0  0  0  0  0  0  0  0  0  0
  -14.0321  -37.2925  -13.5966 C   0  0  0  0  0  0  0  0  0  0  0  0
  -15.1673  -38.0714  -13.7194 C   0  0  0  0  0  0  0  0  0  0  0  0
  -15.5944  -38.9173  -12.7012 C   0  0  0  0  0  0  0  0  0  0  0  0
  -12.0637  -36.5363  -12.2449 C   0  0  0  0  0  0  0  0  0  0  0  0
  -11.1329  -36.7598  -13.4209 C   0  0  0  0  0  0  0  0  0  0  0  0
  -11.3880  -36.8994  -10.9477 C   0  0  0  0  0  0  0  0  0  0  0  0
  1  2  1  0
  2  3  1  0
  3  4  2  0
  3  5  1  0
  5  6  2  0
  6  7  1  0
  7  8  2  0
  8  9  1  0
  9 10  2  0
  9 11  1  0
 11 12  2  0
 11 13  1  0
 13 14  1  0
 14 15  1  1
 15 16  1  0
 16 17  1  0
 17 18  2  0
 18 19  1  0
 19 20  1  0
 20 21  1  0
 21 22  1  0
 22 23  1  0
 18 24  1  0
 24 25  2  0
 25 26  1  0
 14 27  1  0
 27 28  1  6
 27 29  1  0
 29 30  1  0
 30 31  1  0
 31 32  1  0
 32 33  2  0
 33 34  1  0
 34 35  2  0
 35 36  1  0
 36 37  2  0
 34 38  1  0
 38 39  1  0
 38 40  1  0
 10  5  1  0
 23  7  1  0
 26 16  2  0
 37 32  1  0
M  END
$$$$
