
     RDKit          3D

 40 43  0  0  0  0  0  0  0  0999 V2000
  -21.1386  -46.2648   -4.0074 C   0  0  0  0  0  0  0  0  0  0  0  0
  -20.5422  -45.3001   -4.8528 O   0  0  0  0  0  0  0  0  0  0  0  0
  -21.2219  -44.9420   -6.0022 C   0  0  0  0  0  0  0  0  0  0  0  0
  -22.2708  -45.5549   -6.3124 O   0  0  0  0  0  0  0  0  0  0  0  0
  -20.7663  -43.8687   -6.8814 C   0  0  0  0  0  0  0  0  0  0  0  0
  -21.5462  -43.3746   -7.8886 C   0  0  0  0  0  0  0  0  0  0  0  0
  -21.1128  -42.3404   -8.7453 C   0  0  0  0  0  0  0  0  0  0  0  0
  -19.8529  -41.7786   -8.5930 C   0  0  0  0  0  0  0  0  0  0  0  0
  -19.0455  -42.2529   -7.5875 C   0  0  0  0  0  0  0  0  0  0  0  0
  -19.5334  -43.2989   -6.7511 C   0  0  0  0  0  0  0  0  0  0  0  0
  -17.6886  -41.8818   -7.1538 C   0  0  0  0  0  0  0  0  0  0  0  0
  -16.8741  -42.8706   -6.8486 O   0  0  0  0  0  0  0  0  0  0  0  0
  -17.0263  -40.6543   -6.9777 N   0  0  0  0  0  0  0  0  0  0  0  0
  -17.3632  -39.3835   -7.5758 C   0  0  1  0  0  0  0  0  0  0  0  0
  -18.1523  -38.5684   -6.5585 C   0  0  0  0  0  0  0  0  0  0  0  0
  -19.6073  -38.9054   -6.4995 C   0  0  0  0  0  0  0  0  0  0  0  0
  -20.6072  -38.6482   -7.4040 C   0  0  0  0  0  0  0  0  0  0  0  0
  -21.8789  -39.0612   -7.1131 C   0  0  0  0  0  0  0  0  0  0  0  0
  -23.1742  -38.9682   -7.8377 C   0  0  0  0  0  0  0  0  0  0  0  0
  -23.8957  -40.3154   -7.8485 C   0  0  0  0  0  0  0  0  0  0  0  0
  -24.1018  -40.7749   -9.2996 C   0  0  0  0  0  0  0  0  0  0  0  0
  -22.8064  -40.8918  -10.0297 C   0  0  0  0  0  0  0  0  0  0  0  0
  -22.0994  -42.0387   -9.6664 O   0  0  0  0  0  0  0  0  0  0  0  0
  -22.1316  -39.7416   -5.8886 C   0  0  0  0  0  0  0  0  0  0  0  0
  -21.1728  -40.0193   -4.9618 C   0  0  0  0  0  0  0  0  0  0  0  0
  -19.9158  -39.5871   -5.2977 C   0  0  0  0  0  0  0  0  0  0  0  0
  -16.0811  -38.6298   -7.8898 C   0  0  2  0  0  0  0  0  0  0  0  0
  -16.2730  -37.8430   -9.0579 O   0  0  0  0  0  0  0  0  0  0  0  0
  -14.9436  -39.5329   -8.2173 C   0  0  0  0  0  0  0  0  0  0  0  0
  -15.0931  -40.3288   -9.4005 N   0  0  0  0  0  0  0  0  0  0  0  0
  -13.8561  -40.3219  -10.1668 C   0  0  0  0  0  0  0  0  0  0  0  0
  -13.4673  -38.9832  -10.6139 C   0  0  0  0  0  0  0  0  0  0  0  0
  -13.3246  -38.6643  -11.9399 C   0  0  0  0  0  0  0  0  0  0  0  0
  -12.9568  -37.4106  -12.3915 C   0  0  0  0  0  0  0  0  0  0  0  0
  -12.7216  -36.4287  -11.4444 C   0  0  0  0  0  0  0  0  0  0  0  0
  -12.8613  -36.7348  -10.1038 C   0  0  0  0  0  0  0  0  0  0  0  0
  -13.2325  -38.0039   -9.6724 C   0  0  0  0  0  0  0  0  0  0  0  0
  -12.8227  -37.1334  -13.8458 C   0  0  0  0  0  0  0  0  0  0  0  0
  -14.1906  -37.1922  -14.4974 C   0  0  0  0  0  0  0  0  0  0  0  0
  -11.8823  -38.1263  -14.4789 C   0  0  0  0  0  0  0  0  0  0  0  0
  1  2  1  0
  2  3  1  0
  3  4  2  0
  3  5  1  0
  5  6  2  0
  6  7  1  0
  7  8  2  0
  8  9  1  0
  9 10  2  0
  9 11  1  0
 11 12  2  0
 11 13  1  0
 13 14  1  0
 14 15  1  1
 15 16  1  0
 16 17  1  0
 17 18  2  0
 18 19  1  0
 19 20  1  0
 20 21  1  0
 21 22  1  0
 22 23  1  0
 18 24  1  0
 24 25  2  0
 25 26  1  0
 14 27  1  0
 27 28  1  6
 27 29  1  0
 29 30  1  0
 30 31  1  0
 31 32  1  0
 32 33  2  0
 33 34  1  0
 34 35  2  0
 35 36  1  0
 36 37  2  0
 34 38  1  0
 38 39  1  0
 38 40  1  0
 10  5  1  0
 23  7  1  0
 26 16  2  0
 37 32  1  0
M  END
$$$$
