
     RDKit          3D

 40 43  0  0  0  0  0  0  0  0999 V2000
  -19.0578  -46.2331   -4.1022 C   0  0  0  0  0  0  0  0  0  0  0  0
  -19.5366  -44.9110   -4.2573 O   0  0  0  0  0  0  0  0  0  0  0  0
  -20.4801  -44.6784   -5.2406 C   0  0  0  0  0  0  0  0  0  0  0  0
  -21.5917  -45.2547   -5.1748 O   0  0  0  0  0  0  0  0  0  0  0  0
  -20.2360  -43.7802   -6.3659 C   0  0  0  0  0  0  0  0  0  0  0  0
  -21.1218  -43.6521   -7.3983 C   0  0  0  0  0  0  0  0  0  0  0  0
  -20.8923  -42.7898   -8.4915 C   0  0  0  0  0  0  0  0  0  0  0  0
  -19.7346  -42.0273   -8.5587 C   0  0  0  0  0  0  0  0  0  0  0  0
  -18.8249  -42.1327   -7.5343 C   0  0  0  0  0  0  0  0  0  0  0  0
  -19.1069  -43.0191   -6.4544 C   0  0  0  0  0  0  0  0  0  0  0  0
  -17.5305  -41.4746   -7.2927 C   0  0  0  0  0  0  0  0  0  0  0  0
  -16.5567  -42.2346   -6.8362 O   0  0  0  0  0  0  0  0  0  0  0  0
  -17.0685  -40.1551   -7.4408 N   0  0  0  0  0  0  0  0  0  0  0  0
  -17.6275  -39.1202   -8.2790 C   0  0  1  0  0  0  0  0  0  0  0  0
  -18.4995  -38.2197   -7.4127 C   0  0  0  0  0  0  0  0  0  0  0  0
  -19.8781  -38.7464   -7.1756 C   0  0  0  0  0  0  0  0  0  0  0  0
  -20.9390  -38.8552   -8.0398 C   0  0  0  0  0  0  0  0  0  0  0  0
  -22.1160  -39.3744   -7.5735 C   0  0  0  0  0  0  0  0  0  0  0  0
  -23.4351  -39.6439   -8.2051 C   0  0  0  0  0  0  0  0  0  0  0  0
  -23.9301  -41.0493   -7.8655 C   0  0  0  0  0  0  0  0  0  0  0  0
  -24.1128  -41.8552   -9.1604 C   0  0  0  0  0  0  0  0  0  0  0  0
  -22.8432  -41.9429   -9.9383 C   0  0  0  0  0  0  0  0  0  0  0  0
  -21.9478  -42.8576   -9.3826 O   0  0  0  0  0  0  0  0  0  0  0  0
  -22.2107  -39.7852   -6.2139 C   0  0  0  0  0  0  0  0  0  0  0  0
  -21.1862  -39.6970   -5.3206 C   0  0  0  0  0  0  0  0  0  0  0  0
  -20.0284  -39.1718   -5.8337 C   0  0  0  0  0  0  0  0  0  0  0  0
  -16.4959  -38.2770   -8.8437 C   0  0  2  0  0  0  0  0  0  0  0  0
  -17.0145  -37.3959   -9.8311 O   0  0  0  0  0  0  0  0  0  0  0  0
  -15.4680  -39.0873   -9.5535 C   0  0  0  0  0  0  0  0  0  0  0  0
  -14.3768  -39.5600   -8.7526 N   0  0  0  0  0  0  0  0  0  0  0  0
  -13.2509  -39.9164   -9.6028 C   0  0  0  0  0  0  0  0  0  0  0  0
  -13.2876  -39.2549  -10.9082 C   0  0  0  0  0  0  0  0  0  0  0  0
  -12.8616  -37.9642  -11.0899 C   0  0  0  0  0  0  0  0  0  0  0  0
  -12.8865  -37.3132  -12.3092 C   0  0  0  0  0  0  0  0  0  0  0  0
  -13.3699  -38.0119  -13.4022 C   0  0  0  0  0  0  0  0  0  0  0  0
  -13.8029  -39.3138  -13.2350 C   0  0  0  0  0  0  0  0  0  0  0  0
  -13.7687  -39.9488  -11.9980 C   0  0  0  0  0  0  0  0  0  0  0  0
  -12.4066  -35.9119  -12.4349 C   0  0  0  0  0  0  0  0  0  0  0  0
  -10.9652  -35.8302  -11.9711 C   0  0  0  0  0  0  0  0  0  0  0  0
  -13.2839  -34.9886  -11.6293 C   0  0  0  0  0  0  0  0  0  0  0  0
  1  2  1  0
  2  3  1  0
  3  4  2  0
  3  5  1  0
  5  6  2  0
  6  7  1  0
  7  8  2  0
  8  9  1  0
  9 10  2  0
  9 11  1  0
 11 12  2  0
 11 13  1  0
 13 14  1  0
 14 15  1  1
 15 16  1  0
 16 17  1  0
 17 18  2  0
 18 19  1  0
 19 20  1  0
 20 21  1  0
 21 22  1  0
 22 23  1  0
 18 24  1  0
 24 25  2  0
 25 26  1  0
 14 27  1  0
 27 28  1  6
 27 29  1  0
 29 30  1  0
 30 31  1  0
 31 32  1  0
 32 33  2  0
 33 34  1  0
 34 35  2  0
 35 36  1  0
 36 37  2  0
 34 38  1  0
 38 39  1  0
 38 40  1  0
 10  5  1  0
 23  7  1  0
 26 16  2  0
 37 32  1  0
M  END
$$$$
