
     RDKit          3D

 40 43  0  0  0  0  0  0  0  0999 V2000
  -20.2913  -44.7614   -3.1030 C   0  0  0  0  0  0  0  0  0  0  0  0
  -21.0289  -43.8302   -3.8710 O   0  0  0  0  0  0  0  0  0  0  0  0
  -21.3464  -44.1751   -5.1715 C   0  0  0  0  0  0  0  0  0  0  0  0
  -22.0751  -45.1734   -5.3823 O   0  0  0  0  0  0  0  0  0  0  0  0
  -20.8647  -43.4188   -6.3241 C   0  0  0  0  0  0  0  0  0  0  0  0
  -21.6073  -43.2782   -7.4624 C   0  0  0  0  0  0  0  0  0  0  0  0
  -21.1482  -42.5527   -8.5823 C   0  0  0  0  0  0  0  0  0  0  0  0
  -19.9002  -41.9457   -8.5673 C   0  0  0  0  0  0  0  0  0  0  0  0
  -19.1302  -42.0675   -7.4359 C   0  0  0  0  0  0  0  0  0  0  0  0
  -19.6428  -42.8117   -6.3336 C   0  0  0  0  0  0  0  0  0  0  0  0
  -17.7951  -41.5523   -7.0909 C   0  0  0  0  0  0  0  0  0  0  0  0
  -16.9853  -42.3804   -6.4641 O   0  0  0  0  0  0  0  0  0  0  0  0
  -17.1507  -40.3175   -7.2820 N   0  0  0  0  0  0  0  0  0  0  0  0
  -17.4738  -39.3026   -8.2575 C   0  0  1  0  0  0  0  0  0  0  0  0
  -18.3100  -38.2282   -7.5734 C   0  0  0  0  0  0  0  0  0  0  0  0
  -19.7634  -38.5599   -7.4647 C   0  0  0  0  0  0  0  0  0  0  0  0
  -20.7280  -38.6169   -8.4395 C   0  0  0  0  0  0  0  0  0  0  0  0
  -22.0070  -38.9451   -8.0803 C   0  0  0  0  0  0  0  0  0  0  0  0
  -23.2727  -39.1084   -8.8438 C   0  0  0  0  0  0  0  0  0  0  0  0
  -23.9818  -40.4068   -8.4606 C   0  0  0  0  0  0  0  0  0  0  0  0
  -24.1253  -41.2985   -9.7031 C   0  0  0  0  0  0  0  0  0  0  0  0
  -22.8005  -41.6098  -10.3136 C   0  0  0  0  0  0  0  0  0  0  0  0
  -22.0992  -42.5723   -9.5862 O   0  0  0  0  0  0  0  0  0  0  0  0
  -22.3033  -39.2165   -6.7147 C   0  0  0  0  0  0  0  0  0  0  0  0
  -21.3804  -39.1728   -5.7138 C   0  0  0  0  0  0  0  0  0  0  0  0
  -20.1145  -38.8406   -6.1222 C   0  0  0  0  0  0  0  0  0  0  0  0
  -16.1863  -38.6576   -8.7443 C   0  0  2  0  0  0  0  0  0  0  0  0
  -16.4901  -37.4204   -9.3747 O   0  0  0  0  0  0  0  0  0  0  0  0
  -15.4945  -39.4616   -9.7891 C   0  0  0  0  0  0  0  0  0  0  0  0
  -14.7722  -40.6094   -9.3237 N   0  0  0  0  0  0  0  0  0  0  0  0
  -13.3505  -40.3085   -9.2493 C   0  0  0  0  0  0  0  0  0  0  0  0
  -12.8599  -39.5704  -10.4144 C   0  0  0  0  0  0  0  0  0  0  0  0
  -12.4075  -38.2787  -10.3285 C   0  0  0  0  0  0  0  0  0  0  0  0
  -11.9410  -37.5563  -11.4109 C   0  0  0  0  0  0  0  0  0  0  0  0
  -11.9337  -38.1806  -12.6465 C   0  0  0  0  0  0  0  0  0  0  0  0
  -12.3864  -39.4824  -12.7492 C   0  0  0  0  0  0  0  0  0  0  0  0
  -12.8518  -40.1901  -11.6459 C   0  0  0  0  0  0  0  0  0  0  0  0
  -11.4630  -36.1585  -11.2454 C   0  0  0  0  0  0  0  0  0  0  0  0
  -11.9049  -35.3313  -12.4370 C   0  0  0  0  0  0  0  0  0  0  0  0
   -9.9629  -36.1364  -11.1020 C   0  0  0  0  0  0  0  0  0  0  0  0
  1  2  1  0
  2  3  1  0
  3  4  2  0
  3  5  1  0
  5  6  2  0
  6  7  1  0
  7  8  2  0
  8  9  1  0
  9 10  2  0
  9 11  1  0
 11 12  2  0
 11 13  1  0
 13 14  1  0
 14 15  1  1
 15 16  1  0
 16 17  1  0
 17 18  2  0
 18 19  1  0
 19 20  1  0
 20 21  1  0
 21 22  1  0
 22 23  1  0
 18 24  1  0
 24 25  2  0
 25 26  1  0
 14 27  1  0
 27 28  1  6
 27 29  1  0
 29 30  1  0
 30 31  1  0
 31 32  1  0
 32 33  2  0
 33 34  1  0
 34 35  2  0
 35 36  1  0
 36 37  2  0
 34 38  1  0
 38 39  1  0
 38 40  1  0
 10  5  1  0
 23  7  1  0
 26 16  2  0
 37 32  1  0
M  END
$$$$
