
     RDKit          3D

 40 43  0  0  0  0  0  0  0  0999 V2000
  -21.5464  -42.8303   -1.0222 C   0  0  0  0  0  0  0  0  0  0  0  0
  -21.4143  -42.1962   -2.2798 O   0  0  0  0  0  0  0  0  0  0  0  0
  -22.1045  -42.7355   -3.3493 C   0  0  0  0  0  0  0  0  0  0  0  0
  -23.1116  -43.4506   -3.1335 O   0  0  0  0  0  0  0  0  0  0  0  0
  -21.7075  -42.5063   -4.7358 C   0  0  0  0  0  0  0  0  0  0  0  0
  -22.5655  -42.7082   -5.7798 C   0  0  0  0  0  0  0  0  0  0  0  0
  -22.1893  -42.4931   -7.1228 C   0  0  0  0  0  0  0  0  0  0  0  0
  -20.9081  -42.0619   -7.4369 C   0  0  0  0  0  0  0  0  0  0  0  0
  -20.0223  -41.8481   -6.4084 C   0  0  0  0  0  0  0  0  0  0  0  0
  -20.4549  -42.0810   -5.0704 C   0  0  0  0  0  0  0  0  0  0  0  0
  -18.6230  -41.3916   -6.3903 C   0  0  0  0  0  0  0  0  0  0  0  0
  -17.8068  -42.0189   -5.5689 O   0  0  0  0  0  0  0  0  0  0  0  0
  -17.9190  -40.3884   -7.0792 N   0  0  0  0  0  0  0  0  0  0  0  0
  -18.2803  -39.7678   -8.3323 C   0  0  1  0  0  0  0  0  0  0  0  0
  -18.9528  -38.4341   -8.0311 C   0  0  0  0  0  0  0  0  0  0  0  0
  -20.4036  -38.5433   -7.6883 C   0  0  0  0  0  0  0  0  0  0  0  0
  -21.4766  -38.8446   -8.4895 C   0  0  0  0  0  0  0  0  0  0  0  0
  -22.7252  -38.8786   -7.9307 C   0  0  0  0  0  0  0  0  0  0  0  0
  -24.0794  -39.1688   -8.4723 C   0  0  0  0  0  0  0  0  0  0  0  0
  -24.8298  -40.1541   -7.5769 C   0  0  0  0  0  0  0  0  0  0  0  0
  -25.1797  -41.4145   -8.3822 C   0  0  0  0  0  0  0  0  0  0  0  0
  -23.9604  -42.0684   -8.9392 C   0  0  0  0  0  0  0  0  0  0  0  0
  -23.2495  -42.7718   -7.9659 O   0  0  0  0  0  0  0  0  0  0  0  0
  -22.8793  -38.6020   -6.5429 C   0  0  0  0  0  0  0  0  0  0  0  0
  -21.8456  -38.2991   -5.7092 C   0  0  0  0  0  0  0  0  0  0  0  0
  -20.6153  -38.2778   -6.3139 C   0  0  0  0  0  0  0  0  0  0  0  0
  -17.0156  -39.4878   -9.1277 C   0  0  2  0  0  0  0  0  0  0  0  0
  -16.0863  -40.5429   -8.9187 O   0  0  0  0  0  0  0  0  0  0  0  0
  -16.3081  -38.2578   -8.6769 C   0  0  0  0  0  0  0  0  0  0  0  0
  -14.8804  -38.3514   -8.5852 N   0  0  0  0  0  0  0  0  0  0  0  0
  -14.3392  -38.9404   -9.8008 C   0  0  0  0  0  0  0  0  0  0  0  0
  -14.1297  -37.9600  -10.8676 C   0  0  0  0  0  0  0  0  0  0  0  0
  -14.6526  -36.6934  -10.8142 C   0  0  0  0  0  0  0  0  0  0  0  0
  -14.4736  -35.7478  -11.8066 C   0  0  0  0  0  0  0  0  0  0  0  0
  -13.7227  -36.1091  -12.9121 C   0  0  0  0  0  0  0  0  0  0  0  0
  -13.1889  -37.3822  -12.9804 C   0  0  0  0  0  0  0  0  0  0  0  0
  -13.3823  -38.3176  -11.9694 C   0  0  0  0  0  0  0  0  0  0  0  0
  -15.0681  -34.3911  -11.6826 C   0  0  0  0  0  0  0  0  0  0  0  0
  -15.6329  -33.9648  -13.0238 C   0  0  0  0  0  0  0  0  0  0  0  0
  -14.0295  -33.4112  -11.2007 C   0  0  0  0  0  0  0  0  0  0  0  0
  1  2  1  0
  2  3  1  0
  3  4  2  0
  3  5  1  0
  5  6  2  0
  6  7  1  0
  7  8  2  0
  8  9  1  0
  9 10  2  0
  9 11  1  0
 11 12  2  0
 11 13  1  0
 13 14  1  0
 14 15  1  1
 15 16  1  0
 16 17  1  0
 17 18  2  0
 18 19  1  0
 19 20  1  0
 20 21  1  0
 21 22  1  0
 22 23  1  0
 18 24  1  0
 24 25  2  0
 25 26  1  0
 14 27  1  0
 27 28  1  1
 27 29  1  0
 29 30  1  0
 30 31  1  0
 31 32  1  0
 32 33  2  0
 33 34  1  0
 34 35  2  0
 35 36  1  0
 36 37  2  0
 34 38  1  0
 38 39  1  0
 38 40  1  0
 10  5  1  0
 23  7  1  0
 26 16  2  0
 37 32  1  0
M  END
$$$$
