
     RDKit          3D

 40 43  0  0  0  0  0  0  0  0999 V2000
  -20.2037  -43.9016   -1.9290 C   0  0  0  0  0  0  0  0  0  0  0  0
  -19.9953  -44.1188   -3.3112 O   0  0  0  0  0  0  0  0  0  0  0  0
  -20.9208  -43.5923   -4.1930 C   0  0  0  0  0  0  0  0  0  0  0  0
  -22.1402  -43.6393   -3.9052 O   0  0  0  0  0  0  0  0  0  0  0  0
  -20.5358  -42.9767   -5.4601 C   0  0  0  0  0  0  0  0  0  0  0  0
  -21.2743  -43.1355   -6.5987 C   0  0  0  0  0  0  0  0  0  0  0  0
  -20.9078  -42.5477   -7.8281 C   0  0  0  0  0  0  0  0  0  0  0  0
  -19.7603  -41.7734   -7.9264 C   0  0  0  0  0  0  0  0  0  0  0  0
  -18.9973  -41.5933   -6.7979 C   0  0  0  0  0  0  0  0  0  0  0  0
  -19.4137  -42.2100   -5.5822 C   0  0  0  0  0  0  0  0  0  0  0  0
  -17.7552  -40.8412   -6.5565 C   0  0  0  0  0  0  0  0  0  0  0  0
  -16.8442  -41.4283   -5.8084 O   0  0  0  0  0  0  0  0  0  0  0  0
  -17.2921  -39.5755   -6.9567 N   0  0  0  0  0  0  0  0  0  0  0  0
  -17.7432  -38.7941   -8.0844 C   0  0  1  0  0  0  0  0  0  0  0  0
  -18.7350  -37.7527   -7.5807 C   0  0  0  0  0  0  0  0  0  0  0  0
  -20.1271  -38.2675   -7.4042 C   0  0  0  0  0  0  0  0  0  0  0  0
  -21.0592  -38.6240   -8.3466 C   0  0  0  0  0  0  0  0  0  0  0  0
  -22.2829  -39.0686   -7.9255 C   0  0  0  0  0  0  0  0  0  0  0  0
  -23.5008  -39.5371   -8.6389 C   0  0  0  0  0  0  0  0  0  0  0  0
  -24.0217  -40.8421   -8.0380 C   0  0  0  0  0  0  0  0  0  0  0  0
  -24.0175  -41.9391   -9.1133 C   0  0  0  0  0  0  0  0  0  0  0  0
  -22.6530  -42.1534   -9.6762 C   0  0  0  0  0  0  0  0  0  0  0  0
  -21.8314  -42.8706   -8.8055 O   0  0  0  0  0  0  0  0  0  0  0  0
  -22.5571  -39.1492   -6.5310 C   0  0  0  0  0  0  0  0  0  0  0  0
  -21.6647  -38.8073   -5.5603 C   0  0  0  0  0  0  0  0  0  0  0  0
  -20.4538  -38.3689   -6.0305 C   0  0  0  0  0  0  0  0  0  0  0  0
  -16.5548  -38.0603   -8.6841 C   0  0  2  0  0  0  0  0  0  0  0  0
  -16.8839  -37.6281   -9.9976 O   0  0  0  0  0  0  0  0  0  0  0  0
  -15.3609  -38.9334   -8.8548 C   0  0  0  0  0  0  0  0  0  0  0  0
  -15.6072  -40.2356   -9.4018 N   0  0  0  0  0  0  0  0  0  0  0  0
  -14.3467  -40.9119   -9.6691 C   0  0  0  0  0  0  0  0  0  0  0  0
  -13.6837  -40.4284  -10.8814 C   0  0  0  0  0  0  0  0  0  0  0  0
  -13.0287  -39.2246  -10.9300 C   0  0  0  0  0  0  0  0  0  0  0  0
  -12.3959  -38.7413  -12.0600 C   0  0  0  0  0  0  0  0  0  0  0  0
  -12.4307  -39.5238  -13.2016 C   0  0  0  0  0  0  0  0  0  0  0  0
  -13.0870  -40.7397  -13.1683 C   0  0  0  0  0  0  0  0  0  0  0  0
  -13.7171  -41.2059  -12.0193 C   0  0  0  0  0  0  0  0  0  0  0  0
  -11.7021  -37.4268  -12.0417 C   0  0  0  0  0  0  0  0  0  0  0  0
  -10.9569  -37.2695  -10.7305 C   0  0  0  0  0  0  0  0  0  0  0  0
  -12.6978  -36.3116  -12.2315 C   0  0  0  0  0  0  0  0  0  0  0  0
  1  2  1  0
  2  3  1  0
  3  4  2  0
  3  5  1  0
  5  6  2  0
  6  7  1  0
  7  8  2  0
  8  9  1  0
  9 10  2  0
  9 11  1  0
 11 12  2  0
 11 13  1  0
 13 14  1  0
 14 15  1  1
 15 16  1  0
 16 17  1  0
 17 18  2  0
 18 19  1  0
 19 20  1  0
 20 21  1  0
 21 22  1  0
 22 23  1  0
 18 24  1  0
 24 25  2  0
 25 26  1  0
 14 27  1  0
 27 28  1  6
 27 29  1  0
 29 30  1  0
 30 31  1  0
 31 32  1  0
 32 33  2  0
 33 34  1  0
 34 35  2  0
 35 36  1  0
 36 37  2  0
 34 38  1  0
 38 39  1  0
 38 40  1  0
 10  5  1  0
 23  7  1  0
 26 16  2  0
 37 32  1  0
M  END
$$$$
