
     RDKit          3D

 40 43  0  0  0  0  0  0  0  0999 V2000
  -19.5869  -47.9985   -6.8548 C   0  0  0  0  0  0  0  0  0  0  0  0
  -19.2763  -46.6225   -6.9600 O   0  0  0  0  0  0  0  0  0  0  0  0
  -20.3265  -45.7324   -7.0869 C   0  0  0  0  0  0  0  0  0  0  0  0
  -21.4424  -46.0242   -6.5951 O   0  0  0  0  0  0  0  0  0  0  0  0
  -20.1917  -44.4524   -7.7767 C   0  0  0  0  0  0  0  0  0  0  0  0
  -21.1808  -43.9493   -8.5739 C   0  0  0  0  0  0  0  0  0  0  0  0
  -21.0577  -42.7154   -9.2473 C   0  0  0  0  0  0  0  0  0  0  0  0
  -19.9036  -41.9548   -9.1225 C   0  0  0  0  0  0  0  0  0  0  0  0
  -18.8912  -42.4331   -8.3260 C   0  0  0  0  0  0  0  0  0  0  0  0
  -19.0684  -43.6854   -7.6688 C   0  0  0  0  0  0  0  0  0  0  0  0
  -17.5697  -41.8874   -7.9759 C   0  0  0  0  0  0  0  0  0  0  0  0
  -16.5631  -42.7365   -7.9653 O   0  0  0  0  0  0  0  0  0  0  0  0
  -17.1083  -40.6053   -7.6297 N   0  0  0  0  0  0  0  0  0  0  0  0
  -17.7394  -39.3391   -7.9205 C   0  0  1  0  0  0  0  0  0  0  0  0
  -18.5018  -38.8870   -6.6811 C   0  0  0  0  0  0  0  0  0  0  0  0
  -19.8542  -39.5062   -6.5340 C   0  0  0  0  0  0  0  0  0  0  0  0
  -21.0026  -39.2927   -7.2549 C   0  0  0  0  0  0  0  0  0  0  0  0
  -22.1301  -39.9906   -6.9171 C   0  0  0  0  0  0  0  0  0  0  0  0
  -23.5126  -40.0251   -7.4639 C   0  0  0  0  0  0  0  0  0  0  0  0
  -23.9875  -41.4634   -7.6668 C   0  0  0  0  0  0  0  0  0  0  0  0
  -24.3182  -41.6898   -9.1497 C   0  0  0  0  0  0  0  0  0  0  0  0
  -23.1402  -41.4205  -10.0240 C   0  0  0  0  0  0  0  0  0  0  0  0
  -22.2030  -42.4535   -9.9769 O   0  0  0  0  0  0  0  0  0  0  0  0
  -22.0847  -40.9133   -5.8341 C   0  0  0  0  0  0  0  0  0  0  0  0
  -20.9696  -41.1584   -5.0911 C   0  0  0  0  0  0  0  0  0  0  0  0
  -19.8662  -40.4369   -5.4673 C   0  0  0  0  0  0  0  0  0  0  0  0
  -16.6632  -38.3065   -8.2136 C   0  0  2  0  0  0  0  0  0  0  0  0
  -17.2776  -37.0877   -8.6103 O   0  0  0  0  0  0  0  0  0  0  0  0
  -15.7909  -38.6876   -9.3584 C   0  0  0  0  0  0  0  0  0  0  0  0
  -15.0374  -39.8969   -9.1994 N   0  0  0  0  0  0  0  0  0  0  0  0
  -15.1431  -40.7129  -10.3997 C   0  0  0  0  0  0  0  0  0  0  0  0
  -14.2805  -40.2464  -11.4866 C   0  0  0  0  0  0  0  0  0  0  0  0
  -13.6563  -39.0258  -11.4567 C   0  0  0  0  0  0  0  0  0  0  0  0
  -12.8386  -38.5580  -12.4684 C   0  0  0  0  0  0  0  0  0  0  0  0
  -12.6449  -39.3749  -13.5691 C   0  0  0  0  0  0  0  0  0  0  0  0
  -13.2673  -40.6082  -13.6139 C   0  0  0  0  0  0  0  0  0  0  0  0
  -14.0863  -41.0583  -12.5838 C   0  0  0  0  0  0  0  0  0  0  0  0
  -12.1911  -37.2236  -12.3694 C   0  0  0  0  0  0  0  0  0  0  0  0
  -11.4770  -36.9132  -13.6707 C   0  0  0  0  0  0  0  0  0  0  0  0
  -11.2298  -37.1978  -11.2091 C   0  0  0  0  0  0  0  0  0  0  0  0
  1  2  1  0
  2  3  1  0
  3  4  2  0
  3  5  1  0
  5  6  2  0
  6  7  1  0
  7  8  2  0
  8  9  1  0
  9 10  2  0
  9 11  1  0
 11 12  2  0
 11 13  1  0
 13 14  1  0
 14 15  1  1
 15 16  1  0
 16 17  1  0
 17 18  2  0
 18 19  1  0
 19 20  1  0
 20 21  1  0
 21 22  1  0
 22 23  1  0
 18 24  1  0
 24 25  2  0
 25 26  1  0
 14 27  1  0
 27 28  1  6
 27 29  1  0
 29 30  1  0
 30 31  1  0
 31 32  1  0
 32 33  2  0
 33 34  1  0
 34 35  2  0
 35 36  1  0
 36 37  2  0
 34 38  1  0
 38 39  1  0
 38 40  1  0
 10  5  1  0
 23  7  1  0
 26 16  2  0
 37 32  1  0
M  END
$$$$
