
     RDKit          3D

 40 43  0  0  0  0  0  0  0  0999 V2000
  -23.6340  -41.3654  -12.7379 C   0  0  0  0  0  0  0  0  0  0  0  0
  -22.7682  -40.5926  -11.9289 O   0  0  0  0  0  0  0  0  0  0  0  0
  -23.2463  -40.1558  -10.7074 C   0  0  0  0  0  0  0  0  0  0  0  0
  -24.4783  -39.9775  -10.5575 O   0  0  0  0  0  0  0  0  0  0  0  0
  -22.3690  -39.8897   -9.5708 C   0  0  0  0  0  0  0  0  0  0  0  0
  -22.8307  -39.8748   -8.2849 C   0  0  0  0  0  0  0  0  0  0  0  0
  -21.9910  -39.6148   -7.1809 C   0  0  0  0  0  0  0  0  0  0  0  0
  -20.6398  -39.3580   -7.3663 C   0  0  0  0  0  0  0  0  0  0  0  0
  -20.1448  -39.3678   -8.6481 C   0  0  0  0  0  0  0  0  0  0  0  0
  -21.0373  -39.6363   -9.7265 C   0  0  0  0  0  0  0  0  0  0  0  0
  -18.7914  -39.1504   -9.1847 C   0  0  0  0  0  0  0  0  0  0  0  0
  -18.6978  -38.4143  -10.2727 O   0  0  0  0  0  0  0  0  0  0  0  0
  -17.5096  -39.5695   -8.7876 N   0  0  0  0  0  0  0  0  0  0  0  0
  -17.0993  -40.0082   -7.4741 C   0  0  1  0  0  0  0  0  0  0  0  0
  -17.0897  -41.5318   -7.4581 C   0  0  0  0  0  0  0  0  0  0  0  0
  -18.4304  -42.1503   -7.2255 C   0  0  0  0  0  0  0  0  0  0  0  0
  -19.1928  -42.1947   -6.0849 C   0  0  0  0  0  0  0  0  0  0  0  0
  -20.4016  -42.8345   -6.1268 C   0  0  0  0  0  0  0  0  0  0  0  0
  -21.4699  -43.0673   -5.1187 C   0  0  0  0  0  0  0  0  0  0  0  0
  -22.8466  -42.7277   -5.6886 C   0  0  0  0  0  0  0  0  0  0  0  0
  -23.4894  -41.6149   -4.8471 C   0  0  0  0  0  0  0  0  0  0  0  0
  -22.6411  -40.3885   -4.8155 C   0  0  0  0  0  0  0  0  0  0  0  0
  -22.7187  -39.6643   -6.0058 O   0  0  0  0  0  0  0  0  0  0  0  0
  -20.8350  -43.4344   -7.3427 C   0  0  0  0  0  0  0  0  0  0  0  0
  -20.1140  -43.4157   -8.4983 C   0  0  0  0  0  0  0  0  0  0  0  0
  -18.9117  -42.7633   -8.4074 C   0  0  0  0  0  0  0  0  0  0  0  0
  -15.6816  -39.5262   -7.2128 C   0  0  2  0  0  0  0  0  0  0  0  0
  -15.4202  -39.5714   -5.8163 O   0  0  0  0  0  0  0  0  0  0  0  0
  -15.4735  -38.1027   -7.5968 C   0  0  0  0  0  0  0  0  0  0  0  0
  -14.1173  -37.7108   -7.8471 N   0  0  0  0  0  0  0  0  0  0  0  0
  -13.6477  -38.3025   -9.0908 C   0  0  0  0  0  0  0  0  0  0  0  0
  -14.1871  -37.6396  -10.2794 C   0  0  0  0  0  0  0  0  0  0  0  0
  -14.0531  -36.2917  -10.4933 C   0  0  0  0  0  0  0  0  0  0  0  0
  -14.5534  -35.6383  -11.6040 C   0  0  0  0  0  0  0  0  0  0  0  0
  -15.2257  -36.3958  -12.5479 C   0  0  0  0  0  0  0  0  0  0  0  0
  -15.3689  -37.7556  -12.3465 C   0  0  0  0  0  0  0  0  0  0  0  0
  -14.8570  -38.3919  -11.2206 C   0  0  0  0  0  0  0  0  0  0  0  0
  -14.3698  -34.1730  -11.7732 C   0  0  0  0  0  0  0  0  0  0  0  0
  -12.9267  -33.8858  -12.1402 C   0  0  0  0  0  0  0  0  0  0  0  0
  -14.7566  -33.4518  -10.5078 C   0  0  0  0  0  0  0  0  0  0  0  0
  1  2  1  0
  2  3  1  0
  3  4  2  0
  3  5  1  0
  5  6  2  0
  6  7  1  0
  7  8  2  0
  8  9  1  0
  9 10  2  0
  9 11  1  0
 11 12  2  0
 11 13  1  0
 13 14  1  0
 14 15  1  6
 15 16  1  0
 16 17  1  0
 17 18  2  0
 18 19  1  0
 19 20  1  0
 20 21  1  0
 21 22  1  0
 22 23  1  0
 18 24  1  0
 24 25  2  0
 25 26  1  0
 14 27  1  0
 27 28  1  1
 27 29  1  0
 29 30  1  0
 30 31  1  0
 31 32  1  0
 32 33  2  0
 33 34  1  0
 34 35  2  0
 35 36  1  0
 36 37  2  0
 34 38  1  0
 38 39  1  0
 38 40  1  0
 10  5  1  0
 23  7  1  0
 26 16  2  0
 37 32  1  0
M  END
$$$$
