
     RDKit          3D

 40 43  0  0  0  0  0  0  0  0999 V2000
  -24.1006  -40.5015   -3.2847 C   0  0  0  0  0  0  0  0  0  0  0  0
  -22.8969  -41.0091   -3.8274 O   0  0  0  0  0  0  0  0  0  0  0  0
  -22.9297  -42.2643   -4.4060 C   0  0  0  0  0  0  0  0  0  0  0  0
  -23.8172  -43.0787   -4.0581 O   0  0  0  0  0  0  0  0  0  0  0  0
  -21.9644  -42.6882   -5.4165 C   0  0  0  0  0  0  0  0  0  0  0  0
  -22.1427  -43.8194   -6.1619 C   0  0  0  0  0  0  0  0  0  0  0  0
  -21.2135  -44.2386   -7.1376 C   0  0  0  0  0  0  0  0  0  0  0  0
  -20.0615  -43.5029   -7.3780 C   0  0  0  0  0  0  0  0  0  0  0  0
  -19.8545  -42.3589   -6.6456 C   0  0  0  0  0  0  0  0  0  0  0  0
  -20.8256  -41.9816   -5.6728 C   0  0  0  0  0  0  0  0  0  0  0  0
  -18.7693  -41.3644   -6.6548 C   0  0  0  0  0  0  0  0  0  0  0  0
  -18.3477  -40.9382   -5.4822 O   0  0  0  0  0  0  0  0  0  0  0  0
  -18.0424  -40.7285   -7.6764 N   0  0  0  0  0  0  0  0  0  0  0  0
  -17.8662  -41.1796   -9.0371 C   0  0  1  0  0  0  0  0  0  0  0  0
  -18.8579  -40.4343   -9.9220 C   0  0  0  0  0  0  0  0  0  0  0  0
  -20.2339  -41.0180   -9.9263 C   0  0  0  0  0  0  0  0  0  0  0  0
  -20.6925  -42.1853  -10.4842 C   0  0  0  0  0  0  0  0  0  0  0  0
  -22.0176  -42.5004  -10.3526 C   0  0  0  0  0  0  0  0  0  0  0  0
  -22.8437  -43.6517  -10.8040 C   0  0  0  0  0  0  0  0  0  0  0  0
  -23.7143  -44.1830   -9.6659 C   0  0  0  0  0  0  0  0  0  0  0  0
  -23.3601  -45.6525   -9.3926 C   0  0  0  0  0  0  0  0  0  0  0  0
  -21.9194  -45.8160   -9.0429 C   0  0  0  0  0  0  0  0  0  0  0  0
  -21.6455  -45.4078   -7.7368 O   0  0  0  0  0  0  0  0  0  0  0  0
  -22.8812  -41.6163   -9.6465 C   0  0  0  0  0  0  0  0  0  0  0  0
  -22.4720  -40.4488   -9.0764 C   0  0  0  0  0  0  0  0  0  0  0  0
  -21.1376  -40.1766   -9.2339 C   0  0  0  0  0  0  0  0  0  0  0  0
  -16.4628  -40.8216   -9.4984 C   0  0  2  0  0  0  0  0  0  0  0  0
  -15.6082  -41.9425   -9.3153 O   0  0  0  0  0  0  0  0  0  0  0  0
  -15.8473  -39.7330   -8.6904 C   0  0  0  0  0  0  0  0  0  0  0  0
  -15.4198  -38.5743   -9.4184 N   0  0  0  0  0  0  0  0  0  0  0  0
  -16.0414  -37.3800   -8.8663 C   0  0  0  0  0  0  0  0  0  0  0  0
  -17.4534  -37.2495   -9.2298 C   0  0  0  0  0  0  0  0  0  0  0  0
  -18.4540  -37.2249   -8.2924 C   0  0  0  0  0  0  0  0  0  0  0  0
  -19.7950  -37.1051   -8.6056 C   0  0  0  0  0  0  0  0  0  0  0  0
  -20.1372  -37.0047   -9.9433 C   0  0  0  0  0  0  0  0  0  0  0  0
  -19.1400  -37.0279  -10.9000 C   0  0  0  0  0  0  0  0  0  0  0  0
  -17.7965  -37.1495  -10.5613 C   0  0  0  0  0  0  0  0  0  0  0  0
  -20.8282  -37.0832   -7.5371 C   0  0  0  0  0  0  0  0  0  0  0  0
  -20.4227  -36.0901   -6.4653 C   0  0  0  0  0  0  0  0  0  0  0  0
  -21.0017  -38.4622   -6.9544 C   0  0  0  0  0  0  0  0  0  0  0  0
  1  2  1  0
  2  3  1  0
  3  4  2  0
  3  5  1  0
  5  6  2  0
  6  7  1  0
  7  8  2  0
  8  9  1  0
  9 10  2  0
  9 11  1  0
 11 12  2  0
 11 13  1  0
 13 14  1  0
 14 15  1  6
 15 16  1  0
 16 17  1  0
 17 18  2  0
 18 19  1  0
 19 20  1  0
 20 21  1  0
 21 22  1  0
 22 23  1  0
 18 24  1  0
 24 25  2  0
 25 26  1  0
 14 27  1  0
 27 28  1  1
 27 29  1  0
 29 30  1  0
 30 31  1  0
 31 32  1  0
 32 33  2  0
 33 34  1  0
 34 35  2  0
 35 36  1  0
 36 37  2  0
 34 38  1  0
 38 39  1  0
 38 40  1  0
 10  5  1  0
 23  7  1  0
 26 16  2  0
 37 32  1  0
M  END
$$$$
