
     RDKit          3D

 40 43  0  0  0  0  0  0  0  0999 V2000
  -24.4013  -41.9266   -5.6619 C   0  0  0  0  0  0  0  0  0  0  0  0
  -23.5797  -42.1238   -6.7964 O   0  0  0  0  0  0  0  0  0  0  0  0
  -22.8743  -43.3095   -6.8832 C   0  0  0  0  0  0  0  0  0  0  0  0
  -23.4930  -44.3787   -7.0977 O   0  0  0  0  0  0  0  0  0  0  0  0
  -21.4229  -43.3722   -6.7340 C   0  0  0  0  0  0  0  0  0  0  0  0
  -20.7777  -44.5253   -6.3860 C   0  0  0  0  0  0  0  0  0  0  0  0
  -19.3763  -44.5942   -6.2359 C   0  0  0  0  0  0  0  0  0  0  0  0
  -18.5882  -43.4699   -6.4387 C   0  0  0  0  0  0  0  0  0  0  0  0
  -19.2077  -42.2952   -6.7915 C   0  0  0  0  0  0  0  0  0  0  0  0
  -20.6263  -42.2819   -6.9295 C   0  0  0  0  0  0  0  0  0  0  0  0
  -18.6819  -40.9519   -7.0843 C   0  0  0  0  0  0  0  0  0  0  0  0
  -19.3498  -39.9332   -6.5837 O   0  0  0  0  0  0  0  0  0  0  0  0
  -17.5774  -40.4782   -7.8138 N   0  0  0  0  0  0  0  0  0  0  0  0
  -16.3772  -41.2050   -8.1566 C   0  0  1  0  0  0  0  0  0  0  0  0
  -16.5129  -41.7074   -9.5887 C   0  0  0  0  0  0  0  0  0  0  0  0
  -17.2955  -42.9738   -9.7221 C   0  0  0  0  0  0  0  0  0  0  0  0
  -16.9639  -44.2552   -9.3588 C   0  0  0  0  0  0  0  0  0  0  0  0
  -17.8639  -45.2588   -9.5937 C   0  0  0  0  0  0  0  0  0  0  0  0
  -17.8529  -46.7229   -9.3330 C   0  0  0  0  0  0  0  0  0  0  0  0
  -19.1563  -47.1736   -8.6746 C   0  0  0  0  0  0  0  0  0  0  0  0
  -18.8495  -47.7989   -7.3055 C   0  0  0  0  0  0  0  0  0  0  0  0
  -18.1377  -46.8419   -6.4099 C   0  0  0  0  0  0  0  0  0  0  0  0
  -18.9966  -45.8763   -5.8831 O   0  0  0  0  0  0  0  0  0  0  0  0
  -19.1121  -44.9515  -10.2051 C   0  0  0  0  0  0  0  0  0  0  0  0
  -19.4850  -43.6967  -10.5820 C   0  0  0  0  0  0  0  0  0  0  0  0
  -18.5517  -42.7256  -10.3259 C   0  0  0  0  0  0  0  0  0  0  0  0
  -15.1918  -40.2551   -8.1016 C   0  0  2  0  0  0  0  0  0  0  0  0
  -13.9864  -41.0083   -8.0984 O   0  0  0  0  0  0  0  0  0  0  0  0
  -15.1483  -39.4549   -6.8468 C   0  0  0  0  0  0  0  0  0  0  0  0
  -16.1088  -38.3954   -6.7431 N   0  0  0  0  0  0  0  0  0  0  0  0
  -16.2023  -37.6804   -8.0070 C   0  0  0  0  0  0  0  0  0  0  0  0
  -17.5568  -37.6744   -8.5623 C   0  0  0  0  0  0  0  0  0  0  0  0
  -18.6693  -37.4864   -7.7829 C   0  0  0  0  0  0  0  0  0  0  0  0
  -19.9598  -37.4780   -8.2784 C   0  0  0  0  0  0  0  0  0  0  0  0
  -20.1283  -37.6709   -9.6389 C   0  0  0  0  0  0  0  0  0  0  0  0
  -19.0165  -37.8617  -10.4376 C   0  0  0  0  0  0  0  0  0  0  0  0
  -17.7269  -37.8664   -9.9168 C   0  0  0  0  0  0  0  0  0  0  0  0
  -21.1215  -37.2663   -7.3755 C   0  0  0  0  0  0  0  0  0  0  0  0
  -22.1547  -38.3484   -7.6227 C   0  0  0  0  0  0  0  0  0  0  0  0
  -21.7115  -35.8980   -7.6009 C   0  0  0  0  0  0  0  0  0  0  0  0
  1  2  1  0
  2  3  1  0
  3  4  2  0
  3  5  1  0
  5  6  2  0
  6  7  1  0
  7  8  2  0
  8  9  1  0
  9 10  2  0
  9 11  1  0
 11 12  2  0
 11 13  1  0
 13 14  1  0
 14 15  1  6
 15 16  1  0
 16 17  1  0
 17 18  2  0
 18 19  1  0
 19 20  1  0
 20 21  1  0
 21 22  1  0
 22 23  1  0
 18 24  1  0
 24 25  2  0
 25 26  1  0
 14 27  1  0
 27 28  1  1
 27 29  1  0
 29 30  1  0
 30 31  1  0
 31 32  1  0
 32 33  2  0
 33 34  1  0
 34 35  2  0
 35 36  1  0
 36 37  2  0
 34 38  1  0
 38 39  1  0
 38 40  1  0
 10  5  1  0
 23  7  1  0
 26 16  2  0
 37 32  1  0
M  END
$$$$
