
     RDKit          3D

 40 43  0  0  0  0  0  0  0  0999 V2000
  -21.4546  -45.9402   -4.2791 C   0  0  0  0  0  0  0  0  0  0  0  0
  -21.6736  -44.6977   -4.9189 O   0  0  0  0  0  0  0  0  0  0  0  0
  -21.9084  -44.7068   -6.2812 C   0  0  0  0  0  0  0  0  0  0  0  0
  -22.6068  -45.6217   -6.7787 O   0  0  0  0  0  0  0  0  0  0  0  0
  -21.3724  -43.6856   -7.1770 C   0  0  0  0  0  0  0  0  0  0  0  0
  -22.0489  -43.2659   -8.2874 C   0  0  0  0  0  0  0  0  0  0  0  0
  -21.5370  -42.2826   -9.1606 C   0  0  0  0  0  0  0  0  0  0  0  0
  -20.3024  -41.6968   -8.9183 C   0  0  0  0  0  0  0  0  0  0  0  0
  -19.5983  -42.0965   -7.8081 C   0  0  0  0  0  0  0  0  0  0  0  0
  -20.1624  -43.0935   -6.9598 C   0  0  0  0  0  0  0  0  0  0  0  0
  -18.2947  -41.6819   -7.2644 C   0  0  0  0  0  0  0  0  0  0  0  0
  -17.5095  -42.6392   -6.8158 O   0  0  0  0  0  0  0  0  0  0  0  0
  -17.6610  -40.4376   -7.1016 N   0  0  0  0  0  0  0  0  0  0  0  0
  -17.9430  -39.2115   -7.8108 C   0  0  1  0  0  0  0  0  0  0  0  0
  -18.8360  -38.3436   -6.9327 C   0  0  0  0  0  0  0  0  0  0  0  0
  -20.2875  -38.6942   -6.9994 C   0  0  0  0  0  0  0  0  0  0  0  0
  -21.1920  -38.5070   -8.0147 C   0  0  0  0  0  0  0  0  0  0  0  0
  -22.4842  -38.9165   -7.8277 C   0  0  0  0  0  0  0  0  0  0  0  0
  -23.6998  -38.8857   -8.6838 C   0  0  0  0  0  0  0  0  0  0  0  0
  -24.4084  -40.2397   -8.6808 C   0  0  0  0  0  0  0  0  0  0  0  0
  -24.4635  -40.7925  -10.1129 C   0  0  0  0  0  0  0  0  0  0  0  0
  -23.1001  -40.9392  -10.6995 C   0  0  0  0  0  0  0  0  0  0  0  0
  -22.4268  -42.0520  -10.1939 O   0  0  0  0  0  0  0  0  0  0  0  0
  -22.8558  -39.5213   -6.5939 C   0  0  0  0  0  0  0  0  0  0  0  0
  -21.9943  -39.7279   -5.5592 C   0  0  0  0  0  0  0  0  0  0  0  0
  -20.7123  -39.3022   -5.7935 C   0  0  0  0  0  0  0  0  0  0  0  0
  -16.6402  -38.4633   -8.0416 C   0  0  2  0  0  0  0  0  0  0  0  0
  -16.8454  -37.0776   -7.8005 O   0  0  0  0  0  0  0  0  0  0  0  0
  -16.1685  -38.5423   -9.4516 C   0  0  0  0  0  0  0  0  0  0  0  0
  -15.6431  -39.8094   -9.8688 N   0  0  0  0  0  0  0  0  0  0  0  0
  -14.2283  -39.6839  -10.1848 C   0  0  0  0  0  0  0  0  0  0  0  0
  -13.5121  -40.9590  -10.1202 C   0  0  0  0  0  0  0  0  0  0  0  0
  -12.7247  -41.3059   -9.0524 C   0  0  0  0  0  0  0  0  0  0  0  0
  -12.0353  -42.5009   -8.9645 C   0  0  0  0  0  0  0  0  0  0  0  0
  -12.1530  -43.3909  -10.0184 C   0  0  0  0  0  0  0  0  0  0  0  0
  -12.9431  -43.0556  -11.1017 C   0  0  0  0  0  0  0  0  0  0  0  0
  -13.6278  -41.8468  -11.1685 C   0  0  0  0  0  0  0  0  0  0  0  0
  -11.2002  -42.8134   -7.7751 C   0  0  0  0  0  0  0  0  0  0  0  0
  -10.4968  -41.5534   -7.3092 C   0  0  0  0  0  0  0  0  0  0  0  0
  -10.2036  -43.8932   -8.1098 C   0  0  0  0  0  0  0  0  0  0  0  0
  1  2  1  0
  2  3  1  0
  3  4  2  0
  3  5  1  0
  5  6  2  0
  6  7  1  0
  7  8  2  0
  8  9  1  0
  9 10  2  0
  9 11  1  0
 11 12  2  0
 11 13  1  0
 13 14  1  0
 14 15  1  1
 15 16  1  0
 16 17  1  0
 17 18  2  0
 18 19  1  0
 19 20  1  0
 20 21  1  0
 21 22  1  0
 22 23  1  0
 18 24  1  0
 24 25  2  0
 25 26  1  0
 14 27  1  0
 27 28  1  6
 27 29  1  0
 29 30  1  0
 30 31  1  0
 31 32  1  0
 32 33  2  0
 33 34  1  0
 34 35  2  0
 35 36  1  0
 36 37  2  0
 34 38  1  0
 38 39  1  0
 38 40  1  0
 10  5  1  0
 23  7  1  0
 26 16  2  0
 37 32  1  0
M  END
$$$$
