
     RDKit          3D

 40 43  0  0  0  0  0  0  0  0999 V2000
  -20.7435  -40.5215   -1.1269 C   0  0  0  0  0  0  0  0  0  0  0  0
  -20.9976  -40.3183   -2.5035 O   0  0  0  0  0  0  0  0  0  0  0  0
  -21.3384  -41.4202   -3.2656 C   0  0  0  0  0  0  0  0  0  0  0  0
  -22.1166  -42.2803   -2.7893 O   0  0  0  0  0  0  0  0  0  0  0  0
  -20.8257  -41.6290   -4.6170 C   0  0  0  0  0  0  0  0  0  0  0  0
  -21.3728  -42.5480   -5.4674 C   0  0  0  0  0  0  0  0  0  0  0  0
  -20.8815  -42.7591   -6.7733 C   0  0  0  0  0  0  0  0  0  0  0  0
  -19.8024  -42.0273   -7.2488 C   0  0  0  0  0  0  0  0  0  0  0  0
  -19.2315  -41.0939   -6.4177 C   0  0  0  0  0  0  0  0  0  0  0  0
  -19.7676  -40.9214   -5.1083 C   0  0  0  0  0  0  0  0  0  0  0  0
  -18.1072  -40.1623   -6.6051 C   0  0  0  0  0  0  0  0  0  0  0  0
  -17.2690  -40.0366   -5.5972 O   0  0  0  0  0  0  0  0  0  0  0  0
  -17.7003  -39.3306   -7.6630 N   0  0  0  0  0  0  0  0  0  0  0  0
  -18.0462  -39.4570   -9.0595 C   0  0  1  0  0  0  0  0  0  0  0  0
  -19.1865  -38.4923   -9.3608 C   0  0  0  0  0  0  0  0  0  0  0  0
  -20.5402  -39.0115   -8.9976 C   0  0  0  0  0  0  0  0  0  0  0  0
  -21.2901  -39.9998   -9.5851 C   0  0  0  0  0  0  0  0  0  0  0  0
  -22.5197  -40.2915   -9.0605 C   0  0  0  0  0  0  0  0  0  0  0  0
  -23.5752  -41.2766   -9.4173 C   0  0  0  0  0  0  0  0  0  0  0  0
  -24.0651  -42.0290   -8.1806 C   0  0  0  0  0  0  0  0  0  0  0  0
  -23.8094  -43.5329   -8.3609 C   0  0  0  0  0  0  0  0  0  0  0  0
  -22.3638  -43.8227   -8.5866 C   0  0  0  0  0  0  0  0  0  0  0  0
  -21.6207  -43.7405   -7.4083 O   0  0  0  0  0  0  0  0  0  0  0  0
  -22.9877  -39.5679   -7.9276 C   0  0  0  0  0  0  0  0  0  0  0  0
  -22.2800  -38.5805   -7.3114 C   0  0  0  0  0  0  0  0  0  0  0  0
  -21.0552  -38.3248   -7.8717 C   0  0  0  0  0  0  0  0  0  0  0  0
  -16.8497  -39.0493   -9.9037 C   0  0  2  0  0  0  0  0  0  0  0  0
  -16.6319  -40.0267  -10.9125 O   0  0  0  0  0  0  0  0  0  0  0  0
  -15.5799  -39.0085   -9.1275 C   0  0  0  0  0  0  0  0  0  0  0  0
  -15.5758  -38.1588   -7.9726 N   0  0  0  0  0  0  0  0  0  0  0  0
  -15.6360  -36.7630   -8.3793 C   0  0  0  0  0  0  0  0  0  0  0  0
  -14.6137  -36.4097   -9.3658 C   0  0  0  0  0  0  0  0  0  0  0  0
  -14.2585  -37.2508  -10.3889 C   0  0  0  0  0  0  0  0  0  0  0  0
  -13.2961  -36.9456  -11.3331 C   0  0  0  0  0  0  0  0  0  0  0  0
  -12.6609  -35.7197  -11.2319 C   0  0  0  0  0  0  0  0  0  0  0  0
  -13.0080  -34.8609  -10.2060 C   0  0  0  0  0  0  0  0  0  0  0  0
  -13.9798  -35.1894   -9.2668 C   0  0  0  0  0  0  0  0  0  0  0  0
  -12.9617  -37.9049  -12.4183 C   0  0  0  0  0  0  0  0  0  0  0  0
  -14.1697  -38.0900  -13.3160 C   0  0  0  0  0  0  0  0  0  0  0  0
  -12.5219  -39.2210  -11.8303 C   0  0  0  0  0  0  0  0  0  0  0  0
  1  2  1  0
  2  3  1  0
  3  4  2  0
  3  5  1  0
  5  6  2  0
  6  7  1  0
  7  8  2  0
  8  9  1  0
  9 10  2  0
  9 11  1  0
 11 12  2  0
 11 13  1  0
 13 14  1  0
 14 15  1  6
 15 16  1  0
 16 17  1  0
 17 18  2  0
 18 19  1  0
 19 20  1  0
 20 21  1  0
 21 22  1  0
 22 23  1  0
 18 24  1  0
 24 25  2  0
 25 26  1  0
 14 27  1  0
 27 28  1  6
 27 29  1  0
 29 30  1  0
 30 31  1  0
 31 32  1  0
 32 33  2  0
 33 34  1  0
 34 35  2  0
 35 36  1  0
 36 37  2  0
 34 38  1  0
 38 39  1  0
 38 40  1  0
 10  5  1  0
 23  7  1  0
 26 16  2  0
 37 32  1  0
M  END
$$$$
