
     RDKit          3D

 40 43  0  0  0  0  0  0  0  0999 V2000
  -20.2683  -47.8540   -4.4682 C   0  0  0  0  0  0  0  0  0  0  0  0
  -19.9451  -46.5588   -4.9364 O   0  0  0  0  0  0  0  0  0  0  0  0
  -20.9515  -45.8168   -5.5261 C   0  0  0  0  0  0  0  0  0  0  0  0
  -22.1470  -46.0689   -5.2443 O   0  0  0  0  0  0  0  0  0  0  0  0
  -20.6801  -44.7397   -6.4741 C   0  0  0  0  0  0  0  0  0  0  0  0
  -21.6178  -44.3058   -7.3683 C   0  0  0  0  0  0  0  0  0  0  0  0
  -21.3631  -43.2685   -8.2905 C   0  0  0  0  0  0  0  0  0  0  0  0
  -20.1256  -42.6410   -8.3235 C   0  0  0  0  0  0  0  0  0  0  0  0
  -19.1620  -43.0538   -7.4352 C   0  0  0  0  0  0  0  0  0  0  0  0
  -19.4728  -44.1061   -6.5254 C   0  0  0  0  0  0  0  0  0  0  0  0
  -17.7794  -42.6062   -7.2009 C   0  0  0  0  0  0  0  0  0  0  0  0
  -16.8793  -43.5464   -7.0003 O   0  0  0  0  0  0  0  0  0  0  0  0
  -17.1646  -41.3436   -7.1352 N   0  0  0  0  0  0  0  0  0  0  0  0
  -17.6481  -40.1037   -7.6963 C   0  0  1  0  0  0  0  0  0  0  0  0
  -18.3295  -39.3092   -6.5889 C   0  0  0  0  0  0  0  0  0  0  0  0
  -19.7423  -39.7178   -6.3222 C   0  0  0  0  0  0  0  0  0  0  0  0
  -20.8706  -39.5294   -7.0807 C   0  0  0  0  0  0  0  0  0  0  0  0
  -22.0658  -40.0000   -6.6090 C   0  0  0  0  0  0  0  0  0  0  0  0
  -23.4526  -39.9869   -7.1460 C   0  0  0  0  0  0  0  0  0  0  0  0
  -24.0965  -41.3687   -7.0382 C   0  0  0  0  0  0  0  0  0  0  0  0
  -24.4784  -41.8670   -8.4401 C   0  0  0  0  0  0  0  0  0  0  0  0
  -23.2931  -41.9331   -9.3431 C   0  0  0  0  0  0  0  0  0  0  0  0
  -22.4829  -43.0354   -9.0678 O   0  0  0  0  0  0  0  0  0  0  0  0
  -22.1092  -40.6676   -5.3526 C   0  0  0  0  0  0  0  0  0  0  0  0
  -21.0172  -40.8780   -4.5660 C   0  0  0  0  0  0  0  0  0  0  0  0
  -19.8439  -40.3898   -5.0803 C   0  0  0  0  0  0  0  0  0  0  0  0
  -16.4638  -39.2928   -8.1965 C   0  0  2  0  0  0  0  0  0  0  0  0
  -16.9372  -38.1989   -8.9709 O   0  0  0  0  0  0  0  0  0  0  0  0
  -15.5822  -40.0623   -9.1172 C   0  0  0  0  0  0  0  0  0  0  0  0
  -14.1718  -39.9209   -8.9019 N   0  0  0  0  0  0  0  0  0  0  0  0
  -13.4509  -40.1552  -10.1440 C   0  0  0  0  0  0  0  0  0  0  0  0
  -13.6399  -39.0861  -11.1259 C   0  0  0  0  0  0  0  0  0  0  0  0
  -12.9475  -37.9038  -11.0670 C   0  0  0  0  0  0  0  0  0  0  0  0
  -13.1065  -36.8762  -11.9779 C   0  0  0  0  0  0  0  0  0  0  0  0
  -14.0178  -37.0604  -13.0036 C   0  0  0  0  0  0  0  0  0  0  0  0
  -14.7233  -38.2467  -13.0764 C   0  0  0  0  0  0  0  0  0  0  0  0
  -14.5470  -39.2673  -12.1481 C   0  0  0  0  0  0  0  0  0  0  0  0
  -12.3206  -35.6205  -11.8550 C   0  0  0  0  0  0  0  0  0  0  0  0
  -11.9941  -35.0938  -13.2390 C   0  0  0  0  0  0  0  0  0  0  0  0
  -11.0624  -35.8708  -11.0642 C   0  0  0  0  0  0  0  0  0  0  0  0
  1  2  1  0
  2  3  1  0
  3  4  2  0
  3  5  1  0
  5  6  2  0
  6  7  1  0
  7  8  2  0
  8  9  1  0
  9 10  2  0
  9 11  1  0
 11 12  2  0
 11 13  1  0
 13 14  1  0
 14 15  1  1
 15 16  1  0
 16 17  1  0
 17 18  2  0
 18 19  1  0
 19 20  1  0
 20 21  1  0
 21 22  1  0
 22 23  1  0
 18 24  1  0
 24 25  2  0
 25 26  1  0
 14 27  1  0
 27 28  1  6
 27 29  1  0
 29 30  1  0
 30 31  1  0
 31 32  1  0
 32 33  2  0
 33 34  1  0
 34 35  2  0
 35 36  1  0
 36 37  2  0
 34 38  1  0
 38 39  1  0
 38 40  1  0
 10  5  1  0
 23  7  1  0
 26 16  2  0
 37 32  1  0
M  END
$$$$
