
     RDKit          3D

 40 43  0  0  0  0  0  0  0  0999 V2000
  -21.3747  -42.0758   -0.7791 C   0  0  0  0  0  0  0  0  0  0  0  0
  -21.1640  -41.6189   -2.1012 O   0  0  0  0  0  0  0  0  0  0  0  0
  -21.9141  -42.1950   -3.1095 C   0  0  0  0  0  0  0  0  0  0  0  0
  -23.0515  -42.6518   -2.8453 O   0  0  0  0  0  0  0  0  0  0  0  0
  -21.4341  -42.2962   -4.4850 C   0  0  0  0  0  0  0  0  0  0  0  0
  -22.1757  -42.8823   -5.4717 C   0  0  0  0  0  0  0  0  0  0  0  0
  -21.7184  -42.9879   -6.8024 C   0  0  0  0  0  0  0  0  0  0  0  0
  -20.4733  -42.4920   -7.1628 C   0  0  0  0  0  0  0  0  0  0  0  0
  -19.7043  -41.8951   -6.1930 C   0  0  0  0  0  0  0  0  0  0  0  0
  -20.2151  -41.8151   -4.8647 C   0  0  0  0  0  0  0  0  0  0  0  0
  -18.3722  -41.2702   -6.2360 C   0  0  0  0  0  0  0  0  0  0  0  0
  -17.5595  -41.5406   -5.2356 O   0  0  0  0  0  0  0  0  0  0  0  0
  -17.7333  -40.4051   -7.1414 N   0  0  0  0  0  0  0  0  0  0  0  0
  -18.0597  -40.1970   -8.5329 C   0  0  1  0  0  0  0  0  0  0  0  0
  -18.9020  -38.9321   -8.6443 C   0  0  0  0  0  0  0  0  0  0  0  0
  -20.3539  -39.1355   -8.3535 C   0  0  0  0  0  0  0  0  0  0  0  0
  -21.3168  -39.7795   -9.0897 C   0  0  0  0  0  0  0  0  0  0  0  0
  -22.5947  -39.8264   -8.6028 C   0  0  0  0  0  0  0  0  0  0  0  0
  -23.8585  -40.4273   -9.1062 C   0  0  0  0  0  0  0  0  0  0  0  0
  -24.5622  -41.2259   -8.0096 C   0  0  0  0  0  0  0  0  0  0  0  0
  -24.6996  -42.6910   -8.4505 C   0  0  0  0  0  0  0  0  0  0  0  0
  -23.3725  -43.3038   -8.7468 C   0  0  0  0  0  0  0  0  0  0  0  0
  -22.6678  -43.6200   -7.5846 O   0  0  0  0  0  0  0  0  0  0  0  0
  -22.8918  -39.2103   -7.3545 C   0  0  0  0  0  0  0  0  0  0  0  0
  -21.9707  -38.5611   -6.5894 C   0  0  0  0  0  0  0  0  0  0  0  0
  -20.7057  -38.5410   -7.1177 C   0  0  0  0  0  0  0  0  0  0  0  0
  -16.7745  -39.9766   -9.3141 C   0  0  2  0  0  0  0  0  0  0  0  0
  -15.8092  -40.9391   -8.9112 O   0  0  0  0  0  0  0  0  0  0  0  0
  -16.1436  -38.6580   -9.0316 C   0  0  0  0  0  0  0  0  0  0  0  0
  -14.7456  -38.6848   -8.7145 N   0  0  0  0  0  0  0  0  0  0  0  0
  -13.9816  -39.1479   -9.8632 C   0  0  0  0  0  0  0  0  0  0  0  0
  -13.9953  -38.2005  -10.9792 C   0  0  0  0  0  0  0  0  0  0  0  0
  -14.2012  -36.8567  -10.7994 C   0  0  0  0  0  0  0  0  0  0  0  0
  -14.2217  -35.9394  -11.8333 C   0  0  0  0  0  0  0  0  0  0  0  0
  -14.0219  -36.4134  -13.1186 C   0  0  0  0  0  0  0  0  0  0  0  0
  -13.8129  -37.7653  -13.3159 C   0  0  0  0  0  0  0  0  0  0  0  0
  -13.7966  -38.6704  -12.2599 C   0  0  0  0  0  0  0  0  0  0  0  0
  -14.4487  -34.4948  -11.5661 C   0  0  0  0  0  0  0  0  0  0  0  0
  -15.6144  -34.0054  -12.4035 C   0  0  0  0  0  0  0  0  0  0  0  0
  -13.2000  -33.7080  -11.8708 C   0  0  0  0  0  0  0  0  0  0  0  0
  1  2  1  0
  2  3  1  0
  3  4  2  0
  3  5  1  0
  5  6  2  0
  6  7  1  0
  7  8  2  0
  8  9  1  0
  9 10  2  0
  9 11  1  0
 11 12  2  0
 11 13  1  0
 13 14  1  0
 14 15  1  1
 15 16  1  0
 16 17  1  0
 17 18  2  0
 18 19  1  0
 19 20  1  0
 20 21  1  0
 21 22  1  0
 22 23  1  0
 18 24  1  0
 24 25  2  0
 25 26  1  0
 14 27  1  0
 27 28  1  1
 27 29  1  0
 29 30  1  0
 30 31  1  0
 31 32  1  0
 32 33  2  0
 33 34  1  0
 34 35  2  0
 35 36  1  0
 36 37  2  0
 34 38  1  0
 38 39  1  0
 38 40  1  0
 10  5  1  0
 23  7  1  0
 26 16  2  0
 37 32  1  0
M  END
$$$$
