
     RDKit          3D

 40 43  0  0  0  0  0  0  0  0999 V2000
  -18.4205  -46.5756   -7.7795 C   0  0  0  0  0  0  0  0  0  0  0  0
  -19.4264  -46.4422   -6.7940 O   0  0  0  0  0  0  0  0  0  0  0  0
  -20.3756  -45.4528   -6.9716 C   0  0  0  0  0  0  0  0  0  0  0  0
  -21.5394  -45.6329   -6.5412 O   0  0  0  0  0  0  0  0  0  0  0  0
  -20.0787  -44.1923   -7.6467 C   0  0  0  0  0  0  0  0  0  0  0  0
  -20.8692  -43.7003   -8.6467 C   0  0  0  0  0  0  0  0  0  0  0  0
  -20.5879  -42.4854   -9.3071 C   0  0  0  0  0  0  0  0  0  0  0  0
  -19.4750  -41.7332   -8.9582 C   0  0  0  0  0  0  0  0  0  0  0  0
  -18.6613  -42.2007   -7.9545 C   0  0  0  0  0  0  0  0  0  0  0  0
  -18.9922  -43.4339   -7.3210 C   0  0  0  0  0  0  0  0  0  0  0  0
  -17.4357  -41.6591   -7.3452 C   0  0  0  0  0  0  0  0  0  0  0  0
  -16.4670  -42.5174   -7.1020 O   0  0  0  0  0  0  0  0  0  0  0  0
  -17.0388  -40.3731   -6.9389 N   0  0  0  0  0  0  0  0  0  0  0  0
  -17.5750  -39.1087   -7.3859 C   0  0  1  0  0  0  0  0  0  0  0  0
  -18.5754  -38.6173   -6.3469 C   0  0  0  0  0  0  0  0  0  0  0  0
  -19.9375  -39.2193   -6.4754 C   0  0  0  0  0  0  0  0  0  0  0  0
  -20.9041  -39.0133   -7.4279 C   0  0  0  0  0  0  0  0  0  0  0  0
  -22.0878  -39.6912   -7.3205 C   0  0  0  0  0  0  0  0  0  0  0  0
  -23.3238  -39.7262   -8.1468 C   0  0  0  0  0  0  0  0  0  0  0  0
  -23.7666  -41.1646   -8.4123 C   0  0  0  0  0  0  0  0  0  0  0  0
  -23.7795  -41.4258   -9.9260 C   0  0  0  0  0  0  0  0  0  0  0  0
  -22.4393  -41.1907  -10.5370 C   0  0  0  0  0  0  0  0  0  0  0  0
  -21.5490  -42.2312  -10.2685 O   0  0  0  0  0  0  0  0  0  0  0  0
  -22.2864  -40.5860   -6.2314 C   0  0  0  0  0  0  0  0  0  0  0  0
  -21.3575  -40.8228   -5.2636 C   0  0  0  0  0  0  0  0  0  0  0  0
  -20.1888  -40.1220   -5.4141 C   0  0  0  0  0  0  0  0  0  0  0  0
  -16.4458  -38.0945   -7.4682 C   0  0  2  0  0  0  0  0  0  0  0  0
  -16.6666  -37.2351   -8.5786 O   0  0  0  0  0  0  0  0  0  0  0  0
  -15.1206  -38.7225   -7.7257 C   0  0  0  0  0  0  0  0  0  0  0  0
  -14.3437  -38.1410   -8.7811 N   0  0  0  0  0  0  0  0  0  0  0  0
  -13.5136  -39.1579   -9.4090 C   0  0  0  0  0  0  0  0  0  0  0  0
  -14.0446  -39.6171  -10.6936 C   0  0  0  0  0  0  0  0  0  0  0  0
  -14.3353  -40.9345  -10.9396 C   0  0  0  0  0  0  0  0  0  0  0  0
  -14.8351  -41.3976  -12.1424 C   0  0  0  0  0  0  0  0  0  0  0  0
  -15.0511  -40.4718  -13.1488 C   0  0  0  0  0  0  0  0  0  0  0  0
  -14.7630  -39.1402  -12.9161 C   0  0  0  0  0  0  0  0  0  0  0  0
  -14.2604  -38.6970  -11.6973 C   0  0  0  0  0  0  0  0  0  0  0  0
  -15.1302  -42.8410  -12.3400 C   0  0  0  0  0  0  0  0  0  0  0  0
  -15.9790  -43.3433  -11.1881 C   0  0  0  0  0  0  0  0  0  0  0  0
  -13.8466  -43.6238  -12.4434 C   0  0  0  0  0  0  0  0  0  0  0  0
  1  2  1  0
  2  3  1  0
  3  4  2  0
  3  5  1  0
  5  6  2  0
  6  7  1  0
  7  8  2  0
  8  9  1  0
  9 10  2  0
  9 11  1  0
 11 12  2  0
 11 13  1  0
 13 14  1  0
 14 15  1  1
 15 16  1  0
 16 17  1  0
 17 18  2  0
 18 19  1  0
 19 20  1  0
 20 21  1  0
 21 22  1  0
 22 23  1  0
 18 24  1  0
 24 25  2  0
 25 26  1  0
 14 27  1  0
 27 28  1  6
 27 29  1  0
 29 30  1  0
 30 31  1  0
 31 32  1  0
 32 33  2  0
 33 34  1  0
 34 35  2  0
 35 36  1  0
 36 37  2  0
 34 38  1  0
 38 39  1  0
 38 40  1  0
 10  5  1  0
 23  7  1  0
 26 16  2  0
 37 32  1  0
M  END
$$$$
