
     RDKit          3D

 40 43  0  0  0  0  0  0  0  0999 V2000
  -22.7313  -45.1979  -11.5226 C   0  0  0  0  0  0  0  0  0  0  0  0
  -22.4713  -43.8171  -11.3588 O   0  0  0  0  0  0  0  0  0  0  0  0
  -23.0343  -43.1801  -10.2686 C   0  0  0  0  0  0  0  0  0  0  0  0
  -24.1815  -43.5126   -9.8871 O   0  0  0  0  0  0  0  0  0  0  0  0
  -22.3435  -42.1243   -9.5333 C   0  0  0  0  0  0  0  0  0  0  0  0
  -22.9740  -41.3657   -8.5878 C   0  0  0  0  0  0  0  0  0  0  0  0
  -22.3155  -40.3410   -7.8753 C   0  0  0  0  0  0  0  0  0  0  0  0
  -20.9777  -40.0608   -8.1160 C   0  0  0  0  0  0  0  0  0  0  0  0
  -20.3153  -40.8079   -9.0600 C   0  0  0  0  0  0  0  0  0  0  0  0
  -21.0288  -41.8307   -9.7503 C   0  0  0  0  0  0  0  0  0  0  0  0
  -18.9248  -40.7802   -9.5422 C   0  0  0  0  0  0  0  0  0  0  0  0
  -18.7469  -40.8995  -10.8416 O   0  0  0  0  0  0  0  0  0  0  0  0
  -17.6778  -40.6523   -8.9057 N   0  0  0  0  0  0  0  0  0  0  0  0
  -17.4133  -40.0884   -7.6026 C   0  0  1  0  0  0  0  0  0  0  0  0
  -17.2791  -41.2310   -6.6034 C   0  0  0  0  0  0  0  0  0  0  0  0
  -18.5827  -41.7537   -6.0921 C   0  0  0  0  0  0  0  0  0  0  0  0
  -19.4856  -41.1777   -5.2335 C   0  0  0  0  0  0  0  0  0  0  0  0
  -20.6202  -41.8710   -4.9106 C   0  0  0  0  0  0  0  0  0  0  0  0
  -21.7915  -41.5680   -4.0458 C   0  0  0  0  0  0  0  0  0  0  0  0
  -23.1023  -41.8800   -4.7670 C   0  0  0  0  0  0  0  0  0  0  0  0
  -23.9431  -40.5994   -4.8792 C   0  0  0  0  0  0  0  0  0  0  0  0
  -23.2119  -39.5225   -5.6074 C   0  0  0  0  0  0  0  0  0  0  0  0
  -23.1882  -39.7418   -6.9854 O   0  0  0  0  0  0  0  0  0  0  0  0
  -20.8342  -43.1631   -5.4682 C   0  0  0  0  0  0  0  0  0  0  0  0
  -19.9681  -43.7744   -6.3236 C   0  0  0  0  0  0  0  0  0  0  0  0
  -18.8475  -43.0413   -6.6177 C   0  0  0  0  0  0  0  0  0  0  0  0
  -16.0888  -39.3438   -7.6461 C   0  0  2  0  0  0  0  0  0  0  0  0
  -15.8393  -38.7549   -6.3767 O   0  0  0  0  0  0  0  0  0  0  0  0
  -16.0964  -38.2038   -8.6038 C   0  0  0  0  0  0  0  0  0  0  0  0
  -15.1703  -38.2929   -9.6948 N   0  0  0  0  0  0  0  0  0  0  0  0
  -15.8170  -38.8948  -10.8511 C   0  0  0  0  0  0  0  0  0  0  0  0
  -16.5505  -37.9247  -11.6659 C   0  0  0  0  0  0  0  0  0  0  0  0
  -16.2401  -36.5890  -11.6748 C   0  0  0  0  0  0  0  0  0  0  0  0
  -16.9158  -35.6501  -12.4317 C   0  0  0  0  0  0  0  0  0  0  0  0
  -17.9628  -36.0928  -13.2219 C   0  0  0  0  0  0  0  0  0  0  0  0
  -18.2877  -37.4362  -13.2237 C   0  0  0  0  0  0  0  0  0  0  0  0
  -17.5935  -38.3633  -12.4536 C   0  0  0  0  0  0  0  0  0  0  0  0
  -16.5243  -34.2165  -12.3948 C   0  0  0  0  0  0  0  0  0  0  0  0
  -15.0119  -34.1076  -12.4083 C   0  0  0  0  0  0  0  0  0  0  0  0
  -17.1004  -33.5524  -11.1708 C   0  0  0  0  0  0  0  0  0  0  0  0
  1  2  1  0
  2  3  1  0
  3  4  2  0
  3  5  1  0
  5  6  2  0
  6  7  1  0
  7  8  2  0
  8  9  1  0
  9 10  2  0
  9 11  1  0
 11 12  2  0
 11 13  1  0
 13 14  1  0
 14 15  1  1
 15 16  1  0
 16 17  1  0
 17 18  2  0
 18 19  1  0
 19 20  1  0
 20 21  1  0
 21 22  1  0
 22 23  1  0
 18 24  1  0
 24 25  2  0
 25 26  1  0
 14 27  1  0
 27 28  1  1
 27 29  1  0
 29 30  1  0
 30 31  1  0
 31 32  1  0
 32 33  2  0
 33 34  1  0
 34 35  2  0
 35 36  1  0
 36 37  2  0
 34 38  1  0
 38 39  1  0
 38 40  1  0
 10  5  1  0
 23  7  1  0
 26 16  2  0
 37 32  1  0
M  END
$$$$
