
     RDKit          3D

 40 43  0  0  0  0  0  0  0  0999 V2000
  -20.8718  -41.8352   -0.9772 C   0  0  0  0  0  0  0  0  0  0  0  0
  -20.4207  -42.6039   -2.0757 O   0  0  0  0  0  0  0  0  0  0  0  0
  -21.2962  -42.8010   -3.1274 C   0  0  0  0  0  0  0  0  0  0  0  0
  -22.4510  -43.2297   -2.8939 O   0  0  0  0  0  0  0  0  0  0  0  0
  -20.9304  -42.5286   -4.5147 C   0  0  0  0  0  0  0  0  0  0  0  0
  -21.7275  -42.8969   -5.5616 C   0  0  0  0  0  0  0  0  0  0  0  0
  -21.3803  -42.6413   -6.9052 C   0  0  0  0  0  0  0  0  0  0  0  0
  -20.1922  -41.9953   -7.2170 C   0  0  0  0  0  0  0  0  0  0  0  0
  -19.3698  -41.6106   -6.1857 C   0  0  0  0  0  0  0  0  0  0  0  0
  -19.7692  -41.8938   -4.8471 C   0  0  0  0  0  0  0  0  0  0  0  0
  -18.0736  -40.9132   -6.1649 C   0  0  0  0  0  0  0  0  0  0  0  0
  -17.1685  -41.3720   -5.3255 O   0  0  0  0  0  0  0  0  0  0  0  0
  -17.5506  -39.8130   -6.8667 N   0  0  0  0  0  0  0  0  0  0  0  0
  -18.0020  -39.2875   -8.1340 C   0  0  1  0  0  0  0  0  0  0  0  0
  -18.9033  -38.0892   -7.8631 C   0  0  0  0  0  0  0  0  0  0  0  0
  -20.3156  -38.4478   -7.5300 C   0  0  0  0  0  0  0  0  0  0  0  0
  -21.3093  -38.9479   -8.3340 C   0  0  0  0  0  0  0  0  0  0  0  0
  -22.5383  -39.1931   -7.7846 C   0  0  0  0  0  0  0  0  0  0  0  0
  -23.8137  -39.7277   -8.3316 C   0  0  0  0  0  0  0  0  0  0  0  0
  -24.3878  -40.8150   -7.4240 C   0  0  0  0  0  0  0  0  0  0  0  0
  -24.5001  -42.1310   -8.2084 C   0  0  0  0  0  0  0  0  0  0  0  0
  -23.1782  -42.5679   -8.7434 C   0  0  0  0  0  0  0  0  0  0  0  0
  -22.3650  -43.1176   -7.7515 O   0  0  0  0  0  0  0  0  0  0  0  0
  -22.7545  -38.9248   -6.4035 C   0  0  0  0  0  0  0  0  0  0  0  0
  -21.8001  -38.4294   -5.5674 C   0  0  0  0  0  0  0  0  0  0  0  0
  -20.5863  -38.2008   -6.1625 C   0  0  0  0  0  0  0  0  0  0  0  0
  -16.7980  -38.8014   -8.9243 C   0  0  2  0  0  0  0  0  0  0  0  0
  -17.2155  -38.4186  -10.2280 O   0  0  0  0  0  0  0  0  0  0  0  0
  -15.7807  -39.8662   -9.1438 C   0  0  0  0  0  0  0  0  0  0  0  0
  -14.7472  -39.9619   -8.1547 N   0  0  0  0  0  0  0  0  0  0  0  0
  -13.4400  -39.9287   -8.7933 C   0  0  0  0  0  0  0  0  0  0  0  0
  -13.4745  -39.3512  -10.1380 C   0  0  0  0  0  0  0  0  0  0  0  0
  -13.0934  -38.0586  -10.3923 C   0  0  0  0  0  0  0  0  0  0  0  0
  -13.1174  -37.4858  -11.6502 C   0  0  0  0  0  0  0  0  0  0  0  0
  -13.5518  -38.2689  -12.7059 C   0  0  0  0  0  0  0  0  0  0  0  0
  -13.9392  -39.5736  -12.4656 C   0  0  0  0  0  0  0  0  0  0  0  0
  -13.9068  -40.1291  -11.1908 C   0  0  0  0  0  0  0  0  0  0  0  0
  -12.6877  -36.0775  -11.8546 C   0  0  0  0  0  0  0  0  0  0  0  0
  -13.9096  -35.1808  -11.9036 C   0  0  0  0  0  0  0  0  0  0  0  0
  -11.8828  -35.9593  -13.1232 C   0  0  0  0  0  0  0  0  0  0  0  0
  1  2  1  0
  2  3  1  0
  3  4  2  0
  3  5  1  0
  5  6  2  0
  6  7  1  0
  7  8  2  0
  8  9  1  0
  9 10  2  0
  9 11  1  0
 11 12  2  0
 11 13  1  0
 13 14  1  0
 14 15  1  1
 15 16  1  0
 16 17  1  0
 17 18  2  0
 18 19  1  0
 19 20  1  0
 20 21  1  0
 21 22  1  0
 22 23  1  0
 18 24  1  0
 24 25  2  0
 25 26  1  0
 14 27  1  0
 27 28  1  6
 27 29  1  0
 29 30  1  0
 30 31  1  0
 31 32  1  0
 32 33  2  0
 33 34  1  0
 34 35  2  0
 35 36  1  0
 36 37  2  0
 34 38  1  0
 38 39  1  0
 38 40  1  0
 10  5  1  0
 23  7  1  0
 26 16  2  0
 37 32  1  0
M  END
$$$$
