
     RDKit          3D

 40 43  0  0  0  0  0  0  0  0999 V2000
  -21.4754  -42.9122   -1.2331 C   0  0  0  0  0  0  0  0  0  0  0  0
  -20.8832  -42.6916   -2.4986 O   0  0  0  0  0  0  0  0  0  0  0  0
  -21.6954  -42.7769   -3.6141 C   0  0  0  0  0  0  0  0  0  0  0  0
  -22.8557  -43.2374   -3.4960 O   0  0  0  0  0  0  0  0  0  0  0  0
  -21.2562  -42.3492   -4.9395 C   0  0  0  0  0  0  0  0  0  0  0  0
  -22.0217  -42.5403   -6.0550 C   0  0  0  0  0  0  0  0  0  0  0  0
  -21.6037  -42.1338   -7.3400 C   0  0  0  0  0  0  0  0  0  0  0  0
  -20.3746  -41.5149   -7.5200 C   0  0  0  0  0  0  0  0  0  0  0  0
  -19.5824  -41.3069   -6.4167 C   0  0  0  0  0  0  0  0  0  0  0  0
  -20.0536  -41.7373   -5.1423 C   0  0  0  0  0  0  0  0  0  0  0  0
  -18.2579  -40.6847   -6.2563 C   0  0  0  0  0  0  0  0  0  0  0  0
  -17.4130  -41.2921   -5.4491 O   0  0  0  0  0  0  0  0  0  0  0  0
  -17.6546  -39.5322   -6.7894 N   0  0  0  0  0  0  0  0  0  0  0  0
  -18.0246  -38.8275   -7.9946 C   0  0  1  0  0  0  0  0  0  0  0  0
  -18.8815  -37.6290   -7.6059 C   0  0  0  0  0  0  0  0  0  0  0  0
  -20.3220  -37.9547   -7.3763 C   0  0  0  0  0  0  0  0  0  0  0  0
  -21.3007  -38.2972   -8.2758 C   0  0  0  0  0  0  0  0  0  0  0  0
  -22.5629  -38.5473   -7.8102 C   0  0  0  0  0  0  0  0  0  0  0  0
  -23.8357  -38.9424   -8.4702 C   0  0  0  0  0  0  0  0  0  0  0  0
  -24.4986  -40.1056   -7.7334 C   0  0  0  0  0  0  0  0  0  0  0  0
  -24.6358  -41.3036   -8.6851 C   0  0  0  0  0  0  0  0  0  0  0  0
  -23.3126  -41.7357   -9.2209 C   0  0  0  0  0  0  0  0  0  0  0  0
  -22.5703  -42.4479   -8.2779 O   0  0  0  0  0  0  0  0  0  0  0  0
  -22.8280  -38.4462   -6.4153 C   0  0  0  0  0  0  0  0  0  0  0  0
  -21.8902  -38.1105   -5.4862 C   0  0  0  0  0  0  0  0  0  0  0  0
  -20.6420  -37.8701   -5.9998 C   0  0  0  0  0  0  0  0  0  0  0  0
  -16.7656  -38.3068   -8.6687 C   0  0  2  0  0  0  0  0  0  0  0  0
  -17.0690  -37.9343  -10.0064 O   0  0  0  0  0  0  0  0  0  0  0  0
  -15.7027  -39.3423   -8.7898 C   0  0  0  0  0  0  0  0  0  0  0  0
  -14.7105  -39.3491   -7.7548 N   0  0  0  0  0  0  0  0  0  0  0  0
  -14.2634  -40.7103   -7.5003 C   0  0  0  0  0  0  0  0  0  0  0  0
  -13.7140  -41.3640   -8.6894 C   0  0  0  0  0  0  0  0  0  0  0  0
  -12.6292  -40.8673   -9.3654 C   0  0  0  0  0  0  0  0  0  0  0  0
  -12.0901  -41.4610  -10.4914 C   0  0  0  0  0  0  0  0  0  0  0  0
  -12.6855  -42.6218  -10.9548 C   0  0  0  0  0  0  0  0  0  0  0  0
  -13.7797  -43.1348  -10.2841 C   0  0  0  0  0  0  0  0  0  0  0  0
  -14.3054  -42.5199   -9.1526 C   0  0  0  0  0  0  0  0  0  0  0  0
  -10.9101  -40.8688  -11.1744 C   0  0  0  0  0  0  0  0  0  0  0  0
  -11.3041  -40.4331  -12.5724 C   0  0  0  0  0  0  0  0  0  0  0  0
   -9.7818  -41.8668  -11.2202 C   0  0  0  0  0  0  0  0  0  0  0  0
  1  2  1  0
  2  3  1  0
  3  4  2  0
  3  5  1  0
  5  6  2  0
  6  7  1  0
  7  8  2  0
  8  9  1  0
  9 10  2  0
  9 11  1  0
 11 12  2  0
 11 13  1  0
 13 14  1  0
 14 15  1  1
 15 16  1  0
 16 17  1  0
 17 18  2  0
 18 19  1  0
 19 20  1  0
 20 21  1  0
 21 22  1  0
 22 23  1  0
 18 24  1  0
 24 25  2  0
 25 26  1  0
 14 27  1  0
 27 28  1  6
 27 29  1  0
 29 30  1  0
 30 31  1  0
 31 32  1  0
 32 33  2  0
 33 34  1  0
 34 35  2  0
 35 36  1  0
 36 37  2  0
 34 38  1  0
 38 39  1  0
 38 40  1  0
 10  5  1  0
 23  7  1  0
 26 16  2  0
 37 32  1  0
M  END
$$$$
