
     RDKit          3D

 40 43  0  0  0  0  0  0  0  0999 V2000
  -23.4902  -39.0604  -13.7210 C   0  0  0  0  0  0  0  0  0  0  0  0
  -22.4854  -39.9909  -13.3666 O   0  0  0  0  0  0  0  0  0  0  0  0
  -21.2025  -39.5124  -13.1752 C   0  0  0  0  0  0  0  0  0  0  0  0
  -20.6917  -38.7601  -14.0384 O   0  0  0  0  0  0  0  0  0  0  0  0
  -20.4069  -39.8488  -11.9977 C   0  0  0  0  0  0  0  0  0  0  0  0
  -19.1712  -39.3087  -11.7777 C   0  0  0  0  0  0  0  0  0  0  0  0
  -18.3938  -39.6309  -10.6449 C   0  0  0  0  0  0  0  0  0  0  0  0
  -18.8657  -40.5273   -9.6963 C   0  0  0  0  0  0  0  0  0  0  0  0
  -20.1062  -41.0862   -9.8885 C   0  0  0  0  0  0  0  0  0  0  0  0
  -20.8490  -40.7255  -11.0503 C   0  0  0  0  0  0  0  0  0  0  0  0
  -20.8917  -42.0425   -9.0913 C   0  0  0  0  0  0  0  0  0  0  0  0
  -21.5163  -42.9931   -9.7550 O   0  0  0  0  0  0  0  0  0  0  0  0
  -21.1460  -42.1830   -7.7158 N   0  0  0  0  0  0  0  0  0  0  0  0
  -20.3612  -41.6598   -6.6220 C   0  0  1  0  0  0  0  0  0  0  0  0
  -21.0158  -40.3733   -6.1340 C   0  0  0  0  0  0  0  0  0  0  0  0
  -20.6654  -39.1639   -6.9394 C   0  0  0  0  0  0  0  0  0  0  0  0
  -19.4829  -38.4714   -7.0177 C   0  0  0  0  0  0  0  0  0  0  0  0
  -19.4147  -37.3776   -7.8370 C   0  0  0  0  0  0  0  0  0  0  0  0
  -18.3292  -36.4178   -8.1717 C   0  0  0  0  0  0  0  0  0  0  0  0
  -18.2250  -36.2113   -9.6824 C   0  0  0  0  0  0  0  0  0  0  0  0
  -16.8271  -36.6303  -10.1618 C   0  0  0  0  0  0  0  0  0  0  0  0
  -16.5337  -38.0538   -9.8270 C   0  0  0  0  0  0  0  0  0  0  0  0
  -17.1955  -38.9412  -10.6766 O   0  0  0  0  0  0  0  0  0  0  0  0
  -20.5634  -36.9874   -8.5816 C   0  0  0  0  0  0  0  0  0  0  0  0
  -21.7566  -37.6428   -8.5366 C   0  0  0  0  0  0  0  0  0  0  0  0
  -21.7760  -38.7314   -7.7035 C   0  0  0  0  0  0  0  0  0  0  0  0
  -20.3796  -42.6603   -5.4779 C   0  0  2  0  0  0  0  0  0  0  0  0
  -19.3447  -42.3403   -4.5576 O   0  0  0  0  0  0  0  0  0  0  0  0
  -20.0844  -44.0512   -5.9197 C   0  0  0  0  0  0  0  0  0  0  0  0
  -21.0566  -44.6567   -6.7821 N   0  0  0  0  0  0  0  0  0  0  0  0
  -21.8104  -45.6663   -6.0540 C   0  0  0  0  0  0  0  0  0  0  0  0
  -21.3014  -47.0227   -6.2641 C   0  0  0  0  0  0  0  0  0  0  0  0
  -20.1944  -47.2812   -7.0311 C   0  0  0  0  0  0  0  0  0  0  0  0
  -19.6923  -48.5506   -7.2490 C   0  0  0  0  0  0  0  0  0  0  0  0
  -20.3506  -49.6140   -6.6552 C   0  0  0  0  0  0  0  0  0  0  0  0
  -21.4678  -49.3694   -5.8791 C   0  0  0  0  0  0  0  0  0  0  0  0
  -21.9554  -48.0831   -5.6738 C   0  0  0  0  0  0  0  0  0  0  0  0
  -18.4852  -48.7586   -8.0912 C   0  0  0  0  0  0  0  0  0  0  0  0
  -17.8542  -50.0933   -7.7452 C   0  0  0  0  0  0  0  0  0  0  0  0
  -17.5069  -47.6313   -7.8835 C   0  0  0  0  0  0  0  0  0  0  0  0
  1  2  1  0
  2  3  1  0
  3  4  2  0
  3  5  1  0
  5  6  2  0
  6  7  1  0
  7  8  2  0
  8  9  1  0
  9 10  2  0
  9 11  1  0
 11 12  2  0
 11 13  1  0
 13 14  1  0
 14 15  1  1
 15 16  1  0
 16 17  1  0
 17 18  2  0
 18 19  1  0
 19 20  1  0
 20 21  1  0
 21 22  1  0
 22 23  1  0
 18 24  1  0
 24 25  2  0
 25 26  1  0
 14 27  1  0
 27 28  1  1
 27 29  1  0
 29 30  1  0
 30 31  1  0
 31 32  1  0
 32 33  2  0
 33 34  1  0
 34 35  2  0
 35 36  1  0
 36 37  2  0
 34 38  1  0
 38 39  1  0
 38 40  1  0
 10  5  1  0
 23  7  1  0
 26 16  2  0
 37 32  1  0
M  END
$$$$
