
     RDKit          3D

 40 43  0  0  0  0  0  0  0  0999 V2000
  -22.7410  -39.0788  -13.6500 C   0  0  0  0  0  0  0  0  0  0  0  0
  -22.0220  -39.9755  -12.8254 O   0  0  0  0  0  0  0  0  0  0  0  0
  -22.5187  -40.2272  -11.5601 C   0  0  0  0  0  0  0  0  0  0  0  0
  -23.6510  -40.7515  -11.4371 O   0  0  0  0  0  0  0  0  0  0  0  0
  -21.7737  -39.9052  -10.3460 C   0  0  0  0  0  0  0  0  0  0  0  0
  -22.3867  -39.7692   -9.1324 C   0  0  0  0  0  0  0  0  0  0  0  0
  -21.6754  -39.4545   -7.9549 C   0  0  0  0  0  0  0  0  0  0  0  0
  -20.3008  -39.2664   -7.9892 C   0  0  0  0  0  0  0  0  0  0  0  0
  -19.6552  -39.3982   -9.1949 C   0  0  0  0  0  0  0  0  0  0  0  0
  -20.4223  -39.7172  -10.3530 C   0  0  0  0  0  0  0  0  0  0  0  0
  -18.2377  -39.2775   -9.5734 C   0  0  0  0  0  0  0  0  0  0  0  0
  -17.9772  -38.6352  -10.6931 O   0  0  0  0  0  0  0  0  0  0  0  0
  -17.0354  -39.7131   -8.9894 N   0  0  0  0  0  0  0  0  0  0  0  0
  -16.8091  -40.0607   -7.6059 C   0  0  1  0  0  0  0  0  0  0  0  0
  -16.8757  -41.5773   -7.4750 C   0  0  0  0  0  0  0  0  0  0  0  0
  -18.2631  -42.1225   -7.3657 C   0  0  0  0  0  0  0  0  0  0  0  0
  -19.1594  -42.0455   -6.3290 C   0  0  0  0  0  0  0  0  0  0  0  0
  -20.3839  -42.6390   -6.4732 C   0  0  0  0  0  0  0  0  0  0  0  0
  -21.5765  -42.7483   -5.5916 C   0  0  0  0  0  0  0  0  0  0  0  0
  -22.8558  -42.4020   -6.3524 C   0  0  0  0  0  0  0  0  0  0  0  0
  -23.5410  -41.2011   -5.6832 C   0  0  0  0  0  0  0  0  0  0  0  0
  -22.6443  -40.0102   -5.6378 C   0  0  0  0  0  0  0  0  0  0  0  0
  -22.5417  -39.3813   -6.8793 O   0  0  0  0  0  0  0  0  0  0  0  0
  -20.6953  -43.3170   -7.6854 C   0  0  0  0  0  0  0  0  0  0  0  0
  -19.8395  -43.4192   -8.7402 C   0  0  0  0  0  0  0  0  0  0  0  0
  -18.6268  -42.8090   -8.5492 C   0  0  0  0  0  0  0  0  0  0  0  0
  -15.4118  -39.6150   -7.2067 C   0  0  2  0  0  0  0  0  0  0  0  0
  -15.0831  -40.1764   -5.9429 O   0  0  0  0  0  0  0  0  0  0  0  0
  -15.3069  -38.1426   -7.0121 C   0  0  0  0  0  0  0  0  0  0  0  0
  -14.4337  -37.4498   -7.9139 N   0  0  0  0  0  0  0  0  0  0  0  0
  -13.7513  -38.4011   -8.7782 C   0  0  0  0  0  0  0  0  0  0  0  0
  -13.8438  -38.0537  -10.1973 C   0  0  0  0  0  0  0  0  0  0  0  0
  -12.8833  -37.3123  -10.8361 C   0  0  0  0  0  0  0  0  0  0  0  0
  -12.9447  -36.9672  -12.1733 C   0  0  0  0  0  0  0  0  0  0  0  0
  -14.0411  -37.3992  -12.8999 C   0  0  0  0  0  0  0  0  0  0  0  0
  -15.0176  -38.1475  -12.2700 C   0  0  0  0  0  0  0  0  0  0  0  0
  -14.9348  -38.4828  -10.9227 C   0  0  0  0  0  0  0  0  0  0  0  0
  -11.8656  -36.1617  -12.8029 C   0  0  0  0  0  0  0  0  0  0  0  0
  -10.5360  -36.8654  -12.6122 C   0  0  0  0  0  0  0  0  0  0  0  0
  -11.8331  -34.7792  -12.2039 C   0  0  0  0  0  0  0  0  0  0  0  0
  1  2  1  0
  2  3  1  0
  3  4  2  0
  3  5  1  0
  5  6  2  0
  6  7  1  0
  7  8  2  0
  8  9  1  0
  9 10  2  0
  9 11  1  0
 11 12  2  0
 11 13  1  0
 13 14  1  0
 14 15  1  6
 15 16  1  0
 16 17  1  0
 17 18  2  0
 18 19  1  0
 19 20  1  0
 20 21  1  0
 21 22  1  0
 22 23  1  0
 18 24  1  0
 24 25  2  0
 25 26  1  0
 14 27  1  0
 27 28  1  1
 27 29  1  0
 29 30  1  0
 30 31  1  0
 31 32  1  0
 32 33  2  0
 33 34  1  0
 34 35  2  0
 35 36  1  0
 36 37  2  0
 34 38  1  0
 38 39  1  0
 38 40  1  0
 10  5  1  0
 23  7  1  0
 26 16  2  0
 37 32  1  0
M  END
$$$$
