
     RDKit          3D

 37 40  0  0  0  0  0  0  0  0999 V2000
  -11.4665  -35.1731  -13.7504 C   0  0  0  0  0  0  0  0  0  0  0  0
  -11.3208  -36.1295  -12.6060 C   0  0  0  0  0  0  0  0  0  0  0  0
  -10.0822  -35.8217  -11.7887 C   0  0  0  0  0  0  0  0  0  0  0  0
  -12.5514  -36.0925  -11.7863 C   0  0  0  0  0  0  0  0  0  0  0  0
  -13.3280  -34.9757  -11.7968 C   0  0  0  0  0  0  0  0  0  0  0  0
  -14.4790  -34.9450  -11.0393 C   0  0  0  0  0  0  0  0  0  0  0  0
  -14.8383  -36.0546  -10.2665 C   0  0  0  0  0  0  0  0  0  0  0  0
  -14.0652  -37.1786  -10.2486 C   0  0  0  0  0  0  0  0  0  0  0  0
  -14.4214  -38.3529   -9.4569 C   0  0  0  0  0  0  0  0  0  0  0  0
  -14.8469  -39.4778  -10.2075 N   0  0  0  0  0  0  0  0  0  0  0  0
  -16.0904  -40.0609   -9.9315 C   0  0  0  0  0  0  0  0  0  0  0  0
  -17.3303  -39.2977  -10.2171 C   0  0  1  0  0  0  0  0  0  0  0  0
  -17.5126  -39.1419  -11.5704 O   0  0  0  0  0  0  0  0  0  0  0  0
  -18.5814  -39.8791   -9.5154 C   0  0  2  0  0  0  0  0  0  0  0  0
  -19.6870  -38.8672   -9.7555 C   0  0  0  0  0  0  0  0  0  0  0  0
  -20.7638  -38.8857   -8.7113 C   0  0  0  0  0  0  0  0  0  0  0  0
  -20.5305  -37.8415   -7.7773 C   0  0  0  0  0  0  0  0  0  0  0  0
  -21.3507  -37.5890   -6.7162 C   0  0  0  0  0  0  0  0  0  0  0  0
  -22.4272  -38.4238   -6.6146 C   0  0  0  0  0  0  0  0  0  0  0  0
  -22.7078  -39.4838   -7.5199 C   0  0  0  0  0  0  0  0  0  0  0  0
  -23.9617  -40.1594   -7.1024 C   0  0  0  0  0  0  0  0  0  0  0  0
  -23.9478  -41.6268   -6.8855 C   0  0  0  0  0  0  0  0  0  0  0  0
  -23.6961  -42.0924   -5.4887 C   0  0  0  0  0  0  0  0  0  0  0  0
  -23.3304  -43.5271   -5.3649 C   0  0  0  0  0  0  0  0  0  0  0  0
  -22.5317  -44.0259   -6.4647 N   0  0  0  0  0  0  0  0  0  0  0  0
  -23.3069  -45.0591   -7.2461 C   0  0  0  0  0  0  0  0  0  0  0  0
  -21.1932  -43.7045   -6.8617 C   0  0  0  0  0  0  0  0  0  0  0  0
  -20.5537  -44.9022   -7.3015 C   0  0  0  0  0  0  0  0  0  0  0  0
  -19.2708  -44.9532   -7.7558 C   0  0  0  0  0  0  0  0  0  0  0  0
  -18.5984  -43.7627   -7.7721 C   0  0  0  0  0  0  0  0  0  0  0  0
  -19.1817  -42.5365   -7.3482 C   0  0  0  0  0  0  0  0  0  0  0  0
  -20.4930  -42.5166   -6.8895 C   0  0  0  0  0  0  0  0  0  0  0  0
  -18.1877  -41.4623   -7.5188 C   0  0  0  0  0  0  0  0  0  0  0  0
  -17.0110  -41.7528   -7.0028 O   0  0  0  0  0  0  0  0  0  0  0  0
  -18.3070  -40.1736   -8.1518 N   0  0  0  0  0  0  0  0  0  0  0  0
  -21.8582  -39.7113   -8.5796 C   0  0  0  0  0  0  0  0  0  0  0  0
  -12.9147  -37.1880  -11.0180 C   0  0  0  0  0  0  0  0  0  0  0  0
  1  2  1  0
  2  3  1  0
  2  4  1  0
  4  5  2  0
  5  6  1  0
  6  7  2  0
  7  8  1  0
  8  9  1  0
  9 10  1  0
 10 11  1  0
 11 12  1  0
 12 13  1  6
 12 14  1  0
 14 15  1  1
 15 16  1  0
 16 17  1  0
 17 18  2  0
 18 19  1  0
 19 20  2  0
 20 21  1  0
 21 22  1  0
 22 23  1  0
 23 24  1  0
 24 25  1  0
 25 26  1  0
 25 27  1  0
 27 28  1  0
 28 29  2  0
 29 30  1  0
 30 31  2  0
 31 32  1  0
 31 33  1  0
 33 34  2  0
 33 35  1  0
 20 36  1  0
  8 37  2  0
 32 27  2  0
 35 14  1  0
 36 16  2  0
 37  4  1  0
M  END
$$$$
