
     RDKit          3D

 37 40  0  0  0  0  0  0  0  0999 V2000
  -13.4277  -35.9455  -13.6524 C   0  0  0  0  0  0  0  0  0  0  0  0
  -12.7041  -36.0665  -12.3456 C   0  0  0  0  0  0  0  0  0  0  0  0
  -13.5742  -35.6074  -11.1928 C   0  0  0  0  0  0  0  0  0  0  0  0
  -12.2460  -37.4624  -12.1751 C   0  0  0  0  0  0  0  0  0  0  0  0
  -10.9616  -37.7867  -12.4847 C   0  0  0  0  0  0  0  0  0  0  0  0
  -10.5329  -39.0859  -12.3175 C   0  0  0  0  0  0  0  0  0  0  0  0
  -11.4163  -40.0582  -11.8363 C   0  0  0  0  0  0  0  0  0  0  0  0
  -12.7064  -39.7427  -11.5242 C   0  0  0  0  0  0  0  0  0  0  0  0
  -13.6464  -40.7365  -11.0130 C   0  0  0  0  0  0  0  0  0  0  0  0
  -14.4163  -40.3187   -9.8983 N   0  0  0  0  0  0  0  0  0  0  0  0
  -15.7548  -39.9490  -10.0841 C   0  0  0  0  0  0  0  0  0  0  0  0
  -16.3860  -39.0025   -9.1318 C   0  0  1  0  0  0  0  0  0  0  0  0
  -16.5216  -37.7553   -9.6932 O   0  0  0  0  0  0  0  0  0  0  0  0
  -17.7136  -39.5295   -8.5355 C   0  0  2  0  0  0  0  0  0  0  0  0
  -18.6337  -38.3241   -8.4681 C   0  0  0  0  0  0  0  0  0  0  0  0
  -19.6926  -38.4273   -7.4106 C   0  0  0  0  0  0  0  0  0  0  0  0
  -19.2812  -37.7010   -6.2614 C   0  0  0  0  0  0  0  0  0  0  0  0
  -20.0413  -37.5914   -5.1333 C   0  0  0  0  0  0  0  0  0  0  0  0
  -21.2428  -38.2390   -5.1884 C   0  0  0  0  0  0  0  0  0  0  0  0
  -21.7033  -38.9798   -6.3114 C   0  0  0  0  0  0  0  0  0  0  0  0
  -23.0510  -39.5255   -6.0133 C   0  0  0  0  0  0  0  0  0  0  0  0
  -23.2840  -40.9827   -6.1632 C   0  0  0  0  0  0  0  0  0  0  0  0
  -23.1071  -41.8163   -4.9363 C   0  0  0  0  0  0  0  0  0  0  0  0
  -22.9884  -43.2763   -5.1849 C   0  0  0  0  0  0  0  0  0  0  0  0
  -22.2913  -43.6080   -6.4098 N   0  0  0  0  0  0  0  0  0  0  0  0
  -23.2340  -44.2739   -7.3828 C   0  0  0  0  0  0  0  0  0  0  0  0
  -20.9198  -43.4194   -6.7788 C   0  0  0  0  0  0  0  0  0  0  0  0
  -20.4943  -44.5570   -7.5281 C   0  0  0  0  0  0  0  0  0  0  0  0
  -19.2409  -44.7007   -8.0411 C   0  0  0  0  0  0  0  0  0  0  0  0
  -18.3771  -43.6691   -7.7971 C   0  0  0  0  0  0  0  0  0  0  0  0
  -18.7426  -42.5094   -7.0589 C   0  0  0  0  0  0  0  0  0  0  0  0
  -20.0292  -42.3919   -6.5479 C   0  0  0  0  0  0  0  0  0  0  0  0
  -17.5823  -41.6025   -7.0081 C   0  0  0  0  0  0  0  0  0  0  0  0
  -16.4689  -42.1995   -6.6351 O   0  0  0  0  0  0  0  0  0  0  0  0
  -17.4856  -40.1951   -7.3000 N   0  0  0  0  0  0  0  0  0  0  0  0
  -20.9099  -39.0708   -7.4334 C   0  0  0  0  0  0  0  0  0  0  0  0
  -13.1150  -38.4318  -11.6983 C   0  0  0  0  0  0  0  0  0  0  0  0
  1  2  1  0
  2  3  1  0
  2  4  1  0
  4  5  2  0
  5  6  1  0
  6  7  2  0
  7  8  1  0
  8  9  1  0
  9 10  1  0
 10 11  1  0
 11 12  1  0
 12 13  1  6
 12 14  1  0
 14 15  1  1
 15 16  1  0
 16 17  1  0
 17 18  2  0
 18 19  1  0
 19 20  2  0
 20 21  1  0
 21 22  1  0
 22 23  1  0
 23 24  1  0
 24 25  1  0
 25 26  1  0
 25 27  1  0
 27 28  1  0
 28 29  2  0
 29 30  1  0
 30 31  2  0
 31 32  1  0
 31 33  1  0
 33 34  2  0
 33 35  1  0
 20 36  1  0
  8 37  2  0
 32 27  2  0
 35 14  1  0
 36 16  2  0
 37  4  1  0
M  END
$$$$
