
     RDKit          3D

 37 40  0  0  0  0  0  0  0  0999 V2000
  -19.5035  -36.8703  -11.0133 C   0  0  0  0  0  0  0  0  0  0  0  0
  -18.8541  -38.0806  -11.6125 C   0  0  0  0  0  0  0  0  0  0  0  0
  -19.2807  -38.2746  -13.0537 C   0  0  0  0  0  0  0  0  0  0  0  0
  -17.3863  -37.9570  -11.4787 C   0  0  0  0  0  0  0  0  0  0  0  0
  -16.7499  -36.8995  -12.0508 C   0  0  0  0  0  0  0  0  0  0  0  0
  -15.3832  -36.7804  -11.9187 C   0  0  0  0  0  0  0  0  0  0  0  0
  -14.6624  -37.7432  -11.2040 C   0  0  0  0  0  0  0  0  0  0  0  0
  -15.2917  -38.8078  -10.6278 C   0  0  0  0  0  0  0  0  0  0  0  0
  -14.5642  -39.8223   -9.8702 C   0  0  0  0  0  0  0  0  0  0  0  0
  -14.0091  -39.3750   -8.6448 N   0  0  0  0  0  0  0  0  0  0  0  0
  -14.6940  -39.6191   -7.4473 C   0  0  0  0  0  0  0  0  0  0  0  0
  -15.8128  -38.7268   -7.0553 C   0  0  1  0  0  0  0  0  0  0  0  0
  -15.6439  -37.4663   -7.5764 O   0  0  0  0  0  0  0  0  0  0  0  0
  -17.2070  -39.3171   -7.3767 C   0  0  2  0  0  0  0  0  0  0  0  0
  -18.1890  -38.1819   -7.1511 C   0  0  0  0  0  0  0  0  0  0  0  0
  -19.5752  -38.6385   -6.8043 C   0  0  0  0  0  0  0  0  0  0  0  0
  -19.7549  -38.5676   -5.3972 C   0  0  0  0  0  0  0  0  0  0  0  0
  -20.9220  -38.9017   -4.7737 C   0  0  0  0  0  0  0  0  0  0  0  0
  -21.9192  -39.3151   -5.6108 C   0  0  0  0  0  0  0  0  0  0  0  0
  -21.7933  -39.4052   -7.0242 C   0  0  0  0  0  0  0  0  0  0  0  0
  -23.0799  -39.8736   -7.5971 C   0  0  0  0  0  0  0  0  0  0  0  0
  -23.0803  -41.0658   -8.4799 C   0  0  0  0  0  0  0  0  0  0  0  0
  -23.3458  -42.3814   -7.8240 C   0  0  0  0  0  0  0  0  0  0  0  0
  -22.9869  -43.5699   -8.6403 C   0  0  0  0  0  0  0  0  0  0  0  0
  -21.8139  -43.3806   -9.4678 N   0  0  0  0  0  0  0  0  0  0  0  0
  -22.1938  -43.4197  -10.9284 C   0  0  0  0  0  0  0  0  0  0  0  0
  -20.4402  -43.1977   -9.1047 C   0  0  0  0  0  0  0  0  0  0  0  0
  -19.6285  -43.9070  -10.0401 C   0  0  0  0  0  0  0  0  0  0  0  0
  -18.2678  -43.9385   -9.9914 C   0  0  0  0  0  0  0  0  0  0  0  0
  -17.6933  -43.2350   -8.9692 C   0  0  0  0  0  0  0  0  0  0  0  0
  -18.4483  -42.5078   -8.0076 C   0  0  0  0  0  0  0  0  0  0  0  0
  -19.8355  -42.4948   -8.0836 C   0  0  0  0  0  0  0  0  0  0  0  0
  -17.5129  -41.8591   -7.0721 C   0  0  0  0  0  0  0  0  0  0  0  0
  -16.6010  -42.6798   -6.5923 O   0  0  0  0  0  0  0  0  0  0  0  0
  -17.4470  -40.4941   -6.6160 N   0  0  0  0  0  0  0  0  0  0  0  0
  -20.6006  -39.0612   -7.6206 C   0  0  0  0  0  0  0  0  0  0  0  0
  -16.6647  -38.9066  -10.7717 C   0  0  0  0  0  0  0  0  0  0  0  0
  1  2  1  0
  2  3  1  0
  2  4  1  0
  4  5  2  0
  5  6  1  0
  6  7  2  0
  7  8  1  0
  8  9  1  0
  9 10  1  0
 10 11  1  0
 11 12  1  0
 12 13  1  6
 12 14  1  0
 14 15  1  1
 15 16  1  0
 16 17  1  0
 17 18  2  0
 18 19  1  0
 19 20  2  0
 20 21  1  0
 21 22  1  0
 22 23  1  0
 23 24  1  0
 24 25  1  0
 25 26  1  0
 25 27  1  0
 27 28  1  0
 28 29  2  0
 29 30  1  0
 30 31  2  0
 31 32  1  0
 31 33  1  0
 33 34  2  0
 33 35  1  0
 20 36  1  0
  8 37  2  0
 32 27  2  0
 35 14  1  0
 36 16  2  0
 37  4  1  0
M  END
$$$$
