
     RDKit          3D

 37 40  0  0  0  0  0  0  0  0999 V2000
  -16.1382  -35.4431  -12.7098 C   0  0  0  0  0  0  0  0  0  0  0  0
  -14.6438  -35.4997  -12.8061 C   0  0  0  0  0  0  0  0  0  0  0  0
  -13.9972  -34.4617  -11.9110 C   0  0  0  0  0  0  0  0  0  0  0  0
  -14.1909  -36.8706  -12.4852 C   0  0  0  0  0  0  0  0  0  0  0  0
  -13.9360  -37.7440  -13.4964 C   0  0  0  0  0  0  0  0  0  0  0  0
  -13.5059  -39.0187  -13.1969 C   0  0  0  0  0  0  0  0  0  0  0  0
  -13.3379  -39.4056  -11.8629 C   0  0  0  0  0  0  0  0  0  0  0  0
  -13.5921  -38.5370  -10.8420 C   0  0  0  0  0  0  0  0  0  0  0  0
  -13.4174  -38.9128   -9.4417 C   0  0  0  0  0  0  0  0  0  0  0  0
  -14.4382  -38.4634   -8.5665 N   0  0  0  0  0  0  0  0  0  0  0  0
  -15.6491  -39.1648   -8.5012 C   0  0  0  0  0  0  0  0  0  0  0  0
  -16.8473  -38.4950   -7.9381 C   0  0  1  0  0  0  0  0  0  0  0  0
  -17.1756  -37.3772   -8.6673 O   0  0  0  0  0  0  0  0  0  0  0  0
  -18.0497  -39.4511   -7.7486 C   0  0  2  0  0  0  0  0  0  0  0  0
  -19.2809  -38.5637   -7.7779 C   0  0  0  0  0  0  0  0  0  0  0  0
  -20.4534  -39.1279   -7.0316 C   0  0  0  0  0  0  0  0  0  0  0  0
  -20.5214  -38.5325   -5.7439 C   0  0  0  0  0  0  0  0  0  0  0  0
  -21.4933  -38.8282   -4.8326 C   0  0  0  0  0  0  0  0  0  0  0  0
  -22.4090  -39.7507   -5.2527 C   0  0  0  0  0  0  0  0  0  0  0  0
  -22.3879  -40.3775   -6.5288 C   0  0  0  0  0  0  0  0  0  0  0  0
  -23.5425  -41.3041   -6.6335 C   0  0  0  0  0  0  0  0  0  0  0  0
  -23.2945  -42.7212   -6.9953 C   0  0  0  0  0  0  0  0  0  0  0  0
  -23.1317  -43.6804   -5.8618 C   0  0  0  0  0  0  0  0  0  0  0  0
  -22.5346  -44.9896   -6.2323 C   0  0  0  0  0  0  0  0  0  0  0  0
  -21.5354  -44.9041   -7.2767 N   0  0  0  0  0  0  0  0  0  0  0  0
  -22.0169  -45.6139   -8.5190 C   0  0  0  0  0  0  0  0  0  0  0  0
  -20.2376  -44.2972   -7.2736 C   0  0  0  0  0  0  0  0  0  0  0  0
  -19.3484  -45.1314   -8.0154 C   0  0  0  0  0  0  0  0  0  0  0  0
  -18.0321  -44.8454   -8.2166 C   0  0  0  0  0  0  0  0  0  0  0  0
  -17.5843  -43.6815   -7.6556 C   0  0  0  0  0  0  0  0  0  0  0  0
  -18.4219  -42.8086   -6.9074 C   0  0  0  0  0  0  0  0  0  0  0  0
  -19.7609  -43.1277   -6.7192 C   0  0  0  0  0  0  0  0  0  0  0  0
  -17.6211  -41.6504   -6.4732 C   0  0  0  0  0  0  0  0  0  0  0  0
  -16.4811  -41.9872   -5.9054 O   0  0  0  0  0  0  0  0  0  0  0  0
  -17.8910  -40.2391   -6.5758 N   0  0  0  0  0  0  0  0  0  0  0  0
  -21.3918  -40.0564   -7.4240 C   0  0  0  0  0  0  0  0  0  0  0  0
  -14.0215  -37.2617  -11.1658 C   0  0  0  0  0  0  0  0  0  0  0  0
  1  2  1  0
  2  3  1  0
  2  4  1  0
  4  5  2  0
  5  6  1  0
  6  7  2  0
  7  8  1  0
  8  9  1  0
  9 10  1  0
 10 11  1  0
 11 12  1  0
 12 13  1  6
 12 14  1  0
 14 15  1  1
 15 16  1  0
 16 17  1  0
 17 18  2  0
 18 19  1  0
 19 20  2  0
 20 21  1  0
 21 22  1  0
 22 23  1  0
 23 24  1  0
 24 25  1  0
 25 26  1  0
 25 27  1  0
 27 28  1  0
 28 29  2  0
 29 30  1  0
 30 31  2  0
 31 32  1  0
 31 33  1  0
 33 34  2  0
 33 35  1  0
 20 36  1  0
  8 37  2  0
 32 27  2  0
 35 14  1  0
 36 16  2  0
 37  4  1  0
M  END
$$$$
