
     RDKit          3D

 37 40  0  0  0  0  0  0  0  0999 V2000
  -15.1336  -35.6338  -12.1000 C   0  0  0  0  0  0  0  0  0  0  0  0
  -13.9865  -36.2782  -12.8174 C   0  0  0  0  0  0  0  0  0  0  0  0
  -12.7155  -35.4685  -12.6572 C   0  0  0  0  0  0  0  0  0  0  0  0
  -13.8282  -37.6646  -12.3273 C   0  0  0  0  0  0  0  0  0  0  0  0
  -13.7711  -38.6874  -13.2225 C   0  0  0  0  0  0  0  0  0  0  0  0
  -13.6151  -39.9783  -12.7656 C   0  0  0  0  0  0  0  0  0  0  0  0
  -13.5200  -40.2282  -11.3923 C   0  0  0  0  0  0  0  0  0  0  0  0
  -13.5774  -39.2091  -10.4869 C   0  0  0  0  0  0  0  0  0  0  0  0
  -13.4729  -39.4418   -9.0490 C   0  0  0  0  0  0  0  0  0  0  0  0
  -14.6894  -39.3241   -8.3307 N   0  0  0  0  0  0  0  0  0  0  0  0
  -15.9031  -39.2941   -9.0297 C   0  0  0  0  0  0  0  0  0  0  0  0
  -17.0294  -38.4891   -8.4959 C   0  0  1  0  0  0  0  0  0  0  0  0
  -17.3251  -37.4394   -9.3323 O   0  0  0  0  0  0  0  0  0  0  0  0
  -18.2766  -39.3375   -8.1488 C   0  0  2  0  0  0  0  0  0  0  0  0
  -19.4255  -38.3497   -8.0578 C   0  0  0  0  0  0  0  0  0  0  0  0
  -20.5465  -38.8028   -7.1700 C   0  0  0  0  0  0  0  0  0  0  0  0
  -20.4159  -38.1868   -5.8969 C   0  0  0  0  0  0  0  0  0  0  0  0
  -21.2972  -38.3872   -4.8743 C   0  0  0  0  0  0  0  0  0  0  0  0
  -22.3283  -39.2344   -5.1661 C   0  0  0  0  0  0  0  0  0  0  0  0
  -22.5064  -39.8776   -6.4217 C   0  0  0  0  0  0  0  0  0  0  0  0
  -23.7380  -40.7045   -6.3729 C   0  0  0  0  0  0  0  0  0  0  0  0
  -23.6511  -42.1421   -6.7282 C   0  0  0  0  0  0  0  0  0  0  0  0
  -23.4382  -43.0966   -5.5991 C   0  0  0  0  0  0  0  0  0  0  0  0
  -22.9980  -44.4563   -6.0053 C   0  0  0  0  0  0  0  0  0  0  0  0
  -22.1225  -44.4694   -7.1584 N   0  0  0  0  0  0  0  0  0  0  0  0
  -22.8011  -45.1523   -8.3212 C   0  0  0  0  0  0  0  0  0  0  0  0
  -20.7874  -43.9745   -7.3171 C   0  0  0  0  0  0  0  0  0  0  0  0
  -20.0616  -44.8906   -8.1362 C   0  0  0  0  0  0  0  0  0  0  0  0
  -18.7583  -44.7197   -8.4926 C   0  0  0  0  0  0  0  0  0  0  0  0
  -18.1543  -43.5905   -8.0130 C   0  0  0  0  0  0  0  0  0  0  0  0
  -18.8249  -42.6401   -7.1943 C   0  0  0  0  0  0  0  0  0  0  0  0
  -20.1550  -42.8424   -6.8474 C   0  0  0  0  0  0  0  0  0  0  0  0
  -17.8865  -41.5483   -6.8807 C   0  0  0  0  0  0  0  0  0  0  0  0
  -16.7203  -41.9727   -6.4390 O   0  0  0  0  0  0  0  0  0  0  0  0
  -18.0491  -40.1206   -6.9841 N   0  0  0  0  0  0  0  0  0  0  0  0
  -21.5973  -39.6537   -7.4316 C   0  0  0  0  0  0  0  0  0  0  0  0
  -13.7327  -37.9207  -10.9680 C   0  0  0  0  0  0  0  0  0  0  0  0
  1  2  1  0
  2  3  1  0
  2  4  1  0
  4  5  2  0
  5  6  1  0
  6  7  2  0
  7  8  1  0
  8  9  1  0
  9 10  1  0
 10 11  1  0
 11 12  1  0
 12 13  1  6
 12 14  1  0
 14 15  1  1
 15 16  1  0
 16 17  1  0
 17 18  2  0
 18 19  1  0
 19 20  2  0
 20 21  1  0
 21 22  1  0
 22 23  1  0
 23 24  1  0
 24 25  1  0
 25 26  1  0
 25 27  1  0
 27 28  1  0
 28 29  2  0
 29 30  1  0
 30 31  2  0
 31 32  1  0
 31 33  1  0
 33 34  2  0
 33 35  1  0
 20 36  1  0
  8 37  2  0
 32 27  2  0
 35 14  1  0
 36 16  2  0
 37  4  1  0
M  END
$$$$
