
     RDKit          3D

 37 40  0  0  0  0  0  0  0  0999 V2000
  -21.5066  -41.8009    0.2939 C   0  0  0  0  0  0  0  0  0  0  0  0
  -21.0847  -42.6002   -0.9015 C   0  0  0  0  0  0  0  0  0  0  0  0
  -22.0781  -43.7050   -1.2006 C   0  0  0  0  0  0  0  0  0  0  0  0
  -20.9034  -41.6888   -2.0521 C   0  0  0  0  0  0  0  0  0  0  0  0
  -21.9379  -41.4834   -2.9114 C   0  0  0  0  0  0  0  0  0  0  0  0
  -21.7710  -40.6275   -3.9786 C   0  0  0  0  0  0  0  0  0  0  0  0
  -20.5455  -39.9810   -4.1726 C   0  0  0  0  0  0  0  0  0  0  0  0
  -19.5020  -40.1815   -3.3169 C   0  0  0  0  0  0  0  0  0  0  0  0
  -18.2153  -39.5134   -3.4921 C   0  0  0  0  0  0  0  0  0  0  0  0
  -17.7210  -39.4991   -4.8208 N   0  0  0  0  0  0  0  0  0  0  0  0
  -17.9892  -38.3983   -5.6447 C   0  0  0  0  0  0  0  0  0  0  0  0
  -17.2536  -38.2527   -6.9250 C   0  0  1  0  0  0  0  0  0  0  0  0
  -15.9609  -38.7038   -6.8049 O   0  0  0  0  0  0  0  0  0  0  0  0
  -17.9911  -38.8865   -8.1293 C   0  0  2  0  0  0  0  0  0  0  0  0
  -17.2335  -38.4196   -9.3590 C   0  0  0  0  0  0  0  0  0  0  0  0
  -18.0664  -38.3799  -10.6060 C   0  0  0  0  0  0  0  0  0  0  0  0
  -18.5034  -37.0483  -10.8368 C   0  0  0  0  0  0  0  0  0  0  0  0
  -19.2675  -36.6861  -11.9080 C   0  0  0  0  0  0  0  0  0  0  0  0
  -19.5869  -37.7097  -12.7544 C   0  0  0  0  0  0  0  0  0  0  0  0
  -19.1772  -39.0589  -12.5710 C   0  0  0  0  0  0  0  0  0  0  0  0
  -19.6965  -39.8805  -13.6927 C   0  0  0  0  0  0  0  0  0  0  0  0
  -20.5018  -41.0876  -13.3848 C   0  0  0  0  0  0  0  0  0  0  0  0
  -21.9844  -40.9090  -13.3481 C   0  0  0  0  0  0  0  0  0  0  0  0
  -22.7307  -42.0148  -12.6941 C   0  0  0  0  0  0  0  0  0  0  0  0
  -22.0313  -42.6143  -11.5771 N   0  0  0  0  0  0  0  0  0  0  0  0
  -21.6682  -44.0446  -11.8956 C   0  0  0  0  0  0  0  0  0  0  0  0
  -21.6865  -42.0712  -10.2970 C   0  0  0  0  0  0  0  0  0  0  0  0
  -21.8555  -43.0920   -9.3140 C   0  0  0  0  0  0  0  0  0  0  0  0
  -21.6070  -42.9142   -7.9868 C   0  0  0  0  0  0  0  0  0  0  0  0
  -21.1730  -41.6690   -7.6249 C   0  0  0  0  0  0  0  0  0  0  0  0
  -20.9840  -40.6120   -8.5579 C   0  0  0  0  0  0  0  0  0  0  0  0
  -21.2462  -40.8240   -9.9057 C   0  0  0  0  0  0  0  0  0  0  0  0
  -20.4941  -39.4281   -7.8302 C   0  0  0  0  0  0  0  0  0  0  0  0
  -21.2099  -39.1378   -6.7632 O   0  0  0  0  0  0  0  0  0  0  0  0
  -19.3753  -38.5627   -8.1037 N   0  0  0  0  0  0  0  0  0  0  0  0
  -18.4073  -39.3897  -11.4781 C   0  0  0  0  0  0  0  0  0  0  0  0
  -19.6923  -41.0438   -2.2512 C   0  0  0  0  0  0  0  0  0  0  0  0
  1  2  1  0
  2  3  1  0
  2  4  1  0
  4  5  2  0
  5  6  1  0
  6  7  2  0
  7  8  1  0
  8  9  1  0
  9 10  1  0
 10 11  1  0
 11 12  1  0
 12 13  1  1
 12 14  1  0
 14 15  1  6
 15 16  1  0
 16 17  1  0
 17 18  2  0
 18 19  1  0
 19 20  2  0
 20 21  1  0
 21 22  1  0
 22 23  1  0
 23 24  1  0
 24 25  1  0
 25 26  1  0
 25 27  1  0
 27 28  1  0
 28 29  2  0
 29 30  1  0
 30 31  2  0
 31 32  1  0
 31 33  1  0
 33 34  2  0
 33 35  1  0
 20 36  1  0
  8 37  2  0
 32 27  2  0
 35 14  1  0
 36 16  2  0
 37  4  1  0
M  END
$$$$
