
     RDKit          3D

 37 40  0  0  0  0  0  0  0  0999 V2000
  -12.2217  -33.0250  -11.6346 C   0  0  0  0  0  0  0  0  0  0  0  0
  -13.3689  -33.8354  -11.1123 C   0  0  0  0  0  0  0  0  0  0  0  0
  -14.6623  -33.4694  -11.8123 C   0  0  0  0  0  0  0  0  0  0  0  0
  -13.0481  -35.2724  -11.2524 C   0  0  0  0  0  0  0  0  0  0  0  0
  -12.3745  -35.7024  -12.3533 C   0  0  0  0  0  0  0  0  0  0  0  0
  -12.0684  -37.0404  -12.4793 C   0  0  0  0  0  0  0  0  0  0  0  0
  -12.4524  -37.9433  -11.4819 C   0  0  0  0  0  0  0  0  0  0  0  0
  -13.1291  -37.5216  -10.3748 C   0  0  0  0  0  0  0  0  0  0  0  0
  -13.5346  -38.4417   -9.3158 C   0  0  0  0  0  0  0  0  0  0  0  0
  -14.5115  -39.3980   -9.6913 N   0  0  0  0  0  0  0  0  0  0  0  0
  -15.4732  -39.8049   -8.7574 C   0  0  0  0  0  0  0  0  0  0  0  0
  -16.5683  -38.8739   -8.3895 C   0  0  1  0  0  0  0  0  0  0  0  0
  -16.7202  -37.8917   -9.3388 O   0  0  0  0  0  0  0  0  0  0  0  0
  -17.8998  -39.5937   -8.0659 C   0  0  2  0  0  0  0  0  0  0  0  0
  -18.9622  -38.5099   -8.0905 C   0  0  0  0  0  0  0  0  0  0  0  0
  -20.1609  -38.8157   -7.2420 C   0  0  0  0  0  0  0  0  0  0  0  0
  -20.0409  -38.1400   -5.9985 C   0  0  0  0  0  0  0  0  0  0  0  0
  -20.9858  -38.2065   -5.0160 C   0  0  0  0  0  0  0  0  0  0  0  0
  -22.0705  -38.9803   -5.3177 C   0  0  0  0  0  0  0  0  0  0  0  0
  -22.2409  -39.6781   -6.5448 C   0  0  0  0  0  0  0  0  0  0  0  0
  -23.5401  -40.3952   -6.5189 C   0  0  0  0  0  0  0  0  0  0  0  0
  -23.5602  -41.8532   -6.7914 C   0  0  0  0  0  0  0  0  0  0  0  0
  -23.4867  -42.7551   -5.6028 C   0  0  0  0  0  0  0  0  0  0  0  0
  -23.1459  -44.1680   -5.9111 C   0  0  0  0  0  0  0  0  0  0  0  0
  -22.2187  -44.3209   -7.0125 N   0  0  0  0  0  0  0  0  0  0  0  0
  -22.8952  -45.0111   -8.1723 C   0  0  0  0  0  0  0  0  0  0  0  0
  -20.8396  -43.9491   -7.1247 C   0  0  0  0  0  0  0  0  0  0  0  0
  -20.1559  -44.9685   -7.8528 C   0  0  0  0  0  0  0  0  0  0  0  0
  -18.8266  -44.9278   -8.1465 C   0  0  0  0  0  0  0  0  0  0  0  0
  -18.1519  -43.8271   -7.6960 C   0  0  0  0  0  0  0  0  0  0  0  0
  -18.7778  -42.7782   -6.9670 C   0  0  0  0  0  0  0  0  0  0  0  0
  -20.1360  -42.8483   -6.6826 C   0  0  0  0  0  0  0  0  0  0  0  0
  -17.7654  -41.7520   -6.6618 C   0  0  0  0  0  0  0  0  0  0  0  0
  -16.6635  -42.2460   -6.1352 O   0  0  0  0  0  0  0  0  0  0  0  0
  -17.7988  -40.3242   -6.8502 N   0  0  0  0  0  0  0  0  0  0  0  0
  -21.2669  -39.5897   -7.5144 C   0  0  0  0  0  0  0  0  0  0  0  0
  -13.4246  -36.1736  -10.2683 C   0  0  0  0  0  0  0  0  0  0  0  0
  1  2  1  0
  2  3  1  0
  2  4  1  0
  4  5  2  0
  5  6  1  0
  6  7  2  0
  7  8  1  0
  8  9  1  0
  9 10  1  0
 10 11  1  0
 11 12  1  0
 12 13  1  6
 12 14  1  0
 14 15  1  1
 15 16  1  0
 16 17  1  0
 17 18  2  0
 18 19  1  0
 19 20  2  0
 20 21  1  0
 21 22  1  0
 22 23  1  0
 23 24  1  0
 24 25  1  0
 25 26  1  0
 25 27  1  0
 27 28  1  0
 28 29  2  0
 29 30  1  0
 30 31  2  0
 31 32  1  0
 31 33  1  0
 33 34  2  0
 33 35  1  0
 20 36  1  0
  8 37  2  0
 32 27  2  0
 35 14  1  0
 36 16  2  0
 37  4  1  0
M  END
$$$$
