
     RDKit          3D

 37 40  0  0  0  0  0  0  0  0999 V2000
  -12.2525  -35.6245  -12.9535 C   0  0  0  0  0  0  0  0  0  0  0  0
  -11.2328  -36.4461  -12.2247 C   0  0  0  0  0  0  0  0  0  0  0  0
  -10.6490  -35.6822  -11.0532 C   0  0  0  0  0  0  0  0  0  0  0  0
  -11.8520  -37.7217  -11.8039 C   0  0  0  0  0  0  0  0  0  0  0  0
  -12.0806  -38.6912  -12.7304 C   0  0  0  0  0  0  0  0  0  0  0  0
  -12.6499  -39.8829  -12.3361 C   0  0  0  0  0  0  0  0  0  0  0  0
  -12.9898  -40.0862  -10.9943 C   0  0  0  0  0  0  0  0  0  0  0  0
  -12.7654  -39.1194  -10.0581 C   0  0  0  0  0  0  0  0  0  0  0  0
  -13.1035  -39.3091   -8.6502 C   0  0  0  0  0  0  0  0  0  0  0  0
  -14.4083  -39.8072   -8.4069 N   0  0  0  0  0  0  0  0  0  0  0  0
  -15.4576  -38.9086   -8.1743 C   0  0  0  0  0  0  0  0  0  0  0  0
  -16.5424  -38.7825   -9.1786 C   0  0  1  0  0  0  0  0  0  0  0  0
  -16.1354  -39.2499  -10.4053 O   0  0  0  0  0  0  0  0  0  0  0  0
  -17.8779  -39.4155   -8.7186 C   0  0  2  0  0  0  0  0  0  0  0  0
  -18.9100  -38.3080   -8.8292 C   0  0  0  0  0  0  0  0  0  0  0  0
  -20.0784  -38.4727   -7.9030 C   0  0  0  0  0  0  0  0  0  0  0  0
  -19.8857  -37.6597   -6.7544 C   0  0  0  0  0  0  0  0  0  0  0  0
  -20.7883  -37.5795   -5.7339 C   0  0  0  0  0  0  0  0  0  0  0  0
  -21.9060  -38.3475   -5.8978 C   0  0  0  0  0  0  0  0  0  0  0  0
  -22.1491  -39.1788   -7.0255 C   0  0  0  0  0  0  0  0  0  0  0  0
  -23.4653  -39.8451   -6.8625 C   0  0  0  0  0  0  0  0  0  0  0  0
  -23.5376  -41.3236   -6.9587 C   0  0  0  0  0  0  0  0  0  0  0  0
  -23.4372  -42.0814   -5.6754 C   0  0  0  0  0  0  0  0  0  0  0  0
  -23.1494  -43.5312   -5.8270 C   0  0  0  0  0  0  0  0  0  0  0  0
  -22.2757  -43.8427   -6.9388 N   0  0  0  0  0  0  0  0  0  0  0  0
  -23.0210  -44.6420   -7.9802 C   0  0  0  0  0  0  0  0  0  0  0  0
  -20.8931  -43.5319   -7.1495 C   0  0  0  0  0  0  0  0  0  0  0  0
  -20.2703  -44.6515   -7.7782 C   0  0  0  0  0  0  0  0  0  0  0  0
  -18.9545  -44.6890   -8.1276 C   0  0  0  0  0  0  0  0  0  0  0  0
  -18.2305  -43.5656   -7.8385 C   0  0  0  0  0  0  0  0  0  0  0  0
  -18.7948  -42.4184   -7.2148 C   0  0  0  0  0  0  0  0  0  0  0  0
  -20.1406  -42.4103   -6.8699 C   0  0  0  0  0  0  0  0  0  0  0  0
  -17.7420  -41.3970   -7.0745 C   0  0  0  0  0  0  0  0  0  0  0  0
  -16.6323  -41.8613   -6.5376 O   0  0  0  0  0  0  0  0  0  0  0  0
  -17.7442  -40.0009   -7.4298 N   0  0  0  0  0  0  0  0  0  0  0  0
  -21.2163  -39.2368   -8.0369 C   0  0  0  0  0  0  0  0  0  0  0  0
  -12.1914  -37.9313  -10.4760 C   0  0  0  0  0  0  0  0  0  0  0  0
  1  2  1  0
  2  3  1  0
  2  4  1  0
  4  5  2  0
  5  6  1  0
  6  7  2  0
  7  8  1  0
  8  9  1  0
  9 10  1  0
 10 11  1  0
 11 12  1  0
 12 13  1  6
 12 14  1  0
 14 15  1  1
 15 16  1  0
 16 17  1  0
 17 18  2  0
 18 19  1  0
 19 20  2  0
 20 21  1  0
 21 22  1  0
 22 23  1  0
 23 24  1  0
 24 25  1  0
 25 26  1  0
 25 27  1  0
 27 28  1  0
 28 29  2  0
 29 30  1  0
 30 31  2  0
 31 32  1  0
 31 33  1  0
 33 34  2  0
 33 35  1  0
 20 36  1  0
  8 37  2  0
 32 27  2  0
 35 14  1  0
 36 16  2  0
 37  4  1  0
M  END
$$$$
