
     RDKit          3D

 37 40  0  0  0  0  0  0  0  0999 V2000
  -15.8505  -35.9070  -11.5404 C   0  0  0  0  0  0  0  0  0  0  0  0
  -14.6584  -35.6595  -12.4140 C   0  0  0  0  0  0  0  0  0  0  0  0
  -14.0398  -34.3061  -12.1266 C   0  0  0  0  0  0  0  0  0  0  0  0
  -13.6903  -36.7631  -12.2336 C   0  0  0  0  0  0  0  0  0  0  0  0
  -12.7407  -36.9809  -13.1830 C   0  0  0  0  0  0  0  0  0  0  0  0
  -11.8337  -38.0041  -13.0103 C   0  0  0  0  0  0  0  0  0  0  0  0
  -11.8962  -38.8096  -11.8681 C   0  0  0  0  0  0  0  0  0  0  0  0
  -12.8456  -38.5996  -10.9111 C   0  0  0  0  0  0  0  0  0  0  0  0
  -12.9279  -39.4207   -9.7063 C   0  0  0  0  0  0  0  0  0  0  0  0
  -13.8891  -40.4618   -9.7524 N   0  0  0  0  0  0  0  0  0  0  0  0
  -14.9235  -40.4880   -8.8081 C   0  0  0  0  0  0  0  0  0  0  0  0
  -15.9030  -39.3742   -8.7723 C   0  0  1  0  0  0  0  0  0  0  0  0
  -15.8545  -38.6375   -9.9316 O   0  0  0  0  0  0  0  0  0  0  0  0
  -17.3394  -39.8341   -8.4243 C   0  0  2  0  0  0  0  0  0  0  0  0
  -18.2327  -38.6499   -8.7459 C   0  0  0  0  0  0  0  0  0  0  0  0
  -19.5067  -38.6182   -7.9546 C   0  0  0  0  0  0  0  0  0  0  0  0
  -19.3584  -37.7243   -6.8609 C   0  0  0  0  0  0  0  0  0  0  0  0
  -20.3546  -37.4661   -5.9645 C   0  0  0  0  0  0  0  0  0  0  0  0
  -21.5210  -38.1379   -6.1971 C   0  0  0  0  0  0  0  0  0  0  0  0
  -21.7233  -39.0433   -7.2747 C   0  0  0  0  0  0  0  0  0  0  0  0
  -23.1114  -39.5656   -7.2156 C   0  0  0  0  0  0  0  0  0  0  0  0
  -23.3254  -41.0334   -7.1997 C   0  0  0  0  0  0  0  0  0  0  0  0
  -23.4459  -41.6756   -5.8564 C   0  0  0  0  0  0  0  0  0  0  0  0
  -23.2949  -43.1537   -5.8549 C   0  0  0  0  0  0  0  0  0  0  0  0
  -22.3411  -43.6469   -6.8263 N   0  0  0  0  0  0  0  0  0  0  0  0
  -23.0461  -44.4656   -7.8806 C   0  0  0  0  0  0  0  0  0  0  0  0
  -20.9191  -43.4876   -6.8960 C   0  0  0  0  0  0  0  0  0  0  0  0
  -20.3502  -44.7139   -7.3536 C   0  0  0  0  0  0  0  0  0  0  0  0
  -19.0150  -44.9065   -7.5402 C   0  0  0  0  0  0  0  0  0  0  0  0
  -18.2148  -43.8339   -7.2592 C   0  0  0  0  0  0  0  0  0  0  0  0
  -18.7223  -42.5863   -6.8018 C   0  0  0  0  0  0  0  0  0  0  0  0
  -20.0898  -42.4204   -6.6208 C   0  0  0  0  0  0  0  0  0  0  0  0
  -17.5912  -41.6594   -6.6207 C   0  0  0  0  0  0  0  0  0  0  0  0
  -16.6015  -42.1740   -5.9201 O   0  0  0  0  0  0  0  0  0  0  0  0
  -17.4097  -40.3080   -7.0856 N   0  0  0  0  0  0  0  0  0  0  0  0
  -20.6959  -39.2816   -8.1603 C   0  0  0  0  0  0  0  0  0  0  0  0
  -13.7451  -37.5656  -11.1043 C   0  0  0  0  0  0  0  0  0  0  0  0
  1  2  1  0
  2  3  1  0
  2  4  1  0
  4  5  2  0
  5  6  1  0
  6  7  2  0
  7  8  1  0
  8  9  1  0
  9 10  1  0
 10 11  1  0
 11 12  1  0
 12 13  1  6
 12 14  1  0
 14 15  1  1
 15 16  1  0
 16 17  1  0
 17 18  2  0
 18 19  1  0
 19 20  2  0
 20 21  1  0
 21 22  1  0
 22 23  1  0
 23 24  1  0
 24 25  1  0
 25 26  1  0
 25 27  1  0
 27 28  1  0
 28 29  2  0
 29 30  1  0
 30 31  2  0
 31 32  1  0
 31 33  1  0
 33 34  2  0
 33 35  1  0
 20 36  1  0
  8 37  2  0
 32 27  2  0
 35 14  1  0
 36 16  2  0
 37  4  1  0
M  END
$$$$
