
     RDKit          3D

 37 40  0  0  0  0  0  0  0  0999 V2000
  -13.0095  -36.2457  -12.4975 C   0  0  0  0  0  0  0  0  0  0  0  0
  -12.1029  -37.3167  -13.0237 C   0  0  0  0  0  0  0  0  0  0  0  0
  -10.6519  -37.0071  -12.7148 C   0  0  0  0  0  0  0  0  0  0  0  0
  -12.5238  -38.6212  -12.4682 C   0  0  0  0  0  0  0  0  0  0  0  0
  -12.7084  -39.6763  -13.3068 C   0  0  0  0  0  0  0  0  0  0  0  0
  -13.0924  -40.8939  -12.7876 C   0  0  0  0  0  0  0  0  0  0  0  0
  -13.2917  -41.0361  -11.4101 C   0  0  0  0  0  0  0  0  0  0  0  0
  -13.1101  -39.9834  -10.5614 C   0  0  0  0  0  0  0  0  0  0  0  0
  -13.3039  -40.1070   -9.1192 C   0  0  0  0  0  0  0  0  0  0  0  0
  -14.6556  -40.1063   -8.6917 N   0  0  0  0  0  0  0  0  0  0  0  0
  -15.5864  -39.2912   -9.3486 C   0  0  0  0  0  0  0  0  0  0  0  0
  -16.5593  -38.5080   -8.5477 C   0  0  1  0  0  0  0  0  0  0  0  0
  -16.7159  -37.2430   -9.0617 O   0  0  0  0  0  0  0  0  0  0  0  0
  -17.9107  -39.2351   -8.3457 C   0  0  2  0  0  0  0  0  0  0  0  0
  -18.9735  -38.1607   -8.4873 C   0  0  0  0  0  0  0  0  0  0  0  0
  -20.2467  -38.4665   -7.7553 C   0  0  0  0  0  0  0  0  0  0  0  0
  -20.2532  -37.7748   -6.5149 C   0  0  0  0  0  0  0  0  0  0  0  0
  -21.2886  -37.8375   -5.6280 C   0  0  0  0  0  0  0  0  0  0  0  0
  -22.3331  -38.6240   -6.0236 C   0  0  0  0  0  0  0  0  0  0  0  0
  -22.3784  -39.3380   -7.2524 C   0  0  0  0  0  0  0  0  0  0  0  0
  -23.6687  -40.0657   -7.3436 C   0  0  0  0  0  0  0  0  0  0  0  0
  -23.6516  -41.5271   -7.5980 C   0  0  0  0  0  0  0  0  0  0  0  0
  -23.6874  -42.4138   -6.3964 C   0  0  0  0  0  0  0  0  0  0  0  0
  -23.3080  -43.8275   -6.6520 C   0  0  0  0  0  0  0  0  0  0  0  0
  -22.2769  -43.9858   -7.6561 N   0  0  0  0  0  0  0  0  0  0  0  0
  -22.8325  -44.6957   -8.8671 C   0  0  0  0  0  0  0  0  0  0  0  0
  -20.8963  -43.6037   -7.6386 C   0  0  0  0  0  0  0  0  0  0  0  0
  -20.1376  -44.6259   -8.2837 C   0  0  0  0  0  0  0  0  0  0  0  0
  -18.7864  -44.5775   -8.4474 C   0  0  0  0  0  0  0  0  0  0  0  0
  -18.1667  -43.4657   -7.9477 C   0  0  0  0  0  0  0  0  0  0  0  0
  -18.8681  -42.4134   -7.2965 C   0  0  0  0  0  0  0  0  0  0  0  0
  -20.2469  -42.4917   -7.1445 C   0  0  0  0  0  0  0  0  0  0  0  0
  -17.8977  -41.3751   -6.9076 C   0  0  0  0  0  0  0  0  0  0  0  0
  -16.8486  -41.8533   -6.2702 O   0  0  0  0  0  0  0  0  0  0  0  0
  -17.9230  -39.9500   -7.1167 N   0  0  0  0  0  0  0  0  0  0  0  0
  -21.3154  -39.2531   -8.1239 C   0  0  0  0  0  0  0  0  0  0  0  0
  -12.7229  -38.7706  -11.1042 C   0  0  0  0  0  0  0  0  0  0  0  0
  1  2  1  0
  2  3  1  0
  2  4  1  0
  4  5  2  0
  5  6  1  0
  6  7  2  0
  7  8  1  0
  8  9  1  0
  9 10  1  0
 10 11  1  0
 11 12  1  0
 12 13  1  6
 12 14  1  0
 14 15  1  1
 15 16  1  0
 16 17  1  0
 17 18  2  0
 18 19  1  0
 19 20  2  0
 20 21  1  0
 21 22  1  0
 22 23  1  0
 23 24  1  0
 24 25  1  0
 25 26  1  0
 25 27  1  0
 27 28  1  0
 28 29  2  0
 29 30  1  0
 30 31  2  0
 31 32  1  0
 31 33  1  0
 33 34  2  0
 33 35  1  0
 20 36  1  0
  8 37  2  0
 32 27  2  0
 35 14  1  0
 36 16  2  0
 37  4  1  0
M  END
$$$$
