
     RDKit          3D

 37 40  0  0  0  0  0  0  0  0999 V2000
  -13.5658  -35.2980  -11.8439 C   0  0  0  0  0  0  0  0  0  0  0  0
  -12.5558  -36.1558  -12.5438 C   0  0  0  0  0  0  0  0  0  0  0  0
  -11.1426  -35.7303  -12.1996 C   0  0  0  0  0  0  0  0  0  0  0  0
  -12.8082  -37.5731  -12.2045 C   0  0  0  0  0  0  0  0  0  0  0  0
  -12.9854  -38.4782  -13.2044 C   0  0  0  0  0  0  0  0  0  0  0  0
  -13.2122  -39.8003  -12.8877 C   0  0  0  0  0  0  0  0  0  0  0  0
  -13.2614  -40.2007  -11.5481 C   0  0  0  0  0  0  0  0  0  0  0  0
  -13.0859  -39.3000  -10.5384 C   0  0  0  0  0  0  0  0  0  0  0  0
  -13.1248  -39.6930   -9.1325 C   0  0  0  0  0  0  0  0  0  0  0  0
  -14.4107  -39.6675   -8.5362 N   0  0  0  0  0  0  0  0  0  0  0  0
  -15.4888  -39.1210   -9.2445 C   0  0  0  0  0  0  0  0  0  0  0  0
  -16.5354  -38.3696   -8.5087 C   0  0  1  0  0  0  0  0  0  0  0  0
  -16.7805  -37.1551   -9.1036 O   0  0  0  0  0  0  0  0  0  0  0  0
  -17.8295  -39.1878   -8.2810 C   0  0  2  0  0  0  0  0  0  0  0  0
  -18.9519  -38.1668   -8.2399 C   0  0  0  0  0  0  0  0  0  0  0  0
  -20.1478  -38.6111   -7.4508 C   0  0  0  0  0  0  0  0  0  0  0  0
  -20.0922  -38.0397   -6.1517 C   0  0  0  0  0  0  0  0  0  0  0  0
  -21.0513  -38.2434   -5.2025 C   0  0  0  0  0  0  0  0  0  0  0  0
  -22.0832  -39.0475   -5.5960 C   0  0  0  0  0  0  0  0  0  0  0  0
  -22.1883  -39.6450   -6.8819 C   0  0  0  0  0  0  0  0  0  0  0  0
  -23.4442  -40.4330   -6.9497 C   0  0  0  0  0  0  0  0  0  0  0  0
  -23.3747  -41.8608   -7.3457 C   0  0  0  0  0  0  0  0  0  0  0  0
  -23.2733  -42.8565   -6.2368 C   0  0  0  0  0  0  0  0  0  0  0  0
  -22.8454  -44.2164   -6.6556 C   0  0  0  0  0  0  0  0  0  0  0  0
  -21.8888  -44.2216   -7.7425 N   0  0  0  0  0  0  0  0  0  0  0  0
  -22.5009  -44.8457   -8.9733 C   0  0  0  0  0  0  0  0  0  0  0  0
  -20.5316  -43.7653   -7.7880 C   0  0  0  0  0  0  0  0  0  0  0  0
  -19.7756  -44.6782   -8.5829 C   0  0  0  0  0  0  0  0  0  0  0  0
  -18.4453  -44.5383   -8.8386 C   0  0  0  0  0  0  0  0  0  0  0  0
  -17.8444  -43.4447   -8.2792 C   0  0  0  0  0  0  0  0  0  0  0  0
  -18.5443  -42.4992   -7.4796 C   0  0  0  0  0  0  0  0  0  0  0  0
  -19.9016  -42.6693   -7.2363 C   0  0  0  0  0  0  0  0  0  0  0  0
  -17.5991  -41.4485   -7.0628 C   0  0  0  0  0  0  0  0  0  0  0  0
  -16.4815  -41.9239   -6.5528 O   0  0  0  0  0  0  0  0  0  0  0  0
  -17.7111  -40.0138   -7.1298 N   0  0  0  0  0  0  0  0  0  0  0  0
  -21.2016  -39.4191   -7.8158 C   0  0  0  0  0  0  0  0  0  0  0  0
  -12.8580  -37.9782  -10.8795 C   0  0  0  0  0  0  0  0  0  0  0  0
  1  2  1  0
  2  3  1  0
  2  4  1  0
  4  5  2  0
  5  6  1  0
  6  7  2  0
  7  8  1  0
  8  9  1  0
  9 10  1  0
 10 11  1  0
 11 12  1  0
 12 13  1  6
 12 14  1  0
 14 15  1  1
 15 16  1  0
 16 17  1  0
 17 18  2  0
 18 19  1  0
 19 20  2  0
 20 21  1  0
 21 22  1  0
 22 23  1  0
 23 24  1  0
 24 25  1  0
 25 26  1  0
 25 27  1  0
 27 28  1  0
 28 29  2  0
 29 30  1  0
 30 31  2  0
 31 32  1  0
 31 33  1  0
 33 34  2  0
 33 35  1  0
 20 36  1  0
  8 37  2  0
 32 27  2  0
 35 14  1  0
 36 16  2  0
 37  4  1  0
M  END
$$$$
