
     RDKit          3D

 37 40  0  0  0  0  0  0  0  0999 V2000
  -13.8202  -35.7220  -12.6802 C   0  0  0  0  0  0  0  0  0  0  0  0
  -13.4014  -36.7782  -13.6573 C   0  0  0  0  0  0  0  0  0  0  0  0
  -12.0192  -36.4958  -14.2108 C   0  0  0  0  0  0  0  0  0  0  0  0
  -13.4778  -38.1011  -13.0003 C   0  0  0  0  0  0  0  0  0  0  0  0
  -13.7749  -39.2005  -13.7443 C   0  0  0  0  0  0  0  0  0  0  0  0
  -13.8377  -40.4342  -13.1330 C   0  0  0  0  0  0  0  0  0  0  0  0
  -13.5997  -40.5476  -11.7590 C   0  0  0  0  0  0  0  0  0  0  0  0
  -13.3022  -39.4506  -11.0044 C   0  0  0  0  0  0  0  0  0  0  0  0
  -13.0420  -39.5425   -9.5704 C   0  0  0  0  0  0  0  0  0  0  0  0
  -14.1694  -39.8662   -8.7741 N   0  0  0  0  0  0  0  0  0  0  0  0
  -15.4223  -39.3330   -9.1031 C   0  0  0  0  0  0  0  0  0  0  0  0
  -16.2935  -38.8053   -8.0243 C   0  0  1  0  0  0  0  0  0  0  0  0
  -16.4225  -37.4402   -8.1181 O   0  0  0  0  0  0  0  0  0  0  0  0
  -17.6619  -39.5234   -7.9371 C   0  0  2  0  0  0  0  0  0  0  0  0
  -18.7002  -38.4503   -8.2095 C   0  0  0  0  0  0  0  0  0  0  0  0
  -20.0405  -38.7337   -7.5983 C   0  0  0  0  0  0  0  0  0  0  0  0
  -20.1648  -38.0101   -6.3824 C   0  0  0  0  0  0  0  0  0  0  0  0
  -21.2823  -38.0472   -5.6000 C   0  0  0  0  0  0  0  0  0  0  0  0
  -22.2871  -38.8409   -6.0758 C   0  0  0  0  0  0  0  0  0  0  0  0
  -22.2156  -39.5863   -7.2846 C   0  0  0  0  0  0  0  0  0  0  0  0
  -23.4945  -40.3128   -7.4832 C   0  0  0  0  0  0  0  0  0  0  0  0
  -23.4600  -41.7803   -7.6974 C   0  0  0  0  0  0  0  0  0  0  0  0
  -23.6178  -42.6356   -6.4829 C   0  0  0  0  0  0  0  0  0  0  0  0
  -23.2225  -44.0563   -6.6639 C   0  0  0  0  0  0  0  0  0  0  0  0
  -22.0989  -44.2433   -7.5579 N   0  0  0  0  0  0  0  0  0  0  0  0
  -22.5369  -44.9828   -8.7990 C   0  0  0  0  0  0  0  0  0  0  0  0
  -20.7247  -43.8644   -7.4149 C   0  0  0  0  0  0  0  0  0  0  0  0
  -19.9117  -44.9050   -7.9564 C   0  0  0  0  0  0  0  0  0  0  0  0
  -18.5508  -44.8644   -7.9880 C   0  0  0  0  0  0  0  0  0  0  0  0
  -17.9773  -43.7416   -7.4585 C   0  0  0  0  0  0  0  0  0  0  0  0
  -18.7337  -42.6710   -6.9061 C   0  0  0  0  0  0  0  0  0  0  0  0
  -20.1211  -42.7417   -6.8880 C   0  0  0  0  0  0  0  0  0  0  0  0
  -17.8006  -41.6256   -6.4506 C   0  0  0  0  0  0  0  0  0  0  0  0
  -16.8215  -42.0898   -5.7016 O   0  0  0  0  0  0  0  0  0  0  0  0
  -17.7981  -40.2062   -6.6975 N   0  0  0  0  0  0  0  0  0  0  0  0
  -21.0719  -39.5267   -8.0496 C   0  0  0  0  0  0  0  0  0  0  0  0
  -13.2429  -38.2221  -11.6392 C   0  0  0  0  0  0  0  0  0  0  0  0
  1  2  1  0
  2  3  1  0
  2  4  1  0
  4  5  2  0
  5  6  1  0
  6  7  2  0
  7  8  1  0
  8  9  1  0
  9 10  1  0
 10 11  1  0
 11 12  1  0
 12 13  1  6
 12 14  1  0
 14 15  1  1
 15 16  1  0
 16 17  1  0
 17 18  2  0
 18 19  1  0
 19 20  2  0
 20 21  1  0
 21 22  1  0
 22 23  1  0
 23 24  1  0
 24 25  1  0
 25 26  1  0
 25 27  1  0
 27 28  1  0
 28 29  2  0
 29 30  1  0
 30 31  2  0
 31 32  1  0
 31 33  1  0
 33 34  2  0
 33 35  1  0
 20 36  1  0
  8 37  2  0
 32 27  2  0
 35 14  1  0
 36 16  2  0
 37  4  1  0
M  END
$$$$
