
     RDKit          3D

 37 40  0  0  0  0  0  0  0  0999 V2000
  -10.9275  -38.0549  -14.3419 C   0  0  0  0  0  0  0  0  0  0  0  0
  -10.8741  -36.7000  -13.7037 C   0  0  0  0  0  0  0  0  0  0  0  0
  -10.9110  -35.6011  -14.7466 C   0  0  0  0  0  0  0  0  0  0  0  0
  -11.9817  -36.5808  -12.7307 C   0  0  0  0  0  0  0  0  0  0  0  0
  -12.6668  -35.4093  -12.6384 C   0  0  0  0  0  0  0  0  0  0  0  0
  -13.7043  -35.3015  -11.7375 C   0  0  0  0  0  0  0  0  0  0  0  0
  -14.0427  -36.3899  -10.9261 C   0  0  0  0  0  0  0  0  0  0  0  0
  -13.3606  -37.5685  -11.0107 C   0  0  0  0  0  0  0  0  0  0  0  0
  -13.6985  -38.7219  -10.1812 C   0  0  0  0  0  0  0  0  0  0  0  0
  -14.3719  -38.4163   -8.9717 N   0  0  0  0  0  0  0  0  0  0  0  0
  -15.5544  -39.0950   -8.6500 C   0  0  0  0  0  0  0  0  0  0  0  0
  -16.8572  -38.4060   -8.8213 C   0  0  1  0  0  0  0  0  0  0  0  0
  -16.9378  -37.8031  -10.0537 O   0  0  0  0  0  0  0  0  0  0  0  0
  -18.0738  -39.3172   -8.5287 C   0  0  2  0  0  0  0  0  0  0  0  0
  -19.2952  -38.4397   -8.7337 C   0  0  0  0  0  0  0  0  0  0  0  0
  -20.4964  -38.8788   -7.9496 C   0  0  0  0  0  0  0  0  0  0  0  0
  -20.6005  -38.0937   -6.7706 C   0  0  0  0  0  0  0  0  0  0  0  0
  -21.6040  -38.2430   -5.8578 C   0  0  0  0  0  0  0  0  0  0  0  0
  -22.5140  -39.2151   -6.1628 C   0  0  0  0  0  0  0  0  0  0  0  0
  -22.4573  -40.0293   -7.3272 C   0  0  0  0  0  0  0  0  0  0  0  0
  -23.6163  -40.9564   -7.3280 C   0  0  0  0  0  0  0  0  0  0  0  0
  -23.3696  -42.4130   -7.4613 C   0  0  0  0  0  0  0  0  0  0  0  0
  -23.2522  -43.1888   -6.1902 C   0  0  0  0  0  0  0  0  0  0  0  0
  -22.6554  -44.5416   -6.3369 C   0  0  0  0  0  0  0  0  0  0  0  0
  -21.6222  -44.6203   -7.3483 N   0  0  0  0  0  0  0  0  0  0  0  0
  -22.0697  -45.5094   -8.4833 C   0  0  0  0  0  0  0  0  0  0  0  0
  -20.3197  -44.0254   -7.3944 C   0  0  0  0  0  0  0  0  0  0  0  0
  -19.4146  -44.9664   -7.9705 C   0  0  0  0  0  0  0  0  0  0  0  0
  -18.0900  -44.7198   -8.1689 C   0  0  0  0  0  0  0  0  0  0  0  0
  -17.6500  -43.4858   -7.7771 C   0  0  0  0  0  0  0  0  0  0  0  0
  -18.5033  -42.5056   -7.1988 C   0  0  0  0  0  0  0  0  0  0  0  0
  -19.8506  -42.7870   -7.0089 C   0  0  0  0  0  0  0  0  0  0  0  0
  -17.7065  -41.2981   -6.9196 C   0  0  0  0  0  0  0  0  0  0  0  0
  -16.5886  -41.5489   -6.2695 O   0  0  0  0  0  0  0  0  0  0  0  0
  -17.9602  -39.9178   -7.2449 N   0  0  0  0  0  0  0  0  0  0  0  0
  -21.4299  -39.8524   -8.2271 C   0  0  0  0  0  0  0  0  0  0  0  0
  -12.3237  -37.6549  -11.9233 C   0  0  0  0  0  0  0  0  0  0  0  0
  1  2  1  0
  2  3  1  0
  2  4  1  0
  4  5  2  0
  5  6  1  0
  6  7  2  0
  7  8  1  0
  8  9  1  0
  9 10  1  0
 10 11  1  0
 11 12  1  0
 12 13  1  6
 12 14  1  0
 14 15  1  1
 15 16  1  0
 16 17  1  0
 17 18  2  0
 18 19  1  0
 19 20  2  0
 20 21  1  0
 21 22  1  0
 22 23  1  0
 23 24  1  0
 24 25  1  0
 25 26  1  0
 25 27  1  0
 27 28  1  0
 28 29  2  0
 29 30  1  0
 30 31  2  0
 31 32  1  0
 31 33  1  0
 33 34  2  0
 33 35  1  0
 20 36  1  0
  8 37  2  0
 32 27  2  0
 35 14  1  0
 36 16  2  0
 37  4  1  0
M  END
$$$$
