
     RDKit          3D

 37 40  0  0  0  0  0  0  0  0999 V2000
  -20.2317  -37.8794  -11.2656 C   0  0  0  0  0  0  0  0  0  0  0  0
  -19.4060  -37.4631  -12.4449 C   0  0  0  0  0  0  0  0  0  0  0  0
  -20.1259  -36.4215  -13.2777 C   0  0  0  0  0  0  0  0  0  0  0  0
  -18.0912  -36.9823  -11.9680 C   0  0  0  0  0  0  0  0  0  0  0  0
  -17.7408  -35.6836  -12.1711 C   0  0  0  0  0  0  0  0  0  0  0  0
  -16.5189  -35.2340  -11.7190 C   0  0  0  0  0  0  0  0  0  0  0  0
  -15.6502  -36.1110  -11.0605 C   0  0  0  0  0  0  0  0  0  0  0  0
  -15.9923  -37.4154  -10.8532 C   0  0  0  0  0  0  0  0  0  0  0  0
  -15.1076  -38.3493  -10.1622 C   0  0  0  0  0  0  0  0  0  0  0  0
  -15.6959  -39.0420   -9.0741 N   0  0  0  0  0  0  0  0  0  0  0  0
  -16.2328  -38.3156   -8.0033 C   0  0  0  0  0  0  0  0  0  0  0  0
  -16.6340  -39.0324   -6.7677 C   0  0  1  0  0  0  0  0  0  0  0  0
  -16.6500  -38.1823   -5.6878 O   0  0  0  0  0  0  0  0  0  0  0  0
  -17.9583  -39.8191   -6.9199 C   0  0  2  0  0  0  0  0  0  0  0  0
  -19.0619  -38.7979   -6.7124 C   0  0  0  0  0  0  0  0  0  0  0  0
  -20.3480  -39.3872   -6.2134 C   0  0  0  0  0  0  0  0  0  0  0  0
  -20.4345  -39.2039   -4.8077 C   0  0  0  0  0  0  0  0  0  0  0  0
  -21.5003  -39.6183   -4.0627 C   0  0  0  0  0  0  0  0  0  0  0  0
  -22.4919  -40.2308   -4.7752 C   0  0  0  0  0  0  0  0  0  0  0  0
  -22.4565  -40.4405   -6.1811 C   0  0  0  0  0  0  0  0  0  0  0  0
  -23.7082  -41.1177   -6.6025 C   0  0  0  0  0  0  0  0  0  0  0  0
  -23.6153  -42.3802   -7.3757 C   0  0  0  0  0  0  0  0  0  0  0  0
  -23.6587  -43.6492   -6.5888 C   0  0  0  0  0  0  0  0  0  0  0  0
  -23.2063  -44.8572   -7.3262 C   0  0  0  0  0  0  0  0  0  0  0  0
  -22.1303  -44.6047   -8.2617 N   0  0  0  0  0  0  0  0  0  0  0  0
  -22.6051  -44.8311   -9.6767 C   0  0  0  0  0  0  0  0  0  0  0  0
  -20.7700  -44.2188   -8.0311 C   0  0  0  0  0  0  0  0  0  0  0  0
  -19.9413  -44.9088   -8.9659 C   0  0  0  0  0  0  0  0  0  0  0  0
  -18.5882  -44.7666   -9.0279 C   0  0  0  0  0  0  0  0  0  0  0  0
  -18.0393  -43.9021   -8.1217 C   0  0  0  0  0  0  0  0  0  0  0  0
  -18.8125  -43.1849   -7.1672 C   0  0  0  0  0  0  0  0  0  0  0  0
  -20.1914  -43.3513   -7.1284 C   0  0  0  0  0  0  0  0  0  0  0  0
  -17.9058  -42.3381   -6.3722 C   0  0  0  0  0  0  0  0  0  0  0  0
  -16.8624  -42.9894   -5.9007 O   0  0  0  0  0  0  0  0  0  0  0  0
  -17.9870  -40.9379   -6.0430 N   0  0  0  0  0  0  0  0  0  0  0  0
  -21.3648  -40.0104   -6.9021 C   0  0  0  0  0  0  0  0  0  0  0  0
  -17.2247  -37.8449  -11.3141 C   0  0  0  0  0  0  0  0  0  0  0  0
  1  2  1  0
  2  3  1  0
  2  4  1  0
  4  5  2  0
  5  6  1  0
  6  7  2  0
  7  8  1  0
  8  9  1  0
  9 10  1  0
 10 11  1  0
 11 12  1  0
 12 13  1  1
 12 14  1  0
 14 15  1  1
 15 16  1  0
 16 17  1  0
 17 18  2  0
 18 19  1  0
 19 20  2  0
 20 21  1  0
 21 22  1  0
 22 23  1  0
 23 24  1  0
 24 25  1  0
 25 26  1  0
 25 27  1  0
 27 28  1  0
 28 29  2  0
 29 30  1  0
 30 31  2  0
 31 32  1  0
 31 33  1  0
 33 34  2  0
 33 35  1  0
 20 36  1  0
  8 37  2  0
 32 27  2  0
 35 14  1  0
 36 16  2  0
 37  4  1  0
M  END
$$$$
