
     RDKit          3D

 37 40  0  0  0  0  0  0  0  0999 V2000
  -17.7914  -36.5695   -7.5604 C   0  0  0  0  0  0  0  0  0  0  0  0
  -18.5834  -36.3036   -8.8045 C   0  0  0  0  0  0  0  0  0  0  0  0
  -19.0262  -34.8559   -8.8734 C   0  0  0  0  0  0  0  0  0  0  0  0
  -17.7789  -36.6958   -9.9819 C   0  0  0  0  0  0  0  0  0  0  0  0
  -18.0217  -36.1063  -11.1836 C   0  0  0  0  0  0  0  0  0  0  0  0
  -17.2660  -36.4660  -12.2786 C   0  0  0  0  0  0  0  0  0  0  0  0
  -16.2617  -37.4315  -12.1494 C   0  0  0  0  0  0  0  0  0  0  0  0
  -16.0116  -38.0290  -10.9487 C   0  0  0  0  0  0  0  0  0  0  0  0
  -14.9644  -39.0337  -10.7850 C   0  0  0  0  0  0  0  0  0  0  0  0
  -14.8803  -39.6097   -9.4923 N   0  0  0  0  0  0  0  0  0  0  0  0
  -15.8697  -40.5078   -9.0716 C   0  0  0  0  0  0  0  0  0  0  0  0
  -16.8529  -41.0200  -10.0577 C   0  0  1  0  0  0  0  0  0  0  0  0
  -16.3547  -42.1104  -10.7299 O   0  0  0  0  0  0  0  0  0  0  0  0
  -18.2486  -41.2903   -9.4455 C   0  0  2  0  0  0  0  0  0  0  0  0
  -19.1998  -40.3648  -10.1820 C   0  0  0  0  0  0  0  0  0  0  0  0
  -20.4229  -39.9996   -9.3941 C   0  0  0  0  0  0  0  0  0  0  0  0
  -20.2379  -38.7204   -8.8054 C   0  0  0  0  0  0  0  0  0  0  0  0
  -21.1851  -38.1043   -8.0401 C   0  0  0  0  0  0  0  0  0  0  0  0
  -22.3402  -38.8154   -7.8780 C   0  0  0  0  0  0  0  0  0  0  0  0
  -22.5777  -40.0983   -8.4435 C   0  0  0  0  0  0  0  0  0  0  0  0
  -23.9408  -40.5494   -8.0678 C   0  0  0  0  0  0  0  0  0  0  0  0
  -24.1034  -41.8672   -7.4064 C   0  0  0  0  0  0  0  0  0  0  0  0
  -24.1190  -41.8666   -5.9127 C   0  0  0  0  0  0  0  0  0  0  0  0
  -23.9180  -43.1984   -5.2855 C   0  0  0  0  0  0  0  0  0  0  0  0
  -23.0097  -44.0590   -6.0142 N   0  0  0  0  0  0  0  0  0  0  0  0
  -23.7501  -45.2556   -6.5607 C   0  0  0  0  0  0  0  0  0  0  0  0
  -21.6009  -43.9397   -6.2454 C   0  0  0  0  0  0  0  0  0  0  0  0
  -21.0200  -45.2410   -6.1690 C   0  0  0  0  0  0  0  0  0  0  0  0
  -19.6930  -45.4900   -6.3479 C   0  0  0  0  0  0  0  0  0  0  0  0
  -18.9139  -44.3979   -6.6132 C   0  0  0  0  0  0  0  0  0  0  0  0
  -19.4344  -43.0772   -6.7032 C   0  0  0  0  0  0  0  0  0  0  0  0
  -20.7930  -42.8549   -6.5157 C   0  0  0  0  0  0  0  0  0  0  0  0
  -18.3265  -42.1585   -7.0189 C   0  0  0  0  0  0  0  0  0  0  0  0
  -17.2785  -42.3159   -6.2365 O   0  0  0  0  0  0  0  0  0  0  0  0
  -18.2200  -41.1397   -8.0319 N   0  0  0  0  0  0  0  0  0  0  0  0
  -21.5993  -40.6915   -9.2099 C   0  0  0  0  0  0  0  0  0  0  0  0
  -16.7814  -37.6514   -9.8622 C   0  0  0  0  0  0  0  0  0  0  0  0
  1  2  1  0
  2  3  1  0
  2  4  1  0
  4  5  2  0
  5  6  1  0
  6  7  2  0
  7  8  1  0
  8  9  1  0
  9 10  1  0
 10 11  1  0
 11 12  1  0
 12 13  1  1
 12 14  1  0
 14 15  1  6
 15 16  1  0
 16 17  1  0
 17 18  2  0
 18 19  1  0
 19 20  2  0
 20 21  1  0
 21 22  1  0
 22 23  1  0
 23 24  1  0
 24 25  1  0
 25 26  1  0
 25 27  1  0
 27 28  1  0
 28 29  2  0
 29 30  1  0
 30 31  2  0
 31 32  1  0
 31 33  1  0
 33 34  2  0
 33 35  1  0
 20 36  1  0
  8 37  2  0
 32 27  2  0
 35 14  1  0
 36 16  2  0
 37  4  1  0
M  END
$$$$
