
     RDKit          3D

 37 40  0  0  0  0  0  0  0  0999 V2000
  -10.7921  -35.1834  -12.2721 C   0  0  0  0  0  0  0  0  0  0  0  0
  -12.0488  -34.9184  -11.4998 C   0  0  0  0  0  0  0  0  0  0  0  0
  -12.7436  -33.6665  -11.9964 C   0  0  0  0  0  0  0  0  0  0  0  0
  -12.9236  -36.1084  -11.5784 C   0  0  0  0  0  0  0  0  0  0  0  0
  -13.9244  -36.1424  -12.4991 C   0  0  0  0  0  0  0  0  0  0  0  0
  -14.7340  -37.2551  -12.5774 C   0  0  0  0  0  0  0  0  0  0  0  0
  -14.5249  -38.3352  -11.7131 C   0  0  0  0  0  0  0  0  0  0  0  0
  -13.5246  -38.3098  -10.7857 C   0  0  0  0  0  0  0  0  0  0  0  0
  -13.2801  -39.4266   -9.8771 C   0  0  0  0  0  0  0  0  0  0  0  0
  -14.0009  -39.3784   -8.6573 N   0  0  0  0  0  0  0  0  0  0  0  0
  -15.3256  -39.8329   -8.6204 C   0  0  0  0  0  0  0  0  0  0  0  0
  -16.3168  -39.1154   -7.7813 C   0  0  1  0  0  0  0  0  0  0  0  0
  -16.3929  -37.7891   -8.1334 O   0  0  0  0  0  0  0  0  0  0  0  0
  -17.7046  -39.8001   -7.7543 C   0  0  2  0  0  0  0  0  0  0  0  0
  -18.7092  -38.6885   -7.9973 C   0  0  0  0  0  0  0  0  0  0  0  0
  -20.0688  -38.9636   -7.4262 C   0  0  0  0  0  0  0  0  0  0  0  0
  -20.1998  -38.2932   -6.1810 C   0  0  0  0  0  0  0  0  0  0  0  0
  -21.3340  -38.3361   -5.4233 C   0  0  0  0  0  0  0  0  0  0  0  0
  -22.3487  -39.0803   -5.9549 C   0  0  0  0  0  0  0  0  0  0  0  0
  -22.2711  -39.7715   -7.1951 C   0  0  0  0  0  0  0  0  0  0  0  0
  -23.5638  -40.4539   -7.4520 C   0  0  0  0  0  0  0  0  0  0  0  0
  -23.5626  -41.9105   -7.7329 C   0  0  0  0  0  0  0  0  0  0  0  0
  -23.7676  -42.8158   -6.5625 C   0  0  0  0  0  0  0  0  0  0  0  0
  -23.4052  -44.2368   -6.8010 C   0  0  0  0  0  0  0  0  0  0  0  0
  -22.2684  -44.4126   -7.6804 N   0  0  0  0  0  0  0  0  0  0  0  0
  -22.6992  -45.0829   -8.9626 C   0  0  0  0  0  0  0  0  0  0  0  0
  -20.8881  -44.0774   -7.4931 C   0  0  0  0  0  0  0  0  0  0  0  0
  -20.0911  -45.1135   -8.0658 C   0  0  0  0  0  0  0  0  0  0  0  0
  -18.7292  -45.1077   -8.0688 C   0  0  0  0  0  0  0  0  0  0  0  0
  -18.1382  -44.0259   -7.4769 C   0  0  0  0  0  0  0  0  0  0  0  0
  -18.8782  -42.9618   -6.8908 C   0  0  0  0  0  0  0  0  0  0  0  0
  -20.2671  -42.9963   -6.9032 C   0  0  0  0  0  0  0  0  0  0  0  0
  -17.9283  -41.9634   -6.3693 C   0  0  0  0  0  0  0  0  0  0  0  0
  -16.9773  -42.4872   -5.6233 O   0  0  0  0  0  0  0  0  0  0  0  0
  -17.8842  -40.5348   -6.5503 N   0  0  0  0  0  0  0  0  0  0  0  0
  -21.1106  -39.7076   -7.9339 C   0  0  0  0  0  0  0  0  0  0  0  0
  -12.7228  -37.1832  -10.7258 C   0  0  0  0  0  0  0  0  0  0  0  0
  1  2  1  0
  2  3  1  0
  2  4  1  0
  4  5  2  0
  5  6  1  0
  6  7  2  0
  7  8  1  0
  8  9  1  0
  9 10  1  0
 10 11  1  0
 11 12  1  0
 12 13  1  6
 12 14  1  0
 14 15  1  1
 15 16  1  0
 16 17  1  0
 17 18  2  0
 18 19  1  0
 19 20  2  0
 20 21  1  0
 21 22  1  0
 22 23  1  0
 23 24  1  0
 24 25  1  0
 25 26  1  0
 25 27  1  0
 27 28  1  0
 28 29  2  0
 29 30  1  0
 30 31  2  0
 31 32  1  0
 31 33  1  0
 33 34  2  0
 33 35  1  0
 20 36  1  0
  8 37  2  0
 32 27  2  0
 35 14  1  0
 36 16  2  0
 37  4  1  0
M  END
$$$$
