
     RDKit          3D

 37 40  0  0  0  0  0  0  0  0999 V2000
  -13.6233  -35.4019  -12.3918 C   0  0  0  0  0  0  0  0  0  0  0  0
  -12.6642  -36.2875  -13.1277 C   0  0  0  0  0  0  0  0  0  0  0  0
  -11.2295  -35.9684  -12.7582 C   0  0  0  0  0  0  0  0  0  0  0  0
  -13.0072  -37.7006  -12.8571 C   0  0  0  0  0  0  0  0  0  0  0  0
  -13.4614  -38.4841  -13.8721 C   0  0  0  0  0  0  0  0  0  0  0  0
  -13.7728  -39.8031  -13.6211 C   0  0  0  0  0  0  0  0  0  0  0  0
  -13.6237  -40.3244  -12.3314 C   0  0  0  0  0  0  0  0  0  0  0  0
  -13.1700  -39.5460  -11.3069 C   0  0  0  0  0  0  0  0  0  0  0  0
  -12.9979  -40.0673   -9.9536 C   0  0  0  0  0  0  0  0  0  0  0  0
  -13.9448  -39.6039   -9.0057 N   0  0  0  0  0  0  0  0  0  0  0  0
  -15.2661  -39.3698   -9.4082 C   0  0  0  0  0  0  0  0  0  0  0  0
  -16.2119  -38.7305   -8.4606 C   0  0  1  0  0  0  0  0  0  0  0  0
  -16.3308  -37.3851   -8.7149 O   0  0  0  0  0  0  0  0  0  0  0  0
  -17.5846  -39.4426   -8.3932 C   0  0  2  0  0  0  0  0  0  0  0  0
  -18.6169  -38.3542   -8.6249 C   0  0  0  0  0  0  0  0  0  0  0  0
  -19.9569  -38.6499   -8.0189 C   0  0  0  0  0  0  0  0  0  0  0  0
  -20.0724  -37.9676   -6.7786 C   0  0  0  0  0  0  0  0  0  0  0  0
  -21.1876  -38.0243   -5.9939 C   0  0  0  0  0  0  0  0  0  0  0  0
  -22.1990  -38.7950   -6.4930 C   0  0  0  0  0  0  0  0  0  0  0  0
  -22.1363  -39.4990   -7.7268 C   0  0  0  0  0  0  0  0  0  0  0  0
  -23.4206  -40.2102   -7.9455 C   0  0  0  0  0  0  0  0  0  0  0  0
  -23.3963  -41.6697   -8.2098 C   0  0  0  0  0  0  0  0  0  0  0  0
  -23.5555  -42.5650   -7.0247 C   0  0  0  0  0  0  0  0  0  0  0  0
  -23.1699  -43.9812   -7.2556 C   0  0  0  0  0  0  0  0  0  0  0  0
  -22.0506  -44.1445   -8.1595 N   0  0  0  0  0  0  0  0  0  0  0  0
  -22.4975  -44.8384   -9.4235 C   0  0  0  0  0  0  0  0  0  0  0  0
  -20.6734  -43.7795   -8.0086 C   0  0  0  0  0  0  0  0  0  0  0  0
  -19.8691  -44.8061   -8.5882 C   0  0  0  0  0  0  0  0  0  0  0  0
  -18.5080  -44.7730   -8.6233 C   0  0  0  0  0  0  0  0  0  0  0  0
  -17.9255  -43.6726   -8.0578 C   0  0  0  0  0  0  0  0  0  0  0  0
  -18.6731  -42.6168   -7.4665 C   0  0  0  0  0  0  0  0  0  0  0  0
  -20.0609  -42.6793   -7.4458 C   0  0  0  0  0  0  0  0  0  0  0  0
  -17.7318  -41.5934   -6.9789 C   0  0  0  0  0  0  0  0  0  0  0  0
  -16.7532  -42.0892   -6.2496 O   0  0  0  0  0  0  0  0  0  0  0  0
  -17.7210  -40.1665   -7.1771 N   0  0  0  0  0  0  0  0  0  0  0  0
  -20.9950  -39.4205   -8.4934 C   0  0  0  0  0  0  0  0  0  0  0  0
  -12.8618  -38.2250  -11.5819 C   0  0  0  0  0  0  0  0  0  0  0  0
  1  2  1  0
  2  3  1  0
  2  4  1  0
  4  5  2  0
  5  6  1  0
  6  7  2  0
  7  8  1  0
  8  9  1  0
  9 10  1  0
 10 11  1  0
 11 12  1  0
 12 13  1  6
 12 14  1  0
 14 15  1  1
 15 16  1  0
 16 17  1  0
 17 18  2  0
 18 19  1  0
 19 20  2  0
 20 21  1  0
 21 22  1  0
 22 23  1  0
 23 24  1  0
 24 25  1  0
 25 26  1  0
 25 27  1  0
 27 28  1  0
 28 29  2  0
 29 30  1  0
 30 31  2  0
 31 32  1  0
 31 33  1  0
 33 34  2  0
 33 35  1  0
 20 36  1  0
  8 37  2  0
 32 27  2  0
 35 14  1  0
 36 16  2  0
 37  4  1  0
M  END
$$$$
