
     RDKit          3D

 37 40  0  0  0  0  0  0  0  0999 V2000
  -11.9244  -34.7702  -10.7669 C   0  0  0  0  0  0  0  0  0  0  0  0
  -12.8480  -35.5709  -11.6337 C   0  0  0  0  0  0  0  0  0  0  0  0
  -12.6140  -35.2772  -13.1020 C   0  0  0  0  0  0  0  0  0  0  0  0
  -12.6808  -37.0066  -11.3202 C   0  0  0  0  0  0  0  0  0  0  0  0
  -12.2025  -37.8480  -12.2761 C   0  0  0  0  0  0  0  0  0  0  0  0
  -12.0389  -39.1843  -11.9807 C   0  0  0  0  0  0  0  0  0  0  0  0
  -12.3665  -39.6651  -10.7084 C   0  0  0  0  0  0  0  0  0  0  0  0
  -12.8479  -38.8292   -9.7436 C   0  0  0  0  0  0  0  0  0  0  0  0
  -13.1900  -39.3038   -8.4056 C   0  0  0  0  0  0  0  0  0  0  0  0
  -14.5790  -39.4034   -8.1396 N   0  0  0  0  0  0  0  0  0  0  0  0
  -15.4397  -39.8815   -9.1362 C   0  0  0  0  0  0  0  0  0  0  0  0
  -16.6479  -39.0967   -9.4906 C   0  0  1  0  0  0  0  0  0  0  0  0
  -16.7195  -38.8875  -10.8471 O   0  0  0  0  0  0  0  0  0  0  0  0
  -17.9550  -39.6932   -8.9149 C   0  0  2  0  0  0  0  0  0  0  0  0
  -19.0334  -38.6672   -9.2123 C   0  0  0  0  0  0  0  0  0  0  0  0
  -20.1934  -38.7134   -8.2623 C   0  0  0  0  0  0  0  0  0  0  0  0
  -20.0351  -37.7019   -7.2779 C   0  0  0  0  0  0  0  0  0  0  0  0
  -20.9399  -37.4794   -6.2808 C   0  0  0  0  0  0  0  0  0  0  0  0
  -22.0240  -38.3105   -6.2967 C   0  0  0  0  0  0  0  0  0  0  0  0
  -22.2318  -39.3384   -7.2569 C   0  0  0  0  0  0  0  0  0  0  0  0
  -23.5183  -40.0197   -6.9677 C   0  0  0  0  0  0  0  0  0  0  0  0
  -23.5275  -41.4935   -6.7993 C   0  0  0  0  0  0  0  0  0  0  0  0
  -23.3944  -42.0062   -5.4026 C   0  0  0  0  0  0  0  0  0  0  0  0
  -23.0451  -43.4464   -5.2966 C   0  0  0  0  0  0  0  0  0  0  0  0
  -22.1593  -43.9137   -6.3423 N   0  0  0  0  0  0  0  0  0  0  0  0
  -22.8703  -44.9160   -7.2193 C   0  0  0  0  0  0  0  0  0  0  0  0
  -20.7913  -43.5877   -6.6159 C   0  0  0  0  0  0  0  0  0  0  0  0
  -20.1216  -44.7742   -7.0406 C   0  0  0  0  0  0  0  0  0  0  0  0
  -18.8055  -44.8180   -7.3883 C   0  0  0  0  0  0  0  0  0  0  0  0
  -18.1300  -43.6317   -7.3091 C   0  0  0  0  0  0  0  0  0  0  0  0
  -18.7424  -42.4166   -6.8946 C   0  0  0  0  0  0  0  0  0  0  0  0
  -20.0873  -42.4037   -6.5459 C   0  0  0  0  0  0  0  0  0  0  0  0
  -17.7341  -41.3434   -6.9463 C   0  0  0  0  0  0  0  0  0  0  0  0
  -16.6054  -41.6579   -6.3442 O   0  0  0  0  0  0  0  0  0  0  0  0
  -17.7960  -40.0340   -7.5438 N   0  0  0  0  0  0  0  0  0  0  0  0
  -21.2977  -39.5362   -8.2494 C   0  0  0  0  0  0  0  0  0  0  0  0
  -13.0026  -37.4911  -10.0616 C   0  0  0  0  0  0  0  0  0  0  0  0
  1  2  1  0
  2  3  1  0
  2  4  1  0
  4  5  2  0
  5  6  1  0
  6  7  2  0
  7  8  1  0
  8  9  1  0
  9 10  1  0
 10 11  1  0
 11 12  1  0
 12 13  1  6
 12 14  1  0
 14 15  1  1
 15 16  1  0
 16 17  1  0
 17 18  2  0
 18 19  1  0
 19 20  2  0
 20 21  1  0
 21 22  1  0
 22 23  1  0
 23 24  1  0
 24 25  1  0
 25 26  1  0
 25 27  1  0
 27 28  1  0
 28 29  2  0
 29 30  1  0
 30 31  2  0
 31 32  1  0
 31 33  1  0
 33 34  2  0
 33 35  1  0
 20 36  1  0
  8 37  2  0
 32 27  2  0
 35 14  1  0
 36 16  2  0
 37  4  1  0
M  END
$$$$
