
     RDKit          3D

 37 40  0  0  0  0  0  0  0  0999 V2000
  -12.2639  -34.6544  -13.6345 C   0  0  0  0  0  0  0  0  0  0  0  0
  -13.0501  -34.9739  -12.3993 C   0  0  0  0  0  0  0  0  0  0  0  0
  -14.5132  -34.6198  -12.5740 C   0  0  0  0  0  0  0  0  0  0  0  0
  -12.8598  -36.4013  -12.0617 C   0  0  0  0  0  0  0  0  0  0  0  0
  -12.5563  -37.2867  -13.0489 C   0  0  0  0  0  0  0  0  0  0  0  0
  -12.3708  -38.6152  -12.7324 C   0  0  0  0  0  0  0  0  0  0  0  0
  -12.4978  -39.0434  -11.4065 C   0  0  0  0  0  0  0  0  0  0  0  0
  -12.8030  -38.1630  -10.4099 C   0  0  0  0  0  0  0  0  0  0  0  0
  -12.9336  -38.5822   -9.0171 C   0  0  0  0  0  0  0  0  0  0  0  0
  -13.5585  -39.8400   -8.8237 N   0  0  0  0  0  0  0  0  0  0  0  0
  -14.9288  -39.9763   -9.0813 C   0  0  0  0  0  0  0  0  0  0  0  0
  -15.8905  -39.0825   -8.3902 C   0  0  1  0  0  0  0  0  0  0  0  0
  -15.8758  -37.8231   -8.9404 O   0  0  0  0  0  0  0  0  0  0  0  0
  -17.3188  -39.6723   -8.3024 C   0  0  2  0  0  0  0  0  0  0  0  0
  -18.2498  -38.4741   -8.2642 C   0  0  0  0  0  0  0  0  0  0  0  0
  -19.5600  -38.7450   -7.5857 C   0  0  0  0  0  0  0  0  0  0  0  0
  -19.5052  -38.2657   -6.2498 C   0  0  0  0  0  0  0  0  0  0  0  0
  -20.5537  -38.3507   -5.3803 C   0  0  0  0  0  0  0  0  0  0  0  0
  -21.6754  -38.9380   -5.8932 C   0  0  0  0  0  0  0  0  0  0  0  0
  -21.7842  -39.4350   -7.2210 C   0  0  0  0  0  0  0  0  0  0  0  0
  -23.1478  -39.9853   -7.4228 C   0  0  0  0  0  0  0  0  0  0  0  0
  -23.2940  -41.3788   -7.9099 C   0  0  0  0  0  0  0  0  0  0  0  0
  -23.4482  -42.4372   -6.8671 C   0  0  0  0  0  0  0  0  0  0  0  0
  -23.2290  -43.8255   -7.3491 C   0  0  0  0  0  0  0  0  0  0  0  0
  -22.2085  -43.9377   -8.3700 N   0  0  0  0  0  0  0  0  0  0  0  0
  -22.8241  -44.3750   -9.6773 C   0  0  0  0  0  0  0  0  0  0  0  0
  -20.7936  -43.7248   -8.2970 C   0  0  0  0  0  0  0  0  0  0  0  0
  -20.1475  -44.7104   -9.1019 C   0  0  0  0  0  0  0  0  0  0  0  0
  -18.7974  -44.7921   -9.2614 C   0  0  0  0  0  0  0  0  0  0  0  0
  -18.0620  -43.8539   -8.5914 C   0  0  0  0  0  0  0  0  0  0  0  0
  -18.6480  -42.8464   -7.7759 C   0  0  0  0  0  0  0  0  0  0  0  0
  -20.0287  -42.7890   -7.6326 C   0  0  0  0  0  0  0  0  0  0  0  0
  -17.5709  -42.0028   -7.2287 C   0  0  0  0  0  0  0  0  0  0  0  0
  -16.5927  -42.6947   -6.6814 O   0  0  0  0  0  0  0  0  0  0  0  0
  -17.4304  -40.5693   -7.2049 N   0  0  0  0  0  0  0  0  0  0  0  0
  -20.7061  -39.3338   -8.0718 C   0  0  0  0  0  0  0  0  0  0  0  0
  -12.9833  -36.8336  -10.7501 C   0  0  0  0  0  0  0  0  0  0  0  0
  1  2  1  0
  2  3  1  0
  2  4  1  0
  4  5  2  0
  5  6  1  0
  6  7  2  0
  7  8  1  0
  8  9  1  0
  9 10  1  0
 10 11  1  0
 11 12  1  0
 12 13  1  6
 12 14  1  0
 14 15  1  1
 15 16  1  0
 16 17  1  0
 17 18  2  0
 18 19  1  0
 19 20  2  0
 20 21  1  0
 21 22  1  0
 22 23  1  0
 23 24  1  0
 24 25  1  0
 25 26  1  0
 25 27  1  0
 27 28  1  0
 28 29  2  0
 29 30  1  0
 30 31  2  0
 31 32  1  0
 31 33  1  0
 33 34  2  0
 33 35  1  0
 20 36  1  0
  8 37  2  0
 32 27  2  0
 35 14  1  0
 36 16  2  0
 37  4  1  0
M  END
$$$$
