
     RDKit          3D

 37 40  0  0  0  0  0  0  0  0999 V2000
  -12.5350  -35.6909  -14.8379 C   0  0  0  0  0  0  0  0  0  0  0  0
  -11.9169  -36.2482  -13.5917 C   0  0  0  0  0  0  0  0  0  0  0  0
  -10.8961  -35.2905  -13.0106 C   0  0  0  0  0  0  0  0  0  0  0  0
  -12.9882  -36.5729  -12.6250 C   0  0  0  0  0  0  0  0  0  0  0  0
  -14.1316  -35.8360  -12.6223 C   0  0  0  0  0  0  0  0  0  0  0  0
  -15.1330  -36.1445  -11.7270 C   0  0  0  0  0  0  0  0  0  0  0  0
  -14.9676  -37.2051  -10.8297 C   0  0  0  0  0  0  0  0  0  0  0  0
  -13.8240  -37.9491  -10.8242 C   0  0  0  0  0  0  0  0  0  0  0  0
  -13.6292  -39.0659   -9.9037 C   0  0  0  0  0  0  0  0  0  0  0  0
  -14.4744  -39.0617   -8.7655 N   0  0  0  0  0  0  0  0  0  0  0  0
  -15.6788  -38.3472   -8.8033 C   0  0  0  0  0  0  0  0  0  0  0  0
  -16.4900  -38.2246   -7.5671 C   0  0  1  0  0  0  0  0  0  0  0  0
  -16.8225  -36.9134   -7.3237 O   0  0  0  0  0  0  0  0  0  0  0  0
  -17.7232  -39.1598   -7.5499 C   0  0  2  0  0  0  0  0  0  0  0  0
  -18.9297  -38.2395   -7.5859 C   0  0  0  0  0  0  0  0  0  0  0  0
  -20.1653  -38.8346   -6.9780 C   0  0  0  0  0  0  0  0  0  0  0  0
  -20.3140  -38.3535   -5.6500 C   0  0  0  0  0  0  0  0  0  0  0  0
  -21.3557  -38.7014   -4.8399 C   0  0  0  0  0  0  0  0  0  0  0  0
  -22.2580  -39.5574   -5.4049 C   0  0  0  0  0  0  0  0  0  0  0  0
  -22.1575  -40.0695   -6.7276 C   0  0  0  0  0  0  0  0  0  0  0  0
  -23.3210  -40.9507   -6.9966 C   0  0  0  0  0  0  0  0  0  0  0  0
  -23.0777  -42.3367   -7.4661 C   0  0  0  0  0  0  0  0  0  0  0  0
  -23.0183  -43.3964   -6.4150 C   0  0  0  0  0  0  0  0  0  0  0  0
  -22.4240  -44.6838   -6.8589 C   0  0  0  0  0  0  0  0  0  0  0  0
  -21.3499  -44.5342   -7.8182 N   0  0  0  0  0  0  0  0  0  0  0  0
  -21.7548  -45.1179   -9.1502 C   0  0  0  0  0  0  0  0  0  0  0  0
  -20.0430  -43.9663   -7.6689 C   0  0  0  0  0  0  0  0  0  0  0  0
  -19.1202  -44.7561   -8.4182 C   0  0  0  0  0  0  0  0  0  0  0  0
  -17.7870  -44.4902   -8.4994 C   0  0  0  0  0  0  0  0  0  0  0  0
  -17.3564  -43.3933   -7.8057 C   0  0  0  0  0  0  0  0  0  0  0  0
  -18.2273  -42.5669   -7.0429 C   0  0  0  0  0  0  0  0  0  0  0  0
  -19.5831  -42.8641   -6.9791 C   0  0  0  0  0  0  0  0  0  0  0  0
  -17.4357  -41.4743   -6.4507 C   0  0  0  0  0  0  0  0  0  0  0  0
  -16.3475  -41.8915   -5.8365 O   0  0  0  0  0  0  0  0  0  0  0  0
  -17.6672  -40.0525   -6.4446 N   0  0  0  0  0  0  0  0  0  0  0  0
  -21.0922  -39.6983   -7.5177 C   0  0  0  0  0  0  0  0  0  0  0  0
  -12.8323  -37.6227  -11.7329 C   0  0  0  0  0  0  0  0  0  0  0  0
  1  2  1  0
  2  3  1  0
  2  4  1  0
  4  5  2  0
  5  6  1  0
  6  7  2  0
  7  8  1  0
  8  9  1  0
  9 10  1  0
 10 11  1  0
 11 12  1  0
 12 13  1  6
 12 14  1  0
 14 15  1  1
 15 16  1  0
 16 17  1  0
 17 18  2  0
 18 19  1  0
 19 20  2  0
 20 21  1  0
 21 22  1  0
 22 23  1  0
 23 24  1  0
 24 25  1  0
 25 26  1  0
 25 27  1  0
 27 28  1  0
 28 29  2  0
 29 30  1  0
 30 31  2  0
 31 32  1  0
 31 33  1  0
 33 34  2  0
 33 35  1  0
 20 36  1  0
  8 37  2  0
 32 27  2  0
 35 14  1  0
 36 16  2  0
 37  4  1  0
M  END
$$$$
