
     RDKit          3D

 37 40  0  0  0  0  0  0  0  0999 V2000
  -13.9130  -36.3152  -14.1555 C   0  0  0  0  0  0  0  0  0  0  0  0
  -13.0204  -36.5522  -12.9754 C   0  0  0  0  0  0  0  0  0  0  0  0
  -13.2288  -35.4953  -11.9094 C   0  0  0  0  0  0  0  0  0  0  0  0
  -13.2561  -37.9177  -12.4583 C   0  0  0  0  0  0  0  0  0  0  0  0
  -13.4355  -38.9424  -13.3348 C   0  0  0  0  0  0  0  0  0  0  0  0
  -13.6467  -40.2161  -12.8524 C   0  0  0  0  0  0  0  0  0  0  0  0
  -13.6782  -40.4458  -11.4726 C   0  0  0  0  0  0  0  0  0  0  0  0
  -13.5005  -39.4243  -10.5859 C   0  0  0  0  0  0  0  0  0  0  0  0
  -13.5209  -39.6382   -9.1414 C   0  0  0  0  0  0  0  0  0  0  0  0
  -14.7886  -39.4772   -8.5275 N   0  0  0  0  0  0  0  0  0  0  0  0
  -15.5755  -38.3642   -8.8512 C   0  0  0  0  0  0  0  0  0  0  0  0
  -16.7017  -37.9873   -7.9619 C   0  0  1  0  0  0  0  0  0  0  0  0
  -17.1116  -36.6981   -8.2049 O   0  0  0  0  0  0  0  0  0  0  0  0
  -17.8743  -38.9970   -7.9989 C   0  0  2  0  0  0  0  0  0  0  0  0
  -19.1352  -38.1561   -7.9155 C   0  0  0  0  0  0  0  0  0  0  0  0
  -20.3114  -38.8823   -7.3328 C   0  0  0  0  0  0  0  0  0  0  0  0
  -20.4452  -38.5359   -5.9619 C   0  0  0  0  0  0  0  0  0  0  0  0
  -21.4365  -39.0226   -5.1600 C   0  0  0  0  0  0  0  0  0  0  0  0
  -22.3030  -39.8789   -5.7781 C   0  0  0  0  0  0  0  0  0  0  0  0
  -22.2151  -40.2596   -7.1453 C   0  0  0  0  0  0  0  0  0  0  0  0
  -23.3310  -41.1849   -7.4640 C   0  0  0  0  0  0  0  0  0  0  0  0
  -23.0192  -42.5034   -8.0680 C   0  0  0  0  0  0  0  0  0  0  0  0
  -22.8605  -43.6493   -7.1230 C   0  0  0  0  0  0  0  0  0  0  0  0
  -22.2037  -44.8498   -7.7018 C   0  0  0  0  0  0  0  0  0  0  0  0
  -21.1731  -44.5444   -8.6717 N   0  0  0  0  0  0  0  0  0  0  0  0
  -21.5854  -45.0278  -10.0411 C   0  0  0  0  0  0  0  0  0  0  0  0
  -19.8991  -43.9104   -8.5054 C   0  0  0  0  0  0  0  0  0  0  0  0
  -18.9551  -44.5674   -9.3504 C   0  0  0  0  0  0  0  0  0  0  0  0
  -17.6440  -44.2105   -9.4425 C   0  0  0  0  0  0  0  0  0  0  0  0
  -17.2585  -43.1568   -8.6609 C   0  0  0  0  0  0  0  0  0  0  0  0
  -18.1525  -42.4614   -7.8004 C   0  0  0  0  0  0  0  0  0  0  0  0
  -19.4847  -42.8491   -7.7280 C   0  0  0  0  0  0  0  0  0  0  0  0
  -17.4098  -41.3797   -7.1301 C   0  0  0  0  0  0  0  0  0  0  0  0
  -16.2785  -41.7812   -6.5876 O   0  0  0  0  0  0  0  0  0  0  0  0
  -17.7274  -39.9821   -6.9842 N   0  0  0  0  0  0  0  0  0  0  0  0
  -21.2013  -39.7501   -7.9257 C   0  0  0  0  0  0  0  0  0  0  0  0
  -13.2882  -38.1539  -11.0924 C   0  0  0  0  0  0  0  0  0  0  0  0
  1  2  1  0
  2  3  1  0
  2  4  1  0
  4  5  2  0
  5  6  1  0
  6  7  2  0
  7  8  1  0
  8  9  1  0
  9 10  1  0
 10 11  1  0
 11 12  1  0
 12 13  1  6
 12 14  1  0
 14 15  1  1
 15 16  1  0
 16 17  1  0
 17 18  2  0
 18 19  1  0
 19 20  2  0
 20 21  1  0
 21 22  1  0
 22 23  1  0
 23 24  1  0
 24 25  1  0
 25 26  1  0
 25 27  1  0
 27 28  1  0
 28 29  2  0
 29 30  1  0
 30 31  2  0
 31 32  1  0
 31 33  1  0
 33 34  2  0
 33 35  1  0
 20 36  1  0
  8 37  2  0
 32 27  2  0
 35 14  1  0
 36 16  2  0
 37  4  1  0
M  END
$$$$
