
     RDKit          3D

 37 40  0  0  0  0  0  0  0  0999 V2000
  -12.6704  -35.1429  -13.1399 C   0  0  0  0  0  0  0  0  0  0  0  0
  -13.7571  -35.6077  -12.2187 C   0  0  0  0  0  0  0  0  0  0  0  0
  -15.1273  -35.2954  -12.7859 C   0  0  0  0  0  0  0  0  0  0  0  0
  -13.5807  -37.0522  -11.9542 C   0  0  0  0  0  0  0  0  0  0  0  0
  -13.5505  -37.9238  -12.9981 C   0  0  0  0  0  0  0  0  0  0  0  0
  -13.3777  -39.2688  -12.7515 C   0  0  0  0  0  0  0  0  0  0  0  0
  -13.2381  -39.7273  -11.4370 C   0  0  0  0  0  0  0  0  0  0  0  0
  -13.2683  -38.8608  -10.3836 C   0  0  0  0  0  0  0  0  0  0  0  0
  -13.1173  -39.3121   -9.0030 C   0  0  0  0  0  0  0  0  0  0  0  0
  -14.1257  -40.1976   -8.5460 N   0  0  0  0  0  0  0  0  0  0  0  0
  -15.4540  -39.9938   -8.9420 C   0  0  0  0  0  0  0  0  0  0  0  0
  -16.3607  -39.2098   -8.0677 C   0  0  1  0  0  0  0  0  0  0  0  0
  -16.4415  -37.9032   -8.4864 O   0  0  0  0  0  0  0  0  0  0  0  0
  -17.7538  -39.8609   -7.8911 C   0  0  2  0  0  0  0  0  0  0  0  0
  -18.7468  -38.7144   -7.9502 C   0  0  0  0  0  0  0  0  0  0  0  0
  -20.0291  -38.9840   -7.2198 C   0  0  0  0  0  0  0  0  0  0  0  0
  -19.9776  -38.3725   -5.9389 C   0  0  0  0  0  0  0  0  0  0  0  0
  -21.0053  -38.4249   -5.0425 C   0  0  0  0  0  0  0  0  0  0  0  0
  -22.1025  -39.1171   -5.4705 C   0  0  0  0  0  0  0  0  0  0  0  0
  -22.2068  -39.7482   -6.7405 C   0  0  0  0  0  0  0  0  0  0  0  0
  -23.5422  -40.3854   -6.8574 C   0  0  0  0  0  0  0  0  0  0  0  0
  -23.6218  -41.8260   -7.2021 C   0  0  0  0  0  0  0  0  0  0  0  0
  -23.7016  -42.7824   -6.0574 C   0  0  0  0  0  0  0  0  0  0  0  0
  -23.4166  -44.1984   -6.4056 C   0  0  0  0  0  0  0  0  0  0  0  0
  -22.4088  -44.3586   -7.4328 N   0  0  0  0  0  0  0  0  0  0  0  0
  -23.0219  -44.9543   -8.6771 C   0  0  0  0  0  0  0  0  0  0  0  0
  -21.0063  -44.0668   -7.4120 C   0  0  0  0  0  0  0  0  0  0  0  0
  -20.3219  -45.0926   -8.1304 C   0  0  0  0  0  0  0  0  0  0  0  0
  -18.9723  -45.1199   -8.3107 C   0  0  0  0  0  0  0  0  0  0  0  0
  -18.2770  -44.0833   -7.7523 C   0  0  0  0  0  0  0  0  0  0  0  0
  -18.9023  -43.0316   -7.0268 C   0  0  0  0  0  0  0  0  0  0  0  0
  -20.2815  -43.0315   -6.8596 C   0  0  0  0  0  0  0  0  0  0  0  0
  -17.8629  -42.0834   -6.5887 C   0  0  0  0  0  0  0  0  0  0  0  0
  -16.8400  -42.6663   -5.9978 O   0  0  0  0  0  0  0  0  0  0  0  0
  -17.7988  -40.6492   -6.7087 N   0  0  0  0  0  0  0  0  0  0  0  0
  -21.1500  -39.6764   -7.6206 C   0  0  0  0  0  0  0  0  0  0  0  0
  -13.4412  -37.5146  -10.6545 C   0  0  0  0  0  0  0  0  0  0  0  0
  1  2  1  0
  2  3  1  0
  2  4  1  0
  4  5  2  0
  5  6  1  0
  6  7  2  0
  7  8  1  0
  8  9  1  0
  9 10  1  0
 10 11  1  0
 11 12  1  0
 12 13  1  6
 12 14  1  0
 14 15  1  1
 15 16  1  0
 16 17  1  0
 17 18  2  0
 18 19  1  0
 19 20  2  0
 20 21  1  0
 21 22  1  0
 22 23  1  0
 23 24  1  0
 24 25  1  0
 25 26  1  0
 25 27  1  0
 27 28  1  0
 28 29  2  0
 29 30  1  0
 30 31  2  0
 31 32  1  0
 31 33  1  0
 33 34  2  0
 33 35  1  0
 20 36  1  0
  8 37  2  0
 32 27  2  0
 35 14  1  0
 36 16  2  0
 37  4  1  0
M  END
$$$$
