
     RDKit          3D

 37 40  0  0  0  0  0  0  0  0999 V2000
  -11.4662  -35.5487  -12.8083 C   0  0  0  0  0  0  0  0  0  0  0  0
  -12.8086  -35.7107  -12.1622 C   0  0  0  0  0  0  0  0  0  0  0  0
  -13.8306  -34.7779  -12.7805 C   0  0  0  0  0  0  0  0  0  0  0  0
  -13.2212  -37.1280  -12.2551 C   0  0  0  0  0  0  0  0  0  0  0  0
  -13.3205  -37.7163  -13.4776 C   0  0  0  0  0  0  0  0  0  0  0  0
  -13.6969  -39.0394  -13.5630 C   0  0  0  0  0  0  0  0  0  0  0  0
  -13.9757  -39.7644  -12.3994 C   0  0  0  0  0  0  0  0  0  0  0  0
  -13.8800  -39.1827  -11.1690 C   0  0  0  0  0  0  0  0  0  0  0  0
  -14.1579  -39.9189   -9.9388 C   0  0  0  0  0  0  0  0  0  0  0  0
  -15.5011  -39.8549   -9.4899 N   0  0  0  0  0  0  0  0  0  0  0  0
  -16.0144  -38.6389   -9.0204 C   0  0  0  0  0  0  0  0  0  0  0  0
  -16.6281  -38.5820   -7.6708 C   0  0  1  0  0  0  0  0  0  0  0  0
  -16.7941  -37.2812   -7.2592 O   0  0  0  0  0  0  0  0  0  0  0  0
  -17.9317  -39.4087   -7.5567 C   0  0  2  0  0  0  0  0  0  0  0  0
  -19.0513  -38.3881   -7.4626 C   0  0  0  0  0  0  0  0  0  0  0  0
  -20.2736  -38.8919   -6.7538 C   0  0  0  0  0  0  0  0  0  0  0  0
  -20.2580  -38.4360   -5.4087 C   0  0  0  0  0  0  0  0  0  0  0  0
  -21.2481  -38.7155   -4.5119 C   0  0  0  0  0  0  0  0  0  0  0  0
  -22.2695  -39.4758   -5.0067 C   0  0  0  0  0  0  0  0  0  0  0  0
  -22.3350  -39.9585   -6.3426 C   0  0  0  0  0  0  0  0  0  0  0  0
  -23.5909  -40.7297   -6.5188 C   0  0  0  0  0  0  0  0  0  0  0  0
  -23.5135  -42.1181   -7.0353 C   0  0  0  0  0  0  0  0  0  0  0  0
  -23.4515  -43.2071   -6.0147 C   0  0  0  0  0  0  0  0  0  0  0  0
  -23.0150  -44.5280   -6.5365 C   0  0  0  0  0  0  0  0  0  0  0  0
  -22.0238  -44.4447   -7.5886 N   0  0  0  0  0  0  0  0  0  0  0  0
  -22.5979  -44.9555   -8.8881 C   0  0  0  0  0  0  0  0  0  0  0  0
  -20.6642  -43.9947   -7.5509 C   0  0  0  0  0  0  0  0  0  0  0  0
  -19.8861  -44.8397   -8.3977 C   0  0  0  0  0  0  0  0  0  0  0  0
  -18.5477  -44.6865   -8.5977 C   0  0  0  0  0  0  0  0  0  0  0  0
  -17.9614  -43.6495   -7.9263 C   0  0  0  0  0  0  0  0  0  0  0  0
  -18.6836  -42.7728   -7.0700 C   0  0  0  0  0  0  0  0  0  0  0  0
  -20.0486  -42.9548   -6.8860 C   0  0  0  0  0  0  0  0  0  0  0  0
  -17.7487  -41.7682   -6.5334 C   0  0  0  0  0  0  0  0  0  0  0  0
  -16.6498  -42.2932   -6.0313 O   0  0  0  0  0  0  0  0  0  0  0  0
  -17.8534  -40.3324   -6.4786 N   0  0  0  0  0  0  0  0  0  0  0  0
  -21.3179  -39.6584   -7.2212 C   0  0  0  0  0  0  0  0  0  0  0  0
  -13.4988  -37.8536  -11.1067 C   0  0  0  0  0  0  0  0  0  0  0  0
  1  2  1  0
  2  3  1  0
  2  4  1  0
  4  5  2  0
  5  6  1  0
  6  7  2  0
  7  8  1  0
  8  9  1  0
  9 10  1  0
 10 11  1  0
 11 12  1  0
 12 13  1  6
 12 14  1  0
 14 15  1  1
 15 16  1  0
 16 17  1  0
 17 18  2  0
 18 19  1  0
 19 20  2  0
 20 21  1  0
 21 22  1  0
 22 23  1  0
 23 24  1  0
 24 25  1  0
 25 26  1  0
 25 27  1  0
 27 28  1  0
 28 29  2  0
 29 30  1  0
 30 31  2  0
 31 32  1  0
 31 33  1  0
 33 34  2  0
 33 35  1  0
 20 36  1  0
  8 37  2  0
 32 27  2  0
 35 14  1  0
 36 16  2  0
 37  4  1  0
M  END
$$$$
