
     RDKit          3D

 37 40  0  0  0  0  0  0  0  0999 V2000
  -12.8698  -45.5158   -6.4555 C   0  0  0  0  0  0  0  0  0  0  0  0
  -14.3674  -45.5584   -6.4887 C   0  0  0  0  0  0  0  0  0  0  0  0
  -14.9606  -44.9650   -5.2267 C   0  0  0  0  0  0  0  0  0  0  0  0
  -14.8432  -44.8659   -7.7059 C   0  0  0  0  0  0  0  0  0  0  0  0
  -15.6692  -45.5194   -8.5668 C   0  0  0  0  0  0  0  0  0  0  0  0
  -16.1190  -44.8707   -9.6966 C   0  0  0  0  0  0  0  0  0  0  0  0
  -15.7236  -43.5530   -9.9513 C   0  0  0  0  0  0  0  0  0  0  0  0
  -14.8947  -42.8898   -9.0944 C   0  0  0  0  0  0  0  0  0  0  0  0
  -14.4733  -41.5121   -9.3328 C   0  0  0  0  0  0  0  0  0  0  0  0
  -15.4894  -40.5363   -9.1740 N   0  0  0  0  0  0  0  0  0  0  0  0
  -15.3334  -39.5279   -8.2141 C   0  0  0  0  0  0  0  0  0  0  0  0
  -16.4851  -38.6515   -7.8872 C   0  0  1  0  0  0  0  0  0  0  0  0
  -16.2761  -37.3720   -8.3434 O   0  0  0  0  0  0  0  0  0  0  0  0
  -17.8441  -39.2295   -8.3509 C   0  0  2  0  0  0  0  0  0  0  0  0
  -18.6316  -38.0419   -8.8740 C   0  0  0  0  0  0  0  0  0  0  0  0
  -20.1192  -38.2205   -8.8006 C   0  0  0  0  0  0  0  0  0  0  0  0
  -20.6156  -37.5576   -7.6467 C   0  0  0  0  0  0  0  0  0  0  0  0
  -21.9386  -37.5240   -7.3136 C   0  0  0  0  0  0  0  0  0  0  0  0
  -22.7633  -38.1826   -8.1809 C   0  0  0  0  0  0  0  0  0  0  0  0
  -22.3202  -38.8621   -9.3487 C   0  0  0  0  0  0  0  0  0  0  0  0
  -23.4942  -39.4414  -10.0480 C   0  0  0  0  0  0  0  0  0  0  0  0
  -23.4965  -40.8902  -10.3662 C   0  0  0  0  0  0  0  0  0  0  0  0
  -24.1431  -41.7919   -9.3661 C   0  0  0  0  0  0  0  0  0  0  0  0
  -23.8178  -43.2333   -9.5225 C   0  0  0  0  0  0  0  0  0  0  0  0
  -22.4663  -43.4837   -9.9774 N   0  0  0  0  0  0  0  0  0  0  0  0
  -22.4853  -44.1033  -11.3539 C   0  0  0  0  0  0  0  0  0  0  0  0
  -21.2099  -43.2563   -9.3274 C   0  0  0  0  0  0  0  0  0  0  0  0
  -20.3383  -44.3425   -9.6391 C   0  0  0  0  0  0  0  0  0  0  0  0
  -19.0574  -44.4398   -9.1867 C   0  0  0  0  0  0  0  0  0  0  0  0
  -18.6283  -43.4134   -8.3916 C   0  0  0  0  0  0  0  0  0  0  0  0
  -19.4490  -42.3037   -8.0472 C   0  0  0  0  0  0  0  0  0  0  0  0
  -20.7520  -42.2328   -8.5242 C   0  0  0  0  0  0  0  0  0  0  0  0
  -18.6647  -41.3867   -7.2016 C   0  0  0  0  0  0  0  0  0  0  0  0
  -18.0570  -41.9902   -6.2008 O   0  0  0  0  0  0  0  0  0  0  0  0
  -18.4666  -39.9634   -7.3043 N   0  0  0  0  0  0  0  0  0  0  0  0
  -20.9775  -38.8770   -9.6544 C   0  0  0  0  0  0  0  0  0  0  0  0
  -14.4565  -43.5599   -7.9654 C   0  0  0  0  0  0  0  0  0  0  0  0
  1  2  1  0
  2  3  1  0
  2  4  1  0
  4  5  2  0
  5  6  1  0
  6  7  2  0
  7  8  1  0
  8  9  1  0
  9 10  1  0
 10 11  1  0
 11 12  1  0
 12 13  1  6
 12 14  1  0
 14 15  1  1
 15 16  1  0
 16 17  1  0
 17 18  2  0
 18 19  1  0
 19 20  2  0
 20 21  1  0
 21 22  1  0
 22 23  1  0
 23 24  1  0
 24 25  1  0
 25 26  1  0
 25 27  1  0
 27 28  1  0
 28 29  2  0
 29 30  1  0
 30 31  2  0
 31 32  1  0
 31 33  1  0
 33 34  2  0
 33 35  1  0
 20 36  1  0
  8 37  2  0
 32 27  2  0
 35 14  1  0
 36 16  2  0
 37  4  1  0
M  END
$$$$
