
     RDKit          3D

 37 40  0  0  0  0  0  0  0  0999 V2000
  -13.7438  -34.3074  -12.2821 C   0  0  0  0  0  0  0  0  0  0  0  0
  -13.0638  -35.4239  -13.0146 C   0  0  0  0  0  0  0  0  0  0  0  0
  -11.5598  -35.3580  -12.8401 C   0  0  0  0  0  0  0  0  0  0  0  0
  -13.6212  -36.7139  -12.5535 C   0  0  0  0  0  0  0  0  0  0  0  0
  -14.4755  -37.3993  -13.3603 C   0  0  0  0  0  0  0  0  0  0  0  0
  -14.9880  -38.6055  -12.9335 C   0  0  0  0  0  0  0  0  0  0  0  0
  -14.6312  -39.1133  -11.6796 C   0  0  0  0  0  0  0  0  0  0  0  0
  -13.7761  -38.4326  -10.8630 C   0  0  0  0  0  0  0  0  0  0  0  0
  -13.3816  -38.9439   -9.5533 C   0  0  0  0  0  0  0  0  0  0  0  0
  -14.3938  -38.9021   -8.5614 N   0  0  0  0  0  0  0  0  0  0  0  0
  -15.7395  -38.9595   -8.9463 C   0  0  0  0  0  0  0  0  0  0  0  0
  -16.7576  -38.2441   -8.1382 C   0  0  1  0  0  0  0  0  0  0  0  0
  -17.0550  -37.0212   -8.6903 O   0  0  0  0  0  0  0  0  0  0  0  0
  -18.0234  -39.0907   -7.8609 C   0  0  2  0  0  0  0  0  0  0  0  0
  -19.1597  -38.0918   -7.7389 C   0  0  0  0  0  0  0  0  0  0  0  0
  -20.3044  -38.5745   -6.8982 C   0  0  0  0  0  0  0  0  0  0  0  0
  -20.1904  -38.0293   -5.5917 C   0  0  0  0  0  0  0  0  0  0  0  0
  -21.0944  -38.2705   -4.5982 C   0  0  0  0  0  0  0  0  0  0  0  0
  -22.1315  -39.0852   -4.9546 C   0  0  0  0  0  0  0  0  0  0  0  0
  -22.2938  -39.6577   -6.2460 C   0  0  0  0  0  0  0  0  0  0  0  0
  -23.5376  -40.4672   -6.2650 C   0  0  0  0  0  0  0  0  0  0  0  0
  -23.4642  -41.8850   -6.6951 C   0  0  0  0  0  0  0  0  0  0  0  0
  -23.2872  -42.9015   -5.6149 C   0  0  0  0  0  0  0  0  0  0  0  0
  -22.8583  -44.2442   -6.0849 C   0  0  0  0  0  0  0  0  0  0  0  0
  -21.9604  -44.2091   -7.2202 N   0  0  0  0  0  0  0  0  0  0  0  0
  -22.6255  -44.8187   -8.4306 C   0  0  0  0  0  0  0  0  0  0  0  0
  -20.6155  -43.7268   -7.3267 C   0  0  0  0  0  0  0  0  0  0  0  0
  -19.8868  -44.6089   -8.1797 C   0  0  0  0  0  0  0  0  0  0  0  0
  -18.5744  -44.4390   -8.5016 C   0  0  0  0  0  0  0  0  0  0  0  0
  -17.9640  -43.3463   -7.9509 C   0  0  0  0  0  0  0  0  0  0  0  0
  -18.6372  -42.4308   -7.0953 C   0  0  0  0  0  0  0  0  0  0  0  0
  -19.9766  -42.6310   -6.7851 C   0  0  0  0  0  0  0  0  0  0  0  0
  -17.6898  -41.3716   -6.7058 C   0  0  0  0  0  0  0  0  0  0  0  0
  -16.5387  -41.8367   -6.2654 O   0  0  0  0  0  0  0  0  0  0  0  0
  -17.8301  -39.9381   -6.7357 N   0  0  0  0  0  0  0  0  0  0  0  0
  -21.3618  -39.3941   -7.2250 C   0  0  0  0  0  0  0  0  0  0  0  0
  -13.2723  -37.2244  -11.3124 C   0  0  0  0  0  0  0  0  0  0  0  0
  1  2  1  0
  2  3  1  0
  2  4  1  0
  4  5  2  0
  5  6  1  0
  6  7  2  0
  7  8  1  0
  8  9  1  0
  9 10  1  0
 10 11  1  0
 11 12  1  0
 12 13  1  6
 12 14  1  0
 14 15  1  1
 15 16  1  0
 16 17  1  0
 17 18  2  0
 18 19  1  0
 19 20  2  0
 20 21  1  0
 21 22  1  0
 22 23  1  0
 23 24  1  0
 24 25  1  0
 25 26  1  0
 25 27  1  0
 27 28  1  0
 28 29  2  0
 29 30  1  0
 30 31  2  0
 31 32  1  0
 31 33  1  0
 33 34  2  0
 33 35  1  0
 20 36  1  0
  8 37  2  0
 32 27  2  0
 35 14  1  0
 36 16  2  0
 37  4  1  0
M  END
$$$$
