
     RDKit          3D

 37 40  0  0  0  0  0  0  0  0999 V2000
  -19.1399  -38.5733  -11.4979 C   0  0  0  0  0  0  0  0  0  0  0  0
  -18.1741  -38.7273  -12.6334 C   0  0  0  0  0  0  0  0  0  0  0  0
  -17.9727  -37.4147  -13.3636 C   0  0  0  0  0  0  0  0  0  0  0  0
  -16.9024  -39.2758  -12.1143 C   0  0  0  0  0  0  0  0  0  0  0  0
  -16.5027  -40.5172  -12.5013 C   0  0  0  0  0  0  0  0  0  0  0  0
  -15.3134  -41.0244  -12.0239 C   0  0  0  0  0  0  0  0  0  0  0  0
  -14.5304  -40.2655  -11.1472 C   0  0  0  0  0  0  0  0  0  0  0  0
  -14.9235  -39.0200  -10.7526 C   0  0  0  0  0  0  0  0  0  0  0  0
  -14.1214  -38.2043   -9.8449 C   0  0  0  0  0  0  0  0  0  0  0  0
  -14.2665  -38.5155   -8.4694 N   0  0  0  0  0  0  0  0  0  0  0  0
  -15.4464  -39.1227   -8.0203 C   0  0  0  0  0  0  0  0  0  0  0  0
  -16.6371  -38.2815   -7.7448 C   0  0  1  0  0  0  0  0  0  0  0  0
  -16.6194  -37.1375   -8.5062 O   0  0  0  0  0  0  0  0  0  0  0  0
  -17.9730  -39.0534   -7.8692 C   0  0  2  0  0  0  0  0  0  0  0  0
  -19.0585  -38.0338   -7.5759 C   0  0  0  0  0  0  0  0  0  0  0  0
  -20.3266  -38.6334   -7.0444 C   0  0  0  0  0  0  0  0  0  0  0  0
  -20.3513  -38.5031   -5.6303 C   0  0  0  0  0  0  0  0  0  0  0  0
  -21.3874  -38.9387   -4.8562 C   0  0  0  0  0  0  0  0  0  0  0  0
  -22.4136  -39.5174   -5.5478 C   0  0  0  0  0  0  0  0  0  0  0  0
  -22.4402  -39.6737   -6.9608 C   0  0  0  0  0  0  0  0  0  0  0  0
  -23.7142  -40.3264   -7.3530 C   0  0  0  0  0  0  0  0  0  0  0  0
  -23.6648  -41.5591   -8.1766 C   0  0  0  0  0  0  0  0  0  0  0  0
  -23.6845  -42.8568   -7.4369 C   0  0  0  0  0  0  0  0  0  0  0  0
  -23.2739  -44.0387   -8.2382 C   0  0  0  0  0  0  0  0  0  0  0  0
  -22.2371  -43.7577   -9.2091 N   0  0  0  0  0  0  0  0  0  0  0  0
  -22.7740  -43.9271  -10.6098 C   0  0  0  0  0  0  0  0  0  0  0  0
  -20.8651  -43.3896   -9.0231 C   0  0  0  0  0  0  0  0  0  0  0  0
  -20.0828  -44.0489  -10.0181 C   0  0  0  0  0  0  0  0  0  0  0  0
  -18.7325  -43.9131  -10.1331 C   0  0  0  0  0  0  0  0  0  0  0  0
  -18.1383  -43.0872   -9.2195 C   0  0  0  0  0  0  0  0  0  0  0  0
  -18.8641  -42.4018   -8.2061 C   0  0  0  0  0  0  0  0  0  0  0  0
  -20.2413  -42.5607   -8.1142 C   0  0  0  0  0  0  0  0  0  0  0  0
  -17.9173  -41.5917   -7.4197 C   0  0  0  0  0  0  0  0  0  0  0  0
  -16.8599  -42.2671   -7.0186 O   0  0  0  0  0  0  0  0  0  0  0  0
  -17.9730  -40.2046   -7.0347 N   0  0  0  0  0  0  0  0  0  0  0  0
  -21.3770  -39.2234   -7.7116 C   0  0  0  0  0  0  0  0  0  0  0  0
  -16.1204  -38.5300  -11.2456 C   0  0  0  0  0  0  0  0  0  0  0  0
  1  2  1  0
  2  3  1  0
  2  4  1  0
  4  5  2  0
  5  6  1  0
  6  7  2  0
  7  8  1  0
  8  9  1  0
  9 10  1  0
 10 11  1  0
 11 12  1  0
 12 13  1  6
 12 14  1  0
 14 15  1  1
 15 16  1  0
 16 17  1  0
 17 18  2  0
 18 19  1  0
 19 20  2  0
 20 21  1  0
 21 22  1  0
 22 23  1  0
 23 24  1  0
 24 25  1  0
 25 26  1  0
 25 27  1  0
 27 28  1  0
 28 29  2  0
 29 30  1  0
 30 31  2  0
 31 32  1  0
 31 33  1  0
 33 34  2  0
 33 35  1  0
 20 36  1  0
  8 37  2  0
 32 27  2  0
 35 14  1  0
 36 16  2  0
 37  4  1  0
M  END
$$$$
