
     RDKit          3D

 37 39  0  0  0  0  0  0  0  0999 V2000
  -18.0764  -47.2829   -8.4308 C   0  0  0  0  0  0  0  0  0  0  0  0
  -18.1975  -45.9977   -8.7690 O   0  0  0  0  0  0  0  0  0  0  0  0
  -18.5116  -44.8379   -8.1588 C   0  0  0  0  0  0  0  0  0  0  0  0
  -18.4491  -43.6266   -8.8395 C   0  0  0  0  0  0  0  0  0  0  0  0
  -18.7436  -42.3633   -8.2828 C   0  0  0  0  0  0  0  0  0  0  0  0
  -19.1245  -42.3219   -6.9509 C   0  0  0  0  0  0  0  0  0  0  0  0
  -19.1918  -43.5020   -6.2677 C   0  0  0  0  0  0  0  0  0  0  0  0
  -19.4780  -43.8331   -4.8983 N   0  0  0  0  0  0  0  0  0  0  0  0
  -20.5433  -43.4757   -4.0180 C   0  0  0  0  0  0  0  0  0  0  0  0
  -21.9055  -43.4749   -4.6497 C   0  0  0  0  0  0  0  0  0  0  0  0
  -22.2480  -42.2439   -5.4089 C   0  0  0  0  0  0  0  0  0  0  0  0
  -21.9123  -40.9484   -4.7008 C   0  0  0  0  0  0  0  0  0  0  0  0
  -22.6290  -39.8146   -5.4512 C   0  0  0  0  0  0  0  0  0  0  0  0
  -22.1264  -39.6282   -6.8200 C   0  0  0  0  0  0  0  0  0  0  0  0
  -21.3044  -38.3860   -7.0410 C   0  0  0  0  0  0  0  0  0  0  0  0
  -20.8050  -38.3080   -8.4762 C   0  0  1  0  0  0  0  0  0  0  0  0
  -21.7317  -37.3043   -9.2077 C   0  0  0  0  0  0  0  0  0  0  0  0
  -19.4336  -37.7593   -8.6068 C   0  0  0  0  0  0  0  0  0  0  0  0
  -18.3120  -38.7268   -8.9640 C   0  0  2  0  0  0  0  0  0  0  0  0
  -18.8666  -39.9588   -9.4637 N   0  0  0  0  0  0  0  0  0  0  0  0
  -18.5774  -41.2973   -9.2657 C   0  0  0  0  0  0  0  0  0  0  0  0
  -17.9145  -41.6949  -10.4067 O   0  0  0  0  0  0  0  0  0  0  0  0
  -17.4307  -38.8213   -7.7650 C   0  0  2  0  0  0  0  0  0  0  0  0
  -17.8902  -38.2300   -6.6181 O   0  0  0  0  0  0  0  0  0  0  0  0
  -15.9793  -38.7549   -7.9664 C   0  0  0  0  0  0  0  0  0  0  0  0
  -15.3371  -38.8828   -9.1983 N   0  0  0  0  0  0  0  0  0  0  0  0
  -13.9419  -39.1198   -9.1911 C   0  0  0  0  0  0  0  0  0  0  0  0
  -13.5786  -40.4609   -9.7061 C   0  0  0  0  0  0  0  0  0  0  0  0
  -13.0495  -41.3931   -8.8572 C   0  0  0  0  0  0  0  0  0  0  0  0
  -12.6846  -42.6511   -9.2422 C   0  0  0  0  0  0  0  0  0  0  0  0
  -12.8632  -43.0038  -10.5772 C   0  0  0  0  0  0  0  0  0  0  0  0
  -13.3915  -42.0930  -11.4552 C   0  0  0  0  0  0  0  0  0  0  0  0
  -13.7545  -40.8035  -11.0140 C   0  0  0  0  0  0  0  0  0  0  0  0
  -12.0817  -43.5816   -8.2700 C   0  0  0  0  0  0  0  0  0  0  0  0
  -11.2195  -42.7203   -7.3543 C   0  0  0  0  0  0  0  0  0  0  0  0
  -11.2623  -44.6754   -8.8791 C   0  0  0  0  0  0  0  0  0  0  0  0
  -18.8841  -44.7000   -6.9046 N   0  0  0  0  0  0  0  0  0  0  0  0
  1  2  1  0
  2  3  1  0
  3  4  2  0
  4  5  1  0
  5  6  2  0
  6  7  1  0
  7  8  1  0
  8  9  1  0
  9 10  1  0
 10 11  1  0
 11 12  1  0
 12 13  1  0
 13 14  1  0
 14 15  1  0
 15 16  1  0
 16 17  1  6
 16 18  1  0
 19 18  1  1
 19 20  1  0
 20 21  1  0
 21 22  2  0
 19 23  1  0
 23 24  1  1
 23 25  1  0
 25 26  1  0
 26 27  1  0
 27 28  1  0
 28 29  2  0
 29 30  1  0
 30 31  2  0
 31 32  1  0
 32 33  2  0
 30 34  1  0
 34 35  1  0
 34 36  1  0
  7 37  2  0
 21  5  1  0
 33 28  1  0
 37  3  1  0
M  END
$$$$
