
     RDKit          3D

 37 39  0  0  0  0  0  0  0  0999 V2000
  -18.4305  -47.9684   -8.2476 C   0  0  0  0  0  0  0  0  0  0  0  0
  -18.5015  -46.7256   -8.7285 O   0  0  0  0  0  0  0  0  0  0  0  0
  -18.6768  -45.4823   -8.2391 C   0  0  0  0  0  0  0  0  0  0  0  0
  -18.4665  -44.3600   -9.0331 C   0  0  0  0  0  0  0  0  0  0  0  0
  -18.6097  -43.0220   -8.6067 C   0  0  0  0  0  0  0  0  0  0  0  0
  -18.9888  -42.8047   -7.2915 C   0  0  0  0  0  0  0  0  0  0  0  0
  -19.2002  -43.8954   -6.4980 C   0  0  0  0  0  0  0  0  0  0  0  0
  -19.5302  -44.0538   -5.1076 N   0  0  0  0  0  0  0  0  0  0  0  0
  -20.5488  -43.4872   -4.2836 C   0  0  0  0  0  0  0  0  0  0  0  0
  -21.8983  -43.3866   -4.9343 C   0  0  0  0  0  0  0  0  0  0  0  0
  -22.0872  -42.2043   -5.8151 C   0  0  0  0  0  0  0  0  0  0  0  0
  -21.6016  -40.8945   -5.2308 C   0  0  0  0  0  0  0  0  0  0  0  0
  -22.1737  -39.7629   -6.0993 C   0  0  0  0  0  0  0  0  0  0  0  0
  -21.6463  -39.7733   -7.4714 C   0  0  0  0  0  0  0  0  0  0  0  0
  -20.6802  -38.6655   -7.7988 C   0  0  0  0  0  0  0  0  0  0  0  0
  -20.1687  -38.7891   -9.2265 C   0  0  1  0  0  0  0  0  0  0  0  0
  -20.9651  -37.7592  -10.0670 C   0  0  0  0  0  0  0  0  0  0  0  0
  -18.7408  -38.4230   -9.3876 C   0  0  0  0  0  0  0  0  0  0  0  0
  -17.7419  -39.5475   -9.6309 C   0  0  2  0  0  0  0  0  0  0  0  0
  -18.4381  -40.7479  -10.0174 N   0  0  0  0  0  0  0  0  0  0  0  0
  -18.3125  -42.0853   -9.6857 C   0  0  0  0  0  0  0  0  0  0  0  0
  -17.6971  -42.6693  -10.7717 O   0  0  0  0  0  0  0  0  0  0  0  0
  -16.8836  -39.6277   -8.4143 C   0  0  2  0  0  0  0  0  0  0  0  0
  -16.9156  -38.5503   -7.5692 O   0  0  0  0  0  0  0  0  0  0  0  0
  -15.5832  -40.2968   -8.5280 C   0  0  0  0  0  0  0  0  0  0  0  0
  -15.1186  -40.9511   -9.6693 N   0  0  0  0  0  0  0  0  0  0  0  0
  -15.0184  -40.1986  -10.8637 C   0  0  0  0  0  0  0  0  0  0  0  0
  -13.9457  -39.1773  -10.8175 C   0  0  0  0  0  0  0  0  0  0  0  0
  -14.2388  -37.8725  -11.1022 C   0  0  0  0  0  0  0  0  0  0  0  0
  -13.3168  -36.8657  -11.0861 C   0  0  0  0  0  0  0  0  0  0  0  0
  -12.0022  -37.1883  -10.7598 C   0  0  0  0  0  0  0  0  0  0  0  0
  -11.6741  -38.4871  -10.4687 C   0  0  0  0  0  0  0  0  0  0  0  0
  -12.6593  -39.4961  -10.4977 C   0  0  0  0  0  0  0  0  0  0  0  0
  -13.7093  -35.4909  -11.4474 C   0  0  0  0  0  0  0  0  0  0  0  0
  -14.4019  -34.9220  -10.2144 C   0  0  0  0  0  0  0  0  0  0  0  0
  -14.6065  -35.3917  -12.6406 C   0  0  0  0  0  0  0  0  0  0  0  0
  -19.0357  -45.1783   -7.0104 N   0  0  0  0  0  0  0  0  0  0  0  0
  1  2  1  0
  2  3  1  0
  3  4  2  0
  4  5  1  0
  5  6  2  0
  6  7  1  0
  7  8  1  0
  8  9  1  0
  9 10  1  0
 10 11  1  0
 11 12  1  0
 12 13  1  0
 13 14  1  0
 14 15  1  0
 15 16  1  0
 16 17  1  6
 16 18  1  0
 19 18  1  1
 19 20  1  0
 20 21  1  0
 21 22  2  0
 19 23  1  0
 23 24  1  6
 23 25  1  0
 25 26  1  0
 26 27  1  0
 27 28  1  0
 28 29  2  0
 29 30  1  0
 30 31  2  0
 31 32  1  0
 32 33  2  0
 30 34  1  0
 34 35  1  0
 34 36  1  0
  7 37  2  0
 21  5  1  0
 33 28  1  0
 37  3  1  0
M  END
$$$$
