
     RDKit          3D

 37 39  0  0  0  0  0  0  0  0999 V2000
  -17.9181  -46.9413   -9.6878 C   0  0  0  0  0  0  0  0  0  0  0  0
  -18.7705  -45.9161   -9.6336 O   0  0  0  0  0  0  0  0  0  0  0  0
  -18.9512  -44.8167   -8.8754 C   0  0  0  0  0  0  0  0  0  0  0  0
  -18.7780  -43.5417   -9.4035 C   0  0  0  0  0  0  0  0  0  0  0  0
  -18.9298  -42.3355   -8.6862 C   0  0  0  0  0  0  0  0  0  0  0  0
  -19.2778  -42.4242   -7.3477 C   0  0  0  0  0  0  0  0  0  0  0  0
  -19.4525  -43.6682   -6.8130 C   0  0  0  0  0  0  0  0  0  0  0  0
  -19.7439  -44.1388   -5.4862 N   0  0  0  0  0  0  0  0  0  0  0  0
  -20.7490  -43.7906   -4.5343 C   0  0  0  0  0  0  0  0  0  0  0  0
  -22.1162  -43.5747   -5.1163 C   0  0  0  0  0  0  0  0  0  0  0  0
  -22.3453  -42.2300   -5.7066 C   0  0  0  0  0  0  0  0  0  0  0  0
  -21.8640  -41.0737   -4.8557 C   0  0  0  0  0  0  0  0  0  0  0  0
  -22.4749  -39.7889   -5.4371 C   0  0  0  0  0  0  0  0  0  0  0  0
  -21.9833  -39.4828   -6.7882 C   0  0  0  0  0  0  0  0  0  0  0  0
  -21.0423  -38.3108   -6.8813 C   0  0  0  0  0  0  0  0  0  0  0  0
  -20.5663  -38.1030   -8.3115 C   0  0  1  0  0  0  0  0  0  0  0  0
  -21.3993  -36.9280   -8.8833 C   0  0  0  0  0  0  0  0  0  0  0  0
  -19.1486  -37.6817   -8.4183 C   0  0  0  0  0  0  0  0  0  0  0  0
  -18.1399  -38.7035   -8.9282 C   0  0  2  0  0  0  0  0  0  0  0  0
  -18.8282  -39.8013   -9.5575 N   0  0  0  0  0  0  0  0  0  0  0  0
  -18.6744  -41.1762   -9.5353 C   0  0  0  0  0  0  0  0  0  0  0  0
  -18.0789  -41.4912  -10.7376 O   0  0  0  0  0  0  0  0  0  0  0  0
  -17.2492  -39.0353   -7.7794 C   0  0  2  0  0  0  0  0  0  0  0  0
  -17.3773  -38.2571   -6.6596 O   0  0  0  0  0  0  0  0  0  0  0  0
  -15.8873  -39.4957   -8.0705 C   0  0  0  0  0  0  0  0  0  0  0  0
  -15.4924  -40.1262   -9.2508 N   0  0  0  0  0  0  0  0  0  0  0  0
  -14.1047  -40.2313   -9.5075 C   0  0  0  0  0  0  0  0  0  0  0  0
  -13.6401  -39.3101  -10.5712 C   0  0  0  0  0  0  0  0  0  0  0  0
  -13.9263  -37.9758  -10.4856 C   0  0  0  0  0  0  0  0  0  0  0  0
  -13.5414  -37.0549  -11.4171 C   0  0  0  0  0  0  0  0  0  0  0  0
  -12.8145  -37.5022  -12.5171 C   0  0  0  0  0  0  0  0  0  0  0  0
  -12.5102  -38.8338  -12.6338 C   0  0  0  0  0  0  0  0  0  0  0  0
  -12.9285  -39.7510  -11.6474 C   0  0  0  0  0  0  0  0  0  0  0  0
  -13.9286  -35.6396  -11.2690 C   0  0  0  0  0  0  0  0  0  0  0  0
  -12.9006  -34.8450  -12.0663 C   0  0  0  0  0  0  0  0  0  0  0  0
  -13.9811  -35.1521   -9.8555 C   0  0  0  0  0  0  0  0  0  0  0  0
  -19.2825  -44.8013   -7.6023 N   0  0  0  0  0  0  0  0  0  0  0  0
  1  2  1  0
  2  3  1  0
  3  4  2  0
  4  5  1  0
  5  6  2  0
  6  7  1  0
  7  8  1  0
  8  9  1  0
  9 10  1  0
 10 11  1  0
 11 12  1  0
 12 13  1  0
 13 14  1  0
 14 15  1  0
 15 16  1  0
 16 17  1  1
 16 18  1  0
 19 18  1  1
 19 20  1  0
 20 21  1  0
 21 22  2  0
 19 23  1  0
 23 24  1  1
 23 25  1  0
 25 26  1  0
 26 27  1  0
 27 28  1  0
 28 29  2  0
 29 30  1  0
 30 31  2  0
 31 32  1  0
 32 33  2  0
 30 34  1  0
 34 35  1  0
 34 36  1  0
  7 37  2  0
 21  5  1  0
 33 28  1  0
 37  3  1  0
M  END
$$$$
