
     RDKit          3D

 37 39  0  0  0  0  0  0  0  0999 V2000
  -17.6169  -46.8717  -10.1972 C   0  0  0  0  0  0  0  0  0  0  0  0
  -18.3679  -45.7689  -10.1749 O   0  0  0  0  0  0  0  0  0  0  0  0
  -18.5024  -44.6773   -9.3963 C   0  0  0  0  0  0  0  0  0  0  0  0
  -18.4208  -43.3964   -9.9322 C   0  0  0  0  0  0  0  0  0  0  0  0
  -18.5337  -42.1970   -9.1966 C   0  0  0  0  0  0  0  0  0  0  0  0
  -18.7411  -42.2992   -7.8301 C   0  0  0  0  0  0  0  0  0  0  0  0
  -18.8245  -43.5492   -7.2874 C   0  0  0  0  0  0  0  0  0  0  0  0
  -18.9658  -44.0315   -5.9404 N   0  0  0  0  0  0  0  0  0  0  0  0
  -19.8786  -43.7154   -4.8895 C   0  0  0  0  0  0  0  0  0  0  0  0
  -21.3036  -43.5383   -5.3285 C   0  0  0  0  0  0  0  0  0  0  0  0
  -21.6303  -42.1994   -5.8851 C   0  0  0  0  0  0  0  0  0  0  0  0
  -21.0987  -41.0316   -5.0811 C   0  0  0  0  0  0  0  0  0  0  0  0
  -21.8025  -39.7638   -5.5904 C   0  0  0  0  0  0  0  0  0  0  0  0
  -21.4598  -39.4400   -6.9827 C   0  0  0  0  0  0  0  0  0  0  0  0
  -20.5675  -38.2406   -7.1645 C   0  0  0  0  0  0  0  0  0  0  0  0
  -20.2456  -38.0154   -8.6345 C   0  0  1  0  0  0  0  0  0  0  0  0
  -21.1660  -36.8639   -9.1122 C   0  0  0  0  0  0  0  0  0  0  0  0
  -18.8588  -37.5523   -8.8822 C   0  0  0  0  0  0  0  0  0  0  0  0
  -17.8781  -38.5427   -9.4976 C   0  0  2  0  0  0  0  0  0  0  0  0
  -18.5947  -39.6587  -10.0597 N   0  0  0  0  0  0  0  0  0  0  0  0
  -18.3997  -41.0285  -10.0609 C   0  0  0  0  0  0  0  0  0  0  0  0
  -17.9205  -41.3229  -11.3191 O   0  0  0  0  0  0  0  0  0  0  0  0
  -16.8660  -38.8512   -8.4470 C   0  0  2  0  0  0  0  0  0  0  0  0
  -17.0789  -38.3019   -7.2104 O   0  0  0  0  0  0  0  0  0  0  0  0
  -15.4601  -38.9593   -8.8512 C   0  0  0  0  0  0  0  0  0  0  0  0
  -14.5064  -39.7578   -8.2193 N   0  0  0  0  0  0  0  0  0  0  0  0
  -13.1739  -39.6882   -8.6907 C   0  0  0  0  0  0  0  0  0  0  0  0
  -12.8816  -40.6795   -9.7526 C   0  0  0  0  0  0  0  0  0  0  0  0
  -12.7978  -42.0072   -9.4367 C   0  0  0  0  0  0  0  0  0  0  0  0
  -12.5319  -42.9894  -10.3469 C   0  0  0  0  0  0  0  0  0  0  0  0
  -12.3358  -42.6156  -11.6737 C   0  0  0  0  0  0  0  0  0  0  0  0
  -12.4131  -41.2926  -12.0248 C   0  0  0  0  0  0  0  0  0  0  0  0
  -12.6900  -40.3105  -11.0511 C   0  0  0  0  0  0  0  0  0  0  0  0
  -12.4172  -44.3944   -9.9138 C   0  0  0  0  0  0  0  0  0  0  0  0
  -13.0963  -44.4628   -8.5508 C   0  0  0  0  0  0  0  0  0  0  0  0
  -11.0143  -44.9064   -9.8227 C   0  0  0  0  0  0  0  0  0  0  0  0
  -18.7029  -44.6748   -8.0960 N   0  0  0  0  0  0  0  0  0  0  0  0
  1  2  1  0
  2  3  1  0
  3  4  2  0
  4  5  1  0
  5  6  2  0
  6  7  1  0
  7  8  1  0
  8  9  1  0
  9 10  1  0
 10 11  1  0
 11 12  1  0
 12 13  1  0
 13 14  1  0
 14 15  1  0
 15 16  1  0
 16 17  1  1
 16 18  1  0
 19 18  1  1
 19 20  1  0
 20 21  1  0
 21 22  2  0
 19 23  1  0
 23 24  1  1
 23 25  1  0
 25 26  1  0
 26 27  1  0
 27 28  1  0
 28 29  2  0
 29 30  1  0
 30 31  2  0
 31 32  1  0
 32 33  2  0
 30 34  1  0
 34 35  1  0
 34 36  1  0
  7 37  2  0
 21  5  1  0
 33 28  1  0
 37  3  1  0
M  END
$$$$
