
     RDKit          3D

 37 39  0  0  0  0  0  0  0  0999 V2000
  -18.9317  -46.7511  -11.4867 C   0  0  0  0  0  0  0  0  0  0  0  0
  -18.8766  -45.4426  -11.2307 O   0  0  0  0  0  0  0  0  0  0  0  0
  -18.9447  -44.6408  -10.1497 C   0  0  0  0  0  0  0  0  0  0  0  0
  -18.6379  -43.2870  -10.2373 C   0  0  0  0  0  0  0  0  0  0  0  0
  -18.6659  -42.3742   -9.1610 C   0  0  0  0  0  0  0  0  0  0  0  0
  -19.0258  -42.8622   -7.9148 C   0  0  0  0  0  0  0  0  0  0  0  0
  -19.3308  -44.1888   -7.8108 C   0  0  0  0  0  0  0  0  0  0  0  0
  -19.6743  -45.0373   -6.7022 N   0  0  0  0  0  0  0  0  0  0  0  0
  -20.6409  -44.9227   -5.6582 C   0  0  0  0  0  0  0  0  0  0  0  0
  -21.9763  -44.3930   -6.0952 C   0  0  0  0  0  0  0  0  0  0  0  0
  -22.0622  -42.9133   -6.2065 C   0  0  0  0  0  0  0  0  0  0  0  0
  -21.4661  -42.1542   -5.0398 C   0  0  0  0  0  0  0  0  0  0  0  0
  -21.9381  -40.6958   -5.1503 C   0  0  0  0  0  0  0  0  0  0  0  0
  -21.4126  -40.0138   -6.3418 C   0  0  0  0  0  0  0  0  0  0  0  0
  -20.3545  -38.9757   -6.0759 C   0  0  0  0  0  0  0  0  0  0  0  0
  -19.8545  -38.3586   -7.3738 C   0  0  1  0  0  0  0  0  0  0  0  0
  -20.5587  -36.9843   -7.5042 C   0  0  0  0  0  0  0  0  0  0  0  0
  -18.4003  -38.0686   -7.3807 C   0  0  0  0  0  0  0  0  0  0  0  0
  -17.5016  -38.9614   -8.2274 C   0  0  2  0  0  0  0  0  0  0  0  0
  -18.2982  -39.7178   -9.1592 N   0  0  0  0  0  0  0  0  0  0  0  0
  -18.2884  -41.0319   -9.5923 C   0  0  0  0  0  0  0  0  0  0  0  0
  -17.7247  -40.9925  -10.8492 O   0  0  0  0  0  0  0  0  0  0  0  0
  -16.6543  -39.7387   -7.2781 C   0  0  2  0  0  0  0  0  0  0  0  0
  -17.0495  -39.7440   -5.9667 O   0  0  0  0  0  0  0  0  0  0  0  0
  -15.2037  -39.7502   -7.4958 C   0  0  0  0  0  0  0  0  0  0  0  0
  -14.5468  -39.0915   -8.5355 N   0  0  0  0  0  0  0  0  0  0  0  0
  -13.4818  -39.7698   -9.1746 C   0  0  0  0  0  0  0  0  0  0  0  0
  -13.5373  -39.6749  -10.6524 C   0  0  0  0  0  0  0  0  0  0  0  0
  -13.1435  -38.5221  -11.2733 C   0  0  0  0  0  0  0  0  0  0  0  0
  -13.1616  -38.3437  -12.6267 C   0  0  0  0  0  0  0  0  0  0  0  0
  -13.6065  -39.3985  -13.4193 C   0  0  0  0  0  0  0  0  0  0  0  0
  -14.0084  -40.5687  -12.8289 C   0  0  0  0  0  0  0  0  0  0  0  0
  -13.9735  -40.7094  -11.4259 C   0  0  0  0  0  0  0  0  0  0  0  0
  -12.7590  -37.0518  -13.2128 C   0  0  0  0  0  0  0  0  0  0  0  0
  -12.6269  -36.0891  -12.0383 C   0  0  0  0  0  0  0  0  0  0  0  0
  -13.7104  -36.5047  -14.2297 C   0  0  0  0  0  0  0  0  0  0  0  0
  -19.2770  -45.0111   -8.9318 N   0  0  0  0  0  0  0  0  0  0  0  0
  1  2  1  0
  2  3  1  0
  3  4  2  0
  4  5  1  0
  5  6  2  0
  6  7  1  0
  7  8  1  0
  8  9  1  0
  9 10  1  0
 10 11  1  0
 11 12  1  0
 12 13  1  0
 13 14  1  0
 14 15  1  0
 15 16  1  0
 16 17  1  1
 16 18  1  0
 19 18  1  1
 19 20  1  0
 20 21  1  0
 21 22  2  0
 19 23  1  0
 23 24  1  1
 23 25  1  0
 25 26  1  0
 26 27  1  0
 27 28  1  0
 28 29  2  0
 29 30  1  0
 30 31  2  0
 31 32  1  0
 32 33  2  0
 30 34  1  0
 34 35  1  0
 34 36  1  0
  7 37  2  0
 21  5  1  0
 33 28  1  0
 37  3  1  0
M  END
$$$$
