
     RDKit          3D

 37 39  0  0  0  0  0  0  0  0999 V2000
  -19.1081  -46.4781   -9.6557 C   0  0  0  0  0  0  0  0  0  0  0  0
  -18.1396  -45.6488  -10.0493 O   0  0  0  0  0  0  0  0  0  0  0  0
  -17.9192  -44.3194  -10.0654 C   0  0  0  0  0  0  0  0  0  0  0  0
  -17.0623  -43.7207   -9.1480 C   0  0  0  0  0  0  0  0  0  0  0  0
  -16.7810  -42.3393   -9.0773 C   0  0  0  0  0  0  0  0  0  0  0  0
  -17.4081  -41.5090   -9.9927 C   0  0  0  0  0  0  0  0  0  0  0  0
  -18.2522  -42.0801  -10.9011 C   0  0  0  0  0  0  0  0  0  0  0  0
  -19.1020  -41.5444  -11.9296 N   0  0  0  0  0  0  0  0  0  0  0  0
  -18.8683  -40.6286  -12.9993 C   0  0  0  0  0  0  0  0  0  0  0  0
  -17.5630  -40.8212  -13.7160 C   0  0  0  0  0  0  0  0  0  0  0  0
  -16.3838  -40.2023  -13.0560 C   0  0  0  0  0  0  0  0  0  0  0  0
  -16.6005  -38.7845  -12.5708 C   0  0  0  0  0  0  0  0  0  0  0  0
  -15.2201  -38.1953  -12.2398 C   0  0  0  0  0  0  0  0  0  0  0  0
  -14.5639  -38.8748  -11.1135 C   0  0  0  0  0  0  0  0  0  0  0  0
  -14.4950  -38.0825   -9.8346 C   0  0  0  0  0  0  0  0  0  0  0  0
  -13.8321  -38.8877   -8.7267 C   0  0  1  0  0  0  0  0  0  0  0  0
  -12.3756  -38.3690   -8.6207 C   0  0  0  0  0  0  0  0  0  0  0  0
  -14.4335  -38.6770   -7.3878 C   0  0  0  0  0  0  0  0  0  0  0  0
  -15.2761  -39.8032   -6.8019 C   0  0  2  0  0  0  0  0  0  0  0  0
  -15.0334  -41.0253   -7.5246 N   0  0  0  0  0  0  0  0  0  0  0  0
  -15.8426  -42.0422   -7.9997 C   0  0  0  0  0  0  0  0  0  0  0  0
  -15.6560  -43.0896   -7.1237 O   0  0  0  0  0  0  0  0  0  0  0  0
  -16.6827  -39.3098   -6.7643 C   0  0  2  0  0  0  0  0  0  0  0  0
  -16.8603  -37.9555   -6.8659 O   0  0  0  0  0  0  0  0  0  0  0  0
  -17.6359  -40.0033   -5.8913 C   0  0  0  0  0  0  0  0  0  0  0  0
  -18.7567  -40.7075   -6.3324 N   0  0  0  0  0  0  0  0  0  0  0  0
  -19.6556  -41.1928   -5.3530 C   0  0  0  0  0  0  0  0  0  0  0  0
  -21.0765  -40.9625   -5.7051 C   0  0  0  0  0  0  0  0  0  0  0  0
  -21.3913  -40.1508   -6.7593 C   0  0  0  0  0  0  0  0  0  0  0  0
  -22.6697  -39.8804   -7.1548 C   0  0  0  0  0  0  0  0  0  0  0  0
  -23.7123  -40.4669   -6.4425 C   0  0  0  0  0  0  0  0  0  0  0  0
  -23.4319  -41.2865   -5.3799 C   0  0  0  0  0  0  0  0  0  0  0  0
  -22.0955  -41.5383   -5.0056 C   0  0  0  0  0  0  0  0  0  0  0  0
  -22.9223  -38.9589   -8.2782 C   0  0  0  0  0  0  0  0  0  0  0  0
  -22.9594  -39.8316   -9.5274 C   0  0  0  0  0  0  0  0  0  0  0  0
  -21.9066  -37.8713   -8.4331 C   0  0  0  0  0  0  0  0  0  0  0  0
  -18.4646  -43.4551  -10.8938 N   0  0  0  0  0  0  0  0  0  0  0  0
  1  2  1  0
  2  3  1  0
  3  4  2  0
  4  5  1  0
  5  6  2  0
  6  7  1  0
  7  8  1  0
  8  9  1  0
  9 10  1  0
 10 11  1  0
 11 12  1  0
 12 13  1  0
 13 14  1  0
 14 15  1  0
 15 16  1  0
 16 17  1  1
 16 18  1  0
 19 18  1  6
 19 20  1  0
 20 21  1  0
 21 22  2  0
 19 23  1  0
 23 24  1  1
 23 25  1  0
 25 26  1  0
 26 27  1  0
 27 28  1  0
 28 29  2  0
 29 30  1  0
 30 31  2  0
 31 32  1  0
 32 33  2  0
 30 34  1  0
 34 35  1  0
 34 36  1  0
  7 37  2  0
 21  5  1  0
 33 28  1  0
 37  3  1  0
M  END
$$$$
