
     RDKit          3D

 37 39  0  0  0  0  0  0  0  0999 V2000
  -15.5025  -44.2765  -14.7656 C   0  0  0  0  0  0  0  0  0  0  0  0
  -15.5039  -43.7520  -13.5385 O   0  0  0  0  0  0  0  0  0  0  0  0
  -15.2618  -42.5529  -12.9731 C   0  0  0  0  0  0  0  0  0  0  0  0
  -15.0331  -42.4347  -11.6063 C   0  0  0  0  0  0  0  0  0  0  0  0
  -14.7863  -41.2242  -10.9235 C   0  0  0  0  0  0  0  0  0  0  0  0
  -14.7713  -40.0572  -11.6710 C   0  0  0  0  0  0  0  0  0  0  0  0
  -14.9933  -40.1550  -13.0145 C   0  0  0  0  0  0  0  0  0  0  0  0
  -15.1122  -39.1832  -14.0673 N   0  0  0  0  0  0  0  0  0  0  0  0
  -14.2920  -38.0864  -14.4697 C   0  0  0  0  0  0  0  0  0  0  0  0
  -12.8164  -38.3624  -14.4397 C   0  0  0  0  0  0  0  0  0  0  0  0
  -12.1763  -38.2269  -13.1051 C   0  0  0  0  0  0  0  0  0  0  0  0
  -12.5719  -36.9843  -12.3356 C   0  0  0  0  0  0  0  0  0  0  0  0
  -11.5837  -36.8317  -11.1684 C   0  0  0  0  0  0  0  0  0  0  0  0
  -11.6854  -37.9216  -10.1873 C   0  0  0  0  0  0  0  0  0  0  0  0
  -12.3054  -37.5448   -8.8676 C   0  0  0  0  0  0  0  0  0  0  0  0
  -12.3960  -38.7489   -7.9416 C   0  0  1  0  0  0  0  0  0  0  0  0
  -11.2227  -38.6177   -6.9378 C   0  0  0  0  0  0  0  0  0  0  0  0
  -13.6289  -38.7829   -7.1185 C   0  0  0  0  0  0  0  0  0  0  0  0
  -14.6964  -39.8085   -7.4794 C   0  0  2  0  0  0  0  0  0  0  0  0
  -14.1405  -40.8089   -8.3541 N   0  0  0  0  0  0  0  0  0  0  0  0
  -14.5896  -41.4500   -9.4951 C   0  0  0  0  0  0  0  0  0  0  0  0
  -14.9577  -42.7109   -9.0782 O   0  0  0  0  0  0  0  0  0  0  0  0
  -15.8697  -39.0429   -7.9899 C   0  0  2  0  0  0  0  0  0  0  0  0
  -15.9170  -37.7109   -7.6744 O   0  0  0  0  0  0  0  0  0  0  0  0
  -17.1691  -39.7215   -8.0415 C   0  0  0  0  0  0  0  0  0  0  0  0
  -17.8075  -40.1368   -9.2105 N   0  0  0  0  0  0  0  0  0  0  0  0
  -19.0591  -40.7846   -9.0816 C   0  0  0  0  0  0  0  0  0  0  0  0
  -20.1421  -39.8723   -8.6449 C   0  0  0  0  0  0  0  0  0  0  0  0
  -20.3794  -39.6909   -7.3106 C   0  0  0  0  0  0  0  0  0  0  0  0
  -21.3546  -38.8730   -6.8167 C   0  0  0  0  0  0  0  0  0  0  0  0
  -22.1523  -38.1836   -7.7261 C   0  0  0  0  0  0  0  0  0  0  0  0
  -21.9411  -38.3425   -9.0712 C   0  0  0  0  0  0  0  0  0  0  0  0
  -20.9218  -39.1986   -9.5377 C   0  0  0  0  0  0  0  0  0  0  0  0
  -21.5709  -38.7669   -5.3618 C   0  0  0  0  0  0  0  0  0  0  0  0
  -21.2290  -40.1390   -4.7926 C   0  0  0  0  0  0  0  0  0  0  0  0
  -22.9577  -38.3696   -4.9648 C   0  0  0  0  0  0  0  0  0  0  0  0
  -15.2255  -41.3962  -13.5987 N   0  0  0  0  0  0  0  0  0  0  0  0
  1  2  1  0
  2  3  1  0
  3  4  2  0
  4  5  1  0
  5  6  2  0
  6  7  1  0
  7  8  1  0
  8  9  1  0
  9 10  1  0
 10 11  1  0
 11 12  1  0
 12 13  1  0
 13 14  1  0
 14 15  1  0
 15 16  1  0
 16 17  1  1
 16 18  1  0
 19 18  1  6
 19 20  1  0
 20 21  1  0
 21 22  2  0
 19 23  1  0
 23 24  1  1
 23 25  1  0
 25 26  1  0
 26 27  1  0
 27 28  1  0
 28 29  2  0
 29 30  1  0
 30 31  2  0
 31 32  1  0
 32 33  2  0
 30 34  1  0
 34 35  1  0
 34 36  1  0
  7 37  2  0
 21  5  1  0
 33 28  1  0
 37  3  1  0
M  END
$$$$
