
     RDKit          3D

 37 39  0  0  0  0  0  0  0  0999 V2000
  -19.1576  -47.4539   -8.8570 C   0  0  0  0  0  0  0  0  0  0  0  0
  -19.8554  -46.3165   -8.8463 O   0  0  0  0  0  0  0  0  0  0  0  0
  -19.7524  -45.0962   -8.2840 C   0  0  0  0  0  0  0  0  0  0  0  0
  -19.4021  -43.9825   -9.0400 C   0  0  0  0  0  0  0  0  0  0  0  0
  -19.2553  -42.6712   -8.5388 C   0  0  0  0  0  0  0  0  0  0  0  0
  -19.4754  -42.4732   -7.1850 C   0  0  0  0  0  0  0  0  0  0  0  0
  -19.8208  -43.5555   -6.4279 C   0  0  0  0  0  0  0  0  0  0  0  0
  -20.0572  -43.7398   -5.0218 N   0  0  0  0  0  0  0  0  0  0  0  0
  -20.8787  -43.0507   -4.0795 C   0  0  0  0  0  0  0  0  0  0  0  0
  -22.2348  -42.6634   -4.5948 C   0  0  0  0  0  0  0  0  0  0  0  0
  -22.2713  -41.4125   -5.3966 C   0  0  0  0  0  0  0  0  0  0  0  0
  -21.5011  -40.2538   -4.7990 C   0  0  0  0  0  0  0  0  0  0  0  0
  -21.9211  -38.9833   -5.5550 C   0  0  0  0  0  0  0  0  0  0  0  0
  -21.5217  -39.0017   -6.9696 C   0  0  0  0  0  0  0  0  0  0  0  0
  -20.3955  -38.0705   -7.3334 C   0  0  0  0  0  0  0  0  0  0  0  0
  -20.0376  -38.1936   -8.8072 C   0  0  1  0  0  0  0  0  0  0  0  0
  -20.6938  -36.9836   -9.5190 C   0  0  0  0  0  0  0  0  0  0  0  0
  -18.5850  -38.0852   -9.0843 C   0  0  0  0  0  0  0  0  0  0  0  0
  -17.8390  -39.3554   -9.4738 C   0  0  2  0  0  0  0  0  0  0  0  0
  -18.7781  -40.3809   -9.8497 N   0  0  0  0  0  0  0  0  0  0  0  0
  -18.8787  -41.7372   -9.5953 C   0  0  0  0  0  0  0  0  0  0  0  0
  -18.4770  -42.3529  -10.7610 O   0  0  0  0  0  0  0  0  0  0  0  0
  -16.9123  -39.6692   -8.3486 C   0  0  2  0  0  0  0  0  0  0  0  0
  -16.8416  -38.7480   -7.3374 O   0  0  0  0  0  0  0  0  0  0  0  0
  -15.6543  -40.3564   -8.6596 C   0  0  0  0  0  0  0  0  0  0  0  0
  -14.6109  -40.5602   -7.7560 N   0  0  0  0  0  0  0  0  0  0  0  0
  -13.3605  -39.9667   -8.0507 C   0  0  0  0  0  0  0  0  0  0  0  0
  -13.1595  -39.7263   -9.4991 C   0  0  0  0  0  0  0  0  0  0  0  0
  -12.9810  -38.4502   -9.9565 C   0  0  0  0  0  0  0  0  0  0  0  0
  -12.7906  -38.1340  -11.2709 C   0  0  0  0  0  0  0  0  0  0  0  0
  -12.7769  -39.1727  -12.1980 C   0  0  0  0  0  0  0  0  0  0  0  0
  -12.9528  -40.4642  -11.7730 C   0  0  0  0  0  0  0  0  0  0  0  0
  -13.1467  -40.7455  -10.4046 C   0  0  0  0  0  0  0  0  0  0  0  0
  -12.6478  -36.7257  -11.6846 C   0  0  0  0  0  0  0  0  0  0  0  0
  -13.5280  -36.5669  -12.9190 C   0  0  0  0  0  0  0  0  0  0  0  0
  -11.2447  -36.3041  -11.9882 C   0  0  0  0  0  0  0  0  0  0  0  0
  -19.9437  -44.8112   -7.0140 N   0  0  0  0  0  0  0  0  0  0  0  0
  1  2  1  0
  2  3  1  0
  3  4  2  0
  4  5  1  0
  5  6  2  0
  6  7  1  0
  7  8  1  0
  8  9  1  0
  9 10  1  0
 10 11  1  0
 11 12  1  0
 12 13  1  0
 13 14  1  0
 14 15  1  0
 15 16  1  0
 16 17  1  6
 16 18  1  0
 19 18  1  1
 19 20  1  0
 20 21  1  0
 21 22  2  0
 19 23  1  0
 23 24  1  6
 23 25  1  0
 25 26  1  0
 26 27  1  0
 27 28  1  0
 28 29  2  0
 29 30  1  0
 30 31  2  0
 31 32  1  0
 32 33  2  0
 30 34  1  0
 34 35  1  0
 34 36  1  0
  7 37  2  0
 21  5  1  0
 33 28  1  0
 37  3  1  0
M  END
$$$$
