
     RDKit          3D

 37 39  0  0  0  0  0  0  0  0999 V2000
  -19.0988  -48.3959   -6.7302 C   0  0  0  0  0  0  0  0  0  0  0  0
  -18.9071  -47.2056   -7.3022 O   0  0  0  0  0  0  0  0  0  0  0  0
  -19.2719  -45.9280   -7.0773 C   0  0  0  0  0  0  0  0  0  0  0  0
  -18.7944  -44.8924   -7.8737 C   0  0  0  0  0  0  0  0  0  0  0  0
  -19.1071  -43.5260   -7.7070 C   0  0  0  0  0  0  0  0  0  0  0  0
  -19.9565  -43.1844   -6.6665 C   0  0  0  0  0  0  0  0  0  0  0  0
  -20.4351  -44.1886   -5.8751 C   0  0  0  0  0  0  0  0  0  0  0  0
  -21.2618  -44.2078   -4.6991 N   0  0  0  0  0  0  0  0  0  0  0  0
  -22.5238  -43.6153   -4.3928 C   0  0  0  0  0  0  0  0  0  0  0  0
  -23.5304  -43.6730   -5.5055 C   0  0  0  0  0  0  0  0  0  0  0  0
  -23.3912  -42.6126   -6.5376 C   0  0  0  0  0  0  0  0  0  0  0  0
  -23.1803  -41.2173   -5.9885 C   0  0  0  0  0  0  0  0  0  0  0  0
  -23.3998  -40.2295   -7.1453 C   0  0  0  0  0  0  0  0  0  0  0  0
  -22.3947  -40.3633   -8.2096 C   0  0  0  0  0  0  0  0  0  0  0  0
  -21.3927  -39.2423   -8.2941 C   0  0  0  0  0  0  0  0  0  0  0  0
  -20.3796  -39.4957   -9.4009 C   0  0  1  0  0  0  0  0  0  0  0  0
  -20.8160  -38.6193  -10.6021 C   0  0  0  0  0  0  0  0  0  0  0  0
  -19.0016  -39.0627   -9.0655 C   0  0  0  0  0  0  0  0  0  0  0  0
  -17.9683  -40.1437   -8.7733 C   0  0  2  0  0  0  0  0  0  0  0  0
  -18.4503  -41.4210   -9.2330 N   0  0  0  0  0  0  0  0  0  0  0  0
  -18.4393  -42.7016   -8.7092 C   0  0  0  0  0  0  0  0  0  0  0  0
  -17.4519  -43.3662   -9.4039 O   0  0  0  0  0  0  0  0  0  0  0  0
  -17.6300  -40.0317   -7.3255 C   0  0  2  0  0  0  0  0  0  0  0  0
  -18.3864  -39.1629   -6.5845 O   0  0  0  0  0  0  0  0  0  0  0  0
  -16.2189  -40.1240   -6.9356 C   0  0  0  0  0  0  0  0  0  0  0  0
  -15.2071  -40.6742   -7.7230 N   0  0  0  0  0  0  0  0  0  0  0  0
  -15.0745  -40.1993   -9.0495 C   0  0  0  0  0  0  0  0  0  0  0  0
  -14.5983  -38.7978   -9.1190 C   0  0  0  0  0  0  0  0  0  0  0  0
  -15.1331  -37.9447  -10.0441 C   0  0  0  0  0  0  0  0  0  0  0  0
  -14.7559  -36.6398  -10.1819 C   0  0  0  0  0  0  0  0  0  0  0  0
  -13.7698  -36.1508   -9.3293 C   0  0  0  0  0  0  0  0  0  0  0  0
  -13.2126  -36.9794   -8.3899 C   0  0  0  0  0  0  0  0  0  0  0  0
  -13.6324  -38.3216   -8.2827 C   0  0  0  0  0  0  0  0  0  0  0  0
  -15.3547  -35.7991  -11.2352 C   0  0  0  0  0  0  0  0  0  0  0  0
  -15.6708  -36.7449  -12.3881 C   0  0  0  0  0  0  0  0  0  0  0  0
  -14.4852  -34.6764  -11.7064 C   0  0  0  0  0  0  0  0  0  0  0  0
  -20.0712  -45.5089   -6.1201 N   0  0  0  0  0  0  0  0  0  0  0  0
  1  2  1  0
  2  3  1  0
  3  4  2  0
  4  5  1  0
  5  6  2  0
  6  7  1  0
  7  8  1  0
  8  9  1  0
  9 10  1  0
 10 11  1  0
 11 12  1  0
 12 13  1  0
 13 14  1  0
 14 15  1  0
 15 16  1  0
 16 17  1  6
 16 18  1  0
 19 18  1  1
 19 20  1  0
 20 21  1  0
 21 22  2  0
 19 23  1  0
 23 24  1  6
 23 25  1  0
 25 26  1  0
 26 27  1  0
 27 28  1  0
 28 29  2  0
 29 30  1  0
 30 31  2  0
 31 32  1  0
 32 33  2  0
 30 34  1  0
 34 35  1  0
 34 36  1  0
  7 37  2  0
 21  5  1  0
 33 28  1  0
 37  3  1  0
M  END
$$$$
