
     RDKit          3D

 37 39  0  0  0  0  0  0  0  0999 V2000
  -19.1390  -47.5605   -7.9409 C   0  0  0  0  0  0  0  0  0  0  0  0
  -19.4014  -46.3192   -8.3544 O   0  0  0  0  0  0  0  0  0  0  0  0
  -19.4618  -45.0865   -7.8132 C   0  0  0  0  0  0  0  0  0  0  0  0
  -18.9795  -43.9757   -8.4973 C   0  0  0  0  0  0  0  0  0  0  0  0
  -18.9859  -42.6517   -8.0079 C   0  0  0  0  0  0  0  0  0  0  0  0
  -19.5126  -42.4371   -6.7441 C   0  0  0  0  0  0  0  0  0  0  0  0
  -19.9913  -43.5165   -6.0587 C   0  0  0  0  0  0  0  0  0  0  0  0
  -20.5353  -43.6836   -4.7384 N   0  0  0  0  0  0  0  0  0  0  0  0
  -21.5675  -43.0047   -4.0234 C   0  0  0  0  0  0  0  0  0  0  0  0
  -22.7814  -42.6700   -4.8413 C   0  0  0  0  0  0  0  0  0  0  0  0
  -22.6690  -41.4351   -5.6608 C   0  0  0  0  0  0  0  0  0  0  0  0
  -22.0862  -40.2421   -4.9328 C   0  0  0  0  0  0  0  0  0  0  0  0
  -22.3580  -38.9991   -5.7949 C   0  0  0  0  0  0  0  0  0  0  0  0
  -21.6479  -39.0296   -7.0816 C   0  0  0  0  0  0  0  0  0  0  0  0
  -20.4942  -38.0694   -7.2038 C   0  0  0  0  0  0  0  0  0  0  0  0
  -19.8082  -38.2069   -8.5550 C   0  0  1  0  0  0  0  0  0  0  0  0
  -20.3184  -37.0311   -9.4260 C   0  0  0  0  0  0  0  0  0  0  0  0
  -18.3340  -38.0570   -8.4989 C   0  0  0  0  0  0  0  0  0  0  0  0
  -17.4849  -39.3093   -8.6786 C   0  0  2  0  0  0  0  0  0  0  0  0
  -18.2861  -40.3707   -9.2322 N   0  0  0  0  0  0  0  0  0  0  0  0
  -18.4050  -41.7249   -8.9742 C   0  0  0  0  0  0  0  0  0  0  0  0
  -17.7328  -42.3477  -10.0035 O   0  0  0  0  0  0  0  0  0  0  0  0
  -16.8295  -39.5735   -7.3656 C   0  0  2  0  0  0  0  0  0  0  0  0
  -16.6533  -38.4948   -6.5402 O   0  0  0  0  0  0  0  0  0  0  0  0
  -15.7662  -40.5827   -7.3139 C   0  0  0  0  0  0  0  0  0  0  0  0
  -14.4757  -40.4098   -7.8153 N   0  0  0  0  0  0  0  0  0  0  0  0
  -14.1471  -39.1471   -8.3635 C   0  0  0  0  0  0  0  0  0  0  0  0
  -13.7008  -39.2257   -9.7744 C   0  0  0  0  0  0  0  0  0  0  0  0
  -13.2627  -38.0978  -10.4111 C   0  0  0  0  0  0  0  0  0  0  0  0
  -12.8349  -38.0747  -11.7074 C   0  0  0  0  0  0  0  0  0  0  0  0
  -12.8453  -39.2704  -12.4207 C   0  0  0  0  0  0  0  0  0  0  0  0
  -13.2783  -40.4201  -11.8123 C   0  0  0  0  0  0  0  0  0  0  0  0
  -13.7122  -40.3980  -10.4705 C   0  0  0  0  0  0  0  0  0  0  0  0
  -12.4178  -36.8052  -12.3311 C   0  0  0  0  0  0  0  0  0  0  0  0
  -10.9867  -37.0293  -12.8060 C   0  0  0  0  0  0  0  0  0  0  0  0
  -12.4860  -35.6145  -11.4277 C   0  0  0  0  0  0  0  0  0  0  0  0
  -19.9439  -44.7856   -6.6267 N   0  0  0  0  0  0  0  0  0  0  0  0
  1  2  1  0
  2  3  1  0
  3  4  2  0
  4  5  1  0
  5  6  2  0
  6  7  1  0
  7  8  1  0
  8  9  1  0
  9 10  1  0
 10 11  1  0
 11 12  1  0
 12 13  1  0
 13 14  1  0
 14 15  1  0
 15 16  1  0
 16 17  1  6
 16 18  1  0
 19 18  1  1
 19 20  1  0
 20 21  1  0
 21 22  2  0
 19 23  1  0
 23 24  1  6
 23 25  1  0
 25 26  1  0
 26 27  1  0
 27 28  1  0
 28 29  2  0
 29 30  1  0
 30 31  2  0
 31 32  1  0
 32 33  2  0
 30 34  1  0
 34 35  1  0
 34 36  1  0
  7 37  2  0
 21  5  1  0
 33 28  1  0
 37  3  1  0
M  END
$$$$
