
     RDKit          3D

 37 39  0  0  0  0  0  0  0  0999 V2000
  -19.1346  -37.9739  -15.3981 C   0  0  0  0  0  0  0  0  0  0  0  0
  -18.7775  -38.4841  -14.2179 O   0  0  0  0  0  0  0  0  0  0  0  0
  -17.8440  -38.2439  -13.2761 C   0  0  0  0  0  0  0  0  0  0  0  0
  -17.4778  -39.2237  -12.3594 C   0  0  0  0  0  0  0  0  0  0  0  0
  -16.5242  -39.0615  -11.3313 C   0  0  0  0  0  0  0  0  0  0  0  0
  -15.9017  -37.8282  -11.2220 C   0  0  0  0  0  0  0  0  0  0  0  0
  -16.2488  -36.8549  -12.1143 C   0  0  0  0  0  0  0  0  0  0  0  0
  -15.8725  -35.4755  -12.2643 N   0  0  0  0  0  0  0  0  0  0  0  0
  -14.6070  -34.8177  -12.3207 C   0  0  0  0  0  0  0  0  0  0  0  0
  -13.5627  -35.5347  -13.1270 C   0  0  0  0  0  0  0  0  0  0  0  0
  -12.8545  -36.6284  -12.4118 C   0  0  0  0  0  0  0  0  0  0  0  0
  -12.3981  -36.2783  -11.0112 C   0  0  0  0  0  0  0  0  0  0  0  0
  -11.4105  -37.3675  -10.5633 C   0  0  0  0  0  0  0  0  0  0  0  0
  -12.0401  -38.6888  -10.4271 C   0  0  0  0  0  0  0  0  0  0  0  0
  -12.2194  -39.1744   -9.0129 C   0  0  0  0  0  0  0  0  0  0  0  0
  -12.9102  -40.5299   -8.9829 C   0  0  1  0  0  0  0  0  0  0  0  0
  -11.7977  -41.5824   -8.7460 C   0  0  0  0  0  0  0  0  0  0  0  0
  -13.8654  -40.6933   -7.8606 C   0  0  0  0  0  0  0  0  0  0  0  0
  -15.3538  -40.6777   -8.1861 C   0  0  2  0  0  0  0  0  0  0  0  0
  -15.5491  -40.8635   -9.6011 N   0  0  0  0  0  0  0  0  0  0  0  0
  -16.3770  -40.2824  -10.5452 C   0  0  0  0  0  0  0  0  0  0  0  0
  -17.3681  -41.2119  -10.7757 O   0  0  0  0  0  0  0  0  0  0  0  0
  -15.9097  -39.4308   -7.5865 C   0  0  2  0  0  0  0  0  0  0  0  0
  -15.2034  -38.8814   -6.5495 O   0  0  0  0  0  0  0  0  0  0  0  0
  -17.3675  -39.2994   -7.4911 C   0  0  0  0  0  0  0  0  0  0  0  0
  -18.0513  -38.0959   -7.3166 N   0  0  0  0  0  0  0  0  0  0  0  0
  -19.1711  -38.0954   -6.4513 C   0  0  0  0  0  0  0  0  0  0  0  0
  -20.3551  -38.7694   -7.0344 C   0  0  0  0  0  0  0  0  0  0  0  0
  -21.1772  -39.5109   -6.2320 C   0  0  0  0  0  0  0  0  0  0  0  0
  -22.2872  -40.1668   -6.6808 C   0  0  0  0  0  0  0  0  0  0  0  0
  -22.5992  -40.0734   -8.0345 C   0  0  0  0  0  0  0  0  0  0  0  0
  -21.7960  -39.3377   -8.8670 C   0  0  0  0  0  0  0  0  0  0  0  0
  -20.6580  -38.6762   -8.3604 C   0  0  0  0  0  0  0  0  0  0  0  0
  -23.0967  -40.9801   -5.7545 C   0  0  0  0  0  0  0  0  0  0  0  0
  -22.8060  -40.4319   -4.3621 C   0  0  0  0  0  0  0  0  0  0  0  0
  -22.8150  -42.4487   -5.8050 C   0  0  0  0  0  0  0  0  0  0  0  0
  -17.2000  -37.1108  -13.0968 N   0  0  0  0  0  0  0  0  0  0  0  0
  1  2  1  0
  2  3  1  0
  3  4  2  0
  4  5  1  0
  5  6  2  0
  6  7  1  0
  7  8  1  0
  8  9  1  0
  9 10  1  0
 10 11  1  0
 11 12  1  0
 12 13  1  0
 13 14  1  0
 14 15  1  0
 15 16  1  0
 16 17  1  1
 16 18  1  0
 19 18  1  6
 19 20  1  0
 20 21  1  0
 21 22  2  0
 19 23  1  0
 23 24  1  1
 23 25  1  0
 25 26  1  0
 26 27  1  0
 27 28  1  0
 28 29  2  0
 29 30  1  0
 30 31  2  0
 31 32  1  0
 32 33  2  0
 30 34  1  0
 34 35  1  0
 34 36  1  0
  7 37  2  0
 21  5  1  0
 33 28  1  0
 37  3  1  0
M  END
$$$$
