
     RDKit          3D

 37 39  0  0  0  0  0  0  0  0999 V2000
  -18.0956  -47.4855   -8.7650 C   0  0  0  0  0  0  0  0  0  0  0  0
  -18.4876  -46.2530   -9.0933 O   0  0  0  0  0  0  0  0  0  0  0  0
  -18.6837  -45.0758   -8.4673 C   0  0  0  0  0  0  0  0  0  0  0  0
  -18.6110  -43.8716   -9.1594 C   0  0  0  0  0  0  0  0  0  0  0  0
  -18.7864  -42.5924   -8.5891 C   0  0  0  0  0  0  0  0  0  0  0  0
  -19.0510  -42.5264   -7.2303 C   0  0  0  0  0  0  0  0  0  0  0  0
  -19.1266  -43.6991   -6.5354 C   0  0  0  0  0  0  0  0  0  0  0  0
  -19.3148  -44.0103   -5.1445 N   0  0  0  0  0  0  0  0  0  0  0  0
  -20.2806  -43.5912   -4.1805 C   0  0  0  0  0  0  0  0  0  0  0  0
  -21.6889  -43.5151   -4.6958 C   0  0  0  0  0  0  0  0  0  0  0  0
  -22.0245  -42.2686   -5.4325 C   0  0  0  0  0  0  0  0  0  0  0  0
  -21.5584  -40.9923   -4.7642 C   0  0  0  0  0  0  0  0  0  0  0  0
  -22.2710  -39.8218   -5.4600 C   0  0  0  0  0  0  0  0  0  0  0  0
  -21.8757  -39.6673   -6.8674 C   0  0  0  0  0  0  0  0  0  0  0  0
  -21.0069  -38.4740   -7.1654 C   0  0  0  0  0  0  0  0  0  0  0  0
  -20.6264  -38.4278   -8.6379 C   0  0  1  0  0  0  0  0  0  0  0  0
  -21.5537  -37.3751   -9.2963 C   0  0  0  0  0  0  0  0  0  0  0  0
  -19.2422  -37.9576   -8.8869 C   0  0  0  0  0  0  0  0  0  0  0  0
  -18.2107  -38.9877   -9.3299 C   0  0  2  0  0  0  0  0  0  0  0  0
  -18.8734  -40.1876   -9.7726 N   0  0  0  0  0  0  0  0  0  0  0  0
  -18.6441  -41.5398   -9.5901 C   0  0  0  0  0  0  0  0  0  0  0  0
  -18.1028  -41.9769  -10.7797 O   0  0  0  0  0  0  0  0  0  0  0  0
  -17.2383  -39.1289   -8.2084 C   0  0  2  0  0  0  0  0  0  0  0  0
  -17.1509  -38.0761   -7.3366 O   0  0  0  0  0  0  0  0  0  0  0  0
  -15.9781  -39.8326   -8.4699 C   0  0  0  0  0  0  0  0  0  0  0  0
  -14.9121  -39.9215   -7.5741 N   0  0  0  0  0  0  0  0  0  0  0  0
  -13.6983  -40.4724   -8.0492 C   0  0  0  0  0  0  0  0  0  0  0  0
  -13.3362  -39.9957   -9.4048 C   0  0  0  0  0  0  0  0  0  0  0  0
  -13.2072  -38.6551   -9.6404 C   0  0  0  0  0  0  0  0  0  0  0  0
  -12.8788  -38.1252  -10.8551 C   0  0  0  0  0  0  0  0  0  0  0  0
  -12.6623  -39.0028  -11.9141 C   0  0  0  0  0  0  0  0  0  0  0  0
  -12.7832  -40.3533  -11.7123 C   0  0  0  0  0  0  0  0  0  0  0  0
  -13.1248  -40.8574  -10.4400 C   0  0  0  0  0  0  0  0  0  0  0  0
  -12.8016  -36.6634  -11.0333 C   0  0  0  0  0  0  0  0  0  0  0  0
  -11.9654  -36.1491   -9.8671 C   0  0  0  0  0  0  0  0  0  0  0  0
  -14.1262  -35.9688  -11.0701 C   0  0  0  0  0  0  0  0  0  0  0  0
  -18.9412  -44.9141   -7.1873 N   0  0  0  0  0  0  0  0  0  0  0  0
  1  2  1  0
  2  3  1  0
  3  4  2  0
  4  5  1  0
  5  6  2  0
  6  7  1  0
  7  8  1  0
  8  9  1  0
  9 10  1  0
 10 11  1  0
 11 12  1  0
 12 13  1  0
 13 14  1  0
 14 15  1  0
 15 16  1  0
 16 17  1  6
 16 18  1  0
 19 18  1  1
 19 20  1  0
 20 21  1  0
 21 22  2  0
 19 23  1  0
 23 24  1  6
 23 25  1  0
 25 26  1  0
 26 27  1  0
 27 28  1  0
 28 29  2  0
 29 30  1  0
 30 31  2  0
 31 32  1  0
 32 33  2  0
 30 34  1  0
 34 35  1  0
 34 36  1  0
  7 37  2  0
 21  5  1  0
 33 28  1  0
 37  3  1  0
M  END
$$$$
