
     RDKit          3D

 37 39  0  0  0  0  0  0  0  0999 V2000
  -13.4556  -44.3826  -11.2975 C   0  0  0  0  0  0  0  0  0  0  0  0
  -14.5820  -43.8067  -11.7220 O   0  0  0  0  0  0  0  0  0  0  0  0
  -15.3248  -42.7285  -11.4029 C   0  0  0  0  0  0  0  0  0  0  0  0
  -15.2143  -42.1217  -10.1563 C   0  0  0  0  0  0  0  0  0  0  0  0
  -15.9582  -41.0015   -9.7268 C   0  0  0  0  0  0  0  0  0  0  0  0
  -16.8744  -40.4607  -10.6149 C   0  0  0  0  0  0  0  0  0  0  0  0
  -16.9953  -41.0436  -11.8436 C   0  0  0  0  0  0  0  0  0  0  0  0
  -17.8597  -40.8045  -12.9672 N   0  0  0  0  0  0  0  0  0  0  0  0
  -18.1932  -39.6249  -13.6986 C   0  0  0  0  0  0  0  0  0  0  0  0
  -17.0362  -38.7073  -13.9704 C   0  0  0  0  0  0  0  0  0  0  0  0
  -16.6771  -37.7966  -12.8519 C   0  0  0  0  0  0  0  0  0  0  0  0
  -17.8530  -37.1043  -12.1957 C   0  0  0  0  0  0  0  0  0  0  0  0
  -17.2911  -35.9724  -11.3210 C   0  0  0  0  0  0  0  0  0  0  0  0
  -16.4800  -36.4662  -10.1988 C   0  0  0  0  0  0  0  0  0  0  0  0
  -17.1127  -36.3328   -8.8387 C   0  0  0  0  0  0  0  0  0  0  0  0
  -16.2093  -36.9045   -7.7561 C   0  0  1  0  0  0  0  0  0  0  0  0
  -15.5190  -35.6939   -7.0783 C   0  0  0  0  0  0  0  0  0  0  0  0
  -16.9387  -37.6101   -6.6749 C   0  0  0  0  0  0  0  0  0  0  0  0
  -16.8488  -39.1305   -6.6316 C   0  0  2  0  0  0  0  0  0  0  0  0
  -15.7604  -39.5820   -7.4603 N   0  0  0  0  0  0  0  0  0  0  0  0
  -15.6016  -40.6168   -8.3648 C   0  0  0  0  0  0  0  0  0  0  0  0
  -14.8523  -41.5637   -7.7005 O   0  0  0  0  0  0  0  0  0  0  0  0
  -18.2075  -39.6487   -6.9613 C   0  0  2  0  0  0  0  0  0  0  0  0
  -19.2658  -38.8381   -6.6470 O   0  0  0  0  0  0  0  0  0  0  0  0
  -18.4539  -41.0871   -6.8130 C   0  0  0  0  0  0  0  0  0  0  0  0
  -19.6458  -41.7317   -7.1453 N   0  0  0  0  0  0  0  0  0  0  0  0
  -20.1773  -42.6532   -6.2120 C   0  0  0  0  0  0  0  0  0  0  0  0
  -21.2500  -42.0728   -5.3703 C   0  0  0  0  0  0  0  0  0  0  0  0
  -21.1562  -42.1428   -4.0081 C   0  0  0  0  0  0  0  0  0  0  0  0
  -22.0950  -41.6382   -3.1548 C   0  0  0  0  0  0  0  0  0  0  0  0
  -23.2118  -41.0155   -3.7058 C   0  0  0  0  0  0  0  0  0  0  0  0
  -23.3371  -40.9278   -5.0681 C   0  0  0  0  0  0  0  0  0  0  0  0
  -22.3426  -41.4636   -5.9127 C   0  0  0  0  0  0  0  0  0  0  0  0
  -21.9363  -41.7939   -1.6970 C   0  0  0  0  0  0  0  0  0  0  0  0
  -20.7420  -40.9262   -1.3169 C   0  0  0  0  0  0  0  0  0  0  0  0
  -21.7229  -43.2024   -1.2398 C   0  0  0  0  0  0  0  0  0  0  0  0
  -16.2147  -42.1459  -12.1771 N   0  0  0  0  0  0  0  0  0  0  0  0
  1  2  1  0
  2  3  1  0
  3  4  2  0
  4  5  1  0
  5  6  2  0
  6  7  1  0
  7  8  1  0
  8  9  1  0
  9 10  1  0
 10 11  1  0
 11 12  1  0
 12 13  1  0
 13 14  1  0
 14 15  1  0
 15 16  1  0
 16 17  1  1
 16 18  1  0
 19 18  1  6
 19 20  1  0
 20 21  1  0
 21 22  2  0
 19 23  1  0
 23 24  1  1
 23 25  1  0
 25 26  1  0
 26 27  1  0
 27 28  1  0
 28 29  2  0
 29 30  1  0
 30 31  2  0
 31 32  1  0
 32 33  2  0
 30 34  1  0
 34 35  1  0
 34 36  1  0
  7 37  2  0
 21  5  1  0
 33 28  1  0
 37  3  1  0
M  END
$$$$
