
     RDKit          3D

 37 39  0  0  0  0  0  0  0  0999 V2000
  -13.1614  -40.9359   -6.7797 C   0  0  0  0  0  0  0  0  0  0  0  0
  -14.1709  -41.4544   -7.4816 O   0  0  0  0  0  0  0  0  0  0  0  0
  -15.5136  -41.3447   -7.5153 C   0  0  0  0  0  0  0  0  0  0  0  0
  -16.2660  -42.0076   -8.4791 C   0  0  0  0  0  0  0  0  0  0  0  0
  -17.6706  -41.9421   -8.6031 C   0  0  0  0  0  0  0  0  0  0  0  0
  -18.3590  -41.1539   -7.6946 C   0  0  0  0  0  0  0  0  0  0  0  0
  -17.6361  -40.4965   -6.7411 C   0  0  0  0  0  0  0  0  0  0  0  0
  -17.9894  -39.5669   -5.7028 N   0  0  0  0  0  0  0  0  0  0  0  0
  -18.9756  -39.5963   -4.6713 C   0  0  0  0  0  0  0  0  0  0  0  0
  -19.1335  -40.9262   -3.9922 C   0  0  0  0  0  0  0  0  0  0  0  0
  -19.9937  -41.9028   -4.7101 C   0  0  0  0  0  0  0  0  0  0  0  0
  -21.2966  -41.3356   -5.2330 C   0  0  0  0  0  0  0  0  0  0  0  0
  -22.1896  -42.5225   -5.6280 C   0  0  0  0  0  0  0  0  0  0  0  0
  -21.6461  -43.2971   -6.7529 C   0  0  0  0  0  0  0  0  0  0  0  0
  -22.3809  -43.1399   -8.0580 C   0  0  0  0  0  0  0  0  0  0  0  0
  -21.7179  -43.9521   -9.1609 C   0  0  1  0  0  0  0  0  0  0  0  0
  -22.5699  -45.2353   -9.3313 C   0  0  0  0  0  0  0  0  0  0  0  0
  -21.7241  -43.2853  -10.4853 C   0  0  0  0  0  0  0  0  0  0  0  0
  -20.4052  -42.7285  -11.0069 C   0  0  2  0  0  0  0  0  0  0  0  0
  -19.3076  -43.2790  -10.2538 N   0  0  0  0  0  0  0  0  0  0  0  0
  -18.1442  -42.7536   -9.7200 C   0  0  0  0  0  0  0  0  0  0  0  0
  -17.1399  -43.1684  -10.5677 O   0  0  0  0  0  0  0  0  0  0  0  0
  -20.5408  -41.2436  -11.0139 C   0  0  2  0  0  0  0  0  0  0  0  0
  -21.6058  -40.7220  -10.3286 O   0  0  0  0  0  0  0  0  0  0  0  0
  -20.1652  -40.5205  -12.2335 C   0  0  0  0  0  0  0  0  0  0  0  0
  -18.8699  -40.4359  -12.7451 N   0  0  0  0  0  0  0  0  0  0  0  0
  -18.4350  -39.1792  -13.2293 C   0  0  0  0  0  0  0  0  0  0  0  0
  -18.8508  -38.0492  -12.3656 C   0  0  0  0  0  0  0  0  0  0  0  0
  -17.9034  -37.3086  -11.7148 C   0  0  0  0  0  0  0  0  0  0  0  0
  -18.1927  -36.2528  -10.8990 C   0  0  0  0  0  0  0  0  0  0  0  0
  -19.5308  -35.9114  -10.7212 C   0  0  0  0  0  0  0  0  0  0  0  0
  -20.5061  -36.6331  -11.3592 C   0  0  0  0  0  0  0  0  0  0  0  0
  -20.1619  -37.7173  -12.1933 C   0  0  0  0  0  0  0  0  0  0  0  0
  -17.1112  -35.5330  -10.2012 C   0  0  0  0  0  0  0  0  0  0  0  0
  -15.8233  -36.2549  -10.5806 C   0  0  0  0  0  0  0  0  0  0  0  0
  -17.2578  -35.4774   -8.7133 C   0  0  0  0  0  0  0  0  0  0  0  0
  -16.2515  -40.6254   -6.6975 N   0  0  0  0  0  0  0  0  0  0  0  0
  1  2  1  0
  2  3  1  0
  3  4  2  0
  4  5  1  0
  5  6  2  0
  6  7  1  0
  7  8  1  0
  8  9  1  0
  9 10  1  0
 10 11  1  0
 11 12  1  0
 12 13  1  0
 13 14  1  0
 14 15  1  0
 15 16  1  0
 16 17  1  6
 16 18  1  0
 19 18  1  1
 19 20  1  0
 20 21  1  0
 21 22  2  0
 19 23  1  0
 23 24  1  6
 23 25  1  0
 25 26  1  0
 26 27  1  0
 27 28  1  0
 28 29  2  0
 29 30  1  0
 30 31  2  0
 31 32  1  0
 32 33  2  0
 30 34  1  0
 34 35  1  0
 34 36  1  0
  7 37  2  0
 21  5  1  0
 33 28  1  0
 37  3  1  0
M  END
$$$$
