
     RDKit          3D

 37 39  0  0  0  0  0  0  0  0999 V2000
  -18.3125  -47.2547  -10.0013 C   0  0  0  0  0  0  0  0  0  0  0  0
  -18.0382  -46.1088   -9.3750 O   0  0  0  0  0  0  0  0  0  0  0  0
  -18.1050  -44.7905   -9.6465 C   0  0  0  0  0  0  0  0  0  0  0  0
  -17.3551  -43.8680   -8.9245 C   0  0  0  0  0  0  0  0  0  0  0  0
  -17.3697  -42.4709   -9.1253 C   0  0  0  0  0  0  0  0  0  0  0  0
  -18.1975  -41.9740  -10.1196 C   0  0  0  0  0  0  0  0  0  0  0  0
  -18.9402  -42.8657  -10.8386 C   0  0  0  0  0  0  0  0  0  0  0  0
  -19.9280  -42.7181  -11.8728 N   0  0  0  0  0  0  0  0  0  0  0  0
  -19.9400  -41.9967  -13.1045 C   0  0  0  0  0  0  0  0  0  0  0  0
  -18.6558  -42.0586  -13.8802 C   0  0  0  0  0  0  0  0  0  0  0  0
  -17.6067  -41.1018  -13.4408 C   0  0  0  0  0  0  0  0  0  0  0  0
  -18.0973  -39.6895  -13.2006 C   0  0  0  0  0  0  0  0  0  0  0  0
  -16.8598  -38.7842  -13.0949 C   0  0  0  0  0  0  0  0  0  0  0  0
  -16.0265  -39.0900  -11.9232 C   0  0  0  0  0  0  0  0  0  0  0  0
  -16.0714  -38.0695  -10.8167 C   0  0  0  0  0  0  0  0  0  0  0  0
  -15.2056  -38.4982   -9.6411 C   0  0  1  0  0  0  0  0  0  0  0  0
  -13.8887  -37.6886   -9.7497 C   0  0  0  0  0  0  0  0  0  0  0  0
  -15.7794  -38.1588   -8.3165 C   0  0  0  0  0  0  0  0  0  0  0  0
  -16.3383  -39.2968   -7.4714 C   0  0  2  0  0  0  0  0  0  0  0  0
  -15.8741  -40.5614   -7.9816 N   0  0  0  0  0  0  0  0  0  0  0  0
  -16.4696  -41.7912   -8.1990 C   0  0  0  0  0  0  0  0  0  0  0  0
  -16.0278  -42.5923   -7.1683 O   0  0  0  0  0  0  0  0  0  0  0  0
  -17.8145  -39.0964   -7.4069 C   0  0  2  0  0  0  0  0  0  0  0  0
  -18.2744  -37.8351   -7.6781 O   0  0  0  0  0  0  0  0  0  0  0  0
  -18.5686  -39.8329   -6.3869 C   0  0  0  0  0  0  0  0  0  0  0  0
  -18.2756  -39.8345   -5.0228 N   0  0  0  0  0  0  0  0  0  0  0  0
  -18.5492  -41.0157   -4.2930 C   0  0  0  0  0  0  0  0  0  0  0  0
  -19.9851  -41.1740   -3.9627 C   0  0  0  0  0  0  0  0  0  0  0  0
  -20.9321  -40.5871   -4.7552 C   0  0  0  0  0  0  0  0  0  0  0  0
  -22.2753  -40.6775   -4.5278 C   0  0  0  0  0  0  0  0  0  0  0  0
  -22.7038  -41.4111   -3.4248 C   0  0  0  0  0  0  0  0  0  0  0  0
  -21.7804  -42.0128   -2.6095 C   0  0  0  0  0  0  0  0  0  0  0  0
  -20.4017  -41.8930   -2.8817 C   0  0  0  0  0  0  0  0  0  0  0  0
  -23.2283  -39.9778   -5.4093 C   0  0  0  0  0  0  0  0  0  0  0  0
  -23.3576  -40.8505   -6.6525 C   0  0  0  0  0  0  0  0  0  0  0  0
  -22.8226  -38.5885   -5.7886 C   0  0  0  0  0  0  0  0  0  0  0  0
  -18.8563  -44.2279  -10.5683 N   0  0  0  0  0  0  0  0  0  0  0  0
  1  2  1  0
  2  3  1  0
  3  4  2  0
  4  5  1  0
  5  6  2  0
  6  7  1  0
  7  8  1  0
  8  9  1  0
  9 10  1  0
 10 11  1  0
 11 12  1  0
 12 13  1  0
 13 14  1  0
 14 15  1  0
 15 16  1  0
 16 17  1  6
 16 18  1  0
 19 18  1  6
 19 20  1  0
 20 21  1  0
 21 22  2  0
 19 23  1  0
 23 24  1  1
 23 25  1  0
 25 26  1  0
 26 27  1  0
 27 28  1  0
 28 29  2  0
 29 30  1  0
 30 31  2  0
 31 32  1  0
 32 33  2  0
 30 34  1  0
 34 35  1  0
 34 36  1  0
  7 37  2  0
 21  5  1  0
 33 28  1  0
 37  3  1  0
M  END
$$$$
