
     RDKit          3D

 37 39  0  0  0  0  0  0  0  0999 V2000
  -21.1588  -38.7980   -4.1896 C   0  0  0  0  0  0  0  0  0  0  0  0
  -19.8462  -38.8720   -4.4185 O   0  0  0  0  0  0  0  0  0  0  0  0
  -19.0352  -39.1053   -5.4692 C   0  0  0  0  0  0  0  0  0  0  0  0
  -19.3679  -38.6668   -6.7465 C   0  0  0  0  0  0  0  0  0  0  0  0
  -18.5923  -38.8757   -7.9072 C   0  0  0  0  0  0  0  0  0  0  0  0
  -17.4039  -39.5748   -7.7677 C   0  0  0  0  0  0  0  0  0  0  0  0
  -17.0614  -40.0121   -6.5205 C   0  0  0  0  0  0  0  0  0  0  0  0
  -15.9693  -40.8006   -6.0179 N   0  0  0  0  0  0  0  0  0  0  0  0
  -14.5535  -40.7029   -6.1709 C   0  0  0  0  0  0  0  0  0  0  0  0
  -14.0103  -39.3047   -6.1031 C   0  0  0  0  0  0  0  0  0  0  0  0
  -14.1041  -38.5295   -7.3678 C   0  0  0  0  0  0  0  0  0  0  0  0
  -13.6712  -39.2840   -8.6073 C   0  0  0  0  0  0  0  0  0  0  0  0
  -13.5055  -38.2557   -9.7375 C   0  0  0  0  0  0  0  0  0  0  0  0
  -14.7730  -37.6160  -10.1184 C   0  0  0  0  0  0  0  0  0  0  0  0
  -15.3306  -38.0350  -11.4531 C   0  0  0  0  0  0  0  0  0  0  0  0
  -16.6571  -37.3442  -11.7336 C   0  0  1  0  0  0  0  0  0  0  0  0
  -16.3471  -36.1832  -12.7122 C   0  0  0  0  0  0  0  0  0  0  0  0
  -17.6473  -38.2027  -12.4273 C   0  0  0  0  0  0  0  0  0  0  0  0
  -18.8351  -38.7121  -11.6205 C   0  0  2  0  0  0  0  0  0  0  0  0
  -18.9598  -37.9575  -10.3998 N   0  0  0  0  0  0  0  0  0  0  0  0
  -19.2270  -38.2894   -9.0835 C   0  0  0  0  0  0  0  0  0  0  0  0
  -20.5388  -37.9202   -8.8784 O   0  0  0  0  0  0  0  0  0  0  0  0
  -18.6604  -40.1869  -11.4868 C   0  0  2  0  0  0  0  0  0  0  0  0
  -17.5838  -40.7375  -12.1302 O   0  0  0  0  0  0  0  0  0  0  0  0
  -19.8633  -41.0253  -11.4476 C   0  0  0  0  0  0  0  0  0  0  0  0
  -19.9044  -42.3425  -10.9894 N   0  0  0  0  0  0  0  0  0  0  0  0
  -21.1760  -42.9379  -10.8128 C   0  0  0  0  0  0  0  0  0  0  0  0
  -22.0544  -42.1697   -9.8994 C   0  0  0  0  0  0  0  0  0  0  0  0
  -21.9725  -42.3723   -8.5497 C   0  0  0  0  0  0  0  0  0  0  0  0
  -22.7412  -41.7127   -7.6343 C   0  0  0  0  0  0  0  0  0  0  0  0
  -23.6609  -40.7791   -8.1044 C   0  0  0  0  0  0  0  0  0  0  0  0
  -23.7687  -40.5513   -9.4519 C   0  0  0  0  0  0  0  0  0  0  0  0
  -22.9542  -41.2561  -10.3626 C   0  0  0  0  0  0  0  0  0  0  0  0
  -22.6183  -42.0223   -6.1977 C   0  0  0  0  0  0  0  0  0  0  0  0
  -21.5623  -41.0646   -5.6580 C   0  0  0  0  0  0  0  0  0  0  0  0
  -22.2405  -43.4380   -5.8949 C   0  0  0  0  0  0  0  0  0  0  0  0
  -17.8917  -39.7548   -5.4342 N   0  0  0  0  0  0  0  0  0  0  0  0
  1  2  1  0
  2  3  1  0
  3  4  2  0
  4  5  1  0
  5  6  2  0
  6  7  1  0
  7  8  1  0
  8  9  1  0
  9 10  1  0
 10 11  1  0
 11 12  1  0
 12 13  1  0
 13 14  1  0
 14 15  1  0
 15 16  1  0
 16 17  1  6
 16 18  1  0
 19 18  1  1
 19 20  1  0
 20 21  1  0
 21 22  2  0
 19 23  1  0
 23 24  1  6
 23 25  1  0
 25 26  1  0
 26 27  1  0
 27 28  1  0
 28 29  2  0
 29 30  1  0
 30 31  2  0
 31 32  1  0
 32 33  2  0
 30 34  1  0
 34 35  1  0
 34 36  1  0
  7 37  2  0
 21  5  1  0
 33 28  1  0
 37  3  1  0
M  END
$$$$
