
     RDKit          3D

 37 39  0  0  0  0  0  0  0  0999 V2000
  -17.7815  -45.0789  -12.6751 C   0  0  0  0  0  0  0  0  0  0  0  0
  -17.0158  -44.4399  -11.7884 O   0  0  0  0  0  0  0  0  0  0  0  0
  -16.6298  -43.1721  -11.5442 C   0  0  0  0  0  0  0  0  0  0  0  0
  -15.9514  -42.8384  -10.3767 C   0  0  0  0  0  0  0  0  0  0  0  0
  -15.5212  -41.5403  -10.0273 C   0  0  0  0  0  0  0  0  0  0  0  0
  -15.7961  -40.5123  -10.9153 C   0  0  0  0  0  0  0  0  0  0  0  0
  -16.4607  -40.8222  -12.0669 C   0  0  0  0  0  0  0  0  0  0  0  0
  -16.9601  -40.0326  -13.1597 N   0  0  0  0  0  0  0  0  0  0  0  0
  -16.3587  -39.0409  -13.9918 C   0  0  0  0  0  0  0  0  0  0  0  0
  -14.9543  -39.3515  -14.4229 C   0  0  0  0  0  0  0  0  0  0  0  0
  -13.9010  -39.0181  -13.4286 C   0  0  0  0  0  0  0  0  0  0  0  0
  -14.0456  -37.6553  -12.7848 C   0  0  0  0  0  0  0  0  0  0  0  0
  -12.7229  -37.3428  -12.0671 C   0  0  0  0  0  0  0  0  0  0  0  0
  -12.4519  -38.2540  -10.9459 C   0  0  0  0  0  0  0  0  0  0  0  0
  -12.5943  -37.6483   -9.5745 C   0  0  0  0  0  0  0  0  0  0  0  0
  -12.3285  -38.6814   -8.4894 C   0  0  1  0  0  0  0  0  0  0  0  0
  -10.8871  -38.4222   -7.9826 C   0  0  0  0  0  0  0  0  0  0  0  0
  -13.2045  -38.5442   -7.3008 C   0  0  0  0  0  0  0  0  0  0  0  0
  -14.3010  -39.5833   -7.1023 C   0  0  2  0  0  0  0  0  0  0  0  0
  -14.0488  -40.7292   -7.9379 N   0  0  0  0  0  0  0  0  0  0  0  0
  -14.8420  -41.5349   -8.7355 C   0  0  0  0  0  0  0  0  0  0  0  0
  -15.0091  -42.6993   -8.0175 O   0  0  0  0  0  0  0  0  0  0  0  0
  -15.5996  -38.8776   -7.2994 C   0  0  2  0  0  0  0  0  0  0  0  0
  -15.6055  -37.5278   -7.0666 O   0  0  0  0  0  0  0  0  0  0  0  0
  -16.8326  -39.5824   -6.9322 C   0  0  0  0  0  0  0  0  0  0  0  0
  -18.0983  -39.2978   -7.4454 N   0  0  0  0  0  0  0  0  0  0  0  0
  -19.0222  -38.6470   -6.5935 C   0  0  0  0  0  0  0  0  0  0  0  0
  -20.4261  -39.0487   -6.8455 C   0  0  0  0  0  0  0  0  0  0  0  0
  -21.1310  -39.6990   -5.8709 C   0  0  0  0  0  0  0  0  0  0  0  0
  -22.4258  -40.1075   -6.0140 C   0  0  0  0  0  0  0  0  0  0  0  0
  -23.0643  -39.8450   -7.2232 C   0  0  0  0  0  0  0  0  0  0  0  0
  -22.3865  -39.1946   -8.2216 C   0  0  0  0  0  0  0  0  0  0  0  0
  -21.0488  -38.7904   -8.0306 C   0  0  0  0  0  0  0  0  0  0  0  0
  -23.0995  -40.8410   -4.9264 C   0  0  0  0  0  0  0  0  0  0  0  0
  -23.5312  -42.1717   -5.5318 C   0  0  0  0  0  0  0  0  0  0  0  0
  -24.2763  -40.1332   -4.3325 C   0  0  0  0  0  0  0  0  0  0  0  0
  -16.8428  -42.1348  -12.3249 N   0  0  0  0  0  0  0  0  0  0  0  0
  1  2  1  0
  2  3  1  0
  3  4  2  0
  4  5  1  0
  5  6  2  0
  6  7  1  0
  7  8  1  0
  8  9  1  0
  9 10  1  0
 10 11  1  0
 11 12  1  0
 12 13  1  0
 13 14  1  0
 14 15  1  0
 15 16  1  0
 16 17  1  1
 16 18  1  0
 19 18  1  6
 19 20  1  0
 20 21  1  0
 21 22  2  0
 19 23  1  0
 23 24  1  1
 23 25  1  0
 25 26  1  0
 26 27  1  0
 27 28  1  0
 28 29  2  0
 29 30  1  0
 30 31  2  0
 31 32  1  0
 32 33  2  0
 30 34  1  0
 34 35  1  0
 34 36  1  0
  7 37  2  0
 21  5  1  0
 33 28  1  0
 37  3  1  0
M  END
$$$$
