
     RDKit          3D

 37 39  0  0  0  0  0  0  0  0999 V2000
  -21.0054  -37.8546  -13.4251 C   0  0  0  0  0  0  0  0  0  0  0  0
  -19.8120  -38.4233  -13.2435 O   0  0  0  0  0  0  0  0  0  0  0  0
  -18.6870  -38.1654  -12.5479 C   0  0  0  0  0  0  0  0  0  0  0  0
  -18.2338  -39.0369  -11.5633 C   0  0  0  0  0  0  0  0  0  0  0  0
  -17.0789  -38.8453  -10.7746 C   0  0  0  0  0  0  0  0  0  0  0  0
  -16.3347  -37.6971  -10.9948 C   0  0  0  0  0  0  0  0  0  0  0  0
  -16.7648  -36.8307  -11.9583 C   0  0  0  0  0  0  0  0  0  0  0  0
  -16.3000  -35.5467  -12.4079 N   0  0  0  0  0  0  0  0  0  0  0  0
  -15.0171  -35.0681  -12.8111 C   0  0  0  0  0  0  0  0  0  0  0  0
  -14.2320  -36.0215  -13.6652 C   0  0  0  0  0  0  0  0  0  0  0  0
  -13.4976  -37.0774  -12.9203 C   0  0  0  0  0  0  0  0  0  0  0  0
  -12.7330  -36.5841  -11.7100 C   0  0  0  0  0  0  0  0  0  0  0  0
  -11.7808  -37.7101  -11.2768 C   0  0  0  0  0  0  0  0  0  0  0  0
  -12.4898  -38.9074  -10.8029 C   0  0  0  0  0  0  0  0  0  0  0  0
  -12.4200  -39.1523   -9.3187 C   0  0  0  0  0  0  0  0  0  0  0  0
  -13.2135  -40.3912   -8.9303 C   0  0  1  0  0  0  0  0  0  0  0  0
  -12.1795  -41.5280   -8.7308 C   0  0  0  0  0  0  0  0  0  0  0  0
  -13.9294  -40.2660   -7.6377 C   0  0  0  0  0  0  0  0  0  0  0  0
  -15.4448  -40.1125   -7.6765 C   0  0  2  0  0  0  0  0  0  0  0  0
  -15.9425  -40.4795   -8.9775 N   0  0  0  0  0  0  0  0  0  0  0  0
  -16.8884  -39.9453   -9.8345 C   0  0  0  0  0  0  0  0  0  0  0  0
  -17.9881  -40.7672   -9.7141 O   0  0  0  0  0  0  0  0  0  0  0  0
  -15.7470  -38.7310   -7.2038 C   0  0  2  0  0  0  0  0  0  0  0  0
  -14.6937  -38.0077   -6.7105 O   0  0  0  0  0  0  0  0  0  0  0  0
  -17.0352  -38.4918   -6.5445 C   0  0  0  0  0  0  0  0  0  0  0  0
  -18.2361  -39.1134   -6.8882 N   0  0  0  0  0  0  0  0  0  0  0  0
  -19.3963  -38.7477   -6.1651 C   0  0  0  0  0  0  0  0  0  0  0  0
  -20.6213  -39.4233   -6.6536 C   0  0  0  0  0  0  0  0  0  0  0  0
  -21.2890  -40.2919   -5.8356 C   0  0  0  0  0  0  0  0  0  0  0  0
  -22.4227  -40.9597   -6.1999 C   0  0  0  0  0  0  0  0  0  0  0  0
  -22.9274  -40.7415   -7.4791 C   0  0  0  0  0  0  0  0  0  0  0  0
  -22.2825  -39.8766   -8.3249 C   0  0  0  0  0  0  0  0  0  0  0  0
  -21.1131  -39.2078   -7.9068 C   0  0  0  0  0  0  0  0  0  0  0  0
  -23.0573  -41.9119   -5.2698 C   0  0  0  0  0  0  0  0  0  0  0  0
  -22.5478  -41.5361   -3.8831 C   0  0  0  0  0  0  0  0  0  0  0  0
  -22.7687  -43.3515   -5.5579 C   0  0  0  0  0  0  0  0  0  0  0  0
  -17.9169  -37.1079  -12.6873 N   0  0  0  0  0  0  0  0  0  0  0  0
  1  2  1  0
  2  3  1  0
  3  4  2  0
  4  5  1  0
  5  6  2  0
  6  7  1  0
  7  8  1  0
  8  9  1  0
  9 10  1  0
 10 11  1  0
 11 12  1  0
 12 13  1  0
 13 14  1  0
 14 15  1  0
 15 16  1  0
 16 17  1  1
 16 18  1  0
 19 18  1  6
 19 20  1  0
 20 21  1  0
 21 22  2  0
 19 23  1  0
 23 24  1  1
 23 25  1  0
 25 26  1  0
 26 27  1  0
 27 28  1  0
 28 29  2  0
 29 30  1  0
 30 31  2  0
 31 32  1  0
 32 33  2  0
 30 34  1  0
 34 35  1  0
 34 36  1  0
  7 37  2  0
 21  5  1  0
 33 28  1  0
 37  3  1  0
M  END
$$$$
