
     RDKit          3D

 37 39  0  0  0  0  0  0  0  0999 V2000
  -19.5662  -47.1619   -9.0185 C   0  0  0  0  0  0  0  0  0  0  0  0
  -19.3271  -45.8673   -9.2366 O   0  0  0  0  0  0  0  0  0  0  0  0
  -19.4094  -44.7141   -8.5443 C   0  0  0  0  0  0  0  0  0  0  0  0
  -18.9930  -43.5093   -9.1007 C   0  0  0  0  0  0  0  0  0  0  0  0
  -19.0265  -42.2570   -8.4502 C   0  0  0  0  0  0  0  0  0  0  0  0
  -19.5109  -42.2208   -7.1522 C   0  0  0  0  0  0  0  0  0  0  0  0
  -19.9247  -43.3944   -6.5907 C   0  0  0  0  0  0  0  0  0  0  0  0
  -20.4109  -43.7443   -5.2837 N   0  0  0  0  0  0  0  0  0  0  0  0
  -21.4376  -43.1999   -4.4548 C   0  0  0  0  0  0  0  0  0  0  0  0
  -22.6933  -42.8151   -5.1827 C   0  0  0  0  0  0  0  0  0  0  0  0
  -22.6559  -41.4851   -5.8452 C   0  0  0  0  0  0  0  0  0  0  0  0
  -22.0872  -40.3689   -4.9946 C   0  0  0  0  0  0  0  0  0  0  0  0
  -22.4355  -39.0408   -5.6852 C   0  0  0  0  0  0  0  0  0  0  0  0
  -21.7752  -38.8845   -6.9892 C   0  0  0  0  0  0  0  0  0  0  0  0
  -20.6613  -37.8718   -7.0301 C   0  0  0  0  0  0  0  0  0  0  0  0
  -20.0238  -37.8145   -8.4106 C   0  0  1  0  0  0  0  0  0  0  0  0
  -20.6082  -36.5613   -9.1103 C   0  0  0  0  0  0  0  0  0  0  0  0
  -18.5547  -37.6147   -8.3868 C   0  0  0  0  0  0  0  0  0  0  0  0
  -17.6701  -38.8009   -8.7500 C   0  0  2  0  0  0  0  0  0  0  0  0
  -18.4547  -39.8167   -9.4038 N   0  0  0  0  0  0  0  0  0  0  0  0
  -18.5162  -41.1960   -9.3127 C   0  0  0  0  0  0  0  0  0  0  0  0
  -17.8631  -41.6602  -10.4340 O   0  0  0  0  0  0  0  0  0  0  0  0
  -16.9554  -39.1989   -7.5034 C   0  0  2  0  0  0  0  0  0  0  0  0
  -16.9237  -38.2746   -6.4931 O   0  0  0  0  0  0  0  0  0  0  0  0
  -15.7535  -40.0302   -7.6305 C   0  0  0  0  0  0  0  0  0  0  0  0
  -14.6021  -39.6680   -8.3302 N   0  0  0  0  0  0  0  0  0  0  0  0
  -13.5701  -40.6300   -8.4409 C   0  0  0  0  0  0  0  0  0  0  0  0
  -13.8250  -41.6350   -9.4997 C   0  0  0  0  0  0  0  0  0  0  0  0
  -14.1079  -42.9273   -9.1542 C   0  0  0  0  0  0  0  0  0  0  0  0
  -14.3543  -43.9192  -10.0594 C   0  0  0  0  0  0  0  0  0  0  0  0
  -14.3157  -43.5937  -11.4126 C   0  0  0  0  0  0  0  0  0  0  0  0
  -14.0352  -42.3070  -11.7936 C   0  0  0  0  0  0  0  0  0  0  0  0
  -13.7864  -41.3133  -10.8240 C   0  0  0  0  0  0  0  0  0  0  0  0
  -14.6101  -45.2976   -9.6022 C   0  0  0  0  0  0  0  0  0  0  0  0
  -16.0655  -45.3188   -9.1493 C   0  0  0  0  0  0  0  0  0  0  0  0
  -13.7146  -45.7648   -8.4984 C   0  0  0  0  0  0  0  0  0  0  0  0
  -19.8552  -44.5810   -7.3137 N   0  0  0  0  0  0  0  0  0  0  0  0
  1  2  1  0
  2  3  1  0
  3  4  2  0
  4  5  1  0
  5  6  2  0
  6  7  1  0
  7  8  1  0
  8  9  1  0
  9 10  1  0
 10 11  1  0
 11 12  1  0
 12 13  1  0
 13 14  1  0
 14 15  1  0
 15 16  1  0
 16 17  1  6
 16 18  1  0
 19 18  1  1
 19 20  1  0
 20 21  1  0
 21 22  2  0
 19 23  1  0
 23 24  1  6
 23 25  1  0
 25 26  1  0
 26 27  1  0
 27 28  1  0
 28 29  2  0
 29 30  1  0
 30 31  2  0
 31 32  1  0
 32 33  2  0
 30 34  1  0
 34 35  1  0
 34 36  1  0
  7 37  2  0
 21  5  1  0
 33 28  1  0
 37  3  1  0
M  END
$$$$
