
     RDKit          3D

 39 41  0  0  0  0  0  0  0  0999 V2000
  -18.0753  -40.8663   -0.9947 C   0  0  0  0  0  0  0  0  0  0  0  0
  -19.0418  -41.7131   -1.5120 O   0  0  0  0  0  0  0  0  0  0  0  0
  -18.6748  -42.1500   -2.7515 C   0  0  0  0  0  0  0  0  0  0  0  0
  -19.5615  -41.5959   -3.8088 C   0  0  0  0  0  0  0  0  0  0  0  0
  -20.8644  -41.9854   -3.9536 C   0  0  0  0  0  0  0  0  0  0  0  0
  -21.7408  -41.4695   -4.9457 C   0  0  0  0  0  0  0  0  0  0  0  0
  -21.2486  -40.5088   -5.8289 C   0  0  0  0  0  0  0  0  0  0  0  0
  -19.9352  -40.0900   -5.7152 C   0  0  0  0  0  0  0  0  0  0  0  0
  -19.1228  -40.6590   -4.6883 C   0  0  0  0  0  0  0  0  0  0  0  0
  -19.1354  -39.1217   -6.4699 C   0  0  0  0  0  0  0  0  0  0  0  0
  -18.4137  -38.2390   -5.7960 O   0  0  0  0  0  0  0  0  0  0  0  0
  -18.9496  -38.9094   -7.8670 N   0  0  0  0  0  0  0  0  0  0  0  0
  -18.8729  -39.9776   -8.8592 C   0  0  1  0  0  0  0  0  0  0  0  0
  -20.1730  -40.4311   -9.3555 C   0  0  0  0  0  0  0  0  0  0  0  0
  -20.6028  -40.1848  -10.7556 C   0  0  2  0  0  0  0  0  0  0  0  0
  -20.4649  -38.7718  -11.2347 C   0  0  0  0  0  0  0  0  0  0  0  0
  -22.0618  -40.5501  -10.9311 C   0  0  0  0  0  0  0  0  0  0  0  0
  -22.5028  -41.8069  -10.2907 C   0  0  0  0  0  0  0  0  0  0  0  0
  -23.0998  -41.5201   -8.9490 C   0  0  0  0  0  0  0  0  0  0  0  0
  -24.4005  -42.1797   -8.6491 C   0  0  0  0  0  0  0  0  0  0  0  0
  -24.3952  -42.4805   -7.1670 C   0  0  0  0  0  0  0  0  0  0  0  0
  -24.8291  -41.3499   -6.2957 C   0  0  0  0  0  0  0  0  0  0  0  0
  -24.3578  -41.5847   -4.8806 C   0  0  0  0  0  0  0  0  0  0  0  0
  -23.0115  -42.0935   -4.8169 N   0  0  0  0  0  0  0  0  0  0  0  0
  -17.8340  -39.6644   -9.9146 C   0  0  2  0  0  0  0  0  0  0  0  0
  -17.0272  -40.7482  -10.0742 O   0  0  0  0  0  0  0  0  0  0  0  0
  -17.0153  -38.4907   -9.4374 C   0  0  0  0  0  0  0  0  0  0  0  0
  -16.0879  -38.7239   -8.4080 N   0  0  0  0  0  0  0  0  0  0  0  0
  -15.2770  -37.5983   -8.0789 C   0  0  0  0  0  0  0  0  0  0  0  0
  -15.0487  -36.8304   -9.3566 C   0  0  0  0  0  0  0  0  0  0  0  0
  -14.0598  -37.2058  -10.2344 C   0  0  0  0  0  0  0  0  0  0  0  0
  -13.8497  -36.5130  -11.4033 C   0  0  0  0  0  0  0  0  0  0  0  0
  -14.6395  -35.4352  -11.6915 C   0  0  0  0  0  0  0  0  0  0  0  0
  -15.6465  -35.0490  -10.8025 C   0  0  0  0  0  0  0  0  0  0  0  0
  -15.8363  -35.7520   -9.6484 C   0  0  0  0  0  0  0  0  0  0  0  0
  -16.4368  -33.9439  -11.1258 O   0  0  0  0  0  0  0  0  0  0  0  0
  -16.7540  -32.9610  -10.1573 C   0  0  0  0  0  0  0  0  0  0  0  0
  -12.8559  -36.9011  -12.2715 O   0  0  0  0  0  0  0  0  0  0  0  0
  -11.7582  -36.0697  -12.5355 C   0  0  0  0  0  0  0  0  0  0  0  0
  1  2  1  0
  2  3  1  0
  3  4  1  0
  4  5  2  0
  5  6  1  0
  6  7  2  0
  7  8  1  0
  8  9  2  0
  8 10  1  0
 10 11  2  0
 10 12  1  0
 12 13  1  0
 13 14  1  6
 14 15  1  0
 15 16  1  1
 15 17  1  0
 17 18  1  0
 18 19  1  0
 19 20  1  0
 20 21  1  0
 21 22  1  0
 22 23  1  0
 23 24  1  0
 13 25  1  0
 25 26  1  1
 25 27  1  0
 27 28  1  0
 28 29  1  0
 29 30  1  0
 30 31  2  0
 31 32  1  0
 32 33  2  0
 33 34  1  0
 34 35  2  0
 34 36  1  0
 36 37  1  0
 32 38  1  0
 38 39  1  0
  9  4  1  0
 24  6  1  0
 35 30  1  0
M  END
$$$$
