
     RDKit          3D

 39 41  0  0  0  0  0  0  0  0999 V2000
  -15.6964  -45.3977  -11.4242 C   0  0  0  0  0  0  0  0  0  0  0  0
  -16.9624  -44.8376  -11.3767 O   0  0  0  0  0  0  0  0  0  0  0  0
  -17.7974  -45.6162  -10.6293 C   0  0  0  0  0  0  0  0  0  0  0  0
  -18.4330  -44.8372   -9.5337 C   0  0  0  0  0  0  0  0  0  0  0  0
  -19.7576  -44.9607   -9.2172 C   0  0  0  0  0  0  0  0  0  0  0  0
  -20.3936  -44.2394   -8.1713 C   0  0  0  0  0  0  0  0  0  0  0  0
  -19.6269  -43.3497   -7.4193 C   0  0  0  0  0  0  0  0  0  0  0  0
  -18.2832  -43.1961   -7.7099 C   0  0  0  0  0  0  0  0  0  0  0  0
  -17.7230  -43.9612   -8.7772 C   0  0  0  0  0  0  0  0  0  0  0  0
  -17.2318  -42.3618   -7.1224 C   0  0  0  0  0  0  0  0  0  0  0  0
  -16.0677  -42.9244   -6.8351 O   0  0  0  0  0  0  0  0  0  0  0  0
  -17.1839  -40.9813   -6.7710 N   0  0  0  0  0  0  0  0  0  0  0  0
  -17.8144  -39.9132   -7.5409 C   0  0  1  0  0  0  0  0  0  0  0  0
  -19.2239  -39.6896   -7.2157 C   0  0  0  0  0  0  0  0  0  0  0  0
  -19.6813  -38.4489   -6.5396 C   0  0  2  0  0  0  0  0  0  0  0  0
  -18.9229  -38.0689   -5.3045 C   0  0  0  0  0  0  0  0  0  0  0  0
  -21.1309  -38.5799   -6.1219 C   0  0  0  0  0  0  0  0  0  0  0  0
  -22.0421  -39.1981   -7.1076 C   0  0  0  0  0  0  0  0  0  0  0  0
  -22.1943  -40.6593   -6.8237 C   0  0  0  0  0  0  0  0  0  0  0  0
  -23.5849  -41.1915   -6.8223 C   0  0  0  0  0  0  0  0  0  0  0  0
  -23.5023  -42.6037   -7.3569 C   0  0  0  0  0  0  0  0  0  0  0  0
  -23.1618  -43.6409   -6.3400 C   0  0  0  0  0  0  0  0  0  0  0  0
  -22.6610  -44.8877   -7.0289 C   0  0  0  0  0  0  0  0  0  0  0  0
  -21.7674  -44.6018   -8.1221 N   0  0  0  0  0  0  0  0  0  0  0  0
  -16.9390  -38.6789   -7.5746 C   0  0  2  0  0  0  0  0  0  0  0  0
  -17.7323  -37.5744   -7.5324 O   0  0  0  0  0  0  0  0  0  0  0  0
  -16.1567  -38.6902   -8.8643 C   0  0  0  0  0  0  0  0  0  0  0  0
  -14.7754  -38.9339   -8.7817 N   0  0  0  0  0  0  0  0  0  0  0  0
  -14.1786  -39.3641  -10.0030 C   0  0  0  0  0  0  0  0  0  0  0  0
  -14.0549  -38.1479  -10.8860 C   0  0  0  0  0  0  0  0  0  0  0  0
  -15.1701  -37.5664  -11.4407 C   0  0  0  0  0  0  0  0  0  0  0  0
  -15.0647  -36.4545  -12.2425 C   0  0  0  0  0  0  0  0  0  0  0  0
  -13.8292  -35.9237  -12.4884 C   0  0  0  0  0  0  0  0  0  0  0  0
  -12.6919  -36.5110  -11.9271 C   0  0  0  0  0  0  0  0  0  0  0  0
  -12.8213  -37.6142  -11.1344 C   0  0  0  0  0  0  0  0  0  0  0  0
  -11.4441  -35.9448  -12.1969 O   0  0  0  0  0  0  0  0  0  0  0  0
  -11.1712  -34.5904  -11.8875 C   0  0  0  0  0  0  0  0  0  0  0  0
  -16.1901  -35.8841  -12.7903 O   0  0  0  0  0  0  0  0  0  0  0  0
  -17.3060  -36.6626  -13.1292 C   0  0  0  0  0  0  0  0  0  0  0  0
  1  2  1  0
  2  3  1  0
  3  4  1  0
  4  5  2  0
  5  6  1  0
  6  7  2  0
  7  8  1  0
  8  9  2  0
  8 10  1  0
 10 11  2  0
 10 12  1  0
 12 13  1  0
 13 14  1  1
 14 15  1  0
 15 16  1  1
 15 17  1  0
 17 18  1  0
 18 19  1  0
 19 20  1  0
 20 21  1  0
 21 22  1  0
 22 23  1  0
 23 24  1  0
 13 25  1  0
 25 26  1  6
 25 27  1  0
 27 28  1  0
 28 29  1  0
 29 30  1  0
 30 31  2  0
 31 32  1  0
 32 33  2  0
 33 34  1  0
 34 35  2  0
 34 36  1  0
 36 37  1  0
 32 38  1  0
 38 39  1  0
  9  4  1  0
 24  6  1  0
 35 30  1  0
M  END
$$$$
