
     RDKit          3D

 39 41  0  0  0  0  0  0  0  0999 V2000
  -20.5509  -38.6090  -13.2697 C   0  0  0  0  0  0  0  0  0  0  0  0
  -19.4324  -39.4229  -13.3421 O   0  0  0  0  0  0  0  0  0  0  0  0
  -19.7957  -40.7357  -13.2613 C   0  0  0  0  0  0  0  0  0  0  0  0
  -19.9239  -41.1793  -11.8478 C   0  0  0  0  0  0  0  0  0  0  0  0
  -21.0879  -41.6860  -11.3394 C   0  0  0  0  0  0  0  0  0  0  0  0
  -21.2414  -42.1275   -9.9978 C   0  0  0  0  0  0  0  0  0  0  0  0
  -20.1432  -42.0405   -9.1424 C   0  0  0  0  0  0  0  0  0  0  0  0
  -18.9485  -41.5321   -9.6193 C   0  0  0  0  0  0  0  0  0  0  0  0
  -18.8798  -41.1123  -10.9822 C   0  0  0  0  0  0  0  0  0  0  0  0
  -17.6436  -41.3133   -8.9900 C   0  0  0  0  0  0  0  0  0  0  0  0
  -16.5586  -41.7216   -9.6305 O   0  0  0  0  0  0  0  0  0  0  0  0
  -17.2603  -40.7132   -7.7552 N   0  0  0  0  0  0  0  0  0  0  0  0
  -17.9096  -39.5433   -7.1717 C   0  0  1  0  0  0  0  0  0  0  0  0
  -19.0925  -39.8516   -6.3667 C   0  0  0  0  0  0  0  0  0  0  0  0
  -19.1059  -39.6593   -4.8941 C   0  0  2  0  0  0  0  0  0  0  0  0
  -17.9519  -40.2630   -4.1531 C   0  0  0  0  0  0  0  0  0  0  0  0
  -20.3570  -40.2660   -4.2946 C   0  0  0  0  0  0  0  0  0  0  0  0
  -21.6171  -40.0243   -5.0280 C   0  0  0  0  0  0  0  0  0  0  0  0
  -21.9161  -41.1772   -5.9336 C   0  0  0  0  0  0  0  0  0  0  0  0
  -23.3070  -41.7069   -5.8928 C   0  0  0  0  0  0  0  0  0  0  0  0
  -23.6298  -42.1679   -7.2966 C   0  0  0  0  0  0  0  0  0  0  0  0
  -23.1709  -43.5490   -7.6248 C   0  0  0  0  0  0  0  0  0  0  0  0
  -23.1218  -43.7292   -9.1231 C   0  0  0  0  0  0  0  0  0  0  0  0
  -22.5735  -42.5854   -9.8060 N   0  0  0  0  0  0  0  0  0  0  0  0
  -16.8940  -38.6223   -6.5302 C   0  0  2  0  0  0  0  0  0  0  0  0
  -17.4453  -37.3863   -6.3916 O   0  0  0  0  0  0  0  0  0  0  0  0
  -15.6916  -38.5406   -7.4374 C   0  0  0  0  0  0  0  0  0  0  0  0
  -15.5656  -39.5213   -8.4355 N   0  0  0  0  0  0  0  0  0  0  0  0
  -14.5529  -39.2519   -9.4023 C   0  0  0  0  0  0  0  0  0  0  0  0
  -15.2159  -38.5240  -10.5445 C   0  0  0  0  0  0  0  0  0  0  0  0
  -16.0937  -39.1758  -11.3775 C   0  0  0  0  0  0  0  0  0  0  0  0
  -16.7054  -38.5167  -12.4177 C   0  0  0  0  0  0  0  0  0  0  0  0
  -16.4322  -37.1930  -12.6217 C   0  0  0  0  0  0  0  0  0  0  0  0
  -15.5402  -36.5253  -11.7778 C   0  0  0  0  0  0  0  0  0  0  0  0
  -14.9453  -37.2003  -10.7519 C   0  0  0  0  0  0  0  0  0  0  0  0
  -15.2824  -35.1729  -12.0122 O   0  0  0  0  0  0  0  0  0  0  0  0
  -13.9717  -34.6477  -11.9085 C   0  0  0  0  0  0  0  0  0  0  0  0
  -17.5815  -39.1830  -13.2426 O   0  0  0  0  0  0  0  0  0  0  0  0
  -18.3820  -40.2273  -12.7581 C   0  0  0  0  0  0  0  0  0  0  0  0
  1  2  1  0
  2  3  1  0
  3  4  1  0
  4  5  2  0
  5  6  1  0
  6  7  2  0
  7  8  1  0
  8  9  2  0
  8 10  1  0
 10 11  2  0
 10 12  1  0
 12 13  1  0
 13 14  1  1
 14 15  1  0
 15 16  1  1
 15 17  1  0
 17 18  1  0
 18 19  1  0
 19 20  1  0
 20 21  1  0
 21 22  1  0
 22 23  1  0
 23 24  1  0
 13 25  1  0
 25 26  1  6
 25 27  1  0
 27 28  1  0
 28 29  1  0
 29 30  1  0
 30 31  2  0
 31 32  1  0
 32 33  2  0
 33 34  1  0
 34 35  2  0
 34 36  1  0
 36 37  1  0
 32 38  1  0
 38 39  1  0
  9  4  1  0
 24  6  1  0
 35 30  1  0
M  END
$$$$
