
     RDKit          3D

 39 41  0  0  0  0  0  0  0  0999 V2000
  -18.7540  -45.8510  -11.6982 C   0  0  0  0  0  0  0  0  0  0  0  0
  -17.7908  -46.4915  -10.9360 O   0  0  0  0  0  0  0  0  0  0  0  0
  -17.2841  -45.6389   -9.9987 C   0  0  0  0  0  0  0  0  0  0  0  0
  -16.9204  -44.3267  -10.5962 C   0  0  0  0  0  0  0  0  0  0  0  0
  -15.8257  -44.1632  -11.3993 C   0  0  0  0  0  0  0  0  0  0  0  0
  -15.4556  -42.9268  -11.9935 C   0  0  0  0  0  0  0  0  0  0  0  0
  -16.2516  -41.8087  -11.7457 C   0  0  0  0  0  0  0  0  0  0  0  0
  -17.3669  -41.9337  -10.9372 C   0  0  0  0  0  0  0  0  0  0  0  0
  -17.6680  -43.2138  -10.3811 C   0  0  0  0  0  0  0  0  0  0  0  0
  -18.3810  -40.9739  -10.4930 C   0  0  0  0  0  0  0  0  0  0  0  0
  -19.6567  -41.3187  -10.5817 O   0  0  0  0  0  0  0  0  0  0  0  0
  -18.2878  -39.6610   -9.9461 N   0  0  0  0  0  0  0  0  0  0  0  0
  -17.2497  -39.2285   -9.0154 C   0  0  1  0  0  0  0  0  0  0  0  0
  -16.0153  -38.7769   -9.6596 C   0  0  0  0  0  0  0  0  0  0  0  0
  -15.5901  -37.3545   -9.6206 C   0  0  2  0  0  0  0  0  0  0  0  0
  -16.6347  -36.3567  -10.0187 C   0  0  0  0  0  0  0  0  0  0  0  0
  -14.4154  -37.1298  -10.5492 C   0  0  0  0  0  0  0  0  0  0  0  0
  -13.3574  -38.1614  -10.5266 C   0  0  0  0  0  0  0  0  0  0  0  0
  -13.5822  -39.1548  -11.6228 C   0  0  0  0  0  0  0  0  0  0  0  0
  -12.3965  -39.5028  -12.4534 C   0  0  0  0  0  0  0  0  0  0  0  0
  -12.5546  -40.9575  -12.8352 C   0  0  0  0  0  0  0  0  0  0  0  0
  -13.4020  -41.2021  -14.0386 C   0  0  0  0  0  0  0  0  0  0  0  0
  -13.8640  -42.6394  -14.0552 C   0  0  0  0  0  0  0  0  0  0  0  0
  -14.2701  -43.1112  -12.7560 N   0  0  0  0  0  0  0  0  0  0  0  0
  -17.8188  -38.3082   -7.9569 C   0  0  2  0  0  0  0  0  0  0  0  0
  -16.8033  -37.8595   -7.1705 O   0  0  0  0  0  0  0  0  0  0  0  0
  -18.7948  -39.0976   -7.1204 C   0  0  0  0  0  0  0  0  0  0  0  0
  -20.1156  -39.1986   -7.5889 N   0  0  0  0  0  0  0  0  0  0  0  0
  -20.7335  -40.4598   -7.3432 C   0  0  0  0  0  0  0  0  0  0  0  0
  -21.1129  -40.4883   -5.8839 C   0  0  0  0  0  0  0  0  0  0  0  0
  -21.8648  -39.4775   -5.3340 C   0  0  0  0  0  0  0  0  0  0  0  0
  -22.2183  -39.4999   -4.0054 C   0  0  0  0  0  0  0  0  0  0  0  0
  -21.8128  -40.5460   -3.2245 C   0  0  0  0  0  0  0  0  0  0  0  0
  -21.0480  -41.5764   -3.7785 C   0  0  0  0  0  0  0  0  0  0  0  0
  -20.7094  -41.5325   -5.0997 C   0  0  0  0  0  0  0  0  0  0  0  0
  -20.6497  -42.6313   -2.9546 O   0  0  0  0  0  0  0  0  0  0  0  0
  -21.5675  -43.2698   -2.0858 C   0  0  0  0  0  0  0  0  0  0  0  0
  -22.9711  -38.4809   -3.4698 O   0  0  0  0  0  0  0  0  0  0  0  0
  -22.5604  -37.8081   -2.3102 C   0  0  0  0  0  0  0  0  0  0  0  0
  1  2  1  0
  2  3  1  0
  3  4  1  0
  4  5  2  0
  5  6  1  0
  6  7  2  0
  7  8  1  0
  8  9  2  0
  8 10  1  0
 10 11  2  0
 10 12  1  0
 12 13  1  0
 13 14  1  6
 14 15  1  0
 15 16  1  6
 15 17  1  0
 17 18  1  0
 18 19  1  0
 19 20  1  0
 20 21  1  0
 21 22  1  0
 22 23  1  0
 23 24  1  0
 13 25  1  0
 25 26  1  1
 25 27  1  0
 27 28  1  0
 28 29  1  0
 29 30  1  0
 30 31  2  0
 31 32  1  0
 32 33  2  0
 33 34  1  0
 34 35  2  0
 34 36  1  0
 36 37  1  0
 32 38  1  0
 38 39  1  0
  9  4  1  0
 24  6  1  0
 35 30  1  0
M  END
$$$$
