
     RDKit          3D

 39 41  0  0  0  0  0  0  0  0999 V2000
  -16.7322  -45.8762  -11.2701 C   0  0  0  0  0  0  0  0  0  0  0  0
  -18.0328  -45.7851  -10.8021 O   0  0  0  0  0  0  0  0  0  0  0  0
  -18.0886  -46.1401   -9.4857 C   0  0  0  0  0  0  0  0  0  0  0  0
  -18.6459  -45.0442   -8.6492 C   0  0  0  0  0  0  0  0  0  0  0  0
  -19.9548  -45.0143   -8.2545 C   0  0  0  0  0  0  0  0  0  0  0  0
  -20.5166  -43.9883   -7.4480 C   0  0  0  0  0  0  0  0  0  0  0  0
  -19.6891  -42.9457   -7.0316 C   0  0  0  0  0  0  0  0  0  0  0  0
  -18.3591  -42.9400   -7.4115 C   0  0  0  0  0  0  0  0  0  0  0  0
  -17.8751  -44.0112   -8.2220 C   0  0  0  0  0  0  0  0  0  0  0  0
  -17.2574  -42.0109   -7.1473 C   0  0  0  0  0  0  0  0  0  0  0  0
  -16.0945  -42.5079   -6.7536 O   0  0  0  0  0  0  0  0  0  0  0  0
  -17.1561  -40.5916   -7.2297 N   0  0  0  0  0  0  0  0  0  0  0  0
  -17.7987  -39.7785   -8.2578 C   0  0  1  0  0  0  0  0  0  0  0  0
  -19.1830  -39.4116   -7.9556 C   0  0  0  0  0  0  0  0  0  0  0  0
  -19.5727  -38.0082   -7.6653 C   0  0  2  0  0  0  0  0  0  0  0  0
  -18.7411  -37.3067   -6.6349 C   0  0  0  0  0  0  0  0  0  0  0  0
  -21.0012  -37.9501   -7.1666 C   0  0  0  0  0  0  0  0  0  0  0  0
  -21.9782  -38.7979   -7.8812 C   0  0  0  0  0  0  0  0  0  0  0  0
  -22.1525  -40.0999   -7.1648 C   0  0  0  0  0  0  0  0  0  0  0  0
  -23.5542  -40.5512   -6.9445 C   0  0  0  0  0  0  0  0  0  0  0  0
  -23.5357  -42.0608   -7.0326 C   0  0  0  0  0  0  0  0  0  0  0  0
  -23.1689  -42.7590   -5.7661 C   0  0  0  0  0  0  0  0  0  0  0  0
  -22.7368  -44.1738   -6.0686 C   0  0  0  0  0  0  0  0  0  0  0  0
  -21.8947  -44.2640   -7.2340 N   0  0  0  0  0  0  0  0  0  0  0  0
  -16.8951  -38.6468   -8.6983 C   0  0  2  0  0  0  0  0  0  0  0  0
  -17.5732  -37.8563   -9.5736 O   0  0  0  0  0  0  0  0  0  0  0  0
  -15.6914  -39.2436   -9.3843 C   0  0  0  0  0  0  0  0  0  0  0  0
  -14.7272  -39.8668   -8.5744 N   0  0  0  0  0  0  0  0  0  0  0  0
  -13.6808  -40.5136   -9.2951 C   0  0  0  0  0  0  0  0  0  0  0  0
  -13.6970  -39.9527  -10.6948 C   0  0  0  0  0  0  0  0  0  0  0  0
  -13.2046  -38.6956  -10.9533 C   0  0  0  0  0  0  0  0  0  0  0  0
  -13.2119  -38.1803  -12.2280 C   0  0  0  0  0  0  0  0  0  0  0  0
  -13.7180  -38.9342  -13.2498 C   0  0  0  0  0  0  0  0  0  0  0  0
  -14.2202  -40.2129  -12.9925 C   0  0  0  0  0  0  0  0  0  0  0  0
  -14.2024  -40.7034  -11.7192 C   0  0  0  0  0  0  0  0  0  0  0  0
  -14.7300  -40.9584  -14.0578 O   0  0  0  0  0  0  0  0  0  0  0  0
  -14.1508  -40.8846  -15.3477 C   0  0  0  0  0  0  0  0  0  0  0  0
  -12.7155  -36.9206  -12.4706 O   0  0  0  0  0  0  0  0  0  0  0  0
  -11.5206  -36.4859  -11.8797 C   0  0  0  0  0  0  0  0  0  0  0  0
  1  2  1  0
  2  3  1  0
  3  4  1  0
  4  5  2  0
  5  6  1  0
  6  7  2  0
  7  8  1  0
  8  9  2  0
  8 10  1  0
 10 11  2  0
 10 12  1  0
 12 13  1  0
 13 14  1  1
 14 15  1  0
 15 16  1  1
 15 17  1  0
 17 18  1  0
 18 19  1  0
 19 20  1  0
 20 21  1  0
 21 22  1  0
 22 23  1  0
 23 24  1  0
 13 25  1  0
 25 26  1  6
 25 27  1  0
 27 28  1  0
 28 29  1  0
 29 30  1  0
 30 31  2  0
 31 32  1  0
 32 33  2  0
 33 34  1  0
 34 35  2  0
 34 36  1  0
 36 37  1  0
 32 38  1  0
 38 39  1  0
  9  4  1  0
 24  6  1  0
 35 30  1  0
M  END
$$$$
