
     RDKit          3D

 39 41  0  0  0  0  0  0  0  0999 V2000
  -16.0637  -46.8927  -10.7530 C   0  0  0  0  0  0  0  0  0  0  0  0
  -16.9804  -46.6224   -9.7503 O   0  0  0  0  0  0  0  0  0  0  0  0
  -18.0237  -45.8954  -10.2454 C   0  0  0  0  0  0  0  0  0  0  0  0
  -18.6198  -45.0186   -9.2028 C   0  0  0  0  0  0  0  0  0  0  0  0
  -19.9167  -45.1472   -8.7884 C   0  0  0  0  0  0  0  0  0  0  0  0
  -20.5141  -44.3333   -7.7887 C   0  0  0  0  0  0  0  0  0  0  0  0
  -19.7371  -43.3411   -7.1911 C   0  0  0  0  0  0  0  0  0  0  0  0
  -18.4208  -43.1792   -7.5845 C   0  0  0  0  0  0  0  0  0  0  0  0
  -17.8986  -44.0414   -8.5956 C   0  0  0  0  0  0  0  0  0  0  0  0
  -17.3679  -42.2517   -7.1628 C   0  0  0  0  0  0  0  0  0  0  0  0
  -16.1675  -42.7418   -6.8924 O   0  0  0  0  0  0  0  0  0  0  0  0
  -17.3515  -40.8397   -6.9693 N   0  0  0  0  0  0  0  0  0  0  0  0
  -18.0689  -39.8851   -7.8090 C   0  0  1  0  0  0  0  0  0  0  0  0
  -19.4632  -39.6706   -7.4186 C   0  0  0  0  0  0  0  0  0  0  0  0
  -19.9252  -38.3767   -6.8546 C   0  0  2  0  0  0  0  0  0  0  0  0
  -19.1071  -37.8369   -5.7213 C   0  0  0  0  0  0  0  0  0  0  0  0
  -21.3401  -38.5053   -6.3307 C   0  0  0  0  0  0  0  0  0  0  0  0
  -22.2861  -39.2585   -7.1804 C   0  0  0  0  0  0  0  0  0  0  0  0
  -22.3642  -40.6826   -6.7280 C   0  0  0  0  0  0  0  0  0  0  0  0
  -23.7306  -41.2545   -6.5767 C   0  0  0  0  0  0  0  0  0  0  0  0
  -23.6270  -42.7145   -6.9569 C   0  0  0  0  0  0  0  0  0  0  0  0
  -23.1847  -43.6198   -5.8566 C   0  0  0  0  0  0  0  0  0  0  0  0
  -22.6800  -44.9198   -6.4355 C   0  0  0  0  0  0  0  0  0  0  0  0
  -21.8672  -44.7306   -7.6098 N   0  0  0  0  0  0  0  0  0  0  0  0
  -17.2453  -38.6355   -8.0358 C   0  0  2  0  0  0  0  0  0  0  0  0
  -17.9010  -37.8285   -8.9132 O   0  0  0  0  0  0  0  0  0  0  0  0
  -15.9172  -39.0456   -8.6218 C   0  0  0  0  0  0  0  0  0  0  0  0
  -14.7559  -38.5729   -7.9877 N   0  0  0  0  0  0  0  0  0  0  0  0
  -13.5398  -39.0900   -8.5229 C   0  0  0  0  0  0  0  0  0  0  0  0
  -13.6519  -39.0153  -10.0250 C   0  0  0  0  0  0  0  0  0  0  0  0
  -13.6506  -37.8013  -10.6697 C   0  0  0  0  0  0  0  0  0  0  0  0
  -13.7475  -37.7264  -12.0392 C   0  0  0  0  0  0  0  0  0  0  0  0
  -13.8465  -38.8803  -12.7653 C   0  0  0  0  0  0  0  0  0  0  0  0
  -13.8485  -40.1174  -12.1149 C   0  0  0  0  0  0  0  0  0  0  0  0
  -13.7512  -40.1668  -10.7546 C   0  0  0  0  0  0  0  0  0  0  0  0
  -13.9505  -41.2780  -12.8849 O   0  0  0  0  0  0  0  0  0  0  0  0
  -15.2038  -41.8925  -13.1223 C   0  0  0  0  0  0  0  0  0  0  0  0
  -13.7448  -36.5039  -12.6697 O   0  0  0  0  0  0  0  0  0  0  0  0
  -13.2059  -35.3685  -12.0480 C   0  0  0  0  0  0  0  0  0  0  0  0
  1  2  1  0
  2  3  1  0
  3  4  1  0
  4  5  2  0
  5  6  1  0
  6  7  2  0
  7  8  1  0
  8  9  2  0
  8 10  1  0
 10 11  2  0
 10 12  1  0
 12 13  1  0
 13 14  1  1
 14 15  1  0
 15 16  1  1
 15 17  1  0
 17 18  1  0
 18 19  1  0
 19 20  1  0
 20 21  1  0
 21 22  1  0
 22 23  1  0
 23 24  1  0
 13 25  1  0
 25 26  1  6
 25 27  1  0
 27 28  1  0
 28 29  1  0
 29 30  1  0
 30 31  2  0
 31 32  1  0
 32 33  2  0
 33 34  1  0
 34 35  2  0
 34 36  1  0
 36 37  1  0
 32 38  1  0
 38 39  1  0
  9  4  1  0
 24  6  1  0
 35 30  1  0
M  END
$$$$
