
     RDKit          3D

 39 41  0  0  0  0  0  0  0  0999 V2000
  -23.8986  -44.7797   -8.7722 C   0  0  0  0  0  0  0  0  0  0  0  0
  -22.9570  -43.8123   -8.4617 O   0  0  0  0  0  0  0  0  0  0  0  0
  -22.1175  -43.6117   -9.5186 C   0  0  0  0  0  0  0  0  0  0  0  0
  -21.7409  -42.1792   -9.6507 C   0  0  0  0  0  0  0  0  0  0  0  0
  -21.9410  -41.4703  -10.8029 C   0  0  0  0  0  0  0  0  0  0  0  0
  -21.6022  -40.0994  -10.9594 C   0  0  0  0  0  0  0  0  0  0  0  0
  -21.0297  -39.4312   -9.8773 C   0  0  0  0  0  0  0  0  0  0  0  0
  -20.8103  -40.1147   -8.6949 C   0  0  0  0  0  0  0  0  0  0  0  0
  -21.1820  -41.4913   -8.6221 C   0  0  0  0  0  0  0  0  0  0  0  0
  -20.2396  -39.7094   -7.4078 C   0  0  0  0  0  0  0  0  0  0  0  0
  -20.8858  -40.0401   -6.2999 O   0  0  0  0  0  0  0  0  0  0  0  0
  -19.0584  -38.9899   -7.0638 N   0  0  0  0  0  0  0  0  0  0  0  0
  -17.7833  -39.1179   -7.7629 C   0  0  1  0  0  0  0  0  0  0  0  0
  -17.6579  -38.2642   -8.9452 C   0  0  0  0  0  0  0  0  0  0  0  0
  -16.7087  -37.1227   -8.9863 C   0  0  2  0  0  0  0  0  0  0  0  0
  -16.7785  -36.1821   -7.8220 C   0  0  0  0  0  0  0  0  0  0  0  0
  -16.9478  -36.2826  -10.2232 C   0  0  0  0  0  0  0  0  0  0  0  0
  -17.1836  -37.0225  -11.4807 C   0  0  0  0  0  0  0  0  0  0  0  0
  -18.6525  -37.1688  -11.7252 C   0  0  0  0  0  0  0  0  0  0  0  0
  -19.1306  -36.8410  -13.0966 C   0  0  0  0  0  0  0  0  0  0  0  0
  -20.2824  -37.7782  -13.3829 C   0  0  0  0  0  0  0  0  0  0  0  0
  -21.6065  -37.3202  -12.8700 C   0  0  0  0  0  0  0  0  0  0  0  0
  -22.5579  -38.4901  -12.7934 C   0  0  0  0  0  0  0  0  0  0  0  0
  -21.9367  -39.6829  -12.2768 N   0  0  0  0  0  0  0  0  0  0  0  0
  -16.6243  -39.0757   -6.7902 C   0  0  2  0  0  0  0  0  0  0  0  0
  -15.4589  -39.1247   -7.4905 O   0  0  0  0  0  0  0  0  0  0  0  0
  -16.7221  -40.2799   -5.8870 C   0  0  0  0  0  0  0  0  0  0  0  0
  -17.9081  -40.4434   -5.1517 N   0  0  0  0  0  0  0  0  0  0  0  0
  -18.4278  -41.7710   -5.1585 C   0  0  0  0  0  0  0  0  0  0  0  0
  -19.9315  -41.6562   -5.1521 C   0  0  0  0  0  0  0  0  0  0  0  0
  -20.5697  -40.8416   -4.2474 C   0  0  0  0  0  0  0  0  0  0  0  0
  -21.9400  -40.7286   -4.2396 C   0  0  0  0  0  0  0  0  0  0  0  0
  -22.6735  -41.4398   -5.1477 C   0  0  0  0  0  0  0  0  0  0  0  0
  -22.0297  -42.2697   -6.0698 C   0  0  0  0  0  0  0  0  0  0  0  0
  -20.6685  -42.3658   -6.0586 C   0  0  0  0  0  0  0  0  0  0  0  0
  -22.8071  -42.9828   -6.9850 O   0  0  0  0  0  0  0  0  0  0  0  0
  -22.6778  -42.7706   -8.3789 C   0  0  0  0  0  0  0  0  0  0  0  0
  -22.5640  -39.9092   -3.3278 O   0  0  0  0  0  0  0  0  0  0  0  0
  -23.7907  -40.2679   -2.7510 C   0  0  0  0  0  0  0  0  0  0  0  0
  1  2  1  0
  2  3  1  0
  3  4  1  0
  4  5  2  0
  5  6  1  0
  6  7  2  0
  7  8  1  0
  8  9  2  0
  8 10  1  0
 10 11  2  0
 10 12  1  0
 12 13  1  0
 13 14  1  6
 14 15  1  0
 15 16  1  1
 15 17  1  0
 17 18  1  0
 18 19  1  0
 19 20  1  0
 20 21  1  0
 21 22  1  0
 22 23  1  0
 23 24  1  0
 13 25  1  0
 25 26  1  6
 25 27  1  0
 27 28  1  0
 28 29  1  0
 29 30  1  0
 30 31  2  0
 31 32  1  0
 32 33  2  0
 33 34  1  0
 34 35  2  0
 34 36  1  0
 36 37  1  0
 32 38  1  0
 38 39  1  0
  9  4  1  0
 24  6  1  0
 35 30  1  0
M  END
$$$$
