
     RDKit          3D

 39 41  0  0  0  0  0  0  0  0999 V2000
  -17.3036  -48.3790   -7.6268 C   0  0  0  0  0  0  0  0  0  0  0  0
  -17.4738  -47.0885   -7.1528 O   0  0  0  0  0  0  0  0  0  0  0  0
  -18.0799  -46.3127   -8.0976 C   0  0  0  0  0  0  0  0  0  0  0  0
  -18.6319  -45.0653   -7.5057 C   0  0  0  0  0  0  0  0  0  0  0  0
  -19.8703  -45.0115   -6.9282 C   0  0  0  0  0  0  0  0  0  0  0  0
  -20.4233  -43.8397   -6.3454 C   0  0  0  0  0  0  0  0  0  0  0  0
  -19.6631  -42.6705   -6.3609 C   0  0  0  0  0  0  0  0  0  0  0  0
  -18.4057  -42.6846   -6.9372 C   0  0  0  0  0  0  0  0  0  0  0  0
  -17.9251  -43.9059   -7.4993 C   0  0  0  0  0  0  0  0  0  0  0  0
  -17.3841  -41.6488   -7.1112 C   0  0  0  0  0  0  0  0  0  0  0  0
  -16.1319  -41.9387   -6.7914 O   0  0  0  0  0  0  0  0  0  0  0  0
  -17.4475  -40.3059   -7.5846 N   0  0  0  0  0  0  0  0  0  0  0  0
  -18.3078  -39.8570   -8.6752 C   0  0  1  0  0  0  0  0  0  0  0  0
  -19.6691  -39.5113   -8.2635 C   0  0  0  0  0  0  0  0  0  0  0  0
  -20.1635  -38.1114   -8.2995 C   0  0  2  0  0  0  0  0  0  0  0  0
  -19.2790  -37.0967   -7.6413 C   0  0  0  0  0  0  0  0  0  0  0  0
  -21.5085  -38.0094   -7.6115 C   0  0  0  0  0  0  0  0  0  0  0  0
  -22.4775  -39.0853   -7.9072 C   0  0  0  0  0  0  0  0  0  0  0  0
  -22.4119  -40.1430   -6.8509 C   0  0  0  0  0  0  0  0  0  0  0  0
  -23.7140  -40.6050   -6.2959 C   0  0  0  0  0  0  0  0  0  0  0  0
  -23.5462  -42.0744   -5.9797 C   0  0  0  0  0  0  0  0  0  0  0  0
  -22.9373  -42.3645   -4.6489 C   0  0  0  0  0  0  0  0  0  0  0  0
  -22.4017  -43.7760   -4.6283 C   0  0  0  0  0  0  0  0  0  0  0  0
  -21.7217  -44.1338   -5.8469 N   0  0  0  0  0  0  0  0  0  0  0  0
  -17.5991  -38.8375   -9.5410 C   0  0  2  0  0  0  0  0  0  0  0  0
  -17.5834  -39.2848  -10.8258 O   0  0  0  0  0  0  0  0  0  0  0  0
  -16.1841  -38.6936   -9.0386 C   0  0  0  0  0  0  0  0  0  0  0  0
  -15.3490  -39.8204   -9.1236 N   0  0  0  0  0  0  0  0  0  0  0  0
  -14.9191  -40.1373  -10.4455 C   0  0  0  0  0  0  0  0  0  0  0  0
  -14.0333  -39.0063  -10.9043 C   0  0  0  0  0  0  0  0  0  0  0  0
  -14.4755  -37.7056  -10.8598 C   0  0  0  0  0  0  0  0  0  0  0  0
  -13.6711  -36.6694  -11.2719 C   0  0  0  0  0  0  0  0  0  0  0  0
  -12.4134  -36.9432  -11.7322 C   0  0  0  0  0  0  0  0  0  0  0  0
  -11.9588  -38.2641  -11.7797 C   0  0  0  0  0  0  0  0  0  0  0  0
  -12.7751  -39.2760  -11.3653 C   0  0  0  0  0  0  0  0  0  0  0  0
  -10.6688  -38.5110  -12.2545 O   0  0  0  0  0  0  0  0  0  0  0  0
  -10.2507  -39.8204  -12.5940 C   0  0  0  0  0  0  0  0  0  0  0  0
  -14.1281  -35.3730  -11.2213 O   0  0  0  0  0  0  0  0  0  0  0  0
  -13.2557  -34.2893  -11.3961 C   0  0  0  0  0  0  0  0  0  0  0  0
  1  2  1  0
  2  3  1  0
  3  4  1  0
  4  5  2  0
  5  6  1  0
  6  7  2  0
  7  8  1  0
  8  9  2  0
  8 10  1  0
 10 11  2  0
 10 12  1  0
 12 13  1  0
 13 14  1  1
 14 15  1  0
 15 16  1  1
 15 17  1  0
 17 18  1  0
 18 19  1  0
 19 20  1  0
 20 21  1  0
 21 22  1  0
 22 23  1  0
 23 24  1  0
 13 25  1  0
 25 26  1  6
 25 27  1  0
 27 28  1  0
 28 29  1  0
 29 30  1  0
 30 31  2  0
 31 32  1  0
 32 33  2  0
 33 34  1  0
 34 35  2  0
 34 36  1  0
 36 37  1  0
 32 38  1  0
 38 39  1  0
  9  4  1  0
 24  6  1  0
 35 30  1  0
M  END
$$$$
