
     RDKit          3D

 39 41  0  0  0  0  0  0  0  0999 V2000
  -23.1577  -40.6052  -13.8328 C   0  0  0  0  0  0  0  0  0  0  0  0
  -22.6317  -40.7383  -12.5583 O   0  0  0  0  0  0  0  0  0  0  0  0
  -22.2389  -42.0267  -12.3399 C   0  0  0  0  0  0  0  0  0  0  0  0
  -21.8103  -42.2341  -10.9312 C   0  0  0  0  0  0  0  0  0  0  0  0
  -22.6210  -42.8133   -9.9944 C   0  0  0  0  0  0  0  0  0  0  0  0
  -22.2396  -43.0348   -8.6438 C   0  0  0  0  0  0  0  0  0  0  0  0
  -20.9638  -42.6391   -8.2426 C   0  0  0  0  0  0  0  0  0  0  0  0
  -20.1149  -42.0484   -9.1612 C   0  0  0  0  0  0  0  0  0  0  0  0
  -20.5772  -41.8642  -10.4994 C   0  0  0  0  0  0  0  0  0  0  0  0
  -18.7474  -41.5325   -9.0574 C   0  0  0  0  0  0  0  0  0  0  0  0
  -17.8709  -41.8789   -9.9879 O   0  0  0  0  0  0  0  0  0  0  0  0
  -18.1116  -40.6783   -8.1100 N   0  0  0  0  0  0  0  0  0  0  0  0
  -18.7553  -39.5352   -7.4697 C   0  0  1  0  0  0  0  0  0  0  0  0
  -19.5265  -39.8729   -6.2723 C   0  0  0  0  0  0  0  0  0  0  0  0
  -19.0991  -39.4339   -4.9195 C   0  0  2  0  0  0  0  0  0  0  0  0
  -17.6714  -39.7222   -4.5676 C   0  0  0  0  0  0  0  0  0  0  0  0
  -19.9408  -40.1077   -3.8562 C   0  0  0  0  0  0  0  0  0  0  0  0
  -21.3921  -40.1863   -4.1237 C   0  0  0  0  0  0  0  0  0  0  0  0
  -21.7332  -41.5096   -4.7332 C   0  0  0  0  0  0  0  0  0  0  0  0
  -22.9008  -42.2255   -4.1492 C   0  0  0  0  0  0  0  0  0  0  0  0
  -23.5633  -42.9642   -5.2904 C   0  0  0  0  0  0  0  0  0  0  0  0
  -22.9708  -44.2973   -5.6030 C   0  0  0  0  0  0  0  0  0  0  0  0
  -23.3760  -44.7237   -6.9937 C   0  0  0  0  0  0  0  0  0  0  0  0
  -23.3181  -43.6460   -7.9479 N   0  0  0  0  0  0  0  0  0  0  0  0
  -17.7911  -38.3767   -7.3310 C   0  0  2  0  0  0  0  0  0  0  0  0
  -18.4934  -37.2120   -7.3657 O   0  0  0  0  0  0  0  0  0  0  0  0
  -16.8293  -38.4216   -8.4922 C   0  0  0  0  0  0  0  0  0  0  0  0
  -17.0556  -37.5315   -9.5555 N   0  0  0  0  0  0  0  0  0  0  0  0
  -15.9802  -37.4402  -10.4871 C   0  0  0  0  0  0  0  0  0  0  0  0
  -16.3479  -38.2993  -11.6708 C   0  0  0  0  0  0  0  0  0  0  0  0
  -17.6461  -38.7069  -11.8664 C   0  0  0  0  0  0  0  0  0  0  0  0
  -17.9888  -39.4860  -12.9461 C   0  0  0  0  0  0  0  0  0  0  0  0
  -17.0195  -39.8579  -13.8353 C   0  0  0  0  0  0  0  0  0  0  0  0
  -15.6980  -39.4464  -13.6413 C   0  0  0  0  0  0  0  0  0  0  0  0
  -15.3816  -38.6733  -12.5622 C   0  0  0  0  0  0  0  0  0  0  0  0
  -14.7309  -39.8425  -14.5676 O   0  0  0  0  0  0  0  0  0  0  0  0
  -13.4454  -40.2646  -14.1505 C   0  0  0  0  0  0  0  0  0  0  0  0
  -19.2923  -39.8859  -13.1280 O   0  0  0  0  0  0  0  0  0  0  0  0
  -20.3534  -38.9778  -13.0040 C   0  0  0  0  0  0  0  0  0  0  0  0
  1  2  1  0
  2  3  1  0
  3  4  1  0
  4  5  2  0
  5  6  1  0
  6  7  2  0
  7  8  1  0
  8  9  2  0
  8 10  1  0
 10 11  2  0
 10 12  1  0
 12 13  1  0
 13 14  1  1
 14 15  1  0
 15 16  1  1
 15 17  1  0
 17 18  1  0
 18 19  1  0
 19 20  1  0
 20 21  1  0
 21 22  1  0
 22 23  1  0
 23 24  1  0
 13 25  1  0
 25 26  1  6
 25 27  1  0
 27 28  1  0
 28 29  1  0
 29 30  1  0
 30 31  2  0
 31 32  1  0
 32 33  2  0
 33 34  1  0
 34 35  2  0
 34 36  1  0
 36 37  1  0
 32 38  1  0
 38 39  1  0
  9  4  1  0
 24  6  1  0
 35 30  1  0
M  END
$$$$
