
     RDKit          3D

 39 41  0  0  0  0  0  0  0  0999 V2000
  -20.9902  -45.9267  -12.4251 C   0  0  0  0  0  0  0  0  0  0  0  0
  -20.8919  -44.5699  -12.1637 O   0  0  0  0  0  0  0  0  0  0  0  0
  -19.7271  -44.2971  -11.5073 C   0  0  0  0  0  0  0  0  0  0  0  0
  -19.9824  -43.7945  -10.1312 C   0  0  0  0  0  0  0  0  0  0  0  0
  -21.1864  -43.9537   -9.5025 C   0  0  0  0  0  0  0  0  0  0  0  0
  -21.4603  -43.4948   -8.1860 C   0  0  0  0  0  0  0  0  0  0  0  0
  -20.4451  -42.8409   -7.4882 C   0  0  0  0  0  0  0  0  0  0  0  0
  -19.2134  -42.6595   -8.0910 C   0  0  0  0  0  0  0  0  0  0  0  0
  -19.0219  -43.1534   -9.4169 C   0  0  0  0  0  0  0  0  0  0  0  0
  -17.9721  -42.0270   -7.6374 C   0  0  0  0  0  0  0  0  0  0  0  0
  -16.8318  -42.6768   -7.8160 O   0  0  0  0  0  0  0  0  0  0  0  0
  -17.7050  -40.7780   -7.0048 N   0  0  0  0  0  0  0  0  0  0  0  0
  -18.4087  -39.5350   -7.3064 C   0  0  1  0  0  0  0  0  0  0  0  0
  -19.6591  -39.3577   -6.5666 C   0  0  0  0  0  0  0  0  0  0  0  0
  -19.8075  -38.3095   -5.5250 C   0  0  2  0  0  0  0  0  0  0  0  0
  -18.7240  -38.2685   -4.4908 C   0  0  0  0  0  0  0  0  0  0  0  0
  -21.1062  -38.4974   -4.7693 C   0  0  0  0  0  0  0  0  0  0  0  0
  -22.2948  -38.8263   -5.5836 C   0  0  0  0  0  0  0  0  0  0  0  0
  -22.5062  -40.3073   -5.6128 C   0  0  0  0  0  0  0  0  0  0  0  0
  -23.8933  -40.7827   -5.3543 C   0  0  0  0  0  0  0  0  0  0  0  0
  -24.0852  -42.0210   -6.2010 C   0  0  0  0  0  0  0  0  0  0  0  0
  -23.5938  -43.2866   -5.5823 C   0  0  0  0  0  0  0  0  0  0  0  0
  -23.4076  -44.3387   -6.6491 C   0  0  0  0  0  0  0  0  0  0  0  0
  -22.8029  -43.8179   -7.8485 N   0  0  0  0  0  0  0  0  0  0  0  0
  -17.4588  -38.3566   -7.2930 C   0  0  2  0  0  0  0  0  0  0  0  0
  -18.0554  -37.3024   -7.9125 O   0  0  0  0  0  0  0  0  0  0  0  0
  -16.2122  -38.7466   -8.0475 C   0  0  0  0  0  0  0  0  0  0  0  0
  -16.0097  -40.1136   -8.3010 N   0  0  0  0  0  0  0  0  0  0  0  0
  -15.5046  -40.4034   -9.6025 C   0  0  0  0  0  0  0  0  0  0  0  0
  -16.5086  -41.3061  -10.2743 C   0  0  0  0  0  0  0  0  0  0  0  0
  -17.5143  -40.7824  -11.0514 C   0  0  0  0  0  0  0  0  0  0  0  0
  -18.4298  -41.6001  -11.6707 C   0  0  0  0  0  0  0  0  0  0  0  0
  -18.3335  -42.9538  -11.5074 C   0  0  0  0  0  0  0  0  0  0  0  0
  -17.3130  -43.4917  -10.7182 C   0  0  0  0  0  0  0  0  0  0  0  0
  -16.4158  -42.6603  -10.1134 C   0  0  0  0  0  0  0  0  0  0  0  0
  -17.2412  -44.8787  -10.5714 O   0  0  0  0  0  0  0  0  0  0  0  0
  -15.9953  -45.5388  -10.4425 C   0  0  0  0  0  0  0  0  0  0  0  0
  -19.4305  -41.0608  -12.4452 O   0  0  0  0  0  0  0  0  0  0  0  0
  -19.5535  -39.6735  -12.6081 C   0  0  0  0  0  0  0  0  0  0  0  0
  1  2  1  0
  2  3  1  0
  3  4  1  0
  4  5  2  0
  5  6  1  0
  6  7  2  0
  7  8  1  0
  8  9  2  0
  8 10  1  0
 10 11  2  0
 10 12  1  0
 12 13  1  0
 13 14  1  1
 14 15  1  0
 15 16  1  1
 15 17  1  0
 17 18  1  0
 18 19  1  0
 19 20  1  0
 20 21  1  0
 21 22  1  0
 22 23  1  0
 23 24  1  0
 13 25  1  0
 25 26  1  6
 25 27  1  0
 27 28  1  0
 28 29  1  0
 29 30  1  0
 30 31  2  0
 31 32  1  0
 32 33  2  0
 33 34  1  0
 34 35  2  0
 34 36  1  0
 36 37  1  0
 32 38  1  0
 38 39  1  0
  9  4  1  0
 24  6  1  0
 35 30  1  0
M  END
$$$$
