
     RDKit          3D

 39 41  0  0  0  0  0  0  0  0999 V2000
  -17.0590  -47.1881   -9.8796 C   0  0  0  0  0  0  0  0  0  0  0  0
  -16.4340  -46.1781  -10.5924 O   0  0  0  0  0  0  0  0  0  0  0  0
  -17.3558  -45.2855  -11.0566 C   0  0  0  0  0  0  0  0  0  0  0  0
  -18.0650  -44.6050   -9.9408 C   0  0  0  0  0  0  0  0  0  0  0  0
  -19.4125  -44.7281   -9.7430 C   0  0  0  0  0  0  0  0  0  0  0  0
  -20.1191  -44.1001   -8.6824 C   0  0  0  0  0  0  0  0  0  0  0  0
  -19.4013  -43.3082   -7.7863 C   0  0  0  0  0  0  0  0  0  0  0  0
  -18.0365  -43.1582   -7.9538 C   0  0  0  0  0  0  0  0  0  0  0  0
  -17.4044  -43.8259   -9.0461 C   0  0  0  0  0  0  0  0  0  0  0  0
  -17.0226  -42.4117   -7.2044 C   0  0  0  0  0  0  0  0  0  0  0  0
  -15.8942  -43.0276   -6.8854 O   0  0  0  0  0  0  0  0  0  0  0  0
  -16.9816  -41.0747   -6.7121 N   0  0  0  0  0  0  0  0  0  0  0  0
  -17.5316  -39.9206   -7.4167 C   0  0  1  0  0  0  0  0  0  0  0  0
  -18.9590  -39.6973   -7.1818 C   0  0  0  0  0  0  0  0  0  0  0  0
  -19.4497  -38.5199   -6.4212 C   0  0  2  0  0  0  0  0  0  0  0  0
  -18.7870  -38.2831   -5.0984 C   0  0  0  0  0  0  0  0  0  0  0  0
  -20.9300  -38.6577   -6.1337 C   0  0  0  0  0  0  0  0  0  0  0  0
  -21.7687  -39.1527   -7.2452 C   0  0  0  0  0  0  0  0  0  0  0  0
  -21.9660  -40.6309   -7.1237 C   0  0  0  0  0  0  0  0  0  0  0  0
  -23.3603  -41.1276   -7.2850 C   0  0  0  0  0  0  0  0  0  0  0  0
  -23.2572  -42.4810   -7.9521 C   0  0  0  0  0  0  0  0  0  0  0  0
  -23.0155  -43.6223   -7.0220 C   0  0  0  0  0  0  0  0  0  0  0  0
  -22.4806  -44.8055   -7.7925 C   0  0  0  0  0  0  0  0  0  0  0  0
  -21.4978  -44.4330   -8.7777 N   0  0  0  0  0  0  0  0  0  0  0  0
  -16.6371  -38.7100   -7.2564 C   0  0  2  0  0  0  0  0  0  0  0  0
  -17.3983  -37.5854   -7.3392 O   0  0  0  0  0  0  0  0  0  0  0  0
  -15.6256  -38.7191   -8.3755 C   0  0  0  0  0  0  0  0  0  0  0  0
  -16.0333  -38.2129   -9.6211 N   0  0  0  0  0  0  0  0  0  0  0  0
  -15.2664  -37.1048  -10.0868 C   0  0  0  0  0  0  0  0  0  0  0  0
  -14.6768  -37.5040  -11.4162 C   0  0  0  0  0  0  0  0  0  0  0  0
  -15.3941  -38.2758  -12.2991 C   0  0  0  0  0  0  0  0  0  0  0  0
  -14.8643  -38.6390  -13.5148 C   0  0  0  0  0  0  0  0  0  0  0  0
  -13.6046  -38.2235  -13.8448 C   0  0  0  0  0  0  0  0  0  0  0  0
  -12.8708  -37.4386  -12.9508 C   0  0  0  0  0  0  0  0  0  0  0  0
  -13.4175  -37.0905  -11.7499 C   0  0  0  0  0  0  0  0  0  0  0  0
  -11.5869  -37.0296  -13.3176 O   0  0  0  0  0  0  0  0  0  0  0  0
  -10.8862  -36.0539  -12.5681 C   0  0  0  0  0  0  0  0  0  0  0  0
  -15.5946  -39.4118  -14.3875 O   0  0  0  0  0  0  0  0  0  0  0  0
  -16.8723  -39.8786  -14.0478 C   0  0  0  0  0  0  0  0  0  0  0  0
  1  2  1  0
  2  3  1  0
  3  4  1  0
  4  5  2  0
  5  6  1  0
  6  7  2  0
  7  8  1  0
  8  9  2  0
  8 10  1  0
 10 11  2  0
 10 12  1  0
 12 13  1  0
 13 14  1  1
 14 15  1  0
 15 16  1  1
 15 17  1  0
 17 18  1  0
 18 19  1  0
 19 20  1  0
 20 21  1  0
 21 22  1  0
 22 23  1  0
 23 24  1  0
 13 25  1  0
 25 26  1  6
 25 27  1  0
 27 28  1  0
 28 29  1  0
 29 30  1  0
 30 31  2  0
 31 32  1  0
 32 33  2  0
 33 34  1  0
 34 35  2  0
 34 36  1  0
 36 37  1  0
 32 38  1  0
 38 39  1  0
  9  4  1  0
 24  6  1  0
 35 30  1  0
M  END
$$$$
