
     RDKit          3D

 39 41  0  0  0  0  0  0  0  0999 V2000
  -23.7481  -39.7697   -4.7497 C   0  0  0  0  0  0  0  0  0  0  0  0
  -23.5776  -41.1368   -4.8947 O   0  0  0  0  0  0  0  0  0  0  0  0
  -22.2961  -41.4898   -4.5863 C   0  0  0  0  0  0  0  0  0  0  0  0
  -21.5695  -41.9995   -5.7795 C   0  0  0  0  0  0  0  0  0  0  0  0
  -21.6111  -43.3126   -6.1594 C   0  0  0  0  0  0  0  0  0  0  0  0
  -20.9373  -43.8302   -7.2981 C   0  0  0  0  0  0  0  0  0  0  0  0
  -20.1858  -42.9521   -8.0788 C   0  0  0  0  0  0  0  0  0  0  0  0
  -20.1184  -41.6163   -7.7261 C   0  0  0  0  0  0  0  0  0  0  0  0
  -20.8275  -41.1789   -6.5666 C   0  0  0  0  0  0  0  0  0  0  0  0
  -19.4306  -40.4680   -8.3219 C   0  0  0  0  0  0  0  0  0  0  0  0
  -20.1114  -39.3448   -8.4927 O   0  0  0  0  0  0  0  0  0  0  0  0
  -18.0963  -40.2821   -8.7874 N   0  0  0  0  0  0  0  0  0  0  0  0
  -16.9144  -40.8541   -8.1495 C   0  0  1  0  0  0  0  0  0  0  0  0
  -16.6052  -42.2207   -8.5728 C   0  0  0  0  0  0  0  0  0  0  0  0
  -15.3972  -42.5336   -9.3781 C   0  0  2  0  0  0  0  0  0  0  0  0
  -15.1948  -41.6844  -10.5959 C   0  0  0  0  0  0  0  0  0  0  0  0
  -15.4451  -43.9666   -9.8652 C   0  0  0  0  0  0  0  0  0  0  0  0
  -15.8939  -44.9762   -8.8838 C   0  0  0  0  0  0  0  0  0  0  0  0
  -17.3571  -45.2415   -9.0493 C   0  0  0  0  0  0  0  0  0  0  0  0
  -17.7703  -46.6715   -9.0845 C   0  0  0  0  0  0  0  0  0  0  0  0
  -19.1303  -46.7395   -8.4266 C   0  0  0  0  0  0  0  0  0  0  0  0
  -20.2799  -46.4410   -9.3295 C   0  0  0  0  0  0  0  0  0  0  0  0
  -21.4963  -46.0862   -8.5084 C   0  0  0  0  0  0  0  0  0  0  0  0
  -21.1876  -45.2263   -7.3946 N   0  0  0  0  0  0  0  0  0  0  0  0
  -15.7588  -39.8768   -8.1720 C   0  0  2  0  0  0  0  0  0  0  0  0
  -15.6837  -39.2549   -6.9643 O   0  0  0  0  0  0  0  0  0  0  0  0
  -16.0250  -38.8560   -9.2503 C   0  0  0  0  0  0  0  0  0  0  0  0
  -17.3662  -38.5880   -9.5715 N   0  0  0  0  0  0  0  0  0  0  0  0
  -17.8210  -37.2964   -9.1742 C   0  0  0  0  0  0  0  0  0  0  0  0
  -17.1027  -36.2907  -10.0384 C   0  0  0  0  0  0  0  0  0  0  0  0
  -16.1552  -35.4525   -9.5008 C   0  0  0  0  0  0  0  0  0  0  0  0
  -15.4931  -34.5368  -10.2842 C   0  0  0  0  0  0  0  0  0  0  0  0
  -15.7860  -34.4634  -11.6173 C   0  0  0  0  0  0  0  0  0  0  0  0
  -16.7487  -35.3133  -12.1692 C   0  0  0  0  0  0  0  0  0  0  0  0
  -17.3928  -36.2142  -11.3720 C   0  0  0  0  0  0  0  0  0  0  0  0
  -17.0250  -35.2141  -13.5346 O   0  0  0  0  0  0  0  0  0  0  0  0
  -16.4269  -34.2089  -14.3325 C   0  0  0  0  0  0  0  0  0  0  0  0
  -14.5475  -33.7048   -9.7313 O   0  0  0  0  0  0  0  0  0  0  0  0
  -13.1787  -33.9167   -9.9494 C   0  0  0  0  0  0  0  0  0  0  0  0
  1  2  1  0
  2  3  1  0
  3  4  1  0
  4  5  2  0
  5  6  1  0
  6  7  2  0
  7  8  1  0
  8  9  2  0
  8 10  1  0
 10 11  2  0
 10 12  1  0
 12 13  1  0
 13 14  1  6
 14 15  1  0
 15 16  1  6
 15 17  1  0
 17 18  1  0
 18 19  1  0
 19 20  1  0
 20 21  1  0
 21 22  1  0
 22 23  1  0
 23 24  1  0
 13 25  1  0
 25 26  1  1
 25 27  1  0
 27 28  1  0
 28 29  1  0
 29 30  1  0
 30 31  2  0
 31 32  1  0
 32 33  2  0
 33 34  1  0
 34 35  2  0
 34 36  1  0
 36 37  1  0
 32 38  1  0
 38 39  1  0
  9  4  1  0
 24  6  1  0
 35 30  1  0
M  END
$$$$
