
     RDKit          3D

 39 41  0  0  0  0  0  0  0  0999 V2000
  -16.9425  -43.2340  -14.3927 C   0  0  0  0  0  0  0  0  0  0  0  0
  -16.9484  -43.2120  -13.0077 O   0  0  0  0  0  0  0  0  0  0  0  0
  -17.9934  -43.9457  -12.5266 C   0  0  0  0  0  0  0  0  0  0  0  0
  -18.8408  -43.1459  -11.6028 C   0  0  0  0  0  0  0  0  0  0  0  0
  -19.9608  -42.4825  -12.0220 C   0  0  0  0  0  0  0  0  0  0  0  0
  -20.7972  -41.7182  -11.1647 C   0  0  0  0  0  0  0  0  0  0  0  0
  -20.4607  -41.6344   -9.8138 C   0  0  0  0  0  0  0  0  0  0  0  0
  -19.3342  -42.2908   -9.3517 C   0  0  0  0  0  0  0  0  0  0  0  0
  -18.5495  -43.0386  -10.2809 C   0  0  0  0  0  0  0  0  0  0  0  0
  -18.7238  -42.3959   -8.0239 C   0  0  0  0  0  0  0  0  0  0  0  0
  -18.3622  -43.5938   -7.5896 O   0  0  0  0  0  0  0  0  0  0  0  0
  -18.4102  -41.4234   -7.0303 N   0  0  0  0  0  0  0  0  0  0  0  0
  -17.9169  -40.0802   -7.3194 C   0  0  1  0  0  0  0  0  0  0  0  0
  -18.9688  -39.0990   -7.5900 C   0  0  0  0  0  0  0  0  0  0  0  0
  -19.2513  -37.9802   -6.6550 C   0  0  2  0  0  0  0  0  0  0  0  0
  -19.4285  -38.3678   -5.2185 C   0  0  0  0  0  0  0  0  0  0  0  0
  -20.5224  -37.2636   -7.0594 C   0  0  0  0  0  0  0  0  0  0  0  0
  -20.6981  -37.0090   -8.5045 C   0  0  0  0  0  0  0  0  0  0  0  0
  -21.5288  -38.0899   -9.1213 C   0  0  0  0  0  0  0  0  0  0  0  0
  -22.6364  -37.6461  -10.0119 C   0  0  0  0  0  0  0  0  0  0  0  0
  -22.7558  -38.6913  -11.0983 C   0  0  0  0  0  0  0  0  0  0  0  0
  -23.5900  -39.8755  -10.7408 C   0  0  0  0  0  0  0  0  0  0  0  0
  -23.2730  -41.0234  -11.6691 C   0  0  0  0  0  0  0  0  0  0  0  0
  -21.8621  -41.1622  -11.9249 N   0  0  0  0  0  0  0  0  0  0  0  0
  -16.8631  -39.6615   -6.3167 C   0  0  2  0  0  0  0  0  0  0  0  0
  -16.2719  -38.5157   -6.7510 O   0  0  0  0  0  0  0  0  0  0  0  0
  -15.8328  -40.7597   -6.2284 C   0  0  0  0  0  0  0  0  0  0  0  0
  -14.5637  -40.5024   -6.7737 N   0  0  0  0  0  0  0  0  0  0  0  0
  -13.6711  -41.6137   -6.7397 C   0  0  0  0  0  0  0  0  0  0  0  0
  -14.4244  -42.8015   -7.2833 C   0  0  0  0  0  0  0  0  0  0  0  0
  -15.7540  -42.6973   -7.6164 C   0  0  0  0  0  0  0  0  0  0  0  0
  -16.4454  -43.7751   -8.1172 C   0  0  0  0  0  0  0  0  0  0  0  0
  -15.7953  -44.9660   -8.2841 C   0  0  0  0  0  0  0  0  0  0  0  0
  -14.4435  -45.0776   -7.9469 C   0  0  0  0  0  0  0  0  0  0  0  0
  -13.7780  -43.9941   -7.4516 C   0  0  0  0  0  0  0  0  0  0  0  0
  -13.8077  -46.3075   -8.1296 O   0  0  0  0  0  0  0  0  0  0  0  0
  -13.0774  -46.5872   -9.3099 C   0  0  0  0  0  0  0  0  0  0  0  0
  -17.7756  -43.6550   -8.4458 O   0  0  0  0  0  0  0  0  0  0  0  0
  -18.7248  -43.2575   -7.4934 C   0  0  0  0  0  0  0  0  0  0  0  0
  1  2  1  0
  2  3  1  0
  3  4  1  0
  4  5  2  0
  5  6  1  0
  6  7  2  0
  7  8  1  0
  8  9  2  0
  8 10  1  0
 10 11  2  0
 10 12  1  0
 12 13  1  0
 13 14  1  1
 14 15  1  0
 15 16  1  1
 15 17  1  0
 17 18  1  0
 18 19  1  0
 19 20  1  0
 20 21  1  0
 21 22  1  0
 22 23  1  0
 23 24  1  0
 13 25  1  0
 25 26  1  6
 25 27  1  0
 27 28  1  0
 28 29  1  0
 29 30  1  0
 30 31  2  0
 31 32  1  0
 32 33  2  0
 33 34  1  0
 34 35  2  0
 34 36  1  0
 36 37  1  0
 32 38  1  0
 38 39  1  0
  9  4  1  0
 24  6  1  0
 35 30  1  0
M  END
$$$$
