
     RDKit          3D

 39 41  0  0  0  0  0  0  0  0999 V2000
  -17.4845  -45.9102  -11.7420 C   0  0  0  0  0  0  0  0  0  0  0  0
  -16.9446  -45.8305  -10.4688 O   0  0  0  0  0  0  0  0  0  0  0  0
  -17.7918  -46.3926   -9.5588 C   0  0  0  0  0  0  0  0  0  0  0  0
  -18.4537  -45.3586   -8.7197 C   0  0  0  0  0  0  0  0  0  0  0  0
  -19.8100  -45.3053   -8.5533 C   0  0  0  0  0  0  0  0  0  0  0  0
  -20.4731  -44.3376   -7.7517 C   0  0  0  0  0  0  0  0  0  0  0  0
  -19.7004  -43.3813   -7.0933 C   0  0  0  0  0  0  0  0  0  0  0  0
  -18.3248  -43.4017   -7.2379 C   0  0  0  0  0  0  0  0  0  0  0  0
  -17.7390  -44.4101   -8.0614 C   0  0  0  0  0  0  0  0  0  0  0  0
  -17.2590  -42.5563   -6.6938 C   0  0  0  0  0  0  0  0  0  0  0  0
  -16.1981  -43.1442   -6.1616 O   0  0  0  0  0  0  0  0  0  0  0  0
  -17.1025  -41.1422   -6.6087 N   0  0  0  0  0  0  0  0  0  0  0  0
  -17.5311  -40.2027   -7.6406 C   0  0  1  0  0  0  0  0  0  0  0  0
  -18.9354  -39.8018   -7.5424 C   0  0  0  0  0  0  0  0  0  0  0  0
  -19.3277  -38.4166   -7.1777 C   0  0  2  0  0  0  0  0  0  0  0  0
  -18.6683  -37.8597   -5.9528 C   0  0  0  0  0  0  0  0  0  0  0  0
  -20.8190  -38.3399   -6.9268 C   0  0  0  0  0  0  0  0  0  0  0  0
  -21.6810  -39.0662   -7.8825 C   0  0  0  0  0  0  0  0  0  0  0  0
  -22.0166  -40.4224   -7.3465 C   0  0  0  0  0  0  0  0  0  0  0  0
  -23.4480  -40.8259   -7.4172 C   0  0  0  0  0  0  0  0  0  0  0  0
  -23.4595  -42.3188   -7.6583 C   0  0  0  0  0  0  0  0  0  0  0  0
  -23.3405  -43.1542   -6.4280 C   0  0  0  0  0  0  0  0  0  0  0  0
  -22.9047  -44.5515   -6.7986 C   0  0  0  0  0  0  0  0  0  0  0  0
  -21.8750  -44.5672   -7.8061 N   0  0  0  0  0  0  0  0  0  0  0  0
  -16.5311  -39.0776   -7.7994 C   0  0  2  0  0  0  0  0  0  0  0  0
  -17.1865  -37.8889   -7.7073 O   0  0  0  0  0  0  0  0  0  0  0  0
  -15.8954  -39.1999   -9.1620 C   0  0  0  0  0  0  0  0  0  0  0  0
  -14.8212  -40.0953   -9.2974 N   0  0  0  0  0  0  0  0  0  0  0  0
  -14.3654  -40.2710  -10.6369 C   0  0  0  0  0  0  0  0  0  0  0  0
  -13.9071  -38.9206  -11.1276 C   0  0  0  0  0  0  0  0  0  0  0  0
  -14.6266  -38.2381  -12.0794 C   0  0  0  0  0  0  0  0  0  0  0  0
  -14.2169  -37.0044  -12.5274 C   0  0  0  0  0  0  0  0  0  0  0  0
  -13.0758  -36.4534  -12.0148 C   0  0  0  0  0  0  0  0  0  0  0  0
  -12.3403  -37.1431  -11.0469 C   0  0  0  0  0  0  0  0  0  0  0  0
  -12.7665  -38.3662  -10.6175 C   0  0  0  0  0  0  0  0  0  0  0  0
  -11.1793  -36.5531  -10.5425 O   0  0  0  0  0  0  0  0  0  0  0  0
  -10.0471  -37.3338  -10.2056 C   0  0  0  0  0  0  0  0  0  0  0  0
  -14.9477  -36.3339  -13.4805 O   0  0  0  0  0  0  0  0  0  0  0  0
  -14.4691  -36.1859  -14.7901 C   0  0  0  0  0  0  0  0  0  0  0  0
  1  2  1  0
  2  3  1  0
  3  4  1  0
  4  5  2  0
  5  6  1  0
  6  7  2  0
  7  8  1  0
  8  9  2  0
  8 10  1  0
 10 11  2  0
 10 12  1  0
 12 13  1  0
 13 14  1  1
 14 15  1  0
 15 16  1  1
 15 17  1  0
 17 18  1  0
 18 19  1  0
 19 20  1  0
 20 21  1  0
 21 22  1  0
 22 23  1  0
 23 24  1  0
 13 25  1  0
 25 26  1  6
 25 27  1  0
 27 28  1  0
 28 29  1  0
 29 30  1  0
 30 31  2  0
 31 32  1  0
 32 33  2  0
 33 34  1  0
 34 35  2  0
 34 36  1  0
 36 37  1  0
 32 38  1  0
 38 39  1  0
  9  4  1  0
 24  6  1  0
 35 30  1  0
M  END
$$$$
