
     RDKit          3D

 39 41  0  0  0  0  0  0  0  0999 V2000
  -20.9217  -35.8768  -13.3090 C   0  0  0  0  0  0  0  0  0  0  0  0
  -19.8943  -36.6658  -12.8182 O   0  0  0  0  0  0  0  0  0  0  0  0
  -20.0991  -37.9727  -13.1529 C   0  0  0  0  0  0  0  0  0  0  0  0
  -20.1540  -38.8414  -11.9473 C   0  0  0  0  0  0  0  0  0  0  0  0
  -21.3251  -39.1308  -11.3031 C   0  0  0  0  0  0  0  0  0  0  0  0
  -21.4140  -39.9642  -10.1558 C   0  0  0  0  0  0  0  0  0  0  0  0
  -20.2401  -40.5227   -9.6506 C   0  0  0  0  0  0  0  0  0  0  0  0
  -19.0353  -40.2524  -10.2741 C   0  0  0  0  0  0  0  0  0  0  0  0
  -19.0354  -39.4054  -11.4235 C   0  0  0  0  0  0  0  0  0  0  0  0
  -17.6597  -40.6731   -9.9960 C   0  0  0  0  0  0  0  0  0  0  0  0
  -16.9221  -41.1206  -11.0010 O   0  0  0  0  0  0  0  0  0  0  0  0
  -16.8879  -40.7057   -8.7982 N   0  0  0  0  0  0  0  0  0  0  0  0
  -16.9533  -39.6931   -7.7487 C   0  0  1  0  0  0  0  0  0  0  0  0
  -18.0202  -39.9098   -6.7703 C   0  0  0  0  0  0  0  0  0  0  0  0
  -17.7244  -40.2722   -5.3608 C   0  0  2  0  0  0  0  0  0  0  0  0
  -16.7745  -41.4157   -5.1733 C   0  0  0  0  0  0  0  0  0  0  0  0
  -18.9976  -40.6575   -4.6373 C   0  0  0  0  0  0  0  0  0  0  0  0
  -20.1778  -39.8051   -4.8917 C   0  0  0  0  0  0  0  0  0  0  0  0
  -21.0250  -40.4057   -5.9690 C   0  0  0  0  0  0  0  0  0  0  0  0
  -22.4871  -40.4782   -5.6973 C   0  0  0  0  0  0  0  0  0  0  0  0
  -23.1791  -40.2789   -7.0272 C   0  0  0  0  0  0  0  0  0  0  0  0
  -23.3253  -41.5149   -7.8500 C   0  0  0  0  0  0  0  0  0  0  0  0
  -23.5881  -41.1429   -9.2895 C   0  0  0  0  0  0  0  0  0  0  0  0
  -22.7714  -40.0455   -9.7414 N   0  0  0  0  0  0  0  0  0  0  0  0
  -15.5794  -39.4128   -7.1786 C   0  0  2  0  0  0  0  0  0  0  0  0
  -15.4488  -38.0730   -6.9816 O   0  0  0  0  0  0  0  0  0  0  0  0
  -14.5497  -39.8795   -8.1774 C   0  0  0  0  0  0  0  0  0  0  0  0
  -14.0857  -38.9418   -9.1152 N   0  0  0  0  0  0  0  0  0  0  0  0
  -14.0479  -39.4199  -10.4579 C   0  0  0  0  0  0  0  0  0  0  0  0
  -14.8181  -38.4334  -11.2992 C   0  0  0  0  0  0  0  0  0  0  0  0
  -16.1053  -38.7048  -11.6979 C   0  0  0  0  0  0  0  0  0  0  0  0
  -16.8146  -37.8075  -12.4609 C   0  0  0  0  0  0  0  0  0  0  0  0
  -16.2255  -36.6292  -12.8255 C   0  0  0  0  0  0  0  0  0  0  0  0
  -14.9169  -36.3481  -12.4230 C   0  0  0  0  0  0  0  0  0  0  0  0
  -14.2325  -37.2540  -11.6660 C   0  0  0  0  0  0  0  0  0  0  0  0
  -14.3433  -35.1355  -12.8113 O   0  0  0  0  0  0  0  0  0  0  0  0
  -12.9417  -34.9400  -12.7671 C   0  0  0  0  0  0  0  0  0  0  0  0
  -18.1019  -38.0938  -12.8520 O   0  0  0  0  0  0  0  0  0  0  0  0
  -19.1545  -37.2058  -12.5879 C   0  0  0  0  0  0  0  0  0  0  0  0
  1  2  1  0
  2  3  1  0
  3  4  1  0
  4  5  2  0
  5  6  1  0
  6  7  2  0
  7  8  1  0
  8  9  2  0
  8 10  1  0
 10 11  2  0
 10 12  1  0
 12 13  1  0
 13 14  1  1
 14 15  1  0
 15 16  1  6
 15 17  1  0
 17 18  1  0
 18 19  1  0
 19 20  1  0
 20 21  1  0
 21 22  1  0
 22 23  1  0
 23 24  1  0
 13 25  1  0
 25 26  1  6
 25 27  1  0
 27 28  1  0
 28 29  1  0
 29 30  1  0
 30 31  2  0
 31 32  1  0
 32 33  2  0
 33 34  1  0
 34 35  2  0
 34 36  1  0
 36 37  1  0
 32 38  1  0
 38 39  1  0
  9  4  1  0
 24  6  1  0
 35 30  1  0
M  END
$$$$
