
     RDKit          3D

 39 41  0  0  0  0  0  0  0  0999 V2000
  -16.3483  -47.5902  -10.4137 C   0  0  0  0  0  0  0  0  0  0  0  0
  -16.6780  -46.5592   -9.5493 O   0  0  0  0  0  0  0  0  0  0  0  0
  -17.6711  -45.7915  -10.0845 C   0  0  0  0  0  0  0  0  0  0  0  0
  -18.3006  -44.9211   -9.0562 C   0  0  0  0  0  0  0  0  0  0  0  0
  -19.6267  -45.0069   -8.7330 C   0  0  0  0  0  0  0  0  0  0  0  0
  -20.2571  -44.1981   -7.7496 C   0  0  0  0  0  0  0  0  0  0  0  0
  -19.4830  -43.2575   -7.0704 C   0  0  0  0  0  0  0  0  0  0  0  0
  -18.1378  -43.1399   -7.3702 C   0  0  0  0  0  0  0  0  0  0  0  0
  -17.5834  -43.9934   -8.3715 C   0  0  0  0  0  0  0  0  0  0  0  0
  -17.0794  -42.2703   -6.8501 C   0  0  0  0  0  0  0  0  0  0  0  0
  -15.9207  -42.8184   -6.5165 O   0  0  0  0  0  0  0  0  0  0  0  0
  -17.0194  -40.8666   -6.6109 N   0  0  0  0  0  0  0  0  0  0  0  0
  -17.6395  -39.8584   -7.4654 C   0  0  1  0  0  0  0  0  0  0  0  0
  -19.0473  -39.5967   -7.1616 C   0  0  0  0  0  0  0  0  0  0  0  0
  -19.4941  -38.3016   -6.5884 C   0  0  2  0  0  0  0  0  0  0  0  0
  -18.7334  -37.8301   -5.3866 C   0  0  0  0  0  0  0  0  0  0  0  0
  -20.9451  -38.3856   -6.1639 C   0  0  0  0  0  0  0  0  0  0  0  0
  -21.8610  -39.0730   -7.0981 C   0  0  0  0  0  0  0  0  0  0  0  0
  -22.0266  -40.5052   -6.6977 C   0  0  0  0  0  0  0  0  0  0  0  0
  -23.4220  -41.0230   -6.6557 C   0  0  0  0  0  0  0  0  0  0  0  0
  -23.3517  -42.4744   -7.0748 C   0  0  0  0  0  0  0  0  0  0  0  0
  -23.0215  -43.4293   -5.9770 C   0  0  0  0  0  0  0  0  0  0  0  0
  -22.5313  -44.7320   -6.5625 C   0  0  0  0  0  0  0  0  0  0  0  0
  -21.6341  -44.5430   -7.6736 N   0  0  0  0  0  0  0  0  0  0  0  0
  -16.7530  -38.6386   -7.5969 C   0  0  2  0  0  0  0  0  0  0  0  0
  -17.5368  -37.5412   -7.7767 O   0  0  0  0  0  0  0  0  0  0  0  0
  -15.8650  -38.8282   -8.8015 C   0  0  0  0  0  0  0  0  0  0  0  0
  -14.9417  -39.8866   -8.7653 N   0  0  0  0  0  0  0  0  0  0  0  0
  -14.3355  -40.1835  -10.0211 C   0  0  0  0  0  0  0  0  0  0  0  0
  -14.2608  -38.8894  -10.7918 C   0  0  0  0  0  0  0  0  0  0  0  0
  -13.0513  -38.2785  -11.0228 C   0  0  0  0  0  0  0  0  0  0  0  0
  -12.9757  -37.1012  -11.7289 C   0  0  0  0  0  0  0  0  0  0  0  0
  -14.1244  -36.5342  -12.2060 C   0  0  0  0  0  0  0  0  0  0  0  0
  -15.3570  -37.1510  -11.9739 C   0  0  0  0  0  0  0  0  0  0  0  0
  -15.4072  -38.3192  -11.2704 C   0  0  0  0  0  0  0  0  0  0  0  0
  -16.5123  -36.5471  -12.4748 O   0  0  0  0  0  0  0  0  0  0  0  0
  -16.5798  -36.0913  -13.8135 C   0  0  0  0  0  0  0  0  0  0  0  0
  -11.7578  -36.5020  -11.9518 O   0  0  0  0  0  0  0  0  0  0  0  0
  -10.5580  -37.1773  -11.6861 C   0  0  0  0  0  0  0  0  0  0  0  0
  1  2  1  0
  2  3  1  0
  3  4  1  0
  4  5  2  0
  5  6  1  0
  6  7  2  0
  7  8  1  0
  8  9  2  0
  8 10  1  0
 10 11  2  0
 10 12  1  0
 12 13  1  0
 13 14  1  1
 14 15  1  0
 15 16  1  1
 15 17  1  0
 17 18  1  0
 18 19  1  0
 19 20  1  0
 20 21  1  0
 21 22  1  0
 22 23  1  0
 23 24  1  0
 13 25  1  0
 25 26  1  6
 25 27  1  0
 27 28  1  0
 28 29  1  0
 29 30  1  0
 30 31  2  0
 31 32  1  0
 32 33  2  0
 33 34  1  0
 34 35  2  0
 34 36  1  0
 36 37  1  0
 32 38  1  0
 38 39  1  0
  9  4  1  0
 24  6  1  0
 35 30  1  0
M  END
$$$$
