
     RDKit          3D

 39 41  0  0  0  0  0  0  0  0999 V2000
  -19.3919  -47.1036  -11.6110 C   0  0  0  0  0  0  0  0  0  0  0  0
  -18.6383  -45.9424  -11.5612 O   0  0  0  0  0  0  0  0  0  0  0  0
  -19.4526  -44.8538  -11.4430 C   0  0  0  0  0  0  0  0  0  0  0  0
  -19.5554  -44.4013  -10.0302 C   0  0  0  0  0  0  0  0  0  0  0  0
  -20.6282  -44.7040   -9.2380 C   0  0  0  0  0  0  0  0  0  0  0  0
  -20.7532  -44.2963   -7.8828 C   0  0  0  0  0  0  0  0  0  0  0  0
  -19.7242  -43.5407   -7.3210 C   0  0  0  0  0  0  0  0  0  0  0  0
  -18.6228  -43.2132   -8.0910 C   0  0  0  0  0  0  0  0  0  0  0  0
  -18.5763  -43.6650   -9.4446 C   0  0  0  0  0  0  0  0  0  0  0  0
  -17.4053  -42.4501   -7.8043 C   0  0  0  0  0  0  0  0  0  0  0  0
  -16.2395  -42.9642   -8.1661 O   0  0  0  0  0  0  0  0  0  0  0  0
  -17.1868  -41.1873   -7.1807 N   0  0  0  0  0  0  0  0  0  0  0  0
  -18.0599  -40.0282   -7.3399 C   0  0  1  0  0  0  0  0  0  0  0  0
  -19.1990  -40.0032   -6.4211 C   0  0  0  0  0  0  0  0  0  0  0  0
  -19.3062  -38.9923   -5.3385 C   0  0  2  0  0  0  0  0  0  0  0  0
  -18.0929  -38.8422   -4.4721 C   0  0  0  0  0  0  0  0  0  0  0  0
  -20.4502  -39.3358   -4.4078 C   0  0  0  0  0  0  0  0  0  0  0  0
  -21.7026  -39.7866   -5.0499 C   0  0  0  0  0  0  0  0  0  0  0  0
  -21.7516  -41.2815   -5.0917 C   0  0  0  0  0  0  0  0  0  0  0  0
  -23.0244  -41.9142   -4.6483 C   0  0  0  0  0  0  0  0  0  0  0  0
  -23.2018  -43.1552   -5.4942 C   0  0  0  0  0  0  0  0  0  0  0  0
  -22.4880  -44.3649   -4.9913 C   0  0  0  0  0  0  0  0  0  0  0  0
  -22.3469  -45.3753   -6.1045 C   0  0  0  0  0  0  0  0  0  0  0  0
  -21.9873  -44.7738   -7.3631 N   0  0  0  0  0  0  0  0  0  0  0  0
  -17.2541  -38.7500   -7.4300 C   0  0  2  0  0  0  0  0  0  0  0  0
  -18.0945  -37.6886   -7.2957 O   0  0  0  0  0  0  0  0  0  0  0  0
  -16.5934  -38.7031   -8.7853 C   0  0  0  0  0  0  0  0  0  0  0  0
  -15.5927  -39.6528   -9.0511 N   0  0  0  0  0  0  0  0  0  0  0  0
  -14.8141  -39.3793  -10.2138 C   0  0  0  0  0  0  0  0  0  0  0  0
  -15.7101  -38.6502  -11.1832 C   0  0  0  0  0  0  0  0  0  0  0  0
  -16.8384  -39.2530  -11.6861 C   0  0  0  0  0  0  0  0  0  0  0  0
  -17.6622  -38.5919  -12.5664 C   0  0  0  0  0  0  0  0  0  0  0  0
  -17.3491  -37.3159  -12.9436 C   0  0  0  0  0  0  0  0  0  0  0  0
  -16.2029  -36.6982  -12.4354 C   0  0  0  0  0  0  0  0  0  0  0  0
  -15.4004  -37.3741  -11.5629 C   0  0  0  0  0  0  0  0  0  0  0  0
  -15.9107  -35.3938  -12.8397 O   0  0  0  0  0  0  0  0  0  0  0  0
  -14.5953  -34.8770  -12.7541 C   0  0  0  0  0  0  0  0  0  0  0  0
  -18.7878  -39.2088  -13.0609 O   0  0  0  0  0  0  0  0  0  0  0  0
  -18.6920  -40.3316  -13.8953 C   0  0  0  0  0  0  0  0  0  0  0  0
  1  2  1  0
  2  3  1  0
  3  4  1  0
  4  5  2  0
  5  6  1  0
  6  7  2  0
  7  8  1  0
  8  9  2  0
  8 10  1  0
 10 11  2  0
 10 12  1  0
 12 13  1  0
 13 14  1  1
 14 15  1  0
 15 16  1  1
 15 17  1  0
 17 18  1  0
 18 19  1  0
 19 20  1  0
 20 21  1  0
 21 22  1  0
 22 23  1  0
 23 24  1  0
 13 25  1  0
 25 26  1  6
 25 27  1  0
 27 28  1  0
 28 29  1  0
 29 30  1  0
 30 31  2  0
 31 32  1  0
 32 33  2  0
 33 34  1  0
 34 35  2  0
 34 36  1  0
 36 37  1  0
 32 38  1  0
 38 39  1  0
  9  4  1  0
 24  6  1  0
 35 30  1  0
M  END
$$$$
