
     RDKit          3D

 39 41  0  0  0  0  0  0  0  0999 V2000
  -18.5950  -47.8348   -7.7029 C   0  0  0  0  0  0  0  0  0  0  0  0
  -17.6971  -46.8454   -8.0686 O   0  0  0  0  0  0  0  0  0  0  0  0
  -18.2696  -45.9956   -8.9698 C   0  0  0  0  0  0  0  0  0  0  0  0
  -18.9654  -44.8702   -8.2911 C   0  0  0  0  0  0  0  0  0  0  0  0
  -20.3269  -44.8089   -8.1787 C   0  0  0  0  0  0  0  0  0  0  0  0
  -21.0223  -43.7541   -7.5289 C   0  0  0  0  0  0  0  0  0  0  0  0
  -20.2776  -42.7151   -6.9710 C   0  0  0  0  0  0  0  0  0  0  0  0
  -18.8978  -42.7407   -7.0653 C   0  0  0  0  0  0  0  0  0  0  0  0
  -18.2787  -43.8395   -7.7343 C   0  0  0  0  0  0  0  0  0  0  0  0
  -17.8558  -41.8234   -6.5967 C   0  0  0  0  0  0  0  0  0  0  0  0
  -16.8111  -42.3295   -5.9588 O   0  0  0  0  0  0  0  0  0  0  0  0
  -17.7095  -40.4085   -6.6859 N   0  0  0  0  0  0  0  0  0  0  0  0
  -18.1066  -39.6109   -7.8423 C   0  0  1  0  0  0  0  0  0  0  0  0
  -19.5155  -39.2139   -7.8432 C   0  0  0  0  0  0  0  0  0  0  0  0
  -19.9271  -37.7975   -7.6700 C   0  0  2  0  0  0  0  0  0  0  0  0
  -19.3135  -37.0843   -6.5038 C   0  0  0  0  0  0  0  0  0  0  0  0
  -21.4266  -37.7037   -7.4815 C   0  0  0  0  0  0  0  0  0  0  0  0
  -22.2513  -38.5529   -8.3662 C   0  0  0  0  0  0  0  0  0  0  0  0
  -22.5985  -39.8336   -7.6746 C   0  0  0  0  0  0  0  0  0  0  0  0
  -24.0245  -40.2562   -7.7420 C   0  0  0  0  0  0  0  0  0  0  0  0
  -24.0202  -41.7677   -7.7927 C   0  0  0  0  0  0  0  0  0  0  0  0
  -23.9398  -42.4399   -6.4632 C   0  0  0  0  0  0  0  0  0  0  0  0
  -23.4844  -43.8687   -6.6392 C   0  0  0  0  0  0  0  0  0  0  0  0
  -22.4203  -44.0018   -7.6012 N   0  0  0  0  0  0  0  0  0  0  0  0
  -17.1073  -38.5055   -8.1083 C   0  0  2  0  0  0  0  0  0  0  0  0
  -17.6263  -37.6557   -9.0354 O   0  0  0  0  0  0  0  0  0  0  0  0
  -15.8443  -39.1305   -8.6465 C   0  0  0  0  0  0  0  0  0  0  0  0
  -14.9491  -39.6852   -7.7165 N   0  0  0  0  0  0  0  0  0  0  0  0
  -13.5982  -39.7539   -8.1672 C   0  0  0  0  0  0  0  0  0  0  0  0
  -13.6397  -39.8610   -9.6709 C   0  0  0  0  0  0  0  0  0  0  0  0
  -13.9455  -41.0539  -10.2817 C   0  0  0  0  0  0  0  0  0  0  0  0
  -13.9899  -41.1570  -11.6521 C   0  0  0  0  0  0  0  0  0  0  0  0
  -13.7248  -40.0531  -12.4134 C   0  0  0  0  0  0  0  0  0  0  0  0
  -13.4132  -38.8377  -11.7975 C   0  0  0  0  0  0  0  0  0  0  0  0
  -13.3751  -38.7595  -10.4357 C   0  0  0  0  0  0  0  0  0  0  0  0
  -13.1478  -37.7282  -12.6029 O   0  0  0  0  0  0  0  0  0  0  0  0
  -11.8638  -37.1320  -12.6298 C   0  0  0  0  0  0  0  0  0  0  0  0
  -14.2974  -42.3578  -12.2484 O   0  0  0  0  0  0  0  0  0  0  0  0
  -13.4533  -43.4698  -12.1174 C   0  0  0  0  0  0  0  0  0  0  0  0
  1  2  1  0
  2  3  1  0
  3  4  1  0
  4  5  2  0
  5  6  1  0
  6  7  2  0
  7  8  1  0
  8  9  2  0
  8 10  1  0
 10 11  2  0
 10 12  1  0
 12 13  1  0
 13 14  1  1
 14 15  1  0
 15 16  1  1
 15 17  1  0
 17 18  1  0
 18 19  1  0
 19 20  1  0
 20 21  1  0
 21 22  1  0
 22 23  1  0
 23 24  1  0
 13 25  1  0
 25 26  1  6
 25 27  1  0
 27 28  1  0
 28 29  1  0
 29 30  1  0
 30 31  2  0
 31 32  1  0
 32 33  2  0
 33 34  1  0
 34 35  2  0
 34 36  1  0
 36 37  1  0
 32 38  1  0
 38 39  1  0
  9  4  1  0
 24  6  1  0
 35 30  1  0
M  END
$$$$
