
     RDKit          3D

 39 41  0  0  0  0  0  0  0  0999 V2000
  -19.7328  -45.1084   -3.5582 C   0  0  0  0  0  0  0  0  0  0  0  0
  -19.0257  -44.9695   -4.7412 O   0  0  0  0  0  0  0  0  0  0  0  0
  -19.8833  -44.7971   -5.7885 C   0  0  0  0  0  0  0  0  0  0  0  0
  -20.2318  -43.3638   -5.9767 C   0  0  0  0  0  0  0  0  0  0  0  0
  -21.5252  -42.9254   -6.0488 C   0  0  0  0  0  0  0  0  0  0  0  0
  -21.8926  -41.5635   -6.2182 C   0  0  0  0  0  0  0  0  0  0  0  0
  -20.8781  -40.6117   -6.3190 C   0  0  0  0  0  0  0  0  0  0  0  0
  -19.5571  -41.0162   -6.2519 C   0  0  0  0  0  0  0  0  0  0  0  0
  -19.2755  -42.4052   -6.0788 C   0  0  0  0  0  0  0  0  0  0  0  0
  -18.2913  -40.2818   -6.3245 C   0  0  0  0  0  0  0  0  0  0  0  0
  -17.3607  -40.5389   -5.4178 O   0  0  0  0  0  0  0  0  0  0  0  0
  -17.8086  -39.2845   -7.2211 N   0  0  0  0  0  0  0  0  0  0  0  0
  -18.0781  -39.2669   -8.6557 C   0  0  1  0  0  0  0  0  0  0  0  0
  -19.3428  -38.6273   -9.0217 C   0  0  0  0  0  0  0  0  0  0  0  0
  -19.3806  -37.3396   -9.7607 C   0  0  2  0  0  0  0  0  0  0  0  0
  -18.5301  -36.2440   -9.1937 C   0  0  0  0  0  0  0  0  0  0  0  0
  -20.7940  -36.7980   -9.8038 C   0  0  0  0  0  0  0  0  0  0  0  0
  -21.8623  -37.7799  -10.0844 C   0  0  0  0  0  0  0  0  0  0  0  0
  -22.4637  -38.2676   -8.8040 C   0  0  0  0  0  0  0  0  0  0  0  0
  -23.9510  -38.2921   -8.7391 C   0  0  0  0  0  0  0  0  0  0  0  0
  -24.3216  -39.4827   -7.8833 C   0  0  0  0  0  0  0  0  0  0  0  0
  -24.3154  -39.2255   -6.4137 C   0  0  0  0  0  0  0  0  0  0  0  0
  -24.2384  -40.5348   -5.6656 C   0  0  0  0  0  0  0  0  0  0  0  0
  -23.3101  -41.4634   -6.2582 N   0  0  0  0  0  0  0  0  0  0  0  0
  -16.8593  -38.8156   -9.4315 C   0  0  2  0  0  0  0  0  0  0  0  0
  -16.8640  -39.4196  -10.6506 O   0  0  0  0  0  0  0  0  0  0  0  0
  -15.6298  -39.2349   -8.6646 C   0  0  0  0  0  0  0  0  0  0  0  0
  -15.7421  -40.3540   -7.8226 N   0  0  0  0  0  0  0  0  0  0  0  0
  -14.5691  -40.6418   -7.0649 C   0  0  0  0  0  0  0  0  0  0  0  0
  -13.4652  -40.9270   -8.0519 C   0  0  0  0  0  0  0  0  0  0  0  0
  -13.2490  -42.2033   -8.5142 C   0  0  0  0  0  0  0  0  0  0  0  0
  -12.2475  -42.4693   -9.4180 C   0  0  0  0  0  0  0  0  0  0  0  0
  -11.4579  -41.4447   -9.8598 C   0  0  0  0  0  0  0  0  0  0  0  0
  -11.6733  -40.1449   -9.3930 C   0  0  0  0  0  0  0  0  0  0  0  0
  -12.6735  -39.9052   -8.4961 C   0  0  0  0  0  0  0  0  0  0  0  0
  -10.8500  -39.1199   -9.8638 O   0  0  0  0  0  0  0  0  0  0  0  0
   -9.5415  -39.3878  -10.3336 C   0  0  0  0  0  0  0  0  0  0  0  0
  -12.0437  -43.7519   -9.8711 O   0  0  0  0  0  0  0  0  0  0  0  0
  -12.8624  -44.3089  -10.8639 C   0  0  0  0  0  0  0  0  0  0  0  0
  1  2  1  0
  2  3  1  0
  3  4  1  0
  4  5  2  0
  5  6  1  0
  6  7  2  0
  7  8  1  0
  8  9  2  0
  8 10  1  0
 10 11  2  0
 10 12  1  0
 12 13  1  0
 13 14  1  1
 14 15  1  0
 15 16  1  1
 15 17  1  0
 17 18  1  0
 18 19  1  0
 19 20  1  0
 20 21  1  0
 21 22  1  0
 22 23  1  0
 23 24  1  0
 13 25  1  0
 25 26  1  6
 25 27  1  0
 27 28  1  0
 28 29  1  0
 29 30  1  0
 30 31  2  0
 31 32  1  0
 32 33  2  0
 33 34  1  0
 34 35  2  0
 34 36  1  0
 36 37  1  0
 32 38  1  0
 38 39  1  0
  9  4  1  0
 24  6  1  0
 35 30  1  0
M  END
$$$$
