
     RDKit          3D

 39 41  0  0  0  0  0  0  0  0999 V2000
  -23.5250  -39.2935   -3.4213 C   0  0  0  0  0  0  0  0  0  0  0  0
  -22.1562  -39.2545   -3.6299 O   0  0  0  0  0  0  0  0  0  0  0  0
  -21.6185  -40.4998   -3.4806 C   0  0  0  0  0  0  0  0  0  0  0  0
  -21.2924  -41.1133   -4.7954 C   0  0  0  0  0  0  0  0  0  0  0  0
  -21.7554  -42.3455   -5.1662 C   0  0  0  0  0  0  0  0  0  0  0  0
  -21.4711  -42.9559   -6.4172 C   0  0  0  0  0  0  0  0  0  0  0  0
  -20.6715  -42.2627   -7.3257 C   0  0  0  0  0  0  0  0  0  0  0  0
  -20.1830  -41.0138   -6.9865 C   0  0  0  0  0  0  0  0  0  0  0  0
  -20.5183  -40.4726   -5.7086 C   0  0  0  0  0  0  0  0  0  0  0  0
  -19.3364  -40.0541   -7.7000 C   0  0  0  0  0  0  0  0  0  0  0  0
  -19.7100  -38.7838   -7.7288 O   0  0  0  0  0  0  0  0  0  0  0  0
  -18.1130  -40.1986   -8.4168 N   0  0  0  0  0  0  0  0  0  0  0  0
  -17.0303  -41.0962   -8.0254 C   0  0  1  0  0  0  0  0  0  0  0  0
  -17.1844  -42.4696   -8.5077 C   0  0  0  0  0  0  0  0  0  0  0  0
  -16.2779  -43.0420   -9.5354 C   0  0  2  0  0  0  0  0  0  0  0  0
  -16.0867  -42.2076  -10.7652 C   0  0  0  0  0  0  0  0  0  0  0  0
  -16.7991  -44.3819  -10.0106 C   0  0  0  0  0  0  0  0  0  0  0  0
  -17.3104  -45.2927   -8.9652 C   0  0  0  0  0  0  0  0  0  0  0  0
  -18.7953  -45.1548   -8.8422 C   0  0  0  0  0  0  0  0  0  0  0  0
  -19.5762  -46.4218   -8.8028 C   0  0  0  0  0  0  0  0  0  0  0  0
  -20.7563  -46.1681   -7.8917 C   0  0  0  0  0  0  0  0  0  0  0  0
  -21.9315  -45.5273   -8.5505 C   0  0  0  0  0  0  0  0  0  0  0  0
  -22.8318  -44.9131   -7.5055 C   0  0  0  0  0  0  0  0  0  0  0  0
  -22.1005  -44.2295   -6.4695 N   0  0  0  0  0  0  0  0  0  0  0  0
  -15.6802  -40.4567   -8.2690 C   0  0  2  0  0  0  0  0  0  0  0  0
  -14.7590  -41.0511   -7.4634 O   0  0  0  0  0  0  0  0  0  0  0  0
  -15.7827  -38.9917   -7.9244 C   0  0  0  0  0  0  0  0  0  0  0  0
  -15.4041  -38.0663   -8.9114 N   0  0  0  0  0  0  0  0  0  0  0  0
  -15.9625  -36.7650   -8.7447 C   0  0  0  0  0  0  0  0  0  0  0  0
  -16.9633  -36.5689   -9.8556 C   0  0  0  0  0  0  0  0  0  0  0  0
  -16.5491  -36.2365  -11.1234 C   0  0  0  0  0  0  0  0  0  0  0  0
  -17.4560  -36.0612  -12.1419 C   0  0  0  0  0  0  0  0  0  0  0  0
  -18.7888  -36.2210  -11.8835 C   0  0  0  0  0  0  0  0  0  0  0  0
  -19.2156  -36.5589  -10.5962 C   0  0  0  0  0  0  0  0  0  0  0  0
  -18.2969  -36.7278   -9.6013 C   0  0  0  0  0  0  0  0  0  0  0  0
  -20.5838  -36.7155  -10.3644 O   0  0  0  0  0  0  0  0  0  0  0  0
  -21.4914  -35.6517  -10.5861 C   0  0  0  0  0  0  0  0  0  0  0  0
  -17.0258  -35.7286  -13.4053 O   0  0  0  0  0  0  0  0  0  0  0  0
  -15.9614  -34.8363  -13.5974 C   0  0  0  0  0  0  0  0  0  0  0  0
  1  2  1  0
  2  3  1  0
  3  4  1  0
  4  5  2  0
  5  6  1  0
  6  7  2  0
  7  8  1  0
  8  9  2  0
  8 10  1  0
 10 11  2  0
 10 12  1  0
 12 13  1  0
 13 14  1  6
 14 15  1  0
 15 16  1  6
 15 17  1  0
 17 18  1  0
 18 19  1  0
 19 20  1  0
 20 21  1  0
 21 22  1  0
 22 23  1  0
 23 24  1  0
 13 25  1  0
 25 26  1  1
 25 27  1  0
 27 28  1  0
 28 29  1  0
 29 30  1  0
 30 31  2  0
 31 32  1  0
 32 33  2  0
 33 34  1  0
 34 35  2  0
 34 36  1  0
 36 37  1  0
 32 38  1  0
 38 39  1  0
  9  4  1  0
 24  6  1  0
 35 30  1  0
M  END
$$$$
