
     RDKit          3D

 39 41  0  0  0  0  0  0  0  0999 V2000
  -21.9615  -41.2710  -12.7839 C   0  0  0  0  0  0  0  0  0  0  0  0
  -20.7538  -41.8359  -13.1597 O   0  0  0  0  0  0  0  0  0  0  0  0
  -20.5669  -43.0254  -12.5176 C   0  0  0  0  0  0  0  0  0  0  0  0
  -20.4446  -42.8373  -11.0476 C   0  0  0  0  0  0  0  0  0  0  0  0
  -21.4935  -43.0327  -10.1921 C   0  0  0  0  0  0  0  0  0  0  0  0
  -21.4082  -42.8714   -8.7831 C   0  0  0  0  0  0  0  0  0  0  0  0
  -20.1845  -42.4899   -8.2332 C   0  0  0  0  0  0  0  0  0  0  0  0
  -19.1001  -42.2815   -9.0663 C   0  0  0  0  0  0  0  0  0  0  0  0
  -19.2720  -42.4673  -10.4714 C   0  0  0  0  0  0  0  0  0  0  0  0
  -17.7141  -41.8834   -8.8073 C   0  0  0  0  0  0  0  0  0  0  0  0
  -16.7420  -42.5710   -9.3876 O   0  0  0  0  0  0  0  0  0  0  0  0
  -17.1442  -40.8449   -8.0147 N   0  0  0  0  0  0  0  0  0  0  0  0
  -17.7159  -39.5091   -7.8733 C   0  0  1  0  0  0  0  0  0  0  0  0
  -18.7386  -39.4004   -6.8317 C   0  0  0  0  0  0  0  0  0  0  0  0
  -18.5093  -38.6153   -5.5921 C   0  0  2  0  0  0  0  0  0  0  0  0
  -17.2323  -38.9117   -4.8665 C   0  0  0  0  0  0  0  0  0  0  0  0
  -19.6262  -38.8598   -4.5993 C   0  0  0  0  0  0  0  0  0  0  0  0
  -20.9972  -38.8842   -5.1503 C   0  0  0  0  0  0  0  0  0  0  0  0
  -21.4147  -40.2932   -5.4322 C   0  0  0  0  0  0  0  0  0  0  0  0
  -22.7650  -40.6923   -4.9484 C   0  0  0  0  0  0  0  0  0  0  0  0
  -23.3072  -41.6773   -5.9599 C   0  0  0  0  0  0  0  0  0  0  0  0
  -22.8750  -43.0903   -5.7540 C   0  0  0  0  0  0  0  0  0  0  0  0
  -23.0737  -43.8767   -7.0276 C   0  0  0  0  0  0  0  0  0  0  0  0
  -22.6771  -43.1455   -8.2037 N   0  0  0  0  0  0  0  0  0  0  0  0
  -16.6307  -38.4542   -7.8481 C   0  0  2  0  0  0  0  0  0  0  0  0
  -17.1243  -37.3012   -8.3754 O   0  0  0  0  0  0  0  0  0  0  0  0
  -15.4783  -38.9423   -8.6901 C   0  0  0  0  0  0  0  0  0  0  0  0
  -15.7814  -39.7645   -9.7884 N   0  0  0  0  0  0  0  0  0  0  0  0
  -15.9837  -39.0622  -11.0126 C   0  0  0  0  0  0  0  0  0  0  0  0
  -14.6547  -38.4668  -11.4044 C   0  0  0  0  0  0  0  0  0  0  0  0
  -14.3461  -37.1662  -11.0840 C   0  0  0  0  0  0  0  0  0  0  0  0
  -13.1343  -36.6188  -11.4339 C   0  0  0  0  0  0  0  0  0  0  0  0
  -12.2266  -37.3846  -12.1109 C   0  0  0  0  0  0  0  0  0  0  0  0
  -12.5353  -38.7077  -12.4393 C   0  0  0  0  0  0  0  0  0  0  0  0
  -13.7444  -39.2292  -12.0815 C   0  0  0  0  0  0  0  0  0  0  0  0
  -11.5867  -39.4642  -13.1308 O   0  0  0  0  0  0  0  0  0  0  0  0
  -11.4314  -40.8495  -12.8829 C   0  0  0  0  0  0  0  0  0  0  0  0
  -12.8403  -35.3157  -11.1061 O   0  0  0  0  0  0  0  0  0  0  0  0
  -12.9588  -34.8554   -9.7869 C   0  0  0  0  0  0  0  0  0  0  0  0
  1  2  1  0
  2  3  1  0
  3  4  1  0
  4  5  2  0
  5  6  1  0
  6  7  2  0
  7  8  1  0
  8  9  2  0
  8 10  1  0
 10 11  2  0
 10 12  1  0
 12 13  1  0
 13 14  1  1
 14 15  1  0
 15 16  1  1
 15 17  1  0
 17 18  1  0
 18 19  1  0
 19 20  1  0
 20 21  1  0
 21 22  1  0
 22 23  1  0
 23 24  1  0
 13 25  1  0
 25 26  1  6
 25 27  1  0
 27 28  1  0
 28 29  1  0
 29 30  1  0
 30 31  2  0
 31 32  1  0
 32 33  2  0
 33 34  1  0
 34 35  2  0
 34 36  1  0
 36 37  1  0
 32 38  1  0
 38 39  1  0
  9  4  1  0
 24  6  1  0
 35 30  1  0
M  END
$$$$
