
     RDKit          3D

 39 41  0  0  0  0  0  0  0  0999 V2000
  -23.9624  -43.6671   -8.7818 C   0  0  0  0  0  0  0  0  0  0  0  0
  -22.7172  -43.1091   -8.5434 O   0  0  0  0  0  0  0  0  0  0  0  0
  -21.9651  -43.1249   -9.6819 C   0  0  0  0  0  0  0  0  0  0  0  0
  -21.4815  -41.7635  -10.0341 C   0  0  0  0  0  0  0  0  0  0  0  0
  -21.5384  -41.2704  -11.3083 C   0  0  0  0  0  0  0  0  0  0  0  0
  -21.0946  -39.9720  -11.6767 C   0  0  0  0  0  0  0  0  0  0  0  0
  -20.5671  -39.1462  -10.6842 C   0  0  0  0  0  0  0  0  0  0  0  0
  -20.4916  -39.6098   -9.3831 C   0  0  0  0  0  0  0  0  0  0  0  0
  -20.9618  -40.9276   -9.0987 C   0  0  0  0  0  0  0  0  0  0  0  0
  -20.0006  -39.0042   -8.1426 C   0  0  0  0  0  0  0  0  0  0  0  0
  -20.7555  -39.0896   -7.0577 O   0  0  0  0  0  0  0  0  0  0  0  0
  -18.8044  -38.2968   -7.8261 N   0  0  0  0  0  0  0  0  0  0  0  0
  -17.4887  -38.6190   -8.3702 C   0  0  1  0  0  0  0  0  0  0  0  0
  -17.2096  -38.0066   -9.6700 C   0  0  0  0  0  0  0  0  0  0  0  0
  -16.1840  -36.9442   -9.8279 C   0  0  2  0  0  0  0  0  0  0  0  0
  -16.2830  -35.8021   -8.8630 C   0  0  0  0  0  0  0  0  0  0  0  0
  -16.2637  -36.3359  -11.2123 C   0  0  0  0  0  0  0  0  0  0  0  0
  -16.4472  -37.2821  -12.3326 C   0  0  0  0  0  0  0  0  0  0  0  0
  -17.8980  -37.3935  -12.6813 C   0  0  0  0  0  0  0  0  0  0  0  0
  -18.2398  -37.3003  -14.1274 C   0  0  0  0  0  0  0  0  0  0  0  0
  -19.4264  -38.2121  -14.3455 C   0  0  0  0  0  0  0  0  0  0  0  0
  -20.7530  -37.5978  -14.0477 C   0  0  0  0  0  0  0  0  0  0  0  0
  -21.7856  -38.6816  -13.8501 C   0  0  0  0  0  0  0  0  0  0  0  0
  -21.2918  -39.7893  -13.0726 N   0  0  0  0  0  0  0  0  0  0  0  0
  -16.4122  -38.4588   -7.3183 C   0  0  2  0  0  0  0  0  0  0  0  0
  -15.3466  -39.2343   -7.6563 O   0  0  0  0  0  0  0  0  0  0  0  0
  -16.9727  -38.9189   -5.9955 C   0  0  0  0  0  0  0  0  0  0  0  0
  -18.1211  -38.2663   -5.5167 N   0  0  0  0  0  0  0  0  0  0  0  0
  -18.7069  -38.8718   -4.3665 C   0  0  0  0  0  0  0  0  0  0  0  0
  -19.9234  -39.6284   -4.8376 C   0  0  0  0  0  0  0  0  0  0  0  0
  -20.2024  -40.8830   -4.3503 C   0  0  0  0  0  0  0  0  0  0  0  0
  -21.3126  -41.5760   -4.7720 C   0  0  0  0  0  0  0  0  0  0  0  0
  -22.1478  -41.0035   -5.6901 C   0  0  0  0  0  0  0  0  0  0  0  0
  -21.8689  -39.7280   -6.1891 C   0  0  0  0  0  0  0  0  0  0  0  0
  -20.7611  -39.0593   -5.7557 C   0  0  0  0  0  0  0  0  0  0  0  0
  -22.7418  -39.1703   -7.1256 O   0  0  0  0  0  0  0  0  0  0  0  0
  -23.9013  -39.8629   -7.5506 C   0  0  0  0  0  0  0  0  0  0  0  0
  -21.5781  -42.8308   -4.2749 O   0  0  0  0  0  0  0  0  0  0  0  0
  -21.4406  -43.1135   -2.9084 C   0  0  0  0  0  0  0  0  0  0  0  0
  1  2  1  0
  2  3  1  0
  3  4  1  0
  4  5  2  0
  5  6  1  0
  6  7  2  0
  7  8  1  0
  8  9  2  0
  8 10  1  0
 10 11  2  0
 10 12  1  0
 12 13  1  0
 13 14  1  6
 14 15  1  0
 15 16  1  1
 15 17  1  0
 17 18  1  0
 18 19  1  0
 19 20  1  0
 20 21  1  0
 21 22  1  0
 22 23  1  0
 23 24  1  0
 13 25  1  0
 25 26  1  6
 25 27  1  0
 27 28  1  0
 28 29  1  0
 29 30  1  0
 30 31  2  0
 31 32  1  0
 32 33  2  0
 33 34  1  0
 34 35  2  0
 34 36  1  0
 36 37  1  0
 32 38  1  0
 38 39  1  0
  9  4  1  0
 24  6  1  0
 35 30  1  0
M  END
$$$$
