
     RDKit          3D

 39 41  0  0  0  0  0  0  0  0999 V2000
  -17.4959  -47.2944   -7.7155 C   0  0  0  0  0  0  0  0  0  0  0  0
  -17.7618  -46.3877   -8.7284 O   0  0  0  0  0  0  0  0  0  0  0  0
  -19.1076  -46.2029   -8.8577 C   0  0  0  0  0  0  0  0  0  0  0  0
  -19.5706  -45.0167   -8.0898 C   0  0  0  0  0  0  0  0  0  0  0  0
  -20.8940  -44.7636   -7.8558 C   0  0  0  0  0  0  0  0  0  0  0  0
  -21.3694  -43.6460   -7.1186 C   0  0  0  0  0  0  0  0  0  0  0  0
  -20.4357  -42.7488   -6.6006 C   0  0  0  0  0  0  0  0  0  0  0  0
  -19.0875  -42.9699   -6.8172 C   0  0  0  0  0  0  0  0  0  0  0  0
  -18.6953  -44.1192   -7.5680 C   0  0  0  0  0  0  0  0  0  0  0  0
  -17.8860  -42.2325   -6.4178 C   0  0  0  0  0  0  0  0  0  0  0  0
  -16.8779  -42.9094   -5.8887 O   0  0  0  0  0  0  0  0  0  0  0  0
  -17.5405  -40.8512   -6.4810 N   0  0  0  0  0  0  0  0  0  0  0  0
  -17.9107  -39.9591   -7.5756 C   0  0  1  0  0  0  0  0  0  0  0  0
  -19.2406  -39.3628   -7.4411 C   0  0  0  0  0  0  0  0  0  0  0  0
  -19.4228  -37.9098   -7.1937 C   0  0  2  0  0  0  0  0  0  0  0  0
  -18.6156  -37.3399   -6.0674 C   0  0  0  0  0  0  0  0  0  0  0  0
  -20.8711  -37.6075   -6.8709 C   0  0  0  0  0  0  0  0  0  0  0  0
  -21.8830  -38.2926   -7.7020 C   0  0  0  0  0  0  0  0  0  0  0  0
  -22.3564  -39.5361   -7.0176 C   0  0  0  0  0  0  0  0  0  0  0  0
  -23.8298  -39.7450   -6.9702 C   0  0  0  0  0  0  0  0  0  0  0  0
  -24.0528  -41.2379   -7.0621 C   0  0  0  0  0  0  0  0  0  0  0  0
  -23.9618  -41.9672   -5.7638 C   0  0  0  0  0  0  0  0  0  0  0  0
  -23.7385  -43.4387   -6.0182 C   0  0  0  0  0  0  0  0  0  0  0  0
  -22.7897  -43.6858   -7.0737 N   0  0  0  0  0  0  0  0  0  0  0  0
  -16.7850  -39.0002   -7.8986 C   0  0  2  0  0  0  0  0  0  0  0  0
  -16.8662  -38.6510   -9.2111 O   0  0  0  0  0  0  0  0  0  0  0  0
  -15.4762  -39.7056   -7.6435 C   0  0  0  0  0  0  0  0  0  0  0  0
  -15.5246  -41.0846   -7.3793 N   0  0  0  0  0  0  0  0  0  0  0  0
  -14.3191  -41.7848   -7.6779 C   0  0  0  0  0  0  0  0  0  0  0  0
  -14.4022  -42.2103   -9.1223 C   0  0  0  0  0  0  0  0  0  0  0  0
  -13.3442  -42.0073   -9.9761 C   0  0  0  0  0  0  0  0  0  0  0  0
  -13.4117  -42.3974  -11.2928 C   0  0  0  0  0  0  0  0  0  0  0  0
  -14.5509  -42.9955  -11.7542 C   0  0  0  0  0  0  0  0  0  0  0  0
  -15.6298  -43.2042  -10.8904 C   0  0  0  0  0  0  0  0  0  0  0  0
  -15.5397  -42.8087   -9.5874 C   0  0  0  0  0  0  0  0  0  0  0  0
  -16.7794  -43.8183  -11.3919 O   0  0  0  0  0  0  0  0  0  0  0  0
  -17.5308  -43.2263  -12.4357 C   0  0  0  0  0  0  0  0  0  0  0  0
  -12.3445  -42.1873  -12.1348 O   0  0  0  0  0  0  0  0  0  0  0  0
  -11.1232  -41.6985  -11.6495 C   0  0  0  0  0  0  0  0  0  0  0  0
  1  2  1  0
  2  3  1  0
  3  4  1  0
  4  5  2  0
  5  6  1  0
  6  7  2  0
  7  8  1  0
  8  9  2  0
  8 10  1  0
 10 11  2  0
 10 12  1  0
 12 13  1  0
 13 14  1  1
 14 15  1  0
 15 16  1  1
 15 17  1  0
 17 18  1  0
 18 19  1  0
 19 20  1  0
 20 21  1  0
 21 22  1  0
 22 23  1  0
 23 24  1  0
 13 25  1  0
 25 26  1  6
 25 27  1  0
 27 28  1  0
 28 29  1  0
 29 30  1  0
 30 31  2  0
 31 32  1  0
 32 33  2  0
 33 34  1  0
 34 35  2  0
 34 36  1  0
 36 37  1  0
 32 38  1  0
 38 39  1  0
  9  4  1  0
 24  6  1  0
 35 30  1  0
M  END
$$$$
