
     RDKit          3D

 39 41  0  0  0  0  0  0  0  0999 V2000
  -18.8238  -46.1771  -10.2277 C   0  0  0  0  0  0  0  0  0  0  0  0
  -18.3199  -45.5082   -9.1243 O   0  0  0  0  0  0  0  0  0  0  0  0
  -16.9798  -45.2964   -9.2697 C   0  0  0  0  0  0  0  0  0  0  0  0
  -16.7041  -44.0183   -9.9781 C   0  0  0  0  0  0  0  0  0  0  0  0
  -15.8127  -43.9284  -11.0113 C   0  0  0  0  0  0  0  0  0  0  0  0
  -15.5334  -42.7263  -11.7152 C   0  0  0  0  0  0  0  0  0  0  0  0
  -16.2043  -41.5646  -11.3339 C   0  0  0  0  0  0  0  0  0  0  0  0
  -17.1129  -41.6149  -10.2922 C   0  0  0  0  0  0  0  0  0  0  0  0
  -17.3355  -42.8649   -9.6392 C   0  0  0  0  0  0  0  0  0  0  0  0
  -17.9585  -40.5958   -9.6652 C   0  0  0  0  0  0  0  0  0  0  0  0
  -19.2350  -40.8790   -9.4539 O   0  0  0  0  0  0  0  0  0  0  0  0
  -17.6882  -39.2766   -9.1984 N   0  0  0  0  0  0  0  0  0  0  0  0
  -16.4493  -38.8740   -8.5394 C   0  0  1  0  0  0  0  0  0  0  0  0
  -15.3738  -38.4995   -9.4589 C   0  0  0  0  0  0  0  0  0  0  0  0
  -14.8901  -37.0994   -9.5650 C   0  0  2  0  0  0  0  0  0  0  0  0
  -15.9537  -36.0608   -9.7528 C   0  0  0  0  0  0  0  0  0  0  0  0
  -13.9465  -36.9553  -10.7404 C   0  0  0  0  0  0  0  0  0  0  0  0
  -12.9559  -38.0372  -10.9201 C   0  0  0  0  0  0  0  0  0  0  0  0
  -13.4645  -39.0440  -11.9033 C   0  0  0  0  0  0  0  0  0  0  0  0
  -12.5127  -39.4699  -12.9661 C   0  0  0  0  0  0  0  0  0  0  0  0
  -12.8151  -40.9237  -13.2527 C   0  0  0  0  0  0  0  0  0  0  0  0
  -13.9216  -41.1544  -14.2264 C   0  0  0  0  0  0  0  0  0  0  0  0
  -14.4368  -42.5671  -14.0898 C   0  0  0  0  0  0  0  0  0  0  0  0
  -14.5594  -42.9873  -12.7173 N   0  0  0  0  0  0  0  0  0  0  0  0
  -16.7251  -37.9018   -7.4125 C   0  0  2  0  0  0  0  0  0  0  0  0
  -15.7463  -38.0238   -6.4755 O   0  0  0  0  0  0  0  0  0  0  0  0
  -18.0578  -38.2548   -6.8001 C   0  0  0  0  0  0  0  0  0  0  0  0
  -18.2745  -39.5984   -6.4511 N   0  0  0  0  0  0  0  0  0  0  0  0
  -19.3250  -39.8006   -5.5086 C   0  0  0  0  0  0  0  0  0  0  0  0
  -20.5638  -40.1461   -6.2961 C   0  0  0  0  0  0  0  0  0  0  0  0
  -21.3702  -41.1915   -5.9137 C   0  0  0  0  0  0  0  0  0  0  0  0
  -22.5037  -41.5085   -6.6245 C   0  0  0  0  0  0  0  0  0  0  0  0
  -22.8284  -40.7693   -7.7274 C   0  0  0  0  0  0  0  0  0  0  0  0
  -22.0119  -39.7053   -8.1208 C   0  0  0  0  0  0  0  0  0  0  0  0
  -20.8919  -39.4093   -7.3997 C   0  0  0  0  0  0  0  0  0  0  0  0
  -22.3710  -38.9689   -9.2518 O   0  0  0  0  0  0  0  0  0  0  0  0
  -23.6196  -38.3058   -9.3289 C   0  0  0  0  0  0  0  0  0  0  0  0
  -23.3005  -42.5577   -6.2291 O   0  0  0  0  0  0  0  0  0  0  0  0
  -23.7671  -42.6572   -4.9105 C   0  0  0  0  0  0  0  0  0  0  0  0
  1  2  1  0
  2  3  1  0
  3  4  1  0
  4  5  2  0
  5  6  1  0
  6  7  2  0
  7  8  1  0
  8  9  2  0
  8 10  1  0
 10 11  2  0
 10 12  1  0
 12 13  1  0
 13 14  1  6
 14 15  1  0
 15 16  1  6
 15 17  1  0
 17 18  1  0
 18 19  1  0
 19 20  1  0
 20 21  1  0
 21 22  1  0
 22 23  1  0
 23 24  1  0
 13 25  1  0
 25 26  1  1
 25 27  1  0
 27 28  1  0
 28 29  1  0
 29 30  1  0
 30 31  2  0
 31 32  1  0
 32 33  2  0
 33 34  1  0
 34 35  2  0
 34 36  1  0
 36 37  1  0
 32 38  1  0
 38 39  1  0
  9  4  1  0
 24  6  1  0
 35 30  1  0
M  END
$$$$
