
     RDKit          3D

 39 41  0  0  0  0  0  0  0  0999 V2000
  -14.5851  -46.0745  -10.6280 C   0  0  0  0  0  0  0  0  0  0  0  0
  -15.8162  -45.5334  -10.2953 O   0  0  0  0  0  0  0  0  0  0  0  0
  -16.4824  -45.1441  -11.4207 C   0  0  0  0  0  0  0  0  0  0  0  0
  -16.2382  -43.7101  -11.7294 C   0  0  0  0  0  0  0  0  0  0  0  0
  -15.2526  -43.3002  -12.5843 C   0  0  0  0  0  0  0  0  0  0  0  0
  -14.9991  -41.9402  -12.9083 C   0  0  0  0  0  0  0  0  0  0  0  0
  -15.7988  -40.9597  -12.3218 C   0  0  0  0  0  0  0  0  0  0  0  0
  -16.8055  -41.3348  -11.4505 C   0  0  0  0  0  0  0  0  0  0  0  0
  -16.9936  -42.7242  -11.1808 C   0  0  0  0  0  0  0  0  0  0  0  0
  -17.7929  -40.5664  -10.6879 C   0  0  0  0  0  0  0  0  0  0  0  0
  -19.0573  -40.9597  -10.7180 O   0  0  0  0  0  0  0  0  0  0  0  0
  -17.6817  -39.4102   -9.8619 N   0  0  0  0  0  0  0  0  0  0  0  0
  -16.5565  -39.1389   -8.9722 C   0  0  1  0  0  0  0  0  0  0  0  0
  -15.4237  -38.4768   -9.6209 C   0  0  0  0  0  0  0  0  0  0  0  0
  -15.0470  -37.0776   -9.2955 C   0  0  2  0  0  0  0  0  0  0  0  0
  -16.1657  -36.0815   -9.3346 C   0  0  0  0  0  0  0  0  0  0  0  0
  -13.9991  -36.5745  -10.2658 C   0  0  0  0  0  0  0  0  0  0  0  0
  -12.9103  -37.5168  -10.5989 C   0  0  0  0  0  0  0  0  0  0  0  0
  -13.2283  -38.2450  -11.8667 C   0  0  0  0  0  0  0  0  0  0  0  0
  -12.1378  -38.3200  -12.8777 C   0  0  0  0  0  0  0  0  0  0  0  0
  -12.2889  -39.6557  -13.5706 C   0  0  0  0  0  0  0  0  0  0  0  0
  -13.2637  -39.6702  -14.7000 C   0  0  0  0  0  0  0  0  0  0  0  0
  -13.6738  -41.0913  -15.0034 C   0  0  0  0  0  0  0  0  0  0  0  0
  -13.9064  -41.8719  -13.8151 N   0  0  0  0  0  0  0  0  0  0  0  0
  -17.0283  -38.5221   -7.6730 C   0  0  2  0  0  0  0  0  0  0  0  0
  -16.1261  -38.8086   -6.6957 O   0  0  0  0  0  0  0  0  0  0  0  0
  -18.3643  -39.1276   -7.3208 C   0  0  0  0  0  0  0  0  0  0  0  0
  -19.0616  -38.5709   -6.2354 N   0  0  0  0  0  0  0  0  0  0  0  0
  -20.3167  -39.1894   -5.9614 C   0  0  0  0  0  0  0  0  0  0  0  0
  -20.7144  -39.9489   -7.2020 C   0  0  0  0  0  0  0  0  0  0  0  0
  -20.2670  -41.2313   -7.4140 C   0  0  0  0  0  0  0  0  0  0  0  0
  -20.6299  -41.9310   -8.5405 C   0  0  0  0  0  0  0  0  0  0  0  0
  -21.4483  -41.3371   -9.4603 C   0  0  0  0  0  0  0  0  0  0  0  0
  -21.9060  -40.0334   -9.2499 C   0  0  0  0  0  0  0  0  0  0  0  0
  -21.5325  -39.3585   -8.1242 C   0  0  0  0  0  0  0  0  0  0  0  0
  -22.7412  -39.4547  -10.2080 O   0  0  0  0  0  0  0  0  0  0  0  0
  -24.0613  -39.0570   -9.8857 C   0  0  0  0  0  0  0  0  0  0  0  0
  -20.1739  -43.2136   -8.7383 O   0  0  0  0  0  0  0  0  0  0  0  0
  -20.9097  -44.1362   -9.4956 C   0  0  0  0  0  0  0  0  0  0  0  0
  1  2  1  0
  2  3  1  0
  3  4  1  0
  4  5  2  0
  5  6  1  0
  6  7  2  0
  7  8  1  0
  8  9  2  0
  8 10  1  0
 10 11  2  0
 10 12  1  0
 12 13  1  0
 13 14  1  6
 14 15  1  0
 15 16  1  6
 15 17  1  0
 17 18  1  0
 18 19  1  0
 19 20  1  0
 20 21  1  0
 21 22  1  0
 22 23  1  0
 23 24  1  0
 13 25  1  0
 25 26  1  1
 25 27  1  0
 27 28  1  0
 28 29  1  0
 29 30  1  0
 30 31  2  0
 31 32  1  0
 32 33  2  0
 33 34  1  0
 34 35  2  0
 34 36  1  0
 36 37  1  0
 32 38  1  0
 38 39  1  0
  9  4  1  0
 24  6  1  0
 35 30  1  0
M  END
$$$$
