
     RDKit          3D

 39 41  0  0  0  0  0  0  0  0999 V2000
  -17.5971  -47.2387  -11.4345 C   0  0  0  0  0  0  0  0  0  0  0  0
  -16.8424  -46.1809  -10.9545 O   0  0  0  0  0  0  0  0  0  0  0  0
  -17.5210  -45.0069  -11.1071 C   0  0  0  0  0  0  0  0  0  0  0  0
  -18.0378  -44.5037   -9.8067 C   0  0  0  0  0  0  0  0  0  0  0  0
  -19.1336  -45.0444   -9.1928 C   0  0  0  0  0  0  0  0  0  0  0  0
  -19.6473  -44.5944   -7.9468 C   0  0  0  0  0  0  0  0  0  0  0  0
  -19.0004  -43.5375   -7.3069 C   0  0  0  0  0  0  0  0  0  0  0  0
  -17.8889  -42.9632   -7.8970 C   0  0  0  0  0  0  0  0  0  0  0  0
  -17.4378  -43.4777   -9.1502 C   0  0  0  0  0  0  0  0  0  0  0  0
  -17.0085  -41.8645   -7.4916 C   0  0  0  0  0  0  0  0  0  0  0  0
  -15.6986  -42.0467   -7.5645 O   0  0  0  0  0  0  0  0  0  0  0  0
  -17.2720  -40.5510   -7.0048 N   0  0  0  0  0  0  0  0  0  0  0  0
  -18.3682  -39.7056   -7.4683 C   0  0  1  0  0  0  0  0  0  0  0  0
  -19.6406  -39.9434   -6.7850 C   0  0  0  0  0  0  0  0  0  0  0  0
  -20.2405  -38.9314   -5.8786 C   0  0  2  0  0  0  0  0  0  0  0  0
  -19.3234  -38.3783   -4.8306 C   0  0  0  0  0  0  0  0  0  0  0  0
  -21.4217  -39.5217   -5.1376 C   0  0  0  0  0  0  0  0  0  0  0  0
  -22.3429  -40.3574   -5.9357 C   0  0  0  0  0  0  0  0  0  0  0  0
  -21.9815  -41.8025   -5.7946 C   0  0  0  0  0  0  0  0  0  0  0  0
  -23.1034  -42.7407   -5.5153 C   0  0  0  0  0  0  0  0  0  0  0  0
  -22.7600  -44.0372   -6.2139 C   0  0  0  0  0  0  0  0  0  0  0  0
  -21.8729  -44.9523   -5.4383 C   0  0  0  0  0  0  0  0  0  0  0  0
  -21.2349  -45.9561   -6.3684 C   0  0  0  0  0  0  0  0  0  0  0  0
  -20.7903  -45.3678   -7.6059 N   0  0  0  0  0  0  0  0  0  0  0  0
  -17.9323  -38.2598   -7.5714 C   0  0  2  0  0  0  0  0  0  0  0  0
  -19.0197  -37.4901   -7.8473 O   0  0  0  0  0  0  0  0  0  0  0  0
  -16.9344  -38.1468   -8.6970 C   0  0  0  0  0  0  0  0  0  0  0  0
  -15.5710  -38.1807   -8.3595 N   0  0  0  0  0  0  0  0  0  0  0  0
  -14.7089  -38.5689   -9.4267 C   0  0  0  0  0  0  0  0  0  0  0  0
  -14.9782  -37.6295  -10.5753 C   0  0  0  0  0  0  0  0  0  0  0  0
  -16.0196  -37.8607  -11.4422 C   0  0  0  0  0  0  0  0  0  0  0  0
  -16.2736  -37.0055  -12.4884 C   0  0  0  0  0  0  0  0  0  0  0  0
  -15.4747  -35.9103  -12.6641 C   0  0  0  0  0  0  0  0  0  0  0  0
  -14.4143  -35.6705  -11.7857 C   0  0  0  0  0  0  0  0  0  0  0  0
  -14.1816  -36.5333  -10.7545 C   0  0  0  0  0  0  0  0  0  0  0  0
  -13.6167  -34.5428  -11.9918 O   0  0  0  0  0  0  0  0  0  0  0  0
  -12.3877  -34.3792  -11.3081 C   0  0  0  0  0  0  0  0  0  0  0  0
  -17.3196  -37.2505  -13.3474 O   0  0  0  0  0  0  0  0  0  0  0  0
  -18.3794  -38.0910  -12.9782 C   0  0  0  0  0  0  0  0  0  0  0  0
  1  2  1  0
  2  3  1  0
  3  4  1  0
  4  5  2  0
  5  6  1  0
  6  7  2  0
  7  8  1  0
  8  9  2  0
  8 10  1  0
 10 11  2  0
 10 12  1  0
 12 13  1  0
 13 14  1  1
 14 15  1  0
 15 16  1  1
 15 17  1  0
 17 18  1  0
 18 19  1  0
 19 20  1  0
 20 21  1  0
 21 22  1  0
 22 23  1  0
 23 24  1  0
 13 25  1  0
 25 26  1  6
 25 27  1  0
 27 28  1  0
 28 29  1  0
 29 30  1  0
 30 31  2  0
 31 32  1  0
 32 33  2  0
 33 34  1  0
 34 35  2  0
 34 36  1  0
 36 37  1  0
 32 38  1  0
 38 39  1  0
  9  4  1  0
 24  6  1  0
 35 30  1  0
M  END
$$$$
