
     RDKit          3D

 39 41  0  0  0  0  0  0  0  0999 V2000
  -18.9926  -39.7273   -0.2436 C   0  0  0  0  0  0  0  0  0  0  0  0
  -19.9832  -40.3577   -0.9786 O   0  0  0  0  0  0  0  0  0  0  0  0
  -19.4311  -41.0801   -1.9961 C   0  0  0  0  0  0  0  0  0  0  0  0
  -20.1529  -40.8564   -3.2768 C   0  0  0  0  0  0  0  0  0  0  0  0
  -21.4595  -41.2178   -3.4566 C   0  0  0  0  0  0  0  0  0  0  0  0
  -22.1811  -41.0098   -4.6627 C   0  0  0  0  0  0  0  0  0  0  0  0
  -21.5228  -40.4023   -5.7317 C   0  0  0  0  0  0  0  0  0  0  0  0
  -20.2001  -40.0234   -5.5889 C   0  0  0  0  0  0  0  0  0  0  0  0
  -19.5498  -40.2680   -4.3416 C   0  0  0  0  0  0  0  0  0  0  0  0
  -19.2500  -39.3804   -6.5003 C   0  0  0  0  0  0  0  0  0  0  0  0
  -18.5370  -38.3592   -6.0496 O   0  0  0  0  0  0  0  0  0  0  0  0
  -18.8995  -39.6328   -7.8586 N   0  0  0  0  0  0  0  0  0  0  0  0
  -18.8018  -40.9639   -8.4500 C   0  0  1  0  0  0  0  0  0  0  0  0
  -20.0731  -41.4982   -8.9406 C   0  0  0  0  0  0  0  0  0  0  0  0
  -20.3297  -41.6941  -10.3902 C   0  0  2  0  0  0  0  0  0  0  0  0
  -20.0299  -40.5147  -11.2645 C   0  0  0  0  0  0  0  0  0  0  0  0
  -21.7858  -42.0360  -10.6263 C   0  0  0  0  0  0  0  0  0  0  0  0
  -22.3909  -43.0034   -9.6872 C   0  0  0  0  0  0  0  0  0  0  0  0
  -23.1035  -42.2793   -8.5887 C   0  0  0  0  0  0  0  0  0  0  0  0
  -24.4769  -42.7546   -8.2653 C   0  0  0  0  0  0  0  0  0  0  0  0
  -24.6541  -42.5667   -6.7752 C   0  0  0  0  0  0  0  0  0  0  0  0
  -25.0880  -41.2003   -6.3621 C   0  0  0  0  0  0  0  0  0  0  0  0
  -24.7909  -40.9905   -4.8967 C   0  0  0  0  0  0  0  0  0  0  0  0
  -23.5037  -41.5073   -4.5077 N   0  0  0  0  0  0  0  0  0  0  0  0
  -17.6344  -41.0469   -9.4100 C   0  0  2  0  0  0  0  0  0  0  0  0
  -16.6573  -41.8109   -8.8509 O   0  0  0  0  0  0  0  0  0  0  0  0
  -17.1135  -39.6502   -9.6415 C   0  0  0  0  0  0  0  0  0  0  0  0
  -16.1766  -39.1479   -8.7229 N   0  0  0  0  0  0  0  0  0  0  0  0
  -15.0864  -38.4465   -9.3166 C   0  0  0  0  0  0  0  0  0  0  0  0
  -15.6751  -37.4720  -10.3056 C   0  0  0  0  0  0  0  0  0  0  0  0
  -16.9962  -37.5586  -10.6753 C   0  0  0  0  0  0  0  0  0  0  0  0
  -17.5403  -36.6702  -11.5727 C   0  0  0  0  0  0  0  0  0  0  0  0
  -16.7504  -35.6881  -12.1020 C   0  0  0  0  0  0  0  0  0  0  0  0
  -15.4064  -35.5956  -11.7296 C   0  0  0  0  0  0  0  0  0  0  0  0
  -14.8885  -36.4886  -10.8371 C   0  0  0  0  0  0  0  0  0  0  0  0
  -14.6258  -34.5808  -12.2876 O   0  0  0  0  0  0  0  0  0  0  0  0
  -13.5059  -34.0548  -11.5992 C   0  0  0  0  0  0  0  0  0  0  0  0
  -18.8641  -36.7700  -11.9328 O   0  0  0  0  0  0  0  0  0  0  0  0
  -19.2537  -36.7376  -13.2793 C   0  0  0  0  0  0  0  0  0  0  0  0
  1  2  1  0
  2  3  1  0
  3  4  1  0
  4  5  2  0
  5  6  1  0
  6  7  2  0
  7  8  1  0
  8  9  2  0
  8 10  1  0
 10 11  2  0
 10 12  1  0
 12 13  1  0
 13 14  1  6
 14 15  1  0
 15 16  1  6
 15 17  1  0
 17 18  1  0
 18 19  1  0
 19 20  1  0
 20 21  1  0
 21 22  1  0
 22 23  1  0
 23 24  1  0
 13 25  1  0
 25 26  1  1
 25 27  1  0
 27 28  1  0
 28 29  1  0
 29 30  1  0
 30 31  2  0
 31 32  1  0
 32 33  2  0
 33 34  1  0
 34 35  2  0
 34 36  1  0
 36 37  1  0
 32 38  1  0
 38 39  1  0
  9  4  1  0
 24  6  1  0
 35 30  1  0
M  END
$$$$
