
     RDKit          3D

 39 41  0  0  0  0  0  0  0  0999 V2000
  -18.8239  -48.4288   -8.2969 C   0  0  0  0  0  0  0  0  0  0  0  0
  -17.8524  -47.4550   -8.1333 O   0  0  0  0  0  0  0  0  0  0  0  0
  -18.1651  -46.3462   -8.8646 C   0  0  0  0  0  0  0  0  0  0  0  0
  -18.7753  -45.2885   -8.0161 C   0  0  0  0  0  0  0  0  0  0  0  0
  -20.1249  -45.1943   -7.8165 C   0  0  0  0  0  0  0  0  0  0  0  0
  -20.7393  -44.2031   -7.0049 C   0  0  0  0  0  0  0  0  0  0  0  0
  -19.9227  -43.2662   -6.3720 C   0  0  0  0  0  0  0  0  0  0  0  0
  -18.5524  -43.3278   -6.5504 C   0  0  0  0  0  0  0  0  0  0  0  0
  -18.0169  -44.3577   -7.3817 C   0  0  0  0  0  0  0  0  0  0  0  0
  -17.4491  -42.5111   -6.0382 C   0  0  0  0  0  0  0  0  0  0  0  0
  -16.3929  -43.1269   -5.5287 O   0  0  0  0  0  0  0  0  0  0  0  0
  -17.2492  -41.1017   -5.9660 N   0  0  0  0  0  0  0  0  0  0  0  0
  -17.6757  -40.1559   -6.9930 C   0  0  1  0  0  0  0  0  0  0  0  0
  -19.0648  -39.7133   -6.8627 C   0  0  0  0  0  0  0  0  0  0  0  0
  -19.4072  -38.3152   -6.4972 C   0  0  2  0  0  0  0  0  0  0  0  0
  -18.7016  -37.7710   -5.2926 C   0  0  0  0  0  0  0  0  0  0  0  0
  -20.8889  -38.1932   -6.2100 C   0  0  0  0  0  0  0  0  0  0  0  0
  -21.7954  -38.8993   -7.1394 C   0  0  0  0  0  0  0  0  0  0  0  0
  -22.1570  -40.2420   -6.5867 C   0  0  0  0  0  0  0  0  0  0  0  0
  -23.6009  -40.6036   -6.6193 C   0  0  0  0  0  0  0  0  0  0  0  0
  -23.6621  -42.0969   -6.8506 C   0  0  0  0  0  0  0  0  0  0  0  0
  -23.5370  -42.9285   -5.6182 C   0  0  0  0  0  0  0  0  0  0  0  0
  -23.1515  -44.3401   -5.9907 C   0  0  0  0  0  0  0  0  0  0  0  0
  -22.1482  -44.3917   -7.0231 N   0  0  0  0  0  0  0  0  0  0  0  0
  -16.6475  -39.0616   -7.1837 C   0  0  2  0  0  0  0  0  0  0  0  0
  -16.7815  -38.5439   -8.4347 O   0  0  0  0  0  0  0  0  0  0  0  0
  -15.2759  -39.6712   -7.0333 C   0  0  0  0  0  0  0  0  0  0  0  0
  -14.2928  -39.2908   -7.9621 N   0  0  0  0  0  0  0  0  0  0  0  0
  -13.7574  -40.3674   -8.7283 C   0  0  0  0  0  0  0  0  0  0  0  0
  -14.5199  -40.4051  -10.0288 C   0  0  0  0  0  0  0  0  0  0  0  0
  -15.1651  -41.5501  -10.4316 C   0  0  0  0  0  0  0  0  0  0  0  0
  -15.8661  -41.5897  -11.6138 C   0  0  0  0  0  0  0  0  0  0  0  0
  -15.9186  -40.4702  -12.3963 C   0  0  0  0  0  0  0  0  0  0  0  0
  -15.2643  -39.3032  -11.9917 C   0  0  0  0  0  0  0  0  0  0  0  0
  -14.5747  -39.2878  -10.8143 C   0  0  0  0  0  0  0  0  0  0  0  0
  -15.3371  -38.1761  -12.8130 O   0  0  0  0  0  0  0  0  0  0  0  0
  -16.1662  -37.0780  -12.4791 C   0  0  0  0  0  0  0  0  0  0  0  0
  -16.5065  -42.7431  -12.0031 O   0  0  0  0  0  0  0  0  0  0  0  0
  -16.1631  -43.9851  -11.4503 C   0  0  0  0  0  0  0  0  0  0  0  0
  1  2  1  0
  2  3  1  0
  3  4  1  0
  4  5  2  0
  5  6  1  0
  6  7  2  0
  7  8  1  0
  8  9  2  0
  8 10  1  0
 10 11  2  0
 10 12  1  0
 12 13  1  0
 13 14  1  1
 14 15  1  0
 15 16  1  1
 15 17  1  0
 17 18  1  0
 18 19  1  0
 19 20  1  0
 20 21  1  0
 21 22  1  0
 22 23  1  0
 23 24  1  0
 13 25  1  0
 25 26  1  6
 25 27  1  0
 27 28  1  0
 28 29  1  0
 29 30  1  0
 30 31  2  0
 31 32  1  0
 32 33  2  0
 33 34  1  0
 34 35  2  0
 34 36  1  0
 36 37  1  0
 32 38  1  0
 38 39  1  0
  9  4  1  0
 24  6  1  0
 35 30  1  0
M  END
$$$$
