
     RDKit          3D

 39 41  0  0  0  0  0  0  0  0999 V2000
  -19.3463  -38.7422  -15.2332 C   0  0  0  0  0  0  0  0  0  0  0  0
  -19.8577  -39.9161  -14.7047 O   0  0  0  0  0  0  0  0  0  0  0  0
  -18.8716  -40.6243  -14.0818 C   0  0  0  0  0  0  0  0  0  0  0  0
  -19.2241  -40.9207  -12.6679 C   0  0  0  0  0  0  0  0  0  0  0  0
  -20.5107  -41.1467  -12.2633 C   0  0  0  0  0  0  0  0  0  0  0  0
  -20.8804  -41.4418  -10.9236 C   0  0  0  0  0  0  0  0  0  0  0  0
  -19.8759  -41.5051   -9.9581 C   0  0  0  0  0  0  0  0  0  0  0  0
  -18.5621  -41.2810  -10.3282 C   0  0  0  0  0  0  0  0  0  0  0  0
  -18.2773  -40.9921  -11.6971 C   0  0  0  0  0  0  0  0  0  0  0  0
  -17.3073  -41.2741   -9.5718 C   0  0  0  0  0  0  0  0  0  0  0  0
  -16.2715  -41.9373  -10.0632 O   0  0  0  0  0  0  0  0  0  0  0  0
  -16.9313  -40.6654   -8.3390 N   0  0  0  0  0  0  0  0  0  0  0  0
  -17.3819  -39.3480   -7.9000 C   0  0  1  0  0  0  0  0  0  0  0  0
  -18.6752  -39.3530   -7.2147 C   0  0  0  0  0  0  0  0  0  0  0  0
  -18.7919  -39.0458   -5.7663 C   0  0  2  0  0  0  0  0  0  0  0  0
  -17.8627  -39.8042   -4.8681 C   0  0  0  0  0  0  0  0  0  0  0  0
  -20.1926  -39.3452   -5.2752 C   0  0  0  0  0  0  0  0  0  0  0  0
  -21.2996  -38.9191   -6.1566 C   0  0  0  0  0  0  0  0  0  0  0  0
  -21.7382  -40.0587   -7.0214 C   0  0  0  0  0  0  0  0  0  0  0  0
  -23.2051  -40.2995   -7.1045 C   0  0  0  0  0  0  0  0  0  0  0  0
  -23.4775  -40.7976   -8.5063 C   0  0  0  0  0  0  0  0  0  0  0  0
  -23.2802  -42.2636   -8.7009 C   0  0  0  0  0  0  0  0  0  0  0  0
  -23.1238  -42.5678  -10.1715 C   0  0  0  0  0  0  0  0  0  0  0  0
  -22.2901  -41.6120  -10.8546 N   0  0  0  0  0  0  0  0  0  0  0  0
  -16.2669  -38.5971   -7.2043 C   0  0  2  0  0  0  0  0  0  0  0  0
  -16.6605  -37.3103   -7.0034 O   0  0  0  0  0  0  0  0  0  0  0  0
  -15.0524  -38.6203   -8.0986 C   0  0  0  0  0  0  0  0  0  0  0  0
  -13.9218  -39.3153   -7.6374 N   0  0  0  0  0  0  0  0  0  0  0  0
  -13.7749  -40.6267   -8.1773 C   0  0  0  0  0  0  0  0  0  0  0  0
  -13.6094  -40.4739   -9.6684 C   0  0  0  0  0  0  0  0  0  0  0  0
  -14.6434  -40.0090  -10.4457 C   0  0  0  0  0  0  0  0  0  0  0  0
  -14.4975  -39.8626  -11.8050 C   0  0  0  0  0  0  0  0  0  0  0  0
  -13.3036  -40.1862  -12.3867 C   0  0  0  0  0  0  0  0  0  0  0  0
  -12.2489  -40.6595  -11.6011 C   0  0  0  0  0  0  0  0  0  0  0  0
  -12.4172  -40.7964  -10.2539 C   0  0  0  0  0  0  0  0  0  0  0  0
  -11.0416  -40.9809  -12.2252 O   0  0  0  0  0  0  0  0  0  0  0  0
   -9.8871  -41.2975  -11.4693 C   0  0  0  0  0  0  0  0  0  0  0  0
  -15.5417  -39.3961  -12.5693 O   0  0  0  0  0  0  0  0  0  0  0  0
  -15.4045  -38.2463  -13.3600 C   0  0  0  0  0  0  0  0  0  0  0  0
  1  2  1  0
  2  3  1  0
  3  4  1  0
  4  5  2  0
  5  6  1  0
  6  7  2  0
  7  8  1  0
  8  9  2  0
  8 10  1  0
 10 11  2  0
 10 12  1  0
 12 13  1  0
 13 14  1  1
 14 15  1  0
 15 16  1  1
 15 17  1  0
 17 18  1  0
 18 19  1  0
 19 20  1  0
 20 21  1  0
 21 22  1  0
 22 23  1  0
 23 24  1  0
 13 25  1  0
 25 26  1  6
 25 27  1  0
 27 28  1  0
 28 29  1  0
 29 30  1  0
 30 31  2  0
 31 32  1  0
 32 33  2  0
 33 34  1  0
 34 35  2  0
 34 36  1  0
 36 37  1  0
 32 38  1  0
 38 39  1  0
  9  4  1  0
 24  6  1  0
 35 30  1  0
M  END
$$$$
