
     RDKit          3D

 39 41  0  0  0  0  0  0  0  0999 V2000
  -20.8234  -42.3394   -0.7716 C   0  0  0  0  0  0  0  0  0  0  0  0
  -21.1804  -43.3105   -1.6926 O   0  0  0  0  0  0  0  0  0  0  0  0
  -20.2738  -43.3533   -2.7116 C   0  0  0  0  0  0  0  0  0  0  0  0
  -20.7560  -42.6028   -3.9013 C   0  0  0  0  0  0  0  0  0  0  0  0
  -21.9816  -42.8277   -4.4648 C   0  0  0  0  0  0  0  0  0  0  0  0
  -22.4764  -42.1223   -5.5945 C   0  0  0  0  0  0  0  0  0  0  0  0
  -21.6682  -41.1414   -6.1688 C   0  0  0  0  0  0  0  0  0  0  0  0
  -20.4210  -40.8858   -5.6280 C   0  0  0  0  0  0  0  0  0  0  0  0
  -20.0015  -41.6398   -4.4905 C   0  0  0  0  0  0  0  0  0  0  0  0
  -19.3583  -39.9444   -5.9904 C   0  0  0  0  0  0  0  0  0  0  0  0
  -18.8054  -39.2182   -5.0306 O   0  0  0  0  0  0  0  0  0  0  0  0
  -18.7456  -39.6192   -7.2355 N   0  0  0  0  0  0  0  0  0  0  0  0
  -18.4584  -40.5873   -8.2897 C   0  0  1  0  0  0  0  0  0  0  0  0
  -19.5808  -40.8415   -9.1941 C   0  0  0  0  0  0  0  0  0  0  0  0
  -19.5498  -40.4132  -10.6158 C   0  0  2  0  0  0  0  0  0  0  0  0
  -19.1642  -38.9846  -10.8519 C   0  0  0  0  0  0  0  0  0  0  0  0
  -20.9127  -40.5936  -11.2505 C   0  0  0  0  0  0  0  0  0  0  0  0
  -21.6226  -41.8493  -10.9293 C   0  0  0  0  0  0  0  0  0  0  0  0
  -22.5705  -41.6296   -9.7926 C   0  0  0  0  0  0  0  0  0  0  0  0
  -23.9487  -42.1651   -9.9677 C   0  0  0  0  0  0  0  0  0  0  0  0
  -24.4122  -42.6076   -8.5979 C   0  0  0  0  0  0  0  0  0  0  0  0
  -24.9978  -41.5258   -7.7536 C   0  0  0  0  0  0  0  0  0  0  0  0
  -24.9929  -41.9489   -6.3042 C   0  0  0  0  0  0  0  0  0  0  0  0
  -23.7721  -42.6094   -5.9187 N   0  0  0  0  0  0  0  0  0  0  0  0
  -17.1294  -40.2913   -8.9511 C   0  0  2  0  0  0  0  0  0  0  0  0
  -16.5364  -41.4667   -9.2944 O   0  0  0  0  0  0  0  0  0  0  0  0
  -16.2613  -39.5582   -7.9589 C   0  0  0  0  0  0  0  0  0  0  0  0
  -15.0220  -39.0775   -8.4138 N   0  0  0  0  0  0  0  0  0  0  0  0
  -14.7191  -37.7462   -8.0029 C   0  0  0  0  0  0  0  0  0  0  0  0
  -15.4525  -36.8182   -8.9384 C   0  0  0  0  0  0  0  0  0  0  0  0
  -16.6429  -36.2413   -8.5649 C   0  0  0  0  0  0  0  0  0  0  0  0
  -17.3140  -35.3904   -9.4112 C   0  0  0  0  0  0  0  0  0  0  0  0
  -16.7844  -35.1179  -10.6415 C   0  0  0  0  0  0  0  0  0  0  0  0
  -15.5743  -35.7019  -11.0265 C   0  0  0  0  0  0  0  0  0  0  0  0
  -14.9262  -36.5432  -10.1696 C   0  0  0  0  0  0  0  0  0  0  0  0
  -15.0591  -35.4031  -12.2897 O   0  0  0  0  0  0  0  0  0  0  0  0
  -13.8055  -35.9104  -12.7089 C   0  0  0  0  0  0  0  0  0  0  0  0
  -18.5044  -34.8210   -9.0229 O   0  0  0  0  0  0  0  0  0  0  0  0
  -18.5481  -33.5259   -8.4872 C   0  0  0  0  0  0  0  0  0  0  0  0
  1  2  1  0
  2  3  1  0
  3  4  1  0
  4  5  2  0
  5  6  1  0
  6  7  2  0
  7  8  1  0
  8  9  2  0
  8 10  1  0
 10 11  2  0
 10 12  1  0
 12 13  1  0
 13 14  1  6
 14 15  1  0
 15 16  1  1
 15 17  1  0
 17 18  1  0
 18 19  1  0
 19 20  1  0
 20 21  1  0
 21 22  1  0
 22 23  1  0
 23 24  1  0
 13 25  1  0
 25 26  1  1
 25 27  1  0
 27 28  1  0
 28 29  1  0
 29 30  1  0
 30 31  2  0
 31 32  1  0
 32 33  2  0
 33 34  1  0
 34 35  2  0
 34 36  1  0
 36 37  1  0
 32 38  1  0
 38 39  1  0
  9  4  1  0
 24  6  1  0
 35 30  1  0
M  END
$$$$
