
     RDKit          3D

 39 41  0  0  0  0  0  0  0  0999 V2000
  -16.2669  -43.3738  -13.1474 C   0  0  0  0  0  0  0  0  0  0  0  0
  -17.5040  -43.6725  -12.6004 O   0  0  0  0  0  0  0  0  0  0  0  0
  -17.3694  -44.5839  -11.5938 C   0  0  0  0  0  0  0  0  0  0  0  0
  -18.0115  -44.1087  -10.3395 C   0  0  0  0  0  0  0  0  0  0  0  0
  -19.2626  -44.5077   -9.9578 C   0  0  0  0  0  0  0  0  0  0  0  0
  -19.9008  -44.0809   -8.7623 C   0  0  0  0  0  0  0  0  0  0  0  0
  -19.2161  -43.2013   -7.9241 C   0  0  0  0  0  0  0  0  0  0  0  0
  -17.9487  -42.7738   -8.2765 C   0  0  0  0  0  0  0  0  0  0  0  0
  -17.3800  -43.2530   -9.4953 C   0  0  0  0  0  0  0  0  0  0  0  0
  -16.9915  -41.8730   -7.6292 C   0  0  0  0  0  0  0  0  0  0  0  0
  -15.7303  -42.2638   -7.5239 O   0  0  0  0  0  0  0  0  0  0  0  0
  -17.1301  -40.5778   -7.0507 N   0  0  0  0  0  0  0  0  0  0  0  0
  -17.9943  -39.5274   -7.5808 C   0  0  1  0  0  0  0  0  0  0  0  0
  -19.3831  -39.6050   -7.1252 C   0  0  0  0  0  0  0  0  0  0  0  0
  -19.9644  -38.5841   -6.2167 C   0  0  2  0  0  0  0  0  0  0  0  0
  -19.1599  -38.2775   -4.9903 C   0  0  0  0  0  0  0  0  0  0  0  0
  -21.3272  -39.0280   -5.7281 C   0  0  0  0  0  0  0  0  0  0  0  0
  -22.2196  -39.6318   -6.7395 C   0  0  0  0  0  0  0  0  0  0  0  0
  -22.1090  -41.1235   -6.7001 C   0  0  0  0  0  0  0  0  0  0  0  0
  -23.3904  -41.8817   -6.6934 C   0  0  0  0  0  0  0  0  0  0  0  0
  -23.1363  -43.1565   -7.4665 C   0  0  0  0  0  0  0  0  0  0  0  0
  -22.5380  -44.2659   -6.6682 C   0  0  0  0  0  0  0  0  0  0  0  0
  -21.9144  -45.2832   -7.5934 C   0  0  0  0  0  0  0  0  0  0  0  0
  -21.1880  -44.6787   -8.6808 N   0  0  0  0  0  0  0  0  0  0  0  0
  -17.3340  -38.1704   -7.4633 C   0  0  2  0  0  0  0  0  0  0  0  0
  -18.2432  -37.2088   -7.7788 O   0  0  0  0  0  0  0  0  0  0  0  0
  -16.1845  -38.1188   -8.4388 C   0  0  0  0  0  0  0  0  0  0  0  0
  -15.0508  -38.8951   -8.1455 N   0  0  0  0  0  0  0  0  0  0  0  0
  -14.4481  -39.5110   -9.2814 C   0  0  0  0  0  0  0  0  0  0  0  0
  -14.5407  -38.5253  -10.4188 C   0  0  0  0  0  0  0  0  0  0  0  0
  -13.6219  -37.5108  -10.5455 C   0  0  0  0  0  0  0  0  0  0  0  0
  -13.6978  -36.6118  -11.5830 C   0  0  0  0  0  0  0  0  0  0  0  0
  -14.7047  -36.7336  -12.4994 C   0  0  0  0  0  0  0  0  0  0  0  0
  -15.6418  -37.7632  -12.3753 C   0  0  0  0  0  0  0  0  0  0  0  0
  -15.5462  -38.6437  -11.3372 C   0  0  0  0  0  0  0  0  0  0  0  0
  -16.6583  -37.8611  -13.3280 O   0  0  0  0  0  0  0  0  0  0  0  0
  -16.4310  -37.5120  -14.6812 C   0  0  0  0  0  0  0  0  0  0  0  0
  -12.7706  -35.6020  -11.6961 O   0  0  0  0  0  0  0  0  0  0  0  0
  -11.8367  -35.3579  -10.6792 C   0  0  0  0  0  0  0  0  0  0  0  0
  1  2  1  0
  2  3  1  0
  3  4  1  0
  4  5  2  0
  5  6  1  0
  6  7  2  0
  7  8  1  0
  8  9  2  0
  8 10  1  0
 10 11  2  0
 10 12  1  0
 12 13  1  0
 13 14  1  1
 14 15  1  0
 15 16  1  1
 15 17  1  0
 17 18  1  0
 18 19  1  0
 19 20  1  0
 20 21  1  0
 21 22  1  0
 22 23  1  0
 23 24  1  0
 13 25  1  0
 25 26  1  6
 25 27  1  0
 27 28  1  0
 28 29  1  0
 29 30  1  0
 30 31  2  0
 31 32  1  0
 32 33  2  0
 33 34  1  0
 34 35  2  0
 34 36  1  0
 36 37  1  0
 32 38  1  0
 38 39  1  0
  9  4  1  0
 24  6  1  0
 35 30  1  0
M  END
$$$$
