
     RDKit          3D

 43 47  0  0  0  0  0  0  0  0999 V2000
  -13.8159  -42.4256   -9.7675 C   0  0  0  0  0  0  0  0  0  0  0  0
  -15.3171  -42.4866   -9.8879 C   0  0  2  0  0  0  0  0  0  0  0  0
  -15.7029  -43.4765  -10.9418 C   0  0  0  0  0  0  0  0  0  0  0  0
  -15.4762  -44.8798  -10.4262 C   0  0  0  0  0  0  0  0  0  0  0  0
  -16.4553  -45.8887  -10.9304 C   0  0  0  0  0  0  0  0  0  0  0  0
  -17.7733  -45.7618  -10.1970 C   0  0  0  0  0  0  0  0  0  0  0  0
  -17.7486  -46.3688   -8.8211 C   0  0  0  0  0  0  0  0  0  0  0  0
  -18.6284  -45.5341   -7.9313 C   0  0  0  0  0  0  0  0  0  0  0  0
  -20.0626  -45.8839   -8.1690 C   0  0  0  0  0  0  0  0  0  0  0  0
  -20.9179  -44.7607   -8.0988 O   0  0  0  0  0  0  0  0  0  0  0  0
  -20.6914  -43.4034   -7.9275 C   0  0  0  0  0  0  0  0  0  0  0  0
  -21.2902  -42.9429   -6.7411 C   0  0  0  0  0  0  0  0  0  0  0  0
  -21.2189  -41.6420   -6.3278 C   0  0  0  0  0  0  0  0  0  0  0  0
  -20.5161  -40.8052   -7.1576 C   0  0  0  0  0  0  0  0  0  0  0  0
  -19.8970  -41.2240   -8.3611 C   0  0  0  0  0  0  0  0  0  0  0  0
  -19.9888  -42.5334   -8.7481 C   0  0  0  0  0  0  0  0  0  0  0  0
  -19.2238  -40.0633   -8.9801 C   0  0  0  0  0  0  0  0  0  0  0  0
  -19.8431  -38.9002   -8.9835 O   0  0  0  0  0  0  0  0  0  0  0  0
  -17.9718  -39.9320   -9.6087 N   0  0  0  0  0  0  0  0  0  0  0  0
  -16.7434  -40.5688   -9.1768 C   0  0  1  0  0  0  0  0  0  0  0  0
  -15.9064  -41.1282  -10.2764 C   0  0  0  0  0  0  0  0  0  0  0  0
  -15.9336  -39.6896   -8.2297 C   0  0  2  0  0  0  0  0  0  0  0  0
  -16.1302  -40.2144   -6.9384 O   0  0  0  0  0  0  0  0  0  0  0  0
  -16.4512  -38.2929   -8.1990 C   0  0  0  0  0  0  0  0  0  0  0  0
  -17.0777  -37.8426   -9.3649 N   0  0  0  0  0  0  0  0  0  0  0  0
  -17.2921  -36.4623   -9.5898 C   0  0  0  0  0  0  0  0  0  0  0  0
  -18.3979  -35.6583   -9.0760 C   0  0  0  0  0  0  0  0  0  0  0  0
  -18.5353  -36.1601  -10.4894 C   0  0  0  0  0  0  0  0  0  0  0  0
  -16.0961  -35.6577  -10.0638 C   0  0  0  0  0  0  0  0  0  0  0  0
  -15.2240  -36.1035  -11.0157 C   0  0  0  0  0  0  0  0  0  0  0  0
  -14.1314  -35.3484  -11.4324 C   0  0  0  0  0  0  0  0  0  0  0  0
  -13.9379  -34.1169  -10.8570 C   0  0  0  0  0  0  0  0  0  0  0  0
  -14.8263  -33.6877   -9.9009 C   0  0  0  0  0  0  0  0  0  0  0  0
  -15.8686  -34.4549   -9.5319 N   0  0  0  0  0  0  0  0  0  0  0  0
  -13.1972  -35.8308  -12.4708 C   0  0  0  0  0  0  0  0  0  0  0  0
  -11.8458  -36.1107  -11.8656 C   0  0  0  0  0  0  0  0  0  0  0  0
  -13.0944  -34.8416  -13.6204 C   0  0  0  0  0  0  0  0  0  0  0  0
  -13.7216  -37.1164  -13.0693 C   0  0  0  0  0  0  0  0  0  0  0  0
  -21.8379  -41.1759   -5.0925 C   0  0  0  0  0  0  0  0  0  0  0  0
  -22.6739  -41.9172   -4.3544 N   0  0  0  0  0  0  0  0  0  0  0  0
  -23.0160  -41.1347   -3.3163 C   0  0  0  0  0  0  0  0  0  0  0  0
  -22.3565  -39.9247   -3.4745 C   0  0  0  0  0  0  0  0  0  0  0  0
  -21.6429  -39.9915   -4.5786 O   0  0  0  0  0  0  0  0  0  0  0  0
  2  1  1  6
  2  3  1  0
  3  4  1  0
  4  5  1  0
  5  6  1  0
  6  7  1  0
  7  8  1  0
  8  9  1  0
  9 10  1  0
 10 11  1  0
 11 12  1  0
 12 13  2  0
 13 14  1  0
 14 15  2  0
 15 16  1  0
 15 17  1  0
 17 18  2  0
 17 19  1  0
 19 20  1  0
 20 21  1  6
 20 22  1  0
 22 23  1  1
 22 24  1  0
 24 25  1  0
 25 26  1  0
 26 27  1  0
 27 28  1  0
 26 29  1  0
 29 30  2  0
 30 31  1  0
 31 32  2  0
 32 33  1  0
 33 34  2  0
 31 35  1  0
 35 36  1  0
 35 37  1  0
 35 38  1  0
 13 39  1  0
 39 40  2  0
 40 41  1  0
 41 42  2  0
 42 43  1  0
 16 11  2  0
 21  2  1  0
 28 26  1  0
 34 29  1  0
 43 39  1  0
M  END
$$$$
