
     RDKit          3D

 43 47  0  0  0  0  0  0  0  0999 V2000
  -19.9161  -37.3647   -6.6999 C   0  0  0  0  0  0  0  0  0  0  0  0
  -19.7538  -38.7971   -6.2598 C   0  0  2  0  0  0  0  0  0  0  0  0
  -20.4577  -39.0115   -4.9567 C   0  0  0  0  0  0  0  0  0  0  0  0
  -21.9523  -39.0299   -5.1851 C   0  0  0  0  0  0  0  0  0  0  0  0
  -22.7045  -39.9480   -4.2783 C   0  0  0  0  0  0  0  0  0  0  0  0
  -22.5514  -41.3841   -4.7315 C   0  0  0  0  0  0  0  0  0  0  0  0
  -23.4148  -41.7295   -5.9136 C   0  0  0  0  0  0  0  0  0  0  0  0
  -22.6627  -42.7169   -6.7630 C   0  0  0  0  0  0  0  0  0  0  0  0
  -22.7667  -44.0818   -6.1613 C   0  0  0  0  0  0  0  0  0  0  0  0
  -21.5764  -44.8318   -6.2986 O   0  0  0  0  0  0  0  0  0  0  0  0
  -20.3212  -44.5367   -6.8087 C   0  0  0  0  0  0  0  0  0  0  0  0
  -20.0279  -45.3521   -7.9165 C   0  0  0  0  0  0  0  0  0  0  0  0
  -18.8545  -45.2682   -8.6125 C   0  0  0  0  0  0  0  0  0  0  0  0
  -17.9711  -44.3243   -8.1526 C   0  0  0  0  0  0  0  0  0  0  0  0
  -18.2232  -43.4818   -7.0419 C   0  0  0  0  0  0  0  0  0  0  0  0
  -19.4073  -43.5924   -6.3649 C   0  0  0  0  0  0  0  0  0  0  0  0
  -17.0626  -42.5878   -6.8483 C   0  0  0  0  0  0  0  0  0  0  0  0
  -15.8502  -43.0886   -6.9734 O   0  0  0  0  0  0  0  0  0  0  0  0
  -16.9766  -41.2179   -6.5385 N   0  0  0  0  0  0  0  0  0  0  0  0
  -17.8421  -40.1811   -7.0646 C   0  0  1  0  0  0  0  0  0  0  0  0
  -18.2799  -39.1633   -6.0671 C   0  0  0  0  0  0  0  0  0  0  0  0
  -17.2807  -39.5404   -8.3296 C   0  0  2  0  0  0  0  0  0  0  0  0
  -18.3397  -38.8164   -8.9091 O   0  0  0  0  0  0  0  0  0  0  0  0
  -16.8750  -40.5658   -9.3313 C   0  0  0  0  0  0  0  0  0  0  0  0
  -15.5118  -40.8721   -9.3813 N   0  0  0  0  0  0  0  0  0  0  0  0
  -14.5832  -39.9699   -9.9519 C   0  0  0  0  0  0  0  0  0  0  0  0
  -13.1602  -40.2110  -10.1754 C   0  0  0  0  0  0  0  0  0  0  0  0
  -13.5211  -39.4377   -8.9345 C   0  0  0  0  0  0  0  0  0  0  0  0
  -15.1602  -38.8189  -10.7548 C   0  0  0  0  0  0  0  0  0  0  0  0
  -16.4884  -38.7060  -11.0526 C   0  0  0  0  0  0  0  0  0  0  0  0
  -16.9943  -37.6420  -11.7940 C   0  0  0  0  0  0  0  0  0  0  0  0
  -16.1155  -36.6830  -12.2335 C   0  0  0  0  0  0  0  0  0  0  0  0
  -14.7836  -36.8160  -11.9236 C   0  0  0  0  0  0  0  0  0  0  0  0
  -14.3430  -37.8636  -11.2029 N   0  0  0  0  0  0  0  0  0  0  0  0
  -18.4339  -37.5188  -12.1039 C   0  0  0  0  0  0  0  0  0  0  0  0
  -19.1284  -36.7109  -11.0381 C   0  0  0  0  0  0  0  0  0  0  0  0
  -19.0793  -38.8848  -12.2710 C   0  0  0  0  0  0  0  0  0  0  0  0
  -18.6106  -36.8068  -13.4259 C   0  0  0  0  0  0  0  0  0  0  0  0
  -18.5628  -46.1139   -9.7639 C   0  0  0  0  0  0  0  0  0  0  0  0
  -17.8395  -45.7121  -10.8169 N   0  0  0  0  0  0  0  0  0  0  0  0
  -17.8049  -46.7703  -11.6453 C   0  0  0  0  0  0  0  0  0  0  0  0
  -18.5258  -47.7913  -11.0437 C   0  0  0  0  0  0  0  0  0  0  0  0
  -18.9747  -47.3466   -9.8888 O   0  0  0  0  0  0  0  0  0  0  0  0
  2  1  1  1
  2  3  1  0
  3  4  1  0
  4  5  1  0
  5  6  1  0
  6  7  1  0
  7  8  1  0
  8  9  1  0
  9 10  1  0
 10 11  1  0
 11 12  1  0
 12 13  2  0
 13 14  1  0
 14 15  2  0
 15 16  1  0
 15 17  1  0
 17 18  2  0
 17 19  1  0
 19 20  1  0
 20 21  1  1
 20 22  1  0
 22 23  1  6
 22 24  1  0
 24 25  1  0
 25 26  1  0
 26 27  1  0
 27 28  1  0
 26 29  1  0
 29 30  2  0
 30 31  1  0
 31 32  2  0
 32 33  1  0
 33 34  2  0
 31 35  1  0
 35 36  1  0
 35 37  1  0
 35 38  1  0
 13 39  1  0
 39 40  2  0
 40 41  1  0
 41 42  2  0
 42 43  1  0
 16 11  2  0
 21  2  1  0
 28 26  1  0
 34 29  1  0
 43 39  1  0
M  END
$$$$
