
     RDKit          3D

 43 47  0  0  0  0  0  0  0  0999 V2000
  -14.4186  -37.3571   -9.3287 C   0  0  0  0  0  0  0  0  0  0  0  0
  -15.1134  -38.4289  -10.1289 C   0  0  2  0  0  0  0  0  0  0  0  0
  -14.8646  -38.2151  -11.5890 C   0  0  0  0  0  0  0  0  0  0  0  0
  -13.4394  -38.5953  -11.9213 C   0  0  0  0  0  0  0  0  0  0  0  0
  -13.2580  -39.1817  -13.2829 C   0  0  0  0  0  0  0  0  0  0  0  0
  -13.7173  -40.6239  -13.3051 C   0  0  0  0  0  0  0  0  0  0  0  0
  -12.7270  -41.5724  -12.6872 C   0  0  0  0  0  0  0  0  0  0  0  0
  -13.4995  -42.6670  -12.0034 C   0  0  0  0  0  0  0  0  0  0  0  0
  -13.9705  -43.6605  -13.0168 C   0  0  0  0  0  0  0  0  0  0  0  0
  -15.2554  -44.1721  -12.7243 O   0  0  0  0  0  0  0  0  0  0  0  0
  -16.1885  -43.8897  -11.7383 C   0  0  0  0  0  0  0  0  0  0  0  0
  -16.4216  -45.0191  -10.9330 C   0  0  0  0  0  0  0  0  0  0  0  0
  -17.2959  -45.0163   -9.8824 C   0  0  0  0  0  0  0  0  0  0  0  0
  -17.9390  -43.8242   -9.6633 C   0  0  0  0  0  0  0  0  0  0  0  0
  -17.7364  -42.6620  -10.4476 C   0  0  0  0  0  0  0  0  0  0  0  0
  -16.8554  -42.6983  -11.4942 C   0  0  0  0  0  0  0  0  0  0  0  0
  -18.5811  -41.5733   -9.9141 C   0  0  0  0  0  0  0  0  0  0  0  0
  -19.8140  -41.8530   -9.5425 O   0  0  0  0  0  0  0  0  0  0  0  0
  -18.3248  -40.2058   -9.7041 N   0  0  0  0  0  0  0  0  0  0  0  0
  -17.0820  -39.6501   -9.2064 C   0  0  1  0  0  0  0  0  0  0  0  0
  -16.6268  -38.4110   -9.8992 C   0  0  0  0  0  0  0  0  0  0  0  0
  -17.0807  -39.4929   -7.6895 C   0  0  2  0  0  0  0  0  0  0  0  0
  -16.2178  -40.4867   -7.1901 O   0  0  0  0  0  0  0  0  0  0  0  0
  -18.4234  -39.7708   -7.1071 C   0  0  0  0  0  0  0  0  0  0  0  0
  -18.6256  -39.3402   -5.7925 N   0  0  0  0  0  0  0  0  0  0  0  0
  -19.6657  -38.4353   -5.4744 C   0  0  0  0  0  0  0  0  0  0  0  0
  -19.5105  -37.0657   -4.9917 C   0  0  0  0  0  0  0  0  0  0  0  0
  -19.7741  -38.1177   -3.9468 C   0  0  0  0  0  0  0  0  0  0  0  0
  -21.0374  -38.7513   -6.0411 C   0  0  0  0  0  0  0  0  0  0  0  0
  -21.7815  -39.8258   -5.6447 C   0  0  0  0  0  0  0  0  0  0  0  0
  -23.0368  -40.0973   -6.1816 C   0  0  0  0  0  0  0  0  0  0  0  0
  -23.5285  -39.2470   -7.1409 C   0  0  0  0  0  0  0  0  0  0  0  0
  -22.7637  -38.1725   -7.5259 C   0  0  0  0  0  0  0  0  0  0  0  0
  -21.5553  -37.9521   -6.9762 N   0  0  0  0  0  0  0  0  0  0  0  0
  -23.8425  -41.2551   -5.7412 C   0  0  0  0  0  0  0  0  0  0  0  0
  -22.9953  -42.5013   -5.7212 C   0  0  0  0  0  0  0  0  0  0  0  0
  -25.0711  -41.4354   -6.6178 C   0  0  0  0  0  0  0  0  0  0  0  0
  -24.3583  -41.0127   -4.3408 C   0  0  0  0  0  0  0  0  0  0  0  0
  -17.5256  -46.1909   -9.0495 C   0  0  0  0  0  0  0  0  0  0  0  0
  -16.5588  -47.0407   -8.6802 N   0  0  0  0  0  0  0  0  0  0  0  0
  -17.1748  -47.9717   -7.9312 C   0  0  0  0  0  0  0  0  0  0  0  0
  -18.5199  -47.6373   -7.8781 C   0  0  0  0  0  0  0  0  0  0  0  0
  -18.6934  -46.5362   -8.5784 O   0  0  0  0  0  0  0  0  0  0  0  0
  2  1  1  1
  2  3  1  0
  3  4  1  0
  4  5  1  0
  5  6  1  0
  6  7  1  0
  7  8  1  0
  8  9  1  0
  9 10  1  0
 10 11  1  0
 11 12  1  0
 12 13  2  0
 13 14  1  0
 14 15  2  0
 15 16  1  0
 15 17  1  0
 17 18  2  0
 17 19  1  0
 19 20  1  0
 20 21  1  6
 20 22  1  0
 22 23  1  1
 22 24  1  0
 24 25  1  0
 25 26  1  0
 26 27  1  0
 27 28  1  0
 26 29  1  0
 29 30  2  0
 30 31  1  0
 31 32  2  0
 32 33  1  0
 33 34  2  0
 31 35  1  0
 35 36  1  0
 35 37  1  0
 35 38  1  0
 13 39  1  0
 39 40  2  0
 40 41  1  0
 41 42  2  0
 42 43  1  0
 16 11  2  0
 21  2  1  0
 28 26  1  0
 34 29  1  0
 43 39  1  0
M  END
$$$$
