
     RDKit          3D

 43 47  0  0  0  0  0  0  0  0999 V2000
  -19.8389  -37.0072   -7.3107 C   0  0  0  0  0  0  0  0  0  0  0  0
  -19.6986  -38.4254   -6.8198 C   0  0  2  0  0  0  0  0  0  0  0  0
  -20.4023  -38.5814   -5.5083 C   0  0  0  0  0  0  0  0  0  0  0  0
  -21.8976  -38.5836   -5.7326 C   0  0  0  0  0  0  0  0  0  0  0  0
  -22.6621  -39.4562   -4.7918 C   0  0  0  0  0  0  0  0  0  0  0  0
  -22.5337  -40.9099   -5.1934 C   0  0  0  0  0  0  0  0  0  0  0  0
  -23.4058  -41.2833   -6.3605 C   0  0  0  0  0  0  0  0  0  0  0  0
  -22.6723  -42.3127   -7.1756 C   0  0  0  0  0  0  0  0  0  0  0  0
  -22.7968  -43.6533   -6.5250 C   0  0  0  0  0  0  0  0  0  0  0  0
  -21.6192  -44.4270   -6.6380 O   0  0  0  0  0  0  0  0  0  0  0  0
  -20.3608  -44.1710   -7.1611 C   0  0  0  0  0  0  0  0  0  0  0  0
  -20.0839  -45.0303   -8.2396 C   0  0  0  0  0  0  0  0  0  0  0  0
  -18.9113  -44.9905   -8.9407 C   0  0  0  0  0  0  0  0  0  0  0  0
  -18.0114  -44.0453   -8.5170 C   0  0  0  0  0  0  0  0  0  0  0  0
  -18.2466  -43.1595   -7.4367 C   0  0  0  0  0  0  0  0  0  0  0  0
  -19.4305  -43.2264   -6.7535 C   0  0  0  0  0  0  0  0  0  0  0  0
  -17.0711  -42.2783   -7.2779 C   0  0  0  0  0  0  0  0  0  0  0  0
  -15.8674  -42.8030   -7.3875 O   0  0  0  0  0  0  0  0  0  0  0  0
  -16.9620  -40.8998   -7.0176 N   0  0  0  0  0  0  0  0  0  0  0  0
  -17.8120  -39.8684   -7.5786 C   0  0  1  0  0  0  0  0  0  0  0  0
  -18.2304  -38.8086   -6.6174 C   0  0  0  0  0  0  0  0  0  0  0  0
  -17.2438  -39.2828   -8.8671 C   0  0  2  0  0  0  0  0  0  0  0  0
  -17.6785  -40.1241   -9.9087 O   0  0  0  0  0  0  0  0  0  0  0  0
  -15.7548  -39.3301   -8.8823 C   0  0  0  0  0  0  0  0  0  0  0  0
  -15.1801  -40.4203   -9.5424 N   0  0  0  0  0  0  0  0  0  0  0  0
  -13.8038  -40.4299   -9.8705 C   0  0  0  0  0  0  0  0  0  0  0  0
  -13.0320  -41.5723  -10.3526 C   0  0  0  0  0  0  0  0  0  0  0  0
  -12.9300  -41.2688   -8.8810 C   0  0  0  0  0  0  0  0  0  0  0  0
  -13.1568  -39.0811  -10.1242 C   0  0  0  0  0  0  0  0  0  0  0  0
  -13.0347  -38.5319  -11.3687 C   0  0  0  0  0  0  0  0  0  0  0  0
  -12.4341  -37.2936  -11.5773 C   0  0  0  0  0  0  0  0  0  0  0  0
  -11.9533  -36.6148  -10.4849 C   0  0  0  0  0  0  0  0  0  0  0  0
  -12.0856  -37.1853   -9.2421 C   0  0  0  0  0  0  0  0  0  0  0  0
  -12.6750  -38.3858   -9.0919 N   0  0  0  0  0  0  0  0  0  0  0  0
  -12.3145  -36.6989  -12.9247 C   0  0  0  0  0  0  0  0  0  0  0  0
  -12.1616  -35.2032  -12.8219 C   0  0  0  0  0  0  0  0  0  0  0  0
  -13.4997  -37.0750  -13.7989 C   0  0  0  0  0  0  0  0  0  0  0  0
  -11.0898  -37.2518  -13.6179 C   0  0  0  0  0  0  0  0  0  0  0  0
  -18.6366  -45.8816  -10.0617 C   0  0  0  0  0  0  0  0  0  0  0  0
  -18.8312  -45.5456  -11.3433 N   0  0  0  0  0  0  0  0  0  0  0  0
  -18.4634  -46.6275  -12.0513 C   0  0  0  0  0  0  0  0  0  0  0  0
  -18.0520  -47.5948  -11.1462 C   0  0  0  0  0  0  0  0  0  0  0  0
  -18.1740  -47.0960   -9.9341 O   0  0  0  0  0  0  0  0  0  0  0  0
  2  1  1  1
  2  3  1  0
  3  4  1  0
  4  5  1  0
  5  6  1  0
  6  7  1  0
  7  8  1  0
  8  9  1  0
  9 10  1  0
 10 11  1  0
 11 12  1  0
 12 13  2  0
 13 14  1  0
 14 15  2  0
 15 16  1  0
 15 17  1  0
 17 18  2  0
 17 19  1  0
 19 20  1  0
 20 21  1  1
 20 22  1  0
 22 23  1  6
 22 24  1  0
 24 25  1  0
 25 26  1  0
 26 27  1  0
 27 28  1  0
 26 29  1  0
 29 30  2  0
 30 31  1  0
 31 32  2  0
 32 33  1  0
 33 34  2  0
 31 35  1  0
 35 36  1  0
 35 37  1  0
 35 38  1  0
 13 39  1  0
 39 40  2  0
 40 41  1  0
 41 42  2  0
 42 43  1  0
 16 11  2  0
 21  2  1  0
 28 26  1  0
 34 29  1  0
 43 39  1  0
M  END
$$$$
