
     RDKit          3D

 43 47  0  0  0  0  0  0  0  0999 V2000
  -20.5431  -37.4452   -7.9701 C   0  0  0  0  0  0  0  0  0  0  0  0
  -20.2069  -38.6692   -7.1573 C   0  0  2  0  0  0  0  0  0  0  0  0
  -20.8548  -38.5796   -5.8113 C   0  0  0  0  0  0  0  0  0  0  0  0
  -22.3415  -38.8196   -5.9476 C   0  0  0  0  0  0  0  0  0  0  0  0
  -22.9637  -39.5180   -4.7831 C   0  0  0  0  0  0  0  0  0  0  0  0
  -22.6542  -40.9991   -4.8254 C   0  0  0  0  0  0  0  0  0  0  0  0
  -23.4952  -41.7538   -5.8179 C   0  0  0  0  0  0  0  0  0  0  0  0
  -22.6508  -42.8559   -6.3964 C   0  0  0  0  0  0  0  0  0  0  0  0
  -22.5836  -43.9980   -5.4337 C   0  0  0  0  0  0  0  0  0  0  0  0
  -21.3174  -44.6260   -5.4182 O   0  0  0  0  0  0  0  0  0  0  0  0
  -20.1154  -44.3563   -6.0548 C   0  0  0  0  0  0  0  0  0  0  0  0
  -19.7517  -45.4159   -6.9052 C   0  0  0  0  0  0  0  0  0  0  0  0
  -18.6103  -45.4086   -7.6569 C   0  0  0  0  0  0  0  0  0  0  0  0
  -17.8333  -44.2854   -7.5249 C   0  0  0  0  0  0  0  0  0  0  0  0
  -18.1590  -43.1948   -6.6814 C   0  0  0  0  0  0  0  0  0  0  0  0
  -19.3085  -43.2339   -5.9398 C   0  0  0  0  0  0  0  0  0  0  0  0
  -17.1064  -42.1651   -6.8052 C   0  0  0  0  0  0  0  0  0  0  0  0
  -15.8468  -42.5498   -6.8485 O   0  0  0  0  0  0  0  0  0  0  0  0
  -17.1737  -40.7625   -6.8943 N   0  0  0  0  0  0  0  0  0  0  0  0
  -18.1641  -40.0142   -7.6428 C   0  0  1  0  0  0  0  0  0  0  0  0
  -18.6969  -38.8081   -6.9471 C   0  0  0  0  0  0  0  0  0  0  0  0
  -17.7063  -39.7018   -9.0636 C   0  0  2  0  0  0  0  0  0  0  0  0
  -18.3875  -40.6016   -9.9049 O   0  0  0  0  0  0  0  0  0  0  0  0
  -16.2531  -39.9747   -9.2451 C   0  0  0  0  0  0  0  0  0  0  0  0
  -15.5602  -39.0919  -10.0790 N   0  0  0  0  0  0  0  0  0  0  0  0
  -14.2421  -39.3773  -10.5068 C   0  0  0  0  0  0  0  0  0  0  0  0
  -13.6467  -40.7012  -10.6675 C   0  0  0  0  0  0  0  0  0  0  0  0
  -13.3355  -39.9788   -9.3832 C   0  0  0  0  0  0  0  0  0  0  0  0
  -13.5075  -38.2647  -11.2313 C   0  0  0  0  0  0  0  0  0  0  0  0
  -14.0912  -37.0758  -11.5646 C   0  0  0  0  0  0  0  0  0  0  0  0
  -13.3976  -36.0706  -12.2326 C   0  0  0  0  0  0  0  0  0  0  0  0
  -12.0838  -36.2980  -12.5603 C   0  0  0  0  0  0  0  0  0  0  0  0
  -11.5160  -37.5009  -12.2164 C   0  0  0  0  0  0  0  0  0  0  0  0
  -12.2287  -38.4418  -11.5700 N   0  0  0  0  0  0  0  0  0  0  0  0
  -14.0307  -34.7817  -12.5810 C   0  0  0  0  0  0  0  0  0  0  0  0
  -15.2082  -35.0101  -13.4934 C   0  0  0  0  0  0  0  0  0  0  0  0
  -13.0259  -33.8259  -13.2034 C   0  0  0  0  0  0  0  0  0  0  0  0
  -14.5312  -34.1048  -11.3251 C   0  0  0  0  0  0  0  0  0  0  0  0
  -18.2455  -46.5097   -8.5407 C   0  0  0  0  0  0  0  0  0  0  0  0
  -17.8828  -46.3474   -9.8195 N   0  0  0  0  0  0  0  0  0  0  0  0
  -17.6322  -47.5871  -10.2750 C   0  0  0  0  0  0  0  0  0  0  0  0
  -17.8593  -48.4673   -9.2272 C   0  0  0  0  0  0  0  0  0  0  0  0
  -18.2346  -47.7644   -8.1794 O   0  0  0  0  0  0  0  0  0  0  0  0
  2  1  1  6
  2  3  1  0
  3  4  1  0
  4  5  1  0
  5  6  1  0
  6  7  1  0
  7  8  1  0
  8  9  1  0
  9 10  1  0
 10 11  1  0
 11 12  1  0
 12 13  2  0
 13 14  1  0
 14 15  2  0
 15 16  1  0
 15 17  1  0
 17 18  2  0
 17 19  1  0
 19 20  1  0
 20 21  1  1
 20 22  1  0
 22 23  1  6
 22 24  1  0
 24 25  1  0
 25 26  1  0
 26 27  1  0
 27 28  1  0
 26 29  1  0
 29 30  2  0
 30 31  1  0
 31 32  2  0
 32 33  1  0
 33 34  2  0
 31 35  1  0
 35 36  1  0
 35 37  1  0
 35 38  1  0
 13 39  1  0
 39 40  2  0
 40 41  1  0
 41 42  2  0
 42 43  1  0
 16 11  2  0
 21  2  1  0
 28 26  1  0
 34 29  1  0
 43 39  1  0
M  END
$$$$
