
     RDKit          3D

 43 47  0  0  0  0  0  0  0  0999 V2000
  -20.2558  -36.5153   -7.5068 C   0  0  0  0  0  0  0  0  0  0  0  0
  -19.9793  -37.8339   -6.8309 C   0  0  2  0  0  0  0  0  0  0  0  0
  -20.4890  -37.8009   -5.4243 C   0  0  0  0  0  0  0  0  0  0  0  0
  -21.9990  -37.8804   -5.4304 C   0  0  0  0  0  0  0  0  0  0  0  0
  -22.5836  -38.6149   -4.2687 C   0  0  0  0  0  0  0  0  0  0  0  0
  -22.4387  -40.1096   -4.4586 C   0  0  0  0  0  0  0  0  0  0  0  0
  -23.4421  -40.6866   -5.4191 C   0  0  0  0  0  0  0  0  0  0  0  0
  -22.7760  -41.8106   -6.1641 C   0  0  0  0  0  0  0  0  0  0  0  0
  -22.7436  -43.0348   -5.3062 C   0  0  0  0  0  0  0  0  0  0  0  0
  -21.5553  -43.7833   -5.4666 O   0  0  0  0  0  0  0  0  0  0  0  0
  -20.3942  -43.5777   -6.1963 C   0  0  0  0  0  0  0  0  0  0  0  0
  -20.2244  -44.5882   -7.1599 C   0  0  0  0  0  0  0  0  0  0  0  0
  -19.1617  -44.6265   -8.0187 C   0  0  0  0  0  0  0  0  0  0  0  0
  -18.2608  -43.6014   -7.8762 C   0  0  0  0  0  0  0  0  0  0  0  0
  -18.3904  -42.5634   -6.9208 C   0  0  0  0  0  0  0  0  0  0  0  0
  -19.4653  -42.5550   -6.0739 C   0  0  0  0  0  0  0  0  0  0  0  0
  -17.2498  -41.6355   -7.0669 C   0  0  0  0  0  0  0  0  0  0  0  0
  -16.0475  -42.1369   -7.2658 O   0  0  0  0  0  0  0  0  0  0  0  0
  -17.1751  -40.2307   -7.0376 N   0  0  0  0  0  0  0  0  0  0  0  0
  -18.1441  -39.3249   -7.6222 C   0  0  1  0  0  0  0  0  0  0  0  0
  -18.4800  -38.1389   -6.7837 C   0  0  0  0  0  0  0  0  0  0  0  0
  -17.7867  -38.9340   -9.0524 C   0  0  2  0  0  0  0  0  0  0  0  0
  -18.9102  -39.2480   -9.8402 O   0  0  0  0  0  0  0  0  0  0  0  0
  -16.6605  -39.7536   -9.5809 C   0  0  0  0  0  0  0  0  0  0  0  0
  -15.4086  -39.1319   -9.6132 N   0  0  0  0  0  0  0  0  0  0  0  0
  -14.2977  -39.6964   -8.9431 C   0  0  0  0  0  0  0  0  0  0  0  0
  -13.8645  -39.4056   -7.5790 C   0  0  0  0  0  0  0  0  0  0  0  0
  -13.1407  -38.6773   -8.6806 C   0  0  0  0  0  0  0  0  0  0  0  0
  -13.7392  -40.9839   -9.5199 C   0  0  0  0  0  0  0  0  0  0  0  0
  -14.0759  -41.4583  -10.7556 C   0  0  0  0  0  0  0  0  0  0  0  0
  -13.5527  -42.6444  -11.2626 C   0  0  0  0  0  0  0  0  0  0  0  0
  -12.6704  -43.3491  -10.4814 C   0  0  0  0  0  0  0  0  0  0  0  0
  -12.3457  -42.8548   -9.2413 C   0  0  0  0  0  0  0  0  0  0  0  0
  -12.8783  -41.7020   -8.7957 N   0  0  0  0  0  0  0  0  0  0  0  0
  -13.9118  -43.1475  -12.6048 C   0  0  0  0  0  0  0  0  0  0  0  0
  -13.3570  -44.5340  -12.8066 C   0  0  0  0  0  0  0  0  0  0  0  0
  -13.4374  -42.1981  -13.6929 C   0  0  0  0  0  0  0  0  0  0  0  0
  -15.4164  -43.2176  -12.7360 C   0  0  0  0  0  0  0  0  0  0  0  0
  -18.9981  -45.6751   -9.0186 C   0  0  0  0  0  0  0  0  0  0  0  0
  -20.0175  -46.2323   -9.6847 N   0  0  0  0  0  0  0  0  0  0  0  0
  -19.4522  -47.1407  -10.4987 C   0  0  0  0  0  0  0  0  0  0  0  0
  -18.0825  -47.0930  -10.2851 C   0  0  0  0  0  0  0  0  0  0  0  0
  -17.8453  -46.1790   -9.3679 O   0  0  0  0  0  0  0  0  0  0  0  0
  2  1  1  1
  2  3  1  0
  3  4  1  0
  4  5  1  0
  5  6  1  0
  6  7  1  0
  7  8  1  0
  8  9  1  0
  9 10  1  0
 10 11  1  0
 11 12  1  0
 12 13  2  0
 13 14  1  0
 14 15  2  0
 15 16  1  0
 15 17  1  0
 17 18  2  0
 17 19  1  0
 19 20  1  0
 20 21  1  1
 20 22  1  0
 22 23  1  6
 22 24  1  0
 24 25  1  0
 25 26  1  0
 26 27  1  0
 27 28  1  0
 26 29  1  0
 29 30  2  0
 30 31  1  0
 31 32  2  0
 32 33  1  0
 33 34  2  0
 31 35  1  0
 35 36  1  0
 35 37  1  0
 35 38  1  0
 13 39  1  0
 39 40  2  0
 40 41  1  0
 41 42  2  0
 42 43  1  0
 16 11  2  0
 21  2  1  0
 28 26  1  0
 34 29  1  0
 43 39  1  0
M  END
$$$$
