
     RDKit          3D

 43 47  0  0  0  0  0  0  0  0999 V2000
  -19.9282  -36.8024   -7.0491 C   0  0  0  0  0  0  0  0  0  0  0  0
  -19.8744  -38.2780   -6.7464 C   0  0  2  0  0  0  0  0  0  0  0  0
  -20.7701  -38.5927   -5.5896 C   0  0  0  0  0  0  0  0  0  0  0  0
  -22.2140  -38.5216   -6.0327 C   0  0  0  0  0  0  0  0  0  0  0  0
  -23.1188  -39.4931   -5.3482 C   0  0  0  0  0  0  0  0  0  0  0  0
  -22.9414  -40.8809   -5.9258 C   0  0  0  0  0  0  0  0  0  0  0  0
  -23.6290  -41.0655   -7.2506 C   0  0  0  0  0  0  0  0  0  0  0  0
  -22.7877  -41.9936   -8.0831 C   0  0  0  0  0  0  0  0  0  0  0  0
  -23.0193  -43.4067   -7.6527 C   0  0  0  0  0  0  0  0  0  0  0  0
  -21.8439  -44.1907   -7.6958 O   0  0  0  0  0  0  0  0  0  0  0  0
  -20.5188  -43.9011   -7.9841 C   0  0  0  0  0  0  0  0  0  0  0  0
  -20.0877  -44.6116   -9.1188 C   0  0  0  0  0  0  0  0  0  0  0  0
  -18.8219  -44.5092   -9.6244 C   0  0  0  0  0  0  0  0  0  0  0  0
  -17.9900  -43.6571   -8.9429 C   0  0  0  0  0  0  0  0  0  0  0  0
  -18.3800  -42.9218   -7.7965 C   0  0  0  0  0  0  0  0  0  0  0  0
  -19.6543  -43.0483   -7.3140 C   0  0  0  0  0  0  0  0  0  0  0  0
  -17.2359  -42.1045   -7.3421 C   0  0  0  0  0  0  0  0  0  0  0  0
  -16.0333  -42.6431   -7.3433 O   0  0  0  0  0  0  0  0  0  0  0  0
  -17.1575  -40.7784   -6.8780 N   0  0  0  0  0  0  0  0  0  0  0  0
  -17.9050  -39.6561   -7.4096 C   0  0  1  0  0  0  0  0  0  0  0  0
  -18.4567  -38.7268   -6.3827 C   0  0  0  0  0  0  0  0  0  0  0  0
  -17.1435  -38.9154   -8.5039 C   0  0  2  0  0  0  0  0  0  0  0  0
  -18.1116  -38.4540   -9.4158 O   0  0  0  0  0  0  0  0  0  0  0  0
  -16.2496  -39.8307   -9.2671 C   0  0  0  0  0  0  0  0  0  0  0  0
  -14.8777  -39.6783   -9.0450 N   0  0  0  0  0  0  0  0  0  0  0  0
  -13.9297  -40.2263   -9.9411 C   0  0  0  0  0  0  0  0  0  0  0  0
  -13.5775  -41.6368  -10.0801 C   0  0  0  0  0  0  0  0  0  0  0  0
  -12.6569  -40.7974   -9.2340 C   0  0  0  0  0  0  0  0  0  0  0  0
  -13.5279  -39.3583  -11.1190 C   0  0  0  0  0  0  0  0  0  0  0  0
  -13.9809  -38.0821  -11.2971 C   0  0  0  0  0  0  0  0  0  0  0  0
  -13.6006  -37.3057  -12.3881 C   0  0  0  0  0  0  0  0  0  0  0  0
  -12.7415  -37.8562  -13.3068 C   0  0  0  0  0  0  0  0  0  0  0  0
  -12.2984  -39.1416  -13.1092 C   0  0  0  0  0  0  0  0  0  0  0  0
  -12.6947  -39.8521  -12.0373 N   0  0  0  0  0  0  0  0  0  0  0  0
  -14.0849  -35.9215  -12.5701 C   0  0  0  0  0  0  0  0  0  0  0  0
  -13.3656  -34.9904  -11.6284 C   0  0  0  0  0  0  0  0  0  0  0  0
  -15.5916  -35.8376  -12.3875 C   0  0  0  0  0  0  0  0  0  0  0  0
  -13.8080  -35.4677  -13.9855 C   0  0  0  0  0  0  0  0  0  0  0  0
  -18.3867  -45.2453  -10.8055 C   0  0  0  0  0  0  0  0  0  0  0  0
  -19.2110  -45.9620  -11.5801 N   0  0  0  0  0  0  0  0  0  0  0  0
  -18.4298  -46.4752  -12.5463 C   0  0  0  0  0  0  0  0  0  0  0  0
  -17.1354  -46.0364  -12.3092 C   0  0  0  0  0  0  0  0  0  0  0  0
  -17.1524  -45.2830  -11.2300 O   0  0  0  0  0  0  0  0  0  0  0  0
  2  1  1  1
  2  3  1  0
  3  4  1  0
  4  5  1  0
  5  6  1  0
  6  7  1  0
  7  8  1  0
  8  9  1  0
  9 10  1  0
 10 11  1  0
 11 12  1  0
 12 13  2  0
 13 14  1  0
 14 15  2  0
 15 16  1  0
 15 17  1  0
 17 18  2  0
 17 19  1  0
 19 20  1  0
 20 21  1  1
 20 22  1  0
 22 23  1  6
 22 24  1  0
 24 25  1  0
 25 26  1  0
 26 27  1  0
 27 28  1  0
 26 29  1  0
 29 30  2  0
 30 31  1  0
 31 32  2  0
 32 33  1  0
 33 34  2  0
 31 35  1  0
 35 36  1  0
 35 37  1  0
 35 38  1  0
 13 39  1  0
 39 40  2  0
 40 41  1  0
 41 42  2  0
 42 43  1  0
 16 11  2  0
 21  2  1  0
 28 26  1  0
 34 29  1  0
 43 39  1  0
M  END
$$$$
