
     RDKit          3D

 43 47  0  0  0  0  0  0  0  0999 V2000
  -19.8414  -36.6930   -6.5730 C   0  0  0  0  0  0  0  0  0  0  0  0
  -19.5911  -38.0926   -6.0727 C   0  0  2  0  0  0  0  0  0  0  0  0
  -20.2597  -38.2862   -4.7480 C   0  0  0  0  0  0  0  0  0  0  0  0
  -21.7545  -38.3980   -4.9462 C   0  0  0  0  0  0  0  0  0  0  0  0
  -22.4383  -39.3142   -3.9850 C   0  0  0  0  0  0  0  0  0  0  0  0
  -22.2122  -40.7588   -4.3766 C   0  0  0  0  0  0  0  0  0  0  0  0
  -23.0745  -41.2051   -5.5251 C   0  0  0  0  0  0  0  0  0  0  0  0
  -22.2824  -42.1869   -6.3441 C   0  0  0  0  0  0  0  0  0  0  0  0
  -22.2991  -43.5266   -5.6803 C   0  0  0  0  0  0  0  0  0  0  0  0
  -21.0709  -44.2148   -5.8071 O   0  0  0  0  0  0  0  0  0  0  0  0
  -19.8431  -43.8740   -6.3541 C   0  0  0  0  0  0  0  0  0  0  0  0
  -19.5230  -44.7215   -7.4300 C   0  0  0  0  0  0  0  0  0  0  0  0
  -18.3682  -44.6043   -8.1517 C   0  0  0  0  0  0  0  0  0  0  0  0
  -17.5318  -43.5928   -7.7516 C   0  0  0  0  0  0  0  0  0  0  0  0
  -17.8122  -42.7158   -6.6748 C   0  0  0  0  0  0  0  0  0  0  0  0
  -18.9766  -42.8611   -5.9707 C   0  0  0  0  0  0  0  0  0  0  0  0
  -16.7008  -41.7508   -6.5439 C   0  0  0  0  0  0  0  0  0  0  0  0
  -15.4643  -42.1886   -6.6700 O   0  0  0  0  0  0  0  0  0  0  0  0
  -16.6870  -40.3656   -6.2972 N   0  0  0  0  0  0  0  0  0  0  0  0
  -17.6183  -39.4035   -6.8521 C   0  0  1  0  0  0  0  0  0  0  0  0
  -18.0959  -38.3672   -5.8926 C   0  0  0  0  0  0  0  0  0  0  0  0
  -17.1154  -38.7910   -8.1550 C   0  0  2  0  0  0  0  0  0  0  0  0
  -18.2112  -38.7873   -9.0387 O   0  0  0  0  0  0  0  0  0  0  0  0
  -16.0660  -39.6362   -8.7904 C   0  0  0  0  0  0  0  0  0  0  0  0
  -14.7462  -39.3614   -8.4199 N   0  0  0  0  0  0  0  0  0  0  0  0
  -13.6591  -39.8444   -9.1861 C   0  0  0  0  0  0  0  0  0  0  0  0
  -12.3210  -40.1620   -8.6946 C   0  0  0  0  0  0  0  0  0  0  0  0
  -12.4941  -38.8123   -9.3400 C   0  0  0  0  0  0  0  0  0  0  0  0
  -13.9966  -40.4561  -10.5331 C   0  0  0  0  0  0  0  0  0  0  0  0
  -13.9175  -41.7957  -10.7876 C   0  0  0  0  0  0  0  0  0  0  0  0
  -14.2293  -42.3337  -12.0330 C   0  0  0  0  0  0  0  0  0  0  0  0
  -14.6275  -41.4754  -13.0279 C   0  0  0  0  0  0  0  0  0  0  0  0
  -14.6997  -40.1315  -12.7512 C   0  0  0  0  0  0  0  0  0  0  0  0
  -14.3880  -39.6597  -11.5300 N   0  0  0  0  0  0  0  0  0  0  0  0
  -14.1527  -43.7851  -12.2997 C   0  0  0  0  0  0  0  0  0  0  0  0
  -15.5156  -44.3218  -12.6539 C   0  0  0  0  0  0  0  0  0  0  0  0
  -13.5547  -44.5306  -11.1177 C   0  0  0  0  0  0  0  0  0  0  0  0
  -13.2272  -44.0394  -13.4679 C   0  0  0  0  0  0  0  0  0  0  0  0
  -18.0487  -45.4841   -9.2697 C   0  0  0  0  0  0  0  0  0  0  0  0
  -18.2158  -46.8124   -9.2414 N   0  0  0  0  0  0  0  0  0  0  0  0
  -17.8097  -47.2447  -10.4478 C   0  0  0  0  0  0  0  0  0  0  0  0
  -17.4048  -46.1328  -11.1716 C   0  0  0  0  0  0  0  0  0  0  0  0
  -17.5679  -45.0707  -10.4112 O   0  0  0  0  0  0  0  0  0  0  0  0
  2  1  1  1
  2  3  1  0
  3  4  1  0
  4  5  1  0
  5  6  1  0
  6  7  1  0
  7  8  1  0
  8  9  1  0
  9 10  1  0
 10 11  1  0
 11 12  1  0
 12 13  2  0
 13 14  1  0
 14 15  2  0
 15 16  1  0
 15 17  1  0
 17 18  2  0
 17 19  1  0
 19 20  1  0
 20 21  1  1
 20 22  1  0
 22 23  1  6
 22 24  1  0
 24 25  1  0
 25 26  1  0
 26 27  1  0
 27 28  1  0
 26 29  1  0
 29 30  2  0
 30 31  1  0
 31 32  2  0
 32 33  1  0
 33 34  2  0
 31 35  1  0
 35 36  1  0
 35 37  1  0
 35 38  1  0
 13 39  1  0
 39 40  2  0
 40 41  1  0
 41 42  2  0
 42 43  1  0
 16 11  2  0
 21  2  1  0
 28 26  1  0
 34 29  1  0
 43 39  1  0
M  END
$$$$
