
     RDKit          3D

 43 47  0  0  0  0  0  0  0  0999 V2000
  -19.4064  -37.4449  -10.8886 C   0  0  0  0  0  0  0  0  0  0  0  0
  -19.7106  -37.9490   -9.5011 C   0  0  2  0  0  0  0  0  0  0  0  0
  -20.6219  -36.9909   -8.8004 C   0  0  0  0  0  0  0  0  0  0  0  0
  -22.0157  -37.1043   -9.3756 C   0  0  0  0  0  0  0  0  0  0  0  0
  -23.1121  -36.8792   -8.3867 C   0  0  0  0  0  0  0  0  0  0  0  0
  -23.3009  -38.1028   -7.5159 C   0  0  0  0  0  0  0  0  0  0  0  0
  -24.0515  -39.2106   -8.2025 C   0  0  0  0  0  0  0  0  0  0  0  0
  -23.4910  -40.5193   -7.7172 C   0  0  0  0  0  0  0  0  0  0  0  0
  -24.0523  -40.8392   -6.3687 C   0  0  0  0  0  0  0  0  0  0  0  0
  -23.1094  -41.4585   -5.5171 O   0  0  0  0  0  0  0  0  0  0  0  0
  -21.7629  -41.7615   -5.6515 C   0  0  0  0  0  0  0  0  0  0  0  0
  -21.5546  -43.1510   -5.5860 C   0  0  0  0  0  0  0  0  0  0  0  0
  -20.3184  -43.7240   -5.6934 C   0  0  0  0  0  0  0  0  0  0  0  0
  -19.2817  -42.8429   -5.8712 C   0  0  0  0  0  0  0  0  0  0  0  0
  -19.4437  -41.4373   -5.9428 C   0  0  0  0  0  0  0  0  0  0  0  0
  -20.6949  -40.8947   -5.8296 C   0  0  0  0  0  0  0  0  0  0  0  0
  -18.1200  -40.8148   -6.1521 C   0  0  0  0  0  0  0  0  0  0  0  0
  -17.0887  -41.2778   -5.4751 O   0  0  0  0  0  0  0  0  0  0  0  0
  -17.7022  -39.7585   -6.9826 N   0  0  0  0  0  0  0  0  0  0  0  0
  -18.1639  -39.5197   -8.3356 C   0  0  1  0  0  0  0  0  0  0  0  0
  -18.4381  -38.0912   -8.6622 C   0  0  0  0  0  0  0  0  0  0  0  0
  -17.2754  -40.1869   -9.3802 C   0  0  2  0  0  0  0  0  0  0  0  0
  -17.5751  -41.5616   -9.3339 O   0  0  0  0  0  0  0  0  0  0  0  0
  -15.8316  -40.0597   -9.0356 C   0  0  0  0  0  0  0  0  0  0  0  0
  -14.9492  -39.9422  -10.1137 N   0  0  0  0  0  0  0  0  0  0  0  0
  -13.5675  -39.7221   -9.9031 C   0  0  0  0  0  0  0  0  0  0  0  0
  -12.5374  -40.7454   -9.7454 C   0  0  0  0  0  0  0  0  0  0  0  0
  -13.0773  -40.1382   -8.4773 C   0  0  0  0  0  0  0  0  0  0  0  0
  -13.0377  -38.3449  -10.2565 C   0  0  0  0  0  0  0  0  0  0  0  0
  -13.7930  -37.3877  -10.8719 C   0  0  0  0  0  0  0  0  0  0  0  0
  -13.2838  -36.1317  -11.1894 C   0  0  0  0  0  0  0  0  0  0  0  0
  -11.9767  -35.8623  -10.8667 C   0  0  0  0  0  0  0  0  0  0  0  0
  -11.2342  -36.8392  -10.2486 C   0  0  0  0  0  0  0  0  0  0  0  0
  -11.7725  -38.0388   -9.9618 N   0  0  0  0  0  0  0  0  0  0  0  0
  -14.1087  -35.0959  -11.8453 C   0  0  0  0  0  0  0  0  0  0  0  0
  -13.2353  -34.1657  -12.6472 C   0  0  0  0  0  0  0  0  0  0  0  0
  -14.9431  -34.3328  -10.8295 C   0  0  0  0  0  0  0  0  0  0  0  0
  -15.0920  -35.7506  -12.7888 C   0  0  0  0  0  0  0  0  0  0  0  0
  -20.1139  -45.1664   -5.6307 C   0  0  0  0  0  0  0  0  0  0  0  0
  -19.5622  -45.7940   -4.5843 N   0  0  0  0  0  0  0  0  0  0  0  0
  -19.5543  -47.0962   -4.9182 C   0  0  0  0  0  0  0  0  0  0  0  0
  -20.1150  -47.2032   -6.1824 C   0  0  0  0  0  0  0  0  0  0  0  0
  -20.4456  -45.9941   -6.5846 O   0  0  0  0  0  0  0  0  0  0  0  0
  2  1  1  6
  2  3  1  0
  3  4  1  0
  4  5  1  0
  5  6  1  0
  6  7  1  0
  7  8  1  0
  8  9  1  0
  9 10  1  0
 10 11  1  0
 11 12  1  0
 12 13  2  0
 13 14  1  0
 14 15  2  0
 15 16  1  0
 15 17  1  0
 17 18  2  0
 17 19  1  0
 19 20  1  0
 20 21  1  6
 20 22  1  0
 22 23  1  1
 22 24  1  0
 24 25  1  0
 25 26  1  0
 26 27  1  0
 27 28  1  0
 26 29  1  0
 29 30  2  0
 30 31  1  0
 31 32  2  0
 32 33  1  0
 33 34  2  0
 31 35  1  0
 35 36  1  0
 35 37  1  0
 35 38  1  0
 13 39  1  0
 39 40  2  0
 40 41  1  0
 41 42  2  0
 42 43  1  0
 16 11  2  0
 21  2  1  0
 28 26  1  0
 34 29  1  0
 43 39  1  0
M  END
$$$$
