
     RDKit          3D

 43 47  0  0  0  0  0  0  0  0999 V2000
  -17.5151  -36.6638   -9.2870 C   0  0  0  0  0  0  0  0  0  0  0  0
  -18.0745  -37.6555   -8.2994 C   0  0  2  0  0  0  0  0  0  0  0  0
  -18.3977  -36.9640   -7.0122 C   0  0  0  0  0  0  0  0  0  0  0  0
  -19.6396  -36.1196   -7.1885 C   0  0  0  0  0  0  0  0  0  0  0  0
  -20.5017  -36.0275   -5.9722 C   0  0  0  0  0  0  0  0  0  0  0  0
  -21.3093  -37.2957   -5.7970 C   0  0  0  0  0  0  0  0  0  0  0  0
  -22.4953  -37.3770   -6.7182 C   0  0  0  0  0  0  0  0  0  0  0  0
  -22.6878  -38.8194   -7.0984 C   0  0  0  0  0  0  0  0  0  0  0  0
  -23.3747  -39.5465   -5.9869 C   0  0  0  0  0  0  0  0  0  0  0  0
  -22.9003  -40.8679   -5.8229 O   0  0  0  0  0  0  0  0  0  0  0  0
  -21.8880  -41.5960   -6.4295 C   0  0  0  0  0  0  0  0  0  0  0  0
  -22.4123  -42.7106   -7.1085 C   0  0  0  0  0  0  0  0  0  0  0  0
  -21.6323  -43.5975   -7.7964 C   0  0  0  0  0  0  0  0  0  0  0  0
  -20.2877  -43.3250   -7.7799 C   0  0  0  0  0  0  0  0  0  0  0  0
  -19.7150  -42.2156   -7.1101 C   0  0  0  0  0  0  0  0  0  0  0  0
  -20.5235  -41.3471   -6.4283 C   0  0  0  0  0  0  0  0  0  0  0  0
  -18.2525  -42.2346   -7.3202 C   0  0  0  0  0  0  0  0  0  0  0  0
  -17.6176  -43.3870   -7.2479 O   0  0  0  0  0  0  0  0  0  0  0  0
  -17.3333  -41.2074   -7.6028 N   0  0  0  0  0  0  0  0  0  0  0  0
  -17.5696  -40.0895   -8.4946 C   0  0  1  0  0  0  0  0  0  0  0  0
  -17.0744  -38.7744   -7.9971 C   0  0  0  0  0  0  0  0  0  0  0  0
  -17.1084  -40.3745   -9.9201 C   0  0  2  0  0  0  0  0  0  0  0  0
  -18.2606  -40.3176  -10.7268 O   0  0  0  0  0  0  0  0  0  0  0  0
  -16.5675  -41.7558  -10.0568 C   0  0  0  0  0  0  0  0  0  0  0  0
  -15.5724  -42.1205   -9.1449 N   0  0  0  0  0  0  0  0  0  0  0  0
  -14.8637  -43.3366   -9.2883 C   0  0  0  0  0  0  0  0  0  0  0  0
  -13.5193  -43.6238   -8.7950 C   0  0  0  0  0  0  0  0  0  0  0  0
  -13.6310  -43.2339  -10.2454 C   0  0  0  0  0  0  0  0  0  0  0  0
  -15.6862  -44.5662   -9.6258 C   0  0  0  0  0  0  0  0  0  0  0  0
  -16.9661  -44.7538   -9.1875 C   0  0  0  0  0  0  0  0  0  0  0  0
  -17.7003  -45.8923   -9.5076 C   0  0  0  0  0  0  0  0  0  0  0  0
  -17.1031  -46.8491  -10.2906 C   0  0  0  0  0  0  0  0  0  0  0  0
  -15.8148  -46.6411  -10.7203 C   0  0  0  0  0  0  0  0  0  0  0  0
  -15.1463  -45.5226  -10.3841 N   0  0  0  0  0  0  0  0  0  0  0  0
  -19.0887  -46.0851   -9.0400 C   0  0  0  0  0  0  0  0  0  0  0  0
  -20.0585  -45.8051  -10.1590 C   0  0  0  0  0  0  0  0  0  0  0  0
  -19.3839  -45.2230   -7.8234 C   0  0  0  0  0  0  0  0  0  0  0  0
  -19.2816  -47.5174   -8.5958 C   0  0  0  0  0  0  0  0  0  0  0  0
  -22.1865  -44.7466   -8.5026 C   0  0  0  0  0  0  0  0  0  0  0  0
  -23.0769  -44.6484   -9.4980 N   0  0  0  0  0  0  0  0  0  0  0  0
  -23.3290  -45.9149   -9.8717 C   0  0  0  0  0  0  0  0  0  0  0  0
  -22.5619  -46.7448   -9.0674 C   0  0  0  0  0  0  0  0  0  0  0  0
  -21.8742  -45.9868   -8.2395 O   0  0  0  0  0  0  0  0  0  0  0  0
  2  1  1  6
  2  3  1  0
  3  4  1  0
  4  5  1  0
  5  6  1  0
  6  7  1  0
  7  8  1  0
  8  9  1  0
  9 10  1  0
 10 11  1  0
 11 12  1  0
 12 13  2  0
 13 14  1  0
 14 15  2  0
 15 16  1  0
 15 17  1  0
 17 18  2  0
 17 19  1  0
 19 20  1  0
 20 21  1  1
 20 22  1  0
 22 23  1  6
 22 24  1  0
 24 25  1  0
 25 26  1  0
 26 27  1  0
 27 28  1  0
 26 29  1  0
 29 30  2  0
 30 31  1  0
 31 32  2  0
 32 33  1  0
 33 34  2  0
 31 35  1  0
 35 36  1  0
 35 37  1  0
 35 38  1  0
 13 39  1  0
 39 40  2  0
 40 41  1  0
 41 42  2  0
 42 43  1  0
 16 11  2  0
 21  2  1  0
 28 26  1  0
 34 29  1  0
 43 39  1  0
M  END
$$$$
