
     RDKit          3D

 43 47  0  0  0  0  0  0  0  0999 V2000
  -13.4499  -37.4086   -8.6520 C   0  0  0  0  0  0  0  0  0  0  0  0
  -14.1175  -38.3595   -9.6121 C   0  0  2  0  0  0  0  0  0  0  0  0
  -13.5979  -38.1320  -10.9969 C   0  0  0  0  0  0  0  0  0  0  0  0
  -12.1913  -38.6760  -11.1062 C   0  0  0  0  0  0  0  0  0  0  0  0
  -11.8484  -39.2369  -12.4474 C   0  0  0  0  0  0  0  0  0  0  0  0
  -12.4629  -40.6091  -12.6216 C   0  0  0  0  0  0  0  0  0  0  0  0
  -11.7120  -41.6928  -11.8979 C   0  0  0  0  0  0  0  0  0  0  0  0
  -12.7135  -42.7038  -11.4110 C   0  0  0  0  0  0  0  0  0  0  0  0
  -13.1164  -43.5982  -12.5395 C   0  0  0  0  0  0  0  0  0  0  0  0
  -14.4834  -43.9549  -12.4929 O   0  0  0  0  0  0  0  0  0  0  0  0
  -15.5326  -43.5900  -11.6629 C   0  0  0  0  0  0  0  0  0  0  0  0
  -16.0316  -44.7066  -10.9683 C   0  0  0  0  0  0  0  0  0  0  0  0
  -17.0672  -44.6285  -10.0797 C   0  0  0  0  0  0  0  0  0  0  0  0
  -17.5941  -43.3731   -9.9087 C   0  0  0  0  0  0  0  0  0  0  0  0
  -17.1246  -42.2208  -10.5861 C   0  0  0  0  0  0  0  0  0  0  0  0
  -16.0871  -42.3332  -11.4714 C   0  0  0  0  0  0  0  0  0  0  0  0
  -17.9149  -41.0529  -10.1446 C   0  0  0  0  0  0  0  0  0  0  0  0
  -19.2175  -41.1886   -9.9992 O   0  0  0  0  0  0  0  0  0  0  0  0
  -17.5400  -39.7353   -9.8231 N   0  0  0  0  0  0  0  0  0  0  0  0
  -16.3448  -39.3548   -9.0966 C   0  0  1  0  0  0  0  0  0  0  0  0
  -15.6351  -38.1607   -9.6377 C   0  0  0  0  0  0  0  0  0  0  0  0
  -16.5861  -39.2473   -7.5946 C   0  0  2  0  0  0  0  0  0  0  0  0
  -15.9760  -40.3757   -7.0147 O   0  0  0  0  0  0  0  0  0  0  0  0
  -18.0358  -39.3365   -7.2631 C   0  0  0  0  0  0  0  0  0  0  0  0
  -18.8199  -38.2386   -7.6297 N   0  0  0  0  0  0  0  0  0  0  0  0
  -20.1953  -38.3920   -7.9242 C   0  0  0  0  0  0  0  0  0  0  0  0
  -20.8472  -38.1202   -9.2026 C   0  0  0  0  0  0  0  0  0  0  0  0
  -20.9400  -37.0371   -8.1603 C   0  0  0  0  0  0  0  0  0  0  0  0
  -20.9971  -39.2719   -6.9834 C   0  0  0  0  0  0  0  0  0  0  0  0
  -20.6781  -39.4454   -5.6667 C   0  0  0  0  0  0  0  0  0  0  0  0
  -21.4273  -40.2608   -4.8233 C   0  0  0  0  0  0  0  0  0  0  0  0
  -22.5201  -40.9053   -5.3482 C   0  0  0  0  0  0  0  0  0  0  0  0
  -22.8231  -40.7178   -6.6751 C   0  0  0  0  0  0  0  0  0  0  0  0
  -22.0675  -39.9182   -7.4502 N   0  0  0  0  0  0  0  0  0  0  0  0
  -21.0842  -40.4362   -3.3967 C   0  0  0  0  0  0  0  0  0  0  0  0
  -22.2462  -41.0422   -2.6526 C   0  0  0  0  0  0  0  0  0  0  0  0
  -20.6511  -39.1210   -2.7696 C   0  0  0  0  0  0  0  0  0  0  0  0
  -19.9028  -41.3710   -3.2689 C   0  0  0  0  0  0  0  0  0  0  0  0
  -17.5729  -45.7912   -9.3597 C   0  0  0  0  0  0  0  0  0  0  0  0
  -18.2451  -46.7919   -9.9427 N   0  0  0  0  0  0  0  0  0  0  0  0
  -18.5290  -47.6519   -8.9492 C   0  0  0  0  0  0  0  0  0  0  0  0
  -18.0037  -47.1221   -7.7798 C   0  0  0  0  0  0  0  0  0  0  0  0
  -17.4242  -45.9778   -8.0759 O   0  0  0  0  0  0  0  0  0  0  0  0
  2  1  1  1
  2  3  1  0
  3  4  1  0
  4  5  1  0
  5  6  1  0
  6  7  1  0
  7  8  1  0
  8  9  1  0
  9 10  1  0
 10 11  1  0
 11 12  1  0
 12 13  2  0
 13 14  1  0
 14 15  2  0
 15 16  1  0
 15 17  1  0
 17 18  2  0
 17 19  1  0
 19 20  1  0
 20 21  1  6
 20 22  1  0
 22 23  1  1
 22 24  1  0
 24 25  1  0
 25 26  1  0
 26 27  1  0
 27 28  1  0
 26 29  1  0
 29 30  2  0
 30 31  1  0
 31 32  2  0
 32 33  1  0
 33 34  2  0
 31 35  1  0
 35 36  1  0
 35 37  1  0
 35 38  1  0
 13 39  1  0
 39 40  2  0
 40 41  1  0
 41 42  2  0
 42 43  1  0
 16 11  2  0
 21  2  1  0
 28 26  1  0
 34 29  1  0
 43 39  1  0
M  END
$$$$
