
     RDKit          3D

 43 47  0  0  0  0  0  0  0  0999 V2000
  -17.8693  -37.9389   -3.6060 C   0  0  0  0  0  0  0  0  0  0  0  0
  -18.2679  -39.2142   -4.3036 C   0  0  2  0  0  0  0  0  0  0  0  0
  -18.3691  -40.3276   -3.3088 C   0  0  0  0  0  0  0  0  0  0  0  0
  -19.6154  -40.1475   -2.4716 C   0  0  0  0  0  0  0  0  0  0  0  0
  -20.2652  -41.4241   -2.0487 C   0  0  0  0  0  0  0  0  0  0  0  0
  -21.0445  -42.0286   -3.1969 C   0  0  0  0  0  0  0  0  0  0  0  0
  -22.3665  -41.3532   -3.4386 C   0  0  0  0  0  0  0  0  0  0  0  0
  -22.6319  -41.3723   -4.9190 C   0  0  0  0  0  0  0  0  0  0  0  0
  -23.1335  -42.7214   -5.3240 C   0  0  0  0  0  0  0  0  0  0  0  0
  -22.6507  -43.1268   -6.5891 O   0  0  0  0  0  0  0  0  0  0  0  0
  -21.7583  -42.5654   -7.4899 C   0  0  0  0  0  0  0  0  0  0  0  0
  -22.3971  -42.2705   -8.7078 C   0  0  0  0  0  0  0  0  0  0  0  0
  -21.7487  -41.7067   -9.7708 C   0  0  0  0  0  0  0  0  0  0  0  0
  -20.4172  -41.4447   -9.5682 C   0  0  0  0  0  0  0  0  0  0  0  0
  -19.7323  -41.7245   -8.3600 C   0  0  0  0  0  0  0  0  0  0  0  0
  -20.4100  -42.2915   -7.3149 C   0  0  0  0  0  0  0  0  0  0  0  0
  -18.3244  -41.2984   -8.5001 C   0  0  0  0  0  0  0  0  0  0  0  0
  -17.6967  -41.5496   -9.6312 O   0  0  0  0  0  0  0  0  0  0  0  0
  -17.4547  -40.6327   -7.6168 N   0  0  0  0  0  0  0  0  0  0  0  0
  -17.8241  -39.5431   -6.7351 C   0  0  1  0  0  0  0  0  0  0  0  0
  -17.2419  -39.6199   -5.3648 C   0  0  0  0  0  0  0  0  0  0  0  0
  -17.6058  -38.1763   -7.3756 C   0  0  2  0  0  0  0  0  0  0  0  0
  -18.8810  -37.5957   -7.5116 O   0  0  0  0  0  0  0  0  0  0  0  0
  -17.0500  -38.2972   -8.7524 C   0  0  0  0  0  0  0  0  0  0  0  0
  -15.9660  -39.1670   -8.9047 N   0  0  0  0  0  0  0  0  0  0  0  0
  -15.1351  -39.1017  -10.0481 C   0  0  0  0  0  0  0  0  0  0  0  0
  -13.7750  -39.6206  -10.1662 C   0  0  0  0  0  0  0  0  0  0  0  0
  -13.9070  -38.1487   -9.8760 C   0  0  0  0  0  0  0  0  0  0  0  0
  -15.8235  -38.8330  -11.3733 C   0  0  0  0  0  0  0  0  0  0  0  0
  -17.1660  -38.9941  -11.5655 C   0  0  0  0  0  0  0  0  0  0  0  0
  -17.7750  -38.7443  -12.7920 C   0  0  0  0  0  0  0  0  0  0  0  0
  -16.9853  -38.3228  -13.8332 C   0  0  0  0  0  0  0  0  0  0  0  0
  -15.6371  -38.1678  -13.6189 C   0  0  0  0  0  0  0  0  0  0  0  0
  -15.0953  -38.4219  -12.4135 N   0  0  0  0  0  0  0  0  0  0  0  0
  -19.2298  -38.9096  -12.9915 C   0  0  0  0  0  0  0  0  0  0  0  0
  -19.8034  -37.6931  -13.6714 C   0  0  0  0  0  0  0  0  0  0  0  0
  -19.9365  -39.1928  -11.6759 C   0  0  0  0  0  0  0  0  0  0  0  0
  -19.4892  -40.1096  -13.8739 C   0  0  0  0  0  0  0  0  0  0  0  0
  -22.4218  -41.3988  -11.0271 C   0  0  0  0  0  0  0  0  0  0  0  0
  -22.4696  -42.2378  -12.0697 N   0  0  0  0  0  0  0  0  0  0  0  0
  -23.1706  -41.5870  -13.0142 C   0  0  0  0  0  0  0  0  0  0  0  0
  -23.5255  -40.3527  -12.4901 C   0  0  0  0  0  0  0  0  0  0  0  0
  -23.0458  -40.2771  -11.2666 O   0  0  0  0  0  0  0  0  0  0  0  0
  2  1  1  1
  2  3  1  0
  3  4  1  0
  4  5  1  0
  5  6  1  0
  6  7  1  0
  7  8  1  0
  8  9  1  0
  9 10  1  0
 10 11  1  0
 11 12  1  0
 12 13  2  0
 13 14  1  0
 14 15  2  0
 15 16  1  0
 15 17  1  0
 17 18  2  0
 17 19  1  0
 19 20  1  0
 20 21  1  1
 20 22  1  0
 22 23  1  6
 22 24  1  0
 24 25  1  0
 25 26  1  0
 26 27  1  0
 27 28  1  0
 26 29  1  0
 29 30  2  0
 30 31  1  0
 31 32  2  0
 32 33  1  0
 33 34  2  0
 31 35  1  0
 35 36  1  0
 35 37  1  0
 35 38  1  0
 13 39  1  0
 39 40  2  0
 40 41  1  0
 41 42  2  0
 42 43  1  0
 16 11  2  0
 21  2  1  0
 28 26  1  0
 34 29  1  0
 43 39  1  0
M  END
$$$$
