
     RDKit          3D

 43 47  0  0  0  0  0  0  0  0999 V2000
  -14.4604  -43.2185   -9.3452 C   0  0  0  0  0  0  0  0  0  0  0  0
  -15.9591  -43.1546   -9.4928 C   0  0  2  0  0  0  0  0  0  0  0  0
  -16.4056  -44.1021  -10.5617 C   0  0  0  0  0  0  0  0  0  0  0  0
  -16.3048  -45.5228  -10.0540 C   0  0  0  0  0  0  0  0  0  0  0  0
  -17.3542  -46.4440  -10.5840 C   0  0  0  0  0  0  0  0  0  0  0  0
  -18.6706  -46.2138   -9.8731 C   0  0  0  0  0  0  0  0  0  0  0  0
  -18.7213  -46.8303   -8.5022 C   0  0  0  0  0  0  0  0  0  0  0  0
  -19.5456  -45.9321   -7.6213 C   0  0  0  0  0  0  0  0  0  0  0  0
  -20.9992  -46.1606   -7.8874 C   0  0  0  0  0  0  0  0  0  0  0  0
  -21.7602  -44.9712   -7.8230 O   0  0  0  0  0  0  0  0  0  0  0  0
  -21.4259  -43.6385   -7.6363 C   0  0  0  0  0  0  0  0  0  0  0  0
  -22.0065  -43.1384   -6.4569 C   0  0  0  0  0  0  0  0  0  0  0  0
  -21.8360  -41.8506   -6.0315 C   0  0  0  0  0  0  0  0  0  0  0  0
  -21.0514  -41.0690   -6.8415 C   0  0  0  0  0  0  0  0  0  0  0  0
  -20.4469  -41.5291   -8.0373 C   0  0  0  0  0  0  0  0  0  0  0  0
  -20.6390  -42.8238   -8.4368 C   0  0  0  0  0  0  0  0  0  0  0  0
  -19.6690  -40.4237   -8.6345 C   0  0  0  0  0  0  0  0  0  0  0  0
  -20.1902  -39.2134   -8.6391 O   0  0  0  0  0  0  0  0  0  0  0  0
  -18.3991  -40.3918   -9.2395 N   0  0  0  0  0  0  0  0  0  0  0  0
  -17.2354  -41.1307   -8.7912 C   0  0  1  0  0  0  0  0  0  0  0  0
  -16.4273  -41.7496   -9.8804 C   0  0  0  0  0  0  0  0  0  0  0  0
  -16.3736  -40.3278   -7.8224 C   0  0  2  0  0  0  0  0  0  0  0  0
  -16.4365  -41.0003   -6.5873 O   0  0  0  0  0  0  0  0  0  0  0  0
  -16.9321  -38.9666   -7.5888 C   0  0  0  0  0  0  0  0  0  0  0  0
  -17.6523  -38.4064   -8.6480 N   0  0  0  0  0  0  0  0  0  0  0  0
  -17.3318  -37.1221   -9.1478 C   0  0  0  0  0  0  0  0  0  0  0  0
  -17.8669  -35.8469   -8.6780 C   0  0  0  0  0  0  0  0  0  0  0  0
  -18.5133  -36.4323   -9.9058 C   0  0  0  0  0  0  0  0  0  0  0  0
  -16.0538  -37.0082   -9.9578 C   0  0  0  0  0  0  0  0  0  0  0  0
  -15.4379  -35.8178  -10.2206 C   0  0  0  0  0  0  0  0  0  0  0  0
  -14.2672  -35.7379  -10.9694 C   0  0  0  0  0  0  0  0  0  0  0  0
  -13.7268  -36.9038  -11.4529 C   0  0  0  0  0  0  0  0  0  0  0  0
  -14.3625  -38.0903  -11.1777 C   0  0  0  0  0  0  0  0  0  0  0  0
  -15.4930  -38.1156  -10.4481 N   0  0  0  0  0  0  0  0  0  0  0  0
  -13.5988  -34.4484  -11.2413 C   0  0  0  0  0  0  0  0  0  0  0  0
  -12.1381  -34.5329  -10.8801 C   0  0  0  0  0  0  0  0  0  0  0  0
  -14.2850  -33.3078  -10.5074 C   0  0  0  0  0  0  0  0  0  0  0  0
  -13.7026  -34.1222  -12.7140 C   0  0  0  0  0  0  0  0  0  0  0  0
  -22.4371  -41.3437   -4.8036 C   0  0  0  0  0  0  0  0  0  0  0  0
  -21.9314  -40.3275   -4.0930 N   0  0  0  0  0  0  0  0  0  0  0  0
  -22.7676  -40.1748   -3.0516 C   0  0  0  0  0  0  0  0  0  0  0  0
  -23.7674  -41.1277   -3.1799 C   0  0  0  0  0  0  0  0  0  0  0  0
  -23.5271  -41.8254   -4.2700 O   0  0  0  0  0  0  0  0  0  0  0  0
  2  1  1  6
  2  3  1  0
  3  4  1  0
  4  5  1  0
  5  6  1  0
  6  7  1  0
  7  8  1  0
  8  9  1  0
  9 10  1  0
 10 11  1  0
 11 12  1  0
 12 13  2  0
 13 14  1  0
 14 15  2  0
 15 16  1  0
 15 17  1  0
 17 18  2  0
 17 19  1  0
 19 20  1  0
 20 21  1  6
 20 22  1  0
 22 23  1  1
 22 24  1  0
 24 25  1  0
 25 26  1  0
 26 27  1  0
 27 28  1  0
 26 29  1  0
 29 30  2  0
 30 31  1  0
 31 32  2  0
 32 33  1  0
 33 34  2  0
 31 35  1  0
 35 36  1  0
 35 37  1  0
 35 38  1  0
 13 39  1  0
 39 40  2  0
 40 41  1  0
 41 42  2  0
 42 43  1  0
 16 11  2  0
 21  2  1  0
 28 26  1  0
 34 29  1  0
 43 39  1  0
M  END
$$$$
