
     RDKit          3D

 43 47  0  0  0  0  0  0  0  0999 V2000
  -20.5789  -37.1661   -8.1279 C   0  0  0  0  0  0  0  0  0  0  0  0
  -20.2338  -38.3696   -7.2885 C   0  0  2  0  0  0  0  0  0  0  0  0
  -20.8096  -38.2142   -5.9160 C   0  0  0  0  0  0  0  0  0  0  0  0
  -22.3071  -38.4170   -5.9686 C   0  0  0  0  0  0  0  0  0  0  0  0
  -22.8870  -39.0560   -4.7495 C   0  0  0  0  0  0  0  0  0  0  0  0
  -22.6191  -40.5457   -4.7528 C   0  0  0  0  0  0  0  0  0  0  0  0
  -23.5294  -41.3112   -5.6735 C   0  0  0  0  0  0  0  0  0  0  0  0
  -22.7449  -42.4563   -6.2527 C   0  0  0  0  0  0  0  0  0  0  0  0
  -22.6587  -43.5651   -5.2532 C   0  0  0  0  0  0  0  0  0  0  0  0
  -21.4103  -44.2275   -5.2782 O   0  0  0  0  0  0  0  0  0  0  0  0
  -20.2357  -44.0144   -5.9837 C   0  0  0  0  0  0  0  0  0  0  0  0
  -19.9440  -45.1133   -6.8118 C   0  0  0  0  0  0  0  0  0  0  0  0
  -18.8427  -45.1647   -7.6197 C   0  0  0  0  0  0  0  0  0  0  0  0
  -18.0307  -44.0598   -7.5681 C   0  0  0  0  0  0  0  0  0  0  0  0
  -18.2841  -42.9313   -6.7500 C   0  0  0  0  0  0  0  0  0  0  0  0
  -19.3948  -42.9119   -5.9507 C   0  0  0  0  0  0  0  0  0  0  0  0
  -17.2125  -41.9367   -6.9641 C   0  0  0  0  0  0  0  0  0  0  0  0
  -15.9673  -42.3579   -7.0564 O   0  0  0  0  0  0  0  0  0  0  0  0
  -17.2473  -40.5367   -7.1012 N   0  0  0  0  0  0  0  0  0  0  0  0
  -18.2547  -39.7878   -7.8261 C   0  0  1  0  0  0  0  0  0  0  0  0
  -18.7193  -38.5434   -7.1493 C   0  0  0  0  0  0  0  0  0  0  0  0
  -17.8621  -39.5388   -9.2786 C   0  0  2  0  0  0  0  0  0  0  0  0
  -18.7607  -40.2852  -10.0641 O   0  0  0  0  0  0  0  0  0  0  0  0
  -16.5021  -40.0678   -9.5786 C   0  0  0  0  0  0  0  0  0  0  0  0
  -15.4474  -39.4990   -8.8583 N   0  0  0  0  0  0  0  0  0  0  0  0
  -14.1150  -39.9335   -9.0526 C   0  0  0  0  0  0  0  0  0  0  0  0
  -13.5137  -41.1575   -8.5297 C   0  0  0  0  0  0  0  0  0  0  0  0
  -13.2480  -39.8958   -7.7515 C   0  0  0  0  0  0  0  0  0  0  0  0
  -13.3561  -39.3020  -10.2048 C   0  0  0  0  0  0  0  0  0  0  0  0
  -13.7025  -38.1040  -10.7619 C   0  0  0  0  0  0  0  0  0  0  0  0
  -12.9925  -37.5457  -11.8211 C   0  0  0  0  0  0  0  0  0  0  0  0
  -11.9109  -38.2353  -12.3107 C   0  0  0  0  0  0  0  0  0  0  0  0
  -11.5800  -39.4389  -11.7366 C   0  0  0  0  0  0  0  0  0  0  0  0
  -12.2979  -39.9370  -10.7132 N   0  0  0  0  0  0  0  0  0  0  0  0
  -13.3649  -36.2438  -12.4128 C   0  0  0  0  0  0  0  0  0  0  0  0
  -13.3418  -35.1673  -11.3584 C   0  0  0  0  0  0  0  0  0  0  0  0
  -14.7198  -36.3185  -13.0976 C   0  0  0  0  0  0  0  0  0  0  0  0
  -12.3707  -35.8713  -13.4893 C   0  0  0  0  0  0  0  0  0  0  0  0
  -18.5527  -46.3061   -8.4795 C   0  0  0  0  0  0  0  0  0  0  0  0
  -18.6551  -47.5808   -8.0822 N   0  0  0  0  0  0  0  0  0  0  0  0
  -18.3053  -48.3133   -9.1538 C   0  0  0  0  0  0  0  0  0  0  0  0
  -17.9991  -47.4293  -10.1779 C   0  0  0  0  0  0  0  0  0  0  0  0
  -18.1641  -46.2055   -9.7220 O   0  0  0  0  0  0  0  0  0  0  0  0
  2  1  1  6
  2  3  1  0
  3  4  1  0
  4  5  1  0
  5  6  1  0
  6  7  1  0
  7  8  1  0
  8  9  1  0
  9 10  1  0
 10 11  1  0
 11 12  1  0
 12 13  2  0
 13 14  1  0
 14 15  2  0
 15 16  1  0
 15 17  1  0
 17 18  2  0
 17 19  1  0
 19 20  1  0
 20 21  1  1
 20 22  1  0
 22 23  1  6
 22 24  1  0
 24 25  1  0
 25 26  1  0
 26 27  1  0
 27 28  1  0
 26 29  1  0
 29 30  2  0
 30 31  1  0
 31 32  2  0
 32 33  1  0
 33 34  2  0
 31 35  1  0
 35 36  1  0
 35 37  1  0
 35 38  1  0
 13 39  1  0
 39 40  2  0
 40 41  1  0
 41 42  2  0
 42 43  1  0
 16 11  2  0
 21  2  1  0
 28 26  1  0
 34 29  1  0
 43 39  1  0
M  END
$$$$
