
     RDKit          3D

 43 47  0  0  0  0  0  0  0  0999 V2000
  -20.3387  -37.7350   -6.4756 C   0  0  0  0  0  0  0  0  0  0  0  0
  -20.1715  -39.1855   -6.1011 C   0  0  2  0  0  0  0  0  0  0  0  0
  -21.0084  -39.5005   -4.9011 C   0  0  0  0  0  0  0  0  0  0  0  0
  -22.4661  -39.5530   -5.2995 C   0  0  0  0  0  0  0  0  0  0  0  0
  -23.2792  -40.5477   -4.5377 C   0  0  0  0  0  0  0  0  0  0  0  0
  -23.0208  -41.9482   -5.0505 C   0  0  0  0  0  0  0  0  0  0  0  0
  -23.7321  -42.2492   -6.3411 C   0  0  0  0  0  0  0  0  0  0  0  0
  -22.8519  -43.1590   -7.1532 C   0  0  0  0  0  0  0  0  0  0  0  0
  -22.9699  -44.5603   -6.6451 C   0  0  0  0  0  0  0  0  0  0  0  0
  -21.7436  -45.2621   -6.6875 O   0  0  0  0  0  0  0  0  0  0  0  0
  -20.4514  -44.8968   -7.0334 C   0  0  0  0  0  0  0  0  0  0  0  0
  -20.0044  -45.6341   -8.1446 C   0  0  0  0  0  0  0  0  0  0  0  0
  -18.7645  -45.4708   -8.6961 C   0  0  0  0  0  0  0  0  0  0  0  0
  -17.9754  -44.5285   -8.0860 C   0  0  0  0  0  0  0  0  0  0  0  0
  -18.3829  -43.7630   -6.9657 C   0  0  0  0  0  0  0  0  0  0  0  0
  -19.6303  -43.9521   -6.4357 C   0  0  0  0  0  0  0  0  0  0  0  0
  -17.2868  -42.8457   -6.5907 C   0  0  0  0  0  0  0  0  0  0  0  0
  -16.0496  -43.2989   -6.6044 O   0  0  0  0  0  0  0  0  0  0  0  0
  -17.2891  -41.4949   -6.1965 N   0  0  0  0  0  0  0  0  0  0  0  0
  -18.1296  -40.4564   -6.7589 C   0  0  1  0  0  0  0  0  0  0  0  0
  -18.7156  -39.5152   -5.7622 C   0  0  0  0  0  0  0  0  0  0  0  0
  -17.4550  -39.7230   -7.9133 C   0  0  2  0  0  0  0  0  0  0  0  0
  -17.8597  -40.3814   -9.0899 O   0  0  0  0  0  0  0  0  0  0  0  0
  -15.9717  -39.8472   -7.8513 C   0  0  0  0  0  0  0  0  0  0  0  0
  -15.2580  -39.2222   -8.8783 N   0  0  0  0  0  0  0  0  0  0  0  0
  -14.4621  -39.9744   -9.7742 C   0  0  0  0  0  0  0  0  0  0  0  0
  -14.4466  -41.4280   -9.9144 C   0  0  0  0  0  0  0  0  0  0  0  0
  -13.3571  -40.8258   -9.0667 C   0  0  0  0  0  0  0  0  0  0  0  0
  -13.8687  -39.2222  -10.9509 C   0  0  0  0  0  0  0  0  0  0  0  0
  -14.1694  -37.9207  -11.2356 C   0  0  0  0  0  0  0  0  0  0  0  0
  -13.6147  -37.2522  -12.3233 C   0  0  0  0  0  0  0  0  0  0  0  0
  -12.7382  -37.9385  -13.1269 C   0  0  0  0  0  0  0  0  0  0  0  0
  -12.4499  -39.2471  -12.8233 C   0  0  0  0  0  0  0  0  0  0  0  0
  -13.0121  -39.8497  -11.7594 N   0  0  0  0  0  0  0  0  0  0  0  0
  -13.9350  -35.8405  -12.6204 C   0  0  0  0  0  0  0  0  0  0  0  0
  -13.4435  -35.4740  -13.9970 C   0  0  0  0  0  0  0  0  0  0  0  0
  -13.3609  -34.9121  -11.5626 C   0  0  0  0  0  0  0  0  0  0  0  0
  -15.4332  -35.6406  -12.5855 C   0  0  0  0  0  0  0  0  0  0  0  0
  -18.3129  -46.2357   -9.8525 C   0  0  0  0  0  0  0  0  0  0  0  0
  -18.1234  -47.5613   -9.8387 N   0  0  0  0  0  0  0  0  0  0  0  0
  -17.7125  -47.8717  -11.0805 C   0  0  0  0  0  0  0  0  0  0  0  0
  -17.6703  -46.6925  -11.8098 C   0  0  0  0  0  0  0  0  0  0  0  0
  -18.0468  -45.7106  -11.0180 O   0  0  0  0  0  0  0  0  0  0  0  0
  2  1  1  1
  2  3  1  0
  3  4  1  0
  4  5  1  0
  5  6  1  0
  6  7  1  0
  7  8  1  0
  8  9  1  0
  9 10  1  0
 10 11  1  0
 11 12  1  0
 12 13  2  0
 13 14  1  0
 14 15  2  0
 15 16  1  0
 15 17  1  0
 17 18  2  0
 17 19  1  0
 19 20  1  0
 20 21  1  1
 20 22  1  0
 22 23  1  6
 22 24  1  0
 24 25  1  0
 25 26  1  0
 26 27  1  0
 27 28  1  0
 26 29  1  0
 29 30  2  0
 30 31  1  0
 31 32  2  0
 32 33  1  0
 33 34  2  0
 31 35  1  0
 35 36  1  0
 35 37  1  0
 35 38  1  0
 13 39  1  0
 39 40  2  0
 40 41  1  0
 41 42  2  0
 42 43  1  0
 16 11  2  0
 21  2  1  0
 28 26  1  0
 34 29  1  0
 43 39  1  0
M  END
$$$$
