
     RDKit          3D

 43 47  0  0  0  0  0  0  0  0999 V2000
  -19.2197  -37.1683   -9.9604 C   0  0  0  0  0  0  0  0  0  0  0  0
  -19.3682  -38.0362   -8.7370 C   0  0  2  0  0  0  0  0  0  0  0  0
  -20.1956  -37.3295   -7.7096 C   0  0  0  0  0  0  0  0  0  0  0  0
  -21.6447  -37.3252   -8.1415 C   0  0  0  0  0  0  0  0  0  0  0  0
  -22.6245  -37.4071   -7.0171 C   0  0  0  0  0  0  0  0  0  0  0  0
  -22.7160  -38.8251   -6.4953 C   0  0  0  0  0  0  0  0  0  0  0  0
  -23.5387  -39.7289   -7.3719 C   0  0  0  0  0  0  0  0  0  0  0  0
  -22.9283  -41.1027   -7.3220 C   0  0  0  0  0  0  0  0  0  0  0  0
  -23.3366  -41.7903   -6.0585 C   0  0  0  0  0  0  0  0  0  0  0  0
  -22.3052  -42.5878   -5.5124 O   0  0  0  0  0  0  0  0  0  0  0  0
  -20.9821  -42.8033   -5.8672 C   0  0  0  0  0  0  0  0  0  0  0  0
  -20.7685  -44.1523   -6.2031 C   0  0  0  0  0  0  0  0  0  0  0  0
  -19.5521  -44.6384   -6.5933 C   0  0  0  0  0  0  0  0  0  0  0  0
  -18.5411  -43.7116   -6.6356 C   0  0  0  0  0  0  0  0  0  0  0  0
  -18.7094  -42.3441   -6.3062 C   0  0  0  0  0  0  0  0  0  0  0  0
  -19.9401  -41.8893   -5.9170 C   0  0  0  0  0  0  0  0  0  0  0  0
  -17.4169  -41.6492   -6.4794 C   0  0  0  0  0  0  0  0  0  0  0  0
  -16.3170  -42.2466   -6.0675 O   0  0  0  0  0  0  0  0  0  0  0  0
  -17.0934  -40.3964   -7.0325 N   0  0  0  0  0  0  0  0  0  0  0  0
  -17.7024  -39.8160   -8.2129 C   0  0  1  0  0  0  0  0  0  0  0  0
  -18.0105  -38.3611   -8.1090 C   0  0  0  0  0  0  0  0  0  0  0  0
  -16.9356  -40.1507   -9.4880 C   0  0  2  0  0  0  0  0  0  0  0  0
  -17.7714  -40.9971  -10.2409 O   0  0  0  0  0  0  0  0  0  0  0  0
  -15.7000  -40.9305   -9.1974 C   0  0  0  0  0  0  0  0  0  0  0  0
  -14.5527  -40.1833   -8.9140 N   0  0  0  0  0  0  0  0  0  0  0  0
  -13.3814  -40.3230   -9.6952 C   0  0  0  0  0  0  0  0  0  0  0  0
  -12.6144  -41.5485   -9.9023 C   0  0  0  0  0  0  0  0  0  0  0  0
  -12.0952  -40.6036   -8.8507 C   0  0  0  0  0  0  0  0  0  0  0  0
  -13.1101  -39.2311  -10.7134 C   0  0  0  0  0  0  0  0  0  0  0  0
  -13.8122  -38.0605  -10.7604 C   0  0  0  0  0  0  0  0  0  0  0  0
  -13.5472  -37.0743  -11.7063 C   0  0  0  0  0  0  0  0  0  0  0  0
  -12.5437  -37.3017  -12.6154 C   0  0  0  0  0  0  0  0  0  0  0  0
  -11.8502  -38.4860  -12.5511 C   0  0  0  0  0  0  0  0  0  0  0  0
  -12.1439  -39.4090  -11.6168 N   0  0  0  0  0  0  0  0  0  0  0  0
  -14.3024  -35.8048  -11.7457 C   0  0  0  0  0  0  0  0  0  0  0  0
  -13.4125  -34.6570  -11.3438 C   0  0  0  0  0  0  0  0  0  0  0  0
  -15.5431  -35.8756  -10.8703 C   0  0  0  0  0  0  0  0  0  0  0  0
  -14.7954  -35.5496  -13.1521 C   0  0  0  0  0  0  0  0  0  0  0  0
  -19.3425  -46.0377   -6.9459 C   0  0  0  0  0  0  0  0  0  0  0  0
  -18.4714  -46.8394   -6.3200 N   0  0  0  0  0  0  0  0  0  0  0  0
  -18.5804  -48.0287   -6.9371 C   0  0  0  0  0  0  0  0  0  0  0  0
  -19.5358  -47.8924   -7.9335 C   0  0  0  0  0  0  0  0  0  0  0  0
  -19.9795  -46.6534   -7.9051 O   0  0  0  0  0  0  0  0  0  0  0  0
  2  1  1  6
  2  3  1  0
  3  4  1  0
  4  5  1  0
  5  6  1  0
  6  7  1  0
  7  8  1  0
  8  9  1  0
  9 10  1  0
 10 11  1  0
 11 12  1  0
 12 13  2  0
 13 14  1  0
 14 15  2  0
 15 16  1  0
 15 17  1  0
 17 18  2  0
 17 19  1  0
 19 20  1  0
 20 21  1  1
 20 22  1  0
 22 23  1  6
 22 24  1  0
 24 25  1  0
 25 26  1  0
 26 27  1  0
 27 28  1  0
 26 29  1  0
 29 30  2  0
 30 31  1  0
 31 32  2  0
 32 33  1  0
 33 34  2  0
 31 35  1  0
 35 36  1  0
 35 37  1  0
 35 38  1  0
 13 39  1  0
 39 40  2  0
 40 41  1  0
 41 42  2  0
 42 43  1  0
 16 11  2  0
 21  2  1  0
 28 26  1  0
 34 29  1  0
 43 39  1  0
M  END
$$$$
