
     RDKit          3D

 43 47  0  0  0  0  0  0  0  0999 V2000
  -20.2144  -37.1210   -8.0929 C   0  0  0  0  0  0  0  0  0  0  0  0
  -20.0628  -38.3291   -7.2044 C   0  0  2  0  0  0  0  0  0  0  0  0
  -20.7247  -38.0770   -5.8861 C   0  0  0  0  0  0  0  0  0  0  0  0
  -22.2264  -38.1274   -6.0550 C   0  0  0  0  0  0  0  0  0  0  0  0
  -22.9630  -38.6691   -4.8740 C   0  0  0  0  0  0  0  0  0  0  0  0
  -22.8520  -40.1779   -4.8257 C   0  0  0  0  0  0  0  0  0  0  0  0
  -23.7622  -40.8722   -5.8011 C   0  0  0  0  0  0  0  0  0  0  0  0
  -23.0582  -42.1074   -6.2921 C   0  0  0  0  0  0  0  0  0  0  0  0
  -23.1659  -43.1904   -5.2667 C   0  0  0  0  0  0  0  0  0  0  0  0
  -21.9950  -43.9772   -5.1777 O   0  0  0  0  0  0  0  0  0  0  0  0
  -20.7532  -43.9050   -5.7905 C   0  0  0  0  0  0  0  0  0  0  0  0
  -20.5135  -45.0510   -6.5701 C   0  0  0  0  0  0  0  0  0  0  0  0
  -19.3638  -45.2373   -7.2854 C   0  0  0  0  0  0  0  0  0  0  0  0
  -18.4480  -44.2200   -7.1908 C   0  0  0  0  0  0  0  0  0  0  0  0
  -18.6458  -43.0488   -6.4187 C   0  0  0  0  0  0  0  0  0  0  0  0
  -19.8074  -42.8935   -5.7121 C   0  0  0  0  0  0  0  0  0  0  0  0
  -17.4631  -42.1752   -6.5658 C   0  0  0  0  0  0  0  0  0  0  0  0
  -16.2651  -42.7236   -6.5490 O   0  0  0  0  0  0  0  0  0  0  0  0
  -17.3415  -40.7834   -6.7335 N   0  0  0  0  0  0  0  0  0  0  0  0
  -18.2059  -39.9565   -7.5521 C   0  0  1  0  0  0  0  0  0  0  0  0
  -18.5901  -38.6525   -6.9401 C   0  0  0  0  0  0  0  0  0  0  0  0
  -17.6774  -39.7901   -8.9729 C   0  0  2  0  0  0  0  0  0  0  0  0
  -18.7407  -40.1268   -9.8318 O   0  0  0  0  0  0  0  0  0  0  0  0
  -16.5789  -40.7526   -9.2668 C   0  0  0  0  0  0  0  0  0  0  0  0
  -15.4295  -40.2148   -9.8535 N   0  0  0  0  0  0  0  0  0  0  0  0
  -14.3092  -41.0298  -10.1410 C   0  0  0  0  0  0  0  0  0  0  0  0
  -12.9099  -40.7140   -9.8668 C   0  0  0  0  0  0  0  0  0  0  0  0
  -13.3914  -40.4568  -11.2704 C   0  0  0  0  0  0  0  0  0  0  0  0
  -14.5855  -42.5011  -10.3884 C   0  0  0  0  0  0  0  0  0  0  0  0
  -15.7450  -42.9617  -10.9442 C   0  0  0  0  0  0  0  0  0  0  0  0
  -15.9774  -44.3173  -11.1586 C   0  0  0  0  0  0  0  0  0  0  0  0
  -14.9984  -45.2080  -10.7931 C   0  0  0  0  0  0  0  0  0  0  0  0
  -13.8400  -44.7238  -10.2350 C   0  0  0  0  0  0  0  0  0  0  0  0
  -13.6623  -43.4030  -10.0485 N   0  0  0  0  0  0  0  0  0  0  0  0
  -17.2291  -44.8094  -11.7706 C   0  0  0  0  0  0  0  0  0  0  0  0
  -17.8316  -43.7450  -12.6509 C   0  0  0  0  0  0  0  0  0  0  0  0
  -18.2145  -45.2731  -10.7101 C   0  0  0  0  0  0  0  0  0  0  0  0
  -16.9349  -46.0197  -12.6276 C   0  0  0  0  0  0  0  0  0  0  0  0
  -19.1278  -46.4263   -8.0959 C   0  0  0  0  0  0  0  0  0  0  0  0
  -20.0645  -47.0031   -8.8596 N   0  0  0  0  0  0  0  0  0  0  0  0
  -19.4535  -48.0540   -9.4335 C   0  0  0  0  0  0  0  0  0  0  0  0
  -18.1421  -48.0683   -8.9818 C   0  0  0  0  0  0  0  0  0  0  0  0
  -17.9831  -47.0510   -8.1617 O   0  0  0  0  0  0  0  0  0  0  0  0
  2  1  1  6
  2  3  1  0
  3  4  1  0
  4  5  1  0
  5  6  1  0
  6  7  1  0
  7  8  1  0
  8  9  1  0
  9 10  1  0
 10 11  1  0
 11 12  1  0
 12 13  2  0
 13 14  1  0
 14 15  2  0
 15 16  1  0
 15 17  1  0
 17 18  2  0
 17 19  1  0
 19 20  1  0
 20 21  1  1
 20 22  1  0
 22 23  1  6
 22 24  1  0
 24 25  1  0
 25 26  1  0
 26 27  1  0
 27 28  1  0
 26 29  1  0
 29 30  2  0
 30 31  1  0
 31 32  2  0
 32 33  1  0
 33 34  2  0
 31 35  1  0
 35 36  1  0
 35 37  1  0
 35 38  1  0
 13 39  1  0
 39 40  2  0
 40 41  1  0
 41 42  2  0
 42 43  1  0
 16 11  2  0
 21  2  1  0
 28 26  1  0
 34 29  1  0
 43 39  1  0
M  END
$$$$
