
     RDKit          3D

 43 47  0  0  0  0  0  0  0  0999 V2000
  -20.7364  -37.3997   -8.3428 C   0  0  0  0  0  0  0  0  0  0  0  0
  -20.4767  -38.5595   -7.4158 C   0  0  2  0  0  0  0  0  0  0  0  0
  -21.2097  -38.3545   -6.1273 C   0  0  0  0  0  0  0  0  0  0  0  0
  -22.6884  -38.5849   -6.3431 C   0  0  0  0  0  0  0  0  0  0  0  0
  -23.3983  -39.1801   -5.1716 C   0  0  0  0  0  0  0  0  0  0  0  0
  -23.1142  -40.6638   -5.0767 C   0  0  0  0  0  0  0  0  0  0  0  0
  -23.9023  -41.4839   -6.0608 C   0  0  0  0  0  0  0  0  0  0  0  0
  -23.0424  -42.6396   -6.4934 C   0  0  0  0  0  0  0  0  0  0  0  0
  -23.0595  -43.7023   -5.4416 C   0  0  0  0  0  0  0  0  0  0  0  0
  -21.8088  -44.3438   -5.2924 O   0  0  0  0  0  0  0  0  0  0  0  0
  -20.5629  -44.1416   -5.8666 C   0  0  0  0  0  0  0  0  0  0  0  0
  -20.1641  -45.2703   -6.6050 C   0  0  0  0  0  0  0  0  0  0  0  0
  -18.9759  -45.3380   -7.2772 C   0  0  0  0  0  0  0  0  0  0  0  0
  -18.1886  -44.2182   -7.1822 C   0  0  0  0  0  0  0  0  0  0  0  0
  -18.5486  -43.0597   -6.4506 C   0  0  0  0  0  0  0  0  0  0  0  0
  -19.7447  -43.0245   -5.7865 C   0  0  0  0  0  0  0  0  0  0  0  0
  -17.4713  -42.0573   -6.5843 C   0  0  0  0  0  0  0  0  0  0  0  0
  -16.2189  -42.4608   -6.5132 O   0  0  0  0  0  0  0  0  0  0  0  0
  -17.5066  -40.6654   -6.7875 N   0  0  0  0  0  0  0  0  0  0  0  0
  -18.4319  -39.9659   -7.6568 C   0  0  1  0  0  0  0  0  0  0  0  0
  -18.9866  -38.7013   -7.0951 C   0  0  0  0  0  0  0  0  0  0  0  0
  -17.8763  -39.7736   -9.0641 C   0  0  2  0  0  0  0  0  0  0  0  0
  -18.7316  -40.4847   -9.9269 O   0  0  0  0  0  0  0  0  0  0  0  0
  -16.5267  -40.3872   -9.2106 C   0  0  0  0  0  0  0  0  0  0  0  0
  -15.4561  -39.6505   -8.6950 N   0  0  0  0  0  0  0  0  0  0  0  0
  -14.2004  -39.6372   -9.3469 C   0  0  0  0  0  0  0  0  0  0  0  0
  -13.0673  -40.5165   -9.0710 C   0  0  0  0  0  0  0  0  0  0  0  0
  -13.0263  -39.1522   -8.4345 C   0  0  0  0  0  0  0  0  0  0  0  0
  -14.1408  -38.9369  -10.6916 C   0  0  0  0  0  0  0  0  0  0  0  0
  -13.5135  -37.7391  -10.8844 C   0  0  0  0  0  0  0  0  0  0  0  0
  -13.4748  -37.1138  -12.1275 C   0  0  0  0  0  0  0  0  0  0  0  0
  -14.0931  -37.7349  -13.1844 C   0  0  0  0  0  0  0  0  0  0  0  0
  -14.7189  -38.9388  -12.9688 C   0  0  0  0  0  0  0  0  0  0  0  0
  -14.7284  -39.5038  -11.7474 N   0  0  0  0  0  0  0  0  0  0  0  0
  -12.7851  -35.8232  -12.3330 C   0  0  0  0  0  0  0  0  0  0  0  0
  -13.6091  -34.6965  -11.7650 C   0  0  0  0  0  0  0  0  0  0  0  0
  -12.4736  -35.5941  -13.8031 C   0  0  0  0  0  0  0  0  0  0  0  0
  -11.4522  -35.8394  -11.6194 C   0  0  0  0  0  0  0  0  0  0  0  0
  -18.5746  -46.5106   -8.0455 C   0  0  0  0  0  0  0  0  0  0  0  0
  -18.3264  -47.7077   -7.4992 N   0  0  0  0  0  0  0  0  0  0  0  0
  -17.9917  -48.5031   -8.5300 C   0  0  0  0  0  0  0  0  0  0  0  0
  -18.0535  -47.7349   -9.6832 C   0  0  0  0  0  0  0  0  0  0  0  0
  -18.4156  -46.5163   -9.3415 O   0  0  0  0  0  0  0  0  0  0  0  0
  2  1  1  6
  2  3  1  0
  3  4  1  0
  4  5  1  0
  5  6  1  0
  6  7  1  0
  7  8  1  0
  8  9  1  0
  9 10  1  0
 10 11  1  0
 11 12  1  0
 12 13  2  0
 13 14  1  0
 14 15  2  0
 15 16  1  0
 15 17  1  0
 17 18  2  0
 17 19  1  0
 19 20  1  0
 20 21  1  1
 20 22  1  0
 22 23  1  6
 22 24  1  0
 24 25  1  0
 25 26  1  0
 26 27  1  0
 27 28  1  0
 26 29  1  0
 29 30  2  0
 30 31  1  0
 31 32  2  0
 32 33  1  0
 33 34  2  0
 31 35  1  0
 35 36  1  0
 35 37  1  0
 35 38  1  0
 13 39  1  0
 39 40  2  0
 40 41  1  0
 41 42  2  0
 42 43  1  0
 16 11  2  0
 21  2  1  0
 28 26  1  0
 34 29  1  0
 43 39  1  0
M  END
$$$$
