
     RDKit          3D

 43 47  0  0  0  0  0  0  0  0999 V2000
  -14.2051  -43.9924   -8.5289 C   0  0  0  0  0  0  0  0  0  0  0  0
  -15.6537  -43.8098   -8.9032 C   0  0  2  0  0  0  0  0  0  0  0  0
  -16.0704  -44.8814   -9.8611 C   0  0  0  0  0  0  0  0  0  0  0  0
  -16.2076  -46.1946   -9.1241 C   0  0  0  0  0  0  0  0  0  0  0  0
  -17.2837  -47.0877   -9.6486 C   0  0  0  0  0  0  0  0  0  0  0  0
  -18.6429  -46.6100   -9.1845 C   0  0  0  0  0  0  0  0  0  0  0  0
  -18.9430  -46.9697   -7.7552 C   0  0  0  0  0  0  0  0  0  0  0  0
  -19.7592  -45.8556   -7.1594 C   0  0  0  0  0  0  0  0  0  0  0  0
  -21.1834  -45.9846   -7.5960 C   0  0  0  0  0  0  0  0  0  0  0  0
  -21.7974  -44.7340   -7.8344 O   0  0  0  0  0  0  0  0  0  0  0  0
  -21.3316  -43.4280   -7.8157 C   0  0  0  0  0  0  0  0  0  0  0  0
  -21.9942  -42.6755   -6.8292 C   0  0  0  0  0  0  0  0  0  0  0  0
  -21.7256  -41.3561   -6.5942 C   0  0  0  0  0  0  0  0  0  0  0  0
  -20.7551  -40.8080   -7.3946 C   0  0  0  0  0  0  0  0  0  0  0  0
  -20.0621  -41.5265   -8.3999 C   0  0  0  0  0  0  0  0  0  0  0  0
  -20.3561  -42.8461   -8.6117 C   0  0  0  0  0  0  0  0  0  0  0  0
  -19.0866  -40.6233   -9.0450 C   0  0  0  0  0  0  0  0  0  0  0  0
  -19.4531  -39.3876   -9.3189 O   0  0  0  0  0  0  0  0  0  0  0  0
  -17.7550  -40.8212   -9.4544 N   0  0  0  0  0  0  0  0  0  0  0  0
  -16.7561  -41.5801   -8.7282 C   0  0  1  0  0  0  0  0  0  0  0  0
  -15.8955  -42.4554   -9.5742 C   0  0  0  0  0  0  0  0  0  0  0  0
  -15.9352  -40.7080   -7.7840 C   0  0  2  0  0  0  0  0  0  0  0  0
  -16.2218  -41.1579   -6.4813 O   0  0  0  0  0  0  0  0  0  0  0  0
  -16.3641  -39.2825   -7.8403 C   0  0  0  0  0  0  0  0  0  0  0  0
  -16.5929  -38.7582   -9.1160 N   0  0  0  0  0  0  0  0  0  0  0  0
  -16.4347  -37.3761   -9.3743 C   0  0  0  0  0  0  0  0  0  0  0  0
  -16.6640  -36.2830   -8.4333 C   0  0  0  0  0  0  0  0  0  0  0  0
  -17.7835  -36.5845   -9.3945 C   0  0  0  0  0  0  0  0  0  0  0  0
  -15.5916  -37.0027  -10.5794 C   0  0  0  0  0  0  0  0  0  0  0  0
  -15.7002  -35.8049  -11.2265 C   0  0  0  0  0  0  0  0  0  0  0  0
  -14.9176  -35.4859  -12.3327 C   0  0  0  0  0  0  0  0  0  0  0  0
  -14.0116  -36.4178  -12.7754 C   0  0  0  0  0  0  0  0  0  0  0  0
  -13.9189  -37.6165  -12.1107 C   0  0  0  0  0  0  0  0  0  0  0  0
  -14.6979  -37.8778  -11.0449 N   0  0  0  0  0  0  0  0  0  0  0  0
  -15.0313  -34.1840  -13.0224 C   0  0  0  0  0  0  0  0  0  0  0  0
  -14.4821  -33.0838  -12.1512 C   0  0  0  0  0  0  0  0  0  0  0  0
  -16.4681  -33.9014  -13.4303 C   0  0  0  0  0  0  0  0  0  0  0  0
  -14.2299  -34.2156  -14.3040 C   0  0  0  0  0  0  0  0  0  0  0  0
  -22.4136  -40.5864   -5.5645 C   0  0  0  0  0  0  0  0  0  0  0  0
  -22.9048  -39.3561   -5.7600 N   0  0  0  0  0  0  0  0  0  0  0  0
  -23.4522  -39.0039   -4.5837 C   0  0  0  0  0  0  0  0  0  0  0  0
  -23.2643  -40.0616   -3.7061 C   0  0  0  0  0  0  0  0  0  0  0  0
  -22.6221  -41.0143   -4.3486 O   0  0  0  0  0  0  0  0  0  0  0  0
  2  1  1  6
  2  3  1  0
  3  4  1  0
  4  5  1  0
  5  6  1  0
  6  7  1  0
  7  8  1  0
  8  9  1  0
  9 10  1  0
 10 11  1  0
 11 12  1  0
 12 13  2  0
 13 14  1  0
 14 15  2  0
 15 16  1  0
 15 17  1  0
 17 18  2  0
 17 19  1  0
 19 20  1  0
 20 21  1  6
 20 22  1  0
 22 23  1  1
 22 24  1  0
 24 25  1  0
 25 26  1  0
 26 27  1  0
 27 28  1  0
 26 29  1  0
 29 30  2  0
 30 31  1  0
 31 32  2  0
 32 33  1  0
 33 34  2  0
 31 35  1  0
 35 36  1  0
 35 37  1  0
 35 38  1  0
 13 39  1  0
 39 40  2  0
 40 41  1  0
 41 42  2  0
 42 43  1  0
 16 11  2  0
 21  2  1  0
 28 26  1  0
 34 29  1  0
 43 39  1  0
M  END
$$$$
