
     RDKit          3D

 43 47  0  0  0  0  0  0  0  0999 V2000
  -19.9820  -36.8796   -6.9285 C   0  0  0  0  0  0  0  0  0  0  0  0
  -19.7445  -38.3411   -6.6465 C   0  0  2  0  0  0  0  0  0  0  0  0
  -20.3138  -38.7001   -5.3099 C   0  0  0  0  0  0  0  0  0  0  0  0
  -21.8227  -38.7454   -5.3973 C   0  0  0  0  0  0  0  0  0  0  0  0
  -22.4619  -39.7688   -4.5171 C   0  0  0  0  0  0  0  0  0  0  0  0
  -22.3200  -41.1501   -5.1196 C   0  0  0  0  0  0  0  0  0  0  0  0
  -23.2855  -41.4104   -6.2431 C   0  0  0  0  0  0  0  0  0  0  0  0
  -22.5963  -42.2885   -7.2512 C   0  0  0  0  0  0  0  0  0  0  0  0
  -22.6098  -43.7066   -6.7775 C   0  0  0  0  0  0  0  0  0  0  0  0
  -21.4212  -44.4012   -7.0983 O   0  0  0  0  0  0  0  0  0  0  0  0
  -20.2285  -44.0188   -7.6932 C   0  0  0  0  0  0  0  0  0  0  0  0
  -20.0249  -44.7163   -8.8975 C   0  0  0  0  0  0  0  0  0  0  0  0
  -18.9267  -44.5290   -9.6895 C   0  0  0  0  0  0  0  0  0  0  0  0
  -18.0252  -43.6045   -9.2255 C   0  0  0  0  0  0  0  0  0  0  0  0
  -18.1881  -42.8790   -8.0196 C   0  0  0  0  0  0  0  0  0  0  0  0
  -19.2982  -43.0914   -7.2480 C   0  0  0  0  0  0  0  0  0  0  0  0
  -17.0354  -41.9701   -7.8504 C   0  0  0  0  0  0  0  0  0  0  0  0
  -15.8294  -42.4172   -8.1369 O   0  0  0  0  0  0  0  0  0  0  0  0
  -16.9518  -40.6335   -7.4187 N   0  0  0  0  0  0  0  0  0  0  0  0
  -17.8881  -39.5803   -7.7581 C   0  0  1  0  0  0  0  0  0  0  0  0
  -18.2508  -38.6758   -6.6299 C   0  0  0  0  0  0  0  0  0  0  0  0
  -17.4668  -38.8054   -9.0022 C   0  0  2  0  0  0  0  0  0  0  0  0
  -18.1672  -39.3785  -10.0805 O   0  0  0  0  0  0  0  0  0  0  0  0
  -16.0181  -38.9868   -9.2982 C   0  0  0  0  0  0  0  0  0  0  0  0
  -15.5769  -40.3070   -9.4293 N   0  0  0  0  0  0  0  0  0  0  0  0
  -14.7119  -40.6844  -10.4834 C   0  0  0  0  0  0  0  0  0  0  0  0
  -14.7651  -41.9259  -11.2507 C   0  0  0  0  0  0  0  0  0  0  0  0
  -13.7688  -41.8787  -10.1224 C   0  0  0  0  0  0  0  0  0  0  0  0
  -13.9173  -39.5715  -11.1412 C   0  0  0  0  0  0  0  0  0  0  0  0
  -14.3742  -38.2890  -11.2496 C   0  0  0  0  0  0  0  0  0  0  0  0
  -13.6282  -37.2850  -11.8605 C   0  0  0  0  0  0  0  0  0  0  0  0
  -12.3942  -37.6118  -12.3662 C   0  0  0  0  0  0  0  0  0  0  0  0
  -11.9538  -38.9077  -12.2474 C   0  0  0  0  0  0  0  0  0  0  0  0
  -12.7126  -39.8432  -11.6472 N   0  0  0  0  0  0  0  0  0  0  0  0
  -14.1226  -35.8964  -11.9652 C   0  0  0  0  0  0  0  0  0  0  0  0
  -13.2525  -35.1038  -12.9063 C   0  0  0  0  0  0  0  0  0  0  0  0
  -14.2029  -35.2368  -10.5981 C   0  0  0  0  0  0  0  0  0  0  0  0
  -15.5316  -35.8981  -12.5136 C   0  0  0  0  0  0  0  0  0  0  0  0
  -18.7282  -45.2526  -10.9398 C   0  0  0  0  0  0  0  0  0  0  0  0
  -19.7237  -45.5893  -11.7697 N   0  0  0  0  0  0  0  0  0  0  0  0
  -19.1302  -46.2346  -12.7888 C   0  0  0  0  0  0  0  0  0  0  0  0
  -17.7685  -46.2611  -12.5256 C   0  0  0  0  0  0  0  0  0  0  0  0
  -17.5636  -45.6466  -11.3796 O   0  0  0  0  0  0  0  0  0  0  0  0
  2  1  1  1
  2  3  1  0
  3  4  1  0
  4  5  1  0
  5  6  1  0
  6  7  1  0
  7  8  1  0
  8  9  1  0
  9 10  1  0
 10 11  1  0
 11 12  1  0
 12 13  2  0
 13 14  1  0
 14 15  2  0
 15 16  1  0
 15 17  1  0
 17 18  2  0
 17 19  1  0
 19 20  1  0
 20 21  1  1
 20 22  1  0
 22 23  1  6
 22 24  1  0
 24 25  1  0
 25 26  1  0
 26 27  1  0
 27 28  1  0
 26 29  1  0
 29 30  2  0
 30 31  1  0
 31 32  2  0
 32 33  1  0
 33 34  2  0
 31 35  1  0
 35 36  1  0
 35 37  1  0
 35 38  1  0
 13 39  1  0
 39 40  2  0
 40 41  1  0
 41 42  2  0
 42 43  1  0
 16 11  2  0
 21  2  1  0
 28 26  1  0
 34 29  1  0
 43 39  1  0
M  END
$$$$
