
     RDKit          3D

 43 47  0  0  0  0  0  0  0  0999 V2000
  -14.5170  -36.3823  -10.2959 C   0  0  0  0  0  0  0  0  0  0  0  0
  -16.0183  -36.4937  -10.3710 C   0  0  2  0  0  0  0  0  0  0  0  0
  -16.5920  -35.2435  -10.9603 C   0  0  0  0  0  0  0  0  0  0  0  0
  -16.3094  -35.2071  -12.4453 C   0  0  0  0  0  0  0  0  0  0  0  0
  -17.3774  -34.5559  -13.2615 C   0  0  0  0  0  0  0  0  0  0  0  0
  -18.5528  -35.4924  -13.4417 C   0  0  0  0  0  0  0  0  0  0  0  0
  -18.3117  -36.5564  -14.4769 C   0  0  0  0  0  0  0  0  0  0  0  0
  -19.0158  -37.8072  -14.0275 C   0  0  0  0  0  0  0  0  0  0  0  0
  -20.4759  -37.7009  -14.3319 C   0  0  0  0  0  0  0  0  0  0  0  0
  -21.2864  -38.2867  -13.3329 O   0  0  0  0  0  0  0  0  0  0  0  0
  -21.0092  -38.8701  -12.1059 C   0  0  0  0  0  0  0  0  0  0  0  0
  -21.3942  -40.2229  -12.0977 C   0  0  0  0  0  0  0  0  0  0  0  0
  -21.2309  -41.0365  -11.0116 C   0  0  0  0  0  0  0  0  0  0  0  0
  -20.6598  -40.4384   -9.9167 C   0  0  0  0  0  0  0  0  0  0  0  0
  -20.2570  -39.0807   -9.8791 C   0  0  0  0  0  0  0  0  0  0  0  0
  -20.4362  -38.2919  -10.9829 C   0  0  0  0  0  0  0  0  0  0  0  0
  -19.6740  -38.7927   -8.5521 C   0  0  0  0  0  0  0  0  0  0  0  0
  -20.2633  -39.2856   -7.4815 O   0  0  0  0  0  0  0  0  0  0  0  0
  -18.5414  -38.0519   -8.1672 N   0  0  0  0  0  0  0  0  0  0  0  0
  -17.2705  -38.0360   -8.8641 C   0  0  1  0  0  0  0  0  0  0  0  0
  -16.6382  -36.6914   -8.9854 C   0  0  0  0  0  0  0  0  0  0  0  0
  -16.2985  -39.0809   -8.3263 C   0  0  2  0  0  0  0  0  0  0  0  0
  -15.7156  -39.6942   -9.4513 O   0  0  0  0  0  0  0  0  0  0  0  0
  -17.0072  -40.1582   -7.5804 C   0  0  0  0  0  0  0  0  0  0  0  0
  -16.9488  -40.0823   -6.1855 N   0  0  0  0  0  0  0  0  0  0  0  0
  -17.6957  -40.9705   -5.3761 C   0  0  0  0  0  0  0  0  0  0  0  0
  -17.4147  -41.3285   -3.9884 C   0  0  0  0  0  0  0  0  0  0  0  0
  -16.9391  -42.2971   -5.0389 C   0  0  0  0  0  0  0  0  0  0  0  0
  -19.1105  -41.2769   -5.8310 C   0  0  0  0  0  0  0  0  0  0  0  0
  -20.2073  -41.0970   -5.0373 C   0  0  0  0  0  0  0  0  0  0  0  0
  -21.4960  -41.3884   -5.4758 C   0  0  0  0  0  0  0  0  0  0  0  0
  -21.6521  -41.8725   -6.7511 C   0  0  0  0  0  0  0  0  0  0  0  0
  -20.5357  -42.0468   -7.5327 C   0  0  0  0  0  0  0  0  0  0  0  0
  -19.3101  -41.7498   -7.0630 N   0  0  0  0  0  0  0  0  0  0  0  0
  -22.6803  -41.1813   -4.6167 C   0  0  0  0  0  0  0  0  0  0  0  0
  -22.5403  -41.9676   -3.3388 C   0  0  0  0  0  0  0  0  0  0  0  0
  -23.9617  -41.5420   -5.3506 C   0  0  0  0  0  0  0  0  0  0  0  0
  -22.7997  -39.7171   -4.2592 C   0  0  0  0  0  0  0  0  0  0  0  0
  -21.6275  -42.4397  -11.0154 C   0  0  0  0  0  0  0  0  0  0  0  0
  -21.4498  -43.2594  -12.0594 N   0  0  0  0  0  0  0  0  0  0  0  0
  -21.9425  -44.4460  -11.6639 C   0  0  0  0  0  0  0  0  0  0  0  0
  -22.4081  -44.2897  -10.3666 C   0  0  0  0  0  0  0  0  0  0  0  0
  -22.1955  -43.0418  -10.0055 O   0  0  0  0  0  0  0  0  0  0  0  0
  2  1  1  1
  2  3  1  0
  3  4  1  0
  4  5  1  0
  5  6  1  0
  6  7  1  0
  7  8  1  0
  8  9  1  0
  9 10  1  0
 10 11  1  0
 11 12  1  0
 12 13  2  0
 13 14  1  0
 14 15  2  0
 15 16  1  0
 15 17  1  0
 17 18  2  0
 17 19  1  0
 19 20  1  0
 20 21  1  1
 20 22  1  0
 22 23  1  6
 22 24  1  0
 24 25  1  0
 25 26  1  0
 26 27  1  0
 27 28  1  0
 26 29  1  0
 29 30  2  0
 30 31  1  0
 31 32  2  0
 32 33  1  0
 33 34  2  0
 31 35  1  0
 35 36  1  0
 35 37  1  0
 35 38  1  0
 13 39  1  0
 39 40  2  0
 40 41  1  0
 41 42  2  0
 42 43  1  0
 16 11  2  0
 21  2  1  0
 28 26  1  0
 34 29  1  0
 43 39  1  0
M  END
$$$$
