
     RDKit          3D

 43 47  0  0  0  0  0  0  0  0999 V2000
  -15.9667  -43.0055   -5.3702 C   0  0  0  0  0  0  0  0  0  0  0  0
  -17.0697  -42.6491   -6.3336 C   0  0  2  0  0  0  0  0  0  0  0  0
  -17.6500  -43.8949   -6.9257 C   0  0  0  0  0  0  0  0  0  0  0  0
  -18.4955  -44.6019   -5.8904 C   0  0  0  0  0  0  0  0  0  0  0  0
  -19.6840  -45.3155   -6.4462 C   0  0  0  0  0  0  0  0  0  0  0  0
  -20.7882  -44.3330   -6.7724 C   0  0  0  0  0  0  0  0  0  0  0  0
  -21.5463  -43.8669   -5.5599 C   0  0  0  0  0  0  0  0  0  0  0  0
  -21.9412  -42.4330   -5.7841 C   0  0  0  0  0  0  0  0  0  0  0  0
  -23.1377  -42.3735   -6.6789 C   0  0  0  0  0  0  0  0  0  0  0  0
  -23.0971  -41.2801   -7.5738 O   0  0  0  0  0  0  0  0  0  0  0  0
  -22.1492  -40.3029   -7.8373 C   0  0  0  0  0  0  0  0  0  0  0  0
  -22.6546  -39.0241   -7.5412 C   0  0  0  0  0  0  0  0  0  0  0  0
  -21.9261  -37.8795   -7.7066 C   0  0  0  0  0  0  0  0  0  0  0  0
  -20.6540  -38.0632   -8.1867 C   0  0  0  0  0  0  0  0  0  0  0  0
  -20.1032  -39.3307   -8.4986 C   0  0  0  0  0  0  0  0  0  0  0  0
  -20.8596  -40.4576   -8.3238 C   0  0  0  0  0  0  0  0  0  0  0  0
  -18.7161  -39.1443   -8.9727 C   0  0  0  0  0  0  0  0  0  0  0  0
  -18.4562  -38.1461   -9.7926 O   0  0  0  0  0  0  0  0  0  0  0  0
  -17.5327  -39.8594   -8.7114 N   0  0  0  0  0  0  0  0  0  0  0  0
  -17.1490  -40.4092   -7.4263 C   0  0  1  0  0  0  0  0  0  0  0  0
  -16.5551  -41.7755   -7.4805 C   0  0  0  0  0  0  0  0  0  0  0  0
  -16.2942  -39.4438   -6.6119 C   0  0  2  0  0  0  0  0  0  0  0  0
  -17.1870  -38.6986   -5.8186 O   0  0  0  0  0  0  0  0  0  0  0  0
  -15.5891  -38.4638   -7.4847 C   0  0  0  0  0  0  0  0  0  0  0  0
  -15.9694  -38.4522   -8.8300 N   0  0  0  0  0  0  0  0  0  0  0  0
  -15.0899  -37.9771   -9.8313 C   0  0  0  0  0  0  0  0  0  0  0  0
  -13.6309  -37.9551   -9.7691 C   0  0  0  0  0  0  0  0  0  0  0  0
  -14.3347  -36.6672   -9.4313 C   0  0  0  0  0  0  0  0  0  0  0  0
  -15.6623  -37.8438  -11.2303 C   0  0  0  0  0  0  0  0  0  0  0  0
  -16.9868  -37.6221  -11.4790 C   0  0  0  0  0  0  0  0  0  0  0  0
  -17.4895  -37.5065  -12.7719 C   0  0  0  0  0  0  0  0  0  0  0  0
  -16.6112  -37.6220  -13.8209 C   0  0  0  0  0  0  0  0  0  0  0  0
  -15.2832  -37.8455  -13.5489 C   0  0  0  0  0  0  0  0  0  0  0  0
  -14.8455  -37.9494  -12.2806 N   0  0  0  0  0  0  0  0  0  0  0  0
  -18.9218  -37.2556  -13.0350 C   0  0  0  0  0  0  0  0  0  0  0  0
  -19.7694  -38.2695  -12.3108 C   0  0  0  0  0  0  0  0  0  0  0  0
  -19.2148  -37.2540  -14.5266 C   0  0  0  0  0  0  0  0  0  0  0  0
  -19.2981  -35.8803  -12.5321 C   0  0  0  0  0  0  0  0  0  0  0  0
  -22.4572  -36.5588   -7.3905 C   0  0  0  0  0  0  0  0  0  0  0  0
  -23.1544  -36.2842   -6.2807 N   0  0  0  0  0  0  0  0  0  0  0  0
  -23.4558  -34.9770   -6.3679 C   0  0  0  0  0  0  0  0  0  0  0  0
  -22.9148  -34.5054   -7.5549 C   0  0  0  0  0  0  0  0  0  0  0  0
  -22.3093  -35.5094   -8.1534 O   0  0  0  0  0  0  0  0  0  0  0  0
  2  1  1  1
  2  3  1  0
  3  4  1  0
  4  5  1  0
  5  6  1  0
  6  7  1  0
  7  8  1  0
  8  9  1  0
  9 10  1  0
 10 11  1  0
 11 12  1  0
 12 13  2  0
 13 14  1  0
 14 15  2  0
 15 16  1  0
 15 17  1  0
 17 18  2  0
 17 19  1  0
 19 20  1  0
 20 21  1  6
 20 22  1  0
 22 23  1  1
 22 24  1  0
 24 25  1  0
 25 26  1  0
 26 27  1  0
 27 28  1  0
 26 29  1  0
 29 30  2  0
 30 31  1  0
 31 32  2  0
 32 33  1  0
 33 34  2  0
 31 35  1  0
 35 36  1  0
 35 37  1  0
 35 38  1  0
 13 39  1  0
 39 40  2  0
 40 41  1  0
 41 42  2  0
 42 43  1  0
 16 11  2  0
 21  2  1  0
 28 26  1  0
 34 29  1  0
 43 39  1  0
M  END
$$$$
