
     RDKit          3D

 43 47  0  0  0  0  0  0  0  0999 V2000
  -14.6780  -43.3990   -9.2906 C   0  0  0  0  0  0  0  0  0  0  0  0
  -16.1795  -43.3138   -9.3911 C   0  0  2  0  0  0  0  0  0  0  0  0
  -16.7054  -44.4877  -10.1559 C   0  0  0  0  0  0  0  0  0  0  0  0
  -16.6223  -45.7300   -9.2980 C   0  0  0  0  0  0  0  0  0  0  0  0
  -17.7231  -46.7132   -9.5265 C   0  0  0  0  0  0  0  0  0  0  0  0
  -18.9959  -46.2515   -8.8498 C   0  0  0  0  0  0  0  0  0  0  0  0
  -18.9983  -46.4870   -7.3644 C   0  0  0  0  0  0  0  0  0  0  0  0
  -19.7517  -45.3570   -6.7180 C   0  0  0  0  0  0  0  0  0  0  0  0
  -21.2226  -45.5866   -6.8578 C   0  0  0  0  0  0  0  0  0  0  0  0
  -21.9439  -44.3911   -7.0776 O   0  0  0  0  0  0  0  0  0  0  0  0
  -21.5615  -43.0707   -7.2600 C   0  0  0  0  0  0  0  0  0  0  0  0
  -22.0691  -42.2570   -6.2311 C   0  0  0  0  0  0  0  0  0  0  0  0
  -21.8399  -40.9112   -6.1651 C   0  0  0  0  0  0  0  0  0  0  0  0
  -21.0727  -40.4007   -7.1818 C   0  0  0  0  0  0  0  0  0  0  0  0
  -20.5410  -41.1810   -8.2379 C   0  0  0  0  0  0  0  0  0  0  0  0
  -20.7907  -42.5260   -8.2763 C   0  0  0  0  0  0  0  0  0  0  0  0
  -19.7606  -40.3025   -9.1339 C   0  0  0  0  0  0  0  0  0  0  0  0
  -20.2452  -39.1147   -9.4351 O   0  0  0  0  0  0  0  0  0  0  0  0
  -18.5211  -40.4818   -9.7753 N   0  0  0  0  0  0  0  0  0  0  0  0
  -17.3596  -41.1260   -9.1950 C   0  0  1  0  0  0  0  0  0  0  0  0
  -16.6240  -42.0401  -10.1146 C   0  0  0  0  0  0  0  0  0  0  0  0
  -16.4282  -40.1348   -8.5050 C   0  0  2  0  0  0  0  0  0  0  0  0
  -17.0581  -39.7749   -7.2986 O   0  0  0  0  0  0  0  0  0  0  0  0
  -16.2809  -38.8792   -9.2931 C   0  0  0  0  0  0  0  0  0  0  0  0
  -17.0465  -38.7909  -10.4596 N   0  0  0  0  0  0  0  0  0  0  0  0
  -17.1555  -37.5714  -11.1686 C   0  0  0  0  0  0  0  0  0  0  0  0
  -18.2637  -37.1589  -12.0257 C   0  0  0  0  0  0  0  0  0  0  0  0
  -17.0600  -37.7386  -12.7207 C   0  0  0  0  0  0  0  0  0  0  0  0
  -16.2590  -36.4365  -10.7092 C   0  0  0  0  0  0  0  0  0  0  0  0
  -14.9768  -36.2707  -11.1493 C   0  0  0  0  0  0  0  0  0  0  0  0
  -14.1719  -35.2230  -10.7108 C   0  0  0  0  0  0  0  0  0  0  0  0
  -14.6996  -34.3359   -9.8055 C   0  0  0  0  0  0  0  0  0  0  0  0
  -15.9912  -34.5213   -9.3751 C   0  0  0  0  0  0  0  0  0  0  0  0
  -16.7300  -35.5503   -9.8293 N   0  0  0  0  0  0  0  0  0  0  0  0
  -12.7888  -35.0418  -11.1987 C   0  0  0  0  0  0  0  0  0  0  0  0
  -12.5537  -33.6012  -11.5733 C   0  0  0  0  0  0  0  0  0  0  0  0
  -12.4901  -35.9720  -12.3631 C   0  0  0  0  0  0  0  0  0  0  0  0
  -11.8114  -35.4107  -10.1057 C   0  0  0  0  0  0  0  0  0  0  0  0
  -22.3652  -40.0774   -5.0904 C   0  0  0  0  0  0  0  0  0  0  0  0
  -23.3425  -40.4635   -4.2603 N   0  0  0  0  0  0  0  0  0  0  0  0
  -23.5305  -39.4237   -3.4292 C   0  0  0  0  0  0  0  0  0  0  0  0
  -22.6375  -38.4295   -3.8008 C   0  0  0  0  0  0  0  0  0  0  0  0
  -21.9398  -38.8716   -4.8259 O   0  0  0  0  0  0  0  0  0  0  0  0
  2  1  1  6
  2  3  1  0
  3  4  1  0
  4  5  1  0
  5  6  1  0
  6  7  1  0
  7  8  1  0
  8  9  1  0
  9 10  1  0
 10 11  1  0
 11 12  1  0
 12 13  2  0
 13 14  1  0
 14 15  2  0
 15 16  1  0
 15 17  1  0
 17 18  2  0
 17 19  1  0
 19 20  1  0
 20 21  1  6
 20 22  1  0
 22 23  1  1
 22 24  1  0
 24 25  1  0
 25 26  1  0
 26 27  1  0
 27 28  1  0
 26 29  1  0
 29 30  2  0
 30 31  1  0
 31 32  2  0
 32 33  1  0
 33 34  2  0
 31 35  1  0
 35 36  1  0
 35 37  1  0
 35 38  1  0
 13 39  1  0
 39 40  2  0
 40 41  1  0
 41 42  2  0
 42 43  1  0
 16 11  2  0
 21  2  1  0
 28 26  1  0
 34 29  1  0
 43 39  1  0
M  END
$$$$
