
     RDKit          3D

 43 47  0  0  0  0  0  0  0  0999 V2000
  -19.4275  -37.4145   -4.9319 C   0  0  0  0  0  0  0  0  0  0  0  0
  -19.4454  -38.8759   -5.3005 C   0  0  2  0  0  0  0  0  0  0  0  0
  -19.8373  -39.6955   -4.1113 C   0  0  0  0  0  0  0  0  0  0  0  0
  -21.3163  -39.5277   -3.8453 C   0  0  0  0  0  0  0  0  0  0  0  0
  -21.9883  -40.7459   -3.3020 C   0  0  0  0  0  0  0  0  0  0  0  0
  -22.2341  -41.7528   -4.4051 C   0  0  0  0  0  0  0  0  0  0  0  0
  -23.4105  -41.4055   -5.2754 C   0  0  0  0  0  0  0  0  0  0  0  0
  -23.0966  -41.8514   -6.6772 C   0  0  0  0  0  0  0  0  0  0  0  0
  -23.3148  -43.3257   -6.7981 C   0  0  0  0  0  0  0  0  0  0  0  0
  -22.3643  -43.9519   -7.6362 O   0  0  0  0  0  0  0  0  0  0  0  0
  -21.2391  -43.4937   -8.3047 C   0  0  0  0  0  0  0  0  0  0  0  0
  -21.3906  -43.6393   -9.6955 C   0  0  0  0  0  0  0  0  0  0  0  0
  -20.4299  -43.2633  -10.5921 C   0  0  0  0  0  0  0  0  0  0  0  0
  -19.2941  -42.7283  -10.0383 C   0  0  0  0  0  0  0  0  0  0  0  0
  -19.0975  -42.5628   -8.6451 C   0  0  0  0  0  0  0  0  0  0  0  0
  -20.0783  -42.9515   -7.7735 C   0  0  0  0  0  0  0  0  0  0  0  0
  -17.7733  -41.9468   -8.4202 C   0  0  0  0  0  0  0  0  0  0  0  0
  -16.7501  -42.3664   -9.1366 O   0  0  0  0  0  0  0  0  0  0  0  0
  -17.3485  -40.9340   -7.5406 N   0  0  0  0  0  0  0  0  0  0  0  0
  -18.0967  -39.7365   -7.2131 C   0  0  1  0  0  0  0  0  0  0  0  0
  -18.0700  -39.3544   -5.7723 C   0  0  0  0  0  0  0  0  0  0  0  0
  -17.7476  -38.5644   -8.1242 C   0  0  2  0  0  0  0  0  0  0  0  0
  -18.9724  -38.0284   -8.5650 O   0  0  0  0  0  0  0  0  0  0  0  0
  -17.0222  -39.0146   -9.3451 C   0  0  0  0  0  0  0  0  0  0  0  0
  -15.6531  -38.7344   -9.3864 N   0  0  0  0  0  0  0  0  0  0  0  0
  -14.8881  -39.0094  -10.5444 C   0  0  0  0  0  0  0  0  0  0  0  0
  -15.3983  -39.4490  -11.8403 C   0  0  0  0  0  0  0  0  0  0  0  0
  -14.8622  -40.5243  -10.9325 C   0  0  0  0  0  0  0  0  0  0  0  0
  -13.4837  -38.4361  -10.5824 C   0  0  0  0  0  0  0  0  0  0  0  0
  -13.0498  -37.5831  -11.5568 C   0  0  0  0  0  0  0  0  0  0  0  0
  -11.7550  -37.0723  -11.5725 C   0  0  0  0  0  0  0  0  0  0  0  0
  -10.8980  -37.4489  -10.5680 C   0  0  0  0  0  0  0  0  0  0  0  0
  -11.3543  -38.3083   -9.5981 C   0  0  0  0  0  0  0  0  0  0  0  0
  -12.6163  -38.7748   -9.6263 N   0  0  0  0  0  0  0  0  0  0  0  0
  -11.2939  -36.1410  -12.6230 C   0  0  0  0  0  0  0  0  0  0  0  0
  -10.9864  -36.8966  -13.8901 C   0  0  0  0  0  0  0  0  0  0  0  0
  -10.0936  -35.3345  -12.1547 C   0  0  0  0  0  0  0  0  0  0  0  0
  -12.3823  -35.1360  -12.9253 C   0  0  0  0  0  0  0  0  0  0  0  0
  -20.5994  -43.4125  -12.0326 C   0  0  0  0  0  0  0  0  0  0  0  0
  -20.4462  -44.5731  -12.6828 N   0  0  0  0  0  0  0  0  0  0  0  0
  -20.6856  -44.2880  -13.9745 C   0  0  0  0  0  0  0  0  0  0  0  0
  -20.9806  -42.9349  -14.0524 C   0  0  0  0  0  0  0  0  0  0  0  0
  -20.9168  -42.4339  -12.8367 O   0  0  0  0  0  0  0  0  0  0  0  0
  2  1  1  1
  2  3  1  0
  3  4  1  0
  4  5  1  0
  5  6  1  0
  6  7  1  0
  7  8  1  0
  8  9  1  0
  9 10  1  0
 10 11  1  0
 11 12  1  0
 12 13  2  0
 13 14  1  0
 14 15  2  0
 15 16  1  0
 15 17  1  0
 17 18  2  0
 17 19  1  0
 19 20  1  0
 20 21  1  1
 20 22  1  0
 22 23  1  6
 22 24  1  0
 24 25  1  0
 25 26  1  0
 26 27  1  0
 27 28  1  0
 26 29  1  0
 29 30  2  0
 30 31  1  0
 31 32  2  0
 32 33  1  0
 33 34  2  0
 31 35  1  0
 35 36  1  0
 35 37  1  0
 35 38  1  0
 13 39  1  0
 39 40  2  0
 40 41  1  0
 41 42  2  0
 42 43  1  0
 16 11  2  0
 21  2  1  0
 28 26  1  0
 34 29  1  0
 43 39  1  0
M  END
$$$$
