
     RDKit          3D

 43 47  0  0  0  0  0  0  0  0999 V2000
  -14.1110  -36.3513   -8.5667 C   0  0  0  0  0  0  0  0  0  0  0  0
  -15.3458  -36.8028   -9.3037 C   0  0  2  0  0  0  0  0  0  0  0  0
  -15.8511  -35.6960  -10.1750 C   0  0  0  0  0  0  0  0  0  0  0  0
  -14.9395  -35.5358  -11.3707 C   0  0  0  0  0  0  0  0  0  0  0  0
  -15.6337  -35.1163  -12.6249 C   0  0  0  0  0  0  0  0  0  0  0  0
  -16.3556  -36.2906  -13.2500 C   0  0  0  0  0  0  0  0  0  0  0  0
  -15.4388  -37.2279  -13.9870 C   0  0  0  0  0  0  0  0  0  0  0  0
  -15.9711  -38.6244  -13.8172 C   0  0  0  0  0  0  0  0  0  0  0  0
  -17.1147  -38.8456  -14.7548 C   0  0  0  0  0  0  0  0  0  0  0  0
  -18.1373  -39.6422  -14.1911 O   0  0  0  0  0  0  0  0  0  0  0  0
  -18.3269  -40.1947  -12.9335 C   0  0  0  0  0  0  0  0  0  0  0  0
  -18.3604  -41.5990  -13.0048 C   0  0  0  0  0  0  0  0  0  0  0  0
  -18.5326  -42.3959  -11.9077 C   0  0  0  0  0  0  0  0  0  0  0  0
  -18.6725  -41.7266  -10.7181 C   0  0  0  0  0  0  0  0  0  0  0  0
  -18.6455  -40.3152  -10.5984 C   0  0  0  0  0  0  0  0  0  0  0  0
  -18.4735  -39.5454  -11.7167 C   0  0  0  0  0  0  0  0  0  0  0  0
  -18.8116  -39.9540   -9.1752 C   0  0  0  0  0  0  0  0  0  0  0  0
  -19.6969  -40.6121   -8.4544 O   0  0  0  0  0  0  0  0  0  0  0  0
  -18.1760  -38.9880   -8.3734 N   0  0  0  0  0  0  0  0  0  0  0  0
  -16.7669  -38.6515   -8.4204 C   0  0  1  0  0  0  0  0  0  0  0  0
  -16.4669  -37.1936   -8.3374 C   0  0  0  0  0  0  0  0  0  0  0  0
  -15.9408  -39.4647   -7.4294 C   0  0  2  0  0  0  0  0  0  0  0  0
  -15.1392  -40.3290   -8.1990 O   0  0  0  0  0  0  0  0  0  0  0  0
  -16.8017  -40.3348   -6.5802 C   0  0  0  0  0  0  0  0  0  0  0  0
  -18.1529  -39.9829   -6.5092 N   0  0  0  0  0  0  0  0  0  0  0  0
  -19.1082  -40.8693   -5.9580 C   0  0  0  0  0  0  0  0  0  0  0  0
  -18.8314  -42.0587   -5.1570 C   0  0  0  0  0  0  0  0  0  0  0  0
  -19.1035  -42.2860   -6.6207 C   0  0  0  0  0  0  0  0  0  0  0  0
  -20.5295  -40.3503   -5.8441 C   0  0  0  0  0  0  0  0  0  0  0  0
  -21.5817  -41.1295   -5.4553 C   0  0  0  0  0  0  0  0  0  0  0  0
  -22.8782  -40.6316   -5.3612 C   0  0  0  0  0  0  0  0  0  0  0  0
  -23.0893  -39.3114   -5.6735 C   0  0  0  0  0  0  0  0  0  0  0  0
  -22.0173  -38.5453   -6.0630 C   0  0  0  0  0  0  0  0  0  0  0  0
  -20.7817  -39.0731   -6.1381 N   0  0  0  0  0  0  0  0  0  0  0  0
  -24.0113  -41.4762   -4.9293 C   0  0  0  0  0  0  0  0  0  0  0  0
  -24.5645  -42.2442   -6.1019 C   0  0  0  0  0  0  0  0  0  0  0  0
  -25.0901  -40.6455   -4.2535 C   0  0  0  0  0  0  0  0  0  0  0  0
  -23.5383  -42.4715   -3.8941 C   0  0  0  0  0  0  0  0  0  0  0  0
  -18.5594  -43.8514  -11.9914 C   0  0  0  0  0  0  0  0  0  0  0  0
  -19.6513  -44.5574  -12.3115 N   0  0  0  0  0  0  0  0  0  0  0  0
  -19.2619  -45.8437  -12.2779 C   0  0  0  0  0  0  0  0  0  0  0  0
  -17.9190  -45.8611  -11.9309 C   0  0  0  0  0  0  0  0  0  0  0  0
  -17.5257  -44.6160  -11.7638 O   0  0  0  0  0  0  0  0  0  0  0  0
  2  1  1  1
  2  3  1  0
  3  4  1  0
  4  5  1  0
  5  6  1  0
  6  7  1  0
  7  8  1  0
  8  9  1  0
  9 10  1  0
 10 11  1  0
 11 12  1  0
 12 13  2  0
 13 14  1  0
 14 15  2  0
 15 16  1  0
 15 17  1  0
 17 18  2  0
 17 19  1  0
 19 20  1  0
 20 21  1  1
 20 22  1  0
 22 23  1  6
 22 24  1  0
 24 25  1  0
 25 26  1  0
 26 27  1  0
 27 28  1  0
 26 29  1  0
 29 30  2  0
 30 31  1  0
 31 32  2  0
 32 33  1  0
 33 34  2  0
 31 35  1  0
 35 36  1  0
 35 37  1  0
 35 38  1  0
 13 39  1  0
 39 40  2  0
 40 41  1  0
 41 42  2  0
 42 43  1  0
 16 11  2  0
 21  2  1  0
 28 26  1  0
 34 29  1  0
 43 39  1  0
M  END
$$$$
