
     RDKit          3D

 43 47  0  0  0  0  0  0  0  0999 V2000
  -19.4705  -37.1361   -7.2688 C   0  0  0  0  0  0  0  0  0  0  0  0
  -19.2884  -38.5563   -6.7980 C   0  0  2  0  0  0  0  0  0  0  0  0
  -19.8651  -38.7152   -5.4262 C   0  0  0  0  0  0  0  0  0  0  0  0
  -21.3750  -38.7128   -5.5079 C   0  0  0  0  0  0  0  0  0  0  0  0
  -22.0493  -39.5868   -4.5018 C   0  0  0  0  0  0  0  0  0  0  0  0
  -21.9636  -41.0395   -4.9185 C   0  0  0  0  0  0  0  0  0  0  0  0
  -22.9434  -41.4066   -5.9989 C   0  0  0  0  0  0  0  0  0  0  0  0
  -22.2932  -42.4350   -6.8832 C   0  0  0  0  0  0  0  0  0  0  0  0
  -22.3592  -43.7775   -6.2281 C   0  0  0  0  0  0  0  0  0  0  0  0
  -21.1998  -44.5537   -6.4546 O   0  0  0  0  0  0  0  0  0  0  0  0
  -19.9959  -44.2990   -7.0937 C   0  0  0  0  0  0  0  0  0  0  0  0
  -19.8248  -45.1552   -8.1963 C   0  0  0  0  0  0  0  0  0  0  0  0
  -18.7237  -45.1159   -9.0052 C   0  0  0  0  0  0  0  0  0  0  0  0
  -17.7851  -44.1744   -8.6656 C   0  0  0  0  0  0  0  0  0  0  0  0
  -17.9144  -43.2918   -7.5649 C   0  0  0  0  0  0  0  0  0  0  0  0
  -19.0285  -43.3582   -6.7730 C   0  0  0  0  0  0  0  0  0  0  0  0
  -16.7268  -42.4140   -7.5153 C   0  0  0  0  0  0  0  0  0  0  0  0
  -15.5403  -42.9413   -7.7402 O   0  0  0  0  0  0  0  0  0  0  0  0
  -16.5897  -41.0367   -7.2621 N   0  0  0  0  0  0  0  0  0  0  0  0
  -17.4861  -40.0013   -7.7368 C   0  0  1  0  0  0  0  0  0  0  0  0
  -17.8087  -38.9437   -6.7368 C   0  0  0  0  0  0  0  0  0  0  0  0
  -17.0408  -39.4126   -9.0713 C   0  0  2  0  0  0  0  0  0  0  0  0
  -18.0943  -39.6433   -9.9760 O   0  0  0  0  0  0  0  0  0  0  0  0
  -15.8532  -40.1268   -9.6180 C   0  0  0  0  0  0  0  0  0  0  0  0
  -14.6397  -39.8942   -8.9639 N   0  0  0  0  0  0  0  0  0  0  0  0
  -13.4054  -40.0993   -9.6244 C   0  0  0  0  0  0  0  0  0  0  0  0
  -12.5848  -41.3067   -9.5804 C   0  0  0  0  0  0  0  0  0  0  0  0
  -12.1829  -40.1901   -8.6532 C   0  0  0  0  0  0  0  0  0  0  0  0
  -13.0887  -39.1648  -10.7772 C   0  0  0  0  0  0  0  0  0  0  0  0
  -13.8247  -38.0498  -11.0606 C   0  0  0  0  0  0  0  0  0  0  0  0
  -13.5166  -37.2088  -12.1261 C   0  0  0  0  0  0  0  0  0  0  0  0
  -12.4338  -37.5251  -12.9087 C   0  0  0  0  0  0  0  0  0  0  0  0
  -11.7073  -38.6515  -12.6069 C   0  0  0  0  0  0  0  0  0  0  0  0
  -12.0452  -39.4331  -11.5648 N   0  0  0  0  0  0  0  0  0  0  0  0
  -14.3098  -35.9975  -12.4216 C   0  0  0  0  0  0  0  0  0  0  0  0
  -14.8859  -35.4296  -11.1501 C   0  0  0  0  0  0  0  0  0  0  0  0
  -15.3992  -36.2886  -13.4408 C   0  0  0  0  0  0  0  0  0  0  0  0
  -13.4202  -34.9469  -13.0469 C   0  0  0  0  0  0  0  0  0  0  0  0
  -18.5588  -46.0037  -10.1501 C   0  0  0  0  0  0  0  0  0  0  0  0
  -18.1356  -45.5947  -11.3529 N   0  0  0  0  0  0  0  0  0  0  0  0
  -18.1218  -46.7008  -12.1168 C   0  0  0  0  0  0  0  0  0  0  0  0
  -18.5473  -47.7569  -11.3245 C   0  0  0  0  0  0  0  0  0  0  0  0
  -18.8058  -47.2856  -10.1228 O   0  0  0  0  0  0  0  0  0  0  0  0
  2  1  1  1
  2  3  1  0
  3  4  1  0
  4  5  1  0
  5  6  1  0
  6  7  1  0
  7  8  1  0
  8  9  1  0
  9 10  1  0
 10 11  1  0
 11 12  1  0
 12 13  2  0
 13 14  1  0
 14 15  2  0
 15 16  1  0
 15 17  1  0
 17 18  2  0
 17 19  1  0
 19 20  1  0
 20 21  1  1
 20 22  1  0
 22 23  1  6
 22 24  1  0
 24 25  1  0
 25 26  1  0
 26 27  1  0
 27 28  1  0
 26 29  1  0
 29 30  2  0
 30 31  1  0
 31 32  2  0
 32 33  1  0
 33 34  2  0
 31 35  1  0
 35 36  1  0
 35 37  1  0
 35 38  1  0
 13 39  1  0
 39 40  2  0
 40 41  1  0
 41 42  2  0
 42 43  1  0
 16 11  2  0
 21  2  1  0
 28 26  1  0
 34 29  1  0
 43 39  1  0
M  END
$$$$
