
     RDKit          3D

 43 47  0  0  0  0  0  0  0  0999 V2000
  -18.0525  -38.5696   -3.8991 C   0  0  0  0  0  0  0  0  0  0  0  0
  -18.4339  -39.7098   -4.8081 C   0  0  2  0  0  0  0  0  0  0  0  0
  -18.5852  -40.9671   -4.0107 C   0  0  0  0  0  0  0  0  0  0  0  0
  -19.8627  -40.9049   -3.2041 C   0  0  0  0  0  0  0  0  0  0  0  0
  -20.5404  -42.2229   -3.0180 C   0  0  0  0  0  0  0  0  0  0  0  0
  -21.2779  -42.6228   -4.2779 C   0  0  0  0  0  0  0  0  0  0  0  0
  -22.5829  -41.8972   -4.4582 C   0  0  0  0  0  0  0  0  0  0  0  0
  -22.7884  -41.6738   -5.9314 C   0  0  0  0  0  0  0  0  0  0  0  0
  -23.2851  -42.9324   -6.5678 C   0  0  0  0  0  0  0  0  0  0  0  0
  -22.7551  -43.1363   -7.8622 O   0  0  0  0  0  0  0  0  0  0  0  0
  -21.8221  -42.4510   -8.6255 C   0  0  0  0  0  0  0  0  0  0  0  0
  -22.4084  -41.9543   -9.8036 C   0  0  0  0  0  0  0  0  0  0  0  0
  -21.7126  -41.2368  -10.7358 C   0  0  0  0  0  0  0  0  0  0  0  0
  -20.3880  -41.0312  -10.4425 C   0  0  0  0  0  0  0  0  0  0  0  0
  -19.7551  -41.5121   -9.2698 C   0  0  0  0  0  0  0  0  0  0  0  0
  -20.4795  -42.2294   -8.3568 C   0  0  0  0  0  0  0  0  0  0  0  0
  -18.3390  -41.0906   -9.2851 C   0  0  0  0  0  0  0  0  0  0  0  0
  -17.6683  -41.1662  -10.4168 O   0  0  0  0  0  0  0  0  0  0  0  0
  -17.4999  -40.5890   -8.2730 N   0  0  0  0  0  0  0  0  0  0  0  0
  -17.8949  -39.6500   -7.2420 C   0  0  1  0  0  0  0  0  0  0  0  0
  -17.3695  -39.9551   -5.8806 C   0  0  0  0  0  0  0  0  0  0  0  0
  -17.6388  -38.2015   -7.6446 C   0  0  2  0  0  0  0  0  0  0  0  0
  -18.9033  -37.6226   -7.8627 O   0  0  0  0  0  0  0  0  0  0  0  0
  -16.9069  -38.1123   -8.9391 C   0  0  0  0  0  0  0  0  0  0  0  0
  -15.6375  -38.6973   -8.9704 N   0  0  0  0  0  0  0  0  0  0  0  0
  -14.8293  -38.6219  -10.1293 C   0  0  0  0  0  0  0  0  0  0  0  0
  -13.5198  -39.2402  -10.3188 C   0  0  0  0  0  0  0  0  0  0  0  0
  -13.5229  -37.7857   -9.9283 C   0  0  0  0  0  0  0  0  0  0  0  0
  -15.5220  -38.2083  -11.4144 C   0  0  0  0  0  0  0  0  0  0  0  0
  -16.8707  -38.0152  -11.5089 C   0  0  0  0  0  0  0  0  0  0  0  0
  -17.4844  -37.6387  -12.7003 C   0  0  0  0  0  0  0  0  0  0  0  0
  -16.6931  -37.4601  -13.8081 C   0  0  0  0  0  0  0  0  0  0  0  0
  -15.3389  -37.6601  -13.6916 C   0  0  0  0  0  0  0  0  0  0  0  0
  -14.7925  -38.0235  -12.5167 N   0  0  0  0  0  0  0  0  0  0  0  0
  -18.9428  -37.4204  -12.7943 C   0  0  0  0  0  0  0  0  0  0  0  0
  -19.2296  -36.1070  -13.4754 C   0  0  0  0  0  0  0  0  0  0  0  0
  -19.5984  -37.4879  -11.4246 C   0  0  0  0  0  0  0  0  0  0  0  0
  -19.5707  -38.5243  -13.6147 C   0  0  0  0  0  0  0  0  0  0  0  0
  -22.3314  -40.7205  -11.9510 C   0  0  0  0  0  0  0  0  0  0  0  0
  -22.1772  -39.4640  -12.3876 N   0  0  0  0  0  0  0  0  0  0  0  0
  -22.8986  -39.3930  -13.5197 C   0  0  0  0  0  0  0  0  0  0  0  0
  -23.4719  -40.6393  -13.7246 C   0  0  0  0  0  0  0  0  0  0  0  0
  -23.0982  -41.4263  -12.7378 O   0  0  0  0  0  0  0  0  0  0  0  0
  2  1  1  1
  2  3  1  0
  3  4  1  0
  4  5  1  0
  5  6  1  0
  6  7  1  0
  7  8  1  0
  8  9  1  0
  9 10  1  0
 10 11  1  0
 11 12  1  0
 12 13  2  0
 13 14  1  0
 14 15  2  0
 15 16  1  0
 15 17  1  0
 17 18  2  0
 17 19  1  0
 19 20  1  0
 20 21  1  1
 20 22  1  0
 22 23  1  6
 22 24  1  0
 24 25  1  0
 25 26  1  0
 26 27  1  0
 27 28  1  0
 26 29  1  0
 29 30  2  0
 30 31  1  0
 31 32  2  0
 32 33  1  0
 33 34  2  0
 31 35  1  0
 35 36  1  0
 35 37  1  0
 35 38  1  0
 13 39  1  0
 39 40  2  0
 40 41  1  0
 41 42  2  0
 42 43  1  0
 16 11  2  0
 21  2  1  0
 28 26  1  0
 34 29  1  0
 43 39  1  0
M  END
$$$$
