
     RDKit          3D

 43 47  0  0  0  0  0  0  0  0999 V2000
  -13.6585  -42.3363   -9.8433 C   0  0  0  0  0  0  0  0  0  0  0  0
  -15.1432  -42.5958   -9.8566 C   0  0  2  0  0  0  0  0  0  0  0  0
  -15.4858  -43.5317  -10.9728 C   0  0  0  0  0  0  0  0  0  0  0  0
  -15.0312  -44.9299  -10.6195 C   0  0  0  0  0  0  0  0  0  0  0  0
  -15.9089  -46.0168  -11.1479 C   0  0  0  0  0  0  0  0  0  0  0  0
  -17.1625  -46.1416  -10.3089 C   0  0  0  0  0  0  0  0  0  0  0  0
  -16.9370  -46.8598   -9.0068 C   0  0  0  0  0  0  0  0  0  0  0  0
  -17.8378  -46.2395   -7.9742 C   0  0  0  0  0  0  0  0  0  0  0  0
  -19.2285  -46.7638   -8.1379 C   0  0  0  0  0  0  0  0  0  0  0  0
  -20.2152  -45.7822   -7.8913 O   0  0  0  0  0  0  0  0  0  0  0  0
  -20.1560  -44.4274   -7.6018 C   0  0  0  0  0  0  0  0  0  0  0  0
  -20.7038  -44.1632   -6.3336 C   0  0  0  0  0  0  0  0  0  0  0  0
  -20.7691  -42.9074   -5.7980 C   0  0  0  0  0  0  0  0  0  0  0  0
  -20.2586  -41.9096   -6.5897 C   0  0  0  0  0  0  0  0  0  0  0  0
  -19.6978  -42.1283   -7.8722 C   0  0  0  0  0  0  0  0  0  0  0  0
  -19.6494  -43.3978   -8.3809 C   0  0  0  0  0  0  0  0  0  0  0  0
  -19.2409  -40.8342   -8.4199 C   0  0  0  0  0  0  0  0  0  0  0  0
  -20.0064  -39.7736   -8.2599 O   0  0  0  0  0  0  0  0  0  0  0  0
  -18.0773  -40.4733   -9.1240 N   0  0  0  0  0  0  0  0  0  0  0  0
  -16.7424  -40.9679   -8.8515 C   0  0  1  0  0  0  0  0  0  0  0  0
  -15.9387  -41.3040  -10.0613 C   0  0  0  0  0  0  0  0  0  0  0  0
  -15.9759  -40.0722   -7.8840 C   0  0  2  0  0  0  0  0  0  0  0  0
  -15.8263  -40.8115   -6.6954 O   0  0  0  0  0  0  0  0  0  0  0  0
  -16.7567  -38.8549   -7.5262 C   0  0  0  0  0  0  0  0  0  0  0  0
  -16.5445  -37.7295   -8.3282 N   0  0  0  0  0  0  0  0  0  0  0  0
  -17.2927  -37.5274   -9.5119 C   0  0  0  0  0  0  0  0  0  0  0  0
  -16.8819  -37.8714  -10.8706 C   0  0  0  0  0  0  0  0  0  0  0  0
  -16.6886  -36.4365  -10.4560 C   0  0  0  0  0  0  0  0  0  0  0  0
  -18.7840  -37.3043   -9.3428 C   0  0  0  0  0  0  0  0  0  0  0  0
  -19.3991  -37.2500   -8.1246 C   0  0  0  0  0  0  0  0  0  0  0  0
  -20.7702  -37.0474   -7.9944 C   0  0  0  0  0  0  0  0  0  0  0  0
  -21.5145  -36.8995   -9.1386 C   0  0  0  0  0  0  0  0  0  0  0  0
  -20.8763  -36.9581  -10.3539 C   0  0  0  0  0  0  0  0  0  0  0  0
  -19.5471  -37.1556  -10.4276 N   0  0  0  0  0  0  0  0  0  0  0  0
  -21.4290  -36.9785   -6.6735 C   0  0  0  0  0  0  0  0  0  0  0  0
  -20.6415  -36.0905   -5.7448 C   0  0  0  0  0  0  0  0  0  0  0  0
  -21.6214  -38.3653   -6.0819 C   0  0  0  0  0  0  0  0  0  0  0  0
  -22.8140  -36.3916   -6.8259 C   0  0  0  0  0  0  0  0  0  0  0  0
  -21.3332  -42.6449   -4.4793 C   0  0  0  0  0  0  0  0  0  0  0  0
  -20.9788  -43.3114   -3.3733 N   0  0  0  0  0  0  0  0  0  0  0  0
  -21.7183  -42.7758   -2.3866 C   0  0  0  0  0  0  0  0  0  0  0  0
  -22.5071  -41.7844   -2.9515 C   0  0  0  0  0  0  0  0  0  0  0  0
  -22.2397  -41.7361   -4.2395 O   0  0  0  0  0  0  0  0  0  0  0  0
  2  1  1  6
  2  3  1  0
  3  4  1  0
  4  5  1  0
  5  6  1  0
  6  7  1  0
  7  8  1  0
  8  9  1  0
  9 10  1  0
 10 11  1  0
 11 12  1  0
 12 13  2  0
 13 14  1  0
 14 15  2  0
 15 16  1  0
 15 17  1  0
 17 18  2  0
 17 19  1  0
 19 20  1  0
 20 21  1  6
 20 22  1  0
 22 23  1  1
 22 24  1  0
 24 25  1  0
 25 26  1  0
 26 27  1  0
 27 28  1  0
 26 29  1  0
 29 30  2  0
 30 31  1  0
 31 32  2  0
 32 33  1  0
 33 34  2  0
 31 35  1  0
 35 36  1  0
 35 37  1  0
 35 38  1  0
 13 39  1  0
 39 40  2  0
 40 41  1  0
 41 42  2  0
 42 43  1  0
 16 11  2  0
 21  2  1  0
 28 26  1  0
 34 29  1  0
 43 39  1  0
M  END
$$$$
