
     RDKit          3D

 43 47  0  0  0  0  0  0  0  0999 V2000
  -12.7559  -42.0783   -8.5387 C   0  0  0  0  0  0  0  0  0  0  0  0
  -14.1106  -42.6533   -8.8643 C   0  0  2  0  0  0  0  0  0  0  0  0
  -13.9559  -43.8481   -9.7520 C   0  0  0  0  0  0  0  0  0  0  0  0
  -13.4216  -45.0115   -8.9473 C   0  0  0  0  0  0  0  0  0  0  0  0
  -13.9243  -46.3481   -9.3853 C   0  0  0  0  0  0  0  0  0  0  0  0
  -15.3378  -46.5710   -8.8920 C   0  0  0  0  0  0  0  0  0  0  0  0
  -15.4075  -46.9429   -7.4363 C   0  0  0  0  0  0  0  0  0  0  0  0
  -16.6600  -46.3382   -6.8637 C   0  0  0  0  0  0  0  0  0  0  0  0
  -17.8408  -47.1760   -7.2374 C   0  0  0  0  0  0  0  0  0  0  0  0
  -18.9931  -46.4048   -7.5121 O   0  0  0  0  0  0  0  0  0  0  0  0
  -19.2300  -45.0400   -7.5750 C   0  0  0  0  0  0  0  0  0  0  0  0
  -20.1669  -44.6502   -6.6011 C   0  0  0  0  0  0  0  0  0  0  0  0
  -20.5799  -43.3571   -6.4411 C   0  0  0  0  0  0  0  0  0  0  0  0
  -20.0130  -42.4539   -7.3046 C   0  0  0  0  0  0  0  0  0  0  0  0
  -19.0665  -42.8003   -8.3002 C   0  0  0  0  0  0  0  0  0  0  0  0
  -18.6753  -44.1046   -8.4359 C   0  0  0  0  0  0  0  0  0  0  0  0
  -18.6683  -41.5764   -9.0261 C   0  0  0  0  0  0  0  0  0  0  0  0
  -19.5982  -40.6989   -9.3451 O   0  0  0  0  0  0  0  0  0  0  0  0
  -17.4159  -41.1203   -9.4772 N   0  0  0  0  0  0  0  0  0  0  0  0
  -16.1656  -41.2452   -8.7548 C   0  0  1  0  0  0  0  0  0  0  0  0
  -14.9944  -41.6359   -9.5903 C   0  0  0  0  0  0  0  0  0  0  0  0
  -15.8704  -40.0264   -7.8869 C   0  0  2  0  0  0  0  0  0  0  0  0
  -16.6868  -40.1464   -6.7465 O   0  0  0  0  0  0  0  0  0  0  0  0
  -16.2740  -38.7609   -8.5615 C   0  0  0  0  0  0  0  0  0  0  0  0
  -17.5164  -38.2360   -8.1933 N   0  0  0  0  0  0  0  0  0  0  0  0
  -18.4088  -37.7266   -9.1659 C   0  0  0  0  0  0  0  0  0  0  0  0
  -19.6453  -38.3533   -9.6256 C   0  0  0  0  0  0  0  0  0  0  0  0
  -18.4301  -38.5560  -10.4917 C   0  0  0  0  0  0  0  0  0  0  0  0
  -18.3002  -36.2456   -9.4777 C   0  0  0  0  0  0  0  0  0  0  0  0
  -17.5142  -35.7470  -10.4772 C   0  0  0  0  0  0  0  0  0  0  0  0
  -17.4280  -34.3832  -10.7425 C   0  0  0  0  0  0  0  0  0  0  0  0
  -18.1638  -33.5242   -9.9640 C   0  0  0  0  0  0  0  0  0  0  0  0
  -18.9473  -34.0464   -8.9636 C   0  0  0  0  0  0  0  0  0  0  0  0
  -18.9974  -35.3736   -8.7465 N   0  0  0  0  0  0  0  0  0  0  0  0
  -16.5846  -33.8498  -11.8324 C   0  0  0  0  0  0  0  0  0  0  0  0
  -17.2599  -32.6705  -12.4835 C   0  0  0  0  0  0  0  0  0  0  0  0
  -16.2538  -34.9292  -12.8502 C   0  0  0  0  0  0  0  0  0  0  0  0
  -15.2608  -33.3841  -11.2697 C   0  0  0  0  0  0  0  0  0  0  0  0
  -21.5471  -42.9623   -5.4238 C   0  0  0  0  0  0  0  0  0  0  0  0
  -21.5197  -43.4056   -4.1605 N   0  0  0  0  0  0  0  0  0  0  0  0
  -22.5649  -42.8139   -3.5565 C   0  0  0  0  0  0  0  0  0  0  0  0
  -23.1947  -42.0190   -4.5028 C   0  0  0  0  0  0  0  0  0  0  0  0
  -22.5375  -42.1385   -5.6371 O   0  0  0  0  0  0  0  0  0  0  0  0
  2  1  1  6
  2  3  1  0
  3  4  1  0
  4  5  1  0
  5  6  1  0
  6  7  1  0
  7  8  1  0
  8  9  1  0
  9 10  1  0
 10 11  1  0
 11 12  1  0
 12 13  2  0
 13 14  1  0
 14 15  2  0
 15 16  1  0
 15 17  1  0
 17 18  2  0
 17 19  1  0
 19 20  1  0
 20 21  1  6
 20 22  1  0
 22 23  1  1
 22 24  1  0
 24 25  1  0
 25 26  1  0
 26 27  1  0
 27 28  1  0
 26 29  1  0
 29 30  2  0
 30 31  1  0
 31 32  2  0
 32 33  1  0
 33 34  2  0
 31 35  1  0
 35 36  1  0
 35 37  1  0
 35 38  1  0
 13 39  1  0
 39 40  2  0
 40 41  1  0
 41 42  2  0
 42 43  1  0
 16 11  2  0
 21  2  1  0
 28 26  1  0
 34 29  1  0
 43 39  1  0
M  END
$$$$
