
     RDKit          3D

 43 47  0  0  0  0  0  0  0  0999 V2000
  -13.1463  -42.6510   -8.7313 C   0  0  0  0  0  0  0  0  0  0  0  0
  -14.5832  -42.9261   -9.0939 C   0  0  2  0  0  0  0  0  0  0  0  0
  -14.6516  -44.0391  -10.0919 C   0  0  0  0  0  0  0  0  0  0  0  0
  -14.3524  -45.3534   -9.4067 C   0  0  0  0  0  0  0  0  0  0  0  0
  -15.0961  -46.5232   -9.9628 C   0  0  0  0  0  0  0  0  0  0  0  0
  -16.5295  -46.5207   -9.4763 C   0  0  0  0  0  0  0  0  0  0  0  0
  -16.6777  -47.0088   -8.0615 C   0  0  0  0  0  0  0  0  0  0  0  0
  -17.7968  -46.2353   -7.4200 C   0  0  0  0  0  0  0  0  0  0  0  0
  -19.1124  -46.7955   -7.8573 C   0  0  0  0  0  0  0  0  0  0  0  0
  -20.0961  -45.7980   -8.0447 O   0  0  0  0  0  0  0  0  0  0  0  0
  -20.0700  -44.4132   -7.9760 C   0  0  0  0  0  0  0  0  0  0  0  0
  -20.9225  -43.9474   -6.9589 C   0  0  0  0  0  0  0  0  0  0  0  0
  -21.0844  -42.6206   -6.6731 C   0  0  0  0  0  0  0  0  0  0  0  0
  -20.3511  -41.7632   -7.4541 C   0  0  0  0  0  0  0  0  0  0  0  0
  -19.4809  -42.1864   -8.4888 C   0  0  0  0  0  0  0  0  0  0  0  0
  -19.3427  -43.5224   -8.7514 C   0  0  0  0  0  0  0  0  0  0  0  0
  -18.8535  -40.9967   -9.1007 C   0  0  0  0  0  0  0  0  0  0  0  0
  -19.5984  -39.9331   -9.3249 O   0  0  0  0  0  0  0  0  0  0  0  0
  -17.5346  -40.7450   -9.5214 N   0  0  0  0  0  0  0  0  0  0  0  0
  -16.3352  -41.1718   -8.8284 C   0  0  1  0  0  0  0  0  0  0  0  0
  -15.2537  -41.6959   -9.7106 C   0  0  0  0  0  0  0  0  0  0  0  0
  -15.8203  -40.1185   -7.8531 C   0  0  2  0  0  0  0  0  0  0  0  0
  -16.6948  -40.1402   -6.7502 O   0  0  0  0  0  0  0  0  0  0  0  0
  -15.9051  -38.7475   -8.4298 C   0  0  0  0  0  0  0  0  0  0  0  0
  -17.1511  -38.3698   -8.9392 N   0  0  0  0  0  0  0  0  0  0  0  0
  -17.4651  -37.0079   -9.1600 C   0  0  0  0  0  0  0  0  0  0  0  0
  -18.0610  -36.0851   -8.1976 C   0  0  0  0  0  0  0  0  0  0  0  0
  -19.0014  -36.7164   -9.1902 C   0  0  0  0  0  0  0  0  0  0  0  0
  -16.7825  -36.3359  -10.3368 C   0  0  0  0  0  0  0  0  0  0  0  0
  -15.9080  -35.2957  -10.2005 C   0  0  0  0  0  0  0  0  0  0  0  0
  -15.2962  -34.6927  -11.2959 C   0  0  0  0  0  0  0  0  0  0  0  0
  -15.5929  -35.1714  -12.5481 C   0  0  0  0  0  0  0  0  0  0  0  0
  -16.4755  -36.2180  -12.6631 C   0  0  0  0  0  0  0  0  0  0  0  0
  -17.0411  -36.7680  -11.5728 N   0  0  0  0  0  0  0  0  0  0  0  0
  -14.3423  -33.5747  -11.1420 C   0  0  0  0  0  0  0  0  0  0  0  0
  -14.8252  -32.3695  -11.9070 C   0  0  0  0  0  0  0  0  0  0  0  0
  -12.9436  -33.9815  -11.5763 C   0  0  0  0  0  0  0  0  0  0  0  0
  -14.2345  -33.1952   -9.6825 C   0  0  0  0  0  0  0  0  0  0  0  0
  -21.9659  -42.1483   -5.6120 C   0  0  0  0  0  0  0  0  0  0  0  0
  -21.8424  -42.5078   -4.3280 N   0  0  0  0  0  0  0  0  0  0  0  0
  -22.8328  -41.8653   -3.6850 C   0  0  0  0  0  0  0  0  0  0  0  0
  -23.5296  -41.1269   -4.6301 C   0  0  0  0  0  0  0  0  0  0  0  0
  -22.9644  -41.3286   -5.8017 O   0  0  0  0  0  0  0  0  0  0  0  0
  2  1  1  6
  2  3  1  0
  3  4  1  0
  4  5  1  0
  5  6  1  0
  6  7  1  0
  7  8  1  0
  8  9  1  0
  9 10  1  0
 10 11  1  0
 11 12  1  0
 12 13  2  0
 13 14  1  0
 14 15  2  0
 15 16  1  0
 15 17  1  0
 17 18  2  0
 17 19  1  0
 19 20  1  0
 20 21  1  6
 20 22  1  0
 22 23  1  1
 22 24  1  0
 24 25  1  0
 25 26  1  0
 26 27  1  0
 27 28  1  0
 26 29  1  0
 29 30  2  0
 30 31  1  0
 31 32  2  0
 32 33  1  0
 33 34  2  0
 31 35  1  0
 35 36  1  0
 35 37  1  0
 35 38  1  0
 13 39  1  0
 39 40  2  0
 40 41  1  0
 41 42  2  0
 42 43  1  0
 16 11  2  0
 21  2  1  0
 28 26  1  0
 34 29  1  0
 43 39  1  0
M  END
$$$$
