
     RDKit          3D

 43 47  0  0  0  0  0  0  0  0999 V2000
  -13.0668  -40.2646   -9.2218 C   0  0  0  0  0  0  0  0  0  0  0  0
  -14.3023  -41.0514   -9.5772 C   0  0  2  0  0  0  0  0  0  0  0  0
  -14.0754  -41.8074  -10.8486 C   0  0  0  0  0  0  0  0  0  0  0  0
  -13.1510  -42.9749  -10.5860 C   0  0  0  0  0  0  0  0  0  0  0  0
  -13.4306  -44.1834  -11.4179 C   0  0  0  0  0  0  0  0  0  0  0  0
  -14.6331  -44.9302  -10.8815 C   0  0  0  0  0  0  0  0  0  0  0  0
  -14.3252  -45.7540   -9.6614 C   0  0  0  0  0  0  0  0  0  0  0  0
  -15.5368  -45.7318   -8.7704 C   0  0  0  0  0  0  0  0  0  0  0  0
  -16.5590  -46.6939   -9.2852 C   0  0  0  0  0  0  0  0  0  0  0  0
  -17.8820  -46.2212   -9.1291 O   0  0  0  0  0  0  0  0  0  0  0  0
  -18.4161  -45.0281   -8.6664 C   0  0  0  0  0  0  0  0  0  0  0  0
  -19.1986  -45.2434   -7.5177 C   0  0  0  0  0  0  0  0  0  0  0  0
  -19.8404  -44.2351   -6.8547 C   0  0  0  0  0  0  0  0  0  0  0  0
  -19.6685  -42.9839   -7.3910 C   0  0  0  0  0  0  0  0  0  0  0  0
  -18.8906  -42.7196   -8.5451 C   0  0  0  0  0  0  0  0  0  0  0  0
  -18.2623  -43.7519   -9.1874 C   0  0  0  0  0  0  0  0  0  0  0  0
  -18.9214  -41.2679   -8.8190 C   0  0  0  0  0  0  0  0  0  0  0  0
  -20.0638  -40.6238   -8.6908 O   0  0  0  0  0  0  0  0  0  0  0  0
  -17.9148  -40.3674   -9.2137 N   0  0  0  0  0  0  0  0  0  0  0  0
  -16.5475  -40.3712   -8.7325 C   0  0  1  0  0  0  0  0  0  0  0  0
  -15.5131  -40.1371   -9.7802 C   0  0  0  0  0  0  0  0  0  0  0  0
  -16.3538  -39.4641   -7.5219 C   0  0  2  0  0  0  0  0  0  0  0  0
  -16.8567  -40.1716   -6.4137 O   0  0  0  0  0  0  0  0  0  0  0  0
  -17.1673  -38.2208   -7.6312 C   0  0  0  0  0  0  0  0  0  0  0  0
  -18.5411  -38.3628   -7.4141 N   0  0  0  0  0  0  0  0  0  0  0  0
  -19.4607  -37.4168   -7.9255 C   0  0  0  0  0  0  0  0  0  0  0  0
  -20.3188  -36.5281   -7.1464 C   0  0  0  0  0  0  0  0  0  0  0  0
  -20.9562  -37.7915   -7.6619 C   0  0  0  0  0  0  0  0  0  0  0  0
  -19.2733  -37.0014   -9.3728 C   0  0  0  0  0  0  0  0  0  0  0  0
  -18.1204  -36.4448   -9.8484 C   0  0  0  0  0  0  0  0  0  0  0  0
  -17.9729  -36.0685  -11.1804 C   0  0  0  0  0  0  0  0  0  0  0  0
  -19.0314  -36.2701  -12.0313 C   0  0  0  0  0  0  0  0  0  0  0  0
  -20.1823  -36.8307  -11.5325 C   0  0  0  0  0  0  0  0  0  0  0  0
  -20.2759  -37.1784  -10.2358 N   0  0  0  0  0  0  0  0  0  0  0  0
  -16.7193  -35.4768  -11.6922 C   0  0  0  0  0  0  0  0  0  0  0  0
  -15.5306  -36.2334  -11.1577 C   0  0  0  0  0  0  0  0  0  0  0  0
  -16.6311  -33.9976  -11.3538 C   0  0  0  0  0  0  0  0  0  0  0  0
  -16.6945  -35.5642  -13.2014 C   0  0  0  0  0  0  0  0  0  0  0  0
  -20.6442  -44.4680   -5.6606 C   0  0  0  0  0  0  0  0  0  0  0  0
  -21.0506  -45.6805   -5.2632 N   0  0  0  0  0  0  0  0  0  0  0  0
  -21.7551  -45.4652   -4.1386 C   0  0  0  0  0  0  0  0  0  0  0  0
  -21.7442  -44.0992   -3.8980 C   0  0  0  0  0  0  0  0  0  0  0  0
  -21.0506  -43.5226   -4.8568 O   0  0  0  0  0  0  0  0  0  0  0  0
  2  1  1  6
  2  3  1  0
  3  4  1  0
  4  5  1  0
  5  6  1  0
  6  7  1  0
  7  8  1  0
  8  9  1  0
  9 10  1  0
 10 11  1  0
 11 12  1  0
 12 13  2  0
 13 14  1  0
 14 15  2  0
 15 16  1  0
 15 17  1  0
 17 18  2  0
 17 19  1  0
 19 20  1  0
 20 21  1  6
 20 22  1  0
 22 23  1  1
 22 24  1  0
 24 25  1  0
 25 26  1  0
 26 27  1  0
 27 28  1  0
 26 29  1  0
 29 30  2  0
 30 31  1  0
 31 32  2  0
 32 33  1  0
 33 34  2  0
 31 35  1  0
 35 36  1  0
 35 37  1  0
 35 38  1  0
 13 39  1  0
 39 40  2  0
 40 41  1  0
 41 42  2  0
 42 43  1  0
 16 11  2  0
 21  2  1  0
 28 26  1  0
 34 29  1  0
 43 39  1  0
M  END
$$$$
