
     RDKit          3D

 39 42  0  0  0  0  0  0  0  0999 V2000
  -12.5542  -41.5830   -8.6950 C   0  0  0  0  0  0  0  0  0  0  0  0
  -13.3798  -40.3181   -8.7423 C   0  0  2  0  0  0  0  0  0  0  0  0
  -14.7669  -40.7050   -8.5655 N   0  0  0  0  0  0  0  0  0  0  0  0
  -15.6693  -39.6020   -8.6313 C   0  0  0  0  0  0  0  0  0  0  0  0
  -16.2911  -39.2476   -7.3137 C   0  0  1  0  0  0  0  0  0  0  0  0
  -16.7355  -37.9341   -7.3625 O   0  0  0  0  0  0  0  0  0  0  0  0
  -17.4886  -40.1360   -6.9794 C   0  0  2  0  0  0  0  0  0  0  0  0
  -18.4688  -39.4286   -6.0434 C   0  0  0  0  0  0  0  0  0  0  0  0
  -19.8268  -39.2752   -6.6777 C   0  0  0  0  0  0  0  0  0  0  0  0
  -20.8389  -40.1894   -6.8461 C   0  0  0  0  0  0  0  0  0  0  0  0
  -21.9902  -39.7554   -7.4783 C   0  0  0  0  0  0  0  0  0  0  0  0
  -22.0991  -38.4175   -7.9277 C   0  0  0  0  0  0  0  0  0  0  0  0
  -21.1054  -37.4898   -7.7719 C   0  0  0  0  0  0  0  0  0  0  0  0
  -19.9769  -37.9492   -7.1411 C   0  0  0  0  0  0  0  0  0  0  0  0
  -23.1399  -40.4542   -7.7708 O   0  0  0  0  0  0  0  0  0  0  0  0
  -24.0310  -41.2934   -7.1464 C   0  0  0  0  0  0  0  0  0  0  0  0
  -23.5386  -42.7212   -7.0150 C   0  0  0  0  0  0  0  0  0  0  0  0
  -23.1220  -43.0696   -5.6203 C   0  0  0  0  0  0  0  0  0  0  0  0
  -22.7833  -44.5322   -5.5102 C   0  0  0  0  0  0  0  0  0  0  0  0
  -21.7320  -44.9859   -6.2536 O   0  0  0  0  0  0  0  0  0  0  0  0
  -20.5977  -44.5433   -6.8940 C   0  0  0  0  0  0  0  0  0  0  0  0
  -19.5456  -43.7901   -6.4048 C   0  0  0  0  0  0  0  0  0  0  0  0
  -18.5306  -43.4875   -7.2794 C   0  0  0  0  0  0  0  0  0  0  0  0
  -18.6109  -43.9582   -8.6178 C   0  0  0  0  0  0  0  0  0  0  0  0
  -19.6195  -44.6839   -9.0945 N   0  0  0  0  0  0  0  0  0  0  0  0
  -20.5953  -44.9687   -8.2394 C   0  0  0  0  0  0  0  0  0  0  0  0
  -17.2885  -42.7064   -7.1095 C   0  0  0  0  0  0  0  0  0  0  0  0
  -16.2312  -43.3456   -7.5752 O   0  0  0  0  0  0  0  0  0  0  0  0
  -17.0577  -41.4175   -6.5442 N   0  0  0  0  0  0  0  0  0  0  0  0
  -13.1631  -39.6925  -10.0769 C   0  0  0  0  0  0  0  0  0  0  0  0
  -12.2393  -38.7490  -10.4495 C   0  0  0  0  0  0  0  0  0  0  0  0
  -12.4443  -38.4944  -11.7814 C   0  0  0  0  0  0  0  0  0  0  0  0
  -11.7029  -37.5428  -12.6718 C   0  0  0  0  0  0  0  0  0  0  0  0
  -12.4452  -36.2154  -12.7454 C   0  0  0  0  0  0  0  0  0  0  0  0
  -13.8774  -36.4002  -13.1426 C   0  0  0  0  0  0  0  0  0  0  0  0
  -11.7448  -35.3283  -13.7394 C   0  0  0  0  0  0  0  0  0  0  0  0
  -12.4255  -35.5402  -11.3787 C   0  0  0  0  0  0  0  0  0  0  0  0
  -13.4409  -39.2576  -12.1550 O   0  0  0  0  0  0  0  0  0  0  0  0
  -13.8759  -39.9698  -11.1639 N   0  0  0  0  0  0  0  0  0  0  0  0
  2  1  1  6
  2  3  1  0
  3  4  1  0
  4  5  1  0
  5  6  1  6
  5  7  1  0
  7  8  1  1
  8  9  1  0
  9 10  2  0
 10 11  1  0
 11 12  2  0
 12 13  1  0
 13 14  2  0
 11 15  1  0
 15 16  1  0
 16 17  1  0
 17 18  1  0
 18 19  1  0
 19 20  1  0
 20 21  1  0
 21 22  2  0
 22 23  1  0
 23 24  2  0
 24 25  1  0
 25 26  2  0
 23 27  1  0
 27 28  2  0
 27 29  1  0
  2 30  1  0
 30 31  1  0
 31 32  2  0
 32 33  1  0
 33 34  1  0
 34 35  1  0
 34 36  1  0
 34 37  1  0
 32 38  1  0
 38 39  1  0
 14  9  1  0
 26 21  1  0
 29  7  1  0
 39 30  2  0
M  END
$$$$
