
     RDKit          3D

 39 42  0  0  0  0  0  0  0  0999 V2000
  -12.7162  -40.1065   -8.3589 C   0  0  0  0  0  0  0  0  0  0  0  0
  -13.7403  -39.2342   -9.0474 C   0  0  2  0  0  0  0  0  0  0  0  0
  -14.9341  -40.0381   -9.2306 N   0  0  0  0  0  0  0  0  0  0  0  0
  -16.1374  -39.3297   -8.9382 C   0  0  0  0  0  0  0  0  0  0  0  0
  -16.4068  -39.1709   -7.4717 C   0  0  1  0  0  0  0  0  0  0  0  0
  -16.6223  -37.8285   -7.1947 O   0  0  0  0  0  0  0  0  0  0  0  0
  -17.6432  -39.9476   -7.0213 C   0  0  2  0  0  0  0  0  0  0  0  0
  -18.5191  -39.1151   -6.0847 C   0  0  0  0  0  0  0  0  0  0  0  0
  -19.8956  -38.9015   -6.6586 C   0  0  0  0  0  0  0  0  0  0  0  0
  -20.9768  -39.7478   -6.7169 C   0  0  0  0  0  0  0  0  0  0  0  0
  -22.1278  -39.2699   -7.3170 C   0  0  0  0  0  0  0  0  0  0  0  0
  -22.1675  -37.9572   -7.8455 C   0  0  0  0  0  0  0  0  0  0  0  0
  -21.1044  -37.0970   -7.7998 C   0  0  0  0  0  0  0  0  0  0  0  0
  -19.9780  -37.5986   -7.1981 C   0  0  0  0  0  0  0  0  0  0  0  0
  -23.3378  -39.8992   -7.5059 O   0  0  0  0  0  0  0  0  0  0  0  0
  -24.2498  -40.6317   -6.7850 C   0  0  0  0  0  0  0  0  0  0  0  0
  -23.8518  -42.0811   -6.5869 C   0  0  0  0  0  0  0  0  0  0  0  0
  -23.3850  -42.3739   -5.1954 C   0  0  0  0  0  0  0  0  0  0  0  0
  -23.1437  -43.8480   -5.0085 C   0  0  0  0  0  0  0  0  0  0  0  0
  -22.1688  -44.4215   -5.7731 O   0  0  0  0  0  0  0  0  0  0  0  0
  -21.0431  -44.1025   -6.4968 C   0  0  0  0  0  0  0  0  0  0  0  0
  -19.9158  -43.4000   -6.1105 C   0  0  0  0  0  0  0  0  0  0  0  0
  -18.9315  -43.2259   -7.0526 C   0  0  0  0  0  0  0  0  0  0  0  0
  -19.1175  -43.7696   -8.3521 C   0  0  0  0  0  0  0  0  0  0  0  0
  -20.1989  -44.4473   -8.7300 N   0  0  0  0  0  0  0  0  0  0  0  0
  -21.1439  -44.6076   -7.8104 C   0  0  0  0  0  0  0  0  0  0  0  0
  -17.6305  -42.5288   -6.9958 C   0  0  0  0  0  0  0  0  0  0  0  0
  -16.6474  -43.2706   -7.4718 O   0  0  0  0  0  0  0  0  0  0  0  0
  -17.2797  -41.2284   -6.5268 N   0  0  0  0  0  0  0  0  0  0  0  0
  -13.1660  -38.8201  -10.3582 C   0  0  0  0  0  0  0  0  0  0  0  0
  -13.4961  -37.7464  -11.1461 C   0  0  0  0  0  0  0  0  0  0  0  0
  -12.6873  -37.7998  -12.2523 C   0  0  0  0  0  0  0  0  0  0  0  0
  -12.6450  -36.8608  -13.4204 C   0  0  0  0  0  0  0  0  0  0  0  0
  -11.3824  -36.0121  -13.3586 C   0  0  0  0  0  0  0  0  0  0  0  0
  -11.2392  -35.1391  -14.5672 C   0  0  0  0  0  0  0  0  0  0  0  0
  -10.1938  -36.9278  -13.2403 C   0  0  0  0  0  0  0  0  0  0  0  0
  -11.4332  -35.1054  -12.1341 C   0  0  0  0  0  0  0  0  0  0  0  0
  -11.9281  -38.8568  -12.1049 O   0  0  0  0  0  0  0  0  0  0  0  0
  -12.1965  -39.4690  -10.9950 N   0  0  0  0  0  0  0  0  0  0  0  0
  2  1  1  6
  2  3  1  0
  3  4  1  0
  4  5  1  0
  5  6  1  6
  5  7  1  0
  7  8  1  1
  8  9  1  0
  9 10  2  0
 10 11  1  0
 11 12  2  0
 12 13  1  0
 13 14  2  0
 11 15  1  0
 15 16  1  0
 16 17  1  0
 17 18  1  0
 18 19  1  0
 19 20  1  0
 20 21  1  0
 21 22  2  0
 22 23  1  0
 23 24  2  0
 24 25  1  0
 25 26  2  0
 23 27  1  0
 27 28  2  0
 27 29  1  0
  2 30  1  0
 30 31  1  0
 31 32  2  0
 32 33  1  0
 33 34  1  0
 34 35  1  0
 34 36  1  0
 34 37  1  0
 32 38  1  0
 38 39  1  0
 14  9  1  0
 26 21  1  0
 29  7  1  0
 39 30  2  0
M  END
$$$$
