
     RDKit          3D

 39 42  0  0  0  0  0  0  0  0999 V2000
  -14.3753  -40.7187  -10.4908 C   0  0  0  0  0  0  0  0  0  0  0  0
  -14.2146  -39.2968  -10.0048 C   0  0  2  0  0  0  0  0  0  0  0  0
  -15.4355  -38.9425   -9.3057 N   0  0  0  0  0  0  0  0  0  0  0  0
  -15.3572  -39.1557   -7.8972 C   0  0  0  0  0  0  0  0  0  0  0  0
  -16.5268  -38.6089   -7.1349 C   0  0  1  0  0  0  0  0  0  0  0  0
  -17.1975  -37.6928   -7.9326 O   0  0  0  0  0  0  0  0  0  0  0  0
  -17.5202  -39.6991   -6.7354 C   0  0  2  0  0  0  0  0  0  0  0  0
  -18.2597  -39.3400   -5.4464 C   0  0  0  0  0  0  0  0  0  0  0  0
  -19.7461  -39.2399   -5.6707 C   0  0  0  0  0  0  0  0  0  0  0  0
  -20.6958  -40.2253   -5.7955 C   0  0  0  0  0  0  0  0  0  0  0  0
  -22.0041  -39.8263   -6.0024 C   0  0  0  0  0  0  0  0  0  0  0  0
  -22.3289  -38.4507   -6.0811 C   0  0  0  0  0  0  0  0  0  0  0  0
  -21.4012  -37.4521   -5.9606 C   0  0  0  0  0  0  0  0  0  0  0  0
  -20.1134  -37.8785   -5.7552 C   0  0  0  0  0  0  0  0  0  0  0  0
  -23.1353  -40.5954   -6.1588 O   0  0  0  0  0  0  0  0  0  0  0  0
  -23.7596  -41.6577   -5.5507 C   0  0  0  0  0  0  0  0  0  0  0  0
  -23.1463  -43.0028   -5.8867 C   0  0  0  0  0  0  0  0  0  0  0  0
  -22.3431  -43.5762   -4.7615 C   0  0  0  0  0  0  0  0  0  0  0  0
  -21.8804  -44.9710   -5.0878 C   0  0  0  0  0  0  0  0  0  0  0  0
  -21.0392  -45.1150   -6.1535 O   0  0  0  0  0  0  0  0  0  0  0  0
  -20.1565  -44.4011   -6.9305 C   0  0  0  0  0  0  0  0  0  0  0  0
  -19.0697  -43.6334   -6.5524 C   0  0  0  0  0  0  0  0  0  0  0  0
  -18.3546  -43.0221   -7.5533 C   0  0  0  0  0  0  0  0  0  0  0  0
  -18.7595  -43.2091   -8.9025 C   0  0  0  0  0  0  0  0  0  0  0  0
  -19.8032  -43.9471   -9.2732 N   0  0  0  0  0  0  0  0  0  0  0  0
  -20.4872  -44.5317   -8.2961 C   0  0  0  0  0  0  0  0  0  0  0  0
  -17.1740  -42.1353   -7.5155 C   0  0  0  0  0  0  0  0  0  0  0  0
  -16.2382  -42.5163   -8.3654 O   0  0  0  0  0  0  0  0  0  0  0  0
  -16.8944  -40.9740   -6.7362 N   0  0  0  0  0  0  0  0  0  0  0  0
  -14.0129  -38.4348  -11.2030 C   0  0  0  0  0  0  0  0  0  0  0  0
  -12.8404  -38.0010  -11.7682 C   0  0  0  0  0  0  0  0  0  0  0  0
  -13.1805  -37.2307  -12.8506 C   0  0  0  0  0  0  0  0  0  0  0  0
  -12.2727  -36.5199  -13.8091 C   0  0  0  0  0  0  0  0  0  0  0  0
  -11.1494  -35.8309  -13.0464 C   0  0  0  0  0  0  0  0  0  0  0  0
  -11.5581  -34.4750  -12.5587 C   0  0  0  0  0  0  0  0  0  0  0  0
   -9.9544  -35.7138  -13.9539 C   0  0  0  0  0  0  0  0  0  0  0  0
  -10.7677  -36.6665  -11.8297 C   0  0  0  0  0  0  0  0  0  0  0  0
  -14.4891  -37.2234  -12.9031 O   0  0  0  0  0  0  0  0  0  0  0  0
  -14.9954  -37.9276  -11.9406 N   0  0  0  0  0  0  0  0  0  0  0  0
  2  1  1  6
  2  3  1  0
  3  4  1  0
  4  5  1  0
  5  6  1  6
  5  7  1  0
  7  8  1  1
  8  9  1  0
  9 10  2  0
 10 11  1  0
 11 12  2  0
 12 13  1  0
 13 14  2  0
 11 15  1  0
 15 16  1  0
 16 17  1  0
 17 18  1  0
 18 19  1  0
 19 20  1  0
 20 21  1  0
 21 22  2  0
 22 23  1  0
 23 24  2  0
 24 25  1  0
 25 26  2  0
 23 27  1  0
 27 28  2  0
 27 29  1  0
  2 30  1  0
 30 31  1  0
 31 32  2  0
 32 33  1  0
 33 34  1  0
 34 35  1  0
 34 36  1  0
 34 37  1  0
 32 38  1  0
 38 39  1  0
 14  9  1  0
 26 21  1  0
 29  7  1  0
 39 30  2  0
M  END
$$$$
