
     RDKit          3D

 39 42  0  0  0  0  0  0  0  0999 V2000
  -13.7790  -41.0398  -10.5552 C   0  0  0  0  0  0  0  0  0  0  0  0
  -14.1006  -39.7437   -9.8478 C   0  0  2  0  0  0  0  0  0  0  0  0
  -15.4997  -39.7989   -9.4676 N   0  0  0  0  0  0  0  0  0  0  0  0
  -15.7067  -39.6343   -8.0657 C   0  0  0  0  0  0  0  0  0  0  0  0
  -16.9963  -38.9527   -7.7188 C   0  0  1  0  0  0  0  0  0  0  0  0
  -17.5405  -38.4024   -8.8705 O   0  0  0  0  0  0  0  0  0  0  0  0
  -18.0233  -39.9187   -7.1297 C   0  0  2  0  0  0  0  0  0  0  0  0
  -18.9181  -39.2282   -6.1003 C   0  0  0  0  0  0  0  0  0  0  0  0
  -20.3664  -39.2634   -6.5139 C   0  0  0  0  0  0  0  0  0  0  0  0
  -21.2864  -40.2820   -6.4478 C   0  0  0  0  0  0  0  0  0  0  0  0
  -22.5622  -40.0190   -6.9134 C   0  0  0  0  0  0  0  0  0  0  0  0
  -22.8849  -38.7432   -7.4351 C   0  0  0  0  0  0  0  0  0  0  0  0
  -21.9863  -37.7141   -7.5117 C   0  0  0  0  0  0  0  0  0  0  0  0
  -20.7305  -38.0046   -7.0417 C   0  0  0  0  0  0  0  0  0  0  0  0
  -23.6601  -40.8485   -6.9627 O   0  0  0  0  0  0  0  0  0  0  0  0
  -24.3466  -41.7104   -6.1418 C   0  0  0  0  0  0  0  0  0  0  0  0
  -23.6869  -43.0667   -5.9889 C   0  0  0  0  0  0  0  0  0  0  0  0
  -23.0238  -43.2474   -4.6594 C   0  0  0  0  0  0  0  0  0  0  0  0
  -22.5144  -44.6550   -4.4998 C   0  0  0  0  0  0  0  0  0  0  0  0
  -21.5477  -45.0700   -5.3699 O   0  0  0  0  0  0  0  0  0  0  0  0
  -20.5815  -44.5793   -6.2174 C   0  0  0  0  0  0  0  0  0  0  0  0
  -19.5549  -43.6878   -5.9627 C   0  0  0  0  0  0  0  0  0  0  0  0
  -18.7268  -43.3682   -7.0110 C   0  0  0  0  0  0  0  0  0  0  0  0
  -18.9616  -43.9621   -8.2804 C   0  0  0  0  0  0  0  0  0  0  0  0
  -19.9464  -44.8211   -8.5319 N   0  0  0  0  0  0  0  0  0  0  0  0
  -20.7410  -45.1209   -7.5105 C   0  0  0  0  0  0  0  0  0  0  0  0
  -17.5663  -42.4592   -7.1034 C   0  0  0  0  0  0  0  0  0  0  0  0
  -16.5304  -43.0328   -7.6876 O   0  0  0  0  0  0  0  0  0  0  0  0
  -17.3929  -41.1088   -6.6787 N   0  0  0  0  0  0  0  0  0  0  0  0
  -13.8495  -38.6347  -10.8104 C   0  0  0  0  0  0  0  0  0  0  0  0
  -13.5164  -37.3282  -10.5561 C   0  0  0  0  0  0  0  0  0  0  0  0
  -13.3970  -36.7034  -11.7710 C   0  0  0  0  0  0  0  0  0  0  0  0
  -13.0491  -35.2722  -12.0512 C   0  0  0  0  0  0  0  0  0  0  0  0
  -11.5997  -35.1698  -12.5065 C   0  0  0  0  0  0  0  0  0  0  0  0
  -11.3440  -35.9853  -13.7364 C   0  0  0  0  0  0  0  0  0  0  0  0
  -10.7103  -35.6352  -11.3850 C   0  0  0  0  0  0  0  0  0  0  0  0
  -11.2662  -33.7186  -12.8336 C   0  0  0  0  0  0  0  0  0  0  0  0
  -13.6503  -37.6111  -12.6805 O   0  0  0  0  0  0  0  0  0  0  0  0
  -13.9185  -38.7541  -12.1323 N   0  0  0  0  0  0  0  0  0  0  0  0
  2  1  1  6
  2  3  1  0
  3  4  1  0
  4  5  1  0
  5  6  1  6
  5  7  1  0
  7  8  1  1
  8  9  1  0
  9 10  2  0
 10 11  1  0
 11 12  2  0
 12 13  1  0
 13 14  2  0
 11 15  1  0
 15 16  1  0
 16 17  1  0
 17 18  1  0
 18 19  1  0
 19 20  1  0
 20 21  1  0
 21 22  2  0
 22 23  1  0
 23 24  2  0
 24 25  1  0
 25 26  2  0
 23 27  1  0
 27 28  2  0
 27 29  1  0
  2 30  1  0
 30 31  1  0
 31 32  2  0
 32 33  1  0
 33 34  1  0
 34 35  1  0
 34 36  1  0
 34 37  1  0
 32 38  1  0
 38 39  1  0
 14  9  1  0
 26 21  1  0
 29  7  1  0
 39 30  2  0
M  END
$$$$
