
     RDKit          3D

 39 42  0  0  0  0  0  0  0  0999 V2000
  -15.2216  -39.5208  -11.7871 C   0  0  0  0  0  0  0  0  0  0  0  0
  -14.5496  -38.8310  -10.6223 C   0  0  2  0  0  0  0  0  0  0  0  0
  -15.4539  -37.7960  -10.1577 N   0  0  0  0  0  0  0  0  0  0  0  0
  -16.6195  -38.3150   -9.5193 C   0  0  0  0  0  0  0  0  0  0  0  0
  -16.4401  -38.5839   -8.0551 C   0  0  1  0  0  0  0  0  0  0  0  0
  -16.7574  -37.4362   -7.3428 O   0  0  0  0  0  0  0  0  0  0  0  0
  -17.3444  -39.7105   -7.5569 C   0  0  2  0  0  0  0  0  0  0  0  0
  -17.8915  -39.4154   -6.1602 C   0  0  0  0  0  0  0  0  0  0  0  0
  -19.3963  -39.3416   -6.1596 C   0  0  0  0  0  0  0  0  0  0  0  0
  -20.3366  -40.3434   -6.1819 C   0  0  0  0  0  0  0  0  0  0  0  0
  -21.6679  -39.9674   -6.1786 C   0  0  0  0  0  0  0  0  0  0  0  0
  -22.0247  -38.5977   -6.1548 C   0  0  0  0  0  0  0  0  0  0  0  0
  -21.1070  -37.5830   -6.1329 C   0  0  0  0  0  0  0  0  0  0  0  0
  -19.7958  -37.9868   -6.1358 C   0  0  0  0  0  0  0  0  0  0  0  0
  -22.7962  -40.7563   -6.1971 O   0  0  0  0  0  0  0  0  0  0  0  0
  -23.3052  -41.8539   -5.5459 C   0  0  0  0  0  0  0  0  0  0  0  0
  -22.7248  -43.1715   -6.0209 C   0  0  0  0  0  0  0  0  0  0  0  0
  -21.7543  -43.7665   -5.0492 C   0  0  0  0  0  0  0  0  0  0  0  0
  -21.3206  -45.1376   -5.4943 C   0  0  0  0  0  0  0  0  0  0  0  0
  -20.6437  -45.2235   -6.6768 O   0  0  0  0  0  0  0  0  0  0  0  0
  -19.8981  -44.4619   -7.5466 C   0  0  0  0  0  0  0  0  0  0  0  0
  -18.7809  -43.6835   -7.3025 C   0  0  0  0  0  0  0  0  0  0  0  0
  -18.2323  -43.0201   -8.3729 C   0  0  0  0  0  0  0  0  0  0  0  0
  -18.8287  -43.1675   -9.6542 C   0  0  0  0  0  0  0  0  0  0  0  0
  -19.9026  -43.9154   -9.8961 N   0  0  0  0  0  0  0  0  0  0  0  0
  -20.4245  -44.5506   -8.8528 C   0  0  0  0  0  0  0  0  0  0  0  0
  -17.0747  -42.1083   -8.4743 C   0  0  0  0  0  0  0  0  0  0  0  0
  -16.2682  -42.4366   -9.4668 O   0  0  0  0  0  0  0  0  0  0  0  0
  -16.7034  -40.9698   -7.6996 N   0  0  0  0  0  0  0  0  0  0  0  0
  -13.2756  -38.2445  -11.1246 C   0  0  0  0  0  0  0  0  0  0  0  0
  -11.9844  -38.6200  -10.8518 C   0  0  0  0  0  0  0  0  0  0  0  0
  -11.1658  -37.7703  -11.5507 C   0  0  0  0  0  0  0  0  0  0  0  0
   -9.6674  -37.7511  -11.5984 C   0  0  0  0  0  0  0  0  0  0  0  0
   -9.1698  -38.7106  -12.6708 C   0  0  0  0  0  0  0  0  0  0  0  0
   -7.6741  -38.7320  -12.7475 C   0  0  0  0  0  0  0  0  0  0  0  0
   -9.7481  -38.2915  -13.9956 C   0  0  0  0  0  0  0  0  0  0  0  0
   -9.6388  -40.1255  -12.3508 C   0  0  0  0  0  0  0  0  0  0  0  0
  -11.9526  -36.9450  -12.1949 O   0  0  0  0  0  0  0  0  0  0  0  0
  -13.1980  -37.2101  -11.9556 N   0  0  0  0  0  0  0  0  0  0  0  0
  2  1  1  6
  2  3  1  0
  3  4  1  0
  4  5  1  0
  5  6  1  1
  5  7  1  0
  7  8  1  1
  8  9  1  0
  9 10  2  0
 10 11  1  0
 11 12  2  0
 12 13  1  0
 13 14  2  0
 11 15  1  0
 15 16  1  0
 16 17  1  0
 17 18  1  0
 18 19  1  0
 19 20  1  0
 20 21  1  0
 21 22  2  0
 22 23  1  0
 23 24  2  0
 24 25  1  0
 25 26  2  0
 23 27  1  0
 27 28  2  0
 27 29  1  0
  2 30  1  0
 30 31  1  0
 31 32  2  0
 32 33  1  0
 33 34  1  0
 34 35  1  0
 34 36  1  0
 34 37  1  0
 32 38  1  0
 38 39  1  0
 14  9  1  0
 26 21  1  0
 29  7  1  0
 39 30  2  0
M  END
$$$$
