
     RDKit          3D

 39 42  0  0  0  0  0  0  0  0999 V2000
  -12.7958  -40.8445   -8.9630 C   0  0  0  0  0  0  0  0  0  0  0  0
  -13.7791  -39.6998   -8.8820 C   0  0  2  0  0  0  0  0  0  0  0  0
  -15.0786  -40.2716   -8.5831 N   0  0  0  0  0  0  0  0  0  0  0  0
  -16.1262  -39.3034   -8.5641 C   0  0  0  0  0  0  0  0  0  0  0  0
  -16.7301  -39.0896   -7.2084 C   0  0  1  0  0  0  0  0  0  0  0  0
  -17.3214  -37.8350   -7.1700 O   0  0  0  0  0  0  0  0  0  0  0  0
  -17.8052  -40.1253   -6.8821 C   0  0  2  0  0  0  0  0  0  0  0  0
  -18.7385  -39.6362   -5.7744 C   0  0  0  0  0  0  0  0  0  0  0  0
  -20.1638  -39.5413   -6.2534 C   0  0  0  0  0  0  0  0  0  0  0  0
  -21.1059  -40.5234   -6.4440 C   0  0  0  0  0  0  0  0  0  0  0  0
  -22.3503  -40.1313   -6.9037 C   0  0  0  0  0  0  0  0  0  0  0  0
  -22.6201  -38.7660   -7.1627 C   0  0  0  0  0  0  0  0  0  0  0  0
  -21.6986  -37.7709   -6.9812 C   0  0  0  0  0  0  0  0  0  0  0  0
  -20.4749  -38.1902   -6.5239 C   0  0  0  0  0  0  0  0  0  0  0  0
  -23.4604  -40.8991   -7.1759 O   0  0  0  0  0  0  0  0  0  0  0  0
  -24.2055  -41.8912   -6.5855 C   0  0  0  0  0  0  0  0  0  0  0  0
  -23.5816  -43.2690   -6.6879 C   0  0  0  0  0  0  0  0  0  0  0  0
  -22.9923  -43.7411   -5.3957 C   0  0  0  0  0  0  0  0  0  0  0  0
  -22.5198  -45.1658   -5.5092 C   0  0  0  0  0  0  0  0  0  0  0  0
  -21.5176  -45.4207   -6.4005 O   0  0  0  0  0  0  0  0  0  0  0  0
  -20.4991  -44.7945   -7.0811 C   0  0  0  0  0  0  0  0  0  0  0  0
  -19.4697  -44.0064   -6.5986 C   0  0  0  0  0  0  0  0  0  0  0  0
  -18.5821  -43.5018   -7.5175 C   0  0  0  0  0  0  0  0  0  0  0  0
  -18.7623  -43.8127   -8.8923 C   0  0  0  0  0  0  0  0  0  0  0  0
  -19.7495  -44.5709   -9.3630 N   0  0  0  0  0  0  0  0  0  0  0  0
  -20.6019  -45.0516   -8.4647 C   0  0  0  0  0  0  0  0  0  0  0  0
  -17.4005  -42.6288   -7.3643 C   0  0  0  0  0  0  0  0  0  0  0  0
  -16.3473  -43.0999   -8.0061 O   0  0  0  0  0  0  0  0  0  0  0  0
  -17.2228  -41.4015   -6.6599 N   0  0  0  0  0  0  0  0  0  0  0  0
  -13.7841  -39.0200  -10.2077 C   0  0  0  0  0  0  0  0  0  0  0  0
  -13.4222  -37.7342  -10.5211 C   0  0  0  0  0  0  0  0  0  0  0  0
  -13.6071  -37.5859  -11.8718 C   0  0  0  0  0  0  0  0  0  0  0  0
  -13.3607  -36.3724  -12.7172 C   0  0  0  0  0  0  0  0  0  0  0  0
  -11.8733  -36.0470  -12.7372 C   0  0  0  0  0  0  0  0  0  0  0  0
  -11.3850  -35.5938  -11.3958 C   0  0  0  0  0  0  0  0  0  0  0  0
  -11.6306  -34.9736  -13.7640 C   0  0  0  0  0  0  0  0  0  0  0  0
  -11.0813  -37.2908  -13.1241 C   0  0  0  0  0  0  0  0  0  0  0  0
  -14.0549  -38.7351  -12.3125 O   0  0  0  0  0  0  0  0  0  0  0  0
  -14.1648  -39.5909  -11.3460 N   0  0  0  0  0  0  0  0  0  0  0  0
  2  1  1  6
  2  3  1  0
  3  4  1  0
  4  5  1  0
  5  6  1  6
  5  7  1  0
  7  8  1  1
  8  9  1  0
  9 10  2  0
 10 11  1  0
 11 12  2  0
 12 13  1  0
 13 14  2  0
 11 15  1  0
 15 16  1  0
 16 17  1  0
 17 18  1  0
 18 19  1  0
 19 20  1  0
 20 21  1  0
 21 22  2  0
 22 23  1  0
 23 24  2  0
 24 25  1  0
 25 26  2  0
 23 27  1  0
 27 28  2  0
 27 29  1  0
  2 30  1  0
 30 31  1  0
 31 32  2  0
 32 33  1  0
 33 34  1  0
 34 35  1  0
 34 36  1  0
 34 37  1  0
 32 38  1  0
 38 39  1  0
 14  9  1  0
 26 21  1  0
 29  7  1  0
 39 30  2  0
M  END
$$$$
