
     RDKit          3D

 39 42  0  0  0  0  0  0  0  0999 V2000
  -11.6288  -39.0491   -7.9163 C   0  0  0  0  0  0  0  0  0  0  0  0
  -12.8562  -38.6591   -8.7071 C   0  0  2  0  0  0  0  0  0  0  0  0
  -14.0117  -39.1109   -7.9550 N   0  0  0  0  0  0  0  0  0  0  0  0
  -15.2255  -39.0509   -8.7024 C   0  0  0  0  0  0  0  0  0  0  0  0
  -16.3690  -38.4342   -7.9537 C   0  0  1  0  0  0  0  0  0  0  0  0
  -16.9666  -37.4716   -8.7545 O   0  0  0  0  0  0  0  0  0  0  0  0
  -17.4368  -39.4603   -7.5771 C   0  0  2  0  0  0  0  0  0  0  0  0
  -18.4767  -38.8659   -6.6270 C   0  0  0  0  0  0  0  0  0  0  0  0
  -19.8573  -38.8954   -7.2292 C   0  0  0  0  0  0  0  0  0  0  0  0
  -20.7496  -39.9323   -7.3594 C   0  0  0  0  0  0  0  0  0  0  0  0
  -21.9608  -39.6574   -7.9686 C   0  0  0  0  0  0  0  0  0  0  0  0
  -22.2479  -38.3517   -8.4340 C   0  0  0  0  0  0  0  0  0  0  0  0
  -21.3757  -37.3039   -8.3162 C   0  0  0  0  0  0  0  0  0  0  0  0
  -20.1842  -37.6069   -7.7073 C   0  0  0  0  0  0  0  0  0  0  0  0
  -23.0196  -40.5002   -8.2225 O   0  0  0  0  0  0  0  0  0  0  0  0
  -23.7831  -41.4339   -7.5643 C   0  0  0  0  0  0  0  0  0  0  0  0
  -23.1117  -42.7860   -7.4251 C   0  0  0  0  0  0  0  0  0  0  0  0
  -22.6225  -43.0553   -6.0365 C   0  0  0  0  0  0  0  0  0  0  0  0
  -22.0995  -44.4616   -5.9143 C   0  0  0  0  0  0  0  0  0  0  0  0
  -21.0168  -44.7921   -6.6773 O   0  0  0  0  0  0  0  0  0  0  0  0
  -19.9624  -44.2214   -7.3520 C   0  0  0  0  0  0  0  0  0  0  0  0
  -19.0027  -43.3337   -6.8999 C   0  0  0  0  0  0  0  0  0  0  0  0
  -18.0544  -42.9208   -7.8038 C   0  0  0  0  0  0  0  0  0  0  0  0
  -18.1055  -43.4207   -9.1330 C   0  0  0  0  0  0  0  0  0  0  0  0
  -19.0252  -44.2756   -9.5741 N   0  0  0  0  0  0  0  0  0  0  0  0
  -19.9374  -44.6661   -8.6909 C   0  0  0  0  0  0  0  0  0  0  0  0
  -16.9172  -41.9870   -7.6760 C   0  0  0  0  0  0  0  0  0  0  0  0
  -15.7987  -42.4960   -8.1589 O   0  0  0  0  0  0  0  0  0  0  0  0
  -16.8379  -40.6698   -7.1348 N   0  0  0  0  0  0  0  0  0  0  0  0
  -12.7739  -39.3443  -10.0273 C   0  0  0  0  0  0  0  0  0  0  0  0
  -13.3329  -38.9804  -11.2263 C   0  0  0  0  0  0  0  0  0  0  0  0
  -12.9716  -39.9361  -12.1411 C   0  0  0  0  0  0  0  0  0  0  0  0
  -13.3213  -40.0099  -13.5972 C   0  0  0  0  0  0  0  0  0  0  0  0
  -13.7691  -41.4212  -13.9526 C   0  0  0  0  0  0  0  0  0  0  0  0
  -12.6989  -42.4312  -13.6740 C   0  0  0  0  0  0  0  0  0  0  0  0
  -14.1418  -41.4537  -15.4105 C   0  0  0  0  0  0  0  0  0  0  0  0
  -14.9902  -41.7967  -13.1206 C   0  0  0  0  0  0  0  0  0  0  0  0
  -12.2387  -40.8084  -11.4952 O   0  0  0  0  0  0  0  0  0  0  0  0
  -12.1119  -40.4752  -10.2496 N   0  0  0  0  0  0  0  0  0  0  0  0
  2  1  1  1
  2  3  1  0
  3  4  1  0
  4  5  1  0
  5  6  1  6
  5  7  1  0
  7  8  1  1
  8  9  1  0
  9 10  2  0
 10 11  1  0
 11 12  2  0
 12 13  1  0
 13 14  2  0
 11 15  1  0
 15 16  1  0
 16 17  1  0
 17 18  1  0
 18 19  1  0
 19 20  1  0
 20 21  1  0
 21 22  2  0
 22 23  1  0
 23 24  2  0
 24 25  1  0
 25 26  2  0
 23 27  1  0
 27 28  2  0
 27 29  1  0
  2 30  1  0
 30 31  1  0
 31 32  2  0
 32 33  1  0
 33 34  1  0
 34 35  1  0
 34 36  1  0
 34 37  1  0
 32 38  1  0
 38 39  1  0
 14  9  1  0
 26 21  1  0
 29  7  1  0
 39 30  2  0
M  END
$$$$
