
     RDKit          3D

 39 42  0  0  0  0  0  0  0  0999 V2000
  -13.9570  -41.9929   -9.1120 C   0  0  0  0  0  0  0  0  0  0  0  0
  -14.1031  -40.5869   -8.5774 C   0  0  2  0  0  0  0  0  0  0  0  0
  -15.4864  -40.4246   -8.1711 N   0  0  0  0  0  0  0  0  0  0  0  0
  -15.9307  -39.0699   -8.2231 C   0  0  0  0  0  0  0  0  0  0  0  0
  -16.9564  -38.7277   -7.1843 C   0  0  1  0  0  0  0  0  0  0  0  0
  -17.6394  -37.5873   -7.5822 O   0  0  0  0  0  0  0  0  0  0  0  0
  -17.9809  -39.8447   -6.9901 C   0  0  2  0  0  0  0  0  0  0  0  0
  -18.8531  -39.5990   -5.7587 C   0  0  0  0  0  0  0  0  0  0  0  0
  -20.3083  -39.4724   -6.1277 C   0  0  0  0  0  0  0  0  0  0  0  0
  -21.2349  -40.4382   -6.4388 C   0  0  0  0  0  0  0  0  0  0  0  0
  -22.5162  -40.0162   -6.7451 C   0  0  0  0  0  0  0  0  0  0  0  0
  -22.8376  -38.6376   -6.7340 C   0  0  0  0  0  0  0  0  0  0  0  0
  -21.9324  -37.6581   -6.4281 C   0  0  0  0  0  0  0  0  0  0  0  0
  -20.6713  -38.1071   -6.1280 C   0  0  0  0  0  0  0  0  0  0  0  0
  -23.6212  -40.7630   -7.0873 O   0  0  0  0  0  0  0  0  0  0  0  0
  -24.3006  -41.8726   -6.6454 C   0  0  0  0  0  0  0  0  0  0  0  0
  -23.6490  -43.1850   -7.0344 C   0  0  0  0  0  0  0  0  0  0  0  0
  -22.9653  -43.8605   -5.8871 C   0  0  0  0  0  0  0  0  0  0  0  0
  -22.4643  -45.2227   -6.2867 C   0  0  0  0  0  0  0  0  0  0  0  0
  -21.5155  -45.2746   -7.2669 O   0  0  0  0  0  0  0  0  0  0  0  0
  -20.5597  -44.4981   -7.8803 C   0  0  0  0  0  0  0  0  0  0  0  0
  -19.5222  -43.7724   -7.3233 C   0  0  0  0  0  0  0  0  0  0  0  0
  -18.7092  -43.0773   -8.1850 C   0  0  0  0  0  0  0  0  0  0  0  0
  -18.9696  -43.1409   -9.5804 C   0  0  0  0  0  0  0  0  0  0  0  0
  -19.9652  -43.8379  -10.1230 N   0  0  0  0  0  0  0  0  0  0  0  0
  -20.7450  -44.5045   -9.2791 C   0  0  0  0  0  0  0  0  0  0  0  0
  -17.5433  -42.2029   -7.9445 C   0  0  0  0  0  0  0  0  0  0  0  0
  -16.5218  -42.5106   -8.7225 O   0  0  0  0  0  0  0  0  0  0  0  0
  -17.3524  -41.1173   -7.0394 N   0  0  0  0  0  0  0  0  0  0  0  0
  -13.7550  -39.6501   -9.6823 C   0  0  0  0  0  0  0  0  0  0  0  0
  -13.0484  -38.4752   -9.6290 C   0  0  0  0  0  0  0  0  0  0  0  0
  -12.9997  -37.9808  -10.9072 C   0  0  0  0  0  0  0  0  0  0  0  0
  -12.3468  -36.7219  -11.3939 C   0  0  0  0  0  0  0  0  0  0  0  0
  -12.4155  -36.6555  -12.9136 C   0  0  0  0  0  0  0  0  0  0  0  0
  -11.7648  -35.4160  -13.4462 C   0  0  0  0  0  0  0  0  0  0  0  0
  -13.8608  -36.6993  -13.3311 C   0  0  0  0  0  0  0  0  0  0  0  0
  -11.6901  -37.8551  -13.5127 C   0  0  0  0  0  0  0  0  0  0  0  0
  -13.6493  -38.8341  -11.6591 O   0  0  0  0  0  0  0  0  0  0  0  0
  -14.1004  -39.8231  -10.9541 N   0  0  0  0  0  0  0  0  0  0  0  0
  2  1  1  6
  2  3  1  0
  3  4  1  0
  4  5  1  0
  5  6  1  6
  5  7  1  0
  7  8  1  1
  8  9  1  0
  9 10  2  0
 10 11  1  0
 11 12  2  0
 12 13  1  0
 13 14  2  0
 11 15  1  0
 15 16  1  0
 16 17  1  0
 17 18  1  0
 18 19  1  0
 19 20  1  0
 20 21  1  0
 21 22  2  0
 22 23  1  0
 23 24  2  0
 24 25  1  0
 25 26  2  0
 23 27  1  0
 27 28  2  0
 27 29  1  0
  2 30  1  0
 30 31  1  0
 31 32  2  0
 32 33  1  0
 33 34  1  0
 34 35  1  0
 34 36  1  0
 34 37  1  0
 32 38  1  0
 38 39  1  0
 14  9  1  0
 26 21  1  0
 29  7  1  0
 39 30  2  0
M  END
$$$$
