
     RDKit          3D

 39 42  0  0  0  0  0  0  0  0999 V2000
  -16.5031  -36.8848   -7.8490 C   0  0  0  0  0  0  0  0  0  0  0  0
  -17.9664  -37.1835   -7.6181 C   0  0  2  0  0  0  0  0  0  0  0  0
  -18.0355  -38.3816   -6.8027 N   0  0  0  0  0  0  0  0  0  0  0  0
  -16.7527  -38.8686   -6.4119 C   0  0  0  0  0  0  0  0  0  0  0  0
  -15.9826  -39.5112   -7.5263 C   0  0  1  0  0  0  0  0  0  0  0  0
  -14.7956  -40.0211   -7.0199 O   0  0  0  0  0  0  0  0  0  0  0  0
  -16.7501  -40.6633   -8.1732 C   0  0  2  0  0  0  0  0  0  0  0  0
  -15.9110  -41.3689   -9.2388 C   0  0  0  0  0  0  0  0  0  0  0  0
  -15.6876  -42.8190   -8.8965 C   0  0  0  0  0  0  0  0  0  0  0  0
  -16.5260  -43.9012   -9.0163 C   0  0  0  0  0  0  0  0  0  0  0  0
  -16.0399  -45.1313   -8.6111 C   0  0  0  0  0  0  0  0  0  0  0  0
  -14.7271  -45.2471   -8.0943 C   0  0  0  0  0  0  0  0  0  0  0  0
  -13.8746  -44.1846   -7.9650 C   0  0  0  0  0  0  0  0  0  0  0  0
  -14.3842  -42.9789   -8.3758 C   0  0  0  0  0  0  0  0  0  0  0  0
  -16.6605  -46.3603   -8.6226 O   0  0  0  0  0  0  0  0  0  0  0  0
  -17.3861  -47.1478   -9.4836 C   0  0  0  0  0  0  0  0  0  0  0  0
  -18.8383  -46.7333   -9.6162 C   0  0  0  0  0  0  0  0  0  0  0  0
  -19.1342  -46.0481  -10.9135 C   0  0  0  0  0  0  0  0  0  0  0  0
  -20.6100  -45.7900  -11.0606 C   0  0  0  0  0  0  0  0  0  0  0  0
  -21.1907  -44.9569  -10.1482 O   0  0  0  0  0  0  0  0  0  0  0  0
  -20.8801  -43.9619   -9.2504 C   0  0  0  0  0  0  0  0  0  0  0  0
  -20.1858  -42.7817   -9.4469 C   0  0  0  0  0  0  0  0  0  0  0  0
  -20.0190  -41.9628   -8.3568 C   0  0  0  0  0  0  0  0  0  0  0  0
  -20.5616  -42.3620   -7.1057 C   0  0  0  0  0  0  0  0  0  0  0  0
  -21.2315  -43.4952   -6.9099 N   0  0  0  0  0  0  0  0  0  0  0  0
  -21.3848  -44.2790   -7.9714 C   0  0  0  0  0  0  0  0  0  0  0  0
  -19.3314  -40.6650   -8.1999 C   0  0  0  0  0  0  0  0  0  0  0  0
  -20.0804  -39.7779   -7.5711 O   0  0  0  0  0  0  0  0  0  0  0  0
  -18.0334  -40.2333   -8.6037 N   0  0  0  0  0  0  0  0  0  0  0  0
  -18.5933  -37.4050   -8.9513 C   0  0  0  0  0  0  0  0  0  0  0  0
  -18.0188  -37.3517  -10.1961 C   0  0  0  0  0  0  0  0  0  0  0  0
  -19.0093  -37.6249  -11.1044 C   0  0  0  0  0  0  0  0  0  0  0  0
  -18.9090  -37.6911  -12.5990 C   0  0  0  0  0  0  0  0  0  0  0  0
  -19.1084  -36.3040  -13.1946 C   0  0  0  0  0  0  0  0  0  0  0  0
  -20.3645  -35.6593  -12.6949 C   0  0  0  0  0  0  0  0  0  0  0  0
  -19.1533  -36.4274  -14.6939 C   0  0  0  0  0  0  0  0  0  0  0  0
  -17.9391  -35.4062  -12.8062 C   0  0  0  0  0  0  0  0  0  0  0  0
  -20.1022  -37.8255  -10.4111 O   0  0  0  0  0  0  0  0  0  0  0  0
  -19.8752  -37.7002   -9.1417 N   0  0  0  0  0  0  0  0  0  0  0  0
  2  1  1  6
  2  3  1  0
  3  4  1  0
  4  5  1  0
  5  6  1  1
  5  7  1  0
  7  8  1  6
  8  9  1  0
  9 10  2  0
 10 11  1  0
 11 12  2  0
 12 13  1  0
 13 14  2  0
 11 15  1  0
 15 16  1  0
 16 17  1  0
 17 18  1  0
 18 19  1  0
 19 20  1  0
 20 21  1  0
 21 22  2  0
 22 23  1  0
 23 24  2  0
 24 25  1  0
 25 26  2  0
 23 27  1  0
 27 28  2  0
 27 29  1  0
  2 30  1  0
 30 31  1  0
 31 32  2  0
 32 33  1  0
 33 34  1  0
 34 35  1  0
 34 36  1  0
 34 37  1  0
 32 38  1  0
 38 39  1  0
 14  9  1  0
 26 21  1  0
 29  7  1  0
 39 30  2  0
M  END
$$$$
