
     RDKit          3D

 39 42  0  0  0  0  0  0  0  0999 V2000
  -14.8994  -36.6563  -10.0207 C   0  0  0  0  0  0  0  0  0  0  0  0
  -14.5284  -38.0616  -10.4348 C   0  0  2  0  0  0  0  0  0  0  0  0
  -14.9114  -38.9435   -9.3482 N   0  0  0  0  0  0  0  0  0  0  0  0
  -16.2829  -39.3329   -9.3990 C   0  0  0  0  0  0  0  0  0  0  0  0
  -17.1861  -38.4840   -8.5553 C   0  0  1  0  0  0  0  0  0  0  0  0
  -17.9015  -37.6276   -9.3799 O   0  0  0  0  0  0  0  0  0  0  0  0
  -18.1900  -39.3174   -7.7600 C   0  0  2  0  0  0  0  0  0  0  0  0
  -19.0077  -38.4494   -6.8034 C   0  0  0  0  0  0  0  0  0  0  0  0
  -20.4793  -38.5120   -7.1201 C   0  0  0  0  0  0  0  0  0  0  0  0
  -21.4099  -39.4830   -6.8381 C   0  0  0  0  0  0  0  0  0  0  0  0
  -22.7077  -39.2640   -7.2638 C   0  0  0  0  0  0  0  0  0  0  0  0
  -23.0414  -38.0792   -7.9629 C   0  0  0  0  0  0  0  0  0  0  0  0
  -22.1326  -37.0989   -8.2556 C   0  0  0  0  0  0  0  0  0  0  0  0
  -20.8549  -37.3439   -7.8200 C   0  0  0  0  0  0  0  0  0  0  0  0
  -23.8199  -40.0620   -7.1153 O   0  0  0  0  0  0  0  0  0  0  0  0
  -24.4680  -40.7647   -6.1283 C   0  0  0  0  0  0  0  0  0  0  0  0
  -23.8222  -42.0964   -5.7997 C   0  0  0  0  0  0  0  0  0  0  0  0
  -23.0808  -42.0812   -4.4997 C   0  0  0  0  0  0  0  0  0  0  0  0
  -22.5855  -43.4585   -4.1474 C   0  0  0  0  0  0  0  0  0  0  0  0
  -21.6817  -44.0312   -4.9953 O   0  0  0  0  0  0  0  0  0  0  0  0
  -20.7622  -43.7063   -5.9657 C   0  0  0  0  0  0  0  0  0  0  0  0
  -19.7073  -42.8127   -5.9176 C   0  0  0  0  0  0  0  0  0  0  0  0
  -18.9409  -42.6850   -7.0503 C   0  0  0  0  0  0  0  0  0  0  0  0
  -19.2638  -43.4663   -8.1924 C   0  0  0  0  0  0  0  0  0  0  0  0
  -20.2763  -44.3285   -8.2451 N   0  0  0  0  0  0  0  0  0  0  0  0
  -21.0106  -44.4417   -7.1440 C   0  0  0  0  0  0  0  0  0  0  0  0
  -17.7737  -41.8327   -7.3549 C   0  0  0  0  0  0  0  0  0  0  0  0
  -16.7857  -42.5183   -7.8998 O   0  0  0  0  0  0  0  0  0  0  0  0
  -17.5523  -40.4369   -7.1624 N   0  0  0  0  0  0  0  0  0  0  0  0
  -13.0551  -38.0888  -10.6541 C   0  0  0  0  0  0  0  0  0  0  0  0
  -12.3265  -37.5713  -11.6951 C   0  0  0  0  0  0  0  0  0  0  0  0
  -11.0095  -37.8566  -11.4408 C   0  0  0  0  0  0  0  0  0  0  0  0
   -9.8064  -37.5127  -12.2668 C   0  0  0  0  0  0  0  0  0  0  0  0
   -9.1262  -36.2729  -11.7023 C   0  0  0  0  0  0  0  0  0  0  0  0
   -7.9947  -35.8153  -12.5703 C   0  0  0  0  0  0  0  0  0  0  0  0
   -8.6206  -36.5900  -10.3206 C   0  0  0  0  0  0  0  0  0  0  0  0
  -10.1331  -35.1318  -11.6117 C   0  0  0  0  0  0  0  0  0  0  0  0
  -10.9846  -38.5084  -10.3051 O   0  0  0  0  0  0  0  0  0  0  0  0
  -12.1804  -38.6537   -9.8279 N   0  0  0  0  0  0  0  0  0  0  0  0
  2  1  1  1
  2  3  1  0
  3  4  1  0
  4  5  1  0
  5  6  1  6
  5  7  1  0
  7  8  1  1
  8  9  1  0
  9 10  2  0
 10 11  1  0
 11 12  2  0
 12 13  1  0
 13 14  2  0
 11 15  1  0
 15 16  1  0
 16 17  1  0
 17 18  1  0
 18 19  1  0
 19 20  1  0
 20 21  1  0
 21 22  2  0
 22 23  1  0
 23 24  2  0
 24 25  1  0
 25 26  2  0
 23 27  1  0
 27 28  2  0
 27 29  1  0
  2 30  1  0
 30 31  1  0
 31 32  2  0
 32 33  1  0
 33 34  1  0
 34 35  1  0
 34 36  1  0
 34 37  1  0
 32 38  1  0
 38 39  1  0
 14  9  1  0
 26 21  1  0
 29  7  1  0
 39 30  2  0
M  END
$$$$
