
     RDKit          3D

 39 42  0  0  0  0  0  0  0  0999 V2000
  -14.7768  -40.9463  -11.2801 C   0  0  0  0  0  0  0  0  0  0  0  0
  -13.7285  -40.4909  -10.2914 C   0  0  2  0  0  0  0  0  0  0  0  0
  -14.4298  -39.9652   -9.1351 N   0  0  0  0  0  0  0  0  0  0  0  0
  -15.8183  -40.2929   -9.1249 C   0  0  0  0  0  0  0  0  0  0  0  0
  -16.6480  -39.3908   -8.2611 C   0  0  1  0  0  0  0  0  0  0  0  0
  -17.3563  -38.5152   -9.0716 O   0  0  0  0  0  0  0  0  0  0  0  0
  -17.6560  -40.1652   -7.4131 C   0  0  2  0  0  0  0  0  0  0  0  0
  -18.2584  -39.2876   -6.3157 C   0  0  0  0  0  0  0  0  0  0  0  0
  -19.7518  -39.1593   -6.4671 C   0  0  0  0  0  0  0  0  0  0  0  0
  -20.7579  -40.0383   -6.1453 C   0  0  0  0  0  0  0  0  0  0  0  0
  -22.0573  -39.6421   -6.4062 C   0  0  0  0  0  0  0  0  0  0  0  0
  -22.3172  -38.3764   -6.9845 C   0  0  0  0  0  0  0  0  0  0  0  0
  -21.3328  -37.4850   -7.3139 C   0  0  0  0  0  0  0  0  0  0  0  0
  -20.0553  -37.9054   -7.0426 C   0  0  0  0  0  0  0  0  0  0  0  0
  -23.2357  -40.3189   -6.1848 O   0  0  0  0  0  0  0  0  0  0  0  0
  -23.8567  -41.0188   -5.1786 C   0  0  0  0  0  0  0  0  0  0  0  0
  -23.3452  -42.4362   -5.0125 C   0  0  0  0  0  0  0  0  0  0  0  0
  -22.4751  -42.6059   -3.8066 C   0  0  0  0  0  0  0  0  0  0  0  0
  -22.1151  -44.0533   -3.6030 C   0  0  0  0  0  0  0  0  0  0  0  0
  -21.3808  -44.6564   -4.5832 O   0  0  0  0  0  0  0  0  0  0  0  0
  -20.5357  -44.3627   -5.6282 C   0  0  0  0  0  0  0  0  0  0  0  0
  -19.3817  -43.6000   -5.6419 C   0  0  0  0  0  0  0  0  0  0  0  0
  -18.7285  -43.4717   -6.8434 C   0  0  0  0  0  0  0  0  0  0  0  0
  -19.2612  -44.1204   -7.9900 C   0  0  0  0  0  0  0  0  0  0  0  0
  -20.3700  -44.8563   -7.9836 N   0  0  0  0  0  0  0  0  0  0  0  0
  -20.9931  -44.9715   -6.8161 C   0  0  0  0  0  0  0  0  0  0  0  0
  -17.5056  -42.7351   -7.2222 C   0  0  0  0  0  0  0  0  0  0  0  0
  -16.6699  -43.4832   -7.9189 O   0  0  0  0  0  0  0  0  0  0  0  0
  -17.0987  -41.3925   -6.9656 N   0  0  0  0  0  0  0  0  0  0  0  0
  -12.9184  -39.4313  -10.9550 C   0  0  0  0  0  0  0  0  0  0  0  0
  -13.1057  -38.0721  -10.9540 C   0  0  0  0  0  0  0  0  0  0  0  0
  -12.0984  -37.5301  -11.7103 C   0  0  0  0  0  0  0  0  0  0  0  0
  -11.8452  -36.0863  -12.0258 C   0  0  0  0  0  0  0  0  0  0  0  0
  -11.7364  -35.8956  -13.5326 C   0  0  0  0  0  0  0  0  0  0  0  0
  -10.5705  -36.6414  -14.1050 C   0  0  0  0  0  0  0  0  0  0  0  0
  -11.5998  -34.4248  -13.8215 C   0  0  0  0  0  0  0  0  0  0  0  0
  -12.9992  -36.4180  -14.2082 C   0  0  0  0  0  0  0  0  0  0  0  0
  -11.3668  -38.5336  -12.1262 O   0  0  0  0  0  0  0  0  0  0  0  0
  -11.8353  -39.6603  -11.6905 N   0  0  0  0  0  0  0  0  0  0  0  0
  2  1  1  6
  2  3  1  0
  3  4  1  0
  4  5  1  0
  5  6  1  6
  5  7  1  0
  7  8  1  1
  8  9  1  0
  9 10  2  0
 10 11  1  0
 11 12  2  0
 12 13  1  0
 13 14  2  0
 11 15  1  0
 15 16  1  0
 16 17  1  0
 17 18  1  0
 18 19  1  0
 19 20  1  0
 20 21  1  0
 21 22  2  0
 22 23  1  0
 23 24  2  0
 24 25  1  0
 25 26  2  0
 23 27  1  0
 27 28  2  0
 27 29  1  0
  2 30  1  0
 30 31  1  0
 31 32  2  0
 32 33  1  0
 33 34  1  0
 34 35  1  0
 34 36  1  0
 34 37  1  0
 32 38  1  0
 38 39  1  0
 14  9  1  0
 26 21  1  0
 29  7  1  0
 39 30  2  0
M  END
$$$$
