
     RDKit          3D

 39 42  0  0  0  0  0  0  0  0999 V2000
  -13.1042  -41.9853   -9.4044 C   0  0  0  0  0  0  0  0  0  0  0  0
  -13.6212  -40.6463   -8.9314 C   0  0  2  0  0  0  0  0  0  0  0  0
  -15.0596  -40.7694   -8.7866 N   0  0  0  0  0  0  0  0  0  0  0  0
  -15.7432  -39.5223   -8.8991 C   0  0  0  0  0  0  0  0  0  0  0  0
  -16.4889  -39.1253   -7.6603 C   0  0  1  0  0  0  0  0  0  0  0  0
  -17.0598  -37.8762   -7.8575 O   0  0  0  0  0  0  0  0  0  0  0  0
  -17.6104  -40.1054   -7.3189 C   0  0  2  0  0  0  0  0  0  0  0  0
  -18.3804  -39.6660   -6.0734 C   0  0  0  0  0  0  0  0  0  0  0  0
  -19.8335  -39.4142   -6.3814 C   0  0  0  0  0  0  0  0  0  0  0  0
  -20.8713  -40.2969   -6.5608 C   0  0  0  0  0  0  0  0  0  0  0  0
  -22.1176  -39.7660   -6.8409 C   0  0  0  0  0  0  0  0  0  0  0  0
  -22.2937  -38.3647   -6.9363 C   0  0  0  0  0  0  0  0  0  0  0  0
  -21.2762  -37.4665   -6.7624 C   0  0  0  0  0  0  0  0  0  0  0  0
  -20.0530  -38.0225   -6.4849 C   0  0  0  0  0  0  0  0  0  0  0  0
  -23.3116  -40.4151   -7.0620 O   0  0  0  0  0  0  0  0  0  0  0  0
  -24.0755  -41.4045   -6.4914 C   0  0  0  0  0  0  0  0  0  0  0  0
  -23.5863  -42.8072   -6.7938 C   0  0  0  0  0  0  0  0  0  0  0  0
  -22.9114  -43.4551   -5.6256 C   0  0  0  0  0  0  0  0  0  0  0  0
  -22.5774  -44.8917   -5.9268 C   0  0  0  0  0  0  0  0  0  0  0  0
  -21.6969  -45.1267   -6.9433 O   0  0  0  0  0  0  0  0  0  0  0  0
  -20.7028  -44.5113   -7.6684 C   0  0  0  0  0  0  0  0  0  0  0  0
  -19.5656  -43.8580   -7.2285 C   0  0  0  0  0  0  0  0  0  0  0  0
  -18.7359  -43.3284   -8.1866 C   0  0  0  0  0  0  0  0  0  0  0  0
  -19.0812  -43.4790   -9.5567 C   0  0  0  0  0  0  0  0  0  0  0  0
  -20.1729  -44.1071   -9.9867 N   0  0  0  0  0  0  0  0  0  0  0  0
  -20.9677  -44.6135   -9.0506 C   0  0  0  0  0  0  0  0  0  0  0  0
  -17.4741  -42.5680   -8.0810 C   0  0  0  0  0  0  0  0  0  0  0  0
  -16.5362  -43.0474   -8.8770 O   0  0  0  0  0  0  0  0  0  0  0  0
  -17.1205  -41.4381   -7.2857 N   0  0  0  0  0  0  0  0  0  0  0  0
  -13.2710  -39.6390   -9.9717 C   0  0  0  0  0  0  0  0  0  0  0  0
  -12.6541  -38.4225   -9.8239 C   0  0  0  0  0  0  0  0  0  0  0  0
  -12.5597  -37.8686  -11.0749 C   0  0  0  0  0  0  0  0  0  0  0  0
  -11.9680  -36.5474  -11.4655 C   0  0  0  0  0  0  0  0  0  0  0  0
  -12.0331  -36.3761  -12.9771 C   0  0  0  0  0  0  0  0  0  0  0  0
  -11.5681  -35.0177  -13.4035 C   0  0  0  0  0  0  0  0  0  0  0  0
  -13.4526  -36.5993  -13.4248 C   0  0  0  0  0  0  0  0  0  0  0  0
  -11.1336  -37.4073  -13.6494 C   0  0  0  0  0  0  0  0  0  0  0  0
  -13.0984  -38.7291  -11.9023 O   0  0  0  0  0  0  0  0  0  0  0  0
  -13.5222  -39.7773  -11.2696 N   0  0  0  0  0  0  0  0  0  0  0  0
  2  1  1  6
  2  3  1  0
  3  4  1  0
  4  5  1  0
  5  6  1  6
  5  7  1  0
  7  8  1  1
  8  9  1  0
  9 10  2  0
 10 11  1  0
 11 12  2  0
 12 13  1  0
 13 14  2  0
 11 15  1  0
 15 16  1  0
 16 17  1  0
 17 18  1  0
 18 19  1  0
 19 20  1  0
 20 21  1  0
 21 22  2  0
 22 23  1  0
 23 24  2  0
 24 25  1  0
 25 26  2  0
 23 27  1  0
 27 28  2  0
 27 29  1  0
  2 30  1  0
 30 31  1  0
 31 32  2  0
 32 33  1  0
 33 34  1  0
 34 35  1  0
 34 36  1  0
 34 37  1  0
 32 38  1  0
 38 39  1  0
 14  9  1  0
 26 21  1  0
 29  7  1  0
 39 30  2  0
M  END
$$$$
