
     RDKit          3D

 39 42  0  0  0  0  0  0  0  0999 V2000
  -14.8165  -41.2550  -10.9169 C   0  0  0  0  0  0  0  0  0  0  0  0
  -13.7478  -40.6943  -10.0073 C   0  0  2  0  0  0  0  0  0  0  0  0
  -14.3746  -40.4213   -8.7276 N   0  0  0  0  0  0  0  0  0  0  0  0
  -15.7064  -39.9246   -8.8501 C   0  0  0  0  0  0  0  0  0  0  0  0
  -16.1547  -39.0965   -7.6833 C   0  0  1  0  0  0  0  0  0  0  0  0
  -16.3912  -37.7991   -8.1144 O   0  0  0  0  0  0  0  0  0  0  0  0
  -17.4445  -39.6256   -7.0576 C   0  0  2  0  0  0  0  0  0  0  0  0
  -18.2849  -38.4955   -6.4628 C   0  0  0  0  0  0  0  0  0  0  0  0
  -19.6350  -38.4025   -7.1250 C   0  0  0  0  0  0  0  0  0  0  0  0
  -20.7646  -39.1662   -6.9543 C   0  0  0  0  0  0  0  0  0  0  0  0
  -21.8730  -38.8428   -7.7161 C   0  0  0  0  0  0  0  0  0  0  0  0
  -21.8226  -37.7639   -8.6312 C   0  0  0  0  0  0  0  0  0  0  0  0
  -20.7098  -36.9900   -8.8189 C   0  0  0  0  0  0  0  0  0  0  0  0
  -19.6275  -37.3340   -8.0491 C   0  0  0  0  0  0  0  0  0  0  0  0
  -23.1155  -39.4355   -7.7422 O   0  0  0  0  0  0  0  0  0  0  0  0
  -24.0837  -39.8543   -6.8618 C   0  0  0  0  0  0  0  0  0  0  0  0
  -23.7789  -41.1857   -6.2040 C   0  0  0  0  0  0  0  0  0  0  0  0
  -23.3566  -41.0482   -4.7748 C   0  0  0  0  0  0  0  0  0  0  0  0
  -23.2094  -42.3984   -4.1256 C   0  0  0  0  0  0  0  0  0  0  0  0
  -22.2574  -43.2340   -4.6349 O   0  0  0  0  0  0  0  0  0  0  0  0
  -21.1012  -43.2190   -5.3802 C   0  0  0  0  0  0  0  0  0  0  0  0
  -19.9403  -42.4904   -5.1928 C   0  0  0  0  0  0  0  0  0  0  0  0
  -18.9300  -42.6742   -6.1050 C   0  0  0  0  0  0  0  0  0  0  0  0
  -19.1249  -43.5899   -7.1740 C   0  0  0  0  0  0  0  0  0  0  0  0
  -20.2385  -44.2947   -7.3595 N   0  0  0  0  0  0  0  0  0  0  0  0
  -21.2084  -44.1070   -6.4715 C   0  0  0  0  0  0  0  0  0  0  0  0
  -17.5901  -42.0638   -6.2222 C   0  0  0  0  0  0  0  0  0  0  0  0
  -16.6456  -42.9681   -6.4046 O   0  0  0  0  0  0  0  0  0  0  0  0
  -17.1692  -40.7020   -6.1728 N   0  0  0  0  0  0  0  0  0  0  0  0
  -13.2395  -39.4419  -10.6338 C   0  0  0  0  0  0  0  0  0  0  0  0
  -13.3814  -39.0024  -11.9258 C   0  0  0  0  0  0  0  0  0  0  0  0
  -12.7327  -37.7972  -12.0106 C   0  0  0  0  0  0  0  0  0  0  0  0
  -12.5884  -36.8998  -13.2031 C   0  0  0  0  0  0  0  0  0  0  0  0
  -13.3556  -35.6047  -12.9741 C   0  0  0  0  0  0  0  0  0  0  0  0
  -14.7764  -35.8627  -12.5765 C   0  0  0  0  0  0  0  0  0  0  0  0
  -13.3140  -34.7919  -14.2402 C   0  0  0  0  0  0  0  0  0  0  0  0
  -12.6965  -34.8094  -11.8528 C   0  0  0  0  0  0  0  0  0  0  0  0
  -12.2411  -37.5570  -10.8207 O   0  0  0  0  0  0  0  0  0  0  0  0
  -12.5303  -38.5150   -9.9978 N   0  0  0  0  0  0  0  0  0  0  0  0
  2  1  1  6
  2  3  1  0
  3  4  1  0
  4  5  1  0
  5  6  1  6
  5  7  1  0
  7  8  1  1
  8  9  1  0
  9 10  2  0
 10 11  1  0
 11 12  2  0
 12 13  1  0
 13 14  2  0
 11 15  1  0
 15 16  1  0
 16 17  1  0
 17 18  1  0
 18 19  1  0
 19 20  1  0
 20 21  1  0
 21 22  2  0
 22 23  1  0
 23 24  2  0
 24 25  1  0
 25 26  2  0
 23 27  1  0
 27 28  2  0
 27 29  1  0
  2 30  1  0
 30 31  1  0
 31 32  2  0
 32 33  1  0
 33 34  1  0
 34 35  1  0
 34 36  1  0
 34 37  1  0
 32 38  1  0
 38 39  1  0
 14  9  1  0
 26 21  1  0
 29  7  1  0
 39 30  2  0
M  END
$$$$
