
     RDKit          3D

 39 42  0  0  0  0  0  0  0  0999 V2000
  -18.9644  -37.7025   -6.9719 C   0  0  0  0  0  0  0  0  0  0  0  0
  -18.5536  -39.0578   -6.4442 C   0  0  2  0  0  0  0  0  0  0  0  0
  -17.3682  -39.4615   -7.1768 N   0  0  0  0  0  0  0  0  0  0  0  0
  -16.1723  -38.8595   -6.6838 C   0  0  0  0  0  0  0  0  0  0  0  0
  -15.5431  -37.8899   -7.6389 C   0  0  1  0  0  0  0  0  0  0  0  0
  -14.2691  -37.5746   -7.1886 O   0  0  0  0  0  0  0  0  0  0  0  0
  -15.4136  -38.4650   -9.0486 C   0  0  2  0  0  0  0  0  0  0  0  0
  -15.3166  -37.3590  -10.0997 C   0  0  0  0  0  0  0  0  0  0  0  0
  -14.0168  -37.4289  -10.8581 C   0  0  0  0  0  0  0  0  0  0  0  0
  -13.6250  -38.2626  -11.8779 C   0  0  0  0  0  0  0  0  0  0  0  0
  -12.3490  -38.0928  -12.3846 C   0  0  0  0  0  0  0  0  0  0  0  0
  -11.4963  -37.0939  -11.8565 C   0  0  0  0  0  0  0  0  0  0  0  0
  -11.8635  -36.2529  -10.8416 C   0  0  0  0  0  0  0  0  0  0  0  0
  -13.1341  -36.4445  -10.3607 C   0  0  0  0  0  0  0  0  0  0  0  0
  -11.7129  -38.7821  -13.3926 O   0  0  0  0  0  0  0  0  0  0  0  0
  -11.9584  -39.2008  -14.6781 C   0  0  0  0  0  0  0  0  0  0  0  0
  -12.8217  -40.4441  -14.7629 C   0  0  0  0  0  0  0  0  0  0  0  0
  -14.2216  -40.1542  -15.2061 C   0  0  0  0  0  0  0  0  0  0  0  0
  -14.9934  -41.4294  -15.4169 C   0  0  0  0  0  0  0  0  0  0  0  0
  -15.1889  -42.2268  -14.3262 O   0  0  0  0  0  0  0  0  0  0  0  0
  -15.2045  -42.1830  -12.9513 C   0  0  0  0  0  0  0  0  0  0  0  0
  -15.9139  -41.3517  -12.1032 C   0  0  0  0  0  0  0  0  0  0  0  0
  -15.7337  -41.5309  -10.7533 C   0  0  0  0  0  0  0  0  0  0  0  0
  -14.8454  -42.5455  -10.3054 C   0  0  0  0  0  0  0  0  0  0  0  0
  -14.1608  -43.3493  -11.1156 N   0  0  0  0  0  0  0  0  0  0  0  0
  -14.3426  -43.1651  -12.4185 C   0  0  0  0  0  0  0  0  0  0  0  0
  -16.3026  -40.8284   -9.5852 C   0  0  0  0  0  0  0  0  0  0  0  0
  -16.7726  -41.6673   -8.6804 O   0  0  0  0  0  0  0  0  0  0  0  0
  -16.4198  -39.4382   -9.2888 N   0  0  0  0  0  0  0  0  0  0  0  0
  -19.6838  -39.9958   -6.6934 C   0  0  0  0  0  0  0  0  0  0  0  0
  -20.1129  -41.0538   -5.9324 C   0  0  0  0  0  0  0  0  0  0  0  0
  -21.1840  -41.6068   -6.5861 C   0  0  0  0  0  0  0  0  0  0  0  0
  -22.0159  -42.7856   -6.1781 C   0  0  0  0  0  0  0  0  0  0  0  0
  -23.4832  -42.3853   -6.1055 C   0  0  0  0  0  0  0  0  0  0  0  0
  -24.3398  -43.5019   -5.5930 C   0  0  0  0  0  0  0  0  0  0  0  0
  -23.9378  -41.9762   -7.4807 C   0  0  0  0  0  0  0  0  0  0  0  0
  -23.6458  -41.2024   -5.1576 C   0  0  0  0  0  0  0  0  0  0  0  0
  -21.3607  -40.8977   -7.6729 O   0  0  0  0  0  0  0  0  0  0  0  0
  -20.4862  -39.9449   -7.7518 N   0  0  0  0  0  0  0  0  0  0  0  0
  2  1  1  6
  2  3  1  0
  3  4  1  0
  4  5  1  0
  5  6  1  1
  5  7  1  0
  7  8  1  6
  8  9  1  0
  9 10  2  0
 10 11  1  0
 11 12  2  0
 12 13  1  0
 13 14  2  0
 11 15  1  0
 15 16  1  0
 16 17  1  0
 17 18  1  0
 18 19  1  0
 19 20  1  0
 20 21  1  0
 21 22  2  0
 22 23  1  0
 23 24  2  0
 24 25  1  0
 25 26  2  0
 23 27  1  0
 27 28  2  0
 27 29  1  0
  2 30  1  0
 30 31  1  0
 31 32  2  0
 32 33  1  0
 33 34  1  0
 34 35  1  0
 34 36  1  0
 34 37  1  0
 32 38  1  0
 38 39  1  0
 14  9  1  0
 26 21  1  0
 29  7  1  0
 39 30  2  0
M  END
$$$$
