
     RDKit          3D

 39 42  0  0  0  0  0  0  0  0999 V2000
  -14.3205  -40.9082  -10.2905 C   0  0  0  0  0  0  0  0  0  0  0  0
  -13.5349  -39.7948   -9.6371 C   0  0  2  0  0  0  0  0  0  0  0  0
  -14.3201  -39.3183   -8.5140 N   0  0  0  0  0  0  0  0  0  0  0  0
  -15.5203  -40.0630   -8.3129 C   0  0  0  0  0  0  0  0  0  0  0  0
  -16.6009  -39.2944   -7.6130 C   0  0  1  0  0  0  0  0  0  0  0  0
  -17.1556  -38.3840   -8.5012 O   0  0  0  0  0  0  0  0  0  0  0  0
  -17.7229  -40.2001   -7.1074 C   0  0  2  0  0  0  0  0  0  0  0  0
  -18.6027  -39.4852   -6.0817 C   0  0  0  0  0  0  0  0  0  0  0  0
  -20.0313  -39.3877   -6.5502 C   0  0  0  0  0  0  0  0  0  0  0  0
  -21.0295  -40.3320   -6.5651 C   0  0  0  0  0  0  0  0  0  0  0  0
  -22.2610  -39.9489   -7.0654 C   0  0  0  0  0  0  0  0  0  0  0  0
  -22.4620  -38.6305   -7.5401 C   0  0  0  0  0  0  0  0  0  0  0  0
  -21.4839  -37.6736   -7.5359 C   0  0  0  0  0  0  0  0  0  0  0  0
  -20.2746  -38.0827   -7.0332 C   0  0  0  0  0  0  0  0  0  0  0  0
  -23.4170  -40.6857   -7.1935 O   0  0  0  0  0  0  0  0  0  0  0  0
  -24.2013  -41.5246   -6.4390 C   0  0  0  0  0  0  0  0  0  0  0  0
  -23.6557  -42.9343   -6.3238 C   0  0  0  0  0  0  0  0  0  0  0  0
  -23.0635  -43.2236   -4.9801 C   0  0  0  0  0  0  0  0  0  0  0  0
  -22.6718  -44.6726   -4.8661 C   0  0  0  0  0  0  0  0  0  0  0  0
  -21.7056  -45.1256   -5.7176 O   0  0  0  0  0  0  0  0  0  0  0  0
  -20.6704  -44.6775   -6.5051 C   0  0  0  0  0  0  0  0  0  0  0  0
  -19.5890  -43.8820   -6.1718 C   0  0  0  0  0  0  0  0  0  0  0  0
  -18.6965  -43.5848   -7.1727 C   0  0  0  0  0  0  0  0  0  0  0  0
  -18.9246  -44.1035   -8.4758 C   0  0  0  0  0  0  0  0  0  0  0  0
  -19.9621  -44.8702   -8.8029 N   0  0  0  0  0  0  0  0  0  0  0  0
  -20.8186  -45.1492   -7.8267 C   0  0  0  0  0  0  0  0  0  0  0  0
  -17.4660  -42.7677   -7.1802 C   0  0  0  0  0  0  0  0  0  0  0  0
  -16.4549  -43.3962   -7.7509 O   0  0  0  0  0  0  0  0  0  0  0  0
  -17.2058  -41.4546   -6.6880 N   0  0  0  0  0  0  0  0  0  0  0  0
  -13.3481  -38.7226  -10.6545 C   0  0  0  0  0  0  0  0  0  0  0  0
  -12.2768  -38.4914  -11.4799 C   0  0  0  0  0  0  0  0  0  0  0  0
  -12.5831  -37.3854  -12.2306 C   0  0  0  0  0  0  0  0  0  0  0  0
  -11.7517  -36.7158  -13.2833 C   0  0  0  0  0  0  0  0  0  0  0  0
  -11.1151  -35.4537  -12.7172 C   0  0  0  0  0  0  0  0  0  0  0  0
  -12.1447  -34.4866  -12.2193 C   0  0  0  0  0  0  0  0  0  0  0  0
  -10.2825  -34.8116  -13.7940 C   0  0  0  0  0  0  0  0  0  0  0  0
  -10.2126  -35.8167  -11.5433 C   0  0  0  0  0  0  0  0  0  0  0  0
  -13.7763  -37.0002  -11.8522 O   0  0  0  0  0  0  0  0  0  0  0  0
  -14.2416  -37.7765  -10.9251 N   0  0  0  0  0  0  0  0  0  0  0  0
  2  1  1  6
  2  3  1  0
  3  4  1  0
  4  5  1  0
  5  6  1  6
  5  7  1  0
  7  8  1  1
  8  9  1  0
  9 10  2  0
 10 11  1  0
 11 12  2  0
 12 13  1  0
 13 14  2  0
 11 15  1  0
 15 16  1  0
 16 17  1  0
 17 18  1  0
 18 19  1  0
 19 20  1  0
 20 21  1  0
 21 22  2  0
 22 23  1  0
 23 24  2  0
 24 25  1  0
 25 26  2  0
 23 27  1  0
 27 28  2  0
 27 29  1  0
  2 30  1  0
 30 31  1  0
 31 32  2  0
 32 33  1  0
 33 34  1  0
 34 35  1  0
 34 36  1  0
 34 37  1  0
 32 38  1  0
 38 39  1  0
 14  9  1  0
 26 21  1  0
 29  7  1  0
 39 30  2  0
M  END
$$$$
