
     RDKit          3D

 39 42  0  0  0  0  0  0  0  0999 V2000
  -12.9903  -40.9545   -9.2690 C   0  0  0  0  0  0  0  0  0  0  0  0
  -13.4225  -39.5239   -9.0440 C   0  0  2  0  0  0  0  0  0  0  0  0
  -14.5134  -39.5513   -8.0878 N   0  0  0  0  0  0  0  0  0  0  0  0
  -15.4186  -38.4590   -8.2385 C   0  0  0  0  0  0  0  0  0  0  0  0
  -16.4891  -38.4092   -7.1899 C   0  0  1  0  0  0  0  0  0  0  0  0
  -17.2476  -37.2618   -7.3727 O   0  0  0  0  0  0  0  0  0  0  0  0
  -17.4303  -39.6107   -7.2639 C   0  0  2  0  0  0  0  0  0  0  0  0
  -18.4222  -39.6197   -6.1005 C   0  0  0  0  0  0  0  0  0  0  0  0
  -19.8459  -39.5380   -6.5865 C   0  0  0  0  0  0  0  0  0  0  0  0
  -20.6591  -40.5055   -7.1259 C   0  0  0  0  0  0  0  0  0  0  0  0
  -21.9400  -40.1304   -7.4896 C   0  0  0  0  0  0  0  0  0  0  0  0
  -22.3744  -38.7957   -7.3059 C   0  0  0  0  0  0  0  0  0  0  0  0
  -21.5831  -37.8154   -6.7717 C   0  0  0  0  0  0  0  0  0  0  0  0
  -20.3194  -38.2175   -6.4200 C   0  0  0  0  0  0  0  0  0  0  0  0
  -22.9458  -40.8895   -8.0445 O   0  0  0  0  0  0  0  0  0  0  0  0
  -23.5663  -42.0983   -7.8400 C   0  0  0  0  0  0  0  0  0  0  0  0
  -22.7771  -43.2864   -8.3537 C   0  0  0  0  0  0  0  0  0  0  0  0
  -22.1407  -44.0829   -7.2580 C   0  0  0  0  0  0  0  0  0  0  0  0
  -21.4960  -45.3288   -7.8041 C   0  0  0  0  0  0  0  0  0  0  0  0
  -20.4656  -45.1626   -8.6842 O   0  0  0  0  0  0  0  0  0  0  0  0
  -19.5285  -44.2365   -9.0799 C   0  0  0  0  0  0  0  0  0  0  0  0
  -18.6063  -43.5361   -8.3232 C   0  0  0  0  0  0  0  0  0  0  0  0
  -17.7828  -42.6614   -8.9893 C   0  0  0  0  0  0  0  0  0  0  0  0
  -17.9166  -42.5257  -10.3974 C   0  0  0  0  0  0  0  0  0  0  0  0
  -18.8007  -43.1971  -11.1315 N   0  0  0  0  0  0  0  0  0  0  0  0
  -19.5920  -44.0386  -10.4755 C   0  0  0  0  0  0  0  0  0  0  0  0
  -16.7184  -41.7566   -8.5097 C   0  0  0  0  0  0  0  0  0  0  0  0
  -15.6120  -41.8688   -9.2214 O   0  0  0  0  0  0  0  0  0  0  0  0
  -16.6965  -40.8140   -7.4396 N   0  0  0  0  0  0  0  0  0  0  0  0
  -13.8728  -38.9813  -10.3563 C   0  0  0  0  0  0  0  0  0  0  0  0
  -13.3122  -37.9883  -11.1193 C   0  0  0  0  0  0  0  0  0  0  0  0
  -14.0970  -37.8520  -12.2356 C   0  0  0  0  0  0  0  0  0  0  0  0
  -13.9232  -36.9055  -13.3855 C   0  0  0  0  0  0  0  0  0  0  0  0
  -12.6052  -36.1560  -13.2463 C   0  0  0  0  0  0  0  0  0  0  0  0
  -12.4047  -35.1722  -14.3576 C   0  0  0  0  0  0  0  0  0  0  0  0
  -11.4821  -37.1580  -13.2358 C   0  0  0  0  0  0  0  0  0  0  0  0
  -12.5912  -35.3823  -11.9328 C   0  0  0  0  0  0  0  0  0  0  0  0
  -15.0639  -38.7274  -12.1175 O   0  0  0  0  0  0  0  0  0  0  0  0
  -14.9471  -39.4011  -11.0169 N   0  0  0  0  0  0  0  0  0  0  0  0
  2  1  1  6
  2  3  1  0
  3  4  1  0
  4  5  1  0
  5  6  1  6
  5  7  1  0
  7  8  1  1
  8  9  1  0
  9 10  2  0
 10 11  1  0
 11 12  2  0
 12 13  1  0
 13 14  2  0
 11 15  1  0
 15 16  1  0
 16 17  1  0
 17 18  1  0
 18 19  1  0
 19 20  1  0
 20 21  1  0
 21 22  2  0
 22 23  1  0
 23 24  2  0
 24 25  1  0
 25 26  2  0
 23 27  1  0
 27 28  2  0
 27 29  1  0
  2 30  1  0
 30 31  1  0
 31 32  2  0
 32 33  1  0
 33 34  1  0
 34 35  1  0
 34 36  1  0
 34 37  1  0
 32 38  1  0
 38 39  1  0
 14  9  1  0
 26 21  1  0
 29  7  1  0
 39 30  2  0
M  END
$$$$
