
     RDKit          3D

 39 42  0  0  0  0  0  0  0  0999 V2000
  -12.9948  -41.2893   -9.8358 C   0  0  0  0  0  0  0  0  0  0  0  0
  -13.7502  -40.0046   -9.5849 C   0  0  2  0  0  0  0  0  0  0  0  0
  -15.0603  -40.3697   -9.0796 N   0  0  0  0  0  0  0  0  0  0  0  0
  -15.8698  -39.2411   -8.7535 C   0  0  0  0  0  0  0  0  0  0  0  0
  -16.2389  -39.1584   -7.3026 C   0  0  1  0  0  0  0  0  0  0  0  0
  -16.6665  -37.8694   -7.0180 O   0  0  0  0  0  0  0  0  0  0  0  0
  -17.3686  -40.1195   -6.9353 C   0  0  2  0  0  0  0  0  0  0  0  0
  -18.1670  -39.6147   -5.7332 C   0  0  0  0  0  0  0  0  0  0  0  0
  -19.6124  -39.3807   -6.0878 C   0  0  0  0  0  0  0  0  0  0  0  0
  -20.6463  -40.2724   -6.2438 C   0  0  0  0  0  0  0  0  0  0  0  0
  -21.8855  -39.7581   -6.5807 C   0  0  0  0  0  0  0  0  0  0  0  0
  -22.0585  -38.3640   -6.7549 C   0  0  0  0  0  0  0  0  0  0  0  0
  -21.0448  -37.4571   -6.6057 C   0  0  0  0  0  0  0  0  0  0  0  0
  -19.8286  -37.9967   -6.2706 C   0  0  0  0  0  0  0  0  0  0  0  0
  -23.0744  -40.4189   -6.7944 O   0  0  0  0  0  0  0  0  0  0  0  0
  -23.8519  -41.3769   -6.1896 C   0  0  0  0  0  0  0  0  0  0  0  0
  -23.3566  -42.7934   -6.4052 C   0  0  0  0  0  0  0  0  0  0  0  0
  -22.7093  -43.3775   -5.1887 C   0  0  0  0  0  0  0  0  0  0  0  0
  -22.3693  -44.8280   -5.4049 C   0  0  0  0  0  0  0  0  0  0  0  0
  -21.4656  -45.1163   -6.3867 O   0  0  0  0  0  0  0  0  0  0  0  0
  -20.4546  -44.5399   -7.1204 C   0  0  0  0  0  0  0  0  0  0  0  0
  -19.3275  -43.8633   -6.6898 C   0  0  0  0  0  0  0  0  0  0  0  0
  -18.4756  -43.3851   -7.6554 C   0  0  0  0  0  0  0  0  0  0  0  0
  -18.7891  -43.6089   -9.0231 C   0  0  0  0  0  0  0  0  0  0  0  0
  -19.8709  -44.2598   -9.4442 N   0  0  0  0  0  0  0  0  0  0  0  0
  -20.6874  -44.7160   -8.5009 C   0  0  0  0  0  0  0  0  0  0  0  0
  -17.2161  -42.6193   -7.5614 C   0  0  0  0  0  0  0  0  0  0  0  0
  -16.2603  -43.1399   -8.3087 O   0  0  0  0  0  0  0  0  0  0  0  0
  -16.8804  -41.4482   -6.8197 N   0  0  0  0  0  0  0  0  0  0  0  0
  -13.8577  -39.2878  -10.8865 C   0  0  0  0  0  0  0  0  0  0  0  0
  -13.8184  -37.9393  -11.1364 C   0  0  0  0  0  0  0  0  0  0  0  0
  -13.9633  -37.7803  -12.4908 C   0  0  0  0  0  0  0  0  0  0  0  0
  -13.9890  -36.5062  -13.2808 C   0  0  0  0  0  0  0  0  0  0  0  0
  -12.5699  -36.0950  -13.6489 C   0  0  0  0  0  0  0  0  0  0  0  0
  -12.5282  -34.7305  -14.2650 C   0  0  0  0  0  0  0  0  0  0  0  0
  -12.0092  -37.1109  -14.6075 C   0  0  0  0  0  0  0  0  0  0  0  0
  -11.7029  -36.0653  -12.3952 C   0  0  0  0  0  0  0  0  0  0  0  0
  -14.0806  -38.9836  -12.9942 O   0  0  0  0  0  0  0  0  0  0  0  0
  -14.0203  -39.8831  -12.0637 N   0  0  0  0  0  0  0  0  0  0  0  0
  2  1  1  6
  2  3  1  0
  3  4  1  0
  4  5  1  0
  5  6  1  6
  5  7  1  0
  7  8  1  1
  8  9  1  0
  9 10  2  0
 10 11  1  0
 11 12  2  0
 12 13  1  0
 13 14  2  0
 11 15  1  0
 15 16  1  0
 16 17  1  0
 17 18  1  0
 18 19  1  0
 19 20  1  0
 20 21  1  0
 21 22  2  0
 22 23  1  0
 23 24  2  0
 24 25  1  0
 25 26  2  0
 23 27  1  0
 27 28  2  0
 27 29  1  0
  2 30  1  0
 30 31  1  0
 31 32  2  0
 32 33  1  0
 33 34  1  0
 34 35  1  0
 34 36  1  0
 34 37  1  0
 32 38  1  0
 38 39  1  0
 14  9  1  0
 26 21  1  0
 29  7  1  0
 39 30  2  0
M  END
$$$$
