
     RDKit          3D

 39 42  0  0  0  0  0  0  0  0999 V2000
  -12.6069  -41.6170   -8.6054 C   0  0  0  0  0  0  0  0  0  0  0  0
  -13.3780  -40.3627   -8.2646 C   0  0  2  0  0  0  0  0  0  0  0  0
  -14.7859  -40.6630   -8.4453 N   0  0  0  0  0  0  0  0  0  0  0  0
  -15.6013  -39.4956   -8.5339 C   0  0  0  0  0  0  0  0  0  0  0  0
  -16.3968  -39.2160   -7.2941 C   0  0  1  0  0  0  0  0  0  0  0  0
  -16.9621  -37.9528   -7.3953 O   0  0  0  0  0  0  0  0  0  0  0  0
  -17.5291  -40.2220   -7.0918 C   0  0  2  0  0  0  0  0  0  0  0  0
  -18.4349  -39.8215   -5.9271 C   0  0  0  0  0  0  0  0  0  0  0  0
  -19.8518  -39.5885   -6.3830 C   0  0  0  0  0  0  0  0  0  0  0  0
  -20.8476  -40.4852   -6.6878 C   0  0  0  0  0  0  0  0  0  0  0  0
  -22.0672  -39.9702   -7.0888 C   0  0  0  0  0  0  0  0  0  0  0  0
  -22.2593  -38.5705   -7.1764 C   0  0  0  0  0  0  0  0  0  0  0  0
  -21.2834  -37.6586   -6.8789 C   0  0  0  0  0  0  0  0  0  0  0  0
  -20.0859  -38.1990   -6.4834 C   0  0  0  0  0  0  0  0  0  0  0  0
  -23.2184  -40.6352   -7.4473 O   0  0  0  0  0  0  0  0  0  0  0  0
  -24.0191  -41.6491   -6.9794 C   0  0  0  0  0  0  0  0  0  0  0  0
  -23.4737  -43.0366   -7.2541 C   0  0  0  0  0  0  0  0  0  0  0  0
  -22.9137  -43.6965   -6.0330 C   0  0  0  0  0  0  0  0  0  0  0  0
  -22.5222  -45.1207   -6.3236 C   0  0  0  0  0  0  0  0  0  0  0  0
  -21.5346  -45.3197   -7.2450 O   0  0  0  0  0  0  0  0  0  0  0  0
  -20.4815  -44.6726   -7.8489 C   0  0  0  0  0  0  0  0  0  0  0  0
  -19.4100  -44.0089   -7.2788 C   0  0  0  0  0  0  0  0  0  0  0  0
  -18.4940  -43.4456   -8.1335 C   0  0  0  0  0  0  0  0  0  0  0  0
  -18.6895  -43.5741   -9.5351 C   0  0  0  0  0  0  0  0  0  0  0  0
  -19.7172  -44.2120  -10.0901 N   0  0  0  0  0  0  0  0  0  0  0  0
  -20.5966  -44.7511   -9.2531 C   0  0  0  0  0  0  0  0  0  0  0  0
  -17.2654  -42.6658   -7.8805 C   0  0  0  0  0  0  0  0  0  0  0  0
  -16.2394  -43.1126   -8.5812 O   0  0  0  0  0  0  0  0  0  0  0  0
  -17.0198  -41.5464   -7.0315 N   0  0  0  0  0  0  0  0  0  0  0  0
  -12.9323  -39.2951   -9.2032 C   0  0  0  0  0  0  0  0  0  0  0  0
  -13.2284  -39.1345  -10.5332 C   0  0  0  0  0  0  0  0  0  0  0  0
  -12.5761  -38.0038  -10.9534 C   0  0  0  0  0  0  0  0  0  0  0  0
  -12.5684  -37.3874  -12.3201 C   0  0  0  0  0  0  0  0  0  0  0  0
  -12.8848  -35.9013  -12.2212 C   0  0  0  0  0  0  0  0  0  0  0  0
  -13.0764  -35.2822  -13.5715 C   0  0  0  0  0  0  0  0  0  0  0  0
  -11.7570  -35.2177  -11.4958 C   0  0  0  0  0  0  0  0  0  0  0  0
  -14.1740  -35.7027  -11.4320 C   0  0  0  0  0  0  0  0  0  0  0  0
  -11.9349  -37.5375   -9.9109 O   0  0  0  0  0  0  0  0  0  0  0  0
  -12.1338  -38.2855   -8.8718 N   0  0  0  0  0  0  0  0  0  0  0  0
  2  1  1  6
  2  3  1  0
  3  4  1  0
  4  5  1  0
  5  6  1  6
  5  7  1  0
  7  8  1  1
  8  9  1  0
  9 10  2  0
 10 11  1  0
 11 12  2  0
 12 13  1  0
 13 14  2  0
 11 15  1  0
 15 16  1  0
 16 17  1  0
 17 18  1  0
 18 19  1  0
 19 20  1  0
 20 21  1  0
 21 22  2  0
 22 23  1  0
 23 24  2  0
 24 25  1  0
 25 26  2  0
 23 27  1  0
 27 28  2  0
 27 29  1  0
  2 30  1  0
 30 31  1  0
 31 32  2  0
 32 33  1  0
 33 34  1  0
 34 35  1  0
 34 36  1  0
 34 37  1  0
 32 38  1  0
 38 39  1  0
 14  9  1  0
 26 21  1  0
 29  7  1  0
 39 30  2  0
M  END
$$$$
