
     RDKit          3D

 39 42  0  0  0  0  0  0  0  0999 V2000
  -17.7898  -38.8009   -3.2175 C   0  0  0  0  0  0  0  0  0  0  0  0
  -17.4856  -39.6089   -4.4579 C   0  0  2  0  0  0  0  0  0  0  0  0
  -16.9684  -38.6881   -5.4527 N   0  0  0  0  0  0  0  0  0  0  0  0
  -16.2992  -39.3433   -6.5289 C   0  0  0  0  0  0  0  0  0  0  0  0
  -16.1918  -38.5122   -7.7722 C   0  0  1  0  0  0  0  0  0  0  0  0
  -15.3560  -39.1547   -8.6744 O   0  0  0  0  0  0  0  0  0  0  0  0
  -17.5451  -38.3058   -8.4511 C   0  0  2  0  0  0  0  0  0  0  0  0
  -17.6632  -36.9061   -9.0545 C   0  0  0  0  0  0  0  0  0  0  0  0
  -17.8676  -36.9619  -10.5461 C   0  0  0  0  0  0  0  0  0  0  0  0
  -18.9957  -37.2393  -11.2801 C   0  0  0  0  0  0  0  0  0  0  0  0
  -18.8791  -37.2205  -12.6584 C   0  0  0  0  0  0  0  0  0  0  0  0
  -17.6357  -36.9263  -13.2676 C   0  0  0  0  0  0  0  0  0  0  0  0
  -16.4993  -36.6477  -12.5582 C   0  0  0  0  0  0  0  0  0  0  0  0
  -16.6462  -36.6728  -11.1944 C   0  0  0  0  0  0  0  0  0  0  0  0
  -19.8382  -37.4584  -13.6173 O   0  0  0  0  0  0  0  0  0  0  0  0
  -21.1245  -37.0777  -13.9147 C   0  0  0  0  0  0  0  0  0  0  0  0
  -22.1798  -37.7908  -13.0925 C   0  0  0  0  0  0  0  0  0  0  0  0
  -22.7826  -36.9208  -12.0343 C   0  0  0  0  0  0  0  0  0  0  0  0
  -23.9225  -37.6231  -11.3462 C   0  0  0  0  0  0  0  0  0  0  0  0
  -23.6263  -38.7635  -10.6565 O   0  0  0  0  0  0  0  0  0  0  0  0
  -22.5720  -39.4170  -10.0617 C   0  0  0  0  0  0  0  0  0  0  0  0
  -21.6737  -38.9616   -9.1135 C   0  0  0  0  0  0  0  0  0  0  0  0
  -20.7063  -39.8411   -8.6921 C   0  0  0  0  0  0  0  0  0  0  0  0
  -20.6806  -41.1517   -9.2405 C   0  0  0  0  0  0  0  0  0  0  0  0
  -21.5422  -41.5965  -10.1521 N   0  0  0  0  0  0  0  0  0  0  0  0
  -22.4718  -40.7362  -10.5523 C   0  0  0  0  0  0  0  0  0  0  0  0
  -19.5982  -39.6930   -7.7268 C   0  0  0  0  0  0  0  0  0  0  0  0
  -19.5517  -40.6926   -6.8655 O   0  0  0  0  0  0  0  0  0  0  0  0
  -18.6052  -38.6794   -7.5829 N   0  0  0  0  0  0  0  0  0  0  0  0
  -18.7621  -40.2282   -4.9122 C   0  0  0  0  0  0  0  0  0  0  0  0
  -19.0489  -41.5509   -5.1376 C   0  0  0  0  0  0  0  0  0  0  0  0
  -20.3563  -41.6113   -5.5472 C   0  0  0  0  0  0  0  0  0  0  0  0
  -21.1596  -42.8209   -5.9206 C   0  0  0  0  0  0  0  0  0  0  0  0
  -20.9117  -43.1785   -7.3798 C   0  0  0  0  0  0  0  0  0  0  0  0
  -19.4543  -43.1382   -7.7226 C   0  0  0  0  0  0  0  0  0  0  0  0
  -21.6724  -42.2116   -8.2468 C   0  0  0  0  0  0  0  0  0  0  0  0
  -21.4146  -44.5914   -7.6542 C   0  0  0  0  0  0  0  0  0  0  0  0
  -20.7986  -40.3786   -5.5562 O   0  0  0  0  0  0  0  0  0  0  0  0
  -19.8731  -39.5514   -5.1847 N   0  0  0  0  0  0  0  0  0  0  0  0
  2  1  1  1
  2  3  1  0
  3  4  1  0
  4  5  1  0
  5  6  1  6
  5  7  1  0
  7  8  1  1
  8  9  1  0
  9 10  2  0
 10 11  1  0
 11 12  2  0
 12 13  1  0
 13 14  2  0
 11 15  1  0
 15 16  1  0
 16 17  1  0
 17 18  1  0
 18 19  1  0
 19 20  1  0
 20 21  1  0
 21 22  2  0
 22 23  1  0
 23 24  2  0
 24 25  1  0
 25 26  2  0
 23 27  1  0
 27 28  2  0
 27 29  1  0
  2 30  1  0
 30 31  1  0
 31 32  2  0
 32 33  1  0
 33 34  1  0
 34 35  1  0
 34 36  1  0
 34 37  1  0
 32 38  1  0
 38 39  1  0
 14  9  1  0
 26 21  1  0
 29  7  1  0
 39 30  2  0
M  END
$$$$
