
     RDKit          3D

 39 42  0  0  0  0  0  0  0  0999 V2000
  -13.3095  -41.9002   -9.6221 C   0  0  0  0  0  0  0  0  0  0  0  0
  -13.6060  -40.4969   -9.1458 C   0  0  2  0  0  0  0  0  0  0  0  0
  -14.9202  -40.5217   -8.5316 N   0  0  0  0  0  0  0  0  0  0  0  0
  -15.3144  -39.2579   -7.9999 C   0  0  0  0  0  0  0  0  0  0  0  0
  -16.0206  -39.3487   -6.6803 C   0  0  1  0  0  0  0  0  0  0  0  0
  -16.4052  -38.0754   -6.2852 O   0  0  0  0  0  0  0  0  0  0  0  0
  -17.2759  -40.2170   -6.7523 C   0  0  2  0  0  0  0  0  0  0  0  0
  -18.2476  -39.8948   -5.6168 C   0  0  0  0  0  0  0  0  0  0  0  0
  -19.5723  -39.4076   -6.1437 C   0  0  0  0  0  0  0  0  0  0  0  0
  -20.6266  -40.1048   -6.6827 C   0  0  0  0  0  0  0  0  0  0  0  0
  -21.7299  -39.3765   -7.0902 C   0  0  0  0  0  0  0  0  0  0  0  0
  -21.7495  -37.9681   -6.9495 C   0  0  0  0  0  0  0  0  0  0  0  0
  -20.7123  -37.2522   -6.4167 C   0  0  0  0  0  0  0  0  0  0  0  0
  -19.6333  -38.0016   -6.0210 C   0  0  0  0  0  0  0  0  0  0  0  0
  -22.9054  -39.8181   -7.6549 O   0  0  0  0  0  0  0  0  0  0  0  0
  -23.8623  -40.7805   -7.4395 C   0  0  0  0  0  0  0  0  0  0  0  0
  -23.4539  -42.1647   -7.9036 C   0  0  0  0  0  0  0  0  0  0  0  0
  -23.1056  -43.0810   -6.7725 C   0  0  0  0  0  0  0  0  0  0  0  0
  -22.8517  -44.4783   -7.2716 C   0  0  0  0  0  0  0  0  0  0  0  0
  -21.8018  -44.6534   -8.1265 O   0  0  0  0  0  0  0  0  0  0  0  0
  -20.6235  -44.0608   -8.5176 C   0  0  0  0  0  0  0  0  0  0  0  0
  -19.5491  -43.6442   -7.7523 C   0  0  0  0  0  0  0  0  0  0  0  0
  -18.4894  -43.0752   -8.4155 C   0  0  0  0  0  0  0  0  0  0  0  0
  -18.5492  -42.9487   -9.8296 C   0  0  0  0  0  0  0  0  0  0  0  0
  -19.5790  -43.3482  -10.5719 N   0  0  0  0  0  0  0  0  0  0  0  0
  -20.5979  -43.8955   -9.9187 C   0  0  0  0  0  0  0  0  0  0  0  0
  -17.2129  -42.5143   -7.9279 C   0  0  0  0  0  0  0  0  0  0  0  0
  -16.1768  -42.9725   -8.6060 O   0  0  0  0  0  0  0  0  0  0  0  0
  -16.9314  -41.5889   -6.8798 N   0  0  0  0  0  0  0  0  0  0  0  0
  -13.5885  -39.6064  -10.3400 C   0  0  0  0  0  0  0  0  0  0  0  0
  -12.9690  -38.3933  -10.5046 C   0  0  0  0  0  0  0  0  0  0  0  0
  -13.2529  -37.9701  -11.7777 C   0  0  0  0  0  0  0  0  0  0  0  0
  -12.8171  -36.7067  -12.4574 C   0  0  0  0  0  0  0  0  0  0  0  0
  -13.8226  -35.5965  -12.1837 C   0  0  0  0  0  0  0  0  0  0  0  0
  -13.4033  -34.3003  -12.8058 C   0  0  0  0  0  0  0  0  0  0  0  0
  -13.9625  -35.4321  -10.6941 C   0  0  0  0  0  0  0  0  0  0  0  0
  -15.1779  -35.9761  -12.7697 C   0  0  0  0  0  0  0  0  0  0  0  0
  -14.0016  -38.8989  -12.3182 O   0  0  0  0  0  0  0  0  0  0  0  0
  -14.2088  -39.8697  -11.4856 N   0  0  0  0  0  0  0  0  0  0  0  0
  2  1  1  6
  2  3  1  0
  3  4  1  0
  4  5  1  0
  5  6  1  6
  5  7  1  0
  7  8  1  1
  8  9  1  0
  9 10  2  0
 10 11  1  0
 11 12  2  0
 12 13  1  0
 13 14  2  0
 11 15  1  0
 15 16  1  0
 16 17  1  0
 17 18  1  0
 18 19  1  0
 19 20  1  0
 20 21  1  0
 21 22  2  0
 22 23  1  0
 23 24  2  0
 24 25  1  0
 25 26  2  0
 23 27  1  0
 27 28  2  0
 27 29  1  0
  2 30  1  0
 30 31  1  0
 31 32  2  0
 32 33  1  0
 33 34  1  0
 34 35  1  0
 34 36  1  0
 34 37  1  0
 32 38  1  0
 38 39  1  0
 14  9  1  0
 26 21  1  0
 29  7  1  0
 39 30  2  0
M  END
$$$$
