
     RDKit          3D

 39 42  0  0  0  0  0  0  0  0999 V2000
  -14.5368  -38.0577  -12.1993 C   0  0  0  0  0  0  0  0  0  0  0  0
  -14.9583  -39.4231  -11.7073 C   0  0  2  0  0  0  0  0  0  0  0  0
  -15.3992  -39.2663  -10.3340 N   0  0  0  0  0  0  0  0  0  0  0  0
  -16.6539  -38.5969  -10.2209 C   0  0  0  0  0  0  0  0  0  0  0  0
  -16.9546  -38.1014   -8.8381 C   0  0  1  0  0  0  0  0  0  0  0  0
  -17.7271  -36.9523   -8.9279 O   0  0  0  0  0  0  0  0  0  0  0  0
  -17.7307  -39.1251   -8.0107 C   0  0  2  0  0  0  0  0  0  0  0  0
  -18.1152  -38.5650   -6.6411 C   0  0  0  0  0  0  0  0  0  0  0  0
  -19.6101  -38.5311   -6.4570 C   0  0  0  0  0  0  0  0  0  0  0  0
  -20.4929  -39.5401   -6.1551 C   0  0  0  0  0  0  0  0  0  0  0  0
  -21.8311  -39.2054   -6.0514 C   0  0  0  0  0  0  0  0  0  0  0  0
  -22.2526  -37.8694   -6.2542 C   0  0  0  0  0  0  0  0  0  0  0  0
  -21.3930  -36.8484   -6.5561 C   0  0  0  0  0  0  0  0  0  0  0  0
  -20.0731  -37.2107   -6.6512 C   0  0  0  0  0  0  0  0  0  0  0  0
  -22.9107  -40.0100   -5.7634 O   0  0  0  0  0  0  0  0  0  0  0  0
  -23.2777  -40.9641   -4.8453 C   0  0  0  0  0  0  0  0  0  0  0  0
  -22.6932  -42.3356   -5.1204 C   0  0  0  0  0  0  0  0  0  0  0  0
  -21.5804  -42.6947   -4.1862 C   0  0  0  0  0  0  0  0  0  0  0  0
  -21.1348  -44.1162   -4.4024 C   0  0  0  0  0  0  0  0  0  0  0  0
  -20.6060  -44.4246   -5.6227 O   0  0  0  0  0  0  0  0  0  0  0  0
  -20.0143  -43.8379   -6.7173 C   0  0  0  0  0  0  0  0  0  0  0  0
  -18.9172  -42.9978   -6.7826 C   0  0  0  0  0  0  0  0  0  0  0  0
  -18.5405  -42.5532   -8.0265 C   0  0  0  0  0  0  0  0  0  0  0  0
  -19.2825  -42.9745   -9.1627 C   0  0  0  0  0  0  0  0  0  0  0  0
  -20.3380  -43.7832   -9.1071 N   0  0  0  0  0  0  0  0  0  0  0  0
  -20.6931  -44.2050   -7.8986 C   0  0  0  0  0  0  0  0  0  0  0  0
  -17.4531  -41.6521   -8.4591 C   0  0  0  0  0  0  0  0  0  0  0  0
  -16.7598  -42.1555   -9.4637 O   0  0  0  0  0  0  0  0  0  0  0  0
  -17.0481  -40.3703   -7.9827 N   0  0  0  0  0  0  0  0  0  0  0  0
  -13.7680  -40.3152  -11.7902 C   0  0  0  0  0  0  0  0  0  0  0  0
  -12.4396  -39.9985  -11.6579 C   0  0  0  0  0  0  0  0  0  0  0  0
  -11.7339  -41.1632  -11.8199 C   0  0  0  0  0  0  0  0  0  0  0  0
  -10.2493  -41.3665  -11.7695 C   0  0  0  0  0  0  0  0  0  0  0  0
   -9.9225  -42.6033  -10.9436 C   0  0  0  0  0  0  0  0  0  0  0  0
  -10.3796  -42.4613   -9.5245 C   0  0  0  0  0  0  0  0  0  0  0  0
   -8.4350  -42.8294  -10.9860 C   0  0  0  0  0  0  0  0  0  0  0  0
  -10.6255  -43.8180  -11.5389 C   0  0  0  0  0  0  0  0  0  0  0  0
  -12.6183  -42.1048  -12.0356 O   0  0  0  0  0  0  0  0  0  0  0  0
  -13.8210  -41.6230  -12.0212 N   0  0  0  0  0  0  0  0  0  0  0  0
  2  1  1  1
  2  3  1  0
  3  4  1  0
  4  5  1  0
  5  6  1  6
  5  7  1  0
  7  8  1  1
  8  9  1  0
  9 10  2  0
 10 11  1  0
 11 12  2  0
 12 13  1  0
 13 14  2  0
 11 15  1  0
 15 16  1  0
 16 17  1  0
 17 18  1  0
 18 19  1  0
 19 20  1  0
 20 21  1  0
 21 22  2  0
 22 23  1  0
 23 24  2  0
 24 25  1  0
 25 26  2  0
 23 27  1  0
 27 28  2  0
 27 29  1  0
  2 30  1  0
 30 31  1  0
 31 32  2  0
 32 33  1  0
 33 34  1  0
 34 35  1  0
 34 36  1  0
 34 37  1  0
 32 38  1  0
 38 39  1  0
 14  9  1  0
 26 21  1  0
 29  7  1  0
 39 30  2  0
M  END
$$$$
