
     RDKit          3D

 39 42  0  0  0  0  0  0  0  0999 V2000
  -19.1300  -36.7585   -9.3810 C   0  0  0  0  0  0  0  0  0  0  0  0
  -17.9592  -37.6236   -9.7866 C   0  0  2  0  0  0  0  0  0  0  0  0
  -17.7483  -38.5859   -8.7215 N   0  0  0  0  0  0  0  0  0  0  0  0
  -16.4243  -38.5538   -8.1910 C   0  0  0  0  0  0  0  0  0  0  0  0
  -15.6482  -39.8160   -8.4203 C   0  0  1  0  0  0  0  0  0  0  0  0
  -15.0315  -40.1889   -7.2347 O   0  0  0  0  0  0  0  0  0  0  0  0
  -16.5403  -40.9725   -8.8693 C   0  0  2  0  0  0  0  0  0  0  0  0
  -15.8225  -41.8807   -9.8679 C   0  0  0  0  0  0  0  0  0  0  0  0
  -15.6949  -43.2874   -9.3438 C   0  0  0  0  0  0  0  0  0  0  0  0
  -16.6217  -44.2999   -9.2772 C   0  0  0  0  0  0  0  0  0  0  0  0
  -16.2116  -45.5037   -8.7328 C   0  0  0  0  0  0  0  0  0  0  0  0
  -14.8845  -45.6634   -8.2669 C   0  0  0  0  0  0  0  0  0  0  0  0
  -13.9447  -44.6704   -8.3221 C   0  0  0  0  0  0  0  0  0  0  0  0
  -14.3804  -43.4893   -8.8677 C   0  0  0  0  0  0  0  0  0  0  0  0
  -16.9270  -46.6657   -8.5494 O   0  0  0  0  0  0  0  0  0  0  0  0
  -17.7610  -47.4937   -9.2613 C   0  0  0  0  0  0  0  0  0  0  0  0
  -19.1812  -46.9767   -9.3808 C   0  0  0  0  0  0  0  0  0  0  0  0
  -19.4964  -46.4440  -10.7434 C   0  0  0  0  0  0  0  0  0  0  0  0
  -20.9532  -46.0815  -10.8550 C   0  0  0  0  0  0  0  0  0  0  0  0
  -21.4127  -45.0895  -10.0373 O   0  0  0  0  0  0  0  0  0  0  0  0
  -20.9732  -44.0162   -9.2975 C   0  0  0  0  0  0  0  0  0  0  0  0
  -20.2003  -42.9358   -9.6837 C   0  0  0  0  0  0  0  0  0  0  0  0
  -19.9068  -41.9989   -8.7231 C   0  0  0  0  0  0  0  0  0  0  0  0
  -20.4061  -42.1831   -7.4056 C   0  0  0  0  0  0  0  0  0  0  0  0
  -21.1510  -43.2193   -7.0276 N   0  0  0  0  0  0  0  0  0  0  0  0
  -21.4267  -44.1189   -7.9653 C   0  0  0  0  0  0  0  0  0  0  0  0
  -19.1109  -40.7557   -8.7750 C   0  0  0  0  0  0  0  0  0  0  0  0
  -19.7500  -39.7331   -8.2375 O   0  0  0  0  0  0  0  0  0  0  0  0
  -17.8084  -40.4936   -9.2935 N   0  0  0  0  0  0  0  0  0  0  0  0
  -16.7772  -36.7306   -9.9448 C   0  0  0  0  0  0  0  0  0  0  0  0
  -15.8577  -36.6859  -10.9622 C   0  0  0  0  0  0  0  0  0  0  0  0
  -14.9611  -35.6976  -10.6462 C   0  0  0  0  0  0  0  0  0  0  0  0
  -13.7626  -35.2445  -11.4250 C   0  0  0  0  0  0  0  0  0  0  0  0
  -14.2071  -34.5655  -12.7133 C   0  0  0  0  0  0  0  0  0  0  0  0
  -14.8265  -33.2272  -12.4517 C   0  0  0  0  0  0  0  0  0  0  0  0
  -15.1929  -35.4621  -13.4131 C   0  0  0  0  0  0  0  0  0  0  0  0
  -13.0018  -34.3500  -13.6217 C   0  0  0  0  0  0  0  0  0  0  0  0
  -15.3493  -35.1986   -9.4992 O   0  0  0  0  0  0  0  0  0  0  0  0
  -16.4172  -35.7950   -9.0721 N   0  0  0  0  0  0  0  0  0  0  0  0
  2  1  1  1
  2  3  1  0
  3  4  1  0
  4  5  1  0
  5  6  1  1
  5  7  1  0
  7  8  1  6
  8  9  1  0
  9 10  2  0
 10 11  1  0
 11 12  2  0
 12 13  1  0
 13 14  2  0
 11 15  1  0
 15 16  1  0
 16 17  1  0
 17 18  1  0
 18 19  1  0
 19 20  1  0
 20 21  1  0
 21 22  2  0
 22 23  1  0
 23 24  2  0
 24 25  1  0
 25 26  2  0
 23 27  1  0
 27 28  2  0
 27 29  1  0
  2 30  1  0
 30 31  1  0
 31 32  2  0
 32 33  1  0
 33 34  1  0
 34 35  1  0
 34 36  1  0
 34 37  1  0
 32 38  1  0
 38 39  1  0
 14  9  1  0
 26 21  1  0
 29  7  1  0
 39 30  2  0
M  END
$$$$
