
     RDKit          3D

 39 42  0  0  0  0  0  0  0  0999 V2000
  -12.9917  -41.9931   -9.8138 C   0  0  0  0  0  0  0  0  0  0  0  0
  -13.5403  -40.7345   -9.1824 C   0  0  2  0  0  0  0  0  0  0  0  0
  -14.9800  -40.8914   -9.0951 N   0  0  0  0  0  0  0  0  0  0  0  0
  -15.6828  -39.6506   -9.1379 C   0  0  0  0  0  0  0  0  0  0  0  0
  -16.1206  -39.1547   -7.7923 C   0  0  1  0  0  0  0  0  0  0  0  0
  -16.5943  -37.8570   -7.9213 O   0  0  0  0  0  0  0  0  0  0  0  0
  -17.2407  -40.0061   -7.1961 C   0  0  2  0  0  0  0  0  0  0  0  0
  -17.9964  -39.2532   -6.1011 C   0  0  0  0  0  0  0  0  0  0  0  0
  -19.4521  -39.0832   -6.4501 C   0  0  0  0  0  0  0  0  0  0  0  0
  -20.4938  -39.9770   -6.3829 C   0  0  0  0  0  0  0  0  0  0  0  0
  -21.7417  -39.5314   -6.7798 C   0  0  0  0  0  0  0  0  0  0  0  0
  -21.9156  -38.2026   -7.2359 C   0  0  0  0  0  0  0  0  0  0  0  0
  -20.8943  -37.2952   -7.3121 C   0  0  0  0  0  0  0  0  0  0  0  0
  -19.6695  -37.7657   -6.9110 C   0  0  0  0  0  0  0  0  0  0  0  0
  -22.9395  -40.2098   -6.8123 O   0  0  0  0  0  0  0  0  0  0  0  0
  -23.6996  -41.0122   -5.9960 C   0  0  0  0  0  0  0  0  0  0  0  0
  -23.2168  -42.4476   -5.9266 C   0  0  0  0  0  0  0  0  0  0  0  0
  -22.5310  -42.7716   -4.6364 C   0  0  0  0  0  0  0  0  0  0  0  0
  -22.2036  -44.2388   -4.5555 C   0  0  0  0  0  0  0  0  0  0  0  0
  -21.3344  -44.7352   -5.4839 O   0  0  0  0  0  0  0  0  0  0  0  0
  -20.3467  -44.3352   -6.3540 C   0  0  0  0  0  0  0  0  0  0  0  0
  -19.2034  -43.5955   -6.1108 C   0  0  0  0  0  0  0  0  0  0  0  0
  -18.3827  -43.3383   -7.1819 C   0  0  0  0  0  0  0  0  0  0  0  0
  -18.7429  -43.8394   -8.4618 C   0  0  0  0  0  0  0  0  0  0  0  0
  -19.8405  -44.5525   -8.7025 N   0  0  0  0  0  0  0  0  0  0  0  0
  -20.6265  -44.7932   -7.6590 C   0  0  0  0  0  0  0  0  0  0  0  0
  -17.1181  -42.5829   -7.2906 C   0  0  0  0  0  0  0  0  0  0  0  0
  -16.1898  -43.2581   -7.9430 O   0  0  0  0  0  0  0  0  0  0  0  0
  -16.7535  -41.2865   -6.8211 N   0  0  0  0  0  0  0  0  0  0  0  0
  -13.1777  -39.5944  -10.0702 C   0  0  0  0  0  0  0  0  0  0  0  0
  -13.1978  -39.5254  -11.4403 C   0  0  0  0  0  0  0  0  0  0  0  0
  -12.7732  -38.2671  -11.7826 C   0  0  0  0  0  0  0  0  0  0  0  0
  -12.6134  -37.6794  -13.1526 C   0  0  0  0  0  0  0  0  0  0  0  0
  -13.4312  -36.4001  -13.2673 C   0  0  0  0  0  0  0  0  0  0  0  0
  -14.1977  -36.1155  -12.0124 C   0  0  0  0  0  0  0  0  0  0  0  0
  -14.3775  -36.5380  -14.4295 C   0  0  0  0  0  0  0  0  0  0  0  0
  -12.5022  -35.2186  -13.5223 C   0  0  0  0  0  0  0  0  0  0  0  0
  -12.5209  -37.6433  -10.6590 O   0  0  0  0  0  0  0  0  0  0  0  0
  -12.7539  -38.4100   -9.6408 N   0  0  0  0  0  0  0  0  0  0  0  0
  2  1  1  6
  2  3  1  0
  3  4  1  0
  4  5  1  0
  5  6  1  6
  5  7  1  0
  7  8  1  1
  8  9  1  0
  9 10  2  0
 10 11  1  0
 11 12  2  0
 12 13  1  0
 13 14  2  0
 11 15  1  0
 15 16  1  0
 16 17  1  0
 17 18  1  0
 18 19  1  0
 19 20  1  0
 20 21  1  0
 21 22  2  0
 22 23  1  0
 23 24  2  0
 24 25  1  0
 25 26  2  0
 23 27  1  0
 27 28  2  0
 27 29  1  0
  2 30  1  0
 30 31  1  0
 31 32  2  0
 32 33  1  0
 33 34  1  0
 34 35  1  0
 34 36  1  0
 34 37  1  0
 32 38  1  0
 38 39  1  0
 14  9  1  0
 26 21  1  0
 29  7  1  0
 39 30  2  0
M  END
$$$$
