
     RDKit          3D

 39 42  0  0  0  0  0  0  0  0999 V2000
  -12.8765  -41.1003  -10.2028 C   0  0  0  0  0  0  0  0  0  0  0  0
  -13.9033  -40.0745   -9.7818 C   0  0  2  0  0  0  0  0  0  0  0  0
  -15.1826  -40.7548   -9.7067 N   0  0  0  0  0  0  0  0  0  0  0  0
  -16.2873  -39.8599   -9.5869 C   0  0  0  0  0  0  0  0  0  0  0  0
  -16.5329  -39.3835   -8.1866 C   0  0  1  0  0  0  0  0  0  0  0  0
  -16.9374  -38.0568   -8.2252 O   0  0  0  0  0  0  0  0  0  0  0  0
  -17.6260  -40.1871   -7.4835 C   0  0  2  0  0  0  0  0  0  0  0  0
  -18.3387  -39.3537   -6.4182 C   0  0  0  0  0  0  0  0  0  0  0  0
  -19.8077  -39.2094   -6.7197 C   0  0  0  0  0  0  0  0  0  0  0  0
  -20.8436  -40.0950   -6.5437 C   0  0  0  0  0  0  0  0  0  0  0  0
  -22.1077  -39.6795   -6.9221 C   0  0  0  0  0  0  0  0  0  0  0  0
  -22.3030  -38.3885   -7.4689 C   0  0  0  0  0  0  0  0  0  0  0  0
  -21.2877  -37.4901   -7.6542 C   0  0  0  0  0  0  0  0  0  0  0  0
  -20.0466  -37.9300   -7.2689 C   0  0  0  0  0  0  0  0  0  0  0  0
  -23.3042  -40.3576   -6.8552 O   0  0  0  0  0  0  0  0  0  0  0  0
  -24.0287  -41.0961   -5.9509 C   0  0  0  0  0  0  0  0  0  0  0  0
  -23.5402  -42.5226   -5.7939 C   0  0  0  0  0  0  0  0  0  0  0  0
  -22.8020  -42.7496   -4.5118 C   0  0  0  0  0  0  0  0  0  0  0  0
  -22.4682  -44.2067   -4.3347 C   0  0  0  0  0  0  0  0  0  0  0  0
  -21.6360  -44.7718   -5.2577 O   0  0  0  0  0  0  0  0  0  0  0  0
  -20.6852  -44.4389   -6.1946 C   0  0  0  0  0  0  0  0  0  0  0  0
  -19.5348  -43.6838   -6.0539 C   0  0  0  0  0  0  0  0  0  0  0  0
  -18.7587  -43.5081   -7.1736 C   0  0  0  0  0  0  0  0  0  0  0  0
  -19.1691  -44.1034   -8.3968 C   0  0  0  0  0  0  0  0  0  0  0  0
  -20.2739  -44.8318   -8.5388 N   0  0  0  0  0  0  0  0  0  0  0  0
  -21.0164  -44.9931   -7.4492 C   0  0  0  0  0  0  0  0  0  0  0  0
  -17.5013  -42.7638   -7.3896 C   0  0  0  0  0  0  0  0  0  0  0  0
  -16.5985  -43.4866   -8.0267 O   0  0  0  0  0  0  0  0  0  0  0  0
  -17.1211  -41.4361   -7.0337 N   0  0  0  0  0  0  0  0  0  0  0  0
  -13.9228  -39.0084  -10.8222 C   0  0  0  0  0  0  0  0  0  0  0  0
  -13.8147  -37.6492  -10.6691 C   0  0  0  0  0  0  0  0  0  0  0  0
  -13.8932  -37.0992  -11.9229 C   0  0  0  0  0  0  0  0  0  0  0  0
  -13.8294  -35.6521  -12.3100 C   0  0  0  0  0  0  0  0  0  0  0  0
  -12.4005  -35.2753  -12.6772 C   0  0  0  0  0  0  0  0  0  0  0  0
  -12.2916  -33.8387  -13.0864 C   0  0  0  0  0  0  0  0  0  0  0  0
  -11.9422  -36.1674  -13.7994 C   0  0  0  0  0  0  0  0  0  0  0  0
  -11.4891  -35.4858  -11.4732 C   0  0  0  0  0  0  0  0  0  0  0  0
  -14.0398  -38.0983  -12.7569 O   0  0  0  0  0  0  0  0  0  0  0  0
  -14.0591  -39.2297  -12.1257 N   0  0  0  0  0  0  0  0  0  0  0  0
  2  1  1  6
  2  3  1  0
  3  4  1  0
  4  5  1  0
  5  6  1  6
  5  7  1  0
  7  8  1  1
  8  9  1  0
  9 10  2  0
 10 11  1  0
 11 12  2  0
 12 13  1  0
 13 14  2  0
 11 15  1  0
 15 16  1  0
 16 17  1  0
 17 18  1  0
 18 19  1  0
 19 20  1  0
 20 21  1  0
 21 22  2  0
 22 23  1  0
 23 24  2  0
 24 25  1  0
 25 26  2  0
 23 27  1  0
 27 28  2  0
 27 29  1  0
  2 30  1  0
 30 31  1  0
 31 32  2  0
 32 33  1  0
 33 34  1  0
 34 35  1  0
 34 36  1  0
 34 37  1  0
 32 38  1  0
 38 39  1  0
 14  9  1  0
 26 21  1  0
 29  7  1  0
 39 30  2  0
M  END
$$$$
