
     RDKit          3D

 39 42  0  0  0  0  0  0  0  0999 V2000
  -13.2327  -40.2744   -9.4298 C   0  0  0  0  0  0  0  0  0  0  0  0
  -14.0185  -39.0241   -9.7506 C   0  0  2  0  0  0  0  0  0  0  0  0
  -15.2598  -39.4459  -10.3721 N   0  0  0  0  0  0  0  0  0  0  0  0
  -16.1390  -40.1159   -9.4702 C   0  0  0  0  0  0  0  0  0  0  0  0
  -16.8376  -39.1995   -8.5109 C   0  0  1  0  0  0  0  0  0  0  0  0
  -17.6401  -38.3227   -9.2268 O   0  0  0  0  0  0  0  0  0  0  0  0
  -17.7302  -39.9577   -7.5294 C   0  0  2  0  0  0  0  0  0  0  0  0
  -18.2467  -39.0433   -6.4183 C   0  0  0  0  0  0  0  0  0  0  0  0
  -19.7511  -38.9629   -6.4224 C   0  0  0  0  0  0  0  0  0  0  0  0
  -20.6912  -39.8516   -5.9590 C   0  0  0  0  0  0  0  0  0  0  0  0
  -22.0222  -39.5039   -6.1042 C   0  0  0  0  0  0  0  0  0  0  0  0
  -22.3791  -38.2759   -6.7114 C   0  0  0  0  0  0  0  0  0  0  0  0
  -21.4616  -37.3757   -7.1807 C   0  0  0  0  0  0  0  0  0  0  0  0
  -20.1506  -37.7476   -7.0218 C   0  0  0  0  0  0  0  0  0  0  0  0
  -23.1503  -40.2003   -5.7325 O   0  0  0  0  0  0  0  0  0  0  0  0
  -23.6444  -40.8658   -4.6366 C   0  0  0  0  0  0  0  0  0  0  0  0
  -23.0740  -42.2590   -4.4577 C   0  0  0  0  0  0  0  0  0  0  0  0
  -22.0821  -42.3452   -3.3402 C   0  0  0  0  0  0  0  0  0  0  0  0
  -21.6576  -43.7705   -3.1071 C   0  0  0  0  0  0  0  0  0  0  0  0
  -21.0068  -44.4016   -4.1279 O   0  0  0  0  0  0  0  0  0  0  0  0
  -20.2809  -44.1374   -5.2663 C   0  0  0  0  0  0  0  0  0  0  0  0
  -19.1590  -43.3456   -5.4331 C   0  0  0  0  0  0  0  0  0  0  0  0
  -18.6343  -43.2595   -6.6996 C   0  0  0  0  0  0  0  0  0  0  0  0
  -19.2587  -43.9784   -7.7544 C   0  0  0  0  0  0  0  0  0  0  0  0
  -20.3373  -44.7427   -7.6007 N   0  0  0  0  0  0  0  0  0  0  0  0
  -20.8359  -44.8165   -6.3716 C   0  0  0  0  0  0  0  0  0  0  0  0
  -17.4797  -42.5100   -7.2351 C   0  0  0  0  0  0  0  0  0  0  0  0
  -16.6950  -43.2690   -7.9778 O   0  0  0  0  0  0  0  0  0  0  0  0
  -17.0919  -41.1458   -7.0843 N   0  0  0  0  0  0  0  0  0  0  0  0
  -13.1981  -38.2090  -10.6897 C   0  0  0  0  0  0  0  0  0  0  0  0
  -13.0236  -38.3628  -12.0419 C   0  0  0  0  0  0  0  0  0  0  0  0
  -12.1748  -37.3662  -12.4504 C   0  0  0  0  0  0  0  0  0  0  0  0
  -11.6634  -37.0874  -13.8320 C   0  0  0  0  0  0  0  0  0  0  0  0
  -11.5370  -35.5851  -14.0454 C   0  0  0  0  0  0  0  0  0  0  0  0
  -10.8678  -34.9129  -12.8863 C   0  0  0  0  0  0  0  0  0  0  0  0
  -12.9136  -35.0118  -14.2494 C   0  0  0  0  0  0  0  0  0  0  0  0
  -10.6975  -35.3125  -15.2885 C   0  0  0  0  0  0  0  0  0  0  0  0
  -11.8762  -36.6726  -11.3803 O   0  0  0  0  0  0  0  0  0  0  0  0
  -12.4704  -37.1549  -10.3348 N   0  0  0  0  0  0  0  0  0  0  0  0
  2  1  1  6
  2  3  1  0
  3  4  1  0
  4  5  1  0
  5  6  1  6
  5  7  1  0
  7  8  1  1
  8  9  1  0
  9 10  2  0
 10 11  1  0
 11 12  2  0
 12 13  1  0
 13 14  2  0
 11 15  1  0
 15 16  1  0
 16 17  1  0
 17 18  1  0
 18 19  1  0
 19 20  1  0
 20 21  1  0
 21 22  2  0
 22 23  1  0
 23 24  2  0
 24 25  1  0
 25 26  2  0
 23 27  1  0
 27 28  2  0
 27 29  1  0
  2 30  1  0
 30 31  1  0
 31 32  2  0
 32 33  1  0
 33 34  1  0
 34 35  1  0
 34 36  1  0
 34 37  1  0
 32 38  1  0
 38 39  1  0
 14  9  1  0
 26 21  1  0
 29  7  1  0
 39 30  2  0
M  END
$$$$
