
     RDKit          3D

 39 42  0  0  0  0  0  0  0  0999 V2000
  -11.8472  -40.5209   -8.6309 C   0  0  0  0  0  0  0  0  0  0  0  0
  -12.9532  -39.6112   -9.1138 C   0  0  2  0  0  0  0  0  0  0  0  0
  -14.1778  -40.0459   -8.4686 N   0  0  0  0  0  0  0  0  0  0  0  0
  -15.3402  -39.3893   -8.9719 C   0  0  0  0  0  0  0  0  0  0  0  0
  -16.1423  -38.6844   -7.9193 C   0  0  1  0  0  0  0  0  0  0  0  0
  -16.7539  -37.5748   -8.4849 O   0  0  0  0  0  0  0  0  0  0  0  0
  -17.2362  -39.5741   -7.3304 C   0  0  2  0  0  0  0  0  0  0  0  0
  -18.0446  -38.8375   -6.2620 C   0  0  0  0  0  0  0  0  0  0  0  0
  -19.4992  -38.7359   -6.6409 C   0  0  0  0  0  0  0  0  0  0  0  0
  -20.5027  -39.6727   -6.5786 C   0  0  0  0  0  0  0  0  0  0  0  0
  -21.7607  -39.2875   -7.0060 C   0  0  0  0  0  0  0  0  0  0  0  0
  -21.9825  -37.9747   -7.4868 C   0  0  0  0  0  0  0  0  0  0  0  0
  -20.9997  -37.0254   -7.5587 C   0  0  0  0  0  0  0  0  0  0  0  0
  -19.7638  -37.4363   -7.1272 C   0  0  0  0  0  0  0  0  0  0  0  0
  -22.9275  -40.0173   -7.0498 O   0  0  0  0  0  0  0  0  0  0  0  0
  -23.6681  -40.8391   -6.2348 C   0  0  0  0  0  0  0  0  0  0  0  0
  -23.1258  -42.2511   -6.1331 C   0  0  0  0  0  0  0  0  0  0  0  0
  -22.4518  -42.5252   -4.8252 C   0  0  0  0  0  0  0  0  0  0  0  0
  -22.0635  -43.9754   -4.7143 C   0  0  0  0  0  0  0  0  0  0  0  0
  -21.1561  -44.4482   -5.6181 O   0  0  0  0  0  0  0  0  0  0  0  0
  -20.1697  -44.0195   -6.4760 C   0  0  0  0  0  0  0  0  0  0  0  0
  -19.0641  -43.2275   -6.2236 C   0  0  0  0  0  0  0  0  0  0  0  0
  -18.2346  -42.9518   -7.2832 C   0  0  0  0  0  0  0  0  0  0  0  0
  -18.5481  -43.4877   -8.5613 C   0  0  0  0  0  0  0  0  0  0  0  0
  -19.6093  -44.2511   -8.8108 N   0  0  0  0  0  0  0  0  0  0  0  0
  -20.4043  -44.5093   -7.7784 C   0  0  0  0  0  0  0  0  0  0  0  0
  -17.0016  -42.1443   -7.3805 C   0  0  0  0  0  0  0  0  0  0  0  0
  -16.0328  -42.7888   -8.0044 O   0  0  0  0  0  0  0  0  0  0  0  0
  -16.7020  -40.8262   -6.9255 N   0  0  0  0  0  0  0  0  0  0  0  0
  -13.0430  -39.7630  -10.5931 C   0  0  0  0  0  0  0  0  0  0  0  0
  -12.3791  -39.0716  -11.5749 C   0  0  0  0  0  0  0  0  0  0  0  0
  -12.8059  -39.5764  -12.7764 C   0  0  0  0  0  0  0  0  0  0  0  0
  -12.3901  -39.1682  -14.1578 C   0  0  0  0  0  0  0  0  0  0  0  0
  -12.2636  -40.3981  -15.0466 C   0  0  0  0  0  0  0  0  0  0  0  0
  -13.5645  -41.1296  -15.1725 C   0  0  0  0  0  0  0  0  0  0  0  0
  -11.2155  -41.3067  -14.4625 C   0  0  0  0  0  0  0  0  0  0  0  0
  -11.8300  -39.9770  -16.4462 C   0  0  0  0  0  0  0  0  0  0  0  0
  -13.6754  -40.5148  -12.4957 O   0  0  0  0  0  0  0  0  0  0  0  0
  -13.8268  -40.6381  -11.2148 N   0  0  0  0  0  0  0  0  0  0  0  0
  2  1  1  1
  2  3  1  0
  3  4  1  0
  4  5  1  0
  5  6  1  6
  5  7  1  0
  7  8  1  1
  8  9  1  0
  9 10  2  0
 10 11  1  0
 11 12  2  0
 12 13  1  0
 13 14  2  0
 11 15  1  0
 15 16  1  0
 16 17  1  0
 17 18  1  0
 18 19  1  0
 19 20  1  0
 20 21  1  0
 21 22  2  0
 22 23  1  0
 23 24  2  0
 24 25  1  0
 25 26  2  0
 23 27  1  0
 27 28  2  0
 27 29  1  0
  2 30  1  0
 30 31  1  0
 31 32  2  0
 32 33  1  0
 33 34  1  0
 34 35  1  0
 34 36  1  0
 34 37  1  0
 32 38  1  0
 38 39  1  0
 14  9  1  0
 26 21  1  0
 29  7  1  0
 39 30  2  0
M  END
$$$$
