
     RDKit          3D

 34 35  0  0  0  0  0  0  0  0999 V2000
  -13.9284  -40.5599  -10.5035 C   0  0  0  0  0  0  0  0  0  0  0  0
  -13.3328  -39.2320  -10.2374 C   0  0  2  0  0  0  0  0  0  0  0  0
  -13.7739  -38.5559   -9.0920 N   0  0  0  0  0  0  0  0  0  0  0  0
  -14.7241  -39.1763   -8.2611 C   0  0  0  0  0  0  0  0  0  0  0  0
  -16.0655  -38.6064   -8.0804 C   0  0  1  0  0  0  0  0  0  0  0  0
  -16.7284  -38.6428   -9.3700 O   0  0  0  0  0  0  0  0  0  0  0  0
  -16.9695  -39.4232   -7.1670 C   0  0  2  0  0  0  0  0  0  0  0  0
  -17.6822  -38.5990   -6.1390 C   0  0  0  0  0  0  0  0  0  0  0  0
  -19.0571  -38.1529   -6.6486 C   0  0  2  0  0  0  0  0  0  0  0  0
  -19.5725  -37.0116   -5.8382 C   0  0  0  0  0  0  0  0  0  0  0  0
  -20.0260  -39.3115   -6.7166 C   0  0  0  0  0  0  0  0  0  0  0  0
  -21.4421  -38.8387   -6.8343 C   0  0  0  0  0  0  0  0  0  0  0  0
  -22.1076  -39.4286   -8.0606 C   0  0  0  0  0  0  0  0  0  0  0  0
  -22.4876  -40.8725   -7.8906 C   0  0  0  0  0  0  0  0  0  0  0  0
  -22.3875  -41.5364   -9.2533 C   0  0  0  0  0  0  0  0  0  0  0  0
  -22.3108  -43.0174   -9.1912 C   0  0  0  0  0  0  0  0  0  0  0  0
  -21.0355  -43.5931   -9.7773 C   0  0  0  0  0  0  0  0  0  0  0  0
  -19.8523  -43.0327   -9.0653 C   0  0  0  0  0  0  0  0  0  0  0  0
  -18.6123  -43.8020   -9.2610 C   0  0  0  0  0  0  0  0  0  0  0  0
  -18.6019  -44.8407   -9.9642 O   0  0  0  0  0  0  0  0  0  0  0  0
  -17.4189  -43.3527   -8.6405 N   0  0  0  0  0  0  0  0  0  0  0  0
  -16.0990  -43.6846   -9.2014 C   0  0  0  0  0  0  0  0  0  0  0  0
  -17.5334  -42.5653   -7.4507 C   0  0  1  0  0  0  0  0  0  0  0  0
  -17.9126  -43.4979   -6.3207 C   0  0  0  0  0  0  0  0  0  0  0  0
  -16.3071  -41.8565   -7.0448 C   0  0  0  0  0  0  0  0  0  0  0  0
  -15.2087  -42.4904   -7.1304 O   0  0  0  0  0  0  0  0  0  0  0  0
  -16.2333  -40.5255   -6.5637 N   0  0  0  0  0  0  0  0  0  0  0  0
  -13.4649  -38.3541  -11.4736 C   0  0  0  0  0  0  0  0  0  0  0  0
  -13.5111  -38.9303  -12.6988 C   0  0  0  0  0  0  0  0  0  0  0  0
  -13.6306  -38.1394  -13.8338 C   0  0  0  0  0  0  0  0  0  0  0  0
  -13.7026  -36.7732  -13.7222 C   0  0  0  0  0  0  0  0  0  0  0  0
  -13.6539  -36.2000  -12.4595 C   0  0  0  0  0  0  0  0  0  0  0  0
  -13.7528  -34.3183  -12.2841 Br  0  0  0  0  0  0  0  0  0  0  0  0
  -13.5346  -37.0005  -11.3412 C   0  0  0  0  0  0  0  0  0  0  0  0
  2  1  1  6
  2  3  1  0
  3  4  1  0
  4  5  1  0
  5  6  1  6
  5  7  1  0
  7  8  1  1
  8  9  1  0
  9 10  1  1
  9 11  1  0
 11 12  1  0
 12 13  1  0
 13 14  1  0
 14 15  1  0
 15 16  1  0
 16 17  1  0
 17 18  1  0
 18 19  1  0
 19 20  2  0
 19 21  1  0
 21 22  1  0
 21 23  1  0
 23 24  1  1
 23 25  1  0
 25 26  2  0
 25 27  1  0
  2 28  1  0
 28 29  2  0
 29 30  1  0
 30 31  2  0
 31 32  1  0
 32 33  1  0
 32 34  2  0
 27  7  1  0
 34 28  1  0
M  END
$$$$
