
     RDKit          3D

 34 35  0  0  0  0  0  0  0  0999 V2000
  -20.3951  -37.9382   -5.6033 C   0  0  0  0  0  0  0  0  0  0  0  0
  -19.8285  -38.8276   -6.6410 C   0  0  2  0  0  0  0  0  0  0  0  0
  -18.6442  -38.4068   -7.2607 N   0  0  0  0  0  0  0  0  0  0  0  0
  -17.5766  -39.3155   -7.3728 C   0  0  0  0  0  0  0  0  0  0  0  0
  -16.2207  -38.8602   -7.7059 C   0  0  1  0  0  0  0  0  0  0  0  0
  -15.3186  -39.4335   -6.7255 O   0  0  0  0  0  0  0  0  0  0  0  0
  -15.7035  -39.3746   -9.0425 C   0  0  2  0  0  0  0  0  0  0  0  0
  -14.9584  -38.3427   -9.8323 C   0  0  0  0  0  0  0  0  0  0  0  0
  -13.4557  -38.4031   -9.5366 C   0  0  2  0  0  0  0  0  0  0  0  0
  -12.7847  -37.1425   -9.9673 C   0  0  0  0  0  0  0  0  0  0  0  0
  -12.8227  -39.6401  -10.1325 C   0  0  0  0  0  0  0  0  0  0  0  0
  -11.3308  -39.5221  -10.1890 C   0  0  0  0  0  0  0  0  0  0  0  0
  -10.6706  -40.6756   -9.4622 C   0  0  0  0  0  0  0  0  0  0  0  0
  -10.7086  -41.9625  -10.2371 C   0  0  0  0  0  0  0  0  0  0  0  0
  -10.7785  -43.1003   -9.2329 C   0  0  0  0  0  0  0  0  0  0  0  0
  -11.2463  -44.3826   -9.8159 C   0  0  0  0  0  0  0  0  0  0  0  0
  -12.5280  -44.9087   -9.1981 C   0  0  0  0  0  0  0  0  0  0  0  0
  -13.6151  -43.9009   -9.3506 C   0  0  0  0  0  0  0  0  0  0  0  0
  -14.9705  -44.4447   -9.1633 C   0  0  0  0  0  0  0  0  0  0  0  0
  -15.1484  -45.6606   -8.9113 O   0  0  0  0  0  0  0  0  0  0  0  0
  -16.0829  -43.5720   -9.2720 N   0  0  0  0  0  0  0  0  0  0  0  0
  -17.3475  -43.8620   -8.5764 C   0  0  0  0  0  0  0  0  0  0  0  0
  -15.9420  -42.3980  -10.0787 C   0  0  1  0  0  0  0  0  0  0  0  0
  -15.9874  -42.8316  -11.5280 C   0  0  0  0  0  0  0  0  0  0  0  0
  -16.9870  -41.3765   -9.8911 C   0  0  0  0  0  0  0  0  0  0  0  0
  -18.1880  -41.7794   -9.7866 O   0  0  0  0  0  0  0  0  0  0  0  0
  -16.7810  -39.9763   -9.8159 N   0  0  0  0  0  0  0  0  0  0  0  0
  -20.8972  -39.1564   -7.6735 C   0  0  0  0  0  0  0  0  0  0  0  0
  -21.2558  -38.2192   -8.5836 C   0  0  0  0  0  0  0  0  0  0  0  0
  -22.2303  -38.5075   -9.5298 C   0  0  0  0  0  0  0  0  0  0  0  0
  -22.8345  -39.7398   -9.5493 C   0  0  0  0  0  0  0  0  0  0  0  0
  -22.4549  -40.6877   -8.6098 C   0  0  0  0  0  0  0  0  0  0  0  0
  -23.2750  -42.3932   -8.6204 Br  0  0  0  0  0  0  0  0  0  0  0  0
  -21.4846  -40.3850   -7.6756 C   0  0  0  0  0  0  0  0  0  0  0  0
  2  1  1  1
  2  3  1  0
  3  4  1  0
  4  5  1  0
  5  6  1  1
  5  7  1  0
  7  8  1  6
  8  9  1  0
  9 10  1  6
  9 11  1  0
 11 12  1  0
 12 13  1  0
 13 14  1  0
 14 15  1  0
 15 16  1  0
 16 17  1  0
 17 18  1  0
 18 19  1  0
 19 20  2  0
 19 21  1  0
 21 22  1  0
 21 23  1  0
 23 24  1  6
 23 25  1  0
 25 26  2  0
 25 27  1  0
  2 28  1  0
 28 29  2  0
 29 30  1  0
 30 31  2  0
 31 32  1  0
 32 33  1  0
 32 34  2  0
 27  7  1  0
 34 28  1  0
M  END
$$$$
