
     RDKit          3D

 34 35  0  0  0  0  0  0  0  0999 V2000
  -14.3387  -39.0332  -11.7190 C   0  0  0  0  0  0  0  0  0  0  0  0
  -15.0694  -38.1683  -10.7666 C   0  0  2  0  0  0  0  0  0  0  0  0
  -15.2793  -38.6777   -9.4782 N   0  0  0  0  0  0  0  0  0  0  0  0
  -16.3672  -39.5417   -9.2585 C   0  0  0  0  0  0  0  0  0  0  0  0
  -16.3324  -40.5554   -8.1965 C   0  0  1  0  0  0  0  0  0  0  0  0
  -15.2088  -40.2410   -7.3348 O   0  0  0  0  0  0  0  0  0  0  0  0
  -17.5401  -40.5258   -7.2696 C   0  0  2  0  0  0  0  0  0  0  0  0
  -17.9311  -39.1446   -6.8413 C   0  0  0  0  0  0  0  0  0  0  0  0
  -18.9833  -38.5531   -7.7857 C   0  0  2  0  0  0  0  0  0  0  0  0
  -19.0547  -37.0714   -7.6303 C   0  0  0  0  0  0  0  0  0  0  0  0
  -20.3251  -39.2283   -7.6135 C   0  0  0  0  0  0  0  0  0  0  0  0
  -21.4288  -38.4246   -8.2288 C   0  0  0  0  0  0  0  0  0  0  0  0
  -22.1962  -39.2489   -9.2419 C   0  0  0  0  0  0  0  0  0  0  0  0
  -23.1256  -40.2467   -8.6106 C   0  0  0  0  0  0  0  0  0  0  0  0
  -23.2121  -41.4448   -9.5405 C   0  0  0  0  0  0  0  0  0  0  0  0
  -23.7310  -42.6718   -8.8861 C   0  0  0  0  0  0  0  0  0  0  0  0
  -22.7536  -43.8320   -8.8895 C   0  0  0  0  0  0  0  0  0  0  0  0
  -21.4917  -43.4336   -8.2040 C   0  0  0  0  0  0  0  0  0  0  0  0
  -20.6471  -44.5670   -7.7918 C   0  0  0  0  0  0  0  0  0  0  0  0
  -21.0048  -45.7498   -8.0078 O   0  0  0  0  0  0  0  0  0  0  0  0
  -19.4142  -44.3055   -7.1419 N   0  0  0  0  0  0  0  0  0  0  0  0
  -18.3010  -45.2665   -7.2084 C   0  0  0  0  0  0  0  0  0  0  0  0
  -19.2813  -43.0780   -6.4177 C   0  0  1  0  0  0  0  0  0  0  0  0
  -20.0673  -43.2190   -5.1321 C   0  0  0  0  0  0  0  0  0  0  0  0
  -17.9024  -42.7085   -6.0533 C   0  0  0  0  0  0  0  0  0  0  0  0
  -17.1409  -43.6334   -5.6287 O   0  0  0  0  0  0  0  0  0  0  0  0
  -17.3384  -41.4106   -6.1306 N   0  0  0  0  0  0  0  0  0  0  0  0
  -16.3791  -37.7098  -11.3917 C   0  0  0  0  0  0  0  0  0  0  0  0
  -17.1762  -38.6148  -12.0089 C   0  0  0  0  0  0  0  0  0  0  0  0
  -18.3730  -38.2079  -12.5835 C   0  0  0  0  0  0  0  0  0  0  0  0
  -18.7550  -36.8906  -12.5302 C   0  0  0  0  0  0  0  0  0  0  0  0
  -17.9264  -35.9774  -11.8940 C   0  0  0  0  0  0  0  0  0  0  0  0
  -18.4355  -34.1566  -11.8085 Br  0  0  0  0  0  0  0  0  0  0  0  0
  -16.7397  -36.3981  -11.3280 C   0  0  0  0  0  0  0  0  0  0  0  0
  2  1  1  6
  2  3  1  0
  3  4  1  0
  4  5  1  0
  5  6  1  1
  5  7  1  0
  7  8  1  1
  8  9  1  0
  9 10  1  1
  9 11  1  0
 11 12  1  0
 12 13  1  0
 13 14  1  0
 14 15  1  0
 15 16  1  0
 16 17  1  0
 17 18  1  0
 18 19  1  0
 19 20  2  0
 19 21  1  0
 21 22  1  0
 21 23  1  0
 23 24  1  1
 23 25  1  0
 25 26  2  0
 25 27  1  0
  2 28  1  0
 28 29  2  0
 29 30  1  0
 30 31  2  0
 31 32  1  0
 32 33  1  0
 32 34  2  0
 27  7  1  0
 34 28  1  0
M  END
$$$$
