
     RDKit          3D

 34 35  0  0  0  0  0  0  0  0999 V2000
  -13.7723  -41.0792  -10.4734 C   0  0  0  0  0  0  0  0  0  0  0  0
  -13.3747  -39.6616  -10.3278 C   0  0  2  0  0  0  0  0  0  0  0  0
  -14.0923  -38.8923   -9.4022 N   0  0  0  0  0  0  0  0  0  0  0  0
  -15.1877  -39.4748   -8.7396 C   0  0  0  0  0  0  0  0  0  0  0  0
  -16.1227  -38.6602   -7.9527 C   0  0  1  0  0  0  0  0  0  0  0  0
  -16.9357  -37.9084   -8.8894 O   0  0  0  0  0  0  0  0  0  0  0  0
  -17.1272  -39.4723   -7.1464 C   0  0  2  0  0  0  0  0  0  0  0  0
  -17.8215  -38.6782   -6.0828 C   0  0  0  0  0  0  0  0  0  0  0  0
  -19.1336  -38.0849   -6.6077 C   0  0  2  0  0  0  0  0  0  0  0  0
  -19.5972  -36.9742   -5.7267 C   0  0  0  0  0  0  0  0  0  0  0  0
  -20.1838  -39.1536   -6.8096 C   0  0  0  0  0  0  0  0  0  0  0  0
  -21.5529  -38.5616   -6.9437 C   0  0  0  0  0  0  0  0  0  0  0  0
  -22.2044  -38.9975   -8.2399 C   0  0  0  0  0  0  0  0  0  0  0  0
  -22.7007  -40.4154   -8.2050 C   0  0  0  0  0  0  0  0  0  0  0  0
  -22.5891  -40.9749   -9.6129 C   0  0  0  0  0  0  0  0  0  0  0  0
  -22.6284  -42.4575   -9.6706 C   0  0  0  0  0  0  0  0  0  0  0  0
  -21.3751  -43.0846  -10.2515 C   0  0  0  0  0  0  0  0  0  0  0  0
  -20.1866  -42.6786   -9.4493 C   0  0  0  0  0  0  0  0  0  0  0  0
  -19.0011  -43.5262   -9.6588 C   0  0  0  0  0  0  0  0  0  0  0  0
  -19.0376  -44.5034  -10.4446 O   0  0  0  0  0  0  0  0  0  0  0  0
  -17.8067  -43.2241   -8.9566 N   0  0  0  0  0  0  0  0  0  0  0  0
  -16.4915  -43.6146   -9.4904 C   0  0  0  0  0  0  0  0  0  0  0  0
  -17.9153  -42.5270   -7.7111 C   0  0  1  0  0  0  0  0  0  0  0  0
  -18.4159  -43.5132   -6.6780 C   0  0  0  0  0  0  0  0  0  0  0  0
  -16.6585  -41.9527   -7.1999 C   0  0  0  0  0  0  0  0  0  0  0  0
  -15.6088  -42.6632   -7.2941 O   0  0  0  0  0  0  0  0  0  0  0  0
  -16.5057  -40.6742   -6.6077 N   0  0  0  0  0  0  0  0  0  0  0  0
  -13.3548  -38.9920  -11.6945 C   0  0  0  0  0  0  0  0  0  0  0  0
  -13.5574  -39.7393  -12.8061 C   0  0  0  0  0  0  0  0  0  0  0  0
  -13.5407  -39.1395  -14.0583 C   0  0  0  0  0  0  0  0  0  0  0  0
  -13.3197  -37.7901  -14.1776 C   0  0  0  0  0  0  0  0  0  0  0  0
  -13.1142  -37.0400  -13.0285 C   0  0  0  0  0  0  0  0  0  0  0  0
  -12.8090  -35.1778  -13.1714 Br  0  0  0  0  0  0  0  0  0  0  0  0
  -13.1337  -37.6517  -11.7911 C   0  0  0  0  0  0  0  0  0  0  0  0
  2  1  1  6
  2  3  1  0
  3  4  1  0
  4  5  1  0
  5  6  1  6
  5  7  1  0
  7  8  1  1
  8  9  1  0
  9 10  1  1
  9 11  1  0
 11 12  1  0
 12 13  1  0
 13 14  1  0
 14 15  1  0
 15 16  1  0
 16 17  1  0
 17 18  1  0
 18 19  1  0
 19 20  2  0
 19 21  1  0
 21 22  1  0
 21 23  1  0
 23 24  1  1
 23 25  1  0
 25 26  2  0
 25 27  1  0
  2 28  1  0
 28 29  2  0
 29 30  1  0
 30 31  2  0
 31 32  1  0
 32 33  1  0
 32 34  2  0
 27  7  1  0
 34 28  1  0
M  END
$$$$
