
     RDKit          3D

 34 35  0  0  0  0  0  0  0  0999 V2000
  -14.4329  -38.2300  -12.0273 C   0  0  0  0  0  0  0  0  0  0  0  0
  -15.0306  -39.2515  -11.1394 C   0  0  2  0  0  0  0  0  0  0  0  0
  -15.1383  -38.9274   -9.7804 N   0  0  0  0  0  0  0  0  0  0  0  0
  -16.0485  -39.6428   -8.9818 C   0  0  0  0  0  0  0  0  0  0  0  0
  -16.5101  -39.1132   -7.6922 C   0  0  1  0  0  0  0  0  0  0  0  0
  -17.3471  -37.9621   -7.9717 O   0  0  0  0  0  0  0  0  0  0  0  0
  -17.4168  -40.0618   -6.9198 C   0  0  2  0  0  0  0  0  0  0  0  0
  -18.0194  -39.4472   -5.6938 C   0  0  0  0  0  0  0  0  0  0  0  0
  -19.3867  -38.8282   -6.0041 C   0  0  2  0  0  0  0  0  0  0  0  0
  -19.7831  -37.8673   -4.9343 C   0  0  0  0  0  0  0  0  0  0  0  0
  -20.4318  -39.8910   -6.2575 C   0  0  0  0  0  0  0  0  0  0  0  0
  -21.8180  -39.3299   -6.1776 C   0  0  0  0  0  0  0  0  0  0  0  0
  -22.5839  -39.6003   -7.4563 C   0  0  0  0  0  0  0  0  0  0  0  0
  -23.0485  -41.0241   -7.5778 C   0  0  0  0  0  0  0  0  0  0  0  0
  -23.0634  -41.3769   -9.0553 C   0  0  0  0  0  0  0  0  0  0  0  0
  -23.0810  -42.8373   -9.3199 C   0  0  0  0  0  0  0  0  0  0  0  0
  -21.8785  -43.3366  -10.0985 C   0  0  0  0  0  0  0  0  0  0  0  0
  -20.6256  -43.0094   -9.3609 C   0  0  0  0  0  0  0  0  0  0  0  0
  -19.4506  -43.7811   -9.7987 C   0  0  0  0  0  0  0  0  0  0  0  0
  -19.5452  -44.6391  -10.7090 O   0  0  0  0  0  0  0  0  0  0  0  0
  -18.1996  -43.5426   -9.1751 N   0  0  0  0  0  0  0  0  0  0  0  0
  -16.9354  -43.8123   -9.8794 C   0  0  0  0  0  0  0  0  0  0  0  0
  -18.1999  -43.0308   -7.8383 C   0  0  1  0  0  0  0  0  0  0  0  0
  -18.5800  -44.1675   -6.9142 C   0  0  0  0  0  0  0  0  0  0  0  0
  -16.9102  -42.4940   -7.3698 C   0  0  0  0  0  0  0  0  0  0  0  0
  -15.8617  -43.1506   -7.6618 O   0  0  0  0  0  0  0  0  0  0  0  0
  -16.7242  -41.3070   -6.6183 N   0  0  0  0  0  0  0  0  0  0  0  0
  -14.3106  -40.5790  -11.3281 C   0  0  0  0  0  0  0  0  0  0  0  0
  -14.9699  -41.6214  -11.8885 C   0  0  0  0  0  0  0  0  0  0  0  0
  -14.3235  -42.8376  -12.0648 C   0  0  0  0  0  0  0  0  0  0  0  0
  -13.0167  -42.9911  -11.6740 C   0  0  0  0  0  0  0  0  0  0  0  0
  -12.3568  -41.9129  -11.1019 C   0  0  0  0  0  0  0  0  0  0  0  0
  -10.5544  -42.1036  -10.5573 Br  0  0  0  0  0  0  0  0  0  0  0  0
  -13.0139  -40.7106  -10.9334 C   0  0  0  0  0  0  0  0  0  0  0  0
  2  1  1  6
  2  3  1  0
  3  4  1  0
  4  5  1  0
  5  6  1  6
  5  7  1  0
  7  8  1  1
  8  9  1  0
  9 10  1  1
  9 11  1  0
 11 12  1  0
 12 13  1  0
 13 14  1  0
 14 15  1  0
 15 16  1  0
 16 17  1  0
 17 18  1  0
 18 19  1  0
 19 20  2  0
 19 21  1  0
 21 22  1  0
 21 23  1  0
 23 24  1  1
 23 25  1  0
 25 26  2  0
 25 27  1  0
  2 28  1  0
 28 29  2  0
 29 30  1  0
 30 31  2  0
 31 32  1  0
 32 33  1  0
 32 34  2  0
 27  7  1  0
 34 28  1  0
M  END
$$$$
