
     RDKit          3D

 34 35  0  0  0  0  0  0  0  0999 V2000
  -13.6822  -40.8980  -10.6005 C   0  0  0  0  0  0  0  0  0  0  0  0
  -13.4380  -39.5088  -10.1540 C   0  0  2  0  0  0  0  0  0  0  0  0
  -14.1637  -39.0621   -9.0416 N   0  0  0  0  0  0  0  0  0  0  0  0
  -15.4147  -39.6442   -8.7688 C   0  0  0  0  0  0  0  0  0  0  0  0
  -16.4042  -38.9621   -7.9248 C   0  0  1  0  0  0  0  0  0  0  0  0
  -17.2321  -38.1517   -8.7975 O   0  0  0  0  0  0  0  0  0  0  0  0
  -17.3858  -39.9008   -7.2362 C   0  0  2  0  0  0  0  0  0  0  0  0
  -18.0325  -39.3046   -6.0237 C   0  0  0  0  0  0  0  0  0  0  0  0
  -19.3575  -38.6244   -6.3854 C   0  0  2  0  0  0  0  0  0  0  0  0
  -19.7775  -37.6851   -5.3056 C   0  0  0  0  0  0  0  0  0  0  0  0
  -20.4246  -39.6379   -6.7319 C   0  0  0  0  0  0  0  0  0  0  0  0
  -21.7920  -39.0277   -6.7072 C   0  0  0  0  0  0  0  0  0  0  0  0
  -22.4954  -39.2266   -8.0341 C   0  0  0  0  0  0  0  0  0  0  0  0
  -23.0034  -40.6270   -8.2303 C   0  0  0  0  0  0  0  0  0  0  0  0
  -22.9495  -40.9300   -9.7179 C   0  0  0  0  0  0  0  0  0  0  0  0
  -23.0050  -42.3791  -10.0341 C   0  0  0  0  0  0  0  0  0  0  0  0
  -21.7801  -42.8976  -10.7638 C   0  0  0  0  0  0  0  0  0  0  0  0
  -20.5588  -42.6425   -9.9487 C   0  0  0  0  0  0  0  0  0  0  0  0
  -19.3900  -43.4433  -10.3493 C   0  0  0  0  0  0  0  0  0  0  0  0
  -19.4650  -44.2665  -11.2928 O   0  0  0  0  0  0  0  0  0  0  0  0
  -18.1675  -43.2730   -9.6511 N   0  0  0  0  0  0  0  0  0  0  0  0
  -16.8769  -43.5669  -10.2952 C   0  0  0  0  0  0  0  0  0  0  0  0
  -18.2232  -42.8060   -8.2991 C   0  0  1  0  0  0  0  0  0  0  0  0
  -18.6944  -43.9574   -7.4373 C   0  0  0  0  0  0  0  0  0  0  0  0
  -16.9429  -42.3342   -7.7432 C   0  0  0  0  0  0  0  0  0  0  0  0
  -15.9042  -43.0199   -8.0011 O   0  0  0  0  0  0  0  0  0  0  0  0
  -16.7561  -41.1805   -6.9416 N   0  0  0  0  0  0  0  0  0  0  0  0
  -13.6012  -38.5564  -11.3299 C   0  0  0  0  0  0  0  0  0  0  0  0
  -14.4187  -38.8968  -12.3551 C   0  0  0  0  0  0  0  0  0  0  0  0
  -14.5748  -38.0362  -13.4336 C   0  0  0  0  0  0  0  0  0  0  0  0
  -13.9042  -36.8391  -13.4679 C   0  0  0  0  0  0  0  0  0  0  0  0
  -13.0711  -36.5066  -12.4092 C   0  0  0  0  0  0  0  0  0  0  0  0
  -12.1384  -34.8601  -12.4367 Br  0  0  0  0  0  0  0  0  0  0  0  0
  -12.9267  -37.3734  -11.3446 C   0  0  0  0  0  0  0  0  0  0  0  0
  2  1  1  6
  2  3  1  0
  3  4  1  0
  4  5  1  0
  5  6  1  6
  5  7  1  0
  7  8  1  1
  8  9  1  0
  9 10  1  1
  9 11  1  0
 11 12  1  0
 12 13  1  0
 13 14  1  0
 14 15  1  0
 15 16  1  0
 16 17  1  0
 17 18  1  0
 18 19  1  0
 19 20  2  0
 19 21  1  0
 21 22  1  0
 21 23  1  0
 23 24  1  1
 23 25  1  0
 25 26  2  0
 25 27  1  0
  2 28  1  0
 28 29  2  0
 29 30  1  0
 30 31  2  0
 31 32  1  0
 32 33  1  0
 32 34  2  0
 27  7  1  0
 34 28  1  0
M  END
$$$$
