
     RDKit          3D

 34 35  0  0  0  0  0  0  0  0999 V2000
  -15.6824  -40.4962  -12.6916 C   0  0  0  0  0  0  0  0  0  0  0  0
  -15.1665  -39.7483  -11.5240 C   0  0  2  0  0  0  0  0  0  0  0  0
  -16.1006  -39.0271  -10.7683 N   0  0  0  0  0  0  0  0  0  0  0  0
  -16.4675  -39.5121   -9.5001 C   0  0  0  0  0  0  0  0  0  0  0  0
  -17.3856  -38.7613   -8.6340 C   0  0  1  0  0  0  0  0  0  0  0  0
  -18.6446  -38.6361   -9.3432 O   0  0  0  0  0  0  0  0  0  0  0  0
  -17.7488  -39.4807   -7.3421 C   0  0  2  0  0  0  0  0  0  0  0  0
  -18.3099  -38.5737   -6.2902 C   0  0  0  0  0  0  0  0  0  0  0  0
  -19.8395  -38.5190   -6.3701 C   0  0  2  0  0  0  0  0  0  0  0  0
  -20.3611  -37.3270   -5.6407 C   0  0  0  0  0  0  0  0  0  0  0  0
  -20.4657  -39.8142   -5.9050 C   0  0  0  0  0  0  0  0  0  0  0  0
  -21.9250  -39.6464   -5.6131 C   0  0  0  0  0  0  0  0  0  0  0  0
  -22.7525  -40.6259   -6.4197 C   0  0  0  0  0  0  0  0  0  0  0  0
  -22.6943  -42.0294   -5.8860 C   0  0  0  0  0  0  0  0  0  0  0  0
  -22.8369  -42.9749   -7.0664 C   0  0  0  0  0  0  0  0  0  0  0  0
  -22.3796  -44.3580   -6.7816 C   0  0  0  0  0  0  0  0  0  0  0  0
  -21.2313  -44.8199   -7.6589 C   0  0  0  0  0  0  0  0  0  0  0  0
  -20.0696  -43.9004   -7.4989 C   0  0  0  0  0  0  0  0  0  0  0  0
  -18.7911  -44.4584   -7.9699 C   0  0  0  0  0  0  0  0  0  0  0  0
  -18.7297  -45.6174   -8.4459 O   0  0  0  0  0  0  0  0  0  0  0  0
  -17.6191  -43.6652   -7.8791 N   0  0  0  0  0  0  0  0  0  0  0  0
  -16.4829  -43.8805   -8.7899 C   0  0  0  0  0  0  0  0  0  0  0  0
  -17.5713  -42.6464   -6.8747 C   0  0  1  0  0  0  0  0  0  0  0  0
  -17.3578  -43.3295   -5.5412 C   0  0  0  0  0  0  0  0  0  0  0  0
  -16.4965  -41.6519   -7.0379 C   0  0  0  0  0  0  0  0  0  0  0  0
  -15.3501  -42.0796   -7.3822 O   0  0  0  0  0  0  0  0  0  0  0  0
  -16.6181  -40.2531   -6.8459 N   0  0  0  0  0  0  0  0  0  0  0  0
  -14.0104  -38.8577  -11.9560 C   0  0  0  0  0  0  0  0  0  0  0  0
  -14.2105  -37.9247  -12.9176 C   0  0  0  0  0  0  0  0  0  0  0  0
  -13.1629  -37.1071  -13.3203 C   0  0  0  0  0  0  0  0  0  0  0  0
  -11.9220  -37.2384  -12.7487 C   0  0  0  0  0  0  0  0  0  0  0  0
  -11.7349  -38.1992  -11.7652 C   0  0  0  0  0  0  0  0  0  0  0  0
  -10.0318  -38.3953  -10.9637 Br  0  0  0  0  0  0  0  0  0  0  0  0
  -12.7868  -39.0042  -11.3763 C   0  0  0  0  0  0  0  0  0  0  0  0
  2  1  1  6
  2  3  1  0
  3  4  1  0
  4  5  1  0
  5  6  1  6
  5  7  1  0
  7  8  1  1
  8  9  1  0
  9 10  1  1
  9 11  1  0
 11 12  1  0
 12 13  1  0
 13 14  1  0
 14 15  1  0
 15 16  1  0
 16 17  1  0
 17 18  1  0
 18 19  1  0
 19 20  2  0
 19 21  1  0
 21 22  1  0
 21 23  1  0
 23 24  1  1
 23 25  1  0
 25 26  2  0
 25 27  1  0
  2 28  1  0
 28 29  2  0
 29 30  1  0
 30 31  2  0
 31 32  1  0
 32 33  1  0
 32 34  2  0
 27  7  1  0
 34 28  1  0
M  END
$$$$
