
     RDKit          3D

 34 35  0  0  0  0  0  0  0  0999 V2000
  -15.3264  -39.6931  -11.9624 C   0  0  0  0  0  0  0  0  0  0  0  0
  -14.3922  -39.1766  -10.9380 C   0  0  2  0  0  0  0  0  0  0  0  0
  -14.9592  -38.5655   -9.8117 N   0  0  0  0  0  0  0  0  0  0  0  0
  -15.3625  -39.3721   -8.7324 C   0  0  0  0  0  0  0  0  0  0  0  0
  -16.2966  -38.8722   -7.7154 C   0  0  1  0  0  0  0  0  0  0  0  0
  -17.2483  -38.0092   -8.3888 O   0  0  0  0  0  0  0  0  0  0  0  0
  -17.1547  -39.9545   -7.0744 C   0  0  2  0  0  0  0  0  0  0  0  0
  -17.8369  -39.5100   -5.8171 C   0  0  0  0  0  0  0  0  0  0  0  0
  -19.2358  -38.9593   -6.1156 C   0  0  2  0  0  0  0  0  0  0  0  0
  -19.7330  -38.1411   -4.9719 C   0  0  0  0  0  0  0  0  0  0  0  0
  -20.1926  -40.0611   -6.5111 C   0  0  0  0  0  0  0  0  0  0  0  0
  -21.6178  -39.6086   -6.4279 C   0  0  0  0  0  0  0  0  0  0  0  0
  -22.3232  -39.8011   -7.7546 C   0  0  0  0  0  0  0  0  0  0  0  0
  -22.6789  -41.2343   -8.0330 C   0  0  0  0  0  0  0  0  0  0  0  0
  -22.6237  -41.4364   -9.5375 C   0  0  0  0  0  0  0  0  0  0  0  0
  -22.5270  -42.8603   -9.9451 C   0  0  0  0  0  0  0  0  0  0  0  0
  -21.2685  -43.1938  -10.7239 C   0  0  0  0  0  0  0  0  0  0  0  0
  -20.0654  -42.8565   -9.9116 C   0  0  0  0  0  0  0  0  0  0  0  0
  -18.8248  -43.4966  -10.3793 C   0  0  0  0  0  0  0  0  0  0  0  0
  -18.8292  -44.2629  -11.3725 O   0  0  0  0  0  0  0  0  0  0  0  0
  -17.6137  -43.2359   -9.6891 N   0  0  0  0  0  0  0  0  0  0  0  0
  -16.3126  -43.3447  -10.3690 C   0  0  0  0  0  0  0  0  0  0  0  0
  -17.6915  -42.8628   -8.3094 C   0  0  1  0  0  0  0  0  0  0  0  0
  -18.0154  -44.1106   -7.5165 C   0  0  0  0  0  0  0  0  0  0  0  0
  -16.4590  -42.2878   -7.7426 C   0  0  0  0  0  0  0  0  0  0  0  0
  -15.3572  -42.8372   -8.0587 O   0  0  0  0  0  0  0  0  0  0  0  0
  -16.3826  -41.1726   -6.8715 N   0  0  0  0  0  0  0  0  0  0  0  0
  -13.3652  -38.2650  -11.5942 C   0  0  0  0  0  0  0  0  0  0  0  0
  -12.1482  -38.7603  -11.9241 C   0  0  0  0  0  0  0  0  0  0  0  0
  -11.2029  -37.9377  -12.5223 C   0  0  0  0  0  0  0  0  0  0  0  0
  -11.4944  -36.6219  -12.7826 C   0  0  0  0  0  0  0  0  0  0  0  0
  -12.7458  -36.1315  -12.4381 C   0  0  0  0  0  0  0  0  0  0  0  0
  -13.1679  -34.3204  -12.7897 Br  0  0  0  0  0  0  0  0  0  0  0  0
  -13.6743  -36.9624  -11.8438 C   0  0  0  0  0  0  0  0  0  0  0  0
  2  1  1  6
  2  3  1  0
  3  4  1  0
  4  5  1  0
  5  6  1  6
  5  7  1  0
  7  8  1  1
  8  9  1  0
  9 10  1  1
  9 11  1  0
 11 12  1  0
 12 13  1  0
 13 14  1  0
 14 15  1  0
 15 16  1  0
 16 17  1  0
 17 18  1  0
 18 19  1  0
 19 20  2  0
 19 21  1  0
 21 22  1  0
 21 23  1  0
 23 24  1  1
 23 25  1  0
 25 26  2  0
 25 27  1  0
  2 28  1  0
 28 29  2  0
 29 30  1  0
 30 31  2  0
 31 32  1  0
 32 33  1  0
 32 34  2  0
 27  7  1  0
 34 28  1  0
M  END
$$$$
