
     RDKit          3D

 34 35  0  0  0  0  0  0  0  0999 V2000
  -13.1167  -38.5579  -11.5589 C   0  0  0  0  0  0  0  0  0  0  0  0
  -14.1221  -39.4490  -10.9391 C   0  0  2  0  0  0  0  0  0  0  0  0
  -14.7330  -38.9959   -9.7623 N   0  0  0  0  0  0  0  0  0  0  0  0
  -16.0508  -39.3999   -9.4824 C   0  0  0  0  0  0  0  0  0  0  0  0
  -16.9081  -38.6263   -8.5750 C   0  0  1  0  0  0  0  0  0  0  0  0
  -17.9478  -38.0133   -9.3794 O   0  0  0  0  0  0  0  0  0  0  0  0
  -17.6644  -39.4743   -7.5613 C   0  0  2  0  0  0  0  0  0  0  0  0
  -18.2046  -38.6864   -6.4074 C   0  0  0  0  0  0  0  0  0  0  0  0
  -19.6393  -38.2223   -6.6821 C   0  0  2  0  0  0  0  0  0  0  0  0
  -20.0165  -37.1100   -5.7626 C   0  0  0  0  0  0  0  0  0  0  0  0
  -20.6136  -39.3776   -6.6391 C   0  0  0  0  0  0  0  0  0  0  0  0
  -22.0282  -38.9006   -6.5195 C   0  0  0  0  0  0  0  0  0  0  0  0
  -22.8789  -39.4471   -7.6476 C   0  0  0  0  0  0  0  0  0  0  0  0
  -23.2362  -40.8959   -7.4707 C   0  0  0  0  0  0  0  0  0  0  0  0
  -23.3521  -41.5117   -8.8545 C   0  0  0  0  0  0  0  0  0  0  0  0
  -23.2751  -42.9939   -8.8563 C   0  0  0  0  0  0  0  0  0  0  0  0
  -22.1093  -43.5491   -9.6525 C   0  0  0  0  0  0  0  0  0  0  0  0
  -20.8270  -43.0144   -9.1135 C   0  0  0  0  0  0  0  0  0  0  0  0
  -19.6366  -43.7766   -9.5254 C   0  0  0  0  0  0  0  0  0  0  0  0
  -19.7412  -44.7901  -10.2573 O   0  0  0  0  0  0  0  0  0  0  0  0
  -18.3589  -43.3497   -9.0822 N   0  0  0  0  0  0  0  0  0  0  0  0
  -17.1437  -43.6621   -9.8521 C   0  0  0  0  0  0  0  0  0  0  0  0
  -18.2833  -42.6044   -7.8626 C   0  0  1  0  0  0  0  0  0  0  0  0
  -18.4883  -43.5759   -6.7203 C   0  0  0  0  0  0  0  0  0  0  0  0
  -17.0049  -41.9106   -7.6274 C   0  0  0  0  0  0  0  0  0  0  0  0
  -15.9367  -42.5414   -7.9040 O   0  0  0  0  0  0  0  0  0  0  0  0
  -16.8500  -40.5973   -7.1178 N   0  0  0  0  0  0  0  0  0  0  0  0
  -13.5271  -40.8364  -10.7454 C   0  0  0  0  0  0  0  0  0  0  0  0
  -12.4869  -41.0029   -9.8935 C   0  0  0  0  0  0  0  0  0  0  0  0
  -11.9354  -42.2638   -9.7094 C   0  0  0  0  0  0  0  0  0  0  0  0
  -12.4388  -43.3462  -10.3869 C   0  0  0  0  0  0  0  0  0  0  0  0
  -13.5045  -43.1575  -11.2553 C   0  0  0  0  0  0  0  0  0  0  0  0
  -14.2139  -44.6372  -12.1980 Br  0  0  0  0  0  0  0  0  0  0  0  0
  -14.0411  -41.8973  -11.4272 C   0  0  0  0  0  0  0  0  0  0  0  0
  2  1  1  1
  2  3  1  0
  3  4  1  0
  4  5  1  0
  5  6  1  6
  5  7  1  0
  7  8  1  1
  8  9  1  0
  9 10  1  1
  9 11  1  0
 11 12  1  0
 12 13  1  0
 13 14  1  0
 14 15  1  0
 15 16  1  0
 16 17  1  0
 17 18  1  0
 18 19  1  0
 19 20  2  0
 19 21  1  0
 21 22  1  0
 21 23  1  0
 23 24  1  1
 23 25  1  0
 25 26  2  0
 25 27  1  0
  2 28  1  0
 28 29  2  0
 29 30  1  0
 30 31  2  0
 31 32  1  0
 32 33  1  0
 32 34  2  0
 27  7  1  0
 34 28  1  0
M  END
$$$$
