
     RDKit          3D

 34 35  0  0  0  0  0  0  0  0999 V2000
  -14.9341  -38.2076  -12.7993 C   0  0  0  0  0  0  0  0  0  0  0  0
  -15.2634  -39.1281  -11.6888 C   0  0  2  0  0  0  0  0  0  0  0  0
  -15.5465  -38.5477  -10.4452 N   0  0  0  0  0  0  0  0  0  0  0  0
  -16.1203  -39.3451   -9.4386 C   0  0  0  0  0  0  0  0  0  0  0  0
  -16.9112  -38.7499   -8.3538 C   0  0  1  0  0  0  0  0  0  0  0  0
  -18.1264  -38.2215   -8.9439 O   0  0  0  0  0  0  0  0  0  0  0  0
  -17.3989  -39.7536   -7.3178 C   0  0  2  0  0  0  0  0  0  0  0  0
  -17.5781  -39.1640   -5.9524 C   0  0  0  0  0  0  0  0  0  0  0  0
  -19.0148  -38.6696   -5.7511 C   0  0  2  0  0  0  0  0  0  0  0  0
  -19.0875  -37.7213   -4.6020 C   0  0  0  0  0  0  0  0  0  0  0  0
  -19.9853  -39.8221   -5.6255 C   0  0  0  0  0  0  0  0  0  0  0  0
  -21.2961  -39.3780   -5.0533 C   0  0  0  0  0  0  0  0  0  0  0  0
  -22.4393  -39.7410   -5.9785 C   0  0  0  0  0  0  0  0  0  0  0  0
  -22.7913  -41.2013   -5.9392 C   0  0  0  0  0  0  0  0  0  0  0  0
  -23.2989  -41.5877   -7.3179 C   0  0  0  0  0  0  0  0  0  0  0  0
  -23.2824  -43.0500   -7.5715 C   0  0  0  0  0  0  0  0  0  0  0  0
  -22.3960  -43.4640   -8.7310 C   0  0  0  0  0  0  0  0  0  0  0  0
  -20.9963  -43.0157   -8.4843 C   0  0  0  0  0  0  0  0  0  0  0  0
  -19.9910  -43.6956   -9.3178 C   0  0  0  0  0  0  0  0  0  0  0  0
  -20.3275  -44.5790  -10.1423 O   0  0  0  0  0  0  0  0  0  0  0  0
  -18.6258  -43.3384   -9.1775 N   0  0  0  0  0  0  0  0  0  0  0  0
  -17.6754  -43.5167  -10.2875 C   0  0  0  0  0  0  0  0  0  0  0  0
  -18.1961  -42.7980   -7.9236 C   0  0  1  0  0  0  0  0  0  0  0  0
  -18.1234  -43.9413   -6.9346 C   0  0  0  0  0  0  0  0  0  0  0  0
  -16.8759  -42.1441   -7.9395 C   0  0  0  0  0  0  0  0  0  0  0  0
  -15.9465  -42.7166   -8.5909 O   0  0  0  0  0  0  0  0  0  0  0  0
  -16.5391  -40.9288   -7.2930 N   0  0  0  0  0  0  0  0  0  0  0  0
  -14.1775  -40.1870  -11.5618 C   0  0  0  0  0  0  0  0  0  0  0  0
  -14.4725  -41.4807  -11.8350 C   0  0  0  0  0  0  0  0  0  0  0  0
  -13.4901  -42.4555  -11.7218 C   0  0  0  0  0  0  0  0  0  0  0  0
  -12.2180  -42.1158  -11.3339 C   0  0  0  0  0  0  0  0  0  0  0  0
  -11.9335  -40.7860  -11.0582 C   0  0  0  0  0  0  0  0  0  0  0  0
  -10.1854  -40.2968  -10.5231 Br  0  0  0  0  0  0  0  0  0  0  0  0
  -12.9216  -39.8291  -11.1754 C   0  0  0  0  0  0  0  0  0  0  0  0
  2  1  1  6
  2  3  1  0
  3  4  1  0
  4  5  1  0
  5  6  1  6
  5  7  1  0
  7  8  1  1
  8  9  1  0
  9 10  1  1
  9 11  1  0
 11 12  1  0
 12 13  1  0
 13 14  1  0
 14 15  1  0
 15 16  1  0
 16 17  1  0
 17 18  1  0
 18 19  1  0
 19 20  2  0
 19 21  1  0
 21 22  1  0
 21 23  1  0
 23 24  1  1
 23 25  1  0
 25 26  2  0
 25 27  1  0
  2 28  1  0
 28 29  2  0
 29 30  1  0
 30 31  2  0
 31 32  1  0
 32 33  1  0
 32 34  2  0
 27  7  1  0
 34 28  1  0
M  END
$$$$
