
     RDKit          3D

 34 35  0  0  0  0  0  0  0  0999 V2000
  -20.2999  -38.9341   -5.8937 C   0  0  0  0  0  0  0  0  0  0  0  0
  -19.7835  -39.2925   -7.2331 C   0  0  2  0  0  0  0  0  0  0  0  0
  -18.6754  -38.5731   -7.7001 N   0  0  0  0  0  0  0  0  0  0  0  0
  -17.4046  -39.1735   -7.6469 C   0  0  0  0  0  0  0  0  0  0  0  0
  -16.1996  -38.4438   -8.0618 C   0  0  1  0  0  0  0  0  0  0  0  0
  -15.0788  -39.0118   -7.3372 O   0  0  0  0  0  0  0  0  0  0  0  0
  -15.8352  -38.6295   -9.5285 C   0  0  2  0  0  0  0  0  0  0  0  0
  -15.4036  -37.3630  -10.2021 C   0  0  0  0  0  0  0  0  0  0  0  0
  -13.8824  -37.1912  -10.1275 C   0  0  2  0  0  0  0  0  0  0  0  0
  -13.4999  -35.7752  -10.3985 C   0  0  0  0  0  0  0  0  0  0  0  0
  -13.1685  -38.1760  -11.0256 C   0  0  0  0  0  0  0  0  0  0  0  0
  -11.7442  -37.7761  -11.2585 C   0  0  0  0  0  0  0  0  0  0  0  0
  -10.7988  -38.8899  -10.8577 C   0  0  0  0  0  0  0  0  0  0  0  0
  -10.7598  -40.0183  -11.8493 C   0  0  0  0  0  0  0  0  0  0  0  0
  -10.4820  -41.2970  -11.0778 C   0  0  0  0  0  0  0  0  0  0  0  0
  -10.8304  -42.5318  -11.8242 C   0  0  0  0  0  0  0  0  0  0  0  0
  -11.8930  -43.3795  -11.1505 C   0  0  0  0  0  0  0  0  0  0  0  0
  -13.1361  -42.5793  -10.9627 C   0  0  0  0  0  0  0  0  0  0  0  0
  -14.3384  -43.3878  -10.7013 C   0  0  0  0  0  0  0  0  0  0  0  0
  -14.2774  -44.6401  -10.6618 O   0  0  0  0  0  0  0  0  0  0  0  0
  -15.5776  -42.7304  -10.4930 N   0  0  0  0  0  0  0  0  0  0  0  0
  -16.6478  -43.3588   -9.7014 C   0  0  0  0  0  0  0  0  0  0  0  0
  -15.7594  -41.4354  -11.0751 C   0  0  1  0  0  0  0  0  0  0  0  0
  -15.9741  -41.6287  -12.5608 C   0  0  0  0  0  0  0  0  0  0  0  0
  -16.9076  -40.6694  -10.5596 C   0  0  0  0  0  0  0  0  0  0  0  0
  -17.9956  -41.2994  -10.3729 O   0  0  0  0  0  0  0  0  0  0  0  0
  -16.9164  -39.2865  -10.2498 N   0  0  0  0  0  0  0  0  0  0  0  0
  -20.9196  -39.2619   -8.2453 C   0  0  0  0  0  0  0  0  0  0  0  0
  -21.6140  -40.3963   -8.5029 C   0  0  0  0  0  0  0  0  0  0  0  0
  -22.6520  -40.3805   -9.4251 C   0  0  0  0  0  0  0  0  0  0  0  0
  -22.9803  -39.2195  -10.0794 C   0  0  0  0  0  0  0  0  0  0  0  0
  -22.2587  -38.0670   -9.8032 C   0  0  0  0  0  0  0  0  0  0  0  0
  -22.6965  -36.4555  -10.6938 Br  0  0  0  0  0  0  0  0  0  0  0  0
  -21.2295  -38.0996   -8.8838 C   0  0  0  0  0  0  0  0  0  0  0  0
  2  1  1  1
  2  3  1  0
  3  4  1  0
  4  5  1  0
  5  6  1  1
  5  7  1  0
  7  8  1  6
  8  9  1  0
  9 10  1  6
  9 11  1  0
 11 12  1  0
 12 13  1  0
 13 14  1  0
 14 15  1  0
 15 16  1  0
 16 17  1  0
 17 18  1  0
 18 19  1  0
 19 20  2  0
 19 21  1  0
 21 22  1  0
 21 23  1  0
 23 24  1  6
 23 25  1  0
 25 26  2  0
 25 27  1  0
  2 28  1  0
 28 29  2  0
 29 30  1  0
 30 31  2  0
 31 32  1  0
 32 33  1  0
 32 34  2  0
 27  7  1  0
 34 28  1  0
M  END
$$$$
