
     RDKit          3D

 34 35  0  0  0  0  0  0  0  0999 V2000
  -12.7483  -38.8736   -9.8792 C   0  0  0  0  0  0  0  0  0  0  0  0
  -14.1445  -38.4448  -10.1154 C   0  0  2  0  0  0  0  0  0  0  0  0
  -15.0951  -39.4555  -10.3107 N   0  0  0  0  0  0  0  0  0  0  0  0
  -15.8238  -39.9255   -9.2033 C   0  0  0  0  0  0  0  0  0  0  0  0
  -17.2600  -39.6519   -9.0649 C   0  0  1  0  0  0  0  0  0  0  0  0
  -17.9633  -40.5872   -9.9219 O   0  0  0  0  0  0  0  0  0  0  0  0
  -17.8130  -39.9248   -7.6727 C   0  0  2  0  0  0  0  0  0  0  0  0
  -18.0643  -38.6820   -6.8751 C   0  0  0  0  0  0  0  0  0  0  0  0
  -19.5063  -38.1949   -7.0557 C   0  0  2  0  0  0  0  0  0  0  0  0
  -19.6365  -36.7709   -6.6313 C   0  0  0  0  0  0  0  0  0  0  0  0
  -20.4911  -39.1083   -6.3617 C   0  0  0  0  0  0  0  0  0  0  0  0
  -21.8286  -38.4544   -6.1998 C   0  0  0  0  0  0  0  0  0  0  0  0
  -22.9206  -39.2978   -6.8252 C   0  0  0  0  0  0  0  0  0  0  0  0
  -23.2854  -40.4997   -6.0004 C   0  0  0  0  0  0  0  0  0  0  0  0
  -23.7173  -41.5980   -6.9568 C   0  0  0  0  0  0  0  0  0  0  0  0
  -23.6977  -42.9548   -6.3553 C   0  0  0  0  0  0  0  0  0  0  0  0
  -22.7505  -43.9197   -7.0431 C   0  0  0  0  0  0  0  0  0  0  0  0
  -21.3636  -43.3751   -7.0153 C   0  0  0  0  0  0  0  0  0  0  0  0
  -20.3180  -44.3776   -7.2789 C   0  0  0  0  0  0  0  0  0  0  0  0
  -20.6143  -45.5780   -7.4906 O   0  0  0  0  0  0  0  0  0  0  0  0
  -18.9602  -43.9687   -7.2908 N   0  0  0  0  0  0  0  0  0  0  0  0
  -17.9502  -44.7086   -8.0650 C   0  0  0  0  0  0  0  0  0  0  0  0
  -18.5979  -42.8134   -6.5274 C   0  0  1  0  0  0  0  0  0  0  0  0
  -18.5897  -43.2145   -5.0681 C   0  0  0  0  0  0  0  0  0  0  0  0
  -17.2739  -42.2452   -6.8359 C   0  0  0  0  0  0  0  0  0  0  0  0
  -16.3137  -43.0593   -7.0116 O   0  0  0  0  0  0  0  0  0  0  0  0
  -16.9649  -40.8673   -6.9561 N   0  0  0  0  0  0  0  0  0  0  0  0
  -14.1843  -37.4318  -11.2506 C   0  0  0  0  0  0  0  0  0  0  0  0
  -13.9546  -37.8441  -12.5205 C   0  0  0  0  0  0  0  0  0  0  0  0
  -13.9875  -36.9289  -13.5641 C   0  0  0  0  0  0  0  0  0  0  0  0
  -14.2523  -35.6049  -13.3170 C   0  0  0  0  0  0  0  0  0  0  0  0
  -14.4854  -35.2003  -12.0104 C   0  0  0  0  0  0  0  0  0  0  0  0
  -14.8535  -33.3795  -11.6486 Br  0  0  0  0  0  0  0  0  0  0  0  0
  -14.4488  -36.1228  -10.9841 C   0  0  0  0  0  0  0  0  0  0  0  0
  2  1  1  6
  2  3  1  0
  3  4  1  0
  4  5  1  0
  5  6  1  6
  5  7  1  0
  7  8  1  1
  8  9  1  0
  9 10  1  1
  9 11  1  0
 11 12  1  0
 12 13  1  0
 13 14  1  0
 14 15  1  0
 15 16  1  0
 16 17  1  0
 17 18  1  0
 18 19  1  0
 19 20  2  0
 19 21  1  0
 21 22  1  0
 21 23  1  0
 23 24  1  1
 23 25  1  0
 25 26  2  0
 25 27  1  0
  2 28  1  0
 28 29  2  0
 29 30  1  0
 30 31  2  0
 31 32  1  0
 32 33  1  0
 32 34  2  0
 27  7  1  0
 34 28  1  0
M  END
$$$$
