
     RDKit          3D

 34 35  0  0  0  0  0  0  0  0999 V2000
  -19.8964  -36.4296   -7.2921 C   0  0  0  0  0  0  0  0  0  0  0  0
  -19.5363  -37.8152   -6.9188 C   0  0  2  0  0  0  0  0  0  0  0  0
  -18.4551  -38.3949   -7.5959 N   0  0  0  0  0  0  0  0  0  0  0  0
  -17.5524  -39.1960   -6.8737 C   0  0  0  0  0  0  0  0  0  0  0  0
  -16.1290  -39.2512   -7.2309 C   0  0  1  0  0  0  0  0  0  0  0  0
  -15.4594  -40.0460   -6.2191 O   0  0  0  0  0  0  0  0  0  0  0  0
  -15.8441  -39.9820   -8.5361 C   0  0  2  0  0  0  0  0  0  0  0  0
  -14.5424  -39.5930   -9.1671 C   0  0  0  0  0  0  0  0  0  0  0  0
  -13.4121  -40.5244   -8.7153 C   0  0  2  0  0  0  0  0  0  0  0  0
  -12.0822  -39.9041   -8.9823 C   0  0  0  0  0  0  0  0  0  0  0  0
  -13.5521  -41.9016   -9.3234 C   0  0  0  0  0  0  0  0  0  0  0  0
  -12.2810  -42.6852   -9.2097 C   0  0  0  0  0  0  0  0  0  0  0  0
  -12.5201  -44.0006   -8.4973 C   0  0  0  0  0  0  0  0  0  0  0  0
  -13.2037  -45.0243   -9.3591 C   0  0  0  0  0  0  0  0  0  0  0  0
  -14.0540  -45.8948   -8.4498 C   0  0  0  0  0  0  0  0  0  0  0  0
  -15.1038  -46.6602   -9.1674 C   0  0  0  0  0  0  0  0  0  0  0  0
  -16.5174  -46.3258   -8.7300 C   0  0  0  0  0  0  0  0  0  0  0  0
  -16.7791  -44.8722   -8.9291 C   0  0  0  0  0  0  0  0  0  0  0  0
  -18.2067  -44.5121   -8.9279 C   0  0  0  0  0  0  0  0  0  0  0  0
  -19.0927  -45.3881   -8.7815 O   0  0  0  0  0  0  0  0  0  0  0  0
  -18.5733  -43.1525   -9.0957 N   0  0  0  0  0  0  0  0  0  0  0  0
  -19.8450  -42.6368   -8.5630 C   0  0  0  0  0  0  0  0  0  0  0  0
  -17.6703  -42.2931   -9.7991 C   0  0  1  0  0  0  0  0  0  0  0  0
  -17.7743  -42.6281  -11.2713 C   0  0  0  0  0  0  0  0  0  0  0  0
  -17.9339  -40.8506   -9.6554 C   0  0  0  0  0  0  0  0  0  0  0  0
  -19.1449  -40.4683   -9.7098 O   0  0  0  0  0  0  0  0  0  0  0  0
  -16.9597  -39.8398   -9.4614 N   0  0  0  0  0  0  0  0  0  0  0  0
  -20.7692  -38.7040   -6.9978 C   0  0  0  0  0  0  0  0  0  0  0  0
  -21.4883  -38.7463   -8.1451 C   0  0  0  0  0  0  0  0  0  0  0  0
  -22.6154  -39.5530   -8.2286 C   0  0  0  0  0  0  0  0  0  0  0  0
  -23.0070  -40.3103   -7.1529 C   0  0  0  0  0  0  0  0  0  0  0  0
  -22.2586  -40.2549   -5.9858 C   0  0  0  0  0  0  0  0  0  0  0  0
  -22.7810  -41.2924   -4.4917 Br  0  0  0  0  0  0  0  0  0  0  0  0
  -21.1408  -39.4476   -5.9191 C   0  0  0  0  0  0  0  0  0  0  0  0
  2  1  1  6
  2  3  1  0
  3  4  1  0
  4  5  1  0
  5  6  1  1
  5  7  1  0
  7  8  1  6
  8  9  1  0
  9 10  1  6
  9 11  1  0
 11 12  1  0
 12 13  1  0
 13 14  1  0
 14 15  1  0
 15 16  1  0
 16 17  1  0
 17 18  1  0
 18 19  1  0
 19 20  2  0
 19 21  1  0
 21 22  1  0
 21 23  1  0
 23 24  1  6
 23 25  1  0
 25 26  2  0
 25 27  1  0
  2 28  1  0
 28 29  2  0
 29 30  1  0
 30 31  2  0
 31 32  1  0
 32 33  1  0
 32 34  2  0
 27  7  1  0
 34 28  1  0
M  END
$$$$
