
     RDKit          3D

 34 35  0  0  0  0  0  0  0  0999 V2000
  -15.4045  -39.7413  -10.8002 C   0  0  0  0  0  0  0  0  0  0  0  0
  -16.4607  -38.7869  -11.2034 C   0  0  2  0  0  0  0  0  0  0  0  0
  -17.2349  -38.2261  -10.1789 N   0  0  0  0  0  0  0  0  0  0  0  0
  -18.0310  -39.0737   -9.3878 C   0  0  0  0  0  0  0  0  0  0  0  0
  -18.5014  -38.6569   -8.0605 C   0  0  1  0  0  0  0  0  0  0  0  0
  -19.9206  -38.3788   -8.1719 O   0  0  0  0  0  0  0  0  0  0  0  0
  -18.4112  -39.7454   -6.9995 C   0  0  2  0  0  0  0  0  0  0  0  0
  -18.3616  -39.2133   -5.6000 C   0  0  0  0  0  0  0  0  0  0  0  0
  -19.7674  -39.1210   -4.9966 C   0  0  2  0  0  0  0  0  0  0  0  0
  -19.7713  -38.2168   -3.8103 C   0  0  0  0  0  0  0  0  0  0  0  0
  -20.3322  -40.4906   -4.6946 C   0  0  0  0  0  0  0  0  0  0  0  0
  -21.5079  -40.4096   -3.7705 C   0  0  0  0  0  0  0  0  0  0  0  0
  -22.7230  -41.0746   -4.3838 C   0  0  0  0  0  0  0  0  0  0  0  0
  -22.6576  -42.5754   -4.3474 C   0  0  0  0  0  0  0  0  0  0  0  0
  -23.4002  -43.0962   -5.5659 C   0  0  0  0  0  0  0  0  0  0  0  0
  -23.0721  -44.5027   -5.9085 C   0  0  0  0  0  0  0  0  0  0  0  0
  -22.4564  -44.6738   -7.2844 C   0  0  0  0  0  0  0  0  0  0  0  0
  -21.2095  -43.8640   -7.3861 C   0  0  0  0  0  0  0  0  0  0  0  0
  -20.3260  -44.2564   -8.4966 C   0  0  0  0  0  0  0  0  0  0  0  0
  -20.6305  -45.2052   -9.2587 O   0  0  0  0  0  0  0  0  0  0  0  0
  -19.1161  -43.5445   -8.6976 N   0  0  0  0  0  0  0  0  0  0  0  0
  -18.4893  -43.4711  -10.0276 C   0  0  0  0  0  0  0  0  0  0  0  0
  -18.5197  -42.8974   -7.5688 C   0  0  1  0  0  0  0  0  0  0  0  0
  -17.8865  -43.9702   -6.7094 C   0  0  0  0  0  0  0  0  0  0  0  0
  -17.4711  -41.9132   -7.8892 C   0  0  0  0  0  0  0  0  0  0  0  0
  -16.6368  -42.2209   -8.7975 O   0  0  0  0  0  0  0  0  0  0  0  0
  -17.3011  -40.6463   -7.2773 N   0  0  0  0  0  0  0  0  0  0  0  0
  -17.3432  -39.4197  -12.2698 C   0  0  0  0  0  0  0  0  0  0  0  0
  -17.1431  -40.7131  -12.6196 C   0  0  0  0  0  0  0  0  0  0  0  0
  -17.9415  -41.3008  -13.5918 C   0  0  0  0  0  0  0  0  0  0  0  0
  -18.9354  -40.5776  -14.2026 C   0  0  0  0  0  0  0  0  0  0  0  0
  -19.1264  -39.2542  -13.8320 C   0  0  0  0  0  0  0  0  0  0  0  0
  -20.4923  -38.2402  -14.6613 Br  0  0  0  0  0  0  0  0  0  0  0  0
  -18.3238  -38.6848  -12.8638 C   0  0  0  0  0  0  0  0  0  0  0  0
  2  1  1  1
  2  3  1  0
  3  4  1  0
  4  5  1  0
  5  6  1  6
  5  7  1  0
  7  8  1  1
  8  9  1  0
  9 10  1  1
  9 11  1  0
 11 12  1  0
 12 13  1  0
 13 14  1  0
 14 15  1  0
 15 16  1  0
 16 17  1  0
 17 18  1  0
 18 19  1  0
 19 20  2  0
 19 21  1  0
 21 22  1  0
 21 23  1  0
 23 24  1  1
 23 25  1  0
 25 26  2  0
 25 27  1  0
  2 28  1  0
 28 29  2  0
 29 30  1  0
 30 31  2  0
 31 32  1  0
 32 33  1  0
 32 34  2  0
 27  7  1  0
 34 28  1  0
M  END
$$$$
