
     RDKit          3D

 34 35  0  0  0  0  0  0  0  0999 V2000
  -19.9336  -39.4524   -5.3601 C   0  0  0  0  0  0  0  0  0  0  0  0
  -19.3398  -39.8845   -6.6445 C   0  0  2  0  0  0  0  0  0  0  0  0
  -18.4434  -39.0003   -7.2594 N   0  0  0  0  0  0  0  0  0  0  0  0
  -17.1715  -39.4720   -7.6307 C   0  0  0  0  0  0  0  0  0  0  0  0
  -16.1384  -38.5590   -8.1366 C   0  0  1  0  0  0  0  0  0  0  0  0
  -14.8543  -39.0760   -7.7035 O   0  0  0  0  0  0  0  0  0  0  0  0
  -16.0366  -38.5165   -9.6553 C   0  0  2  0  0  0  0  0  0  0  0  0
  -16.6446  -37.2887  -10.2610 C   0  0  0  0  0  0  0  0  0  0  0  0
  -15.5970  -36.1831  -10.4317 C   0  0  2  0  0  0  0  0  0  0  0  0
  -16.2570  -34.8587  -10.6194 C   0  0  0  0  0  0  0  0  0  0  0  0
  -14.6166  -36.5137  -11.5343 C   0  0  0  0  0  0  0  0  0  0  0  0
  -13.8462  -35.3045  -11.9666 C   0  0  0  0  0  0  0  0  0  0  0  0
  -12.3551  -35.5446  -11.8493 C   0  0  0  0  0  0  0  0  0  0  0  0
  -11.8089  -36.4194  -12.9421 C   0  0  0  0  0  0  0  0  0  0  0  0
  -10.6415  -37.2006  -12.3636 C   0  0  0  0  0  0  0  0  0  0  0  0
  -10.2707  -38.3967  -13.1604 C   0  0  0  0  0  0  0  0  0  0  0  0
  -10.4003  -39.7052  -12.4037 C   0  0  0  0  0  0  0  0  0  0  0  0
  -11.8010  -39.8773  -11.9250 C   0  0  0  0  0  0  0  0  0  0  0  0
  -12.1415  -41.2582  -11.5443 C   0  0  0  0  0  0  0  0  0  0  0  0
  -11.2976  -42.1811  -11.6431 O   0  0  0  0  0  0  0  0  0  0  0  0
  -13.4451  -41.5370  -11.0607 N   0  0  0  0  0  0  0  0  0  0  0  0
  -13.6957  -42.6779  -10.1649 C   0  0  0  0  0  0  0  0  0  0  0  0
  -14.5134  -40.6759  -11.4685 C   0  0  1  0  0  0  0  0  0  0  0  0
  -14.8450  -41.0096  -12.9070 C   0  0  0  0  0  0  0  0  0  0  0  0
  -15.7568  -40.8032  -10.6884 C   0  0  0  0  0  0  0  0  0  0  0  0
  -16.1388  -41.9763  -10.3824 O   0  0  0  0  0  0  0  0  0  0  0  0
  -16.5751  -39.7353  -10.2430 N   0  0  0  0  0  0  0  0  0  0  0  0
  -20.4445  -40.2977   -7.6065 C   0  0  0  0  0  0  0  0  0  0  0  0
  -20.8549  -41.5884   -7.6358 C   0  0  0  0  0  0  0  0  0  0  0  0
  -21.8613  -41.9772   -8.5099 C   0  0  0  0  0  0  0  0  0  0  0  0
  -22.4451  -41.0593   -9.3470 C   0  0  0  0  0  0  0  0  0  0  0  0
  -22.0126  -39.7416   -9.3035 C   0  0  0  0  0  0  0  0  0  0  0  0
  -22.8055  -38.4604  -10.4486 Br  0  0  0  0  0  0  0  0  0  0  0  0
  -21.0107  -39.3715   -8.4288 C   0  0  0  0  0  0  0  0  0  0  0  0
  2  1  1  1
  2  3  1  0
  3  4  1  0
  4  5  1  0
  5  6  1  1
  5  7  1  0
  7  8  1  6
  8  9  1  0
  9 10  1  6
  9 11  1  0
 11 12  1  0
 12 13  1  0
 13 14  1  0
 14 15  1  0
 15 16  1  0
 16 17  1  0
 17 18  1  0
 18 19  1  0
 19 20  2  0
 19 21  1  0
 21 22  1  0
 21 23  1  0
 23 24  1  6
 23 25  1  0
 25 26  2  0
 25 27  1  0
  2 28  1  0
 28 29  2  0
 29 30  1  0
 30 31  2  0
 31 32  1  0
 32 33  1  0
 32 34  2  0
 27  7  1  0
 34 28  1  0
M  END
$$$$
