
     RDKit          3D

 34 35  0  0  0  0  0  0  0  0999 V2000
  -12.8698  -40.7863   -8.9438 C   0  0  0  0  0  0  0  0  0  0  0  0
  -13.0785  -39.6825   -9.9066 C   0  0  2  0  0  0  0  0  0  0  0  0
  -14.3014  -39.0021   -9.8376 N   0  0  0  0  0  0  0  0  0  0  0  0
  -15.3072  -39.4975   -8.9883 C   0  0  0  0  0  0  0  0  0  0  0  0
  -16.2361  -38.5926   -8.2992 C   0  0  1  0  0  0  0  0  0  0  0  0
  -17.1065  -38.0167   -9.3065 O   0  0  0  0  0  0  0  0  0  0  0  0
  -17.1844  -39.2923   -7.3349 C   0  0  2  0  0  0  0  0  0  0  0  0
  -17.7524  -38.3824   -6.2893 C   0  0  0  0  0  0  0  0  0  0  0  0
  -19.0898  -37.7883   -6.7450 C   0  0  2  0  0  0  0  0  0  0  0  0
  -19.4359  -36.5879   -5.9301 C   0  0  0  0  0  0  0  0  0  0  0  0
  -20.1853  -38.8302   -6.7531 C   0  0  0  0  0  0  0  0  0  0  0  0
  -21.5429  -38.2010   -6.8159 C   0  0  0  0  0  0  0  0  0  0  0  0
  -22.3254  -38.7240   -8.0029 C   0  0  0  0  0  0  0  0  0  0  0  0
  -22.8578  -40.1136   -7.7946 C   0  0  0  0  0  0  0  0  0  0  0  0
  -22.8949  -40.7982   -9.1502 C   0  0  0  0  0  0  0  0  0  0  0  0
  -22.9832  -42.2777   -9.0692 C   0  0  0  0  0  0  0  0  0  0  0  0
  -21.8087  -43.0002   -9.7017 C   0  0  0  0  0  0  0  0  0  0  0  0
  -20.5390  -42.5705   -9.0507 C   0  0  0  0  0  0  0  0  0  0  0  0
  -19.4037  -43.4773   -9.2887 C   0  0  0  0  0  0  0  0  0  0  0  0
  -19.5425  -44.5176   -9.9760 O   0  0  0  0  0  0  0  0  0  0  0  0
  -18.1405  -43.1601   -8.7279 N   0  0  0  0  0  0  0  0  0  0  0  0
  -16.8932  -43.6452   -9.3409 C   0  0  0  0  0  0  0  0  0  0  0  0
  -18.1115  -42.3529   -7.5462 C   0  0  1  0  0  0  0  0  0  0  0  0
  -18.5422  -43.2251   -6.3867 C   0  0  0  0  0  0  0  0  0  0  0  0
  -16.7960  -41.7837   -7.2051 C   0  0  0  0  0  0  0  0  0  0  0  0
  -15.7812  -42.5389   -7.3291 O   0  0  0  0  0  0  0  0  0  0  0  0
  -16.5509  -40.4649   -6.7478 N   0  0  0  0  0  0  0  0  0  0  0  0
  -12.8090  -40.1778  -11.3203 C   0  0  0  0  0  0  0  0  0  0  0  0
  -12.1205  -39.3916  -12.1824 C   0  0  0  0  0  0  0  0  0  0  0  0
  -11.8694  -39.8326  -13.4749 C   0  0  0  0  0  0  0  0  0  0  0  0
  -12.3155  -41.0638  -13.8861 C   0  0  0  0  0  0  0  0  0  0  0  0
  -13.0190  -41.8559  -12.9900 C   0  0  0  0  0  0  0  0  0  0  0  0
  -13.6416  -43.5573  -13.5370 Br  0  0  0  0  0  0  0  0  0  0  0  0
  -13.2604  -41.4026  -11.7086 C   0  0  0  0  0  0  0  0  0  0  0  0
  2  1  1  1
  2  3  1  0
  3  4  1  0
  4  5  1  0
  5  6  1  6
  5  7  1  0
  7  8  1  1
  8  9  1  0
  9 10  1  1
  9 11  1  0
 11 12  1  0
 12 13  1  0
 13 14  1  0
 14 15  1  0
 15 16  1  0
 16 17  1  0
 17 18  1  0
 18 19  1  0
 19 20  2  0
 19 21  1  0
 21 22  1  0
 21 23  1  0
 23 24  1  1
 23 25  1  0
 25 26  2  0
 25 27  1  0
  2 28  1  0
 28 29  2  0
 29 30  1  0
 30 31  2  0
 31 32  1  0
 32 33  1  0
 32 34  2  0
 27  7  1  0
 34 28  1  0
M  END
$$$$
