
     RDKit          3D

 34 35  0  0  0  0  0  0  0  0999 V2000
  -15.2469  -37.2975  -12.3681 C   0  0  0  0  0  0  0  0  0  0  0  0
  -14.7041  -38.2544  -11.3788 C   0  0  2  0  0  0  0  0  0  0  0  0
  -14.9806  -37.9982  -10.0292 N   0  0  0  0  0  0  0  0  0  0  0  0
  -15.9132  -38.8118   -9.3609 C   0  0  0  0  0  0  0  0  0  0  0  0
  -16.6327  -38.3295   -8.1750 C   0  0  1  0  0  0  0  0  0  0  0  0
  -17.7004  -37.4642   -8.6388 O   0  0  0  0  0  0  0  0  0  0  0  0
  -17.3456  -39.4244   -7.3930 C   0  0  2  0  0  0  0  0  0  0  0  0
  -17.8989  -38.9586   -6.0812 C   0  0  0  0  0  0  0  0  0  0  0  0
  -19.3525  -38.4961   -6.2306 C   0  0  2  0  0  0  0  0  0  0  0  0
  -19.7573  -37.6530   -5.0686 C   0  0  0  0  0  0  0  0  0  0  0  0
  -20.2846  -39.6634   -6.4640 C   0  0  0  0  0  0  0  0  0  0  0  0
  -21.7136  -39.2825   -6.2277 C   0  0  0  0  0  0  0  0  0  0  0  0
  -22.5585  -39.5727   -7.4511 C   0  0  0  0  0  0  0  0  0  0  0  0
  -22.8618  -41.0338   -7.6276 C   0  0  0  0  0  0  0  0  0  0  0  0
  -22.9732  -41.3020   -9.1187 C   0  0  0  0  0  0  0  0  0  0  0  0
  -22.8438  -42.7362   -9.4782 C   0  0  0  0  0  0  0  0  0  0  0  0
  -21.6690  -43.0391  -10.3891 C   0  0  0  0  0  0  0  0  0  0  0  0
  -20.3998  -42.6023   -9.7417 C   0  0  0  0  0  0  0  0  0  0  0  0
  -19.1884  -43.1977  -10.3297 C   0  0  0  0  0  0  0  0  0  0  0  0
  -19.2662  -44.0082  -11.2840 O   0  0  0  0  0  0  0  0  0  0  0  0
  -17.9213  -42.8425   -9.8013 N   0  0  0  0  0  0  0  0  0  0  0  0
  -16.7055  -42.9145  -10.6282 C   0  0  0  0  0  0  0  0  0  0  0  0
  -17.8568  -42.4107   -8.4381 C   0  0  1  0  0  0  0  0  0  0  0  0
  -18.0127  -43.6357   -7.5632 C   0  0  0  0  0  0  0  0  0  0  0  0
  -16.6010  -41.7466   -8.0472 C   0  0  0  0  0  0  0  0  0  0  0  0
  -15.5146  -42.2516   -8.4717 O   0  0  0  0  0  0  0  0  0  0  0  0
  -16.4864  -40.5899   -7.2365 N   0  0  0  0  0  0  0  0  0  0  0  0
  -13.2096  -38.4327  -11.6050 C   0  0  0  0  0  0  0  0  0  0  0  0
  -12.7479  -39.5957  -12.1242 C   0  0  0  0  0  0  0  0  0  0  0  0
  -11.3865  -39.7700  -12.3342 C   0  0  0  0  0  0  0  0  0  0  0  0
  -10.5025  -38.7686  -12.0182 C   0  0  0  0  0  0  0  0  0  0  0  0
  -10.9929  -37.5841  -11.4874 C   0  0  0  0  0  0  0  0  0  0  0  0
   -9.7908  -36.1906  -11.0462 Br  0  0  0  0  0  0  0  0  0  0  0  0
  -12.3493  -37.4268  -11.2846 C   0  0  0  0  0  0  0  0  0  0  0  0
  2  1  1  6
  2  3  1  0
  3  4  1  0
  4  5  1  0
  5  6  1  6
  5  7  1  0
  7  8  1  1
  8  9  1  0
  9 10  1  1
  9 11  1  0
 11 12  1  0
 12 13  1  0
 13 14  1  0
 14 15  1  0
 15 16  1  0
 16 17  1  0
 17 18  1  0
 18 19  1  0
 19 20  2  0
 19 21  1  0
 21 22  1  0
 21 23  1  0
 23 24  1  1
 23 25  1  0
 25 26  2  0
 25 27  1  0
  2 28  1  0
 28 29  2  0
 29 30  1  0
 30 31  2  0
 31 32  1  0
 32 33  1  0
 32 34  2  0
 27  7  1  0
 34 28  1  0
M  END
$$$$
