
     RDKit          3D

 34 35  0  0  0  0  0  0  0  0999 V2000
  -13.2049  -40.6669  -10.8820 C   0  0  0  0  0  0  0  0  0  0  0  0
  -13.7631  -39.3161  -10.6525 C   0  0  2  0  0  0  0  0  0  0  0  0
  -15.1488  -39.2247  -10.4653 N   0  0  0  0  0  0  0  0  0  0  0  0
  -15.6592  -39.2368   -9.1548 C   0  0  0  0  0  0  0  0  0  0  0  0
  -17.0058  -38.7321   -8.8572 C   0  0  1  0  0  0  0  0  0  0  0  0
  -17.8543  -39.0732   -9.9831 O   0  0  0  0  0  0  0  0  0  0  0  0
  -17.6716  -39.4044   -7.6642 C   0  0  2  0  0  0  0  0  0  0  0  0
  -18.1640  -38.4376   -6.6313 C   0  0  0  0  0  0  0  0  0  0  0  0
  -19.6266  -38.0573   -6.8870 C   0  0  2  0  0  0  0  0  0  0  0  0
  -19.9809  -36.8090   -6.1515 C   0  0  0  0  0  0  0  0  0  0  0  0
  -20.5601  -39.2064   -6.5800 C   0  0  0  0  0  0  0  0  0  0  0  0
  -21.9787  -38.7440   -6.4519 C   0  0  0  0  0  0  0  0  0  0  0  0
  -22.8798  -39.4963   -7.4094 C   0  0  0  0  0  0  0  0  0  0  0  0
  -23.1803  -40.8986   -6.9607 C   0  0  0  0  0  0  0  0  0  0  0  0
  -23.3620  -41.7493   -8.2060 C   0  0  0  0  0  0  0  0  0  0  0  0
  -23.2393  -43.2072   -7.9558 C   0  0  0  0  0  0  0  0  0  0  0  0
  -22.1079  -43.8699   -8.7189 C   0  0  0  0  0  0  0  0  0  0  0  0
  -20.8121  -43.2237   -8.3667 C   0  0  0  0  0  0  0  0  0  0  0  0
  -19.6262  -44.0225   -8.7179 C   0  0  0  0  0  0  0  0  0  0  0  0
  -19.7441  -45.1503   -9.2543 O   0  0  0  0  0  0  0  0  0  0  0  0
  -18.3376  -43.4992   -8.4408 N   0  0  0  0  0  0  0  0  0  0  0  0
  -17.1630  -43.9174   -9.2233 C   0  0  0  0  0  0  0  0  0  0  0  0
  -18.2102  -42.5505   -7.3765 C   0  0  1  0  0  0  0  0  0  0  0  0
  -18.3142  -43.3110   -6.0721 C   0  0  0  0  0  0  0  0  0  0  0  0
  -16.9420  -41.8010   -7.3501 C   0  0  0  0  0  0  0  0  0  0  0  0
  -15.8737  -42.4491   -7.5831 O   0  0  0  0  0  0  0  0  0  0  0  0
  -16.7969  -40.4160   -7.0874 N   0  0  0  0  0  0  0  0  0  0  0  0
  -13.2985  -38.3755  -11.7551 C   0  0  0  0  0  0  0  0  0  0  0  0
  -13.3266  -38.7931  -13.0436 C   0  0  0  0  0  0  0  0  0  0  0  0
  -12.9044  -37.9440  -14.0579 C   0  0  0  0  0  0  0  0  0  0  0  0
  -12.4574  -36.6802  -13.7628 C   0  0  0  0  0  0  0  0  0  0  0  0
  -12.4356  -36.2690  -12.4377 C   0  0  0  0  0  0  0  0  0  0  0  0
  -11.8240  -34.5299  -12.0099 Br  0  0  0  0  0  0  0  0  0  0  0  0
  -12.8585  -37.1255  -11.4411 C   0  0  0  0  0  0  0  0  0  0  0  0
  2  1  1  6
  2  3  1  0
  3  4  1  0
  4  5  1  0
  5  6  1  6
  5  7  1  0
  7  8  1  1
  8  9  1  0
  9 10  1  1
  9 11  1  0
 11 12  1  0
 12 13  1  0
 13 14  1  0
 14 15  1  0
 15 16  1  0
 16 17  1  0
 17 18  1  0
 18 19  1  0
 19 20  2  0
 19 21  1  0
 21 22  1  0
 21 23  1  0
 23 24  1  1
 23 25  1  0
 25 26  2  0
 25 27  1  0
  2 28  1  0
 28 29  2  0
 29 30  1  0
 30 31  2  0
 31 32  1  0
 32 33  1  0
 32 34  2  0
 27  7  1  0
 34 28  1  0
M  END
$$$$
