
     RDKit          3D

 34 35  0  0  0  0  0  0  0  0999 V2000
  -14.8302  -41.1869  -12.1110 C   0  0  0  0  0  0  0  0  0  0  0  0
  -15.0804  -41.7021  -10.7468 C   0  0  2  0  0  0  0  0  0  0  0  0
  -15.3089  -40.7531   -9.7414 N   0  0  0  0  0  0  0  0  0  0  0  0
  -16.5399  -40.7676   -9.0612 C   0  0  0  0  0  0  0  0  0  0  0  0
  -16.8931  -39.7120   -8.1032 C   0  0  1  0  0  0  0  0  0  0  0  0
  -17.5070  -38.6337   -8.8543 O   0  0  0  0  0  0  0  0  0  0  0  0
  -17.9552  -40.1212   -7.0917 C   0  0  2  0  0  0  0  0  0  0  0  0
  -18.4047  -38.9974   -6.2092 C   0  0  0  0  0  0  0  0  0  0  0  0
  -19.6291  -38.2899   -6.8003 C   0  0  2  0  0  0  0  0  0  0  0  0
  -19.8112  -36.9469   -6.1773 C   0  0  0  0  0  0  0  0  0  0  0  0
  -20.8665  -39.1539   -6.7090 C   0  0  0  0  0  0  0  0  0  0  0  0
  -22.1142  -38.3521   -6.9173 C   0  0  0  0  0  0  0  0  0  0  0  0
  -22.9396  -38.9239   -8.0516 C   0  0  0  0  0  0  0  0  0  0  0  0
  -23.6764  -40.1777   -7.6735 C   0  0  0  0  0  0  0  0  0  0  0  0
  -23.7851  -41.0391   -8.9201 C   0  0  0  0  0  0  0  0  0  0  0  0
  -24.0933  -42.4630   -8.6364 C   0  0  0  0  0  0  0  0  0  0  0  0
  -23.0254  -43.4305   -9.1107 C   0  0  0  0  0  0  0  0  0  0  0  0
  -21.7204  -43.0978   -8.4726 C   0  0  0  0  0  0  0  0  0  0  0  0
  -20.7272  -44.1830   -8.5326 C   0  0  0  0  0  0  0  0  0  0  0  0
  -21.0035  -45.2810   -9.0726 O   0  0  0  0  0  0  0  0  0  0  0  0
  -19.4433  -43.9724   -7.9683 N   0  0  0  0  0  0  0  0  0  0  0  0
  -18.2686  -44.7152   -8.4535 C   0  0  0  0  0  0  0  0  0  0  0  0
  -19.3207  -43.0150   -6.9113 C   0  0  1  0  0  0  0  0  0  0  0  0
  -19.9009  -43.6391   -5.6605 C   0  0  0  0  0  0  0  0  0  0  0  0
  -17.9431  -42.5972   -6.5975 C   0  0  0  0  0  0  0  0  0  0  0  0
  -17.0489  -43.5001   -6.5709 O   0  0  0  0  0  0  0  0  0  0  0  0
  -17.5153  -41.2750   -6.3195 N   0  0  0  0  0  0  0  0  0  0  0  0
  -13.9674  -42.6609  -10.3490 C   0  0  0  0  0  0  0  0  0  0  0  0
  -14.0578  -43.9677  -10.6946 C   0  0  0  0  0  0  0  0  0  0  0  0
  -13.0489  -44.8518  -10.3364 C   0  0  0  0  0  0  0  0  0  0  0  0
  -11.9570  -44.4091   -9.6323 C   0  0  0  0  0  0  0  0  0  0  0  0
  -11.8807  -43.0674   -9.2868 C   0  0  0  0  0  0  0  0  0  0  0  0
  -10.3829  -42.4368   -8.3171 Br  0  0  0  0  0  0  0  0  0  0  0  0
  -12.8925  -42.2015   -9.6504 C   0  0  0  0  0  0  0  0  0  0  0  0
  2  1  1  6
  2  3  1  0
  3  4  1  0
  4  5  1  0
  5  6  1  6
  5  7  1  0
  7  8  1  1
  8  9  1  0
  9 10  1  1
  9 11  1  0
 11 12  1  0
 12 13  1  0
 13 14  1  0
 14 15  1  0
 15 16  1  0
 16 17  1  0
 17 18  1  0
 18 19  1  0
 19 20  2  0
 19 21  1  0
 21 22  1  0
 21 23  1  0
 23 24  1  1
 23 25  1  0
 25 26  2  0
 25 27  1  0
  2 28  1  0
 28 29  2  0
 29 30  1  0
 30 31  2  0
 31 32  1  0
 32 33  1  0
 32 34  2  0
 27  7  1  0
 34 28  1  0
M  END
$$$$
