
     RDKit          3D

 34 35  0  0  0  0  0  0  0  0999 V2000
  -12.3497  -40.2669  -10.2632 C   0  0  0  0  0  0  0  0  0  0  0  0
  -13.4084  -39.2352  -10.2029 C   0  0  2  0  0  0  0  0  0  0  0  0
  -14.7334  -39.6873  -10.1434 N   0  0  0  0  0  0  0  0  0  0  0  0
  -15.3341  -39.8655   -8.8842 C   0  0  0  0  0  0  0  0  0  0  0  0
  -16.5090  -39.0810   -8.4830 C   0  0  1  0  0  0  0  0  0  0  0  0
  -17.4325  -39.0820   -9.6015 O   0  0  0  0  0  0  0  0  0  0  0  0
  -17.3025  -39.6929   -7.3365 C   0  0  2  0  0  0  0  0  0  0  0  0
  -17.7890  -38.6846   -6.3412 C   0  0  0  0  0  0  0  0  0  0  0  0
  -19.1981  -38.1971   -6.6961 C   0  0  2  0  0  0  0  0  0  0  0  0
  -19.5058  -36.9205   -5.9887 C   0  0  0  0  0  0  0  0  0  0  0  0
  -20.2343  -39.2705   -6.4509 C   0  0  0  0  0  0  0  0  0  0  0  0
  -21.6193  -38.7017   -6.4200 C   0  0  0  0  0  0  0  0  0  0  0  0
  -22.5082  -39.3908   -7.4349 C   0  0  0  0  0  0  0  0  0  0  0  0
  -22.9433  -40.7633   -7.0049 C   0  0  0  0  0  0  0  0  0  0  0  0
  -23.1044  -41.6067   -8.2581 C   0  0  0  0  0  0  0  0  0  0  0  0
  -23.1093  -43.0679   -7.9973 C   0  0  0  0  0  0  0  0  0  0  0  0
  -21.9824  -43.8192   -8.6808 C   0  0  0  0  0  0  0  0  0  0  0  0
  -20.6682  -43.2698   -8.2428 C   0  0  0  0  0  0  0  0  0  0  0  0
  -19.5251  -44.1581   -8.5114 C   0  0  0  0  0  0  0  0  0  0  0  0
  -19.6914  -45.2775   -9.0524 O   0  0  0  0  0  0  0  0  0  0  0  0
  -18.2222  -43.7314   -8.1486 N   0  0  0  0  0  0  0  0  0  0  0  0
  -17.0325  -44.2422   -8.8490 C   0  0  0  0  0  0  0  0  0  0  0  0
  -18.0956  -42.7875   -7.0800 C   0  0  1  0  0  0  0  0  0  0  0  0
  -18.3444  -43.5288   -5.7842 C   0  0  0  0  0  0  0  0  0  0  0  0
  -16.7790  -42.1354   -6.9692 C   0  0  0  0  0  0  0  0  0  0  0  0
  -15.7494  -42.8637   -7.1281 O   0  0  0  0  0  0  0  0  0  0  0  0
  -16.5477  -40.7634   -6.6999 N   0  0  0  0  0  0  0  0  0  0  0  0
  -13.2217  -38.2422  -11.3411 C   0  0  0  0  0  0  0  0  0  0  0  0
  -13.2693  -38.6797  -12.6223 C   0  0  0  0  0  0  0  0  0  0  0  0
  -13.0995  -37.7831  -13.6688 C   0  0  0  0  0  0  0  0  0  0  0  0
  -12.8830  -36.4520  -13.4129 C   0  0  0  0  0  0  0  0  0  0  0  0
  -12.8374  -36.0213  -12.0947 C   0  0  0  0  0  0  0  0  0  0  0  0
  -12.5414  -34.1899  -11.7207 Br  0  0  0  0  0  0  0  0  0  0  0  0
  -13.0080  -36.9257  -11.0658 C   0  0  0  0  0  0  0  0  0  0  0  0
  2  1  1  6
  2  3  1  0
  3  4  1  0
  4  5  1  0
  5  6  1  6
  5  7  1  0
  7  8  1  1
  8  9  1  0
  9 10  1  1
  9 11  1  0
 11 12  1  0
 12 13  1  0
 13 14  1  0
 14 15  1  0
 15 16  1  0
 16 17  1  0
 17 18  1  0
 18 19  1  0
 19 20  2  0
 19 21  1  0
 21 22  1  0
 21 23  1  0
 23 24  1  1
 23 25  1  0
 25 26  2  0
 25 27  1  0
  2 28  1  0
 28 29  2  0
 29 30  1  0
 30 31  2  0
 31 32  1  0
 32 33  1  0
 32 34  2  0
 27  7  1  0
 34 28  1  0
M  END
$$$$
