
     RDKit          3D

 34 35  0  0  0  0  0  0  0  0999 V2000
  -15.8560  -38.1196  -11.9220 C   0  0  0  0  0  0  0  0  0  0  0  0
  -15.8550  -39.3094  -11.0426 C   0  0  2  0  0  0  0  0  0  0  0  0
  -15.6254  -39.0903   -9.6778 N   0  0  0  0  0  0  0  0  0  0  0  0
  -16.4624  -39.7196   -8.7388 C   0  0  0  0  0  0  0  0  0  0  0  0
  -17.2200  -38.9404   -7.7511 C   0  0  1  0  0  0  0  0  0  0  0  0
  -18.2392  -38.2019   -8.4720 O   0  0  0  0  0  0  0  0  0  0  0  0
  -18.0001  -39.7891   -6.7563 C   0  0  2  0  0  0  0  0  0  0  0  0
  -18.5242  -39.0110   -5.5884 C   0  0  0  0  0  0  0  0  0  0  0  0
  -19.9461  -38.5062   -5.8575 C   0  0  2  0  0  0  0  0  0  0  0  0
  -20.2984  -37.4032   -4.9172 C   0  0  0  0  0  0  0  0  0  0  0  0
  -20.9488  -39.6376   -5.8398 C   0  0  0  0  0  0  0  0  0  0  0  0
  -22.3515  -39.1281   -5.7144 C   0  0  0  0  0  0  0  0  0  0  0  0
  -23.2121  -39.6310   -6.8552 C   0  0  0  0  0  0  0  0  0  0  0  0
  -23.6056  -41.0737   -6.7078 C   0  0  0  0  0  0  0  0  0  0  0  0
  -23.7325  -41.6591   -8.1038 C   0  0  0  0  0  0  0  0  0  0  0  0
  -23.6922  -43.1425   -8.1347 C   0  0  0  0  0  0  0  0  0  0  0  0
  -22.5381  -43.7106   -8.9388 C   0  0  0  0  0  0  0  0  0  0  0  0
  -21.2445  -43.2185   -8.3861 C   0  0  0  0  0  0  0  0  0  0  0  0
  -20.0721  -44.0018   -8.8100 C   0  0  0  0  0  0  0  0  0  0  0  0
  -20.1995  -44.9977   -9.5620 O   0  0  0  0  0  0  0  0  0  0  0  0
  -18.7857  -43.6154   -8.3552 N   0  0  0  0  0  0  0  0  0  0  0  0
  -17.5763  -43.9427   -9.1280 C   0  0  0  0  0  0  0  0  0  0  0  0
  -18.6953  -42.8964   -7.1209 C   0  0  1  0  0  0  0  0  0  0  0  0
  -18.9277  -43.8848   -5.9986 C   0  0  0  0  0  0  0  0  0  0  0  0
  -17.4009  -42.2393   -6.8688 C   0  0  0  0  0  0  0  0  0  0  0  0
  -16.3477  -42.8907   -7.1551 O   0  0  0  0  0  0  0  0  0  0  0  0
  -17.2151  -40.9405   -6.3330 N   0  0  0  0  0  0  0  0  0  0  0  0
  -14.8972  -40.3548  -11.5958 C   0  0  0  0  0  0  0  0  0  0  0  0
  -13.6896  -39.9671  -12.0720 C   0  0  0  0  0  0  0  0  0  0  0  0
  -12.8079  -40.9119  -12.5799 C   0  0  0  0  0  0  0  0  0  0  0  0
  -13.1528  -42.2402  -12.6027 C   0  0  0  0  0  0  0  0  0  0  0  0
  -14.3935  -42.6195  -12.1108 C   0  0  0  0  0  0  0  0  0  0  0  0
  -14.8877  -44.4462  -12.1322 Br  0  0  0  0  0  0  0  0  0  0  0  0
  -15.2587  -41.6677  -11.6095 C   0  0  0  0  0  0  0  0  0  0  0  0
  2  1  1  6
  2  3  1  0
  3  4  1  0
  4  5  1  0
  5  6  1  6
  5  7  1  0
  7  8  1  1
  8  9  1  0
  9 10  1  1
  9 11  1  0
 11 12  1  0
 12 13  1  0
 13 14  1  0
 14 15  1  0
 15 16  1  0
 16 17  1  0
 17 18  1  0
 18 19  1  0
 19 20  2  0
 19 21  1  0
 21 22  1  0
 21 23  1  0
 23 24  1  1
 23 25  1  0
 25 26  2  0
 25 27  1  0
  2 28  1  0
 28 29  2  0
 29 30  1  0
 30 31  2  0
 31 32  1  0
 32 33  1  0
 32 34  2  0
 27  7  1  0
 34 28  1  0
M  END
$$$$
