
     RDKit          3D

 34 35  0  0  0  0  0  0  0  0999 V2000
  -16.5746  -36.1060  -10.5419 C   0  0  0  0  0  0  0  0  0  0  0  0
  -16.0532  -37.2095  -11.3781 C   0  0  2  0  0  0  0  0  0  0  0  0
  -15.9085  -38.4597  -10.7620 N   0  0  0  0  0  0  0  0  0  0  0  0
  -16.6042  -38.7118   -9.5659 C   0  0  0  0  0  0  0  0  0  0  0  0
  -17.0466  -40.0670   -9.2133 C   0  0  1  0  0  0  0  0  0  0  0  0
  -15.8569  -40.8669   -8.9925 O   0  0  0  0  0  0  0  0  0  0  0  0
  -17.8075  -40.1492   -7.8969 C   0  0  2  0  0  0  0  0  0  0  0  0
  -18.2509  -38.8156   -7.3785 C   0  0  0  0  0  0  0  0  0  0  0  0
  -19.6661  -38.4804   -7.8619 C   0  0  2  0  0  0  0  0  0  0  0  0
  -19.9378  -37.0207   -7.7196 C   0  0  0  0  0  0  0  0  0  0  0  0
  -20.7040  -39.3417   -7.1785 C   0  0  0  0  0  0  0  0  0  0  0  0
  -22.0816  -38.7778   -7.3422 C   0  0  0  0  0  0  0  0  0  0  0  0
  -23.0103  -39.7964   -7.9705 C   0  0  0  0  0  0  0  0  0  0  0  0
  -23.4443  -40.8707   -7.0136 C   0  0  0  0  0  0  0  0  0  0  0  0
  -23.6550  -42.1425   -7.8172 C   0  0  0  0  0  0  0  0  0  0  0  0
  -23.6655  -43.3755   -6.9910 C   0  0  0  0  0  0  0  0  0  0  0  0
  -22.5692  -44.3629   -7.3443 C   0  0  0  0  0  0  0  0  0  0  0  0
  -21.2359  -43.7133   -7.1991 C   0  0  0  0  0  0  0  0  0  0  0  0
  -20.1110  -44.6597   -7.1180 C   0  0  0  0  0  0  0  0  0  0  0  0
  -20.3061  -45.8983   -7.1587 O   0  0  0  0  0  0  0  0  0  0  0  0
  -18.7928  -44.1524   -6.9921 N   0  0  0  0  0  0  0  0  0  0  0  0
  -17.6319  -44.9278   -7.4592 C   0  0  0  0  0  0  0  0  0  0  0  0
  -18.6216  -42.8619   -6.3969 C   0  0  1  0  0  0  0  0  0  0  0  0
  -18.8344  -43.0147   -4.9063 C   0  0  0  0  0  0  0  0  0  0  0  0
  -17.2958  -42.2496   -6.5926 C   0  0  0  0  0  0  0  0  0  0  0  0
  -16.2792  -43.0031   -6.4724 O   0  0  0  0  0  0  0  0  0  0  0  0
  -17.0423  -40.8905   -6.9038 N   0  0  0  0  0  0  0  0  0  0  0  0
  -14.7557  -36.7773  -12.0461 C   0  0  0  0  0  0  0  0  0  0  0  0
  -13.6656  -36.5226  -11.2831 C   0  0  0  0  0  0  0  0  0  0  0  0
  -12.4767  -36.1268  -11.8814 C   0  0  0  0  0  0  0  0  0  0  0  0
  -12.3984  -35.9916  -13.2450 C   0  0  0  0  0  0  0  0  0  0  0  0
  -13.5246  -36.2567  -14.0110 C   0  0  0  0  0  0  0  0  0  0  0  0
  -13.4370  -36.0774  -15.8929 Br  0  0  0  0  0  0  0  0  0  0  0  0
  -14.6990  -36.6490  -13.4006 C   0  0  0  0  0  0  0  0  0  0  0  0
  2  1  1  1
  2  3  1  0
  3  4  1  0
  4  5  1  0
  5  6  1  1
  5  7  1  0
  7  8  1  1
  8  9  1  0
  9 10  1  1
  9 11  1  0
 11 12  1  0
 12 13  1  0
 13 14  1  0
 14 15  1  0
 15 16  1  0
 16 17  1  0
 17 18  1  0
 18 19  1  0
 19 20  2  0
 19 21  1  0
 21 22  1  0
 21 23  1  0
 23 24  1  1
 23 25  1  0
 25 26  2  0
 25 27  1  0
  2 28  1  0
 28 29  2  0
 29 30  1  0
 30 31  2  0
 31 32  1  0
 32 33  1  0
 32 34  2  0
 27  7  1  0
 34 28  1  0
M  END
$$$$
