
     RDKit          3D

 34 35  0  0  0  0  0  0  0  0999 V2000
  -16.0560  -39.6130  -12.0996 C   0  0  0  0  0  0  0  0  0  0  0  0
  -15.2496  -39.6189  -10.8592 C   0  0  2  0  0  0  0  0  0  0  0  0
  -15.7758  -38.9335   -9.7561 N   0  0  0  0  0  0  0  0  0  0  0  0
  -16.5991  -39.6302   -8.8534 C   0  0  0  0  0  0  0  0  0  0  0  0
  -17.4187  -38.9179   -7.8645 C   0  0  1  0  0  0  0  0  0  0  0  0
  -18.5658  -38.3729   -8.5651 O   0  0  0  0  0  0  0  0  0  0  0  0
  -18.0213  -39.8172   -6.7937 C   0  0  2  0  0  0  0  0  0  0  0  0
  -18.4285  -39.0808   -5.5544 C   0  0  0  0  0  0  0  0  0  0  0  0
  -19.8964  -38.6464   -5.6301 C   0  0  2  0  0  0  0  0  0  0  0  0
  -20.1788  -37.5741   -4.6324 C   0  0  0  0  0  0  0  0  0  0  0  0
  -20.8314  -39.8280   -5.5049 C   0  0  0  0  0  0  0  0  0  0  0  0
  -22.2297  -39.3926   -5.1917 C   0  0  0  0  0  0  0  0  0  0  0  0
  -23.2041  -39.9256   -6.2219 C   0  0  0  0  0  0  0  0  0  0  0  0
  -23.5036  -41.3882   -6.0518 C   0  0  0  0  0  0  0  0  0  0  0  0
  -23.7801  -41.9628   -7.4306 C   0  0  0  0  0  0  0  0  0  0  0  0
  -23.6710  -43.4418   -7.4934 C   0  0  0  0  0  0  0  0  0  0  0  0
  -22.6033  -43.9404   -8.4488 C   0  0  0  0  0  0  0  0  0  0  0  0
  -21.2753  -43.3891   -8.0573 C   0  0  0  0  0  0  0  0  0  0  0  0
  -20.1299  -44.1062   -8.6420 C   0  0  0  0  0  0  0  0  0  0  0  0
  -20.3038  -45.0985   -9.3895 O   0  0  0  0  0  0  0  0  0  0  0  0
  -18.8163  -43.6597   -8.3486 N   0  0  0  0  0  0  0  0  0  0  0  0
  -17.7018  -43.9154   -9.2756 C   0  0  0  0  0  0  0  0  0  0  0  0
  -18.6034  -42.9515   -7.1230 C   0  0  1  0  0  0  0  0  0  0  0  0
  -18.6403  -43.9637   -5.9984 C   0  0  0  0  0  0  0  0  0  0  0  0
  -17.3214  -42.2319   -7.0267 C   0  0  0  0  0  0  0  0  0  0  0  0
  -16.2829  -42.8251   -7.4573 O   0  0  0  0  0  0  0  0  0  0  0  0
  -17.1325  -40.9317   -6.4954 N   0  0  0  0  0  0  0  0  0  0  0  0
  -13.8337  -39.1528  -11.1662 C   0  0  0  0  0  0  0  0  0  0  0  0
  -12.7965  -40.0044  -10.9813 C   0  0  0  0  0  0  0  0  0  0  0  0
  -11.5003  -39.5899  -11.2572 C   0  0  0  0  0  0  0  0  0  0  0  0
  -11.2622  -38.3190  -11.7178 C   0  0  0  0  0  0  0  0  0  0  0  0
  -12.3364  -37.4601  -11.9016 C   0  0  0  0  0  0  0  0  0  0  0  0
  -12.0295  -35.7041  -12.5370 Br  0  0  0  0  0  0  0  0  0  0  0  0
  -13.6189  -37.8877  -11.6223 C   0  0  0  0  0  0  0  0  0  0  0  0
  2  1  1  6
  2  3  1  0
  3  4  1  0
  4  5  1  0
  5  6  1  6
  5  7  1  0
  7  8  1  1
  8  9  1  0
  9 10  1  1
  9 11  1  0
 11 12  1  0
 12 13  1  0
 13 14  1  0
 14 15  1  0
 15 16  1  0
 16 17  1  0
 17 18  1  0
 18 19  1  0
 19 20  2  0
 19 21  1  0
 21 22  1  0
 21 23  1  0
 23 24  1  1
 23 25  1  0
 25 26  2  0
 25 27  1  0
  2 28  1  0
 28 29  2  0
 29 30  1  0
 30 31  2  0
 31 32  1  0
 32 33  1  0
 32 34  2  0
 27  7  1  0
 34 28  1  0
M  END
$$$$
