
     RDKit          3D

 38 39  0  0  0  0  0  0  0  0999 V2000
  -12.2108  -35.7116  -13.0672 C   0  0  0  0  0  0  0  0  0  0  0  0
  -12.1829  -37.0753  -12.4134 C   0  0  0  0  0  0  0  0  0  0  0  0
  -12.9867  -37.0593  -11.1082 C   0  0  0  0  0  0  0  0  0  0  0  0
  -14.0347  -38.1283  -11.2453 C   0  0  0  0  0  0  0  0  0  0  0  0
  -13.8011  -39.2868  -10.4440 N   0  0  0  0  0  0  0  0  0  0  0  0
  -14.8068  -40.0390   -9.7893 C   0  0  0  0  0  0  0  0  0  0  0  0
  -15.7933  -40.4155  -10.4615 O   0  0  0  0  0  0  0  0  0  0  0  0
  -14.7449  -40.3989   -8.3544 C   0  0  2  0  0  0  0  0  0  0  0  0
  -13.7721  -41.5088   -8.1690 C   0  0  0  0  0  0  0  0  0  0  0  0
  -16.1645  -40.7879   -7.9180 C   0  0  0  0  0  0  0  0  0  0  0  0
  -17.1875  -40.0650   -8.7152 C   0  0  2  0  0  0  0  0  0  0  0  0
  -16.7729  -38.8305   -9.1982 O   0  0  0  0  0  0  0  0  0  0  0  0
  -18.4749  -39.7856   -7.9132 C   0  0  2  0  0  0  0  0  0  0  0  0
  -18.7513  -38.3455   -8.0721 C   0  0  0  0  0  0  0  0  0  0  0  0
  -20.0778  -37.7891   -7.8242 C   0  0  2  0  0  0  0  0  0  0  0  0
  -20.8016  -38.2849   -6.5890 C   0  0  0  0  0  0  0  0  0  0  0  0
  -21.0310  -37.6964   -8.9884 C   0  0  0  0  0  0  0  0  0  0  0  0
  -21.7412  -38.9065   -9.4148 C   0  0  0  0  0  0  0  0  0  0  0  0
  -23.2223  -38.9191   -9.0046 C   0  0  0  0  0  0  0  0  0  0  0  0
  -23.8123  -40.3027   -9.2002 C   0  0  0  0  0  0  0  0  0  0  0  0
  -24.3301  -40.8814   -7.9375 C   0  0  0  0  0  0  0  0  0  0  0  0
  -24.2921  -42.3286   -7.8794 N   0  0  0  0  0  0  0  0  0  0  0  0
  -25.1053  -43.0261   -8.8617 C   0  0  0  0  0  0  0  0  0  0  0  0
  -25.1851  -42.3557  -10.1819 C   0  0  0  0  0  0  0  0  0  0  0  0
  -23.5237  -43.0493   -6.9455 C   0  0  0  0  0  0  0  0  0  0  0  0
  -24.0718  -44.2123   -6.6879 O   0  0  0  0  0  0  0  0  0  0  0  0
  -22.2667  -42.7309   -6.2371 C   0  0  0  0  0  0  0  0  0  0  0  0
  -22.3851  -43.1478   -4.8861 C   0  0  0  0  0  0  0  0  0  0  0  0
  -21.3926  -42.9798   -3.9519 C   0  0  0  0  0  0  0  0  0  0  0  0
  -20.2656  -42.3743   -4.4215 C   0  0  0  0  0  0  0  0  0  0  0  0
  -20.0792  -41.9315   -5.7608 C   0  0  0  0  0  0  0  0  0  0  0  0
  -21.1044  -42.1237   -6.6633 C   0  0  0  0  0  0  0  0  0  0  0  0
  -18.7447  -41.3163   -5.8850 C   0  0  0  0  0  0  0  0  0  0  0  0
  -17.7592  -41.9257   -5.2277 O   0  0  0  0  0  0  0  0  0  0  0  0
  -18.2092  -40.2107   -6.5374 N   0  0  0  0  0  0  0  0  0  0  0  0
  -21.5485  -43.4034   -2.6435 O   0  0  0  0  0  0  0  0  0  0  0  0
  -20.9013  -42.7434   -1.5930 C   0  0  0  0  0  0  0  0  0  0  0  0
  -21.0192  -43.3977   -0.2527 C   0  0  0  0  0  0  0  0  0  0  0  0
  1  2  1  0
  2  3  1  0
  3  4  1  0
  4  5  1  0
  5  6  1  0
  6  7  2  0
  6  8  1  0
  8  9  1  6
  8 10  1  0
 10 11  1  0
 11 12  1  1
 11 13  1  0
 13 14  1  1
 14 15  1  0
 15 16  1  1
 15 17  1  0
 17 18  1  0
 18 19  1  0
 19 20  1  0
 20 21  1  0
 21 22  1  0
 22 23  1  0
 23 24  1  0
 22 25  1  0
 25 26  2  0
 25 27  1  0
 27 28  2  0
 28 29  1  0
 29 30  2  0
 30 31  1  0
 31 32  2  0
 31 33  1  0
 33 34  2  0
 33 35  1  0
 29 36  1  0
 36 37  1  0
 37 38  1  0
 32 27  1  0
 35 13  1  0
M  END
$$$$
