
     RDKit          3D

 38 39  0  0  0  0  0  0  0  0999 V2000
  -10.5403  -36.6171  -11.4255 C   0  0  0  0  0  0  0  0  0  0  0  0
  -11.2186  -37.5579  -12.3964 C   0  0  0  0  0  0  0  0  0  0  0  0
  -12.6608  -37.8330  -11.9556 C   0  0  0  0  0  0  0  0  0  0  0  0
  -12.6900  -39.2564  -11.4731 C   0  0  0  0  0  0  0  0  0  0  0  0
  -13.9959  -39.7475  -11.1693 N   0  0  0  0  0  0  0  0  0  0  0  0
  -14.3524  -40.4281   -9.9795 C   0  0  0  0  0  0  0  0  0  0  0  0
  -14.6851  -41.6318  -10.0658 O   0  0  0  0  0  0  0  0  0  0  0  0
  -14.3493  -39.7851   -8.6459 C   0  0  2  0  0  0  0  0  0  0  0  0
  -13.2238  -40.3312   -7.8411 C   0  0  0  0  0  0  0  0  0  0  0  0
  -15.7153  -40.0605   -8.0014 C   0  0  0  0  0  0  0  0  0  0  0  0
  -16.7314  -39.0788   -8.4582 C   0  0  2  0  0  0  0  0  0  0  0  0
  -16.3512  -37.7503   -8.3170 O   0  0  0  0  0  0  0  0  0  0  0  0
  -18.0667  -39.2112   -7.6981 C   0  0  2  0  0  0  0  0  0  0  0  0
  -18.5259  -37.8344   -7.4351 C   0  0  0  0  0  0  0  0  0  0  0  0
  -19.9207  -37.5398   -7.1215 C   0  0  2  0  0  0  0  0  0  0  0  0
  -20.6079  -38.4715   -6.1442 C   0  0  0  0  0  0  0  0  0  0  0  0
  -20.8441  -37.2065   -8.2656 C   0  0  0  0  0  0  0  0  0  0  0  0
  -21.3761  -38.3018   -9.0829 C   0  0  0  0  0  0  0  0  0  0  0  0
  -22.8537  -38.6125   -8.7963 C   0  0  0  0  0  0  0  0  0  0  0  0
  -23.2504  -39.9284   -9.4380 C   0  0  0  0  0  0  0  0  0  0  0  0
  -23.7233  -40.9227   -8.4457 C   0  0  0  0  0  0  0  0  0  0  0  0
  -23.4966  -42.3032   -8.8228 N   0  0  0  0  0  0  0  0  0  0  0  0
  -24.1822  -42.7558  -10.0217 C   0  0  0  0  0  0  0  0  0  0  0  0
  -25.5920  -42.3088  -10.1299 C   0  0  0  0  0  0  0  0  0  0  0  0
  -22.6669  -43.1806   -8.0989 C   0  0  0  0  0  0  0  0  0  0  0  0
  -23.0641  -44.4223   -8.2404 O   0  0  0  0  0  0  0  0  0  0  0  0
  -21.4837  -42.9503   -7.2446 C   0  0  0  0  0  0  0  0  0  0  0  0
  -21.5847  -43.7723   -6.0925 C   0  0  0  0  0  0  0  0  0  0  0  0
  -20.6502  -43.7842   -5.0862 C   0  0  0  0  0  0  0  0  0  0  0  0
  -19.5998  -42.9366   -5.2750 C   0  0  0  0  0  0  0  0  0  0  0  0
  -19.4352  -42.0857   -6.4035 C   0  0  0  0  0  0  0  0  0  0  0  0
  -20.3999  -42.1103   -7.3891 C   0  0  0  0  0  0  0  0  0  0  0  0
  -18.1904  -41.3107   -6.2468 C   0  0  0  0  0  0  0  0  0  0  0  0
  -17.1524  -41.9728   -5.7381 O   0  0  0  0  0  0  0  0  0  0  0  0
  -17.7869  -40.0037   -6.4990 N   0  0  0  0  0  0  0  0  0  0  0  0
  -20.7864  -44.6038   -3.9793 O   0  0  0  0  0  0  0  0  0  0  0  0
  -21.5408  -44.1973   -2.8731 C   0  0  0  0  0  0  0  0  0  0  0  0
  -22.1443  -45.3024   -2.0651 C   0  0  0  0  0  0  0  0  0  0  0  0
  1  2  1  0
  2  3  1  0
  3  4  1  0
  4  5  1  0
  5  6  1  0
  6  7  2  0
  6  8  1  0
  8  9  1  1
  8 10  1  0
 10 11  1  0
 11 12  1  1
 11 13  1  0
 13 14  1  1
 14 15  1  0
 15 16  1  6
 15 17  1  0
 17 18  1  0
 18 19  1  0
 19 20  1  0
 20 21  1  0
 21 22  1  0
 22 23  1  0
 23 24  1  0
 22 25  1  0
 25 26  2  0
 25 27  1  0
 27 28  2  0
 28 29  1  0
 29 30  2  0
 30 31  1  0
 31 32  2  0
 31 33  1  0
 33 34  2  0
 33 35  1  0
 29 36  1  0
 36 37  1  0
 37 38  1  0
 32 27  1  0
 35 13  1  0
M  END
$$$$
