
     RDKit          3D

 38 39  0  0  0  0  0  0  0  0999 V2000
   -9.0499  -37.7313  -11.0518 C   0  0  0  0  0  0  0  0  0  0  0  0
  -10.0875  -38.1900  -12.0523 C   0  0  0  0  0  0  0  0  0  0  0  0
  -11.4997  -37.9592  -11.5025 C   0  0  0  0  0  0  0  0  0  0  0  0
  -12.1395  -39.3156  -11.4009 C   0  0  0  0  0  0  0  0  0  0  0  0
  -13.5164  -39.3458  -11.7777 N   0  0  0  0  0  0  0  0  0  0  0  0
  -14.5663  -39.8650  -10.9815 C   0  0  0  0  0  0  0  0  0  0  0  0
  -15.6441  -40.1598  -11.5459 O   0  0  0  0  0  0  0  0  0  0  0  0
  -14.4482  -40.0744   -9.5206 C   0  0  2  0  0  0  0  0  0  0  0  0
  -13.5277  -41.2138   -9.2616 C   0  0  0  0  0  0  0  0  0  0  0  0
  -15.8616  -40.3312   -8.9788 C   0  0  0  0  0  0  0  0  0  0  0  0
  -16.7574  -39.1786   -9.2502 C   0  0  2  0  0  0  0  0  0  0  0  0
  -16.1284  -37.9408   -9.2141 O   0  0  0  0  0  0  0  0  0  0  0  0
  -17.9208  -39.0822   -8.2424 C   0  0  2  0  0  0  0  0  0  0  0  0
  -18.3335  -37.6663   -8.2282 C   0  0  0  0  0  0  0  0  0  0  0  0
  -19.6449  -37.2564   -7.7352 C   0  0  2  0  0  0  0  0  0  0  0  0
  -20.1231  -37.9101   -6.4548 C   0  0  0  0  0  0  0  0  0  0  0  0
  -20.7737  -37.1646   -8.7301 C   0  0  0  0  0  0  0  0  0  0  0  0
  -21.4427  -38.3996   -9.1518 C   0  0  0  0  0  0  0  0  0  0  0  0
  -22.8349  -38.5814   -8.5267 C   0  0  0  0  0  0  0  0  0  0  0  0
  -23.3353  -39.9950   -8.7548 C   0  0  0  0  0  0  0  0  0  0  0  0
  -23.5998  -40.7139   -7.4857 C   0  0  0  0  0  0  0  0  0  0  0  0
  -23.4370  -42.1515   -7.5639 N   0  0  0  0  0  0  0  0  0  0  0  0
  -24.3359  -42.8449   -8.4715 C   0  0  0  0  0  0  0  0  0  0  0  0
  -25.7717  -42.7367   -8.1171 C   0  0  0  0  0  0  0  0  0  0  0  0
  -22.4758  -42.8664   -6.8243 C   0  0  0  0  0  0  0  0  0  0  0  0
  -22.8813  -44.0917   -6.5926 O   0  0  0  0  0  0  0  0  0  0  0  0
  -21.1527  -42.4872   -6.2870 C   0  0  0  0  0  0  0  0  0  0  0  0
  -21.0232  -43.0149   -4.9763 C   0  0  0  0  0  0  0  0  0  0  0  0
  -19.9128  -42.8268   -4.1904 C   0  0  0  0  0  0  0  0  0  0  0  0
  -18.9260  -42.0849   -4.7676 C   0  0  0  0  0  0  0  0  0  0  0  0
  -18.9889  -41.5260   -6.0746 C   0  0  0  0  0  0  0  0  0  0  0  0
  -20.1245  -41.7436   -6.8266 C   0  0  0  0  0  0  0  0  0  0  0  0
  -17.7443  -40.7815   -6.3421 C   0  0  0  0  0  0  0  0  0  0  0  0
  -16.6219  -41.3447   -5.8974 O   0  0  0  0  0  0  0  0  0  0  0  0
  -17.4087  -39.5843   -6.9657 N   0  0  0  0  0  0  0  0  0  0  0  0
  -19.8264  -43.3615   -2.9167 O   0  0  0  0  0  0  0  0  0  0  0  0
  -20.8127  -43.0995   -1.9594 C   0  0  0  0  0  0  0  0  0  0  0  0
  -20.6109  -43.7581   -0.6312 C   0  0  0  0  0  0  0  0  0  0  0  0
  1  2  1  0
  2  3  1  0
  3  4  1  0
  4  5  1  0
  5  6  1  0
  6  7  2  0
  6  8  1  0
  8  9  1  6
  8 10  1  0
 10 11  1  0
 11 12  1  1
 11 13  1  0
 13 14  1  1
 14 15  1  0
 15 16  1  1
 15 17  1  0
 17 18  1  0
 18 19  1  0
 19 20  1  0
 20 21  1  0
 21 22  1  0
 22 23  1  0
 23 24  1  0
 22 25  1  0
 25 26  2  0
 25 27  1  0
 27 28  2  0
 28 29  1  0
 29 30  2  0
 30 31  1  0
 31 32  2  0
 31 33  1  0
 33 34  2  0
 33 35  1  0
 29 36  1  0
 36 37  1  0
 37 38  1  0
 32 27  1  0
 35 13  1  0
M  END
$$$$
