
     RDKit          3D

 38 39  0  0  0  0  0  0  0  0999 V2000
  -16.0372  -33.4911   -9.9566 C   0  0  0  0  0  0  0  0  0  0  0  0
  -15.7566  -34.8017  -10.6577 C   0  0  0  0  0  0  0  0  0  0  0  0
  -14.5595  -35.5084  -10.0116 C   0  0  0  0  0  0  0  0  0  0  0  0
  -14.2328  -36.6787  -10.8966 C   0  0  0  0  0  0  0  0  0  0  0  0
  -13.9440  -37.8864  -10.1916 N   0  0  0  0  0  0  0  0  0  0  0  0
  -14.7657  -38.4605   -9.1911 C   0  0  0  0  0  0  0  0  0  0  0  0
  -15.7342  -37.7902   -8.7670 O   0  0  0  0  0  0  0  0  0  0  0  0
  -14.5335  -39.8096   -8.6271 C   0  0  2  0  0  0  0  0  0  0  0  0
  -13.0705  -40.0737   -8.5749 C   0  0  0  0  0  0  0  0  0  0  0  0
  -15.2763  -40.8135   -9.5201 C   0  0  0  0  0  0  0  0  0  0  0  0
  -16.3378  -41.5226   -8.7618 C   0  0  2  0  0  0  0  0  0  0  0  0
  -16.9266  -42.5775   -9.4471 O   0  0  0  0  0  0  0  0  0  0  0  0
  -17.4987  -40.5918   -8.3563 C   0  0  2  0  0  0  0  0  0  0  0  0
  -17.3669  -39.3849   -9.1939 C   0  0  0  0  0  0  0  0  0  0  0  0
  -18.4886  -38.4756   -9.4075 C   0  0  2  0  0  0  0  0  0  0  0  0
  -19.3221  -38.1287   -8.1908 C   0  0  0  0  0  0  0  0  0  0  0  0
  -19.3783  -38.7233  -10.5990 C   0  0  0  0  0  0  0  0  0  0  0  0
  -20.3946  -39.7770  -10.5120 C   0  0  0  0  0  0  0  0  0  0  0  0
  -21.8219  -39.2332  -10.3422 C   0  0  0  0  0  0  0  0  0  0  0  0
  -22.7707  -40.3521   -9.9568 C   0  0  0  0  0  0  0  0  0  0  0  0
  -23.4290  -40.1119   -8.6506 C   0  0  0  0  0  0  0  0  0  0  0  0
  -23.7918  -41.3153   -7.9298 N   0  0  0  0  0  0  0  0  0  0  0  0
  -24.7651  -42.1770   -8.5800 C   0  0  0  0  0  0  0  0  0  0  0  0
  -26.1786  -41.8464   -8.2773 C   0  0  0  0  0  0  0  0  0  0  0  0
  -23.2528  -41.6633   -6.6766 C   0  0  0  0  0  0  0  0  0  0  0  0
  -24.1007  -42.3895   -5.9889 O   0  0  0  0  0  0  0  0  0  0  0  0
  -21.9573  -41.3600   -6.0341 C   0  0  0  0  0  0  0  0  0  0  0  0
  -22.1872  -41.0376   -4.6716 C   0  0  0  0  0  0  0  0  0  0  0  0
  -21.1877  -40.6893   -3.7967 C   0  0  0  0  0  0  0  0  0  0  0  0
  -19.9369  -40.6752   -4.3378 C   0  0  0  0  0  0  0  0  0  0  0  0
  -19.6345  -40.9866   -5.6929 C   0  0  0  0  0  0  0  0  0  0  0  0
  -20.6723  -41.3322   -6.5332 C   0  0  0  0  0  0  0  0  0  0  0  0
  -18.1820  -40.8495   -5.9076 C   0  0  0  0  0  0  0  0  0  0  0  0
  -17.4034  -41.2883   -4.9197 O   0  0  0  0  0  0  0  0  0  0  0  0
  -17.3617  -40.3573   -6.9174 N   0  0  0  0  0  0  0  0  0  0  0  0
  -21.4554  -40.3838   -2.4736 O   0  0  0  0  0  0  0  0  0  0  0  0
  -22.1327  -41.2899   -1.6501 C   0  0  0  0  0  0  0  0  0  0  0  0
  -22.3418  -40.8432   -0.2376 C   0  0  0  0  0  0  0  0  0  0  0  0
  1  2  1  0
  2  3  1  0
  3  4  1  0
  4  5  1  0
  5  6  1  0
  6  7  2  0
  6  8  1  0
  8  9  1  6
  8 10  1  0
 10 11  1  0
 11 12  1  6
 11 13  1  0
 13 14  1  6
 14 15  1  0
 15 16  1  1
 15 17  1  0
 17 18  1  0
 18 19  1  0
 19 20  1  0
 20 21  1  0
 21 22  1  0
 22 23  1  0
 23 24  1  0
 22 25  1  0
 25 26  2  0
 25 27  1  0
 27 28  2  0
 28 29  1  0
 29 30  2  0
 30 31  1  0
 31 32  2  0
 31 33  1  0
 33 34  2  0
 33 35  1  0
 29 36  1  0
 36 37  1  0
 37 38  1  0
 32 27  1  0
 35 13  1  0
M  END
$$$$
