
     RDKit          3D

 38 39  0  0  0  0  0  0  0  0999 V2000
  -15.0284  -35.6649  -14.1374 C   0  0  0  0  0  0  0  0  0  0  0  0
  -15.6088  -36.9291  -13.5435 C   0  0  0  0  0  0  0  0  0  0  0  0
  -15.0705  -37.1500  -12.1252 C   0  0  0  0  0  0  0  0  0  0  0  0
  -14.4485  -38.5184  -12.1188 C   0  0  0  0  0  0  0  0  0  0  0  0
  -13.7286  -38.8313  -10.9260 N   0  0  0  0  0  0  0  0  0  0  0  0
  -14.2408  -39.5829   -9.8403 C   0  0  0  0  0  0  0  0  0  0  0  0
  -15.3139  -40.2051  -10.0080 O   0  0  0  0  0  0  0  0  0  0  0  0
  -13.5688  -39.6661   -8.5237 C   0  0  2  0  0  0  0  0  0  0  0  0
  -12.1090  -39.8640   -8.7301 C   0  0  0  0  0  0  0  0  0  0  0  0
  -14.2122  -40.8281   -7.7537 C   0  0  0  0  0  0  0  0  0  0  0  0
  -15.4670  -40.3992   -7.0858 C   0  0  2  0  0  0  0  0  0  0  0  0
  -15.5297  -40.7015   -5.7316 O   0  0  0  0  0  0  0  0  0  0  0  0
  -16.7213  -41.0414   -7.7126 C   0  0  2  0  0  0  0  0  0  0  0  0
  -16.3593  -42.4399   -8.0105 C   0  0  0  0  0  0  0  0  0  0  0  0
  -17.3764  -43.4672   -8.2122 C   0  0  2  0  0  0  0  0  0  0  0  0
  -18.5664  -43.0850   -9.0686 C   0  0  0  0  0  0  0  0  0  0  0  0
  -17.8280  -44.2563   -7.0096 C   0  0  0  0  0  0  0  0  0  0  0  0
  -18.7893  -43.6445   -6.0866 C   0  0  0  0  0  0  0  0  0  0  0  0
  -20.2094  -44.2169   -6.2196 C   0  0  0  0  0  0  0  0  0  0  0  0
  -21.2013  -43.3472   -5.4708 C   0  0  0  0  0  0  0  0  0  0  0  0
  -22.2514  -42.7930   -6.3582 C   0  0  0  0  0  0  0  0  0  0  0  0
  -22.7945  -41.5213   -5.9256 N   0  0  0  0  0  0  0  0  0  0  0  0
  -23.4830  -41.5262   -4.6455 C   0  0  0  0  0  0  0  0  0  0  0  0
  -24.8085  -40.8614   -4.6574 C   0  0  0  0  0  0  0  0  0  0  0  0
  -22.6787  -40.3325   -6.6709 C   0  0  0  0  0  0  0  0  0  0  0  0
  -23.6831  -39.5266   -6.4237 O   0  0  0  0  0  0  0  0  0  0  0  0
  -21.6679  -39.8633   -7.6409 C   0  0  0  0  0  0  0  0  0  0  0  0
  -22.3329  -39.2439   -8.7306 C   0  0  0  0  0  0  0  0  0  0  0  0
  -21.6782  -38.7142   -9.8153 C   0  0  0  0  0  0  0  0  0  0  0  0
  -20.3207  -38.8263   -9.7712 C   0  0  0  0  0  0  0  0  0  0  0  0
  -19.5897  -39.4339   -8.7124 C   0  0  0  0  0  0  0  0  0  0  0  0
  -20.2918  -39.9505   -7.6434 C   0  0  0  0  0  0  0  0  0  0  0  0
  -18.1496  -39.3782   -9.0253 C   0  0  0  0  0  0  0  0  0  0  0  0
  -17.7192  -38.2500   -9.5879 O   0  0  0  0  0  0  0  0  0  0  0  0
  -17.0614  -40.2332   -8.8854 N   0  0  0  0  0  0  0  0  0  0  0  0
  -22.3659  -38.1163  -10.8570 O   0  0  0  0  0  0  0  0  0  0  0  0
  -23.6613  -37.6208  -10.6716 C   0  0  0  0  0  0  0  0  0  0  0  0
  -24.0701  -36.5246  -11.6042 C   0  0  0  0  0  0  0  0  0  0  0  0
  1  2  1  0
  2  3  1  0
  3  4  1  0
  4  5  1  0
  5  6  1  0
  6  7  2  0
  6  8  1  0
  8  9  1  6
  8 10  1  0
 10 11  1  0
 11 12  1  1
 11 13  1  0
 13 14  1  6
 14 15  1  0
 15 16  1  1
 15 17  1  0
 17 18  1  0
 18 19  1  0
 19 20  1  0
 20 21  1  0
 21 22  1  0
 22 23  1  0
 23 24  1  0
 22 25  1  0
 25 26  2  0
 25 27  1  0
 27 28  2  0
 28 29  1  0
 29 30  2  0
 30 31  1  0
 31 32  2  0
 31 33  1  0
 33 34  2  0
 33 35  1  0
 29 36  1  0
 36 37  1  0
 37 38  1  0
 32 27  1  0
 35 13  1  0
M  END
$$$$
