
     RDKit          3D

 38 39  0  0  0  0  0  0  0  0999 V2000
  -11.9319  -35.1834  -13.9019 C   0  0  0  0  0  0  0  0  0  0  0  0
  -12.8729  -35.3640  -12.7315 C   0  0  0  0  0  0  0  0  0  0  0  0
  -13.2105  -36.8471  -12.5404 C   0  0  0  0  0  0  0  0  0  0  0  0
  -14.2770  -36.9038  -11.4826 C   0  0  0  0  0  0  0  0  0  0  0  0
  -14.0238  -37.8489  -10.4426 N   0  0  0  0  0  0  0  0  0  0  0  0
  -14.6672  -39.1036  -10.3095 C   0  0  0  0  0  0  0  0  0  0  0  0
  -15.5133  -39.4271  -11.1735 O   0  0  0  0  0  0  0  0  0  0  0  0
  -14.3864  -40.0449   -9.2018 C   0  0  2  0  0  0  0  0  0  0  0  0
  -13.5702  -41.1773   -9.7159 C   0  0  0  0  0  0  0  0  0  0  0  0
  -15.7382  -40.5076   -8.6400 C   0  0  0  0  0  0  0  0  0  0  0  0
  -16.5687  -39.3506   -8.2203 C   0  0  2  0  0  0  0  0  0  0  0  0
  -15.9099  -38.4334   -7.4117 O   0  0  0  0  0  0  0  0  0  0  0  0
  -17.8216  -39.7769   -7.4283 C   0  0  2  0  0  0  0  0  0  0  0  0
  -18.1688  -38.6325   -6.5651 C   0  0  0  0  0  0  0  0  0  0  0  0
  -19.5029  -38.4836   -5.9918 C   0  0  2  0  0  0  0  0  0  0  0  0
  -20.1361  -39.7326   -5.4133 C   0  0  0  0  0  0  0  0  0  0  0  0
  -20.5211  -37.6940   -6.7742 C   0  0  0  0  0  0  0  0  0  0  0  0
  -21.2000  -38.3419   -7.9011 C   0  0  0  0  0  0  0  0  0  0  0  0
  -22.6546  -38.7308   -7.5930 C   0  0  0  0  0  0  0  0  0  0  0  0
  -23.1935  -39.6538   -8.6693 C   0  0  0  0  0  0  0  0  0  0  0  0
  -23.6160  -40.9679   -8.1291 C   0  0  0  0  0  0  0  0  0  0  0  0
  -23.5118  -42.0659   -9.0687 N   0  0  0  0  0  0  0  0  0  0  0  0
  -24.3459  -41.9691  -10.2550 C   0  0  0  0  0  0  0  0  0  0  0  0
  -25.7811  -42.2613  -10.0233 C   0  0  0  0  0  0  0  0  0  0  0  0
  -22.6629  -43.1731   -8.8795 C   0  0  0  0  0  0  0  0  0  0  0  0
  -23.1449  -44.2380   -9.4737 O   0  0  0  0  0  0  0  0  0  0  0  0
  -21.3844  -43.3320   -8.1562 C   0  0  0  0  0  0  0  0  0  0  0  0
  -21.4109  -44.5596   -7.4454 C   0  0  0  0  0  0  0  0  0  0  0  0
  -20.3774  -44.9999   -6.6554 C   0  0  0  0  0  0  0  0  0  0  0  0
  -19.3050  -44.1605   -6.6012 C   0  0  0  0  0  0  0  0  0  0  0  0
  -19.2112  -42.9170   -7.2865 C   0  0  0  0  0  0  0  0  0  0  0  0
  -20.2747  -42.5183   -8.0693 C   0  0  0  0  0  0  0  0  0  0  0  0
  -17.9136  -42.2899   -6.9742 C   0  0  0  0  0  0  0  0  0  0  0  0
  -16.8681  -43.1134   -6.9150 O   0  0  0  0  0  0  0  0  0  0  0  0
  -17.4632  -41.0009   -6.7088 N   0  0  0  0  0  0  0  0  0  0  0  0
  -20.4432  -46.2062   -5.9801 O   0  0  0  0  0  0  0  0  0  0  0  0
  -20.3918  -46.2506   -4.5825 C   0  0  0  0  0  0  0  0  0  0  0  0
  -21.0607  -47.4308   -3.9515 C   0  0  0  0  0  0  0  0  0  0  0  0
  1  2  1  0
  2  3  1  0
  3  4  1  0
  4  5  1  0
  5  6  1  0
  6  7  2  0
  6  8  1  0
  8  9  1  6
  8 10  1  0
 10 11  1  0
 11 12  1  1
 11 13  1  0
 13 14  1  1
 14 15  1  0
 15 16  1  6
 15 17  1  0
 17 18  1  0
 18 19  1  0
 19 20  1  0
 20 21  1  0
 21 22  1  0
 22 23  1  0
 23 24  1  0
 22 25  1  0
 25 26  2  0
 25 27  1  0
 27 28  2  0
 28 29  1  0
 29 30  2  0
 30 31  1  0
 31 32  2  0
 31 33  1  0
 33 34  2  0
 33 35  1  0
 29 36  1  0
 36 37  1  0
 37 38  1  0
 32 27  1  0
 35 13  1  0
M  END
$$$$
