
     RDKit          3D

 38 39  0  0  0  0  0  0  0  0999 V2000
  -13.9944  -34.0233  -14.0686 C   0  0  0  0  0  0  0  0  0  0  0  0
  -13.2898  -35.1347  -13.3229 C   0  0  0  0  0  0  0  0  0  0  0  0
  -14.3054  -36.0014  -12.5697 C   0  0  0  0  0  0  0  0  0  0  0  0
  -13.6544  -36.3793  -11.2686 C   0  0  0  0  0  0  0  0  0  0  0  0
  -14.4680  -37.1863  -10.4166 N   0  0  0  0  0  0  0  0  0  0  0  0
  -15.2745  -38.2677  -10.8479 C   0  0  0  0  0  0  0  0  0  0  0  0
  -16.1680  -38.0365  -11.6935 O   0  0  0  0  0  0  0  0  0  0  0  0
  -15.1098  -39.6514  -10.3476 C   0  0  2  0  0  0  0  0  0  0  0  0
  -14.4120  -40.4656  -11.3786 C   0  0  0  0  0  0  0  0  0  0  0  0
  -16.5104  -40.1921  -10.0265 C   0  0  0  0  0  0  0  0  0  0  0  0
  -17.2274  -39.2972   -9.0833 C   0  0  2  0  0  0  0  0  0  0  0  0
  -16.4671  -38.2372   -8.6063 O   0  0  0  0  0  0  0  0  0  0  0  0
  -17.7345  -40.0406   -7.8308 C   0  0  2  0  0  0  0  0  0  0  0  0
  -17.5289  -39.1196   -6.6972 C   0  0  0  0  0  0  0  0  0  0  0  0
  -18.2516  -39.2811   -5.4394 C   0  0  2  0  0  0  0  0  0  0  0  0
  -18.3662  -40.6918   -4.8989 C   0  0  0  0  0  0  0  0  0  0  0  0
  -19.5613  -38.5513   -5.2815 C   0  0  0  0  0  0  0  0  0  0  0  0
  -20.7603  -39.1121   -5.9127 C   0  0  0  0  0  0  0  0  0  0  0  0
  -21.7211  -39.7744   -4.9127 C   0  0  0  0  0  0  0  0  0  0  0  0
  -22.7689  -40.5886   -5.6475 C   0  0  0  0  0  0  0  0  0  0  0  0
  -22.7365  -42.0228   -5.2741 C   0  0  0  0  0  0  0  0  0  0  0  0
  -23.1833  -42.9255   -6.3155 N   0  0  0  0  0  0  0  0  0  0  0  0
  -24.5667  -42.7765   -6.7359 C   0  0  0  0  0  0  0  0  0  0  0  0
  -25.5419  -43.5461   -5.9261 C   0  0  0  0  0  0  0  0  0  0  0  0
  -22.3559  -43.8972   -6.9099 C   0  0  0  0  0  0  0  0  0  0  0  0
  -23.0630  -44.9173   -7.3328 O   0  0  0  0  0  0  0  0  0  0  0  0
  -20.8954  -43.9613   -7.1240 C   0  0  0  0  0  0  0  0  0  0  0  0
  -20.4472  -45.2746   -6.8284 C   0  0  0  0  0  0  0  0  0  0  0  0
  -19.1325  -45.6627   -6.9109 C   0  0  0  0  0  0  0  0  0  0  0  0
  -18.2728  -44.6810   -7.3042 C   0  0  0  0  0  0  0  0  0  0  0  0
  -18.6525  -43.3456   -7.6156 C   0  0  0  0  0  0  0  0  0  0  0  0
  -19.9854  -43.0038   -7.5193 C   0  0  0  0  0  0  0  0  0  0  0  0
  -17.4507  -42.5754   -7.9859 C   0  0  0  0  0  0  0  0  0  0  0  0
  -16.5543  -43.2184   -8.7326 O   0  0  0  0  0  0  0  0  0  0  0  0
  -16.9744  -41.2897   -7.7514 N   0  0  0  0  0  0  0  0  0  0  0  0
  -18.7378  -46.9560   -6.6152 O   0  0  0  0  0  0  0  0  0  0  0  0
  -19.6142  -47.8487   -5.9885 C   0  0  0  0  0  0  0  0  0  0  0  0
  -19.5383  -49.2652   -6.4641 C   0  0  0  0  0  0  0  0  0  0  0  0
  1  2  1  0
  2  3  1  0
  3  4  1  0
  4  5  1  0
  5  6  1  0
  6  7  2  0
  6  8  1  0
  8  9  1  6
  8 10  1  0
 10 11  1  0
 11 12  1  1
 11 13  1  0
 13 14  1  1
 14 15  1  0
 15 16  1  6
 15 17  1  0
 17 18  1  0
 18 19  1  0
 19 20  1  0
 20 21  1  0
 21 22  1  0
 22 23  1  0
 23 24  1  0
 22 25  1  0
 25 26  2  0
 25 27  1  0
 27 28  2  0
 28 29  1  0
 29 30  2  0
 30 31  1  0
 31 32  2  0
 31 33  1  0
 33 34  2  0
 33 35  1  0
 29 36  1  0
 36 37  1  0
 37 38  1  0
 32 27  1  0
 35 13  1  0
M  END
$$$$
