
     RDKit          3D

 38 39  0  0  0  0  0  0  0  0999 V2000
  -19.6442  -36.0032  -12.8399 C   0  0  0  0  0  0  0  0  0  0  0  0
  -19.0557  -37.0592  -11.9309 C   0  0  0  0  0  0  0  0  0  0  0  0
  -17.5404  -37.1605  -12.1394 C   0  0  0  0  0  0  0  0  0  0  0  0
  -16.9093  -36.8210  -10.8181 C   0  0  0  0  0  0  0  0  0  0  0  0
  -15.5074  -37.0838  -10.7513 N   0  0  0  0  0  0  0  0  0  0  0  0
  -14.9196  -38.2072  -10.1202 C   0  0  0  0  0  0  0  0  0  0  0  0
  -14.4240  -39.0989  -10.8457 O   0  0  0  0  0  0  0  0  0  0  0  0
  -14.8644  -38.3743   -8.6502 C   0  0  2  0  0  0  0  0  0  0  0  0
  -13.9491  -37.3527   -8.0748 C   0  0  0  0  0  0  0  0  0  0  0  0
  -14.3901  -39.8072   -8.3695 C   0  0  0  0  0  0  0  0  0  0  0  0
  -15.3282  -40.5143   -7.4613 C   0  0  2  0  0  0  0  0  0  0  0  0
  -14.7593  -41.5636   -6.7510 O   0  0  0  0  0  0  0  0  0  0  0  0
  -16.5309  -41.1240   -8.2097 C   0  0  2  0  0  0  0  0  0  0  0  0
  -15.9630  -41.9808   -9.2675 C   0  0  0  0  0  0  0  0  0  0  0  0
  -16.7480  -43.0352   -9.9019 C   0  0  2  0  0  0  0  0  0  0  0  0
  -18.1736  -42.6866  -10.2784 C   0  0  0  0  0  0  0  0  0  0  0  0
  -16.6875  -44.4163   -9.3008 C   0  0  0  0  0  0  0  0  0  0  0  0
  -17.4848  -44.6983   -8.1028 C   0  0  0  0  0  0  0  0  0  0  0  0
  -18.7302  -45.5525   -8.3879 C   0  0  0  0  0  0  0  0  0  0  0  0
  -19.6578  -45.5501   -7.1877 C   0  0  0  0  0  0  0  0  0  0  0  0
  -20.9975  -45.0026   -7.5084 C   0  0  0  0  0  0  0  0  0  0  0  0
  -21.6730  -44.3738   -6.3915 N   0  0  0  0  0  0  0  0  0  0  0  0
  -21.9861  -45.2408   -5.2677 C   0  0  0  0  0  0  0  0  0  0  0  0
  -22.5762  -44.5443   -4.0991 C   0  0  0  0  0  0  0  0  0  0  0  0
  -22.0175  -43.0091   -6.3596 C   0  0  0  0  0  0  0  0  0  0  0  0
  -23.0736  -42.8114   -5.6079 O   0  0  0  0  0  0  0  0  0  0  0  0
  -21.4217  -41.8194   -7.0020 C   0  0  0  0  0  0  0  0  0  0  0  0
  -22.4661  -40.9934   -7.4922 C   0  0  0  0  0  0  0  0  0  0  0  0
  -22.2483  -39.8134   -8.1601 C   0  0  0  0  0  0  0  0  0  0  0  0
  -20.9356  -39.4848   -8.3217 C   0  0  0  0  0  0  0  0  0  0  0  0
  -19.8398  -40.2645   -7.8571 C   0  0  0  0  0  0  0  0  0  0  0  0
  -20.1091  -41.4415   -7.1901 C   0  0  0  0  0  0  0  0  0  0  0  0
  -18.5790  -39.5961   -8.2289 C   0  0  0  0  0  0  0  0  0  0  0  0
  -18.5668  -38.2692   -8.1112 O   0  0  0  0  0  0  0  0  0  0  0  0
  -17.3325  -39.9993   -8.6963 N   0  0  0  0  0  0  0  0  0  0  0  0
  -23.2968  -39.0360   -8.6203 O   0  0  0  0  0  0  0  0  0  0  0  0
  -24.4361  -38.8289   -7.8348 C   0  0  0  0  0  0  0  0  0  0  0  0
  -25.3005  -37.6791   -8.2459 C   0  0  0  0  0  0  0  0  0  0  0  0
  1  2  1  0
  2  3  1  0
  3  4  1  0
  4  5  1  0
  5  6  1  0
  6  7  2  0
  6  8  1  0
  8  9  1  1
  8 10  1  0
 10 11  1  0
 11 12  1  6
 11 13  1  0
 13 14  1  6
 14 15  1  0
 15 16  1  1
 15 17  1  0
 17 18  1  0
 18 19  1  0
 19 20  1  0
 20 21  1  0
 21 22  1  0
 22 23  1  0
 23 24  1  0
 22 25  1  0
 25 26  2  0
 25 27  1  0
 27 28  2  0
 28 29  1  0
 29 30  2  0
 30 31  1  0
 31 32  2  0
 31 33  1  0
 33 34  2  0
 33 35  1  0
 29 36  1  0
 36 37  1  0
 37 38  1  0
 32 27  1  0
 35 13  1  0
M  END
$$$$
