
     RDKit          3D

 38 39  0  0  0  0  0  0  0  0999 V2000
  -12.2228  -35.5667  -13.2796 C   0  0  0  0  0  0  0  0  0  0  0  0
  -11.7775  -36.8801  -12.6759 C   0  0  0  0  0  0  0  0  0  0  0  0
  -12.9714  -37.8286  -12.5182 C   0  0  0  0  0  0  0  0  0  0  0  0
  -12.4238  -39.1033  -11.9395 C   0  0  0  0  0  0  0  0  0  0  0  0
  -12.9633  -39.4491  -10.6635 N   0  0  0  0  0  0  0  0  0  0  0  0
  -14.1919  -40.1220  -10.4552 C   0  0  0  0  0  0  0  0  0  0  0  0
  -15.0367  -40.1067  -11.3788 O   0  0  0  0  0  0  0  0  0  0  0  0
  -14.5210  -40.8392   -9.2024 C   0  0  2  0  0  0  0  0  0  0  0  0
  -14.0209  -42.2372   -9.2921 C   0  0  0  0  0  0  0  0  0  0  0  0
  -16.0445  -40.7745   -9.0242 C   0  0  0  0  0  0  0  0  0  0  0  0
  -16.5179  -39.3685   -8.9621 C   0  0  2  0  0  0  0  0  0  0  0  0
  -15.6128  -38.4819   -8.3930 O   0  0  0  0  0  0  0  0  0  0  0  0
  -17.8171  -39.2163   -8.1452 C   0  0  2  0  0  0  0  0  0  0  0  0
  -18.1792  -37.7882   -8.2149 C   0  0  0  0  0  0  0  0  0  0  0  0
  -19.5357  -37.3282   -7.9339 C   0  0  2  0  0  0  0  0  0  0  0  0
  -20.2249  -37.9416   -6.7321 C   0  0  0  0  0  0  0  0  0  0  0  0
  -20.4963  -37.2208   -9.0907 C   0  0  0  0  0  0  0  0  0  0  0  0
  -21.1346  -38.4423   -9.5916 C   0  0  0  0  0  0  0  0  0  0  0  0
  -22.6110  -38.5684   -9.1838 C   0  0  0  0  0  0  0  0  0  0  0  0
  -23.1183  -39.9700   -9.4650 C   0  0  0  0  0  0  0  0  0  0  0  0
  -23.5969  -40.6554   -8.2408 C   0  0  0  0  0  0  0  0  0  0  0  0
  -23.4727  -42.0986   -8.2723 N   0  0  0  0  0  0  0  0  0  0  0  0
  -24.2459  -42.7813   -9.2963 C   0  0  0  0  0  0  0  0  0  0  0  0
  -25.7146  -42.7201   -9.1011 C   0  0  0  0  0  0  0  0  0  0  0  0
  -22.6599  -42.8285   -7.3842 C   0  0  0  0  0  0  0  0  0  0  0  0
  -23.1370  -44.0358   -7.1993 O   0  0  0  0  0  0  0  0  0  0  0  0
  -21.4219  -42.4802   -6.6568 C   0  0  0  0  0  0  0  0  0  0  0  0
  -21.5111  -42.9860   -5.3342 C   0  0  0  0  0  0  0  0  0  0  0  0
  -20.5276  -42.8172   -4.3907 C   0  0  0  0  0  0  0  0  0  0  0  0
  -19.4399  -42.1178   -4.8213 C   0  0  0  0  0  0  0  0  0  0  0  0
  -19.2844  -41.5828   -6.1306 C   0  0  0  0  0  0  0  0  0  0  0  0
  -20.2991  -41.7796   -7.0438 C   0  0  0  0  0  0  0  0  0  0  0  0
  -17.9892  -40.8828   -6.2157 C   0  0  0  0  0  0  0  0  0  0  0  0
  -16.9672  -41.4718   -5.5967 O   0  0  0  0  0  0  0  0  0  0  0  0
  -17.5224  -39.7090   -6.7981 N   0  0  0  0  0  0  0  0  0  0  0  0
  -20.6540  -43.3293   -3.1111 O   0  0  0  0  0  0  0  0  0  0  0  0
  -21.8999  -43.3756   -2.4759 C   0  0  0  0  0  0  0  0  0  0  0  0
  -21.9890  -42.6334   -1.1800 C   0  0  0  0  0  0  0  0  0  0  0  0
  1  2  1  0
  2  3  1  0
  3  4  1  0
  4  5  1  0
  5  6  1  0
  6  7  2  0
  6  8  1  0
  8  9  1  6
  8 10  1  0
 10 11  1  0
 11 12  1  1
 11 13  1  0
 13 14  1  1
 14 15  1  0
 15 16  1  1
 15 17  1  0
 17 18  1  0
 18 19  1  0
 19 20  1  0
 20 21  1  0
 21 22  1  0
 22 23  1  0
 23 24  1  0
 22 25  1  0
 25 26  2  0
 25 27  1  0
 27 28  2  0
 28 29  1  0
 29 30  2  0
 30 31  1  0
 31 32  2  0
 31 33  1  0
 33 34  2  0
 33 35  1  0
 29 36  1  0
 36 37  1  0
 37 38  1  0
 32 27  1  0
 35 13  1  0
M  END
$$$$
