
     RDKit          3D

 38 39  0  0  0  0  0  0  0  0999 V2000
  -13.6788  -36.5802  -13.8257 C   0  0  0  0  0  0  0  0  0  0  0  0
  -12.6183  -37.6530  -13.7149 C   0  0  0  0  0  0  0  0  0  0  0  0
  -12.3850  -38.0250  -12.2462 C   0  0  0  0  0  0  0  0  0  0  0  0
  -13.5532  -38.8777  -11.8366 C   0  0  0  0  0  0  0  0  0  0  0  0
  -13.4578  -39.4100  -10.5151 N   0  0  0  0  0  0  0  0  0  0  0  0
  -14.3963  -40.2901   -9.9230 C   0  0  0  0  0  0  0  0  0  0  0  0
  -15.0098  -41.0866  -10.6688 O   0  0  0  0  0  0  0  0  0  0  0  0
  -14.6833  -40.3114   -8.4707 C   0  0  2  0  0  0  0  0  0  0  0  0
  -13.7857  -41.2952   -7.8081 C   0  0  0  0  0  0  0  0  0  0  0  0
  -16.1668  -40.6688   -8.3020 C   0  0  0  0  0  0  0  0  0  0  0  0
  -17.0409  -39.6165   -8.8794 C   0  0  2  0  0  0  0  0  0  0  0  0
  -16.4404  -38.3693   -8.9934 O   0  0  0  0  0  0  0  0  0  0  0  0
  -18.3197  -39.3868   -8.0485 C   0  0  2  0  0  0  0  0  0  0  0  0
  -18.8018  -38.0390   -8.4039 C   0  0  0  0  0  0  0  0  0  0  0  0
  -20.1816  -37.6306   -8.1587 C   0  0  2  0  0  0  0  0  0  0  0  0
  -20.7759  -38.0170   -6.8197 C   0  0  0  0  0  0  0  0  0  0  0  0
  -21.1866  -37.8490   -9.2608 C   0  0  0  0  0  0  0  0  0  0  0  0
  -21.7376  -39.1942   -9.4549 C   0  0  0  0  0  0  0  0  0  0  0  0
  -23.1835  -39.3375   -8.9543 C   0  0  0  0  0  0  0  0  0  0  0  0
  -23.5814  -40.8003   -8.9022 C   0  0  0  0  0  0  0  0  0  0  0  0
  -23.9591  -41.2363   -7.5367 C   0  0  0  0  0  0  0  0  0  0  0  0
  -23.7161  -42.6385   -7.2646 N   0  0  0  0  0  0  0  0  0  0  0  0
  -24.4641  -43.5831   -8.0774 C   0  0  0  0  0  0  0  0  0  0  0  0
  -23.8478  -43.8869   -9.3915 C   0  0  0  0  0  0  0  0  0  0  0  0
  -22.8154  -43.0953   -6.2836 C   0  0  0  0  0  0  0  0  0  0  0  0
  -23.1836  -44.2654   -5.8201 O   0  0  0  0  0  0  0  0  0  0  0  0
  -21.5868  -42.5063   -5.7123 C   0  0  0  0  0  0  0  0  0  0  0  0
  -21.5883  -42.7173   -4.3092 C   0  0  0  0  0  0  0  0  0  0  0  0
  -20.5907  -42.2748   -3.4756 C   0  0  0  0  0  0  0  0  0  0  0  0
  -19.5805  -41.6073   -4.1013 C   0  0  0  0  0  0  0  0  0  0  0  0
  -19.5148  -41.3601   -5.5010 C   0  0  0  0  0  0  0  0  0  0  0  0
  -20.5402  -41.8256   -6.2976 C   0  0  0  0  0  0  0  0  0  0  0  0
  -18.2862  -40.6014   -5.8005 C   0  0  0  0  0  0  0  0  0  0  0  0
  -17.1981  -40.9642   -5.1230 O   0  0  0  0  0  0  0  0  0  0  0  0
  -17.9392  -39.5513   -6.6441 N   0  0  0  0  0  0  0  0  0  0  0  0
  -20.6302  -42.5040   -2.1112 O   0  0  0  0  0  0  0  0  0  0  0  0
  -21.6976  -43.1976   -1.5302 C   0  0  0  0  0  0  0  0  0  0  0  0
  -21.5799  -43.4437   -0.0591 C   0  0  0  0  0  0  0  0  0  0  0  0
  1  2  1  0
  2  3  1  0
  3  4  1  0
  4  5  1  0
  5  6  1  0
  6  7  2  0
  6  8  1  0
  8  9  1  1
  8 10  1  0
 10 11  1  0
 11 12  1  1
 11 13  1  0
 13 14  1  1
 14 15  1  0
 15 16  1  1
 15 17  1  0
 17 18  1  0
 18 19  1  0
 19 20  1  0
 20 21  1  0
 21 22  1  0
 22 23  1  0
 23 24  1  0
 22 25  1  0
 25 26  2  0
 25 27  1  0
 27 28  2  0
 28 29  1  0
 29 30  2  0
 30 31  1  0
 31 32  2  0
 31 33  1  0
 33 34  2  0
 33 35  1  0
 29 36  1  0
 36 37  1  0
 37 38  1  0
 32 27  1  0
 35 13  1  0
M  END
$$$$
