
     RDKit          3D

 38 39  0  0  0  0  0  0  0  0999 V2000
  -11.4440  -36.5518  -14.2073 C   0  0  0  0  0  0  0  0  0  0  0  0
  -11.6608  -37.7745  -13.3436 C   0  0  0  0  0  0  0  0  0  0  0  0
  -12.3412  -37.3851  -12.0262 C   0  0  0  0  0  0  0  0  0  0  0  0
  -13.1681  -38.5702  -11.6124 C   0  0  0  0  0  0  0  0  0  0  0  0
  -13.8322  -38.4145  -10.3580 N   0  0  0  0  0  0  0  0  0  0  0  0
  -14.4675  -39.4564   -9.6391 C   0  0  0  0  0  0  0  0  0  0  0  0
  -14.8916  -40.4431  -10.2822 O   0  0  0  0  0  0  0  0  0  0  0  0
  -14.6517  -39.4325   -8.1702 C   0  0  2  0  0  0  0  0  0  0  0  0
  -13.4250  -39.9591   -7.5139 C   0  0  0  0  0  0  0  0  0  0  0  0
  -15.8932  -40.2771   -7.8504 C   0  0  0  0  0  0  0  0  0  0  0  0
  -17.0277  -39.9207   -8.7396 C   0  0  2  0  0  0  0  0  0  0  0  0
  -16.7993  -38.8141   -9.5472 O   0  0  0  0  0  0  0  0  0  0  0  0
  -18.3175  -39.6032   -7.9560 C   0  0  2  0  0  0  0  0  0  0  0  0
  -18.7029  -38.2325   -8.3406 C   0  0  0  0  0  0  0  0  0  0  0  0
  -20.0624  -37.7372   -8.1476 C   0  0  2  0  0  0  0  0  0  0  0  0
  -20.7249  -38.0708   -6.8266 C   0  0  0  0  0  0  0  0  0  0  0  0
  -21.0407  -37.9062   -9.2820 C   0  0  0  0  0  0  0  0  0  0  0  0
  -21.6668  -39.2170   -9.4825 C   0  0  0  0  0  0  0  0  0  0  0  0
  -23.1351  -39.2654   -9.0314 C   0  0  0  0  0  0  0  0  0  0  0  0
  -23.6243  -40.7002   -8.9793 C   0  0  0  0  0  0  0  0  0  0  0  0
  -24.0748  -41.0964   -7.6238 C   0  0  0  0  0  0  0  0  0  0  0  0
  -23.9284  -42.5076   -7.3301 N   0  0  0  0  0  0  0  0  0  0  0  0
  -24.7051  -43.4138   -8.1596 C   0  0  0  0  0  0  0  0  0  0  0  0
  -24.0118  -43.8697   -9.3886 C   0  0  0  0  0  0  0  0  0  0  0  0
  -23.0918  -43.0076   -6.3141 C   0  0  0  0  0  0  0  0  0  0  0  0
  -23.5473  -44.1473   -5.8527 O   0  0  0  0  0  0  0  0  0  0  0  0
  -21.8494  -42.4886   -5.7058 C   0  0  0  0  0  0  0  0  0  0  0  0
  -21.9120  -42.6828   -4.3017 C   0  0  0  0  0  0  0  0  0  0  0  0
  -20.9180  -42.2929   -3.4380 C   0  0  0  0  0  0  0  0  0  0  0  0
  -19.8477  -41.6960   -4.0343 C   0  0  0  0  0  0  0  0  0  0  0  0
  -19.7190  -41.4696   -5.4332 C   0  0  0  0  0  0  0  0  0  0  0  0
  -20.7433  -41.8804   -6.2606 C   0  0  0  0  0  0  0  0  0  0  0  0
  -18.4363  -40.7914   -5.6968 C   0  0  0  0  0  0  0  0  0  0  0  0
  -17.3965  -41.2125   -4.9783 O   0  0  0  0  0  0  0  0  0  0  0  0
  -17.9962  -39.7744   -6.5376 N   0  0  0  0  0  0  0  0  0  0  0  0
  -21.0184  -42.5034   -2.0738 O   0  0  0  0  0  0  0  0  0  0  0  0
  -20.8479  -43.7813   -1.5298 C   0  0  0  0  0  0  0  0  0  0  0  0
  -20.8685  -43.8522   -0.0355 C   0  0  0  0  0  0  0  0  0  0  0  0
  1  2  1  0
  2  3  1  0
  3  4  1  0
  4  5  1  0
  5  6  1  0
  6  7  2  0
  6  8  1  0
  8  9  1  1
  8 10  1  0
 10 11  1  0
 11 12  1  1
 11 13  1  0
 13 14  1  1
 14 15  1  0
 15 16  1  1
 15 17  1  0
 17 18  1  0
 18 19  1  0
 19 20  1  0
 20 21  1  0
 21 22  1  0
 22 23  1  0
 23 24  1  0
 22 25  1  0
 25 26  2  0
 25 27  1  0
 27 28  2  0
 28 29  1  0
 29 30  2  0
 30 31  1  0
 31 32  2  0
 31 33  1  0
 33 34  2  0
 33 35  1  0
 29 36  1  0
 36 37  1  0
 37 38  1  0
 32 27  1  0
 35 13  1  0
M  END
$$$$
