
     RDKit          3D

 38 39  0  0  0  0  0  0  0  0999 V2000
  -11.3064  -36.2540  -11.9145 C   0  0  0  0  0  0  0  0  0  0  0  0
  -11.3976  -37.7324  -12.2208 C   0  0  0  0  0  0  0  0  0  0  0  0
  -12.7664  -38.0707  -12.8223 C   0  0  0  0  0  0  0  0  0  0  0  0
  -13.2159  -39.3424  -12.1589 C   0  0  0  0  0  0  0  0  0  0  0  0
  -13.6205  -39.1847  -10.7986 N   0  0  0  0  0  0  0  0  0  0  0  0
  -14.5846  -39.9854  -10.1388 C   0  0  0  0  0  0  0  0  0  0  0  0
  -15.4744  -40.5283  -10.8319 O   0  0  0  0  0  0  0  0  0  0  0  0
  -14.5880  -40.2088   -8.6752 C   0  0  2  0  0  0  0  0  0  0  0  0
  -13.6772  -41.3391   -8.3498 C   0  0  0  0  0  0  0  0  0  0  0  0
  -16.0385  -40.4895   -8.2580 C   0  0  0  0  0  0  0  0  0  0  0  0
  -16.9717  -39.5104   -8.8707 C   0  0  2  0  0  0  0  0  0  0  0  0
  -16.4575  -38.2260   -8.9941 O   0  0  0  0  0  0  0  0  0  0  0  0
  -18.2806  -39.3580   -8.0695 C   0  0  2  0  0  0  0  0  0  0  0  0
  -18.6748  -37.9423   -8.1955 C   0  0  0  0  0  0  0  0  0  0  0  0
  -20.0438  -37.5037   -7.9418 C   0  0  2  0  0  0  0  0  0  0  0  0
  -20.7285  -38.0876   -6.7229 C   0  0  0  0  0  0  0  0  0  0  0  0
  -20.9971  -37.4620   -9.1088 C   0  0  0  0  0  0  0  0  0  0  0  0
  -21.6032  -38.7160   -9.5680 C   0  0  0  0  0  0  0  0  0  0  0  0
  -23.0795  -38.8611   -9.1666 C   0  0  0  0  0  0  0  0  0  0  0  0
  -23.5522  -40.2836   -9.3985 C   0  0  0  0  0  0  0  0  0  0  0  0
  -24.0248  -40.9337   -8.1530 C   0  0  0  0  0  0  0  0  0  0  0  0
  -23.8673  -42.3737   -8.1292 N   0  0  0  0  0  0  0  0  0  0  0  0
  -24.6163  -43.1121   -9.1324 C   0  0  0  0  0  0  0  0  0  0  0  0
  -26.0892  -43.0425   -8.9752 C   0  0  0  0  0  0  0  0  0  0  0  0
  -23.0452  -43.0508   -7.2085 C   0  0  0  0  0  0  0  0  0  0  0  0
  -23.4960  -44.2611   -6.9818 O   0  0  0  0  0  0  0  0  0  0  0  0
  -21.8215  -42.6468   -6.4857 C   0  0  0  0  0  0  0  0  0  0  0  0
  -21.9098  -43.1047   -5.1457 C   0  0  0  0  0  0  0  0  0  0  0  0
  -20.9381  -42.8779   -4.2021 C   0  0  0  0  0  0  0  0  0  0  0  0
  -19.8633  -42.1700   -4.6508 C   0  0  0  0  0  0  0  0  0  0  0  0
  -19.7094  -41.6809   -5.9781 C   0  0  0  0  0  0  0  0  0  0  0  0
  -20.7120  -41.9353   -6.8906 C   0  0  0  0  0  0  0  0  0  0  0  0
  -18.4300  -40.9546   -6.0800 C   0  0  0  0  0  0  0  0  0  0  0  0
  -17.3998  -41.4962   -5.4319 O   0  0  0  0  0  0  0  0  0  0  0  0
  -17.9857  -39.7929   -6.7028 N   0  0  0  0  0  0  0  0  0  0  0  0
  -21.0631  -43.3446   -2.9052 O   0  0  0  0  0  0  0  0  0  0  0  0
  -22.0950  -44.2219   -2.5539 C   0  0  0  0  0  0  0  0  0  0  0  0
  -22.1401  -44.6172   -1.1116 C   0  0  0  0  0  0  0  0  0  0  0  0
  1  2  1  0
  2  3  1  0
  3  4  1  0
  4  5  1  0
  5  6  1  0
  6  7  2  0
  6  8  1  0
  8  9  1  6
  8 10  1  0
 10 11  1  0
 11 12  1  1
 11 13  1  0
 13 14  1  1
 14 15  1  0
 15 16  1  1
 15 17  1  0
 17 18  1  0
 18 19  1  0
 19 20  1  0
 20 21  1  0
 21 22  1  0
 22 23  1  0
 23 24  1  0
 22 25  1  0
 25 26  2  0
 25 27  1  0
 27 28  2  0
 28 29  1  0
 29 30  2  0
 30 31  1  0
 31 32  2  0
 31 33  1  0
 33 34  2  0
 33 35  1  0
 29 36  1  0
 36 37  1  0
 37 38  1  0
 32 27  1  0
 35 13  1  0
M  END
$$$$
