
     RDKit          3D

 38 39  0  0  0  0  0  0  0  0999 V2000
  -12.6570  -34.1889  -10.6621 C   0  0  0  0  0  0  0  0  0  0  0  0
  -12.0977  -35.5883  -10.7912 C   0  0  0  0  0  0  0  0  0  0  0  0
  -12.7846  -36.3351  -11.9403 C   0  0  0  0  0  0  0  0  0  0  0  0
  -13.1319  -37.6979  -11.4096 C   0  0  0  0  0  0  0  0  0  0  0  0
  -14.1019  -37.6911  -10.3617 N   0  0  0  0  0  0  0  0  0  0  0  0
  -14.4824  -38.8217   -9.5983 C   0  0  0  0  0  0  0  0  0  0  0  0
  -14.3847  -39.9514  -10.1286 O   0  0  0  0  0  0  0  0  0  0  0  0
  -14.9872  -38.7294   -8.2095 C   0  0  2  0  0  0  0  0  0  0  0  0
  -13.8602  -38.9451   -7.2630 C   0  0  0  0  0  0  0  0  0  0  0  0
  -16.0914  -39.7844   -8.0524 C   0  0  0  0  0  0  0  0  0  0  0  0
  -17.2243  -39.5162   -8.9741 C   0  0  2  0  0  0  0  0  0  0  0  0
  -17.0836  -38.3647   -9.7379 O   0  0  0  0  0  0  0  0  0  0  0  0
  -18.5675  -39.3604   -8.2324 C   0  0  2  0  0  0  0  0  0  0  0  0
  -19.0805  -38.0250   -8.5915 C   0  0  0  0  0  0  0  0  0  0  0  0
  -20.4904  -37.6801   -8.4372 C   0  0  2  0  0  0  0  0  0  0  0  0
  -21.1611  -38.1243   -7.1533 C   0  0  0  0  0  0  0  0  0  0  0  0
  -21.4045  -37.9119   -9.6133 C   0  0  0  0  0  0  0  0  0  0  0  0
  -21.8821  -39.2733   -9.8763 C   0  0  0  0  0  0  0  0  0  0  0  0
  -23.3524  -39.4887   -9.4843 C   0  0  0  0  0  0  0  0  0  0  0  0
  -23.6899  -40.9675   -9.4934 C   0  0  0  0  0  0  0  0  0  0  0  0
  -24.1444  -41.4530   -8.1687 C   0  0  0  0  0  0  0  0  0  0  0  0
  -23.8614  -42.8503   -7.9109 N   0  0  0  0  0  0  0  0  0  0  0  0
  -24.5087  -43.8042   -8.7962 C   0  0  0  0  0  0  0  0  0  0  0  0
  -25.9332  -44.0684   -8.4799 C   0  0  0  0  0  0  0  0  0  0  0  0
  -23.0138  -43.2943   -6.8781 C   0  0  0  0  0  0  0  0  0  0  0  0
  -23.3634  -44.4898   -6.4684 O   0  0  0  0  0  0  0  0  0  0  0  0
  -21.8552  -42.6697   -6.2070 C   0  0  0  0  0  0  0  0  0  0  0  0
  -21.9472  -42.9159   -4.8127 C   0  0  0  0  0  0  0  0  0  0  0  0
  -21.0311  -42.4538   -3.8999 C   0  0  0  0  0  0  0  0  0  0  0  0
  -20.0086  -41.7297   -4.4363 C   0  0  0  0  0  0  0  0  0  0  0  0
  -19.8545  -41.4448   -5.8218 C   0  0  0  0  0  0  0  0  0  0  0  0
  -20.7999  -41.9319   -6.7002 C   0  0  0  0  0  0  0  0  0  0  0  0
  -18.6414  -40.6288   -6.0153 C   0  0  0  0  0  0  0  0  0  0  0  0
  -17.5896  -40.9634   -5.2695 O   0  0  0  0  0  0  0  0  0  0  0  0
  -18.2808  -39.5444   -6.8082 N   0  0  0  0  0  0  0  0  0  0  0  0
  -21.1574  -42.7187   -2.5473 O   0  0  0  0  0  0  0  0  0  0  0  0
  -21.2254  -44.0347   -2.0765 C   0  0  0  0  0  0  0  0  0  0  0  0
  -21.3971  -44.1805   -0.5975 C   0  0  0  0  0  0  0  0  0  0  0  0
  1  2  1  0
  2  3  1  0
  3  4  1  0
  4  5  1  0
  5  6  1  0
  6  7  2  0
  6  8  1  0
  8  9  1  1
  8 10  1  0
 10 11  1  0
 11 12  1  1
 11 13  1  0
 13 14  1  1
 14 15  1  0
 15 16  1  1
 15 17  1  0
 17 18  1  0
 18 19  1  0
 19 20  1  0
 20 21  1  0
 21 22  1  0
 22 23  1  0
 23 24  1  0
 22 25  1  0
 25 26  2  0
 25 27  1  0
 27 28  2  0
 28 29  1  0
 29 30  2  0
 30 31  1  0
 31 32  2  0
 31 33  1  0
 33 34  2  0
 33 35  1  0
 29 36  1  0
 36 37  1  0
 37 38  1  0
 32 27  1  0
 35 13  1  0
M  END
$$$$
