
     RDKit          3D

 38 39  0  0  0  0  0  0  0  0999 V2000
  -22.4253  -41.9609   -4.6519 C   0  0  0  0  0  0  0  0  0  0  0  0
  -22.1216  -42.8080   -5.8676 C   0  0  0  0  0  0  0  0  0  0  0  0
  -20.6108  -43.0319   -5.9998 C   0  0  0  0  0  0  0  0  0  0  0  0
  -19.9509  -41.9096   -5.2483 C   0  0  0  0  0  0  0  0  0  0  0  0
  -18.6939  -41.5001   -5.7877 N   0  0  0  0  0  0  0  0  0  0  0  0
  -18.1601  -40.1910   -5.7028 C   0  0  0  0  0  0  0  0  0  0  0  0
  -18.6907  -39.2918   -6.3934 O   0  0  0  0  0  0  0  0  0  0  0  0
  -17.0101  -39.8391   -4.8392 C   0  0  2  0  0  0  0  0  0  0  0  0
  -17.5133  -39.2604   -3.5645 C   0  0  0  0  0  0  0  0  0  0  0  0
  -16.1341  -38.8514   -5.6229 C   0  0  0  0  0  0  0  0  0  0  0  0
  -15.5853  -39.4794   -6.8514 C   0  0  2  0  0  0  0  0  0  0  0  0
  -14.2144  -39.3249   -7.0126 O   0  0  0  0  0  0  0  0  0  0  0  0
  -16.2205  -38.9163   -8.1390 C   0  0  2  0  0  0  0  0  0  0  0  0
  -15.9321  -37.4698   -8.1386 C   0  0  0  0  0  0  0  0  0  0  0  0
  -15.9943  -36.6769   -9.3626 C   0  0  2  0  0  0  0  0  0  0  0  0
  -17.1747  -36.9323  -10.2774 C   0  0  0  0  0  0  0  0  0  0  0  0
  -14.7293  -36.5266  -10.1688 C   0  0  0  0  0  0  0  0  0  0  0  0
  -14.3136  -37.6314  -11.0389 C   0  0  0  0  0  0  0  0  0  0  0  0
  -14.5596  -37.3566  -12.5308 C   0  0  0  0  0  0  0  0  0  0  0  0
  -14.3979  -38.6318  -13.3361 C   0  0  0  0  0  0  0  0  0  0  0  0
  -15.6338  -39.0011  -14.0664 C   0  0  0  0  0  0  0  0  0  0  0  0
  -15.7968  -40.4230  -14.2919 N   0  0  0  0  0  0  0  0  0  0  0  0
  -14.7828  -41.0561  -15.1188 C   0  0  0  0  0  0  0  0  0  0  0  0
  -14.8703  -40.7243  -16.5614 C   0  0  0  0  0  0  0  0  0  0  0  0
  -16.8571  -41.1787  -13.7564 C   0  0  0  0  0  0  0  0  0  0  0  0
  -17.1340  -42.2047  -14.5245 O   0  0  0  0  0  0  0  0  0  0  0  0
  -17.6744  -41.0171  -12.5362 C   0  0  0  0  0  0  0  0  0  0  0  0
  -19.0303  -41.2875  -12.8550 C   0  0  0  0  0  0  0  0  0  0  0  0
  -20.0532  -41.2088  -11.9421 C   0  0  0  0  0  0  0  0  0  0  0  0
  -19.6683  -40.8469  -10.6858 C   0  0  0  0  0  0  0  0  0  0  0  0
  -18.3296  -40.5615  -10.2969 C   0  0  0  0  0  0  0  0  0  0  0  0
  -17.3363  -40.6556  -11.2493 C   0  0  0  0  0  0  0  0  0  0  0  0
  -18.3091  -40.1949   -8.8686 C   0  0  0  0  0  0  0  0  0  0  0  0
  -19.1111  -40.9024   -8.0743 O   0  0  0  0  0  0  0  0  0  0  0  0
  -17.6434  -39.2577   -8.0855 N   0  0  0  0  0  0  0  0  0  0  0  0
  -21.3631  -41.4832  -12.2947 O   0  0  0  0  0  0  0  0  0  0  0  0
  -21.6670  -42.0696  -13.5283 C   0  0  0  0  0  0  0  0  0  0  0  0
  -23.0980  -42.4625  -13.7186 C   0  0  0  0  0  0  0  0  0  0  0  0
  1  2  1  0
  2  3  1  0
  3  4  1  0
  4  5  1  0
  5  6  1  0
  6  7  2  0
  6  8  1  0
  8  9  1  1
  8 10  1  0
 10 11  1  0
 11 12  1  6
 11 13  1  0
 13 14  1  1
 14 15  1  0
 15 16  1  6
 15 17  1  0
 17 18  1  0
 18 19  1  0
 19 20  1  0
 20 21  1  0
 21 22  1  0
 22 23  1  0
 23 24  1  0
 22 25  1  0
 25 26  2  0
 25 27  1  0
 27 28  2  0
 28 29  1  0
 29 30  2  0
 30 31  1  0
 31 32  2  0
 31 33  1  0
 33 34  2  0
 33 35  1  0
 29 36  1  0
 36 37  1  0
 37 38  1  0
 32 27  1  0
 35 13  1  0
M  END
$$$$
