
     RDKit          3D

 38 39  0  0  0  0  0  0  0  0999 V2000
  -10.8655  -43.5099  -13.3316 C   0  0  0  0  0  0  0  0  0  0  0  0
  -11.6015  -42.2023  -13.5215 C   0  0  0  0  0  0  0  0  0  0  0  0
  -11.9508  -41.5828  -12.1634 C   0  0  0  0  0  0  0  0  0  0  0  0
  -13.4034  -41.8857  -11.9229 C   0  0  0  0  0  0  0  0  0  0  0  0
  -14.1247  -40.8341  -11.2805 N   0  0  0  0  0  0  0  0  0  0  0  0
  -14.3058  -40.7086   -9.8815 C   0  0  0  0  0  0  0  0  0  0  0  0
  -14.2786  -41.7501   -9.1875 O   0  0  0  0  0  0  0  0  0  0  0  0
  -14.5241  -39.4094   -9.2058 C   0  0  2  0  0  0  0  0  0  0  0  0
  -13.2403  -38.9404   -8.6189 C   0  0  0  0  0  0  0  0  0  0  0  0
  -15.6090  -39.6236   -8.1408 C   0  0  0  0  0  0  0  0  0  0  0  0
  -16.9623  -39.3657   -8.6945 C   0  0  2  0  0  0  0  0  0  0  0  0
  -17.1557  -38.0716   -9.1604 O   0  0  0  0  0  0  0  0  0  0  0  0
  -18.0812  -39.6059   -7.6607 C   0  0  2  0  0  0  0  0  0  0  0  0
  -18.5200  -38.2701   -7.2150 C   0  0  0  0  0  0  0  0  0  0  0  0
  -19.8156  -38.0643   -6.5750 C   0  0  2  0  0  0  0  0  0  0  0  0
  -20.2236  -39.0796   -5.5270 C   0  0  0  0  0  0  0  0  0  0  0  0
  -20.9892  -37.7203   -7.4563 C   0  0  0  0  0  0  0  0  0  0  0  0
  -21.6526  -38.7976   -8.1978 C   0  0  0  0  0  0  0  0  0  0  0  0
  -23.0117  -39.1984   -7.6029 C   0  0  0  0  0  0  0  0  0  0  0  0
  -23.4947  -40.4980   -8.2183 C   0  0  0  0  0  0  0  0  0  0  0  0
  -23.6884  -41.5655   -7.2083 C   0  0  0  0  0  0  0  0  0  0  0  0
  -23.5017  -42.9110   -7.7122 N   0  0  0  0  0  0  0  0  0  0  0  0
  -24.4268  -43.3356   -8.7498 C   0  0  0  0  0  0  0  0  0  0  0  0
  -23.8017  -43.5653  -10.0747 C   0  0  0  0  0  0  0  0  0  0  0  0
  -22.4950  -43.7809   -7.2519 C   0  0  0  0  0  0  0  0  0  0  0  0
  -22.8662  -45.0323   -7.3763 O   0  0  0  0  0  0  0  0  0  0  0  0
  -21.1568  -43.5345   -6.6761 C   0  0  0  0  0  0  0  0  0  0  0  0
  -20.9588  -44.4192   -5.5846 C   0  0  0  0  0  0  0  0  0  0  0  0
  -19.8183  -44.4351   -4.8198 C   0  0  0  0  0  0  0  0  0  0  0  0
  -18.8726  -43.5258   -5.1891 C   0  0  0  0  0  0  0  0  0  0  0  0
  -19.0044  -42.6103   -6.2704 C   0  0  0  0  0  0  0  0  0  0  0  0
  -20.1681  -42.6334   -7.0105 C   0  0  0  0  0  0  0  0  0  0  0  0
  -17.7875  -41.7814   -6.3527 C   0  0  0  0  0  0  0  0  0  0  0  0
  -16.6358  -42.4146   -6.1354 O   0  0  0  0  0  0  0  0  0  0  0  0
  -17.5031  -40.4440   -6.6082 N   0  0  0  0  0  0  0  0  0  0  0  0
  -19.6648  -45.3168   -3.7641 O   0  0  0  0  0  0  0  0  0  0  0  0
  -20.6888  -45.5024   -2.8287 C   0  0  0  0  0  0  0  0  0  0  0  0
  -20.2389  -45.7836   -1.4298 C   0  0  0  0  0  0  0  0  0  0  0  0
  1  2  1  0
  2  3  1  0
  3  4  1  0
  4  5  1  0
  5  6  1  0
  6  7  2  0
  6  8  1  0
  8  9  1  1
  8 10  1  0
 10 11  1  0
 11 12  1  1
 11 13  1  0
 13 14  1  1
 14 15  1  0
 15 16  1  6
 15 17  1  0
 17 18  1  0
 18 19  1  0
 19 20  1  0
 20 21  1  0
 21 22  1  0
 22 23  1  0
 23 24  1  0
 22 25  1  0
 25 26  2  0
 25 27  1  0
 27 28  2  0
 28 29  1  0
 29 30  2  0
 30 31  1  0
 31 32  2  0
 31 33  1  0
 33 34  2  0
 33 35  1  0
 29 36  1  0
 36 37  1  0
 37 38  1  0
 32 27  1  0
 35 13  1  0
M  END
$$$$
