
     RDKit          3D

 38 39  0  0  0  0  0  0  0  0999 V2000
  -15.1268  -34.8189  -13.0971 C   0  0  0  0  0  0  0  0  0  0  0  0
  -14.1152  -35.8816  -12.7292 C   0  0  0  0  0  0  0  0  0  0  0  0
  -14.7861  -37.2583  -12.6618 C   0  0  0  0  0  0  0  0  0  0  0  0
  -13.6966  -38.2431  -12.3412 C   0  0  0  0  0  0  0  0  0  0  0  0
  -14.1164  -39.6078  -12.3497 N   0  0  0  0  0  0  0  0  0  0  0  0
  -14.5592  -40.3296  -11.2144 C   0  0  0  0  0  0  0  0  0  0  0  0
  -14.7564  -41.5596  -11.3376 O   0  0  0  0  0  0  0  0  0  0  0  0
  -14.7977  -39.6998   -9.8958 C   0  0  2  0  0  0  0  0  0  0  0  0
  -13.8033  -40.2177   -8.9182 C   0  0  0  0  0  0  0  0  0  0  0  0
  -16.2415  -40.0246   -9.4875 C   0  0  0  0  0  0  0  0  0  0  0  0
  -16.6732  -39.1925   -8.3360 C   0  0  2  0  0  0  0  0  0  0  0  0
  -15.6391  -38.7793   -7.5058 O   0  0  0  0  0  0  0  0  0  0  0  0
  -17.6744  -39.9238   -7.4188 C   0  0  2  0  0  0  0  0  0  0  0  0
  -18.0709  -38.9483   -6.3860 C   0  0  0  0  0  0  0  0  0  0  0  0
  -19.2923  -39.1155   -5.6044 C   0  0  2  0  0  0  0  0  0  0  0  0
  -19.5807  -40.5096   -5.0860 C   0  0  0  0  0  0  0  0  0  0  0  0
  -20.5550  -38.4790   -6.1270 C   0  0  0  0  0  0  0  0  0  0  0  0
  -21.2872  -39.1500   -7.2060 C   0  0  0  0  0  0  0  0  0  0  0  0
  -22.5731  -39.8435   -6.7290 C   0  0  0  0  0  0  0  0  0  0  0  0
  -23.1112  -40.7598   -7.8114 C   0  0  0  0  0  0  0  0  0  0  0  0
  -23.1903  -42.1727   -7.3699 C   0  0  0  0  0  0  0  0  0  0  0  0
  -23.0505  -43.1443   -8.4355 N   0  0  0  0  0  0  0  0  0  0  0  0
  -24.0782  -43.1137   -9.4629 C   0  0  0  0  0  0  0  0  0  0  0  0
  -23.6292  -42.5664  -10.7659 C   0  0  0  0  0  0  0  0  0  0  0  0
  -21.9955  -44.0739   -8.5066 C   0  0  0  0  0  0  0  0  0  0  0  0
  -22.3707  -45.1585   -9.1408 O   0  0  0  0  0  0  0  0  0  0  0  0
  -20.6052  -44.0379   -8.0081 C   0  0  0  0  0  0  0  0  0  0  0  0
  -20.2871  -45.3025   -7.4489 C   0  0  0  0  0  0  0  0  0  0  0  0
  -19.0717  -45.5954   -6.8806 C   0  0  0  0  0  0  0  0  0  0  0  0
  -18.1759  -44.5683   -6.8919 C   0  0  0  0  0  0  0  0  0  0  0  0
  -18.4272  -43.2771   -7.4344 C   0  0  0  0  0  0  0  0  0  0  0  0
  -19.6629  -43.0313   -7.9959 C   0  0  0  0  0  0  0  0  0  0  0  0
  -17.2308  -42.4347   -7.2510 C   0  0  0  0  0  0  0  0  0  0  0  0
  -16.0589  -43.0373   -7.4464 O   0  0  0  0  0  0  0  0  0  0  0  0
  -16.9828  -41.1095   -6.9087 N   0  0  0  0  0  0  0  0  0  0  0  0
  -18.8018  -46.8439   -6.3479 O   0  0  0  0  0  0  0  0  0  0  0  0
  -19.2275  -47.1819   -5.0585 C   0  0  0  0  0  0  0  0  0  0  0  0
  -18.9142  -48.5785   -4.6231 C   0  0  0  0  0  0  0  0  0  0  0  0
  1  2  1  0
  2  3  1  0
  3  4  1  0
  4  5  1  0
  5  6  1  0
  6  7  2  0
  6  8  1  0
  8  9  1  1
  8 10  1  0
 10 11  1  0
 11 12  1  1
 11 13  1  0
 13 14  1  1
 14 15  1  0
 15 16  1  6
 15 17  1  0
 17 18  1  0
 18 19  1  0
 19 20  1  0
 20 21  1  0
 21 22  1  0
 22 23  1  0
 23 24  1  0
 22 25  1  0
 25 26  2  0
 25 27  1  0
 27 28  2  0
 28 29  1  0
 29 30  2  0
 30 31  1  0
 31 32  2  0
 31 33  1  0
 33 34  2  0
 33 35  1  0
 29 36  1  0
 36 37  1  0
 37 38  1  0
 32 27  1  0
 35 13  1  0
M  END
$$$$
