
     RDKit          3D

 38 39  0  0  0  0  0  0  0  0999 V2000
  -10.6380  -39.3241  -11.5297 C   0  0  0  0  0  0  0  0  0  0  0  0
  -11.7309  -38.3202  -11.8223 C   0  0  0  0  0  0  0  0  0  0  0  0
  -12.6524  -38.8406  -12.9313 C   0  0  0  0  0  0  0  0  0  0  0  0
  -13.5350  -39.8773  -12.2942 C   0  0  0  0  0  0  0  0  0  0  0  0
  -14.4249  -39.3631  -11.3030 N   0  0  0  0  0  0  0  0  0  0  0  0
  -14.6293  -39.9293  -10.0211 C   0  0  0  0  0  0  0  0  0  0  0  0
  -15.1188  -41.0796   -9.9556 O   0  0  0  0  0  0  0  0  0  0  0  0
  -14.2922  -39.2273   -8.7618 C   0  0  2  0  0  0  0  0  0  0  0  0
  -13.0782  -39.8464   -8.1655 C   0  0  0  0  0  0  0  0  0  0  0  0
  -15.5141  -39.3313   -7.8381 C   0  0  0  0  0  0  0  0  0  0  0  0
  -16.7743  -39.0972   -8.5876 C   0  0  2  0  0  0  0  0  0  0  0  0
  -16.8921  -37.8241   -9.1304 O   0  0  0  0  0  0  0  0  0  0  0  0
  -18.0291  -39.2928   -7.7126 C   0  0  2  0  0  0  0  0  0  0  0  0
  -18.4712  -37.9406   -7.3233 C   0  0  0  0  0  0  0  0  0  0  0  0
  -19.8314  -37.6840   -6.8601 C   0  0  2  0  0  0  0  0  0  0  0  0
  -20.4141  -38.6819   -5.8802 C   0  0  0  0  0  0  0  0  0  0  0  0
  -20.8633  -37.2951   -7.8880 C   0  0  0  0  0  0  0  0  0  0  0  0
  -21.4634  -38.3463   -8.7159 C   0  0  0  0  0  0  0  0  0  0  0  0
  -22.9041  -38.6935   -8.3086 C   0  0  0  0  0  0  0  0  0  0  0  0
  -23.3509  -39.9736   -8.9885 C   0  0  0  0  0  0  0  0  0  0  0  0
  -23.7184  -41.0321   -8.0179 C   0  0  0  0  0  0  0  0  0  0  0  0
  -23.5186  -42.3842   -8.4986 N   0  0  0  0  0  0  0  0  0  0  0  0
  -24.3132  -42.7732   -9.6518 C   0  0  0  0  0  0  0  0  0  0  0  0
  -25.2412  -41.7252  -10.1411 C   0  0  0  0  0  0  0  0  0  0  0  0
  -22.6164  -43.2923   -7.9125 C   0  0  0  0  0  0  0  0  0  0  0  0
  -23.0159  -44.5284   -8.0908 O   0  0  0  0  0  0  0  0  0  0  0  0
  -21.3581  -43.0978   -7.1629 C   0  0  0  0  0  0  0  0  0  0  0  0
  -21.3413  -43.9888   -6.0588 C   0  0  0  0  0  0  0  0  0  0  0  0
  -20.3141  -44.0486   -5.1493 C   0  0  0  0  0  0  0  0  0  0  0  0
  -19.2932  -43.1771   -5.3857 C   0  0  0  0  0  0  0  0  0  0  0  0
  -19.2446  -42.2580   -6.4708 C   0  0  0  0  0  0  0  0  0  0  0  0
  -20.2996  -42.2362   -7.3590 C   0  0  0  0  0  0  0  0  0  0  0  0
  -17.9964  -41.4771   -6.3870 C   0  0  0  0  0  0  0  0  0  0  0  0
  -16.9092  -42.1546   -6.0214 O   0  0  0  0  0  0  0  0  0  0  0  0
  -17.6289  -40.1520   -6.5964 N   0  0  0  0  0  0  0  0  0  0  0  0
  -20.3366  -44.9349   -4.0865 O   0  0  0  0  0  0  0  0  0  0  0  0
  -21.5194  -45.1789   -3.3799 C   0  0  0  0  0  0  0  0  0  0  0  0
  -21.5077  -46.3934   -2.5062 C   0  0  0  0  0  0  0  0  0  0  0  0
  1  2  1  0
  2  3  1  0
  3  4  1  0
  4  5  1  0
  5  6  1  0
  6  7  2  0
  6  8  1  0
  8  9  1  1
  8 10  1  0
 10 11  1  0
 11 12  1  1
 11 13  1  0
 13 14  1  1
 14 15  1  0
 15 16  1  6
 15 17  1  0
 17 18  1  0
 18 19  1  0
 19 20  1  0
 20 21  1  0
 21 22  1  0
 22 23  1  0
 23 24  1  0
 22 25  1  0
 25 26  2  0
 25 27  1  0
 27 28  2  0
 28 29  1  0
 29 30  2  0
 30 31  1  0
 31 32  2  0
 31 33  1  0
 33 34  2  0
 33 35  1  0
 29 36  1  0
 36 37  1  0
 37 38  1  0
 32 27  1  0
 35 13  1  0
M  END
$$$$
