
     RDKit          3D

 38 39  0  0  0  0  0  0  0  0999 V2000
  -11.3145  -42.6237   -8.3710 C   0  0  0  0  0  0  0  0  0  0  0  0
  -12.7468  -42.6886   -8.8529 C   0  0  0  0  0  0  0  0  0  0  0  0
  -12.7918  -42.9432  -10.3639 C   0  0  0  0  0  0  0  0  0  0  0  0
  -12.8151  -41.5904  -11.0189 C   0  0  0  0  0  0  0  0  0  0  0  0
  -14.1022  -40.9728  -11.0467 N   0  0  0  0  0  0  0  0  0  0  0  0
  -14.4317  -39.7505  -10.4117 C   0  0  0  0  0  0  0  0  0  0  0  0
  -13.7566  -39.4021   -9.4168 O   0  0  0  0  0  0  0  0  0  0  0  0
  -15.5314  -38.8705  -10.8683 C   0  0  2  0  0  0  0  0  0  0  0  0
  -14.9604  -37.7267  -11.6287 C   0  0  0  0  0  0  0  0  0  0  0  0
  -16.3020  -38.4155   -9.6208 C   0  0  0  0  0  0  0  0  0  0  0  0
  -17.7602  -38.6475   -9.7770 C   0  0  2  0  0  0  0  0  0  0  0  0
  -18.4580  -37.5754  -10.3183 O   0  0  0  0  0  0  0  0  0  0  0  0
  -18.4570  -38.9621   -8.4376 C   0  0  2  0  0  0  0  0  0  0  0  0
  -18.9041  -37.6656   -7.8947 C   0  0  0  0  0  0  0  0  0  0  0  0
  -19.9488  -37.5809   -6.8788 C   0  0  2  0  0  0  0  0  0  0  0  0
  -19.8714  -38.5784   -5.7411 C   0  0  0  0  0  0  0  0  0  0  0  0
  -21.3739  -37.4280   -7.3458 C   0  0  0  0  0  0  0  0  0  0  0  0
  -22.0899  -38.6158   -7.8223 C   0  0  0  0  0  0  0  0  0  0  0  0
  -23.1294  -39.1425   -6.8203 C   0  0  0  0  0  0  0  0  0  0  0  0
  -23.6071  -40.5221   -7.2316 C   0  0  0  0  0  0  0  0  0  0  0  0
  -23.3333  -41.5480   -6.1972 C   0  0  0  0  0  0  0  0  0  0  0  0
  -23.1403  -42.8874   -6.7151 N   0  0  0  0  0  0  0  0  0  0  0  0
  -24.2804  -43.4755   -7.3983 C   0  0  0  0  0  0  0  0  0  0  0  0
  -24.3086  -43.2404   -8.8622 C   0  0  0  0  0  0  0  0  0  0  0  0
  -21.9356  -43.6045   -6.5865 C   0  0  0  0  0  0  0  0  0  0  0  0
  -22.1606  -44.8962   -6.5686 O   0  0  0  0  0  0  0  0  0  0  0  0
  -20.5285  -43.1691   -6.4699 C   0  0  0  0  0  0  0  0  0  0  0  0
  -19.8846  -43.9626   -5.4856 C   0  0  0  0  0  0  0  0  0  0  0  0
  -18.5699  -43.8005   -5.1231 C   0  0  0  0  0  0  0  0  0  0  0  0
  -17.9149  -42.8067   -5.7870 C   0  0  0  0  0  0  0  0  0  0  0  0
  -18.4974  -41.9742   -6.7832 C   0  0  0  0  0  0  0  0  0  0  0  0
  -19.8211  -42.1764   -7.1143 C   0  0  0  0  0  0  0  0  0  0  0  0
  -17.4868  -41.0120   -7.2601 C   0  0  0  0  0  0  0  0  0  0  0  0
  -16.2528  -41.4906   -7.4114 O   0  0  0  0  0  0  0  0  0  0  0  0
  -17.4738  -39.6662   -7.6118 N   0  0  0  0  0  0  0  0  0  0  0  0
  -17.9795  -44.5984   -4.1586 O   0  0  0  0  0  0  0  0  0  0  0  0
  -18.5948  -44.7999   -2.9181 C   0  0  0  0  0  0  0  0  0  0  0  0
  -17.7029  -45.3181   -1.8344 C   0  0  0  0  0  0  0  0  0  0  0  0
  1  2  1  0
  2  3  1  0
  3  4  1  0
  4  5  1  0
  5  6  1  0
  6  7  2  0
  6  8  1  0
  8  9  1  1
  8 10  1  0
 10 11  1  0
 11 12  1  1
 11 13  1  0
 13 14  1  1
 14 15  1  0
 15 16  1  6
 15 17  1  0
 17 18  1  0
 18 19  1  0
 19 20  1  0
 20 21  1  0
 21 22  1  0
 22 23  1  0
 23 24  1  0
 22 25  1  0
 25 26  2  0
 25 27  1  0
 27 28  2  0
 28 29  1  0
 29 30  2  0
 30 31  1  0
 31 32  2  0
 31 33  1  0
 33 34  2  0
 33 35  1  0
 29 36  1  0
 36 37  1  0
 37 38  1  0
 32 27  1  0
 35 13  1  0
M  END
$$$$
