
     RDKit          3D

 38 39  0  0  0  0  0  0  0  0999 V2000
  -12.9600  -45.0555  -11.4033 C   0  0  0  0  0  0  0  0  0  0  0  0
  -12.1992  -44.4793  -10.2299 C   0  0  0  0  0  0  0  0  0  0  0  0
  -12.8586  -43.1812   -9.7501 C   0  0  0  0  0  0  0  0  0  0  0  0
  -13.0389  -42.3235  -10.9714 C   0  0  0  0  0  0  0  0  0  0  0  0
  -13.6878  -41.0761  -10.7231 N   0  0  0  0  0  0  0  0  0  0  0  0
  -14.5740  -40.8199   -9.6485 C   0  0  0  0  0  0  0  0  0  0  0  0
  -15.1545  -41.7938   -9.1179 O   0  0  0  0  0  0  0  0  0  0  0  0
  -14.8436  -39.4609   -9.1265 C   0  0  2  0  0  0  0  0  0  0  0  0
  -13.6050  -38.9198   -8.5054 C   0  0  0  0  0  0  0  0  0  0  0  0
  -15.9981  -39.5770   -8.1211 C   0  0  0  0  0  0  0  0  0  0  0  0
  -16.9300  -38.4271   -8.2397 C   0  0  2  0  0  0  0  0  0  0  0  0
  -16.4819  -37.2595   -7.6356 O   0  0  0  0  0  0  0  0  0  0  0  0
  -18.3094  -38.7154   -7.6131 C   0  0  2  0  0  0  0  0  0  0  0  0
  -18.9272  -37.4000   -7.3612 C   0  0  0  0  0  0  0  0  0  0  0  0
  -20.3675  -37.2543   -7.1741 C   0  0  2  0  0  0  0  0  0  0  0  0
  -21.0441  -38.2814   -6.2894 C   0  0  0  0  0  0  0  0  0  0  0  0
  -21.2107  -36.9748   -8.3920 C   0  0  0  0  0  0  0  0  0  0  0  0
  -21.5524  -38.0887   -9.2826 C   0  0  0  0  0  0  0  0  0  0  0  0
  -23.0111  -38.5523   -9.1450 C   0  0  0  0  0  0  0  0  0  0  0  0
  -23.2126  -39.8783   -9.8535 C   0  0  0  0  0  0  0  0  0  0  0  0
  -23.6720  -40.9472   -8.9350 C   0  0  0  0  0  0  0  0  0  0  0  0
  -23.2736  -42.2852   -9.3225 N   0  0  0  0  0  0  0  0  0  0  0  0
  -23.7971  -42.7622  -10.5918 C   0  0  0  0  0  0  0  0  0  0  0  0
  -25.2774  -42.7869  -10.6763 C   0  0  0  0  0  0  0  0  0  0  0  0
  -22.4297  -43.1010   -8.5450 C   0  0  0  0  0  0  0  0  0  0  0  0
  -22.6850  -44.3701   -8.7538 O   0  0  0  0  0  0  0  0  0  0  0  0
  -21.3592  -42.7848   -7.5770 C   0  0  0  0  0  0  0  0  0  0  0  0
  -21.4823  -43.6511   -6.4601 C   0  0  0  0  0  0  0  0  0  0  0  0
  -20.6478  -43.6053   -5.3704 C   0  0  0  0  0  0  0  0  0  0  0  0
  -19.6753  -42.6529   -5.4379 C   0  0  0  0  0  0  0  0  0  0  0  0
  -19.4942  -41.7524   -6.5247 C   0  0  0  0  0  0  0  0  0  0  0  0
  -20.3569  -41.8381   -7.5975 C   0  0  0  0  0  0  0  0  0  0  0  0
  -18.3536  -40.8648   -6.2318 C   0  0  0  0  0  0  0  0  0  0  0  0
  -17.3053  -41.4387   -5.6433 O   0  0  0  0  0  0  0  0  0  0  0  0
  -18.0624  -39.5167   -6.4126 N   0  0  0  0  0  0  0  0  0  0  0  0
  -20.8017  -44.4712   -4.3017 O   0  0  0  0  0  0  0  0  0  0  0  0
  -19.7030  -44.8563   -3.5254 C   0  0  0  0  0  0  0  0  0  0  0  0
  -20.0345  -45.4789   -2.2060 C   0  0  0  0  0  0  0  0  0  0  0  0
  1  2  1  0
  2  3  1  0
  3  4  1  0
  4  5  1  0
  5  6  1  0
  6  7  2  0
  6  8  1  0
  8  9  1  1
  8 10  1  0
 10 11  1  0
 11 12  1  1
 11 13  1  0
 13 14  1  1
 14 15  1  0
 15 16  1  6
 15 17  1  0
 17 18  1  0
 18 19  1  0
 19 20  1  0
 20 21  1  0
 21 22  1  0
 22 23  1  0
 23 24  1  0
 22 25  1  0
 25 26  2  0
 25 27  1  0
 27 28  2  0
 28 29  1  0
 29 30  2  0
 30 31  1  0
 31 32  2  0
 31 33  1  0
 33 34  2  0
 33 35  1  0
 29 36  1  0
 36 37  1  0
 37 38  1  0
 32 27  1  0
 35 13  1  0
M  END
$$$$
