
     RDKit          3D

 38 39  0  0  0  0  0  0  0  0999 V2000
  -17.2026  -33.7065  -11.5699 C   0  0  0  0  0  0  0  0  0  0  0  0
  -17.1095  -35.0838  -10.9517 C   0  0  0  0  0  0  0  0  0  0  0  0
  -16.0168  -35.9076  -11.6428 C   0  0  0  0  0  0  0  0  0  0  0  0
  -14.9987  -36.2294  -10.5847 C   0  0  0  0  0  0  0  0  0  0  0  0
  -15.3034  -37.3886   -9.8088 N   0  0  0  0  0  0  0  0  0  0  0  0
  -14.6573  -38.6429   -9.9322 C   0  0  0  0  0  0  0  0  0  0  0  0
  -14.7355  -39.2411  -11.0290 O   0  0  0  0  0  0  0  0  0  0  0  0
  -13.8975  -39.2752   -8.8299 C   0  0  2  0  0  0  0  0  0  0  0  0
  -12.4696  -38.8686   -8.9227 C   0  0  0  0  0  0  0  0  0  0  0  0
  -14.0815  -40.7939   -8.9589 C   0  0  0  0  0  0  0  0  0  0  0  0
  -15.0638  -41.3011   -7.9676 C   0  0  2  0  0  0  0  0  0  0  0  0
  -14.6096  -42.3675   -7.2023 O   0  0  0  0  0  0  0  0  0  0  0  0
  -16.3707  -41.7892   -8.6249 C   0  0  2  0  0  0  0  0  0  0  0  0
  -15.9998  -42.2597   -9.9727 C   0  0  0  0  0  0  0  0  0  0  0  0
  -16.8584  -43.1651  -10.7302 C   0  0  2  0  0  0  0  0  0  0  0  0
  -18.3428  -42.8620  -10.7176 C   0  0  0  0  0  0  0  0  0  0  0  0
  -16.6248  -44.6468  -10.5803 C   0  0  0  0  0  0  0  0  0  0  0  0
  -17.1489  -45.3254   -9.3906 C   0  0  0  0  0  0  0  0  0  0  0  0
  -18.3936  -46.1802   -9.6766 C   0  0  0  0  0  0  0  0  0  0  0  0
  -19.0554  -46.6000   -8.3779 C   0  0  0  0  0  0  0  0  0  0  0  0
  -20.4518  -46.1142   -8.2708 C   0  0  0  0  0  0  0  0  0  0  0  0
  -20.9073  -45.8881   -6.9141 N   0  0  0  0  0  0  0  0  0  0  0  0
  -20.9513  -47.0593   -6.0545 C   0  0  0  0  0  0  0  0  0  0  0  0
  -21.6959  -48.2101   -6.6205 C   0  0  0  0  0  0  0  0  0  0  0  0
  -21.2884  -44.6252   -6.4222 C   0  0  0  0  0  0  0  0  0  0  0  0
  -22.1749  -44.7455   -5.4635 O   0  0  0  0  0  0  0  0  0  0  0  0
  -20.8815  -43.2529   -6.7883 C   0  0  0  0  0  0  0  0  0  0  0  0
  -22.0340  -42.4257   -6.8138 C   0  0  0  0  0  0  0  0  0  0  0  0
  -22.0016  -41.0913   -7.1366 C   0  0  0  0  0  0  0  0  0  0  0  0
  -20.7629  -40.6080   -7.4357 C   0  0  0  0  0  0  0  0  0  0  0  0
  -19.5670  -41.3790   -7.4302 C   0  0  0  0  0  0  0  0  0  0  0  0
  -19.6501  -42.7151   -7.0978 C   0  0  0  0  0  0  0  0  0  0  0  0
  -18.4347  -40.5172   -7.8177 C   0  0  0  0  0  0  0  0  0  0  0  0
  -18.4480  -39.2806   -7.3224 O   0  0  0  0  0  0  0  0  0  0  0  0
  -17.2962  -40.6546   -8.6049 N   0  0  0  0  0  0  0  0  0  0  0  0
  -23.1503  -40.3193   -7.1474 O   0  0  0  0  0  0  0  0  0  0  0  0
  -23.2448  -39.1614   -6.3675 C   0  0  0  0  0  0  0  0  0  0  0  0
  -24.5386  -38.4177   -6.4745 C   0  0  0  0  0  0  0  0  0  0  0  0
  1  2  1  0
  2  3  1  0
  3  4  1  0
  4  5  1  0
  5  6  1  0
  6  7  2  0
  6  8  1  0
  8  9  1  6
  8 10  1  0
 10 11  1  0
 11 12  1  6
 11 13  1  0
 13 14  1  6
 14 15  1  0
 15 16  1  1
 15 17  1  0
 17 18  1  0
 18 19  1  0
 19 20  1  0
 20 21  1  0
 21 22  1  0
 22 23  1  0
 23 24  1  0
 22 25  1  0
 25 26  2  0
 25 27  1  0
 27 28  2  0
 28 29  1  0
 29 30  2  0
 30 31  1  0
 31 32  2  0
 31 33  1  0
 33 34  2  0
 33 35  1  0
 29 36  1  0
 36 37  1  0
 37 38  1  0
 32 27  1  0
 35 13  1  0
M  END
$$$$
