
     RDKit          3D

 38 39  0  0  0  0  0  0  0  0999 V2000
  -11.1338  -41.0450  -13.6902 C   0  0  0  0  0  0  0  0  0  0  0  0
  -12.3995  -40.6178  -12.9807 C   0  0  0  0  0  0  0  0  0  0  0  0
  -13.1567  -41.8421  -12.4539 C   0  0  0  0  0  0  0  0  0  0  0  0
  -14.4553  -41.3278  -11.8982 C   0  0  0  0  0  0  0  0  0  0  0  0
  -14.3194  -40.5563  -10.7044 N   0  0  0  0  0  0  0  0  0  0  0  0
  -14.3446  -41.0814   -9.3893 C   0  0  0  0  0  0  0  0  0  0  0  0
  -14.8298  -42.2227   -9.2192 O   0  0  0  0  0  0  0  0  0  0  0  0
  -13.8261  -40.3467   -8.2131 C   0  0  2  0  0  0  0  0  0  0  0  0
  -12.9019  -41.2295   -7.4521 C   0  0  0  0  0  0  0  0  0  0  0  0
  -15.0365  -39.9090   -7.3762 C   0  0  0  0  0  0  0  0  0  0  0  0
  -16.1783  -39.5256   -8.2445 C   0  0  2  0  0  0  0  0  0  0  0  0
  -16.0897  -38.2466   -8.7790 O   0  0  0  0  0  0  0  0  0  0  0  0
  -17.5292  -39.5722   -7.5019 C   0  0  2  0  0  0  0  0  0  0  0  0
  -17.9133  -38.1683   -7.2631 C   0  0  0  0  0  0  0  0  0  0  0  0
  -19.2933  -37.7913   -6.9732 C   0  0  2  0  0  0  0  0  0  0  0  0
  -20.0453  -38.6695   -5.9940 C   0  0  0  0  0  0  0  0  0  0  0  0
  -20.1808  -37.4221   -8.1345 C   0  0  0  0  0  0  0  0  0  0  0  0
  -20.7629  -38.4966   -8.9452 C   0  0  0  0  0  0  0  0  0  0  0  0
  -22.2594  -38.7197   -8.6758 C   0  0  0  0  0  0  0  0  0  0  0  0
  -22.7212  -40.0197   -9.3062 C   0  0  0  0  0  0  0  0  0  0  0  0
  -23.2629  -40.9723   -8.3081 C   0  0  0  0  0  0  0  0  0  0  0  0
  -23.1094  -42.3683   -8.6642 N   0  0  0  0  0  0  0  0  0  0  0  0
  -23.8033  -42.7978   -9.8669 C   0  0  0  0  0  0  0  0  0  0  0  0
  -25.2649  -42.9849   -9.7003 C   0  0  0  0  0  0  0  0  0  0  0  0
  -22.3405  -43.2812   -7.9175 C   0  0  0  0  0  0  0  0  0  0  0  0
  -22.8053  -44.5003   -8.0487 O   0  0  0  0  0  0  0  0  0  0  0  0
  -21.1579  -43.1063   -7.0493 C   0  0  0  0  0  0  0  0  0  0  0  0
  -21.3207  -43.9056   -5.8884 C   0  0  0  0  0  0  0  0  0  0  0  0
  -20.4021  -43.9565   -4.8689 C   0  0  0  0  0  0  0  0  0  0  0  0
  -19.3030  -43.1720   -5.0534 C   0  0  0  0  0  0  0  0  0  0  0  0
  -19.0753  -42.3472   -6.1903 C   0  0  0  0  0  0  0  0  0  0  0  0
  -20.0264  -42.3307   -7.1891 C   0  0  0  0  0  0  0  0  0  0  0  0
  -17.7909  -41.6415   -6.0258 C   0  0  0  0  0  0  0  0  0  0  0  0
  -16.7990  -42.3541   -5.4939 O   0  0  0  0  0  0  0  0  0  0  0  0
  -17.3108  -40.3628   -6.2889 N   0  0  0  0  0  0  0  0  0  0  0  0
  -20.5992  -44.7520   -3.7536 O   0  0  0  0  0  0  0  0  0  0  0  0
  -21.5026  -44.3756   -2.7535 C   0  0  0  0  0  0  0  0  0  0  0  0
  -20.9680  -44.4127   -1.3567 C   0  0  0  0  0  0  0  0  0  0  0  0
  1  2  1  0
  2  3  1  0
  3  4  1  0
  4  5  1  0
  5  6  1  0
  6  7  2  0
  6  8  1  0
  8  9  1  1
  8 10  1  0
 10 11  1  0
 11 12  1  1
 11 13  1  0
 13 14  1  1
 14 15  1  0
 15 16  1  6
 15 17  1  0
 17 18  1  0
 18 19  1  0
 19 20  1  0
 20 21  1  0
 21 22  1  0
 22 23  1  0
 23 24  1  0
 22 25  1  0
 25 26  2  0
 25 27  1  0
 27 28  2  0
 28 29  1  0
 29 30  2  0
 30 31  1  0
 31 32  2  0
 31 33  1  0
 33 34  2  0
 33 35  1  0
 29 36  1  0
 36 37  1  0
 37 38  1  0
 32 27  1  0
 35 13  1  0
M  END
$$$$
