
     RDKit          3D

 38 39  0  0  0  0  0  0  0  0999 V2000
  -11.5142  -36.7916  -13.6546 C   0  0  0  0  0  0  0  0  0  0  0  0
  -12.4740  -36.5236  -12.5167 C   0  0  0  0  0  0  0  0  0  0  0  0
  -13.9182  -36.7773  -12.9639 C   0  0  0  0  0  0  0  0  0  0  0  0
  -14.1702  -38.2455  -12.7626 C   0  0  0  0  0  0  0  0  0  0  0  0
  -14.0786  -38.6769  -11.4045 N   0  0  0  0  0  0  0  0  0  0  0  0
  -14.7496  -39.7993  -10.8606 C   0  0  0  0  0  0  0  0  0  0  0  0
  -15.2242  -40.6438  -11.6534 O   0  0  0  0  0  0  0  0  0  0  0  0
  -14.9141  -40.0187   -9.4057 C   0  0  2  0  0  0  0  0  0  0  0  0
  -13.9791  -41.0873   -8.9623 C   0  0  0  0  0  0  0  0  0  0  0  0
  -16.3835  -40.3907   -9.1618 C   0  0  0  0  0  0  0  0  0  0  0  0
  -17.0238  -39.4494   -8.2085 C   0  0  2  0  0  0  0  0  0  0  0  0
  -16.1348  -38.7789   -7.3782 O   0  0  0  0  0  0  0  0  0  0  0  0
  -18.0240  -40.1495   -7.2661 C   0  0  2  0  0  0  0  0  0  0  0  0
  -18.3779  -39.1564   -6.2346 C   0  0  0  0  0  0  0  0  0  0  0  0
  -19.5877  -39.2884   -5.4285 C   0  0  2  0  0  0  0  0  0  0  0  0
  -19.8984  -40.6710   -4.8925 C   0  0  0  0  0  0  0  0  0  0  0  0
  -20.8450  -38.6270   -5.9327 C   0  0  0  0  0  0  0  0  0  0  0  0
  -21.6131  -39.2897   -6.9917 C   0  0  0  0  0  0  0  0  0  0  0  0
  -22.9054  -39.9489   -6.4843 C   0  0  0  0  0  0  0  0  0  0  0  0
  -23.4853  -40.8614   -7.5483 C   0  0  0  0  0  0  0  0  0  0  0  0
  -23.5887  -42.2682   -7.0929 C   0  0  0  0  0  0  0  0  0  0  0  0
  -23.4920  -43.2517   -8.1525 N   0  0  0  0  0  0  0  0  0  0  0  0
  -24.5381  -43.2057   -9.1604 C   0  0  0  0  0  0  0  0  0  0  0  0
  -25.8948  -42.9340   -8.6269 C   0  0  0  0  0  0  0  0  0  0  0  0
  -22.4604  -44.2063   -8.2354 C   0  0  0  0  0  0  0  0  0  0  0  0
  -22.8727  -45.2871   -8.8528 O   0  0  0  0  0  0  0  0  0  0  0  0
  -21.0603  -44.1987   -7.7637 C   0  0  0  0  0  0  0  0  0  0  0  0
  -20.7610  -45.4657   -7.1995 C   0  0  0  0  0  0  0  0  0  0  0  0
  -19.5421  -45.7822   -6.6519 C   0  0  0  0  0  0  0  0  0  0  0  0
  -18.6230  -44.7765   -6.6891 C   0  0  0  0  0  0  0  0  0  0  0  0
  -18.8547  -43.4843   -7.2381 C   0  0  0  0  0  0  0  0  0  0  0  0
  -20.0948  -43.2143   -7.7781 C   0  0  0  0  0  0  0  0  0  0  0  0
  -17.6357  -42.6686   -7.0847 C   0  0  0  0  0  0  0  0  0  0  0  0
  -16.4820  -43.3001   -7.2970 O   0  0  0  0  0  0  0  0  0  0  0  0
  -17.3505  -41.3468   -6.7589 N   0  0  0  0  0  0  0  0  0  0  0  0
  -19.2911  -47.0322   -6.1133 O   0  0  0  0  0  0  0  0  0  0  0  0
  -20.3245  -47.9591   -5.9376 C   0  0  0  0  0  0  0  0  0  0  0  0
  -19.9421  -49.2228   -5.2338 C   0  0  0  0  0  0  0  0  0  0  0  0
  1  2  1  0
  2  3  1  0
  3  4  1  0
  4  5  1  0
  5  6  1  0
  6  7  2  0
  6  8  1  0
  8  9  1  6
  8 10  1  0
 10 11  1  0
 11 12  1  1
 11 13  1  0
 13 14  1  1
 14 15  1  0
 15 16  1  6
 15 17  1  0
 17 18  1  0
 18 19  1  0
 19 20  1  0
 20 21  1  0
 21 22  1  0
 22 23  1  0
 23 24  1  0
 22 25  1  0
 25 26  2  0
 25 27  1  0
 27 28  2  0
 28 29  1  0
 29 30  2  0
 30 31  1  0
 31 32  2  0
 31 33  1  0
 33 34  2  0
 33 35  1  0
 29 36  1  0
 36 37  1  0
 37 38  1  0
 32 27  1  0
 35 13  1  0
M  END
$$$$
