
     RDKit          3D

 38 39  0  0  0  0  0  0  0  0999 V2000
  -11.4793  -36.2921  -13.8872 C   0  0  0  0  0  0  0  0  0  0  0  0
  -12.0277  -37.3707  -12.9797 C   0  0  0  0  0  0  0  0  0  0  0  0
  -13.5540  -37.2642  -12.8838 C   0  0  0  0  0  0  0  0  0  0  0  0
  -14.0578  -38.6551  -12.6168 C   0  0  0  0  0  0  0  0  0  0  0  0
  -14.2070  -38.9705  -11.2322 N   0  0  0  0  0  0  0  0  0  0  0  0
  -14.8593  -40.1212  -10.7259 C   0  0  0  0  0  0  0  0  0  0  0  0
  -15.4931  -40.8415  -11.5299 O   0  0  0  0  0  0  0  0  0  0  0  0
  -14.8259  -40.5092   -9.2975 C   0  0  2  0  0  0  0  0  0  0  0  0
  -14.1368  -41.8205   -9.1618 C   0  0  0  0  0  0  0  0  0  0  0  0
  -16.2783  -40.5591   -8.8022 C   0  0  0  0  0  0  0  0  0  0  0  0
  -16.8325  -39.1927   -8.6278 C   0  0  2  0  0  0  0  0  0  0  0  0
  -15.9554  -38.2867   -8.0455 O   0  0  0  0  0  0  0  0  0  0  0  0
  -18.0957  -39.1741   -7.7432 C   0  0  2  0  0  0  0  0  0  0  0  0
  -18.6195  -37.7968   -7.8069 C   0  0  0  0  0  0  0  0  0  0  0  0
  -20.0024  -37.4872   -7.4573 C   0  0  2  0  0  0  0  0  0  0  0  0
  -20.5539  -38.1550   -6.2141 C   0  0  0  0  0  0  0  0  0  0  0  0
  -21.0287  -37.5061   -8.5614 C   0  0  0  0  0  0  0  0  0  0  0  0
  -21.5509  -38.7991   -9.0152 C   0  0  0  0  0  0  0  0  0  0  0  0
  -22.9801  -39.0834   -8.5268 C   0  0  0  0  0  0  0  0  0  0  0  0
  -23.3404  -40.5372   -8.7666 C   0  0  0  0  0  0  0  0  0  0  0  0
  -23.6735  -41.2526   -7.5118 C   0  0  0  0  0  0  0  0  0  0  0  0
  -23.3893  -42.6731   -7.5361 N   0  0  0  0  0  0  0  0  0  0  0  0
  -24.1337  -43.4541   -8.5101 C   0  0  0  0  0  0  0  0  0  0  0  0
  -23.3944  -43.7406   -9.7632 C   0  0  0  0  0  0  0  0  0  0  0  0
  -22.4538  -43.2935   -6.6863 C   0  0  0  0  0  0  0  0  0  0  0  0
  -22.7815  -44.5435   -6.4643 O   0  0  0  0  0  0  0  0  0  0  0  0
  -21.2264  -42.7974   -6.0304 C   0  0  0  0  0  0  0  0  0  0  0  0
  -21.1881  -43.2893   -4.7001 C   0  0  0  0  0  0  0  0  0  0  0  0
  -20.1815  -42.9967   -3.8130 C   0  0  0  0  0  0  0  0  0  0  0  0
  -19.2038  -42.1867   -4.3085 C   0  0  0  0  0  0  0  0  0  0  0  0
  -19.1787  -41.6582   -5.6294 C   0  0  0  0  0  0  0  0  0  0  0  0
  -20.2116  -41.9817   -6.4844 C   0  0  0  0  0  0  0  0  0  0  0  0
  -17.9769  -40.8190   -5.7913 C   0  0  0  0  0  0  0  0  0  0  0  0
  -16.8639  -41.2801   -5.2229 O   0  0  0  0  0  0  0  0  0  0  0  0
  -17.6768  -39.6096   -6.4094 N   0  0  0  0  0  0  0  0  0  0  0  0
  -20.1817  -43.4996   -2.5236 O   0  0  0  0  0  0  0  0  0  0  0  0
  -19.7438  -42.7189   -1.4481 C   0  0  0  0  0  0  0  0  0  0  0  0
  -19.8675  -43.3547   -0.0994 C   0  0  0  0  0  0  0  0  0  0  0  0
  1  2  1  0
  2  3  1  0
  3  4  1  0
  4  5  1  0
  5  6  1  0
  6  7  2  0
  6  8  1  0
  8  9  1  6
  8 10  1  0
 10 11  1  0
 11 12  1  1
 11 13  1  0
 13 14  1  1
 14 15  1  0
 15 16  1  1
 15 17  1  0
 17 18  1  0
 18 19  1  0
 19 20  1  0
 20 21  1  0
 21 22  1  0
 22 23  1  0
 23 24  1  0
 22 25  1  0
 25 26  2  0
 25 27  1  0
 27 28  2  0
 28 29  1  0
 29 30  2  0
 30 31  1  0
 31 32  2  0
 31 33  1  0
 33 34  2  0
 33 35  1  0
 29 36  1  0
 36 37  1  0
 37 38  1  0
 32 27  1  0
 35 13  1  0
M  END
$$$$
