
     RDKit          3D

 38 39  0  0  0  0  0  0  0  0999 V2000
  -16.1779  -34.9534  -13.8536 C   0  0  0  0  0  0  0  0  0  0  0  0
  -16.2121  -35.9542  -12.7199 C   0  0  0  0  0  0  0  0  0  0  0  0
  -14.9490  -35.8318  -11.8600 C   0  0  0  0  0  0  0  0  0  0  0  0
  -14.2488  -37.1591  -11.9480 C   0  0  0  0  0  0  0  0  0  0  0  0
  -13.8341  -37.6897  -10.6889 N   0  0  0  0  0  0  0  0  0  0  0  0
  -14.3857  -38.8371  -10.0684 C   0  0  0  0  0  0  0  0  0  0  0  0
  -15.3087  -39.4413  -10.6601 O   0  0  0  0  0  0  0  0  0  0  0  0
  -13.9231  -39.3522   -8.7597 C   0  0  2  0  0  0  0  0  0  0  0  0
  -12.6808  -40.1464   -8.9569 C   0  0  0  0  0  0  0  0  0  0  0  0
  -15.0646  -40.1913   -8.1682 C   0  0  0  0  0  0  0  0  0  0  0  0
  -16.2747  -39.3628   -7.9364 C   0  0  2  0  0  0  0  0  0  0  0  0
  -16.0950  -38.3231   -7.0330 O   0  0  0  0  0  0  0  0  0  0  0  0
  -17.4604  -40.1851   -7.3919 C   0  0  2  0  0  0  0  0  0  0  0  0
  -17.8502  -39.5480   -6.1200 C   0  0  0  0  0  0  0  0  0  0  0  0
  -19.1662  -39.7654   -5.5272 C   0  0  2  0  0  0  0  0  0  0  0  0
  -19.6859  -41.1886   -5.5320 C   0  0  0  0  0  0  0  0  0  0  0  0
  -20.2689  -38.8035   -5.8894 C   0  0  0  0  0  0  0  0  0  0  0  0
  -20.9476  -38.9640   -7.1795 C   0  0  0  0  0  0  0  0  0  0  0  0
  -22.3573  -39.5633   -7.0550 C   0  0  0  0  0  0  0  0  0  0  0  0
  -22.8751  -39.9820   -8.4179 C   0  0  0  0  0  0  0  0  0  0  0  0
  -23.1819  -41.4306   -8.4868 C   0  0  0  0  0  0  0  0  0  0  0  0
  -23.0407  -42.0130   -9.8059 N   0  0  0  0  0  0  0  0  0  0  0  0
  -23.9285  -41.4893  -10.8307 C   0  0  0  0  0  0  0  0  0  0  0  0
  -23.2410  -41.0114  -12.0546 C   0  0  0  0  0  0  0  0  0  0  0  0
  -22.1095  -43.0229  -10.1143 C   0  0  0  0  0  0  0  0  0  0  0  0
  -22.5405  -43.7697  -11.1022 O   0  0  0  0  0  0  0  0  0  0  0  0
  -20.7938  -43.3698   -9.5385 C   0  0  0  0  0  0  0  0  0  0  0  0
  -20.7047  -44.7809   -9.4195 C   0  0  0  0  0  0  0  0  0  0  0  0
  -19.6108  -45.4297   -8.9014 C   0  0  0  0  0  0  0  0  0  0  0  0
  -18.5983  -44.6090   -8.5028 C   0  0  0  0  0  0  0  0  0  0  0  0
  -18.6203  -43.1891   -8.5926 C   0  0  0  0  0  0  0  0  0  0  0  0
  -19.7409  -42.5832   -9.1216 C   0  0  0  0  0  0  0  0  0  0  0  0
  -17.3577  -42.6512   -8.0531 C   0  0  0  0  0  0  0  0  0  0  0  0
  -16.2558  -43.3342   -8.3595 O   0  0  0  0  0  0  0  0  0  0  0  0
  -16.9876  -41.5653   -7.2666 N   0  0  0  0  0  0  0  0  0  0  0  0
  -19.5639  -46.8096   -8.8050 O   0  0  0  0  0  0  0  0  0  0  0  0
  -18.3765  -47.5070   -9.0534 C   0  0  0  0  0  0  0  0  0  0  0  0
  -18.3921  -48.3952  -10.2572 C   0  0  0  0  0  0  0  0  0  0  0  0
  1  2  1  0
  2  3  1  0
  3  4  1  0
  4  5  1  0
  5  6  1  0
  6  7  2  0
  6  8  1  0
  8  9  1  6
  8 10  1  0
 10 11  1  0
 11 12  1  1
 11 13  1  0
 13 14  1  1
 14 15  1  0
 15 16  1  6
 15 17  1  0
 17 18  1  0
 18 19  1  0
 19 20  1  0
 20 21  1  0
 21 22  1  0
 22 23  1  0
 23 24  1  0
 22 25  1  0
 25 26  2  0
 25 27  1  0
 27 28  2  0
 28 29  1  0
 29 30  2  0
 30 31  1  0
 31 32  2  0
 31 33  1  0
 33 34  2  0
 33 35  1  0
 29 36  1  0
 36 37  1  0
 37 38  1  0
 32 27  1  0
 35 13  1  0
M  END
$$$$
