
     RDKit          3D

 39 42  0  0  0  0  0  0  0  0999 V2000
  -14.4482  -34.5676  -10.7297 C   0  0  0  0  0  0  0  0  0  0  0  0
  -14.4525  -35.4231  -11.9706 C   0  0  0  0  0  0  0  0  0  0  0  0
  -15.1656  -34.6661  -13.1021 C   0  0  0  0  0  0  0  0  0  0  0  0
  -15.1560  -36.7012  -11.7865 C   0  0  0  0  0  0  0  0  0  0  0  0
  -14.5162  -37.8159  -11.2319 C   0  0  0  0  0  0  0  0  0  0  0  0
  -15.1832  -39.0056  -11.0604 C   0  0  0  0  0  0  0  0  0  0  0  0
  -16.4843  -39.1023  -11.4347 C   0  0  0  0  0  0  0  0  0  0  0  0
  -17.1458  -37.9966  -11.9932 C   0  0  0  0  0  0  0  0  0  0  0  0
  -16.4654  -36.8148  -12.1582 C   0  0  0  0  0  0  0  0  0  0  0  0
  -14.4011  -40.1786  -10.4500 C   0  0  0  0  0  0  0  0  0  0  0  0
  -12.9595  -39.7316  -10.4440 C   0  0  0  0  0  0  0  0  0  0  0  0
  -14.5926  -41.2863  -11.4421 C   0  0  0  0  0  0  0  0  0  0  0  0
  -14.9839  -40.4109   -9.2234 N   0  0  0  0  0  0  0  0  0  0  0  0
  -14.7465  -39.7299   -8.0338 C   0  0  0  0  0  0  0  0  0  0  0  0
  -15.9301  -39.2090   -7.3658 C   0  0  1  0  0  0  0  0  0  0  0  0
  -16.1207  -37.8483   -7.4461 O   0  0  0  0  0  0  0  0  0  0  0  0
  -17.2468  -39.9095   -7.6439 C   0  0  2  0  0  0  0  0  0  0  0  0
  -18.1182  -40.0542   -6.4145 C   0  0  0  0  0  0  0  0  0  0  0  0
  -19.5511  -39.9008   -6.7703 C   0  0  0  0  0  0  0  0  0  0  0  0
  -20.6408  -40.7121   -6.7112 C   0  0  0  0  0  0  0  0  0  0  0  0
  -21.8615  -40.2222   -7.1573 C   0  0  0  0  0  0  0  0  0  0  0  0
  -21.9538  -38.9108   -7.6578 C   0  0  0  0  0  0  0  0  0  0  0  0
  -20.8747  -38.0542   -7.7351 C   0  0  0  0  0  0  0  0  0  0  0  0
  -19.7071  -38.5813   -7.2868 C   0  0  0  0  0  0  0  0  0  0  0  0
  -23.0921  -40.8335   -7.2046 O   0  0  0  0  0  0  0  0  0  0  0  0
  -23.9572  -41.5727   -6.4783 C   0  0  0  0  0  0  0  0  0  0  0  0
  -23.6561  -43.0546   -6.6901 C   0  0  0  0  0  0  0  0  0  0  0  0
  -24.0111  -43.5392   -8.0425 C   0  0  0  0  0  0  0  0  0  0  0  0
  -22.8683  -43.7274   -9.0028 C   0  0  0  0  0  0  0  0  0  0  0  0
  -21.8087  -44.5646   -8.4624 N   0  0  0  0  0  0  0  0  0  0  0  0
  -20.5159  -44.2477   -7.9490 C   0  0  0  0  0  0  0  0  0  0  0  0
  -19.5214  -43.4104   -8.3884 C   0  0  0  0  0  0  0  0  0  0  0  0
  -18.3616  -43.3046   -7.6413 C   0  0  0  0  0  0  0  0  0  0  0  0
  -18.2791  -44.0832   -6.4567 C   0  0  0  0  0  0  0  0  0  0  0  0
  -19.2205  -44.9025   -6.0057 N   0  0  0  0  0  0  0  0  0  0  0  0
  -20.3186  -44.9783   -6.7455 C   0  0  0  0  0  0  0  0  0  0  0  0
  -17.1488  -42.5018   -7.8267 C   0  0  0  0  0  0  0  0  0  0  0  0
  -16.0317  -43.1568   -7.5712 O   0  0  0  0  0  0  0  0  0  0  0  0
  -16.8667  -41.1871   -8.2126 N   0  0  0  0  0  0  0  0  0  0  0  0
  1  2  1  0
  2  3  1  0
  2  4  1  0
  4  5  2  0
  5  6  1  0
  6  7  2  0
  7  8  1  0
  8  9  2  0
  6 10  1  0
 10 11  1  0
 10 12  1  0
 10 13  1  0
 13 14  1  0
 14 15  1  0
 15 16  1  6
 15 17  1  0
 17 18  1  1
 18 19  1  0
 19 20  2  0
 20 21  1  0
 21 22  2  0
 22 23  1  0
 23 24  2  0
 21 25  1  0
 25 26  1  0
 26 27  1  0
 27 28  1  0
 28 29  1  0
 29 30  1  0
 30 31  1  0
 31 32  2  0
 32 33  1  0
 33 34  2  0
 34 35  1  0
 35 36  2  0
 33 37  1  0
 37 38  2  0
 37 39  1  0
  9  4  1  0
 24 19  1  0
 36 31  1  0
 39 17  1  0
M  END
$$$$
