
     RDKit          3D

 39 42  0  0  0  0  0  0  0  0999 V2000
  -12.6942  -42.4104   -8.4066 C   0  0  0  0  0  0  0  0  0  0  0  0
  -12.1412  -42.5338   -9.8033 C   0  0  0  0  0  0  0  0  0  0  0  0
  -10.6664  -42.1019   -9.8013 C   0  0  0  0  0  0  0  0  0  0  0  0
  -12.8449  -41.6873  -10.7782 C   0  0  0  0  0  0  0  0  0  0  0  0
  -13.2261  -40.3763  -10.4692 C   0  0  0  0  0  0  0  0  0  0  0  0
  -13.8805  -39.5913  -11.3886 C   0  0  0  0  0  0  0  0  0  0  0  0
  -14.1623  -40.0947  -12.6172 C   0  0  0  0  0  0  0  0  0  0  0  0
  -13.7891  -41.4073  -12.9486 C   0  0  0  0  0  0  0  0  0  0  0  0
  -13.1359  -42.1791  -12.0188 C   0  0  0  0  0  0  0  0  0  0  0  0
  -14.2670  -38.1670  -10.9616 C   0  0  0  0  0  0  0  0  0  0  0  0
  -15.3466  -37.7441  -11.9281 C   0  0  0  0  0  0  0  0  0  0  0  0
  -13.0185  -37.3734  -11.2049 C   0  0  0  0  0  0  0  0  0  0  0  0
  -14.6255  -38.2650   -9.6350 N   0  0  0  0  0  0  0  0  0  0  0  0
  -15.6483  -37.5824   -8.9845 C   0  0  0  0  0  0  0  0  0  0  0  0
  -16.2163  -38.2620   -7.8294 C   0  0  1  0  0  0  0  0  0  0  0  0
  -16.3575  -37.5032   -6.6899 O   0  0  0  0  0  0  0  0  0  0  0  0
  -17.4868  -39.0608   -8.0517 C   0  0  2  0  0  0  0  0  0  0  0  0
  -18.1171  -39.5513   -6.7657 C   0  0  0  0  0  0  0  0  0  0  0  0
  -19.5978  -39.5196   -6.8657 C   0  0  0  0  0  0  0  0  0  0  0  0
  -20.5775  -40.4615   -6.8190 C   0  0  0  0  0  0  0  0  0  0  0  0
  -21.8981  -40.0576   -6.9666 C   0  0  0  0  0  0  0  0  0  0  0  0
  -22.2014  -38.6976   -7.1601 C   0  0  0  0  0  0  0  0  0  0  0  0
  -21.2396  -37.7096   -7.2133 C   0  0  0  0  0  0  0  0  0  0  0  0
  -19.9670  -38.1570   -7.0635 C   0  0  0  0  0  0  0  0  0  0  0  0
  -23.0534  -40.8028   -6.9598 O   0  0  0  0  0  0  0  0  0  0  0  0
  -23.7059  -41.7739   -6.2862 C   0  0  0  0  0  0  0  0  0  0  0  0
  -23.3030  -43.1355   -6.8479 C   0  0  0  0  0  0  0  0  0  0  0  0
  -23.8352  -43.3926   -8.2045 C   0  0  0  0  0  0  0  0  0  0  0  0
  -22.8605  -43.2424   -9.3407 C   0  0  0  0  0  0  0  0  0  0  0  0
  -21.6480  -44.0233   -9.1515 N   0  0  0  0  0  0  0  0  0  0  0  0
  -20.3235  -43.6461   -8.7792 C   0  0  0  0  0  0  0  0  0  0  0  0
  -19.5046  -42.6180   -9.1739 C   0  0  0  0  0  0  0  0  0  0  0  0
  -18.2501  -42.5084   -8.6008 C   0  0  0  0  0  0  0  0  0  0  0  0
  -17.8912  -43.4830   -7.6325 C   0  0  0  0  0  0  0  0  0  0  0  0
  -18.6577  -44.4888   -7.2306 N   0  0  0  0  0  0  0  0  0  0  0  0
  -19.8534  -44.5627   -7.7995 C   0  0  0  0  0  0  0  0  0  0  0  0
  -17.1705  -41.5344   -8.7895 C   0  0  0  0  0  0  0  0  0  0  0  0
  -15.9679  -42.0757   -8.8456 O   0  0  0  0  0  0  0  0  0  0  0  0
  -17.0874  -40.1447   -8.9268 N   0  0  0  0  0  0  0  0  0  0  0  0
  1  2  1  0
  2  3  1  0
  2  4  1  0
  4  5  2  0
  5  6  1  0
  6  7  2  0
  7  8  1  0
  8  9  2  0
  6 10  1  0
 10 11  1  0
 10 12  1  0
 10 13  1  0
 13 14  1  0
 14 15  1  0
 15 16  1  1
 15 17  1  0
 17 18  1  1
 18 19  1  0
 19 20  2  0
 20 21  1  0
 21 22  2  0
 22 23  1  0
 23 24  2  0
 21 25  1  0
 25 26  1  0
 26 27  1  0
 27 28  1  0
 28 29  1  0
 29 30  1  0
 30 31  1  0
 31 32  2  0
 32 33  1  0
 33 34  2  0
 34 35  1  0
 35 36  2  0
 33 37  1  0
 37 38  2  0
 37 39  1  0
  9  4  1  0
 24 19  1  0
 36 31  1  0
 39 17  1  0
M  END
$$$$
