
     RDKit          3D

 39 42  0  0  0  0  0  0  0  0999 V2000
  -16.6361  -34.3170  -11.4341 C   0  0  0  0  0  0  0  0  0  0  0  0
  -15.1450  -34.3588  -11.2184 C   0  0  0  0  0  0  0  0  0  0  0  0
  -14.4918  -33.2004  -11.9883 C   0  0  0  0  0  0  0  0  0  0  0  0
  -14.5288  -35.6057  -11.6958 C   0  0  0  0  0  0  0  0  0  0  0  0
  -14.4925  -36.7563  -10.8995 C   0  0  0  0  0  0  0  0  0  0  0  0
  -13.9173  -37.9185  -11.3560 C   0  0  0  0  0  0  0  0  0  0  0  0
  -13.3751  -37.9520  -12.5999 C   0  0  0  0  0  0  0  0  0  0  0  0
  -13.4003  -36.8093  -13.4158 C   0  0  0  0  0  0  0  0  0  0  0  0
  -13.9786  -35.6558  -12.9451 C   0  0  0  0  0  0  0  0  0  0  0  0
  -13.9164  -39.1308  -10.4123 C   0  0  0  0  0  0  0  0  0  0  0  0
  -12.4800  -39.5915  -10.3624 C   0  0  0  0  0  0  0  0  0  0  0  0
  -14.7567  -40.1415  -11.1335 C   0  0  0  0  0  0  0  0  0  0  0  0
  -14.4644  -38.6785   -9.2318 N   0  0  0  0  0  0  0  0  0  0  0  0
  -15.7733  -38.2606   -9.0146 C   0  0  0  0  0  0  0  0  0  0  0  0
  -16.3628  -38.6849   -7.7532 C   0  0  1  0  0  0  0  0  0  0  0  0
  -16.4925  -37.7120   -6.7883 O   0  0  0  0  0  0  0  0  0  0  0  0
  -17.6502  -39.4843   -7.8248 C   0  0  2  0  0  0  0  0  0  0  0  0
  -18.1472  -39.9398   -6.4694 C   0  0  0  0  0  0  0  0  0  0  0  0
  -19.6303  -39.9052   -6.4193 C   0  0  0  0  0  0  0  0  0  0  0  0
  -20.6012  -40.8420   -6.2493 C   0  0  0  0  0  0  0  0  0  0  0  0
  -21.9296  -40.4371   -6.2724 C   0  0  0  0  0  0  0  0  0  0  0  0
  -22.2494  -39.0814   -6.4688 C   0  0  0  0  0  0  0  0  0  0  0  0
  -21.2969  -38.0985   -6.6445 C   0  0  0  0  0  0  0  0  0  0  0  0
  -20.0162  -38.5467   -6.6134 C   0  0  0  0  0  0  0  0  0  0  0  0
  -23.0790  -41.1776   -6.1292 O   0  0  0  0  0  0  0  0  0  0  0  0
  -23.6607  -42.1290   -5.3683 C   0  0  0  0  0  0  0  0  0  0  0  0
  -23.3185  -43.5058   -5.9330 C   0  0  0  0  0  0  0  0  0  0  0  0
  -23.9861  -43.7952   -7.2216 C   0  0  0  0  0  0  0  0  0  0  0  0
  -23.1316  -43.6775   -8.4543 C   0  0  0  0  0  0  0  0  0  0  0  0
  -21.9070  -44.4577   -8.3693 N   0  0  0  0  0  0  0  0  0  0  0  0
  -20.5511  -44.0761   -8.1432 C   0  0  0  0  0  0  0  0  0  0  0  0
  -19.7755  -43.0614   -8.6451 C   0  0  0  0  0  0  0  0  0  0  0  0
  -18.4691  -42.9419   -8.2053 C   0  0  0  0  0  0  0  0  0  0  0  0
  -18.0147  -43.8930   -7.2539 C   0  0  0  0  0  0  0  0  0  0  0  0
  -18.7376  -44.8855   -6.7507 N   0  0  0  0  0  0  0  0  0  0  0  0
  -19.9850  -44.9694   -7.1931 C   0  0  0  0  0  0  0  0  0  0  0  0
  -17.4132  -41.9770   -8.5276 C   0  0  0  0  0  0  0  0  0  0  0  0
  -16.2231  -42.5239   -8.6915 O   0  0  0  0  0  0  0  0  0  0  0  0
  -17.3429  -40.5915   -8.7080 N   0  0  0  0  0  0  0  0  0  0  0  0
  1  2  1  0
  2  3  1  0
  2  4  1  0
  4  5  2  0
  5  6  1  0
  6  7  2  0
  7  8  1  0
  8  9  2  0
  6 10  1  0
 10 11  1  0
 10 12  1  0
 10 13  1  0
 13 14  1  0
 14 15  1  0
 15 16  1  1
 15 17  1  0
 17 18  1  1
 18 19  1  0
 19 20  2  0
 20 21  1  0
 21 22  2  0
 22 23  1  0
 23 24  2  0
 21 25  1  0
 25 26  1  0
 26 27  1  0
 27 28  1  0
 28 29  1  0
 29 30  1  0
 30 31  1  0
 31 32  2  0
 32 33  1  0
 33 34  2  0
 34 35  1  0
 35 36  2  0
 33 37  1  0
 37 38  2  0
 37 39  1  0
  9  4  1  0
 24 19  1  0
 36 31  1  0
 39 17  1  0
M  END
$$$$
