
     RDKit          3D

 39 42  0  0  0  0  0  0  0  0999 V2000
  -19.9613  -36.7718  -13.9393 C   0  0  0  0  0  0  0  0  0  0  0  0
  -19.8562  -36.5650  -12.4500 C   0  0  0  0  0  0  0  0  0  0  0  0
  -19.4208  -35.1177  -12.1717 C   0  0  0  0  0  0  0  0  0  0  0  0
  -18.8692  -37.4501  -11.8139 C   0  0  0  0  0  0  0  0  0  0  0  0
  -17.5901  -36.9951  -11.4727 C   0  0  0  0  0  0  0  0  0  0  0  0
  -16.6753  -37.8292  -10.8750 C   0  0  0  0  0  0  0  0  0  0  0  0
  -17.0169  -39.1159  -10.6107 C   0  0  0  0  0  0  0  0  0  0  0  0
  -18.2946  -39.5936  -10.9445 C   0  0  0  0  0  0  0  0  0  0  0  0
  -19.1974  -38.7477  -11.5414 C   0  0  0  0  0  0  0  0  0  0  0  0
  -15.2932  -37.2473  -10.5411 C   0  0  0  0  0  0  0  0  0  0  0  0
  -15.4603  -35.7505  -10.6405 C   0  0  0  0  0  0  0  0  0  0  0  0
  -14.4216  -37.7432  -11.6556 C   0  0  0  0  0  0  0  0  0  0  0  0
  -14.9700  -37.7546   -9.3016 N   0  0  0  0  0  0  0  0  0  0  0  0
  -15.1940  -39.0453   -8.8336 C   0  0  0  0  0  0  0  0  0  0  0  0
  -15.9730  -39.1383   -7.6075 C   0  0  1  0  0  0  0  0  0  0  0  0
  -16.1640  -37.9607   -6.9211 O   0  0  0  0  0  0  0  0  0  0  0  0
  -17.2903  -39.8874   -7.6793 C   0  0  2  0  0  0  0  0  0  0  0  0
  -17.7979  -40.3352   -6.3253 C   0  0  0  0  0  0  0  0  0  0  0  0
  -19.2783  -40.2445   -6.2675 C   0  0  0  0  0  0  0  0  0  0  0  0
  -20.2835  -41.1450   -6.1005 C   0  0  0  0  0  0  0  0  0  0  0  0
  -21.5955  -40.6896   -6.1135 C   0  0  0  0  0  0  0  0  0  0  0  0
  -21.8643  -39.3211   -6.2969 C   0  0  0  0  0  0  0  0  0  0  0  0
  -20.8759  -38.3737   -6.4693 C   0  0  0  0  0  0  0  0  0  0  0  0
  -19.6130  -38.8706   -6.4483 C   0  0  0  0  0  0  0  0  0  0  0  0
  -22.7717  -41.3870   -5.9708 O   0  0  0  0  0  0  0  0  0  0  0  0
  -23.3857  -42.3220   -5.2149 C   0  0  0  0  0  0  0  0  0  0  0  0
  -23.0989  -43.7060   -5.7928 C   0  0  0  0  0  0  0  0  0  0  0  0
  -23.7831  -43.9587   -7.0804 C   0  0  0  0  0  0  0  0  0  0  0  0
  -22.9306  -43.8630   -8.3164 C   0  0  0  0  0  0  0  0  0  0  0  0
  -21.7362  -44.6901   -8.2440 N   0  0  0  0  0  0  0  0  0  0  0  0
  -20.3657  -44.3624   -8.0215 C   0  0  0  0  0  0  0  0  0  0  0  0
  -19.5543  -43.3737   -8.5188 C   0  0  0  0  0  0  0  0  0  0  0  0
  -18.2422  -43.3079   -8.0846 C   0  0  0  0  0  0  0  0  0  0  0  0
  -17.8201  -44.2837   -7.1434 C   0  0  0  0  0  0  0  0  0  0  0  0
  -18.5779  -45.2522   -6.6450 N   0  0  0  0  0  0  0  0  0  0  0  0
  -19.8296  -45.2847   -7.0818 C   0  0  0  0  0  0  0  0  0  0  0  0
  -17.1518  -42.3812   -8.4041 C   0  0  0  0  0  0  0  0  0  0  0  0
  -15.9843  -42.9717   -8.5786 O   0  0  0  0  0  0  0  0  0  0  0  0
  -17.0296  -40.9979   -8.5733 N   0  0  0  0  0  0  0  0  0  0  0  0
  1  2  1  0
  2  3  1  0
  2  4  1  0
  4  5  2  0
  5  6  1  0
  6  7  2  0
  7  8  1  0
  8  9  2  0
  6 10  1  0
 10 11  1  0
 10 12  1  0
 10 13  1  0
 13 14  1  0
 14 15  1  0
 15 16  1  6
 15 17  1  0
 17 18  1  1
 18 19  1  0
 19 20  2  0
 20 21  1  0
 21 22  2  0
 22 23  1  0
 23 24  2  0
 21 25  1  0
 25 26  1  0
 26 27  1  0
 27 28  1  0
 28 29  1  0
 29 30  1  0
 30 31  1  0
 31 32  2  0
 32 33  1  0
 33 34  2  0
 34 35  1  0
 35 36  2  0
 33 37  1  0
 37 38  2  0
 37 39  1  0
  9  4  1  0
 24 19  1  0
 36 31  1  0
 39 17  1  0
M  END
$$$$
