
     RDKit          3D

 39 42  0  0  0  0  0  0  0  0999 V2000
  -11.1314  -35.4719  -10.1699 C   0  0  0  0  0  0  0  0  0  0  0  0
  -11.1993  -35.9442  -11.5996 C   0  0  0  0  0  0  0  0  0  0  0  0
  -11.6996  -34.7936  -12.4871 C   0  0  0  0  0  0  0  0  0  0  0  0
  -12.1187  -37.0761  -11.7892 C   0  0  0  0  0  0  0  0  0  0  0  0
  -13.4043  -37.0760  -11.2354 C   0  0  0  0  0  0  0  0  0  0  0  0
  -14.2579  -38.1374  -11.4210 C   0  0  0  0  0  0  0  0  0  0  0  0
  -13.8485  -39.2041  -12.1537 C   0  0  0  0  0  0  0  0  0  0  0  0
  -12.5629  -39.2253  -12.7185 C   0  0  0  0  0  0  0  0  0  0  0  0
  -11.7217  -38.1571  -12.5237 C   0  0  0  0  0  0  0  0  0  0  0  0
  -15.6478  -38.0551  -10.7715 C   0  0  0  0  0  0  0  0  0  0  0  0
  -16.4260  -39.2086  -11.3563 C   0  0  0  0  0  0  0  0  0  0  0  0
  -16.1977  -36.7546  -11.2757 C   0  0  0  0  0  0  0  0  0  0  0  0
  -15.4213  -38.0848   -9.4128 N   0  0  0  0  0  0  0  0  0  0  0  0
  -16.2234  -37.5467   -8.4117 C   0  0  0  0  0  0  0  0  0  0  0  0
  -16.5617  -38.4561   -7.3267 C   0  0  1  0  0  0  0  0  0  0  0  0
  -16.5043  -37.9301   -6.0561 O   0  0  0  0  0  0  0  0  0  0  0  0
  -17.8396  -39.2609   -7.4708 C   0  0  2  0  0  0  0  0  0  0  0  0
  -18.2977  -39.8927   -6.1737 C   0  0  0  0  0  0  0  0  0  0  0  0
  -19.7795  -39.8890   -6.0868 C   0  0  0  0  0  0  0  0  0  0  0  0
  -20.7334  -40.8555   -6.0158 C   0  0  0  0  0  0  0  0  0  0  0  0
  -22.0673  -40.4727   -5.9577 C   0  0  0  0  0  0  0  0  0  0  0  0
  -22.4099  -39.1084   -5.9729 C   0  0  0  0  0  0  0  0  0  0  0  0
  -21.4751  -38.0957   -6.0433 C   0  0  0  0  0  0  0  0  0  0  0  0
  -20.1881  -38.5233   -6.0978 C   0  0  0  0  0  0  0  0  0  0  0  0
  -23.2029  -41.2440   -5.8845 O   0  0  0  0  0  0  0  0  0  0  0  0
  -23.7533  -42.2936   -5.2381 C   0  0  0  0  0  0  0  0  0  0  0  0
  -23.4065  -43.5819   -5.9807 C   0  0  0  0  0  0  0  0  0  0  0  0
  -24.1009  -43.7163   -7.2806 C   0  0  0  0  0  0  0  0  0  0  0  0
  -23.2780  -43.4292   -8.5070 C   0  0  0  0  0  0  0  0  0  0  0  0
  -22.0414  -44.1939   -8.5490 N   0  0  0  0  0  0  0  0  0  0  0  0
  -20.6857  -43.8219   -8.3064 C   0  0  0  0  0  0  0  0  0  0  0  0
  -19.9360  -42.7392   -8.6922 C   0  0  0  0  0  0  0  0  0  0  0  0
  -18.6211  -42.6551   -8.2698 C   0  0  0  0  0  0  0  0  0  0  0  0
  -18.1313  -43.7117   -7.4574 C   0  0  0  0  0  0  0  0  0  0  0  0
  -18.8285  -44.7718   -7.0687 N   0  0  0  0  0  0  0  0  0  0  0  0
  -20.0849  -44.8191   -7.4904 C   0  0  0  0  0  0  0  0  0  0  0  0
  -17.5862  -41.6400   -8.4900 C   0  0  0  0  0  0  0  0  0  0  0  0
  -16.3933  -42.1423   -8.7486 O   0  0  0  0  0  0  0  0  0  0  0  0
  -17.5389  -40.2419   -8.4943 N   0  0  0  0  0  0  0  0  0  0  0  0
  1  2  1  0
  2  3  1  0
  2  4  1  0
  4  5  2  0
  5  6  1  0
  6  7  2  0
  7  8  1  0
  8  9  2  0
  6 10  1  0
 10 11  1  0
 10 12  1  0
 10 13  1  0
 13 14  1  0
 14 15  1  0
 15 16  1  1
 15 17  1  0
 17 18  1  1
 18 19  1  0
 19 20  2  0
 20 21  1  0
 21 22  2  0
 22 23  1  0
 23 24  2  0
 21 25  1  0
 25 26  1  0
 26 27  1  0
 27 28  1  0
 28 29  1  0
 29 30  1  0
 30 31  1  0
 31 32  2  0
 32 33  1  0
 33 34  2  0
 34 35  1  0
 35 36  2  0
 33 37  1  0
 37 38  2  0
 37 39  1  0
  9  4  1  0
 24 19  1  0
 36 31  1  0
 39 17  1  0
M  END
$$$$
