
     RDKit          3D

 39 42  0  0  0  0  0  0  0  0999 V2000
  -10.3918  -37.5795  -14.8220 C   0  0  0  0  0  0  0  0  0  0  0  0
  -11.8514  -37.8383  -14.5495 C   0  0  0  0  0  0  0  0  0  0  0  0
  -12.6635  -36.5891  -14.9256 C   0  0  0  0  0  0  0  0  0  0  0  0
  -12.1299  -38.1336  -13.1362 C   0  0  0  0  0  0  0  0  0  0  0  0
  -13.2977  -37.6823  -12.5101 C   0  0  0  0  0  0  0  0  0  0  0  0
  -13.5509  -37.9664  -11.1891 C   0  0  0  0  0  0  0  0  0  0  0  0
  -12.6542  -38.6969  -10.4789 C   0  0  0  0  0  0  0  0  0  0  0  0
  -11.4760  -39.1599  -11.0869 C   0  0  0  0  0  0  0  0  0  0  0  0
  -11.2375  -38.8674  -12.4076 C   0  0  0  0  0  0  0  0  0  0  0  0
  -14.8543  -37.4254  -10.5819 C   0  0  0  0  0  0  0  0  0  0  0  0
  -15.8950  -37.5991  -11.6613 C   0  0  0  0  0  0  0  0  0  0  0  0
  -14.5689  -35.9686  -10.3714 C   0  0  0  0  0  0  0  0  0  0  0  0
  -15.0421  -38.1389   -9.4183 N   0  0  0  0  0  0  0  0  0  0  0  0
  -15.4281  -37.6429   -8.1773 C   0  0  0  0  0  0  0  0  0  0  0  0
  -15.8543  -38.6437   -7.2101 C   0  0  1  0  0  0  0  0  0  0  0  0
  -15.7426  -38.2904   -5.8846 O   0  0  0  0  0  0  0  0  0  0  0  0
  -17.2067  -39.2930   -7.4360 C   0  0  2  0  0  0  0  0  0  0  0  0
  -17.9224  -39.6464   -6.1498 C   0  0  0  0  0  0  0  0  0  0  0  0
  -19.3855  -39.4415   -6.2941 C   0  0  0  0  0  0  0  0  0  0  0  0
  -20.4730  -40.2557   -6.2370 C   0  0  0  0  0  0  0  0  0  0  0  0
  -21.7310  -39.7029   -6.4396 C   0  0  0  0  0  0  0  0  0  0  0  0
  -21.8623  -38.3264   -6.6979 C   0  0  0  0  0  0  0  0  0  0  0  0
  -20.7867  -37.4645   -6.7638 C   0  0  0  0  0  0  0  0  0  0  0  0
  -19.5818  -38.0545   -6.5587 C   0  0  0  0  0  0  0  0  0  0  0  0
  -22.9681  -40.3028   -6.4356 O   0  0  0  0  0  0  0  0  0  0  0  0
  -23.7494  -41.1575   -5.7418 C   0  0  0  0  0  0  0  0  0  0  0  0
  -23.5015  -42.5813   -6.2347 C   0  0  0  0  0  0  0  0  0  0  0  0
  -24.0284  -42.8327   -7.5945 C   0  0  0  0  0  0  0  0  0  0  0  0
  -23.0158  -42.8516   -8.7070 C   0  0  0  0  0  0  0  0  0  0  0  0
  -21.9118  -43.7634   -8.4505 N   0  0  0  0  0  0  0  0  0  0  0  0
  -20.5606  -43.5319   -8.0557 C   0  0  0  0  0  0  0  0  0  0  0  0
  -19.6139  -42.6283   -8.4685 C   0  0  0  0  0  0  0  0  0  0  0  0
  -18.3693  -42.6449   -7.8642 C   0  0  0  0  0  0  0  0  0  0  0  0
  -18.1546  -43.6115   -6.8463 C   0  0  0  0  0  0  0  0  0  0  0  0
  -19.0469  -44.4990   -6.4258 N   0  0  0  0  0  0  0  0  0  0  0  0
  -20.2288  -44.4538   -7.0256 C   0  0  0  0  0  0  0  0  0  0  0  0
  -17.1753  -41.8171   -8.0615 C   0  0  0  0  0  0  0  0  0  0  0  0
  -16.0463  -42.5010   -8.0601 O   0  0  0  0  0  0  0  0  0  0  0  0
  -16.9209  -40.4550   -8.2536 N   0  0  0  0  0  0  0  0  0  0  0  0
  1  2  1  0
  2  3  1  0
  2  4  1  0
  4  5  2  0
  5  6  1  0
  6  7  2  0
  7  8  1  0
  8  9  2  0
  6 10  1  0
 10 11  1  0
 10 12  1  0
 10 13  1  0
 13 14  1  0
 14 15  1  0
 15 16  1  1
 15 17  1  0
 17 18  1  1
 18 19  1  0
 19 20  2  0
 20 21  1  0
 21 22  2  0
 22 23  1  0
 23 24  2  0
 21 25  1  0
 25 26  1  0
 26 27  1  0
 27 28  1  0
 28 29  1  0
 29 30  1  0
 30 31  1  0
 31 32  2  0
 32 33  1  0
 33 34  2  0
 34 35  1  0
 35 36  2  0
 33 37  1  0
 37 38  2  0
 37 39  1  0
  9  4  1  0
 24 19  1  0
 36 31  1  0
 39 17  1  0
M  END
$$$$
