
     RDKit          3D

 39 42  0  0  0  0  0  0  0  0999 V2000
  -20.0388  -36.8727  -11.5640 C   0  0  0  0  0  0  0  0  0  0  0  0
  -18.9244  -37.5175  -12.3477 C   0  0  0  0  0  0  0  0  0  0  0  0
  -18.9027  -39.0242  -12.0464 C   0  0  0  0  0  0  0  0  0  0  0  0
  -17.5973  -36.9830  -12.0078 C   0  0  0  0  0  0  0  0  0  0  0  0
  -16.6230  -37.7783  -11.3932 C   0  0  0  0  0  0  0  0  0  0  0  0
  -15.3838  -37.2706  -11.0825 C   0  0  0  0  0  0  0  0  0  0  0  0
  -15.0990  -35.9765  -11.3763 C   0  0  0  0  0  0  0  0  0  0  0  0
  -16.0614  -35.1606  -11.9928 C   0  0  0  0  0  0  0  0  0  0  0  0
  -17.2950  -35.6827  -12.2968 C   0  0  0  0  0  0  0  0  0  0  0  0
  -14.3784  -38.2130  -10.4032 C   0  0  0  0  0  0  0  0  0  0  0  0
  -13.0521  -37.4964  -10.4787 C   0  0  0  0  0  0  0  0  0  0  0  0
  -14.3642  -39.4180  -11.2952 C   0  0  0  0  0  0  0  0  0  0  0  0
  -14.8864  -38.4471   -9.1441 N   0  0  0  0  0  0  0  0  0  0  0  0
  -16.1297  -38.0646   -8.6512 C   0  0  0  0  0  0  0  0  0  0  0  0
  -16.5095  -38.6656   -7.3810 C   0  0  1  0  0  0  0  0  0  0  0  0
  -16.4191  -37.8512   -6.2752 O   0  0  0  0  0  0  0  0  0  0  0  0
  -17.8279  -39.4148   -7.3363 C   0  0  2  0  0  0  0  0  0  0  0  0
  -18.1517  -39.9736   -5.9671 C   0  0  0  0  0  0  0  0  0  0  0  0
  -19.6107  -39.8973   -5.7047 C   0  0  0  0  0  0  0  0  0  0  0  0
  -20.5885  -40.8147   -5.4780 C   0  0  0  0  0  0  0  0  0  0  0  0
  -21.8884  -40.3681   -5.2785 C   0  0  0  0  0  0  0  0  0  0  0  0
  -22.1732  -38.9909   -5.3132 C   0  0  0  0  0  0  0  0  0  0  0  0
  -21.2124  -38.0265   -5.5391 C   0  0  0  0  0  0  0  0  0  0  0  0
  -19.9604  -38.5155   -5.7274 C   0  0  0  0  0  0  0  0  0  0  0  0
  -23.0380  -41.0821   -5.0365 O   0  0  0  0  0  0  0  0  0  0  0  0
  -23.5495  -42.0789   -4.2834 C   0  0  0  0  0  0  0  0  0  0  0  0
  -23.3489  -43.4099   -5.0043 C   0  0  0  0  0  0  0  0  0  0  0  0
  -24.2004  -43.5623   -6.2050 C   0  0  0  0  0  0  0  0  0  0  0  0
  -23.5206  -43.3619   -7.5321 C   0  0  0  0  0  0  0  0  0  0  0  0
  -22.3311  -44.1845   -7.6872 N   0  0  0  0  0  0  0  0  0  0  0  0
  -20.9416  -43.8671   -7.6243 C   0  0  0  0  0  0  0  0  0  0  0  0
  -20.1996  -42.8364   -8.1442 C   0  0  0  0  0  0  0  0  0  0  0  0
  -18.8410  -42.7974   -7.8855 C   0  0  0  0  0  0  0  0  0  0  0  0
  -18.3010  -43.8433   -7.0912 C   0  0  0  0  0  0  0  0  0  0  0  0
  -18.9896  -44.8537   -6.5757 N   0  0  0  0  0  0  0  0  0  0  0  0
  -20.2887  -44.8587   -6.8424 C   0  0  0  0  0  0  0  0  0  0  0  0
  -17.7989  -41.8411   -8.2720 C   0  0  0  0  0  0  0  0  0  0  0  0
  -16.6679  -42.4082   -8.6483 O   0  0  0  0  0  0  0  0  0  0  0  0
  -17.6942  -40.4479   -8.3438 N   0  0  0  0  0  0  0  0  0  0  0  0
  1  2  1  0
  2  3  1  0
  2  4  1  0
  4  5  2  0
  5  6  1  0
  6  7  2  0
  7  8  1  0
  8  9  2  0
  6 10  1  0
 10 11  1  0
 10 12  1  0
 10 13  1  0
 13 14  1  0
 14 15  1  0
 15 16  1  1
 15 17  1  0
 17 18  1  1
 18 19  1  0
 19 20  2  0
 20 21  1  0
 21 22  2  0
 22 23  1  0
 23 24  2  0
 21 25  1  0
 25 26  1  0
 26 27  1  0
 27 28  1  0
 28 29  1  0
 29 30  1  0
 30 31  1  0
 31 32  2  0
 32 33  1  0
 33 34  2  0
 34 35  1  0
 35 36  2  0
 33 37  1  0
 37 38  2  0
 37 39  1  0
  9  4  1  0
 24 19  1  0
 36 31  1  0
 39 17  1  0
M  END
$$$$
