
     RDKit          3D

 39 42  0  0  0  0  0  0  0  0999 V2000
  -12.7740  -34.6181   -7.8182 C   0  0  0  0  0  0  0  0  0  0  0  0
  -13.9356  -35.5641   -7.9834 C   0  0  0  0  0  0  0  0  0  0  0  0
  -14.1738  -36.3058   -6.6587 C   0  0  0  0  0  0  0  0  0  0  0  0
  -13.7071  -36.5811   -9.0207 C   0  0  0  0  0  0  0  0  0  0  0  0
  -14.4797  -36.6238  -10.1872 C   0  0  0  0  0  0  0  0  0  0  0  0
  -14.2561  -37.5762  -11.1530 C   0  0  0  0  0  0  0  0  0  0  0  0
  -13.2699  -38.4912  -10.9736 C   0  0  0  0  0  0  0  0  0  0  0  0
  -12.4827  -38.4670   -9.8109 C   0  0  0  0  0  0  0  0  0  0  0  0
  -12.7186  -37.5091   -8.8551 C   0  0  0  0  0  0  0  0  0  0  0  0
  -15.1560  -37.5523  -12.3979 C   0  0  0  0  0  0  0  0  0  0  0  0
  -15.6121  -38.9792  -12.5831 C   0  0  0  0  0  0  0  0  0  0  0  0
  -14.2209  -37.1631  -13.5033 C   0  0  0  0  0  0  0  0  0  0  0  0
  -16.1327  -36.6188  -12.1282 N   0  0  0  0  0  0  0  0  0  0  0  0
  -17.4391  -36.8595  -11.7152 C   0  0  0  0  0  0  0  0  0  0  0  0
  -17.6520  -36.8412  -10.2754 C   0  0  1  0  0  0  0  0  0  0  0  0
  -18.1306  -35.6628   -9.7494 O   0  0  0  0  0  0  0  0  0  0  0  0
  -18.4252  -38.0002   -9.6751 C   0  0  2  0  0  0  0  0  0  0  0  0
  -18.7761  -37.7934   -8.2171 C   0  0  0  0  0  0  0  0  0  0  0  0
  -20.1117  -38.3668   -7.9159 C   0  0  0  0  0  0  0  0  0  0  0  0
  -20.5626  -39.3585   -7.1022 C   0  0  0  0  0  0  0  0  0  0  0  0
  -21.9227  -39.6398   -7.0847 C   0  0  0  0  0  0  0  0  0  0  0  0
  -22.8044  -38.9053   -7.8982 C   0  0  0  0  0  0  0  0  0  0  0  0
  -22.3902  -37.8912   -8.7375 C   0  0  0  0  0  0  0  0  0  0  0  0
  -21.0535  -37.6568   -8.7166 C   0  0  0  0  0  0  0  0  0  0  0  0
  -22.6187  -40.5801   -6.3626 O   0  0  0  0  0  0  0  0  0  0  0  0
  -22.7687  -41.0934   -5.1230 C   0  0  0  0  0  0  0  0  0  0  0  0
  -21.7920  -42.2520   -4.9351 C   0  0  0  0  0  0  0  0  0  0  0  0
  -22.1420  -43.4506   -5.7293 C   0  0  0  0  0  0  0  0  0  0  0  0
  -21.3314  -43.6826   -6.9754 C   0  0  0  0  0  0  0  0  0  0  0  0
  -19.8985  -43.6817   -6.7252 N   0  0  0  0  0  0  0  0  0  0  0  0
  -18.8883  -42.7101   -6.9911 C   0  0  0  0  0  0  0  0  0  0  0  0
  -18.6174  -41.9270   -8.0850 C   0  0  0  0  0  0  0  0  0  0  0  0
  -17.5506  -41.0478   -8.0268 C   0  0  0  0  0  0  0  0  0  0  0  0
  -16.7980  -41.0189   -6.8229 C   0  0  0  0  0  0  0  0  0  0  0  0
  -17.0323  -41.7631   -5.7496 N   0  0  0  0  0  0  0  0  0  0  0  0
  -18.0627  -42.5931   -5.8397 C   0  0  0  0  0  0  0  0  0  0  0  0
  -17.0238  -40.0836   -8.9977 C   0  0  0  0  0  0  0  0  0  0  0  0
  -15.7060  -40.0659   -9.0703 O   0  0  0  0  0  0  0  0  0  0  0  0
  -17.5744  -39.1542   -9.8866 N   0  0  0  0  0  0  0  0  0  0  0  0
  1  2  1  0
  2  3  1  0
  2  4  1  0
  4  5  2  0
  5  6  1  0
  6  7  2  0
  7  8  1  0
  8  9  2  0
  6 10  1  0
 10 11  1  0
 10 12  1  0
 10 13  1  0
 13 14  1  0
 14 15  1  0
 15 16  1  6
 15 17  1  0
 17 18  1  1
 18 19  1  0
 19 20  2  0
 20 21  1  0
 21 22  2  0
 22 23  1  0
 23 24  2  0
 21 25  1  0
 25 26  1  0
 26 27  1  0
 27 28  1  0
 28 29  1  0
 29 30  1  0
 30 31  1  0
 31 32  2  0
 32 33  1  0
 33 34  2  0
 34 35  1  0
 35 36  2  0
 33 37  1  0
 37 38  2  0
 37 39  1  0
  9  4  1  0
 24 19  1  0
 36 31  1  0
 39 17  1  0
M  END
$$$$
