
     RDKit          3D

 39 42  0  0  0  0  0  0  0  0999 V2000
  -20.9486  -43.6543   -2.2762 C   0  0  0  0  0  0  0  0  0  0  0  0
  -21.5164  -42.2612   -2.1847 C   0  0  0  0  0  0  0  0  0  0  0  0
  -22.8301  -42.3037   -1.3885 C   0  0  0  0  0  0  0  0  0  0  0  0
  -21.8187  -41.6750   -3.4989 C   0  0  0  0  0  0  0  0  0  0  0  0
  -21.2750  -40.4477   -3.8960 C   0  0  0  0  0  0  0  0  0  0  0  0
  -21.5607  -39.9094   -5.1282 C   0  0  0  0  0  0  0  0  0  0  0  0
  -22.3837  -40.5784   -5.9752 C   0  0  0  0  0  0  0  0  0  0  0  0
  -22.9403  -41.8111   -5.5975 C   0  0  0  0  0  0  0  0  0  0  0  0
  -22.6453  -42.3356   -4.3627 C   0  0  0  0  0  0  0  0  0  0  0  0
  -20.9253  -38.5551   -5.4780 C   0  0  0  0  0  0  0  0  0  0  0  0
  -20.3933  -38.0190   -4.1711 C   0  0  0  0  0  0  0  0  0  0  0  0
  -22.0872  -37.7274   -5.9392 C   0  0  0  0  0  0  0  0  0  0  0  0
  -19.9985  -38.8263   -6.4606 N   0  0  0  0  0  0  0  0  0  0  0  0
  -19.8403  -38.1685   -7.6762 C   0  0  0  0  0  0  0  0  0  0  0  0
  -19.3521  -38.9919   -8.7726 C   0  0  1  0  0  0  0  0  0  0  0  0
  -20.2300  -39.1974   -9.8125 O   0  0  0  0  0  0  0  0  0  0  0  0
  -17.9864  -38.6519   -9.3390 C   0  0  2  0  0  0  0  0  0  0  0  0
  -17.6248  -39.4706  -10.5600 C   0  0  0  0  0  0  0  0  0  0  0  0
  -16.8557  -38.6500  -11.5287 C   0  0  0  0  0  0  0  0  0  0  0  0
  -15.6005  -38.7136  -12.0478 C   0  0  0  0  0  0  0  0  0  0  0  0
  -15.2016  -37.7355  -12.9496 C   0  0  0  0  0  0  0  0  0  0  0  0
  -16.0892  -36.7053  -13.3096 C   0  0  0  0  0  0  0  0  0  0  0  0
  -17.3707  -36.6030  -12.8082 C   0  0  0  0  0  0  0  0  0  0  0  0
  -17.7102  -37.5826  -11.9323 C   0  0  0  0  0  0  0  0  0  0  0  0
  -14.0032  -37.5767  -13.6043 O   0  0  0  0  0  0  0  0  0  0  0  0
  -13.0698  -38.2391  -14.3201 C   0  0  0  0  0  0  0  0  0  0  0  0
  -12.0203  -38.8138  -13.3715 C   0  0  0  0  0  0  0  0  0  0  0  0
  -11.1559  -37.7821  -12.7565 C   0  0  0  0  0  0  0  0  0  0  0  0
  -11.4628  -37.4227  -11.3281 C   0  0  0  0  0  0  0  0  0  0  0  0
  -11.5127  -38.5828  -10.4521 N   0  0  0  0  0  0  0  0  0  0  0  0
  -12.6079  -39.2826   -9.8639 C   0  0  0  0  0  0  0  0  0  0  0  0
  -13.7518  -38.8584   -9.2356 C   0  0  0  0  0  0  0  0  0  0  0  0
  -14.6509  -39.8055   -8.7786 C   0  0  0  0  0  0  0  0  0  0  0  0
  -14.3212  -41.1701   -8.9922 C   0  0  0  0  0  0  0  0  0  0  0  0
  -13.2244  -41.6129   -9.5936 N   0  0  0  0  0  0  0  0  0  0  0  0
  -12.3858  -40.6781  -10.0199 C   0  0  0  0  0  0  0  0  0  0  0  0
  -15.9440  -39.6787   -8.0990 C   0  0  0  0  0  0  0  0  0  0  0  0
  -16.1135  -40.5375   -7.1111 O   0  0  0  0  0  0  0  0  0  0  0  0
  -17.0715  -38.8618   -8.2349 N   0  0  0  0  0  0  0  0  0  0  0  0
  1  2  1  0
  2  3  1  0
  2  4  1  0
  4  5  2  0
  5  6  1  0
  6  7  2  0
  7  8  1  0
  8  9  2  0
  6 10  1  0
 10 11  1  0
 10 12  1  0
 10 13  1  0
 13 14  1  0
 14 15  1  0
 15 16  1  6
 15 17  1  0
 17 18  1  6
 18 19  1  0
 19 20  2  0
 20 21  1  0
 21 22  2  0
 22 23  1  0
 23 24  2  0
 21 25  1  0
 25 26  1  0
 26 27  1  0
 27 28  1  0
 28 29  1  0
 29 30  1  0
 30 31  1  0
 31 32  2  0
 32 33  1  0
 33 34  2  0
 34 35  1  0
 35 36  2  0
 33 37  1  0
 37 38  2  0
 37 39  1  0
  9  4  1  0
 24 19  1  0
 36 31  1  0
 39 17  1  0
M  END
$$$$
