
     RDKit          3D

 39 42  0  0  0  0  0  0  0  0999 V2000
  -11.1702  -37.4941  -15.1326 C   0  0  0  0  0  0  0  0  0  0  0  0
  -12.5276  -36.9999  -14.7025 C   0  0  0  0  0  0  0  0  0  0  0  0
  -12.4983  -35.4665  -14.6061 C   0  0  0  0  0  0  0  0  0  0  0  0
  -12.9376  -37.5145  -13.3874 C   0  0  0  0  0  0  0  0  0  0  0  0
  -13.9925  -36.9365  -12.6714 C   0  0  0  0  0  0  0  0  0  0  0  0
  -14.3709  -37.4269  -11.4441 C   0  0  0  0  0  0  0  0  0  0  0  0
  -13.7114  -38.4894  -10.9167 C   0  0  0  0  0  0  0  0  0  0  0  0
  -12.6502  -39.0848  -11.6177 C   0  0  0  0  0  0  0  0  0  0  0  0
  -12.2840  -38.5830  -12.8428 C   0  0  0  0  0  0  0  0  0  0  0  0
  -15.5349  -36.7269  -10.7260 C   0  0  0  0  0  0  0  0  0  0  0  0
  -16.7537  -37.0265  -11.5643 C   0  0  0  0  0  0  0  0  0  0  0  0
  -15.1875  -35.2717  -10.8241 C   0  0  0  0  0  0  0  0  0  0  0  0
  -15.5275  -37.2249   -9.4415 N   0  0  0  0  0  0  0  0  0  0  0  0
  -15.8185  -38.5242   -9.0384 C   0  0  0  0  0  0  0  0  0  0  0  0
  -16.5011  -38.6425   -7.7583 C   0  0  1  0  0  0  0  0  0  0  0  0
  -16.5670  -37.4962   -6.9994 O   0  0  0  0  0  0  0  0  0  0  0  0
  -17.8616  -39.3137   -7.7586 C   0  0  2  0  0  0  0  0  0  0  0  0
  -18.0102  -40.3640   -6.6786 C   0  0  0  0  0  0  0  0  0  0  0  0
  -19.3919  -40.3618   -6.1359 C   0  0  0  0  0  0  0  0  0  0  0  0
  -20.4048  -41.2684   -6.1018 C   0  0  0  0  0  0  0  0  0  0  0  0
  -21.6041  -40.9057   -5.5025 C   0  0  0  0  0  0  0  0  0  0  0  0
  -21.7538  -39.6223   -4.9462 C   0  0  0  0  0  0  0  0  0  0  0  0
  -20.7528  -38.6726   -4.9582 C   0  0  0  0  0  0  0  0  0  0  0  0
  -19.6028  -39.0773   -5.5547 C   0  0  0  0  0  0  0  0  0  0  0  0
  -22.7633  -41.6276   -5.3432 O   0  0  0  0  0  0  0  0  0  0  0  0
  -23.2401  -42.8288   -4.9531 C   0  0  0  0  0  0  0  0  0  0  0  0
  -23.2923  -43.7662   -6.1573 C   0  0  0  0  0  0  0  0  0  0  0  0
  -24.3397  -43.4052   -7.1384 C   0  0  0  0  0  0  0  0  0  0  0  0
  -23.8700  -42.7091   -8.3868 C   0  0  0  0  0  0  0  0  0  0  0  0
  -22.8088  -43.4314   -9.0708 N   0  0  0  0  0  0  0  0  0  0  0  0
  -21.4034  -43.2007   -9.1542 C   0  0  0  0  0  0  0  0  0  0  0  0
  -20.6588  -42.0674   -9.3643 C   0  0  0  0  0  0  0  0  0  0  0  0
  -19.2790  -42.1693   -9.3731 C   0  0  0  0  0  0  0  0  0  0  0  0
  -18.7218  -43.4586   -9.1641 C   0  0  0  0  0  0  0  0  0  0  0  0
  -19.4128  -44.5729   -8.9602 N   0  0  0  0  0  0  0  0  0  0  0  0
  -20.7321  -44.4382   -8.9567 C   0  0  0  0  0  0  0  0  0  0  0  0
  -18.2252  -41.1649   -9.5486 C   0  0  0  0  0  0  0  0  0  0  0  0
  -17.2325  -41.5632  -10.3220 O   0  0  0  0  0  0  0  0  0  0  0  0
  -17.9971  -39.8620   -9.0933 N   0  0  0  0  0  0  0  0  0  0  0  0
  1  2  1  0
  2  3  1  0
  2  4  1  0
  4  5  2  0
  5  6  1  0
  6  7  2  0
  7  8  1  0
  8  9  2  0
  6 10  1  0
 10 11  1  0
 10 12  1  0
 10 13  1  0
 13 14  1  0
 14 15  1  0
 15 16  1  6
 15 17  1  0
 17 18  1  1
 18 19  1  0
 19 20  2  0
 20 21  1  0
 21 22  2  0
 22 23  1  0
 23 24  2  0
 21 25  1  0
 25 26  1  0
 26 27  1  0
 27 28  1  0
 28 29  1  0
 29 30  1  0
 30 31  1  0
 31 32  2  0
 32 33  1  0
 33 34  2  0
 34 35  1  0
 35 36  2  0
 33 37  1  0
 37 38  2  0
 37 39  1  0
  9  4  1  0
 24 19  1  0
 36 31  1  0
 39 17  1  0
M  END
$$$$
