
     RDKit          3D

 39 42  0  0  0  0  0  0  0  0999 V2000
  -21.4320  -40.0437   -3.7191 C   0  0  0  0  0  0  0  0  0  0  0  0
  -22.6650  -39.9166   -4.5765 C   0  0  0  0  0  0  0  0  0  0  0  0
  -23.4337  -41.2471   -4.5541 C   0  0  0  0  0  0  0  0  0  0  0  0
  -22.3600  -39.6098   -5.9820 C   0  0  0  0  0  0  0  0  0  0  0  0
  -21.1391  -39.0377   -6.3583 C   0  0  0  0  0  0  0  0  0  0  0  0
  -20.8616  -38.7577   -7.6753 C   0  0  0  0  0  0  0  0  0  0  0  0
  -21.7863  -39.0405   -8.6278 C   0  0  0  0  0  0  0  0  0  0  0  0
  -23.0177  -39.6146   -8.2727 C   0  0  0  0  0  0  0  0  0  0  0  0
  -23.2799  -39.8882   -6.9525 C   0  0  0  0  0  0  0  0  0  0  0  0
  -19.4994  -38.1241   -7.9966 C   0  0  0  0  0  0  0  0  0  0  0  0
  -19.6732  -36.6510   -7.7172 C   0  0  0  0  0  0  0  0  0  0  0  0
  -19.3408  -38.3536   -9.4697 C   0  0  0  0  0  0  0  0  0  0  0  0
  -18.5862  -38.8000   -7.2172 N   0  0  0  0  0  0  0  0  0  0  0  0
  -17.2797  -39.1408   -7.5519 C   0  0  0  0  0  0  0  0  0  0  0  0
  -17.1417  -40.0581   -8.6736 C   0  0  1  0  0  0  0  0  0  0  0  0
  -16.0231  -39.8909   -9.4579 O   0  0  0  0  0  0  0  0  0  0  0  0
  -17.3270  -41.5361   -8.3861 C   0  0  2  0  0  0  0  0  0  0  0  0
  -17.4872  -42.3730   -9.6374 C   0  0  0  0  0  0  0  0  0  0  0  0
  -16.8301  -43.6933   -9.4691 C   0  0  0  0  0  0  0  0  0  0  0  0
  -17.2654  -44.9816   -9.4626 C   0  0  0  0  0  0  0  0  0  0  0  0
  -16.3401  -45.9968   -9.2573 C   0  0  0  0  0  0  0  0  0  0  0  0
  -14.9828  -45.6838   -9.0612 C   0  0  0  0  0  0  0  0  0  0  0  0
  -14.4982  -44.3917   -9.0608 C   0  0  0  0  0  0  0  0  0  0  0  0
  -15.4423  -43.4385   -9.2657 C   0  0  0  0  0  0  0  0  0  0  0  0
  -16.5232  -47.3584   -9.2045 O   0  0  0  0  0  0  0  0  0  0  0  0
  -17.1164  -48.3917   -9.8390 C   0  0  0  0  0  0  0  0  0  0  0  0
  -18.5268  -48.5812   -9.2855 C   0  0  0  0  0  0  0  0  0  0  0  0
  -18.5498  -49.1099   -7.9035 C   0  0  0  0  0  0  0  0  0  0  0  0
  -18.8423  -48.1134   -6.8150 C   0  0  0  0  0  0  0  0  0  0  0  0
  -20.0623  -47.3581   -7.0538 N   0  0  0  0  0  0  0  0  0  0  0  0
  -20.2795  -46.0173   -7.4901 C   0  0  0  0  0  0  0  0  0  0  0  0
  -19.7021  -44.8220   -7.1423 C   0  0  0  0  0  0  0  0  0  0  0  0
  -20.1293  -43.6674   -7.7738 C   0  0  0  0  0  0  0  0  0  0  0  0
  -21.1521  -43.8015   -8.7497 C   0  0  0  0  0  0  0  0  0  0  0  0
  -21.7315  -44.9404   -9.1073 N   0  0  0  0  0  0  0  0  0  0  0  0
  -21.2969  -46.0268   -8.4830 C   0  0  0  0  0  0  0  0  0  0  0  0
  -19.7092  -42.2687   -7.6434 C   0  0  0  0  0  0  0  0  0  0  0  0
  -20.7111  -41.4094   -7.6387 O   0  0  0  0  0  0  0  0  0  0  0  0
  -18.4885  -41.5963   -7.5215 N   0  0  0  0  0  0  0  0  0  0  0  0
  1  2  1  0
  2  3  1  0
  2  4  1  0
  4  5  2  0
  5  6  1  0
  6  7  2  0
  7  8  1  0
  8  9  2  0
  6 10  1  0
 10 11  1  0
 10 12  1  0
 10 13  1  0
 13 14  1  0
 14 15  1  0
 15 16  1  1
 15 17  1  0
 17 18  1  6
 18 19  1  0
 19 20  2  0
 20 21  1  0
 21 22  2  0
 22 23  1  0
 23 24  2  0
 21 25  1  0
 25 26  1  0
 26 27  1  0
 27 28  1  0
 28 29  1  0
 29 30  1  0
 30 31  1  0
 31 32  2  0
 32 33  1  0
 33 34  2  0
 34 35  1  0
 35 36  2  0
 33 37  1  0
 37 38  2  0
 37 39  1  0
  9  4  1  0
 24 19  1  0
 36 31  1  0
 39 17  1  0
M  END
$$$$
