
     RDKit          3D

 39 42  0  0  0  0  0  0  0  0999 V2000
  -13.3165  -34.9787  -13.6815 C   0  0  0  0  0  0  0  0  0  0  0  0
  -14.1557  -35.7578  -12.7015 C   0  0  0  0  0  0  0  0  0  0  0  0
  -14.9340  -34.7756  -11.8121 C   0  0  0  0  0  0  0  0  0  0  0  0
  -13.3568  -36.6154  -11.8134 C   0  0  0  0  0  0  0  0  0  0  0  0
  -13.8338  -37.8537  -11.3677 C   0  0  0  0  0  0  0  0  0  0  0  0
  -13.0780  -38.6501  -10.5404 C   0  0  0  0  0  0  0  0  0  0  0  0
  -11.8484  -38.2298  -10.1485 C   0  0  0  0  0  0  0  0  0  0  0  0
  -11.3501  -36.9910  -10.5837 C   0  0  0  0  0  0  0  0  0  0  0  0
  -12.1175  -36.2067  -11.4100 C   0  0  0  0  0  0  0  0  0  0  0  0
  -13.6831  -39.9902  -10.0950 C   0  0  0  0  0  0  0  0  0  0  0  0
  -12.5861  -41.0064  -10.2999 C   0  0  0  0  0  0  0  0  0  0  0  0
  -14.7907  -40.2228  -11.0783 C   0  0  0  0  0  0  0  0  0  0  0  0
  -14.1090  -39.7893   -8.8002 N   0  0  0  0  0  0  0  0  0  0  0  0
  -15.0618  -38.8777   -8.3571 C   0  0  0  0  0  0  0  0  0  0  0  0
  -15.9751  -39.3748   -7.3385 C   0  0  1  0  0  0  0  0  0  0  0  0
  -16.1285  -38.5816   -6.2243 O   0  0  0  0  0  0  0  0  0  0  0  0
  -17.3410  -39.8440   -7.8028 C   0  0  2  0  0  0  0  0  0  0  0  0
  -18.2988  -40.1165   -6.6626 C   0  0  0  0  0  0  0  0  0  0  0  0
  -19.6806  -39.7252   -7.0378 C   0  0  0  0  0  0  0  0  0  0  0  0
  -20.8551  -40.3946   -7.1849 C   0  0  0  0  0  0  0  0  0  0  0  0
  -21.9834  -39.6839   -7.5731 C   0  0  0  0  0  0  0  0  0  0  0  0
  -21.8982  -38.2993   -7.8062 C   0  0  0  0  0  0  0  0  0  0  0  0
  -20.7281  -37.5809   -7.6683 C   0  0  0  0  0  0  0  0  0  0  0  0
  -19.6566  -38.3218   -7.2874 C   0  0  0  0  0  0  0  0  0  0  0  0
  -23.2687  -40.1211   -7.7903 O   0  0  0  0  0  0  0  0  0  0  0  0
  -24.2544  -40.8763   -7.2607 C   0  0  0  0  0  0  0  0  0  0  0  0
  -24.1066  -42.3149   -7.7508 C   0  0  0  0  0  0  0  0  0  0  0  0
  -24.4272  -42.4830   -9.1856 C   0  0  0  0  0  0  0  0  0  0  0  0
  -23.2540  -42.6194  -10.1176 C   0  0  0  0  0  0  0  0  0  0  0  0
  -22.3298  -43.6671   -9.7126 N   0  0  0  0  0  0  0  0  0  0  0  0
  -21.0449  -43.6139   -9.0951 C   0  0  0  0  0  0  0  0  0  0  0  0
  -19.9380  -42.8342   -9.3190 C   0  0  0  0  0  0  0  0  0  0  0  0
  -18.8230  -43.0156   -8.5201 C   0  0  0  0  0  0  0  0  0  0  0  0
  -18.9021  -44.0121   -7.5116 C   0  0  0  0  0  0  0  0  0  0  0  0
  -19.9550  -44.7829   -7.2706 N   0  0  0  0  0  0  0  0  0  0  0  0
  -21.0059  -44.5812   -8.0540 C   0  0  0  0  0  0  0  0  0  0  0  0
  -17.5195  -42.3449   -8.4934 C   0  0  0  0  0  0  0  0  0  0  0  0
  -16.5001  -43.1671   -8.3288 O   0  0  0  0  0  0  0  0  0  0  0  0
  -17.0697  -41.0244   -8.5986 N   0  0  0  0  0  0  0  0  0  0  0  0
  1  2  1  0
  2  3  1  0
  2  4  1  0
  4  5  2  0
  5  6  1  0
  6  7  2  0
  7  8  1  0
  8  9  2  0
  6 10  1  0
 10 11  1  0
 10 12  1  0
 10 13  1  0
 13 14  1  0
 14 15  1  0
 15 16  1  1
 15 17  1  0
 17 18  1  1
 18 19  1  0
 19 20  2  0
 20 21  1  0
 21 22  2  0
 22 23  1  0
 23 24  2  0
 21 25  1  0
 25 26  1  0
 26 27  1  0
 27 28  1  0
 28 29  1  0
 29 30  1  0
 30 31  1  0
 31 32  2  0
 32 33  1  0
 33 34  2  0
 34 35  1  0
 35 36  2  0
 33 37  1  0
 37 38  2  0
 37 39  1  0
  9  4  1  0
 24 19  1  0
 36 31  1  0
 39 17  1  0
M  END
$$$$
