
     RDKit          3D

 39 42  0  0  0  0  0  0  0  0999 V2000
  -20.7651  -42.1889   -9.8454 C   0  0  0  0  0  0  0  0  0  0  0  0
  -21.8476  -41.1415   -9.9004 C   0  0  0  0  0  0  0  0  0  0  0  0
  -21.3875  -39.9884  -10.8061 C   0  0  0  0  0  0  0  0  0  0  0  0
  -22.1604  -40.5670   -8.5834 C   0  0  0  0  0  0  0  0  0  0  0  0
  -21.3820  -40.8536   -7.4559 C   0  0  0  0  0  0  0  0  0  0  0  0
  -21.6802  -40.3088   -6.2295 C   0  0  0  0  0  0  0  0  0  0  0  0
  -22.7473  -39.4788   -6.1086 C   0  0  0  0  0  0  0  0  0  0  0  0
  -23.5420  -39.1776   -7.2266 C   0  0  0  0  0  0  0  0  0  0  0  0
  -23.2310  -39.7300   -8.4451 C   0  0  0  0  0  0  0  0  0  0  0  0
  -20.7758  -40.6832   -5.0454 C   0  0  0  0  0  0  0  0  0  0  0  0
  -19.9538  -41.8524   -5.5304 C   0  0  0  0  0  0  0  0  0  0  0  0
  -21.7415  -41.1347   -3.9911 C   0  0  0  0  0  0  0  0  0  0  0  0
  -20.0896  -39.5314   -4.7280 N   0  0  0  0  0  0  0  0  0  0  0  0
  -18.8091  -39.1724   -5.1360 C   0  0  0  0  0  0  0  0  0  0  0  0
  -18.7364  -38.4407   -6.3922 C   0  0  1  0  0  0  0  0  0  0  0  0
  -18.5610  -37.0793   -6.2902 O   0  0  0  0  0  0  0  0  0  0  0  0
  -17.7987  -38.9813   -7.4552 C   0  0  2  0  0  0  0  0  0  0  0  0
  -17.8875  -38.2323   -8.7677 C   0  0  0  0  0  0  0  0  0  0  0  0
  -16.5500  -38.1351   -9.4040 C   0  0  0  0  0  0  0  0  0  0  0  0
  -16.0119  -38.5887  -10.5675 C   0  0  0  0  0  0  0  0  0  0  0  0
  -14.6781  -38.3111  -10.8380 C   0  0  0  0  0  0  0  0  0  0  0  0
  -13.9112  -37.5743   -9.9173 C   0  0  0  0  0  0  0  0  0  0  0  0
  -14.4167  -37.0949   -8.7261 C   0  0  0  0  0  0  0  0  0  0  0  0
  -15.7231  -37.3931   -8.5107 C   0  0  0  0  0  0  0  0  0  0  0  0
  -13.9098  -38.6535  -11.9255 O   0  0  0  0  0  0  0  0  0  0  0  0
  -13.9015  -38.6763  -13.2753 C   0  0  0  0  0  0  0  0  0  0  0  0
  -14.4721  -40.0067  -13.7611 C   0  0  0  0  0  0  0  0  0  0  0  0
  -13.5804  -41.1587  -13.5013 C   0  0  0  0  0  0  0  0  0  0  0  0
  -13.9555  -42.0420  -12.3426 C   0  0  0  0  0  0  0  0  0  0  0  0
  -15.3299  -42.5131  -12.4134 N   0  0  0  0  0  0  0  0  0  0  0  0
  -16.5043  -42.1271  -11.7013 C   0  0  0  0  0  0  0  0  0  0  0  0
  -16.7443  -41.8710  -10.3747 C   0  0  0  0  0  0  0  0  0  0  0  0
  -18.0178  -41.4910   -9.9897 C   0  0  0  0  0  0  0  0  0  0  0  0
  -19.0023  -41.3941  -11.0084 C   0  0  0  0  0  0  0  0  0  0  0  0
  -18.8035  -41.6362  -12.2978 N   0  0  0  0  0  0  0  0  0  0  0  0
  -17.5716  -41.9966  -12.6313 C   0  0  0  0  0  0  0  0  0  0  0  0
  -18.5795  -41.1372   -8.6823 C   0  0  0  0  0  0  0  0  0  0  0  0
  -19.7774  -41.6458   -8.4614 O   0  0  0  0  0  0  0  0  0  0  0  0
  -18.1609  -40.3787   -7.5839 N   0  0  0  0  0  0  0  0  0  0  0  0
  1  2  1  0
  2  3  1  0
  2  4  1  0
  4  5  2  0
  5  6  1  0
  6  7  2  0
  7  8  1  0
  8  9  2  0
  6 10  1  0
 10 11  1  0
 10 12  1  0
 10 13  1  0
 13 14  1  0
 14 15  1  0
 15 16  1  1
 15 17  1  0
 17 18  1  6
 18 19  1  0
 19 20  2  0
 20 21  1  0
 21 22  2  0
 22 23  1  0
 23 24  2  0
 21 25  1  0
 25 26  1  0
 26 27  1  0
 27 28  1  0
 28 29  1  0
 29 30  1  0
 30 31  1  0
 31 32  2  0
 32 33  1  0
 33 34  2  0
 34 35  1  0
 35 36  2  0
 33 37  1  0
 37 38  2  0
 37 39  1  0
  9  4  1  0
 24 19  1  0
 36 31  1  0
 39 17  1  0
M  END
$$$$
