
     RDKit          3D

 39 42  0  0  0  0  0  0  0  0999 V2000
  -17.1788  -33.8321  -11.7676 C   0  0  0  0  0  0  0  0  0  0  0  0
  -16.1122  -34.4282  -10.8852 C   0  0  0  0  0  0  0  0  0  0  0  0
  -14.9539  -33.4276  -10.7486 C   0  0  0  0  0  0  0  0  0  0  0  0
  -15.5520  -35.6772  -11.4226 C   0  0  0  0  0  0  0  0  0  0  0  0
  -15.1600  -36.7253  -10.5816 C   0  0  0  0  0  0  0  0  0  0  0  0
  -14.6406  -37.8906  -11.0936 C   0  0  0  0  0  0  0  0  0  0  0  0
  -14.5052  -38.0284  -12.4370 C   0  0  0  0  0  0  0  0  0  0  0  0
  -14.8920  -36.9897  -13.2992 C   0  0  0  0  0  0  0  0  0  0  0  0
  -15.4092  -35.8315  -12.7722 C   0  0  0  0  0  0  0  0  0  0  0  0
  -14.2308  -38.9855  -10.0968 C   0  0  0  0  0  0  0  0  0  0  0  0
  -12.9046  -38.5328   -9.5359 C   0  0  0  0  0  0  0  0  0  0  0  0
  -14.0384  -40.1962  -10.9601 C   0  0  0  0  0  0  0  0  0  0  0  0
  -15.2789  -39.0852   -9.2082 N   0  0  0  0  0  0  0  0  0  0  0  0
  -15.4433  -38.3879   -8.0157 C   0  0  0  0  0  0  0  0  0  0  0  0
  -16.0902  -39.1295   -6.9431 C   0  0  1  0  0  0  0  0  0  0  0  0
  -16.1231  -38.5108   -5.7141 O   0  0  0  0  0  0  0  0  0  0  0  0
  -17.4568  -39.7197   -7.2358 C   0  0  2  0  0  0  0  0  0  0  0  0
  -18.1960  -40.1619   -5.9910 C   0  0  0  0  0  0  0  0  0  0  0  0
  -19.6514  -39.9053   -6.1302 C   0  0  0  0  0  0  0  0  0  0  0  0
  -20.7608  -40.6912   -6.1528 C   0  0  0  0  0  0  0  0  0  0  0  0
  -22.0013  -40.0889   -6.3184 C   0  0  0  0  0  0  0  0  0  0  0  0
  -22.0930  -38.6922   -6.4591 C   0  0  0  0  0  0  0  0  0  0  0  0
  -20.9942  -37.8577   -6.4414 C   0  0  0  0  0  0  0  0  0  0  0  0
  -19.8078  -38.4959   -6.2769 C   0  0  0  0  0  0  0  0  0  0  0  0
  -23.2538  -40.6527   -6.3768 O   0  0  0  0  0  0  0  0  0  0  0  0
  -24.0654  -41.5417   -5.7657 C   0  0  0  0  0  0  0  0  0  0  0  0
  -23.8499  -42.9245   -6.3764 C   0  0  0  0  0  0  0  0  0  0  0  0
  -24.3680  -43.0444   -7.7574 C   0  0  0  0  0  0  0  0  0  0  0  0
  -23.3438  -42.9961   -8.8584 C   0  0  0  0  0  0  0  0  0  0  0  0
  -22.2675  -43.9564   -8.6710 N   0  0  0  0  0  0  0  0  0  0  0  0
  -20.9151  -43.7966   -8.2459 C   0  0  0  0  0  0  0  0  0  0  0  0
  -19.9401  -42.8875   -8.5714 C   0  0  0  0  0  0  0  0  0  0  0  0
  -18.7033  -42.9897   -7.9596 C   0  0  0  0  0  0  0  0  0  0  0  0
  -18.5258  -44.0451   -7.0264 C   0  0  0  0  0  0  0  0  0  0  0  0
  -19.4460  -44.9404   -6.6913 N   0  0  0  0  0  0  0  0  0  0  0  0
  -20.6195  -44.8118   -7.2956 C   0  0  0  0  0  0  0  0  0  0  0  0
  -17.4855  -42.1812   -8.0748 C   0  0  0  0  0  0  0  0  0  0  0  0
  -16.3752  -42.8934   -8.1218 O   0  0  0  0  0  0  0  0  0  0  0  0
  -17.1928  -40.8151   -8.1473 N   0  0  0  0  0  0  0  0  0  0  0  0
  1  2  1  0
  2  3  1  0
  2  4  1  0
  4  5  2  0
  5  6  1  0
  6  7  2  0
  7  8  1  0
  8  9  2  0
  6 10  1  0
 10 11  1  0
 10 12  1  0
 10 13  1  0
 13 14  1  0
 14 15  1  0
 15 16  1  1
 15 17  1  0
 17 18  1  1
 18 19  1  0
 19 20  2  0
 20 21  1  0
 21 22  2  0
 22 23  1  0
 23 24  2  0
 21 25  1  0
 25 26  1  0
 26 27  1  0
 27 28  1  0
 28 29  1  0
 29 30  1  0
 30 31  1  0
 31 32  2  0
 32 33  1  0
 33 34  2  0
 34 35  1  0
 35 36  2  0
 33 37  1  0
 37 38  2  0
 37 39  1  0
  9  4  1  0
 24 19  1  0
 36 31  1  0
 39 17  1  0
M  END
$$$$
