
     RDKit          3D

 39 42  0  0  0  0  0  0  0  0999 V2000
  -10.3822  -41.8939  -12.5025 C   0  0  0  0  0  0  0  0  0  0  0  0
  -10.8127  -40.5407  -11.9971 C   0  0  0  0  0  0  0  0  0  0  0  0
  -10.2639  -40.3355  -10.5764 C   0  0  0  0  0  0  0  0  0  0  0  0
  -12.2738  -40.3896  -11.9290 C   0  0  0  0  0  0  0  0  0  0  0  0
  -12.8689  -39.1648  -11.6046 C   0  0  0  0  0  0  0  0  0  0  0  0
  -14.2360  -39.0324  -11.5469 C   0  0  0  0  0  0  0  0  0  0  0  0
  -15.0232  -40.1066  -11.8090 C   0  0  0  0  0  0  0  0  0  0  0  0
  -14.4474  -41.3448  -12.1366 C   0  0  0  0  0  0  0  0  0  0  0  0
  -13.0798  -41.4610  -12.1899 C   0  0  0  0  0  0  0  0  0  0  0  0
  -14.8026  -37.6532  -11.1765 C   0  0  0  0  0  0  0  0  0  0  0  0
  -16.0323  -37.4874  -12.0359 C   0  0  0  0  0  0  0  0  0  0  0  0
  -13.7328  -36.7005  -11.6192 C   0  0  0  0  0  0  0  0  0  0  0  0
  -14.9985  -37.6899   -9.8133 N   0  0  0  0  0  0  0  0  0  0  0  0
  -16.1861  -37.4632   -9.1251 C   0  0  0  0  0  0  0  0  0  0  0  0
  -16.4283  -38.3435   -7.9914 C   0  0  1  0  0  0  0  0  0  0  0  0
  -16.2951  -37.7753   -6.7449 O   0  0  0  0  0  0  0  0  0  0  0  0
  -17.6948  -39.1781   -8.0211 C   0  0  2  0  0  0  0  0  0  0  0  0
  -18.1879  -39.5655   -6.6433 C   0  0  0  0  0  0  0  0  0  0  0  0
  -19.6716  -39.5656   -6.6015 C   0  0  0  0  0  0  0  0  0  0  0  0
  -20.6197  -40.5151   -6.3807 C   0  0  0  0  0  0  0  0  0  0  0  0
  -21.9576  -40.1461   -6.4331 C   0  0  0  0  0  0  0  0  0  0  0  0
  -22.3103  -38.8128   -6.7104 C   0  0  0  0  0  0  0  0  0  0  0  0
  -21.3818  -37.8182   -6.9399 C   0  0  0  0  0  0  0  0  0  0  0  0
  -20.0904  -38.2311   -6.8770 C   0  0  0  0  0  0  0  0  0  0  0  0
  -23.0890  -40.9058   -6.2513 O   0  0  0  0  0  0  0  0  0  0  0  0
  -23.6509  -41.8252   -5.4380 C   0  0  0  0  0  0  0  0  0  0  0  0
  -23.2711  -43.2238   -5.9191 C   0  0  0  0  0  0  0  0  0  0  0  0
  -23.9239  -43.6053   -7.1912 C   0  0  0  0  0  0  0  0  0  0  0  0
  -23.0657  -43.5387   -8.4251 C   0  0  0  0  0  0  0  0  0  0  0  0
  -21.8224  -44.2813   -8.2891 N   0  0  0  0  0  0  0  0  0  0  0  0
  -20.4778  -43.8527   -8.0802 C   0  0  0  0  0  0  0  0  0  0  0  0
  -19.7251  -42.8500   -8.6379 C   0  0  0  0  0  0  0  0  0  0  0  0
  -18.4246  -42.6717   -8.2005 C   0  0  0  0  0  0  0  0  0  0  0  0
  -17.9519  -43.5533   -7.1927 C   0  0  0  0  0  0  0  0  0  0  0  0
  -18.6525  -44.5326   -6.6349 N   0  0  0  0  0  0  0  0  0  0  0  0
  -19.8948  -44.6739   -7.0768 C   0  0  0  0  0  0  0  0  0  0  0  0
  -17.3914  -41.7010   -8.5746 C   0  0  0  0  0  0  0  0  0  0  0  0
  -16.1871  -42.2262   -8.7011 O   0  0  0  0  0  0  0  0  0  0  0  0
  -17.3549  -40.3272   -8.8362 N   0  0  0  0  0  0  0  0  0  0  0  0
  1  2  1  0
  2  3  1  0
  2  4  1  0
  4  5  2  0
  5  6  1  0
  6  7  2  0
  7  8  1  0
  8  9  2  0
  6 10  1  0
 10 11  1  0
 10 12  1  0
 10 13  1  0
 13 14  1  0
 14 15  1  0
 15 16  1  1
 15 17  1  0
 17 18  1  1
 18 19  1  0
 19 20  2  0
 20 21  1  0
 21 22  2  0
 22 23  1  0
 23 24  2  0
 21 25  1  0
 25 26  1  0
 26 27  1  0
 27 28  1  0
 28 29  1  0
 29 30  1  0
 30 31  1  0
 31 32  2  0
 32 33  1  0
 33 34  2  0
 34 35  1  0
 35 36  2  0
 33 37  1  0
 37 38  2  0
 37 39  1  0
  9  4  1  0
 24 19  1  0
 36 31  1  0
 39 17  1  0
M  END
$$$$
