
     RDKit          3D

 39 42  0  0  0  0  0  0  0  0999 V2000
  -16.0037  -43.7316  -11.4201 C   0  0  0  0  0  0  0  0  0  0  0  0
  -14.6907  -43.3577  -12.0588 C   0  0  0  0  0  0  0  0  0  0  0  0
  -13.5599  -43.5508  -11.0363 C   0  0  0  0  0  0  0  0  0  0  0  0
  -14.6452  -41.9570  -12.5040 C   0  0  0  0  0  0  0  0  0  0  0  0
  -14.3327  -40.9174  -11.6201 C   0  0  0  0  0  0  0  0  0  0  0  0
  -14.2891  -39.6113  -12.0465 C   0  0  0  0  0  0  0  0  0  0  0  0
  -14.5532  -39.3234  -13.3463 C   0  0  0  0  0  0  0  0  0  0  0  0
  -14.8690  -40.3506  -14.2504 C   0  0  0  0  0  0  0  0  0  0  0  0
  -14.9086  -41.6507  -13.8088 C   0  0  0  0  0  0  0  0  0  0  0  0
  -13.9439  -38.5342  -11.0067 C   0  0  0  0  0  0  0  0  0  0  0  0
  -14.0740  -37.2213  -11.7398 C   0  0  0  0  0  0  0  0  0  0  0  0
  -12.5048  -38.8029  -10.6830 C   0  0  0  0  0  0  0  0  0  0  0  0
  -14.8092  -38.7466   -9.9559 N   0  0  0  0  0  0  0  0  0  0  0  0
  -16.0113  -38.0921   -9.7071 C   0  0  0  0  0  0  0  0  0  0  0  0
  -16.5763  -38.3062   -8.3829 C   0  0  1  0  0  0  0  0  0  0  0  0
  -16.7404  -37.1820   -7.6060 O   0  0  0  0  0  0  0  0  0  0  0  0
  -17.8303  -39.1554   -8.2942 C   0  0  2  0  0  0  0  0  0  0  0  0
  -18.2682  -39.4279   -6.8709 C   0  0  0  0  0  0  0  0  0  0  0  0
  -19.7494  -39.4422   -6.7750 C   0  0  0  0  0  0  0  0  0  0  0  0
  -20.6746  -40.3802   -6.4386 C   0  0  0  0  0  0  0  0  0  0  0  0
  -22.0190  -40.0331   -6.4735 C   0  0  0  0  0  0  0  0  0  0  0  0
  -22.4013  -38.7332   -6.8515 C   0  0  0  0  0  0  0  0  0  0  0  0
  -21.4966  -37.7511   -7.1997 C   0  0  0  0  0  0  0  0  0  0  0  0
  -20.1978  -38.1416   -7.1488 C   0  0  0  0  0  0  0  0  0  0  0  0
  -23.1316  -40.7878   -6.1857 O   0  0  0  0  0  0  0  0  0  0  0  0
  -23.6504  -41.6399   -5.2762 C   0  0  0  0  0  0  0  0  0  0  0  0
  -23.2668  -43.0703   -5.6487 C   0  0  0  0  0  0  0  0  0  0  0  0
  -23.9585  -43.5683   -6.8584 C   0  0  0  0  0  0  0  0  0  0  0  0
  -23.1457  -43.5985   -8.1241 C   0  0  0  0  0  0  0  0  0  0  0  0
  -21.8873  -44.3116   -7.9703 N   0  0  0  0  0  0  0  0  0  0  0  0
  -20.5428  -43.8506   -7.8485 C   0  0  0  0  0  0  0  0  0  0  0  0
  -19.8255  -42.8909   -8.5176 C   0  0  0  0  0  0  0  0  0  0  0  0
  -18.5132  -42.6599   -8.1451 C   0  0  0  0  0  0  0  0  0  0  0  0
  -17.9918  -43.4452   -7.0832 C   0  0  0  0  0  0  0  0  0  0  0  0
  -18.6573  -44.3808   -6.4178 N   0  0  0  0  0  0  0  0  0  0  0  0
  -19.9123  -44.5747   -6.8001 C   0  0  0  0  0  0  0  0  0  0  0  0
  -17.5086  -41.7129   -8.6391 C   0  0  0  0  0  0  0  0  0  0  0  0
  -16.3018  -42.2327   -8.7639 O   0  0  0  0  0  0  0  0  0  0  0  0
  -17.5022  -40.3666   -9.0192 N   0  0  0  0  0  0  0  0  0  0  0  0
  1  2  1  0
  2  3  1  0
  2  4  1  0
  4  5  2  0
  5  6  1  0
  6  7  2  0
  7  8  1  0
  8  9  2  0
  6 10  1  0
 10 11  1  0
 10 12  1  0
 10 13  1  0
 13 14  1  0
 14 15  1  0
 15 16  1  6
 15 17  1  0
 17 18  1  1
 18 19  1  0
 19 20  2  0
 20 21  1  0
 21 22  2  0
 22 23  1  0
 23 24  2  0
 21 25  1  0
 25 26  1  0
 26 27  1  0
 27 28  1  0
 28 29  1  0
 29 30  1  0
 30 31  1  0
 31 32  2  0
 32 33  1  0
 33 34  2  0
 34 35  1  0
 35 36  2  0
 33 37  1  0
 37 38  2  0
 37 39  1  0
  9  4  1  0
 24 19  1  0
 36 31  1  0
 39 17  1  0
M  END
$$$$
