
     RDKit          3D

 39 42  0  0  0  0  0  0  0  0999 V2000
  -11.3413  -34.6342  -11.6267 C   0  0  0  0  0  0  0  0  0  0  0  0
  -12.7065  -34.7266  -12.2587 C   0  0  0  0  0  0  0  0  0  0  0  0
  -13.6963  -33.8766  -11.4466 C   0  0  0  0  0  0  0  0  0  0  0  0
  -13.2330  -36.0991  -12.2940 C   0  0  0  0  0  0  0  0  0  0  0  0
  -13.3489  -36.8692  -11.1308 C   0  0  0  0  0  0  0  0  0  0  0  0
  -13.8457  -38.1503  -11.1734 C   0  0  0  0  0  0  0  0  0  0  0  0
  -14.2307  -38.6786  -12.3629 C   0  0  0  0  0  0  0  0  0  0  0  0
  -14.1231  -37.9239  -13.5423 C   0  0  0  0  0  0  0  0  0  0  0  0
  -13.6246  -36.6454  -13.4831 C   0  0  0  0  0  0  0  0  0  0  0  0
  -13.9315  -38.9248   -9.8493 C   0  0  0  0  0  0  0  0  0  0  0  0
  -12.5020  -39.0856   -9.3924 C   0  0  0  0  0  0  0  0  0  0  0  0
  -14.4958  -40.2540  -10.2527 C   0  0  0  0  0  0  0  0  0  0  0  0
  -14.7615  -38.1798   -9.0404 N   0  0  0  0  0  0  0  0  0  0  0  0
  -16.1483  -38.2525   -8.9592 C   0  0  0  0  0  0  0  0  0  0  0  0
  -16.6772  -38.6659   -7.6677 C   0  0  1  0  0  0  0  0  0  0  0  0
  -16.6578  -37.7146   -6.6732 O   0  0  0  0  0  0  0  0  0  0  0  0
  -18.0266  -39.3591   -7.6619 C   0  0  2  0  0  0  0  0  0  0  0  0
  -18.4486  -39.8343   -6.2879 C   0  0  0  0  0  0  0  0  0  0  0  0
  -19.9153  -39.6870   -6.1131 C   0  0  0  0  0  0  0  0  0  0  0  0
  -20.9421  -40.5523   -5.8983 C   0  0  0  0  0  0  0  0  0  0  0  0
  -22.2309  -40.0450   -5.7952 C   0  0  0  0  0  0  0  0  0  0  0  0
  -22.4547  -38.6612   -5.9129 C   0  0  0  0  0  0  0  0  0  0  0  0
  -21.4429  -37.7483   -6.1302 C   0  0  0  0  0  0  0  0  0  0  0  0
  -20.2043  -38.2954   -6.2228 C   0  0  0  0  0  0  0  0  0  0  0  0
  -23.4213  -40.6997   -5.5848 O   0  0  0  0  0  0  0  0  0  0  0  0
  -24.0153  -41.6359   -4.8146 C   0  0  0  0  0  0  0  0  0  0  0  0
  -23.8320  -43.0088   -5.4574 C   0  0  0  0  0  0  0  0  0  0  0  0
  -24.6218  -43.1881   -6.6959 C   0  0  0  0  0  0  0  0  0  0  0  0
  -23.8621  -43.0825   -7.9902 C   0  0  0  0  0  0  0  0  0  0  0  0
  -22.7018  -43.9584   -8.0371 N   0  0  0  0  0  0  0  0  0  0  0  0
  -21.3057  -43.6935   -7.9106 C   0  0  0  0  0  0  0  0  0  0  0  0
  -20.4933  -42.7207   -8.4367 C   0  0  0  0  0  0  0  0  0  0  0  0
  -19.1505  -42.7225   -8.1032 C   0  0  0  0  0  0  0  0  0  0  0  0
  -18.6998  -43.7472   -7.2295 C   0  0  0  0  0  0  0  0  0  0  0  0
  -19.4580  -44.7020   -6.7058 N   0  0  0  0  0  0  0  0  0  0  0  0
  -20.7395  -44.6691   -7.0455 C   0  0  0  0  0  0  0  0  0  0  0  0
  -18.0491  -41.8291   -8.4756 C   0  0  0  0  0  0  0  0  0  0  0  0
  -16.9242  -42.4589   -8.7588 O   0  0  0  0  0  0  0  0  0  0  0  0
  -17.8817  -40.4466   -8.6088 N   0  0  0  0  0  0  0  0  0  0  0  0
  1  2  1  0
  2  3  1  0
  2  4  1  0
  4  5  2  0
  5  6  1  0
  6  7  2  0
  7  8  1  0
  8  9  2  0
  6 10  1  0
 10 11  1  0
 10 12  1  0
 10 13  1  0
 13 14  1  0
 14 15  1  0
 15 16  1  1
 15 17  1  0
 17 18  1  1
 18 19  1  0
 19 20  2  0
 20 21  1  0
 21 22  2  0
 22 23  1  0
 23 24  2  0
 21 25  1  0
 25 26  1  0
 26 27  1  0
 27 28  1  0
 28 29  1  0
 29 30  1  0
 30 31  1  0
 31 32  2  0
 32 33  1  0
 33 34  2  0
 34 35  1  0
 35 36  2  0
 33 37  1  0
 37 38  2  0
 37 39  1  0
  9  4  1  0
 24 19  1  0
 36 31  1  0
 39 17  1  0
M  END
$$$$
