
     RDKit          3D

 39 42  0  0  0  0  0  0  0  0999 V2000
  -17.4663  -46.9703   -5.7372 C   0  0  0  0  0  0  0  0  0  0  0  0
  -17.6286  -45.5270   -6.1401 C   0  0  0  0  0  0  0  0  0  0  0  0
  -19.1233  -45.2191   -6.3204 C   0  0  0  0  0  0  0  0  0  0  0  0
  -16.9581  -45.2043   -7.4085 C   0  0  0  0  0  0  0  0  0  0  0  0
  -16.2814  -43.9927   -7.5915 C   0  0  0  0  0  0  0  0  0  0  0  0
  -15.6545  -43.7015   -8.7797 C   0  0  0  0  0  0  0  0  0  0  0  0
  -15.6916  -44.6033   -9.7935 C   0  0  0  0  0  0  0  0  0  0  0  0
  -16.3648  -45.8251   -9.6317 C   0  0  0  0  0  0  0  0  0  0  0  0
  -16.9864  -46.1011   -8.4383 C   0  0  0  0  0  0  0  0  0  0  0  0
  -14.9413  -42.3456   -8.8947 C   0  0  0  0  0  0  0  0  0  0  0  0
  -14.8349  -42.0796  -10.3766 C   0  0  0  0  0  0  0  0  0  0  0  0
  -13.5821  -42.6106   -8.3202 C   0  0  0  0  0  0  0  0  0  0  0  0
  -15.7044  -41.4651   -8.1594 N   0  0  0  0  0  0  0  0  0  0  0  0
  -15.2521  -40.4204   -7.3599 C   0  0  0  0  0  0  0  0  0  0  0  0
  -16.2925  -39.6239   -6.7258 C   0  0  1  0  0  0  0  0  0  0  0  0
  -16.0017  -38.2927   -6.5318 O   0  0  0  0  0  0  0  0  0  0  0  0
  -17.6966  -39.7462   -7.2869 C   0  0  2  0  0  0  0  0  0  0  0  0
  -18.6849  -38.8024   -6.6356 C   0  0  0  0  0  0  0  0  0  0  0  0
  -19.6673  -38.3073   -7.6321 C   0  0  0  0  0  0  0  0  0  0  0  0
  -21.0154  -38.4120   -7.7762 C   0  0  0  0  0  0  0  0  0  0  0  0
  -21.6170  -37.8126   -8.8752 C   0  0  0  0  0  0  0  0  0  0  0  0
  -20.8346  -37.1143   -9.8128 C   0  0  0  0  0  0  0  0  0  0  0  0
  -19.4652  -36.9829   -9.7052 C   0  0  0  0  0  0  0  0  0  0  0  0
  -18.9278  -37.5861   -8.6146 C   0  0  0  0  0  0  0  0  0  0  0  0
  -22.9409  -37.7760   -9.2441 O   0  0  0  0  0  0  0  0  0  0  0  0
  -24.1851  -37.5452   -8.7737 C   0  0  0  0  0  0  0  0  0  0  0  0
  -24.7782  -38.8523   -8.2529 C   0  0  0  0  0  0  0  0  0  0  0  0
  -25.1081  -39.8168   -9.3257 C   0  0  0  0  0  0  0  0  0  0  0  0
  -24.1468  -40.9592   -9.5114 C   0  0  0  0  0  0  0  0  0  0  0  0
  -23.8927  -41.6894   -8.2794 N   0  0  0  0  0  0  0  0  0  0  0  0
  -22.7731  -41.7005   -7.3953 C   0  0  0  0  0  0  0  0  0  0  0  0
  -21.4189  -41.7523   -7.6117 C   0  0  0  0  0  0  0  0  0  0  0  0
  -20.5688  -41.7293   -6.5202 C   0  0  0  0  0  0  0  0  0  0  0  0
  -21.1657  -41.6557   -5.2339 C   0  0  0  0  0  0  0  0  0  0  0  0
  -22.4692  -41.6062   -4.9908 N   0  0  0  0  0  0  0  0  0  0  0  0
  -23.2541  -41.6287   -6.0595 C   0  0  0  0  0  0  0  0  0  0  0  0
  -19.1063  -41.7520   -6.4192 C   0  0  0  0  0  0  0  0  0  0  0  0
  -18.6503  -42.5351   -5.4594 O   0  0  0  0  0  0  0  0  0  0  0  0
  -18.0455  -41.1397   -7.0952 N   0  0  0  0  0  0  0  0  0  0  0  0
  1  2  1  0
  2  3  1  0
  2  4  1  0
  4  5  2  0
  5  6  1  0
  6  7  2  0
  7  8  1  0
  8  9  2  0
  6 10  1  0
 10 11  1  0
 10 12  1  0
 10 13  1  0
 13 14  1  0
 14 15  1  0
 15 16  1  6
 15 17  1  0
 17 18  1  1
 18 19  1  0
 19 20  2  0
 20 21  1  0
 21 22  2  0
 22 23  1  0
 23 24  2  0
 21 25  1  0
 25 26  1  0
 26 27  1  0
 27 28  1  0
 28 29  1  0
 29 30  1  0
 30 31  1  0
 31 32  2  0
 32 33  1  0
 33 34  2  0
 34 35  1  0
 35 36  2  0
 33 37  1  0
 37 38  2  0
 37 39  1  0
  9  4  1  0
 24 19  1  0
 36 31  1  0
 39 17  1  0
M  END
$$$$
