
     RDKit          3D

 39 42  0  0  0  0  0  0  0  0999 V2000
  -16.4242  -34.2000  -12.7460 C   0  0  0  0  0  0  0  0  0  0  0  0
  -16.9372  -35.5409  -12.2873 C   0  0  0  0  0  0  0  0  0  0  0  0
  -17.4788  -35.4101  -10.8551 C   0  0  0  0  0  0  0  0  0  0  0  0
  -15.8969  -36.5801  -12.2698 C   0  0  0  0  0  0  0  0  0  0  0  0
  -15.4218  -37.1205  -11.0691 C   0  0  0  0  0  0  0  0  0  0  0  0
  -14.4515  -38.0943  -11.0630 C   0  0  0  0  0  0  0  0  0  0  0  0
  -13.9449  -38.5403  -12.2406 C   0  0  0  0  0  0  0  0  0  0  0  0
  -14.4070  -38.0122  -13.4570 C   0  0  0  0  0  0  0  0  0  0  0  0
  -15.3768  -37.0395  -13.4462 C   0  0  0  0  0  0  0  0  0  0  0  0
  -13.9848  -38.6256   -9.6991 C   0  0  0  0  0  0  0  0  0  0  0  0
  -12.7745  -37.7962   -9.3452 C   0  0  0  0  0  0  0  0  0  0  0  0
  -13.5740  -40.0377   -9.9909 C   0  0  0  0  0  0  0  0  0  0  0  0
  -15.0777  -38.5148   -8.8675 N   0  0  0  0  0  0  0  0  0  0  0  0
  -15.0803  -38.1791   -7.5175 C   0  0  0  0  0  0  0  0  0  0  0  0
  -15.6121  -39.1963   -6.6224 C   0  0  1  0  0  0  0  0  0  0  0  0
  -15.6448  -38.8689   -5.2859 O   0  0  0  0  0  0  0  0  0  0  0  0
  -16.9334  -39.8347   -7.0071 C   0  0  2  0  0  0  0  0  0  0  0  0
  -17.6476  -40.4808   -5.8391 C   0  0  0  0  0  0  0  0  0  0  0  0
  -19.1163  -40.3068   -5.9653 C   0  0  0  0  0  0  0  0  0  0  0  0
  -20.1692  -41.1562   -6.1033 C   0  0  0  0  0  0  0  0  0  0  0  0
  -21.4471  -40.6222   -6.2087 C   0  0  0  0  0  0  0  0  0  0  0  0
  -21.6333  -39.2284   -6.1720 C   0  0  0  0  0  0  0  0  0  0  0  0
  -20.5943  -38.3310   -6.0329 C   0  0  0  0  0  0  0  0  0  0  0  0
  -19.3679  -38.9040   -5.9339 C   0  0  0  0  0  0  0  0  0  0  0  0
  -22.6578  -41.2568   -6.3560 O   0  0  0  0  0  0  0  0  0  0  0  0
  -23.4100  -42.2690   -5.8744 C   0  0  0  0  0  0  0  0  0  0  0  0
  -23.0971  -43.5449   -6.6527 C   0  0  0  0  0  0  0  0  0  0  0  0
  -23.5981  -43.5220   -8.0450 C   0  0  0  0  0  0  0  0  0  0  0  0
  -22.5735  -43.2647   -9.1163 C   0  0  0  0  0  0  0  0  0  0  0  0
  -21.4351  -44.1667   -9.0371 N   0  0  0  0  0  0  0  0  0  0  0  0
  -20.0992  -43.9721   -8.5760 C   0  0  0  0  0  0  0  0  0  0  0  0
  -19.1869  -42.9654   -8.7695 C   0  0  0  0  0  0  0  0  0  0  0  0
  -17.9494  -43.0616   -8.1581 C   0  0  0  0  0  0  0  0  0  0  0  0
  -17.7052  -44.2133   -7.3641 C   0  0  0  0  0  0  0  0  0  0  0  0
  -18.5639  -45.2038   -7.1586 N   0  0  0  0  0  0  0  0  0  0  0  0
  -19.7401  -45.0782   -7.7583 C   0  0  0  0  0  0  0  0  0  0  0  0
  -16.7891  -42.1652   -8.1523 C   0  0  0  0  0  0  0  0  0  0  0  0
  -15.6325  -42.7894   -8.2737 O   0  0  0  0  0  0  0  0  0  0  0  0
  -16.5902  -40.7845   -8.0465 N   0  0  0  0  0  0  0  0  0  0  0  0
  1  2  1  0
  2  3  1  0
  2  4  1  0
  4  5  2  0
  5  6  1  0
  6  7  2  0
  7  8  1  0
  8  9  2  0
  6 10  1  0
 10 11  1  0
 10 12  1  0
 10 13  1  0
 13 14  1  0
 14 15  1  0
 15 16  1  1
 15 17  1  0
 17 18  1  1
 18 19  1  0
 19 20  2  0
 20 21  1  0
 21 22  2  0
 22 23  1  0
 23 24  2  0
 21 25  1  0
 25 26  1  0
 26 27  1  0
 27 28  1  0
 28 29  1  0
 29 30  1  0
 30 31  1  0
 31 32  2  0
 32 33  1  0
 33 34  2  0
 34 35  1  0
 35 36  2  0
 33 37  1  0
 37 38  2  0
 37 39  1  0
  9  4  1  0
 24 19  1  0
 36 31  1  0
 39 17  1  0
M  END
$$$$
