
     RDKit          3D

 39 42  0  0  0  0  0  0  0  0999 V2000
  -21.6125  -44.0860   -6.8233 C   0  0  0  0  0  0  0  0  0  0  0  0
  -22.3553  -43.4280   -5.6888 C   0  0  0  0  0  0  0  0  0  0  0  0
  -23.8447  -43.3264   -6.0535 C   0  0  0  0  0  0  0  0  0  0  0  0
  -21.8799  -42.0663   -5.4022 C   0  0  0  0  0  0  0  0  0  0  0  0
  -21.3300  -41.2568   -6.4032 C   0  0  0  0  0  0  0  0  0  0  0  0
  -20.8915  -39.9837   -6.1263 C   0  0  0  0  0  0  0  0  0  0  0  0
  -20.9930  -39.5023   -4.8613 C   0  0  0  0  0  0  0  0  0  0  0  0
  -21.5414  -40.2970   -3.8417 C   0  0  0  0  0  0  0  0  0  0  0  0
  -21.9749  -41.5671   -4.1344 C   0  0  0  0  0  0  0  0  0  0  0  0
  -20.2959  -39.1685   -7.2843 C   0  0  0  0  0  0  0  0  0  0  0  0
  -21.4800  -38.5273   -7.9661 C   0  0  0  0  0  0  0  0  0  0  0  0
  -19.6902  -40.2104   -8.1761 C   0  0  0  0  0  0  0  0  0  0  0  0
  -19.3797  -38.3192   -6.7033 N   0  0  0  0  0  0  0  0  0  0  0  0
  -18.0311  -38.5663   -6.4678 C   0  0  0  0  0  0  0  0  0  0  0  0
  -17.1054  -37.8644   -7.3449 C   0  0  1  0  0  0  0  0  0  0  0  0
  -16.3727  -36.8530   -6.7665 O   0  0  0  0  0  0  0  0  0  0  0  0
  -16.1853  -38.7132   -8.2019 C   0  0  2  0  0  0  0  0  0  0  0  0
  -16.3104  -38.4225   -9.6823 C   0  0  0  0  0  0  0  0  0  0  0  0
  -14.9880  -38.5294  -10.3481 C   0  0  0  0  0  0  0  0  0  0  0  0
  -14.4705  -39.3289  -11.3186 C   0  0  0  0  0  0  0  0  0  0  0  0
  -13.1459  -39.1481  -11.6953 C   0  0  0  0  0  0  0  0  0  0  0  0
  -12.3670  -38.1536  -11.0762 C   0  0  0  0  0  0  0  0  0  0  0  0
  -12.8516  -37.3206  -10.0885 C   0  0  0  0  0  0  0  0  0  0  0  0
  -14.1499  -37.5386   -9.7582 C   0  0  0  0  0  0  0  0  0  0  0  0
  -12.3978  -39.8173  -12.6347 O   0  0  0  0  0  0  0  0  0  0  0  0
  -12.4184  -40.2696  -13.9065 C   0  0  0  0  0  0  0  0  0  0  0  0
  -12.9854  -41.6872  -13.9288 C   0  0  0  0  0  0  0  0  0  0  0  0
  -12.0762  -42.6934  -13.3365 C   0  0  0  0  0  0  0  0  0  0  0  0
  -12.4169  -43.1618  -11.9480 C   0  0  0  0  0  0  0  0  0  0  0  0
  -13.7874  -43.6350  -11.8320 N   0  0  0  0  0  0  0  0  0  0  0  0
  -14.9501  -43.0456  -11.2524 C   0  0  0  0  0  0  0  0  0  0  0  0
  -15.1641  -42.3802  -10.0714 C   0  0  0  0  0  0  0  0  0  0  0  0
  -16.4329  -41.9011   -9.7975 C   0  0  0  0  0  0  0  0  0  0  0  0
  -17.4401  -42.1374  -10.7701 C   0  0  0  0  0  0  0  0  0  0  0  0
  -17.2667  -42.7778  -11.9192 N   0  0  0  0  0  0  0  0  0  0  0  0
  -16.0386  -43.2220  -12.1497 C   0  0  0  0  0  0  0  0  0  0  0  0
  -16.9698  -41.1503   -8.6583 C   0  0  0  0  0  0  0  0  0  0  0  0
  -18.1572  -41.5655   -8.2581 O   0  0  0  0  0  0  0  0  0  0  0  0
  -16.5355  -40.0797   -7.8695 N   0  0  0  0  0  0  0  0  0  0  0  0
  1  2  1  0
  2  3  1  0
  2  4  1  0
  4  5  2  0
  5  6  1  0
  6  7  2  0
  7  8  1  0
  8  9  2  0
  6 10  1  0
 10 11  1  0
 10 12  1  0
 10 13  1  0
 13 14  1  0
 14 15  1  0
 15 16  1  1
 15 17  1  0
 17 18  1  6
 18 19  1  0
 19 20  2  0
 20 21  1  0
 21 22  2  0
 22 23  1  0
 23 24  2  0
 21 25  1  0
 25 26  1  0
 26 27  1  0
 27 28  1  0
 28 29  1  0
 29 30  1  0
 30 31  1  0
 31 32  2  0
 32 33  1  0
 33 34  2  0
 34 35  1  0
 35 36  2  0
 33 37  1  0
 37 38  2  0
 37 39  1  0
  9  4  1  0
 24 19  1  0
 36 31  1  0
 39 17  1  0
M  END
$$$$
