
     RDKit          3D

 39 42  0  0  0  0  0  0  0  0999 V2000
  -19.7488  -41.9855   -2.2814 C   0  0  0  0  0  0  0  0  0  0  0  0
  -21.1766  -41.9766   -2.7640 C   0  0  0  0  0  0  0  0  0  0  0  0
  -21.8776  -43.2585   -2.2875 C   0  0  0  0  0  0  0  0  0  0  0  0
  -21.2889  -41.9341   -4.2296 C   0  0  0  0  0  0  0  0  0  0  0  0
  -21.0951  -40.7464   -4.9447 C   0  0  0  0  0  0  0  0  0  0  0  0
  -21.1987  -40.7173   -6.3152 C   0  0  0  0  0  0  0  0  0  0  0  0
  -21.4938  -41.8589   -6.9874 C   0  0  0  0  0  0  0  0  0  0  0  0
  -21.6921  -43.0616   -6.2902 C   0  0  0  0  0  0  0  0  0  0  0  0
  -21.5853  -43.0742   -4.9209 C   0  0  0  0  0  0  0  0  0  0  0  0
  -20.9767  -39.3690   -7.0173 C   0  0  0  0  0  0  0  0  0  0  0  0
  -21.1011  -38.3313   -5.9283 C   0  0  0  0  0  0  0  0  0  0  0  0
  -22.1368  -39.2662   -7.9614 C   0  0  0  0  0  0  0  0  0  0  0  0
  -19.7507  -39.4743   -7.6369 N   0  0  0  0  0  0  0  0  0  0  0  0
  -18.5807  -38.7948   -7.3137 C   0  0  0  0  0  0  0  0  0  0  0  0
  -17.7831  -38.3507   -8.4475 C   0  0  1  0  0  0  0  0  0  0  0  0
  -17.3098  -37.0598   -8.3858 O   0  0  0  0  0  0  0  0  0  0  0  0
  -16.6640  -39.2658   -8.9075 C   0  0  2  0  0  0  0  0  0  0  0  0
  -16.3763  -39.1597  -10.3899 C   0  0  0  0  0  0  0  0  0  0  0  0
  -14.9219  -39.3026  -10.6502 C   0  0  0  0  0  0  0  0  0  0  0  0
  -14.1584  -40.1957  -11.3347 C   0  0  0  0  0  0  0  0  0  0  0  0
  -12.7811  -40.0181  -11.3545 C   0  0  0  0  0  0  0  0  0  0  0  0
  -12.2011  -38.9314  -10.6752 C   0  0  0  0  0  0  0  0  0  0  0  0
  -12.9375  -38.0019   -9.9696 C   0  0  0  0  0  0  0  0  0  0  0  0
  -14.2769  -38.2209   -9.9821 C   0  0  0  0  0  0  0  0  0  0  0  0
  -11.8043  -40.7707  -11.9625 O   0  0  0  0  0  0  0  0  0  0  0  0
  -11.4747  -41.3733  -13.1247 C   0  0  0  0  0  0  0  0  0  0  0  0
  -12.0160  -42.8011  -13.1240 C   0  0  0  0  0  0  0  0  0  0  0  0
  -11.3066  -43.6982  -12.1850 C   0  0  0  0  0  0  0  0  0  0  0  0
  -12.0170  -44.0070  -10.8953 C   0  0  0  0  0  0  0  0  0  0  0  0
  -13.3673  -44.5075  -11.1002 N   0  0  0  0  0  0  0  0  0  0  0  0
  -14.6437  -43.8911  -10.9387 C   0  0  0  0  0  0  0  0  0  0  0  0
  -15.1734  -43.0957   -9.9539 C   0  0  0  0  0  0  0  0  0  0  0  0
  -16.4678  -42.6291  -10.0992 C   0  0  0  0  0  0  0  0  0  0  0  0
  -17.1688  -43.0137  -11.2727 C   0  0  0  0  0  0  0  0  0  0  0  0
  -16.6868  -43.7817  -12.2414 N   0  0  0  0  0  0  0  0  0  0  0  0
  -15.4434  -44.2099  -12.0701 C   0  0  0  0  0  0  0  0  0  0  0  0
  -17.2965  -41.7646   -9.2531 C   0  0  0  0  0  0  0  0  0  0  0  0
  -18.5487  -42.1673   -9.1441 O   0  0  0  0  0  0  0  0  0  0  0  0
  -17.0943  -40.5931   -8.5157 N   0  0  0  0  0  0  0  0  0  0  0  0
  1  2  1  0
  2  3  1  0
  2  4  1  0
  4  5  2  0
  5  6  1  0
  6  7  2  0
  7  8  1  0
  8  9  2  0
  6 10  1  0
 10 11  1  0
 10 12  1  0
 10 13  1  0
 13 14  1  0
 14 15  1  0
 15 16  1  1
 15 17  1  0
 17 18  1  6
 18 19  1  0
 19 20  2  0
 20 21  1  0
 21 22  2  0
 22 23  1  0
 23 24  2  0
 21 25  1  0
 25 26  1  0
 26 27  1  0
 27 28  1  0
 28 29  1  0
 29 30  1  0
 30 31  1  0
 31 32  2  0
 32 33  1  0
 33 34  2  0
 34 35  1  0
 35 36  2  0
 33 37  1  0
 37 38  2  0
 37 39  1  0
  9  4  1  0
 24 19  1  0
 36 31  1  0
 39 17  1  0
M  END
$$$$
