
     RDKit          3D

 39 42  0  0  0  0  0  0  0  0999 V2000
  -16.0293  -34.9849  -10.8198 C   0  0  0  0  0  0  0  0  0  0  0  0
  -15.8101  -35.1714  -12.2993 C   0  0  0  0  0  0  0  0  0  0  0  0
  -17.1730  -35.2830  -13.0004 C   0  0  0  0  0  0  0  0  0  0  0  0
  -15.0508  -36.3891  -12.6200 C   0  0  0  0  0  0  0  0  0  0  0  0
  -14.9321  -37.4407  -11.7037 C   0  0  0  0  0  0  0  0  0  0  0  0
  -14.2230  -38.5768  -12.0140 C   0  0  0  0  0  0  0  0  0  0  0  0
  -13.6274  -38.6818  -13.2291 C   0  0  0  0  0  0  0  0  0  0  0  0
  -13.7335  -37.6390  -14.1636 C   0  0  0  0  0  0  0  0  0  0  0  0
  -14.4454  -36.5102  -13.8384 C   0  0  0  0  0  0  0  0  0  0  0  0
  -14.1396  -39.6778  -10.9458 C   0  0  0  0  0  0  0  0  0  0  0  0
  -12.7189  -40.1835  -11.0098 C   0  0  0  0  0  0  0  0  0  0  0  0
  -15.0835  -40.7294  -11.4467 C   0  0  0  0  0  0  0  0  0  0  0  0
  -14.5327  -39.0791   -9.7688 N   0  0  0  0  0  0  0  0  0  0  0  0
  -15.7817  -38.5441   -9.4703 C   0  0  0  0  0  0  0  0  0  0  0  0
  -16.2504  -38.7734   -8.1115 C   0  0  1  0  0  0  0  0  0  0  0  0
  -16.2770  -37.6719   -7.2866 O   0  0  0  0  0  0  0  0  0  0  0  0
  -17.5461  -39.5451   -7.9470 C   0  0  2  0  0  0  0  0  0  0  0  0
  -18.0191  -39.6199   -6.5109 C   0  0  0  0  0  0  0  0  0  0  0  0
  -19.5005  -39.5524   -6.4459 C   0  0  0  0  0  0  0  0  0  0  0  0
  -20.4761  -40.3973   -6.0176 C   0  0  0  0  0  0  0  0  0  0  0  0
  -21.8010  -39.9941   -6.1235 C   0  0  0  0  0  0  0  0  0  0  0  0
  -22.1126  -38.7339   -6.6653 C   0  0  0  0  0  0  0  0  0  0  0  0
  -21.1552  -37.8458   -7.1110 C   0  0  0  0  0  0  0  0  0  0  0  0
  -19.8782  -38.2878   -6.9849 C   0  0  0  0  0  0  0  0  0  0  0  0
  -22.9539  -40.6544   -5.7699 O   0  0  0  0  0  0  0  0  0  0  0  0
  -23.5283  -41.3630   -4.7747 C   0  0  0  0  0  0  0  0  0  0  0  0
  -23.2102  -42.8447   -4.9617 C   0  0  0  0  0  0  0  0  0  0  0  0
  -23.9067  -43.4544   -6.1163 C   0  0  0  0  0  0  0  0  0  0  0  0
  -23.0768  -43.6781   -7.3511 C   0  0  0  0  0  0  0  0  0  0  0  0
  -21.8577  -44.4255   -7.0845 N   0  0  0  0  0  0  0  0  0  0  0  0
  -20.4941  -44.0168   -6.9909 C   0  0  0  0  0  0  0  0  0  0  0  0
  -19.7199  -43.1815   -7.7564 C   0  0  0  0  0  0  0  0  0  0  0  0
  -18.4037  -42.9687   -7.3867 C   0  0  0  0  0  0  0  0  0  0  0  0
  -17.9384  -43.6414   -6.2259 C   0  0  0  0  0  0  0  0  0  0  0  0
  -18.6596  -44.4557   -5.4660 N   0  0  0  0  0  0  0  0  0  0  0  0
  -19.9166  -44.6357   -5.8487 C   0  0  0  0  0  0  0  0  0  0  0  0
  -17.3460  -42.1379   -7.9706 C   0  0  0  0  0  0  0  0  0  0  0  0
  -16.1645  -42.7255   -8.0051 O   0  0  0  0  0  0  0  0  0  0  0  0
  -17.2670  -40.8503   -8.5117 N   0  0  0  0  0  0  0  0  0  0  0  0
  1  2  1  0
  2  3  1  0
  2  4  1  0
  4  5  2  0
  5  6  1  0
  6  7  2  0
  7  8  1  0
  8  9  2  0
  6 10  1  0
 10 11  1  0
 10 12  1  0
 10 13  1  0
 13 14  1  0
 14 15  1  0
 15 16  1  6
 15 17  1  0
 17 18  1  1
 18 19  1  0
 19 20  2  0
 20 21  1  0
 21 22  2  0
 22 23  1  0
 23 24  2  0
 21 25  1  0
 25 26  1  0
 26 27  1  0
 27 28  1  0
 28 29  1  0
 29 30  1  0
 30 31  1  0
 31 32  2  0
 32 33  1  0
 33 34  2  0
 34 35  1  0
 35 36  2  0
 33 37  1  0
 37 38  2  0
 37 39  1  0
  9  4  1  0
 24 19  1  0
 36 31  1  0
 39 17  1  0
M  END
$$$$
