
     RDKit          3D

 39 42  0  0  0  0  0  0  0  0999 V2000
  -12.4123  -34.8092  -11.9729 C   0  0  0  0  0  0  0  0  0  0  0  0
  -13.9031  -34.9462  -12.1474 C   0  0  0  0  0  0  0  0  0  0  0  0
  -14.6149  -34.1689  -11.0291 C   0  0  0  0  0  0  0  0  0  0  0  0
  -14.3655  -36.3403  -12.0757 C   0  0  0  0  0  0  0  0  0  0  0  0
  -13.8161  -37.2479  -11.1626 C   0  0  0  0  0  0  0  0  0  0  0  0
  -14.2575  -38.5484  -11.1005 C   0  0  0  0  0  0  0  0  0  0  0  0
  -15.2428  -38.9604  -11.9382 C   0  0  0  0  0  0  0  0  0  0  0  0
  -15.8082  -38.0667  -12.8621 C   0  0  0  0  0  0  0  0  0  0  0  0
  -15.3561  -36.7706  -12.9118 C   0  0  0  0  0  0  0  0  0  0  0  0
  -13.5934  -39.4771  -10.0725 C   0  0  0  0  0  0  0  0  0  0  0  0
  -12.5217  -38.6398   -9.4179 C   0  0  0  0  0  0  0  0  0  0  0  0
  -12.9676  -40.5478  -10.9151 C   0  0  0  0  0  0  0  0  0  0  0  0
  -14.6160  -39.9203   -9.2624 N   0  0  0  0  0  0  0  0  0  0  0  0
  -14.5951  -40.0626   -7.8788 C   0  0  0  0  0  0  0  0  0  0  0  0
  -15.6531  -39.3643   -7.1634 C   0  0  1  0  0  0  0  0  0  0  0  0
  -15.6255  -37.9899   -7.2329 O   0  0  0  0  0  0  0  0  0  0  0  0
  -17.0749  -39.8419   -7.3911 C   0  0  2  0  0  0  0  0  0  0  0  0
  -17.7596  -40.3065   -6.1235 C   0  0  0  0  0  0  0  0  0  0  0  0
  -19.1989  -39.9439   -6.1455 C   0  0  0  0  0  0  0  0  0  0  0  0
  -20.3609  -40.6501   -6.1330 C   0  0  0  0  0  0  0  0  0  0  0  0
  -21.5632  -39.9562   -6.1775 C   0  0  0  0  0  0  0  0  0  0  0  0
  -21.5636  -38.5506   -6.2343 C   0  0  0  0  0  0  0  0  0  0  0  0
  -20.4090  -37.7950   -6.2482 C   0  0  0  0  0  0  0  0  0  0  0  0
  -19.2631  -38.5210   -6.2030 C   0  0  0  0  0  0  0  0  0  0  0  0
  -22.8540  -40.4292   -6.1784 O   0  0  0  0  0  0  0  0  0  0  0  0
  -23.6849  -41.2961   -5.5615 C   0  0  0  0  0  0  0  0  0  0  0  0
  -23.6103  -42.6513   -6.2610 C   0  0  0  0  0  0  0  0  0  0  0  0
  -24.2262  -42.6530   -7.6066 C   0  0  0  0  0  0  0  0  0  0  0  0
  -23.2767  -42.6085   -8.7727 C   0  0  0  0  0  0  0  0  0  0  0  0
  -22.2619  -43.6491   -8.7147 N   0  0  0  0  0  0  0  0  0  0  0  0
  -20.8763  -43.6071   -8.3778 C   0  0  0  0  0  0  0  0  0  0  0  0
  -19.8624  -42.7483   -8.7207 C   0  0  0  0  0  0  0  0  0  0  0  0
  -18.5982  -42.9706   -8.2041 C   0  0  0  0  0  0  0  0  0  0  0  0
  -18.4353  -44.0896   -7.3452 C   0  0  0  0  0  0  0  0  0  0  0  0
  -19.3931  -44.9389   -6.9959 N   0  0  0  0  0  0  0  0  0  0  0  0
  -20.5919  -44.6950   -7.5080 C   0  0  0  0  0  0  0  0  0  0  0  0
  -17.3359  -42.2411   -8.3601 C   0  0  0  0  0  0  0  0  0  0  0  0
  -16.2851  -43.0229   -8.5244 O   0  0  0  0  0  0  0  0  0  0  0  0
  -16.9514  -40.8962   -8.3778 N   0  0  0  0  0  0  0  0  0  0  0  0
  1  2  1  0
  2  3  1  0
  2  4  1  0
  4  5  2  0
  5  6  1  0
  6  7  2  0
  7  8  1  0
  8  9  2  0
  6 10  1  0
 10 11  1  0
 10 12  1  0
 10 13  1  0
 13 14  1  0
 14 15  1  0
 15 16  1  6
 15 17  1  0
 17 18  1  1
 18 19  1  0
 19 20  2  0
 20 21  1  0
 21 22  2  0
 22 23  1  0
 23 24  2  0
 21 25  1  0
 25 26  1  0
 26 27  1  0
 27 28  1  0
 28 29  1  0
 29 30  1  0
 30 31  1  0
 31 32  2  0
 32 33  1  0
 33 34  2  0
 34 35  1  0
 35 36  2  0
 33 37  1  0
 37 38  2  0
 37 39  1  0
  9  4  1  0
 24 19  1  0
 36 31  1  0
 39 17  1  0
M  END
$$$$
