
     RDKit          3D

 43 46  0  0  0  0  0  0  0  0999 V2000
  -22.7986  -39.4598   -3.2435 C   0  0  0  0  0  0  0  0  0  0  0  0
  -21.6314  -39.9903   -3.7689 O   0  0  0  0  0  0  0  0  0  0  0  0
  -21.7060  -41.3727   -3.9208 C   0  0  0  0  0  0  0  0  0  0  0  0
  -21.5274  -41.7804   -5.3380 C   0  0  0  0  0  0  0  0  0  0  0  0
  -22.4264  -42.5520   -6.0124 C   0  0  0  0  0  0  0  0  0  0  0  0
  -22.2683  -42.9508   -7.3697 C   0  0  0  0  0  0  0  0  0  0  0  0
  -21.1459  -42.5490   -8.0597 C   0  0  0  0  0  0  0  0  0  0  0  0
  -20.2172  -41.7662   -7.4156 C   0  0  0  0  0  0  0  0  0  0  0  0
  -20.4289  -41.3987   -6.0625 C   0  0  0  0  0  0  0  0  0  0  0  0
  -18.9624  -41.1489   -7.8983 C   0  0  0  0  0  0  0  0  0  0  0  0
  -17.9422  -41.1004   -7.0430 O   0  0  0  0  0  0  0  0  0  0  0  0
  -18.5881  -40.5739   -9.1150 N   0  0  0  0  0  0  0  0  0  0  0  0
  -19.1847  -39.6156   -9.9749 C   0  0  1  0  0  0  0  0  0  0  0  0
  -20.5695  -39.1635   -9.7027 C   0  0  0  0  0  0  0  0  0  0  0  0
  -21.5425  -39.5357  -10.7834 C   0  0  0  0  0  0  0  0  0  0  0  0
  -22.3754  -40.6161  -10.8858 C   0  0  0  0  0  0  0  0  0  0  0  0
  -23.1475  -40.7327  -12.0341 C   0  0  0  0  0  0  0  0  0  0  0  0
  -23.0817  -39.7785  -13.0491 C   0  0  0  0  0  0  0  0  0  0  0  0
  -22.2562  -38.6780  -12.9792 C   0  0  0  0  0  0  0  0  0  0  0  0
  -21.5059  -38.5933  -11.8363 C   0  0  0  0  0  0  0  0  0  0  0  0
  -24.0540  -41.7375  -12.3677 O   0  0  0  0  0  0  0  0  0  0  0  0
  -23.9858  -43.1233  -12.4845 C   0  0  0  0  0  0  0  0  0  0  0  0
  -24.7153  -43.7656  -11.3220 C   0  0  0  0  0  0  0  0  0  0  0  0
  -23.7693  -44.1469  -10.1907 C   0  0  0  0  0  0  0  0  0  0  0  0
  -24.3068  -43.5489   -8.9166 C   0  0  0  0  0  0  0  0  0  0  0  0
  -23.4163  -43.6963   -7.7856 N   0  0  0  0  0  0  0  0  0  0  0  0
  -18.1920  -38.4228  -10.1982 C   0  0  2  0  0  0  0  0  0  0  0  0
  -17.9589  -38.5320  -11.6022 O   0  0  0  0  0  0  0  0  0  0  0  0
  -16.9050  -38.6792   -9.5321 C   0  0  0  0  0  0  0  0  0  0  0  0
  -16.8158  -38.5274   -8.1307 N   0  0  0  0  0  0  0  0  0  0  0  0
  -15.5491  -38.5586   -7.5098 C   0  0  0  0  0  0  0  0  0  0  0  0
  -15.4554  -38.7186   -6.0436 C   0  0  0  0  0  0  0  0  0  0  0  0
  -14.7938  -39.7563   -8.1256 C   0  0  0  0  0  0  0  0  0  0  0  0
  -14.7037  -37.3651   -7.8733 C   0  0  0  0  0  0  0  0  0  0  0  0
  -13.6424  -37.5337   -8.7355 C   0  0  0  0  0  0  0  0  0  0  0  0
  -12.8310  -36.4947   -9.1304 C   0  0  0  0  0  0  0  0  0  0  0  0
  -13.0990  -35.2185   -8.6348 C   0  0  0  0  0  0  0  0  0  0  0  0
  -14.1659  -35.0802   -7.7747 C   0  0  0  0  0  0  0  0  0  0  0  0
  -14.9420  -36.1304   -7.4085 N   0  0  0  0  0  0  0  0  0  0  0  0
  -11.6764  -36.6764  -10.0370 C   0  0  0  0  0  0  0  0  0  0  0  0
  -11.0594  -35.3821  -10.4824 C   0  0  0  0  0  0  0  0  0  0  0  0
  -10.6197  -37.5004   -9.2983 C   0  0  0  0  0  0  0  0  0  0  0  0
  -12.1130  -37.4245  -11.2746 C   0  0  0  0  0  0  0  0  0  0  0  0
  1  2  1  0
  2  3  1  0
  3  4  1  0
  4  5  2  0
  5  6  1  0
  6  7  2  0
  7  8  1  0
  8  9  2  0
  8 10  1  0
 10 11  2  0
 10 12  1  0
 12 13  1  0
 13 14  1  1
 14 15  1  0
 15 16  2  0
 16 17  1  0
 17 18  2  0
 18 19  1  0
 19 20  2  0
 17 21  1  0
 21 22  1  0
 22 23  1  0
 23 24  1  0
 24 25  1  0
 25 26  1  0
 13 27  1  0
 27 28  1  6
 27 29  1  0
 29 30  1  0
 30 31  1  0
 31 32  1  0
 31 33  1  0
 31 34  1  0
 34 35  2  0
 35 36  1  0
 36 37  2  0
 37 38  1  0
 38 39  2  0
 36 40  1  0
 40 41  1  0
 40 42  1  0
 40 43  1  0
  9  4  1  0
 20 15  1  0
 26  6  1  0
 39 34  1  0
M  END
$$$$
