
     RDKit          3D

 43 46  0  0  0  0  0  0  0  0999 V2000
  -17.1709  -46.5544  -12.1730 C   0  0  0  0  0  0  0  0  0  0  0  0
  -18.0391  -45.7257  -11.4807 O   0  0  0  0  0  0  0  0  0  0  0  0
  -18.0121  -44.4191  -11.9620 C   0  0  0  0  0  0  0  0  0  0  0  0
  -16.8221  -43.6773  -11.4721 C   0  0  0  0  0  0  0  0  0  0  0  0
  -15.6942  -43.4989  -12.2166 C   0  0  0  0  0  0  0  0  0  0  0  0
  -14.5465  -42.7911  -11.7602 C   0  0  0  0  0  0  0  0  0  0  0  0
  -14.5524  -42.2509  -10.4932 C   0  0  0  0  0  0  0  0  0  0  0  0
  -15.6733  -42.4058   -9.7122 C   0  0  0  0  0  0  0  0  0  0  0  0
  -16.7878  -43.1199  -10.2209 C   0  0  0  0  0  0  0  0  0  0  0  0
  -15.9916  -41.9055   -8.3569 C   0  0  0  0  0  0  0  0  0  0  0  0
  -16.6989  -42.7092   -7.5643 O   0  0  0  0  0  0  0  0  0  0  0  0
  -15.7017  -40.7147   -7.6867 N   0  0  0  0  0  0  0  0  0  0  0  0
  -15.8106  -39.3418   -8.0288 C   0  0  1  0  0  0  0  0  0  0  0  0
  -16.1566  -38.9691   -9.4208 C   0  0  0  0  0  0  0  0  0  0  0  0
  -15.0652  -38.2188  -10.1270 C   0  0  0  0  0  0  0  0  0  0  0  0
  -14.0742  -38.6740  -10.9530 C   0  0  0  0  0  0  0  0  0  0  0  0
  -13.1593  -37.7491  -11.4385 C   0  0  0  0  0  0  0  0  0  0  0  0
  -13.2483  -36.3988  -11.1009 C   0  0  0  0  0  0  0  0  0  0  0  0
  -14.2330  -35.9052  -10.2738 C   0  0  0  0  0  0  0  0  0  0  0  0
  -15.1175  -36.8423   -9.8093 C   0  0  0  0  0  0  0  0  0  0  0  0
  -12.0696  -37.9706  -12.2789 O   0  0  0  0  0  0  0  0  0  0  0  0
  -10.9485  -38.7953  -12.2376 C   0  0  0  0  0  0  0  0  0  0  0  0
  -11.1087  -39.9178  -13.2428 C   0  0  0  0  0  0  0  0  0  0  0  0
  -11.6551  -41.1876  -12.6030 C   0  0  0  0  0  0  0  0  0  0  0  0
  -12.8546  -41.6285  -13.4009 C   0  0  0  0  0  0  0  0  0  0  0  0
  -13.5721  -42.7354  -12.8062 N   0  0  0  0  0  0  0  0  0  0  0  0
  -16.6997  -38.6067   -6.9671 C   0  0  2  0  0  0  0  0  0  0  0  0
  -15.7211  -38.2866   -5.9786 O   0  0  0  0  0  0  0  0  0  0  0  0
  -17.6484  -39.5405   -6.3398 C   0  0  0  0  0  0  0  0  0  0  0  0
  -18.5169  -40.2917   -7.1622 N   0  0  0  0  0  0  0  0  0  0  0  0
  -19.8372  -40.5400   -6.7310 C   0  0  0  0  0  0  0  0  0  0  0  0
  -20.3891  -41.9086   -6.8110 C   0  0  0  0  0  0  0  0  0  0  0  0
  -19.8894  -40.1380   -5.2410 C   0  0  0  0  0  0  0  0  0  0  0  0
  -20.8369  -39.6271   -7.3929 C   0  0  0  0  0  0  0  0  0  0  0  0
  -20.6978  -39.3410   -8.7334 C   0  0  0  0  0  0  0  0  0  0  0  0
  -21.5748  -38.5303   -9.4172 C   0  0  0  0  0  0  0  0  0  0  0  0
  -22.6491  -37.9779   -8.7194 C   0  0  0  0  0  0  0  0  0  0  0  0
  -22.7626  -38.2810   -7.3806 C   0  0  0  0  0  0  0  0  0  0  0  0
  -21.8759  -39.0845   -6.7421 N   0  0  0  0  0  0  0  0  0  0  0  0
  -21.4149  -38.2019  -10.8506 C   0  0  0  0  0  0  0  0  0  0  0  0
  -21.3517  -39.4130  -11.7357 C   0  0  0  0  0  0  0  0  0  0  0  0
  -22.6062  -37.3403  -11.2745 C   0  0  0  0  0  0  0  0  0  0  0  0
  -20.1391  -37.4192  -11.0548 C   0  0  0  0  0  0  0  0  0  0  0  0
  1  2  1  0
  2  3  1  0
  3  4  1  0
  4  5  2  0
  5  6  1  0
  6  7  2  0
  7  8  1  0
  8  9  2  0
  8 10  1  0
 10 11  2  0
 10 12  1  0
 12 13  1  0
 13 14  1  6
 14 15  1  0
 15 16  2  0
 16 17  1  0
 17 18  2  0
 18 19  1  0
 19 20  2  0
 17 21  1  0
 21 22  1  0
 22 23  1  0
 23 24  1  0
 24 25  1  0
 25 26  1  0
 13 27  1  0
 27 28  1  1
 27 29  1  0
 29 30  1  0
 30 31  1  0
 31 32  1  0
 31 33  1  0
 31 34  1  0
 34 35  2  0
 35 36  1  0
 36 37  2  0
 37 38  1  0
 38 39  2  0
 36 40  1  0
 40 41  1  0
 40 42  1  0
 40 43  1  0
  9  4  1  0
 20 15  1  0
 26  6  1  0
 39 34  1  0
M  END
$$$$
