
     RDKit          3D

 43 46  0  0  0  0  0  0  0  0999 V2000
  -18.9993  -48.9489   -7.2632 C   0  0  0  0  0  0  0  0  0  0  0  0
  -18.2680  -47.7755   -7.3534 O   0  0  0  0  0  0  0  0  0  0  0  0
  -18.7417  -46.7947   -6.4855 C   0  0  0  0  0  0  0  0  0  0  0  0
  -19.2352  -45.6020   -7.2206 C   0  0  0  0  0  0  0  0  0  0  0  0
  -20.5537  -45.3824   -7.4885 C   0  0  0  0  0  0  0  0  0  0  0  0
  -21.0410  -44.2449   -8.1921 C   0  0  0  0  0  0  0  0  0  0  0  0
  -20.1448  -43.3007   -8.6420 C   0  0  0  0  0  0  0  0  0  0  0  0
  -18.8061  -43.4840   -8.3881 C   0  0  0  0  0  0  0  0  0  0  0  0
  -18.3790  -44.6365   -7.6809 C   0  0  0  0  0  0  0  0  0  0  0  0
  -17.6328  -42.6361   -8.6934 C   0  0  0  0  0  0  0  0  0  0  0  0
  -16.5061  -43.2598   -9.0339 O   0  0  0  0  0  0  0  0  0  0  0  0
  -17.4310  -41.2540   -8.7040 N   0  0  0  0  0  0  0  0  0  0  0  0
  -17.7285  -40.2094   -7.7907 C   0  0  1  0  0  0  0  0  0  0  0  0
  -18.5602  -40.5053   -6.6004 C   0  0  0  0  0  0  0  0  0  0  0  0
  -19.8745  -39.7803   -6.5951 C   0  0  0  0  0  0  0  0  0  0  0  0
  -21.1081  -40.1885   -7.0232 C   0  0  0  0  0  0  0  0  0  0  0  0
  -22.1562  -39.2815   -6.9387 C   0  0  0  0  0  0  0  0  0  0  0  0
  -21.9617  -37.9976   -6.4298 C   0  0  0  0  0  0  0  0  0  0  0  0
  -20.7347  -37.5535   -5.9886 C   0  0  0  0  0  0  0  0  0  0  0  0
  -19.7213  -38.4699   -6.0878 C   0  0  0  0  0  0  0  0  0  0  0  0
  -23.4862  -39.4601   -7.3156 O   0  0  0  0  0  0  0  0  0  0  0  0
  -24.1329  -39.8300   -8.4919 C   0  0  0  0  0  0  0  0  0  0  0  0
  -24.6750  -41.2379   -8.3499 C   0  0  0  0  0  0  0  0  0  0  0  0
  -23.7291  -42.2789   -8.9345 C   0  0  0  0  0  0  0  0  0  0  0  0
  -23.4828  -43.3250   -7.8787 C   0  0  0  0  0  0  0  0  0  0  0  0
  -22.4699  -44.2915   -8.2447 N   0  0  0  0  0  0  0  0  0  0  0  0
  -16.4120  -39.4372   -7.4320 C   0  0  2  0  0  0  0  0  0  0  0  0
  -16.6948  -38.1564   -7.9951 O   0  0  0  0  0  0  0  0  0  0  0  0
  -15.2642  -39.9838   -8.1732 C   0  0  0  0  0  0  0  0  0  0  0  0
  -15.3683  -40.1531   -9.5716 N   0  0  0  0  0  0  0  0  0  0  0  0
  -14.2116  -40.0381  -10.3713 C   0  0  0  0  0  0  0  0  0  0  0  0
  -12.8762  -40.0934   -9.7406 C   0  0  0  0  0  0  0  0  0  0  0  0
  -14.2635  -41.2067  -11.3793 C   0  0  0  0  0  0  0  0  0  0  0  0
  -14.2344  -38.8049  -11.2372 C   0  0  0  0  0  0  0  0  0  0  0  0
  -13.0639  -38.1070  -11.4398 C   0  0  0  0  0  0  0  0  0  0  0  0
  -12.9946  -36.9811  -12.2280 C   0  0  0  0  0  0  0  0  0  0  0  0
  -14.1614  -36.5317  -12.8467 C   0  0  0  0  0  0  0  0  0  0  0  0
  -15.3164  -37.2491  -12.6260 C   0  0  0  0  0  0  0  0  0  0  0  0
  -15.3436  -38.3545  -11.8406 N   0  0  0  0  0  0  0  0  0  0  0  0
  -11.7447  -36.2158  -12.4283 C   0  0  0  0  0  0  0  0  0  0  0  0
  -11.7883  -35.3058  -13.6218 C   0  0  0  0  0  0  0  0  0  0  0  0
  -11.4980  -35.3754  -11.1735 C   0  0  0  0  0  0  0  0  0  0  0  0
  -10.5890  -37.1690  -12.6220 C   0  0  0  0  0  0  0  0  0  0  0  0
  1  2  1  0
  2  3  1  0
  3  4  1  0
  4  5  2  0
  5  6  1  0
  6  7  2  0
  7  8  1  0
  8  9  2  0
  8 10  1  0
 10 11  2  0
 10 12  1  0
 12 13  1  0
 13 14  1  1
 14 15  1  0
 15 16  2  0
 16 17  1  0
 17 18  2  0
 18 19  1  0
 19 20  2  0
 17 21  1  0
 21 22  1  0
 22 23  1  0
 23 24  1  0
 24 25  1  0
 25 26  1  0
 13 27  1  0
 27 28  1  6
 27 29  1  0
 29 30  1  0
 30 31  1  0
 31 32  1  0
 31 33  1  0
 31 34  1  0
 34 35  2  0
 35 36  1  0
 36 37  2  0
 37 38  1  0
 38 39  2  0
 36 40  1  0
 40 41  1  0
 40 42  1  0
 40 43  1  0
  9  4  1  0
 20 15  1  0
 26  6  1  0
 39 34  1  0
M  END
$$$$
