
     RDKit          3D

 43 46  0  0  0  0  0  0  0  0999 V2000
  -19.1719  -42.6735   -1.1011 C   0  0  0  0  0  0  0  0  0  0  0  0
  -20.4311  -42.1265   -1.2878 O   0  0  0  0  0  0  0  0  0  0  0  0
  -20.4226  -41.1010   -2.2301 C   0  0  0  0  0  0  0  0  0  0  0  0
  -20.5987  -41.6212   -3.6103 C   0  0  0  0  0  0  0  0  0  0  0  0
  -21.7599  -42.1793   -4.0557 C   0  0  0  0  0  0  0  0  0  0  0  0
  -21.9429  -42.6824   -5.3747 C   0  0  0  0  0  0  0  0  0  0  0  0
  -20.8968  -42.6161   -6.2683 C   0  0  0  0  0  0  0  0  0  0  0  0
  -19.7099  -42.0563   -5.8583 C   0  0  0  0  0  0  0  0  0  0  0  0
  -19.5862  -41.5703   -4.5320 C   0  0  0  0  0  0  0  0  0  0  0  0
  -18.4494  -41.8032   -6.5903 C   0  0  0  0  0  0  0  0  0  0  0  0
  -17.3128  -41.9638   -5.9142 O   0  0  0  0  0  0  0  0  0  0  0  0
  -18.1693  -41.4117   -7.9015 N   0  0  0  0  0  0  0  0  0  0  0  0
  -18.6624  -40.3851   -8.7482 C   0  0  1  0  0  0  0  0  0  0  0  0
  -19.8295  -39.5845   -8.3089 C   0  0  0  0  0  0  0  0  0  0  0  0
  -21.0378  -39.7615   -9.1816 C   0  0  0  0  0  0  0  0  0  0  0  0
  -22.1087  -40.6018   -9.0447 C   0  0  0  0  0  0  0  0  0  0  0  0
  -23.0761  -40.5862  -10.0408 C   0  0  0  0  0  0  0  0  0  0  0  0
  -22.9649  -39.7391  -11.1432 C   0  0  0  0  0  0  0  0  0  0  0  0
  -21.9020  -38.8795  -11.3128 C   0  0  0  0  0  0  0  0  0  0  0  0
  -20.9638  -38.9206  -10.3155 C   0  0  0  0  0  0  0  0  0  0  0  0
  -24.2400  -41.3482  -10.1271 O   0  0  0  0  0  0  0  0  0  0  0  0
  -24.5254  -42.7110  -10.1151 C   0  0  0  0  0  0  0  0  0  0  0  0
  -25.1704  -43.0812   -8.7949 C   0  0  0  0  0  0  0  0  0  0  0  0
  -24.1584  -43.6226   -7.7934 C   0  0  0  0  0  0  0  0  0  0  0  0
  -24.3049  -42.8365   -6.5166 C   0  0  0  0  0  0  0  0  0  0  0  0
  -23.2902  -43.1378   -5.5299 N   0  0  0  0  0  0  0  0  0  0  0  0
  -17.4695  -39.4952   -9.2413 C   0  0  2  0  0  0  0  0  0  0  0  0
  -17.7896  -39.3676  -10.6264 O   0  0  0  0  0  0  0  0  0  0  0  0
  -16.1981  -40.2323   -9.1647 C   0  0  0  0  0  0  0  0  0  0  0  0
  -15.2295  -39.8327   -8.2175 N   0  0  0  0  0  0  0  0  0  0  0  0
  -13.8781  -39.7299   -8.6098 C   0  0  0  0  0  0  0  0  0  0  0  0
  -12.8507  -39.3671   -7.6112 C   0  0  0  0  0  0  0  0  0  0  0  0
  -13.4790  -41.1173   -9.1577 C   0  0  0  0  0  0  0  0  0  0  0  0
  -13.6915  -38.8038   -9.7839 C   0  0  0  0  0  0  0  0  0  0  0  0
  -13.9682  -37.4629   -9.6299 C   0  0  0  0  0  0  0  0  0  0  0  0
  -13.8099  -36.5480  -10.6456 C   0  0  0  0  0  0  0  0  0  0  0  0
  -13.3485  -37.0021  -11.8814 C   0  0  0  0  0  0  0  0  0  0  0  0
  -13.0804  -38.3474  -12.0061 C   0  0  0  0  0  0  0  0  0  0  0  0
  -13.2504  -39.2180  -10.9803 N   0  0  0  0  0  0  0  0  0  0  0  0
  -14.1288  -35.1119  -10.4908 C   0  0  0  0  0  0  0  0  0  0  0  0
  -13.0114  -34.3161   -9.8805 C   0  0  0  0  0  0  0  0  0  0  0  0
  -14.4414  -34.5443  -11.8770 C   0  0  0  0  0  0  0  0  0  0  0  0
  -15.3414  -34.9519   -9.6042 C   0  0  0  0  0  0  0  0  0  0  0  0
  1  2  1  0
  2  3  1  0
  3  4  1  0
  4  5  2  0
  5  6  1  0
  6  7  2  0
  7  8  1  0
  8  9  2  0
  8 10  1  0
 10 11  2  0
 10 12  1  0
 12 13  1  0
 13 14  1  1
 14 15  1  0
 15 16  2  0
 16 17  1  0
 17 18  2  0
 18 19  1  0
 19 20  2  0
 17 21  1  0
 21 22  1  0
 22 23  1  0
 23 24  1  0
 24 25  1  0
 25 26  1  0
 13 27  1  0
 27 28  1  6
 27 29  1  0
 29 30  1  0
 30 31  1  0
 31 32  1  0
 31 33  1  0
 31 34  1  0
 34 35  2  0
 35 36  1  0
 36 37  2  0
 37 38  1  0
 38 39  2  0
 36 40  1  0
 40 41  1  0
 40 42  1  0
 40 43  1  0
  9  4  1  0
 20 15  1  0
 26  6  1  0
 39 34  1  0
M  END
$$$$
