
     RDKit          3D

 43 46  0  0  0  0  0  0  0  0999 V2000
  -21.4070  -39.2031  -14.8971 C   0  0  0  0  0  0  0  0  0  0  0  0
  -20.5688  -40.1384  -14.3119 O   0  0  0  0  0  0  0  0  0  0  0  0
  -21.2690  -41.0507  -13.5262 C   0  0  0  0  0  0  0  0  0  0  0  0
  -21.3665  -40.5991  -12.1145 C   0  0  0  0  0  0  0  0  0  0  0  0
  -22.3709  -40.9810  -11.2757 C   0  0  0  0  0  0  0  0  0  0  0  0
  -22.4776  -40.5560   -9.9213 C   0  0  0  0  0  0  0  0  0  0  0  0
  -21.5234  -39.7048   -9.4090 C   0  0  0  0  0  0  0  0  0  0  0  0
  -20.4917  -39.2997  -10.2225 C   0  0  0  0  0  0  0  0  0  0  0  0
  -20.4366  -39.7570  -11.5636 C   0  0  0  0  0  0  0  0  0  0  0  0
  -19.3138  -38.4477   -9.9486 C   0  0  0  0  0  0  0  0  0  0  0  0
  -18.9136  -37.6343  -10.9247 O   0  0  0  0  0  0  0  0  0  0  0  0
  -18.4820  -38.2980   -8.8364 N   0  0  0  0  0  0  0  0  0  0  0  0
  -17.8017  -39.2089   -7.9872 C   0  0  1  0  0  0  0  0  0  0  0  0
  -18.0708  -40.6600   -8.1205 C   0  0  0  0  0  0  0  0  0  0  0  0
  -18.7059  -41.2641   -6.9020 C   0  0  0  0  0  0  0  0  0  0  0  0
  -20.0246  -41.4852   -6.6129 C   0  0  0  0  0  0  0  0  0  0  0  0
  -20.3342  -42.0268   -5.3724 C   0  0  0  0  0  0  0  0  0  0  0  0
  -19.3352  -42.3409   -4.4513 C   0  0  0  0  0  0  0  0  0  0  0  0
  -17.9980  -42.1334   -4.7088 C   0  0  0  0  0  0  0  0  0  0  0  0
  -17.7257  -41.5956   -5.9389 C   0  0  0  0  0  0  0  0  0  0  0  0
  -21.5907  -42.3312   -4.8514 O   0  0  0  0  0  0  0  0  0  0  0  0
  -22.7648  -41.6146   -4.6357 C   0  0  0  0  0  0  0  0  0  0  0  0
  -23.8111  -42.0419   -5.6450 C   0  0  0  0  0  0  0  0  0  0  0  0
  -23.8583  -41.1128   -6.8512 C   0  0  0  0  0  0  0  0  0  0  0  0
  -23.7390  -41.9591   -8.0919 C   0  0  0  0  0  0  0  0  0  0  0  0
  -23.6055  -41.1883   -9.3093 N   0  0  0  0  0  0  0  0  0  0  0  0
  -16.2697  -38.8757   -7.9826 C   0  0  2  0  0  0  0  0  0  0  0  0
  -16.0608  -38.6103   -6.5958 O   0  0  0  0  0  0  0  0  0  0  0  0
  -16.0035  -37.6193   -8.7010 C   0  0  0  0  0  0  0  0  0  0  0  0
  -16.7108  -37.3476   -9.8931 N   0  0  0  0  0  0  0  0  0  0  0  0
  -15.9939  -37.0514  -11.0717 C   0  0  0  0  0  0  0  0  0  0  0  0
  -16.7267  -36.7097  -12.3088 C   0  0  0  0  0  0  0  0  0  0  0  0
  -15.1050  -35.8322  -10.7437 C   0  0  0  0  0  0  0  0  0  0  0  0
  -15.0114  -38.1358  -11.4321 C   0  0  0  0  0  0  0  0  0  0  0  0
  -13.6775  -37.9561  -11.1377 C   0  0  0  0  0  0  0  0  0  0  0  0
  -12.7185  -38.9021  -11.4186 C   0  0  0  0  0  0  0  0  0  0  0  0
  -13.1188  -40.0923  -12.0265 C   0  0  0  0  0  0  0  0  0  0  0  0
  -14.4582  -40.2441  -12.3093 C   0  0  0  0  0  0  0  0  0  0  0  0
  -15.3733  -39.2866  -12.0172 N   0  0  0  0  0  0  0  0  0  0  0  0
  -11.2824  -38.7024  -11.1257 C   0  0  0  0  0  0  0  0  0  0  0  0
  -10.9964  -37.4245  -10.3911 C   0  0  0  0  0  0  0  0  0  0  0  0
  -10.8047  -39.8807  -10.2742 C   0  0  0  0  0  0  0  0  0  0  0  0
  -10.4983  -38.6732  -12.4165 C   0  0  0  0  0  0  0  0  0  0  0  0
  1  2  1  0
  2  3  1  0
  3  4  1  0
  4  5  2  0
  5  6  1  0
  6  7  2  0
  7  8  1  0
  8  9  2  0
  8 10  1  0
 10 11  2  0
 10 12  1  0
 12 13  1  0
 13 14  1  6
 14 15  1  0
 15 16  2  0
 16 17  1  0
 17 18  2  0
 18 19  1  0
 19 20  2  0
 17 21  1  0
 21 22  1  0
 22 23  1  0
 23 24  1  0
 24 25  1  0
 25 26  1  0
 13 27  1  0
 27 28  1  1
 27 29  1  0
 29 30  1  0
 30 31  1  0
 31 32  1  0
 31 33  1  0
 31 34  1  0
 34 35  2  0
 35 36  1  0
 36 37  2  0
 37 38  1  0
 38 39  2  0
 36 40  1  0
 40 41  1  0
 40 42  1  0
 40 43  1  0
  9  4  1  0
 20 15  1  0
 26  6  1  0
 39 34  1  0
M  END
$$$$
