
     RDKit          3D

 43 46  0  0  0  0  0  0  0  0999 V2000
  -24.0936  -41.1786   -4.6528 C   0  0  0  0  0  0  0  0  0  0  0  0
  -24.2076  -40.1677   -5.5934 O   0  0  0  0  0  0  0  0  0  0  0  0
  -23.1527  -39.2613   -5.5191 C   0  0  0  0  0  0  0  0  0  0  0  0
  -22.3393  -39.2614   -6.7621 C   0  0  0  0  0  0  0  0  0  0  0  0
  -22.7286  -38.6371   -7.9097 C   0  0  0  0  0  0  0  0  0  0  0  0
  -21.9603  -38.6292   -9.1079 C   0  0  0  0  0  0  0  0  0  0  0  0
  -20.7516  -39.2893   -9.1332 C   0  0  0  0  0  0  0  0  0  0  0  0
  -20.3218  -39.9282   -7.9942 C   0  0  0  0  0  0  0  0  0  0  0  0
  -21.1295  -39.9010   -6.8290 C   0  0  0  0  0  0  0  0  0  0  0  0
  -19.0709  -40.6628   -7.7038 C   0  0  0  0  0  0  0  0  0  0  0  0
  -19.1660  -41.7367   -6.9215 O   0  0  0  0  0  0  0  0  0  0  0  0
  -17.7411  -40.4714   -8.0860 N   0  0  0  0  0  0  0  0  0  0  0  0
  -16.8729  -39.3490   -8.0982 C   0  0  1  0  0  0  0  0  0  0  0  0
  -17.4240  -38.0058   -7.8015 C   0  0  0  0  0  0  0  0  0  0  0  0
  -17.3400  -37.0562   -8.9609 C   0  0  0  0  0  0  0  0  0  0  0  0
  -18.2673  -36.7506   -9.9192 C   0  0  0  0  0  0  0  0  0  0  0  0
  -17.8993  -35.8555  -10.9150 C   0  0  0  0  0  0  0  0  0  0  0  0
  -16.6285  -35.2814  -10.9372 C   0  0  0  0  0  0  0  0  0  0  0  0
  -15.6708  -35.5646   -9.9884 C   0  0  0  0  0  0  0  0  0  0  0  0
  -16.0632  -36.4527   -9.0220 C   0  0  0  0  0  0  0  0  0  0  0  0
  -18.6586  -35.4004  -11.9916 O   0  0  0  0  0  0  0  0  0  0  0  0
  -19.3447  -36.0111  -13.0380 C   0  0  0  0  0  0  0  0  0  0  0  0
  -20.8366  -35.9056  -12.7947 C   0  0  0  0  0  0  0  0  0  0  0  0
  -21.4006  -37.1573  -12.1349 C   0  0  0  0  0  0  0  0  0  0  0  0
  -22.1690  -36.7294  -10.9117 C   0  0  0  0  0  0  0  0  0  0  0  0
  -22.6233  -37.8347  -10.0957 N   0  0  0  0  0  0  0  0  0  0  0  0
  -15.5865  -39.6731   -7.2625 C   0  0  2  0  0  0  0  0  0  0  0  0
  -14.6470  -38.7854   -7.8680 O   0  0  0  0  0  0  0  0  0  0  0  0
  -15.1153  -41.0407   -7.5335 C   0  0  0  0  0  0  0  0  0  0  0  0
  -15.8884  -42.1342   -7.0846 N   0  0  0  0  0  0  0  0  0  0  0  0
  -15.9114  -43.3239   -7.8428 C   0  0  0  0  0  0  0  0  0  0  0  0
  -15.3275  -43.3390   -9.2004 C   0  0  0  0  0  0  0  0  0  0  0  0
  -15.1312  -44.3751   -7.0239 C   0  0  0  0  0  0  0  0  0  0  0  0
  -17.2979  -43.9030   -7.9578 C   0  0  0  0  0  0  0  0  0  0  0  0
  -18.2996  -43.4077   -7.1519 C   0  0  0  0  0  0  0  0  0  0  0  0
  -19.5949  -43.8693   -7.2045 C   0  0  0  0  0  0  0  0  0  0  0  0
  -19.9021  -44.8811   -8.1146 C   0  0  0  0  0  0  0  0  0  0  0  0
  -18.8808  -45.3569   -8.9068 C   0  0  0  0  0  0  0  0  0  0  0  0
  -17.6155  -44.8757   -8.8241 N   0  0  0  0  0  0  0  0  0  0  0  0
  -20.6674  -43.3565   -6.3242 C   0  0  0  0  0  0  0  0  0  0  0  0
  -20.8027  -44.1243   -5.0410 C   0  0  0  0  0  0  0  0  0  0  0  0
  -20.3525  -41.8955   -5.9963 C   0  0  0  0  0  0  0  0  0  0  0  0
  -21.9944  -43.4289   -7.0424 C   0  0  0  0  0  0  0  0  0  0  0  0
  1  2  1  0
  2  3  1  0
  3  4  1  0
  4  5  2  0
  5  6  1  0
  6  7  2  0
  7  8  1  0
  8  9  2  0
  8 10  1  0
 10 11  2  0
 10 12  1  0
 12 13  1  0
 13 14  1  1
 14 15  1  0
 15 16  2  0
 16 17  1  0
 17 18  2  0
 18 19  1  0
 19 20  2  0
 17 21  1  0
 21 22  1  0
 22 23  1  0
 23 24  1  0
 24 25  1  0
 25 26  1  0
 13 27  1  0
 27 28  1  6
 27 29  1  0
 29 30  1  0
 30 31  1  0
 31 32  1  0
 31 33  1  0
 31 34  1  0
 34 35  2  0
 35 36  1  0
 36 37  2  0
 37 38  1  0
 38 39  2  0
 36 40  1  0
 40 41  1  0
 40 42  1  0
 40 43  1  0
  9  4  1  0
 20 15  1  0
 26  6  1  0
 39 34  1  0
M  END
$$$$
