
     RDKit          3D

 43 46  0  0  0  0  0  0  0  0999 V2000
  -19.0751  -44.3682   -1.5428 C   0  0  0  0  0  0  0  0  0  0  0  0
  -19.7989  -43.5432   -2.3886 O   0  0  0  0  0  0  0  0  0  0  0  0
  -20.6523  -44.2643   -3.2202 C   0  0  0  0  0  0  0  0  0  0  0  0
  -20.7003  -43.6902   -4.5893 C   0  0  0  0  0  0  0  0  0  0  0  0
  -21.8434  -43.6150   -5.3282 C   0  0  0  0  0  0  0  0  0  0  0  0
  -21.9044  -43.0683   -6.6411 C   0  0  0  0  0  0  0  0  0  0  0  0
  -20.7515  -42.5858   -7.2203 C   0  0  0  0  0  0  0  0  0  0  0  0
  -19.5783  -42.6402   -6.5055 C   0  0  0  0  0  0  0  0  0  0  0  0
  -19.5785  -43.1948   -5.2005 C   0  0  0  0  0  0  0  0  0  0  0  0
  -18.2165  -42.1640   -6.8332 C   0  0  0  0  0  0  0  0  0  0  0  0
  -17.1959  -42.9115   -6.4157 O   0  0  0  0  0  0  0  0  0  0  0  0
  -17.7355  -41.0457   -7.5180 N   0  0  0  0  0  0  0  0  0  0  0  0
  -18.0161  -39.6562   -7.4524 C   0  0  1  0  0  0  0  0  0  0  0  0
  -19.1475  -39.1860   -6.6187 C   0  0  0  0  0  0  0  0  0  0  0  0
  -20.2462  -38.5407   -7.4120 C   0  0  0  0  0  0  0  0  0  0  0  0
  -21.4013  -39.0744   -7.9143 C   0  0  0  0  0  0  0  0  0  0  0  0
  -22.2281  -38.2444   -8.6599 C   0  0  0  0  0  0  0  0  0  0  0  0
  -21.8967  -36.9088   -8.8865 C   0  0  0  0  0  0  0  0  0  0  0  0
  -20.7435  -36.3378   -8.3952 C   0  0  0  0  0  0  0  0  0  0  0  0
  -19.9482  -37.1826   -7.6670 C   0  0  0  0  0  0  0  0  0  0  0  0
  -23.4392  -38.5573   -9.2748 O   0  0  0  0  0  0  0  0  0  0  0  0
  -23.8531  -39.5099  -10.2022 C   0  0  0  0  0  0  0  0  0  0  0  0
  -24.6934  -40.5615   -9.5065 C   0  0  0  0  0  0  0  0  0  0  0  0
  -23.8737  -41.7838   -9.1138 C   0  0  0  0  0  0  0  0  0  0  0  0
  -24.1055  -42.0451   -7.6483 C   0  0  0  0  0  0  0  0  0  0  0  0
  -23.2583  -43.0837   -7.1029 N   0  0  0  0  0  0  0  0  0  0  0  0
  -16.6904  -38.8670   -7.1735 C   0  0  2  0  0  0  0  0  0  0  0  0
  -16.7838  -37.8368   -8.1571 O   0  0  0  0  0  0  0  0  0  0  0  0
  -15.5131  -39.6796   -7.5192 C   0  0  0  0  0  0  0  0  0  0  0  0
  -14.9788  -39.5930   -8.8237 N   0  0  0  0  0  0  0  0  0  0  0  0
  -14.1750  -40.6438   -9.3143 C   0  0  0  0  0  0  0  0  0  0  0  0
  -13.1159  -41.2173   -8.4578 C   0  0  0  0  0  0  0  0  0  0  0  0
  -15.1363  -41.8044   -9.6505 C   0  0  0  0  0  0  0  0  0  0  0  0
  -13.5324  -40.3048  -10.6346 C   0  0  0  0  0  0  0  0  0  0  0  0
  -13.1624  -39.0014  -10.8844 C   0  0  0  0  0  0  0  0  0  0  0  0
  -12.5566  -38.6104  -12.0565 C   0  0  0  0  0  0  0  0  0  0  0  0
  -12.3078  -39.5787  -13.0296 C   0  0  0  0  0  0  0  0  0  0  0  0
  -12.6887  -40.8730  -12.7524 C   0  0  0  0  0  0  0  0  0  0  0  0
  -13.2848  -41.2183  -11.5842 N   0  0  0  0  0  0  0  0  0  0  0  0
  -12.1798  -37.2079  -12.3377 C   0  0  0  0  0  0  0  0  0  0  0  0
  -11.9321  -36.3978  -11.0981 C   0  0  0  0  0  0  0  0  0  0  0  0
  -10.9050  -37.2208  -13.1840 C   0  0  0  0  0  0  0  0  0  0  0  0
  -13.2839  -36.5296  -13.1142 C   0  0  0  0  0  0  0  0  0  0  0  0
  1  2  1  0
  2  3  1  0
  3  4  1  0
  4  5  2  0
  5  6  1  0
  6  7  2  0
  7  8  1  0
  8  9  2  0
  8 10  1  0
 10 11  2  0
 10 12  1  0
 12 13  1  0
 13 14  1  1
 14 15  1  0
 15 16  2  0
 16 17  1  0
 17 18  2  0
 18 19  1  0
 19 20  2  0
 17 21  1  0
 21 22  1  0
 22 23  1  0
 23 24  1  0
 24 25  1  0
 25 26  1  0
 13 27  1  0
 27 28  1  6
 27 29  1  0
 29 30  1  0
 30 31  1  0
 31 32  1  0
 31 33  1  0
 31 34  1  0
 34 35  2  0
 35 36  1  0
 36 37  2  0
 37 38  1  0
 38 39  2  0
 36 40  1  0
 40 41  1  0
 40 42  1  0
 40 43  1  0
  9  4  1  0
 20 15  1  0
 26  6  1  0
 39 34  1  0
M  END
$$$$
