
     RDKit          3D

 43 46  0  0  0  0  0  0  0  0999 V2000
  -19.0275  -48.6843   -7.8973 C   0  0  0  0  0  0  0  0  0  0  0  0
  -18.0411  -47.7250   -7.7342 O   0  0  0  0  0  0  0  0  0  0  0  0
  -18.4383  -46.7063   -6.8714 C   0  0  0  0  0  0  0  0  0  0  0  0
  -18.9503  -45.5258   -7.6136 C   0  0  0  0  0  0  0  0  0  0  0  0
  -20.2604  -45.3694   -7.9561 C   0  0  0  0  0  0  0  0  0  0  0  0
  -20.7651  -44.2444   -8.6674 C   0  0  0  0  0  0  0  0  0  0  0  0
  -19.8953  -43.2457   -9.0461 C   0  0  0  0  0  0  0  0  0  0  0  0
  -18.5660  -43.3646   -8.7157 C   0  0  0  0  0  0  0  0  0  0  0  0
  -18.1208  -44.5078   -8.0047 C   0  0  0  0  0  0  0  0  0  0  0  0
  -17.4235  -42.4508   -8.9351 C   0  0  0  0  0  0  0  0  0  0  0  0
  -16.2471  -43.0080   -9.2185 O   0  0  0  0  0  0  0  0  0  0  0  0
  -17.2950  -41.0602   -8.9092 N   0  0  0  0  0  0  0  0  0  0  0  0
  -17.7007  -40.0517   -7.9971 C   0  0  1  0  0  0  0  0  0  0  0  0
  -18.5842  -40.4149   -6.8641 C   0  0  0  0  0  0  0  0  0  0  0  0
  -19.9332  -39.7595   -6.9248 C   0  0  0  0  0  0  0  0  0  0  0  0
  -21.1160  -40.2221   -7.4331 C   0  0  0  0  0  0  0  0  0  0  0  0
  -22.2139  -39.3727   -7.3956 C   0  0  0  0  0  0  0  0  0  0  0  0
  -22.1181  -38.0913   -6.8534 C   0  0  0  0  0  0  0  0  0  0  0  0
  -20.9445  -37.5934   -6.3316 C   0  0  0  0  0  0  0  0  0  0  0  0
  -19.8799  -38.4537   -6.3861 C   0  0  0  0  0  0  0  0  0  0  0  0
  -23.5080  -39.6121   -7.8546 O   0  0  0  0  0  0  0  0  0  0  0  0
  -24.0638  -39.9906   -9.0739 C   0  0  0  0  0  0  0  0  0  0  0  0
  -24.5379  -41.4274   -8.9896 C   0  0  0  0  0  0  0  0  0  0  0  0
  -23.5052  -42.4055   -9.5348 C   0  0  0  0  0  0  0  0  0  0  0  0
  -23.2664  -43.4591   -8.4848 C   0  0  0  0  0  0  0  0  0  0  0  0
  -22.1840  -44.3640   -8.8064 N   0  0  0  0  0  0  0  0  0  0  0  0
  -16.4505  -39.2197   -7.5465 C   0  0  2  0  0  0  0  0  0  0  0  0
  -17.0072  -37.9061   -7.5065 O   0  0  0  0  0  0  0  0  0  0  0  0
  -15.4186  -39.2128   -8.5958 C   0  0  0  0  0  0  0  0  0  0  0  0
  -15.1672  -38.0161   -9.3026 N   0  0  0  0  0  0  0  0  0  0  0  0
  -14.7982  -38.0796  -10.6630 C   0  0  0  0  0  0  0  0  0  0  0  0
  -15.6837  -37.4929  -11.6906 C   0  0  0  0  0  0  0  0  0  0  0  0
  -13.4480  -37.3399  -10.7810 C   0  0  0  0  0  0  0  0  0  0  0  0
  -14.4867  -39.4857  -11.1068 C   0  0  0  0  0  0  0  0  0  0  0  0
  -13.1987  -39.9582  -10.9802 C   0  0  0  0  0  0  0  0  0  0  0  0
  -12.8336  -41.2335  -11.3465 C   0  0  0  0  0  0  0  0  0  0  0  0
  -13.8128  -42.0802  -11.8665 C   0  0  0  0  0  0  0  0  0  0  0  0
  -15.0912  -41.5808  -11.9817 C   0  0  0  0  0  0  0  0  0  0  0  0
  -15.4111  -40.3163  -11.6100 N   0  0  0  0  0  0  0  0  0  0  0  0
  -11.4469  -41.7360  -11.2342 C   0  0  0  0  0  0  0  0  0  0  0  0
  -11.1942  -42.9731  -12.0467 C   0  0  0  0  0  0  0  0  0  0  0  0
  -10.5026  -40.6298  -11.7095 C   0  0  0  0  0  0  0  0  0  0  0  0
  -11.1394  -42.0652   -9.7924 C   0  0  0  0  0  0  0  0  0  0  0  0
  1  2  1  0
  2  3  1  0
  3  4  1  0
  4  5  2  0
  5  6  1  0
  6  7  2  0
  7  8  1  0
  8  9  2  0
  8 10  1  0
 10 11  2  0
 10 12  1  0
 12 13  1  0
 13 14  1  1
 14 15  1  0
 15 16  2  0
 16 17  1  0
 17 18  2  0
 18 19  1  0
 19 20  2  0
 17 21  1  0
 21 22  1  0
 22 23  1  0
 23 24  1  0
 24 25  1  0
 25 26  1  0
 13 27  1  0
 27 28  1  6
 27 29  1  0
 29 30  1  0
 30 31  1  0
 31 32  1  0
 31 33  1  0
 31 34  1  0
 34 35  2  0
 35 36  1  0
 36 37  2  0
 37 38  1  0
 38 39  2  0
 36 40  1  0
 40 41  1  0
 40 42  1  0
 40 43  1  0
  9  4  1  0
 20 15  1  0
 26  6  1  0
 39 34  1  0
M  END
$$$$
