
     RDKit          3D

 43 46  0  0  0  0  0  0  0  0999 V2000
  -18.1700  -48.1764   -6.2611 C   0  0  0  0  0  0  0  0  0  0  0  0
  -17.8372  -46.9523   -5.7038 O   0  0  0  0  0  0  0  0  0  0  0  0
  -18.9545  -46.2746   -5.2222 C   0  0  0  0  0  0  0  0  0  0  0  0
  -19.4721  -45.2951   -6.2117 C   0  0  0  0  0  0  0  0  0  0  0  0
  -20.7758  -45.2509   -6.6076 C   0  0  0  0  0  0  0  0  0  0  0  0
  -21.2857  -44.3188   -7.5549 C   0  0  0  0  0  0  0  0  0  0  0  0
  -20.4279  -43.4018   -8.1211 C   0  0  0  0  0  0  0  0  0  0  0  0
  -19.1055  -43.4113   -7.7448 C   0  0  0  0  0  0  0  0  0  0  0  0
  -18.6547  -44.3629   -6.7951 C   0  0  0  0  0  0  0  0  0  0  0  0
  -17.9776  -42.5357   -8.1315 C   0  0  0  0  0  0  0  0  0  0  0  0
  -16.7824  -43.1090   -8.2633 O   0  0  0  0  0  0  0  0  0  0  0  0
  -17.8799  -41.1689   -8.4028 N   0  0  0  0  0  0  0  0  0  0  0  0
  -18.3313  -39.9994   -7.7380 C   0  0  1  0  0  0  0  0  0  0  0  0
  -19.2364  -40.1345   -6.5724 C   0  0  0  0  0  0  0  0  0  0  0  0
  -20.5971  -39.5437   -6.8013 C   0  0  0  0  0  0  0  0  0  0  0  0
  -21.7559  -40.1362   -7.2231 C   0  0  0  0  0  0  0  0  0  0  0  0
  -22.8724  -39.3282   -7.3926 C   0  0  0  0  0  0  0  0  0  0  0  0
  -22.8187  -37.9582   -7.1370 C   0  0  0  0  0  0  0  0  0  0  0  0
  -21.6703  -37.3286   -6.7099 C   0  0  0  0  0  0  0  0  0  0  0  0
  -20.5863  -38.1518   -6.5553 C   0  0  0  0  0  0  0  0  0  0  0  0
  -24.1485  -39.6952   -7.8166 O   0  0  0  0  0  0  0  0  0  0  0  0
  -24.6635  -40.3413   -8.9373 C   0  0  0  0  0  0  0  0  0  0  0  0
  -25.1085  -41.7387   -8.5558 C   0  0  0  0  0  0  0  0  0  0  0  0
  -24.0409  -42.7830   -8.8556 C   0  0  0  0  0  0  0  0  0  0  0  0
  -23.8073  -43.5799   -7.5986 C   0  0  0  0  0  0  0  0  0  0  0  0
  -22.6974  -44.5034   -7.6949 N   0  0  0  0  0  0  0  0  0  0  0  0
  -17.1117  -39.0569   -7.4506 C   0  0  2  0  0  0  0  0  0  0  0  0
  -17.7802  -37.8110   -7.2559 O   0  0  0  0  0  0  0  0  0  0  0  0
  -16.2711  -38.9060   -8.6491 C   0  0  0  0  0  0  0  0  0  0  0  0
  -15.2085  -39.8122   -8.8603 N   0  0  0  0  0  0  0  0  0  0  0  0
  -15.0561  -40.4184  -10.1252 C   0  0  0  0  0  0  0  0  0  0  0  0
  -14.8621  -41.8806  -10.2184 C   0  0  0  0  0  0  0  0  0  0  0  0
  -16.3437  -40.1009  -10.9161 C   0  0  0  0  0  0  0  0  0  0  0  0
  -13.9591  -39.7802  -10.9377 C   0  0  0  0  0  0  0  0  0  0  0  0
  -12.8059  -39.3728  -10.3032 C   0  0  0  0  0  0  0  0  0  0  0  0
  -11.7510  -38.7962  -10.9727 C   0  0  0  0  0  0  0  0  0  0  0  0
  -11.8580  -38.6196  -12.3524 C   0  0  0  0  0  0  0  0  0  0  0  0
  -13.0221  -39.0359  -12.9597 C   0  0  0  0  0  0  0  0  0  0  0  0
  -14.0405  -39.5997  -12.2637 N   0  0  0  0  0  0  0  0  0  0  0  0
  -10.5215  -38.3359  -10.2912 C   0  0  0  0  0  0  0  0  0  0  0  0
  -10.7696  -37.8073   -8.9080 C   0  0  0  0  0  0  0  0  0  0  0  0
   -9.5573  -39.5208  -10.2030 C   0  0  0  0  0  0  0  0  0  0  0  0
   -9.8770  -37.2306  -11.0943 C   0  0  0  0  0  0  0  0  0  0  0  0
  1  2  1  0
  2  3  1  0
  3  4  1  0
  4  5  2  0
  5  6  1  0
  6  7  2  0
  7  8  1  0
  8  9  2  0
  8 10  1  0
 10 11  2  0
 10 12  1  0
 12 13  1  0
 13 14  1  1
 14 15  1  0
 15 16  2  0
 16 17  1  0
 17 18  2  0
 18 19  1  0
 19 20  2  0
 17 21  1  0
 21 22  1  0
 22 23  1  0
 23 24  1  0
 24 25  1  0
 25 26  1  0
 13 27  1  0
 27 28  1  6
 27 29  1  0
 29 30  1  0
 30 31  1  0
 31 32  1  0
 31 33  1  0
 31 34  1  0
 34 35  2  0
 35 36  1  0
 36 37  2  0
 37 38  1  0
 38 39  2  0
 36 40  1  0
 40 41  1  0
 40 42  1  0
 40 43  1  0
  9  4  1  0
 20 15  1  0
 26  6  1  0
 39 34  1  0
M  END
$$$$
