
     RDKit          3D

 43 46  0  0  0  0  0  0  0  0999 V2000
  -18.2199  -42.9915   -2.1293 C   0  0  0  0  0  0  0  0  0  0  0  0
  -19.1453  -42.6419   -3.0994 O   0  0  0  0  0  0  0  0  0  0  0  0
  -19.5628  -43.7412   -3.8458 C   0  0  0  0  0  0  0  0  0  0  0  0
  -20.1942  -43.3289   -5.1256 C   0  0  0  0  0  0  0  0  0  0  0  0
  -21.5354  -43.4074   -5.3563 C   0  0  0  0  0  0  0  0  0  0  0  0
  -22.1542  -43.0168   -6.5773 C   0  0  0  0  0  0  0  0  0  0  0  0
  -21.3699  -42.5328   -7.6010 C   0  0  0  0  0  0  0  0  0  0  0  0
  -20.0125  -42.4344   -7.4060 C   0  0  0  0  0  0  0  0  0  0  0  0
  -19.4521  -42.8376   -6.1674 C   0  0  0  0  0  0  0  0  0  0  0  0
  -18.9389  -41.9156   -8.2816 C   0  0  0  0  0  0  0  0  0  0  0  0
  -17.7668  -42.5474   -8.2432 O   0  0  0  0  0  0  0  0  0  0  0  0
  -18.8754  -40.8541   -9.1872 N   0  0  0  0  0  0  0  0  0  0  0  0
  -19.2469  -39.4859   -9.1267 C   0  0  1  0  0  0  0  0  0  0  0  0
  -20.0087  -38.9951   -7.9541 C   0  0  0  0  0  0  0  0  0  0  0  0
  -21.3876  -38.5116   -8.2975 C   0  0  0  0  0  0  0  0  0  0  0  0
  -22.5871  -39.1682   -8.2586 C   0  0  0  0  0  0  0  0  0  0  0  0
  -23.7168  -38.4797   -8.6804 C   0  0  0  0  0  0  0  0  0  0  0  0
  -23.6350  -37.1602   -9.1248 C   0  0  0  0  0  0  0  0  0  0  0  0
  -22.4452  -36.4680   -9.1760 C   0  0  0  0  0  0  0  0  0  0  0  0
  -21.3496  -37.1752   -8.7565 C   0  0  0  0  0  0  0  0  0  0  0  0
  -25.0334  -38.9333   -8.7400 O   0  0  0  0  0  0  0  0  0  0  0  0
  -25.6758  -40.0078   -9.3495 C   0  0  0  0  0  0  0  0  0  0  0  0
  -26.0712  -41.0240   -8.2973 C   0  0  0  0  0  0  0  0  0  0  0  0
  -25.0450  -42.1418   -8.1646 C   0  0  0  0  0  0  0  0  0  0  0  0
  -24.6643  -42.2502   -6.7109 C   0  0  0  0  0  0  0  0  0  0  0  0
  -23.5724  -43.1670   -6.4639 N   0  0  0  0  0  0  0  0  0  0  0  0
  -18.0031  -38.5906   -9.4578 C   0  0  2  0  0  0  0  0  0  0  0  0
  -18.6468  -37.4110   -9.9390 O   0  0  0  0  0  0  0  0  0  0  0  0
  -17.2398  -39.1488  -10.5854 C   0  0  0  0  0  0  0  0  0  0  0  0
  -16.3938  -40.2570  -10.3594 N   0  0  0  0  0  0  0  0  0  0  0  0
  -14.9963  -40.0657  -10.3232 C   0  0  0  0  0  0  0  0  0  0  0  0
  -14.1473  -40.6647  -11.3742 C   0  0  0  0  0  0  0  0  0  0  0  0
  -14.7655  -38.5407  -10.3965 C   0  0  0  0  0  0  0  0  0  0  0  0
  -14.3979  -40.4645   -8.9989 C   0  0  0  0  0  0  0  0  0  0  0  0
  -15.1898  -40.4409   -7.8717 C   0  0  0  0  0  0  0  0  0  0  0  0
  -14.7265  -40.8044   -6.6280 C   0  0  0  0  0  0  0  0  0  0  0  0
  -13.3984  -41.2143   -6.5086 C   0  0  0  0  0  0  0  0  0  0  0  0
  -12.6305  -41.2276   -7.6520 C   0  0  0  0  0  0  0  0  0  0  0  0
  -13.1245  -40.8606   -8.8606 N   0  0  0  0  0  0  0  0  0  0  0  0
  -15.5671  -40.7574   -5.4117 C   0  0  0  0  0  0  0  0  0  0  0  0
  -16.2192  -42.0703   -5.0873 C   0  0  0  0  0  0  0  0  0  0  0  0
  -14.6781  -40.3423   -4.2375 C   0  0  0  0  0  0  0  0  0  0  0  0
  -16.6638  -39.7338   -5.5896 C   0  0  0  0  0  0  0  0  0  0  0  0
  1  2  1  0
  2  3  1  0
  3  4  1  0
  4  5  2  0
  5  6  1  0
  6  7  2  0
  7  8  1  0
  8  9  2  0
  8 10  1  0
 10 11  2  0
 10 12  1  0
 12 13  1  0
 13 14  1  1
 14 15  1  0
 15 16  2  0
 16 17  1  0
 17 18  2  0
 18 19  1  0
 19 20  2  0
 17 21  1  0
 21 22  1  0
 22 23  1  0
 23 24  1  0
 24 25  1  0
 25 26  1  0
 13 27  1  0
 27 28  1  6
 27 29  1  0
 29 30  1  0
 30 31  1  0
 31 32  1  0
 31 33  1  0
 31 34  1  0
 34 35  2  0
 35 36  1  0
 36 37  2  0
 37 38  1  0
 38 39  2  0
 36 40  1  0
 40 41  1  0
 40 42  1  0
 40 43  1  0
  9  4  1  0
 20 15  1  0
 26  6  1  0
 39 34  1  0
M  END
$$$$
