
     RDKit          3D

 43 46  0  0  0  0  0  0  0  0999 V2000
  -19.1453  -48.6480   -7.4253 C   0  0  0  0  0  0  0  0  0  0  0  0
  -18.5603  -47.6334   -6.6850 O   0  0  0  0  0  0  0  0  0  0  0  0
  -19.5081  -46.7828   -6.1211 C   0  0  0  0  0  0  0  0  0  0  0  0
  -19.7749  -45.6059   -6.9872 C   0  0  0  0  0  0  0  0  0  0  0  0
  -21.0105  -45.3040   -7.4775 C   0  0  0  0  0  0  0  0  0  0  0  0
  -21.2810  -44.1806   -8.3088 C   0  0  0  0  0  0  0  0  0  0  0  0
  -20.2472  -43.3386   -8.6546 C   0  0  0  0  0  0  0  0  0  0  0  0
  -18.9863  -43.6068   -8.1767 C   0  0  0  0  0  0  0  0  0  0  0  0
  -18.7770  -44.7404   -7.3509 C   0  0  0  0  0  0  0  0  0  0  0  0
  -17.7112  -42.8725   -8.3299 C   0  0  0  0  0  0  0  0  0  0  0  0
  -16.6024  -43.6011   -8.4495 O   0  0  0  0  0  0  0  0  0  0  0  0
  -17.3924  -41.5134   -8.3786 N   0  0  0  0  0  0  0  0  0  0  0  0
  -17.7400  -40.3923   -7.5811 C   0  0  1  0  0  0  0  0  0  0  0  0
  -18.7719  -40.5462   -6.5286 C   0  0  0  0  0  0  0  0  0  0  0  0
  -20.0034  -39.7242   -6.7750 C   0  0  0  0  0  0  0  0  0  0  0  0
  -21.1841  -40.0638   -7.3769 C   0  0  0  0  0  0  0  0  0  0  0  0
  -22.1506  -39.0759   -7.5113 C   0  0  0  0  0  0  0  0  0  0  0  0
  -21.9297  -37.7804   -7.0443 C   0  0  0  0  0  0  0  0  0  0  0  0
  -20.7545  -37.4037   -6.4324 C   0  0  0  0  0  0  0  0  0  0  0  0
  -19.8206  -38.3993   -6.3177 C   0  0  0  0  0  0  0  0  0  0  0  0
  -23.4145  -39.1763   -8.0903 O   0  0  0  0  0  0  0  0  0  0  0  0
  -23.8963  -39.5711   -9.3356 C   0  0  0  0  0  0  0  0  0  0  0  0
  -24.5727  -40.9213   -9.2117 C   0  0  0  0  0  0  0  0  0  0  0  0
  -23.6389  -42.0671   -9.5798 C   0  0  0  0  0  0  0  0  0  0  0  0
  -23.6535  -43.0586   -8.4455 C   0  0  0  0  0  0  0  0  0  0  0  0
  -22.6822  -44.1212   -8.5912 N   0  0  0  0  0  0  0  0  0  0  0  0
  -16.4356  -39.7013   -7.0527 C   0  0  2  0  0  0  0  0  0  0  0  0
  -16.9088  -38.3718   -6.8384 O   0  0  0  0  0  0  0  0  0  0  0  0
  -15.4164  -39.6246   -8.1115 C   0  0  0  0  0  0  0  0  0  0  0  0
  -14.4798  -40.6740   -8.2394 N   0  0  0  0  0  0  0  0  0  0  0  0
  -13.4462  -40.5675   -9.1939 C   0  0  0  0  0  0  0  0  0  0  0  0
  -12.2184  -39.8141   -8.8635 C   0  0  0  0  0  0  0  0  0  0  0  0
  -12.9972  -42.0108   -9.5096 C   0  0  0  0  0  0  0  0  0  0  0  0
  -13.9398  -40.0390  -10.5160 C   0  0  0  0  0  0  0  0  0  0  0  0
  -14.0650  -38.6778  -10.6886 C   0  0  0  0  0  0  0  0  0  0  0  0
  -14.4931  -38.1125  -11.8679 C   0  0  0  0  0  0  0  0  0  0  0  0
  -14.8119  -38.9575  -12.9312 C   0  0  0  0  0  0  0  0  0  0  0  0
  -14.6775  -40.3135  -12.7297 C   0  0  0  0  0  0  0  0  0  0  0  0
  -14.2527  -40.8320  -11.5507 N   0  0  0  0  0  0  0  0  0  0  0  0
  -14.6515  -36.6530  -12.0488 C   0  0  0  0  0  0  0  0  0  0  0  0
  -13.4323  -35.9878  -12.6192 C   0  0  0  0  0  0  0  0  0  0  0  0
  -15.8317  -36.4184  -12.9941 C   0  0  0  0  0  0  0  0  0  0  0  0
  -14.9459  -36.0034  -10.7171 C   0  0  0  0  0  0  0  0  0  0  0  0
  1  2  1  0
  2  3  1  0
  3  4  1  0
  4  5  2  0
  5  6  1  0
  6  7  2  0
  7  8  1  0
  8  9  2  0
  8 10  1  0
 10 11  2  0
 10 12  1  0
 12 13  1  0
 13 14  1  1
 14 15  1  0
 15 16  2  0
 16 17  1  0
 17 18  2  0
 18 19  1  0
 19 20  2  0
 17 21  1  0
 21 22  1  0
 22 23  1  0
 23 24  1  0
 24 25  1  0
 25 26  1  0
 13 27  1  0
 27 28  1  6
 27 29  1  0
 29 30  1  0
 30 31  1  0
 31 32  1  0
 31 33  1  0
 31 34  1  0
 34 35  2  0
 35 36  1  0
 36 37  2  0
 37 38  1  0
 38 39  2  0
 36 40  1  0
 40 41  1  0
 40 42  1  0
 40 43  1  0
  9  4  1  0
 20 15  1  0
 26  6  1  0
 39 34  1  0
M  END
$$$$
