
     RDKit          3D

 43 46  0  0  0  0  0  0  0  0999 V2000
  -16.6201  -48.4978   -7.9808 C   0  0  0  0  0  0  0  0  0  0  0  0
  -16.9684  -47.1599   -8.0718 O   0  0  0  0  0  0  0  0  0  0  0  0
  -17.9377  -46.8058   -7.1364 C   0  0  0  0  0  0  0  0  0  0  0  0
  -18.7511  -45.6517   -7.5977 C   0  0  0  0  0  0  0  0  0  0  0  0
  -20.1127  -45.6261   -7.5381 C   0  0  0  0  0  0  0  0  0  0  0  0
  -20.9051  -44.5278   -7.9767 C   0  0  0  0  0  0  0  0  0  0  0  0
  -20.2801  -43.4175   -8.5001 C   0  0  0  0  0  0  0  0  0  0  0  0
  -18.9073  -43.4030   -8.5735 C   0  0  0  0  0  0  0  0  0  0  0  0
  -18.1700  -44.5261   -8.1197 C   0  0  0  0  0  0  0  0  0  0  0  0
  -17.9684  -42.3547   -9.0297 C   0  0  0  0  0  0  0  0  0  0  0  0
  -16.8800  -42.7583   -9.6832 O   0  0  0  0  0  0  0  0  0  0  0  0
  -17.9671  -40.9621   -8.9220 N   0  0  0  0  0  0  0  0  0  0  0  0
  -18.1800  -40.0583   -7.8489 C   0  0  1  0  0  0  0  0  0  0  0  0
  -18.6562  -40.5818   -6.5469 C   0  0  0  0  0  0  0  0  0  0  0  0
  -20.0186  -40.0812   -6.1643 C   0  0  0  0  0  0  0  0  0  0  0  0
  -21.2503  -40.6460   -6.3525 C   0  0  0  0  0  0  0  0  0  0  0  0
  -22.3629  -39.9300   -5.9310 C   0  0  0  0  0  0  0  0  0  0  0  0
  -22.2317  -38.6781   -5.3304 C   0  0  0  0  0  0  0  0  0  0  0  0
  -21.0082  -38.0801   -5.1237 C   0  0  0  0  0  0  0  0  0  0  0  0
  -19.9312  -38.8097   -5.5529 C   0  0  0  0  0  0  0  0  0  0  0  0
  -23.7067  -40.2889   -6.0212 O   0  0  0  0  0  0  0  0  0  0  0  0
  -24.5571  -40.6597   -7.0595 C   0  0  0  0  0  0  0  0  0  0  0  0
  -24.8508  -42.1434   -6.9676 C   0  0  0  0  0  0  0  0  0  0  0  0
  -23.9368  -42.9663   -7.8663 C   0  0  0  0  0  0  0  0  0  0  0  0
  -23.3052  -44.0427   -7.0225 C   0  0  0  0  0  0  0  0  0  0  0  0
  -22.2852  -44.7997   -7.7156 N   0  0  0  0  0  0  0  0  0  0  0  0
  -16.9352  -39.1163   -7.7032 C   0  0  2  0  0  0  0  0  0  0  0  0
  -17.5525  -37.9416   -7.1774 O   0  0  0  0  0  0  0  0  0  0  0  0
  -16.3916  -38.7569   -9.0227 C   0  0  0  0  0  0  0  0  0  0  0  0
  -15.2961  -39.4864   -9.5352 N   0  0  0  0  0  0  0  0  0  0  0  0
  -15.3365  -39.9532  -10.8661 C   0  0  0  0  0  0  0  0  0  0  0  0
  -15.4055  -41.4055  -11.1314 C   0  0  0  0  0  0  0  0  0  0  0  0
  -16.5998  -39.3357  -11.5040 C   0  0  0  0  0  0  0  0  0  0  0  0
  -14.2027  -39.4112  -11.6977 C   0  0  0  0  0  0  0  0  0  0  0  0
  -13.9126  -38.0656  -11.6391 C   0  0  0  0  0  0  0  0  0  0  0  0
  -12.8853  -37.4930  -12.3535 C   0  0  0  0  0  0  0  0  0  0  0  0
  -12.1068  -38.3140  -13.1696 C   0  0  0  0  0  0  0  0  0  0  0  0
  -12.4200  -39.6548  -13.2087 C   0  0  0  0  0  0  0  0  0  0  0  0
  -13.4423  -40.1810  -12.4894 N   0  0  0  0  0  0  0  0  0  0  0  0
  -12.5863  -36.0450  -12.3113 C   0  0  0  0  0  0  0  0  0  0  0  0
  -13.6870  -35.2271  -11.6996 C   0  0  0  0  0  0  0  0  0  0  0  0
  -11.3094  -35.8490  -11.4913 C   0  0  0  0  0  0  0  0  0  0  0  0
  -12.3594  -35.5304  -13.7133 C   0  0  0  0  0  0  0  0  0  0  0  0
  1  2  1  0
  2  3  1  0
  3  4  1  0
  4  5  2  0
  5  6  1  0
  6  7  2  0
  7  8  1  0
  8  9  2  0
  8 10  1  0
 10 11  2  0
 10 12  1  0
 12 13  1  0
 13 14  1  1
 14 15  1  0
 15 16  2  0
 16 17  1  0
 17 18  2  0
 18 19  1  0
 19 20  2  0
 17 21  1  0
 21 22  1  0
 22 23  1  0
 23 24  1  0
 24 25  1  0
 25 26  1  0
 13 27  1  0
 27 28  1  6
 27 29  1  0
 29 30  1  0
 30 31  1  0
 31 32  1  0
 31 33  1  0
 31 34  1  0
 34 35  2  0
 35 36  1  0
 36 37  2  0
 37 38  1  0
 38 39  2  0
 36 40  1  0
 40 41  1  0
 40 42  1  0
 40 43  1  0
  9  4  1  0
 20 15  1  0
 26  6  1  0
 39 34  1  0
M  END
$$$$
