
     RDKit          3D

 43 46  0  0  0  0  0  0  0  0999 V2000
  -16.0701  -47.7515   -6.6951 C   0  0  0  0  0  0  0  0  0  0  0  0
  -17.3972  -47.7445   -7.0930 O   0  0  0  0  0  0  0  0  0  0  0  0
  -18.1689  -46.8725   -6.3289 C   0  0  0  0  0  0  0  0  0  0  0  0
  -18.8033  -45.8222   -7.1661 C   0  0  0  0  0  0  0  0  0  0  0  0
  -20.1320  -45.8112   -7.4708 C   0  0  0  0  0  0  0  0  0  0  0  0
  -20.7535  -44.8121   -8.2721 C   0  0  0  0  0  0  0  0  0  0  0  0
  -19.9850  -43.7900   -8.7841 C   0  0  0  0  0  0  0  0  0  0  0  0
  -18.6409  -43.7636   -8.4961 C   0  0  0  0  0  0  0  0  0  0  0  0
  -18.0772  -44.7856   -7.6909 C   0  0  0  0  0  0  0  0  0  0  0  0
  -17.5887  -42.7864   -8.8519 C   0  0  0  0  0  0  0  0  0  0  0  0
  -16.3780  -43.2710   -9.1235 O   0  0  0  0  0  0  0  0  0  0  0  0
  -17.5799  -41.3948   -8.9722 N   0  0  0  0  0  0  0  0  0  0  0  0
  -18.0428  -40.3336   -8.1518 C   0  0  1  0  0  0  0  0  0  0  0  0
  -18.8565  -40.6484   -6.9539 C   0  0  0  0  0  0  0  0  0  0  0  0
  -20.2582  -40.1165   -7.0274 C   0  0  0  0  0  0  0  0  0  0  0  0
  -21.4118  -40.7258   -7.4392 C   0  0  0  0  0  0  0  0  0  0  0  0
  -22.5772  -39.9707   -7.4447 C   0  0  0  0  0  0  0  0  0  0  0  0
  -22.5756  -38.6362   -7.0394 C   0  0  0  0  0  0  0  0  0  0  0  0
  -21.4338  -37.9913   -6.6175 C   0  0  0  0  0  0  0  0  0  0  0  0
  -20.3012  -38.7617   -6.6264 C   0  0  0  0  0  0  0  0  0  0  0  0
  -23.8593  -40.3628   -7.8256 O   0  0  0  0  0  0  0  0  0  0  0  0
  -24.4176  -40.9111   -8.9773 C   0  0  0  0  0  0  0  0  0  0  0  0
  -24.7632  -42.3655   -8.7291 C   0  0  0  0  0  0  0  0  0  0  0  0
  -23.6673  -43.3065   -9.2126 C   0  0  0  0  0  0  0  0  0  0  0  0
  -23.3063  -44.2214   -8.0714 C   0  0  0  0  0  0  0  0  0  0  0  0
  -22.1603  -45.0624   -8.3421 N   0  0  0  0  0  0  0  0  0  0  0  0
  -16.8558  -39.3588   -7.8376 C   0  0  2  0  0  0  0  0  0  0  0  0
  -17.5717  -38.1872   -7.4473 O   0  0  0  0  0  0  0  0  0  0  0  0
  -16.1179  -39.0176   -9.0643 C   0  0  0  0  0  0  0  0  0  0  0  0
  -14.9409  -39.7324   -9.3781 N   0  0  0  0  0  0  0  0  0  0  0  0
  -14.8560  -40.4223  -10.6060 C   0  0  0  0  0  0  0  0  0  0  0  0
  -14.3025  -41.7923  -10.6400 C   0  0  0  0  0  0  0  0  0  0  0  0
  -16.2987  -40.5242  -11.1466 C   0  0  0  0  0  0  0  0  0  0  0  0
  -14.1244  -39.6300  -11.6586 C   0  0  0  0  0  0  0  0  0  0  0  0
  -13.4813  -38.4669  -11.2951 C   0  0  0  0  0  0  0  0  0  0  0  0
  -12.7782  -37.6934  -12.1901 C   0  0  0  0  0  0  0  0  0  0  0  0
  -12.7161  -38.1089  -13.5204 C   0  0  0  0  0  0  0  0  0  0  0  0
  -13.3685  -39.2750  -13.8547 C   0  0  0  0  0  0  0  0  0  0  0  0
  -14.0524  -40.0095  -12.9424 N   0  0  0  0  0  0  0  0  0  0  0  0
  -12.1068  -36.4319  -11.8082 C   0  0  0  0  0  0  0  0  0  0  0  0
  -11.5655  -35.6665  -12.9810 C   0  0  0  0  0  0  0  0  0  0  0  0
  -13.1250  -35.5574  -11.0734 C   0  0  0  0  0  0  0  0  0  0  0  0
  -10.9500  -36.7299  -10.8835 C   0  0  0  0  0  0  0  0  0  0  0  0
  1  2  1  0
  2  3  1  0
  3  4  1  0
  4  5  2  0
  5  6  1  0
  6  7  2  0
  7  8  1  0
  8  9  2  0
  8 10  1  0
 10 11  2  0
 10 12  1  0
 12 13  1  0
 13 14  1  1
 14 15  1  0
 15 16  2  0
 16 17  1  0
 17 18  2  0
 18 19  1  0
 19 20  2  0
 17 21  1  0
 21 22  1  0
 22 23  1  0
 23 24  1  0
 24 25  1  0
 25 26  1  0
 13 27  1  0
 27 28  1  6
 27 29  1  0
 29 30  1  0
 30 31  1  0
 31 32  1  0
 31 33  1  0
 31 34  1  0
 34 35  2  0
 35 36  1  0
 36 37  2  0
 37 38  1  0
 38 39  2  0
 36 40  1  0
 40 41  1  0
 40 42  1  0
 40 43  1  0
  9  4  1  0
 20 15  1  0
 26  6  1  0
 39 34  1  0
M  END
$$$$
