
     RDKit          3D

 43 46  0  0  0  0  0  0  0  0999 V2000
  -15.7955  -47.3312   -5.5690 C   0  0  0  0  0  0  0  0  0  0  0  0
  -16.6082  -47.1931   -6.6826 O   0  0  0  0  0  0  0  0  0  0  0  0
  -17.9607  -47.2360   -6.3528 C   0  0  0  0  0  0  0  0  0  0  0  0
  -18.7083  -46.0997   -6.9499 C   0  0  0  0  0  0  0  0  0  0  0  0
  -20.0662  -45.9900   -6.8994 C   0  0  0  0  0  0  0  0  0  0  0  0
  -20.7959  -44.9077   -7.4673 C   0  0  0  0  0  0  0  0  0  0  0  0
  -20.1101  -43.9039   -8.1149 C   0  0  0  0  0  0  0  0  0  0  0  0
  -18.7389  -43.9760   -8.1837 C   0  0  0  0  0  0  0  0  0  0  0  0
  -18.0655  -45.0780   -7.5981 C   0  0  0  0  0  0  0  0  0  0  0  0
  -17.7430  -43.0437   -8.7560 C   0  0  0  0  0  0  0  0  0  0  0  0
  -16.6809  -43.5823   -9.3530 O   0  0  0  0  0  0  0  0  0  0  0  0
  -17.6623  -41.6503   -8.8126 N   0  0  0  0  0  0  0  0  0  0  0  0
  -17.8207  -40.6161   -7.8540 C   0  0  1  0  0  0  0  0  0  0  0  0
  -18.3227  -40.9551   -6.5015 C   0  0  0  0  0  0  0  0  0  0  0  0
  -19.6534  -40.3365   -6.1860 C   0  0  0  0  0  0  0  0  0  0  0  0
  -20.9157  -40.8487   -6.3118 C   0  0  0  0  0  0  0  0  0  0  0  0
  -21.9847  -40.0261   -5.9819 C   0  0  0  0  0  0  0  0  0  0  0  0
  -21.7810  -38.7218   -5.5320 C   0  0  0  0  0  0  0  0  0  0  0  0
  -20.5250  -38.1740   -5.3918 C   0  0  0  0  0  0  0  0  0  0  0  0
  -19.4923  -39.0090   -5.7278 C   0  0  0  0  0  0  0  0  0  0  0  0
  -23.3470  -40.3162   -6.0350 O   0  0  0  0  0  0  0  0  0  0  0  0
  -24.2197  -40.7575   -7.0262 C   0  0  0  0  0  0  0  0  0  0  0  0
  -24.5971  -42.2011   -6.7618 C   0  0  0  0  0  0  0  0  0  0  0  0
  -23.7336  -43.1744   -7.5538 C   0  0  0  0  0  0  0  0  0  0  0  0
  -23.1621  -44.1784   -6.5867 C   0  0  0  0  0  0  0  0  0  0  0  0
  -22.1885  -45.0682   -7.1819 N   0  0  0  0  0  0  0  0  0  0  0  0
  -16.5240  -39.7356   -7.8147 C   0  0  2  0  0  0  0  0  0  0  0  0
  -17.0675  -38.4825   -7.4007 O   0  0  0  0  0  0  0  0  0  0  0  0
  -15.9825  -39.5380   -9.1688 C   0  0  0  0  0  0  0  0  0  0  0  0
  -14.9028  -40.3401   -9.5997 N   0  0  0  0  0  0  0  0  0  0  0  0
  -14.9870  -41.0066  -10.8405 C   0  0  0  0  0  0  0  0  0  0  0  0
  -14.4346  -42.3704  -10.9787 C   0  0  0  0  0  0  0  0  0  0  0  0
  -16.4908  -41.1123  -11.1747 C   0  0  0  0  0  0  0  0  0  0  0  0
  -14.4163  -40.1883  -11.9699 C   0  0  0  0  0  0  0  0  0  0  0  0
  -14.1849  -38.8444  -11.7731 C   0  0  0  0  0  0  0  0  0  0  0  0
  -13.6521  -38.0298  -12.7458 C   0  0  0  0  0  0  0  0  0  0  0  0
  -13.3335  -38.5933  -13.9816 C   0  0  0  0  0  0  0  0  0  0  0  0
  -13.5759  -39.9388  -14.1498 C   0  0  0  0  0  0  0  0  0  0  0  0
  -14.1038  -40.7082  -13.1655 N   0  0  0  0  0  0  0  0  0  0  0  0
  -13.4247  -36.5819  -12.5459 C   0  0  0  0  0  0  0  0  0  0  0  0
  -12.6423  -36.2679  -11.3035 C   0  0  0  0  0  0  0  0  0  0  0  0
  -12.6600  -36.0508  -13.7602 C   0  0  0  0  0  0  0  0  0  0  0  0
  -14.7515  -35.8671  -12.4436 C   0  0  0  0  0  0  0  0  0  0  0  0
  1  2  1  0
  2  3  1  0
  3  4  1  0
  4  5  2  0
  5  6  1  0
  6  7  2  0
  7  8  1  0
  8  9  2  0
  8 10  1  0
 10 11  2  0
 10 12  1  0
 12 13  1  0
 13 14  1  1
 14 15  1  0
 15 16  2  0
 16 17  1  0
 17 18  2  0
 18 19  1  0
 19 20  2  0
 17 21  1  0
 21 22  1  0
 22 23  1  0
 23 24  1  0
 24 25  1  0
 25 26  1  0
 13 27  1  0
 27 28  1  6
 27 29  1  0
 29 30  1  0
 30 31  1  0
 31 32  1  0
 31 33  1  0
 31 34  1  0
 34 35  2  0
 35 36  1  0
 36 37  2  0
 37 38  1  0
 38 39  2  0
 36 40  1  0
 40 41  1  0
 40 42  1  0
 40 43  1  0
  9  4  1  0
 20 15  1  0
 26  6  1  0
 39 34  1  0
M  END
$$$$
