
     RDKit          3D

 43 46  0  0  0  0  0  0  0  0999 V2000
  -15.8924  -33.6330  -13.4932 C   0  0  0  0  0  0  0  0  0  0  0  0
  -15.2685  -34.1403  -12.3648 O   0  0  0  0  0  0  0  0  0  0  0  0
  -14.1621  -34.9234  -12.6850 C   0  0  0  0  0  0  0  0  0  0  0  0
  -14.4345  -36.3693  -12.4812 C   0  0  0  0  0  0  0  0  0  0  0  0
  -13.8891  -37.3488  -13.2566 C   0  0  0  0  0  0  0  0  0  0  0  0
  -14.1414  -38.7378  -13.0735 C   0  0  0  0  0  0  0  0  0  0  0  0
  -14.9873  -39.1376  -12.0626 C   0  0  0  0  0  0  0  0  0  0  0  0
  -15.5544  -38.1796  -11.2557 C   0  0  0  0  0  0  0  0  0  0  0  0
  -15.2651  -36.8105  -11.4848 C   0  0  0  0  0  0  0  0  0  0  0  0
  -16.4444  -38.3003  -10.0802 C   0  0  0  0  0  0  0  0  0  0  0  0
  -17.3934  -37.3759   -9.9406 O   0  0  0  0  0  0  0  0  0  0  0  0
  -16.5156  -39.2150   -9.0269 N   0  0  0  0  0  0  0  0  0  0  0  0
  -15.5574  -39.7692   -8.1389 C   0  0  1  0  0  0  0  0  0  0  0  0
  -14.1178  -39.5084   -8.3747 C   0  0  0  0  0  0  0  0  0  0  0  0
  -13.3317  -40.7458   -8.6969 C   0  0  0  0  0  0  0  0  0  0  0  0
  -12.9901  -41.2830   -9.9078 C   0  0  0  0  0  0  0  0  0  0  0  0
  -12.2849  -42.4792   -9.9105 C   0  0  0  0  0  0  0  0  0  0  0  0
  -11.9306  -43.1119   -8.7191 C   0  0  0  0  0  0  0  0  0  0  0  0
  -12.2562  -42.5994   -7.4827 C   0  0  0  0  0  0  0  0  0  0  0  0
  -12.9539  -41.4209   -7.5138 C   0  0  0  0  0  0  0  0  0  0  0  0
  -11.8374  -43.2162  -11.0055 O   0  0  0  0  0  0  0  0  0  0  0  0
  -12.4431  -43.7740  -12.1283 C   0  0  0  0  0  0  0  0  0  0  0  0
  -12.0704  -42.9690  -13.3568 C   0  0  0  0  0  0  0  0  0  0  0  0
  -13.1314  -41.9344  -13.7089 C   0  0  0  0  0  0  0  0  0  0  0  0
  -12.4491  -40.5974  -13.8379 C   0  0  0  0  0  0  0  0  0  0  0  0
  -13.3667  -39.4919  -14.0105 N   0  0  0  0  0  0  0  0  0  0  0  0
  -15.9892  -39.4844   -6.6588 C   0  0  2  0  0  0  0  0  0  0  0  0
  -15.4873  -40.6512   -6.0077 O   0  0  0  0  0  0  0  0  0  0  0  0
  -17.4542  -39.5186   -6.5235 C   0  0  0  0  0  0  0  0  0  0  0  0
  -18.2124  -38.4245   -6.9954 N   0  0  0  0  0  0  0  0  0  0  0  0
  -19.6208  -38.4779   -6.9296 C   0  0  0  0  0  0  0  0  0  0  0  0
  -20.3975  -37.2250   -6.8239 C   0  0  0  0  0  0  0  0  0  0  0  0
  -20.0895  -39.1701   -8.2279 C   0  0  0  0  0  0  0  0  0  0  0  0
  -20.1087  -39.3876   -5.8317 C   0  0  0  0  0  0  0  0  0  0  0  0
  -21.0922  -40.3103   -6.1138 C   0  0  0  0  0  0  0  0  0  0  0  0
  -21.5823  -41.1878   -5.1739 C   0  0  0  0  0  0  0  0  0  0  0  0
  -21.0572  -41.1379   -3.8824 C   0  0  0  0  0  0  0  0  0  0  0  0
  -20.0755  -40.2055   -3.6294 C   0  0  0  0  0  0  0  0  0  0  0  0
  -19.6195  -39.3566   -4.5838 N   0  0  0  0  0  0  0  0  0  0  0  0
  -22.6549  -42.1633   -5.4671 C   0  0  0  0  0  0  0  0  0  0  0  0
  -23.9562  -41.5203   -5.8510 C   0  0  0  0  0  0  0  0  0  0  0  0
  -22.1833  -43.0533   -6.6190 C   0  0  0  0  0  0  0  0  0  0  0  0
  -22.9103  -43.0210   -4.2500 C   0  0  0  0  0  0  0  0  0  0  0  0
  1  2  1  0
  2  3  1  0
  3  4  1  0
  4  5  2  0
  5  6  1  0
  6  7  2  0
  7  8  1  0
  8  9  2  0
  8 10  1  0
 10 11  2  0
 10 12  1  0
 12 13  1  0
 13 14  1  6
 14 15  1  0
 15 16  2  0
 16 17  1  0
 17 18  2  0
 18 19  1  0
 19 20  2  0
 17 21  1  0
 21 22  1  0
 22 23  1  0
 23 24  1  0
 24 25  1  0
 25 26  1  0
 13 27  1  0
 27 28  1  1
 27 29  1  0
 29 30  1  0
 30 31  1  0
 31 32  1  0
 31 33  1  0
 31 34  1  0
 34 35  2  0
 35 36  1  0
 36 37  2  0
 37 38  1  0
 38 39  2  0
 36 40  1  0
 40 41  1  0
 40 42  1  0
 40 43  1  0
  9  4  1  0
 20 15  1  0
 26  6  1  0
 39 34  1  0
M  END
$$$$
