
     RDKit          3D

 43 46  0  0  0  0  0  0  0  0999 V2000
  -18.9588  -48.0980   -5.6380 C   0  0  0  0  0  0  0  0  0  0  0  0
  -18.5886  -46.8179   -5.2584 O   0  0  0  0  0  0  0  0  0  0  0  0
  -19.6841  -45.9637   -5.1581 C   0  0  0  0  0  0  0  0  0  0  0  0
  -19.7093  -44.9702   -6.2621 C   0  0  0  0  0  0  0  0  0  0  0  0
  -20.8148  -44.7247   -7.0210 C   0  0  0  0  0  0  0  0  0  0  0  0
  -20.8536  -43.7766   -8.0821 C   0  0  0  0  0  0  0  0  0  0  0  0
  -19.7171  -43.0575   -8.3799 C   0  0  0  0  0  0  0  0  0  0  0  0
  -18.5822  -43.2734   -7.6345 C   0  0  0  0  0  0  0  0  0  0  0  0
  -18.6033  -44.2302   -6.5882 C   0  0  0  0  0  0  0  0  0  0  0  0
  -17.2505  -42.6309   -7.6816 C   0  0  0  0  0  0  0  0  0  0  0  0
  -16.1934  -43.4093   -7.4555 O   0  0  0  0  0  0  0  0  0  0  0  0
  -16.8310  -41.3204   -7.9220 N   0  0  0  0  0  0  0  0  0  0  0  0
  -17.2312  -40.0528   -7.4254 C   0  0  1  0  0  0  0  0  0  0  0  0
  -18.4401  -39.9593   -6.5733 C   0  0  0  0  0  0  0  0  0  0  0  0
  -19.5468  -39.1565   -7.1928 C   0  0  0  0  0  0  0  0  0  0  0  0
  -20.6250  -39.5635   -7.9300 C   0  0  0  0  0  0  0  0  0  0  0  0
  -21.4792  -38.5860   -8.4229 C   0  0  0  0  0  0  0  0  0  0  0  0
  -21.2508  -37.2332   -8.1720 C   0  0  0  0  0  0  0  0  0  0  0  0
  -20.1770  -36.7876   -7.4331 C   0  0  0  0  0  0  0  0  0  0  0  0
  -19.3520  -37.7753   -6.9638 C   0  0  0  0  0  0  0  0  0  0  0  0
  -22.6259  -38.7511   -9.1979 O   0  0  0  0  0  0  0  0  0  0  0  0
  -22.9090  -39.3640  -10.4157 C   0  0  0  0  0  0  0  0  0  0  0  0
  -23.6922  -40.6379  -10.1710 C   0  0  0  0  0  0  0  0  0  0  0  0
  -22.7935  -41.8673  -10.1396 C   0  0  0  0  0  0  0  0  0  0  0  0
  -23.0782  -42.6161   -8.8637 C   0  0  0  0  0  0  0  0  0  0  0  0
  -22.1756  -43.7219   -8.6262 N   0  0  0  0  0  0  0  0  0  0  0  0
  -15.9933  -39.3204   -6.8015 C   0  0  2  0  0  0  0  0  0  0  0  0
  -16.5572  -38.0393   -6.5217 O   0  0  0  0  0  0  0  0  0  0  0  0
  -14.9432  -39.1116   -7.8111 C   0  0  0  0  0  0  0  0  0  0  0  0
  -14.9883  -39.8543   -9.0116 N   0  0  0  0  0  0  0  0  0  0  0  0
  -13.7879  -40.3431   -9.5693 C   0  0  0  0  0  0  0  0  0  0  0  0
  -12.8721  -39.4151  -10.2652 C   0  0  0  0  0  0  0  0  0  0  0  0
  -12.9829  -40.9512   -8.4004 C   0  0  0  0  0  0  0  0  0  0  0  0
  -14.0204  -41.5058  -10.4993 C   0  0  0  0  0  0  0  0  0  0  0  0
  -15.0810  -41.4595  -11.3776 C   0  0  0  0  0  0  0  0  0  0  0  0
  -15.3541  -42.4708  -12.2700 C   0  0  0  0  0  0  0  0  0  0  0  0
  -14.5183  -43.5877  -12.2829 C   0  0  0  0  0  0  0  0  0  0  0  0
  -13.4665  -43.6066  -11.3938 C   0  0  0  0  0  0  0  0  0  0  0  0
  -13.2311  -42.5892  -10.5284 N   0  0  0  0  0  0  0  0  0  0  0  0
  -16.5058  -42.4350  -13.1975 C   0  0  0  0  0  0  0  0  0  0  0  0
  -16.8458  -41.0516  -13.6718 C   0  0  0  0  0  0  0  0  0  0  0  0
  -16.1646  -43.3043  -14.4097 C   0  0  0  0  0  0  0  0  0  0  0  0
  -17.7293  -42.9971  -12.5127 C   0  0  0  0  0  0  0  0  0  0  0  0
  1  2  1  0
  2  3  1  0
  3  4  1  0
  4  5  2  0
  5  6  1  0
  6  7  2  0
  7  8  1  0
  8  9  2  0
  8 10  1  0
 10 11  2  0
 10 12  1  0
 12 13  1  0
 13 14  1  1
 14 15  1  0
 15 16  2  0
 16 17  1  0
 17 18  2  0
 18 19  1  0
 19 20  2  0
 17 21  1  0
 21 22  1  0
 22 23  1  0
 23 24  1  0
 24 25  1  0
 25 26  1  0
 13 27  1  0
 27 28  1  6
 27 29  1  0
 29 30  1  0
 30 31  1  0
 31 32  1  0
 31 33  1  0
 31 34  1  0
 34 35  2  0
 35 36  1  0
 36 37  2  0
 37 38  1  0
 38 39  2  0
 36 40  1  0
 40 41  1  0
 40 42  1  0
 40 43  1  0
  9  4  1  0
 20 15  1  0
 26  6  1  0
 39 34  1  0
M  END
$$$$
