
     RDKit          3D

 43 46  0  0  0  0  0  0  0  0999 V2000
  -18.6839  -48.7621   -7.3775 C   0  0  0  0  0  0  0  0  0  0  0  0
  -17.8033  -47.7058   -7.2090 O   0  0  0  0  0  0  0  0  0  0  0  0
  -18.3303  -46.7094   -6.3910 C   0  0  0  0  0  0  0  0  0  0  0  0
  -18.9206  -45.6014   -7.1849 C   0  0  0  0  0  0  0  0  0  0  0  0
  -20.2513  -45.5106   -7.4666 C   0  0  0  0  0  0  0  0  0  0  0  0
  -20.8308  -44.4555   -8.2263 C   0  0  0  0  0  0  0  0  0  0  0  0
  -20.0169  -43.4599   -8.7199 C   0  0  0  0  0  0  0  0  0  0  0  0
  -18.6691  -43.5135   -8.4541 C   0  0  0  0  0  0  0  0  0  0  0  0
  -18.1483  -44.5887   -7.6901 C   0  0  0  0  0  0  0  0  0  0  0  0
  -17.5718  -42.5826   -8.7977 C   0  0  0  0  0  0  0  0  0  0  0  0
  -16.3929  -43.1217   -9.1045 O   0  0  0  0  0  0  0  0  0  0  0  0
  -17.4907  -41.1903   -8.8757 N   0  0  0  0  0  0  0  0  0  0  0  0
  -17.8838  -40.1324   -8.0155 C   0  0  1  0  0  0  0  0  0  0  0  0
  -18.6946  -40.4411   -6.8142 C   0  0  0  0  0  0  0  0  0  0  0  0
  -20.0669  -39.8339   -6.8477 C   0  0  0  0  0  0  0  0  0  0  0  0
  -21.2575  -40.3682   -7.2582 C   0  0  0  0  0  0  0  0  0  0  0  0
  -22.3809  -39.5529   -7.2209 C   0  0  0  0  0  0  0  0  0  0  0  0
  -22.3020  -38.2337   -6.7752 C   0  0  0  0  0  0  0  0  0  0  0  0
  -21.1212  -37.6635   -6.3533 C   0  0  0  0  0  0  0  0  0  0  0  0
  -20.0315  -38.4920   -6.4049 C   0  0  0  0  0  0  0  0  0  0  0  0
  -23.6878  -39.8646   -7.5918 O   0  0  0  0  0  0  0  0  0  0  0  0
  -24.2922  -40.3463   -8.7501 C   0  0  0  0  0  0  0  0  0  0  0  0
  -24.7109  -41.7874   -8.5405 C   0  0  0  0  0  0  0  0  0  0  0  0
  -23.6743  -42.7694   -9.0710 C   0  0  0  0  0  0  0  0  0  0  0  0
  -23.3452  -43.7374   -7.9645 C   0  0  0  0  0  0  0  0  0  0  0  0
  -22.2499  -44.6288   -8.2801 N   0  0  0  0  0  0  0  0  0  0  0  0
  -16.6417  -39.2319   -7.6919 C   0  0  2  0  0  0  0  0  0  0  0  0
  -17.1691  -37.9384   -7.9854 O   0  0  0  0  0  0  0  0  0  0  0  0
  -15.5528  -39.4751   -8.6515 C   0  0  0  0  0  0  0  0  0  0  0  0
  -14.2429  -39.6806   -8.1649 N   0  0  0  0  0  0  0  0  0  0  0  0
  -13.2422  -40.1456   -9.0444 C   0  0  0  0  0  0  0  0  0  0  0  0
  -11.8884  -40.4346   -8.5268 C   0  0  0  0  0  0  0  0  0  0  0  0
  -13.7698  -41.4685   -9.6408 C   0  0  0  0  0  0  0  0  0  0  0  0
  -13.0689  -39.2464  -10.2412 C   0  0  0  0  0  0  0  0  0  0  0  0
  -12.7241  -37.9272  -10.0437 C   0  0  0  0  0  0  0  0  0  0  0  0
  -12.5314  -37.0440  -11.0812 C   0  0  0  0  0  0  0  0  0  0  0  0
  -12.6920  -37.5091  -12.3866 C   0  0  0  0  0  0  0  0  0  0  0  0
  -13.0371  -38.8320  -12.5537 C   0  0  0  0  0  0  0  0  0  0  0  0
  -13.2192  -39.6712  -11.5039 N   0  0  0  0  0  0  0  0  0  0  0  0
  -12.1846  -35.6213  -10.8719 C   0  0  0  0  0  0  0  0  0  0  0  0
  -11.0599  -35.4195   -9.8979 C   0  0  0  0  0  0  0  0  0  0  0  0
  -11.7815  -35.0285  -12.2237 C   0  0  0  0  0  0  0  0  0  0  0  0
  -13.3873  -34.8763  -10.3424 C   0  0  0  0  0  0  0  0  0  0  0  0
  1  2  1  0
  2  3  1  0
  3  4  1  0
  4  5  2  0
  5  6  1  0
  6  7  2  0
  7  8  1  0
  8  9  2  0
  8 10  1  0
 10 11  2  0
 10 12  1  0
 12 13  1  0
 13 14  1  1
 14 15  1  0
 15 16  2  0
 16 17  1  0
 17 18  2  0
 18 19  1  0
 19 20  2  0
 17 21  1  0
 21 22  1  0
 22 23  1  0
 23 24  1  0
 24 25  1  0
 25 26  1  0
 13 27  1  0
 27 28  1  6
 27 29  1  0
 29 30  1  0
 30 31  1  0
 31 32  1  0
 31 33  1  0
 31 34  1  0
 34 35  2  0
 35 36  1  0
 36 37  2  0
 37 38  1  0
 38 39  2  0
 36 40  1  0
 40 41  1  0
 40 42  1  0
 40 43  1  0
  9  4  1  0
 20 15  1  0
 26  6  1  0
 39 34  1  0
M  END
$$$$
