
     RDKit          3D

 43 46  0  0  0  0  0  0  0  0999 V2000
  -17.9689  -48.7811   -7.7333 C   0  0  0  0  0  0  0  0  0  0  0  0
  -17.8446  -47.4444   -8.0762 O   0  0  0  0  0  0  0  0  0  0  0  0
  -18.2194  -46.5992   -7.0346 C   0  0  0  0  0  0  0  0  0  0  0  0
  -18.8486  -45.3515   -7.5385 C   0  0  0  0  0  0  0  0  0  0  0  0
  -20.1924  -45.1252   -7.5023 C   0  0  0  0  0  0  0  0  0  0  0  0
  -20.8092  -43.9353   -7.9818 C   0  0  0  0  0  0  0  0  0  0  0  0
  -20.0214  -42.9433   -8.5228 C   0  0  0  0  0  0  0  0  0  0  0  0
  -18.6605  -43.1320   -8.5736 C   0  0  0  0  0  0  0  0  0  0  0  0
  -18.1019  -44.3379   -8.0792 C   0  0  0  0  0  0  0  0  0  0  0  0
  -17.5721  -42.2455   -9.0406 C   0  0  0  0  0  0  0  0  0  0  0  0
  -16.5465  -42.8219   -9.6654 O   0  0  0  0  0  0  0  0  0  0  0  0
  -17.3678  -40.8656   -8.9682 N   0  0  0  0  0  0  0  0  0  0  0  0
  -17.4593  -39.9111   -7.9221 C   0  0  1  0  0  0  0  0  0  0  0  0
  -18.0239  -40.3231   -6.6154 C   0  0  0  0  0  0  0  0  0  0  0  0
  -19.3028  -39.6181   -6.2683 C   0  0  0  0  0  0  0  0  0  0  0  0
  -20.6015  -40.0015   -6.4627 C   0  0  0  0  0  0  0  0  0  0  0  0
  -21.6022  -39.1190   -6.0781 C   0  0  0  0  0  0  0  0  0  0  0  0
  -21.2964  -37.8837   -5.5074 C   0  0  0  0  0  0  0  0  0  0  0  0
  -20.0010  -37.4657   -5.2955 C   0  0  0  0  0  0  0  0  0  0  0  0
  -19.0374  -38.3568   -5.6880 C   0  0  0  0  0  0  0  0  0  0  0  0
  -22.9829  -39.2795   -6.1816 O   0  0  0  0  0  0  0  0  0  0  0  0
  -23.8652  -39.5503   -7.2242 C   0  0  0  0  0  0  0  0  0  0  0  0
  -24.3747  -40.9719   -7.0995 C   0  0  0  0  0  0  0  0  0  0  0  0
  -23.5800  -41.9442   -7.9616 C   0  0  0  0  0  0  0  0  0  0  0  0
  -23.1241  -43.0778   -7.0803 C   0  0  0  0  0  0  0  0  0  0  0  0
  -22.2175  -43.9948   -7.7369 N   0  0  0  0  0  0  0  0  0  0  0  0
  -16.0917  -39.1578   -7.7797 C   0  0  2  0  0  0  0  0  0  0  0  0
  -16.5429  -37.8077   -7.6760 O   0  0  0  0  0  0  0  0  0  0  0  0
  -15.3093  -39.2507   -9.0227 C   0  0  0  0  0  0  0  0  0  0  0  0
  -14.7381  -40.4913   -9.3826 N   0  0  0  0  0  0  0  0  0  0  0  0
  -13.8497  -40.5533  -10.4770 C   0  0  0  0  0  0  0  0  0  0  0  0
  -12.3916  -40.5754  -10.2369 C   0  0  0  0  0  0  0  0  0  0  0  0
  -14.1841  -41.8572  -11.2335 C   0  0  0  0  0  0  0  0  0  0  0  0
  -14.1089  -39.4656  -11.4874 C   0  0  0  0  0  0  0  0  0  0  0  0
  -13.8247  -38.1595  -11.1534 C   0  0  0  0  0  0  0  0  0  0  0  0
  -14.0170  -37.1096  -12.0220 C   0  0  0  0  0  0  0  0  0  0  0  0
  -14.5204  -37.3845  -13.2937 C   0  0  0  0  0  0  0  0  0  0  0  0
  -14.7956  -38.6990  -13.5995 C   0  0  0  0  0  0  0  0  0  0  0  0
  -14.5929  -39.7064  -12.7143 N   0  0  0  0  0  0  0  0  0  0  0  0
  -13.7355  -35.7037  -11.6584 C   0  0  0  0  0  0  0  0  0  0  0  0
  -12.5179  -35.5443  -10.7944 C   0  0  0  0  0  0  0  0  0  0  0  0
  -13.5320  -34.9119  -12.9519 C   0  0  0  0  0  0  0  0  0  0  0  0
  -14.9104  -35.1275  -10.9037 C   0  0  0  0  0  0  0  0  0  0  0  0
  1  2  1  0
  2  3  1  0
  3  4  1  0
  4  5  2  0
  5  6  1  0
  6  7  2  0
  7  8  1  0
  8  9  2  0
  8 10  1  0
 10 11  2  0
 10 12  1  0
 12 13  1  0
 13 14  1  1
 14 15  1  0
 15 16  2  0
 16 17  1  0
 17 18  2  0
 18 19  1  0
 19 20  2  0
 17 21  1  0
 21 22  1  0
 22 23  1  0
 23 24  1  0
 24 25  1  0
 25 26  1  0
 13 27  1  0
 27 28  1  6
 27 29  1  0
 29 30  1  0
 30 31  1  0
 31 32  1  0
 31 33  1  0
 31 34  1  0
 34 35  2  0
 35 36  1  0
 36 37  2  0
 37 38  1  0
 38 39  2  0
 36 40  1  0
 40 41  1  0
 40 42  1  0
 40 43  1  0
  9  4  1  0
 20 15  1  0
 26  6  1  0
 39 34  1  0
M  END
$$$$
