
     RDKit          3D

 43 46  0  0  0  0  0  0  0  0999 V2000
  -24.2970  -40.8194   -4.9681 C   0  0  0  0  0  0  0  0  0  0  0  0
  -23.6364  -40.1092   -5.9575 O   0  0  0  0  0  0  0  0  0  0  0  0
  -23.4425  -40.8698   -7.1079 C   0  0  0  0  0  0  0  0  0  0  0  0
  -22.2636  -41.7649   -6.9829 C   0  0  0  0  0  0  0  0  0  0  0  0
  -22.3566  -43.1248   -6.9664 C   0  0  0  0  0  0  0  0  0  0  0  0
  -21.2363  -43.9948   -6.8466 C   0  0  0  0  0  0  0  0  0  0  0  0
  -19.9753  -43.4518   -6.7343 C   0  0  0  0  0  0  0  0  0  0  0  0
  -19.8392  -42.0838   -6.7508 C   0  0  0  0  0  0  0  0  0  0  0  0
  -20.9918  -41.2670   -6.8740 C   0  0  0  0  0  0  0  0  0  0  0  0
  -18.6356  -41.2252   -6.7015 C   0  0  0  0  0  0  0  0  0  0  0  0
  -18.7320  -40.0843   -6.0205 O   0  0  0  0  0  0  0  0  0  0  0  0
  -17.3522  -41.3491   -7.2387 N   0  0  0  0  0  0  0  0  0  0  0  0
  -16.8519  -41.6759   -8.5258 C   0  0  1  0  0  0  0  0  0  0  0  0
  -17.7932  -42.1482   -9.5684 C   0  0  0  0  0  0  0  0  0  0  0  0
  -17.5391  -43.5611  -10.0066 C   0  0  0  0  0  0  0  0  0  0  0  0
  -18.1028  -44.7318   -9.5786 C   0  0  0  0  0  0  0  0  0  0  0  0
  -17.6392  -45.9162  -10.1358 C   0  0  0  0  0  0  0  0  0  0  0  0
  -16.6354  -45.9150  -11.1041 C   0  0  0  0  0  0  0  0  0  0  0  0
  -16.0466  -44.7560  -11.5595 C   0  0  0  0  0  0  0  0  0  0  0  0
  -16.5233  -43.6056  -10.9887 C   0  0  0  0  0  0  0  0  0  0  0  0
  -18.0471  -47.2197   -9.8583 O   0  0  0  0  0  0  0  0  0  0  0  0
  -18.1310  -47.9992   -8.7076 C   0  0  0  0  0  0  0  0  0  0  0  0
  -19.5848  -48.1652   -8.3138 C   0  0  0  0  0  0  0  0  0  0  0  0
  -20.0130  -47.1532   -7.2590 C   0  0  0  0  0  0  0  0  0  0  0  0
  -21.2525  -46.4588   -7.7603 C   0  0  0  0  0  0  0  0  0  0  0  0
  -21.6757  -45.3538   -6.9273 N   0  0  0  0  0  0  0  0  0  0  0  0
  -15.9169  -40.5237   -9.0321 C   0  0  2  0  0  0  0  0  0  0  0  0
  -14.8952  -41.2787   -9.6827 O   0  0  0  0  0  0  0  0  0  0  0  0
  -15.2791  -39.8303   -7.9016 C   0  0  0  0  0  0  0  0  0  0  0  0
  -15.3203  -38.4194   -7.8508 N   0  0  0  0  0  0  0  0  0  0  0  0
  -16.3355  -37.7824   -7.1062 C   0  0  0  0  0  0  0  0  0  0  0  0
  -16.3421  -37.8926   -5.6324 C   0  0  0  0  0  0  0  0  0  0  0  0
  -16.2285  -36.2759   -7.4276 C   0  0  0  0  0  0  0  0  0  0  0  0
  -17.7155  -38.1616   -7.5782 C   0  0  0  0  0  0  0  0  0  0  0  0
  -18.0774  -37.8874   -8.8791 C   0  0  0  0  0  0  0  0  0  0  0  0
  -19.3109  -38.2143   -9.3939 C   0  0  0  0  0  0  0  0  0  0  0  0
  -20.2302  -38.8511   -8.5599 C   0  0  0  0  0  0  0  0  0  0  0  0
  -19.8411  -39.1123   -7.2647 C   0  0  0  0  0  0  0  0  0  0  0  0
  -18.6151  -38.7730   -6.7944 N   0  0  0  0  0  0  0  0  0  0  0  0
  -19.7112  -37.8999  -10.7828 C   0  0  0  0  0  0  0  0  0  0  0  0
  -19.1660  -36.5916  -11.2781 C   0  0  0  0  0  0  0  0  0  0  0  0
  -19.2017  -39.0234  -11.6881 C   0  0  0  0  0  0  0  0  0  0  0  0
  -21.2174  -37.8323  -10.8761 C   0  0  0  0  0  0  0  0  0  0  0  0
  1  2  1  0
  2  3  1  0
  3  4  1  0
  4  5  2  0
  5  6  1  0
  6  7  2  0
  7  8  1  0
  8  9  2  0
  8 10  1  0
 10 11  2  0
 10 12  1  0
 12 13  1  0
 13 14  1  6
 14 15  1  0
 15 16  2  0
 16 17  1  0
 17 18  2  0
 18 19  1  0
 19 20  2  0
 17 21  1  0
 21 22  1  0
 22 23  1  0
 23 24  1  0
 24 25  1  0
 25 26  1  0
 13 27  1  0
 27 28  1  6
 27 29  1  0
 29 30  1  0
 30 31  1  0
 31 32  1  0
 31 33  1  0
 31 34  1  0
 34 35  2  0
 35 36  1  0
 36 37  2  0
 37 38  1  0
 38 39  2  0
 36 40  1  0
 40 41  1  0
 40 42  1  0
 40 43  1  0
  9  4  1  0
 20 15  1  0
 26  6  1  0
 39 34  1  0
M  END
$$$$
