
     RDKit          3D

 43 46  0  0  0  0  0  0  0  0999 V2000
  -18.2037  -47.9879   -7.2405 C   0  0  0  0  0  0  0  0  0  0  0  0
  -17.3539  -47.2072   -6.4737 O   0  0  0  0  0  0  0  0  0  0  0  0
  -18.0457  -46.2533   -5.7312 C   0  0  0  0  0  0  0  0  0  0  0  0
  -18.6728  -45.2271   -6.6030 C   0  0  0  0  0  0  0  0  0  0  0  0
  -20.0115  -45.1788   -6.8561 C   0  0  0  0  0  0  0  0  0  0  0  0
  -20.6261  -44.2021   -7.6894 C   0  0  0  0  0  0  0  0  0  0  0  0
  -19.8404  -43.2430   -8.2894 C   0  0  0  0  0  0  0  0  0  0  0  0
  -18.4856  -43.2553   -8.0557 C   0  0  0  0  0  0  0  0  0  0  0  0
  -17.9292  -44.2524   -7.2148 C   0  0  0  0  0  0  0  0  0  0  0  0
  -17.4118  -42.3438   -8.5083 C   0  0  0  0  0  0  0  0  0  0  0  0
  -16.2329  -42.8922   -8.7979 O   0  0  0  0  0  0  0  0  0  0  0  0
  -17.3541  -40.9628   -8.7096 N   0  0  0  0  0  0  0  0  0  0  0  0
  -17.7416  -39.8388   -7.9349 C   0  0  1  0  0  0  0  0  0  0  0  0
  -18.5170  -40.0516   -6.6901 C   0  0  0  0  0  0  0  0  0  0  0  0
  -19.8989  -39.4678   -6.7401 C   0  0  0  0  0  0  0  0  0  0  0  0
  -21.0911  -40.0516   -7.0708 C   0  0  0  0  0  0  0  0  0  0  0  0
  -22.2256  -39.2509   -7.0750 C   0  0  0  0  0  0  0  0  0  0  0  0
  -22.1558  -37.8968   -6.7484 C   0  0  0  0  0  0  0  0  0  0  0  0
  -20.9736  -37.2764   -6.4094 C   0  0  0  0  0  0  0  0  0  0  0  0
  -19.8729  -38.0918   -6.4173 C   0  0  0  0  0  0  0  0  0  0  0  0
  -23.5365  -39.6111   -7.3826 O   0  0  0  0  0  0  0  0  0  0  0  0
  -24.1624  -40.2003   -8.4779 C   0  0  0  0  0  0  0  0  0  0  0  0
  -24.5535  -41.6229   -8.1324 C   0  0  0  0  0  0  0  0  0  0  0  0
  -23.5157  -42.6339   -8.6024 C   0  0  0  0  0  0  0  0  0  0  0  0
  -23.1439  -43.4968   -7.4247 C   0  0  0  0  0  0  0  0  0  0  0  0
  -22.0433  -44.3980   -7.6902 N   0  0  0  0  0  0  0  0  0  0  0  0
  -16.5058  -38.8972   -7.7242 C   0  0  2  0  0  0  0  0  0  0  0  0
  -17.1193  -37.6174   -7.8762 O   0  0  0  0  0  0  0  0  0  0  0  0
  -15.5423  -39.0408   -8.8273 C   0  0  0  0  0  0  0  0  0  0  0  0
  -14.5318  -40.0230   -8.7320 N   0  0  0  0  0  0  0  0  0  0  0  0
  -13.5922  -40.1538   -9.7764 C   0  0  0  0  0  0  0  0  0  0  0  0
  -12.1851  -39.7630   -9.5494 C   0  0  0  0  0  0  0  0  0  0  0  0
  -13.5706  -41.6506  -10.1552 C   0  0  0  0  0  0  0  0  0  0  0  0
  -14.0389  -39.4620  -11.0385 C   0  0  0  0  0  0  0  0  0  0  0  0
  -13.3847  -38.3191  -11.4434 C   0  0  0  0  0  0  0  0  0  0  0  0
  -13.7189  -37.6358  -12.5902 C   0  0  0  0  0  0  0  0  0  0  0  0
  -14.7645  -38.1256  -13.3732 C   0  0  0  0  0  0  0  0  0  0  0  0
  -15.4003  -39.2695  -12.9437 C   0  0  0  0  0  0  0  0  0  0  0  0
  -15.0413  -39.9139  -11.8056 N   0  0  0  0  0  0  0  0  0  0  0  0
  -13.0344  -36.3953  -13.0152 C   0  0  0  0  0  0  0  0  0  0  0  0
  -11.6119  -36.6161  -13.4416 C   0  0  0  0  0  0  0  0  0  0  0  0
  -13.8167  -35.8012  -14.1885 C   0  0  0  0  0  0  0  0  0  0  0  0
  -13.0214  -35.4043  -11.8751 C   0  0  0  0  0  0  0  0  0  0  0  0
  1  2  1  0
  2  3  1  0
  3  4  1  0
  4  5  2  0
  5  6  1  0
  6  7  2  0
  7  8  1  0
  8  9  2  0
  8 10  1  0
 10 11  2  0
 10 12  1  0
 12 13  1  0
 13 14  1  1
 14 15  1  0
 15 16  2  0
 16 17  1  0
 17 18  2  0
 18 19  1  0
 19 20  2  0
 17 21  1  0
 21 22  1  0
 22 23  1  0
 23 24  1  0
 24 25  1  0
 25 26  1  0
 13 27  1  0
 27 28  1  6
 27 29  1  0
 29 30  1  0
 30 31  1  0
 31 32  1  0
 31 33  1  0
 31 34  1  0
 34 35  2  0
 35 36  1  0
 36 37  2  0
 37 38  1  0
 38 39  2  0
 36 40  1  0
 40 41  1  0
 40 42  1  0
 40 43  1  0
  9  4  1  0
 20 15  1  0
 26  6  1  0
 39 34  1  0
M  END
$$$$
