
     RDKit          3D

 43 46  0  0  0  0  0  0  0  0999 V2000
  -19.6833  -44.1519   -1.3896 C   0  0  0  0  0  0  0  0  0  0  0  0
  -19.4706  -42.8229   -1.7190 O   0  0  0  0  0  0  0  0  0  0  0  0
  -20.6463  -42.1844   -2.1062 C   0  0  0  0  0  0  0  0  0  0  0  0
  -20.8343  -42.2247   -3.5791 C   0  0  0  0  0  0  0  0  0  0  0  0
  -22.0449  -42.4260   -4.1725 C   0  0  0  0  0  0  0  0  0  0  0  0
  -22.2401  -42.4677   -5.5819 C   0  0  0  0  0  0  0  0  0  0  0  0
  -21.1547  -42.3022   -6.4138 C   0  0  0  0  0  0  0  0  0  0  0  0
  -19.9167  -42.0927   -5.8537 C   0  0  0  0  0  0  0  0  0  0  0  0
  -19.7832  -42.0597   -4.4424 C   0  0  0  0  0  0  0  0  0  0  0  0
  -18.5988  -41.8356   -6.4748 C   0  0  0  0  0  0  0  0  0  0  0  0
  -17.5341  -42.3751   -5.8832 O   0  0  0  0  0  0  0  0  0  0  0  0
  -18.1995  -41.1143   -7.6023 N   0  0  0  0  0  0  0  0  0  0  0  0
  -18.4877  -39.8135   -8.0908 C   0  0  1  0  0  0  0  0  0  0  0  0
  -19.5372  -39.0073   -7.4240 C   0  0  0  0  0  0  0  0  0  0  0  0
  -20.7153  -38.7133   -8.3065 C   0  0  0  0  0  0  0  0  0  0  0  0
  -21.9081  -39.3712   -8.4328 C   0  0  0  0  0  0  0  0  0  0  0  0
  -22.8129  -38.8978   -9.3737 C   0  0  0  0  0  0  0  0  0  0  0  0
  -22.5201  -37.7851  -10.1620 C   0  0  0  0  0  0  0  0  0  0  0  0
  -21.3307  -37.0977  -10.0608 C   0  0  0  0  0  0  0  0  0  0  0  0
  -20.4587  -37.5909   -9.1265 C   0  0  0  0  0  0  0  0  0  0  0  0
  -24.0748  -39.3993   -9.6881 O   0  0  0  0  0  0  0  0  0  0  0  0
  -24.5669  -40.6365  -10.0957 C   0  0  0  0  0  0  0  0  0  0  0  0
  -25.3234  -41.2817   -8.9523 C   0  0  0  0  0  0  0  0  0  0  0  0
  -24.4558  -42.2577   -8.1682 C   0  0  0  0  0  0  0  0  0  0  0  0
  -24.5403  -41.8843   -6.7110 C   0  0  0  0  0  0  0  0  0  0  0  0
  -23.6324  -42.6309   -5.8671 N   0  0  0  0  0  0  0  0  0  0  0  0
  -17.1498  -39.0202   -8.2884 C   0  0  2  0  0  0  0  0  0  0  0  0
  -17.5760  -38.0049   -9.1966 O   0  0  0  0  0  0  0  0  0  0  0  0
  -16.1550  -39.8380   -9.0007 C   0  0  0  0  0  0  0  0  0  0  0  0
  -14.9051  -40.0834   -8.3905 N   0  0  0  0  0  0  0  0  0  0  0  0
  -13.7235  -39.6696   -9.0411 C   0  0  0  0  0  0  0  0  0  0  0  0
  -12.7618  -38.8007   -8.3309 C   0  0  0  0  0  0  0  0  0  0  0  0
  -12.9554  -40.9584   -9.4061 C   0  0  0  0  0  0  0  0  0  0  0  0
  -14.0004  -39.0179  -10.3714 C   0  0  0  0  0  0  0  0  0  0  0  0
  -13.5906  -37.7189  -10.5791 C   0  0  0  0  0  0  0  0  0  0  0  0
  -13.7900  -37.0559  -11.7683 C   0  0  0  0  0  0  0  0  0  0  0  0
  -14.4338  -37.7321  -12.8049 C   0  0  0  0  0  0  0  0  0  0  0  0
  -14.8324  -39.0293  -12.5686 C   0  0  0  0  0  0  0  0  0  0  0  0
  -14.6180  -39.6479  -11.3808 N   0  0  0  0  0  0  0  0  0  0  0  0
  -13.3729  -35.6536  -11.9866 C   0  0  0  0  0  0  0  0  0  0  0  0
  -13.9868  -34.6910  -11.0116 C   0  0  0  0  0  0  0  0  0  0  0  0
  -11.8497  -35.5871  -11.8559 C   0  0  0  0  0  0  0  0  0  0  0  0
  -13.7712  -35.2138  -13.3758 C   0  0  0  0  0  0  0  0  0  0  0  0
  1  2  1  0
  2  3  1  0
  3  4  1  0
  4  5  2  0
  5  6  1  0
  6  7  2  0
  7  8  1  0
  8  9  2  0
  8 10  1  0
 10 11  2  0
 10 12  1  0
 12 13  1  0
 13 14  1  1
 14 15  1  0
 15 16  2  0
 16 17  1  0
 17 18  2  0
 18 19  1  0
 19 20  2  0
 17 21  1  0
 21 22  1  0
 22 23  1  0
 23 24  1  0
 24 25  1  0
 25 26  1  0
 13 27  1  0
 27 28  1  6
 27 29  1  0
 29 30  1  0
 30 31  1  0
 31 32  1  0
 31 33  1  0
 31 34  1  0
 34 35  2  0
 35 36  1  0
 36 37  2  0
 37 38  1  0
 38 39  2  0
 36 40  1  0
 40 41  1  0
 40 42  1  0
 40 43  1  0
  9  4  1  0
 20 15  1  0
 26  6  1  0
 39 34  1  0
M  END
$$$$
