
     RDKit          3D

 43 46  0  0  0  0  0  0  0  0999 V2000
  -17.6823  -48.3076   -6.5239 C   0  0  0  0  0  0  0  0  0  0  0  0
  -17.4050  -47.0833   -5.9374 O   0  0  0  0  0  0  0  0  0  0  0  0
  -18.5591  -46.4386   -5.4992 C   0  0  0  0  0  0  0  0  0  0  0  0
  -19.0332  -45.4314   -6.4827 C   0  0  0  0  0  0  0  0  0  0  0  0
  -20.3419  -45.2930   -6.8384 C   0  0  0  0  0  0  0  0  0  0  0  0
  -20.8105  -44.3332   -7.7794 C   0  0  0  0  0  0  0  0  0  0  0  0
  -19.9050  -43.4878   -8.3818 C   0  0  0  0  0  0  0  0  0  0  0  0
  -18.5759  -43.5933   -8.0465 C   0  0  0  0  0  0  0  0  0  0  0  0
  -18.1675  -44.5681   -7.1010 C   0  0  0  0  0  0  0  0  0  0  0  0
  -17.3985  -42.8079   -8.4773 C   0  0  0  0  0  0  0  0  0  0  0  0
  -16.2542  -43.4702   -8.6399 O   0  0  0  0  0  0  0  0  0  0  0  0
  -17.2077  -41.4547   -8.7661 N   0  0  0  0  0  0  0  0  0  0  0  0
  -17.5492  -40.2490   -8.1001 C   0  0  1  0  0  0  0  0  0  0  0  0
  -18.4245  -40.3062   -6.9057 C   0  0  0  0  0  0  0  0  0  0  0  0
  -19.7439  -39.6170   -7.0987 C   0  0  0  0  0  0  0  0  0  0  0  0
  -20.9564  -40.1245   -7.4780 C   0  0  0  0  0  0  0  0  0  0  0  0
  -22.0144  -39.2365   -7.6215 C   0  0  0  0  0  0  0  0  0  0  0  0
  -21.8504  -37.8723   -7.3823 C   0  0  0  0  0  0  0  0  0  0  0  0
  -20.6454  -37.3271   -6.9978 C   0  0  0  0  0  0  0  0  0  0  0  0
  -19.6215  -38.2278   -6.8680 C   0  0  0  0  0  0  0  0  0  0  0  0
  -23.3270  -39.5104   -8.0018 O   0  0  0  0  0  0  0  0  0  0  0  0
  -23.9242  -40.1255   -9.0990 C   0  0  0  0  0  0  0  0  0  0  0  0
  -24.4599  -41.4823   -8.6890 C   0  0  0  0  0  0  0  0  0  0  0  0
  -23.4833  -42.6061   -9.0105 C   0  0  0  0  0  0  0  0  0  0  0  0
  -23.2701  -43.4078   -7.7529 C   0  0  0  0  0  0  0  0  0  0  0  0
  -22.2358  -44.4126   -7.8737 N   0  0  0  0  0  0  0  0  0  0  0  0
  -16.2542  -39.3983   -7.8608 C   0  0  2  0  0  0  0  0  0  0  0  0
  -16.7958  -38.0780   -7.8902 O   0  0  0  0  0  0  0  0  0  0  0  0
  -15.3358  -39.5069   -9.0055 C   0  0  0  0  0  0  0  0  0  0  0  0
  -14.1958  -40.3335   -8.8944 N   0  0  0  0  0  0  0  0  0  0  0  0
  -13.5383  -40.7677  -10.0648 C   0  0  0  0  0  0  0  0  0  0  0  0
  -12.1316  -41.2150   -9.9919 C   0  0  0  0  0  0  0  0  0  0  0  0
  -14.3483  -41.9700  -10.5964 C   0  0  0  0  0  0  0  0  0  0  0  0
  -13.6162  -39.7523  -11.1756 C   0  0  0  0  0  0  0  0  0  0  0  0
  -12.9891  -38.5359  -11.0164 C   0  0  0  0  0  0  0  0  0  0  0  0
  -12.9983  -37.5602  -11.9868 C   0  0  0  0  0  0  0  0  0  0  0  0
  -13.6717  -37.8187  -13.1809 C   0  0  0  0  0  0  0  0  0  0  0  0
  -14.2895  -39.0428  -13.3119 C   0  0  0  0  0  0  0  0  0  0  0  0
  -14.2582  -39.9786  -12.3307 N   0  0  0  0  0  0  0  0  0  0  0  0
  -12.3465  -36.2443  -11.8097 C   0  0  0  0  0  0  0  0  0  0  0  0
  -12.5562  -35.6545  -10.4449 C   0  0  0  0  0  0  0  0  0  0  0  0
  -10.8454  -36.4239  -12.0463 C   0  0  0  0  0  0  0  0  0  0  0  0
  -12.8942  -35.2642  -12.8204 C   0  0  0  0  0  0  0  0  0  0  0  0
  1  2  1  0
  2  3  1  0
  3  4  1  0
  4  5  2  0
  5  6  1  0
  6  7  2  0
  7  8  1  0
  8  9  2  0
  8 10  1  0
 10 11  2  0
 10 12  1  0
 12 13  1  0
 13 14  1  1
 14 15  1  0
 15 16  2  0
 16 17  1  0
 17 18  2  0
 18 19  1  0
 19 20  2  0
 17 21  1  0
 21 22  1  0
 22 23  1  0
 23 24  1  0
 24 25  1  0
 25 26  1  0
 13 27  1  0
 27 28  1  6
 27 29  1  0
 29 30  1  0
 30 31  1  0
 31 32  1  0
 31 33  1  0
 31 34  1  0
 34 35  2  0
 35 36  1  0
 36 37  2  0
 37 38  1  0
 38 39  2  0
 36 40  1  0
 40 41  1  0
 40 42  1  0
 40 43  1  0
  9  4  1  0
 20 15  1  0
 26  6  1  0
 39 34  1  0
M  END
$$$$
