
     RDKit          3D

 43 46  0  0  0  0  0  0  0  0999 V2000
  -25.7198  -42.1286  -10.0397 C   0  0  0  0  0  0  0  0  0  0  0  0
  -24.7670  -43.0145  -10.5165 O   0  0  0  0  0  0  0  0  0  0  0  0
  -23.6019  -42.3652  -10.9175 C   0  0  0  0  0  0  0  0  0  0  0  0
  -22.4110  -42.8740  -10.1899 C   0  0  0  0  0  0  0  0  0  0  0  0
  -21.9497  -44.1508  -10.3126 C   0  0  0  0  0  0  0  0  0  0  0  0
  -20.8107  -44.6523   -9.6215 C   0  0  0  0  0  0  0  0  0  0  0  0
  -20.1223  -43.8169   -8.7698 C   0  0  0  0  0  0  0  0  0  0  0  0
  -20.5539  -42.5199   -8.6218 C   0  0  0  0  0  0  0  0  0  0  0  0
  -21.6946  -42.0756   -9.3374 C   0  0  0  0  0  0  0  0  0  0  0  0
  -20.0025  -41.3948   -7.8353 C   0  0  0  0  0  0  0  0  0  0  0  0
  -20.8770  -40.5661   -7.2670 O   0  0  0  0  0  0  0  0  0  0  0  0
  -18.7003  -40.9844   -7.5402 N   0  0  0  0  0  0  0  0  0  0  0  0
  -17.5321  -40.7825   -8.3200 C   0  0  1  0  0  0  0  0  0  0  0  0
  -17.5300  -41.2033   -9.7409 C   0  0  0  0  0  0  0  0  0  0  0  0
  -16.5509  -42.3018  -10.0370 C   0  0  0  0  0  0  0  0  0  0  0  0
  -16.7339  -43.6567  -10.0844 C   0  0  0  0  0  0  0  0  0  0  0  0
  -15.6252  -44.4518  -10.3428 C   0  0  0  0  0  0  0  0  0  0  0  0
  -14.3660  -43.8900  -10.5525 C   0  0  0  0  0  0  0  0  0  0  0  0
  -14.1453  -42.5309  -10.5136 C   0  0  0  0  0  0  0  0  0  0  0  0
  -15.2574  -41.7745  -10.2538 C   0  0  0  0  0  0  0  0  0  0  0  0
  -15.5597  -45.8413  -10.4311 O   0  0  0  0  0  0  0  0  0  0  0  0
  -15.9012  -46.8966   -9.5893 C   0  0  0  0  0  0  0  0  0  0  0  0
  -17.1448  -47.5829  -10.1171 C   0  0  0  0  0  0  0  0  0  0  0  0
  -18.4119  -47.0723   -9.4435 C   0  0  0  0  0  0  0  0  0  0  0  0
  -19.3773  -46.6613  -10.5247 C   0  0  0  0  0  0  0  0  0  0  0  0
  -20.5644  -46.0031  -10.0231 N   0  0  0  0  0  0  0  0  0  0  0  0
  -17.0187  -39.3142   -8.1232 C   0  0  2  0  0  0  0  0  0  0  0  0
  -15.8352  -39.5477   -7.3603 O   0  0  0  0  0  0  0  0  0  0  0  0
  -17.9351  -38.5485   -7.2633 C   0  0  0  0  0  0  0  0  0  0  0  0
  -18.7004  -37.5067   -7.8324 N   0  0  0  0  0  0  0  0  0  0  0  0
  -20.0959  -37.6660   -7.9664 C   0  0  0  0  0  0  0  0  0  0  0  0
  -20.9999  -36.5630   -7.5784 C   0  0  0  0  0  0  0  0  0  0  0  0
  -20.3597  -37.9360   -9.4637 C   0  0  0  0  0  0  0  0  0  0  0  0
  -20.5997  -38.9067   -7.2751 C   0  0  0  0  0  0  0  0  0  0  0  0
  -20.6175  -38.9457   -5.8980 C   0  0  0  0  0  0  0  0  0  0  0  0
  -21.0759  -40.0326   -5.1893 C   0  0  0  0  0  0  0  0  0  0  0  0
  -21.5420  -41.1390   -5.8997 C   0  0  0  0  0  0  0  0  0  0  0  0
  -21.5120  -41.0718   -7.2752 C   0  0  0  0  0  0  0  0  0  0  0  0
  -21.0513  -39.9815   -7.9372 N   0  0  0  0  0  0  0  0  0  0  0  0
  -21.0741  -40.0872   -3.7111 C   0  0  0  0  0  0  0  0  0  0  0  0
  -22.4506  -40.1642   -3.1163 C   0  0  0  0  0  0  0  0  0  0  0  0
  -20.2801  -41.3236   -3.2840 C   0  0  0  0  0  0  0  0  0  0  0  0
  -20.4048  -38.8518   -3.1564 C   0  0  0  0  0  0  0  0  0  0  0  0
  1  2  1  0
  2  3  1  0
  3  4  1  0
  4  5  2  0
  5  6  1  0
  6  7  2  0
  7  8  1  0
  8  9  2  0
  8 10  1  0
 10 11  2  0
 10 12  1  0
 12 13  1  0
 13 14  1  6
 14 15  1  0
 15 16  2  0
 16 17  1  0
 17 18  2  0
 18 19  1  0
 19 20  2  0
 17 21  1  0
 21 22  1  0
 22 23  1  0
 23 24  1  0
 24 25  1  0
 25 26  1  0
 13 27  1  0
 27 28  1  1
 27 29  1  0
 29 30  1  0
 30 31  1  0
 31 32  1  0
 31 33  1  0
 31 34  1  0
 34 35  2  0
 35 36  1  0
 36 37  2  0
 37 38  1  0
 38 39  2  0
 36 40  1  0
 40 41  1  0
 40 42  1  0
 40 43  1  0
  9  4  1  0
 20 15  1  0
 26  6  1  0
 39 34  1  0
M  END
$$$$
