
     RDKit          3D

 43 46  0  0  0  0  0  0  0  0999 V2000
  -24.3846  -43.6738   -9.9891 C   0  0  0  0  0  0  0  0  0  0  0  0
  -23.3591  -42.7654  -10.1965 O   0  0  0  0  0  0  0  0  0  0  0  0
  -22.4003  -43.2507  -11.0825 C   0  0  0  0  0  0  0  0  0  0  0  0
  -21.0792  -43.4191  -10.4246 C   0  0  0  0  0  0  0  0  0  0  0  0
  -20.2951  -44.5212  -10.5945 C   0  0  0  0  0  0  0  0  0  0  0  0
  -19.0278  -44.6966   -9.9704 C   0  0  0  0  0  0  0  0  0  0  0  0
  -18.5486  -43.7094   -9.1378 C   0  0  0  0  0  0  0  0  0  0  0  0
  -19.3083  -42.5800   -8.9437 C   0  0  0  0  0  0  0  0  0  0  0  0
  -20.5630  -42.4600   -9.5934 C   0  0  0  0  0  0  0  0  0  0  0  0
  -19.0431  -41.3512   -8.1638 C   0  0  0  0  0  0  0  0  0  0  0  0
  -20.0788  -40.7953   -7.5372 O   0  0  0  0  0  0  0  0  0  0  0  0
  -17.8880  -40.6028   -7.9256 N   0  0  0  0  0  0  0  0  0  0  0  0
  -16.8616  -40.0860   -8.7581 C   0  0  1  0  0  0  0  0  0  0  0  0
  -16.8202  -40.4831  -10.1852 C   0  0  0  0  0  0  0  0  0  0  0  0
  -15.5962  -41.2715  -10.5505 C   0  0  0  0  0  0  0  0  0  0  0  0
  -15.4060  -42.6248  -10.6149 C   0  0  0  0  0  0  0  0  0  0  0  0
  -14.1380  -43.0861  -10.9430 C   0  0  0  0  0  0  0  0  0  0  0  0
  -13.0921  -42.2011  -11.2038 C   0  0  0  0  0  0  0  0  0  0  0  0
  -13.2477  -40.8335  -11.1498 C   0  0  0  0  0  0  0  0  0  0  0  0
  -14.5083  -40.4104  -10.8208 C   0  0  0  0  0  0  0  0  0  0  0  0
  -13.7018  -44.4046  -11.0612 O   0  0  0  0  0  0  0  0  0  0  0  0
  -13.6983  -45.5172  -10.2241 C   0  0  0  0  0  0  0  0  0  0  0  0
  -14.7344  -46.5139  -10.7029 C   0  0  0  0  0  0  0  0  0  0  0  0
  -16.0552  -46.3716   -9.9577 C   0  0  0  0  0  0  0  0  0  0  0  0
  -17.1517  -46.2340  -10.9818 C   0  0  0  0  0  0  0  0  0  0  0  0
  -18.4448  -45.9270  -10.4096 N   0  0  0  0  0  0  0  0  0  0  0  0
  -16.7573  -38.5344   -8.5588 C   0  0  2  0  0  0  0  0  0  0  0  0
  -15.3898  -38.3146   -8.9035 O   0  0  0  0  0  0  0  0  0  0  0  0
  -16.9008  -38.1768   -7.1385 C   0  0  0  0  0  0  0  0  0  0  0  0
  -18.1864  -38.1923   -6.5536 N   0  0  0  0  0  0  0  0  0  0  0  0
  -19.3047  -37.8200   -7.3292 C   0  0  0  0  0  0  0  0  0  0  0  0
  -19.8470  -36.4493   -7.2224 C   0  0  0  0  0  0  0  0  0  0  0  0
  -18.8912  -38.0087   -8.8048 C   0  0  0  0  0  0  0  0  0  0  0  0
  -20.4658  -38.7637   -7.1496 C   0  0  0  0  0  0  0  0  0  0  0  0
  -20.6861  -39.3267   -5.9115 C   0  0  0  0  0  0  0  0  0  0  0  0
  -21.7315  -40.1852   -5.6587 C   0  0  0  0  0  0  0  0  0  0  0  0
  -22.6031  -40.4946   -6.7032 C   0  0  0  0  0  0  0  0  0  0  0  0
  -22.3581  -39.9174   -7.9295 C   0  0  0  0  0  0  0  0  0  0  0  0
  -21.3152  -39.0760   -8.1388 N   0  0  0  0  0  0  0  0  0  0  0  0
  -21.9568  -40.8101   -4.3371 C   0  0  0  0  0  0  0  0  0  0  0  0
  -22.5780  -39.8792   -3.3362 C   0  0  0  0  0  0  0  0  0  0  0  0
  -22.8809  -42.0137   -4.5340 C   0  0  0  0  0  0  0  0  0  0  0  0
  -20.6407  -41.2833   -3.7661 C   0  0  0  0  0  0  0  0  0  0  0  0
  1  2  1  0
  2  3  1  0
  3  4  1  0
  4  5  2  0
  5  6  1  0
  6  7  2  0
  7  8  1  0
  8  9  2  0
  8 10  1  0
 10 11  2  0
 10 12  1  0
 12 13  1  0
 13 14  1  6
 14 15  1  0
 15 16  2  0
 16 17  1  0
 17 18  2  0
 18 19  1  0
 19 20  2  0
 17 21  1  0
 21 22  1  0
 22 23  1  0
 23 24  1  0
 24 25  1  0
 25 26  1  0
 13 27  1  0
 27 28  1  1
 27 29  1  0
 29 30  1  0
 30 31  1  0
 31 32  1  0
 31 33  1  0
 31 34  1  0
 34 35  2  0
 35 36  1  0
 36 37  2  0
 37 38  1  0
 38 39  2  0
 36 40  1  0
 40 41  1  0
 40 42  1  0
 40 43  1  0
  9  4  1  0
 20 15  1  0
 26  6  1  0
 39 34  1  0
M  END
$$$$
