
     RDKit          3D

 43 46  0  0  0  0  0  0  0  0999 V2000
  -18.3665  -47.8503   -5.6369 C   0  0  0  0  0  0  0  0  0  0  0  0
  -17.7149  -47.0278   -6.5418 O   0  0  0  0  0  0  0  0  0  0  0  0
  -18.3075  -47.0614   -7.8017 C   0  0  0  0  0  0  0  0  0  0  0  0
  -18.7181  -45.7069   -8.2524 C   0  0  0  0  0  0  0  0  0  0  0  0
  -19.9908  -45.3998   -8.6322 C   0  0  0  0  0  0  0  0  0  0  0  0
  -20.3984  -44.1070   -9.0668 C   0  0  0  0  0  0  0  0  0  0  0  0
  -19.4674  -43.0932   -9.1191 C   0  0  0  0  0  0  0  0  0  0  0  0
  -18.1734  -43.3620   -8.7402 C   0  0  0  0  0  0  0  0  0  0  0  0
  -17.8256  -44.6692   -8.3146 C   0  0  0  0  0  0  0  0  0  0  0  0
  -16.9862  -42.4848   -8.6419 C   0  0  0  0  0  0  0  0  0  0  0  0
  -15.8110  -43.0150   -8.9769 O   0  0  0  0  0  0  0  0  0  0  0  0
  -16.8123  -41.1540   -8.2547 N   0  0  0  0  0  0  0  0  0  0  0  0
  -17.2541  -40.3865   -7.1459 C   0  0  1  0  0  0  0  0  0  0  0  0
  -18.2366  -40.9746   -6.2053 C   0  0  0  0  0  0  0  0  0  0  0  0
  -19.5532  -40.2538   -6.1889 C   0  0  0  0  0  0  0  0  0  0  0  0
  -20.7072  -40.5102   -6.8774 C   0  0  0  0  0  0  0  0  0  0  0  0
  -21.7747  -39.6400   -6.6999 C   0  0  0  0  0  0  0  0  0  0  0  0
  -21.6780  -38.5427   -5.8445 C   0  0  0  0  0  0  0  0  0  0  0  0
  -20.5331  -38.2550   -5.1348 C   0  0  0  0  0  0  0  0  0  0  0  0
  -19.4978  -39.1297   -5.3337 C   0  0  0  0  0  0  0  0  0  0  0  0
  -23.0358  -39.6872   -7.2916 O   0  0  0  0  0  0  0  0  0  0  0  0
  -23.5059  -39.7174   -8.6019 C   0  0  0  0  0  0  0  0  0  0  0  0
  -24.0344  -41.1019   -8.9180 C   0  0  0  0  0  0  0  0  0  0  0  0
  -22.9961  -41.9657   -9.6224 C   0  0  0  0  0  0  0  0  0  0  0  0
  -22.8777  -43.2603   -8.8610 C   0  0  0  0  0  0  0  0  0  0  0  0
  -21.8050  -44.1120   -9.3277 N   0  0  0  0  0  0  0  0  0  0  0  0
  -16.0156  -39.7622   -6.4147 C   0  0  2  0  0  0  0  0  0  0  0  0
  -16.5041  -38.4493   -6.1408 O   0  0  0  0  0  0  0  0  0  0  0  0
  -14.8816  -39.6097   -7.3401 C   0  0  0  0  0  0  0  0  0  0  0  0
  -14.9277  -38.5937   -8.3201 N   0  0  0  0  0  0  0  0  0  0  0  0
  -14.4242  -38.8541   -9.6122 C   0  0  0  0  0  0  0  0  0  0  0  0
  -13.4680  -37.9115  -10.2298 C   0  0  0  0  0  0  0  0  0  0  0  0
  -13.6988  -40.2147   -9.5287 C   0  0  0  0  0  0  0  0  0  0  0  0
  -15.5218  -39.0843  -10.6189 C   0  0  0  0  0  0  0  0  0  0  0  0
  -16.5937  -38.2192  -10.6507 C   0  0  0  0  0  0  0  0  0  0  0  0
  -17.6293  -38.3487  -11.5476 C   0  0  0  0  0  0  0  0  0  0  0  0
  -17.5871  -39.4014  -12.4621 C   0  0  0  0  0  0  0  0  0  0  0  0
  -16.5038  -40.2503  -12.4067 C   0  0  0  0  0  0  0  0  0  0  0  0
  -15.5026  -40.0893  -11.5060 N   0  0  0  0  0  0  0  0  0  0  0  0
  -18.7932  -37.4360  -11.5688 C   0  0  0  0  0  0  0  0  0  0  0  0
  -19.3261  -37.1185  -10.2015 C   0  0  0  0  0  0  0  0  0  0  0  0
  -18.3614  -36.1339  -12.2467 C   0  0  0  0  0  0  0  0  0  0  0  0
  -19.9159  -38.0604  -12.3635 C   0  0  0  0  0  0  0  0  0  0  0  0
  1  2  1  0
  2  3  1  0
  3  4  1  0
  4  5  2  0
  5  6  1  0
  6  7  2  0
  7  8  1  0
  8  9  2  0
  8 10  1  0
 10 11  2  0
 10 12  1  0
 12 13  1  0
 13 14  1  1
 14 15  1  0
 15 16  2  0
 16 17  1  0
 17 18  2  0
 18 19  1  0
 19 20  2  0
 17 21  1  0
 21 22  1  0
 22 23  1  0
 23 24  1  0
 24 25  1  0
 25 26  1  0
 13 27  1  0
 27 28  1  6
 27 29  1  0
 29 30  1  0
 30 31  1  0
 31 32  1  0
 31 33  1  0
 31 34  1  0
 34 35  2  0
 35 36  1  0
 36 37  2  0
 37 38  1  0
 38 39  2  0
 36 40  1  0
 40 41  1  0
 40 42  1  0
 40 43  1  0
  9  4  1  0
 20 15  1  0
 26  6  1  0
 39 34  1  0
M  END
$$$$
