
     RDKit          3D

 43 46  0  0  0  0  0  0  0  0999 V2000
  -16.2866  -47.7004   -7.3952 C   0  0  0  0  0  0  0  0  0  0  0  0
  -17.6445  -47.7046   -7.6709 O   0  0  0  0  0  0  0  0  0  0  0  0
  -18.3629  -46.9133   -6.7779 C   0  0  0  0  0  0  0  0  0  0  0  0
  -18.9289  -45.7108   -7.4414 C   0  0  0  0  0  0  0  0  0  0  0  0
  -20.2604  -45.5492   -7.6850 C   0  0  0  0  0  0  0  0  0  0  0  0
  -20.8168  -44.4032   -8.3202 C   0  0  0  0  0  0  0  0  0  0  0  0
  -19.9783  -43.3882   -8.7252 C   0  0  0  0  0  0  0  0  0  0  0  0
  -18.6287  -43.5119   -8.4938 C   0  0  0  0  0  0  0  0  0  0  0  0
  -18.1316  -44.6763   -7.8552 C   0  0  0  0  0  0  0  0  0  0  0  0
  -17.5067  -42.5857   -8.7621 C   0  0  0  0  0  0  0  0  0  0  0  0
  -16.3520  -43.1274   -9.1467 O   0  0  0  0  0  0  0  0  0  0  0  0
  -17.3800  -41.1961   -8.6980 N   0  0  0  0  0  0  0  0  0  0  0  0
  -17.7225  -40.2210   -7.7257 C   0  0  1  0  0  0  0  0  0  0  0  0
  -18.5227  -40.6265   -6.5462 C   0  0  0  0  0  0  0  0  0  0  0  0
  -19.8742  -39.9758   -6.4891 C   0  0  0  0  0  0  0  0  0  0  0  0
  -21.0889  -40.4266   -6.9281 C   0  0  0  0  0  0  0  0  0  0  0  0
  -22.1834  -39.5842   -6.7842 C   0  0  0  0  0  0  0  0  0  0  0  0
  -22.0525  -38.3214   -6.2068 C   0  0  0  0  0  0  0  0  0  0  0  0
  -20.8461  -37.8358   -5.7526 C   0  0  0  0  0  0  0  0  0  0  0  0
  -19.7860  -38.6887   -5.9114 C   0  0  0  0  0  0  0  0  0  0  0  0
  -23.5062  -39.8141   -7.1585 O   0  0  0  0  0  0  0  0  0  0  0  0
  -24.1460  -40.1539   -8.3476 C   0  0  0  0  0  0  0  0  0  0  0  0
  -24.6095  -41.5949   -8.2790 C   0  0  0  0  0  0  0  0  0  0  0  0
  -23.6157  -42.5491   -8.9287 C   0  0  0  0  0  0  0  0  0  0  0  0
  -23.3007  -43.6365   -7.9347 C   0  0  0  0  0  0  0  0  0  0  0  0
  -22.2416  -44.5248   -8.3626 N   0  0  0  0  0  0  0  0  0  0  0  0
  -16.4455  -39.3988   -7.3365 C   0  0  2  0  0  0  0  0  0  0  0  0
  -16.6120  -38.2454   -8.1608 O   0  0  0  0  0  0  0  0  0  0  0  0
  -15.2236  -40.0777   -7.7967 C   0  0  0  0  0  0  0  0  0  0  0  0
  -14.3050  -39.3668   -8.6002 N   0  0  0  0  0  0  0  0  0  0  0  0
  -13.6019  -40.0476   -9.6166 C   0  0  0  0  0  0  0  0  0  0  0  0
  -12.1795  -40.3954   -9.4169 C   0  0  0  0  0  0  0  0  0  0  0  0
  -14.3469  -41.3815   -9.8402 C   0  0  0  0  0  0  0  0  0  0  0  0
  -13.6970  -39.3462  -10.9471 C   0  0  0  0  0  0  0  0  0  0  0  0
  -13.2758  -38.0382  -11.0463 C   0  0  0  0  0  0  0  0  0  0  0  0
  -13.3139  -37.3307  -12.2260 C   0  0  0  0  0  0  0  0  0  0  0  0
  -13.7994  -37.9695  -13.3672 C   0  0  0  0  0  0  0  0  0  0  0  0
  -14.2135  -39.2768  -13.2380 C   0  0  0  0  0  0  0  0  0  0  0  0
  -14.1608  -39.9398  -12.0561 N   0  0  0  0  0  0  0  0  0  0  0  0
  -12.8849  -35.9189  -12.3308 C   0  0  0  0  0  0  0  0  0  0  0  0
  -12.4120  -35.5405  -13.7046 C   0  0  0  0  0  0  0  0  0  0  0  0
  -14.0751  -35.0335  -11.9553 C   0  0  0  0  0  0  0  0  0  0  0  0
  -11.7499  -35.6584  -11.3686 C   0  0  0  0  0  0  0  0  0  0  0  0
  1  2  1  0
  2  3  1  0
  3  4  1  0
  4  5  2  0
  5  6  1  0
  6  7  2  0
  7  8  1  0
  8  9  2  0
  8 10  1  0
 10 11  2  0
 10 12  1  0
 12 13  1  0
 13 14  1  1
 14 15  1  0
 15 16  2  0
 16 17  1  0
 17 18  2  0
 18 19  1  0
 19 20  2  0
 17 21  1  0
 21 22  1  0
 22 23  1  0
 23 24  1  0
 24 25  1  0
 25 26  1  0
 13 27  1  0
 27 28  1  6
 27 29  1  0
 29 30  1  0
 30 31  1  0
 31 32  1  0
 31 33  1  0
 31 34  1  0
 34 35  2  0
 35 36  1  0
 36 37  2  0
 37 38  1  0
 38 39  2  0
 36 40  1  0
 40 41  1  0
 40 42  1  0
 40 43  1  0
  9  4  1  0
 20 15  1  0
 26  6  1  0
 39 34  1  0
M  END
$$$$
