
     RDKit          3D

 38 41  0  0  0  0  0  0  0  0999 V2000
  -23.3830  -37.2328   -5.2663 C   0  0  0  0  0  0  0  0  0  0  0  0
  -24.0131  -38.2685   -6.2043 C   0  0  0  0  0  0  0  0  0  0  0  0
  -24.3430  -39.4741   -5.3494 C   0  0  0  0  0  0  0  0  0  0  0  0
  -23.0484  -38.6574   -7.2709 C   0  0  0  0  0  0  0  0  0  0  0  0
  -23.4093  -38.4038   -8.5784 C   0  0  0  0  0  0  0  0  0  0  0  0
  -22.5385  -38.7553   -9.5622 C   0  0  0  0  0  0  0  0  0  0  0  0
  -21.3076  -39.3587   -9.2561 C   0  0  0  0  0  0  0  0  0  0  0  0
  -20.9467  -39.6111   -7.9620 C   0  0  0  0  0  0  0  0  0  0  0  0
  -21.8398  -39.2504   -6.9561 C   0  0  0  0  0  0  0  0  0  0  0  0
  -19.6427  -40.2395   -7.6832 C   0  0  0  0  0  0  0  0  0  0  0  0
  -19.3821  -40.1919   -6.1988 C   0  0  0  0  0  0  0  0  0  0  0  0
  -19.7928  -41.7130   -8.0342 C   0  0  0  0  0  0  0  0  0  0  0  0
  -18.5610  -39.6229   -8.3747 N   0  0  0  0  0  0  0  0  0  0  0  0
  -17.5802  -39.1318   -7.4421 C   0  0  0  0  0  0  0  0  0  0  0  0
  -16.3297  -38.6379   -8.1576 C   0  0  1  0  0  0  0  0  0  0  0  0
  -15.4549  -38.1796   -7.1756 O   0  0  0  0  0  0  0  0  0  0  0  0
  -15.6142  -39.8287   -8.8277 C   0  0  2  0  0  0  0  0  0  0  0  0
  -15.0828  -39.3534  -10.1089 C   0  0  0  0  0  0  0  0  0  0  0  0
  -13.8029  -39.8469  -10.6662 C   0  0  0  0  0  0  0  0  0  0  0  0
  -13.9827  -40.1129  -12.0492 C   0  0  0  0  0  0  0  0  0  0  0  0
  -13.0061  -40.5888  -12.8758 C   0  0  0  0  0  0  0  0  0  0  0  0
  -11.8002  -40.8011  -12.2645 C   0  0  0  0  0  0  0  0  0  0  0  0
  -11.5611  -40.5551  -10.8910 C   0  0  0  0  0  0  0  0  0  0  0  0
  -10.1515  -40.8996  -10.5720 C   0  0  0  0  0  0  0  0  0  0  0  0
   -9.4807  -41.8545  -11.5252 C   0  0  0  0  0  0  0  0  0  0  0  0
  -10.0302  -43.2084  -11.6613 C   0  0  0  0  0  0  0  0  0  0  0  0
  -10.9708  -43.6861  -10.6002 C   0  0  0  0  0  0  0  0  0  0  0  0
  -12.2084  -44.2550  -11.1571 N   0  0  0  0  0  0  0  0  0  0  0  0
  -13.5327  -43.7234  -11.1823 C   0  0  0  0  0  0  0  0  0  0  0  0
  -14.0506  -43.8667  -12.5005 C   0  0  0  0  0  0  0  0  0  0  0  0
  -15.2913  -43.4431  -12.8770 C   0  0  0  0  0  0  0  0  0  0  0  0
  -16.0342  -42.8545  -11.8870 C   0  0  0  0  0  0  0  0  0  0  0  0
  -15.5699  -42.6853  -10.5560 C   0  0  0  0  0  0  0  0  0  0  0  0
  -14.3040  -43.1292  -10.2069 C   0  0  0  0  0  0  0  0  0  0  0  0
  -16.6049  -41.9936   -9.7733 C   0  0  0  0  0  0  0  0  0  0  0  0
  -17.8243  -42.4431   -9.9643 O   0  0  0  0  0  0  0  0  0  0  0  0
  -16.5287  -40.9214   -8.8459 N   0  0  0  0  0  0  0  0  0  0  0  0
  -12.5691  -40.0745  -10.0932 C   0  0  0  0  0  0  0  0  0  0  0  0
  1  2  1  0
  2  3  1  0
  2  4  1  0
  4  5  2  0
  5  6  1  0
  6  7  2  0
  7  8  1  0
  8  9  2  0
  8 10  1  0
 10 11  1  0
 10 12  1  0
 10 13  1  0
 13 14  1  0
 14 15  1  0
 15 16  1  1
 15 17  1  0
 17 18  1  6
 18 19  1  0
 19 20  1  0
 20 21  2  0
 21 22  1  0
 22 23  2  0
 23 24  1  0
 24 25  1  0
 25 26  1  0
 26 27  1  0
 27 28  1  0
 28 29  1  0
 29 30  1  0
 30 31  2  0
 31 32  1  0
 32 33  2  0
 33 34  1  0
 33 35  1  0
 35 36  2  0
 35 37  1  0
 23 38  1  0
  9  4  1  0
 34 29  2  0
 37 17  1  0
 38 19  2  0
M  END
$$$$
