
     RDKit          3D

 38 41  0  0  0  0  0  0  0  0999 V2000
  -10.6768  -36.8056  -11.4413 C   0  0  0  0  0  0  0  0  0  0  0  0
  -10.9387  -38.2414  -11.9097 C   0  0  0  0  0  0  0  0  0  0  0  0
  -10.3003  -38.3676  -13.2770 C   0  0  0  0  0  0  0  0  0  0  0  0
  -12.4032  -38.4944  -12.0133 C   0  0  0  0  0  0  0  0  0  0  0  0
  -12.8132  -39.5375  -12.8183 C   0  0  0  0  0  0  0  0  0  0  0  0
  -14.1476  -39.7787  -12.9231 C   0  0  0  0  0  0  0  0  0  0  0  0
  -15.0811  -38.9888  -12.2321 C   0  0  0  0  0  0  0  0  0  0  0  0
  -14.6786  -37.9549  -11.4336 C   0  0  0  0  0  0  0  0  0  0  0  0
  -13.3117  -37.7097  -11.3275 C   0  0  0  0  0  0  0  0  0  0  0  0
  -15.6901  -37.1546  -10.7199 C   0  0  0  0  0  0  0  0  0  0  0  0
  -14.9991  -36.0398   -9.9763 C   0  0  0  0  0  0  0  0  0  0  0  0
  -16.5374  -36.4810  -11.7900 C   0  0  0  0  0  0  0  0  0  0  0  0
  -16.4725  -37.9194   -9.8080 N   0  0  0  0  0  0  0  0  0  0  0  0
  -15.7803  -38.0733   -8.5549 C   0  0  0  0  0  0  0  0  0  0  0  0
  -15.9856  -39.4657   -7.9728 C   0  0  1  0  0  0  0  0  0  0  0  0
  -15.2830  -39.5104   -6.7711 O   0  0  0  0  0  0  0  0  0  0  0  0
  -17.4688  -39.6530   -7.5934 C   0  0  2  0  0  0  0  0  0  0  0  0
  -17.9815  -40.7789   -8.3801 C   0  0  0  0  0  0  0  0  0  0  0  0
  -18.9916  -41.7213   -7.8472 C   0  0  0  0  0  0  0  0  0  0  0  0
  -19.9704  -41.9518   -8.8494 C   0  0  0  0  0  0  0  0  0  0  0  0
  -21.0546  -42.7669   -8.6948 C   0  0  0  0  0  0  0  0  0  0  0  0
  -21.1410  -43.3683   -7.4685 C   0  0  0  0  0  0  0  0  0  0  0  0
  -20.1971  -43.1769   -6.4309 C   0  0  0  0  0  0  0  0  0  0  0  0
  -20.6057  -43.9753   -5.2465 C   0  0  0  0  0  0  0  0  0  0  0  0
  -22.0630  -44.3531   -5.1847 C   0  0  0  0  0  0  0  0  0  0  0  0
  -23.0609  -43.2802   -5.1025 C   0  0  0  0  0  0  0  0  0  0  0  0
  -22.5840  -41.9164   -4.7134 C   0  0  0  0  0  0  0  0  0  0  0  0
  -23.0619  -40.8684   -5.6292 N   0  0  0  0  0  0  0  0  0  0  0  0
  -22.3554  -40.1247   -6.6215 C   0  0  0  0  0  0  0  0  0  0  0  0
  -23.1219  -40.1326   -7.8210 C   0  0  0  0  0  0  0  0  0  0  0  0
  -22.7256  -39.5269   -8.9771 C   0  0  0  0  0  0  0  0  0  0  0  0
  -21.5128  -38.8912   -8.9189 C   0  0  0  0  0  0  0  0  0  0  0  0
  -20.7061  -38.8505   -7.7513 C   0  0  0  0  0  0  0  0  0  0  0  0
  -21.1402  -39.4753   -6.5926 C   0  0  0  0  0  0  0  0  0  0  0  0
  -19.4674  -38.1173   -8.0518 C   0  0  0  0  0  0  0  0  0  0  0  0
  -19.6415  -37.0108   -8.7378 O   0  0  0  0  0  0  0  0  0  0  0  0
  -18.1097  -38.3884   -7.7375 N   0  0  0  0  0  0  0  0  0  0  0  0
  -19.1189  -42.3506   -6.6264 C   0  0  0  0  0  0  0  0  0  0  0  0
  1  2  1  0
  2  3  1  0
  2  4  1  0
  4  5  2  0
  5  6  1  0
  6  7  2  0
  7  8  1  0
  8  9  2  0
  8 10  1  0
 10 11  1  0
 10 12  1  0
 10 13  1  0
 13 14  1  0
 14 15  1  0
 15 16  1  1
 15 17  1  0
 17 18  1  6
 18 19  1  0
 19 20  1  0
 20 21  2  0
 21 22  1  0
 22 23  2  0
 23 24  1  0
 24 25  1  0
 25 26  1  0
 26 27  1  0
 27 28  1  0
 28 29  1  0
 29 30  1  0
 30 31  2  0
 31 32  1  0
 32 33  2  0
 33 34  1  0
 33 35  1  0
 35 36  2  0
 35 37  1  0
 23 38  1  0
  9  4  1  0
 34 29  2  0
 37 17  1  0
 38 19  2  0
M  END
$$$$
