
     RDKit          3D

 38 41  0  0  0  0  0  0  0  0999 V2000
  -20.4402  -35.2223  -11.9644 C   0  0  0  0  0  0  0  0  0  0  0  0
  -19.3097  -36.0837  -11.3906 C   0  0  0  0  0  0  0  0  0  0  0  0
  -18.4315  -36.4711  -12.5619 C   0  0  0  0  0  0  0  0  0  0  0  0
  -19.8647  -37.3097  -10.7514 C   0  0  0  0  0  0  0  0  0  0  0  0
  -20.5846  -38.1737  -11.5509 C   0  0  0  0  0  0  0  0  0  0  0  0
  -21.0983  -39.2960  -10.9798 C   0  0  0  0  0  0  0  0  0  0  0  0
  -20.9014  -39.5677   -9.6158 C   0  0  0  0  0  0  0  0  0  0  0  0
  -20.1885  -38.7142   -8.8210 C   0  0  0  0  0  0  0  0  0  0  0  0
  -19.6634  -37.5655   -9.4077 C   0  0  0  0  0  0  0  0  0  0  0  0
  -19.9989  -39.0398   -7.3957 C   0  0  0  0  0  0  0  0  0  0  0  0
  -21.2662  -38.7166   -6.6454 C   0  0  0  0  0  0  0  0  0  0  0  0
  -19.8414  -40.5517   -7.3185 C   0  0  0  0  0  0  0  0  0  0  0  0
  -18.9056  -38.3477   -6.8006 N   0  0  0  0  0  0  0  0  0  0  0  0
  -17.6624  -39.0023   -7.1155 C   0  0  0  0  0  0  0  0  0  0  0  0
  -16.6774  -38.0418   -7.7689 C   0  0  1  0  0  0  0  0  0  0  0  0
  -15.8876  -37.5154   -6.7496 O   0  0  0  0  0  0  0  0  0  0  0  0
  -15.7117  -38.8311   -8.6764 C   0  0  2  0  0  0  0  0  0  0  0  0
  -15.7514  -38.2071  -10.0025 C   0  0  0  0  0  0  0  0  0  0  0  0
  -14.5566  -38.1224  -10.8729 C   0  0  0  0  0  0  0  0  0  0  0  0
  -14.9330  -38.4743  -12.1958 C   0  0  0  0  0  0  0  0  0  0  0  0
  -14.0754  -38.5097  -13.2575 C   0  0  0  0  0  0  0  0  0  0  0  0
  -12.7842  -38.1729  -12.9542 C   0  0  0  0  0  0  0  0  0  0  0  0
  -12.3497  -37.8142  -11.6555 C   0  0  0  0  0  0  0  0  0  0  0  0
  -10.8943  -37.5176  -11.6927 C   0  0  0  0  0  0  0  0  0  0  0  0
  -10.1344  -38.1195  -12.8461 C   0  0  0  0  0  0  0  0  0  0  0  0
  -10.0809  -39.5815  -12.9615 C   0  0  0  0  0  0  0  0  0  0  0  0
  -10.4512  -40.3875  -11.7566 C   0  0  0  0  0  0  0  0  0  0  0  0
  -11.4301  -41.4430  -12.0620 N   0  0  0  0  0  0  0  0  0  0  0  0
  -12.8188  -41.5266  -11.7441 C   0  0  0  0  0  0  0  0  0  0  0  0
  -13.5274  -41.9098  -12.9178 C   0  0  0  0  0  0  0  0  0  0  0  0
  -14.8817  -42.0644  -12.9684 C   0  0  0  0  0  0  0  0  0  0  0  0
  -15.5426  -41.8235  -11.7921 C   0  0  0  0  0  0  0  0  0  0  0  0
  -14.8888  -41.4393  -10.5918 C   0  0  0  0  0  0  0  0  0  0  0  0
  -13.5106  -41.2931  -10.5751 C   0  0  0  0  0  0  0  0  0  0  0  0
  -15.8984  -41.2348   -9.5424 C   0  0  0  0  0  0  0  0  0  0  0  0
  -16.8238  -42.1652   -9.4873 O   0  0  0  0  0  0  0  0  0  0  0  0
  -16.0593  -40.2092   -8.5739 N   0  0  0  0  0  0  0  0  0  0  0  0
  -13.2435  -37.7886  -10.6143 C   0  0  0  0  0  0  0  0  0  0  0  0
  1  2  1  0
  2  3  1  0
  2  4  1  0
  4  5  2  0
  5  6  1  0
  6  7  2  0
  7  8  1  0
  8  9  2  0
  8 10  1  0
 10 11  1  0
 10 12  1  0
 10 13  1  0
 13 14  1  0
 14 15  1  0
 15 16  1  1
 15 17  1  0
 17 18  1  6
 18 19  1  0
 19 20  1  0
 20 21  2  0
 21 22  1  0
 22 23  2  0
 23 24  1  0
 24 25  1  0
 25 26  1  0
 26 27  1  0
 27 28  1  0
 28 29  1  0
 29 30  1  0
 30 31  2  0
 31 32  1  0
 32 33  2  0
 33 34  1  0
 33 35  1  0
 35 36  2  0
 35 37  1  0
 23 38  1  0
  9  4  1  0
 34 29  2  0
 37 17  1  0
 38 19  2  0
M  END
$$$$
