
     RDKit          3D

 38 41  0  0  0  0  0  0  0  0999 V2000
  -11.9759  -33.6702  -10.5897 C   0  0  0  0  0  0  0  0  0  0  0  0
  -13.2008  -33.9028  -11.4812 C   0  0  0  0  0  0  0  0  0  0  0  0
  -14.4093  -33.5110  -10.6570 C   0  0  0  0  0  0  0  0  0  0  0  0
  -13.2982  -35.3392  -11.8647 C   0  0  0  0  0  0  0  0  0  0  0  0
  -13.3674  -35.6349  -13.2108 C   0  0  0  0  0  0  0  0  0  0  0  0
  -13.4581  -36.9421  -13.5749 C   0  0  0  0  0  0  0  0  0  0  0  0
  -13.4808  -37.9614  -12.6087 C   0  0  0  0  0  0  0  0  0  0  0  0
  -13.4121  -37.6722  -11.2745 C   0  0  0  0  0  0  0  0  0  0  0  0
  -13.3192  -36.3329  -10.9038 C   0  0  0  0  0  0  0  0  0  0  0  0
  -13.4316  -38.7719  -10.2930 C   0  0  0  0  0  0  0  0  0  0  0  0
  -12.7367  -39.9716  -10.8858 C   0  0  0  0  0  0  0  0  0  0  0  0
  -12.5644  -38.3209   -9.1262 C   0  0  0  0  0  0  0  0  0  0  0  0
  -14.7457  -39.1388   -9.8843 N   0  0  0  0  0  0  0  0  0  0  0  0
  -15.3542  -38.0756   -9.1276 C   0  0  0  0  0  0  0  0  0  0  0  0
  -16.0058  -38.6002   -7.8549 C   0  0  1  0  0  0  0  0  0  0  0  0
  -16.6111  -37.5120   -7.2310 O   0  0  0  0  0  0  0  0  0  0  0  0
  -17.1557  -39.5604   -8.2218 C   0  0  2  0  0  0  0  0  0  0  0  0
  -17.8332  -39.9265   -6.9741 C   0  0  0  0  0  0  0  0  0  0  0  0
  -19.2941  -40.1577   -6.9057 C   0  0  0  0  0  0  0  0  0  0  0  0
  -19.5329  -41.3267   -6.1362 C   0  0  0  0  0  0  0  0  0  0  0  0
  -20.7716  -41.8378   -5.8753 C   0  0  0  0  0  0  0  0  0  0  0  0
  -21.8048  -41.1266   -6.4226 C   0  0  0  0  0  0  0  0  0  0  0  0
  -21.6289  -39.9555   -7.1983 C   0  0  0  0  0  0  0  0  0  0  0  0
  -22.9583  -39.4529   -7.6312 C   0  0  0  0  0  0  0  0  0  0  0  0
  -24.0715  -40.4683   -7.6328 C   0  0  0  0  0  0  0  0  0  0  0  0
  -23.9570  -41.6304   -8.5216 C   0  0  0  0  0  0  0  0  0  0  0  0
  -22.9521  -41.5623   -9.6281 C   0  0  0  0  0  0  0  0  0  0  0  0
  -22.0865  -42.7513   -9.6790 N   0  0  0  0  0  0  0  0  0  0  0  0
  -20.7151  -42.9043   -9.3149 C   0  0  0  0  0  0  0  0  0  0  0  0
  -20.5901  -44.0727   -8.5114 C   0  0  0  0  0  0  0  0  0  0  0  0
  -19.4106  -44.5021   -7.9773 C   0  0  0  0  0  0  0  0  0  0  0  0
  -18.3200  -43.7238   -8.2656 C   0  0  0  0  0  0  0  0  0  0  0  0
  -18.3850  -42.5495   -9.0607 C   0  0  0  0  0  0  0  0  0  0  0  0
  -19.5999  -42.1426   -9.5895 C   0  0  0  0  0  0  0  0  0  0  0  0
  -17.0444  -41.9502   -9.1381 C   0  0  0  0  0  0  0  0  0  0  0  0
  -16.0751  -42.8089   -9.3582 O   0  0  0  0  0  0  0  0  0  0  0  0
  -16.6021  -40.6067   -9.0152 N   0  0  0  0  0  0  0  0  0  0  0  0
  -20.3667  -39.4721   -7.4366 C   0  0  0  0  0  0  0  0  0  0  0  0
  1  2  1  0
  2  3  1  0
  2  4  1  0
  4  5  2  0
  5  6  1  0
  6  7  2  0
  7  8  1  0
  8  9  2  0
  8 10  1  0
 10 11  1  0
 10 12  1  0
 10 13  1  0
 13 14  1  0
 14 15  1  0
 15 16  1  6
 15 17  1  0
 17 18  1  1
 18 19  1  0
 19 20  1  0
 20 21  2  0
 21 22  1  0
 22 23  2  0
 23 24  1  0
 24 25  1  0
 25 26  1  0
 26 27  1  0
 27 28  1  0
 28 29  1  0
 29 30  1  0
 30 31  2  0
 31 32  1  0
 32 33  2  0
 33 34  1  0
 33 35  1  0
 35 36  2  0
 35 37  1  0
 23 38  1  0
  9  4  1  0
 34 29  2  0
 37 17  1  0
 38 19  2  0
M  END
$$$$
