
     RDKit          3D

 38 41  0  0  0  0  0  0  0  0999 V2000
  -17.1441  -35.4823  -12.2400 C   0  0  0  0  0  0  0  0  0  0  0  0
  -15.6697  -35.2047  -11.9263 C   0  0  0  0  0  0  0  0  0  0  0  0
  -15.1800  -34.2450  -12.9904 C   0  0  0  0  0  0  0  0  0  0  0  0
  -14.8800  -36.4666  -11.9857 C   0  0  0  0  0  0  0  0  0  0  0  0
  -14.4198  -36.8715  -13.2219 C   0  0  0  0  0  0  0  0  0  0  0  0
  -13.6988  -38.0226  -13.2908 C   0  0  0  0  0  0  0  0  0  0  0  0
  -13.4305  -38.7772  -12.1369 C   0  0  0  0  0  0  0  0  0  0  0  0
  -13.8845  -38.3791  -10.9106 C   0  0  0  0  0  0  0  0  0  0  0  0
  -14.6226  -37.2000  -10.8423 C   0  0  0  0  0  0  0  0  0  0  0  0
  -13.5749  -39.1961   -9.7233 C   0  0  0  0  0  0  0  0  0  0  0  0
  -12.8765  -40.4577  -10.1638 C   0  0  0  0  0  0  0  0  0  0  0  0
  -12.5499  -38.4105   -8.9175 C   0  0  0  0  0  0  0  0  0  0  0  0
  -14.7264  -39.5343   -8.9565 N   0  0  0  0  0  0  0  0  0  0  0  0
  -15.2052  -38.3861   -8.2315 C   0  0  0  0  0  0  0  0  0  0  0  0
  -15.9883  -38.7973   -6.9916 C   0  0  1  0  0  0  0  0  0  0  0  0
  -16.4933  -37.6294   -6.4253 O   0  0  0  0  0  0  0  0  0  0  0  0
  -17.2223  -39.6224   -7.4107 C   0  0  2  0  0  0  0  0  0  0  0  0
  -18.0465  -39.8131   -6.2132 C   0  0  0  0  0  0  0  0  0  0  0  0
  -19.5258  -39.8476   -6.2685 C   0  0  0  0  0  0  0  0  0  0  0  0
  -19.9851  -40.9215   -5.4615 C   0  0  0  0  0  0  0  0  0  0  0  0
  -21.2993  -41.2488   -5.2893 C   0  0  0  0  0  0  0  0  0  0  0  0
  -22.1764  -40.4476   -5.9686 C   0  0  0  0  0  0  0  0  0  0  0  0
  -21.7784  -39.3638   -6.7878 C   0  0  0  0  0  0  0  0  0  0  0  0
  -22.9859  -38.7229   -7.3696 C   0  0  0  0  0  0  0  0  0  0  0  0
  -24.2221  -39.5830   -7.4190 C   0  0  0  0  0  0  0  0  0  0  0  0
  -24.1909  -40.8069   -8.2280 C   0  0  0  0  0  0  0  0  0  0  0  0
  -23.0956  -40.9440   -9.2382 C   0  0  0  0  0  0  0  0  0  0  0  0
  -22.3978  -42.2360   -9.1428 N   0  0  0  0  0  0  0  0  0  0  0  0
  -21.0957  -42.5412   -8.6448 C   0  0  0  0  0  0  0  0  0  0  0  0
  -21.1986  -43.6596   -7.7701 C   0  0  0  0  0  0  0  0  0  0  0  0
  -20.1378  -44.2019   -7.1059 C   0  0  0  0  0  0  0  0  0  0  0  0
  -18.9313  -43.5929   -7.3336 C   0  0  0  0  0  0  0  0  0  0  0  0
  -18.7690  -42.4758   -8.1948 C   0  0  0  0  0  0  0  0  0  0  0  0
  -19.8683  -41.9508   -8.8559 C   0  0  0  0  0  0  0  0  0  0  0  0
  -17.3579  -42.0622   -8.1798 C   0  0  0  0  0  0  0  0  0  0  0  0
  -16.4987  -43.0523   -8.2612 O   0  0  0  0  0  0  0  0  0  0  0  0
  -16.7500  -40.7824   -8.0903 N   0  0  0  0  0  0  0  0  0  0  0  0
  -20.4467  -39.0655   -6.9339 C   0  0  0  0  0  0  0  0  0  0  0  0
  1  2  1  0
  2  3  1  0
  2  4  1  0
  4  5  2  0
  5  6  1  0
  6  7  2  0
  7  8  1  0
  8  9  2  0
  8 10  1  0
 10 11  1  0
 10 12  1  0
 10 13  1  0
 13 14  1  0
 14 15  1  0
 15 16  1  6
 15 17  1  0
 17 18  1  1
 18 19  1  0
 19 20  1  0
 20 21  2  0
 21 22  1  0
 22 23  2  0
 23 24  1  0
 24 25  1  0
 25 26  1  0
 26 27  1  0
 27 28  1  0
 28 29  1  0
 29 30  1  0
 30 31  2  0
 31 32  1  0
 32 33  2  0
 33 34  1  0
 33 35  1  0
 35 36  2  0
 35 37  1  0
 23 38  1  0
  9  4  1  0
 34 29  2  0
 37 17  1  0
 38 19  2  0
M  END
$$$$
