
     RDKit          3D

 38 41  0  0  0  0  0  0  0  0999 V2000
  -20.9081  -35.3702  -10.1643 C   0  0  0  0  0  0  0  0  0  0  0  0
  -22.2371  -36.0723   -9.8639 C   0  0  0  0  0  0  0  0  0  0  0  0
  -22.9503  -35.2158   -8.8387 C   0  0  0  0  0  0  0  0  0  0  0  0
  -21.9913  -37.4298   -9.3013 C   0  0  0  0  0  0  0  0  0  0  0  0
  -22.6418  -38.4919   -9.8952 C   0  0  0  0  0  0  0  0  0  0  0  0
  -22.4276  -39.7366   -9.3907 C   0  0  0  0  0  0  0  0  0  0  0  0
  -21.5690  -39.9349   -8.2968 C   0  0  0  0  0  0  0  0  0  0  0  0
  -20.9228  -38.8852   -7.7062 C   0  0  0  0  0  0  0  0  0  0  0  0
  -21.1434  -37.6114   -8.2244 C   0  0  0  0  0  0  0  0  0  0  0  0
  -20.0245  -39.1372   -6.5648 C   0  0  0  0  0  0  0  0  0  0  0  0
  -20.8530  -39.3116   -5.3171 C   0  0  0  0  0  0  0  0  0  0  0  0
  -19.3699  -40.4866   -6.8239 C   0  0  0  0  0  0  0  0  0  0  0  0
  -19.0703  -38.1000   -6.3594 N   0  0  0  0  0  0  0  0  0  0  0  0
  -17.7442  -38.6495   -6.2460 C   0  0  0  0  0  0  0  0  0  0  0  0
  -16.9799  -38.5348   -7.5584 C   0  0  1  0  0  0  0  0  0  0  0  0
  -15.7108  -38.0525   -7.2478 O   0  0  0  0  0  0  0  0  0  0  0  0
  -16.7558  -39.9416   -8.1498 C   0  0  2  0  0  0  0  0  0  0  0  0
  -16.2877  -39.7659   -9.5280 C   0  0  0  0  0  0  0  0  0  0  0  0
  -15.3054  -40.6810  -10.1525 C   0  0  0  0  0  0  0  0  0  0  0  0
  -15.7457  -40.9914  -11.4661 C   0  0  0  0  0  0  0  0  0  0  0  0
  -15.0814  -41.8172  -12.3266 C   0  0  0  0  0  0  0  0  0  0  0  0
  -13.9233  -42.3457  -11.8242 C   0  0  0  0  0  0  0  0  0  0  0  0
  -13.4345  -42.0737  -10.5237 C   0  0  0  0  0  0  0  0  0  0  0  0
  -12.1643  -42.8156  -10.3151 C   0  0  0  0  0  0  0  0  0  0  0  0
  -11.9503  -44.0088  -11.2099 C   0  0  0  0  0  0  0  0  0  0  0  0
  -12.8953  -45.1280  -11.1213 C   0  0  0  0  0  0  0  0  0  0  0  0
  -13.7806  -45.1959   -9.9170 C   0  0  0  0  0  0  0  0  0  0  0  0
  -15.1964  -45.3917  -10.2671 N   0  0  0  0  0  0  0  0  0  0  0  0
  -16.2892  -44.4751  -10.2175 C   0  0  0  0  0  0  0  0  0  0  0  0
  -17.0027  -44.5578  -11.4466 C   0  0  0  0  0  0  0  0  0  0  0  0
  -18.0976  -43.7989  -11.7394 C   0  0  0  0  0  0  0  0  0  0  0  0
  -18.4849  -42.9264  -10.7560 C   0  0  0  0  0  0  0  0  0  0  0  0
  -17.8125  -42.8012   -9.5119 C   0  0  0  0  0  0  0  0  0  0  0  0
  -16.7037  -43.5895   -9.2463 C   0  0  0  0  0  0  0  0  0  0  0  0
  -18.4730  -41.7567   -8.7149 C   0  0  0  0  0  0  0  0  0  0  0  0
  -19.7852  -41.8148   -8.7204 O   0  0  0  0  0  0  0  0  0  0  0  0
  -17.9503  -40.6893   -7.9383 N   0  0  0  0  0  0  0  0  0  0  0  0
  -14.1309  -41.2360   -9.6889 C   0  0  0  0  0  0  0  0  0  0  0  0
  1  2  1  0
  2  3  1  0
  2  4  1  0
  4  5  2  0
  5  6  1  0
  6  7  2  0
  7  8  1  0
  8  9  2  0
  8 10  1  0
 10 11  1  0
 10 12  1  0
 10 13  1  0
 13 14  1  0
 14 15  1  0
 15 16  1  1
 15 17  1  0
 17 18  1  6
 18 19  1  0
 19 20  1  0
 20 21  2  0
 21 22  1  0
 22 23  2  0
 23 24  1  0
 24 25  1  0
 25 26  1  0
 26 27  1  0
 27 28  1  0
 28 29  1  0
 29 30  1  0
 30 31  2  0
 31 32  1  0
 32 33  2  0
 33 34  1  0
 33 35  1  0
 35 36  2  0
 35 37  1  0
 23 38  1  0
  9  4  1  0
 34 29  2  0
 37 17  1  0
 38 19  2  0
M  END
$$$$
