
     RDKit          3D

 38 41  0  0  0  0  0  0  0  0999 V2000
  -19.5739  -35.7162  -11.4490 C   0  0  0  0  0  0  0  0  0  0  0  0
  -18.0982  -35.6856  -11.0359 C   0  0  0  0  0  0  0  0  0  0  0  0
  -17.4003  -34.7627  -12.0128 C   0  0  0  0  0  0  0  0  0  0  0  0
  -17.5066  -37.0502  -11.1233 C   0  0  0  0  0  0  0  0  0  0  0  0
  -17.9784  -37.8859  -12.1147 C   0  0  0  0  0  0  0  0  0  0  0  0
  -17.4481  -39.1350  -12.2048 C   0  0  0  0  0  0  0  0  0  0  0  0
  -16.4490  -39.5618  -11.3145 C   0  0  0  0  0  0  0  0  0  0  0  0
  -15.9790  -38.7365  -10.3314 C   0  0  0  0  0  0  0  0  0  0  0  0
  -16.5233  -37.4578  -10.2409 C   0  0  0  0  0  0  0  0  0  0  0  0
  -14.9246  -39.2206   -9.4220 C   0  0  0  0  0  0  0  0  0  0  0  0
  -13.7629  -39.7241  -10.2409 C   0  0  0  0  0  0  0  0  0  0  0  0
  -14.4099  -37.9994   -8.6733 C   0  0  0  0  0  0  0  0  0  0  0  0
  -15.3676  -40.2505   -8.5436 N   0  0  0  0  0  0  0  0  0  0  0  0
  -15.1262  -39.8830   -7.1726 C   0  0  0  0  0  0  0  0  0  0  0  0
  -16.3701  -39.2840   -6.5294 C   0  0  1  0  0  0  0  0  0  0  0  0
  -16.5784  -38.0435   -7.1273 O   0  0  0  0  0  0  0  0  0  0  0  0
  -17.6026  -40.1347   -6.8987 C   0  0  2  0  0  0  0  0  0  0  0  0
  -18.0875  -40.7589   -5.6638 C   0  0  0  0  0  0  0  0  0  0  0  0
  -19.5272  -40.9908   -5.4072 C   0  0  0  0  0  0  0  0  0  0  0  0
  -19.6888  -42.2975   -4.8762 C   0  0  0  0  0  0  0  0  0  0  0  0
  -20.8904  -42.8457   -4.5304 C   0  0  0  0  0  0  0  0  0  0  0  0
  -21.9670  -42.0263   -4.7360 C   0  0  0  0  0  0  0  0  0  0  0  0
  -21.8684  -40.7158   -5.2621 C   0  0  0  0  0  0  0  0  0  0  0  0
  -23.2278  -40.1232   -5.3533 C   0  0  0  0  0  0  0  0  0  0  0  0
  -24.3682  -41.1073   -5.3886 C   0  0  0  0  0  0  0  0  0  0  0  0
  -24.4449  -42.0492   -6.5113 C   0  0  0  0  0  0  0  0  0  0  0  0
  -23.6269  -41.7484   -7.7274 C   0  0  0  0  0  0  0  0  0  0  0  0
  -22.8305  -42.9031   -8.1723 N   0  0  0  0  0  0  0  0  0  0  0  0
  -21.4262  -43.1399   -8.0797 C   0  0  0  0  0  0  0  0  0  0  0  0
  -21.2234  -44.4556   -7.5757 C   0  0  0  0  0  0  0  0  0  0  0  0
  -19.9929  -44.9978   -7.3468 C   0  0  0  0  0  0  0  0  0  0  0  0
  -18.9306  -44.1821   -7.6376 C   0  0  0  0  0  0  0  0  0  0  0  0
  -19.0726  -42.8626   -8.1422 C   0  0  0  0  0  0  0  0  0  0  0  0
  -20.3383  -42.3433   -8.3650 C   0  0  0  0  0  0  0  0  0  0  0  0
  -17.7377  -42.2689   -8.3092 C   0  0  0  0  0  0  0  0  0  0  0  0
  -16.8523  -43.0651   -8.8636 O   0  0  0  0  0  0  0  0  0  0  0  0
  -17.2262  -40.9869   -7.9769 N   0  0  0  0  0  0  0  0  0  0  0  0
  -20.6413  -40.1997   -5.5960 C   0  0  0  0  0  0  0  0  0  0  0  0
  1  2  1  0
  2  3  1  0
  2  4  1  0
  4  5  2  0
  5  6  1  0
  6  7  2  0
  7  8  1  0
  8  9  2  0
  8 10  1  0
 10 11  1  0
 10 12  1  0
 10 13  1  0
 13 14  1  0
 14 15  1  0
 15 16  1  6
 15 17  1  0
 17 18  1  1
 18 19  1  0
 19 20  1  0
 20 21  2  0
 21 22  1  0
 22 23  2  0
 23 24  1  0
 24 25  1  0
 25 26  1  0
 26 27  1  0
 27 28  1  0
 28 29  1  0
 29 30  1  0
 30 31  2  0
 31 32  1  0
 32 33  2  0
 33 34  1  0
 33 35  1  0
 35 36  2  0
 35 37  1  0
 23 38  1  0
  9  4  1  0
 34 29  2  0
 37 17  1  0
 38 19  2  0
M  END
$$$$
