
     RDKit          3D

 38 41  0  0  0  0  0  0  0  0999 V2000
  -14.9511  -34.4436  -11.4272 C   0  0  0  0  0  0  0  0  0  0  0  0
  -13.6772  -35.2915  -11.5134 C   0  0  0  0  0  0  0  0  0  0  0  0
  -13.0952  -35.0492  -12.8902 C   0  0  0  0  0  0  0  0  0  0  0  0
  -14.0036  -36.7363  -11.3527 C   0  0  0  0  0  0  0  0  0  0  0  0
  -14.6236  -37.3698  -12.4102 C   0  0  0  0  0  0  0  0  0  0  0  0
  -14.9286  -38.6884  -12.2764 C   0  0  0  0  0  0  0  0  0  0  0  0
  -14.6213  -39.3850  -11.0960 C   0  0  0  0  0  0  0  0  0  0  0  0
  -14.0069  -38.7607  -10.0466 C   0  0  0  0  0  0  0  0  0  0  0  0
  -13.6953  -37.4104  -10.1857 C   0  0  0  0  0  0  0  0  0  0  0  0
  -13.6952  -39.5297   -8.8281 C   0  0  0  0  0  0  0  0  0  0  0  0
  -13.6980  -41.0002   -9.1614 C   0  0  0  0  0  0  0  0  0  0  0  0
  -12.2584  -39.1871   -8.4605 C   0  0  0  0  0  0  0  0  0  0  0  0
  -14.6036  -39.2838   -7.7592 N   0  0  0  0  0  0  0  0  0  0  0  0
  -15.8511  -38.7721   -8.2645 C   0  0  0  0  0  0  0  0  0  0  0  0
  -16.9259  -38.7600   -7.1856 C   0  0  1  0  0  0  0  0  0  0  0  0
  -17.5998  -37.5464   -7.2982 O   0  0  0  0  0  0  0  0  0  0  0  0
  -17.9761  -39.8476   -7.4910 C   0  0  2  0  0  0  0  0  0  0  0  0
  -18.8994  -39.8942   -6.3530 C   0  0  0  0  0  0  0  0  0  0  0  0
  -20.3430  -40.1800   -6.5169 C   0  0  0  0  0  0  0  0  0  0  0  0
  -20.7393  -41.1039   -5.5144 C   0  0  0  0  0  0  0  0  0  0  0  0
  -22.0062  -41.5928   -5.3744 C   0  0  0  0  0  0  0  0  0  0  0  0
  -22.9012  -41.1191   -6.2949 C   0  0  0  0  0  0  0  0  0  0  0  0
  -22.5652  -40.1984   -7.3165 C   0  0  0  0  0  0  0  0  0  0  0  0
  -23.7742  -39.9103   -8.1305 C   0  0  0  0  0  0  0  0  0  0  0  0
  -24.8647  -40.9483   -8.0702 C   0  0  0  0  0  0  0  0  0  0  0  0
  -24.5699  -42.3015   -8.5553 C   0  0  0  0  0  0  0  0  0  0  0  0
  -23.3563  -42.4835   -9.4114 C   0  0  0  0  0  0  0  0  0  0  0  0
  -22.5016  -43.5897   -8.9518 N   0  0  0  0  0  0  0  0  0  0  0  0
  -21.2365  -43.5590   -8.2921 C   0  0  0  0  0  0  0  0  0  0  0  0
  -21.2839  -44.4524   -7.1848 C   0  0  0  0  0  0  0  0  0  0  0  0
  -20.2426  -44.6509   -6.3265 C   0  0  0  0  0  0  0  0  0  0  0  0
  -19.1142  -43.9215   -6.5968 C   0  0  0  0  0  0  0  0  0  0  0  0
  -19.0097  -43.0166   -7.6858 C   0  0  0  0  0  0  0  0  0  0  0  0
  -20.0869  -42.8403   -8.5401 C   0  0  0  0  0  0  0  0  0  0  0  0
  -17.6812  -42.3869   -7.6578 C   0  0  0  0  0  0  0  0  0  0  0  0
  -16.6891  -43.2167   -7.4290 O   0  0  0  0  0  0  0  0  0  0  0  0
  -17.2715  -41.0386   -7.8309 N   0  0  0  0  0  0  0  0  0  0  0  0
  -21.2800  -39.7286   -7.4228 C   0  0  0  0  0  0  0  0  0  0  0  0
  1  2  1  0
  2  3  1  0
  2  4  1  0
  4  5  2  0
  5  6  1  0
  6  7  2  0
  7  8  1  0
  8  9  2  0
  8 10  1  0
 10 11  1  0
 10 12  1  0
 10 13  1  0
 13 14  1  0
 14 15  1  0
 15 16  1  6
 15 17  1  0
 17 18  1  1
 18 19  1  0
 19 20  1  0
 20 21  2  0
 21 22  1  0
 22 23  2  0
 23 24  1  0
 24 25  1  0
 25 26  1  0
 26 27  1  0
 27 28  1  0
 28 29  1  0
 29 30  1  0
 30 31  2  0
 31 32  1  0
 32 33  2  0
 33 34  1  0
 33 35  1  0
 35 36  2  0
 35 37  1  0
 23 38  1  0
  9  4  1  0
 34 29  2  0
 37 17  1  0
 38 19  2  0
M  END
$$$$
