
     RDKit          3D

 38 41  0  0  0  0  0  0  0  0999 V2000
  -13.3886  -37.0042  -14.6680 C   0  0  0  0  0  0  0  0  0  0  0  0
  -12.8737  -38.4164  -14.3681 C   0  0  0  0  0  0  0  0  0  0  0  0
  -13.1150  -39.2336  -15.6199 C   0  0  0  0  0  0  0  0  0  0  0  0
  -13.6247  -39.0111  -13.2270 C   0  0  0  0  0  0  0  0  0  0  0  0
  -14.3405  -40.1657  -13.4692 C   0  0  0  0  0  0  0  0  0  0  0  0
  -15.0320  -40.7183  -12.4367 C   0  0  0  0  0  0  0  0  0  0  0  0
  -15.0177  -40.1309  -11.1609 C   0  0  0  0  0  0  0  0  0  0  0  0
  -14.3094  -38.9874  -10.9173 C   0  0  0  0  0  0  0  0  0  0  0  0
  -13.6020  -38.4230  -11.9760 C   0  0  0  0  0  0  0  0  0  0  0  0
  -14.3149  -38.4068   -9.5623 C   0  0  0  0  0  0  0  0  0  0  0  0
  -12.8917  -38.2520   -9.0887 C   0  0  0  0  0  0  0  0  0  0  0  0
  -14.8645  -36.9944   -9.7030 C   0  0  0  0  0  0  0  0  0  0  0  0
  -15.0467  -39.1840   -8.6195 N   0  0  0  0  0  0  0  0  0  0  0  0
  -14.9499  -38.6051   -7.3047 C   0  0  0  0  0  0  0  0  0  0  0  0
  -16.3200  -38.4704   -6.6534 C   0  0  1  0  0  0  0  0  0  0  0  0
  -16.7968  -37.2009   -6.9710 O   0  0  0  0  0  0  0  0  0  0  0  0
  -17.3037  -39.4596   -7.3112 C   0  0  2  0  0  0  0  0  0  0  0  0
  -18.3854  -39.7020   -6.3516 C   0  0  0  0  0  0  0  0  0  0  0  0
  -19.7861  -39.9231   -6.7779 C   0  0  0  0  0  0  0  0  0  0  0  0
  -20.3190  -41.0117   -6.0385 C   0  0  0  0  0  0  0  0  0  0  0  0
  -21.5884  -41.4930   -6.1823 C   0  0  0  0  0  0  0  0  0  0  0  0
  -22.3407  -40.8363   -7.1180 C   0  0  0  0  0  0  0  0  0  0  0  0
  -21.8645  -39.7461   -7.8854 C   0  0  0  0  0  0  0  0  0  0  0  0
  -22.9416  -39.2854   -8.7992 C   0  0  0  0  0  0  0  0  0  0  0  0
  -24.0200  -40.2943   -9.0985 C   0  0  0  0  0  0  0  0  0  0  0  0
  -23.6447  -41.5371   -9.7827 C   0  0  0  0  0  0  0  0  0  0  0  0
  -22.3159  -41.5781  -10.4692 C   0  0  0  0  0  0  0  0  0  0  0  0
  -21.5294  -42.7680  -10.1069 N   0  0  0  0  0  0  0  0  0  0  0  0
  -20.3767  -42.8875   -9.2740 C   0  0  0  0  0  0  0  0  0  0  0  0
  -20.5805  -43.9728   -8.3757 C   0  0  0  0  0  0  0  0  0  0  0  0
  -19.6765  -44.3505   -7.4267 C   0  0  0  0  0  0  0  0  0  0  0  0
  -18.5268  -43.6057   -7.3841 C   0  0  0  0  0  0  0  0  0  0  0  0
  -18.2695  -42.5137   -8.2541 C   0  0  0  0  0  0  0  0  0  0  0  0
  -19.2093  -42.1578   -9.2088 C   0  0  0  0  0  0  0  0  0  0  0  0
  -16.9653  -41.9270   -7.9115 C   0  0  0  0  0  0  0  0  0  0  0  0
  -16.0112  -42.8046   -7.7005 O   0  0  0  0  0  0  0  0  0  0  0  0
  -16.5461  -40.5787   -7.7632 N   0  0  0  0  0  0  0  0  0  0  0  0
  -20.5820  -39.2901   -7.7098 C   0  0  0  0  0  0  0  0  0  0  0  0
  1  2  1  0
  2  3  1  0
  2  4  1  0
  4  5  2  0
  5  6  1  0
  6  7  2  0
  7  8  1  0
  8  9  2  0
  8 10  1  0
 10 11  1  0
 10 12  1  0
 10 13  1  0
 13 14  1  0
 14 15  1  0
 15 16  1  6
 15 17  1  0
 17 18  1  1
 18 19  1  0
 19 20  1  0
 20 21  2  0
 21 22  1  0
 22 23  2  0
 23 24  1  0
 24 25  1  0
 25 26  1  0
 26 27  1  0
 27 28  1  0
 28 29  1  0
 29 30  1  0
 30 31  2  0
 31 32  1  0
 32 33  2  0
 33 34  1  0
 33 35  1  0
 35 36  2  0
 35 37  1  0
 23 38  1  0
  9  4  1  0
 34 29  2  0
 37 17  1  0
 38 19  2  0
M  END
$$$$
