
     RDKit          3D

 38 41  0  0  0  0  0  0  0  0999 V2000
  -13.8173  -35.6759  -12.6627 C   0  0  0  0  0  0  0  0  0  0  0  0
  -15.0526  -36.1278  -11.8758 C   0  0  0  0  0  0  0  0  0  0  0  0
  -14.9764  -35.4395  -10.5291 C   0  0  0  0  0  0  0  0  0  0  0  0
  -15.0353  -37.6056  -11.6866 C   0  0  0  0  0  0  0  0  0  0  0  0
  -15.7314  -38.3719  -12.5988 C   0  0  0  0  0  0  0  0  0  0  0  0
  -15.7253  -39.7222  -12.4370 C   0  0  0  0  0  0  0  0  0  0  0  0
  -15.0305  -40.3193  -11.3723 C   0  0  0  0  0  0  0  0  0  0  0  0
  -14.3396  -39.5633  -10.4669 C   0  0  0  0  0  0  0  0  0  0  0  0
  -14.3471  -38.1807  -10.6344 C   0  0  0  0  0  0  0  0  0  0  0  0
  -13.6175  -40.2296   -9.3680 C   0  0  0  0  0  0  0  0  0  0  0  0
  -13.7128  -41.7231   -9.5522 C   0  0  0  0  0  0  0  0  0  0  0  0
  -12.1471  -39.8794   -9.5464 C   0  0  0  0  0  0  0  0  0  0  0  0
  -14.1077  -39.8786   -8.0776 N   0  0  0  0  0  0  0  0  0  0  0  0
  -15.1788  -38.9226   -8.1875 C   0  0  0  0  0  0  0  0  0  0  0  0
  -16.1159  -38.9962   -6.9891 C   0  0  1  0  0  0  0  0  0  0  0  0
  -16.5079  -37.6914   -6.7001 O   0  0  0  0  0  0  0  0  0  0  0  0
  -17.4075  -39.7385   -7.3888 C   0  0  2  0  0  0  0  0  0  0  0  0
  -18.2384  -39.8470   -6.1856 C   0  0  0  0  0  0  0  0  0  0  0  0
  -19.7165  -39.7763   -6.2361 C   0  0  0  0  0  0  0  0  0  0  0  0
  -20.2482  -40.7990   -5.4074 C   0  0  0  0  0  0  0  0  0  0  0  0
  -21.5817  -41.0279   -5.2252 C   0  0  0  0  0  0  0  0  0  0  0  0
  -22.4020  -40.1789   -5.9174 C   0  0  0  0  0  0  0  0  0  0  0  0
  -21.9308  -39.1421   -6.7583 C   0  0  0  0  0  0  0  0  0  0  0  0
  -23.0917  -38.4274   -7.3489 C   0  0  0  0  0  0  0  0  0  0  0  0
  -24.3865  -39.1973   -7.3783 C   0  0  0  0  0  0  0  0  0  0  0  0
  -24.4464  -40.4354   -8.1638 C   0  0  0  0  0  0  0  0  0  0  0  0
  -23.3680  -40.6698   -9.1742 C   0  0  0  0  0  0  0  0  0  0  0  0
  -22.7642  -42.0065   -9.0561 N   0  0  0  0  0  0  0  0  0  0  0  0
  -21.4852  -42.3949   -8.5559 C   0  0  0  0  0  0  0  0  0  0  0  0
  -21.6644  -43.4863   -7.6597 C   0  0  0  0  0  0  0  0  0  0  0  0
  -20.6424  -44.0905   -6.9881 C   0  0  0  0  0  0  0  0  0  0  0  0
  -19.3963  -43.5740   -7.2309 C   0  0  0  0  0  0  0  0  0  0  0  0
  -19.1580  -42.4880   -8.1137 C   0  0  0  0  0  0  0  0  0  0  0  0
  -20.2196  -41.8981   -8.7818 C   0  0  0  0  0  0  0  0  0  0  0  0
  -17.7209  -42.1765   -8.1107 C   0  0  0  0  0  0  0  0  0  0  0  0
  -16.9351  -43.2270   -8.1755 O   0  0  0  0  0  0  0  0  0  0  0  0
  -17.0224  -40.9420   -8.0474 N   0  0  0  0  0  0  0  0  0  0  0  0
  -20.5818  -38.9428   -6.9138 C   0  0  0  0  0  0  0  0  0  0  0  0
  1  2  1  0
  2  3  1  0
  2  4  1  0
  4  5  2  0
  5  6  1  0
  6  7  2  0
  7  8  1  0
  8  9  2  0
  8 10  1  0
 10 11  1  0
 10 12  1  0
 10 13  1  0
 13 14  1  0
 14 15  1  0
 15 16  1  6
 15 17  1  0
 17 18  1  1
 18 19  1  0
 19 20  1  0
 20 21  2  0
 21 22  1  0
 22 23  2  0
 23 24  1  0
 24 25  1  0
 25 26  1  0
 26 27  1  0
 27 28  1  0
 28 29  1  0
 29 30  1  0
 30 31  2  0
 31 32  1  0
 32 33  2  0
 33 34  1  0
 33 35  1  0
 35 36  2  0
 35 37  1  0
 23 38  1  0
  9  4  1  0
 34 29  2  0
 37 17  1  0
 38 19  2  0
M  END
$$$$
