
     RDKit          3D

 38 41  0  0  0  0  0  0  0  0999 V2000
  -22.1377  -35.7870  -10.1319 C   0  0  0  0  0  0  0  0  0  0  0  0
  -21.1648  -36.4978  -11.0794 C   0  0  0  0  0  0  0  0  0  0  0  0
  -22.0126  -37.1504  -12.1510 C   0  0  0  0  0  0  0  0  0  0  0  0
  -20.3932  -37.5395  -10.3451 C   0  0  0  0  0  0  0  0  0  0  0  0
  -20.2491  -38.7704  -10.9518 C   0  0  0  0  0  0  0  0  0  0  0  0
  -19.5484  -39.7311  -10.2919 C   0  0  0  0  0  0  0  0  0  0  0  0
  -18.9876  -39.4775   -9.0293 C   0  0  0  0  0  0  0  0  0  0  0  0
  -19.1280  -38.2593   -8.4253 C   0  0  0  0  0  0  0  0  0  0  0  0
  -19.8459  -37.2769   -9.1029 C   0  0  0  0  0  0  0  0  0  0  0  0
  -18.5177  -38.0318   -7.1028 C   0  0  0  0  0  0  0  0  0  0  0  0
  -17.7219  -36.7518   -7.1429 C   0  0  0  0  0  0  0  0  0  0  0  0
  -19.6673  -37.7792   -6.1377 C   0  0  0  0  0  0  0  0  0  0  0  0
  -17.6766  -39.1003   -6.6794 N   0  0  0  0  0  0  0  0  0  0  0  0
  -17.1714  -39.8257   -7.8159 C   0  0  0  0  0  0  0  0  0  0  0  0
  -15.7604  -40.3412   -7.5650 C   0  0  1  0  0  0  0  0  0  0  0  0
  -15.8806  -41.6630   -7.1431 O   0  0  0  0  0  0  0  0  0  0  0  0
  -14.9877  -40.4002   -8.8987 C   0  0  2  0  0  0  0  0  0  0  0  0
  -13.5592  -40.4544   -8.5731 C   0  0  0  0  0  0  0  0  0  0  0  0
  -12.5915  -41.2262   -9.3856 C   0  0  0  0  0  0  0  0  0  0  0  0
  -11.4311  -40.4326   -9.5843 C   0  0  0  0  0  0  0  0  0  0  0  0
  -10.3374  -40.8315  -10.2974 C   0  0  0  0  0  0  0  0  0  0  0  0
  -10.4347  -42.0895  -10.8274 C   0  0  0  0  0  0  0  0  0  0  0  0
  -11.5648  -42.9262  -10.6638 C   0  0  0  0  0  0  0  0  0  0  0  0
  -11.3282  -44.2099  -11.3735 C   0  0  0  0  0  0  0  0  0  0  0  0
  -10.2910  -44.1707  -12.4657 C   0  0  0  0  0  0  0  0  0  0  0  0
  -10.5269  -43.3002  -13.6234 C   0  0  0  0  0  0  0  0  0  0  0  0
  -11.9186  -42.7956  -13.8408 C   0  0  0  0  0  0  0  0  0  0  0  0
  -11.9646  -41.3405  -14.0556 N   0  0  0  0  0  0  0  0  0  0  0  0
  -12.4154  -40.2989  -13.1904 C   0  0  0  0  0  0  0  0  0  0  0  0
  -11.4364  -39.2655  -13.1812 C   0  0  0  0  0  0  0  0  0  0  0  0
  -11.5450  -38.1258  -12.4398 C   0  0  0  0  0  0  0  0  0  0  0  0
  -12.6825  -38.0270  -11.6816 C   0  0  0  0  0  0  0  0  0  0  0  0
  -13.6918  -39.0249  -11.6516 C   0  0  0  0  0  0  0  0  0  0  0  0
  -13.5503  -40.1705  -12.4191 C   0  0  0  0  0  0  0  0  0  0  0  0
  -14.7465  -38.6096  -10.7148 C   0  0  0  0  0  0  0  0  0  0  0  0
  -15.1061  -37.3508  -10.8219 O   0  0  0  0  0  0  0  0  0  0  0  0
  -15.4496  -39.3223   -9.7082 N   0  0  0  0  0  0  0  0  0  0  0  0
  -12.6443  -42.4891   -9.9377 C   0  0  0  0  0  0  0  0  0  0  0  0
  1  2  1  0
  2  3  1  0
  2  4  1  0
  4  5  2  0
  5  6  1  0
  6  7  2  0
  7  8  1  0
  8  9  2  0
  8 10  1  0
 10 11  1  0
 10 12  1  0
 10 13  1  0
 13 14  1  0
 14 15  1  0
 15 16  1  6
 15 17  1  0
 17 18  1  1
 18 19  1  0
 19 20  1  0
 20 21  2  0
 21 22  1  0
 22 23  2  0
 23 24  1  0
 24 25  1  0
 25 26  1  0
 26 27  1  0
 27 28  1  0
 28 29  1  0
 29 30  1  0
 30 31  2  0
 31 32  1  0
 32 33  2  0
 33 34  1  0
 33 35  1  0
 35 36  2  0
 35 37  1  0
 23 38  1  0
  9  4  1  0
 34 29  2  0
 37 17  1  0
 38 19  2  0
M  END
$$$$
