
     RDKit          3D

 38 41  0  0  0  0  0  0  0  0999 V2000
  -14.3349  -34.3463  -10.1428 C   0  0  0  0  0  0  0  0  0  0  0  0
  -12.9657  -34.8909  -10.5647 C   0  0  0  0  0  0  0  0  0  0  0  0
  -12.5935  -34.1674  -11.8419 C   0  0  0  0  0  0  0  0  0  0  0  0
  -13.0470  -36.3560  -10.8224 C   0  0  0  0  0  0  0  0  0  0  0  0
  -12.8953  -36.7821  -12.1261 C   0  0  0  0  0  0  0  0  0  0  0  0
  -12.9689  -38.1170  -12.3757 C   0  0  0  0  0  0  0  0  0  0  0  0
  -13.1926  -39.0351  -11.3365 C   0  0  0  0  0  0  0  0  0  0  0  0
  -13.3430  -38.6167  -10.0439 C   0  0  0  0  0  0  0  0  0  0  0  0
  -13.2673  -37.2493   -9.7904 C   0  0  0  0  0  0  0  0  0  0  0  0
  -13.5691  -39.6134   -8.9815 C   0  0  0  0  0  0  0  0  0  0  0  0
  -13.4739  -40.9955   -9.5766 C   0  0  0  0  0  0  0  0  0  0  0  0
  -12.3950  -39.4902   -8.0208 C   0  0  0  0  0  0  0  0  0  0  0  0
  -14.8254  -39.4641   -8.3273 N   0  0  0  0  0  0  0  0  0  0  0  0
  -15.8800  -40.0365   -9.1232 C   0  0  0  0  0  0  0  0  0  0  0  0
  -17.1505  -39.1998   -9.0486 C   0  0  1  0  0  0  0  0  0  0  0  0
  -17.5200  -38.9060  -10.3590 O   0  0  0  0  0  0  0  0  0  0  0  0
  -18.2989  -40.0552   -8.4756 C   0  0  2  0  0  0  0  0  0  0  0  0
  -19.1257  -39.1748   -7.6444 C   0  0  0  0  0  0  0  0  0  0  0  0
  -20.5949  -39.3304   -7.5458 C   0  0  0  0  0  0  0  0  0  0  0  0
  -20.9732  -39.2124   -6.1825 C   0  0  0  0  0  0  0  0  0  0  0  0
  -22.2565  -39.3117   -5.7274 C   0  0  0  0  0  0  0  0  0  0  0  0
  -23.1877  -39.5409   -6.7038 C   0  0  0  0  0  0  0  0  0  0  0  0
  -22.8711  -39.6680   -8.0777 C   0  0  0  0  0  0  0  0  0  0  0  0
  -24.1191  -39.9151   -8.8450 C   0  0  0  0  0  0  0  0  0  0  0  0
  -25.2737  -40.4711   -8.0525 C   0  0  0  0  0  0  0  0  0  0  0  0
  -25.1196  -41.7869   -7.4213 C   0  0  0  0  0  0  0  0  0  0  0  0
  -23.9976  -42.6568   -7.8936 C   0  0  0  0  0  0  0  0  0  0  0  0
  -23.1908  -43.1900   -6.7845 N   0  0  0  0  0  0  0  0  0  0  0  0
  -21.8765  -42.8380   -6.3537 C   0  0  0  0  0  0  0  0  0  0  0  0
  -21.8972  -42.6628   -4.9412 C   0  0  0  0  0  0  0  0  0  0  0  0
  -20.8056  -42.3035   -4.2064 C   0  0  0  0  0  0  0  0  0  0  0  0
  -19.6533  -42.1151   -4.9240 C   0  0  0  0  0  0  0  0  0  0  0  0
  -19.5736  -42.2758   -6.3324 C   0  0  0  0  0  0  0  0  0  0  0  0
  -20.7021  -42.6435   -7.0483 C   0  0  0  0  0  0  0  0  0  0  0  0
  -18.2049  -41.9660   -6.7718 C   0  0  0  0  0  0  0  0  0  0  0  0
  -17.2605  -42.4872   -6.0224 O   0  0  0  0  0  0  0  0  0  0  0  0
  -17.7136  -41.2003   -7.8618 N   0  0  0  0  0  0  0  0  0  0  0  0
  -21.5683  -39.5599   -8.4957 C   0  0  0  0  0  0  0  0  0  0  0  0
  1  2  1  0
  2  3  1  0
  2  4  1  0
  4  5  2  0
  5  6  1  0
  6  7  2  0
  7  8  1  0
  8  9  2  0
  8 10  1  0
 10 11  1  0
 10 12  1  0
 10 13  1  0
 13 14  1  0
 14 15  1  0
 15 16  1  6
 15 17  1  0
 17 18  1  1
 18 19  1  0
 19 20  1  0
 20 21  2  0
 21 22  1  0
 22 23  2  0
 23 24  1  0
 24 25  1  0
 25 26  1  0
 26 27  1  0
 27 28  1  0
 28 29  1  0
 29 30  1  0
 30 31  2  0
 31 32  1  0
 32 33  2  0
 33 34  1  0
 33 35  1  0
 35 36  2  0
 35 37  1  0
 23 38  1  0
  9  4  1  0
 34 29  2  0
 37 17  1  0
 38 19  2  0
M  END
$$$$
