
     RDKit          3D

 38 41  0  0  0  0  0  0  0  0999 V2000
  -22.7752  -39.3948  -11.8893 C   0  0  0  0  0  0  0  0  0  0  0  0
  -22.1424  -38.7338  -10.6596 C   0  0  0  0  0  0  0  0  0  0  0  0
  -22.8820  -37.4295  -10.4479 C   0  0  0  0  0  0  0  0  0  0  0  0
  -20.6986  -38.4591  -10.9035 C   0  0  0  0  0  0  0  0  0  0  0  0
  -20.2077  -38.7110  -12.1683 C   0  0  0  0  0  0  0  0  0  0  0  0
  -18.8910  -38.4661  -12.4042 C   0  0  0  0  0  0  0  0  0  0  0  0
  -18.0550  -37.9710  -11.3898 C   0  0  0  0  0  0  0  0  0  0  0  0
  -18.5378  -37.7200  -10.1359 C   0  0  0  0  0  0  0  0  0  0  0  0
  -19.8866  -37.9714   -9.8964 C   0  0  0  0  0  0  0  0  0  0  0  0
  -17.6287  -37.1938   -9.1016 C   0  0  0  0  0  0  0  0  0  0  0  0
  -17.1796  -35.8107   -9.5000 C   0  0  0  0  0  0  0  0  0  0  0  0
  -18.4674  -37.0149   -7.8441 C   0  0  0  0  0  0  0  0  0  0  0  0
  -16.4881  -38.0181   -8.8821 N   0  0  0  0  0  0  0  0  0  0  0  0
  -16.6205  -38.7441   -7.6458 C   0  0  0  0  0  0  0  0  0  0  0  0
  -15.8361  -40.0492   -7.6798 C   0  0  1  0  0  0  0  0  0  0  0  0
  -15.3075  -40.2379   -6.4051 O   0  0  0  0  0  0  0  0  0  0  0  0
  -16.8050  -41.2279   -7.9057 C   0  0  2  0  0  0  0  0  0  0  0  0
  -16.2245  -42.0753   -8.9519 C   0  0  0  0  0  0  0  0  0  0  0  0
  -16.3701  -43.5487   -8.9477 C   0  0  0  0  0  0  0  0  0  0  0  0
  -16.6938  -43.9765  -10.2622 C   0  0  0  0  0  0  0  0  0  0  0  0
  -16.9065  -45.2770  -10.6190 C   0  0  0  0  0  0  0  0  0  0  0  0
  -16.7839  -46.1735   -9.5923 C   0  0  0  0  0  0  0  0  0  0  0  0
  -16.4640  -45.8071   -8.2628 C   0  0  0  0  0  0  0  0  0  0  0  0
  -16.4192  -47.0282   -7.4177 C   0  0  0  0  0  0  0  0  0  0  0  0
  -17.1764  -48.2179   -7.9484 C   0  0  0  0  0  0  0  0  0  0  0  0
  -18.6291  -48.1024   -8.1205 C   0  0  0  0  0  0  0  0  0  0  0  0
  -19.3233  -46.9734   -7.4260 C   0  0  0  0  0  0  0  0  0  0  0  0
  -20.2068  -46.2147   -8.3256 N   0  0  0  0  0  0  0  0  0  0  0  0
  -20.0445  -44.9136   -8.8891 C   0  0  0  0  0  0  0  0  0  0  0  0
  -20.3382  -44.9853  -10.2801 C   0  0  0  0  0  0  0  0  0  0  0  0
  -20.2628  -43.9179  -11.1262 C   0  0  0  0  0  0  0  0  0  0  0  0
  -19.8775  -42.7375  -10.5462 C   0  0  0  0  0  0  0  0  0  0  0  0
  -19.5726  -42.6069   -9.1657 C   0  0  0  0  0  0  0  0  0  0  0  0
  -19.6613  -43.7119   -8.3336 C   0  0  0  0  0  0  0  0  0  0  0  0
  -19.1680  -41.2193   -8.8951 C   0  0  0  0  0  0  0  0  0  0  0  0
  -19.9263  -40.3096   -9.4630 O   0  0  0  0  0  0  0  0  0  0  0  0
  -18.1006  -40.6790   -8.1306 N   0  0  0  0  0  0  0  0  0  0  0  0
  -16.2555  -44.4884   -7.9445 C   0  0  0  0  0  0  0  0  0  0  0  0
  1  2  1  0
  2  3  1  0
  2  4  1  0
  4  5  2  0
  5  6  1  0
  6  7  2  0
  7  8  1  0
  8  9  2  0
  8 10  1  0
 10 11  1  0
 10 12  1  0
 10 13  1  0
 13 14  1  0
 14 15  1  0
 15 16  1  1
 15 17  1  0
 17 18  1  6
 18 19  1  0
 19 20  1  0
 20 21  2  0
 21 22  1  0
 22 23  2  0
 23 24  1  0
 24 25  1  0
 25 26  1  0
 26 27  1  0
 27 28  1  0
 28 29  1  0
 29 30  1  0
 30 31  2  0
 31 32  1  0
 32 33  2  0
 33 34  1  0
 33 35  1  0
 35 36  2  0
 35 37  1  0
 23 38  1  0
  9  4  1  0
 34 29  2  0
 37 17  1  0
 38 19  2  0
M  END
$$$$
