
     RDKit          3D

 38 41  0  0  0  0  0  0  0  0999 V2000
  -11.7207  -34.9313  -12.9863 C   0  0  0  0  0  0  0  0  0  0  0  0
  -10.9941  -35.9892  -12.1484 C   0  0  0  0  0  0  0  0  0  0  0  0
   -9.7878  -36.4194  -12.9563 C   0  0  0  0  0  0  0  0  0  0  0  0
  -11.8824  -37.1611  -11.9086 C   0  0  0  0  0  0  0  0  0  0  0  0
  -12.4944  -37.7307  -13.0063 C   0  0  0  0  0  0  0  0  0  0  0  0
  -13.3091  -38.8002  -12.8015 C   0  0  0  0  0  0  0  0  0  0  0  0
  -13.5212  -39.3101  -11.5100 C   0  0  0  0  0  0  0  0  0  0  0  0
  -12.9164  -38.7486  -10.4203 C   0  0  0  0  0  0  0  0  0  0  0  0
  -12.0825  -37.6535  -10.6322 C   0  0  0  0  0  0  0  0  0  0  0  0
  -13.1599  -39.3186   -9.0828 C   0  0  0  0  0  0  0  0  0  0  0  0
  -13.3947  -40.8020   -9.2165 C   0  0  0  0  0  0  0  0  0  0  0  0
  -11.8575  -39.1695   -8.3094 C   0  0  0  0  0  0  0  0  0  0  0  0
  -14.2641  -38.7224   -8.4090 N   0  0  0  0  0  0  0  0  0  0  0  0
  -15.4120  -39.5902   -8.4555 C   0  0  0  0  0  0  0  0  0  0  0  0
  -16.5874  -39.0005   -7.6870 C   0  0  1  0  0  0  0  0  0  0  0  0
  -16.8664  -37.7623   -8.2604 O   0  0  0  0  0  0  0  0  0  0  0  0
  -17.8446  -39.8613   -7.9264 C   0  0  2  0  0  0  0  0  0  0  0  0
  -18.6236  -39.8504   -6.6844 C   0  0  0  0  0  0  0  0  0  0  0  0
  -20.1041  -39.8699   -6.6790 C   0  0  0  0  0  0  0  0  0  0  0  0
  -20.5422  -40.7978   -5.6979 C   0  0  0  0  0  0  0  0  0  0  0  0
  -21.8518  -41.0736   -5.4284 C   0  0  0  0  0  0  0  0  0  0  0  0
  -22.7468  -40.3743   -6.1918 C   0  0  0  0  0  0  0  0  0  0  0  0
  -22.3704  -39.4376   -7.1842 C   0  0  0  0  0  0  0  0  0  0  0  0
  -23.5933  -38.8761   -7.8140 C   0  0  0  0  0  0  0  0  0  0  0  0
  -24.8388  -39.7139   -7.6830 C   0  0  0  0  0  0  0  0  0  0  0  0
  -24.8509  -41.0491   -8.2916 C   0  0  0  0  0  0  0  0  0  0  0  0
  -23.7971  -41.3589   -9.3076 C   0  0  0  0  0  0  0  0  0  0  0  0
  -23.1087  -42.6312   -9.0375 N   0  0  0  0  0  0  0  0  0  0  0  0
  -21.7912  -42.8756   -8.5462 C   0  0  0  0  0  0  0  0  0  0  0  0
  -21.8710  -43.8424   -7.5045 C   0  0  0  0  0  0  0  0  0  0  0  0
  -20.7906  -44.2912   -6.8033 C   0  0  0  0  0  0  0  0  0  0  0  0
  -19.5880  -43.7441   -7.1676 C   0  0  0  0  0  0  0  0  0  0  0  0
  -19.4483  -42.7774   -8.1979 C   0  0  0  0  0  0  0  0  0  0  0  0
  -20.5674  -42.3445   -8.8920 C   0  0  0  0  0  0  0  0  0  0  0  0
  -18.0338  -42.3887   -8.2997 C   0  0  0  0  0  0  0  0  0  0  0  0
  -17.1880  -43.3927   -8.2571 O   0  0  0  0  0  0  0  0  0  0  0  0
  -17.4104  -41.1202   -8.4336 N   0  0  0  0  0  0  0  0  0  0  0  0
  -21.0425  -39.1865   -7.4240 C   0  0  0  0  0  0  0  0  0  0  0  0
  1  2  1  0
  2  3  1  0
  2  4  1  0
  4  5  2  0
  5  6  1  0
  6  7  2  0
  7  8  1  0
  8  9  2  0
  8 10  1  0
 10 11  1  0
 10 12  1  0
 10 13  1  0
 13 14  1  0
 14 15  1  0
 15 16  1  6
 15 17  1  0
 17 18  1  1
 18 19  1  0
 19 20  1  0
 20 21  2  0
 21 22  1  0
 22 23  2  0
 23 24  1  0
 24 25  1  0
 25 26  1  0
 26 27  1  0
 27 28  1  0
 28 29  1  0
 29 30  1  0
 30 31  2  0
 31 32  1  0
 32 33  2  0
 33 34  1  0
 33 35  1  0
 35 36  2  0
 35 37  1  0
 23 38  1  0
  9  4  1  0
 34 29  2  0
 37 17  1  0
 38 19  2  0
M  END
$$$$
