
     RDKit          3D

 38 41  0  0  0  0  0  0  0  0999 V2000
  -15.2594  -34.7221  -12.8950 C   0  0  0  0  0  0  0  0  0  0  0  0
  -16.5229  -35.5461  -12.6231 C   0  0  0  0  0  0  0  0  0  0  0  0
  -17.3649  -34.7325  -11.6629 C   0  0  0  0  0  0  0  0  0  0  0  0
  -16.1669  -36.8508  -11.9981 C   0  0  0  0  0  0  0  0  0  0  0  0
  -16.9493  -37.9425  -12.3147 C   0  0  0  0  0  0  0  0  0  0  0  0
  -16.6364  -39.1394  -11.7499 C   0  0  0  0  0  0  0  0  0  0  0  0
  -15.5484  -39.2608  -10.8700 C   0  0  0  0  0  0  0  0  0  0  0  0
  -14.7710  -38.1817  -10.5543 C   0  0  0  0  0  0  0  0  0  0  0  0
  -15.0930  -36.9569  -11.1338 C   0  0  0  0  0  0  0  0  0  0  0  0
  -13.6338  -38.3532   -9.6320 C   0  0  0  0  0  0  0  0  0  0  0  0
  -12.3908  -38.6449  -10.4341 C   0  0  0  0  0  0  0  0  0  0  0  0
  -13.4020  -36.9974   -8.9801 C   0  0  0  0  0  0  0  0  0  0  0  0
  -13.8354  -39.3893   -8.6759 N   0  0  0  0  0  0  0  0  0  0  0  0
  -14.6016  -38.9025   -7.5582 C   0  0  0  0  0  0  0  0  0  0  0  0
  -15.3503  -40.0316   -6.8624 C   0  0  1  0  0  0  0  0  0  0  0  0
  -15.1448  -39.8717   -5.4942 O   0  0  0  0  0  0  0  0  0  0  0  0
  -16.8674  -39.8544   -7.0775 C   0  0  2  0  0  0  0  0  0  0  0  0
  -17.4241  -41.1790   -7.3696 C   0  0  0  0  0  0  0  0  0  0  0  0
  -18.7732  -41.5874   -6.9165 C   0  0  0  0  0  0  0  0  0  0  0  0
  -19.4327  -42.2438   -7.9888 C   0  0  0  0  0  0  0  0  0  0  0  0
  -20.7002  -42.7464   -7.9220 C   0  0  0  0  0  0  0  0  0  0  0  0
  -21.3165  -42.5704   -6.7129 C   0  0  0  0  0  0  0  0  0  0  0  0
  -20.7107  -41.9242   -5.6085 C   0  0  0  0  0  0  0  0  0  0  0  0
  -21.6646  -41.9078   -4.4696 C   0  0  0  0  0  0  0  0  0  0  0  0
  -23.1183  -42.0651   -4.8330 C   0  0  0  0  0  0  0  0  0  0  0  0
  -23.7425  -41.0415   -5.6792 C   0  0  0  0  0  0  0  0  0  0  0  0
  -23.0317  -39.7329   -5.8252 C   0  0  0  0  0  0  0  0  0  0  0  0
  -22.8930  -39.3193   -7.2305 N   0  0  0  0  0  0  0  0  0  0  0  0
  -21.7408  -39.3017   -8.0725 C   0  0  0  0  0  0  0  0  0  0  0  0
  -22.0842  -39.8984   -9.3185 C   0  0  0  0  0  0  0  0  0  0  0  0
  -21.2054  -40.0589  -10.3493 C   0  0  0  0  0  0  0  0  0  0  0  0
  -19.9357  -39.6003  -10.1126 C   0  0  0  0  0  0  0  0  0  0  0  0
  -19.5368  -38.9971   -8.8909 C   0  0  0  0  0  0  0  0  0  0  0  0
  -20.4562  -38.8479   -7.8644 C   0  0  0  0  0  0  0  0  0  0  0  0
  -18.1087  -38.6555   -8.9707 C   0  0  0  0  0  0  0  0  0  0  0  0
  -17.7449  -38.0934  -10.1008 O   0  0  0  0  0  0  0  0  0  0  0  0
  -17.0441  -38.8250   -8.0468 N   0  0  0  0  0  0  0  0  0  0  0  0
  -19.4332  -41.4340   -5.7150 C   0  0  0  0  0  0  0  0  0  0  0  0
  1  2  1  0
  2  3  1  0
  2  4  1  0
  4  5  2  0
  5  6  1  0
  6  7  2  0
  7  8  1  0
  8  9  2  0
  8 10  1  0
 10 11  1  0
 10 12  1  0
 10 13  1  0
 13 14  1  0
 14 15  1  0
 15 16  1  1
 15 17  1  0
 17 18  1  6
 18 19  1  0
 19 20  1  0
 20 21  2  0
 21 22  1  0
 22 23  2  0
 23 24  1  0
 24 25  1  0
 25 26  1  0
 26 27  1  0
 27 28  1  0
 28 29  1  0
 29 30  1  0
 30 31  2  0
 31 32  1  0
 32 33  2  0
 33 34  1  0
 33 35  1  0
 35 36  2  0
 35 37  1  0
 23 38  1  0
  9  4  1  0
 34 29  2  0
 37 17  1  0
 38 19  2  0
M  END
$$$$
