
     RDKit          3D

 38 41  0  0  0  0  0  0  0  0999 V2000
  -17.4567  -43.2852  -10.2650 C   0  0  0  0  0  0  0  0  0  0  0  0
  -16.1479  -43.6938  -10.9502 C   0  0  0  0  0  0  0  0  0  0  0  0
  -15.4329  -44.6191   -9.9881 C   0  0  0  0  0  0  0  0  0  0  0  0
  -15.3044  -42.4945  -11.2149 C   0  0  0  0  0  0  0  0  0  0  0  0
  -14.8366  -42.3169  -12.5008 C   0  0  0  0  0  0  0  0  0  0  0  0
  -14.0641  -41.2270  -12.7560 C   0  0  0  0  0  0  0  0  0  0  0  0
  -13.7517  -40.3090  -11.7399 C   0  0  0  0  0  0  0  0  0  0  0  0
  -14.2136  -40.4815  -10.4650 C   0  0  0  0  0  0  0  0  0  0  0  0
  -15.0045  -41.5982  -10.2058 C   0  0  0  0  0  0  0  0  0  0  0  0
  -13.8686  -39.4908   -9.4293 C   0  0  0  0  0  0  0  0  0  0  0  0
  -13.3792  -40.2150   -8.2006 C   0  0  0  0  0  0  0  0  0  0  0  0
  -12.6725  -38.7137   -9.9605 C   0  0  0  0  0  0  0  0  0  0  0  0
  -14.9565  -38.6416   -9.0776 N   0  0  0  0  0  0  0  0  0  0  0  0
  -14.9889  -38.4260   -7.6543 C   0  0  0  0  0  0  0  0  0  0  0  0
  -15.8449  -39.4718   -6.9521 C   0  0  1  0  0  0  0  0  0  0  0  0
  -15.9241  -39.0981   -5.6127 O   0  0  0  0  0  0  0  0  0  0  0  0
  -17.2893  -39.4014   -7.4886 C   0  0  2  0  0  0  0  0  0  0  0  0
  -17.8950  -40.7210   -7.2852 C   0  0  0  0  0  0  0  0  0  0  0  0
  -19.3272  -40.8909   -6.9501 C   0  0  0  0  0  0  0  0  0  0  0  0
  -19.8565  -41.9442   -7.7412 C   0  0  0  0  0  0  0  0  0  0  0  0
  -21.1541  -42.3659   -7.6946 C   0  0  0  0  0  0  0  0  0  0  0  0
  -21.9398  -41.6840   -6.8055 C   0  0  0  0  0  0  0  0  0  0  0  0
  -21.4692  -40.6260   -5.9911 C   0  0  0  0  0  0  0  0  0  0  0  0
  -22.5885  -40.1175   -5.1569 C   0  0  0  0  0  0  0  0  0  0  0  0
  -23.9733  -40.4129   -5.6719 C   0  0  0  0  0  0  0  0  0  0  0  0
  -24.3715  -39.8532   -6.9686 C   0  0  0  0  0  0  0  0  0  0  0  0
  -23.5455  -38.7374   -7.5267 C   0  0  0  0  0  0  0  0  0  0  0  0
  -23.1518  -38.9709   -8.9252 N   0  0  0  0  0  0  0  0  0  0  0  0
  -21.8821  -39.3210   -9.4749 C   0  0  0  0  0  0  0  0  0  0  0  0
  -22.0680  -40.3961  -10.3892 C   0  0  0  0  0  0  0  0  0  0  0  0
  -21.0512  -40.9877  -11.0797 C   0  0  0  0  0  0  0  0  0  0  0  0
  -19.8035  -40.4748  -10.8379 C   0  0  0  0  0  0  0  0  0  0  0  0
  -19.5586  -39.4043   -9.9380 C   0  0  0  0  0  0  0  0  0  0  0  0
  -20.6155  -38.8247   -9.2537 C   0  0  0  0  0  0  0  0  0  0  0  0
  -18.1137  -39.1339   -9.8993 C   0  0  0  0  0  0  0  0  0  0  0  0
  -17.5308  -39.1153  -11.0762 O   0  0  0  0  0  0  0  0  0  0  0  0
  -17.2271  -38.8905   -8.8173 N   0  0  0  0  0  0  0  0  0  0  0  0
  -20.1564  -40.2326   -6.0660 C   0  0  0  0  0  0  0  0  0  0  0  0
  1  2  1  0
  2  3  1  0
  2  4  1  0
  4  5  2  0
  5  6  1  0
  6  7  2  0
  7  8  1  0
  8  9  2  0
  8 10  1  0
 10 11  1  0
 10 12  1  0
 10 13  1  0
 13 14  1  0
 14 15  1  0
 15 16  1  1
 15 17  1  0
 17 18  1  6
 18 19  1  0
 19 20  1  0
 20 21  2  0
 21 22  1  0
 22 23  2  0
 23 24  1  0
 24 25  1  0
 25 26  1  0
 26 27  1  0
 27 28  1  0
 28 29  1  0
 29 30  1  0
 30 31  2  0
 31 32  1  0
 32 33  2  0
 33 34  1  0
 33 35  1  0
 35 36  2  0
 35 37  1  0
 23 38  1  0
  9  4  1  0
 34 29  2  0
 37 17  1  0
 38 19  2  0
M  END
$$$$
