
     RDKit          3D

 38 41  0  0  0  0  0  0  0  0999 V2000
  -10.2848  -40.5530  -10.1523 C   0  0  0  0  0  0  0  0  0  0  0  0
  -11.0893  -39.8417   -9.0587 C   0  0  0  0  0  0  0  0  0  0  0  0
  -12.0044  -40.8859   -8.4542 C   0  0  0  0  0  0  0  0  0  0  0  0
  -11.9024  -38.7401   -9.6460 C   0  0  0  0  0  0  0  0  0  0  0  0
  -11.2939  -37.5109   -9.7970 C   0  0  0  0  0  0  0  0  0  0  0  0
  -12.0252  -36.4960  -10.3305 C   0  0  0  0  0  0  0  0  0  0  0  0
  -13.3612  -36.6934  -10.7167 C   0  0  0  0  0  0  0  0  0  0  0  0
  -13.9671  -37.9097  -10.5689 C   0  0  0  0  0  0  0  0  0  0  0  0
  -13.2165  -38.9478  -10.0224 C   0  0  0  0  0  0  0  0  0  0  0  0
  -15.3689  -38.0770  -10.9935 C   0  0  0  0  0  0  0  0  0  0  0  0
  -15.9130  -36.7398  -11.4288 C   0  0  0  0  0  0  0  0  0  0  0  0
  -15.3376  -38.9429  -12.2449 C   0  0  0  0  0  0  0  0  0  0  0  0
  -16.2044  -38.6208   -9.9763 N   0  0  0  0  0  0  0  0  0  0  0  0
  -15.4317  -38.9342   -8.8025 C   0  0  0  0  0  0  0  0  0  0  0  0
  -16.3022  -38.9589   -7.5530 C   0  0  1  0  0  0  0  0  0  0  0  0
  -16.6780  -37.6429   -7.2946 O   0  0  0  0  0  0  0  0  0  0  0  0
  -17.6136  -39.7136   -7.8525 C   0  0  2  0  0  0  0  0  0  0  0  0
  -18.3148  -39.8924   -6.5773 C   0  0  0  0  0  0  0  0  0  0  0  0
  -19.7914  -39.8544   -6.4745 C   0  0  0  0  0  0  0  0  0  0  0  0
  -20.2161  -40.9236   -5.6426 C   0  0  0  0  0  0  0  0  0  0  0  0
  -21.5194  -41.1912   -5.3367 C   0  0  0  0  0  0  0  0  0  0  0  0
  -22.4221  -40.3330   -5.9036 C   0  0  0  0  0  0  0  0  0  0  0  0
  -22.0592  -39.2507   -6.7408 C   0  0  0  0  0  0  0  0  0  0  0  0
  -23.2878  -38.5390   -7.1782 C   0  0  0  0  0  0  0  0  0  0  0  0
  -24.5640  -39.3371   -7.1106 C   0  0  0  0  0  0  0  0  0  0  0  0
  -24.6803  -40.5418   -7.9405 C   0  0  0  0  0  0  0  0  0  0  0  0
  -23.7067  -40.7077   -9.0644 C   0  0  0  0  0  0  0  0  0  0  0  0
  -23.0686  -42.0338   -9.0678 N   0  0  0  0  0  0  0  0  0  0  0  0
  -21.7380  -42.4129   -8.7177 C   0  0  0  0  0  0  0  0  0  0  0  0
  -21.8038  -43.5452   -7.8575 C   0  0  0  0  0  0  0  0  0  0  0  0
  -20.7072  -44.1533   -7.3206 C   0  0  0  0  0  0  0  0  0  0  0  0
  -19.5026  -43.5979   -7.6651 C   0  0  0  0  0  0  0  0  0  0  0  0
  -19.3764  -42.4701   -8.5182 C   0  0  0  0  0  0  0  0  0  0  0  0
  -20.5119  -41.8774   -9.0482 C   0  0  0  0  0  0  0  0  0  0  0  0
  -17.9528  -42.1253   -8.6469 C   0  0  0  0  0  0  0  0  0  0  0  0
  -17.1579  -43.1534   -8.8378 O   0  0  0  0  0  0  0  0  0  0  0  0
  -17.2750  -40.8787   -8.5998 N   0  0  0  0  0  0  0  0  0  0  0  0
  -20.7372  -39.0134   -7.0231 C   0  0  0  0  0  0  0  0  0  0  0  0
  1  2  1  0
  2  3  1  0
  2  4  1  0
  4  5  2  0
  5  6  1  0
  6  7  2  0
  7  8  1  0
  8  9  2  0
  8 10  1  0
 10 11  1  0
 10 12  1  0
 10 13  1  0
 13 14  1  0
 14 15  1  0
 15 16  1  6
 15 17  1  0
 17 18  1  1
 18 19  1  0
 19 20  1  0
 20 21  2  0
 21 22  1  0
 22 23  2  0
 23 24  1  0
 24 25  1  0
 25 26  1  0
 26 27  1  0
 27 28  1  0
 28 29  1  0
 29 30  1  0
 30 31  2  0
 31 32  1  0
 32 33  2  0
 33 34  1  0
 33 35  1  0
 35 36  2  0
 35 37  1  0
 23 38  1  0
  9  4  1  0
 34 29  2  0
 37 17  1  0
 38 19  2  0
M  END
$$$$
