
     RDKit          3D

 38 41  0  0  0  0  0  0  0  0999 V2000
  -13.3487  -33.3630  -13.7133 C   0  0  0  0  0  0  0  0  0  0  0  0
  -13.2402  -33.8092  -12.2510 C   0  0  0  0  0  0  0  0  0  0  0  0
  -11.7906  -34.1845  -12.0254 C   0  0  0  0  0  0  0  0  0  0  0  0
  -14.1103  -34.9931  -12.0038 C   0  0  0  0  0  0  0  0  0  0  0  0
  -15.3713  -34.9840  -12.5640 C   0  0  0  0  0  0  0  0  0  0  0  0
  -16.1766  -36.0578  -12.3450 C   0  0  0  0  0  0  0  0  0  0  0  0
  -15.7372  -37.1446  -11.5711 C   0  0  0  0  0  0  0  0  0  0  0  0
  -14.4887  -37.1571  -11.0149 C   0  0  0  0  0  0  0  0  0  0  0  0
  -13.6656  -36.0565  -11.2404 C   0  0  0  0  0  0  0  0  0  0  0  0
  -14.0636  -38.3204  -10.2153 C   0  0  0  0  0  0  0  0  0  0  0  0
  -13.1247  -39.1655  -11.0385 C   0  0  0  0  0  0  0  0  0  0  0  0
  -13.2315  -37.7697   -9.0658 C   0  0  0  0  0  0  0  0  0  0  0  0
  -15.1514  -39.1216   -9.7644 N   0  0  0  0  0  0  0  0  0  0  0  0
  -15.2500  -39.0770   -8.3286 C   0  0  0  0  0  0  0  0  0  0  0  0
  -15.5332  -40.4557   -7.7468 C   0  0  1  0  0  0  0  0  0  0  0  0
  -14.7746  -40.5689   -6.5843 O   0  0  0  0  0  0  0  0  0  0  0  0
  -17.0048  -40.5310   -7.2907 C   0  0  2  0  0  0  0  0  0  0  0  0
  -17.7704  -41.1344   -8.3859 C   0  0  0  0  0  0  0  0  0  0  0  0
  -18.9253  -42.0290   -8.1446 C   0  0  0  0  0  0  0  0  0  0  0  0
  -19.9752  -41.6630   -9.0274 C   0  0  0  0  0  0  0  0  0  0  0  0
  -21.1939  -42.2764   -9.0717 C   0  0  0  0  0  0  0  0  0  0  0  0
  -21.3445  -43.3027   -8.1790 C   0  0  0  0  0  0  0  0  0  0  0  0
  -20.3351  -43.7125   -7.2749 C   0  0  0  0  0  0  0  0  0  0  0  0
  -20.8427  -44.8445   -6.4575 C   0  0  0  0  0  0  0  0  0  0  0  0
  -22.3420  -44.9654   -6.3690 C   0  0  0  0  0  0  0  0  0  0  0  0
  -23.0967  -43.8696   -5.7500 C   0  0  0  0  0  0  0  0  0  0  0  0
  -22.3360  -42.8845   -4.9197 C   0  0  0  0  0  0  0  0  0  0  0  0
  -22.6327  -41.4900   -5.2845 N   0  0  0  0  0  0  0  0  0  0  0  0
  -21.8360  -40.5354   -5.9850 C   0  0  0  0  0  0  0  0  0  0  0  0
  -22.6421  -39.9243   -6.9867 C   0  0  0  0  0  0  0  0  0  0  0  0
  -22.1843  -38.9747   -7.8523 C   0  0  0  0  0  0  0  0  0  0  0  0
  -20.8664  -38.6306   -7.7000 C   0  0  0  0  0  0  0  0  0  0  0  0
  -20.0158  -39.2058   -6.7195 C   0  0  0  0  0  0  0  0  0  0  0  0
  -20.5143  -40.1673   -5.8544 C   0  0  0  0  0  0  0  0  0  0  0  0
  -18.6692  -38.6320   -6.8594 C   0  0  0  0  0  0  0  0  0  0  0  0
  -18.6464  -37.3297   -7.0295 O   0  0  0  0  0  0  0  0  0  0  0  0
  -17.3818  -39.2304   -6.8471 N   0  0  0  0  0  0  0  0  0  0  0  0
  -19.1218  -43.0711   -7.2626 C   0  0  0  0  0  0  0  0  0  0  0  0
  1  2  1  0
  2  3  1  0
  2  4  1  0
  4  5  2  0
  5  6  1  0
  6  7  2  0
  7  8  1  0
  8  9  2  0
  8 10  1  0
 10 11  1  0
 10 12  1  0
 10 13  1  0
 13 14  1  0
 14 15  1  0
 15 16  1  1
 15 17  1  0
 17 18  1  6
 18 19  1  0
 19 20  1  0
 20 21  2  0
 21 22  1  0
 22 23  2  0
 23 24  1  0
 24 25  1  0
 25 26  1  0
 26 27  1  0
 27 28  1  0
 28 29  1  0
 29 30  1  0
 30 31  2  0
 31 32  1  0
 32 33  2  0
 33 34  1  0
 33 35  1  0
 35 36  2  0
 35 37  1  0
 23 38  1  0
  9  4  1  0
 34 29  2  0
 37 17  1  0
 38 19  2  0
M  END
$$$$
