
     RDKit          3D

 38 41  0  0  0  0  0  0  0  0999 V2000
  -10.9939  -35.9043  -11.8255 C   0  0  0  0  0  0  0  0  0  0  0  0
  -12.3880  -35.6857  -12.4239 C   0  0  0  0  0  0  0  0  0  0  0  0
  -13.0461  -34.6064  -11.5902 C   0  0  0  0  0  0  0  0  0  0  0  0
  -13.1887  -36.9396  -12.3456 C   0  0  0  0  0  0  0  0  0  0  0  0
  -13.9629  -37.2694  -13.4392 C   0  0  0  0  0  0  0  0  0  0  0  0
  -14.7002  -38.4107  -13.3805 C   0  0  0  0  0  0  0  0  0  0  0  0
  -14.6741  -39.2299  -12.2399 C   0  0  0  0  0  0  0  0  0  0  0  0
  -13.9081  -38.9066  -11.1549 C   0  0  0  0  0  0  0  0  0  0  0  0
  -13.1538  -37.7375  -11.2170 C   0  0  0  0  0  0  0  0  0  0  0  0
  -13.9033  -39.7973   -9.9803 C   0  0  0  0  0  0  0  0  0  0  0  0
  -13.4293  -41.1648  -10.4029 C   0  0  0  0  0  0  0  0  0  0  0  0
  -12.8368  -39.2582   -9.0375 C   0  0  0  0  0  0  0  0  0  0  0  0
  -15.1772  -39.9095   -9.3534 N   0  0  0  0  0  0  0  0  0  0  0  0
  -15.5561  -38.6571   -8.7525 C   0  0  0  0  0  0  0  0  0  0  0  0
  -16.3561  -38.8721   -7.4745 C   0  0  1  0  0  0  0  0  0  0  0  0
  -16.8600  -37.6296   -7.0976 O   0  0  0  0  0  0  0  0  0  0  0  0
  -17.5905  -39.7454   -7.7790 C   0  0  2  0  0  0  0  0  0  0  0  0
  -18.3656  -39.8526   -6.5391 C   0  0  0  0  0  0  0  0  0  0  0  0
  -19.8451  -39.9124   -6.5338 C   0  0  0  0  0  0  0  0  0  0  0  0
  -20.2550  -40.9256   -5.6277 C   0  0  0  0  0  0  0  0  0  0  0  0
  -21.5558  -41.2570   -5.3793 C   0  0  0  0  0  0  0  0  0  0  0  0
  -22.4717  -40.5247   -6.0847 C   0  0  0  0  0  0  0  0  0  0  0  0
  -22.1237  -39.5035   -7.0013 C   0  0  0  0  0  0  0  0  0  0  0  0
  -23.3632  -38.9280   -7.5841 C   0  0  0  0  0  0  0  0  0  0  0  0
  -24.5853  -39.8068   -7.5176 C   0  0  0  0  0  0  0  0  0  0  0  0
  -24.5634  -41.0903   -8.2287 C   0  0  0  0  0  0  0  0  0  0  0  0
  -23.5049  -41.2912   -9.2669 C   0  0  0  0  0  0  0  0  0  0  0  0
  -22.7817  -42.5615   -9.0977 N   0  0  0  0  0  0  0  0  0  0  0  0
  -21.4566  -42.8077   -8.6284 C   0  0  0  0  0  0  0  0  0  0  0  0
  -21.5070  -43.8548   -7.6653 C   0  0  0  0  0  0  0  0  0  0  0  0
  -20.4127  -44.3276   -7.0024 C   0  0  0  0  0  0  0  0  0  0  0  0
  -19.2264  -43.7213   -7.3241 C   0  0  0  0  0  0  0  0  0  0  0  0
  -19.1161  -42.6737   -8.2759 C   0  0  0  0  0  0  0  0  0  0  0  0
  -20.2485  -42.2184   -8.9329 C   0  0  0  0  0  0  0  0  0  0  0  0
  -17.7128  -42.2401   -8.3485 C   0  0  0  0  0  0  0  0  0  0  0  0
  -16.8402  -43.2211   -8.3853 O   0  0  0  0  0  0  0  0  0  0  0  0
  -17.1242  -40.9486   -8.3834 N   0  0  0  0  0  0  0  0  0  0  0  0
  -20.8039  -39.1986   -7.2221 C   0  0  0  0  0  0  0  0  0  0  0  0
  1  2  1  0
  2  3  1  0
  2  4  1  0
  4  5  2  0
  5  6  1  0
  6  7  2  0
  7  8  1  0
  8  9  2  0
  8 10  1  0
 10 11  1  0
 10 12  1  0
 10 13  1  0
 13 14  1  0
 14 15  1  0
 15 16  1  6
 15 17  1  0
 17 18  1  1
 18 19  1  0
 19 20  1  0
 20 21  2  0
 21 22  1  0
 22 23  2  0
 23 24  1  0
 24 25  1  0
 25 26  1  0
 26 27  1  0
 27 28  1  0
 28 29  1  0
 29 30  1  0
 30 31  2  0
 31 32  1  0
 32 33  2  0
 33 34  1  0
 33 35  1  0
 35 36  2  0
 35 37  1  0
 23 38  1  0
  9  4  1  0
 34 29  2  0
 37 17  1  0
 38 19  2  0
M  END
$$$$
