
     RDKit          3D

 38 41  0  0  0  0  0  0  0  0999 V2000
  -20.9180  -40.8329  -11.4558 C   0  0  0  0  0  0  0  0  0  0  0  0
  -21.4637  -39.4499  -11.0834 C   0  0  0  0  0  0  0  0  0  0  0  0
  -20.8979  -38.4799  -12.0994 C   0  0  0  0  0  0  0  0  0  0  0  0
  -21.0135  -39.0652   -9.7163 C   0  0  0  0  0  0  0  0  0  0  0  0
  -21.8752  -39.3170   -8.6684 C   0  0  0  0  0  0  0  0  0  0  0  0
  -21.4775  -38.9695   -7.4152 C   0  0  0  0  0  0  0  0  0  0  0  0
  -20.2258  -38.3717   -7.1941 C   0  0  0  0  0  0  0  0  0  0  0  0
  -19.3695  -38.1211   -8.2296 C   0  0  0  0  0  0  0  0  0  0  0  0
  -19.7787  -38.4778   -9.5122 C   0  0  0  0  0  0  0  0  0  0  0  0
  -18.0619  -37.4988   -7.9539 C   0  0  0  0  0  0  0  0  0  0  0  0
  -17.8318  -36.3820   -8.9406 C   0  0  0  0  0  0  0  0  0  0  0  0
  -18.1825  -36.8334   -6.5902 C   0  0  0  0  0  0  0  0  0  0  0  0
  -16.9761  -38.4183   -8.0165 N   0  0  0  0  0  0  0  0  0  0  0  0
  -16.7875  -39.0640   -6.7434 C   0  0  0  0  0  0  0  0  0  0  0  0
  -15.9515  -40.3298   -6.8794 C   0  0  1  0  0  0  0  0  0  0  0  0
  -15.4565  -40.6269   -5.6120 O   0  0  0  0  0  0  0  0  0  0  0  0
  -16.8653  -41.5139   -7.2561 C   0  0  2  0  0  0  0  0  0  0  0  0
  -16.7770  -41.6879   -8.7092 C   0  0  0  0  0  0  0  0  0  0  0  0
  -16.8394  -43.0206   -9.3514 C   0  0  0  0  0  0  0  0  0  0  0  0
  -17.6975  -42.9409  -10.4796 C   0  0  0  0  0  0  0  0  0  0  0  0
  -17.9890  -43.9910  -11.3019 C   0  0  0  0  0  0  0  0  0  0  0  0
  -17.3801  -45.1669  -10.9566 C   0  0  0  0  0  0  0  0  0  0  0  0
  -16.5159  -45.3076   -9.8442 C   0  0  0  0  0  0  0  0  0  0  0  0
  -16.0433  -46.7141   -9.7685 C   0  0  0  0  0  0  0  0  0  0  0  0
  -16.9039  -47.7310  -10.4724 C   0  0  0  0  0  0  0  0  0  0  0  0
  -18.2837  -47.9199  -10.0098 C   0  0  0  0  0  0  0  0  0  0  0  0
  -18.6434  -47.3832   -8.6602 C   0  0  0  0  0  0  0  0  0  0  0  0
  -19.8690  -46.5690   -8.6845 N   0  0  0  0  0  0  0  0  0  0  0  0
  -20.0342  -45.1557   -8.5757 C   0  0  0  0  0  0  0  0  0  0  0  0
  -20.9157  -44.7244   -9.6068 C   0  0  0  0  0  0  0  0  0  0  0  0
  -21.2746  -43.4228   -9.8013 C   0  0  0  0  0  0  0  0  0  0  0  0
  -20.7236  -42.5263   -8.9232 C   0  0  0  0  0  0  0  0  0  0  0  0
  -19.8395  -42.8987   -7.8766 C   0  0  0  0  0  0  0  0  0  0  0  0
  -19.4971  -44.2310   -7.7061 C   0  0  0  0  0  0  0  0  0  0  0  0
  -19.4190  -41.6893   -7.1535 C   0  0  0  0  0  0  0  0  0  0  0  0
  -20.3911  -40.8466   -6.8890 O   0  0  0  0  0  0  0  0  0  0  0  0
  -18.1477  -41.2613   -6.6885 N   0  0  0  0  0  0  0  0  0  0  0  0
  -16.2462  -44.2269   -9.0424 C   0  0  0  0  0  0  0  0  0  0  0  0
  1  2  1  0
  2  3  1  0
  2  4  1  0
  4  5  2  0
  5  6  1  0
  6  7  2  0
  7  8  1  0
  8  9  2  0
  8 10  1  0
 10 11  1  0
 10 12  1  0
 10 13  1  0
 13 14  1  0
 14 15  1  0
 15 16  1  1
 15 17  1  0
 17 18  1  6
 18 19  1  0
 19 20  1  0
 20 21  2  0
 21 22  1  0
 22 23  2  0
 23 24  1  0
 24 25  1  0
 25 26  1  0
 26 27  1  0
 27 28  1  0
 28 29  1  0
 29 30  1  0
 30 31  2  0
 31 32  1  0
 32 33  2  0
 33 34  1  0
 33 35  1  0
 35 36  2  0
 35 37  1  0
 23 38  1  0
  9  4  1  0
 34 29  2  0
 37 17  1  0
 38 19  2  0
M  END
$$$$
