
     RDKit          3D

 38 41  0  0  0  0  0  0  0  0999 V2000
  -11.8096  -35.3818  -13.4658 C   0  0  0  0  0  0  0  0  0  0  0  0
  -11.2734  -35.8647  -12.1135 C   0  0  0  0  0  0  0  0  0  0  0  0
   -9.7657  -35.7414  -12.1833 C   0  0  0  0  0  0  0  0  0  0  0  0
  -11.6513  -37.2874  -11.8836 C   0  0  0  0  0  0  0  0  0  0  0  0
  -10.6744  -38.2436  -12.0723 C   0  0  0  0  0  0  0  0  0  0  0  0
  -11.0062  -39.5465  -11.8674 C   0  0  0  0  0  0  0  0  0  0  0  0
  -12.3055  -39.9081  -11.4749 C   0  0  0  0  0  0  0  0  0  0  0  0
  -13.2756  -38.9636  -11.2868 C   0  0  0  0  0  0  0  0  0  0  0  0
  -12.9338  -37.6300  -11.4972 C   0  0  0  0  0  0  0  0  0  0  0  0
  -14.6248  -39.3845  -10.8679 C   0  0  0  0  0  0  0  0  0  0  0  0
  -15.5993  -38.2718  -11.1605 C   0  0  0  0  0  0  0  0  0  0  0  0
  -15.0183  -40.5359  -11.7824 C   0  0  0  0  0  0  0  0  0  0  0  0
  -14.7032  -39.7335   -9.4893 N   0  0  0  0  0  0  0  0  0  0  0  0
  -15.0398  -38.5805   -8.6951 C   0  0  0  0  0  0  0  0  0  0  0  0
  -15.8744  -38.9653   -7.4806 C   0  0  1  0  0  0  0  0  0  0  0  0
  -16.3386  -37.7800   -6.9155 O   0  0  0  0  0  0  0  0  0  0  0  0
  -17.1344  -39.7269   -7.9405 C   0  0  2  0  0  0  0  0  0  0  0  0
  -17.9856  -39.9139   -6.7615 C   0  0  0  0  0  0  0  0  0  0  0  0
  -19.4639  -39.8850   -6.8406 C   0  0  0  0  0  0  0  0  0  0  0  0
  -19.9807  -40.9593   -6.0696 C   0  0  0  0  0  0  0  0  0  0  0  0
  -21.3099  -41.2356   -5.9266 C   0  0  0  0  0  0  0  0  0  0  0  0
  -22.1417  -40.3811   -6.5979 C   0  0  0  0  0  0  0  0  0  0  0  0
  -21.6856  -39.2940   -7.3818 C   0  0  0  0  0  0  0  0  0  0  0  0
  -22.8557  -38.5883   -7.9649 C   0  0  0  0  0  0  0  0  0  0  0  0
  -24.1255  -39.3942   -8.0563 C   0  0  0  0  0  0  0  0  0  0  0  0
  -24.1315  -40.5970   -8.8970 C   0  0  0  0  0  0  0  0  0  0  0  0
  -23.0263  -40.7536   -9.8933 C   0  0  0  0  0  0  0  0  0  0  0  0
  -22.3843  -42.0758   -9.8215 N   0  0  0  0  0  0  0  0  0  0  0  0
  -21.1044  -42.4481   -9.3117 C   0  0  0  0  0  0  0  0  0  0  0  0
  -21.2681  -43.5835   -8.4687 C   0  0  0  0  0  0  0  0  0  0  0  0
  -20.2419  -44.1866   -7.8027 C   0  0  0  0  0  0  0  0  0  0  0  0
  -19.0076  -43.6230   -7.9955 C   0  0  0  0  0  0  0  0  0  0  0  0
  -18.7848  -42.4918   -8.8240 C   0  0  0  0  0  0  0  0  0  0  0  0
  -19.8503  -41.9043   -9.4880 C   0  0  0  0  0  0  0  0  0  0  0  0
  -17.3583  -42.1382   -8.7762 C   0  0  0  0  0  0  0  0  0  0  0  0
  -16.5396  -43.1610   -8.8706 O   0  0  0  0  0  0  0  0  0  0  0  0
  -16.6993  -40.8877   -8.6433 N   0  0  0  0  0  0  0  0  0  0  0  0
  -20.3404  -39.0480   -7.4991 C   0  0  0  0  0  0  0  0  0  0  0  0
  1  2  1  0
  2  3  1  0
  2  4  1  0
  4  5  2  0
  5  6  1  0
  6  7  2  0
  7  8  1  0
  8  9  2  0
  8 10  1  0
 10 11  1  0
 10 12  1  0
 10 13  1  0
 13 14  1  0
 14 15  1  0
 15 16  1  6
 15 17  1  0
 17 18  1  1
 18 19  1  0
 19 20  1  0
 20 21  2  0
 21 22  1  0
 22 23  2  0
 23 24  1  0
 24 25  1  0
 25 26  1  0
 26 27  1  0
 27 28  1  0
 28 29  1  0
 29 30  1  0
 30 31  2  0
 31 32  1  0
 32 33  2  0
 33 34  1  0
 33 35  1  0
 35 36  2  0
 35 37  1  0
 23 38  1  0
  9  4  1  0
 34 29  2  0
 37 17  1  0
 38 19  2  0
M  END
$$$$
