
     RDKit          3D

 38 41  0  0  0  0  0  0  0  0999 V2000
  -11.1776  -43.2209  -13.9561 C   0  0  0  0  0  0  0  0  0  0  0  0
  -11.9892  -43.2015  -12.6560 C   0  0  0  0  0  0  0  0  0  0  0  0
  -13.0217  -44.3023  -12.7807 C   0  0  0  0  0  0  0  0  0  0  0  0
  -12.6725  -41.8880  -12.4902 C   0  0  0  0  0  0  0  0  0  0  0  0
  -13.2200  -41.3090  -13.6168 C   0  0  0  0  0  0  0  0  0  0  0  0
  -13.8453  -40.1091  -13.4800 C   0  0  0  0  0  0  0  0  0  0  0  0
  -13.9314  -39.4777  -12.2283 C   0  0  0  0  0  0  0  0  0  0  0  0
  -13.3905  -40.0484  -11.1101 C   0  0  0  0  0  0  0  0  0  0  0  0
  -12.7506  -41.2772  -11.2524 C   0  0  0  0  0  0  0  0  0  0  0  0
  -13.5089  -39.3562   -9.8140 C   0  0  0  0  0  0  0  0  0  0  0  0
  -12.3008  -39.6804   -8.9720 C   0  0  0  0  0  0  0  0  0  0  0  0
  -13.4218  -37.8665  -10.1138 C   0  0  0  0  0  0  0  0  0  0  0  0
  -14.6917  -39.6989   -9.0985 N   0  0  0  0  0  0  0  0  0  0  0  0
  -15.3923  -38.5115   -8.6833 C   0  0  0  0  0  0  0  0  0  0  0  0
  -16.1336  -38.7325   -7.3712 C   0  0  1  0  0  0  0  0  0  0  0  0
  -16.6437  -37.4968   -6.9807 O   0  0  0  0  0  0  0  0  0  0  0  0
  -17.3635  -39.6299   -7.6181 C   0  0  2  0  0  0  0  0  0  0  0  0
  -18.1166  -39.6930   -6.3618 C   0  0  0  0  0  0  0  0  0  0  0  0
  -19.5950  -39.7673   -6.3287 C   0  0  0  0  0  0  0  0  0  0  0  0
  -19.9790  -40.7459   -5.3744 C   0  0  0  0  0  0  0  0  0  0  0  0
  -21.2719  -41.0795   -5.0902 C   0  0  0  0  0  0  0  0  0  0  0  0
  -22.2071  -40.3864   -5.8096 C   0  0  0  0  0  0  0  0  0  0  0  0
  -21.8854  -39.4009   -6.7737 C   0  0  0  0  0  0  0  0  0  0  0  0
  -23.1405  -38.8624   -7.3585 C   0  0  0  0  0  0  0  0  0  0  0  0
  -24.3519  -39.7498   -7.2347 C   0  0  0  0  0  0  0  0  0  0  0  0
  -24.3282  -41.0616   -7.8922 C   0  0  0  0  0  0  0  0  0  0  0  0
  -23.2851  -41.2950   -8.9391 C   0  0  0  0  0  0  0  0  0  0  0  0
  -22.5457  -42.5500   -8.7298 N   0  0  0  0  0  0  0  0  0  0  0  0
  -21.2104  -42.7632   -8.2734 C   0  0  0  0  0  0  0  0  0  0  0  0
  -21.2336  -43.7697   -7.2669 C   0  0  0  0  0  0  0  0  0  0  0  0
  -20.1234  -44.2035   -6.6038 C   0  0  0  0  0  0  0  0  0  0  0  0
  -18.9492  -43.5995   -6.9706 C   0  0  0  0  0  0  0  0  0  0  0  0
  -18.8659  -42.5913   -7.9669 C   0  0  0  0  0  0  0  0  0  0  0  0
  -20.0139  -42.1751   -8.6227 C   0  0  0  0  0  0  0  0  0  0  0  0
  -17.4687  -42.1472   -8.0814 C   0  0  0  0  0  0  0  0  0  0  0  0
  -16.5865  -43.1202   -8.0924 O   0  0  0  0  0  0  0  0  0  0  0  0
  -16.8945  -40.8525   -8.1800 N   0  0  0  0  0  0  0  0  0  0  0  0
  -20.5727  -39.0923   -7.0295 C   0  0  0  0  0  0  0  0  0  0  0  0
  1  2  1  0
  2  3  1  0
  2  4  1  0
  4  5  2  0
  5  6  1  0
  6  7  2  0
  7  8  1  0
  8  9  2  0
  8 10  1  0
 10 11  1  0
 10 12  1  0
 10 13  1  0
 13 14  1  0
 14 15  1  0
 15 16  1  6
 15 17  1  0
 17 18  1  1
 18 19  1  0
 19 20  1  0
 20 21  2  0
 21 22  1  0
 22 23  2  0
 23 24  1  0
 24 25  1  0
 25 26  1  0
 26 27  1  0
 27 28  1  0
 28 29  1  0
 29 30  1  0
 30 31  2  0
 31 32  1  0
 32 33  2  0
 33 34  1  0
 33 35  1  0
 35 36  2  0
 35 37  1  0
 23 38  1  0
  9  4  1  0
 34 29  2  0
 37 17  1  0
 38 19  2  0
M  END
$$$$
