
     RDKit          3D

 37 39  0  0  0  0  0  0  0  0999 V2000
  -18.1549  -35.4721  -10.1016 C   0  0  0  0  0  0  0  0  0  0  0  0
  -16.7673  -35.0857  -10.5564 C   0  0  0  0  0  0  0  0  0  0  0  0
  -16.9555  -34.0762  -11.7021 C   0  0  0  0  0  0  0  0  0  0  0  0
  -16.0489  -36.2336  -11.1666 C   0  0  0  0  0  0  0  0  0  0  0  0
  -15.1812  -37.0562  -10.4621 C   0  0  0  0  0  0  0  0  0  0  0  0
  -14.5270  -38.1090  -11.0270 C   0  0  0  0  0  0  0  0  0  0  0  0
  -14.7146  -38.3957  -12.3547 C   0  0  0  0  0  0  0  0  0  0  0  0
  -15.5753  -37.5918  -13.0838 C   0  0  0  0  0  0  0  0  0  0  0  0
  -16.2306  -36.5289  -12.4983 C   0  0  0  0  0  0  0  0  0  0  0  0
  -13.6019  -38.9350  -10.2018 C   0  0  0  0  0  0  0  0  0  0  0  0
  -13.2196  -40.2114  -10.8961 C   0  0  0  0  0  0  0  0  0  0  0  0
  -12.2539  -38.1296  -10.2390 C   0  0  0  0  0  0  0  0  0  0  0  0
  -13.9298  -39.0987   -8.8899 N   0  0  0  0  0  0  0  0  0  0  0  0
  -14.6783  -40.0279   -8.2329 C   0  0  0  0  0  0  0  0  0  0  0  0
  -15.9886  -39.7919   -7.6226 C   0  0  1  0  0  0  0  0  0  0  0  0
  -16.3247  -38.5039   -7.2681 O   0  0  0  0  0  0  0  0  0  0  0  0
  -17.1913  -40.4291   -8.2946 C   0  0  2  0  0  0  0  0  0  0  0  0
  -18.3791  -40.5623   -7.4043 C   0  0  0  0  0  0  0  0  0  0  0  0
  -18.9661  -39.1678   -7.1117 C   0  0  2  0  0  0  0  0  0  0  0  0
  -18.9399  -38.8449   -5.6374 C   0  0  0  0  0  0  0  0  0  0  0  0
  -20.3777  -39.0395   -7.6728 C   0  0  0  0  0  0  0  0  0  0  0  0
  -21.4346  -38.9380   -6.6244 C   0  0  0  0  0  0  0  0  0  0  0  0
  -22.5375  -39.9286   -6.9556 C   0  0  0  0  0  0  0  0  0  0  0  0
  -22.8381  -40.8049   -5.7748 C   0  0  0  0  0  0  0  0  0  0  0  0
  -22.6220  -42.2627   -6.0342 C   0  0  0  0  0  0  0  0  0  0  0  0
  -21.9741  -42.9066   -4.8086 C   0  0  0  0  0  0  0  0  0  0  0  0
  -20.4522  -42.8244   -4.9282 C   0  0  0  0  0  0  0  0  0  0  0  0
  -20.0130  -44.1192   -5.4048 N   0  0  0  0  0  0  0  0  0  0  0  0
  -19.4046  -44.3710   -6.6556 C   0  0  0  0  0  0  0  0  0  0  0  0
  -19.7680  -45.5564   -7.3018 C   0  0  0  0  0  0  0  0  0  0  0  0
  -19.2194  -45.8673   -8.5234 C   0  0  0  0  0  0  0  0  0  0  0  0
  -18.3280  -44.9751   -9.0458 C   0  0  0  0  0  0  0  0  0  0  0  0
  -17.9452  -43.7731   -8.4131 C   0  0  0  0  0  0  0  0  0  0  0  0
  -18.5342  -43.5754   -7.2442 N   0  0  0  0  0  0  0  0  0  0  0  0
  -16.9752  -42.8982   -9.0527 C   0  0  0  0  0  0  0  0  0  0  0  0
  -16.0434  -43.5924   -9.6440 O   0  0  0  0  0  0  0  0  0  0  0  0
  -16.8619  -41.5156   -9.1476 N   0  0  0  0  0  0  0  0  0  0  0  0
  1  2  1  0
  2  3  1  0
  2  4  1  0
  4  5  2  0
  5  6  1  0
  6  7  2  0
  7  8  1  0
  8  9  2  0
  6 10  1  0
 10 11  1  0
 10 12  1  0
 10 13  1  0
 13 14  1  0
 14 15  1  0
 15 16  1  6
 15 17  1  0
 17 18  1  1
 18 19  1  0
 19 20  1  1
 19 21  1  0
 21 22  1  0
 22 23  1  0
 23 24  1  0
 24 25  1  0
 25 26  1  0
 26 27  1  0
 27 28  1  0
 28 29  1  0
 29 30  2  0
 30 31  1  0
 31 32  2  0
 32 33  1  0
 33 34  2  0
 33 35  1  0
 35 36  2  0
 35 37  1  0
  9  4  1  0
 34 29  1  0
 37 17  1  0
M  END
$$$$
