
     RDKit          3D

 37 39  0  0  0  0  0  0  0  0999 V2000
  -13.7736  -44.8421  -13.6847 C   0  0  0  0  0  0  0  0  0  0  0  0
  -13.8264  -44.2603  -12.2918 C   0  0  0  0  0  0  0  0  0  0  0  0
  -15.1861  -44.6751  -11.7034 C   0  0  0  0  0  0  0  0  0  0  0  0
  -13.8529  -42.7754  -12.3167 C   0  0  0  0  0  0  0  0  0  0  0  0
  -13.7125  -41.9876  -11.1827 C   0  0  0  0  0  0  0  0  0  0  0  0
  -13.7353  -40.6260  -11.2124 C   0  0  0  0  0  0  0  0  0  0  0  0
  -13.9031  -39.9725  -12.4062 C   0  0  0  0  0  0  0  0  0  0  0  0
  -14.0458  -40.7326  -13.5553 C   0  0  0  0  0  0  0  0  0  0  0  0
  -14.0210  -42.1107  -13.5097 C   0  0  0  0  0  0  0  0  0  0  0  0
  -13.5903  -39.8553   -9.9460 C   0  0  0  0  0  0  0  0  0  0  0  0
  -12.2241  -40.0201   -9.3428 C   0  0  0  0  0  0  0  0  0  0  0  0
  -13.5546  -38.3598  -10.4250 C   0  0  0  0  0  0  0  0  0  0  0  0
  -14.6062  -39.9585   -9.0446 N   0  0  0  0  0  0  0  0  0  0  0  0
  -15.2192  -39.0512   -8.2344 C   0  0  0  0  0  0  0  0  0  0  0  0
  -16.4025  -39.3057   -7.4098 C   0  0  1  0  0  0  0  0  0  0  0  0
  -16.9451  -38.2574   -6.6997 O   0  0  0  0  0  0  0  0  0  0  0  0
  -17.5378  -40.0854   -8.0481 C   0  0  2  0  0  0  0  0  0  0  0  0
  -18.8190  -40.0144   -7.2900 C   0  0  0  0  0  0  0  0  0  0  0  0
  -19.4037  -38.5923   -7.3930 C   0  0  2  0  0  0  0  0  0  0  0  0
  -19.5327  -37.9381   -6.0388 C   0  0  0  0  0  0  0  0  0  0  0  0
  -20.7418  -38.6024   -8.1232 C   0  0  0  0  0  0  0  0  0  0  0  0
  -21.9051  -38.2661   -7.2514 C   0  0  0  0  0  0  0  0  0  0  0  0
  -22.9864  -39.3106   -7.4680 C   0  0  0  0  0  0  0  0  0  0  0  0
  -23.4344  -39.8923   -6.1590 C   0  0  0  0  0  0  0  0  0  0  0  0
  -23.2233  -41.3697   -6.0510 C   0  0  0  0  0  0  0  0  0  0  0  0
  -22.7286  -41.7112   -4.6456 C   0  0  0  0  0  0  0  0  0  0  0  0
  -21.2013  -41.6529   -4.6094 C   0  0  0  0  0  0  0  0  0  0  0  0
  -20.7410  -43.0209   -4.7238 N   0  0  0  0  0  0  0  0  0  0  0  0
  -20.0044  -43.5519   -5.8071 C   0  0  0  0  0  0  0  0  0  0  0  0
  -20.3206  -44.8558   -6.2006 C   0  0  0  0  0  0  0  0  0  0  0  0
  -19.6479  -45.4378   -7.2488 C   0  0  0  0  0  0  0  0  0  0  0  0
  -18.6849  -44.6865   -7.8586 C   0  0  0  0  0  0  0  0  0  0  0  0
  -18.3476  -43.3695   -7.4798 C   0  0  0  0  0  0  0  0  0  0  0  0
  -19.0572  -42.9100   -6.4612 N   0  0  0  0  0  0  0  0  0  0  0  0
  -17.2941  -42.6619   -8.1902 C   0  0  0  0  0  0  0  0  0  0  0  0
  -16.3185  -43.4700   -8.4980 O   0  0  0  0  0  0  0  0  0  0  0  0
  -17.1405  -41.3380   -8.5866 N   0  0  0  0  0  0  0  0  0  0  0  0
  1  2  1  0
  2  3  1  0
  2  4  1  0
  4  5  2  0
  5  6  1  0
  6  7  2  0
  7  8  1  0
  8  9  2  0
  6 10  1  0
 10 11  1  0
 10 12  1  0
 10 13  1  0
 13 14  1  0
 14 15  1  0
 15 16  1  6
 15 17  1  0
 17 18  1  1
 18 19  1  0
 19 20  1  1
 19 21  1  0
 21 22  1  0
 22 23  1  0
 23 24  1  0
 24 25  1  0
 25 26  1  0
 26 27  1  0
 27 28  1  0
 28 29  1  0
 29 30  2  0
 30 31  1  0
 31 32  2  0
 32 33  1  0
 33 34  2  0
 33 35  1  0
 35 36  2  0
 35 37  1  0
  9  4  1  0
 34 29  1  0
 37 17  1  0
M  END
$$$$
