
     RDKit          3D

 37 39  0  0  0  0  0  0  0  0999 V2000
  -14.4707  -35.0427  -14.1054 C   0  0  0  0  0  0  0  0  0  0  0  0
  -14.9458  -35.4950  -12.7448 C   0  0  0  0  0  0  0  0  0  0  0  0
  -15.0402  -34.2269  -11.8786 C   0  0  0  0  0  0  0  0  0  0  0  0
  -13.9391  -36.3517  -12.0674 C   0  0  0  0  0  0  0  0  0  0  0  0
  -14.2200  -37.6164  -11.5698 C   0  0  0  0  0  0  0  0  0  0  0  0
  -13.2915  -38.3983  -10.9515 C   0  0  0  0  0  0  0  0  0  0  0  0
  -12.0078  -37.9413  -10.7987 C   0  0  0  0  0  0  0  0  0  0  0  0
  -11.6976  -36.6822  -11.2856 C   0  0  0  0  0  0  0  0  0  0  0  0
  -12.6484  -35.9017  -11.9091 C   0  0  0  0  0  0  0  0  0  0  0  0
  -13.6798  -39.7401  -10.4342 C   0  0  0  0  0  0  0  0  0  0  0  0
  -14.4037  -40.5524  -11.4703 C   0  0  0  0  0  0  0  0  0  0  0  0
  -12.3116  -40.5034  -10.3218 C   0  0  0  0  0  0  0  0  0  0  0  0
  -14.2578  -39.7791   -9.2014 N   0  0  0  0  0  0  0  0  0  0  0  0
  -15.1338  -38.9532   -8.5644 C   0  0  0  0  0  0  0  0  0  0  0  0
  -16.2074  -39.3790   -7.6638 C   0  0  1  0  0  0  0  0  0  0  0  0
  -16.6266  -38.5060   -6.6840 O   0  0  0  0  0  0  0  0  0  0  0  0
  -17.4353  -40.0076   -8.2972 C   0  0  2  0  0  0  0  0  0  0  0  0
  -18.6561  -39.9375   -7.4451 C   0  0  0  0  0  0  0  0  0  0  0  0
  -19.1414  -38.4776   -7.3545 C   0  0  2  0  0  0  0  0  0  0  0  0
  -19.1345  -37.9703   -5.9330 C   0  0  0  0  0  0  0  0  0  0  0  0
  -20.5212  -38.3197   -7.9830 C   0  0  0  0  0  0  0  0  0  0  0  0
  -21.5980  -38.0068   -6.9986 C   0  0  0  0  0  0  0  0  0  0  0  0
  -22.7642  -38.9483   -7.2457 C   0  0  0  0  0  0  0  0  0  0  0  0
  -23.1674  -39.6407   -5.9767 C   0  0  0  0  0  0  0  0  0  0  0  0
  -23.0576  -41.1316   -6.0412 C   0  0  0  0  0  0  0  0  0  0  0  0
  -22.4989  -41.6579   -4.7194 C   0  0  0  0  0  0  0  0  0  0  0  0
  -20.9723  -41.7036   -4.7877 C   0  0  0  0  0  0  0  0  0  0  0  0
  -20.6210  -43.0776   -5.0792 N   0  0  0  0  0  0  0  0  0  0  0  0
  -19.9967  -43.5324   -6.2631 C   0  0  0  0  0  0  0  0  0  0  0  0
  -20.4315  -44.7615   -6.7684 C   0  0  0  0  0  0  0  0  0  0  0  0
  -19.8723  -45.2666   -7.9182 C   0  0  0  0  0  0  0  0  0  0  0  0
  -18.8989  -44.5169   -8.5131 C   0  0  0  0  0  0  0  0  0  0  0  0
  -18.4430  -43.2746   -8.0225 C   0  0  0  0  0  0  0  0  0  0  0  0
  -19.0497  -42.8853   -6.9123 N   0  0  0  0  0  0  0  0  0  0  0  0
  -17.3891  -42.5629   -8.7284 C   0  0  0  0  0  0  0  0  0  0  0  0
  -16.4968  -43.3940   -9.1898 O   0  0  0  0  0  0  0  0  0  0  0  0
  -17.1658  -41.2162   -8.9925 N   0  0  0  0  0  0  0  0  0  0  0  0
  1  2  1  0
  2  3  1  0
  2  4  1  0
  4  5  2  0
  5  6  1  0
  6  7  2  0
  7  8  1  0
  8  9  2  0
  6 10  1  0
 10 11  1  0
 10 12  1  0
 10 13  1  0
 13 14  1  0
 14 15  1  0
 15 16  1  6
 15 17  1  0
 17 18  1  1
 18 19  1  0
 19 20  1  1
 19 21  1  0
 21 22  1  0
 22 23  1  0
 23 24  1  0
 24 25  1  0
 25 26  1  0
 26 27  1  0
 27 28  1  0
 28 29  1  0
 29 30  2  0
 30 31  1  0
 31 32  2  0
 32 33  1  0
 33 34  2  0
 33 35  1  0
 35 36  2  0
 35 37  1  0
  9  4  1  0
 34 29  1  0
 37 17  1  0
M  END
$$$$
