
     RDKit          3D

 37 39  0  0  0  0  0  0  0  0999 V2000
  -19.3801  -35.8357  -10.9983 C   0  0  0  0  0  0  0  0  0  0  0  0
  -18.5618  -36.2419  -12.2011 C   0  0  0  0  0  0  0  0  0  0  0  0
  -18.9871  -37.6799  -12.5452 C   0  0  0  0  0  0  0  0  0  0  0  0
  -17.1152  -36.3338  -11.8765 C   0  0  0  0  0  0  0  0  0  0  0  0
  -16.4963  -37.5044  -11.4608 C   0  0  0  0  0  0  0  0  0  0  0  0
  -15.1686  -37.5828  -11.1668 C   0  0  0  0  0  0  0  0  0  0  0  0
  -14.3784  -36.4677  -11.2778 C   0  0  0  0  0  0  0  0  0  0  0  0
  -14.9684  -35.2845  -11.6907 C   0  0  0  0  0  0  0  0  0  0  0  0
  -16.3143  -35.2201  -11.9846 C   0  0  0  0  0  0  0  0  0  0  0  0
  -14.5856  -38.8768  -10.7145 C   0  0  0  0  0  0  0  0  0  0  0  0
  -14.3155  -39.8030  -11.8663 C   0  0  0  0  0  0  0  0  0  0  0  0
  -13.1320  -38.4897  -10.2623 C   0  0  0  0  0  0  0  0  0  0  0  0
  -15.1839  -39.4812   -9.6505 N   0  0  0  0  0  0  0  0  0  0  0  0
  -15.2115  -39.1940   -8.3192 C   0  0  0  0  0  0  0  0  0  0  0  0
  -16.4050  -39.1953   -7.4705 C   0  0  1  0  0  0  0  0  0  0  0  0
  -16.7690  -38.0212   -6.8485 O   0  0  0  0  0  0  0  0  0  0  0  0
  -17.6569  -39.8416   -8.0355 C   0  0  2  0  0  0  0  0  0  0  0  0
  -18.7871  -39.9156   -7.0667 C   0  0  0  0  0  0  0  0  0  0  0  0
  -19.3350  -38.4999   -6.8010 C   0  0  2  0  0  0  0  0  0  0  0  0
  -19.2101  -38.1126   -5.3475 C   0  0  0  0  0  0  0  0  0  0  0  0
  -20.7777  -38.3733   -7.2768 C   0  0  0  0  0  0  0  0  0  0  0  0
  -21.7638  -38.2080   -6.1694 C   0  0  0  0  0  0  0  0  0  0  0  0
  -22.8992  -39.1939   -6.3850 C   0  0  0  0  0  0  0  0  0  0  0  0
  -23.1357  -40.0119   -5.1492 C   0  0  0  0  0  0  0  0  0  0  0  0
  -22.9566  -41.4831   -5.3556 C   0  0  0  0  0  0  0  0  0  0  0  0
  -22.2406  -42.0828   -4.1455 C   0  0  0  0  0  0  0  0  0  0  0  0
  -20.7285  -42.0312   -4.3647 C   0  0  0  0  0  0  0  0  0  0  0  0
  -20.3384  -43.3529   -4.8091 N   0  0  0  0  0  0  0  0  0  0  0  0
  -19.8148  -43.6698   -6.0833 C   0  0  0  0  0  0  0  0  0  0  0  0
  -20.2350  -44.8766   -6.6509 C   0  0  0  0  0  0  0  0  0  0  0  0
  -19.7699  -45.2502   -7.8895 C   0  0  0  0  0  0  0  0  0  0  0  0
  -18.9016  -44.3969   -8.5070 C   0  0  0  0  0  0  0  0  0  0  0  0
  -18.4626  -43.1746   -7.9547 C   0  0  0  0  0  0  0  0  0  0  0  0
  -18.9729  -42.9156   -6.7611 N   0  0  0  0  0  0  0  0  0  0  0  0
  -17.5236  -42.3451   -8.6934 C   0  0  0  0  0  0  0  0  0  0  0  0
  -16.6412  -43.0801   -9.3104 O   0  0  0  0  0  0  0  0  0  0  0  0
  -17.3976  -40.9701   -8.8577 N   0  0  0  0  0  0  0  0  0  0  0  0
  1  2  1  0
  2  3  1  0
  2  4  1  0
  4  5  2  0
  5  6  1  0
  6  7  2  0
  7  8  1  0
  8  9  2  0
  6 10  1  0
 10 11  1  0
 10 12  1  0
 10 13  1  0
 13 14  1  0
 14 15  1  0
 15 16  1  6
 15 17  1  0
 17 18  1  1
 18 19  1  0
 19 20  1  1
 19 21  1  0
 21 22  1  0
 22 23  1  0
 23 24  1  0
 24 25  1  0
 25 26  1  0
 26 27  1  0
 27 28  1  0
 28 29  1  0
 29 30  2  0
 30 31  1  0
 31 32  2  0
 32 33  1  0
 33 34  2  0
 33 35  1  0
 35 36  2  0
 35 37  1  0
  9  4  1  0
 34 29  1  0
 37 17  1  0
M  END
$$$$
