
     RDKit          3D

 37 39  0  0  0  0  0  0  0  0999 V2000
  -20.6235  -36.2772  -12.3064 C   0  0  0  0  0  0  0  0  0  0  0  0
  -20.6054  -37.3057  -11.2004 C   0  0  0  0  0  0  0  0  0  0  0  0
  -20.5764  -36.5171   -9.8797 C   0  0  0  0  0  0  0  0  0  0  0  0
  -19.3485  -38.0971  -11.2058 C   0  0  0  0  0  0  0  0  0  0  0  0
  -18.1546  -37.6423  -10.6636 C   0  0  0  0  0  0  0  0  0  0  0  0
  -17.0056  -38.3740  -10.6696 C   0  0  0  0  0  0  0  0  0  0  0  0
  -16.9965  -39.6249  -11.2310 C   0  0  0  0  0  0  0  0  0  0  0  0
  -18.1737  -40.1057  -11.7802 C   0  0  0  0  0  0  0  0  0  0  0  0
  -19.3294  -39.3533  -11.7672 C   0  0  0  0  0  0  0  0  0  0  0  0
  -15.7628  -37.8055  -10.0771 C   0  0  0  0  0  0  0  0  0  0  0  0
  -14.5625  -38.0555  -10.9455 C   0  0  0  0  0  0  0  0  0  0  0  0
  -15.9560  -36.2542  -10.2302 C   0  0  0  0  0  0  0  0  0  0  0  0
  -15.5459  -38.0492   -8.7546 N   0  0  0  0  0  0  0  0  0  0  0  0
  -15.5235  -39.1941   -8.0169 C   0  0  0  0  0  0  0  0  0  0  0  0
  -16.6283  -39.7074   -7.2041 C   0  0  1  0  0  0  0  0  0  0  0  0
  -17.2130  -38.8646   -6.2845 O   0  0  0  0  0  0  0  0  0  0  0  0
  -17.7307  -40.4591   -7.9279 C   0  0  2  0  0  0  0  0  0  0  0  0
  -18.9126  -40.7661   -7.0735 C   0  0  0  0  0  0  0  0  0  0  0  0
  -19.6697  -39.4636   -6.7493 C   0  0  2  0  0  0  0  0  0  0  0  0
  -19.7143  -39.1941   -5.2648 C   0  0  0  0  0  0  0  0  0  0  0  0
  -21.0740  -39.4849   -7.3418 C   0  0  0  0  0  0  0  0  0  0  0  0
  -22.1577  -39.5492   -6.3182 C   0  0  0  0  0  0  0  0  0  0  0  0
  -23.1257  -40.6520   -6.7109 C   0  0  0  0  0  0  0  0  0  0  0  0
  -23.3438  -41.6006   -5.5686 C   0  0  0  0  0  0  0  0  0  0  0  0
  -22.9479  -43.0115   -5.8714 C   0  0  0  0  0  0  0  0  0  0  0  0
  -22.2536  -43.6176   -4.6519 C   0  0  0  0  0  0  0  0  0  0  0  0
  -20.7505  -43.3494   -4.7294 C   0  0  0  0  0  0  0  0  0  0  0  0
  -20.1482  -44.5639   -5.2379 N   0  0  0  0  0  0  0  0  0  0  0  0
  -19.4871  -44.6950   -6.4805 C   0  0  0  0  0  0  0  0  0  0  0  0
  -19.6908  -45.8910   -7.1755 C   0  0  0  0  0  0  0  0  0  0  0  0
  -19.0826  -46.0890   -8.3924 C   0  0  0  0  0  0  0  0  0  0  0  0
  -18.2943  -45.0780   -8.8612 C   0  0  0  0  0  0  0  0  0  0  0  0
  -18.0730  -43.8627   -8.1786 C   0  0  0  0  0  0  0  0  0  0  0  0
  -18.7065  -43.7799   -7.0193 N   0  0  0  0  0  0  0  0  0  0  0  0
  -17.2020  -42.8551   -8.7631 C   0  0  0  0  0  0  0  0  0  0  0  0
  -16.1809  -43.4106   -9.3533 O   0  0  0  0  0  0  0  0  0  0  0  0
  -17.2543  -41.4663   -8.8084 N   0  0  0  0  0  0  0  0  0  0  0  0
  1  2  1  0
  2  3  1  0
  2  4  1  0
  4  5  2  0
  5  6  1  0
  6  7  2  0
  7  8  1  0
  8  9  2  0
  6 10  1  0
 10 11  1  0
 10 12  1  0
 10 13  1  0
 13 14  1  0
 14 15  1  0
 15 16  1  6
 15 17  1  0
 17 18  1  1
 18 19  1  0
 19 20  1  1
 19 21  1  0
 21 22  1  0
 22 23  1  0
 23 24  1  0
 24 25  1  0
 25 26  1  0
 26 27  1  0
 27 28  1  0
 28 29  1  0
 29 30  2  0
 30 31  1  0
 31 32  2  0
 32 33  1  0
 33 34  2  0
 33 35  1  0
 35 36  2  0
 35 37  1  0
  9  4  1  0
 34 29  1  0
 37 17  1  0
M  END
$$$$
