
     RDKit          3D

 37 39  0  0  0  0  0  0  0  0999 V2000
  -18.6737  -37.2613  -12.0364 C   0  0  0  0  0  0  0  0  0  0  0  0
  -17.8927  -35.9878  -12.2593 C   0  0  0  0  0  0  0  0  0  0  0  0
  -17.9271  -35.7214  -13.7743 C   0  0  0  0  0  0  0  0  0  0  0  0
  -16.4546  -36.1597  -11.9297 C   0  0  0  0  0  0  0  0  0  0  0  0
  -15.9279  -37.3208  -11.3815 C   0  0  0  0  0  0  0  0  0  0  0  0
  -14.6075  -37.4732  -11.0836 C   0  0  0  0  0  0  0  0  0  0  0  0
  -13.7307  -36.4471  -11.3260 C   0  0  0  0  0  0  0  0  0  0  0  0
  -14.2276  -35.2756  -11.8729 C   0  0  0  0  0  0  0  0  0  0  0  0
  -15.5673  -35.1356  -12.1691 C   0  0  0  0  0  0  0  0  0  0  0  0
  -14.1261  -38.7492  -10.4845 C   0  0  0  0  0  0  0  0  0  0  0  0
  -13.8999  -39.8075  -11.5267 C   0  0  0  0  0  0  0  0  0  0  0  0
  -12.6578  -38.4168  -10.0363 C   0  0  0  0  0  0  0  0  0  0  0  0
  -14.7860  -39.1963   -9.3800 N   0  0  0  0  0  0  0  0  0  0  0  0
  -15.8172  -38.6875   -8.6498 C   0  0  0  0  0  0  0  0  0  0  0  0
  -16.7142  -39.4591   -7.7868 C   0  0  1  0  0  0  0  0  0  0  0  0
  -17.1484  -38.8855   -6.6120 O   0  0  0  0  0  0  0  0  0  0  0  0
  -17.8982  -40.1397   -8.4494 C   0  0  2  0  0  0  0  0  0  0  0  0
  -19.0087  -40.4664   -7.5106 C   0  0  0  0  0  0  0  0  0  0  0  0
  -19.6948  -39.1665   -7.0475 C   0  0  2  0  0  0  0  0  0  0  0  0
  -19.6000  -38.9828   -5.5523 C   0  0  0  0  0  0  0  0  0  0  0  0
  -21.1460  -39.1183   -7.5117 C   0  0  0  0  0  0  0  0  0  0  0  0
  -22.1365  -39.2151   -6.3999 C   0  0  0  0  0  0  0  0  0  0  0  0
  -23.1680  -40.2687   -6.7649 C   0  0  0  0  0  0  0  0  0  0  0  0
  -23.3127  -41.2765   -5.6623 C   0  0  0  0  0  0  0  0  0  0  0  0
  -22.9876  -42.6768   -6.0776 C   0  0  0  0  0  0  0  0  0  0  0  0
  -22.2068  -43.3699   -4.9613 C   0  0  0  0  0  0  0  0  0  0  0  0
  -20.7090  -43.1352   -5.1585 C   0  0  0  0  0  0  0  0  0  0  0  0
  -20.1907  -44.3326   -5.7861 N   0  0  0  0  0  0  0  0  0  0  0  0
  -19.6462  -44.4076   -7.0884 C   0  0  0  0  0  0  0  0  0  0  0  0
  -19.9464  -45.5557   -7.8279 C   0  0  0  0  0  0  0  0  0  0  0  0
  -19.4542  -45.6976   -9.1036 C   0  0  0  0  0  0  0  0  0  0  0  0
  -18.6804  -44.6809   -9.5843 C   0  0  0  0  0  0  0  0  0  0  0  0
  -18.3633  -43.5134   -8.8577 C   0  0  0  0  0  0  0  0  0  0  0  0
  -18.8892  -43.4824   -7.6433 N   0  0  0  0  0  0  0  0  0  0  0  0
  -17.5176  -42.4954   -9.4610 C   0  0  0  0  0  0  0  0  0  0  0  0
  -16.5697  -43.0409  -10.1707 O   0  0  0  0  0  0  0  0  0  0  0  0
  -17.5319  -41.1055   -9.4239 N   0  0  0  0  0  0  0  0  0  0  0  0
  1  2  1  0
  2  3  1  0
  2  4  1  0
  4  5  2  0
  5  6  1  0
  6  7  2  0
  7  8  1  0
  8  9  2  0
  6 10  1  0
 10 11  1  0
 10 12  1  0
 10 13  1  0
 13 14  1  0
 14 15  1  0
 15 16  1  1
 15 17  1  0
 17 18  1  1
 18 19  1  0
 19 20  1  1
 19 21  1  0
 21 22  1  0
 22 23  1  0
 23 24  1  0
 24 25  1  0
 25 26  1  0
 26 27  1  0
 27 28  1  0
 28 29  1  0
 29 30  2  0
 30 31  1  0
 31 32  2  0
 32 33  1  0
 33 34  2  0
 33 35  1  0
 35 36  2  0
 35 37  1  0
  9  4  1  0
 34 29  1  0
 37 17  1  0
M  END
$$$$
