
     RDKit          3D

 37 39  0  0  0  0  0  0  0  0999 V2000
  -12.0494  -43.5343   -9.2178 C   0  0  0  0  0  0  0  0  0  0  0  0
  -11.1691  -42.7773  -10.1839 C   0  0  0  0  0  0  0  0  0  0  0  0
  -10.1753  -41.9771   -9.3242 C   0  0  0  0  0  0  0  0  0  0  0  0
  -11.9357  -41.7548  -10.9411 C   0  0  0  0  0  0  0  0  0  0  0  0
  -12.6261  -40.7129  -10.3379 C   0  0  0  0  0  0  0  0  0  0  0  0
  -13.3254  -39.7769  -11.0381 C   0  0  0  0  0  0  0  0  0  0  0  0
  -13.3678  -39.8401  -12.4072 C   0  0  0  0  0  0  0  0  0  0  0  0
  -12.6880  -40.8693  -13.0374 C   0  0  0  0  0  0  0  0  0  0  0  0
  -11.9843  -41.8102  -12.3152 C   0  0  0  0  0  0  0  0  0  0  0  0
  -14.0502  -38.6973  -10.3114 C   0  0  0  0  0  0  0  0  0  0  0  0
  -13.1200  -37.6139   -9.8440 C   0  0  0  0  0  0  0  0  0  0  0  0
  -14.8565  -37.9659  -11.4437 C   0  0  0  0  0  0  0  0  0  0  0  0
  -14.9545  -39.0900   -9.3714 N   0  0  0  0  0  0  0  0  0  0  0  0
  -15.7454  -38.3993   -8.5039 C   0  0  0  0  0  0  0  0  0  0  0  0
  -16.8053  -38.9741   -7.6725 C   0  0  1  0  0  0  0  0  0  0  0  0
  -17.3715  -38.1866   -6.6942 O   0  0  0  0  0  0  0  0  0  0  0  0
  -17.9186  -39.7197   -8.3858 C   0  0  2  0  0  0  0  0  0  0  0  0
  -19.1158  -39.9733   -7.5352 C   0  0  0  0  0  0  0  0  0  0  0  0
  -19.8441  -38.6441   -7.2564 C   0  0  2  0  0  0  0  0  0  0  0  0
  -19.8965  -38.3307   -5.7808 C   0  0  0  0  0  0  0  0  0  0  0  0
  -21.2428  -38.6489   -7.8626 C   0  0  0  0  0  0  0  0  0  0  0  0
  -22.3375  -38.6574   -6.8488 C   0  0  0  0  0  0  0  0  0  0  0  0
  -23.3282  -39.7475   -7.2197 C   0  0  0  0  0  0  0  0  0  0  0  0
  -23.5803  -40.6571   -6.0529 C   0  0  0  0  0  0  0  0  0  0  0  0
  -23.2159  -42.0853   -6.3109 C   0  0  0  0  0  0  0  0  0  0  0  0
  -22.5484  -42.6723   -5.0674 C   0  0  0  0  0  0  0  0  0  0  0  0
  -21.0385  -42.4426   -5.1370 C   0  0  0  0  0  0  0  0  0  0  0  0
  -20.4610  -43.6855   -5.6041 N   0  0  0  0  0  0  0  0  0  0  0  0
  -19.7914  -43.8684   -6.8355 C   0  0  0  0  0  0  0  0  0  0  0  0
  -20.0174  -45.0788   -7.4979 C   0  0  0  0  0  0  0  0  0  0  0  0
  -19.4025  -45.3266   -8.7022 C   0  0  0  0  0  0  0  0  0  0  0  0
  -18.5853  -44.3488   -9.1917 C   0  0  0  0  0  0  0  0  0  0  0  0
  -18.3411  -43.1199   -8.5421 C   0  0  0  0  0  0  0  0  0  0  0  0
  -18.9836  -42.9883   -7.3923 N   0  0  0  0  0  0  0  0  0  0  0  0
  -17.4403  -42.1509   -9.1463 C   0  0  0  0  0  0  0  0  0  0  0  0
  -16.4273  -42.7476   -9.7096 O   0  0  0  0  0  0  0  0  0  0  0  0
  -17.4583  -40.7632   -9.2320 N   0  0  0  0  0  0  0  0  0  0  0  0
  1  2  1  0
  2  3  1  0
  2  4  1  0
  4  5  2  0
  5  6  1  0
  6  7  2  0
  7  8  1  0
  8  9  2  0
  6 10  1  0
 10 11  1  0
 10 12  1  0
 10 13  1  0
 13 14  1  0
 14 15  1  0
 15 16  1  6
 15 17  1  0
 17 18  1  1
 18 19  1  0
 19 20  1  1
 19 21  1  0
 21 22  1  0
 22 23  1  0
 23 24  1  0
 24 25  1  0
 25 26  1  0
 26 27  1  0
 27 28  1  0
 28 29  1  0
 29 30  2  0
 30 31  1  0
 31 32  2  0
 32 33  1  0
 33 34  2  0
 33 35  1  0
 35 36  2  0
 35 37  1  0
  9  4  1  0
 34 29  1  0
 37 17  1  0
M  END
$$$$
