
     RDKit          3D

 37 39  0  0  0  0  0  0  0  0999 V2000
  -11.9436  -34.8885  -11.7199 C   0  0  0  0  0  0  0  0  0  0  0  0
  -12.9842  -35.3379  -12.7183 C   0  0  0  0  0  0  0  0  0  0  0  0
  -14.3436  -34.8890  -12.1546 C   0  0  0  0  0  0  0  0  0  0  0  0
  -13.0681  -36.8188  -12.7963 C   0  0  0  0  0  0  0  0  0  0  0  0
  -13.6582  -37.6053  -11.8169 C   0  0  0  0  0  0  0  0  0  0  0  0
  -13.7341  -38.9631  -11.8955 C   0  0  0  0  0  0  0  0  0  0  0  0
  -13.2112  -39.6136  -12.9834 C   0  0  0  0  0  0  0  0  0  0  0  0
  -12.6157  -38.8547  -13.9774 C   0  0  0  0  0  0  0  0  0  0  0  0
  -12.5459  -37.4806  -13.8839 C   0  0  0  0  0  0  0  0  0  0  0  0
  -14.3737  -39.7339  -10.7929 C   0  0  0  0  0  0  0  0  0  0  0  0
  -15.2031  -40.8735  -11.3134 C   0  0  0  0  0  0  0  0  0  0  0  0
  -13.1703  -40.4888  -10.1227 C   0  0  0  0  0  0  0  0  0  0  0  0
  -14.9840  -39.0116   -9.8125 N   0  0  0  0  0  0  0  0  0  0  0  0
  -15.1211  -39.2047   -8.4711 C   0  0  0  0  0  0  0  0  0  0  0  0
  -16.3539  -39.0161   -7.7034 C   0  0  1  0  0  0  0  0  0  0  0  0
  -16.7451  -37.7315   -7.3957 O   0  0  0  0  0  0  0  0  0  0  0  0
  -17.5784  -39.7899   -8.1569 C   0  0  2  0  0  0  0  0  0  0  0  0
  -18.7285  -39.7062   -7.2127 C   0  0  0  0  0  0  0  0  0  0  0  0
  -19.3126  -38.2803   -7.2329 C   0  0  2  0  0  0  0  0  0  0  0  0
  -19.2291  -37.6195   -5.8783 C   0  0  0  0  0  0  0  0  0  0  0  0
  -20.7464  -38.2835   -7.7504 C   0  0  0  0  0  0  0  0  0  0  0  0
  -21.7608  -37.9349   -6.7132 C   0  0  0  0  0  0  0  0  0  0  0  0
  -22.8696  -38.9723   -6.7568 C   0  0  0  0  0  0  0  0  0  0  0  0
  -23.1165  -39.5451   -5.3918 C   0  0  0  0  0  0  0  0  0  0  0  0
  -22.9013  -41.0236   -5.3094 C   0  0  0  0  0  0  0  0  0  0  0  0
  -22.2003  -41.3629   -3.9941 C   0  0  0  0  0  0  0  0  0  0  0  0
  -20.6850  -41.3157   -4.1916 C   0  0  0  0  0  0  0  0  0  0  0  0
  -20.2567  -42.6876   -4.3675 N   0  0  0  0  0  0  0  0  0  0  0  0
  -19.6975  -43.2285   -5.5477 C   0  0  0  0  0  0  0  0  0  0  0  0
  -20.0787  -44.5317   -5.8814 C   0  0  0  0  0  0  0  0  0  0  0  0
  -19.5777  -45.1231   -7.0169 C   0  0  0  0  0  0  0  0  0  0  0  0
  -18.7141  -44.3816   -7.7704 C   0  0  0  0  0  0  0  0  0  0  0  0
  -18.3141  -43.0656   -7.4544 C   0  0  0  0  0  0  0  0  0  0  0  0
  -18.8569  -42.5965   -6.3419 N   0  0  0  0  0  0  0  0  0  0  0  0
  -17.3765  -42.3687   -8.3209 C   0  0  0  0  0  0  0  0  0  0  0  0
  -16.4647  -43.1854   -8.7696 O   0  0  0  0  0  0  0  0  0  0  0  0
  -17.2763  -41.0477   -8.7431 N   0  0  0  0  0  0  0  0  0  0  0  0
  1  2  1  0
  2  3  1  0
  2  4  1  0
  4  5  2  0
  5  6  1  0
  6  7  2  0
  7  8  1  0
  8  9  2  0
  6 10  1  0
 10 11  1  0
 10 12  1  0
 10 13  1  0
 13 14  1  0
 14 15  1  0
 15 16  1  6
 15 17  1  0
 17 18  1  1
 18 19  1  0
 19 20  1  1
 19 21  1  0
 21 22  1  0
 22 23  1  0
 23 24  1  0
 24 25  1  0
 25 26  1  0
 26 27  1  0
 27 28  1  0
 28 29  1  0
 29 30  2  0
 30 31  1  0
 31 32  2  0
 32 33  1  0
 33 34  2  0
 33 35  1  0
 35 36  2  0
 35 37  1  0
  9  4  1  0
 34 29  1  0
 37 17  1  0
M  END
$$$$
