
     RDKit          3D

 37 39  0  0  0  0  0  0  0  0999 V2000
  -17.0768  -35.5154  -10.7152 C   0  0  0  0  0  0  0  0  0  0  0  0
  -16.4003  -35.6865  -12.0548 C   0  0  0  0  0  0  0  0  0  0  0  0
  -17.2984  -36.6306  -12.8729 C   0  0  0  0  0  0  0  0  0  0  0  0
  -15.1033  -36.3994  -11.9290 C   0  0  0  0  0  0  0  0  0  0  0  0
  -14.9831  -37.6884  -11.4289 C   0  0  0  0  0  0  0  0  0  0  0  0
  -13.7908  -38.3378  -11.3182 C   0  0  0  0  0  0  0  0  0  0  0  0
  -12.6351  -37.7138  -11.7122 C   0  0  0  0  0  0  0  0  0  0  0  0
  -12.7239  -36.4264  -12.2156 C   0  0  0  0  0  0  0  0  0  0  0  0
  -13.9382  -35.7814  -12.3215 C   0  0  0  0  0  0  0  0  0  0  0  0
  -13.7483  -39.7174  -10.7580 C   0  0  0  0  0  0  0  0  0  0  0  0
  -13.7423  -40.7612  -11.8386 C   0  0  0  0  0  0  0  0  0  0  0  0
  -12.2918  -39.8383  -10.1826 C   0  0  0  0  0  0  0  0  0  0  0  0
  -14.6032  -39.9906   -9.7333 N   0  0  0  0  0  0  0  0  0  0  0  0
  -15.0096  -39.2700   -8.6512 C   0  0  0  0  0  0  0  0  0  0  0  0
  -16.1390  -39.6021   -7.7800 C   0  0  1  0  0  0  0  0  0  0  0  0
  -16.5252  -38.6843   -6.8280 O   0  0  0  0  0  0  0  0  0  0  0  0
  -17.3883  -40.1525   -8.4437 C   0  0  2  0  0  0  0  0  0  0  0  0
  -18.5636  -40.2471   -7.5322 C   0  0  0  0  0  0  0  0  0  0  0  0
  -19.0669  -38.8318   -7.1874 C   0  0  2  0  0  0  0  0  0  0  0  0
  -18.9934  -38.5547   -5.7054 C   0  0  0  0  0  0  0  0  0  0  0  0
  -20.4801  -38.6102   -7.7140 C   0  0  0  0  0  0  0  0  0  0  0  0
  -21.5086  -38.4824   -6.6406 C   0  0  0  0  0  0  0  0  0  0  0  0
  -22.6709  -39.4011   -6.9760 C   0  0  0  0  0  0  0  0  0  0  0  0
  -22.9958  -40.2943   -5.8145 C   0  0  0  0  0  0  0  0  0  0  0  0
  -22.8656  -41.7533   -6.1200 C   0  0  0  0  0  0  0  0  0  0  0  0
  -22.2299  -42.4677   -4.9275 C   0  0  0  0  0  0  0  0  0  0  0  0
  -20.7084  -42.4651   -5.0775 C   0  0  0  0  0  0  0  0  0  0  0  0
  -20.3509  -43.7672   -5.6001 N   0  0  0  0  0  0  0  0  0  0  0  0
  -19.7824  -44.0146   -6.8705 C   0  0  0  0  0  0  0  0  0  0  0  0
  -20.2235  -45.1588   -7.5422 C   0  0  0  0  0  0  0  0  0  0  0  0
  -19.7174  -45.4628   -8.7838 C   0  0  0  0  0  0  0  0  0  0  0  0
  -18.7887  -44.6055   -9.2995 C   0  0  0  0  0  0  0  0  0  0  0  0
  -18.3276  -43.4454   -8.6412 C   0  0  0  0  0  0  0  0  0  0  0  0
  -18.8814  -43.2506   -7.4548 N   0  0  0  0  0  0  0  0  0  0  0  0
  -17.3238  -42.6061   -9.2764 C   0  0  0  0  0  0  0  0  0  0  0  0
  -16.4438  -43.3323   -9.9072 O   0  0  0  0  0  0  0  0  0  0  0  0
  -17.1363  -41.2296   -9.3343 N   0  0  0  0  0  0  0  0  0  0  0  0
  1  2  1  0
  2  3  1  0
  2  4  1  0
  4  5  2  0
  5  6  1  0
  6  7  2  0
  7  8  1  0
  8  9  2  0
  6 10  1  0
 10 11  1  0
 10 12  1  0
 10 13  1  0
 13 14  1  0
 14 15  1  0
 15 16  1  6
 15 17  1  0
 17 18  1  1
 18 19  1  0
 19 20  1  1
 19 21  1  0
 21 22  1  0
 22 23  1  0
 23 24  1  0
 24 25  1  0
 25 26  1  0
 26 27  1  0
 27 28  1  0
 28 29  1  0
 29 30  2  0
 30 31  1  0
 31 32  2  0
 32 33  1  0
 33 34  2  0
 33 35  1  0
 35 36  2  0
 35 37  1  0
  9  4  1  0
 34 29  1  0
 37 17  1  0
M  END
$$$$
