
     RDKit          3D

 37 39  0  0  0  0  0  0  0  0999 V2000
  -22.8342  -39.5945  -10.3887 C   0  0  0  0  0  0  0  0  0  0  0  0
  -23.0404  -41.0393   -9.9994 C   0  0  0  0  0  0  0  0  0  0  0  0
  -24.5408  -41.1932   -9.6956 C   0  0  0  0  0  0  0  0  0  0  0  0
  -22.3522  -41.3693   -8.7252 C   0  0  0  0  0  0  0  0  0  0  0  0
  -21.3208  -40.6088   -8.1924 C   0  0  0  0  0  0  0  0  0  0  0  0
  -20.6951  -40.9155   -7.0219 C   0  0  0  0  0  0  0  0  0  0  0  0
  -21.0811  -42.0233   -6.3121 C   0  0  0  0  0  0  0  0  0  0  0  0
  -22.1083  -42.8018   -6.8191 C   0  0  0  0  0  0  0  0  0  0  0  0
  -22.7323  -42.4791   -8.0059 C   0  0  0  0  0  0  0  0  0  0  0  0
  -19.5868  -40.0522   -6.5266 C   0  0  0  0  0  0  0  0  0  0  0  0
  -19.9075  -38.5913   -6.6695 C   0  0  0  0  0  0  0  0  0  0  0  0
  -19.6367  -40.2438   -4.9684 C   0  0  0  0  0  0  0  0  0  0  0  0
  -18.3268  -40.3810   -6.9262 N   0  0  0  0  0  0  0  0  0  0  0  0
  -17.0916  -40.0261   -6.4749 C   0  0  0  0  0  0  0  0  0  0  0  0
  -16.0746  -39.3086   -7.2469 C   0  0  1  0  0  0  0  0  0  0  0  0
  -14.8557  -39.0604   -6.6550 O   0  0  0  0  0  0  0  0  0  0  0  0
  -15.8258  -39.7764   -8.6693 C   0  0  2  0  0  0  0  0  0  0  0  0
  -15.0429  -38.8120   -9.4930 C   0  0  0  0  0  0  0  0  0  0  0  0
  -13.5877  -38.7618   -8.9883 C   0  0  2  0  0  0  0  0  0  0  0  0
  -13.2052  -37.3815   -8.5121 C   0  0  0  0  0  0  0  0  0  0  0  0
  -12.6204  -39.2571  -10.0573 C   0  0  0  0  0  0  0  0  0  0  0  0
  -11.7327  -38.1905  -10.6057 C   0  0  0  0  0  0  0  0  0  0  0  0
  -11.7752  -38.2620  -12.1225 C   0  0  0  0  0  0  0  0  0  0  0  0
  -12.0990  -36.9193  -12.7097 C   0  0  0  0  0  0  0  0  0  0  0  0
  -13.3524  -36.9041  -13.5268 C   0  0  0  0  0  0  0  0  0  0  0  0
  -14.1257  -35.6154  -13.2476 C   0  0  0  0  0  0  0  0  0  0  0  0
  -15.0836  -35.8337  -12.0763 C   0  0  0  0  0  0  0  0  0  0  0  0
  -16.3870  -36.0751  -12.6586 N   0  0  0  0  0  0  0  0  0  0  0  0
  -17.1119  -37.2859  -12.5765 C   0  0  0  0  0  0  0  0  0  0  0  0
  -17.8221  -37.6696  -13.7181 C   0  0  0  0  0  0  0  0  0  0  0  0
  -18.5481  -38.8370  -13.7137 C   0  0  0  0  0  0  0  0  0  0  0  0
  -18.5316  -39.5709  -12.5627 C   0  0  0  0  0  0  0  0  0  0  0  0
  -17.8234  -39.2046  -11.3983 C   0  0  0  0  0  0  0  0  0  0  0  0
  -17.1603  -38.0648  -11.5145 N   0  0  0  0  0  0  0  0  0  0  0  0
  -17.8843  -40.0544  -10.2195 C   0  0  0  0  0  0  0  0  0  0  0  0
  -19.0798  -40.5517  -10.0675 O   0  0  0  0  0  0  0  0  0  0  0  0
  -16.9429  -40.4207   -9.2639 N   0  0  0  0  0  0  0  0  0  0  0  0
  1  2  1  0
  2  3  1  0
  2  4  1  0
  4  5  2  0
  5  6  1  0
  6  7  2  0
  7  8  1  0
  8  9  2  0
  6 10  1  0
 10 11  1  0
 10 12  1  0
 10 13  1  0
 13 14  1  0
 14 15  1  0
 15 16  1  1
 15 17  1  0
 17 18  1  6
 18 19  1  0
 19 20  1  6
 19 21  1  0
 21 22  1  0
 22 23  1  0
 23 24  1  0
 24 25  1  0
 25 26  1  0
 26 27  1  0
 27 28  1  0
 28 29  1  0
 29 30  2  0
 30 31  1  0
 31 32  2  0
 32 33  1  0
 33 34  2  0
 33 35  1  0
 35 36  2  0
 35 37  1  0
  9  4  1  0
 34 29  1  0
 37 17  1  0
M  END
$$$$
