
     RDKit          3D

 37 39  0  0  0  0  0  0  0  0999 V2000
  -14.0871  -33.4568  -12.0773 C   0  0  0  0  0  0  0  0  0  0  0  0
  -13.5772  -34.7457  -12.6773 C   0  0  0  0  0  0  0  0  0  0  0  0
  -13.9794  -34.7179  -14.1621 C   0  0  0  0  0  0  0  0  0  0  0  0
  -14.2730  -35.9294  -12.1106 C   0  0  0  0  0  0  0  0  0  0  0  0
  -13.6716  -36.8273  -11.2400 C   0  0  0  0  0  0  0  0  0  0  0  0
  -14.3159  -37.9098  -10.7217 C   0  0  0  0  0  0  0  0  0  0  0  0
  -15.6233  -38.1506  -11.0575 C   0  0  0  0  0  0  0  0  0  0  0  0
  -16.2502  -37.2712  -11.9247 C   0  0  0  0  0  0  0  0  0  0  0  0
  -15.5850  -36.1795  -12.4419 C   0  0  0  0  0  0  0  0  0  0  0  0
  -13.5922  -38.8324   -9.8030 C   0  0  0  0  0  0  0  0  0  0  0  0
  -13.3333  -40.1685  -10.4398 C   0  0  0  0  0  0  0  0  0  0  0  0
  -12.1464  -38.2228   -9.7299 C   0  0  0  0  0  0  0  0  0  0  0  0
  -14.0538  -38.9122   -8.5240 N   0  0  0  0  0  0  0  0  0  0  0  0
  -14.6361  -39.9170   -7.8122 C   0  0  0  0  0  0  0  0  0  0  0  0
  -15.9899  -39.8940   -7.2540 C   0  0  1  0  0  0  0  0  0  0  0  0
  -16.4164  -38.7507   -6.6146 O   0  0  0  0  0  0  0  0  0  0  0  0
  -17.1154  -40.3887   -8.1442 C   0  0  2  0  0  0  0  0  0  0  0  0
  -18.4651  -40.2922   -7.5194 C   0  0  0  0  0  0  0  0  0  0  0  0
  -18.8750  -38.8116   -7.3980 C   0  0  2  0  0  0  0  0  0  0  0  0
  -19.0985  -38.4063   -5.9613 C   0  0  0  0  0  0  0  0  0  0  0  0
  -20.1059  -38.5133   -8.2463 C   0  0  0  0  0  0  0  0  0  0  0  0
  -21.3246  -38.1946   -7.4465 C   0  0  0  0  0  0  0  0  0  0  0  0
  -22.4777  -39.0319   -7.9723 C   0  0  0  0  0  0  0  0  0  0  0  0
  -23.1442  -39.7809   -6.8555 C   0  0  0  0  0  0  0  0  0  0  0  0
  -23.1094  -41.2677   -7.0205 C   0  0  0  0  0  0  0  0  0  0  0  0
  -22.8319  -41.9230   -5.6676 C   0  0  0  0  0  0  0  0  0  0  0  0
  -21.3235  -42.0714   -5.4676 C   0  0  0  0  0  0  0  0  0  0  0  0
  -21.0036  -43.4431   -5.8028 N   0  0  0  0  0  0  0  0  0  0  0  0
  -20.2008  -43.8572   -6.8901 C   0  0  0  0  0  0  0  0  0  0  0  0
  -20.6054  -45.0143   -7.5627 C   0  0  0  0  0  0  0  0  0  0  0  0
  -19.8756  -45.4762   -8.6323 C   0  0  0  0  0  0  0  0  0  0  0  0
  -18.7690  -44.7574   -8.9821 C   0  0  0  0  0  0  0  0  0  0  0  0
  -18.3403  -43.5877   -8.3191 C   0  0  0  0  0  0  0  0  0  0  0  0
  -19.1161  -43.2348   -7.3062 N   0  0  0  0  0  0  0  0  0  0  0  0
  -17.1367  -42.9047   -8.7665 C   0  0  0  0  0  0  0  0  0  0  0  0
  -16.2240  -43.7624   -9.1283 O   0  0  0  0  0  0  0  0  0  0  0  0
  -16.7928  -41.5619   -8.8765 N   0  0  0  0  0  0  0  0  0  0  0  0
  1  2  1  0
  2  3  1  0
  2  4  1  0
  4  5  2  0
  5  6  1  0
  6  7  2  0
  7  8  1  0
  8  9  2  0
  6 10  1  0
 10 11  1  0
 10 12  1  0
 10 13  1  0
 13 14  1  0
 14 15  1  0
 15 16  1  6
 15 17  1  0
 17 18  1  1
 18 19  1  0
 19 20  1  1
 19 21  1  0
 21 22  1  0
 22 23  1  0
 23 24  1  0
 24 25  1  0
 25 26  1  0
 26 27  1  0
 27 28  1  0
 28 29  1  0
 29 30  2  0
 30 31  1  0
 31 32  2  0
 32 33  1  0
 33 34  2  0
 33 35  1  0
 35 36  2  0
 35 37  1  0
  9  4  1  0
 34 29  1  0
 37 17  1  0
M  END
$$$$
