
     RDKit          3D

 37 39  0  0  0  0  0  0  0  0999 V2000
  -12.9862  -34.7969  -12.6924 C   0  0  0  0  0  0  0  0  0  0  0  0
  -14.2767  -35.5705  -12.8248 C   0  0  0  0  0  0  0  0  0  0  0  0
  -15.2275  -35.0079  -11.7540 C   0  0  0  0  0  0  0  0  0  0  0  0
  -14.0988  -37.0019  -12.4702 C   0  0  0  0  0  0  0  0  0  0  0  0
  -13.5025  -37.4309  -11.2928 C   0  0  0  0  0  0  0  0  0  0  0  0
  -13.3443  -38.7454  -10.9722 C   0  0  0  0  0  0  0  0  0  0  0  0
  -13.7860  -39.7156  -11.8345 C   0  0  0  0  0  0  0  0  0  0  0  0
  -14.3856  -39.3175  -13.0180 C   0  0  0  0  0  0  0  0  0  0  0  0
  -14.5386  -37.9827  -13.3293 C   0  0  0  0  0  0  0  0  0  0  0  0
  -12.6811  -39.1207   -9.6923 C   0  0  0  0  0  0  0  0  0  0  0  0
  -11.4661  -39.9748   -9.9199 C   0  0  0  0  0  0  0  0  0  0  0  0
  -12.0421  -37.7737   -9.1978 C   0  0  0  0  0  0  0  0  0  0  0  0
  -13.4885  -39.5676   -8.6904 N   0  0  0  0  0  0  0  0  0  0  0  0
  -14.6832  -40.2218   -8.6880 C   0  0  0  0  0  0  0  0  0  0  0  0
  -15.9110  -39.7542   -8.0409 C   0  0  1  0  0  0  0  0  0  0  0  0
  -16.0365  -38.4102   -7.7655 O   0  0  0  0  0  0  0  0  0  0  0  0
  -17.2275  -40.2469   -8.6136 C   0  0  2  0  0  0  0  0  0  0  0  0
  -18.3293  -40.3237   -7.6129 C   0  0  0  0  0  0  0  0  0  0  0  0
  -18.7536  -38.9011   -7.1994 C   0  0  2  0  0  0  0  0  0  0  0  0
  -18.5529  -38.6616   -5.7226 C   0  0  0  0  0  0  0  0  0  0  0  0
  -20.1956  -38.6202   -7.6062 C   0  0  0  0  0  0  0  0  0  0  0  0
  -21.1304  -38.4835   -6.4513 C   0  0  0  0  0  0  0  0  0  0  0  0
  -22.3472  -39.3548   -6.7115 C   0  0  0  0  0  0  0  0  0  0  0  0
  -22.6099  -40.2638   -5.5466 C   0  0  0  0  0  0  0  0  0  0  0  0
  -22.5557  -41.7188   -5.8919 C   0  0  0  0  0  0  0  0  0  0  0  0
  -21.8527  -42.4819   -4.7694 C   0  0  0  0  0  0  0  0  0  0  0  0
  -20.3488  -42.5265   -5.0409 C   0  0  0  0  0  0  0  0  0  0  0  0
  -20.0798  -43.8270   -5.6175 N   0  0  0  0  0  0  0  0  0  0  0  0
  -19.6231  -44.0632   -6.9343 C   0  0  0  0  0  0  0  0  0  0  0  0
  -20.1560  -45.1759   -7.5922 C   0  0  0  0  0  0  0  0  0  0  0  0
  -19.7611  -45.4672   -8.8764 C   0  0  0  0  0  0  0  0  0  0  0  0
  -18.8469  -44.6293   -9.4470 C   0  0  0  0  0  0  0  0  0  0  0  0
  -18.2946  -43.5011   -8.8038 C   0  0  0  0  0  0  0  0  0  0  0  0
  -18.7451  -43.3160   -7.5729 N   0  0  0  0  0  0  0  0  0  0  0  0
  -17.3155  -42.6810   -9.4998 C   0  0  0  0  0  0  0  0  0  0  0  0
  -16.5144  -43.4210  -10.2141 O   0  0  0  0  0  0  0  0  0  0  0  0
  -17.0851  -41.3104   -9.5438 N   0  0  0  0  0  0  0  0  0  0  0  0
  1  2  1  0
  2  3  1  0
  2  4  1  0
  4  5  2  0
  5  6  1  0
  6  7  2  0
  7  8  1  0
  8  9  2  0
  6 10  1  0
 10 11  1  0
 10 12  1  0
 10 13  1  0
 13 14  1  0
 14 15  1  0
 15 16  1  6
 15 17  1  0
 17 18  1  1
 18 19  1  0
 19 20  1  1
 19 21  1  0
 21 22  1  0
 22 23  1  0
 23 24  1  0
 24 25  1  0
 25 26  1  0
 26 27  1  0
 27 28  1  0
 28 29  1  0
 29 30  2  0
 30 31  1  0
 31 32  2  0
 32 33  1  0
 33 34  2  0
 33 35  1  0
 35 36  2  0
 35 37  1  0
  9  4  1  0
 34 29  1  0
 37 17  1  0
M  END
$$$$
