
     RDKit          3D

 37 39  0  0  0  0  0  0  0  0999 V2000
  -19.9359  -43.0389   -3.2181 C   0  0  0  0  0  0  0  0  0  0  0  0
  -21.1681  -42.2232   -2.9054 C   0  0  0  0  0  0  0  0  0  0  0  0
  -22.3679  -43.1690   -3.0873 C   0  0  0  0  0  0  0  0  0  0  0  0
  -21.3766  -41.1389   -3.8989 C   0  0  0  0  0  0  0  0  0  0  0  0
  -20.8681  -41.1745   -5.1897 C   0  0  0  0  0  0  0  0  0  0  0  0
  -21.0648  -40.1778   -6.0971 C   0  0  0  0  0  0  0  0  0  0  0  0
  -21.7972  -39.0724   -5.7480 C   0  0  0  0  0  0  0  0  0  0  0  0
  -22.3176  -39.0088   -4.4659 C   0  0  0  0  0  0  0  0  0  0  0  0
  -22.1099  -40.0256   -3.5578 C   0  0  0  0  0  0  0  0  0  0  0  0
  -20.4725  -40.2891   -7.4593 C   0  0  0  0  0  0  0  0  0  0  0  0
  -20.4084  -41.7153   -7.9278 C   0  0  0  0  0  0  0  0  0  0  0  0
  -21.5825  -39.6902   -8.3955 C   0  0  0  0  0  0  0  0  0  0  0  0
  -19.3326  -39.5811   -7.6930 N   0  0  0  0  0  0  0  0  0  0  0  0
  -18.2413  -39.3060   -6.9256 C   0  0  0  0  0  0  0  0  0  0  0  0
  -17.0094  -38.6659   -7.3919 C   0  0  1  0  0  0  0  0  0  0  0  0
  -16.3049  -37.8776   -6.5088 O   0  0  0  0  0  0  0  0  0  0  0  0
  -16.0199  -39.5343   -8.1475 C   0  0  2  0  0  0  0  0  0  0  0  0
  -15.2247  -38.7942   -9.1679 C   0  0  0  0  0  0  0  0  0  0  0  0
  -14.2365  -37.8434   -8.4647 C   0  0  2  0  0  0  0  0  0  0  0  0
  -14.4892  -36.4005   -8.8288 C   0  0  0  0  0  0  0  0  0  0  0  0
  -12.7938  -38.2360   -8.7619 C   0  0  0  0  0  0  0  0  0  0  0  0
  -12.0632  -37.2466   -9.6067 C   0  0  0  0  0  0  0  0  0  0  0  0
  -11.3799  -37.9929  -10.7396 C   0  0  0  0  0  0  0  0  0  0  0  0
  -11.7303  -37.3841  -12.0658 C   0  0  0  0  0  0  0  0  0  0  0  0
  -12.4198  -38.3279  -13.0001 C   0  0  0  0  0  0  0  0  0  0  0  0
  -13.5381  -37.5893  -13.7352 C   0  0  0  0  0  0  0  0  0  0  0  0
  -14.8355  -37.6902  -12.9329 C   0  0  0  0  0  0  0  0  0  0  0  0
  -15.6095  -38.7491  -13.5461 N   0  0  0  0  0  0  0  0  0  0  0  0
  -15.9492  -39.9777  -12.9351 C   0  0  0  0  0  0  0  0  0  0  0  0
  -15.9248  -41.1118  -13.7525 C   0  0  0  0  0  0  0  0  0  0  0  0
  -16.2408  -42.3424  -13.2274 C   0  0  0  0  0  0  0  0  0  0  0  0
  -16.5688  -42.3835  -11.9029 C   0  0  0  0  0  0  0  0  0  0  0  0
  -16.6010  -41.2535  -11.0580 C   0  0  0  0  0  0  0  0  0  0  0  0
  -16.2797  -40.1233  -11.6676 N   0  0  0  0  0  0  0  0  0  0  0  0
  -16.9777  -41.4072   -9.6616 C   0  0  0  0  0  0  0  0  0  0  0  0
  -17.9334  -42.2846   -9.5329 O   0  0  0  0  0  0  0  0  0  0  0  0
  -16.5261  -40.8171   -8.4864 N   0  0  0  0  0  0  0  0  0  0  0  0
  1  2  1  0
  2  3  1  0
  2  4  1  0
  4  5  2  0
  5  6  1  0
  6  7  2  0
  7  8  1  0
  8  9  2  0
  6 10  1  0
 10 11  1  0
 10 12  1  0
 10 13  1  0
 13 14  1  0
 14 15  1  0
 15 16  1  1
 15 17  1  0
 17 18  1  6
 18 19  1  0
 19 20  1  6
 19 21  1  0
 21 22  1  0
 22 23  1  0
 23 24  1  0
 24 25  1  0
 25 26  1  0
 26 27  1  0
 27 28  1  0
 28 29  1  0
 29 30  2  0
 30 31  1  0
 31 32  2  0
 32 33  1  0
 33 34  2  0
 33 35  1  0
 35 36  2  0
 35 37  1  0
  9  4  1  0
 34 29  1  0
 37 17  1  0
M  END
$$$$
