
     RDKit          3D

 37 39  0  0  0  0  0  0  0  0999 V2000
  -16.1161  -34.4161  -12.8963 C   0  0  0  0  0  0  0  0  0  0  0  0
  -16.8961  -35.2929  -11.9455 C   0  0  0  0  0  0  0  0  0  0  0  0
  -16.4899  -34.8574  -10.5269 C   0  0  0  0  0  0  0  0  0  0  0  0
  -16.4835  -36.7163  -12.0459 C   0  0  0  0  0  0  0  0  0  0  0  0
  -15.5804  -37.3151  -11.1788 C   0  0  0  0  0  0  0  0  0  0  0  0
  -15.2078  -38.6218  -11.2747 C   0  0  0  0  0  0  0  0  0  0  0  0
  -15.7337  -39.4100  -12.2658 C   0  0  0  0  0  0  0  0  0  0  0  0
  -16.6380  -38.8398  -13.1466 C   0  0  0  0  0  0  0  0  0  0  0  0
  -17.0056  -37.5151  -13.0373 C   0  0  0  0  0  0  0  0  0  0  0  0
  -14.2216  -39.1832  -10.3098 C   0  0  0  0  0  0  0  0  0  0  0  0
  -13.1429  -39.9666  -11.0027 C   0  0  0  0  0  0  0  0  0  0  0  0
  -13.4338  -37.9200   -9.8089 C   0  0  0  0  0  0  0  0  0  0  0  0
  -14.7262  -39.7994   -9.2048 N   0  0  0  0  0  0  0  0  0  0  0  0
  -15.0250  -39.3536   -7.9528 C   0  0  0  0  0  0  0  0  0  0  0  0
  -16.2715  -39.6132   -7.2293 C   0  0  1  0  0  0  0  0  0  0  0  0
  -16.6892  -38.6947   -6.2914 O   0  0  0  0  0  0  0  0  0  0  0  0
  -17.4760  -40.0337   -8.0518 C   0  0  2  0  0  0  0  0  0  0  0  0
  -18.7503  -40.0705   -7.2798 C   0  0  0  0  0  0  0  0  0  0  0  0
  -19.1809  -38.6346   -6.9223 C   0  0  2  0  0  0  0  0  0  0  0  0
  -19.2541  -38.4250   -5.4293 C   0  0  0  0  0  0  0  0  0  0  0  0
  -20.5050  -38.2786   -7.5884 C   0  0  0  0  0  0  0  0  0  0  0  0
  -21.6353  -38.1122   -6.6286 C   0  0  0  0  0  0  0  0  0  0  0  0
  -22.8184  -38.9199   -7.1340 C   0  0  0  0  0  0  0  0  0  0  0  0
  -23.3386  -39.8307   -6.0605 C   0  0  0  0  0  0  0  0  0  0  0  0
  -23.2854  -41.2818   -6.4218 C   0  0  0  0  0  0  0  0  0  0  0  0
  -22.8438  -42.0931   -5.2039 C   0  0  0  0  0  0  0  0  0  0  0  0
  -21.3193  -42.2069   -5.1866 C   0  0  0  0  0  0  0  0  0  0  0  0
  -21.0045  -43.5111   -5.7309 N   0  0  0  0  0  0  0  0  0  0  0  0
  -20.3168  -43.7515   -6.9423 C   0  0  0  0  0  0  0  0  0  0  0  0
  -20.7645  -44.8281   -7.7140 C   0  0  0  0  0  0  0  0  0  0  0  0
  -20.1461  -45.1209   -8.9064 C   0  0  0  0  0  0  0  0  0  0  0  0
  -19.1032  -44.3208   -9.2747 C   0  0  0  0  0  0  0  0  0  0  0  0
  -18.6330  -43.2295   -8.5134 C   0  0  0  0  0  0  0  0  0  0  0  0
  -19.3006  -43.0393   -7.3863 N   0  0  0  0  0  0  0  0  0  0  0  0
  -17.5035  -42.4486   -8.9929 C   0  0  0  0  0  0  0  0  0  0  0  0
  -16.6154  -43.2169   -9.5590 O   0  0  0  0  0  0  0  0  0  0  0  0
  -17.2073  -41.0904   -8.9618 N   0  0  0  0  0  0  0  0  0  0  0  0
  1  2  1  0
  2  3  1  0
  2  4  1  0
  4  5  2  0
  5  6  1  0
  6  7  2  0
  7  8  1  0
  8  9  2  0
  6 10  1  0
 10 11  1  0
 10 12  1  0
 10 13  1  0
 13 14  1  0
 14 15  1  0
 15 16  1  6
 15 17  1  0
 17 18  1  1
 18 19  1  0
 19 20  1  1
 19 21  1  0
 21 22  1  0
 22 23  1  0
 23 24  1  0
 24 25  1  0
 25 26  1  0
 26 27  1  0
 27 28  1  0
 28 29  1  0
 29 30  2  0
 30 31  1  0
 31 32  2  0
 32 33  1  0
 33 34  2  0
 33 35  1  0
 35 36  2  0
 35 37  1  0
  9  4  1  0
 34 29  1  0
 37 17  1  0
M  END
$$$$
