
     RDKit          3D

 37 39  0  0  0  0  0  0  0  0999 V2000
  -13.4109  -41.4890  -14.4124 C   0  0  0  0  0  0  0  0  0  0  0  0
  -12.1463  -40.7756  -13.9960 C   0  0  0  0  0  0  0  0  0  0  0  0
  -11.2291  -41.8481  -13.3831 C   0  0  0  0  0  0  0  0  0  0  0  0
  -12.3970  -39.8077  -12.8976 C   0  0  0  0  0  0  0  0  0  0  0  0
  -12.4594  -40.1677  -11.5587 C   0  0  0  0  0  0  0  0  0  0  0  0
  -12.6873  -39.2748  -10.5556 C   0  0  0  0  0  0  0  0  0  0  0  0
  -12.8675  -37.9481  -10.8514 C   0  0  0  0  0  0  0  0  0  0  0  0
  -12.8106  -37.5588  -12.1795 C   0  0  0  0  0  0  0  0  0  0  0  0
  -12.5793  -38.4743  -13.1846 C   0  0  0  0  0  0  0  0  0  0  0  0
  -12.7519  -39.7472   -9.1444 C   0  0  0  0  0  0  0  0  0  0  0  0
  -11.7940  -40.8757   -8.8867 C   0  0  0  0  0  0  0  0  0  0  0  0
  -12.0966  -38.5739   -8.3312 C   0  0  0  0  0  0  0  0  0  0  0  0
  -13.9930  -39.9479   -8.6203 N   0  0  0  0  0  0  0  0  0  0  0  0
  -15.2214  -39.4511   -8.9360 C   0  0  0  0  0  0  0  0  0  0  0  0
  -16.3859  -39.4263   -8.0482 C   0  0  1  0  0  0  0  0  0  0  0  0
  -16.6853  -38.2530   -7.3914 O   0  0  0  0  0  0  0  0  0  0  0  0
  -17.6788  -40.0143   -8.5838 C   0  0  2  0  0  0  0  0  0  0  0  0
  -18.8184  -39.9373   -7.6265 C   0  0  0  0  0  0  0  0  0  0  0  0
  -19.2599  -38.4698   -7.4637 C   0  0  2  0  0  0  0  0  0  0  0  0
  -19.1168  -37.9946   -6.0382 C   0  0  0  0  0  0  0  0  0  0  0  0
  -20.6854  -38.2685   -7.9650 C   0  0  0  0  0  0  0  0  0  0  0  0
  -21.6644  -37.9547   -6.8836 C   0  0  0  0  0  0  0  0  0  0  0  0
  -22.8692  -38.8654   -7.0463 C   0  0  0  0  0  0  0  0  0  0  0  0
  -23.1758  -39.5772   -5.7611 C   0  0  0  0  0  0  0  0  0  0  0  0
  -23.1067  -41.0683   -5.8655 C   0  0  0  0  0  0  0  0  0  0  0  0
  -22.4469  -41.6359   -4.6089 C   0  0  0  0  0  0  0  0  0  0  0  0
  -20.9336  -41.7126   -4.8122 C   0  0  0  0  0  0  0  0  0  0  0  0
  -20.6411  -43.0869   -5.1614 N   0  0  0  0  0  0  0  0  0  0  0  0
  -20.1335  -43.5283   -6.4047 C   0  0  0  0  0  0  0  0  0  0  0  0
  -20.6393  -44.7362   -6.8948 C   0  0  0  0  0  0  0  0  0  0  0  0
  -20.1947  -45.2273   -8.0994 C   0  0  0  0  0  0  0  0  0  0  0  0
  -19.2599  -44.4854   -8.7622 C   0  0  0  0  0  0  0  0  0  0  0  0
  -18.7341  -43.2645   -8.2883 C   0  0  0  0  0  0  0  0  0  0  0  0
  -19.2322  -42.8872   -7.1214 N   0  0  0  0  0  0  0  0  0  0  0  0
  -17.7298  -42.5598   -9.0695 C   0  0  0  0  0  0  0  0  0  0  0  0
  -16.9008  -43.3991   -9.6244 O   0  0  0  0  0  0  0  0  0  0  0  0
  -17.4993  -41.2125   -9.3247 N   0  0  0  0  0  0  0  0  0  0  0  0
  1  2  1  0
  2  3  1  0
  2  4  1  0
  4  5  2  0
  5  6  1  0
  6  7  2  0
  7  8  1  0
  8  9  2  0
  6 10  1  0
 10 11  1  0
 10 12  1  0
 10 13  1  0
 13 14  1  0
 14 15  1  0
 15 16  1  6
 15 17  1  0
 17 18  1  1
 18 19  1  0
 19 20  1  1
 19 21  1  0
 21 22  1  0
 22 23  1  0
 23 24  1  0
 24 25  1  0
 25 26  1  0
 26 27  1  0
 27 28  1  0
 28 29  1  0
 29 30  2  0
 30 31  1  0
 31 32  2  0
 32 33  1  0
 33 34  2  0
 33 35  1  0
 35 36  2  0
 35 37  1  0
  9  4  1  0
 34 29  1  0
 37 17  1  0
M  END
$$$$
