
     RDKit          3D

 37 39  0  0  0  0  0  0  0  0999 V2000
  -14.7290  -35.3299  -13.4706 C   0  0  0  0  0  0  0  0  0  0  0  0
  -13.3571  -35.8942  -13.7550 C   0  0  0  0  0  0  0  0  0  0  0  0
  -13.5655  -37.0549  -14.7432 C   0  0  0  0  0  0  0  0  0  0  0  0
  -12.7576  -36.5176  -12.5474 C   0  0  0  0  0  0  0  0  0  0  0  0
  -13.2200  -37.6995  -11.9858 C   0  0  0  0  0  0  0  0  0  0  0  0
  -12.6643  -38.2675  -10.8793 C   0  0  0  0  0  0  0  0  0  0  0  0
  -11.5943  -37.6660  -10.2682 C   0  0  0  0  0  0  0  0  0  0  0  0
  -11.1106  -36.4849  -10.8064 C   0  0  0  0  0  0  0  0  0  0  0  0
  -11.6838  -35.9213  -11.9271 C   0  0  0  0  0  0  0  0  0  0  0  0
  -13.2305  -39.5322  -10.3327 C   0  0  0  0  0  0  0  0  0  0  0  0
  -13.1538  -40.6563  -11.3265 C   0  0  0  0  0  0  0  0  0  0  0  0
  -12.1741  -39.9766   -9.2586 C   0  0  0  0  0  0  0  0  0  0  0  0
  -14.4306  -39.4422   -9.6946 N   0  0  0  0  0  0  0  0  0  0  0  0
  -14.9835  -40.1385   -8.6627 C   0  0  0  0  0  0  0  0  0  0  0  0
  -16.2263  -39.7931   -7.9691 C   0  0  1  0  0  0  0  0  0  0  0  0
  -16.3297  -38.5478   -7.3891 O   0  0  0  0  0  0  0  0  0  0  0  0
  -17.5285  -40.0912   -8.6898 C   0  0  2  0  0  0  0  0  0  0  0  0
  -18.7098  -40.1866   -7.7861 C   0  0  0  0  0  0  0  0  0  0  0  0
  -19.0478  -38.7910   -7.2265 C   0  0  2  0  0  0  0  0  0  0  0  0
  -18.9476  -38.7497   -5.7210 C   0  0  0  0  0  0  0  0  0  0  0  0
  -20.4245  -38.3327   -7.6940 C   0  0  0  0  0  0  0  0  0  0  0  0
  -21.4348  -38.2507   -6.5991 C   0  0  0  0  0  0  0  0  0  0  0  0
  -22.6941  -38.9697   -7.0516 C   0  0  0  0  0  0  0  0  0  0  0  0
  -23.1233  -39.9841   -6.0322 C   0  0  0  0  0  0  0  0  0  0  0  0
  -23.1611  -41.3859   -6.5541 C   0  0  0  0  0  0  0  0  0  0  0  0
  -22.6156  -42.3392   -5.4909 C   0  0  0  0  0  0  0  0  0  0  0  0
  -21.1036  -42.4881   -5.6604 C   0  0  0  0  0  0  0  0  0  0  0  0
  -20.8967  -43.7292   -6.3768 N   0  0  0  0  0  0  0  0  0  0  0  0
  -20.3565  -43.8464   -7.6778 C   0  0  0  0  0  0  0  0  0  0  0  0
  -20.9242  -44.8188   -8.5068 C   0  0  0  0  0  0  0  0  0  0  0  0
  -20.4525  -44.9888   -9.7868 C   0  0  0  0  0  0  0  0  0  0  0  0
  -19.4297  -44.1756  -10.1818 C   0  0  0  0  0  0  0  0  0  0  0  0
  -18.8402  -43.1879   -9.3640 C   0  0  0  0  0  0  0  0  0  0  0  0
  -19.3716  -43.1114   -8.1541 N   0  0  0  0  0  0  0  0  0  0  0  0
  -17.7444  -42.3832   -9.8808 C   0  0  0  0  0  0  0  0  0  0  0  0
  -16.9518  -43.1022  -10.6254 O   0  0  0  0  0  0  0  0  0  0  0  0
  -17.3994  -41.0441   -9.7349 N   0  0  0  0  0  0  0  0  0  0  0  0
  1  2  1  0
  2  3  1  0
  2  4  1  0
  4  5  2  0
  5  6  1  0
  6  7  2  0
  7  8  1  0
  8  9  2  0
  6 10  1  0
 10 11  1  0
 10 12  1  0
 10 13  1  0
 13 14  1  0
 14 15  1  0
 15 16  1  6
 15 17  1  0
 17 18  1  1
 18 19  1  0
 19 20  1  1
 19 21  1  0
 21 22  1  0
 22 23  1  0
 23 24  1  0
 24 25  1  0
 25 26  1  0
 26 27  1  0
 27 28  1  0
 28 29  1  0
 29 30  2  0
 30 31  1  0
 31 32  2  0
 32 33  1  0
 33 34  2  0
 33 35  1  0
 35 36  2  0
 35 37  1  0
  9  4  1  0
 34 29  1  0
 37 17  1  0
M  END
$$$$
