
     RDKit          3D

 37 39  0  0  0  0  0  0  0  0999 V2000
  -23.8294  -42.3816   -4.3012 C   0  0  0  0  0  0  0  0  0  0  0  0
  -22.3287  -42.4596   -4.4533 C   0  0  0  0  0  0  0  0  0  0  0  0
  -21.7426  -41.4288   -3.4729 C   0  0  0  0  0  0  0  0  0  0  0  0
  -21.8879  -42.0081   -5.7980 C   0  0  0  0  0  0  0  0  0  0  0  0
  -21.4271  -40.7261   -6.0627 C   0  0  0  0  0  0  0  0  0  0  0  0
  -21.0220  -40.3188   -7.2978 C   0  0  0  0  0  0  0  0  0  0  0  0
  -21.0593  -41.1957   -8.3514 C   0  0  0  0  0  0  0  0  0  0  0  0
  -21.5148  -42.4827   -8.1175 C   0  0  0  0  0  0  0  0  0  0  0  0
  -21.9220  -42.8807   -6.8614 C   0  0  0  0  0  0  0  0  0  0  0  0
  -20.5527  -38.9195   -7.4990 C   0  0  0  0  0  0  0  0  0  0  0  0
  -21.5545  -38.0959   -8.2576 C   0  0  0  0  0  0  0  0  0  0  0  0
  -20.6376  -38.2906   -6.0622 C   0  0  0  0  0  0  0  0  0  0  0  0
  -19.2698  -38.7578   -7.9272 N   0  0  0  0  0  0  0  0  0  0  0  0
  -18.0674  -39.1295   -7.4063 C   0  0  0  0  0  0  0  0  0  0  0  0
  -16.7570  -38.8406   -7.9931 C   0  0  1  0  0  0  0  0  0  0  0  0
  -16.0232  -37.7951   -7.4771 O   0  0  0  0  0  0  0  0  0  0  0  0
  -15.8211  -40.0154   -8.2122 C   0  0  2  0  0  0  0  0  0  0  0  0
  -14.9727  -39.8913   -9.4312 C   0  0  0  0  0  0  0  0  0  0  0  0
  -13.9294  -38.7760   -9.2247 C   0  0  2  0  0  0  0  0  0  0  0  0
  -14.0853  -37.6664  -10.2361 C   0  0  0  0  0  0  0  0  0  0  0  0
  -12.5134  -39.3401   -9.2483 C   0  0  0  0  0  0  0  0  0  0  0  0
  -11.7144  -38.9100  -10.4328 C   0  0  0  0  0  0  0  0  0  0  0  0
  -11.0736  -40.1397  -11.0530 C   0  0  0  0  0  0  0  0  0  0  0  0
  -11.3750  -40.2137  -12.5213 C   0  0  0  0  0  0  0  0  0  0  0  0
  -12.1182  -41.4485  -12.9237 C   0  0  0  0  0  0  0  0  0  0  0  0
  -13.1812  -41.0868  -13.9609 C   0  0  0  0  0  0  0  0  0  0  0  0
  -14.4877  -40.7251  -13.2542 C   0  0  0  0  0  0  0  0  0  0  0  0
  -15.3249  -41.9044  -13.3224 N   0  0  0  0  0  0  0  0  0  0  0  0
  -15.7478  -42.6767  -12.2166 C   0  0  0  0  0  0  0  0  0  0  0  0
  -15.7918  -44.0621  -12.4000 C   0  0  0  0  0  0  0  0  0  0  0  0
  -16.1907  -44.8780  -11.3679 C   0  0  0  0  0  0  0  0  0  0  0  0
  -16.5295  -44.2690  -10.1941 C   0  0  0  0  0  0  0  0  0  0  0  0
  -16.4936  -42.8738   -9.9848 C   0  0  0  0  0  0  0  0  0  0  0  0
  -16.0954  -42.1864  -11.0436 N   0  0  0  0  0  0  0  0  0  0  0  0
  -16.8888  -42.3271   -8.6962 C   0  0  0  0  0  0  0  0  0  0  0  0
  -17.9003  -42.9856   -8.2035 O   0  0  0  0  0  0  0  0  0  0  0  0
  -16.4074  -41.2762   -7.9233 N   0  0  0  0  0  0  0  0  0  0  0  0
  1  2  1  0
  2  3  1  0
  2  4  1  0
  4  5  2  0
  5  6  1  0
  6  7  2  0
  7  8  1  0
  8  9  2  0
  6 10  1  0
 10 11  1  0
 10 12  1  0
 10 13  1  0
 13 14  1  0
 14 15  1  0
 15 16  1  1
 15 17  1  0
 17 18  1  6
 18 19  1  0
 19 20  1  6
 19 21  1  0
 21 22  1  0
 22 23  1  0
 23 24  1  0
 24 25  1  0
 25 26  1  0
 26 27  1  0
 27 28  1  0
 28 29  1  0
 29 30  2  0
 30 31  1  0
 31 32  2  0
 32 33  1  0
 33 34  2  0
 33 35  1  0
 35 36  2  0
 35 37  1  0
  9  4  1  0
 34 29  1  0
 37 17  1  0
M  END
$$$$
