
     RDKit          3D

 37 39  0  0  0  0  0  0  0  0999 V2000
  -11.9269  -36.9033  -14.4187 C   0  0  0  0  0  0  0  0  0  0  0  0
  -12.7792  -38.1454  -14.5285 C   0  0  0  0  0  0  0  0  0  0  0  0
  -14.1623  -37.6769  -15.0131 C   0  0  0  0  0  0  0  0  0  0  0  0
  -13.0241  -38.7636  -13.2002 C   0  0  0  0  0  0  0  0  0  0  0  0
  -13.3309  -38.0338  -12.0604 C   0  0  0  0  0  0  0  0  0  0  0  0
  -13.5567  -38.6069  -10.8455 C   0  0  0  0  0  0  0  0  0  0  0  0
  -13.4849  -39.9695  -10.7103 C   0  0  0  0  0  0  0  0  0  0  0  0
  -13.1805  -40.7245  -11.8309 C   0  0  0  0  0  0  0  0  0  0  0  0
  -12.9540  -40.1302  -13.0546 C   0  0  0  0  0  0  0  0  0  0  0  0
  -13.8680  -37.7488   -9.6684 C   0  0  0  0  0  0  0  0  0  0  0  0
  -12.9501  -36.5625   -9.5811 C   0  0  0  0  0  0  0  0  0  0  0  0
  -15.2334  -37.0742  -10.0531 C   0  0  0  0  0  0  0  0  0  0  0  0
  -14.0611  -38.3843   -8.4792 N   0  0  0  0  0  0  0  0  0  0  0  0
  -14.7707  -39.4926   -8.1276 C   0  0  0  0  0  0  0  0  0  0  0  0
  -16.0825  -39.4950   -7.4765 C   0  0  1  0  0  0  0  0  0  0  0  0
  -16.4224  -38.4224   -6.6818 O   0  0  0  0  0  0  0  0  0  0  0  0
  -17.2825  -39.8488   -8.3360 C   0  0  2  0  0  0  0  0  0  0  0  0
  -18.5186  -40.1391   -7.5556 C   0  0  0  0  0  0  0  0  0  0  0  0
  -19.0443  -38.8394   -6.9156 C   0  0  2  0  0  0  0  0  0  0  0  0
  -19.0743  -38.9270   -5.4090 C   0  0  0  0  0  0  0  0  0  0  0  0
  -20.4172  -38.4739   -7.4679 C   0  0  0  0  0  0  0  0  0  0  0  0
  -21.5181  -38.5895   -6.4674 C   0  0  0  0  0  0  0  0  0  0  0  0
  -22.6544  -39.3810   -7.0917 C   0  0  0  0  0  0  0  0  0  0  0  0
  -23.0599  -40.5209   -6.2037 C   0  0  0  0  0  0  0  0  0  0  0  0
  -22.9092  -41.8662   -6.8414 C   0  0  0  0  0  0  0  0  0  0  0  0
  -22.3585  -42.8564   -5.8153 C   0  0  0  0  0  0  0  0  0  0  0  0
  -20.8303  -42.8440   -5.8570 C   0  0  0  0  0  0  0  0  0  0  0  0
  -20.4376  -43.9887   -6.6519 N   0  0  0  0  0  0  0  0  0  0  0  0
  -19.7819  -43.9340   -7.9030 C   0  0  0  0  0  0  0  0  0  0  0  0
  -20.1754  -44.8760   -8.8584 C   0  0  0  0  0  0  0  0  0  0  0  0
  -19.5840  -44.8821  -10.0994 C   0  0  0  0  0  0  0  0  0  0  0  0
  -18.6213  -43.9421  -10.3299 C   0  0  0  0  0  0  0  0  0  0  0  0
  -18.2069  -42.9818   -9.3824 C   0  0  0  0  0  0  0  0  0  0  0  0
  -18.8421  -43.0677   -8.2242 N   0  0  0  0  0  0  0  0  0  0  0  0
  -17.1609  -42.0320   -9.7278 C   0  0  0  0  0  0  0  0  0  0  0  0
  -16.2393  -42.6007  -10.4536 O   0  0  0  0  0  0  0  0  0  0  0  0
  -16.9694  -40.6851   -9.4403 N   0  0  0  0  0  0  0  0  0  0  0  0
  1  2  1  0
  2  3  1  0
  2  4  1  0
  4  5  2  0
  5  6  1  0
  6  7  2  0
  7  8  1  0
  8  9  2  0
  6 10  1  0
 10 11  1  0
 10 12  1  0
 10 13  1  0
 13 14  1  0
 14 15  1  0
 15 16  1  6
 15 17  1  0
 17 18  1  1
 18 19  1  0
 19 20  1  1
 19 21  1  0
 21 22  1  0
 22 23  1  0
 23 24  1  0
 24 25  1  0
 25 26  1  0
 26 27  1  0
 27 28  1  0
 28 29  1  0
 29 30  2  0
 30 31  1  0
 31 32  2  0
 32 33  1  0
 33 34  2  0
 33 35  1  0
 35 36  2  0
 35 37  1  0
  9  4  1  0
 34 29  1  0
 37 17  1  0
M  END
$$$$
