
     RDKit          3D

 37 39  0  0  0  0  0  0  0  0999 V2000
  -19.1613  -36.0078  -10.6774 C   0  0  0  0  0  0  0  0  0  0  0  0
  -18.6023  -35.4402  -11.9607 C   0  0  0  0  0  0  0  0  0  0  0  0
  -19.5292  -35.9291  -13.0872 C   0  0  0  0  0  0  0  0  0  0  0  0
  -17.2697  -36.0128  -12.2808 C   0  0  0  0  0  0  0  0  0  0  0  0
  -16.5099  -36.7385  -11.3741 C   0  0  0  0  0  0  0  0  0  0  0  0
  -15.2892  -37.2631  -11.6746 C   0  0  0  0  0  0  0  0  0  0  0  0
  -14.7585  -37.0825  -12.9260 C   0  0  0  0  0  0  0  0  0  0  0  0
  -15.4942  -36.3622  -13.8525 C   0  0  0  0  0  0  0  0  0  0  0  0
  -16.7288  -35.8366  -13.5338 C   0  0  0  0  0  0  0  0  0  0  0  0
  -14.5327  -38.0191  -10.6378 C   0  0  0  0  0  0  0  0  0  0  0  0
  -13.3273  -38.7070  -11.2135 C   0  0  0  0  0  0  0  0  0  0  0  0
  -13.8756  -36.8917   -9.7636 C   0  0  0  0  0  0  0  0  0  0  0  0
  -15.2619  -38.8008   -9.7937 N   0  0  0  0  0  0  0  0  0  0  0  0
  -15.2244  -38.9910   -8.4454 C   0  0  0  0  0  0  0  0  0  0  0  0
  -16.3616  -39.3732   -7.6054 C   0  0  1  0  0  0  0  0  0  0  0  0
  -16.8210  -38.4696   -6.6725 O   0  0  0  0  0  0  0  0  0  0  0  0
  -17.5616  -39.9891   -8.3015 C   0  0  2  0  0  0  0  0  0  0  0  0
  -18.6320  -40.4433   -7.3691 C   0  0  0  0  0  0  0  0  0  0  0  0
  -19.3155  -39.2191   -6.7295 C   0  0  2  0  0  0  0  0  0  0  0  0
  -19.1665  -39.2132   -5.2274 C   0  0  0  0  0  0  0  0  0  0  0  0
  -20.7836  -39.1396   -7.1320 C   0  0  0  0  0  0  0  0  0  0  0  0
  -21.7302  -39.3840   -6.0048 C   0  0  0  0  0  0  0  0  0  0  0  0
  -22.7623  -40.4033   -6.4557 C   0  0  0  0  0  0  0  0  0  0  0  0
  -22.8533  -41.5374   -5.4770 C   0  0  0  0  0  0  0  0  0  0  0  0
  -22.5276  -42.8728   -6.0682 C   0  0  0  0  0  0  0  0  0  0  0  0
  -21.6971  -43.6812   -5.0716 C   0  0  0  0  0  0  0  0  0  0  0  0
  -20.2107  -43.4003   -5.2932 C   0  0  0  0  0  0  0  0  0  0  0  0
  -19.7023  -44.5060   -6.0777 N   0  0  0  0  0  0  0  0  0  0  0  0
  -19.2064  -44.4166   -7.3984 C   0  0  0  0  0  0  0  0  0  0  0  0
  -19.5206  -45.4732   -8.2586 C   0  0  0  0  0  0  0  0  0  0  0  0
  -19.0753  -45.4542   -9.5590 C   0  0  0  0  0  0  0  0  0  0  0  0
  -18.3323  -44.3751   -9.9423 C   0  0  0  0  0  0  0  0  0  0  0  0
  -18.0018  -43.2973   -9.0932 C   0  0  0  0  0  0  0  0  0  0  0  0
  -18.4819  -43.4197   -7.8657 N   0  0  0  0  0  0  0  0  0  0  0  0
  -17.1915  -42.2012   -9.6006 C   0  0  0  0  0  0  0  0  0  0  0  0
  -16.2647  -42.6429  -10.4041 O   0  0  0  0  0  0  0  0  0  0  0  0
  -17.2209  -40.8260   -9.3971 N   0  0  0  0  0  0  0  0  0  0  0  0
  1  2  1  0
  2  3  1  0
  2  4  1  0
  4  5  2  0
  5  6  1  0
  6  7  2  0
  7  8  1  0
  8  9  2  0
  6 10  1  0
 10 11  1  0
 10 12  1  0
 10 13  1  0
 13 14  1  0
 14 15  1  0
 15 16  1  6
 15 17  1  0
 17 18  1  1
 18 19  1  0
 19 20  1  1
 19 21  1  0
 21 22  1  0
 22 23  1  0
 23 24  1  0
 24 25  1  0
 25 26  1  0
 26 27  1  0
 27 28  1  0
 28 29  1  0
 29 30  2  0
 30 31  1  0
 31 32  2  0
 32 33  1  0
 33 34  2  0
 33 35  1  0
 35 36  2  0
 35 37  1  0
  9  4  1  0
 34 29  1  0
 37 17  1  0
M  END
$$$$
