
     RDKit          3D

 37 39  0  0  0  0  0  0  0  0999 V2000
  -15.2449  -33.9967  -11.9147 C   0  0  0  0  0  0  0  0  0  0  0  0
  -14.5342  -34.9080  -10.9421 C   0  0  0  0  0  0  0  0  0  0  0  0
  -13.0362  -34.5766  -11.0579 C   0  0  0  0  0  0  0  0  0  0  0  0
  -14.6466  -36.3341  -11.3420 C   0  0  0  0  0  0  0  0  0  0  0  0
  -14.1655  -37.3852  -10.5741 C   0  0  0  0  0  0  0  0  0  0  0  0
  -14.2737  -38.6914  -10.9453 C   0  0  0  0  0  0  0  0  0  0  0  0
  -14.8832  -39.0154  -12.1301 C   0  0  0  0  0  0  0  0  0  0  0  0
  -15.3734  -37.9871  -12.9180 C   0  0  0  0  0  0  0  0  0  0  0  0
  -15.2562  -36.6691  -12.5293 C   0  0  0  0  0  0  0  0  0  0  0  0
  -13.7182  -39.7590  -10.0676 C   0  0  0  0  0  0  0  0  0  0  0  0
  -13.8475  -41.1203  -10.6902 C   0  0  0  0  0  0  0  0  0  0  0  0
  -12.1671  -39.5199  -10.1307 C   0  0  0  0  0  0  0  0  0  0  0  0
  -14.0722  -39.7190   -8.7529 N   0  0  0  0  0  0  0  0  0  0  0  0
  -14.9379  -38.9351   -8.0519 C   0  0  0  0  0  0  0  0  0  0  0  0
  -16.0761  -39.4135   -7.2641 C   0  0  1  0  0  0  0  0  0  0  0  0
  -16.5778  -38.5976   -6.2740 O   0  0  0  0  0  0  0  0  0  0  0  0
  -17.2454  -40.0096   -8.0266 C   0  0  2  0  0  0  0  0  0  0  0  0
  -18.5462  -39.9162   -7.3052 C   0  0  0  0  0  0  0  0  0  0  0  0
  -19.0053  -38.4459   -7.2533 C   0  0  2  0  0  0  0  0  0  0  0  0
  -19.1345  -37.9472   -5.8345 C   0  0  0  0  0  0  0  0  0  0  0  0
  -20.3085  -38.2522   -8.0201 C   0  0  0  0  0  0  0  0  0  0  0  0
  -21.4743  -37.9201   -7.1501 C   0  0  0  0  0  0  0  0  0  0  0  0
  -22.6294  -38.8328   -7.5246 C   0  0  0  0  0  0  0  0  0  0  0  0
  -23.1778  -39.5230   -6.3100 C   0  0  0  0  0  0  0  0  0  0  0  0
  -23.0955  -41.0157   -6.3751 C   0  0  0  0  0  0  0  0  0  0  0  0
  -22.6891  -41.5627   -5.0068 C   0  0  0  0  0  0  0  0  0  0  0  0
  -21.1651  -41.6435   -4.9170 C   0  0  0  0  0  0  0  0  0  0  0  0
  -20.8164  -43.0235   -5.1818 N   0  0  0  0  0  0  0  0  0  0  0  0
  -20.0830  -43.4858   -6.2983 C   0  0  0  0  0  0  0  0  0  0  0  0
  -20.4906  -44.7014   -6.8561 C   0  0  0  0  0  0  0  0  0  0  0  0
  -19.8265  -45.2125   -7.9459 C   0  0  0  0  0  0  0  0  0  0  0  0
  -18.7800  -44.4822   -8.4305 C   0  0  0  0  0  0  0  0  0  0  0  0
  -18.3496  -43.2539   -7.8849 C   0  0  0  0  0  0  0  0  0  0  0  0
  -19.0594  -42.8570   -6.8405 N   0  0  0  0  0  0  0  0  0  0  0  0
  -17.2123  -42.5627   -8.4718 C   0  0  0  0  0  0  0  0  0  0  0  0
  -16.2959  -43.4116   -8.8451 O   0  0  0  0  0  0  0  0  0  0  0  0
  -16.9325  -41.2200   -8.7002 N   0  0  0  0  0  0  0  0  0  0  0  0
  1  2  1  0
  2  3  1  0
  2  4  1  0
  4  5  2  0
  5  6  1  0
  6  7  2  0
  7  8  1  0
  8  9  2  0
  6 10  1  0
 10 11  1  0
 10 12  1  0
 10 13  1  0
 13 14  1  0
 14 15  1  0
 15 16  1  6
 15 17  1  0
 17 18  1  1
 18 19  1  0
 19 20  1  1
 19 21  1  0
 21 22  1  0
 22 23  1  0
 23 24  1  0
 24 25  1  0
 25 26  1  0
 26 27  1  0
 27 28  1  0
 28 29  1  0
 29 30  2  0
 30 31  1  0
 31 32  2  0
 32 33  1  0
 33 34  2  0
 33 35  1  0
 35 36  2  0
 35 37  1  0
  9  4  1  0
 34 29  1  0
 37 17  1  0
M  END
$$$$
