
     RDKit          3D

 37 39  0  0  0  0  0  0  0  0999 V2000
  -12.0250  -35.5536  -11.8549 C   0  0  0  0  0  0  0  0  0  0  0  0
  -13.4731  -35.7694  -12.2263 C   0  0  0  0  0  0  0  0  0  0  0  0
  -14.3055  -35.0791  -11.1319 C   0  0  0  0  0  0  0  0  0  0  0  0
  -13.8518  -37.2038  -12.1530 C   0  0  0  0  0  0  0  0  0  0  0  0
  -13.4667  -38.0459  -11.1193 C   0  0  0  0  0  0  0  0  0  0  0  0
  -13.8193  -39.3602  -11.0566 C   0  0  0  0  0  0  0  0  0  0  0  0
  -14.5925  -39.9070  -12.0483 C   0  0  0  0  0  0  0  0  0  0  0  0
  -14.9923  -39.0905  -13.0933 C   0  0  0  0  0  0  0  0  0  0  0  0
  -14.6272  -37.7616  -13.1435 C   0  0  0  0  0  0  0  0  0  0  0  0
  -13.3522  -40.1985   -9.9174 C   0  0  0  0  0  0  0  0  0  0  0  0
  -13.1065  -41.6215  -10.3323 C   0  0  0  0  0  0  0  0  0  0  0  0
  -11.8928  -39.6819   -9.6518 C   0  0  0  0  0  0  0  0  0  0  0  0
  -14.0352  -40.0769   -8.7451 N   0  0  0  0  0  0  0  0  0  0  0  0
  -15.0457  -39.2561   -8.3446 C   0  0  0  0  0  0  0  0  0  0  0  0
  -16.2126  -39.6605   -7.5574 C   0  0  1  0  0  0  0  0  0  0  0  0
  -16.6319  -38.8372   -6.5356 O   0  0  0  0  0  0  0  0  0  0  0  0
  -17.4368  -40.1291   -8.3229 C   0  0  2  0  0  0  0  0  0  0  0  0
  -18.7058  -40.0340   -7.5472 C   0  0  0  0  0  0  0  0  0  0  0  0
  -19.0845  -38.5527   -7.3532 C   0  0  2  0  0  0  0  0  0  0  0  0
  -19.1395  -38.1733   -5.8933 C   0  0  0  0  0  0  0  0  0  0  0  0
  -20.4006  -38.2285   -8.0507 C   0  0  0  0  0  0  0  0  0  0  0  0
  -21.5174  -37.9154   -7.1120 C   0  0  0  0  0  0  0  0  0  0  0  0
  -22.7311  -38.7334   -7.5185 C   0  0  0  0  0  0  0  0  0  0  0  0
  -23.2741  -39.4983   -6.3470 C   0  0  0  0  0  0  0  0  0  0  0  0
  -23.2732  -40.9819   -6.5418 C   0  0  0  0  0  0  0  0  0  0  0  0
  -22.8507  -41.6652   -5.2414 C   0  0  0  0  0  0  0  0  0  0  0  0
  -21.3309  -41.8294   -5.2166 C   0  0  0  0  0  0  0  0  0  0  0  0
  -21.0649  -43.1969   -5.6108 N   0  0  0  0  0  0  0  0  0  0  0  0
  -20.3948  -43.5965   -6.7896 C   0  0  0  0  0  0  0  0  0  0  0  0
  -20.8847  -44.7372   -7.4329 C   0  0  0  0  0  0  0  0  0  0  0  0
  -20.2855  -45.1843   -8.5866 C   0  0  0  0  0  0  0  0  0  0  0  0
  -19.2186  -44.4677   -9.0467 C   0  0  0  0  0  0  0  0  0  0  0  0
  -18.7058  -43.3144   -8.4155 C   0  0  0  0  0  0  0  0  0  0  0  0
  -19.3581  -42.9748   -7.3149 N   0  0  0  0  0  0  0  0  0  0  0  0
  -17.5538  -42.6325   -8.9843 C   0  0  0  0  0  0  0  0  0  0  0  0
  -16.6967  -43.4903   -9.4629 O   0  0  0  0  0  0  0  0  0  0  0  0
  -17.2111  -41.2906   -9.1083 N   0  0  0  0  0  0  0  0  0  0  0  0
  1  2  1  0
  2  3  1  0
  2  4  1  0
  4  5  2  0
  5  6  1  0
  6  7  2  0
  7  8  1  0
  8  9  2  0
  6 10  1  0
 10 11  1  0
 10 12  1  0
 10 13  1  0
 13 14  1  0
 14 15  1  0
 15 16  1  6
 15 17  1  0
 17 18  1  1
 18 19  1  0
 19 20  1  1
 19 21  1  0
 21 22  1  0
 22 23  1  0
 23 24  1  0
 24 25  1  0
 25 26  1  0
 26 27  1  0
 27 28  1  0
 28 29  1  0
 29 30  2  0
 30 31  1  0
 31 32  2  0
 32 33  1  0
 33 34  2  0
 33 35  1  0
 35 36  2  0
 35 37  1  0
  9  4  1  0
 34 29  1  0
 37 17  1  0
M  END
$$$$
