
     RDKit          3D

 37 39  0  0  0  0  0  0  0  0999 V2000
  -12.2426  -34.5852  -11.1358 C   0  0  0  0  0  0  0  0  0  0  0  0
  -13.5008  -34.9580  -11.8837 C   0  0  0  0  0  0  0  0  0  0  0  0
  -14.6715  -34.6660  -10.9289 C   0  0  0  0  0  0  0  0  0  0  0  0
  -13.5719  -36.4180  -12.1473 C   0  0  0  0  0  0  0  0  0  0  0  0
  -13.5214  -37.3801  -11.1483 C   0  0  0  0  0  0  0  0  0  0  0  0
  -13.5894  -38.7178  -11.3964 C   0  0  0  0  0  0  0  0  0  0  0  0
  -13.7145  -39.1669  -12.6859 C   0  0  0  0  0  0  0  0  0  0  0  0
  -13.7675  -38.2296  -13.7044 C   0  0  0  0  0  0  0  0  0  0  0  0
  -13.6971  -36.8783  -13.4380 C   0  0  0  0  0  0  0  0  0  0  0  0
  -13.5150  -39.6851  -10.2661 C   0  0  0  0  0  0  0  0  0  0  0  0
  -13.2704  -41.0883  -10.7443 C   0  0  0  0  0  0  0  0  0  0  0  0
  -12.1501  -39.3373   -9.5708 C   0  0  0  0  0  0  0  0  0  0  0  0
  -14.4818  -39.5894   -9.3113 N   0  0  0  0  0  0  0  0  0  0  0  0
  -15.5709  -38.7827   -9.1760 C   0  0  0  0  0  0  0  0  0  0  0  0
  -16.6792  -38.9945   -8.2423 C   0  0  1  0  0  0  0  0  0  0  0  0
  -17.1401  -37.9184   -7.5162 O   0  0  0  0  0  0  0  0  0  0  0  0
  -17.8787  -39.7709   -8.7547 C   0  0  2  0  0  0  0  0  0  0  0  0
  -18.9648  -39.9364   -7.7476 C   0  0  0  0  0  0  0  0  0  0  0  0
  -19.6406  -38.5763   -7.4862 C   0  0  2  0  0  0  0  0  0  0  0  0
  -19.5083  -38.1509   -6.0440 C   0  0  0  0  0  0  0  0  0  0  0  0
  -21.1031  -38.6005   -7.9154 C   0  0  0  0  0  0  0  0  0  0  0  0
  -22.0650  -38.5113   -6.7783 C   0  0  0  0  0  0  0  0  0  0  0  0
  -23.1042  -39.6074   -6.9401 C   0  0  0  0  0  0  0  0  0  0  0  0
  -23.2197  -40.4209   -5.6841 C   0  0  0  0  0  0  0  0  0  0  0  0
  -22.9034  -41.8712   -5.8729 C   0  0  0  0  0  0  0  0  0  0  0  0
  -22.0938  -42.3747   -4.6781 C   0  0  0  0  0  0  0  0  0  0  0  0
  -20.6018  -42.1797   -4.9487 C   0  0  0  0  0  0  0  0  0  0  0  0
  -20.0979  -43.4651   -5.3847 N   0  0  0  0  0  0  0  0  0  0  0  0
  -19.5864  -43.7537   -6.6705 C   0  0  0  0  0  0  0  0  0  0  0  0
  -19.9037  -45.0064   -7.2045 C   0  0  0  0  0  0  0  0  0  0  0  0
  -19.4437  -45.3564   -8.4518 C   0  0  0  0  0  0  0  0  0  0  0  0
  -18.6836  -44.4343   -9.1115 C   0  0  0  0  0  0  0  0  0  0  0  0
  -18.3497  -43.1645   -8.5939 C   0  0  0  0  0  0  0  0  0  0  0  0
  -18.8448  -42.9339   -7.3881 N   0  0  0  0  0  0  0  0  0  0  0  0
  -17.5207  -42.2614   -9.3767 C   0  0  0  0  0  0  0  0  0  0  0  0
  -16.5903  -42.9183  -10.0111 O   0  0  0  0  0  0  0  0  0  0  0  0
  -17.5359  -40.8841   -9.5670 N   0  0  0  0  0  0  0  0  0  0  0  0
  1  2  1  0
  2  3  1  0
  2  4  1  0
  4  5  2  0
  5  6  1  0
  6  7  2  0
  7  8  1  0
  8  9  2  0
  6 10  1  0
 10 11  1  0
 10 12  1  0
 10 13  1  0
 13 14  1  0
 14 15  1  0
 15 16  1  6
 15 17  1  0
 17 18  1  1
 18 19  1  0
 19 20  1  1
 19 21  1  0
 21 22  1  0
 22 23  1  0
 23 24  1  0
 24 25  1  0
 25 26  1  0
 26 27  1  0
 27 28  1  0
 28 29  1  0
 29 30  2  0
 30 31  1  0
 31 32  2  0
 32 33  1  0
 33 34  2  0
 33 35  1  0
 35 36  2  0
 35 37  1  0
  9  4  1  0
 34 29  1  0
 37 17  1  0
M  END
$$$$
