
     RDKit          3D

 37 39  0  0  0  0  0  0  0  0999 V2000
  -14.1936  -33.4426  -12.0263 C   0  0  0  0  0  0  0  0  0  0  0  0
  -13.5269  -34.3016  -10.9779 C   0  0  0  0  0  0  0  0  0  0  0  0
  -12.0224  -33.9899  -11.0593 C   0  0  0  0  0  0  0  0  0  0  0  0
  -13.6400  -35.7475  -11.2983 C   0  0  0  0  0  0  0  0  0  0  0  0
  -13.4388  -36.7565  -10.3670 C   0  0  0  0  0  0  0  0  0  0  0  0
  -13.5463  -38.0810  -10.6666 C   0  0  0  0  0  0  0  0  0  0  0  0
  -13.8681  -38.4678  -11.9421 C   0  0  0  0  0  0  0  0  0  0  0  0
  -14.0749  -37.4827  -12.8935 C   0  0  0  0  0  0  0  0  0  0  0  0
  -13.9623  -36.1455  -12.5756 C   0  0  0  0  0  0  0  0  0  0  0  0
  -13.3012  -39.1015   -9.6095 C   0  0  0  0  0  0  0  0  0  0  0  0
  -12.4464  -40.2318  -10.1088 C   0  0  0  0  0  0  0  0  0  0  0  0
  -12.3282  -38.3754   -8.6128 C   0  0  0  0  0  0  0  0  0  0  0  0
  -14.3811  -39.5064   -8.8848 N   0  0  0  0  0  0  0  0  0  0  0  0
  -15.6970  -39.6673   -9.1978 C   0  0  0  0  0  0  0  0  0  0  0  0
  -16.8236  -39.4486   -8.2879 C   0  0  1  0  0  0  0  0  0  0  0  0
  -17.0312  -38.1794   -7.7940 O   0  0  0  0  0  0  0  0  0  0  0  0
  -18.1670  -40.0251   -8.6967 C   0  0  2  0  0  0  0  0  0  0  0  0
  -19.1338  -40.1583   -7.5703 C   0  0  0  0  0  0  0  0  0  0  0  0
  -19.5912  -38.7598   -7.1121 C   0  0  2  0  0  0  0  0  0  0  0  0
  -19.2295  -38.4944   -5.6709 C   0  0  0  0  0  0  0  0  0  0  0  0
  -21.0860  -38.5700   -7.3429 C   0  0  0  0  0  0  0  0  0  0  0  0
  -21.8819  -38.4786   -6.0841 C   0  0  0  0  0  0  0  0  0  0  0  0
  -23.0659  -39.4239   -6.1938 C   0  0  0  0  0  0  0  0  0  0  0  0
  -23.1309  -40.3358   -5.0035 C   0  0  0  0  0  0  0  0  0  0  0  0
  -23.0302  -41.7881   -5.3494 C   0  0  0  0  0  0  0  0  0  0  0  0
  -22.1523  -42.4967   -4.3179 C   0  0  0  0  0  0  0  0  0  0  0  0
  -20.6920  -42.4534   -4.7685 C   0  0  0  0  0  0  0  0  0  0  0  0
  -20.4157  -43.7410   -5.3703 N   0  0  0  0  0  0  0  0  0  0  0  0
  -20.1069  -43.9620   -6.7319 C   0  0  0  0  0  0  0  0  0  0  0  0
  -20.6463  -45.1111   -7.3182 C   0  0  0  0  0  0  0  0  0  0  0  0
  -20.3915  -45.3905   -8.6399 C   0  0  0  0  0  0  0  0  0  0  0  0
  -19.6051  -44.5048   -9.3185 C   0  0  0  0  0  0  0  0  0  0  0  0
  -19.0492  -43.3392   -8.7491 C   0  0  0  0  0  0  0  0  0  0  0  0
  -19.3590  -43.1696   -7.4734 N   0  0  0  0  0  0  0  0  0  0  0  0
  -18.2126  -42.4685   -9.5600 C   0  0  0  0  0  0  0  0  0  0  0  0
  -17.4595  -43.1659  -10.3639 O   0  0  0  0  0  0  0  0  0  0  0  0
  -18.0729  -41.0871   -9.6347 N   0  0  0  0  0  0  0  0  0  0  0  0
  1  2  1  0
  2  3  1  0
  2  4  1  0
  4  5  2  0
  5  6  1  0
  6  7  2  0
  7  8  1  0
  8  9  2  0
  6 10  1  0
 10 11  1  0
 10 12  1  0
 10 13  1  0
 13 14  1  0
 14 15  1  0
 15 16  1  6
 15 17  1  0
 17 18  1  1
 18 19  1  0
 19 20  1  1
 19 21  1  0
 21 22  1  0
 22 23  1  0
 23 24  1  0
 24 25  1  0
 25 26  1  0
 26 27  1  0
 27 28  1  0
 28 29  1  0
 29 30  2  0
 30 31  1  0
 31 32  2  0
 32 33  1  0
 33 34  2  0
 33 35  1  0
 35 36  2  0
 35 37  1  0
  9  4  1  0
 34 29  1  0
 37 17  1  0
M  END
$$$$
