
     RDKit          3D

 37 39  0  0  0  0  0  0  0  0999 V2000
  -12.8078  -34.0252  -12.6043 C   0  0  0  0  0  0  0  0  0  0  0  0
  -13.6134  -34.5229  -11.4275 C   0  0  0  0  0  0  0  0  0  0  0  0
  -12.6154  -34.7122  -10.2720 C   0  0  0  0  0  0  0  0  0  0  0  0
  -14.1757  -35.8747  -11.6781 C   0  0  0  0  0  0  0  0  0  0  0  0
  -13.7127  -37.0246  -11.0541 C   0  0  0  0  0  0  0  0  0  0  0  0
  -14.2342  -38.2613  -11.2865 C   0  0  0  0  0  0  0  0  0  0  0  0
  -15.2682  -38.4097  -12.1748 C   0  0  0  0  0  0  0  0  0  0  0  0
  -15.7515  -37.2794  -12.8131 C   0  0  0  0  0  0  0  0  0  0  0  0
  -15.2132  -36.0335  -12.5680 C   0  0  0  0  0  0  0  0  0  0  0  0
  -13.6696  -39.4470  -10.5834 C   0  0  0  0  0  0  0  0  0  0  0  0
  -13.5048  -40.6205  -11.5071 C   0  0  0  0  0  0  0  0  0  0  0  0
  -12.1780  -39.0387  -10.3089 C   0  0  0  0  0  0  0  0  0  0  0  0
  -14.2209  -39.7670   -9.3796 N   0  0  0  0  0  0  0  0  0  0  0  0
  -15.0604  -39.0991   -8.5403 C   0  0  0  0  0  0  0  0  0  0  0  0
  -16.0726  -39.7137   -7.6786 C   0  0  1  0  0  0  0  0  0  0  0  0
  -16.3788  -39.0987   -6.4845 O   0  0  0  0  0  0  0  0  0  0  0  0
  -17.3701  -40.1494   -8.3351 C   0  0  2  0  0  0  0  0  0  0  0  0
  -18.5580  -40.0622   -7.4393 C   0  0  0  0  0  0  0  0  0  0  0  0
  -18.8977  -38.5830   -7.1720 C   0  0  2  0  0  0  0  0  0  0  0  0
  -18.8084  -38.2421   -5.7043 C   0  0  0  0  0  0  0  0  0  0  0  0
  -20.2702  -38.2270   -7.7317 C   0  0  0  0  0  0  0  0  0  0  0  0
  -21.2883  -37.9279   -6.6827 C   0  0  0  0  0  0  0  0  0  0  0  0
  -22.5455  -38.7225   -6.9920 C   0  0  0  0  0  0  0  0  0  0  0  0
  -22.9838  -39.5129   -5.7939 C   0  0  0  0  0  0  0  0  0  0  0  0
  -23.0201  -40.9907   -6.0258 C   0  0  0  0  0  0  0  0  0  0  0  0
  -22.4840  -41.7127   -4.7898 C   0  0  0  0  0  0  0  0  0  0  0  0
  -20.9710  -41.8927   -4.9149 C   0  0  0  0  0  0  0  0  0  0  0  0
  -20.7610  -43.2519   -5.3677 N   0  0  0  0  0  0  0  0  0  0  0  0
  -20.2116  -43.6265   -6.6151 C   0  0  0  0  0  0  0  0  0  0  0  0
  -20.7749  -44.7447   -7.2375 C   0  0  0  0  0  0  0  0  0  0  0  0
  -20.2943  -45.1668   -8.4543 C   0  0  0  0  0  0  0  0  0  0  0  0
  -19.2673  -44.4490   -8.9960 C   0  0  0  0  0  0  0  0  0  0  0  0
  -18.6820  -43.3181   -8.3874 C   0  0  0  0  0  0  0  0  0  0  0  0
  -19.2220  -43.0016   -7.2211 N   0  0  0  0  0  0  0  0  0  0  0  0
  -17.5812  -42.6329   -9.0462 C   0  0  0  0  0  0  0  0  0  0  0  0
  -16.7845  -43.4862   -9.6265 O   0  0  0  0  0  0  0  0  0  0  0  0
  -17.2350  -41.2917   -9.1680 N   0  0  0  0  0  0  0  0  0  0  0  0
  1  2  1  0
  2  3  1  0
  2  4  1  0
  4  5  2  0
  5  6  1  0
  6  7  2  0
  7  8  1  0
  8  9  2  0
  6 10  1  0
 10 11  1  0
 10 12  1  0
 10 13  1  0
 13 14  1  0
 14 15  1  0
 15 16  1  1
 15 17  1  0
 17 18  1  1
 18 19  1  0
 19 20  1  1
 19 21  1  0
 21 22  1  0
 22 23  1  0
 23 24  1  0
 24 25  1  0
 25 26  1  0
 26 27  1  0
 27 28  1  0
 28 29  1  0
 29 30  2  0
 30 31  1  0
 31 32  2  0
 32 33  1  0
 33 34  2  0
 33 35  1  0
 35 36  2  0
 35 37  1  0
  9  4  1  0
 34 29  1  0
 37 17  1  0
M  END
$$$$
