
     RDKit          3D

 37 39  0  0  0  0  0  0  0  0999 V2000
  -13.4953  -42.6107  -12.1910 C   0  0  0  0  0  0  0  0  0  0  0  0
  -12.5861  -41.8013  -13.0852 C   0  0  0  0  0  0  0  0  0  0  0  0
  -11.1819  -42.4124  -12.9375 C   0  0  0  0  0  0  0  0  0  0  0  0
  -12.4504  -40.4010  -12.6087 C   0  0  0  0  0  0  0  0  0  0  0  0
  -13.5129  -39.6495  -12.1267 C   0  0  0  0  0  0  0  0  0  0  0  0
  -13.3815  -38.3663  -11.6889 C   0  0  0  0  0  0  0  0  0  0  0  0
  -12.1518  -37.7600  -11.7128 C   0  0  0  0  0  0  0  0  0  0  0  0
  -11.0722  -38.4856  -12.1888 C   0  0  0  0  0  0  0  0  0  0  0  0
  -11.2206  -39.7840  -12.6292 C   0  0  0  0  0  0  0  0  0  0  0  0
  -14.5770  -37.6253  -11.1984 C   0  0  0  0  0  0  0  0  0  0  0  0
  -14.2019  -36.3238  -10.5481 C   0  0  0  0  0  0  0  0  0  0  0  0
  -15.2773  -37.1384  -12.5174 C   0  0  0  0  0  0  0  0  0  0  0  0
  -15.5008  -38.3432  -10.5009 N   0  0  0  0  0  0  0  0  0  0  0  0
  -16.3461  -38.0205   -9.4827 C   0  0  0  0  0  0  0  0  0  0  0  0
  -17.0107  -38.9732   -8.5908 C   0  0  1  0  0  0  0  0  0  0  0  0
  -17.3287  -38.5647   -7.3142 O   0  0  0  0  0  0  0  0  0  0  0  0
  -18.1940  -39.7399   -9.1530 C   0  0  2  0  0  0  0  0  0  0  0  0
  -19.2762  -39.9918   -8.1597 C   0  0  0  0  0  0  0  0  0  0  0  0
  -19.9800  -38.6654   -7.8129 C   0  0  2  0  0  0  0  0  0  0  0  0
  -19.8562  -38.3301   -6.3464 C   0  0  0  0  0  0  0  0  0  0  0  0
  -21.4417  -38.6924   -8.2445 C   0  0  0  0  0  0  0  0  0  0  0  0
  -22.4051  -38.6958   -7.1051 C   0  0  0  0  0  0  0  0  0  0  0  0
  -23.4214  -39.8006   -7.3376 C   0  0  0  0  0  0  0  0  0  0  0  0
  -23.5198  -40.6947   -6.1362 C   0  0  0  0  0  0  0  0  0  0  0  0
  -23.1736  -42.1232   -6.4167 C   0  0  0  0  0  0  0  0  0  0  0  0
  -22.3535  -42.6850   -5.2555 C   0  0  0  0  0  0  0  0  0  0  0  0
  -20.8659  -42.4423   -5.5113 C   0  0  0  0  0  0  0  0  0  0  0  0
  -20.3356  -43.6866   -6.0279 N   0  0  0  0  0  0  0  0  0  0  0  0
  -19.8184  -43.8820   -7.3288 C   0  0  0  0  0  0  0  0  0  0  0  0
  -20.1098  -45.1044   -7.9419 C   0  0  0  0  0  0  0  0  0  0  0  0
  -19.6429  -45.3646   -9.2085 C   0  0  0  0  0  0  0  0  0  0  0  0
  -18.9021  -44.3868   -9.8072 C   0  0  0  0  0  0  0  0  0  0  0  0
  -18.5945  -43.1460   -9.2093 C   0  0  0  0  0  0  0  0  0  0  0  0
  -19.0941  -43.0029   -7.9919 N   0  0  0  0  0  0  0  0  0  0  0  0
  -17.7846  -42.1778   -9.9320 C   0  0  0  0  0  0  0  0  0  0  0  0
  -16.8409  -42.7736  -10.6060 O   0  0  0  0  0  0  0  0  0  0  0  0
  -17.8283  -40.7918  -10.0342 N   0  0  0  0  0  0  0  0  0  0  0  0
  1  2  1  0
  2  3  1  0
  2  4  1  0
  4  5  2  0
  5  6  1  0
  6  7  2  0
  7  8  1  0
  8  9  2  0
  6 10  1  0
 10 11  1  0
 10 12  1  0
 10 13  1  0
 13 14  1  0
 14 15  1  0
 15 16  1  1
 15 17  1  0
 17 18  1  1
 18 19  1  0
 19 20  1  1
 19 21  1  0
 21 22  1  0
 22 23  1  0
 23 24  1  0
 24 25  1  0
 25 26  1  0
 26 27  1  0
 27 28  1  0
 28 29  1  0
 29 30  2  0
 30 31  1  0
 31 32  2  0
 32 33  1  0
 33 34  2  0
 33 35  1  0
 35 36  2  0
 35 37  1  0
  9  4  1  0
 34 29  1  0
 37 17  1  0
M  END
$$$$
