
     RDKit          3D

 41 44  0  0  0  0  0  0  0  0999 V2000
  -18.5943  -48.0522   -6.6189 C   0  0  0  0  0  0  0  0  0  0  0  0
  -17.5275  -47.4948   -7.2773 O   0  0  0  0  0  0  0  0  0  0  0  0
  -17.8200  -46.8421   -8.4516 C   0  0  0  0  0  0  0  0  0  0  0  0
  -17.0519  -45.5626   -8.4536 C   0  0  0  0  0  0  0  0  0  0  0  0
  -15.6990  -45.5209   -8.3069 C   0  0  0  0  0  0  0  0  0  0  0  0
  -14.9483  -44.3160   -8.2972 C   0  0  0  0  0  0  0  0  0  0  0  0
  -15.5968  -43.1063   -8.4420 C   0  0  0  0  0  0  0  0  0  0  0  0
  -16.9745  -43.1055   -8.5964 C   0  0  0  0  0  0  0  0  0  0  0  0
  -17.6689  -44.3500   -8.5966 C   0  0  0  0  0  0  0  0  0  0  0  0
  -17.9326  -41.9993   -8.7876 C   0  0  0  0  0  0  0  0  0  0  0  0
  -19.1000  -42.1454   -8.1682 O   0  0  0  0  0  0  0  0  0  0  0  0
  -17.9055  -40.7939   -9.4897 N   0  0  0  0  0  0  0  0  0  0  0  0
  -16.7858  -39.8373   -9.5266 C   0  0  1  0  0  0  0  0  0  0  0  0
  -16.8146  -38.9860  -10.7312 C   0  0  0  0  0  0  0  0  0  0  0  0
  -15.5645  -39.1037  -11.5831 C   0  0  2  0  0  0  0  0  0  0  0  0
  -15.8121  -38.4475  -12.9086 C   0  0  0  0  0  0  0  0  0  0  0  0
  -15.1803  -40.5450  -11.8102 C   0  0  0  0  0  0  0  0  0  0  0  0
  -13.7926  -40.8223  -11.3156 C   0  0  0  0  0  0  0  0  0  0  0  0
  -13.5909  -42.0960  -10.8015 O   0  0  0  0  0  0  0  0  0  0  0  0
  -12.2375  -42.2757  -10.5953 C   0  0  0  0  0  0  0  0  0  0  0  0
  -11.7690  -42.1648   -9.1871 C   0  0  0  0  0  0  0  0  0  0  0  0
  -11.8724  -42.7881   -8.0713 C   0  0  0  0  0  0  0  0  0  0  0  0
  -12.4899  -43.9799   -7.4375 C   0  0  0  0  0  0  0  0  0  0  0  0
  -13.5541  -44.6324   -8.1498 N   0  0  0  0  0  0  0  0  0  0  0  0
  -16.6763  -39.2059   -8.1952 C   0  0  2  0  0  0  0  0  0  0  0  0
  -15.9794  -39.9731   -7.2794 O   0  0  0  0  0  0  0  0  0  0  0  0
  -17.8512  -38.5571   -7.6000 C   0  0  0  0  0  0  0  0  0  0  0  0
  -18.5335  -39.2623   -6.6105 N   0  0  0  0  0  0  0  0  0  0  0  0
  -19.9297  -39.0020   -6.3943 C   0  0  0  0  0  0  0  0  0  0  0  0
  -20.7090  -39.4482   -5.2221 C   0  0  0  0  0  0  0  0  0  0  0  0
  -20.1874  -38.0678   -5.2017 C   0  0  0  0  0  0  0  0  0  0  0  0
  -20.6800  -38.5681   -7.5980 C   0  0  0  0  0  0  0  0  0  0  0  0
  -20.5852  -37.2851   -8.0986 C   0  0  0  0  0  0  0  0  0  0  0  0
  -21.2879  -36.8348   -9.1879 C   0  0  0  0  0  0  0  0  0  0  0  0
  -22.1404  -37.7066   -9.8258 C   0  0  0  0  0  0  0  0  0  0  0  0
  -22.2660  -38.9912   -9.3631 C   0  0  0  0  0  0  0  0  0  0  0  0
  -21.5288  -39.4129   -8.2446 C   0  0  0  0  0  0  0  0  0  0  0  0
  -21.1683  -35.4577   -9.7047 C   0  0  0  0  0  0  0  0  0  0  0  0
  -19.8453  -34.8421   -9.3139 C   0  0  0  0  0  0  0  0  0  0  0  0
  -21.2213  -35.4248  -11.2305 C   0  0  0  0  0  0  0  0  0  0  0  0
  -22.2677  -34.5612   -9.1780 C   0  0  0  0  0  0  0  0  0  0  0  0
  1  2  1  0
  2  3  1  0
  3  4  1  0
  4  5  2  0
  5  6  1  0
  6  7  2  0
  7  8  1  0
  8  9  2  0
  8 10  1  0
 10 11  2  0
 10 12  1  0
 12 13  1  0
 13 14  1  6
 14 15  1  0
 15 16  1  6
 15 17  1  0
 17 18  1  0
 18 19  1  0
 19 20  1  0
 20 21  1  0
 21 22  2  0
 22 23  1  0
 23 24  1  0
 13 25  1  0
 25 26  1  1
 25 27  1  0
 27 28  1  0
 28 29  1  0
 29 30  1  0
 30 31  1  0
 29 32  1  0
 32 33  2  0
 33 34  1  0
 34 35  2  0
 35 36  1  0
 36 37  2  0
 34 38  1  0
 38 39  1  0
 38 40  1  0
 38 41  1  0
  9  4  1  0
 24  6  1  0
 31 29  1  0
 37 32  1  0
M  END
$$$$
