
     RDKit          3D

 41 44  0  0  0  0  0  0  0  0999 V2000
  -17.0826  -46.2423  -14.0515 C   0  0  0  0  0  0  0  0  0  0  0  0
  -16.7145  -45.0047  -13.5876 O   0  0  0  0  0  0  0  0  0  0  0  0
  -15.3654  -44.7391  -13.5884 C   0  0  0  0  0  0  0  0  0  0  0  0
  -15.1073  -43.7393  -12.5109 C   0  0  0  0  0  0  0  0  0  0  0  0
  -13.8516  -43.4285  -12.0865 C   0  0  0  0  0  0  0  0  0  0  0  0
  -13.5821  -42.4876  -11.0581 C   0  0  0  0  0  0  0  0  0  0  0  0
  -14.6287  -41.8371  -10.4364 C   0  0  0  0  0  0  0  0  0  0  0  0
  -15.9233  -42.1238  -10.8413 C   0  0  0  0  0  0  0  0  0  0  0  0
  -16.1254  -43.0792  -11.8791 C   0  0  0  0  0  0  0  0  0  0  0  0
  -17.2246  -41.5918  -10.3921 C   0  0  0  0  0  0  0  0  0  0  0  0
  -18.2132  -42.4792  -10.3387 O   0  0  0  0  0  0  0  0  0  0  0  0
  -17.6821  -40.3341   -9.9974 N   0  0  0  0  0  0  0  0  0  0  0  0
  -16.9838  -39.4016   -9.0958 C   0  0  1  0  0  0  0  0  0  0  0  0
  -17.4045  -38.0024   -9.3007 C   0  0  0  0  0  0  0  0  0  0  0  0
  -16.2620  -37.0782   -9.6789 C   0  0  2  0  0  0  0  0  0  0  0  0
  -16.8255  -35.7713  -10.1513 C   0  0  0  0  0  0  0  0  0  0  0  0
  -15.4065  -37.6705  -10.7716 C   0  0  0  0  0  0  0  0  0  0  0  0
  -13.9785  -37.8003  -10.3342 C   0  0  0  0  0  0  0  0  0  0  0  0
  -13.2976  -38.8933  -10.8529 O   0  0  0  0  0  0  0  0  0  0  0  0
  -11.9579  -38.7604  -10.5461 C   0  0  0  0  0  0  0  0  0  0  0  0
  -11.4564  -39.5999   -9.4243 C   0  0  0  0  0  0  0  0  0  0  0  0
  -11.2469  -40.8339   -9.1454 C   0  0  0  0  0  0  0  0  0  0  0  0
  -11.3491  -42.2046   -9.7057 C   0  0  0  0  0  0  0  0  0  0  0  0
  -12.1601  -42.3820  -10.8790 N   0  0  0  0  0  0  0  0  0  0  0  0
  -17.0082  -39.9737   -7.7337 C   0  0  2  0  0  0  0  0  0  0  0  0
  -15.7610  -40.0262   -7.1380 O   0  0  0  0  0  0  0  0  0  0  0  0
  -17.8057  -41.1767   -7.4651 C   0  0  0  0  0  0  0  0  0  0  0  0
  -18.8094  -41.0724   -6.5041 N   0  0  0  0  0  0  0  0  0  0  0  0
  -20.0522  -41.7648   -6.7040 C   0  0  0  0  0  0  0  0  0  0  0  0
  -20.3341  -42.7119   -7.8012 C   0  0  0  0  0  0  0  0  0  0  0  0
  -19.9315  -43.2833   -6.5015 C   0  0  0  0  0  0  0  0  0  0  0  0
  -21.2075  -41.2063   -5.9599 C   0  0  0  0  0  0  0  0  0  0  0  0
  -21.4991  -39.8571   -5.9629 C   0  0  0  0  0  0  0  0  0  0  0  0
  -22.5367  -39.2968   -5.2610 C   0  0  0  0  0  0  0  0  0  0  0  0
  -23.3399  -40.1209   -4.5064 C   0  0  0  0  0  0  0  0  0  0  0  0
  -23.0874  -41.4682   -4.4741 C   0  0  0  0  0  0  0  0  0  0  0  0
  -22.0149  -42.0022   -5.2070 C   0  0  0  0  0  0  0  0  0  0  0  0
  -22.8286  -37.8504   -5.2813 C   0  0  0  0  0  0  0  0  0  0  0  0
  -23.6896  -37.4850   -6.4675 C   0  0  0  0  0  0  0  0  0  0  0  0
  -23.6051  -37.4176   -4.0396 C   0  0  0  0  0  0  0  0  0  0  0  0
  -21.5646  -37.0219   -5.3562 C   0  0  0  0  0  0  0  0  0  0  0  0
  1  2  1  0
  2  3  1  0
  3  4  1  0
  4  5  2  0
  5  6  1  0
  6  7  2  0
  7  8  1  0
  8  9  2  0
  8 10  1  0
 10 11  2  0
 10 12  1  0
 12 13  1  0
 13 14  1  1
 14 15  1  0
 15 16  1  6
 15 17  1  0
 17 18  1  0
 18 19  1  0
 19 20  1  0
 20 21  1  0
 21 22  2  0
 22 23  1  0
 23 24  1  0
 13 25  1  0
 25 26  1  6
 25 27  1  0
 27 28  1  0
 28 29  1  0
 29 30  1  0
 30 31  1  0
 29 32  1  0
 32 33  2  0
 33 34  1  0
 34 35  2  0
 35 36  1  0
 36 37  2  0
 34 38  1  0
 38 39  1  0
 38 40  1  0
 38 41  1  0
  9  4  1  0
 24  6  1  0
 31 29  1  0
 37 32  1  0
M  END
$$$$
