
     RDKit          3D

 41 44  0  0  0  0  0  0  0  0999 V2000
  -24.6294  -42.4213   -5.7202 C   0  0  0  0  0  0  0  0  0  0  0  0
  -23.3195  -42.8068   -5.8532 O   0  0  0  0  0  0  0  0  0  0  0  0
  -22.9518  -43.2691   -7.0948 C   0  0  0  0  0  0  0  0  0  0  0  0
  -21.4603  -43.2979   -7.1361 C   0  0  0  0  0  0  0  0  0  0  0  0
  -20.7225  -44.1307   -6.3515 C   0  0  0  0  0  0  0  0  0  0  0  0
  -19.3034  -44.1698   -6.3672 C   0  0  0  0  0  0  0  0  0  0  0  0
  -18.6066  -43.3304   -7.2126 C   0  0  0  0  0  0  0  0  0  0  0  0
  -19.3211  -42.4684   -8.0301 C   0  0  0  0  0  0  0  0  0  0  0  0
  -20.7447  -42.4781   -7.9651 C   0  0  0  0  0  0  0  0  0  0  0  0
  -18.8740  -41.4832   -9.0339 C   0  0  0  0  0  0  0  0  0  0  0  0
  -19.5809  -40.3581   -9.0798 O   0  0  0  0  0  0  0  0  0  0  0  0
  -17.8505  -41.4501   -9.9817 N   0  0  0  0  0  0  0  0  0  0  0  0
  -16.4554  -41.8710   -9.7658 C   0  0  1  0  0  0  0  0  0  0  0  0
  -15.7803  -42.2419  -11.0241 C   0  0  0  0  0  0  0  0  0  0  0  0
  -15.2642  -43.6687  -11.0340 C   0  0  2  0  0  0  0  0  0  0  0  0
  -14.8727  -44.0379  -12.4337 C   0  0  0  0  0  0  0  0  0  0  0  0
  -16.3076  -44.6406  -10.5408 C   0  0  0  0  0  0  0  0  0  0  0  0
  -15.8136  -45.4135   -9.3550 C   0  0  0  0  0  0  0  0  0  0  0  0
  -16.7837  -45.7456   -8.4191 O   0  0  0  0  0  0  0  0  0  0  0  0
  -16.2332  -46.6302   -7.5130 C   0  0  0  0  0  0  0  0  0  0  0  0
  -15.8512  -46.0616   -6.1918 C   0  0  0  0  0  0  0  0  0  0  0  0
  -16.4022  -45.5627   -5.1469 C   0  0  0  0  0  0  0  0  0  0  0  0
  -17.7205  -45.2225   -4.5556 C   0  0  0  0  0  0  0  0  0  0  0  0
  -18.8509  -45.1721   -5.4419 N   0  0  0  0  0  0  0  0  0  0  0  0
  -15.8153  -40.8946   -8.8603 C   0  0  2  0  0  0  0  0  0  0  0  0
  -15.7134  -41.3411   -7.5551 O   0  0  0  0  0  0  0  0  0  0  0  0
  -16.1911  -39.4774   -8.9372 C   0  0  0  0  0  0  0  0  0  0  0  0
  -15.7378  -38.7587  -10.0417 N   0  0  0  0  0  0  0  0  0  0  0  0
  -16.1347  -37.3874  -10.2023 C   0  0  0  0  0  0  0  0  0  0  0  0
  -15.3376  -36.2148   -9.7899 C   0  0  0  0  0  0  0  0  0  0  0  0
  -15.2570  -36.6232  -11.2058 C   0  0  0  0  0  0  0  0  0  0  0  0
  -17.5783  -37.1805  -10.4735 C   0  0  0  0  0  0  0  0  0  0  0  0
  -18.3807  -36.4274   -9.6401 C   0  0  0  0  0  0  0  0  0  0  0  0
  -19.7258  -36.2402   -9.8367 C   0  0  0  0  0  0  0  0  0  0  0  0
  -20.3192  -36.8346  -10.9268 C   0  0  0  0  0  0  0  0  0  0  0  0
  -19.5604  -37.5915  -11.7820 C   0  0  0  0  0  0  0  0  0  0  0  0
  -18.1862  -37.7586  -11.5451 C   0  0  0  0  0  0  0  0  0  0  0  0
  -20.5624  -35.4292   -8.9311 C   0  0  0  0  0  0  0  0  0  0  0  0
  -22.0279  -35.5730   -9.2685 C   0  0  0  0  0  0  0  0  0  0  0  0
  -20.4120  -35.8757   -7.4785 C   0  0  0  0  0  0  0  0  0  0  0  0
  -20.2135  -33.9588   -9.0081 C   0  0  0  0  0  0  0  0  0  0  0  0
  1  2  1  0
  2  3  1  0
  3  4  1  0
  4  5  2  0
  5  6  1  0
  6  7  2  0
  7  8  1  0
  8  9  2  0
  8 10  1  0
 10 11  2  0
 10 12  1  0
 12 13  1  0
 13 14  1  6
 14 15  1  0
 15 16  1  6
 15 17  1  0
 17 18  1  0
 18 19  1  0
 19 20  1  0
 20 21  1  0
 21 22  2  0
 22 23  1  0
 23 24  1  0
 13 25  1  0
 25 26  1  1
 25 27  1  0
 27 28  1  0
 28 29  1  0
 29 30  1  0
 30 31  1  0
 29 32  1  0
 32 33  2  0
 33 34  1  0
 34 35  2  0
 35 36  1  0
 36 37  2  0
 34 38  1  0
 38 39  1  0
 38 40  1  0
 38 41  1  0
  9  4  1  0
 24  6  1  0
 31 29  1  0
 37 32  1  0
M  END
$$$$
