
     RDKit          3D

 41 44  0  0  0  0  0  0  0  0999 V2000
  -12.5373  -34.5023  -13.4364 C   0  0  0  0  0  0  0  0  0  0  0  0
  -11.9283  -34.9540  -12.2930 O   0  0  0  0  0  0  0  0  0  0  0  0
  -11.0952  -36.0375  -12.4433 C   0  0  0  0  0  0  0  0  0  0  0  0
  -11.8877  -37.2582  -12.1133 C   0  0  0  0  0  0  0  0  0  0  0  0
  -11.4507  -38.5148  -12.4026 C   0  0  0  0  0  0  0  0  0  0  0  0
  -12.1904  -39.6897  -12.1062 C   0  0  0  0  0  0  0  0  0  0  0  0
  -13.4219  -39.5844  -11.4921 C   0  0  0  0  0  0  0  0  0  0  0  0
  -13.9020  -38.3222  -11.1785 C   0  0  0  0  0  0  0  0  0  0  0  0
  -13.1101  -37.1830  -11.5038 C   0  0  0  0  0  0  0  0  0  0  0  0
  -15.1490  -37.8910  -10.5172 C   0  0  0  0  0  0  0  0  0  0  0  0
  -15.6941  -36.7794  -11.0021 O   0  0  0  0  0  0  0  0  0  0  0  0
  -15.9194  -38.3883   -9.4655 N   0  0  0  0  0  0  0  0  0  0  0  0
  -16.2881  -39.7985   -9.2527 C   0  0  1  0  0  0  0  0  0  0  0  0
  -16.6020  -40.0893   -7.8407 C   0  0  0  0  0  0  0  0  0  0  0  0
  -15.7182  -41.1640   -7.2353 C   0  0  2  0  0  0  0  0  0  0  0  0
  -15.9080  -41.1730   -5.7477 C   0  0  0  0  0  0  0  0  0  0  0  0
  -14.2611  -40.9252   -7.5454 C   0  0  0  0  0  0  0  0  0  0  0  0
  -13.6609  -42.0923   -8.2698 C   0  0  0  0  0  0  0  0  0  0  0  0
  -12.6775  -41.7719   -9.1960 O   0  0  0  0  0  0  0  0  0  0  0  0
  -12.0725  -42.9406   -9.6141 C   0  0  0  0  0  0  0  0  0  0  0  0
  -12.4801  -43.4465  -10.9530 C   0  0  0  0  0  0  0  0  0  0  0  0
  -12.3807  -43.1252  -12.1905 C   0  0  0  0  0  0  0  0  0  0  0  0
  -11.8266  -42.0924  -13.1012 C   0  0  0  0  0  0  0  0  0  0  0  0
  -11.4324  -40.8387  -12.5194 N   0  0  0  0  0  0  0  0  0  0  0  0
  -17.2516  -40.1858  -10.3039 C   0  0  2  0  0  0  0  0  0  0  0  0
  -16.7900  -41.1981  -11.1256 O   0  0  0  0  0  0  0  0  0  0  0  0
  -17.9696  -39.1452  -11.0504 C   0  0  0  0  0  0  0  0  0  0  0  0
  -19.1362  -38.6425  -10.4775 N   0  0  0  0  0  0  0  0  0  0  0  0
  -20.4105  -39.1228  -10.9350 C   0  0  0  0  0  0  0  0  0  0  0  0
  -20.9715  -38.9018  -12.2829 C   0  0  0  0  0  0  0  0  0  0  0  0
  -20.2892  -40.1871  -12.0369 C   0  0  0  0  0  0  0  0  0  0  0  0
  -21.3399  -39.5532   -9.8621 C   0  0  0  0  0  0  0  0  0  0  0  0
  -22.4150  -40.3822  -10.1119 C   0  0  0  0  0  0  0  0  0  0  0  0
  -23.3167  -40.7754   -9.1551 C   0  0  0  0  0  0  0  0  0  0  0  0
  -23.1475  -40.3214   -7.8670 C   0  0  0  0  0  0  0  0  0  0  0  0
  -22.0928  -39.4960   -7.5731 C   0  0  0  0  0  0  0  0  0  0  0  0
  -21.1921  -39.1167   -8.5816 C   0  0  0  0  0  0  0  0  0  0  0  0
  -24.4583  -41.6637   -9.4472 C   0  0  0  0  0  0  0  0  0  0  0  0
  -24.6158  -41.8773  -10.9344 C   0  0  0  0  0  0  0  0  0  0  0  0
  -24.2622  -43.0488   -8.8346 C   0  0  0  0  0  0  0  0  0  0  0  0
  -25.7601  -41.0989   -8.9219 C   0  0  0  0  0  0  0  0  0  0  0  0
  1  2  1  0
  2  3  1  0
  3  4  1  0
  4  5  2  0
  5  6  1  0
  6  7  2  0
  7  8  1  0
  8  9  2  0
  8 10  1  0
 10 11  2  0
 10 12  1  0
 12 13  1  0
 13 14  1  1
 14 15  1  0
 15 16  1  1
 15 17  1  0
 17 18  1  0
 18 19  1  0
 19 20  1  0
 20 21  1  0
 21 22  2  0
 22 23  1  0
 23 24  1  0
 13 25  1  0
 25 26  1  6
 25 27  1  0
 27 28  1  0
 28 29  1  0
 29 30  1  0
 30 31  1  0
 29 32  1  0
 32 33  2  0
 33 34  1  0
 34 35  2  0
 35 36  1  0
 36 37  2  0
 34 38  1  0
 38 39  1  0
 38 40  1  0
 38 41  1  0
  9  4  1  0
 24  6  1  0
 31 29  1  0
 37 32  1  0
M  END
$$$$
