
     RDKit          3D

 41 44  0  0  0  0  0  0  0  0999 V2000
  -24.3061  -44.4797  -11.8890 C   0  0  0  0  0  0  0  0  0  0  0  0
  -23.0980  -44.3229  -11.2581 O   0  0  0  0  0  0  0  0  0  0  0  0
  -22.9247  -45.0475  -10.1024 C   0  0  0  0  0  0  0  0  0  0  0  0
  -21.5226  -44.8247   -9.6427 C   0  0  0  0  0  0  0  0  0  0  0  0
  -20.7798  -45.8043   -9.0578 C   0  0  0  0  0  0  0  0  0  0  0  0
  -19.4477  -45.6136   -8.6051 C   0  0  0  0  0  0  0  0  0  0  0  0
  -18.8468  -44.3798   -8.7521 C   0  0  0  0  0  0  0  0  0  0  0  0
  -19.5688  -43.3557   -9.3453 C   0  0  0  0  0  0  0  0  0  0  0  0
  -20.9022  -43.6128   -9.7772 C   0  0  0  0  0  0  0  0  0  0  0  0
  -19.2047  -41.9590   -9.6535 C   0  0  0  0  0  0  0  0  0  0  0  0
  -20.1763  -41.0677   -9.4821 O   0  0  0  0  0  0  0  0  0  0  0  0
  -18.0429  -41.3281  -10.0994 N   0  0  0  0  0  0  0  0  0  0  0  0
  -16.6766  -41.5818   -9.6106 C   0  0  1  0  0  0  0  0  0  0  0  0
  -15.6483  -41.2093  -10.6009 C   0  0  0  0  0  0  0  0  0  0  0  0
  -14.7534  -42.3660  -11.0053 C   0  0  2  0  0  0  0  0  0  0  0  0
  -13.9558  -41.9691  -12.2116 C   0  0  0  0  0  0  0  0  0  0  0  0
  -15.5553  -43.6025  -11.3288 C   0  0  0  0  0  0  0  0  0  0  0  0
  -15.1500  -44.7559  -10.4613 C   0  0  0  0  0  0  0  0  0  0  0  0
  -16.1728  -45.6331  -10.1270 O   0  0  0  0  0  0  0  0  0  0  0  0
  -15.6172  -46.7436   -9.5231 C   0  0  0  0  0  0  0  0  0  0  0  0
  -15.7365  -46.8118   -8.0412 C   0  0  0  0  0  0  0  0  0  0  0  0
  -16.6368  -46.9535   -7.1391 C   0  0  0  0  0  0  0  0  0  0  0  0
  -18.0971  -47.1376   -6.9472 C   0  0  0  0  0  0  0  0  0  0  0  0
  -18.9536  -46.8504   -8.0651 N   0  0  0  0  0  0  0  0  0  0  0  0
  -16.5773  -41.0605   -8.2316 C   0  0  2  0  0  0  0  0  0  0  0  0
  -16.1702  -42.0113   -7.3133 O   0  0  0  0  0  0  0  0  0  0  0  0
  -17.6389  -40.1943   -7.7041 C   0  0  0  0  0  0  0  0  0  0  0  0
  -17.6509  -38.8692   -8.1351 N   0  0  0  0  0  0  0  0  0  0  0  0
  -18.4634  -37.9090   -7.4411 C   0  0  0  0  0  0  0  0  0  0  0  0
  -17.9616  -36.6929   -6.7704 C   0  0  0  0  0  0  0  0  0  0  0  0
  -18.4980  -36.5391   -8.1367 C   0  0  0  0  0  0  0  0  0  0  0  0
  -19.8270  -38.3772   -7.0924 C   0  0  0  0  0  0  0  0  0  0  0  0
  -20.9604  -37.8011   -7.6302 C   0  0  0  0  0  0  0  0  0  0  0  0
  -22.2388  -38.1816   -7.3080 C   0  0  0  0  0  0  0  0  0  0  0  0
  -22.4116  -39.1970   -6.3954 C   0  0  0  0  0  0  0  0  0  0  0  0
  -21.3138  -39.7985   -5.8358 C   0  0  0  0  0  0  0  0  0  0  0  0
  -20.0217  -39.3793   -6.1924 C   0  0  0  0  0  0  0  0  0  0  0  0
  -23.4351  -37.5502   -7.8979 C   0  0  0  0  0  0  0  0  0  0  0  0
  -23.1664  -37.0877   -9.3106 C   0  0  0  0  0  0  0  0  0  0  0  0
  -24.6023  -38.5312   -7.9837 C   0  0  0  0  0  0  0  0  0  0  0  0
  -23.8901  -36.3490   -7.0980 C   0  0  0  0  0  0  0  0  0  0  0  0
  1  2  1  0
  2  3  1  0
  3  4  1  0
  4  5  2  0
  5  6  1  0
  6  7  2  0
  7  8  1  0
  8  9  2  0
  8 10  1  0
 10 11  2  0
 10 12  1  0
 12 13  1  0
 13 14  1  6
 14 15  1  0
 15 16  1  6
 15 17  1  0
 17 18  1  0
 18 19  1  0
 19 20  1  0
 20 21  1  0
 21 22  2  0
 22 23  1  0
 23 24  1  0
 13 25  1  0
 25 26  1  1
 25 27  1  0
 27 28  1  0
 28 29  1  0
 29 30  1  0
 30 31  1  0
 29 32  1  0
 32 33  2  0
 33 34  1  0
 34 35  2  0
 35 36  1  0
 36 37  2  0
 34 38  1  0
 38 39  1  0
 38 40  1  0
 38 41  1  0
  9  4  1  0
 24  6  1  0
 31 29  1  0
 37 32  1  0
M  END
$$$$
