
     RDKit          3D

 41 44  0  0  0  0  0  0  0  0999 V2000
  -15.2590  -47.7761  -13.0388 C   0  0  0  0  0  0  0  0  0  0  0  0
  -15.0933  -46.9351  -11.9676 O   0  0  0  0  0  0  0  0  0  0  0  0
  -16.1658  -46.1301  -11.6637 C   0  0  0  0  0  0  0  0  0  0  0  0
  -15.6428  -44.9615  -10.8969 C   0  0  0  0  0  0  0  0  0  0  0  0
  -14.4198  -44.9667  -10.2988 C   0  0  0  0  0  0  0  0  0  0  0  0
  -13.9049  -43.8707   -9.5576 C   0  0  0  0  0  0  0  0  0  0  0  0
  -14.6617  -42.7249   -9.4184 C   0  0  0  0  0  0  0  0  0  0  0  0
  -15.9124  -42.6784  -10.0147 C   0  0  0  0  0  0  0  0  0  0  0  0
  -16.3708  -43.8133  -10.7444 C   0  0  0  0  0  0  0  0  0  0  0  0
  -16.9304  -41.6107  -10.0607 C   0  0  0  0  0  0  0  0  0  0  0  0
  -18.1915  -42.0247   -9.9844 O   0  0  0  0  0  0  0  0  0  0  0  0
  -16.8837  -40.2206  -10.1708 N   0  0  0  0  0  0  0  0  0  0  0  0
  -15.9687  -39.3239   -9.4437 C   0  0  1  0  0  0  0  0  0  0  0  0
  -15.7689  -38.0398  -10.1422 C   0  0  0  0  0  0  0  0  0  0  0  0
  -14.3190  -37.7636  -10.4941 C   0  0  2  0  0  0  0  0  0  0  0  0
  -14.2583  -36.6074  -11.4471 C   0  0  0  0  0  0  0  0  0  0  0  0
  -13.6635  -38.9638  -11.1318 C   0  0  0  0  0  0  0  0  0  0  0  0
  -12.4618  -39.4055  -10.3520 C   0  0  0  0  0  0  0  0  0  0  0  0
  -12.2261  -40.7737  -10.3523 O   0  0  0  0  0  0  0  0  0  0  0  0
  -10.9857  -41.0044   -9.7914 C   0  0  0  0  0  0  0  0  0  0  0  0
  -10.9835  -41.4993   -8.3878 C   0  0  0  0  0  0  0  0  0  0  0  0
  -11.3169  -42.5413   -7.7189 C   0  0  0  0  0  0  0  0  0  0  0  0
  -11.9009  -43.8985   -7.8610 C   0  0  0  0  0  0  0  0  0  0  0  0
  -12.5872  -44.1994   -9.0874 N   0  0  0  0  0  0  0  0  0  0  0  0
  -16.3629  -39.3207   -8.0197 C   0  0  2  0  0  0  0  0  0  0  0  0
  -15.4913  -40.0231   -7.2072 O   0  0  0  0  0  0  0  0  0  0  0  0
  -17.7674  -39.5424   -7.6541 C   0  0  0  0  0  0  0  0  0  0  0  0
  -18.7360  -39.0842   -8.5450 N   0  0  0  0  0  0  0  0  0  0  0  0
  -20.0775  -38.8677   -8.0787 C   0  0  0  0  0  0  0  0  0  0  0  0
  -20.7563  -37.5581   -8.0114 C   0  0  0  0  0  0  0  0  0  0  0  0
  -21.0306  -38.4021   -9.1905 C   0  0  0  0  0  0  0  0  0  0  0  0
  -20.6577  -39.9873   -7.2976 C   0  0  0  0  0  0  0  0  0  0  0  0
  -21.1193  -39.8199   -6.0074 C   0  0  0  0  0  0  0  0  0  0  0  0
  -21.6308  -40.8358   -5.2398 C   0  0  0  0  0  0  0  0  0  0  0  0
  -21.6914  -42.1003   -5.7795 C   0  0  0  0  0  0  0  0  0  0  0  0
  -21.2443  -42.3129   -7.0582 C   0  0  0  0  0  0  0  0  0  0  0  0
  -20.7274  -41.2458   -7.8108 C   0  0  0  0  0  0  0  0  0  0  0  0
  -22.1191  -40.6311   -3.8623 C   0  0  0  0  0  0  0  0  0  0  0  0
  -21.5952  -41.7013   -2.9339 C   0  0  0  0  0  0  0  0  0  0  0  0
  -21.6422  -39.2977   -3.2907 C   0  0  0  0  0  0  0  0  0  0  0  0
  -23.6304  -40.6579   -3.7909 C   0  0  0  0  0  0  0  0  0  0  0  0
  1  2  1  0
  2  3  1  0
  3  4  1  0
  4  5  2  0
  5  6  1  0
  6  7  2  0
  7  8  1  0
  8  9  2  0
  8 10  1  0
 10 11  2  0
 10 12  1  0
 12 13  1  0
 13 14  1  6
 14 15  1  0
 15 16  1  6
 15 17  1  0
 17 18  1  0
 18 19  1  0
 19 20  1  0
 20 21  1  0
 21 22  2  0
 22 23  1  0
 23 24  1  0
 13 25  1  0
 25 26  1  1
 25 27  1  0
 27 28  1  0
 28 29  1  0
 29 30  1  0
 30 31  1  0
 29 32  1  0
 32 33  2  0
 33 34  1  0
 34 35  2  0
 35 36  1  0
 36 37  2  0
 34 38  1  0
 38 39  1  0
 38 40  1  0
 38 41  1  0
  9  4  1  0
 24  6  1  0
 31 29  1  0
 37 32  1  0
M  END
$$$$
