
     RDKit          3D

 41 44  0  0  0  0  0  0  0  0999 V2000
  -19.2520  -47.0698  -10.3382 C   0  0  0  0  0  0  0  0  0  0  0  0
  -17.9309  -46.7567  -10.1408 O   0  0  0  0  0  0  0  0  0  0  0  0
  -17.3414  -45.9920  -11.1198 C   0  0  0  0  0  0  0  0  0  0  0  0
  -16.7135  -44.8160  -10.4491 C   0  0  0  0  0  0  0  0  0  0  0  0
  -15.4612  -44.8596   -9.9167 C   0  0  0  0  0  0  0  0  0  0  0  0
  -14.8467  -43.7570   -9.2669 C   0  0  0  0  0  0  0  0  0  0  0  0
  -15.5308  -42.5636   -9.1534 C   0  0  0  0  0  0  0  0  0  0  0  0
  -16.8083  -42.4771   -9.6848 C   0  0  0  0  0  0  0  0  0  0  0  0
  -17.3680  -43.6213  -10.3239 C   0  0  0  0  0  0  0  0  0  0  0  0
  -17.7674  -41.3566   -9.7378 C   0  0  0  0  0  0  0  0  0  0  0  0
  -19.0431  -41.6925   -9.5720 O   0  0  0  0  0  0  0  0  0  0  0  0
  -17.6510  -39.9794   -9.9288 N   0  0  0  0  0  0  0  0  0  0  0  0
  -16.6493  -39.0992   -9.3029 C   0  0  1  0  0  0  0  0  0  0  0  0
  -16.4188  -37.8681  -10.0826 C   0  0  0  0  0  0  0  0  0  0  0  0
  -14.9778  -37.6953  -10.5253 C   0  0  2  0  0  0  0  0  0  0  0  0
  -14.9071  -36.5973  -11.5442 C   0  0  0  0  0  0  0  0  0  0  0  0
  -14.4254  -38.9637  -11.1274 C   0  0  0  0  0  0  0  0  0  0  0  0
  -13.2081  -39.4315  -10.3881 C   0  0  0  0  0  0  0  0  0  0  0  0
  -13.0480  -40.8090  -10.3232 O   0  0  0  0  0  0  0  0  0  0  0  0
  -11.7927  -41.0804   -9.8160 C   0  0  0  0  0  0  0  0  0  0  0  0
  -11.7394  -41.4986   -8.3887 C   0  0  0  0  0  0  0  0  0  0  0  0
  -12.0916  -42.4822   -7.6452 C   0  0  0  0  0  0  0  0  0  0  0  0
  -12.7559  -43.8091   -7.6791 C   0  0  0  0  0  0  0  0  0  0  0  0
  -13.5248  -44.1353   -8.8488 N   0  0  0  0  0  0  0  0  0  0  0  0
  -16.9629  -38.9968   -7.8626 C   0  0  2  0  0  0  0  0  0  0  0  0
  -16.0235  -39.6073   -7.0515 O   0  0  0  0  0  0  0  0  0  0  0  0
  -18.3363  -39.2313   -7.3996 C   0  0  0  0  0  0  0  0  0  0  0  0
  -19.3661  -38.6804   -8.1597 N   0  0  0  0  0  0  0  0  0  0  0  0
  -20.6285  -38.3953   -7.5361 C   0  0  0  0  0  0  0  0  0  0  0  0
  -21.0804  -37.0601   -7.0963 C   0  0  0  0  0  0  0  0  0  0  0  0
  -21.5490  -37.5326   -8.4136 C   0  0  0  0  0  0  0  0  0  0  0  0
  -21.3423  -39.5784   -6.9968 C   0  0  0  0  0  0  0  0  0  0  0  0
  -21.4345  -39.8248   -5.6417 C   0  0  0  0  0  0  0  0  0  0  0  0
  -22.0555  -40.9241   -5.1042 C   0  0  0  0  0  0  0  0  0  0  0  0
  -22.6233  -41.8411   -5.9589 C   0  0  0  0  0  0  0  0  0  0  0  0
  -22.5560  -41.6368   -7.3131 C   0  0  0  0  0  0  0  0  0  0  0  0
  -21.9109  -40.4983   -7.8230 C   0  0  0  0  0  0  0  0  0  0  0  0
  -22.1417  -41.1646   -3.6507 C   0  0  0  0  0  0  0  0  0  0  0  0
  -23.3823  -41.9525   -3.3015 C   0  0  0  0  0  0  0  0  0  0  0  0
  -20.9571  -41.9865   -3.1472 C   0  0  0  0  0  0  0  0  0  0  0  0
  -22.1812  -39.8706   -2.8673 C   0  0  0  0  0  0  0  0  0  0  0  0
  1  2  1  0
  2  3  1  0
  3  4  1  0
  4  5  2  0
  5  6  1  0
  6  7  2  0
  7  8  1  0
  8  9  2  0
  8 10  1  0
 10 11  2  0
 10 12  1  0
 12 13  1  0
 13 14  1  6
 14 15  1  0
 15 16  1  6
 15 17  1  0
 17 18  1  0
 18 19  1  0
 19 20  1  0
 20 21  1  0
 21 22  2  0
 22 23  1  0
 23 24  1  0
 13 25  1  0
 25 26  1  1
 25 27  1  0
 27 28  1  0
 28 29  1  0
 29 30  1  0
 30 31  1  0
 29 32  1  0
 32 33  2  0
 33 34  1  0
 34 35  2  0
 35 36  1  0
 36 37  2  0
 34 38  1  0
 38 39  1  0
 38 40  1  0
 38 41  1  0
  9  4  1  0
 24  6  1  0
 31 29  1  0
 37 32  1  0
M  END
$$$$
