
     RDKit          3D

 41 44  0  0  0  0  0  0  0  0999 V2000
  -22.8274  -42.4987  -11.7313 C   0  0  0  0  0  0  0  0  0  0  0  0
  -21.9698  -41.6459  -12.3790 O   0  0  0  0  0  0  0  0  0  0  0  0
  -20.8952  -42.2338  -13.0038 C   0  0  0  0  0  0  0  0  0  0  0  0
  -19.7167  -42.0816  -12.1011 C   0  0  0  0  0  0  0  0  0  0  0  0
  -18.6613  -42.9414  -12.1241 C   0  0  0  0  0  0  0  0  0  0  0  0
  -17.5338  -42.8216  -11.2696 C   0  0  0  0  0  0  0  0  0  0  0  0
  -17.4760  -41.7886  -10.3562 C   0  0  0  0  0  0  0  0  0  0  0  0
  -18.5300  -40.8896  -10.3026 C   0  0  0  0  0  0  0  0  0  0  0  0
  -19.6328  -41.0666  -11.1877 C   0  0  0  0  0  0  0  0  0  0  0  0
  -18.7494  -39.6947   -9.4645 C   0  0  0  0  0  0  0  0  0  0  0  0
  -20.0024  -39.5052   -9.0623 O   0  0  0  0  0  0  0  0  0  0  0  0
  -17.9264  -38.6789   -8.9770 N   0  0  0  0  0  0  0  0  0  0  0  0
  -16.5898  -38.8561   -8.3836 C   0  0  1  0  0  0  0  0  0  0  0  0
  -15.7676  -37.6347   -8.4782 C   0  0  0  0  0  0  0  0  0  0  0  0
  -14.4704  -37.8381   -9.2387 C   0  0  2  0  0  0  0  0  0  0  0  0
  -13.8623  -36.4999   -9.5358 C   0  0  0  0  0  0  0  0  0  0  0  0
  -14.6961  -38.5764  -10.5351 C   0  0  0  0  0  0  0  0  0  0  0  0
  -13.8885  -39.8381  -10.5900 C   0  0  0  0  0  0  0  0  0  0  0  0
  -14.4817  -40.8913  -11.2729 O   0  0  0  0  0  0  0  0  0  0  0  0
  -13.5455  -41.8941  -11.4295 C   0  0  0  0  0  0  0  0  0  0  0  0
  -13.6741  -43.0593  -10.5126 C   0  0  0  0  0  0  0  0  0  0  0  0
  -14.4693  -44.0388  -10.2833 C   0  0  0  0  0  0  0  0  0  0  0  0
  -15.7372  -44.6617  -10.7389 C   0  0  0  0  0  0  0  0  0  0  0  0
  -16.6010  -43.8720  -11.5731 N   0  0  0  0  0  0  0  0  0  0  0  0
  -16.7524  -39.5208   -7.0740 C   0  0  2  0  0  0  0  0  0  0  0  0
  -16.2046  -40.7900   -7.0308 O   0  0  0  0  0  0  0  0  0  0  0  0
  -18.0421  -39.4459   -6.3765 C   0  0  0  0  0  0  0  0  0  0  0  0
  -18.0094  -39.3871   -4.9846 N   0  0  0  0  0  0  0  0  0  0  0  0
  -19.2436  -39.3278   -4.2518 C   0  0  0  0  0  0  0  0  0  0  0  0
  -19.3638  -39.0706   -2.8028 C   0  0  0  0  0  0  0  0  0  0  0  0
  -19.5526  -37.9229   -3.7112 C   0  0  0  0  0  0  0  0  0  0  0  0
  -20.4150  -39.9128   -4.9489 C   0  0  0  0  0  0  0  0  0  0  0  0
  -20.8227  -39.4743   -6.1928 C   0  0  0  0  0  0  0  0  0  0  0  0
  -21.9197  -39.9648   -6.8555 C   0  0  0  0  0  0  0  0  0  0  0  0
  -22.6639  -40.9528   -6.2523 C   0  0  0  0  0  0  0  0  0  0  0  0
  -22.2956  -41.4191   -5.0165 C   0  0  0  0  0  0  0  0  0  0  0  0
  -21.1657  -40.8901   -4.3715 C   0  0  0  0  0  0  0  0  0  0  0  0
  -22.3347  -39.4799   -8.1860 C   0  0  0  0  0  0  0  0  0  0  0  0
  -23.7528  -38.9602   -8.1584 C   0  0  0  0  0  0  0  0  0  0  0  0
  -21.4624  -38.3182   -8.6566 C   0  0  0  0  0  0  0  0  0  0  0  0
  -22.2640  -40.5724   -9.2306 C   0  0  0  0  0  0  0  0  0  0  0  0
  1  2  1  0
  2  3  1  0
  3  4  1  0
  4  5  2  0
  5  6  1  0
  6  7  2  0
  7  8  1  0
  8  9  2  0
  8 10  1  0
 10 11  2  0
 10 12  1  0
 12 13  1  0
 13 14  1  1
 14 15  1  0
 15 16  1  6
 15 17  1  0
 17 18  1  0
 18 19  1  0
 19 20  1  0
 20 21  1  0
 21 22  2  0
 22 23  1  0
 23 24  1  0
 13 25  1  0
 25 26  1  6
 25 27  1  0
 27 28  1  0
 28 29  1  0
 29 30  1  0
 30 31  1  0
 29 32  1  0
 32 33  2  0
 33 34  1  0
 34 35  2  0
 35 36  1  0
 36 37  2  0
 34 38  1  0
 38 39  1  0
 38 40  1  0
 38 41  1  0
  9  4  1  0
 24  6  1  0
 31 29  1  0
 37 32  1  0
M  END
$$$$
