
     RDKit          3D

 41 44  0  0  0  0  0  0  0  0999 V2000
  -18.3519  -48.0183   -6.8526 C   0  0  0  0  0  0  0  0  0  0  0  0
  -18.8621  -46.9793   -7.5891 O   0  0  0  0  0  0  0  0  0  0  0  0
  -18.3040  -46.7919   -8.8316 C   0  0  0  0  0  0  0  0  0  0  0  0
  -17.4835  -45.5469   -8.7686 C   0  0  0  0  0  0  0  0  0  0  0  0
  -16.1272  -45.5694   -8.6521 C   0  0  0  0  0  0  0  0  0  0  0  0
  -15.3269  -44.3989   -8.5818 C   0  0  0  0  0  0  0  0  0  0  0  0
  -15.9275  -43.1572   -8.6317 C   0  0  0  0  0  0  0  0  0  0  0  0
  -17.3069  -43.0909   -8.7526 C   0  0  0  0  0  0  0  0  0  0  0  0
  -18.0523  -44.3037   -8.8173 C   0  0  0  0  0  0  0  0  0  0  0  0
  -18.2220  -41.9369   -8.8482 C   0  0  0  0  0  0  0  0  0  0  0  0
  -19.3810  -42.0767   -8.2118 O   0  0  0  0  0  0  0  0  0  0  0  0
  -18.1596  -40.6897   -9.4706 N   0  0  0  0  0  0  0  0  0  0  0  0
  -17.0021  -39.7786   -9.4719 C   0  0  1  0  0  0  0  0  0  0  0  0
  -17.0211  -38.8489  -10.6174 C   0  0  0  0  0  0  0  0  0  0  0  0
  -15.7955  -38.9601  -11.5050 C   0  0  2  0  0  0  0  0  0  0  0  0
  -16.0437  -38.2082  -12.7785 C   0  0  0  0  0  0  0  0  0  0  0  0
  -15.4766  -40.3975  -11.8347 C   0  0  0  0  0  0  0  0  0  0  0  0
  -14.0914  -40.7624  -11.3927 C   0  0  0  0  0  0  0  0  0  0  0  0
  -13.9320  -42.0744  -10.9678 O   0  0  0  0  0  0  0  0  0  0  0  0
  -12.5831  -42.3215  -10.8063 C   0  0  0  0  0  0  0  0  0  0  0  0
  -12.0806  -42.3230   -9.4055 C   0  0  0  0  0  0  0  0  0  0  0  0
  -12.1860  -43.0141   -8.3306 C   0  0  0  0  0  0  0  0  0  0  0  0
  -12.8390  -44.2194   -7.7613 C   0  0  0  0  0  0  0  0  0  0  0  0
  -13.9443  -44.7801   -8.4889 N   0  0  0  0  0  0  0  0  0  0  0  0
  -16.8381  -39.2415   -8.1052 C   0  0  2  0  0  0  0  0  0  0  0  0
  -15.9751  -39.9868   -7.3224 O   0  0  0  0  0  0  0  0  0  0  0  0
  -18.0164  -38.7856   -7.3575 C   0  0  0  0  0  0  0  0  0  0  0  0
  -18.7820  -37.7735   -7.9331 N   0  0  0  0  0  0  0  0  0  0  0  0
  -20.1979  -37.9609   -8.0874 C   0  0  0  0  0  0  0  0  0  0  0  0
  -21.0350  -37.3229   -9.1230 C   0  0  0  0  0  0  0  0  0  0  0  0
  -20.5670  -38.6978   -9.3844 C   0  0  0  0  0  0  0  0  0  0  0  0
  -20.8837  -38.5510   -6.9119 C   0  0  0  0  0  0  0  0  0  0  0  0
  -21.4684  -39.8007   -6.9546 C   0  0  0  0  0  0  0  0  0  0  0  0
  -22.1411  -40.3673   -5.9012 C   0  0  0  0  0  0  0  0  0  0  0  0
  -22.2442  -39.6550   -4.7283 C   0  0  0  0  0  0  0  0  0  0  0  0
  -21.6781  -38.4092   -4.6406 C   0  0  0  0  0  0  0  0  0  0  0  0
  -20.9980  -37.8648   -5.7422 C   0  0  0  0  0  0  0  0  0  0  0  0
  -22.7571  -41.7065   -5.9715 C   0  0  0  0  0  0  0  0  0  0  0  0
  -21.7328  -42.7595   -6.3233 C   0  0  0  0  0  0  0  0  0  0  0  0
  -23.3527  -42.1209   -4.6278 C   0  0  0  0  0  0  0  0  0  0  0  0
  -23.8561  -41.7668   -7.0100 C   0  0  0  0  0  0  0  0  0  0  0  0
  1  2  1  0
  2  3  1  0
  3  4  1  0
  4  5  2  0
  5  6  1  0
  6  7  2  0
  7  8  1  0
  8  9  2  0
  8 10  1  0
 10 11  2  0
 10 12  1  0
 12 13  1  0
 13 14  1  6
 14 15  1  0
 15 16  1  6
 15 17  1  0
 17 18  1  0
 18 19  1  0
 19 20  1  0
 20 21  1  0
 21 22  2  0
 22 23  1  0
 23 24  1  0
 13 25  1  0
 25 26  1  1
 25 27  1  0
 27 28  1  0
 28 29  1  0
 29 30  1  0
 30 31  1  0
 29 32  1  0
 32 33  2  0
 33 34  1  0
 34 35  2  0
 35 36  1  0
 36 37  2  0
 34 38  1  0
 38 39  1  0
 38 40  1  0
 38 41  1  0
  9  4  1  0
 24  6  1  0
 31 29  1  0
 37 32  1  0
M  END
$$$$
