
     RDKit          3D

 41 44  0  0  0  0  0  0  0  0999 V2000
  -19.8454  -47.6901   -3.6785 C   0  0  0  0  0  0  0  0  0  0  0  0
  -18.9092  -46.8799   -4.2695 O   0  0  0  0  0  0  0  0  0  0  0  0
  -18.5874  -47.1832   -5.5714 C   0  0  0  0  0  0  0  0  0  0  0  0
  -19.1660  -46.1121   -6.4346 C   0  0  0  0  0  0  0  0  0  0  0  0
  -20.2974  -46.2958   -7.1694 C   0  0  0  0  0  0  0  0  0  0  0  0
  -20.8613  -45.2951   -8.0038 C   0  0  0  0  0  0  0  0  0  0  0  0
  -20.2525  -44.0598   -8.0955 C   0  0  0  0  0  0  0  0  0  0  0  0
  -19.0992  -43.8315   -7.3609 C   0  0  0  0  0  0  0  0  0  0  0  0
  -18.5842  -44.8787   -6.5430 C   0  0  0  0  0  0  0  0  0  0  0  0
  -18.2450  -42.6344   -7.2358 C   0  0  0  0  0  0  0  0  0  0  0  0
  -16.9400  -42.8741   -7.1512 O   0  0  0  0  0  0  0  0  0  0  0  0
  -18.4889  -41.2617   -7.1816 N   0  0  0  0  0  0  0  0  0  0  0  0
  -19.4218  -40.5126   -8.0410 C   0  0  1  0  0  0  0  0  0  0  0  0
  -19.8724  -39.2541   -7.4165 C   0  0  0  0  0  0  0  0  0  0  0  0
  -21.3777  -39.1712   -7.2445 C   0  0  2  0  0  0  0  0  0  0  0  0
  -21.7048  -38.0154   -6.3468 C   0  0  0  0  0  0  0  0  0  0  0  0
  -21.9391  -40.4366   -6.6443 C   0  0  0  0  0  0  0  0  0  0  0  0
  -22.9697  -41.0533   -7.5413 C   0  0  0  0  0  0  0  0  0  0  0  0
  -23.0197  -42.4405   -7.5193 O   0  0  0  0  0  0  0  0  0  0  0  0
  -24.1426  -42.8492   -8.2111 C   0  0  0  0  0  0  0  0  0  0  0  0
  -23.9117  -43.3675   -9.5869 C   0  0  0  0  0  0  0  0  0  0  0  0
  -23.3654  -44.3674  -10.1753 C   0  0  0  0  0  0  0  0  0  0  0  0
  -22.6272  -45.6292   -9.9183 C   0  0  0  0  0  0  0  0  0  0  0  0
  -22.0581  -45.8094   -8.6109 N   0  0  0  0  0  0  0  0  0  0  0  0
  -18.8646  -40.4839   -9.4092 C   0  0  2  0  0  0  0  0  0  0  0  0
  -19.4608  -41.3933  -10.2639 O   0  0  0  0  0  0  0  0  0  0  0  0
  -17.4108  -40.4092   -9.6002 C   0  0  0  0  0  0  0  0  0  0  0  0
  -16.9373  -39.4697  -10.5139 N   0  0  0  0  0  0  0  0  0  0  0  0
  -15.5822  -39.0042  -10.4089 C   0  0  0  0  0  0  0  0  0  0  0  0
  -14.6267  -39.3916   -9.3518 C   0  0  0  0  0  0  0  0  0  0  0  0
  -14.5471  -40.1174  -10.6343 C   0  0  0  0  0  0  0  0  0  0  0  0
  -15.2695  -37.7986  -11.2145 C   0  0  0  0  0  0  0  0  0  0  0  0
  -14.0234  -37.5913  -11.7713 C   0  0  0  0  0  0  0  0  0  0  0  0
  -13.6840  -36.4749  -12.4933 C   0  0  0  0  0  0  0  0  0  0  0  0
  -14.6356  -35.4982  -12.6788 C   0  0  0  0  0  0  0  0  0  0  0  0
  -15.8874  -35.6621  -12.1437 C   0  0  0  0  0  0  0  0  0  0  0  0
  -16.1946  -36.8200  -11.4107 C   0  0  0  0  0  0  0  0  0  0  0  0
  -12.3443  -36.2769  -13.0796 C   0  0  0  0  0  0  0  0  0  0  0  0
  -12.3776  -36.4379  -14.5812 C   0  0  0  0  0  0  0  0  0  0  0  0
  -11.8175  -34.8688  -12.8119 C   0  0  0  0  0  0  0  0  0  0  0  0
  -11.3383  -37.2657  -12.5319 C   0  0  0  0  0  0  0  0  0  0  0  0
  1  2  1  0
  2  3  1  0
  3  4  1  0
  4  5  2  0
  5  6  1  0
  6  7  2  0
  7  8  1  0
  8  9  2  0
  8 10  1  0
 10 11  2  0
 10 12  1  0
 12 13  1  0
 13 14  1  1
 14 15  1  0
 15 16  1  1
 15 17  1  0
 17 18  1  0
 18 19  1  0
 19 20  1  0
 20 21  1  0
 21 22  2  0
 22 23  1  0
 23 24  1  0
 13 25  1  0
 25 26  1  6
 25 27  1  0
 27 28  1  0
 28 29  1  0
 29 30  1  0
 30 31  1  0
 29 32  1  0
 32 33  2  0
 33 34  1  0
 34 35  2  0
 35 36  1  0
 36 37  2  0
 34 38  1  0
 38 39  1  0
 38 40  1  0
 38 41  1  0
  9  4  1  0
 24  6  1  0
 31 29  1  0
 37 32  1  0
M  END
$$$$
