
     RDKit          3D

 41 44  0  0  0  0  0  0  0  0999 V2000
  -17.5444  -47.5535  -11.9649 C   0  0  0  0  0  0  0  0  0  0  0  0
  -16.9689  -46.4051  -11.4829 O   0  0  0  0  0  0  0  0  0  0  0  0
  -15.6734  -46.1697  -11.8789 C   0  0  0  0  0  0  0  0  0  0  0  0
  -15.2119  -44.9335  -11.1818 C   0  0  0  0  0  0  0  0  0  0  0  0
  -13.9136  -44.7379  -10.8216 C   0  0  0  0  0  0  0  0  0  0  0  0
  -13.4530  -43.5746  -10.1506 C   0  0  0  0  0  0  0  0  0  0  0  0
  -14.3457  -42.5711   -9.8330 C   0  0  0  0  0  0  0  0  0  0  0  0
  -15.6771  -42.7306  -10.1847 C   0  0  0  0  0  0  0  0  0  0  0  0
  -16.0746  -43.9230  -10.8563 C   0  0  0  0  0  0  0  0  0  0  0  0
  -16.8452  -41.8468  -10.0032 C   0  0  0  0  0  0  0  0  0  0  0  0
  -17.9849  -42.4649   -9.7088 O   0  0  0  0  0  0  0  0  0  0  0  0
  -17.0465  -40.4678  -10.0708 N   0  0  0  0  0  0  0  0  0  0  0  0
  -16.1687  -39.4344   -9.4950 C   0  0  1  0  0  0  0  0  0  0  0  0
  -16.3157  -38.1322  -10.1727 C   0  0  0  0  0  0  0  0  0  0  0  0
  -15.0228  -37.6175  -10.7775 C   0  0  2  0  0  0  0  0  0  0  0  0
  -15.3319  -36.4634  -11.6839 C   0  0  0  0  0  0  0  0  0  0  0  0
  -14.3136  -38.6894  -11.5678 C   0  0  0  0  0  0  0  0  0  0  0  0
  -12.9307  -38.9285  -11.0408 C   0  0  0  0  0  0  0  0  0  0  0  0
  -12.4803  -40.2384  -11.1332 O   0  0  0  0  0  0  0  0  0  0  0  0
  -11.1356  -40.2621  -10.8207 C   0  0  0  0  0  0  0  0  0  0  0  0
  -10.7878  -40.7555   -9.4604 C   0  0  0  0  0  0  0  0  0  0  0  0
  -10.8151  -41.8411   -8.7785 C   0  0  0  0  0  0  0  0  0  0  0  0
  -11.1871  -43.2759   -8.8575 C   0  0  0  0  0  0  0  0  0  0  0  0
  -12.0346  -43.6816   -9.9451 N   0  0  0  0  0  0  0  0  0  0  0  0
  -16.2820  -39.5026   -8.0234 C   0  0  2  0  0  0  0  0  0  0  0  0
  -15.0954  -39.8371   -7.3963 O   0  0  0  0  0  0  0  0  0  0  0  0
  -17.4412  -40.1661   -7.4139 C   0  0  0  0  0  0  0  0  0  0  0  0
  -18.5239  -40.4448   -8.2456 N   0  0  0  0  0  0  0  0  0  0  0  0
  -19.7230  -40.9990   -7.6808 C   0  0  0  0  0  0  0  0  0  0  0  0
  -20.0435  -42.4383   -7.6036 C   0  0  0  0  0  0  0  0  0  0  0  0
  -19.4637  -41.8092   -6.4011 C   0  0  0  0  0  0  0  0  0  0  0  0
  -20.8341  -40.0333   -7.4981 C   0  0  0  0  0  0  0  0  0  0  0  0
  -21.2538  -39.6260   -6.2477 C   0  0  0  0  0  0  0  0  0  0  0  0
  -22.2985  -38.7620   -6.0350 C   0  0  0  0  0  0  0  0  0  0  0  0
  -22.9741  -38.2668   -7.1269 C   0  0  0  0  0  0  0  0  0  0  0  0
  -22.5912  -38.6442   -8.3884 C   0  0  0  0  0  0  0  0  0  0  0  0
  -21.5164  -39.5310   -8.5631 C   0  0  0  0  0  0  0  0  0  0  0  0
  -22.7278  -38.3407   -4.6875 C   0  0  0  0  0  0  0  0  0  0  0  0
  -22.5496  -36.8524   -4.4995 C   0  0  0  0  0  0  0  0  0  0  0  0
  -24.2099  -38.6267   -4.4560 C   0  0  0  0  0  0  0  0  0  0  0  0
  -21.9401  -39.0404   -3.6013 C   0  0  0  0  0  0  0  0  0  0  0  0
  1  2  1  0
  2  3  1  0
  3  4  1  0
  4  5  2  0
  5  6  1  0
  6  7  2  0
  7  8  1  0
  8  9  2  0
  8 10  1  0
 10 11  2  0
 10 12  1  0
 12 13  1  0
 13 14  1  6
 14 15  1  0
 15 16  1  6
 15 17  1  0
 17 18  1  0
 18 19  1  0
 19 20  1  0
 20 21  1  0
 21 22  2  0
 22 23  1  0
 23 24  1  0
 13 25  1  0
 25 26  1  6
 25 27  1  0
 27 28  1  0
 28 29  1  0
 29 30  1  0
 30 31  1  0
 29 32  1  0
 32 33  2  0
 33 34  1  0
 34 35  2  0
 35 36  1  0
 36 37  2  0
 34 38  1  0
 38 39  1  0
 38 40  1  0
 38 41  1  0
  9  4  1  0
 24  6  1  0
 31 29  1  0
 37 32  1  0
M  END
$$$$
