
     RDKit          3D

 41 44  0  0  0  0  0  0  0  0999 V2000
  -16.5385  -46.6400  -13.8499 C   0  0  0  0  0  0  0  0  0  0  0  0
  -16.5084  -45.2791  -13.6788 O   0  0  0  0  0  0  0  0  0  0  0  0
  -15.3090  -44.6650  -13.9525 C   0  0  0  0  0  0  0  0  0  0  0  0
  -15.0625  -43.6665  -12.8712 C   0  0  0  0  0  0  0  0  0  0  0  0
  -13.8255  -43.4456  -12.3471 C   0  0  0  0  0  0  0  0  0  0  0  0
  -13.5684  -42.5076  -11.3128 C   0  0  0  0  0  0  0  0  0  0  0  0
  -14.6080  -41.7651  -10.7906 C   0  0  0  0  0  0  0  0  0  0  0  0
  -15.8832  -41.9584  -11.2988 C   0  0  0  0  0  0  0  0  0  0  0  0
  -16.0739  -42.9163  -12.3364 C   0  0  0  0  0  0  0  0  0  0  0  0
  -17.1710  -41.3177  -10.9681 C   0  0  0  0  0  0  0  0  0  0  0  0
  -18.2278  -42.1242  -10.9856 O   0  0  0  0  0  0  0  0  0  0  0  0
  -17.5585  -40.0204  -10.6308 N   0  0  0  0  0  0  0  0  0  0  0  0
  -16.8655  -39.1267   -9.6868 C   0  0  1  0  0  0  0  0  0  0  0  0
  -17.1556  -37.7035   -9.9459 C   0  0  0  0  0  0  0  0  0  0  0  0
  -15.9161  -36.8790  -10.2396 C   0  0  2  0  0  0  0  0  0  0  0  0
  -16.3333  -35.5421  -10.7759 C   0  0  0  0  0  0  0  0  0  0  0  0
  -15.0227  -37.5583  -11.2481 C   0  0  0  0  0  0  0  0  0  0  0  0
  -13.6507  -37.7898  -10.6904 C   0  0  0  0  0  0  0  0  0  0  0  0
  -13.0179  -38.9429  -11.1346 O   0  0  0  0  0  0  0  0  0  0  0  0
  -11.7019  -38.9083  -10.7182 C   0  0  0  0  0  0  0  0  0  0  0  0
  -11.3630  -39.7610   -9.5466 C   0  0  0  0  0  0  0  0  0  0  0  0
  -11.2758  -41.0016   -9.2339 C   0  0  0  0  0  0  0  0  0  0  0  0
  -11.4395  -42.3715   -9.7815 C   0  0  0  0  0  0  0  0  0  0  0  0
  -12.1621  -42.5093  -11.0162 N   0  0  0  0  0  0  0  0  0  0  0  0
  -17.0478  -39.6670   -8.3238 C   0  0  2  0  0  0  0  0  0  0  0  0
  -15.9249  -40.3084   -7.8329 O   0  0  0  0  0  0  0  0  0  0  0  0
  -18.2881  -40.3745   -7.9825 C   0  0  0  0  0  0  0  0  0  0  0  0
  -19.3586  -39.6017   -7.5368 N   0  0  0  0  0  0  0  0  0  0  0  0
  -20.6977  -40.1013   -7.6812 C   0  0  0  0  0  0  0  0  0  0  0  0
  -21.4777  -40.1012   -8.9350 C   0  0  0  0  0  0  0  0  0  0  0  0
  -20.7785  -41.3496   -8.5738 C   0  0  0  0  0  0  0  0  0  0  0  0
  -21.4357  -40.2931   -6.4088 C   0  0  0  0  0  0  0  0  0  0  0  0
  -21.1976  -39.5097   -5.2974 C   0  0  0  0  0  0  0  0  0  0  0  0
  -21.8334  -39.6767   -4.0929 C   0  0  0  0  0  0  0  0  0  0  0  0
  -22.7655  -40.6823   -3.9761 C   0  0  0  0  0  0  0  0  0  0  0  0
  -23.0344  -41.4850   -5.0548 C   0  0  0  0  0  0  0  0  0  0  0  0
  -22.3614  -41.2811   -6.2705 C   0  0  0  0  0  0  0  0  0  0  0  0
  -21.5617  -38.8249   -2.9189 C   0  0  0  0  0  0  0  0  0  0  0  0
  -21.6168  -37.3602   -3.2842 C   0  0  0  0  0  0  0  0  0  0  0  0
  -22.6044  -39.0319   -1.8225 C   0  0  0  0  0  0  0  0  0  0  0  0
  -20.1971  -39.1015   -2.3263 C   0  0  0  0  0  0  0  0  0  0  0  0
  1  2  1  0
  2  3  1  0
  3  4  1  0
  4  5  2  0
  5  6  1  0
  6  7  2  0
  7  8  1  0
  8  9  2  0
  8 10  1  0
 10 11  2  0
 10 12  1  0
 12 13  1  0
 13 14  1  1
 14 15  1  0
 15 16  1  6
 15 17  1  0
 17 18  1  0
 18 19  1  0
 19 20  1  0
 20 21  1  0
 21 22  2  0
 22 23  1  0
 23 24  1  0
 13 25  1  0
 25 26  1  6
 25 27  1  0
 27 28  1  0
 28 29  1  0
 29 30  1  0
 30 31  1  0
 29 32  1  0
 32 33  2  0
 33 34  1  0
 34 35  2  0
 35 36  1  0
 36 37  2  0
 34 38  1  0
 38 39  1  0
 38 40  1  0
 38 41  1  0
  9  4  1  0
 24  6  1  0
 31 29  1  0
 37 32  1  0
M  END
$$$$
