
     RDKit          3D

 41 44  0  0  0  0  0  0  0  0999 V2000
  -22.3452  -45.6685   -4.9775 C   0  0  0  0  0  0  0  0  0  0  0  0
  -21.9648  -45.1357   -6.1832 O   0  0  0  0  0  0  0  0  0  0  0  0
  -21.2487  -45.9691   -7.0098 C   0  0  0  0  0  0  0  0  0  0  0  0
  -19.9250  -45.3246   -7.2541 C   0  0  0  0  0  0  0  0  0  0  0  0
  -18.7482  -45.9954   -7.1176 C   0  0  0  0  0  0  0  0  0  0  0  0
  -17.4773  -45.4015   -7.3364 C   0  0  0  0  0  0  0  0  0  0  0  0
  -17.3987  -44.0746   -7.7081 C   0  0  0  0  0  0  0  0  0  0  0  0
  -18.5748  -43.3566   -7.8603 C   0  0  0  0  0  0  0  0  0  0  0  0
  -19.8181  -44.0121   -7.6247 C   0  0  0  0  0  0  0  0  0  0  0  0
  -18.8165  -41.9560   -8.2581 C   0  0  0  0  0  0  0  0  0  0  0  0
  -19.8142  -41.3491   -7.6226 O   0  0  0  0  0  0  0  0  0  0  0  0
  -18.2276  -41.0858   -9.1761 N   0  0  0  0  0  0  0  0  0  0  0  0
  -16.7820  -40.9035   -9.3933 C   0  0  1  0  0  0  0  0  0  0  0  0
  -16.4788  -40.3764  -10.7375 C   0  0  0  0  0  0  0  0  0  0  0  0
  -15.5746  -41.2834  -11.5513 C   0  0  2  0  0  0  0  0  0  0  0  0
  -15.5712  -40.8192  -12.9773 C   0  0  0  0  0  0  0  0  0  0  0  0
  -16.0364  -42.7189  -11.5008 C   0  0  0  0  0  0  0  0  0  0  0  0
  -14.9634  -43.6166  -10.9622 C   0  0  0  0  0  0  0  0  0  0  0  0
  -15.4148  -44.6967  -10.2158 O   0  0  0  0  0  0  0  0  0  0  0  0
  -14.3485  -45.5414   -9.9789 C   0  0  0  0  0  0  0  0  0  0  0  0
  -13.7516  -45.4767   -8.6171 C   0  0  0  0  0  0  0  0  0  0  0  0
  -14.0547  -45.7582   -7.4033 C   0  0  0  0  0  0  0  0  0  0  0  0
  -15.1407  -46.3101   -6.5553 C   0  0  0  0  0  0  0  0  0  0  0  0
  -16.4551  -46.3906   -7.1312 N   0  0  0  0  0  0  0  0  0  0  0  0
  -16.2202  -40.2272   -8.2058 C   0  0  2  0  0  0  0  0  0  0  0  0
  -15.2896  -40.9929   -7.5270 O   0  0  0  0  0  0  0  0  0  0  0  0
  -17.1114  -39.4965   -7.2963 C   0  0  0  0  0  0  0  0  0  0  0  0
  -18.3219  -39.0454   -7.8188 N   0  0  0  0  0  0  0  0  0  0  0  0
  -19.2269  -38.3164   -6.9743 C   0  0  0  0  0  0  0  0  0  0  0  0
  -19.2746  -38.4015   -5.5009 C   0  0  0  0  0  0  0  0  0  0  0  0
  -18.5172  -37.2799   -6.0892 C   0  0  0  0  0  0  0  0  0  0  0  0
  -20.3972  -37.7279   -7.6703 C   0  0  0  0  0  0  0  0  0  0  0  0
  -21.5955  -37.4982   -7.0246 C   0  0  0  0  0  0  0  0  0  0  0  0
  -22.7109  -36.9881   -7.6400 C   0  0  0  0  0  0  0  0  0  0  0  0
  -22.6405  -36.6844   -8.9804 C   0  0  0  0  0  0  0  0  0  0  0  0
  -21.4698  -36.8961   -9.6622 C   0  0  0  0  0  0  0  0  0  0  0  0
  -20.3505  -37.4202   -8.9952 C   0  0  0  0  0  0  0  0  0  0  0  0
  -23.9810  -36.7505   -6.9272 C   0  0  0  0  0  0  0  0  0  0  0  0
  -25.1073  -37.5490   -7.5400 C   0  0  0  0  0  0  0  0  0  0  0  0
  -23.8938  -37.1856   -5.4659 C   0  0  0  0  0  0  0  0  0  0  0  0
  -24.3798  -35.2911   -6.9587 C   0  0  0  0  0  0  0  0  0  0  0  0
  1  2  1  0
  2  3  1  0
  3  4  1  0
  4  5  2  0
  5  6  1  0
  6  7  2  0
  7  8  1  0
  8  9  2  0
  8 10  1  0
 10 11  2  0
 10 12  1  0
 12 13  1  0
 13 14  1  6
 14 15  1  0
 15 16  1  6
 15 17  1  0
 17 18  1  0
 18 19  1  0
 19 20  1  0
 20 21  1  0
 21 22  2  0
 22 23  1  0
 23 24  1  0
 13 25  1  0
 25 26  1  1
 25 27  1  0
 27 28  1  0
 28 29  1  0
 29 30  1  0
 30 31  1  0
 29 32  1  0
 32 33  2  0
 33 34  1  0
 34 35  2  0
 35 36  1  0
 36 37  2  0
 34 38  1  0
 38 39  1  0
 38 40  1  0
 38 41  1  0
  9  4  1  0
 24  6  1  0
 31 29  1  0
 37 32  1  0
M  END
$$$$
