
     RDKit          3D

 41 44  0  0  0  0  0  0  0  0999 V2000
  -20.0713  -40.0909  -14.1424 C   0  0  0  0  0  0  0  0  0  0  0  0
  -20.4970  -40.9619  -13.1717 O   0  0  0  0  0  0  0  0  0  0  0  0
  -19.7852  -42.1331  -13.0606 C   0  0  0  0  0  0  0  0  0  0  0  0
  -18.6185  -41.8628  -12.1703 C   0  0  0  0  0  0  0  0  0  0  0  0
  -17.4005  -42.4393  -12.3648 C   0  0  0  0  0  0  0  0  0  0  0  0
  -16.2790  -42.2040  -11.5266 C   0  0  0  0  0  0  0  0  0  0  0  0
  -16.3992  -41.3502  -10.4490 C   0  0  0  0  0  0  0  0  0  0  0  0
  -17.6227  -40.7408  -10.2176 C   0  0  0  0  0  0  0  0  0  0  0  0
  -18.7092  -41.0202  -11.0964 C   0  0  0  0  0  0  0  0  0  0  0  0
  -18.0534  -39.7836   -9.1800 C   0  0  0  0  0  0  0  0  0  0  0  0
  -19.2903  -39.9579   -8.7246 O   0  0  0  0  0  0  0  0  0  0  0  0
  -17.4513  -38.6992   -8.5410 N   0  0  0  0  0  0  0  0  0  0  0  0
  -16.0756  -38.6574   -8.0158 C   0  0  1  0  0  0  0  0  0  0  0  0
  -15.5556  -37.2804   -7.9140 C   0  0  0  0  0  0  0  0  0  0  0  0
  -14.2943  -37.0504   -8.7256 C   0  0  2  0  0  0  0  0  0  0  0  0
  -14.0210  -35.5777   -8.7983 C   0  0  0  0  0  0  0  0  0  0  0  0
  -14.4267  -37.5975  -10.1255 C   0  0  0  0  0  0  0  0  0  0  0  0
  -13.3615  -38.6114  -10.4161 C   0  0  0  0  0  0  0  0  0  0  0  0
  -13.7435  -39.6464  -11.2589 O   0  0  0  0  0  0  0  0  0  0  0  0
  -12.6176  -40.3656  -11.6073 C   0  0  0  0  0  0  0  0  0  0  0  0
  -12.4258  -41.6632  -10.9044 C   0  0  0  0  0  0  0  0  0  0  0  0
  -12.9655  -42.8242  -10.8321 C   0  0  0  0  0  0  0  0  0  0  0  0
  -14.0866  -43.6400  -11.3620 C   0  0  0  0  0  0  0  0  0  0  0  0
  -15.1544  -42.9455  -12.0277 N   0  0  0  0  0  0  0  0  0  0  0  0
  -16.0054  -39.5476   -6.8386 C   0  0  2  0  0  0  0  0  0  0  0  0
  -15.0138  -40.5071   -6.9342 O   0  0  0  0  0  0  0  0  0  0  0  0
  -17.2431  -40.0808   -6.2561 C   0  0  0  0  0  0  0  0  0  0  0  0
  -18.2489  -39.1651   -5.9530 N   0  0  0  0  0  0  0  0  0  0  0  0
  -19.4729  -39.6313   -5.3630 C   0  0  0  0  0  0  0  0  0  0  0  0
  -19.6320  -40.0682   -3.9614 C   0  0  0  0  0  0  0  0  0  0  0  0
  -20.0186  -38.6813   -4.2854 C   0  0  0  0  0  0  0  0  0  0  0  0
  -20.5274  -40.0195   -6.3313 C   0  0  0  0  0  0  0  0  0  0  0  0
  -21.5695  -39.1754   -6.6585 C   0  0  0  0  0  0  0  0  0  0  0  0
  -22.5823  -39.5090   -7.5223 C   0  0  0  0  0  0  0  0  0  0  0  0
  -22.5667  -40.7571   -8.1019 C   0  0  0  0  0  0  0  0  0  0  0  0
  -21.5503  -41.6285   -7.8060 C   0  0  0  0  0  0  0  0  0  0  0  0
  -20.5323  -41.2483   -6.9163 C   0  0  0  0  0  0  0  0  0  0  0  0
  -23.6856  -38.5879   -7.8569 C   0  0  0  0  0  0  0  0  0  0  0  0
  -23.2287  -37.5180   -8.8205 C   0  0  0  0  0  0  0  0  0  0  0  0
  -24.8374  -39.3186   -8.5436 C   0  0  0  0  0  0  0  0  0  0  0  0
  -24.2350  -37.8974   -6.6276 C   0  0  0  0  0  0  0  0  0  0  0  0
  1  2  1  0
  2  3  1  0
  3  4  1  0
  4  5  2  0
  5  6  1  0
  6  7  2  0
  7  8  1  0
  8  9  2  0
  8 10  1  0
 10 11  2  0
 10 12  1  0
 12 13  1  0
 13 14  1  1
 14 15  1  0
 15 16  1  6
 15 17  1  0
 17 18  1  0
 18 19  1  0
 19 20  1  0
 20 21  1  0
 21 22  2  0
 22 23  1  0
 23 24  1  0
 13 25  1  0
 25 26  1  6
 25 27  1  0
 27 28  1  0
 28 29  1  0
 29 30  1  0
 30 31  1  0
 29 32  1  0
 32 33  2  0
 33 34  1  0
 34 35  2  0
 35 36  1  0
 36 37  2  0
 34 38  1  0
 38 39  1  0
 38 40  1  0
 38 41  1  0
  9  4  1  0
 24  6  1  0
 31 29  1  0
 37 32  1  0
M  END
$$$$
