
     RDKit          3D

 41 44  0  0  0  0  0  0  0  0999 V2000
  -17.1295  -47.8870   -4.6544 C   0  0  0  0  0  0  0  0  0  0  0  0
  -17.5240  -47.2810   -5.8204 O   0  0  0  0  0  0  0  0  0  0  0  0
  -18.8721  -47.0418   -5.9473 C   0  0  0  0  0  0  0  0  0  0  0  0
  -19.0303  -45.8133   -6.7798 C   0  0  0  0  0  0  0  0  0  0  0  0
  -20.0205  -45.6783   -7.7043 C   0  0  0  0  0  0  0  0  0  0  0  0
  -20.1856  -44.5232   -8.5132 C   0  0  0  0  0  0  0  0  0  0  0  0
  -19.3110  -43.4642   -8.3778 C   0  0  0  0  0  0  0  0  0  0  0  0
  -18.2897  -43.5611   -7.4453 C   0  0  0  0  0  0  0  0  0  0  0  0
  -18.1788  -44.7486   -6.6654 C   0  0  0  0  0  0  0  0  0  0  0  0
  -17.2281  -42.6105   -7.0611 C   0  0  0  0  0  0  0  0  0  0  0  0
  -16.0471  -43.1574   -6.7893 O   0  0  0  0  0  0  0  0  0  0  0  0
  -17.1661  -41.2251   -6.9078 N   0  0  0  0  0  0  0  0  0  0  0  0
  -17.7360  -40.2251   -7.8272 C   0  0  1  0  0  0  0  0  0  0  0  0
  -18.0014  -38.9364   -7.1597 C   0  0  0  0  0  0  0  0  0  0  0  0
  -19.4560  -38.5098   -7.2284 C   0  0  2  0  0  0  0  0  0  0  0  0
  -19.6759  -37.3666   -6.2830 C   0  0  0  0  0  0  0  0  0  0  0  0
  -20.3847  -39.6404   -6.8600 C   0  0  0  0  0  0  0  0  0  0  0  0
  -21.3453  -39.9392   -7.9715 C   0  0  0  0  0  0  0  0  0  0  0  0
  -21.7059  -41.2737   -8.0994 O   0  0  0  0  0  0  0  0  0  0  0  0
  -22.7459  -41.3615   -9.0034 C   0  0  0  0  0  0  0  0  0  0  0  0
  -22.3891  -41.8345  -10.3685 C   0  0  0  0  0  0  0  0  0  0  0  0
  -21.9809  -42.8974  -10.9585 C   0  0  0  0  0  0  0  0  0  0  0  0
  -21.6017  -44.3115  -10.7144 C   0  0  0  0  0  0  0  0  0  0  0  0
  -21.3354  -44.7012   -9.3568 N   0  0  0  0  0  0  0  0  0  0  0  0
  -16.9462  -40.2455   -9.0758 C   0  0  2  0  0  0  0  0  0  0  0  0
  -17.4136  -41.1561  -10.0061 O   0  0  0  0  0  0  0  0  0  0  0  0
  -15.4798  -40.2197   -9.0086 C   0  0  0  0  0  0  0  0  0  0  0  0
  -14.7884  -40.1989  -10.2182 N   0  0  0  0  0  0  0  0  0  0  0  0
  -13.8055  -39.1775  -10.4515 C   0  0  0  0  0  0  0  0  0  0  0  0
  -12.4836  -39.1005   -9.7980 C   0  0  0  0  0  0  0  0  0  0  0  0
  -12.5396  -39.7102  -11.1408 C   0  0  0  0  0  0  0  0  0  0  0  0
  -14.3171  -37.9566  -11.1208 C   0  0  0  0  0  0  0  0  0  0  0  0
  -13.6254  -36.7622  -11.0967 C   0  0  0  0  0  0  0  0  0  0  0  0
  -14.0799  -35.6029  -11.6734 C   0  0  0  0  0  0  0  0  0  0  0  0
  -15.2965  -35.6222  -12.3163 C   0  0  0  0  0  0  0  0  0  0  0  0
  -16.0182  -36.7871  -12.3652 C   0  0  0  0  0  0  0  0  0  0  0  0
  -15.5176  -37.9523  -11.7620 C   0  0  0  0  0  0  0  0  0  0  0  0
  -13.3207  -34.3381  -11.6348 C   0  0  0  0  0  0  0  0  0  0  0  0
  -12.8841  -34.0074  -10.2270 C   0  0  0  0  0  0  0  0  0  0  0  0
  -12.0447  -34.4242  -12.4693 C   0  0  0  0  0  0  0  0  0  0  0  0
  -14.1395  -33.1741  -12.1492 C   0  0  0  0  0  0  0  0  0  0  0  0
  1  2  1  0
  2  3  1  0
  3  4  1  0
  4  5  2  0
  5  6  1  0
  6  7  2  0
  7  8  1  0
  8  9  2  0
  8 10  1  0
 10 11  2  0
 10 12  1  0
 12 13  1  0
 13 14  1  1
 14 15  1  0
 15 16  1  1
 15 17  1  0
 17 18  1  0
 18 19  1  0
 19 20  1  0
 20 21  1  0
 21 22  2  0
 22 23  1  0
 23 24  1  0
 13 25  1  0
 25 26  1  1
 25 27  1  0
 27 28  1  0
 28 29  1  0
 29 30  1  0
 30 31  1  0
 29 32  1  0
 32 33  2  0
 33 34  1  0
 34 35  2  0
 35 36  1  0
 36 37  2  0
 34 38  1  0
 38 39  1  0
 38 40  1  0
 38 41  1  0
  9  4  1  0
 24  6  1  0
 31 29  1  0
 37 32  1  0
M  END
$$$$
