
     RDKit          3D

 41 44  0  0  0  0  0  0  0  0999 V2000
  -16.9105  -46.9916   -4.2757 C   0  0  0  0  0  0  0  0  0  0  0  0
  -16.9160  -46.8961   -5.6443 O   0  0  0  0  0  0  0  0  0  0  0  0
  -18.0026  -47.4476   -6.2812 C   0  0  0  0  0  0  0  0  0  0  0  0
  -18.5358  -46.4204   -7.2234 C   0  0  0  0  0  0  0  0  0  0  0  0
  -19.3729  -46.7337   -8.2504 C   0  0  0  0  0  0  0  0  0  0  0  0
  -19.8859  -45.7755   -9.1638 C   0  0  0  0  0  0  0  0  0  0  0  0
  -19.5349  -44.4475   -9.0290 C   0  0  0  0  0  0  0  0  0  0  0  0
  -18.6859  -44.0866   -7.9941 C   0  0  0  0  0  0  0  0  0  0  0  0
  -18.2055  -45.0975   -7.1121 C   0  0  0  0  0  0  0  0  0  0  0  0
  -18.1529  -42.7725   -7.5848 C   0  0  0  0  0  0  0  0  0  0  0  0
  -16.8957  -42.7793   -7.1522 O   0  0  0  0  0  0  0  0  0  0  0  0
  -18.6725  -41.4784   -7.5404 N   0  0  0  0  0  0  0  0  0  0  0  0
  -19.4765  -40.8307   -8.5912 C   0  0  1  0  0  0  0  0  0  0  0  0
  -20.3185  -39.7410   -8.0618 C   0  0  0  0  0  0  0  0  0  0  0  0
  -21.8008  -39.9489   -8.3105 C   0  0  2  0  0  0  0  0  0  0  0  0
  -22.5777  -38.9638   -7.4889 C   0  0  0  0  0  0  0  0  0  0  0  0
  -22.2350  -41.3470   -7.9453 C   0  0  0  0  0  0  0  0  0  0  0  0
  -22.8476  -42.0501   -9.1190 C   0  0  0  0  0  0  0  0  0  0  0  0
  -22.6224  -43.4190   -9.1725 O   0  0  0  0  0  0  0  0  0  0  0  0
  -23.4178  -43.9551  -10.1657 C   0  0  0  0  0  0  0  0  0  0  0  0
  -22.7335  -44.2874  -11.4448 C   0  0  0  0  0  0  0  0  0  0  0  0
  -21.8625  -45.1102  -11.9017 C   0  0  0  0  0  0  0  0  0  0  0  0
  -20.9807  -46.2365  -11.5056 C   0  0  0  0  0  0  0  0  0  0  0  0
  -20.7521  -46.4366  -10.1008 N   0  0  0  0  0  0  0  0  0  0  0  0
  -18.5960  -40.5694   -9.7486 C   0  0  2  0  0  0  0  0  0  0  0  0
  -18.4985  -41.6412  -10.6173 O   0  0  0  0  0  0  0  0  0  0  0  0
  -17.3061  -39.8987   -9.5434 C   0  0  0  0  0  0  0  0  0  0  0  0
  -17.2834  -38.8214   -8.6598 N   0  0  0  0  0  0  0  0  0  0  0  0
  -17.1969  -37.4847   -9.1792 C   0  0  0  0  0  0  0  0  0  0  0  0
  -17.9698  -36.3267   -8.6871 C   0  0  0  0  0  0  0  0  0  0  0  0
  -16.5954  -36.4894   -8.1747 C   0  0  0  0  0  0  0  0  0  0  0  0
  -16.5537  -37.3702  -10.5109 C   0  0  0  0  0  0  0  0  0  0  0  0
  -15.1956  -37.1689  -10.6547 C   0  0  0  0  0  0  0  0  0  0  0  0
  -14.5676  -37.0236  -11.8661 C   0  0  0  0  0  0  0  0  0  0  0  0
  -15.3284  -37.0806  -13.0114 C   0  0  0  0  0  0  0  0  0  0  0  0
  -16.6818  -37.2794  -12.9161 C   0  0  0  0  0  0  0  0  0  0  0  0
  -17.2862  -37.4233  -11.6566 C   0  0  0  0  0  0  0  0  0  0  0  0
  -13.1130  -36.8101  -11.9937 C   0  0  0  0  0  0  0  0  0  0  0  0
  -12.4766  -37.8870  -12.8406 C   0  0  0  0  0  0  0  0  0  0  0  0
  -12.7992  -35.4834  -12.6818 C   0  0  0  0  0  0  0  0  0  0  0  0
  -12.4231  -36.8144  -10.6469 C   0  0  0  0  0  0  0  0  0  0  0  0
  1  2  1  0
  2  3  1  0
  3  4  1  0
  4  5  2  0
  5  6  1  0
  6  7  2  0
  7  8  1  0
  8  9  2  0
  8 10  1  0
 10 11  2  0
 10 12  1  0
 12 13  1  0
 13 14  1  1
 14 15  1  0
 15 16  1  1
 15 17  1  0
 17 18  1  0
 18 19  1  0
 19 20  1  0
 20 21  1  0
 21 22  2  0
 22 23  1  0
 23 24  1  0
 13 25  1  0
 25 26  1  1
 25 27  1  0
 27 28  1  0
 28 29  1  0
 29 30  1  0
 30 31  1  0
 29 32  1  0
 32 33  2  0
 33 34  1  0
 34 35  2  0
 35 36  1  0
 36 37  2  0
 34 38  1  0
 38 39  1  0
 38 40  1  0
 38 41  1  0
  9  4  1  0
 24  6  1  0
 31 29  1  0
 37 32  1  0
M  END
$$$$
