
     RDKit          3D

 41 44  0  0  0  0  0  0  0  0999 V2000
  -23.3796  -45.1246   -7.4581 C   0  0  0  0  0  0  0  0  0  0  0  0
  -22.1501  -44.9972   -6.8628 O   0  0  0  0  0  0  0  0  0  0  0  0
  -21.9745  -43.8814   -6.0786 C   0  0  0  0  0  0  0  0  0  0  0  0
  -20.6347  -43.3120   -6.4073 C   0  0  0  0  0  0  0  0  0  0  0  0
  -19.5446  -43.5011   -5.6139 C   0  0  0  0  0  0  0  0  0  0  0  0
  -18.2628  -42.9626   -5.9016 C   0  0  0  0  0  0  0  0  0  0  0  0
  -18.0813  -42.2024   -7.0391 C   0  0  0  0  0  0  0  0  0  0  0  0
  -19.1662  -41.9882   -7.8751 C   0  0  0  0  0  0  0  0  0  0  0  0
  -20.4263  -42.5563   -7.5284 C   0  0  0  0  0  0  0  0  0  0  0  0
  -19.2846  -41.2501   -9.1477 C   0  0  0  0  0  0  0  0  0  0  0  0
  -20.4201  -40.5780   -9.3111 O   0  0  0  0  0  0  0  0  0  0  0  0
  -18.4602  -41.0845  -10.2612 N   0  0  0  0  0  0  0  0  0  0  0  0
  -17.0117  -40.8177  -10.2352 C   0  0  1  0  0  0  0  0  0  0  0  0
  -16.3421  -41.2346  -11.4819 C   0  0  0  0  0  0  0  0  0  0  0  0
  -15.2465  -42.2616  -11.2640 C   0  0  2  0  0  0  0  0  0  0  0  0
  -14.8416  -42.8341  -12.5895 C   0  0  0  0  0  0  0  0  0  0  0  0
  -15.7055  -43.3811  -10.3625 C   0  0  0  0  0  0  0  0  0  0  0  0
  -14.8284  -43.4993   -9.1525 C   0  0  0  0  0  0  0  0  0  0  0  0
  -15.4728  -43.9053   -7.9917 O   0  0  0  0  0  0  0  0  0  0  0  0
  -14.5172  -44.1795   -7.0336 C   0  0  0  0  0  0  0  0  0  0  0  0
  -14.3274  -43.1433   -5.9824 C   0  0  0  0  0  0  0  0  0  0  0  0
  -14.9600  -42.6280   -4.9931 C   0  0  0  0  0  0  0  0  0  0  0  0
  -16.2413  -42.6957   -4.2469 C   0  0  0  0  0  0  0  0  0  0  0  0
  -17.3407  -43.3727   -4.8784 N   0  0  0  0  0  0  0  0  0  0  0  0
  -16.8058  -39.4462   -9.7254 C   0  0  2  0  0  0  0  0  0  0  0  0
  -15.7855  -39.3534   -8.7962 O   0  0  0  0  0  0  0  0  0  0  0  0
  -17.9667  -38.6238   -9.3630 C   0  0  0  0  0  0  0  0  0  0  0  0
  -18.2529  -37.5327  -10.1812 N   0  0  0  0  0  0  0  0  0  0  0  0
  -19.6035  -37.0506  -10.2673 C   0  0  0  0  0  0  0  0  0  0  0  0
  -20.7728  -37.6667   -9.6087 C   0  0  0  0  0  0  0  0  0  0  0  0
  -20.1377  -36.5224   -8.9267 C   0  0  0  0  0  0  0  0  0  0  0  0
  -19.8577  -36.0922  -11.3705 C   0  0  0  0  0  0  0  0  0  0  0  0
  -20.7765  -35.0684  -11.2557 C   0  0  0  0  0  0  0  0  0  0  0  0
  -21.0654  -34.1828  -12.2633 C   0  0  0  0  0  0  0  0  0  0  0  0
  -20.4050  -34.3151  -13.4634 C   0  0  0  0  0  0  0  0  0  0  0  0
  -19.4833  -35.3179  -13.6222 C   0  0  0  0  0  0  0  0  0  0  0  0
  -19.2166  -36.2039  -12.5657 C   0  0  0  0  0  0  0  0  0  0  0  0
  -22.0519  -33.0953  -12.1155 C   0  0  0  0  0  0  0  0  0  0  0  0
  -22.4369  -32.9021  -10.6676 C   0  0  0  0  0  0  0  0  0  0  0  0
  -21.4877  -31.7580  -12.5903 C   0  0  0  0  0  0  0  0  0  0  0  0
  -23.3180  -33.3737  -12.8962 C   0  0  0  0  0  0  0  0  0  0  0  0
  1  2  1  0
  2  3  1  0
  3  4  1  0
  4  5  2  0
  5  6  1  0
  6  7  2  0
  7  8  1  0
  8  9  2  0
  8 10  1  0
 10 11  2  0
 10 12  1  0
 12 13  1  0
 13 14  1  6
 14 15  1  0
 15 16  1  6
 15 17  1  0
 17 18  1  0
 18 19  1  0
 19 20  1  0
 20 21  1  0
 21 22  2  0
 22 23  1  0
 23 24  1  0
 13 25  1  0
 25 26  1  1
 25 27  1  0
 27 28  1  0
 28 29  1  0
 29 30  1  0
 30 31  1  0
 29 32  1  0
 32 33  2  0
 33 34  1  0
 34 35  2  0
 35 36  1  0
 36 37  2  0
 34 38  1  0
 38 39  1  0
 38 40  1  0
 38 41  1  0
  9  4  1  0
 24  6  1  0
 31 29  1  0
 37 32  1  0
M  END
$$$$
