
     RDKit          3D

 41 44  0  0  0  0  0  0  0  0999 V2000
  -20.0462  -47.2325  -10.4155 C   0  0  0  0  0  0  0  0  0  0  0  0
  -19.8016  -46.1819  -11.2633 O   0  0  0  0  0  0  0  0  0  0  0  0
  -18.5258  -46.1025  -11.7698 C   0  0  0  0  0  0  0  0  0  0  0  0
  -17.7806  -45.1056  -10.9464 C   0  0  0  0  0  0  0  0  0  0  0  0
  -16.5281  -45.3417  -10.4677 C   0  0  0  0  0  0  0  0  0  0  0  0
  -15.8034  -44.4125   -9.6759 C   0  0  0  0  0  0  0  0  0  0  0  0
  -16.3730  -43.1962   -9.3577 C   0  0  0  0  0  0  0  0  0  0  0  0
  -17.6467  -42.9159   -9.8279 C   0  0  0  0  0  0  0  0  0  0  0  0
  -18.3204  -43.8924  -10.6174 C   0  0  0  0  0  0  0  0  0  0  0  0
  -18.4999  -41.7211   -9.6765 C   0  0  0  0  0  0  0  0  0  0  0  0
  -19.7977  -41.9656   -9.5235 O   0  0  0  0  0  0  0  0  0  0  0  0
  -18.2612  -40.3466   -9.6566 N   0  0  0  0  0  0  0  0  0  0  0  0
  -17.1718  -39.6665   -8.9350 C   0  0  1  0  0  0  0  0  0  0  0  0
  -16.8436  -38.3536   -9.5226 C   0  0  0  0  0  0  0  0  0  0  0  0
  -15.4011  -38.2407   -9.9795 C   0  0  2  0  0  0  0  0  0  0  0  0
  -15.2486  -37.0073  -10.8188 C   0  0  0  0  0  0  0  0  0  0  0  0
  -14.9784  -39.4427  -10.7876 C   0  0  0  0  0  0  0  0  0  0  0  0
  -13.7959  -40.1254  -10.1688 C   0  0  0  0  0  0  0  0  0  0  0  0
  -13.7615  -41.5048  -10.3223 O   0  0  0  0  0  0  0  0  0  0  0  0
  -12.5274  -41.9613   -9.9037 C   0  0  0  0  0  0  0  0  0  0  0  0
  -12.4867  -42.6007   -8.5605 C   0  0  0  0  0  0  0  0  0  0  0  0
  -12.9140  -43.6538   -7.9666 C   0  0  0  0  0  0  0  0  0  0  0  0
  -13.6976  -44.8957   -8.1833 C   0  0  0  0  0  0  0  0  0  0  0  0
  -14.5143  -44.9661   -9.3639 N   0  0  0  0  0  0  0  0  0  0  0  0
  -17.4484  -39.7636   -7.4868 C   0  0  2  0  0  0  0  0  0  0  0  0
  -17.0729  -40.9757   -6.9363 O   0  0  0  0  0  0  0  0  0  0  0  0
  -18.7319  -39.2850   -6.9586 C   0  0  0  0  0  0  0  0  0  0  0  0
  -19.0969  -39.7188   -5.6856 N   0  0  0  0  0  0  0  0  0  0  0  0
  -20.4890  -39.8633   -5.3617 C   0  0  0  0  0  0  0  0  0  0  0  0
  -21.0268  -40.6759   -4.2523 C   0  0  0  0  0  0  0  0  0  0  0  0
  -20.8588  -39.2296   -4.0114 C   0  0  0  0  0  0  0  0  0  0  0  0
  -21.4279  -39.4493   -6.4328 C   0  0  0  0  0  0  0  0  0  0  0  0
  -21.2234  -38.3124   -7.1886 C   0  0  0  0  0  0  0  0  0  0  0  0
  -22.0845  -37.8769   -8.1642 C   0  0  0  0  0  0  0  0  0  0  0  0
  -23.2223  -38.6104   -8.4112 C   0  0  0  0  0  0  0  0  0  0  0  0
  -23.4661  -39.7474   -7.6845 C   0  0  0  0  0  0  0  0  0  0  0  0
  -22.5593  -40.1590   -6.6943 C   0  0  0  0  0  0  0  0  0  0  0  0
  -21.8428  -36.6577   -8.9598 C   0  0  0  0  0  0  0  0  0  0  0  0
  -20.5724  -36.7777   -9.7683 C   0  0  0  0  0  0  0  0  0  0  0  0
  -22.9670  -36.4111   -9.9635 C   0  0  0  0  0  0  0  0  0  0  0  0
  -21.7182  -35.4297   -8.0844 C   0  0  0  0  0  0  0  0  0  0  0  0
  1  2  1  0
  2  3  1  0
  3  4  1  0
  4  5  2  0
  5  6  1  0
  6  7  2  0
  7  8  1  0
  8  9  2  0
  8 10  1  0
 10 11  2  0
 10 12  1  0
 12 13  1  0
 13 14  1  6
 14 15  1  0
 15 16  1  6
 15 17  1  0
 17 18  1  0
 18 19  1  0
 19 20  1  0
 20 21  1  0
 21 22  2  0
 22 23  1  0
 23 24  1  0
 13 25  1  0
 25 26  1  6
 25 27  1  0
 27 28  1  0
 28 29  1  0
 29 30  1  0
 30 31  1  0
 29 32  1  0
 32 33  2  0
 33 34  1  0
 34 35  2  0
 35 36  1  0
 36 37  2  0
 34 38  1  0
 38 39  1  0
 38 40  1  0
 38 41  1  0
  9  4  1  0
 24  6  1  0
 31 29  1  0
 37 32  1  0
M  END
$$$$
