
     RDKit          3D

 41 44  0  0  0  0  0  0  0  0999 V2000
  -17.1296  -46.9577  -13.3899 C   0  0  0  0  0  0  0  0  0  0  0  0
  -17.6342  -45.7959  -12.8629 O   0  0  0  0  0  0  0  0  0  0  0  0
  -17.9487  -45.8296  -11.5247 C   0  0  0  0  0  0  0  0  0  0  0  0
  -17.0961  -44.8135  -10.8408 C   0  0  0  0  0  0  0  0  0  0  0  0
  -15.8590  -45.1052  -10.3528 C   0  0  0  0  0  0  0  0  0  0  0  0
  -15.0337  -44.1580   -9.6915 C   0  0  0  0  0  0  0  0  0  0  0  0
  -15.4824  -42.8643   -9.5189 C   0  0  0  0  0  0  0  0  0  0  0  0
  -16.7363  -42.5259  -10.0037 C   0  0  0  0  0  0  0  0  0  0  0  0
  -17.5152  -43.5242  -10.6575 C   0  0  0  0  0  0  0  0  0  0  0  0
  -17.4733  -41.2472   -9.9903 C   0  0  0  0  0  0  0  0  0  0  0  0
  -18.7840  -41.3490   -9.7913 O   0  0  0  0  0  0  0  0  0  0  0  0
  -17.1102  -39.9088  -10.1436 N   0  0  0  0  0  0  0  0  0  0  0  0
  -15.9462  -39.2503   -9.5259 C   0  0  1  0  0  0  0  0  0  0  0  0
  -15.5143  -38.0553  -10.2757 C   0  0  0  0  0  0  0  0  0  0  0  0
  -14.0791  -38.1341  -10.7617 C   0  0  2  0  0  0  0  0  0  0  0  0
  -13.8355  -37.0319  -11.7490 C   0  0  0  0  0  0  0  0  0  0  0  0
  -13.7873  -39.4599  -11.4202 C   0  0  0  0  0  0  0  0  0  0  0  0
  -12.6570  -40.1693  -10.7371 C   0  0  0  0  0  0  0  0  0  0  0  0
  -12.7521  -41.5542  -10.7192 O   0  0  0  0  0  0  0  0  0  0  0  0
  -11.5548  -42.0694  -10.2634 C   0  0  0  0  0  0  0  0  0  0  0  0
  -11.5398  -42.5411   -8.8520 C   0  0  0  0  0  0  0  0  0  0  0  0
  -12.0465  -43.4694   -8.1268 C   0  0  0  0  0  0  0  0  0  0  0  0
  -12.9450  -44.6498   -8.1780 C   0  0  0  0  0  0  0  0  0  0  0  0
  -13.7932  -44.7873   -9.3301 N   0  0  0  0  0  0  0  0  0  0  0  0
  -16.1952  -39.1438   -8.0734 C   0  0  2  0  0  0  0  0  0  0  0  0
  -15.3362  -39.9148   -7.3112 O   0  0  0  0  0  0  0  0  0  0  0  0
  -17.5732  -39.1789   -7.5680 C   0  0  0  0  0  0  0  0  0  0  0  0
  -18.5317  -38.4663   -8.2858 N   0  0  0  0  0  0  0  0  0  0  0  0
  -19.9231  -38.7724   -8.1010 C   0  0  0  0  0  0  0  0  0  0  0  0
  -21.0392  -38.1481   -8.8393 C   0  0  0  0  0  0  0  0  0  0  0  0
  -20.5542  -39.4546   -9.3249 C   0  0  0  0  0  0  0  0  0  0  0  0
  -20.2442  -39.4975   -6.8475 C   0  0  0  0  0  0  0  0  0  0  0  0
  -21.5437  -39.7709   -6.4705 C   0  0  0  0  0  0  0  0  0  0  0  0
  -21.8841  -40.4081   -5.3038 C   0  0  0  0  0  0  0  0  0  0  0  0
  -20.8771  -40.8020   -4.4526 C   0  0  0  0  0  0  0  0  0  0  0  0
  -19.5711  -40.5514   -4.7869 C   0  0  0  0  0  0  0  0  0  0  0  0
  -19.2649  -39.8961   -5.9907 C   0  0  0  0  0  0  0  0  0  0  0  0
  -23.2818  -40.6899   -4.9234 C   0  0  0  0  0  0  0  0  0  0  0  0
  -24.0606  -39.4109   -4.7242 C   0  0  0  0  0  0  0  0  0  0  0  0
  -24.0131  -41.4707   -6.0132 C   0  0  0  0  0  0  0  0  0  0  0  0
  -23.3663  -41.4861   -3.6394 C   0  0  0  0  0  0  0  0  0  0  0  0
  1  2  1  0
  2  3  1  0
  3  4  1  0
  4  5  2  0
  5  6  1  0
  6  7  2  0
  7  8  1  0
  8  9  2  0
  8 10  1  0
 10 11  2  0
 10 12  1  0
 12 13  1  0
 13 14  1  6
 14 15  1  0
 15 16  1  6
 15 17  1  0
 17 18  1  0
 18 19  1  0
 19 20  1  0
 20 21  1  0
 21 22  2  0
 22 23  1  0
 23 24  1  0
 13 25  1  0
 25 26  1  1
 25 27  1  0
 27 28  1  0
 28 29  1  0
 29 30  1  0
 30 31  1  0
 29 32  1  0
 32 33  2  0
 33 34  1  0
 34 35  2  0
 35 36  1  0
 36 37  2  0
 34 38  1  0
 38 39  1  0
 38 40  1  0
 38 41  1  0
  9  4  1  0
 24  6  1  0
 31 29  1  0
 37 32  1  0
M  END
$$$$
