
     RDKit          3D

 41 44  0  0  0  0  0  0  0  0999 V2000
  -15.0781  -47.3981  -11.5207 C   0  0  0  0  0  0  0  0  0  0  0  0
  -15.6500  -46.1732  -11.7546 O   0  0  0  0  0  0  0  0  0  0  0  0
  -14.9072  -45.2973  -12.5106 C   0  0  0  0  0  0  0  0  0  0  0  0
  -14.6883  -44.0723  -11.6868 C   0  0  0  0  0  0  0  0  0  0  0  0
  -13.4560  -43.6978  -11.2455 C   0  0  0  0  0  0  0  0  0  0  0  0
  -13.2246  -42.5420  -10.4541 C   0  0  0  0  0  0  0  0  0  0  0  0
  -14.2860  -41.7354  -10.0969 C   0  0  0  0  0  0  0  0  0  0  0  0
  -15.5574  -42.0808  -10.5284 C   0  0  0  0  0  0  0  0  0  0  0  0
  -15.7217  -43.2545  -11.3197 C   0  0  0  0  0  0  0  0  0  0  0  0
  -16.8647  -41.4248  -10.3311 C   0  0  0  0  0  0  0  0  0  0  0  0
  -17.8921  -42.2489  -10.1495 O   0  0  0  0  0  0  0  0  0  0  0  0
  -17.2957  -40.0984  -10.2896 N   0  0  0  0  0  0  0  0  0  0  0  0
  -16.6279  -38.9918   -9.5829 C   0  0  1  0  0  0  0  0  0  0  0  0
  -16.9706  -37.6746  -10.1523 C   0  0  0  0  0  0  0  0  0  0  0  0
  -15.7637  -36.8974  -10.6439 C   0  0  2  0  0  0  0  0  0  0  0  0
  -16.2325  -35.7312  -11.4618 C   0  0  0  0  0  0  0  0  0  0  0  0
  -14.8544  -37.7574  -11.4866 C   0  0  0  0  0  0  0  0  0  0  0  0
  -13.4707  -37.8111  -10.9124 C   0  0  0  0  0  0  0  0  0  0  0  0
  -12.8005  -39.0133  -11.0944 O   0  0  0  0  0  0  0  0  0  0  0  0
  -11.4834  -38.8418  -10.7171 C   0  0  0  0  0  0  0  0  0  0  0  0
  -11.1053  -39.3956   -9.3885 C   0  0  0  0  0  0  0  0  0  0  0  0
  -10.9714  -40.5296   -8.8050 C   0  0  0  0  0  0  0  0  0  0  0  0
  -11.0903  -41.9925   -9.0264 C   0  0  0  0  0  0  0  0  0  0  0  0
  -11.8169  -42.4301  -10.1867 N   0  0  0  0  0  0  0  0  0  0  0  0
  -16.7802  -39.2153   -8.1303 C   0  0  2  0  0  0  0  0  0  0  0  0
  -16.8325  -40.5532   -7.7833 O   0  0  0  0  0  0  0  0  0  0  0  0
  -17.7355  -38.4033   -7.3664 C   0  0  0  0  0  0  0  0  0  0  0  0
  -18.9382  -39.0080   -7.0061 N   0  0  0  0  0  0  0  0  0  0  0  0
  -20.0237  -39.0352   -7.9466 C   0  0  0  0  0  0  0  0  0  0  0  0
  -19.9193  -38.6958   -9.3799 C   0  0  0  0  0  0  0  0  0  0  0  0
  -19.8615  -40.1253   -9.0176 C   0  0  0  0  0  0  0  0  0  0  0  0
  -21.3774  -39.0644   -7.3407 C   0  0  0  0  0  0  0  0  0  0  0  0
  -21.5970  -39.5236   -6.0576 C   0  0  0  0  0  0  0  0  0  0  0  0
  -22.8363  -39.5989   -5.4733 C   0  0  0  0  0  0  0  0  0  0  0  0
  -23.9316  -39.1948   -6.2020 C   0  0  0  0  0  0  0  0  0  0  0  0
  -23.7605  -38.7311   -7.4810 C   0  0  0  0  0  0  0  0  0  0  0  0
  -22.4747  -38.6701   -8.0426 C   0  0  0  0  0  0  0  0  0  0  0  0
  -23.0451  -40.0929   -4.0985 C   0  0  0  0  0  0  0  0  0  0  0  0
  -23.3570  -38.9570   -3.1529 C   0  0  0  0  0  0  0  0  0  0  0  0
  -24.2310  -41.0519   -4.0213 C   0  0  0  0  0  0  0  0  0  0  0  0
  -21.8246  -40.8130   -3.5677 C   0  0  0  0  0  0  0  0  0  0  0  0
  1  2  1  0
  2  3  1  0
  3  4  1  0
  4  5  2  0
  5  6  1  0
  6  7  2  0
  7  8  1  0
  8  9  2  0
  8 10  1  0
 10 11  2  0
 10 12  1  0
 12 13  1  0
 13 14  1  6
 14 15  1  0
 15 16  1  6
 15 17  1  0
 17 18  1  0
 18 19  1  0
 19 20  1  0
 20 21  1  0
 21 22  2  0
 22 23  1  0
 23 24  1  0
 13 25  1  0
 25 26  1  6
 25 27  1  0
 27 28  1  0
 28 29  1  0
 29 30  1  0
 30 31  1  0
 29 32  1  0
 32 33  2  0
 33 34  1  0
 34 35  2  0
 35 36  1  0
 36 37  2  0
 34 38  1  0
 38 39  1  0
 38 40  1  0
 38 41  1  0
  9  4  1  0
 24  6  1  0
 31 29  1  0
 37 32  1  0
M  END
$$$$
