
     RDKit          3D

 41 44  0  0  0  0  0  0  0  0999 V2000
  -23.4585  -36.3802   -7.2575 C   0  0  0  0  0  0  0  0  0  0  0  0
  -23.2710  -37.4913   -6.4749 O   0  0  0  0  0  0  0  0  0  0  0  0
  -23.5742  -38.6977   -7.0609 C   0  0  0  0  0  0  0  0  0  0  0  0
  -22.4128  -39.6072   -6.8353 C   0  0  0  0  0  0  0  0  0  0  0  0
  -22.4014  -40.5497   -5.8528 C   0  0  0  0  0  0  0  0  0  0  0  0
  -21.3054  -41.4199   -5.6140 C   0  0  0  0  0  0  0  0  0  0  0  0
  -20.1770  -41.3294   -6.4036 C   0  0  0  0  0  0  0  0  0  0  0  0
  -20.1496  -40.3838   -7.4170 C   0  0  0  0  0  0  0  0  0  0  0  0
  -21.2829  -39.5401   -7.6035 C   0  0  0  0  0  0  0  0  0  0  0  0
  -19.1166  -40.0612   -8.4206 C   0  0  0  0  0  0  0  0  0  0  0  0
  -18.9836  -38.7689   -8.7037 O   0  0  0  0  0  0  0  0  0  0  0  0
  -18.2146  -40.8159   -9.1713 N   0  0  0  0  0  0  0  0  0  0  0  0
  -17.3889  -41.9286   -8.6714 C   0  0  1  0  0  0  0  0  0  0  0  0
  -16.9834  -42.8536   -9.7469 C   0  0  0  0  0  0  0  0  0  0  0  0
  -17.4465  -44.2809   -9.5215 C   0  0  2  0  0  0  0  0  0  0  0  0
  -17.2525  -45.0638  -10.7857 C   0  0  0  0  0  0  0  0  0  0  0  0
  -18.9011  -44.3372   -9.1245 C   0  0  0  0  0  0  0  0  0  0  0  0
  -19.0770  -45.0137   -7.7984 C   0  0  0  0  0  0  0  0  0  0  0  0
  -20.1184  -44.5276   -7.0195 O   0  0  0  0  0  0  0  0  0  0  0  0
  -20.2959  -45.3776   -5.9460 C   0  0  0  0  0  0  0  0  0  0  0  0
  -19.7524  -44.9086   -4.6424 C   0  0  0  0  0  0  0  0  0  0  0  0
  -19.9649  -43.9962   -3.7668 C   0  0  0  0  0  0  0  0  0  0  0  0
  -20.8432  -42.8410   -3.4547 C   0  0  0  0  0  0  0  0  0  0  0  0
  -21.6334  -42.3010   -4.5270 N   0  0  0  0  0  0  0  0  0  0  0  0
  -16.3600  -41.3692   -7.7705 C   0  0  2  0  0  0  0  0  0  0  0  0
  -16.8078  -41.1815   -6.4753 O   0  0  0  0  0  0  0  0  0  0  0  0
  -15.5125  -40.2633   -8.2333 C   0  0  0  0  0  0  0  0  0  0  0  0
  -15.0900  -40.2989   -9.5607 N   0  0  0  0  0  0  0  0  0  0  0  0
  -14.1102  -39.3515  -10.0148 C   0  0  0  0  0  0  0  0  0  0  0  0
  -12.6850  -39.3467   -9.6284 C   0  0  0  0  0  0  0  0  0  0  0  0
  -13.0354  -39.9846  -10.9123 C   0  0  0  0  0  0  0  0  0  0  0  0
  -14.6660  -38.1163  -10.6194 C   0  0  0  0  0  0  0  0  0  0  0  0
  -13.8714  -37.0329  -10.9362 C   0  0  0  0  0  0  0  0  0  0  0  0
  -14.3508  -35.8605  -11.4643 C   0  0  0  0  0  0  0  0  0  0  0  0
  -15.7028  -35.7488  -11.6955 C   0  0  0  0  0  0  0  0  0  0  0  0
  -16.5302  -36.8004  -11.3961 C   0  0  0  0  0  0  0  0  0  0  0  0
  -15.9995  -37.9834  -10.8565 C   0  0  0  0  0  0  0  0  0  0  0  0
  -13.4800  -34.7161  -11.7957 C   0  0  0  0  0  0  0  0  0  0  0  0
  -13.5389  -33.6574  -10.7198 C   0  0  0  0  0  0  0  0  0  0  0  0
  -12.0161  -35.1376  -11.9016 C   0  0  0  0  0  0  0  0  0  0  0  0
  -13.8767  -34.0670  -13.1038 C   0  0  0  0  0  0  0  0  0  0  0  0
  1  2  1  0
  2  3  1  0
  3  4  1  0
  4  5  2  0
  5  6  1  0
  6  7  2  0
  7  8  1  0
  8  9  2  0
  8 10  1  0
 10 11  2  0
 10 12  1  0
 12 13  1  0
 13 14  1  6
 14 15  1  0
 15 16  1  6
 15 17  1  0
 17 18  1  0
 18 19  1  0
 19 20  1  0
 20 21  1  0
 21 22  2  0
 22 23  1  0
 23 24  1  0
 13 25  1  0
 25 26  1  1
 25 27  1  0
 27 28  1  0
 28 29  1  0
 29 30  1  0
 30 31  1  0
 29 32  1  0
 32 33  2  0
 33 34  1  0
 34 35  2  0
 35 36  1  0
 36 37  2  0
 34 38  1  0
 38 39  1  0
 38 40  1  0
 38 41  1  0
  9  4  1  0
 24  6  1  0
 31 29  1  0
 37 32  1  0
M  END
$$$$
