
     RDKit          3D

 41 44  0  0  0  0  0  0  0  0999 V2000
  -20.2769  -47.2607   -8.3763 C   0  0  0  0  0  0  0  0  0  0  0  0
  -20.0934  -46.0887   -9.0654 O   0  0  0  0  0  0  0  0  0  0  0  0
  -19.1167  -46.1068  -10.0331 C   0  0  0  0  0  0  0  0  0  0  0  0
  -18.0772  -45.1124   -9.6359 C   0  0  0  0  0  0  0  0  0  0  0  0
  -16.8814  -45.4789   -9.0979 C   0  0  0  0  0  0  0  0  0  0  0  0
  -15.8813  -44.5511   -8.7049 C   0  0  0  0  0  0  0  0  0  0  0  0
  -16.1043  -43.1985   -8.8643 C   0  0  0  0  0  0  0  0  0  0  0  0
  -17.3089  -42.7837   -9.4109 C   0  0  0  0  0  0  0  0  0  0  0  0
  -18.2713  -43.7663   -9.7840 C   0  0  0  0  0  0  0  0  0  0  0  0
  -17.8263  -41.4361   -9.7185 C   0  0  0  0  0  0  0  0  0  0  0  0
  -19.1246  -41.2607   -9.4916 O   0  0  0  0  0  0  0  0  0  0  0  0
  -17.2582  -40.2603  -10.2099 N   0  0  0  0  0  0  0  0  0  0  0  0
  -15.9734  -39.6763   -9.7878 C   0  0  1  0  0  0  0  0  0  0  0  0
  -15.3905  -38.7977  -10.8198 C   0  0  0  0  0  0  0  0  0  0  0  0
  -14.0131  -39.2382  -11.2792 C   0  0  2  0  0  0  0  0  0  0  0  0
  -13.6426  -38.4755  -12.5161 C   0  0  0  0  0  0  0  0  0  0  0  0
  -13.9740  -40.7161  -11.5805 C   0  0  0  0  0  0  0  0  0  0  0  0
  -12.9418  -41.4140  -10.7469 C   0  0  0  0  0  0  0  0  0  0  0  0
  -13.2600  -42.7136  -10.3764 O   0  0  0  0  0  0  0  0  0  0  0  0
  -12.1415  -43.2943   -9.8124 C   0  0  0  0  0  0  0  0  0  0  0  0
  -12.1335  -43.3942   -8.3276 C   0  0  0  0  0  0  0  0  0  0  0  0
  -12.7480  -44.0119   -7.3867 C   0  0  0  0  0  0  0  0  0  0  0  0
  -13.8280  -44.9972   -7.1299 C   0  0  0  0  0  0  0  0  0  0  0  0
  -14.7433  -45.2717   -8.2035 N   0  0  0  0  0  0  0  0  0  0  0  0
  -16.1295  -39.1697   -8.4085 C   0  0  2  0  0  0  0  0  0  0  0  0
  -16.4082  -40.1629   -7.4872 O   0  0  0  0  0  0  0  0  0  0  0  0
  -16.9094  -37.9496   -8.1665 C   0  0  0  0  0  0  0  0  0  0  0  0
  -18.1530  -38.1009   -7.5563 N   0  0  0  0  0  0  0  0  0  0  0  0
  -19.3291  -37.6115   -8.2206 C   0  0  0  0  0  0  0  0  0  0  0  0
  -19.4069  -36.3658   -9.0097 C   0  0  0  0  0  0  0  0  0  0  0  0
  -19.2015  -37.6247   -9.7519 C   0  0  0  0  0  0  0  0  0  0  0  0
  -20.6027  -38.2274   -7.7749 C   0  0  0  0  0  0  0  0  0  0  0  0
  -20.6962  -38.9542   -6.6050 C   0  0  0  0  0  0  0  0  0  0  0  0
  -21.8458  -39.5680   -6.1751 C   0  0  0  0  0  0  0  0  0  0  0  0
  -22.9781  -39.4581   -6.9496 C   0  0  0  0  0  0  0  0  0  0  0  0
  -22.9314  -38.7451   -8.1199 C   0  0  0  0  0  0  0  0  0  0  0  0
  -21.7345  -38.1319   -8.5246 C   0  0  0  0  0  0  0  0  0  0  0  0
  -21.9206  -40.3391   -4.9192 C   0  0  0  0  0  0  0  0  0  0  0  0
  -21.0649  -41.5819   -4.9912 C   0  0  0  0  0  0  0  0  0  0  0  0
  -21.4011  -39.5302   -3.7327 C   0  0  0  0  0  0  0  0  0  0  0  0
  -23.3368  -40.7716   -4.6075 C   0  0  0  0  0  0  0  0  0  0  0  0
  1  2  1  0
  2  3  1  0
  3  4  1  0
  4  5  2  0
  5  6  1  0
  6  7  2  0
  7  8  1  0
  8  9  2  0
  8 10  1  0
 10 11  2  0
 10 12  1  0
 12 13  1  0
 13 14  1  6
 14 15  1  0
 15 16  1  6
 15 17  1  0
 17 18  1  0
 18 19  1  0
 19 20  1  0
 20 21  1  0
 21 22  2  0
 22 23  1  0
 23 24  1  0
 13 25  1  0
 25 26  1  1
 25 27  1  0
 27 28  1  0
 28 29  1  0
 29 30  1  0
 30 31  1  0
 29 32  1  0
 32 33  2  0
 33 34  1  0
 34 35  2  0
 35 36  1  0
 36 37  2  0
 34 38  1  0
 38 39  1  0
 38 40  1  0
 38 41  1  0
  9  4  1  0
 24  6  1  0
 31 29  1  0
 37 32  1  0
M  END
$$$$
