
     RDKit          3D

 43 46  0  0  0  0  0  0  0  0999 V2000
  -18.4433  -38.2633   -3.8489 C   0  0  0  0  0  0  0  0  0  0  0  0
  -19.0800  -38.2022   -5.2453 C   0  0  2  0  0  0  0  0  0  0  0  0
  -20.0834  -39.2831   -5.4522 C   0  0  0  0  0  0  0  0  0  0  0  0
  -21.4777  -38.7121   -5.5410 C   0  0  0  0  0  0  0  0  0  0  0  0
  -22.4669  -39.5983   -4.8148 C   0  0  0  0  0  0  0  0  0  0  0  0
  -23.1109  -40.5086   -5.8440 C   0  0  0  0  0  0  0  0  0  0  0  0
  -23.4416  -41.8579   -5.2266 C   0  0  0  0  0  0  0  0  0  0  0  0
  -23.9940  -42.7707   -6.2645 C   0  0  0  0  0  0  0  0  0  0  0  0
  -23.1075  -44.0251   -6.3643 C   0  0  0  0  0  0  0  0  0  0  0  0
  -22.1771  -43.7870   -7.3416 O   0  0  0  0  0  0  0  0  0  0  0  0
  -20.8115  -43.5878   -7.4570 C   0  0  0  0  0  0  0  0  0  0  0  0
  -20.2541  -44.4689   -8.3984 C   0  0  0  0  0  0  0  0  0  0  0  0
  -18.9106  -44.4937   -8.7175 C   0  0  0  0  0  0  0  0  0  0  0  0
  -18.1494  -43.5815   -8.0405 C   0  0  0  0  0  0  0  0  0  0  0  0
  -18.6646  -42.6635   -7.0776 C   0  0  0  0  0  0  0  0  0  0  0  0
  -19.9989  -42.6723   -6.7888 C   0  0  0  0  0  0  0  0  0  0  0  0
  -17.5630  -41.8430   -6.5518 C   0  0  0  0  0  0  0  0  0  0  0  0
  -16.4117  -42.4503   -6.3102 O   0  0  0  0  0  0  0  0  0  0  0  0
  -17.4583  -40.4695   -6.2279 N   0  0  0  0  0  0  0  0  0  0  0  0
  -17.6673  -39.3177   -7.0495 C   0  0  1  0  0  0  0  0  0  0  0  0
  -18.0570  -38.0962   -6.3081 C   0  0  0  0  0  0  0  0  0  0  0  0
  -16.4305  -39.0002   -7.8800 C   0  0  2  0  0  0  0  0  0  0  0  0
  -16.6301  -37.6750   -8.3368 O   0  0  0  0  0  0  0  0  0  0  0  0
  -16.4295  -39.8262   -9.1528 C   0  0  0  0  0  0  0  0  0  0  0  0
  -15.6358  -39.2978  -10.2121 N   0  0  0  0  0  0  0  0  0  0  0  0
  -15.3647  -40.3388  -11.2084 C   0  0  0  0  0  0  0  0  0  0  0  0
  -14.1596  -40.2169  -12.0352 C   0  0  0  0  0  0  0  0  0  0  0  0
  -14.0243  -41.0691  -10.8534 C   0  0  0  0  0  0  0  0  0  0  0  0
  -16.4546  -41.3055  -11.4859 C   0  0  0  0  0  0  0  0  0  0  0  0
  -17.7619  -40.8935  -11.4235 C   0  0  0  0  0  0  0  0  0  0  0  0
  -18.8116  -41.7873  -11.6716 C   0  0  0  0  0  0  0  0  0  0  0  0
  -18.5271  -43.0893  -11.9798 C   0  0  0  0  0  0  0  0  0  0  0  0
  -17.2064  -43.4730  -12.0348 C   0  0  0  0  0  0  0  0  0  0  0  0
  -16.2308  -42.5872  -11.7910 N   0  0  0  0  0  0  0  0  0  0  0  0
  -20.2280  -41.3435  -11.6179 C   0  0  0  0  0  0  0  0  0  0  0  0
  -21.0894  -42.5368  -11.2732 C   0  0  0  0  0  0  0  0  0  0  0  0
  -20.3767  -40.3112  -10.5450 C   0  0  0  0  0  0  0  0  0  0  0  0
  -20.6834  -40.7650  -12.9362 C   0  0  0  0  0  0  0  0  0  0  0  0
  -18.4198  -45.4535   -9.6955 C   0  0  0  0  0  0  0  0  0  0  0  0
  -19.0122  -45.3680  -10.8639 O   0  0  0  0  0  0  0  0  0  0  0  0
  -17.4590  -46.4207   -9.6134 N   0  0  0  0  0  0  0  0  0  0  0  0
  -16.5099  -46.8035  -10.5999 C   0  0  0  0  0  0  0  0  0  0  0  0
  -17.3935  -47.1773   -8.3418 C   0  0  0  0  0  0  0  0  0  0  0  0
  2  1  1  1
  2  3  1  0
  3  4  1  0
  4  5  1  0
  5  6  1  0
  6  7  1  0
  7  8  1  0
  8  9  1  0
  9 10  1  0
 10 11  1  0
 11 12  1  0
 12 13  2  0
 13 14  1  0
 14 15  2  0
 15 16  1  0
 15 17  1  0
 17 18  2  0
 17 19  1  0
 19 20  1  0
 20 21  1  1
 20 22  1  0
 22 23  1  6
 22 24  1  0
 24 25  1  0
 25 26  1  0
 26 27  1  0
 27 28  1  0
 26 29  1  0
 29 30  2  0
 30 31  1  0
 31 32  2  0
 32 33  1  0
 33 34  2  0
 31 35  1  0
 35 36  1  0
 35 37  1  0
 35 38  1  0
 13 39  1  0
 39 40  2  0
 39 41  1  0
 41 42  1  0
 41 43  1  0
 16 11  2  0
 21  2  1  0
 28 26  1  0
 34 29  1  0
M  END
$$$$
