
     RDKit          3D

 43 46  0  0  0  0  0  0  0  0999 V2000
  -19.3368  -38.9287   -3.4431 C   0  0  0  0  0  0  0  0  0  0  0  0
  -20.0050  -38.6596   -4.7996 C   0  0  2  0  0  0  0  0  0  0  0  0
  -20.8641  -39.7948   -5.2370 C   0  0  0  0  0  0  0  0  0  0  0  0
  -22.3222  -39.4056   -5.2130 C   0  0  0  0  0  0  0  0  0  0  0  0
  -23.1728  -40.5465   -4.6971 C   0  0  0  0  0  0  0  0  0  0  0  0
  -23.7148  -41.2965   -5.8996 C   0  0  0  0  0  0  0  0  0  0  0  0
  -23.8550  -42.7769   -5.5833 C   0  0  0  0  0  0  0  0  0  0  0  0
  -24.3060  -43.5155   -6.7943 C   0  0  0  0  0  0  0  0  0  0  0  0
  -23.2668  -44.5937   -7.1504 C   0  0  0  0  0  0  0  0  0  0  0  0
  -22.3957  -44.0358   -8.0489 O   0  0  0  0  0  0  0  0  0  0  0  0
  -21.0701  -43.6396   -8.1102 C   0  0  0  0  0  0  0  0  0  0  0  0
  -20.4230  -44.2224   -9.2123 C   0  0  0  0  0  0  0  0  0  0  0  0
  -19.0947  -44.0034   -9.5202 C   0  0  0  0  0  0  0  0  0  0  0  0
  -18.4441  -43.1621   -8.6605 C   0  0  0  0  0  0  0  0  0  0  0  0
  -19.0536  -42.5425   -7.5293 C   0  0  0  0  0  0  0  0  0  0  0  0
  -20.3692  -42.7865   -7.2581 C   0  0  0  0  0  0  0  0  0  0  0  0
  -18.0568  -41.7136   -6.8344 C   0  0  0  0  0  0  0  0  0  0  0  0
  -16.8318  -42.2020   -6.7185 O   0  0  0  0  0  0  0  0  0  0  0  0
  -18.1242  -40.4373   -6.2272 N   0  0  0  0  0  0  0  0  0  0  0  0
  -18.4978  -39.1761   -6.7887 C   0  0  1  0  0  0  0  0  0  0  0  0
  -19.0268  -38.1995   -5.8089 C   0  0  0  0  0  0  0  0  0  0  0  0
  -17.3302  -38.5319   -7.5248 C   0  0  2  0  0  0  0  0  0  0  0  0
  -17.9257  -37.5832   -8.3908 O   0  0  0  0  0  0  0  0  0  0  0  0
  -16.6909  -39.5334   -8.4686 C   0  0  0  0  0  0  0  0  0  0  0  0
  -15.2658  -39.5174   -8.4874 N   0  0  0  0  0  0  0  0  0  0  0  0
  -14.7714  -40.0289   -9.7694 C   0  0  0  0  0  0  0  0  0  0  0  0
  -13.3610  -39.8144  -10.1094 C   0  0  0  0  0  0  0  0  0  0  0  0
  -13.6703  -41.1140   -9.5124 C   0  0  0  0  0  0  0  0  0  0  0  0
  -15.7860  -40.5023  -10.7419 C   0  0  0  0  0  0  0  0  0  0  0  0
  -16.9152  -39.7555  -10.9653 C   0  0  0  0  0  0  0  0  0  0  0  0
  -17.8944  -40.1832  -11.8712 C   0  0  0  0  0  0  0  0  0  0  0  0
  -17.7206  -41.3629  -12.5413 C   0  0  0  0  0  0  0  0  0  0  0  0
  -16.5780  -42.0902  -12.2963 C   0  0  0  0  0  0  0  0  0  0  0  0
  -15.6646  -41.6464  -11.4218 N   0  0  0  0  0  0  0  0  0  0  0  0
  -19.1123  -39.3723  -12.1261 C   0  0  0  0  0  0  0  0  0  0  0  0
  -19.5405  -38.7321  -10.8255 C   0  0  0  0  0  0  0  0  0  0  0  0
  -18.7854  -38.2957  -13.1127 C   0  0  0  0  0  0  0  0  0  0  0  0
  -20.2441  -40.2158  -12.6621 C   0  0  0  0  0  0  0  0  0  0  0  0
  -18.5041  -44.6634  -10.6752 C   0  0  0  0  0  0  0  0  0  0  0  0
  -19.0680  -45.8106  -10.9744 O   0  0  0  0  0  0  0  0  0  0  0  0
  -17.4742  -44.3035  -11.4968 N   0  0  0  0  0  0  0  0  0  0  0  0
  -16.7547  -43.0779  -11.5199 C   0  0  0  0  0  0  0  0  0  0  0  0
  -17.0497  -45.3081  -12.4990 C   0  0  0  0  0  0  0  0  0  0  0  0
  2  1  1  1
  2  3  1  0
  3  4  1  0
  4  5  1  0
  5  6  1  0
  6  7  1  0
  7  8  1  0
  8  9  1  0
  9 10  1  0
 10 11  1  0
 11 12  1  0
 12 13  2  0
 13 14  1  0
 14 15  2  0
 15 16  1  0
 15 17  1  0
 17 18  2  0
 17 19  1  0
 19 20  1  0
 20 21  1  1
 20 22  1  0
 22 23  1  6
 22 24  1  0
 24 25  1  0
 25 26  1  0
 26 27  1  0
 27 28  1  0
 26 29  1  0
 29 30  2  0
 30 31  1  0
 31 32  2  0
 32 33  1  0
 33 34  2  0
 31 35  1  0
 35 36  1  0
 35 37  1  0
 35 38  1  0
 13 39  1  0
 39 40  2  0
 39 41  1  0
 41 42  1  0
 41 43  1  0
 16 11  2  0
 21  2  1  0
 28 26  1  0
 34 29  1  0
M  END
$$$$
