
     RDKit          3D

 43 46  0  0  0  0  0  0  0  0999 V2000
  -16.2196  -43.4872   -5.6250 C   0  0  0  0  0  0  0  0  0  0  0  0
  -16.8546  -42.1716   -5.1508 C   0  0  2  0  0  0  0  0  0  0  0  0
  -18.3240  -42.1391   -5.3912 C   0  0  0  0  0  0  0  0  0  0  0  0
  -19.0829  -42.1799   -4.0872 C   0  0  0  0  0  0  0  0  0  0  0  0
  -20.3078  -43.0611   -4.2075 C   0  0  0  0  0  0  0  0  0  0  0  0
  -21.4929  -42.1626   -4.5090 C   0  0  0  0  0  0  0  0  0  0  0  0
  -22.4955  -42.8852   -5.3944 C   0  0  0  0  0  0  0  0  0  0  0  0
  -23.6113  -41.9678   -5.7534 C   0  0  0  0  0  0  0  0  0  0  0  0
  -23.6891  -41.8346   -7.2849 C   0  0  0  0  0  0  0  0  0  0  0  0
  -22.9348  -40.7459   -7.6358 O   0  0  0  0  0  0  0  0  0  0  0  0
  -21.7561  -40.4645   -8.3061 C   0  0  0  0  0  0  0  0  0  0  0  0
  -21.9695  -39.5141   -9.3183 C   0  0  0  0  0  0  0  0  0  0  0  0
  -20.9693  -39.0451  -10.1471 C   0  0  0  0  0  0  0  0  0  0  0  0
  -19.7344  -39.5807   -9.9058 C   0  0  0  0  0  0  0  0  0  0  0  0
  -19.4628  -40.5456   -8.8907 C   0  0  0  0  0  0  0  0  0  0  0  0
  -20.4800  -40.9852   -8.0932 C   0  0  0  0  0  0  0  0  0  0  0  0
  -18.0350  -40.8971   -8.9251 C   0  0  0  0  0  0  0  0  0  0  0  0
  -17.4701  -41.0376  -10.1142 O   0  0  0  0  0  0  0  0  0  0  0  0
  -17.0791  -41.1328   -7.9088 N   0  0  0  0  0  0  0  0  0  0  0  0
  -16.6453  -40.2800   -6.8458 C   0  0  1  0  0  0  0  0  0  0  0  0
  -16.1182  -40.9946   -5.6605 C   0  0  0  0  0  0  0  0  0  0  0  0
  -15.5841  -39.2976   -7.3243 C   0  0  2  0  0  0  0  0  0  0  0  0
  -15.4154  -38.3927   -6.2485 O   0  0  0  0  0  0  0  0  0  0  0  0
  -16.1379  -38.4333   -8.4418 C   0  0  0  0  0  0  0  0  0  0  0  0
  -15.7967  -38.8605   -9.7580 N   0  0  0  0  0  0  0  0  0  0  0  0
  -15.2159  -37.7479  -10.5159 C   0  0  0  0  0  0  0  0  0  0  0  0
  -15.9311  -36.4677  -10.5354 C   0  0  0  0  0  0  0  0  0  0  0  0
  -14.8646  -36.5738   -9.5391 C   0  0  0  0  0  0  0  0  0  0  0  0
  -14.0805  -38.0660  -11.4154 C   0  0  0  0  0  0  0  0  0  0  0  0
  -14.3014  -38.2245  -12.7603 C   0  0  0  0  0  0  0  0  0  0  0  0
  -13.2493  -38.5345  -13.6317 C   0  0  0  0  0  0  0  0  0  0  0  0
  -11.9843  -38.6815  -13.1325 C   0  0  0  0  0  0  0  0  0  0  0  0
  -11.7937  -38.5167  -11.7794 C   0  0  0  0  0  0  0  0  0  0  0  0
  -12.8268  -38.2202  -10.9789 N   0  0  0  0  0  0  0  0  0  0  0  0
  -13.4808  -38.6944  -15.0901 C   0  0  0  0  0  0  0  0  0  0  0  0
  -12.9577  -40.0487  -15.5108 C   0  0  0  0  0  0  0  0  0  0  0  0
  -14.9513  -38.6364  -15.3610 C   0  0  0  0  0  0  0  0  0  0  0  0
  -12.7817  -37.6205  -15.8887 C   0  0  0  0  0  0  0  0  0  0  0  0
  -21.2872  -38.0703  -11.1801 C   0  0  0  0  0  0  0  0  0  0  0  0
  -21.8637  -38.5904  -12.2387 O   0  0  0  0  0  0  0  0  0  0  0  0
  -21.0929  -36.7198  -11.2430 N   0  0  0  0  0  0  0  0  0  0  0  0
  -21.3223  -35.8486  -12.3426 C   0  0  0  0  0  0  0  0  0  0  0  0
  -20.5711  -36.0720  -10.0176 C   0  0  0  0  0  0  0  0  0  0  0  0
  2  1  1  6
  2  3  1  0
  3  4  1  0
  4  5  1  0
  5  6  1  0
  6  7  1  0
  7  8  1  0
  8  9  1  0
  9 10  1  0
 10 11  1  0
 11 12  1  0
 12 13  2  0
 13 14  1  0
 14 15  2  0
 15 16  1  0
 15 17  1  0
 17 18  2  0
 17 19  1  0
 19 20  1  0
 20 21  1  1
 20 22  1  0
 22 23  1  1
 22 24  1  0
 24 25  1  0
 25 26  1  0
 26 27  1  0
 27 28  1  0
 26 29  1  0
 29 30  2  0
 30 31  1  0
 31 32  2  0
 32 33  1  0
 33 34  2  0
 31 35  1  0
 35 36  1  0
 35 37  1  0
 35 38  1  0
 13 39  1  0
 39 40  2  0
 39 41  1  0
 41 42  1  0
 41 43  1  0
 16 11  2  0
 21  2  1  0
 28 26  1  0
 34 29  1  0
M  END
$$$$
