
     RDKit          3D

 43 46  0  0  0  0  0  0  0  0999 V2000
  -14.8015  -36.7051  -11.7957 C   0  0  0  0  0  0  0  0  0  0  0  0
  -14.2300  -37.7062  -10.7806 C   0  0  2  0  0  0  0  0  0  0  0  0
  -14.2102  -39.0965  -11.3140 C   0  0  0  0  0  0  0  0  0  0  0  0
  -12.7935  -39.5644  -11.5421 C   0  0  0  0  0  0  0  0  0  0  0  0
  -12.6937  -40.3669  -12.8217 C   0  0  0  0  0  0  0  0  0  0  0  0
  -12.7878  -41.8356  -12.4522 C   0  0  0  0  0  0  0  0  0  0  0  0
  -13.4809  -42.6177  -13.5563 C   0  0  0  0  0  0  0  0  0  0  0  0
  -13.6439  -44.0396  -13.1475 C   0  0  0  0  0  0  0  0  0  0  0  0
  -15.1389  -44.4059  -13.1612 C   0  0  0  0  0  0  0  0  0  0  0  0
  -15.6214  -44.1864  -11.8977 O   0  0  0  0  0  0  0  0  0  0  0  0
  -16.4887  -43.3255  -11.2460 C   0  0  0  0  0  0  0  0  0  0  0  0
  -17.4526  -44.0416  -10.5171 C   0  0  0  0  0  0  0  0  0  0  0  0
  -18.4456  -43.4398   -9.7695 C   0  0  0  0  0  0  0  0  0  0  0  0
  -18.4212  -42.0727   -9.7890 C   0  0  0  0  0  0  0  0  0  0  0  0
  -17.4645  -41.2975  -10.5094 C   0  0  0  0  0  0  0  0  0  0  0  0
  -16.4995  -41.9309  -11.2384 C   0  0  0  0  0  0  0  0  0  0  0  0
  -17.7462  -39.8683  -10.3062 C   0  0  0  0  0  0  0  0  0  0  0  0
  -19.0149  -39.4902  -10.3100 O   0  0  0  0  0  0  0  0  0  0  0  0
  -16.9113  -38.7450  -10.0972 N   0  0  0  0  0  0  0  0  0  0  0  0
  -15.9446  -38.5024   -9.0715 C   0  0  1  0  0  0  0  0  0  0  0  0
  -14.8661  -37.5619   -9.4533 C   0  0  0  0  0  0  0  0  0  0  0  0
  -16.6058  -37.9833   -7.8013 C   0  0  2  0  0  0  0  0  0  0  0  0
  -15.7041  -38.3142   -6.7611 O   0  0  0  0  0  0  0  0  0  0  0  0
  -17.8427  -38.8029   -7.4835 C   0  0  0  0  0  0  0  0  0  0  0  0
  -19.0810  -38.1292   -7.6933 N   0  0  0  0  0  0  0  0  0  0  0  0
  -20.1398  -38.7581   -6.8976 C   0  0  0  0  0  0  0  0  0  0  0  0
  -20.8557  -37.9376   -5.9153 C   0  0  0  0  0  0  0  0  0  0  0  0
  -21.5129  -38.0729   -7.2156 C   0  0  0  0  0  0  0  0  0  0  0  0
  -20.2414  -40.2363   -6.9604 C   0  0  0  0  0  0  0  0  0  0  0  0
  -21.4669  -40.8273   -7.1381 C   0  0  0  0  0  0  0  0  0  0  0  0
  -21.5936  -42.2214   -7.1917 C   0  0  0  0  0  0  0  0  0  0  0  0
  -20.4783  -43.0030   -7.0643 C   0  0  0  0  0  0  0  0  0  0  0  0
  -19.2630  -42.3815   -6.8870 C   0  0  0  0  0  0  0  0  0  0  0  0
  -19.1838  -41.0445   -6.8414 N   0  0  0  0  0  0  0  0  0  0  0  0
  -22.9160  -42.8657   -7.3967 C   0  0  0  0  0  0  0  0  0  0  0  0
  -22.8631  -43.6672   -8.6772 C   0  0  0  0  0  0  0  0  0  0  0  0
  -23.1906  -43.7928   -6.2547 C   0  0  0  0  0  0  0  0  0  0  0  0
  -24.0261  -41.8467   -7.4926 C   0  0  0  0  0  0  0  0  0  0  0  0
  -19.4119  -44.2638   -9.0583 C   0  0  0  0  0  0  0  0  0  0  0  0
  -20.6521  -44.0795   -9.4474 O   0  0  0  0  0  0  0  0  0  0  0  0
  -19.2581  -45.1880   -8.0646 N   0  0  0  0  0  0  0  0  0  0  0  0
  -20.1238  -46.2617   -7.7204 C   0  0  0  0  0  0  0  0  0  0  0  0
  -18.0416  -45.0604   -7.2294 C   0  0  0  0  0  0  0  0  0  0  0  0
  2  1  1  6
  2  3  1  0
  3  4  1  0
  4  5  1  0
  5  6  1  0
  6  7  1  0
  7  8  1  0
  8  9  1  0
  9 10  1  0
 10 11  1  0
 11 12  1  0
 12 13  2  0
 13 14  1  0
 14 15  2  0
 15 16  1  0
 15 17  1  0
 17 18  2  0
 17 19  1  0
 19 20  1  0
 20 21  1  6
 20 22  1  0
 22 23  1  1
 22 24  1  0
 24 25  1  0
 25 26  1  0
 26 27  1  0
 27 28  1  0
 26 29  1  0
 29 30  2  0
 30 31  1  0
 31 32  2  0
 32 33  1  0
 33 34  2  0
 31 35  1  0
 35 36  1  0
 35 37  1  0
 35 38  1  0
 13 39  1  0
 39 40  2  0
 39 41  1  0
 41 42  1  0
 41 43  1  0
 16 11  2  0
 21  2  1  0
 28 26  1  0
 34 29  1  0
M  END
$$$$
