
     RDKit          3D

 43 46  0  0  0  0  0  0  0  0999 V2000
  -15.4886  -35.7405   -9.6533 C   0  0  0  0  0  0  0  0  0  0  0  0
  -15.1973  -37.2244   -9.3849 C   0  0  2  0  0  0  0  0  0  0  0  0
  -15.6792  -38.0995  -10.4894 C   0  0  0  0  0  0  0  0  0  0  0  0
  -14.5187  -38.7119  -11.2352 C   0  0  0  0  0  0  0  0  0  0  0  0
  -14.7929  -38.7394  -12.7236 C   0  0  0  0  0  0  0  0  0  0  0  0
  -15.3343  -40.1149  -13.0663 C   0  0  0  0  0  0  0  0  0  0  0  0
  -16.3335  -40.0230  -14.2084 C   0  0  0  0  0  0  0  0  0  0  0  0
  -16.9211  -41.3634  -14.4795 C   0  0  0  0  0  0  0  0  0  0  0  0
  -18.4492  -41.2943  -14.3083 C   0  0  0  0  0  0  0  0  0  0  0  0
  -18.7281  -41.6452  -13.0135 O   0  0  0  0  0  0  0  0  0  0  0  0
  -19.2080  -41.0605  -11.8535 C   0  0  0  0  0  0  0  0  0  0  0  0
  -20.2910  -41.7898  -11.3353 C   0  0  0  0  0  0  0  0  0  0  0  0
  -20.9666  -41.4370  -10.1836 C   0  0  0  0  0  0  0  0  0  0  0  0
  -20.4957  -40.3080   -9.5725 C   0  0  0  0  0  0  0  0  0  0  0  0
  -19.3993  -39.5327  -10.0544 C   0  0  0  0  0  0  0  0  0  0  0  0
  -18.7590  -39.9142  -11.1982 C   0  0  0  0  0  0  0  0  0  0  0  0
  -19.1779  -38.3924   -9.1522 C   0  0  0  0  0  0  0  0  0  0  0  0
  -20.2476  -37.7709   -8.6809 O   0  0  0  0  0  0  0  0  0  0  0  0
  -18.0061  -37.7784   -8.6500 N   0  0  0  0  0  0  0  0  0  0  0  0
  -16.9332  -38.3405   -7.8895 C   0  0  1  0  0  0  0  0  0  0  0  0
  -15.6403  -37.6327   -8.0342 C   0  0  0  0  0  0  0  0  0  0  0  0
  -17.2812  -38.4048   -6.4080 C   0  0  2  0  0  0  0  0  0  0  0  0
  -16.4984  -39.4681   -5.8968 O   0  0  0  0  0  0  0  0  0  0  0  0
  -18.7089  -38.8859   -6.2269 C   0  0  0  0  0  0  0  0  0  0  0  0
  -19.5387  -38.0275   -5.4485 N   0  0  0  0  0  0  0  0  0  0  0  0
  -20.9412  -38.4388   -5.5646 C   0  0  0  0  0  0  0  0  0  0  0  0
  -21.9356  -37.4297   -5.9436 C   0  0  0  0  0  0  0  0  0  0  0  0
  -21.4238  -38.2480   -7.0434 C   0  0  0  0  0  0  0  0  0  0  0  0
  -21.2941  -39.7825   -5.0457 C   0  0  0  0  0  0  0  0  0  0  0  0
  -21.3257  -40.0024   -3.6916 C   0  0  0  0  0  0  0  0  0  0  0  0
  -21.6465  -41.2639   -3.1739 C   0  0  0  0  0  0  0  0  0  0  0  0
  -21.9314  -42.2901   -4.0322 C   0  0  0  0  0  0  0  0  0  0  0  0
  -21.8915  -42.0392   -5.3850 C   0  0  0  0  0  0  0  0  0  0  0  0
  -21.5802  -40.8179   -5.8406 N   0  0  0  0  0  0  0  0  0  0  0  0
  -21.6947  -41.5040   -1.7089 C   0  0  0  0  0  0  0  0  0  0  0  0
  -22.6823  -42.6161   -1.4397 C   0  0  0  0  0  0  0  0  0  0  0  0
  -20.3404  -41.9330   -1.2389 C   0  0  0  0  0  0  0  0  0  0  0  0
  -22.1187  -40.2676   -0.9530 C   0  0  0  0  0  0  0  0  0  0  0  0
  -22.0888  -42.2454   -9.7300 C   0  0  0  0  0  0  0  0  0  0  0  0
  -23.2091  -42.0010  -10.3692 O   0  0  0  0  0  0  0  0  0  0  0  0
  -22.1821  -43.2061   -8.7637 N   0  0  0  0  0  0  0  0  0  0  0  0
  -23.3247  -43.9598   -8.3804 C   0  0  0  0  0  0  0  0  0  0  0  0
  -20.9429  -43.5032   -8.0089 C   0  0  0  0  0  0  0  0  0  0  0  0
  2  1  1  6
  2  3  1  0
  3  4  1  0
  4  5  1  0
  5  6  1  0
  6  7  1  0
  7  8  1  0
  8  9  1  0
  9 10  1  0
 10 11  1  0
 11 12  1  0
 12 13  2  0
 13 14  1  0
 14 15  2  0
 15 16  1  0
 15 17  1  0
 17 18  2  0
 17 19  1  0
 19 20  1  0
 20 21  1  1
 20 22  1  0
 22 23  1  1
 22 24  1  0
 24 25  1  0
 25 26  1  0
 26 27  1  0
 27 28  1  0
 26 29  1  0
 29 30  2  0
 30 31  1  0
 31 32  2  0
 32 33  1  0
 33 34  2  0
 31 35  1  0
 35 36  1  0
 35 37  1  0
 35 38  1  0
 13 39  1  0
 39 40  2  0
 39 41  1  0
 41 42  1  0
 41 43  1  0
 16 11  2  0
 21  2  1  0
 28 26  1  0
 34 29  1  0
M  END
$$$$
