
     RDKit          3D

 43 46  0  0  0  0  0  0  0  0999 V2000
  -18.7168  -37.3146   -5.7551 C   0  0  0  0  0  0  0  0  0  0  0  0
  -19.4703  -37.8692   -6.9731 C   0  0  2  0  0  0  0  0  0  0  0  0
  -20.4171  -38.9565   -6.5998 C   0  0  0  0  0  0  0  0  0  0  0  0
  -21.8473  -38.5085   -6.7782 C   0  0  0  0  0  0  0  0  0  0  0  0
  -22.7144  -39.0212   -5.6484 C   0  0  0  0  0  0  0  0  0  0  0  0
  -23.3830  -40.2974   -6.1244 C   0  0  0  0  0  0  0  0  0  0  0  0
  -23.5751  -41.2610   -4.9643 C   0  0  0  0  0  0  0  0  0  0  0  0
  -24.1533  -42.5413   -5.4565 C   0  0  0  0  0  0  0  0  0  0  0  0
  -23.2006  -43.6987   -5.1070 C   0  0  0  0  0  0  0  0  0  0  0  0
  -22.3719  -43.8803   -6.1830 O   0  0  0  0  0  0  0  0  0  0  0  0
  -21.0361  -43.7199   -6.5110 C   0  0  0  0  0  0  0  0  0  0  0  0
  -20.5045  -44.9061   -7.0434 C   0  0  0  0  0  0  0  0  0  0  0  0
  -19.1935  -45.0356   -7.4579 C   0  0  0  0  0  0  0  0  0  0  0  0
  -18.4377  -43.9054   -7.3118 C   0  0  0  0  0  0  0  0  0  0  0  0
  -18.9278  -42.6756   -6.7800 C   0  0  0  0  0  0  0  0  0  0  0  0
  -20.2301  -42.5893   -6.3795 C   0  0  0  0  0  0  0  0  0  0  0  0
  -17.8403  -41.6855   -6.7662 C   0  0  0  0  0  0  0  0  0  0  0  0
  -16.6368  -42.1064   -6.4099 O   0  0  0  0  0  0  0  0  0  0  0  0
  -17.7960  -40.3032   -7.0657 N   0  0  0  0  0  0  0  0  0  0  0  0
  -18.1454  -39.6171   -8.2710 C   0  0  1  0  0  0  0  0  0  0  0  0
  -18.5483  -38.2048   -8.0797 C   0  0  0  0  0  0  0  0  0  0  0  0
  -17.0048  -39.6577   -9.2797 C   0  0  2  0  0  0  0  0  0  0  0  0
  -17.4823  -40.4712  -10.3355 O   0  0  0  0  0  0  0  0  0  0  0  0
  -15.8361  -40.4444   -8.7158 C   0  0  0  0  0  0  0  0  0  0  0  0
  -14.5635  -39.8201   -8.8639 N   0  0  0  0  0  0  0  0  0  0  0  0
  -13.4938  -40.8124   -8.7195 C   0  0  0  0  0  0  0  0  0  0  0  0
  -12.1442  -40.3415   -8.3914 C   0  0  0  0  0  0  0  0  0  0  0  0
  -12.9468  -40.7850   -7.2511 C   0  0  0  0  0  0  0  0  0  0  0  0
  -13.7939  -42.1954   -9.1630 C   0  0  0  0  0  0  0  0  0  0  0  0
  -15.0416  -42.4995   -9.6463 C   0  0  0  0  0  0  0  0  0  0  0  0
  -15.3556  -43.7994  -10.0633 C   0  0  0  0  0  0  0  0  0  0  0  0
  -14.4034  -44.7784   -9.9863 C   0  0  0  0  0  0  0  0  0  0  0  0
  -13.1612  -44.4432   -9.4973 C   0  0  0  0  0  0  0  0  0  0  0  0
  -12.9002  -43.1876   -9.1085 N   0  0  0  0  0  0  0  0  0  0  0  0
  -16.7006  -44.1309  -10.5992 C   0  0  0  0  0  0  0  0  0  0  0  0
  -17.7390  -43.4511   -9.7364 C   0  0  0  0  0  0  0  0  0  0  0  0
  -16.8127  -43.6081  -11.9967 C   0  0  0  0  0  0  0  0  0  0  0  0
  -16.9512  -45.6199  -10.5998 C   0  0  0  0  0  0  0  0  0  0  0  0
  -18.7262  -46.3101   -7.9831 C   0  0  0  0  0  0  0  0  0  0  0  0
  -18.2135  -47.1023   -7.0704 O   0  0  0  0  0  0  0  0  0  0  0  0
  -18.7261  -46.8240   -9.2485 N   0  0  0  0  0  0  0  0  0  0  0  0
  -19.0859  -46.1755  -10.4612 C   0  0  0  0  0  0  0  0  0  0  0  0
  -18.3057  -48.2377   -9.3848 C   0  0  0  0  0  0  0  0  0  0  0  0
  2  1  1  1
  2  3  1  0
  3  4  1  0
  4  5  1  0
  5  6  1  0
  6  7  1  0
  7  8  1  0
  8  9  1  0
  9 10  1  0
 10 11  1  0
 11 12  1  0
 12 13  2  0
 13 14  1  0
 14 15  2  0
 15 16  1  0
 15 17  1  0
 17 18  2  0
 17 19  1  0
 19 20  1  0
 20 21  1  1
 20 22  1  0
 22 23  1  6
 22 24  1  0
 24 25  1  0
 25 26  1  0
 26 27  1  0
 27 28  1  0
 26 29  1  0
 29 30  2  0
 30 31  1  0
 31 32  2  0
 32 33  1  0
 33 34  2  0
 31 35  1  0
 35 36  1  0
 35 37  1  0
 35 38  1  0
 13 39  1  0
 39 40  2  0
 39 41  1  0
 41 42  1  0
 41 43  1  0
 16 11  2  0
 21  2  1  0
 28 26  1  0
 34 29  1  0
M  END
$$$$
