
     RDKit          3D

 43 46  0  0  0  0  0  0  0  0999 V2000
  -20.1583  -38.8802   -3.8967 C   0  0  0  0  0  0  0  0  0  0  0  0
  -20.3233  -38.7386   -5.4172 C   0  0  2  0  0  0  0  0  0  0  0  0
  -20.9485  -39.9443   -6.0284 C   0  0  0  0  0  0  0  0  0  0  0  0
  -22.3346  -39.6314   -6.5371 C   0  0  0  0  0  0  0  0  0  0  0  0
  -23.2812  -40.7779   -6.2528 C   0  0  0  0  0  0  0  0  0  0  0  0
  -23.3545  -41.6348   -7.5029 C   0  0  0  0  0  0  0  0  0  0  0  0
  -23.5568  -43.0958   -7.1343 C   0  0  0  0  0  0  0  0  0  0  0  0
  -23.5421  -43.9371   -8.3621 C   0  0  0  0  0  0  0  0  0  0  0  0
  -22.4162  -44.9809   -8.2515 C   0  0  0  0  0  0  0  0  0  0  0  0
  -21.3031  -44.4399   -8.8395 O   0  0  0  0  0  0  0  0  0  0  0  0
  -20.0488  -43.9797   -8.4750 C   0  0  0  0  0  0  0  0  0  0  0  0
  -19.0458  -44.6008   -9.2375 C   0  0  0  0  0  0  0  0  0  0  0  0
  -17.6990  -44.3337   -9.0883 C   0  0  0  0  0  0  0  0  0  0  0  0
  -17.4077  -43.4033   -8.1294 C   0  0  0  0  0  0  0  0  0  0  0  0
  -18.3865  -42.7416   -7.3299 C   0  0  0  0  0  0  0  0  0  0  0  0
  -19.7080  -43.0355   -7.5069 C   0  0  0  0  0  0  0  0  0  0  0  0
  -17.7132  -41.8166   -6.4056 C   0  0  0  0  0  0  0  0  0  0  0  0
  -16.5915  -42.2310   -5.8376 O   0  0  0  0  0  0  0  0  0  0  0  0
  -18.0194  -40.5075   -5.9642 N   0  0  0  0  0  0  0  0  0  0  0  0
  -18.2086  -39.3084   -6.7204 C   0  0  1  0  0  0  0  0  0  0  0  0
  -19.0689  -38.2970   -6.0642 C   0  0  0  0  0  0  0  0  0  0  0  0
  -16.8757  -38.6550   -7.0619 C   0  0  2  0  0  0  0  0  0  0  0  0
  -17.2025  -37.3204   -7.4039 O   0  0  0  0  0  0  0  0  0  0  0  0
  -16.3243  -39.2351   -8.3510 C   0  0  0  0  0  0  0  0  0  0  0  0
  -15.0141  -39.7868   -8.2503 N   0  0  0  0  0  0  0  0  0  0  0  0
  -14.5385  -40.2048   -9.5727 C   0  0  0  0  0  0  0  0  0  0  0  0
  -13.7260  -41.4218   -9.6699 C   0  0  0  0  0  0  0  0  0  0  0  0
  -15.1539  -41.5997   -9.9353 C   0  0  0  0  0  0  0  0  0  0  0  0
  -14.6969  -39.2345  -10.6829 C   0  0  0  0  0  0  0  0  0  0  0  0
  -13.9151  -38.1074  -10.7186 C   0  0  0  0  0  0  0  0  0  0  0  0
  -14.0499  -37.1693  -11.7502 C   0  0  0  0  0  0  0  0  0  0  0  0
  -14.9753  -37.3816  -12.7349 C   0  0  0  0  0  0  0  0  0  0  0  0
  -15.7449  -38.5209  -12.6722 C   0  0  0  0  0  0  0  0  0  0  0  0
  -15.5853  -39.3944  -11.6685 N   0  0  0  0  0  0  0  0  0  0  0  0
  -13.1974  -35.9542  -11.8004 C   0  0  0  0  0  0  0  0  0  0  0  0
  -13.3062  -35.3514  -13.1823 C   0  0  0  0  0  0  0  0  0  0  0  0
  -13.6987  -34.9632  -10.7975 C   0  0  0  0  0  0  0  0  0  0  0  0
  -11.7506  -36.2733  -11.5090 C   0  0  0  0  0  0  0  0  0  0  0  0
  -16.7287  -45.0383   -9.9133 C   0  0  0  0  0  0  0  0  0  0  0  0
  -16.4455  -46.2455   -9.4822 O   0  0  0  0  0  0  0  0  0  0  0  0
  -16.0651  -44.6684  -11.0483 N   0  0  0  0  0  0  0  0  0  0  0  0
  -16.2033  -43.4675  -11.7961 C   0  0  0  0  0  0  0  0  0  0  0  0
  -15.0788  -45.6374  -11.5794 C   0  0  0  0  0  0  0  0  0  0  0  0
  2  1  1  1
  2  3  1  0
  3  4  1  0
  4  5  1  0
  5  6  1  0
  6  7  1  0
  7  8  1  0
  8  9  1  0
  9 10  1  0
 10 11  1  0
 11 12  1  0
 12 13  2  0
 13 14  1  0
 14 15  2  0
 15 16  1  0
 15 17  1  0
 17 18  2  0
 17 19  1  0
 19 20  1  0
 20 21  1  1
 20 22  1  0
 22 23  1  6
 22 24  1  0
 24 25  1  0
 25 26  1  0
 26 27  1  0
 27 28  1  0
 26 29  1  0
 29 30  2  0
 30 31  1  0
 31 32  2  0
 32 33  1  0
 33 34  2  0
 31 35  1  0
 35 36  1  0
 35 37  1  0
 35 38  1  0
 13 39  1  0
 39 40  2  0
 39 41  1  0
 41 42  1  0
 41 43  1  0
 16 11  2  0
 21  2  1  0
 28 26  1  0
 34 29  1  0
M  END
$$$$
