
     RDKit          3D

 43 46  0  0  0  0  0  0  0  0999 V2000
  -17.0058  -35.7256   -8.9538 C   0  0  0  0  0  0  0  0  0  0  0  0
  -16.4249  -37.0432   -9.4880 C   0  0  2  0  0  0  0  0  0  0  0  0
  -17.1661  -37.5409  -10.6800 C   0  0  0  0  0  0  0  0  0  0  0  0
  -16.3098  -37.4549  -11.9199 C   0  0  0  0  0  0  0  0  0  0  0  0
  -17.1313  -37.0025  -13.1082 C   0  0  0  0  0  0  0  0  0  0  0  0
  -17.5607  -38.2429  -13.8695 C   0  0  0  0  0  0  0  0  0  0  0  0
  -18.9258  -38.0306  -14.5039 C   0  0  0  0  0  0  0  0  0  0  0  0
  -19.3747  -39.2807  -15.1758 C   0  0  0  0  0  0  0  0  0  0  0  0
  -20.7106  -39.7375  -14.5627 C   0  0  0  0  0  0  0  0  0  0  0  0
  -20.4139  -40.6137  -13.5520 O   0  0  0  0  0  0  0  0  0  0  0  0
  -20.4859  -40.6774  -12.1705 C   0  0  0  0  0  0  0  0  0  0  0  0
  -21.1682  -41.8335  -11.7566 C   0  0  0  0  0  0  0  0  0  0  0  0
  -21.3887  -42.1558  -10.4319 C   0  0  0  0  0  0  0  0  0  0  0  0
  -20.8845  -41.2534   -9.5367 C   0  0  0  0  0  0  0  0  0  0  0  0
  -20.1827  -40.0665   -9.9028 C   0  0  0  0  0  0  0  0  0  0  0  0
  -19.9871  -39.7829  -11.2239 C   0  0  0  0  0  0  0  0  0  0  0  0
  -19.7948  -39.3374   -8.6857 C   0  0  0  0  0  0  0  0  0  0  0  0
  -20.6759  -39.2855   -7.6990 O   0  0  0  0  0  0  0  0  0  0  0  0
  -18.6206  -38.6386   -8.3178 N   0  0  0  0  0  0  0  0  0  0  0  0
  -17.2688  -39.0990   -8.2405 C   0  0  1  0  0  0  0  0  0  0  0  0
  -16.2479  -38.0395   -8.4094 C   0  0  0  0  0  0  0  0  0  0  0  0
  -17.0038  -39.8141   -6.9219 C   0  0  2  0  0  0  0  0  0  0  0  0
  -16.6067  -41.1219   -7.2913 O   0  0  0  0  0  0  0  0  0  0  0  0
  -18.3058  -40.0284   -6.1727 C   0  0  0  0  0  0  0  0  0  0  0  0
  -19.0758  -38.8489   -5.9552 N   0  0  0  0  0  0  0  0  0  0  0  0
  -20.3202  -39.1797   -5.2541 C   0  0  0  0  0  0  0  0  0  0  0  0
  -20.7419  -38.3251   -4.1394 C   0  0  0  0  0  0  0  0  0  0  0  0
  -21.3501  -38.0120   -5.4329 C   0  0  0  0  0  0  0  0  0  0  0  0
  -20.9327  -40.4966   -5.5543 C   0  0  0  0  0  0  0  0  0  0  0  0
  -20.1580  -41.5065   -6.0669 C   0  0  0  0  0  0  0  0  0  0  0  0
  -20.7119  -42.7573   -6.3686 C   0  0  0  0  0  0  0  0  0  0  0  0
  -22.0447  -42.9727   -6.1488 C   0  0  0  0  0  0  0  0  0  0  0  0
  -22.7961  -41.9409   -5.6340 C   0  0  0  0  0  0  0  0  0  0  0  0
  -22.2284  -40.7586   -5.3584 N   0  0  0  0  0  0  0  0  0  0  0  0
  -19.8751  -43.8577   -6.9115 C   0  0  0  0  0  0  0  0  0  0  0  0
  -20.1258  -45.0995   -6.0869 C   0  0  0  0  0  0  0  0  0  0  0  0
  -20.2783  -44.1257   -8.3274 C   0  0  0  0  0  0  0  0  0  0  0  0
  -18.4048  -43.5177   -6.8652 C   0  0  0  0  0  0  0  0  0  0  0  0
  -22.1203  -43.3688  -10.0974 C   0  0  0  0  0  0  0  0  0  0  0  0
  -23.4244  -43.2371  -10.1710 O   0  0  0  0  0  0  0  0  0  0  0  0
  -21.6934  -44.6108   -9.7227 N   0  0  0  0  0  0  0  0  0  0  0  0
  -22.3763  -45.8510   -9.8501 C   0  0  0  0  0  0  0  0  0  0  0  0
  -20.3529  -44.6853   -9.0972 C   0  0  0  0  0  0  0  0  0  0  0  0
  2  1  1  1
  2  3  1  0
  3  4  1  0
  4  5  1  0
  5  6  1  0
  6  7  1  0
  7  8  1  0
  8  9  1  0
  9 10  1  0
 10 11  1  0
 11 12  1  0
 12 13  2  0
 13 14  1  0
 14 15  2  0
 15 16  1  0
 15 17  1  0
 17 18  2  0
 17 19  1  0
 19 20  1  0
 20 21  1  1
 20 22  1  0
 22 23  1  6
 22 24  1  0
 24 25  1  0
 25 26  1  0
 26 27  1  0
 27 28  1  0
 26 29  1  0
 29 30  2  0
 30 31  1  0
 31 32  2  0
 32 33  1  0
 33 34  2  0
 31 35  1  0
 35 36  1  0
 35 37  1  0
 35 38  1  0
 13 39  1  0
 39 40  2  0
 39 41  1  0
 41 42  1  0
 41 43  1  0
 16 11  2  0
 21  2  1  0
 28 26  1  0
 34 29  1  0
M  END
$$$$
