
     RDKit          3D

 43 46  0  0  0  0  0  0  0  0999 V2000
  -18.9799  -37.3880   -6.6549 C   0  0  0  0  0  0  0  0  0  0  0  0
  -19.8864  -38.0449   -7.7065 C   0  0  2  0  0  0  0  0  0  0  0  0
  -20.6414  -39.2027   -7.1521 C   0  0  0  0  0  0  0  0  0  0  0  0
  -22.1162  -38.8927   -7.0697 C   0  0  0  0  0  0  0  0  0  0  0  0
  -22.7102  -39.4491   -5.7933 C   0  0  0  0  0  0  0  0  0  0  0  0
  -23.3297  -40.7945   -6.1225 C   0  0  0  0  0  0  0  0  0  0  0  0
  -23.2146  -41.7370   -4.9352 C   0  0  0  0  0  0  0  0  0  0  0  0
  -23.7481  -43.0787   -5.2969 C   0  0  0  0  0  0  0  0  0  0  0  0
  -22.6418  -44.1333   -5.1147 C   0  0  0  0  0  0  0  0  0  0  0  0
  -22.0095  -44.2701   -6.3225 O   0  0  0  0  0  0  0  0  0  0  0  0
  -20.7772  -43.9980   -6.8928 C   0  0  0  0  0  0  0  0  0  0  0  0
  -20.2409  -45.1458   -7.4994 C   0  0  0  0  0  0  0  0  0  0  0  0
  -19.0211  -45.1671   -8.1466 C   0  0  0  0  0  0  0  0  0  0  0  0
  -18.3625  -43.9687   -8.1559 C   0  0  0  0  0  0  0  0  0  0  0  0
  -18.8624  -42.7738   -7.5581 C   0  0  0  0  0  0  0  0  0  0  0  0
  -20.0722  -42.7951   -6.9257 C   0  0  0  0  0  0  0  0  0  0  0  0
  -17.8900  -41.6884   -7.7567 C   0  0  0  0  0  0  0  0  0  0  0  0
  -16.6071  -41.9869   -7.6230 O   0  0  0  0  0  0  0  0  0  0  0  0
  -18.0329  -40.3173   -8.0761 N   0  0  0  0  0  0  0  0  0  0  0  0
  -18.6596  -39.7018   -9.2048 C   0  0  1  0  0  0  0  0  0  0  0  0
  -19.1536  -38.3272   -8.9598 C   0  0  0  0  0  0  0  0  0  0  0  0
  -17.7232  -39.6676  -10.4057 C   0  0  2  0  0  0  0  0  0  0  0  0
  -17.5982  -41.0196  -10.8074 O   0  0  0  0  0  0  0  0  0  0  0  0
  -16.3214  -39.2892   -9.9648 C   0  0  0  0  0  0  0  0  0  0  0  0
  -16.0459  -37.8909   -9.9708 N   0  0  0  0  0  0  0  0  0  0  0  0
  -15.2332  -37.5408  -11.1398 C   0  0  0  0  0  0  0  0  0  0  0  0
  -15.8658  -36.7927  -12.2311 C   0  0  0  0  0  0  0  0  0  0  0  0
  -15.1306  -35.9816  -11.2602 C   0  0  0  0  0  0  0  0  0  0  0  0
  -13.9018  -38.1844  -11.2515 C   0  0  0  0  0  0  0  0  0  0  0  0
  -12.7727  -37.4718  -10.9352 C   0  0  0  0  0  0  0  0  0  0  0  0
  -11.5018  -38.0514  -11.0404 C   0  0  0  0  0  0  0  0  0  0  0  0
  -11.3868  -39.3464  -11.4655 C   0  0  0  0  0  0  0  0  0  0  0  0
  -12.5371  -40.0358  -11.7757 C   0  0  0  0  0  0  0  0  0  0  0  0
  -13.7347  -39.4453  -11.6615 N   0  0  0  0  0  0  0  0  0  0  0  0
  -10.2774  -37.2886  -10.6870 C   0  0  0  0  0  0  0  0  0  0  0  0
   -9.7689  -36.5985  -11.9320 C   0  0  0  0  0  0  0  0  0  0  0  0
  -10.6248  -36.2523   -9.6650 C   0  0  0  0  0  0  0  0  0  0  0  0
   -9.1958  -38.1888  -10.1397 C   0  0  0  0  0  0  0  0  0  0  0  0
  -18.5380  -46.4084   -8.7333 C   0  0  0  0  0  0  0  0  0  0  0  0
  -18.2666  -47.3406   -7.8497 O   0  0  0  0  0  0  0  0  0  0  0  0
  -18.3181  -46.7725  -10.0312 N   0  0  0  0  0  0  0  0  0  0  0  0
  -17.9196  -48.0413  -10.5332 C   0  0  0  0  0  0  0  0  0  0  0  0
  -18.5100  -45.7172  -11.0525 C   0  0  0  0  0  0  0  0  0  0  0  0
  2  1  1  1
  2  3  1  0
  3  4  1  0
  4  5  1  0
  5  6  1  0
  6  7  1  0
  7  8  1  0
  8  9  1  0
  9 10  1  0
 10 11  1  0
 11 12  1  0
 12 13  2  0
 13 14  1  0
 14 15  2  0
 15 16  1  0
 15 17  1  0
 17 18  2  0
 17 19  1  0
 19 20  1  0
 20 21  1  1
 20 22  1  0
 22 23  1  1
 22 24  1  0
 24 25  1  0
 25 26  1  0
 26 27  1  0
 27 28  1  0
 26 29  1  0
 29 30  2  0
 30 31  1  0
 31 32  2  0
 32 33  1  0
 33 34  2  0
 31 35  1  0
 35 36  1  0
 35 37  1  0
 35 38  1  0
 13 39  1  0
 39 40  2  0
 39 41  1  0
 41 42  1  0
 41 43  1  0
 16 11  2  0
 21  2  1  0
 28 26  1  0
 34 29  1  0
M  END
$$$$
