
     RDKit          3D

 43 46  0  0  0  0  0  0  0  0999 V2000
  -18.7038  -37.5834   -4.7386 C   0  0  0  0  0  0  0  0  0  0  0  0
  -19.3311  -37.6865   -6.1368 C   0  0  2  0  0  0  0  0  0  0  0  0
  -20.2860  -38.8246   -6.2409 C   0  0  0  0  0  0  0  0  0  0  0  0
  -21.7026  -38.3257   -6.3906 C   0  0  0  0  0  0  0  0  0  0  0  0
  -22.6591  -39.1786   -5.5850 C   0  0  0  0  0  0  0  0  0  0  0  0
  -23.2554  -40.2119   -6.5226 C   0  0  0  0  0  0  0  0  0  0  0  0
  -23.5334  -41.5075   -5.7774 C   0  0  0  0  0  0  0  0  0  0  0  0
  -24.0381  -42.5402   -6.7231 C   0  0  0  0  0  0  0  0  0  0  0  0
  -23.0983  -43.7590   -6.6961 C   0  0  0  0  0  0  0  0  0  0  0  0
  -22.1710  -43.5775   -7.6883 O   0  0  0  0  0  0  0  0  0  0  0  0
  -20.8142  -43.3319   -7.8174 C   0  0  0  0  0  0  0  0  0  0  0  0
  -20.2121  -44.2759   -8.6658 C   0  0  0  0  0  0  0  0  0  0  0  0
  -18.8663  -44.2738   -8.9757 C   0  0  0  0  0  0  0  0  0  0  0  0
  -18.1501  -43.2679   -8.3882 C   0  0  0  0  0  0  0  0  0  0  0  0
  -18.7116  -42.2833   -7.5219 C   0  0  0  0  0  0  0  0  0  0  0  0
  -20.0467  -42.3214   -7.2388 C   0  0  0  0  0  0  0  0  0  0  0  0
  -17.6502  -41.3686   -7.0746 C   0  0  0  0  0  0  0  0  0  0  0  0
  -16.4762  -41.8993   -6.7703 O   0  0  0  0  0  0  0  0  0  0  0  0
  -17.6066  -39.9669   -6.8863 N   0  0  0  0  0  0  0  0  0  0  0  0
  -17.8577  -38.9109   -7.8176 C   0  0  1  0  0  0  0  0  0  0  0  0
  -18.3050  -37.6408   -7.2008 C   0  0  0  0  0  0  0  0  0  0  0  0
  -16.6288  -38.6229   -8.6703 C   0  0  2  0  0  0  0  0  0  0  0  0
  -17.1428  -38.2827   -9.9449 O   0  0  0  0  0  0  0  0  0  0  0  0
  -15.8552  -39.9039   -8.9214 C   0  0  0  0  0  0  0  0  0  0  0  0
  -14.5213  -39.9092   -8.4193 N   0  0  0  0  0  0  0  0  0  0  0  0
  -13.7841  -41.0578   -8.9550 C   0  0  0  0  0  0  0  0  0  0  0  0
  -12.3196  -41.0445   -8.8787 C   0  0  0  0  0  0  0  0  0  0  0  0
  -12.9961  -41.7621   -7.7977 C   0  0  0  0  0  0  0  0  0  0  0  0
  -14.5538  -42.0347   -9.7628 C   0  0  0  0  0  0  0  0  0  0  0  0
  -14.2718  -42.1868  -11.0970 C   0  0  0  0  0  0  0  0  0  0  0  0
  -14.9891  -43.0952  -11.8860 C   0  0  0  0  0  0  0  0  0  0  0  0
  -15.9851  -43.8399  -11.3164 C   0  0  0  0  0  0  0  0  0  0  0  0
  -16.2450  -43.6653   -9.9761 C   0  0  0  0  0  0  0  0  0  0  0  0
  -15.5358  -42.7858   -9.2554 N   0  0  0  0  0  0  0  0  0  0  0  0
  -14.6792  -43.2730  -13.3277 C   0  0  0  0  0  0  0  0  0  0  0  0
  -13.2777  -43.8258  -13.4501 C   0  0  0  0  0  0  0  0  0  0  0  0
  -15.6418  -44.2552  -13.9173 C   0  0  0  0  0  0  0  0  0  0  0  0
  -14.7680  -41.9692  -14.0840 C   0  0  0  0  0  0  0  0  0  0  0  0
  -18.3271  -45.3024   -9.8530 C   0  0  0  0  0  0  0  0  0  0  0  0
  -18.6226  -45.1252  -11.1198 O   0  0  0  0  0  0  0  0  0  0  0  0
  -17.5739  -46.4118   -9.5937 N   0  0  0  0  0  0  0  0  0  0  0  0
  -17.1832  -47.4398  -10.4943 C   0  0  0  0  0  0  0  0  0  0  0  0
  -17.1051  -46.5778   -8.1985 C   0  0  0  0  0  0  0  0  0  0  0  0
  2  1  1  1
  2  3  1  0
  3  4  1  0
  4  5  1  0
  5  6  1  0
  6  7  1  0
  7  8  1  0
  8  9  1  0
  9 10  1  0
 10 11  1  0
 11 12  1  0
 12 13  2  0
 13 14  1  0
 14 15  2  0
 15 16  1  0
 15 17  1  0
 17 18  2  0
 17 19  1  0
 19 20  1  0
 20 21  1  1
 20 22  1  0
 22 23  1  6
 22 24  1  0
 24 25  1  0
 25 26  1  0
 26 27  1  0
 27 28  1  0
 26 29  1  0
 29 30  2  0
 30 31  1  0
 31 32  2  0
 32 33  1  0
 33 34  2  0
 31 35  1  0
 35 36  1  0
 35 37  1  0
 35 38  1  0
 13 39  1  0
 39 40  2  0
 39 41  1  0
 41 42  1  0
 41 43  1  0
 16 11  2  0
 21  2  1  0
 28 26  1  0
 34 29  1  0
M  END
$$$$
