
     RDKit          3D

 43 46  0  0  0  0  0  0  0  0999 V2000
  -15.8636  -35.7263   -9.0525 C   0  0  0  0  0  0  0  0  0  0  0  0
  -15.2361  -37.1099   -9.2776 C   0  0  2  0  0  0  0  0  0  0  0  0
  -15.8286  -37.8108  -10.4505 C   0  0  0  0  0  0  0  0  0  0  0  0
  -14.8234  -37.9290  -11.5701 C   0  0  0  0  0  0  0  0  0  0  0  0
  -15.4849  -37.6939  -12.9112 C   0  0  0  0  0  0  0  0  0  0  0  0
  -15.8305  -39.0500  -13.4977 C   0  0  0  0  0  0  0  0  0  0  0  0
  -17.1032  -38.9624  -14.3245 C   0  0  0  0  0  0  0  0  0  0  0  0
  -17.4794  -40.3130  -14.8243 C   0  0  0  0  0  0  0  0  0  0  0  0
  -18.8866  -40.6717  -14.3141 C   0  0  0  0  0  0  0  0  0  0  0  0
  -18.7286  -41.3599  -13.1399 O   0  0  0  0  0  0  0  0  0  0  0  0
  -18.9732  -41.1878  -11.7876 C   0  0  0  0  0  0  0  0  0  0  0  0
  -19.7152  -42.2630  -11.2714 C   0  0  0  0  0  0  0  0  0  0  0  0
  -20.1030  -42.3569   -9.9493 C   0  0  0  0  0  0  0  0  0  0  0  0
  -19.7039  -41.3102   -9.1650 C   0  0  0  0  0  0  0  0  0  0  0  0
  -18.9479  -40.1963   -9.6373 C   0  0  0  0  0  0  0  0  0  0  0  0
  -18.5859  -40.1401  -10.9525 C   0  0  0  0  0  0  0  0  0  0  0  0
  -18.7064  -39.2666   -8.5235 C   0  0  0  0  0  0  0  0  0  0  0  0
  -19.7030  -39.0560   -7.6779 O   0  0  0  0  0  0  0  0  0  0  0  0
  -17.5792  -38.5039   -8.1363 N   0  0  0  0  0  0  0  0  0  0  0  0
  -16.2530  -38.9311   -7.8134 C   0  0  1  0  0  0  0  0  0  0  0  0
  -15.2066  -37.9060   -8.0315 C   0  0  0  0  0  0  0  0  0  0  0  0
  -16.1630  -39.4083   -6.3696 C   0  0  2  0  0  0  0  0  0  0  0  0
  -15.2783  -40.5131   -6.4067 O   0  0  0  0  0  0  0  0  0  0  0  0
  -17.4842  -40.0161   -5.9367 C   0  0  0  0  0  0  0  0  0  0  0  0
  -17.9424  -39.6059   -4.6510 N   0  0  0  0  0  0  0  0  0  0  0  0
  -19.1920  -40.2958   -4.3158 C   0  0  0  0  0  0  0  0  0  0  0  0
  -19.3736  -40.7846   -2.9451 C   0  0  0  0  0  0  0  0  0  0  0  0
  -19.9679  -39.4776   -3.2274 C   0  0  0  0  0  0  0  0  0  0  0  0
  -20.0756  -40.6749   -5.4448 C   0  0  0  0  0  0  0  0  0  0  0  0
  -21.2734  -40.0284   -5.6184 C   0  0  0  0  0  0  0  0  0  0  0  0
  -22.1320  -40.3723   -6.6705 C   0  0  0  0  0  0  0  0  0  0  0  0
  -21.7694  -41.3677   -7.5358 C   0  0  0  0  0  0  0  0  0  0  0  0
  -20.5622  -41.9980   -7.3362 C   0  0  0  0  0  0  0  0  0  0  0  0
  -19.7688  -41.6394   -6.3175 N   0  0  0  0  0  0  0  0  0  0  0  0
  -23.4237  -39.6669   -6.8704 C   0  0  0  0  0  0  0  0  0  0  0  0
  -24.0977  -40.2430   -8.0946 C   0  0  0  0  0  0  0  0  0  0  0  0
  -24.2983  -39.9012   -5.6791 C   0  0  0  0  0  0  0  0  0  0  0  0
  -23.2266  -38.1824   -7.0628 C   0  0  0  0  0  0  0  0  0  0  0  0
  -20.8848  -43.5022   -9.5070 C   0  0  0  0  0  0  0  0  0  0  0  0
  -22.1744  -43.2669   -9.4369 O   0  0  0  0  0  0  0  0  0  0  0  0
  -20.5169  -44.7693   -9.1542 N   0  0  0  0  0  0  0  0  0  0  0  0
  -21.3548  -45.8854   -8.8844 C   0  0  0  0  0  0  0  0  0  0  0  0
  -19.0629  -45.0214   -9.0273 C   0  0  0  0  0  0  0  0  0  0  0  0
  2  1  1  1
  2  3  1  0
  3  4  1  0
  4  5  1  0
  5  6  1  0
  6  7  1  0
  7  8  1  0
  8  9  1  0
  9 10  1  0
 10 11  1  0
 11 12  1  0
 12 13  2  0
 13 14  1  0
 14 15  2  0
 15 16  1  0
 15 17  1  0
 17 18  2  0
 17 19  1  0
 19 20  1  0
 20 21  1  1
 20 22  1  0
 22 23  1  6
 22 24  1  0
 24 25  1  0
 25 26  1  0
 26 27  1  0
 27 28  1  0
 26 29  1  0
 29 30  2  0
 30 31  1  0
 31 32  2  0
 32 33  1  0
 33 34  2  0
 31 35  1  0
 35 36  1  0
 35 37  1  0
 35 38  1  0
 13 39  1  0
 39 40  2  0
 39 41  1  0
 41 42  1  0
 41 43  1  0
 16 11  2  0
 21  2  1  0
 28 26  1  0
 34 29  1  0
M  END
$$$$
