
     RDKit          3D

 43 46  0  0  0  0  0  0  0  0999 V2000
  -15.7555  -35.6064  -10.7341 C   0  0  0  0  0  0  0  0  0  0  0  0
  -14.7049  -36.5186  -10.0837 C   0  0  2  0  0  0  0  0  0  0  0  0
  -14.1325  -37.4946  -11.0520 C   0  0  0  0  0  0  0  0  0  0  0  0
  -12.6848  -37.1798  -11.3402 C   0  0  0  0  0  0  0  0  0  0  0  0
  -12.3732  -37.3862  -12.8070 C   0  0  0  0  0  0  0  0  0  0  0  0
  -11.7776  -38.7734  -12.9601 C   0  0  0  0  0  0  0  0  0  0  0  0
  -12.1658  -39.3729  -14.3021 C   0  0  0  0  0  0  0  0  0  0  0  0
  -11.6483  -40.7647  -14.4065 C   0  0  0  0  0  0  0  0  0  0  0  0
  -12.8254  -41.7308  -14.6313 C   0  0  0  0  0  0  0  0  0  0  0  0
  -13.2255  -42.1754  -13.3986 O   0  0  0  0  0  0  0  0  0  0  0  0
  -14.3116  -42.0566  -12.5476 C   0  0  0  0  0  0  0  0  0  0  0  0
  -14.7864  -43.3208  -12.1609 C   0  0  0  0  0  0  0  0  0  0  0  0
  -15.8619  -43.5053  -11.3145 C   0  0  0  0  0  0  0  0  0  0  0  0
  -16.4401  -42.3483  -10.8708 C   0  0  0  0  0  0  0  0  0  0  0  0
  -15.9968  -41.0408  -11.2300 C   0  0  0  0  0  0  0  0  0  0  0  0
  -14.9306  -40.9011  -12.0713 C   0  0  0  0  0  0  0  0  0  0  0  0
  -16.8533  -40.0409  -10.5744 C   0  0  0  0  0  0  0  0  0  0  0  0
  -18.1528  -40.2890  -10.5256 O   0  0  0  0  0  0  0  0  0  0  0  0
  -16.5777  -38.8012   -9.9502 N   0  0  0  0  0  0  0  0  0  0  0  0
  -15.7168  -38.5041   -8.8474 C   0  0  1  0  0  0  0  0  0  0  0  0
  -15.2030  -37.1152   -8.8255 C   0  0  0  0  0  0  0  0  0  0  0  0
  -16.4072  -38.7807   -7.5180 C   0  0  2  0  0  0  0  0  0  0  0  0
  -15.4087  -39.3712   -6.7062 O   0  0  0  0  0  0  0  0  0  0  0  0
  -17.4379  -39.8820   -7.6836 C   0  0  0  0  0  0  0  0  0  0  0  0
  -18.7266  -39.4413   -8.1035 N   0  0  0  0  0  0  0  0  0  0  0  0
  -19.7508  -40.4038   -7.6860 C   0  0  0  0  0  0  0  0  0  0  0  0
  -19.4517  -41.8350   -7.7998 C   0  0  0  0  0  0  0  0  0  0  0  0
  -19.2162  -41.2494   -6.4797 C   0  0  0  0  0  0  0  0  0  0  0  0
  -21.1077  -39.8691   -7.4172 C   0  0  0  0  0  0  0  0  0  0  0  0
  -21.7236  -40.1449   -6.2224 C   0  0  0  0  0  0  0  0  0  0  0  0
  -23.0086  -39.6608   -5.9455 C   0  0  0  0  0  0  0  0  0  0  0  0
  -23.6573  -38.9028   -6.8813 C   0  0  0  0  0  0  0  0  0  0  0  0
  -23.0143  -38.6429   -8.0702 C   0  0  0  0  0  0  0  0  0  0  0  0
  -21.7843  -39.1244   -8.2968 N   0  0  0  0  0  0  0  0  0  0  0  0
  -23.6745  -39.9458   -4.6489 C   0  0  0  0  0  0  0  0  0  0  0  0
  -23.1653  -41.2718   -4.1320 C   0  0  0  0  0  0  0  0  0  0  0  0
  -23.3165  -38.8730   -3.6691 C   0  0  0  0  0  0  0  0  0  0  0  0
  -25.1760  -40.0112   -4.7934 C   0  0  0  0  0  0  0  0  0  0  0  0
  -16.2934  -44.8548  -10.9809 C   0  0  0  0  0  0  0  0  0  0  0  0
  -15.4109  -45.5361  -10.2877 O   0  0  0  0  0  0  0  0  0  0  0  0
  -17.4455  -45.5333  -11.2597 N   0  0  0  0  0  0  0  0  0  0  0  0
  -18.5336  -45.1205  -12.0759 C   0  0  0  0  0  0  0  0  0  0  0  0
  -17.5927  -46.8666  -10.6317 C   0  0  0  0  0  0  0  0  0  0  0  0
  2  1  1  6
  2  3  1  0
  3  4  1  0
  4  5  1  0
  5  6  1  0
  6  7  1  0
  7  8  1  0
  8  9  1  0
  9 10  1  0
 10 11  1  0
 11 12  1  0
 12 13  2  0
 13 14  1  0
 14 15  2  0
 15 16  1  0
 15 17  1  0
 17 18  2  0
 17 19  1  0
 19 20  1  0
 20 21  1  1
 20 22  1  0
 22 23  1  1
 22 24  1  0
 24 25  1  0
 25 26  1  0
 26 27  1  0
 27 28  1  0
 26 29  1  0
 29 30  2  0
 30 31  1  0
 31 32  2  0
 32 33  1  0
 33 34  2  0
 31 35  1  0
 35 36  1  0
 35 37  1  0
 35 38  1  0
 13 39  1  0
 39 40  2  0
 39 41  1  0
 41 42  1  0
 41 43  1  0
 16 11  2  0
 21  2  1  0
 28 26  1  0
 34 29  1  0
M  END
$$$$
