
     RDKit          3D

 43 46  0  0  0  0  0  0  0  0999 V2000
  -19.4342  -38.2361   -4.1957 C   0  0  0  0  0  0  0  0  0  0  0  0
  -19.3353  -38.3334   -5.7253 C   0  0  2  0  0  0  0  0  0  0  0  0
  -20.3747  -39.2327   -6.2988 C   0  0  0  0  0  0  0  0  0  0  0  0
  -21.3844  -38.4457   -7.0983 C   0  0  0  0  0  0  0  0  0  0  0  0
  -22.7825  -38.9782   -6.8683 C   0  0  0  0  0  0  0  0  0  0  0  0
  -23.1008  -39.9388   -7.9990 C   0  0  0  0  0  0  0  0  0  0  0  0
  -24.0031  -41.0587   -7.5063 C   0  0  0  0  0  0  0  0  0  0  0  0
  -24.2396  -42.0401   -8.6002 C   0  0  0  0  0  0  0  0  0  0  0  0
  -23.7527  -43.4299   -8.1523 C   0  0  0  0  0  0  0  0  0  0  0  0
  -22.4558  -43.5603   -8.5746 O   0  0  0  0  0  0  0  0  0  0  0  0
  -21.1840  -43.6395   -8.0322 C   0  0  0  0  0  0  0  0  0  0  0  0
  -20.5055  -44.7736   -8.5084 C   0  0  0  0  0  0  0  0  0  0  0  0
  -19.2177  -45.1044   -8.1352 C   0  0  0  0  0  0  0  0  0  0  0  0
  -18.6400  -44.2319   -7.2548 C   0  0  0  0  0  0  0  0  0  0  0  0
  -19.2825  -43.0657   -6.7427 C   0  0  0  0  0  0  0  0  0  0  0  0
  -20.5575  -42.7749   -7.1350 C   0  0  0  0  0  0  0  0  0  0  0  0
  -18.3685  -42.3731   -5.8218 C   0  0  0  0  0  0  0  0  0  0  0  0
  -17.6449  -43.1210   -5.0035 O   0  0  0  0  0  0  0  0  0  0  0  0
  -18.0774  -41.0053   -5.6055 N   0  0  0  0  0  0  0  0  0  0  0  0
  -17.5952  -40.0172   -6.5202 C   0  0  1  0  0  0  0  0  0  0  0  0
  -17.9539  -38.6246   -6.1661 C   0  0  0  0  0  0  0  0  0  0  0  0
  -16.0819  -40.0983   -6.6732 C   0  0  2  0  0  0  0  0  0  0  0  0
  -15.6178  -38.7907   -6.3912 O   0  0  0  0  0  0  0  0  0  0  0  0
  -15.7144  -40.3071   -8.1306 C   0  0  0  0  0  0  0  0  0  0  0  0
  -14.3915  -39.9085   -8.4803 N   0  0  0  0  0  0  0  0  0  0  0  0
  -14.1129  -40.2519   -9.8782 C   0  0  0  0  0  0  0  0  0  0  0  0
  -12.8064  -40.8309  -10.2079 C   0  0  0  0  0  0  0  0  0  0  0  0
  -13.8859  -41.7975  -10.0040 C   0  0  0  0  0  0  0  0  0  0  0  0
  -15.0707  -39.7576  -10.8968 C   0  0  0  0  0  0  0  0  0  0  0  0
  -15.5522  -38.4754  -10.8126 C   0  0  0  0  0  0  0  0  0  0  0  0
  -16.4650  -37.9853  -11.7554 C   0  0  0  0  0  0  0  0  0  0  0  0
  -16.8815  -38.7983  -12.7735 C   0  0  0  0  0  0  0  0  0  0  0  0
  -16.3813  -40.0793  -12.8317 C   0  0  0  0  0  0  0  0  0  0  0  0
  -15.5091  -40.5106  -11.9101 N   0  0  0  0  0  0  0  0  0  0  0  0
  -16.9794  -36.5942  -11.6762 C   0  0  0  0  0  0  0  0  0  0  0  0
  -18.4228  -36.6436  -11.2300 C   0  0  0  0  0  0  0  0  0  0  0  0
  -16.1833  -35.8354  -10.6616 C   0  0  0  0  0  0  0  0  0  0  0  0
  -16.8941  -35.8894  -13.0088 C   0  0  0  0  0  0  0  0  0  0  0  0
  -18.5996  -46.3093   -8.6687 C   0  0  0  0  0  0  0  0  0  0  0  0
  -19.2204  -47.4159   -8.3315 O   0  0  0  0  0  0  0  0  0  0  0  0
  -17.4959  -46.4915   -9.4522 N   0  0  0  0  0  0  0  0  0  0  0  0
  -16.9069  -47.7156   -9.8709 C   0  0  0  0  0  0  0  0  0  0  0  0
  -16.8148  -45.2644   -9.9257 C   0  0  0  0  0  0  0  0  0  0  0  0
  2  1  1  1
  2  3  1  0
  3  4  1  0
  4  5  1  0
  5  6  1  0
  6  7  1  0
  7  8  1  0
  8  9  1  0
  9 10  1  0
 10 11  1  0
 11 12  1  0
 12 13  2  0
 13 14  1  0
 14 15  2  0
 15 16  1  0
 15 17  1  0
 17 18  2  0
 17 19  1  0
 19 20  1  0
 20 21  1  1
 20 22  1  0
 22 23  1  6
 22 24  1  0
 24 25  1  0
 25 26  1  0
 26 27  1  0
 27 28  1  0
 26 29  1  0
 29 30  2  0
 30 31  1  0
 31 32  2  0
 32 33  1  0
 33 34  2  0
 31 35  1  0
 35 36  1  0
 35 37  1  0
 35 38  1  0
 13 39  1  0
 39 40  2  0
 39 41  1  0
 41 42  1  0
 41 43  1  0
 16 11  2  0
 21  2  1  0
 28 26  1  0
 34 29  1  0
M  END
$$$$
