
     RDKit          3D

 43 46  0  0  0  0  0  0  0  0999 V2000
  -18.7884  -36.3816   -6.6682 C   0  0  0  0  0  0  0  0  0  0  0  0
  -18.6882  -37.3259   -7.8754 C   0  0  2  0  0  0  0  0  0  0  0  0
  -19.9235  -38.1378   -8.0568 C   0  0  0  0  0  0  0  0  0  0  0  0
  -20.6593  -37.7245   -9.3081 C   0  0  0  0  0  0  0  0  0  0  0  0
  -22.1547  -37.7190   -9.0732 C   0  0  0  0  0  0  0  0  0  0  0  0
  -22.7024  -39.0460   -9.5647 C   0  0  0  0  0  0  0  0  0  0  0  0
  -23.8893  -39.4770   -8.7181 C   0  0  0  0  0  0  0  0  0  0  0  0
  -24.3650  -40.8184   -9.1541 C   0  0  0  0  0  0  0  0  0  0  0  0
  -24.2907  -41.7961   -7.9676 C   0  0  0  0  0  0  0  0  0  0  0  0
  -23.0718  -42.4187   -8.0313 O   0  0  0  0  0  0  0  0  0  0  0  0
  -21.8831  -42.4622   -7.3221 C   0  0  0  0  0  0  0  0  0  0  0  0
  -21.5349  -43.7863   -7.0079 C   0  0  0  0  0  0  0  0  0  0  0  0
  -20.3967  -44.1291   -6.3047 C   0  0  0  0  0  0  0  0  0  0  0  0
  -19.6189  -43.0680   -5.9317 C   0  0  0  0  0  0  0  0  0  0  0  0
  -19.9246  -41.7061   -6.2267 C   0  0  0  0  0  0  0  0  0  0  0  0
  -21.0609  -41.4089   -6.9226 C   0  0  0  0  0  0  0  0  0  0  0  0
  -18.8741  -40.8412   -5.6683 C   0  0  0  0  0  0  0  0  0  0  0  0
  -18.4028  -41.1501   -4.4704 O   0  0  0  0  0  0  0  0  0  0  0  0
  -18.2208  -39.6854   -6.1577 N   0  0  0  0  0  0  0  0  0  0  0  0
  -17.4653  -39.5012   -7.3581 C   0  0  1  0  0  0  0  0  0  0  0  0
  -17.4323  -38.1067   -7.8558 C   0  0  0  0  0  0  0  0  0  0  0  0
  -16.0305  -39.9830   -7.1866 C   0  0  2  0  0  0  0  0  0  0  0  0
  -15.2527  -38.8006   -7.1461 O   0  0  0  0  0  0  0  0  0  0  0  0
  -15.5601  -40.6834   -8.4478 C   0  0  0  0  0  0  0  0  0  0  0  0
  -14.5611  -41.6796   -8.2456 N   0  0  0  0  0  0  0  0  0  0  0  0
  -13.2814  -41.2330   -8.8046 C   0  0  0  0  0  0  0  0  0  0  0  0
  -12.1513  -41.0356   -7.8910 C   0  0  0  0  0  0  0  0  0  0  0  0
  -12.1913  -42.3334   -8.5656 C   0  0  0  0  0  0  0  0  0  0  0  0
  -13.2871  -40.7691  -10.2132 C   0  0  0  0  0  0  0  0  0  0  0  0
  -14.4662  -40.3789  -10.7965 C   0  0  0  0  0  0  0  0  0  0  0  0
  -14.5025  -39.9452  -12.1280 C   0  0  0  0  0  0  0  0  0  0  0  0
  -13.3448  -39.9116  -12.8557 C   0  0  0  0  0  0  0  0  0  0  0  0
  -12.1778  -40.3091  -12.2436 C   0  0  0  0  0  0  0  0  0  0  0  0
  -12.1849  -40.7174  -10.9672 N   0  0  0  0  0  0  0  0  0  0  0  0
  -15.7740  -39.5097  -12.7601 C   0  0  0  0  0  0  0  0  0  0  0  0
  -15.6067  -39.5718  -14.2611 C   0  0  0  0  0  0  0  0  0  0  0  0
  -16.8679  -40.4465  -12.3543 C   0  0  0  0  0  0  0  0  0  0  0  0
  -16.1452  -38.1023  -12.3584 C   0  0  0  0  0  0  0  0  0  0  0  0
  -20.1249  -45.5285   -6.0113 C   0  0  0  0  0  0  0  0  0  0  0  0
  -20.4415  -45.8835   -4.7877 O   0  0  0  0  0  0  0  0  0  0  0  0
  -19.6020  -46.5307   -6.7779 N   0  0  0  0  0  0  0  0  0  0  0  0
  -19.2435  -46.4905   -8.1528 C   0  0  0  0  0  0  0  0  0  0  0  0
  -19.3829  -47.8304   -6.1022 C   0  0  0  0  0  0  0  0  0  0  0  0
  2  1  1  1
  2  3  1  0
  3  4  1  0
  4  5  1  0
  5  6  1  0
  6  7  1  0
  7  8  1  0
  8  9  1  0
  9 10  1  0
 10 11  1  0
 11 12  1  0
 12 13  2  0
 13 14  1  0
 14 15  2  0
 15 16  1  0
 15 17  1  0
 17 18  2  0
 17 19  1  0
 19 20  1  0
 20 21  1  1
 20 22  1  0
 22 23  1  6
 22 24  1  0
 24 25  1  0
 25 26  1  0
 26 27  1  0
 27 28  1  0
 26 29  1  0
 29 30  2  0
 30 31  1  0
 31 32  2  0
 32 33  1  0
 33 34  2  0
 31 35  1  0
 35 36  1  0
 35 37  1  0
 35 38  1  0
 13 39  1  0
 39 40  2  0
 39 41  1  0
 41 42  1  0
 41 43  1  0
 16 11  2  0
 21  2  1  0
 28 26  1  0
 34 29  1  0
M  END
$$$$
