
     RDKit          3D

 43 46  0  0  0  0  0  0  0  0999 V2000
  -19.1205  -36.9259   -5.2939 C   0  0  0  0  0  0  0  0  0  0  0  0
  -19.6454  -37.2533   -6.6997 C   0  0  2  0  0  0  0  0  0  0  0  0
  -20.5826  -38.4108   -6.6932 C   0  0  0  0  0  0  0  0  0  0  0  0
  -21.9882  -37.9660   -7.0163 C   0  0  0  0  0  0  0  0  0  0  0  0
  -22.9940  -38.7022   -6.1573 C   0  0  0  0  0  0  0  0  0  0  0  0
  -23.5146  -39.8775   -6.9635 C   0  0  0  0  0  0  0  0  0  0  0  0
  -23.8363  -41.0482   -6.0486 C   0  0  0  0  0  0  0  0  0  0  0  0
  -24.2649  -42.2226   -6.8565 C   0  0  0  0  0  0  0  0  0  0  0  0
  -23.3211  -43.4059   -6.5765 C   0  0  0  0  0  0  0  0  0  0  0  0
  -22.3265  -43.3623   -7.5178 O   0  0  0  0  0  0  0  0  0  0  0  0
  -20.9656  -43.1153   -7.5885 C   0  0  0  0  0  0  0  0  0  0  0  0
  -20.2980  -44.1673   -8.2371 C   0  0  0  0  0  0  0  0  0  0  0  0
  -18.9335  -44.1888   -8.4492 C   0  0  0  0  0  0  0  0  0  0  0  0
  -18.2680  -43.0921   -7.9755 C   0  0  0  0  0  0  0  0  0  0  0  0
  -18.8969  -41.9964   -7.3127 C   0  0  0  0  0  0  0  0  0  0  0  0
  -20.2484  -42.0144   -7.1207 C   0  0  0  0  0  0  0  0  0  0  0  0
  -17.8765  -41.0053   -6.9390 C   0  0  0  0  0  0  0  0  0  0  0  0
  -16.7236  -41.4619   -6.4755 O   0  0  0  0  0  0  0  0  0  0  0  0
  -17.8561  -39.5906   -6.9666 N   0  0  0  0  0  0  0  0  0  0  0  0
  -18.0472  -38.6946   -8.0648 C   0  0  1  0  0  0  0  0  0  0  0  0
  -18.5461  -37.3531   -7.6840 C   0  0  0  0  0  0  0  0  0  0  0  0
  -16.7625  -38.5190   -8.8641 C   0  0  2  0  0  0  0  0  0  0  0  0
  -17.1668  -37.8952  -10.0691 O   0  0  0  0  0  0  0  0  0  0  0  0
  -16.2378  -39.8701   -9.3135 C   0  0  0  0  0  0  0  0  0  0  0  0
  -15.1042  -40.3453   -8.5920 N   0  0  0  0  0  0  0  0  0  0  0  0
  -14.2006  -41.0703   -9.4907 C   0  0  0  0  0  0  0  0  0  0  0  0
  -13.4908  -42.2432   -8.9699 C   0  0  0  0  0  0  0  0  0  0  0  0
  -14.7270  -42.5319   -9.6977 C   0  0  0  0  0  0  0  0  0  0  0  0
  -13.8730  -40.4214  -10.7833 C   0  0  0  0  0  0  0  0  0  0  0  0
  -13.8197  -39.0526  -10.8635 C   0  0  0  0  0  0  0  0  0  0  0  0
  -13.5220  -38.4128  -12.0736 C   0  0  0  0  0  0  0  0  0  0  0  0
  -13.2817  -39.1652  -13.1904 C   0  0  0  0  0  0  0  0  0  0  0  0
  -13.3423  -40.5358  -13.0790 C   0  0  0  0  0  0  0  0  0  0  0  0
  -13.6304  -41.1098  -11.9028 N   0  0  0  0  0  0  0  0  0  0  0  0
  -13.4505  -36.9319  -12.1629 C   0  0  0  0  0  0  0  0  0  0  0  0
  -13.2698  -36.3778  -10.7682 C   0  0  0  0  0  0  0  0  0  0  0  0
  -12.2672  -36.5487  -12.9947 C   0  0  0  0  0  0  0  0  0  0  0  0
  -14.7019  -36.3471  -12.7726 C   0  0  0  0  0  0  0  0  0  0  0  0
  -18.3259  -45.3301   -9.1177 C   0  0  0  0  0  0  0  0  0  0  0  0
  -18.3143  -45.2316  -10.4267 O   0  0  0  0  0  0  0  0  0  0  0  0
  -17.7700  -46.4774   -8.6278 N   0  0  0  0  0  0  0  0  0  0  0  0
  -17.6137  -46.8690   -7.2703 C   0  0  0  0  0  0  0  0  0  0  0  0
  -17.2556  -47.4395   -9.6296 C   0  0  0  0  0  0  0  0  0  0  0  0
  2  1  1  1
  2  3  1  0
  3  4  1  0
  4  5  1  0
  5  6  1  0
  6  7  1  0
  7  8  1  0
  8  9  1  0
  9 10  1  0
 10 11  1  0
 11 12  1  0
 12 13  2  0
 13 14  1  0
 14 15  2  0
 15 16  1  0
 15 17  1  0
 17 18  2  0
 17 19  1  0
 19 20  1  0
 20 21  1  1
 20 22  1  0
 22 23  1  6
 22 24  1  0
 24 25  1  0
 25 26  1  0
 26 27  1  0
 27 28  1  0
 26 29  1  0
 29 30  2  0
 30 31  1  0
 31 32  2  0
 32 33  1  0
 33 34  2  0
 31 35  1  0
 35 36  1  0
 35 37  1  0
 35 38  1  0
 13 39  1  0
 39 40  2  0
 39 41  1  0
 41 42  1  0
 41 43  1  0
 16 11  2  0
 21  2  1  0
 28 26  1  0
 34 29  1  0
M  END
$$$$
