
     RDKit          3D

 43 46  0  0  0  0  0  0  0  0999 V2000
  -18.3798  -37.6783   -4.6488 C   0  0  0  0  0  0  0  0  0  0  0  0
  -18.6090  -37.6956   -6.1674 C   0  0  2  0  0  0  0  0  0  0  0  0
  -19.7835  -38.5285   -6.5482 C   0  0  0  0  0  0  0  0  0  0  0  0
  -20.9040  -37.6672   -7.0780 C   0  0  0  0  0  0  0  0  0  0  0  0
  -22.2441  -38.1660   -6.5813 C   0  0  0  0  0  0  0  0  0  0  0  0
  -22.8340  -39.0530   -7.6619 C   0  0  0  0  0  0  0  0  0  0  0  0
  -23.6598  -40.1684   -7.0413 C   0  0  0  0  0  0  0  0  0  0  0  0
  -24.1630  -41.0808   -8.1042 C   0  0  0  0  0  0  0  0  0  0  0  0
  -23.6530  -42.5079   -7.8347 C   0  0  0  0  0  0  0  0  0  0  0  0
  -22.4807  -42.6568   -8.5281 O   0  0  0  0  0  0  0  0  0  0  0  0
  -21.1279  -42.8063   -8.2724 C   0  0  0  0  0  0  0  0  0  0  0  0
  -20.6141  -43.9342   -8.9336 C   0  0  0  0  0  0  0  0  0  0  0  0
  -19.2920  -44.3260   -8.8580 C   0  0  0  0  0  0  0  0  0  0  0  0
  -18.5051  -43.5217   -8.0809 C   0  0  0  0  0  0  0  0  0  0  0  0
  -18.9749  -42.3649   -7.3907 C   0  0  0  0  0  0  0  0  0  0  0  0
  -20.2901  -42.0124   -7.4895 C   0  0  0  0  0  0  0  0  0  0  0  0
  -17.8587  -41.7531   -6.6538 C   0  0  0  0  0  0  0  0  0  0  0  0
  -17.0119  -42.5673   -6.0431 O   0  0  0  0  0  0  0  0  0  0  0  0
  -17.4701  -40.4092   -6.4411 N   0  0  0  0  0  0  0  0  0  0  0  0
  -17.1491  -39.3889   -7.3906 C   0  0  1  0  0  0  0  0  0  0  0  0
  -17.3651  -38.0068   -6.9044 C   0  0  0  0  0  0  0  0  0  0  0  0
  -15.7067  -39.5103   -7.8649 C   0  0  2  0  0  0  0  0  0  0  0  0
  -15.0642  -38.3477   -7.3748 O   0  0  0  0  0  0  0  0  0  0  0  0
  -15.6375  -39.3546   -9.3727 C   0  0  0  0  0  0  0  0  0  0  0  0
  -15.0252  -40.4413  -10.0621 N   0  0  0  0  0  0  0  0  0  0  0  0
  -13.5672  -40.2864  -10.0565 C   0  0  0  0  0  0  0  0  0  0  0  0
  -12.7695  -41.2149   -9.2490 C   0  0  0  0  0  0  0  0  0  0  0  0
  -12.9005  -41.5686  -10.6628 C   0  0  0  0  0  0  0  0  0  0  0  0
  -13.0193  -39.0490  -10.6632 C   0  0  0  0  0  0  0  0  0  0  0  0
  -13.8320  -38.2458  -11.4228 C   0  0  0  0  0  0  0  0  0  0  0  0
  -13.3388  -37.0763  -12.0155 C   0  0  0  0  0  0  0  0  0  0  0  0
  -12.0274  -36.7322  -11.8337 C   0  0  0  0  0  0  0  0  0  0  0  0
  -11.2367  -37.5576  -11.0669 C   0  0  0  0  0  0  0  0  0  0  0  0
  -11.7467  -38.6680  -10.5166 N   0  0  0  0  0  0  0  0  0  0  0  0
  -14.2175  -36.1967  -12.8280 C   0  0  0  0  0  0  0  0  0  0  0  0
  -14.5684  -36.9224  -14.1068 C   0  0  0  0  0  0  0  0  0  0  0  0
  -15.4750  -35.9223  -12.0648 C   0  0  0  0  0  0  0  0  0  0  0  0
  -13.5418  -34.8896  -13.1667 C   0  0  0  0  0  0  0  0  0  0  0  0
  -18.8524  -45.5195   -9.5657 C   0  0  0  0  0  0  0  0  0  0  0  0
  -18.7321  -45.3514  -10.8621 O   0  0  0  0  0  0  0  0  0  0  0  0
  -18.5453  -46.7746   -9.1232 N   0  0  0  0  0  0  0  0  0  0  0  0
  -18.6729  -47.2992   -7.8082 C   0  0  0  0  0  0  0  0  0  0  0  0
  -18.0039  -47.7142  -10.1319 C   0  0  0  0  0  0  0  0  0  0  0  0
  2  1  1  1
  2  3  1  0
  3  4  1  0
  4  5  1  0
  5  6  1  0
  6  7  1  0
  7  8  1  0
  8  9  1  0
  9 10  1  0
 10 11  1  0
 11 12  1  0
 12 13  2  0
 13 14  1  0
 14 15  2  0
 15 16  1  0
 15 17  1  0
 17 18  2  0
 17 19  1  0
 19 20  1  0
 20 21  1  1
 20 22  1  0
 22 23  1  1
 22 24  1  0
 24 25  1  0
 25 26  1  0
 26 27  1  0
 27 28  1  0
 26 29  1  0
 29 30  2  0
 30 31  1  0
 31 32  2  0
 32 33  1  0
 33 34  2  0
 31 35  1  0
 35 36  1  0
 35 37  1  0
 35 38  1  0
 13 39  1  0
 39 40  2  0
 39 41  1  0
 41 42  1  0
 41 43  1  0
 16 11  2  0
 21  2  1  0
 28 26  1  0
 34 29  1  0
M  END
$$$$
