
     RDKit          3D

 43 46  0  0  0  0  0  0  0  0999 V2000
  -15.6367  -35.8845  -10.5734 C   0  0  0  0  0  0  0  0  0  0  0  0
  -14.5576  -36.7852   -9.9541 C   0  0  2  0  0  0  0  0  0  0  0  0
  -14.0253  -37.7757  -10.9306 C   0  0  0  0  0  0  0  0  0  0  0  0
  -12.5917  -37.4639  -11.2851 C   0  0  0  0  0  0  0  0  0  0  0  0
  -12.3425  -37.6930  -12.7604 C   0  0  0  0  0  0  0  0  0  0  0  0
  -11.7516  -39.0817  -12.9170 C   0  0  0  0  0  0  0  0  0  0  0  0
  -12.1956  -39.7028  -14.2316 C   0  0  0  0  0  0  0  0  0  0  0  0
  -11.6805  -41.0954  -14.3362 C   0  0  0  0  0  0  0  0  0  0  0  0
  -12.8644  -42.0662  -14.4954 C   0  0  0  0  0  0  0  0  0  0  0  0
  -13.2109  -42.4919  -13.2399 O   0  0  0  0  0  0  0  0  0  0  0  0
  -14.2599  -42.3609  -12.3454 C   0  0  0  0  0  0  0  0  0  0  0  0
  -14.7155  -43.6194  -11.9191 C   0  0  0  0  0  0  0  0  0  0  0  0
  -15.7537  -43.7917  -11.0247 C   0  0  0  0  0  0  0  0  0  0  0  0
  -16.3145  -42.6285  -10.5750 C   0  0  0  0  0  0  0  0  0  0  0  0
  -15.8892  -41.3263  -10.9732 C   0  0  0  0  0  0  0  0  0  0  0  0
  -14.8601  -41.1987  -11.8613 C   0  0  0  0  0  0  0  0  0  0  0  0
  -16.7188  -40.3172  -10.2974 C   0  0  0  0  0  0  0  0  0  0  0  0
  -18.0146  -40.5659  -10.1895 O   0  0  0  0  0  0  0  0  0  0  0  0
  -16.4190  -39.0675   -9.7051 N   0  0  0  0  0  0  0  0  0  0  0  0
  -15.5125  -38.7521   -8.6448 C   0  0  1  0  0  0  0  0  0  0  0  0
  -15.0006  -37.3625   -8.6666 C   0  0  0  0  0  0  0  0  0  0  0  0
  -16.1450  -39.0085   -7.2831 C   0  0  2  0  0  0  0  0  0  0  0  0
  -15.6584  -40.2787   -6.8899 O   0  0  0  0  0  0  0  0  0  0  0  0
  -17.6396  -39.2234   -7.4332 C   0  0  0  0  0  0  0  0  0  0  0  0
  -18.3323  -39.5015   -6.2190 N   0  0  0  0  0  0  0  0  0  0  0  0
  -19.7800  -39.4049   -6.4294 C   0  0  0  0  0  0  0  0  0  0  0  0
  -20.6731  -39.8817   -5.3683 C   0  0  0  0  0  0  0  0  0  0  0  0
  -20.4031  -38.4436   -5.3598 C   0  0  0  0  0  0  0  0  0  0  0  0
  -20.2406  -39.0681   -7.7982 C   0  0  0  0  0  0  0  0  0  0  0  0
  -20.9410  -37.9082   -8.0145 C   0  0  0  0  0  0  0  0  0  0  0  0
  -21.3963  -37.5696   -9.2953 C   0  0  0  0  0  0  0  0  0  0  0  0
  -21.1383  -38.4091  -10.3440 C   0  0  0  0  0  0  0  0  0  0  0  0
  -20.4337  -39.5651  -10.0962 C   0  0  0  0  0  0  0  0  0  0  0  0
  -20.0152  -39.8531   -8.8560 N   0  0  0  0  0  0  0  0  0  0  0  0
  -22.1437  -36.3091   -9.5371 C   0  0  0  0  0  0  0  0  0  0  0  0
  -23.5614  -36.6617   -9.9253 C   0  0  0  0  0  0  0  0  0  0  0  0
  -22.1714  -35.5070   -8.2742 C   0  0  0  0  0  0  0  0  0  0  0  0
  -21.5156  -35.4884  -10.6379 C   0  0  0  0  0  0  0  0  0  0  0  0
  -16.1682  -45.1363  -10.6519 C   0  0  0  0  0  0  0  0  0  0  0  0
  -16.2549  -45.9636  -11.6676 O   0  0  0  0  0  0  0  0  0  0  0  0
  -16.4810  -45.6857   -9.4413 N   0  0  0  0  0  0  0  0  0  0  0  0
  -16.7462  -47.0485   -9.1362 C   0  0  0  0  0  0  0  0  0  0  0  0
  -16.5635  -44.7507   -8.2956 C   0  0  0  0  0  0  0  0  0  0  0  0
  2  1  1  6
  2  3  1  0
  3  4  1  0
  4  5  1  0
  5  6  1  0
  6  7  1  0
  7  8  1  0
  8  9  1  0
  9 10  1  0
 10 11  1  0
 11 12  1  0
 12 13  2  0
 13 14  1  0
 14 15  2  0
 15 16  1  0
 15 17  1  0
 17 18  2  0
 17 19  1  0
 19 20  1  0
 20 21  1  1
 20 22  1  0
 22 23  1  6
 22 24  1  0
 24 25  1  0
 25 26  1  0
 26 27  1  0
 27 28  1  0
 26 29  1  0
 29 30  2  0
 30 31  1  0
 31 32  2  0
 32 33  1  0
 33 34  2  0
 31 35  1  0
 35 36  1  0
 35 37  1  0
 35 38  1  0
 13 39  1  0
 39 40  2  0
 39 41  1  0
 41 42  1  0
 41 43  1  0
 16 11  2  0
 21  2  1  0
 28 26  1  0
 34 29  1  0
M  END
$$$$
