
     RDKit          3D

 43 46  0  0  0  0  0  0  0  0999 V2000
  -19.0808  -39.0500   -4.2325 C   0  0  0  0  0  0  0  0  0  0  0  0
  -19.5228  -38.7393   -5.6703 C   0  0  2  0  0  0  0  0  0  0  0  0
  -20.3726  -39.8205   -6.2420 C   0  0  0  0  0  0  0  0  0  0  0  0
  -21.7926  -39.3448   -6.4306 C   0  0  0  0  0  0  0  0  0  0  0  0
  -22.7762  -40.4335   -6.0584 C   0  0  0  0  0  0  0  0  0  0  0  0
  -23.1766  -41.1480   -7.3358 C   0  0  0  0  0  0  0  0  0  0  0  0
  -23.4493  -42.6178   -7.0591 C   0  0  0  0  0  0  0  0  0  0  0  0
  -23.7579  -43.3264   -8.3312 C   0  0  0  0  0  0  0  0  0  0  0  0
  -22.7426  -44.4643   -8.5403 C   0  0  0  0  0  0  0  0  0  0  0  0
  -21.7163  -43.9581   -9.2938 O   0  0  0  0  0  0  0  0  0  0  0  0
  -20.3753  -43.6418   -9.1536 C   0  0  0  0  0  0  0  0  0  0  0  0
  -19.6070  -44.2607  -10.1536 C   0  0  0  0  0  0  0  0  0  0  0  0
  -18.2370  -44.1210  -10.2586 C   0  0  0  0  0  0  0  0  0  0  0  0
  -17.6731  -43.3214   -9.3033 C   0  0  0  0  0  0  0  0  0  0  0  0
  -18.4065  -42.6681   -8.2687 C   0  0  0  0  0  0  0  0  0  0  0  0
  -19.7599  -42.8335   -8.1982 C   0  0  0  0  0  0  0  0  0  0  0  0
  -17.4771  -41.9014   -7.4251 C   0  0  0  0  0  0  0  0  0  0  0  0
  -16.3138  -42.4623   -7.1337 O   0  0  0  0  0  0  0  0  0  0  0  0
  -17.5586  -40.6243   -6.8214 N   0  0  0  0  0  0  0  0  0  0  0  0
  -17.7696  -39.3421   -7.4190 C   0  0  1  0  0  0  0  0  0  0  0  0
  -18.3800  -38.3371   -6.5185 C   0  0  0  0  0  0  0  0  0  0  0  0
  -16.4696  -38.7678   -7.9670 C   0  0  2  0  0  0  0  0  0  0  0  0
  -16.8668  -37.6715   -8.7700 O   0  0  0  0  0  0  0  0  0  0  0  0
  -15.8470  -39.7353   -8.9565 C   0  0  0  0  0  0  0  0  0  0  0  0
  -14.6605  -40.3807   -8.5013 N   0  0  0  0  0  0  0  0  0  0  0  0
  -14.0030  -41.0730   -9.6139 C   0  0  0  0  0  0  0  0  0  0  0  0
  -13.4538  -42.4119   -9.3763 C   0  0  0  0  0  0  0  0  0  0  0  0
  -14.7950  -42.3802   -9.9605 C   0  0  0  0  0  0  0  0  0  0  0  0
  -13.7147  -40.2728  -10.8288 C   0  0  0  0  0  0  0  0  0  0  0  0
  -13.1285  -39.0382  -10.7072 C   0  0  0  0  0  0  0  0  0  0  0  0
  -12.8534  -38.2568  -11.8368 C   0  0  0  0  0  0  0  0  0  0  0  0
  -13.1750  -38.7331  -13.0781 C   0  0  0  0  0  0  0  0  0  0  0  0
  -13.7621  -39.9747  -13.1684 C   0  0  0  0  0  0  0  0  0  0  0  0
  -14.0089  -40.6916  -12.0633 N   0  0  0  0  0  0  0  0  0  0  0  0
  -12.2074  -36.9252  -11.7117 C   0  0  0  0  0  0  0  0  0  0  0  0
  -12.2110  -36.5281  -10.2532 C   0  0  0  0  0  0  0  0  0  0  0  0
  -10.7912  -37.0223  -12.1849 C   0  0  0  0  0  0  0  0  0  0  0  0
  -12.9331  -35.8734  -12.5158 C   0  0  0  0  0  0  0  0  0  0  0  0
  -17.5212  -44.8135  -11.3200 C   0  0  0  0  0  0  0  0  0  0  0  0
  -17.8643  -44.4290  -12.5275 O   0  0  0  0  0  0  0  0  0  0  0  0
  -16.5629  -45.7859  -11.2826 N   0  0  0  0  0  0  0  0  0  0  0  0
  -15.9137  -46.4233  -12.3748 C   0  0  0  0  0  0  0  0  0  0  0  0
  -16.1445  -46.2465   -9.9386 C   0  0  0  0  0  0  0  0  0  0  0  0
  2  1  1  1
  2  3  1  0
  3  4  1  0
  4  5  1  0
  5  6  1  0
  6  7  1  0
  7  8  1  0
  8  9  1  0
  9 10  1  0
 10 11  1  0
 11 12  1  0
 12 13  2  0
 13 14  1  0
 14 15  2  0
 15 16  1  0
 15 17  1  0
 17 18  2  0
 17 19  1  0
 19 20  1  0
 20 21  1  1
 20 22  1  0
 22 23  1  6
 22 24  1  0
 24 25  1  0
 25 26  1  0
 26 27  1  0
 27 28  1  0
 26 29  1  0
 29 30  2  0
 30 31  1  0
 31 32  2  0
 32 33  1  0
 33 34  2  0
 31 35  1  0
 35 36  1  0
 35 37  1  0
 35 38  1  0
 13 39  1  0
 39 40  2  0
 39 41  1  0
 41 42  1  0
 41 43  1  0
 16 11  2  0
 21  2  1  0
 28 26  1  0
 34 29  1  0
M  END
$$$$
