
     RDKit          3D

 43 46  0  0  0  0  0  0  0  0999 V2000
  -15.4996  -37.4112  -11.3035 C   0  0  0  0  0  0  0  0  0  0  0  0
  -15.0464  -38.1382  -10.0288 C   0  0  2  0  0  0  0  0  0  0  0  0
  -14.6878  -39.5597  -10.2909 C   0  0  0  0  0  0  0  0  0  0  0  0
  -13.2041  -39.7795  -10.1229 C   0  0  0  0  0  0  0  0  0  0  0  0
  -12.6770  -40.7164  -11.1886 C   0  0  0  0  0  0  0  0  0  0  0  0
  -12.6346  -42.1119  -10.5942 C   0  0  0  0  0  0  0  0  0  0  0  0
  -12.9130  -43.1541  -11.6654 C   0  0  0  0  0  0  0  0  0  0  0  0
  -12.9531  -44.5117  -11.0563 C   0  0  0  0  0  0  0  0  0  0  0  0
  -14.3271  -45.1510  -11.3259 C   0  0  0  0  0  0  0  0  0  0  0  0
  -15.1288  -44.8553  -10.2549 O   0  0  0  0  0  0  0  0  0  0  0  0
  -16.2480  -44.0920   -9.9676 C   0  0  0  0  0  0  0  0  0  0  0  0
  -17.2400  -44.8700   -9.3480 C   0  0  0  0  0  0  0  0  0  0  0  0
  -18.4639  -44.3692   -8.9497 C   0  0  0  0  0  0  0  0  0  0  0  0
  -18.6426  -43.0377   -9.2049 C   0  0  0  0  0  0  0  0  0  0  0  0
  -17.6685  -42.2024   -9.8283 C   0  0  0  0  0  0  0  0  0  0  0  0
  -16.4712  -42.7367  -10.2092 C   0  0  0  0  0  0  0  0  0  0  0  0
  -18.2039  -40.8376   -9.9464 C   0  0  0  0  0  0  0  0  0  0  0  0
  -19.4761  -40.7092  -10.2895 O   0  0  0  0  0  0  0  0  0  0  0  0
  -17.6244  -39.5595   -9.7649 N   0  0  0  0  0  0  0  0  0  0  0  0
  -16.9831  -39.0012   -8.6148 C   0  0  1  0  0  0  0  0  0  0  0  0
  -15.9994  -37.9359   -8.9161 C   0  0  0  0  0  0  0  0  0  0  0  0
  -18.0031  -38.4468   -7.6287 C   0  0  2  0  0  0  0  0  0  0  0  0
  -17.7383  -39.1233   -6.4134 O   0  0  0  0  0  0  0  0  0  0  0  0
  -19.3986  -38.9094   -8.0047 C   0  0  0  0  0  0  0  0  0  0  0  0
  -20.2286  -37.9068   -8.5853 N   0  0  0  0  0  0  0  0  0  0  0  0
  -21.5812  -37.9835   -8.0248 C   0  0  0  0  0  0  0  0  0  0  0  0
  -22.4755  -36.8344   -8.1997 C   0  0  0  0  0  0  0  0  0  0  0  0
  -22.6346  -37.9066   -9.1827 C   0  0  0  0  0  0  0  0  0  0  0  0
  -21.8657  -39.1105   -7.1039 C   0  0  0  0  0  0  0  0  0  0  0  0
  -20.8533  -39.9600   -6.7348 C   0  0  0  0  0  0  0  0  0  0  0  0
  -21.0953  -41.0383   -5.8739 C   0  0  0  0  0  0  0  0  0  0  0  0
  -22.3599  -41.2459   -5.3958 C   0  0  0  0  0  0  0  0  0  0  0  0
  -23.3547  -40.3773   -5.7837 C   0  0  0  0  0  0  0  0  0  0  0  0
  -23.0824  -39.3572   -6.6091 N   0  0  0  0  0  0  0  0  0  0  0  0
  -20.0004  -41.9531   -5.4612 C   0  0  0  0  0  0  0  0  0  0  0  0
  -20.2238  -43.2938   -6.1227 C   0  0  0  0  0  0  0  0  0  0  0  0
  -18.6935  -41.3933   -5.9276 C   0  0  0  0  0  0  0  0  0  0  0  0
  -19.9602  -42.1376   -3.9632 C   0  0  0  0  0  0  0  0  0  0  0  0
  -19.4376  -45.2550   -8.3286 C   0  0  0  0  0  0  0  0  0  0  0  0
  -19.1546  -45.5624   -7.0841 O   0  0  0  0  0  0  0  0  0  0  0  0
  -20.5852  -45.8194   -8.8079 N   0  0  0  0  0  0  0  0  0  0  0  0
  -21.4777  -46.7008   -8.1391 C   0  0  0  0  0  0  0  0  0  0  0  0
  -20.9521  -45.4821  -10.2026 C   0  0  0  0  0  0  0  0  0  0  0  0
  2  1  1  6
  2  3  1  0
  3  4  1  0
  4  5  1  0
  5  6  1  0
  6  7  1  0
  7  8  1  0
  8  9  1  0
  9 10  1  0
 10 11  1  0
 11 12  1  0
 12 13  2  0
 13 14  1  0
 14 15  2  0
 15 16  1  0
 15 17  1  0
 17 18  2  0
 17 19  1  0
 19 20  1  0
 20 21  1  6
 20 22  1  0
 22 23  1  1
 22 24  1  0
 24 25  1  0
 25 26  1  0
 26 27  1  0
 27 28  1  0
 26 29  1  0
 29 30  2  0
 30 31  1  0
 31 32  2  0
 32 33  1  0
 33 34  2  0
 31 35  1  0
 35 36  1  0
 35 37  1  0
 35 38  1  0
 13 39  1  0
 39 40  2  0
 39 41  1  0
 41 42  1  0
 41 43  1  0
 16 11  2  0
 21  2  1  0
 28 26  1  0
 34 29  1  0
M  END
$$$$
