
     RDKit          3D

 43 46  0  0  0  0  0  0  0  0999 V2000
  -16.3681  -40.2214  -11.6276 C   0  0  0  0  0  0  0  0  0  0  0  0
  -15.8226  -41.0393  -10.4476 C   0  0  2  0  0  0  0  0  0  0  0  0
  -16.5378  -42.3355  -10.2850 C   0  0  0  0  0  0  0  0  0  0  0  0
  -15.6318  -43.4950  -10.6208 C   0  0  0  0  0  0  0  0  0  0  0  0
  -16.3877  -44.5624  -11.3828 C   0  0  0  0  0  0  0  0  0  0  0  0
  -16.8390  -45.6097  -10.3819 C   0  0  0  0  0  0  0  0  0  0  0  0
  -18.1688  -46.2119  -10.8065 C   0  0  0  0  0  0  0  0  0  0  0  0
  -18.6434  -47.1753   -9.7759 C   0  0  0  0  0  0  0  0  0  0  0  0
  -20.0197  -46.7259   -9.2532 C   0  0  0  0  0  0  0  0  0  0  0  0
  -19.7987  -45.9464   -8.1482 O   0  0  0  0  0  0  0  0  0  0  0  0
  -19.9261  -44.6227   -7.7616 C   0  0  0  0  0  0  0  0  0  0  0  0
  -20.6714  -44.5163   -6.5756 C   0  0  0  0  0  0  0  0  0  0  0  0
  -20.9557  -43.3137   -5.9590 C   0  0  0  0  0  0  0  0  0  0  0  0
  -20.4489  -42.2151   -6.5965 C   0  0  0  0  0  0  0  0  0  0  0  0
  -19.6846  -42.2674   -7.8000 C   0  0  0  0  0  0  0  0  0  0  0  0
  -19.4270  -43.4764   -8.3795 C   0  0  0  0  0  0  0  0  0  0  0  0
  -19.3135  -40.9011   -8.1987 C   0  0  0  0  0  0  0  0  0  0  0  0
  -20.2288  -39.9550   -8.0582 O   0  0  0  0  0  0  0  0  0  0  0  0
  -18.1262  -40.3449   -8.7308 N   0  0  0  0  0  0  0  0  0  0  0  0
  -16.7986  -40.3433   -8.1987 C   0  0  1  0  0  0  0  0  0  0  0  0
  -15.7287  -40.2260   -9.2160 C   0  0  0  0  0  0  0  0  0  0  0  0
  -16.6143  -39.2273   -7.1784 C   0  0  2  0  0  0  0  0  0  0  0  0
  -17.2935  -39.6778   -6.0207 O   0  0  0  0  0  0  0  0  0  0  0  0
  -17.3959  -37.9976   -7.6019 C   0  0  0  0  0  0  0  0  0  0  0  0
  -16.6280  -36.9945   -8.2617 N   0  0  0  0  0  0  0  0  0  0  0  0
  -17.5041  -36.1281   -9.0563 C   0  0  0  0  0  0  0  0  0  0  0  0
  -18.9477  -36.1729   -8.8016 C   0  0  0  0  0  0  0  0  0  0  0  0
  -18.2237  -35.1031   -8.1142 C   0  0  0  0  0  0  0  0  0  0  0  0
  -16.8999  -35.4558  -10.2320 C   0  0  0  0  0  0  0  0  0  0  0  0
  -15.7093  -35.9117  -10.7393 C   0  0  0  0  0  0  0  0  0  0  0  0
  -15.1112  -35.2901  -11.8430 C   0  0  0  0  0  0  0  0  0  0  0  0
  -15.7242  -34.2128  -12.4216 C   0  0  0  0  0  0  0  0  0  0  0  0
  -16.9175  -33.7784  -11.8906 C   0  0  0  0  0  0  0  0  0  0  0  0
  -17.4574  -34.4007  -10.8336 N   0  0  0  0  0  0  0  0  0  0  0  0
  -13.8290  -35.7875  -12.4039 C   0  0  0  0  0  0  0  0  0  0  0  0
  -13.4438  -34.9056  -13.5695 C   0  0  0  0  0  0  0  0  0  0  0  0
  -12.7673  -35.6953  -11.3536 C   0  0  0  0  0  0  0  0  0  0  0  0
  -13.9424  -37.2168  -12.8773 C   0  0  0  0  0  0  0  0  0  0  0  0
  -21.7495  -43.2991   -4.7391 C   0  0  0  0  0  0  0  0  0  0  0  0
  -21.3162  -44.1262   -3.8163 O   0  0  0  0  0  0  0  0  0  0  0  0
  -22.8577  -42.5826   -4.3870 N   0  0  0  0  0  0  0  0  0  0  0  0
  -23.5044  -42.5279   -3.1224 C   0  0  0  0  0  0  0  0  0  0  0  0
  -23.4758  -41.7601   -5.4525 C   0  0  0  0  0  0  0  0  0  0  0  0
  2  1  1  6
  2  3  1  0
  3  4  1  0
  4  5  1  0
  5  6  1  0
  6  7  1  0
  7  8  1  0
  8  9  1  0
  9 10  1  0
 10 11  1  0
 11 12  1  0
 12 13  2  0
 13 14  1  0
 14 15  2  0
 15 16  1  0
 15 17  1  0
 17 18  2  0
 17 19  1  0
 19 20  1  0
 20 21  1  6
 20 22  1  0
 22 23  1  1
 22 24  1  0
 24 25  1  0
 25 26  1  0
 26 27  1  0
 27 28  1  0
 26 29  1  0
 29 30  2  0
 30 31  1  0
 31 32  2  0
 32 33  1  0
 33 34  2  0
 31 35  1  0
 35 36  1  0
 35 37  1  0
 35 38  1  0
 13 39  1  0
 39 40  2  0
 39 41  1  0
 41 42  1  0
 41 43  1  0
 16 11  2  0
 21  2  1  0
 28 26  1  0
 34 29  1  0
M  END
$$$$
