
     RDKit          3D

 36 37  0  0  0  0  0  0  0  0999 V2000
  -12.7605  -34.9686  -13.3256 C   0  0  0  0  0  0  0  0  0  0  0  0
  -11.9334  -35.9816  -12.5317 C   0  0  0  0  0  0  0  0  0  0  0  0
  -12.7861  -36.5357  -11.4026 C   0  0  0  0  0  0  0  0  0  0  0  0
  -11.9240  -37.5263  -10.6636 C   0  0  0  0  0  0  0  0  0  0  0  0
  -12.5294  -38.0954   -9.5048 N   0  0  0  0  0  0  0  0  0  0  0  0
  -13.3020  -39.2828   -9.5647 C   0  0  0  0  0  0  0  0  0  0  0  0
  -13.5491  -39.7552  -10.7024 O   0  0  0  0  0  0  0  0  0  0  0  0
  -13.8056  -39.9494   -8.2982 C   0  0  2  0  0  0  0  0  0  0  0  0
  -13.1148  -41.3191   -8.2004 C   0  0  0  0  0  0  0  0  0  0  0  0
  -15.2537  -40.1099   -8.4629 C   0  0  0  0  0  0  0  0  0  0  0  0
  -16.1870  -39.1402   -7.7835 C   0  0  2  0  0  0  0  0  0  0  0  0
  -16.6534  -40.0351   -6.6826 O   0  0  0  0  0  0  0  0  0  0  0  0
  -17.4922  -38.9280   -8.4751 C   0  0  2  0  0  0  0  0  0  0  0  0
  -18.3401  -37.7634   -8.1968 C   0  0  0  0  0  0  0  0  0  0  0  0
  -19.8123  -37.9688   -8.1550 C   0  0  0  0  0  0  0  0  0  0  0  0
  -20.6213  -36.9669   -7.6871 C   0  0  0  0  0  0  0  0  0  0  0  0
  -21.9744  -37.1344   -7.6118 C   0  0  0  0  0  0  0  0  0  0  0  0
  -22.5801  -38.3223   -8.0047 C   0  0  0  0  0  0  0  0  0  0  0  0
  -21.7398  -39.3112   -8.4699 C   0  0  0  0  0  0  0  0  0  0  0  0
  -20.3801  -39.1424   -8.5450 C   0  0  0  0  0  0  0  0  0  0  0  0
  -18.3306  -40.1508   -8.2955 N   0  0  0  0  0  0  0  0  0  0  0  0
  -17.9615  -41.4141   -8.7736 C   0  0  0  0  0  0  0  0  0  0  0  0
  -17.0563  -41.4568   -9.6420 O   0  0  0  0  0  0  0  0  0  0  0  0
  -18.5454  -42.6747   -8.3400 C   0  0  0  0  0  0  0  0  0  0  0  0
  -19.4461  -42.7565   -7.3084 C   0  0  0  0  0  0  0  0  0  0  0  0
  -20.0085  -43.9560   -6.8928 C   0  0  0  0  0  0  0  0  0  0  0  0
  -20.9595  -43.9988   -5.8463 N   0  0  0  0  0  0  0  0  0  0  0  0
  -21.9226  -42.9744   -5.6149 C   0  0  0  0  0  0  0  0  0  0  0  0
  -22.8320  -43.1535   -4.4458 C   0  0  0  0  0  0  0  0  0  0  0  0
  -23.6763  -41.9901   -4.0553 C   0  0  0  0  0  0  0  0  0  0  0  0
  -22.9450  -41.3002   -2.8944 C   0  0  0  0  0  0  0  0  0  0  0  0
  -19.6174  -45.0505   -7.5650 N   0  0  0  0  0  0  0  0  0  0  0  0
  -18.7492  -45.0685   -8.5780 C   0  0  0  0  0  0  0  0  0  0  0  0
  -18.2090  -43.8538   -8.9652 C   0  0  0  0  0  0  0  0  0  0  0  0
  -18.4376  -46.2674   -9.1781 O   0  0  0  0  0  0  0  0  0  0  0  0
  -19.0907  -47.4387   -8.7465 C   0  0  0  0  0  0  0  0  0  0  0  0
  1  2  1  0
  2  3  1  0
  3  4  1  0
  4  5  1  0
  5  6  1  0
  6  7  2  0
  6  8  1  0
  8  9  1  6
  8 10  1  0
 10 11  1  0
 11 12  1  1
 11 13  1  0
 13 14  1  1
 14 15  1  0
 15 16  2  0
 16 17  1  0
 17 18  2  0
 18 19  1  0
 19 20  2  0
 13 21  1  0
 21 22  1  0
 22 23  2  0
 22 24  1  0
 24 25  2  0
 25 26  1  0
 26 27  1  0
 27 28  1  0
 28 29  1  0
 29 30  1  0
 30 31  1  0
 26 32  2  0
 32 33  1  0
 33 34  2  0
 33 35  1  0
 35 36  1  0
 20 15  1  0
 34 24  1  0
M  END
$$$$
