
     RDKit          3D

 36 37  0  0  0  0  0  0  0  0999 V2000
  -23.4977  -42.2348   -4.3128 C   0  0  0  0  0  0  0  0  0  0  0  0
  -22.4658  -42.7283   -5.3288 C   0  0  0  0  0  0  0  0  0  0  0  0
  -21.2404  -41.8324   -5.2599 C   0  0  0  0  0  0  0  0  0  0  0  0
  -21.4619  -40.7290   -6.2619 C   0  0  0  0  0  0  0  0  0  0  0  0
  -20.4016  -39.7793   -6.3469 N   0  0  0  0  0  0  0  0  0  0  0  0
  -19.6970  -39.5429   -7.5543 C   0  0  0  0  0  0  0  0  0  0  0  0
  -19.7905  -40.4110   -8.4579 O   0  0  0  0  0  0  0  0  0  0  0  0
  -18.8655  -38.2873   -7.7383 C   0  0  2  0  0  0  0  0  0  0  0  0
  -19.6164  -37.3870   -8.7325 C   0  0  0  0  0  0  0  0  0  0  0  0
  -17.5814  -38.7197   -8.2985 C   0  0  0  0  0  0  0  0  0  0  0  0
  -16.7688  -39.7589   -7.5684 C   0  0  2  0  0  0  0  0  0  0  0  0
  -15.6363  -38.8809   -7.1472 O   0  0  0  0  0  0  0  0  0  0  0  0
  -16.0141  -40.7022   -8.4444 C   0  0  2  0  0  0  0  0  0  0  0  0
  -15.1938  -41.7875   -7.8947 C   0  0  0  0  0  0  0  0  0  0  0  0
  -14.3201  -42.5422   -8.8319 C   0  0  0  0  0  0  0  0  0  0  0  0
  -12.9717  -42.6042   -8.5970 C   0  0  0  0  0  0  0  0  0  0  0  0
  -12.1396  -43.2672   -9.4529 C   0  0  0  0  0  0  0  0  0  0  0  0
  -12.6262  -43.9015  -10.5901 C   0  0  0  0  0  0  0  0  0  0  0  0
  -13.9864  -43.8206  -10.7993 C   0  0  0  0  0  0  0  0  0  0  0  0
  -14.8220  -43.1539   -9.9391 C   0  0  0  0  0  0  0  0  0  0  0  0
  -15.1514  -39.9072   -9.3686 N   0  0  0  0  0  0  0  0  0  0  0  0
  -15.3767  -39.8202  -10.7479 C   0  0  0  0  0  0  0  0  0  0  0  0
  -16.4080  -40.3772  -11.1969 O   0  0  0  0  0  0  0  0  0  0  0  0
  -14.5093  -39.1349  -11.6945 C   0  0  0  0  0  0  0  0  0  0  0  0
  -14.7375  -37.8469  -12.1080 C   0  0  0  0  0  0  0  0  0  0  0  0
  -13.9117  -37.1873  -13.0084 C   0  0  0  0  0  0  0  0  0  0  0  0
  -14.1591  -35.8470  -13.3876 N   0  0  0  0  0  0  0  0  0  0  0  0
  -13.1279  -34.8930  -13.6268 C   0  0  0  0  0  0  0  0  0  0  0  0
  -12.5349  -34.2251  -12.4317 C   0  0  0  0  0  0  0  0  0  0  0  0
  -11.4020  -33.2872  -12.6679 C   0  0  0  0  0  0  0  0  0  0  0  0
  -10.8752  -32.8932  -11.2803 C   0  0  0  0  0  0  0  0  0  0  0  0
  -12.8601  -37.8886  -13.4611 N   0  0  0  0  0  0  0  0  0  0  0  0
  -12.5588  -39.1421  -13.1171 C   0  0  0  0  0  0  0  0  0  0  0  0
  -13.4046  -39.7680  -12.2170 C   0  0  0  0  0  0  0  0  0  0  0  0
  -11.4457  -39.7418  -13.6609 O   0  0  0  0  0  0  0  0  0  0  0  0
  -10.9410  -40.9150  -13.0661 C   0  0  0  0  0  0  0  0  0  0  0  0
  1  2  1  0
  2  3  1  0
  3  4  1  0
  4  5  1  0
  5  6  1  0
  6  7  2  0
  6  8  1  0
  8  9  1  6
  8 10  1  0
 10 11  1  0
 11 12  1  1
 11 13  1  0
 13 14  1  1
 14 15  1  0
 15 16  2  0
 16 17  1  0
 17 18  2  0
 18 19  1  0
 19 20  2  0
 13 21  1  0
 21 22  1  0
 22 23  2  0
 22 24  1  0
 24 25  2  0
 25 26  1  0
 26 27  1  0
 27 28  1  0
 28 29  1  0
 29 30  1  0
 30 31  1  0
 26 32  2  0
 32 33  1  0
 33 34  2  0
 33 35  1  0
 35 36  1  0
 20 15  1  0
 34 24  1  0
M  END
$$$$
