
     RDKit          3D

 36 37  0  0  0  0  0  0  0  0999 V2000
  -10.5160  -38.0593  -14.5609 C   0  0  0  0  0  0  0  0  0  0  0  0
  -11.7779  -38.0727  -13.6960 C   0  0  0  0  0  0  0  0  0  0  0  0
  -12.0720  -36.6554  -13.2334 C   0  0  0  0  0  0  0  0  0  0  0  0
  -13.3789  -36.7135  -12.4855 C   0  0  0  0  0  0  0  0  0  0  0  0
  -13.2946  -37.2854  -11.1819 N   0  0  0  0  0  0  0  0  0  0  0  0
  -13.8083  -38.5743  -10.8902 C   0  0  0  0  0  0  0  0  0  0  0  0
  -14.2993  -39.2304  -11.8427 O   0  0  0  0  0  0  0  0  0  0  0  0
  -13.7619  -39.1307   -9.4794 C   0  0  2  0  0  0  0  0  0  0  0  0
  -12.7166  -40.2576   -9.4698 C   0  0  0  0  0  0  0  0  0  0  0  0
  -15.0996  -39.6621   -9.2000 C   0  0  0  0  0  0  0  0  0  0  0  0
  -16.0491  -38.8621   -8.3448 C   0  0  2  0  0  0  0  0  0  0  0  0
  -15.9921  -39.7117   -7.1178 O   0  0  0  0  0  0  0  0  0  0  0  0
  -17.4945  -39.0325   -8.6747 C   0  0  2  0  0  0  0  0  0  0  0  0
  -18.4496  -37.9223   -8.5840 C   0  0  0  0  0  0  0  0  0  0  0  0
  -19.8208  -38.2227   -8.0936 C   0  0  0  0  0  0  0  0  0  0  0  0
  -20.1400  -37.9736   -6.7846 C   0  0  0  0  0  0  0  0  0  0  0  0
  -21.3824  -38.2629   -6.2975 C   0  0  0  0  0  0  0  0  0  0  0  0
  -22.3664  -38.8188   -7.1068 C   0  0  0  0  0  0  0  0  0  0  0  0
  -22.0146  -39.0584   -8.4182 C   0  0  0  0  0  0  0  0  0  0  0  0
  -20.7659  -38.7679   -8.9070 C   0  0  0  0  0  0  0  0  0  0  0  0
  -18.0377  -40.1634   -7.8646 N   0  0  0  0  0  0  0  0  0  0  0  0
  -18.2484  -41.4481   -8.3804 C   0  0  0  0  0  0  0  0  0  0  0  0
  -17.9555  -41.6372   -9.5862 O   0  0  0  0  0  0  0  0  0  0  0  0
  -18.7778  -42.5746   -7.6264 C   0  0  0  0  0  0  0  0  0  0  0  0
  -19.5211  -42.4161   -6.4842 C   0  0  0  0  0  0  0  0  0  0  0  0
  -20.0311  -43.4871   -5.7627 C   0  0  0  0  0  0  0  0  0  0  0  0
  -20.8216  -43.2856   -4.6068 N   0  0  0  0  0  0  0  0  0  0  0  0
  -21.1383  -41.9983   -4.0839 C   0  0  0  0  0  0  0  0  0  0  0  0
  -22.5807  -41.6185   -4.0511 C   0  0  0  0  0  0  0  0  0  0  0  0
  -23.3334  -41.6915   -5.3345 C   0  0  0  0  0  0  0  0  0  0  0  0
  -24.7673  -41.2432   -5.0166 C   0  0  0  0  0  0  0  0  0  0  0  0
  -19.7536  -44.7071   -6.2499 N   0  0  0  0  0  0  0  0  0  0  0  0
  -19.0410  -44.9584   -7.3496 C   0  0  0  0  0  0  0  0  0  0  0  0
  -18.5486  -43.8660   -8.0435 C   0  0  0  0  0  0  0  0  0  0  0  0
  -18.8329  -46.2633   -7.7350 O   0  0  0  0  0  0  0  0  0  0  0  0
  -18.8766  -47.2798   -6.7605 C   0  0  0  0  0  0  0  0  0  0  0  0
  1  2  1  0
  2  3  1  0
  3  4  1  0
  4  5  1  0
  5  6  1  0
  6  7  2  0
  6  8  1  0
  8  9  1  6
  8 10  1  0
 10 11  1  0
 11 12  1  1
 11 13  1  0
 13 14  1  1
 14 15  1  0
 15 16  2  0
 16 17  1  0
 17 18  2  0
 18 19  1  0
 19 20  2  0
 13 21  1  0
 21 22  1  0
 22 23  2  0
 22 24  1  0
 24 25  2  0
 25 26  1  0
 26 27  1  0
 27 28  1  0
 28 29  1  0
 29 30  1  0
 30 31  1  0
 26 32  2  0
 32 33  1  0
 33 34  2  0
 33 35  1  0
 35 36  1  0
 20 15  1  0
 34 24  1  0
M  END
$$$$
