
     RDKit          3D

 36 37  0  0  0  0  0  0  0  0999 V2000
  -12.6272  -33.8742  -10.7346 C   0  0  0  0  0  0  0  0  0  0  0  0
  -12.5214  -35.2315  -11.4324 C   0  0  0  0  0  0  0  0  0  0  0  0
  -13.4856  -36.2014  -10.7702 C   0  0  0  0  0  0  0  0  0  0  0  0
  -12.9466  -37.5840  -11.0318 C   0  0  0  0  0  0  0  0  0  0  0  0
  -12.9579  -38.4521   -9.9005 N   0  0  0  0  0  0  0  0  0  0  0  0
  -14.0181  -39.3624   -9.6601 C   0  0  0  0  0  0  0  0  0  0  0  0
  -14.9238  -39.4374  -10.5277 O   0  0  0  0  0  0  0  0  0  0  0  0
  -14.0482  -40.2085   -8.4012 C   0  0  2  0  0  0  0  0  0  0  0  0
  -13.3702  -41.5466   -8.7369 C   0  0  0  0  0  0  0  0  0  0  0  0
  -15.4627  -40.4122   -8.0733 C   0  0  0  0  0  0  0  0  0  0  0  0
  -16.2474  -39.2845   -7.4523 C   0  0  2  0  0  0  0  0  0  0  0  0
  -16.5570  -39.9395   -6.1462 O   0  0  0  0  0  0  0  0  0  0  0  0
  -17.6399  -39.1253   -7.9646 C   0  0  2  0  0  0  0  0  0  0  0  0
  -18.3712  -37.8585   -7.8502 C   0  0  0  0  0  0  0  0  0  0  0  0
  -19.8367  -37.8761   -8.1017 C   0  0  0  0  0  0  0  0  0  0  0  0
  -20.5511  -36.7101   -8.0155 C   0  0  0  0  0  0  0  0  0  0  0  0
  -21.9019  -36.6978   -8.2151 C   0  0  0  0  0  0  0  0  0  0  0  0
  -22.6008  -37.8622   -8.5116 C   0  0  0  0  0  0  0  0  0  0  0  0
  -21.8545  -39.0187   -8.5907 C   0  0  0  0  0  0  0  0  0  0  0  0
  -20.4973  -39.0305   -8.3896 C   0  0  0  0  0  0  0  0  0  0  0  0
  -18.4928  -40.1953   -7.3661 N   0  0  0  0  0  0  0  0  0  0  0  0
  -18.9526  -41.3054   -8.0852 C   0  0  0  0  0  0  0  0  0  0  0  0
  -18.3378  -41.6010   -9.1389 O   0  0  0  0  0  0  0  0  0  0  0  0
  -20.0833  -42.1382   -7.7034 C   0  0  0  0  0  0  0  0  0  0  0  0
  -20.3167  -42.5188   -6.4062 C   0  0  0  0  0  0  0  0  0  0  0  0
  -21.3955  -43.3106   -6.0359 C   0  0  0  0  0  0  0  0  0  0  0  0
  -21.6239  -43.6568   -4.6834 N   0  0  0  0  0  0  0  0  0  0  0  0
  -21.1544  -42.8834   -3.5824 C   0  0  0  0  0  0  0  0  0  0  0  0
  -22.0246  -41.7609   -3.1253 C   0  0  0  0  0  0  0  0  0  0  0  0
  -21.7048  -41.1445   -1.8075 C   0  0  0  0  0  0  0  0  0  0  0  0
  -20.2535  -40.6520   -1.9055 C   0  0  0  0  0  0  0  0  0  0  0  0
  -22.2121  -43.6909   -7.0315 N   0  0  0  0  0  0  0  0  0  0  0  0
  -22.0656  -43.3712   -8.3187 C   0  0  0  0  0  0  0  0  0  0  0  0
  -20.9786  -42.5802   -8.6506 C   0  0  0  0  0  0  0  0  0  0  0  0
  -22.9816  -43.8323   -9.2367 O   0  0  0  0  0  0  0  0  0  0  0  0
  -22.6773  -44.9851   -9.9872 C   0  0  0  0  0  0  0  0  0  0  0  0
  1  2  1  0
  2  3  1  0
  3  4  1  0
  4  5  1  0
  5  6  1  0
  6  7  2  0
  6  8  1  0
  8  9  1  6
  8 10  1  0
 10 11  1  0
 11 12  1  1
 11 13  1  0
 13 14  1  1
 14 15  1  0
 15 16  2  0
 16 17  1  0
 17 18  2  0
 18 19  1  0
 19 20  2  0
 13 21  1  0
 21 22  1  0
 22 23  2  0
 22 24  1  0
 24 25  2  0
 25 26  1  0
 26 27  1  0
 27 28  1  0
 28 29  1  0
 29 30  1  0
 30 31  1  0
 26 32  2  0
 32 33  1  0
 33 34  2  0
 33 35  1  0
 35 36  1  0
 20 15  1  0
 34 24  1  0
M  END
$$$$
