
     RDKit          3D

 36 37  0  0  0  0  0  0  0  0999 V2000
  -12.9974  -35.7026  -13.2721 C   0  0  0  0  0  0  0  0  0  0  0  0
  -11.8029  -35.4634  -12.3467 C   0  0  0  0  0  0  0  0  0  0  0  0
  -12.1958  -35.8425  -10.9286 C   0  0  0  0  0  0  0  0  0  0  0  0
  -11.6502  -37.2268  -10.6905 C   0  0  0  0  0  0  0  0  0  0  0  0
  -12.0603  -37.8261   -9.4633 N   0  0  0  0  0  0  0  0  0  0  0  0
  -12.9232  -38.9504   -9.4255 C   0  0  0  0  0  0  0  0  0  0  0  0
  -13.2085  -39.4977  -10.5199 O   0  0  0  0  0  0  0  0  0  0  0  0
  -13.4753  -39.4650   -8.1093 C   0  0  2  0  0  0  0  0  0  0  0  0
  -12.4861  -40.5169   -7.5822 C   0  0  0  0  0  0  0  0  0  0  0  0
  -14.7708  -40.0796   -8.4159 C   0  0  0  0  0  0  0  0  0  0  0  0
  -16.0263  -39.4929   -7.8222 C   0  0  2  0  0  0  0  0  0  0  0  0
  -16.1715  -40.4321   -6.6700 O   0  0  0  0  0  0  0  0  0  0  0  0
  -17.2859  -39.8261   -8.5498 C   0  0  2  0  0  0  0  0  0  0  0  0
  -18.0997  -38.7979   -9.2079 C   0  0  0  0  0  0  0  0  0  0  0  0
  -19.4501  -38.5181   -8.6518 C   0  0  0  0  0  0  0  0  0  0  0  0
  -20.1972  -37.4952   -9.1739 C   0  0  0  0  0  0  0  0  0  0  0  0
  -21.4298  -37.1965   -8.6678 C   0  0  0  0  0  0  0  0  0  0  0  0
  -21.9712  -37.9151   -7.6081 C   0  0  0  0  0  0  0  0  0  0  0  0
  -21.1953  -38.9372   -7.1041 C   0  0  0  0  0  0  0  0  0  0  0  0
  -19.9566  -39.2365   -7.6129 C   0  0  0  0  0  0  0  0  0  0  0  0
  -18.1801  -40.5894   -7.6288 N   0  0  0  0  0  0  0  0  0  0  0  0
  -18.5959  -41.9039   -7.8739 C   0  0  0  0  0  0  0  0  0  0  0  0
  -18.2462  -42.4227   -8.9621 O   0  0  0  0  0  0  0  0  0  0  0  0
  -19.3980  -42.7096   -6.9653 C   0  0  0  0  0  0  0  0  0  0  0  0
  -20.6494  -42.3308   -6.5498 C   0  0  0  0  0  0  0  0  0  0  0  0
  -21.4202  -43.0969   -5.6857 C   0  0  0  0  0  0  0  0  0  0  0  0
  -22.7206  -42.6910   -5.3039 N   0  0  0  0  0  0  0  0  0  0  0  0
  -23.6858  -42.1783   -6.2182 C   0  0  0  0  0  0  0  0  0  0  0  0
  -23.7021  -40.7010   -6.4257 C   0  0  0  0  0  0  0  0  0  0  0  0
  -24.3866  -39.8757   -5.3916 C   0  0  0  0  0  0  0  0  0  0  0  0
  -25.8376  -39.7102   -5.8665 C   0  0  0  0  0  0  0  0  0  0  0  0
  -20.8666  -44.2476   -5.2707 N   0  0  0  0  0  0  0  0  0  0  0  0
  -19.6597  -44.6969   -5.6199 C   0  0  0  0  0  0  0  0  0  0  0  0
  -18.9198  -43.9066   -6.4831 C   0  0  0  0  0  0  0  0  0  0  0  0
  -19.2159  -45.8987   -5.1168 O   0  0  0  0  0  0  0  0  0  0  0  0
  -19.8267  -47.0908   -5.5535 C   0  0  0  0  0  0  0  0  0  0  0  0
  1  2  1  0
  2  3  1  0
  3  4  1  0
  4  5  1  0
  5  6  1  0
  6  7  2  0
  6  8  1  0
  8  9  1  6
  8 10  1  0
 10 11  1  0
 11 12  1  1
 11 13  1  0
 13 14  1  1
 14 15  1  0
 15 16  2  0
 16 17  1  0
 17 18  2  0
 18 19  1  0
 19 20  2  0
 13 21  1  0
 21 22  1  0
 22 23  2  0
 22 24  1  0
 24 25  2  0
 25 26  1  0
 26 27  1  0
 27 28  1  0
 28 29  1  0
 29 30  1  0
 30 31  1  0
 26 32  2  0
 32 33  1  0
 33 34  2  0
 33 35  1  0
 35 36  1  0
 20 15  1  0
 34 24  1  0
M  END
$$$$
