
     RDKit          3D

 36 37  0  0  0  0  0  0  0  0999 V2000
  -13.1807  -35.4765  -12.4273 C   0  0  0  0  0  0  0  0  0  0  0  0
  -11.9827  -36.4067  -12.2280 C   0  0  0  0  0  0  0  0  0  0  0  0
  -11.9861  -36.9128  -10.7952 C   0  0  0  0  0  0  0  0  0  0  0  0
  -13.0559  -37.9712  -10.7192 C   0  0  0  0  0  0  0  0  0  0  0  0
  -13.0983  -38.6885   -9.4875 N   0  0  0  0  0  0  0  0  0  0  0  0
  -13.9838  -39.7761   -9.2793 C   0  0  0  0  0  0  0  0  0  0  0  0
  -14.7075  -40.1257  -10.2450 O   0  0  0  0  0  0  0  0  0  0  0  0
  -14.0471  -40.4837   -7.9387 C   0  0  2  0  0  0  0  0  0  0  0  0
  -13.5049  -41.9065   -8.1502 C   0  0  0  0  0  0  0  0  0  0  0  0
  -15.4620  -40.5198   -7.5562 C   0  0  0  0  0  0  0  0  0  0  0  0
  -16.1895  -39.2260   -7.2915 C   0  0  2  0  0  0  0  0  0  0  0  0
  -16.4978  -39.4510   -5.8476 O   0  0  0  0  0  0  0  0  0  0  0  0
  -17.5848  -39.1656   -7.8172 C   0  0  2  0  0  0  0  0  0  0  0  0
  -18.2582  -37.8915   -8.0926 C   0  0  0  0  0  0  0  0  0  0  0  0
  -19.7430  -37.8926   -8.1730 C   0  0  0  0  0  0  0  0  0  0  0  0
  -20.3571  -38.3121   -9.3237 C   0  0  0  0  0  0  0  0  0  0  0  0
  -21.7178  -38.3002   -9.4380 C   0  0  0  0  0  0  0  0  0  0  0  0
  -22.5283  -37.8638   -8.3965 C   0  0  0  0  0  0  0  0  0  0  0  0
  -21.8811  -37.4473   -7.2527 C   0  0  0  0  0  0  0  0  0  0  0  0
  -20.5138  -37.4592   -7.1385 C   0  0  0  0  0  0  0  0  0  0  0  0
  -18.4695  -39.9581   -6.9119 N   0  0  0  0  0  0  0  0  0  0  0  0
  -19.0244  -41.1940   -7.2662 C   0  0  0  0  0  0  0  0  0  0  0  0
  -18.6495  -41.7011   -8.3515 O   0  0  0  0  0  0  0  0  0  0  0  0
  -19.9974  -41.9309   -6.4737 C   0  0  0  0  0  0  0  0  0  0  0  0
  -20.0382  -43.3018   -6.4405 C   0  0  0  0  0  0  0  0  0  0  0  0
  -20.9622  -44.0099   -5.6839 C   0  0  0  0  0  0  0  0  0  0  0  0
  -20.9541  -45.4242   -5.6478 N   0  0  0  0  0  0  0  0  0  0  0  0
  -19.9660  -46.2228   -6.2931 C   0  0  0  0  0  0  0  0  0  0  0  0
  -20.4334  -47.1215   -7.3885 C   0  0  0  0  0  0  0  0  0  0  0  0
  -19.3925  -47.7128   -8.2749 C   0  0  0  0  0  0  0  0  0  0  0  0
  -19.7507  -49.1986   -8.4249 C   0  0  0  0  0  0  0  0  0  0  0  0
  -21.8290  -43.2695   -4.9745 N   0  0  0  0  0  0  0  0  0  0  0  0
  -21.8657  -41.9361   -4.9447 C   0  0  0  0  0  0  0  0  0  0  0  0
  -20.9290  -41.2637   -5.7114 C   0  0  0  0  0  0  0  0  0  0  0  0
  -22.8122  -41.3045   -4.1704 O   0  0  0  0  0  0  0  0  0  0  0  0
  -22.8250  -39.8967   -4.1179 C   0  0  0  0  0  0  0  0  0  0  0  0
  1  2  1  0
  2  3  1  0
  3  4  1  0
  4  5  1  0
  5  6  1  0
  6  7  2  0
  6  8  1  0
  8  9  1  6
  8 10  1  0
 10 11  1  0
 11 12  1  1
 11 13  1  0
 13 14  1  1
 14 15  1  0
 15 16  2  0
 16 17  1  0
 17 18  2  0
 18 19  1  0
 19 20  2  0
 13 21  1  0
 21 22  1  0
 22 23  2  0
 22 24  1  0
 24 25  2  0
 25 26  1  0
 26 27  1  0
 27 28  1  0
 28 29  1  0
 29 30  1  0
 30 31  1  0
 26 32  2  0
 32 33  1  0
 33 34  2  0
 33 35  1  0
 35 36  1  0
 20 15  1  0
 34 24  1  0
M  END
$$$$
