
     RDKit          3D

 36 37  0  0  0  0  0  0  0  0999 V2000
  -12.6667  -34.0728  -12.8815 C   0  0  0  0  0  0  0  0  0  0  0  0
  -12.6396  -35.5881  -12.6727 C   0  0  0  0  0  0  0  0  0  0  0  0
  -13.8895  -36.0024  -11.9143 C   0  0  0  0  0  0  0  0  0  0  0  0
  -13.8726  -37.5080  -11.8545 C   0  0  0  0  0  0  0  0  0  0  0  0
  -13.5649  -38.0502  -10.5720 N   0  0  0  0  0  0  0  0  0  0  0  0
  -14.1334  -39.2646  -10.1115 C   0  0  0  0  0  0  0  0  0  0  0  0
  -14.9595  -39.8386  -10.8643 O   0  0  0  0  0  0  0  0  0  0  0  0
  -13.7520  -39.8405   -8.7606 C   0  0  2  0  0  0  0  0  0  0  0  0
  -12.8079  -41.0251   -9.0221 C   0  0  0  0  0  0  0  0  0  0  0  0
  -14.9986  -40.2986   -8.1393 C   0  0  0  0  0  0  0  0  0  0  0  0
  -16.0426  -39.2858   -7.7426 C   0  0  2  0  0  0  0  0  0  0  0  0
  -15.9494  -39.4583   -6.2620 O   0  0  0  0  0  0  0  0  0  0  0  0
  -17.4557  -39.7247   -7.9361 C   0  0  2  0  0  0  0  0  0  0  0  0
  -18.5442  -39.2445   -7.0775 C   0  0  0  0  0  0  0  0  0  0  0  0
  -19.8382  -38.8980   -7.7230 C   0  0  0  0  0  0  0  0  0  0  0  0
  -20.0086  -39.1303   -9.0625 C   0  0  0  0  0  0  0  0  0  0  0  0
  -21.1754  -38.7991   -9.6898 C   0  0  0  0  0  0  0  0  0  0  0  0
  -22.2301  -38.2160   -8.9968 C   0  0  0  0  0  0  0  0  0  0  0  0
  -22.0279  -37.9943   -7.6512 C   0  0  0  0  0  0  0  0  0  0  0  0
  -20.8550  -38.3270   -7.0216 C   0  0  0  0  0  0  0  0  0  0  0  0
  -17.4964  -41.2176   -7.9251 N   0  0  0  0  0  0  0  0  0  0  0  0
  -18.6122  -41.9601   -8.3310 C   0  0  0  0  0  0  0  0  0  0  0  0
  -19.1214  -41.6700   -9.4409 O   0  0  0  0  0  0  0  0  0  0  0  0
  -19.2215  -43.0380   -7.5662 C   0  0  0  0  0  0  0  0  0  0  0  0
  -19.9240  -42.8180   -6.4085 C   0  0  0  0  0  0  0  0  0  0  0  0
  -20.5099  -43.8421   -5.6767 C   0  0  0  0  0  0  0  0  0  0  0  0
  -21.2554  -43.5751   -4.5044 N   0  0  0  0  0  0  0  0  0  0  0  0
  -21.5913  -42.2612   -4.0669 C   0  0  0  0  0  0  0  0  0  0  0  0
  -22.4281  -41.4363   -4.9862 C   0  0  0  0  0  0  0  0  0  0  0  0
  -22.7188  -40.0358   -4.5700 C   0  0  0  0  0  0  0  0  0  0  0  0
  -24.2237  -39.9814   -4.2693 C   0  0  0  0  0  0  0  0  0  0  0  0
  -20.3497  -45.0806   -6.1701 N   0  0  0  0  0  0  0  0  0  0  0  0
  -19.6848  -45.3905   -7.2846 C   0  0  0  0  0  0  0  0  0  0  0  0
  -19.1140  -44.3435   -7.9884 C   0  0  0  0  0  0  0  0  0  0  0  0
  -19.5989  -46.7076   -7.6746 O   0  0  0  0  0  0  0  0  0  0  0  0
  -20.1643  -47.7028   -6.8531 C   0  0  0  0  0  0  0  0  0  0  0  0
  1  2  1  0
  2  3  1  0
  3  4  1  0
  4  5  1  0
  5  6  1  0
  6  7  2  0
  6  8  1  0
  8  9  1  6
  8 10  1  0
 10 11  1  0
 11 12  1  1
 11 13  1  0
 13 14  1  1
 14 15  1  0
 15 16  2  0
 16 17  1  0
 17 18  2  0
 18 19  1  0
 19 20  2  0
 13 21  1  0
 21 22  1  0
 22 23  2  0
 22 24  1  0
 24 25  2  0
 25 26  1  0
 26 27  1  0
 27 28  1  0
 28 29  1  0
 29 30  1  0
 30 31  1  0
 26 32  2  0
 32 33  1  0
 33 34  2  0
 33 35  1  0
 35 36  1  0
 20 15  1  0
 34 24  1  0
M  END
$$$$
