
     RDKit          3D

 36 37  0  0  0  0  0  0  0  0999 V2000
  -12.5117  -34.4253  -10.8186 C   0  0  0  0  0  0  0  0  0  0  0  0
  -11.4150  -35.3543  -11.3425 C   0  0  0  0  0  0  0  0  0  0  0  0
  -12.0645  -36.5340  -12.0464 C   0  0  0  0  0  0  0  0  0  0  0  0
  -12.5450  -37.4650  -10.9633 C   0  0  0  0  0  0  0  0  0  0  0  0
  -13.1241  -38.6797  -11.4351 N   0  0  0  0  0  0  0  0  0  0  0  0
  -13.6091  -39.6763  -10.5508 C   0  0  0  0  0  0  0  0  0  0  0  0
  -13.8946  -40.7966  -11.0427 O   0  0  0  0  0  0  0  0  0  0  0  0
  -13.7732  -39.3908   -9.0698 C   0  0  2  0  0  0  0  0  0  0  0  0
  -13.6214  -40.7296   -8.3298 C   0  0  0  0  0  0  0  0  0  0  0  0
  -15.1272  -38.8549   -8.8992 C   0  0  0  0  0  0  0  0  0  0  0  0
  -16.0636  -39.5112   -7.9165 C   0  0  2  0  0  0  0  0  0  0  0  0
  -15.5968  -40.9191   -8.0910 O   0  0  0  0  0  0  0  0  0  0  0  0
  -17.4682  -39.6746   -8.3934 C   0  0  2  0  0  0  0  0  0  0  0  0
  -18.3854  -38.5361   -8.5172 C   0  0  0  0  0  0  0  0  0  0  0  0
  -19.8389  -38.8241   -8.6422 C   0  0  0  0  0  0  0  0  0  0  0  0
  -20.6059  -38.9324   -7.5120 C   0  0  0  0  0  0  0  0  0  0  0  0
  -21.9379  -39.2220   -7.5924 C   0  0  0  0  0  0  0  0  0  0  0  0
  -22.5639  -39.4175   -8.8180 C   0  0  0  0  0  0  0  0  0  0  0  0
  -21.7657  -39.3028   -9.9363 C   0  0  0  0  0  0  0  0  0  0  0  0
  -20.4272  -39.0121   -9.8548 C   0  0  0  0  0  0  0  0  0  0  0  0
  -18.1406  -40.7069   -7.5493 N   0  0  0  0  0  0  0  0  0  0  0  0
  -18.6781  -41.8924   -8.0656 C   0  0  0  0  0  0  0  0  0  0  0  0
  -18.5250  -42.1048   -9.2932 O   0  0  0  0  0  0  0  0  0  0  0  0
  -19.3961  -42.8920   -7.2889 C   0  0  0  0  0  0  0  0  0  0  0  0
  -20.5505  -42.6074   -6.6043 C   0  0  0  0  0  0  0  0  0  0  0  0
  -21.2412  -43.5577   -5.8643 C   0  0  0  0  0  0  0  0  0  0  0  0
  -22.4468  -43.2368   -5.1973 N   0  0  0  0  0  0  0  0  0  0  0  0
  -22.7488  -41.9365   -4.6985 C   0  0  0  0  0  0  0  0  0  0  0  0
  -21.9172  -41.4378   -3.5647 C   0  0  0  0  0  0  0  0  0  0  0  0
  -22.1843  -40.0544   -3.0813 C   0  0  0  0  0  0  0  0  0  0  0  0
  -23.1837  -40.1903   -1.9233 C   0  0  0  0  0  0  0  0  0  0  0  0
  -20.7106  -44.7911   -5.8536 N   0  0  0  0  0  0  0  0  0  0  0  0
  -19.5955  -45.1602   -6.4867 C   0  0  0  0  0  0  0  0  0  0  0  0
  -18.9336  -44.1861   -7.2148 C   0  0  0  0  0  0  0  0  0  0  0  0
  -19.1644  -46.4636   -6.3888 O   0  0  0  0  0  0  0  0  0  0  0  0
  -19.9598  -47.3973   -5.6957 C   0  0  0  0  0  0  0  0  0  0  0  0
  1  2  1  0
  2  3  1  0
  3  4  1  0
  4  5  1  0
  5  6  1  0
  6  7  2  0
  6  8  1  0
  8  9  1  1
  8 10  1  0
 10 11  1  0
 11 12  1  6
 11 13  1  0
 13 14  1  1
 14 15  1  0
 15 16  2  0
 16 17  1  0
 17 18  2  0
 18 19  1  0
 19 20  2  0
 13 21  1  0
 21 22  1  0
 22 23  2  0
 22 24  1  0
 24 25  2  0
 25 26  1  0
 26 27  1  0
 27 28  1  0
 28 29  1  0
 29 30  1  0
 30 31  1  0
 26 32  2  0
 32 33  1  0
 33 34  2  0
 33 35  1  0
 35 36  1  0
 20 15  1  0
 34 24  1  0
M  END
$$$$
