
     RDKit          3D

 36 37  0  0  0  0  0  0  0  0999 V2000
  -22.0641  -51.0558   -4.6963 C   0  0  0  0  0  0  0  0  0  0  0  0
  -22.2547  -49.7792   -3.8752 C   0  0  0  0  0  0  0  0  0  0  0  0
  -20.9364  -49.0252   -3.8252 C   0  0  0  0  0  0  0  0  0  0  0  0
  -20.7449  -48.4101   -5.1874 C   0  0  0  0  0  0  0  0  0  0  0  0
  -21.0544  -47.0201   -5.2626 N   0  0  0  0  0  0  0  0  0  0  0  0
  -21.0317  -46.3087   -6.4888 C   0  0  0  0  0  0  0  0  0  0  0  0
  -20.8706  -46.9755   -7.5414 O   0  0  0  0  0  0  0  0  0  0  0  0
  -21.1968  -44.8008   -6.5179 C   0  0  2  0  0  0  0  0  0  0  0  0
  -22.4804  -44.4995   -7.3081 C   0  0  0  0  0  0  0  0  0  0  0  0
  -20.0219  -44.2693   -7.2157 C   0  0  0  0  0  0  0  0  0  0  0  0
  -20.1903  -43.1208   -8.1778 C   0  0  2  0  0  0  0  0  0  0  0  0
  -19.2527  -43.5970   -9.2383 O   0  0  0  0  0  0  0  0  0  0  0  0
  -19.4826  -41.8644   -7.7934 C   0  0  2  0  0  0  0  0  0  0  0  0
  -20.1848  -40.7332   -7.1769 C   0  0  0  0  0  0  0  0  0  0  0  0
  -20.1221  -39.4168   -7.8656 C   0  0  0  0  0  0  0  0  0  0  0  0
  -19.5714  -38.3415   -7.2192 C   0  0  0  0  0  0  0  0  0  0  0  0
  -19.5228  -37.1136   -7.8145 C   0  0  0  0  0  0  0  0  0  0  0  0
  -20.0282  -36.9081   -9.0931 C   0  0  0  0  0  0  0  0  0  0  0  0
  -20.5764  -38.0086   -9.7169 C   0  0  0  0  0  0  0  0  0  0  0  0
  -20.6252  -39.2421   -9.1179 C   0  0  0  0  0  0  0  0  0  0  0  0
  -18.7507  -41.3457   -8.9874 N   0  0  0  0  0  0  0  0  0  0  0  0
  -17.4487  -41.7375   -9.3222 C   0  0  0  0  0  0  0  0  0  0  0  0
  -17.0165  -42.7954   -8.8029 O   0  0  0  0  0  0  0  0  0  0  0  0
  -16.5642  -41.0139  -10.2234 C   0  0  0  0  0  0  0  0  0  0  0  0
  -16.5721  -39.6459  -10.3270 C   0  0  0  0  0  0  0  0  0  0  0  0
  -15.7284  -38.9504  -11.1827 C   0  0  0  0  0  0  0  0  0  0  0  0
  -15.7411  -37.5369  -11.2397 N   0  0  0  0  0  0  0  0  0  0  0  0
  -16.8451  -36.7415  -10.8165 C   0  0  0  0  0  0  0  0  0  0  0  0
  -17.9848  -36.6059  -11.7696 C   0  0  0  0  0  0  0  0  0  0  0  0
  -18.8942  -35.4410  -11.5824 C   0  0  0  0  0  0  0  0  0  0  0  0
  -19.4216  -35.0800  -12.9787 C   0  0  0  0  0  0  0  0  0  0  0  0
  -14.8903  -39.7001  -11.9163 N   0  0  0  0  0  0  0  0  0  0  0  0
  -14.8114  -41.0317  -11.8834 C   0  0  0  0  0  0  0  0  0  0  0  0
  -15.6679  -41.6914  -11.0182 C   0  0  0  0  0  0  0  0  0  0  0  0
  -13.9024  -41.6737  -12.6933 O   0  0  0  0  0  0  0  0  0  0  0  0
  -12.5356  -41.3523  -12.5770 C   0  0  0  0  0  0  0  0  0  0  0  0
  1  2  1  0
  2  3  1  0
  3  4  1  0
  4  5  1  0
  5  6  1  0
  6  7  2  0
  6  8  1  0
  8  9  1  6
  8 10  1  0
 10 11  1  0
 11 12  1  6
 11 13  1  0
 13 14  1  6
 14 15  1  0
 15 16  2  0
 16 17  1  0
 17 18  2  0
 18 19  1  0
 19 20  2  0
 13 21  1  0
 21 22  1  0
 22 23  2  0
 22 24  1  0
 24 25  2  0
 25 26  1  0
 26 27  1  0
 27 28  1  0
 28 29  1  0
 29 30  1  0
 30 31  1  0
 26 32  2  0
 32 33  1  0
 33 34  2  0
 33 35  1  0
 35 36  1  0
 20 15  1  0
 34 24  1  0
M  END
$$$$
