
     RDKit          3D

 36 37  0  0  0  0  0  0  0  0999 V2000
  -10.6825  -42.9223  -13.0654 C   0  0  0  0  0  0  0  0  0  0  0  0
  -10.3080  -41.7581  -12.1462 C   0  0  0  0  0  0  0  0  0  0  0  0
  -11.5383  -40.8959  -11.9185 C   0  0  0  0  0  0  0  0  0  0  0  0
  -11.0760  -39.6895  -11.1429 C   0  0  0  0  0  0  0  0  0  0  0  0
  -12.0994  -38.7402  -10.8514 N   0  0  0  0  0  0  0  0  0  0  0  0
  -13.1272  -39.0053   -9.9113 C   0  0  0  0  0  0  0  0  0  0  0  0
  -12.7820  -39.2226   -8.7229 O   0  0  0  0  0  0  0  0  0  0  0  0
  -14.5842  -39.0235  -10.3341 C   0  0  2  0  0  0  0  0  0  0  0  0
  -14.9999  -37.5665  -10.5934 C   0  0  0  0  0  0  0  0  0  0  0  0
  -15.3353  -39.5839   -9.2065 C   0  0  0  0  0  0  0  0  0  0  0  0
  -16.0941  -38.6577   -8.2904 C   0  0  2  0  0  0  0  0  0  0  0  0
  -15.8566  -39.3890   -7.0100 O   0  0  0  0  0  0  0  0  0  0  0  0
  -17.5798  -38.7825   -8.3535 C   0  0  2  0  0  0  0  0  0  0  0  0
  -18.4709  -37.7889   -7.7440 C   0  0  0  0  0  0  0  0  0  0  0  0
  -19.9354  -37.9536   -7.9419 C   0  0  0  0  0  0  0  0  0  0  0  0
  -20.7933  -36.9964   -7.4674 C   0  0  0  0  0  0  0  0  0  0  0  0
  -22.1445  -37.1314   -7.6103 C   0  0  0  0  0  0  0  0  0  0  0  0
  -22.6991  -38.2400   -8.2394 C   0  0  0  0  0  0  0  0  0  0  0  0
  -21.8105  -39.1857   -8.7050 C   0  0  0  0  0  0  0  0  0  0  0  0
  -20.4528  -39.0496   -8.5608 C   0  0  0  0  0  0  0  0  0  0  0  0
  -17.9681  -40.1235   -7.8231 N   0  0  0  0  0  0  0  0  0  0  0  0
  -18.4345  -41.1661   -8.6332 C   0  0  0  0  0  0  0  0  0  0  0  0
  -18.1621  -41.1074   -9.8571 O   0  0  0  0  0  0  0  0  0  0  0  0
  -19.2064  -42.3072   -8.1643 C   0  0  0  0  0  0  0  0  0  0  0  0
  -19.5118  -42.4998   -6.8407 C   0  0  0  0  0  0  0  0  0  0  0  0
  -20.2505  -43.5849   -6.3882 C   0  0  0  0  0  0  0  0  0  0  0  0
  -20.5748  -43.7344   -5.0193 N   0  0  0  0  0  0  0  0  0  0  0  0
  -20.6542  -42.6442   -4.1051 C   0  0  0  0  0  0  0  0  0  0  0  0
  -21.9137  -41.8446   -4.1148 C   0  0  0  0  0  0  0  0  0  0  0  0
  -22.3803  -41.2932   -2.8121 C   0  0  0  0  0  0  0  0  0  0  0  0
  -22.4496  -39.7696   -2.9915 C   0  0  0  0  0  0  0  0  0  0  0  0
  -20.6568  -44.4509   -7.3304 N   0  0  0  0  0  0  0  0  0  0  0  0
  -20.4084  -44.3468   -8.6372 C   0  0  0  0  0  0  0  0  0  0  0  0
  -19.6692  -43.2518   -9.0518 C   0  0  0  0  0  0  0  0  0  0  0  0
  -20.8879  -45.3115   -9.4939 O   0  0  0  0  0  0  0  0  0  0  0  0
  -20.2429  -46.5630   -9.5450 C   0  0  0  0  0  0  0  0  0  0  0  0
  1  2  1  0
  2  3  1  0
  3  4  1  0
  4  5  1  0
  5  6  1  0
  6  7  2  0
  6  8  1  0
  8  9  1  1
  8 10  1  0
 10 11  1  0
 11 12  1  1
 11 13  1  0
 13 14  1  1
 14 15  1  0
 15 16  2  0
 16 17  1  0
 17 18  2  0
 18 19  1  0
 19 20  2  0
 13 21  1  0
 21 22  1  0
 22 23  2  0
 22 24  1  0
 24 25  2  0
 25 26  1  0
 26 27  1  0
 27 28  1  0
 28 29  1  0
 29 30  1  0
 30 31  1  0
 26 32  2  0
 32 33  1  0
 33 34  2  0
 33 35  1  0
 35 36  1  0
 20 15  1  0
 34 24  1  0
M  END
$$$$
