
     RDKit          3D

 36 37  0  0  0  0  0  0  0  0999 V2000
  -11.3308  -33.6463   -9.3941 C   0  0  0  0  0  0  0  0  0  0  0  0
  -12.3223  -34.2279  -10.4037 C   0  0  0  0  0  0  0  0  0  0  0  0
  -13.0938  -35.3568   -9.7408 C   0  0  0  0  0  0  0  0  0  0  0  0
  -12.7879  -36.6034  -10.5301 C   0  0  0  0  0  0  0  0  0  0  0  0
  -12.8248  -37.8118   -9.7739 N   0  0  0  0  0  0  0  0  0  0  0  0
  -13.9631  -38.6569   -9.7595 C   0  0  0  0  0  0  0  0  0  0  0  0
  -14.8046  -38.5095  -10.6808 O   0  0  0  0  0  0  0  0  0  0  0  0
  -14.1484  -39.6959   -8.6695 C   0  0  2  0  0  0  0  0  0  0  0  0
  -13.2092  -40.8684   -8.9954 C   0  0  0  0  0  0  0  0  0  0  0  0
  -15.5501  -40.1206   -8.7367 C   0  0  0  0  0  0  0  0  0  0  0  0
  -16.5300  -39.6002   -7.7158 C   0  0  2  0  0  0  0  0  0  0  0  0
  -16.3210  -40.6479   -6.6722 O   0  0  0  0  0  0  0  0  0  0  0  0
  -17.9657  -39.8664   -8.0237 C   0  0  2  0  0  0  0  0  0  0  0  0
  -19.0449  -39.4550   -7.1187 C   0  0  0  0  0  0  0  0  0  0  0  0
  -20.3555  -39.0908   -7.7194 C   0  0  0  0  0  0  0  0  0  0  0  0
  -21.3612  -38.6238   -6.9146 C   0  0  0  0  0  0  0  0  0  0  0  0
  -22.5841  -38.3056   -7.4320 C   0  0  0  0  0  0  0  0  0  0  0  0
  -22.8547  -38.4430   -8.7885 C   0  0  0  0  0  0  0  0  0  0  0  0
  -21.8233  -38.9158   -9.5718 C   0  0  0  0  0  0  0  0  0  0  0  0
  -20.5947  -39.2357   -9.0512 C   0  0  0  0  0  0  0  0  0  0  0  0
  -18.1325  -41.3260   -8.2921 N   0  0  0  0  0  0  0  0  0  0  0  0
  -18.0644  -41.8856   -9.5739 C   0  0  0  0  0  0  0  0  0  0  0  0
  -17.7910  -41.1119  -10.5238 O   0  0  0  0  0  0  0  0  0  0  0  0
  -18.2849  -43.2900   -9.8851 C   0  0  0  0  0  0  0  0  0  0  0  0
  -18.9982  -44.1263   -9.0641 C   0  0  0  0  0  0  0  0  0  0  0  0
  -19.2142  -45.4660   -9.3576 C   0  0  0  0  0  0  0  0  0  0  0  0
  -19.9829  -46.2915   -8.5037 N   0  0  0  0  0  0  0  0  0  0  0  0
  -20.0555  -46.1129   -7.0918 C   0  0  0  0  0  0  0  0  0  0  0  0
  -19.1388  -46.9434   -6.2576 C   0  0  0  0  0  0  0  0  0  0  0  0
  -19.5575  -47.2202   -4.8551 C   0  0  0  0  0  0  0  0  0  0  0  0
  -18.4351  -48.0621   -4.2309 C   0  0  0  0  0  0  0  0  0  0  0  0
  -18.6786  -45.9078  -10.5069 N   0  0  0  0  0  0  0  0  0  0  0  0
  -17.9716  -45.1710  -11.3657 C   0  0  0  0  0  0  0  0  0  0  0  0
  -17.7767  -43.8393  -11.0402 C   0  0  0  0  0  0  0  0  0  0  0  0
  -17.4796  -45.7559  -12.5103 O   0  0  0  0  0  0  0  0  0  0  0  0
  -16.7472  -44.9687  -13.4207 C   0  0  0  0  0  0  0  0  0  0  0  0
  1  2  1  0
  2  3  1  0
  3  4  1  0
  4  5  1  0
  5  6  1  0
  6  7  2  0
  6  8  1  0
  8  9  1  6
  8 10  1  0
 10 11  1  0
 11 12  1  1
 11 13  1  0
 13 14  1  1
 14 15  1  0
 15 16  2  0
 16 17  1  0
 17 18  2  0
 18 19  1  0
 19 20  2  0
 13 21  1  0
 21 22  1  0
 22 23  2  0
 22 24  1  0
 24 25  2  0
 25 26  1  0
 26 27  1  0
 27 28  1  0
 28 29  1  0
 29 30  1  0
 30 31  1  0
 26 32  2  0
 32 33  1  0
 33 34  2  0
 33 35  1  0
 35 36  1  0
 20 15  1  0
 34 24  1  0
M  END
$$$$
