
     RDKit          3D

 36 37  0  0  0  0  0  0  0  0999 V2000
  -12.0276  -35.7841  -12.6454 C   0  0  0  0  0  0  0  0  0  0  0  0
  -13.0786  -35.5430  -11.5602 C   0  0  0  0  0  0  0  0  0  0  0  0
  -13.1237  -36.7529  -10.6419 C   0  0  0  0  0  0  0  0  0  0  0  0
  -12.5613  -37.9076  -11.4299 C   0  0  0  0  0  0  0  0  0  0  0  0
  -12.6581  -39.1744  -10.7824 N   0  0  0  0  0  0  0  0  0  0  0  0
  -13.8913  -39.6818  -10.3006 C   0  0  0  0  0  0  0  0  0  0  0  0
  -14.8968  -39.5599  -11.0440 O   0  0  0  0  0  0  0  0  0  0  0  0
  -13.9824  -40.3447   -8.9389 C   0  0  2  0  0  0  0  0  0  0  0  0
  -13.4200  -41.7675   -9.0878 C   0  0  0  0  0  0  0  0  0  0  0  0
  -15.4066  -40.3839   -8.5923 C   0  0  0  0  0  0  0  0  0  0  0  0
  -16.0002  -39.2631   -7.7772 C   0  0  2  0  0  0  0  0  0  0  0  0
  -16.2075  -40.0169   -6.5047 O   0  0  0  0  0  0  0  0  0  0  0  0
  -17.4239  -38.9406   -8.0872 C   0  0  2  0  0  0  0  0  0  0  0  0
  -18.1839  -37.9518   -7.3142 C   0  0  0  0  0  0  0  0  0  0  0  0
  -19.6634  -37.9406   -7.4629 C   0  0  0  0  0  0  0  0  0  0  0  0
  -20.2226  -38.2320   -8.6793 C   0  0  0  0  0  0  0  0  0  0  0  0
  -21.5765  -38.2045   -8.8545 C   0  0  0  0  0  0  0  0  0  0  0  0
  -22.4355  -37.8810   -7.8105 C   0  0  0  0  0  0  0  0  0  0  0  0
  -21.8429  -37.5921   -6.5998 C   0  0  0  0  0  0  0  0  0  0  0  0
  -20.4823  -37.6195   -6.4244 C   0  0  0  0  0  0  0  0  0  0  0  0
  -18.2095  -40.2107   -8.0929 N   0  0  0  0  0  0  0  0  0  0  0  0
  -18.1234  -41.1735   -7.0798 C   0  0  0  0  0  0  0  0  0  0  0  0
  -16.9882  -41.3920   -6.5910 O   0  0  0  0  0  0  0  0  0  0  0  0
  -19.2464  -41.9350   -6.5534 C   0  0  0  0  0  0  0  0  0  0  0  0
  -19.6622  -43.1188   -7.1083 C   0  0  0  0  0  0  0  0  0  0  0  0
  -20.7308  -43.8508   -6.6083 C   0  0  0  0  0  0  0  0  0  0  0  0
  -21.1115  -45.0848   -7.1861 N   0  0  0  0  0  0  0  0  0  0  0  0
  -21.4781  -45.2336   -8.5551 C   0  0  0  0  0  0  0  0  0  0  0  0
  -20.3678  -45.4014   -9.5374 C   0  0  0  0  0  0  0  0  0  0  0  0
  -20.0094  -46.7933   -9.9287 C   0  0  0  0  0  0  0  0  0  0  0  0
  -19.0328  -46.6694  -11.1073 C   0  0  0  0  0  0  0  0  0  0  0  0
  -21.3466  -43.3300   -5.5349 N   0  0  0  0  0  0  0  0  0  0  0  0
  -21.0144  -42.1885   -4.9291 C   0  0  0  0  0  0  0  0  0  0  0  0
  -19.9436  -41.4856   -5.4552 C   0  0  0  0  0  0  0  0  0  0  0  0
  -21.7355  -41.7716   -3.8334 O   0  0  0  0  0  0  0  0  0  0  0  0
  -21.9735  -42.6814   -2.7843 C   0  0  0  0  0  0  0  0  0  0  0  0
  1  2  1  0
  2  3  1  0
  3  4  1  0
  4  5  1  0
  5  6  1  0
  6  7  2  0
  6  8  1  0
  8  9  1  6
  8 10  1  0
 10 11  1  0
 11 12  1  1
 11 13  1  0
 13 14  1  1
 14 15  1  0
 15 16  2  0
 16 17  1  0
 17 18  2  0
 18 19  1  0
 19 20  2  0
 13 21  1  0
 21 22  1  0
 22 23  2  0
 22 24  1  0
 24 25  2  0
 25 26  1  0
 26 27  1  0
 27 28  1  0
 28 29  1  0
 29 30  1  0
 30 31  1  0
 26 32  2  0
 32 33  1  0
 33 34  2  0
 33 35  1  0
 35 36  1  0
 20 15  1  0
 34 24  1  0
M  END
$$$$
