
     RDKit          3D

 36 37  0  0  0  0  0  0  0  0999 V2000
   -8.7649  -38.4060  -12.1110 C   0  0  0  0  0  0  0  0  0  0  0  0
   -9.3582  -38.8488  -10.7721 C   0  0  0  0  0  0  0  0  0  0  0  0
  -10.0629  -37.6650  -10.1310 C   0  0  0  0  0  0  0  0  0  0  0  0
  -11.5256  -37.8079  -10.4639 C   0  0  0  0  0  0  0  0  0  0  0  0
  -12.3246  -38.3542   -9.4167 N   0  0  0  0  0  0  0  0  0  0  0  0
  -13.2415  -39.4118   -9.6423 C   0  0  0  0  0  0  0  0  0  0  0  0
  -13.6193  -39.6074  -10.8245 O   0  0  0  0  0  0  0  0  0  0  0  0
  -13.7410  -40.2684   -8.4939 C   0  0  2  0  0  0  0  0  0  0  0  0
  -13.2753  -41.7080   -8.7652 C   0  0  0  0  0  0  0  0  0  0  0  0
  -15.2045  -40.1834   -8.5203 C   0  0  0  0  0  0  0  0  0  0  0  0
  -15.9009  -39.1566   -7.6638 C   0  0  2  0  0  0  0  0  0  0  0  0
  -16.2804  -40.0522   -6.5304 O   0  0  0  0  0  0  0  0  0  0  0  0
  -17.2688  -38.7737   -8.1213 C   0  0  2  0  0  0  0  0  0  0  0  0
  -18.1676  -37.9620   -7.2930 C   0  0  0  0  0  0  0  0  0  0  0  0
  -19.6325  -38.1359   -7.4799 C   0  0  0  0  0  0  0  0  0  0  0  0
  -20.5028  -37.4283   -6.6930 C   0  0  0  0  0  0  0  0  0  0  0  0
  -21.8530  -37.5855   -6.8224 C   0  0  0  0  0  0  0  0  0  0  0  0
  -22.3940  -38.4654   -7.7527 C   0  0  0  0  0  0  0  0  0  0  0  0
  -21.4930  -39.1632   -8.5286 C   0  0  0  0  0  0  0  0  0  0  0  0
  -20.1363  -39.0051   -8.3979 C   0  0  0  0  0  0  0  0  0  0  0  0
  -18.0064  -40.0136   -8.5072 N   0  0  0  0  0  0  0  0  0  0  0  0
  -17.8915  -40.6174   -9.7654 C   0  0  0  0  0  0  0  0  0  0  0  0
  -17.2317  -40.0027  -10.6385 O   0  0  0  0  0  0  0  0  0  0  0  0
  -18.4761  -41.8982  -10.1340 C   0  0  0  0  0  0  0  0  0  0  0  0
  -19.8025  -42.1892   -9.9387 C   0  0  0  0  0  0  0  0  0  0  0  0
  -20.3660  -43.4082  -10.2912 C   0  0  0  0  0  0  0  0  0  0  0  0
  -21.7453  -43.6621  -10.1053 N   0  0  0  0  0  0  0  0  0  0  0  0
  -22.7049  -42.6427   -9.8391 C   0  0  0  0  0  0  0  0  0  0  0  0
  -23.5559  -42.2008  -10.9821 C   0  0  0  0  0  0  0  0  0  0  0  0
  -24.3940  -43.2369  -11.6476 C   0  0  0  0  0  0  0  0  0  0  0  0
  -24.9744  -42.5755  -12.9061 C   0  0  0  0  0  0  0  0  0  0  0  0
  -19.5300  -44.3027  -10.8425 N   0  0  0  0  0  0  0  0  0  0  0  0
  -18.2296  -44.1097  -11.0703 C   0  0  0  0  0  0  0  0  0  0  0  0
  -17.7024  -42.8822  -10.7060 C   0  0  0  0  0  0  0  0  0  0  0  0
  -17.4885  -45.1177  -11.6441 O   0  0  0  0  0  0  0  0  0  0  0  0
  -18.1544  -46.2424  -12.1698 C   0  0  0  0  0  0  0  0  0  0  0  0
  1  2  1  0
  2  3  1  0
  3  4  1  0
  4  5  1  0
  5  6  1  0
  6  7  2  0
  6  8  1  0
  8  9  1  6
  8 10  1  0
 10 11  1  0
 11 12  1  1
 11 13  1  0
 13 14  1  1
 14 15  1  0
 15 16  2  0
 16 17  1  0
 17 18  2  0
 18 19  1  0
 19 20  2  0
 13 21  1  0
 21 22  1  0
 22 23  2  0
 22 24  1  0
 24 25  2  0
 25 26  1  0
 26 27  1  0
 27 28  1  0
 28 29  1  0
 29 30  1  0
 30 31  1  0
 26 32  2  0
 32 33  1  0
 33 34  2  0
 33 35  1  0
 35 36  1  0
 20 15  1  0
 34 24  1  0
M  END
$$$$
