
     RDKit          3D

 36 37  0  0  0  0  0  0  0  0999 V2000
  -13.9908  -34.2575  -12.6570 C   0  0  0  0  0  0  0  0  0  0  0  0
  -12.6167  -34.9111  -12.4985 C   0  0  0  0  0  0  0  0  0  0  0  0
  -12.5246  -35.5330  -11.1151 C   0  0  0  0  0  0  0  0  0  0  0  0
  -13.0943  -36.9230  -11.2335 C   0  0  0  0  0  0  0  0  0  0  0  0
  -12.9711  -37.7198  -10.0574 N   0  0  0  0  0  0  0  0  0  0  0  0
  -13.6736  -38.9410   -9.8979 C   0  0  0  0  0  0  0  0  0  0  0  0
  -14.3115  -39.3750  -10.8896 O   0  0  0  0  0  0  0  0  0  0  0  0
  -13.6495  -39.6870   -8.5770 C   0  0  2  0  0  0  0  0  0  0  0  0
  -12.8411  -40.9756   -8.7980 C   0  0  0  0  0  0  0  0  0  0  0  0
  -15.0449  -39.9998   -8.2529 C   0  0  0  0  0  0  0  0  0  0  0  0
  -15.9100  -38.9433   -7.6138 C   0  0  2  0  0  0  0  0  0  0  0  0
  -15.9231  -39.4949   -6.2260 O   0  0  0  0  0  0  0  0  0  0  0  0
  -17.3673  -39.0504   -7.9168 C   0  0  2  0  0  0  0  0  0  0  0  0
  -18.3173  -37.9927   -7.5542 C   0  0  0  0  0  0  0  0  0  0  0  0
  -19.7666  -38.2628   -7.7486 C   0  0  0  0  0  0  0  0  0  0  0  0
  -20.5867  -38.3691   -6.6562 C   0  0  0  0  0  0  0  0  0  0  0  0
  -21.9167  -38.6425   -6.8005 C   0  0  0  0  0  0  0  0  0  0  0  0
  -22.4871  -38.8230   -8.0553 C   0  0  0  0  0  0  0  0  0  0  0  0
  -21.6363  -38.7108   -9.1343 C   0  0  0  0  0  0  0  0  0  0  0  0
  -20.2998  -38.4365   -8.9886 C   0  0  0  0  0  0  0  0  0  0  0  0
  -17.8792  -40.3326   -7.3472 N   0  0  0  0  0  0  0  0  0  0  0  0
  -18.0572  -41.4954   -8.1067 C   0  0  0  0  0  0  0  0  0  0  0  0
  -17.6201  -41.4846   -9.2833 O   0  0  0  0  0  0  0  0  0  0  0  0
  -18.7068  -42.7096   -7.6358 C   0  0  0  0  0  0  0  0  0  0  0  0
  -19.7968  -42.6897   -6.8029 C   0  0  0  0  0  0  0  0  0  0  0  0
  -20.4223  -43.8447   -6.3530 C   0  0  0  0  0  0  0  0  0  0  0  0
  -21.5649  -43.7861   -5.5208 N   0  0  0  0  0  0  0  0  0  0  0  0
  -22.2126  -42.5701   -5.1570 C   0  0  0  0  0  0  0  0  0  0  0  0
  -21.7518  -41.9085   -3.9017 C   0  0  0  0  0  0  0  0  0  0  0  0
  -22.2927  -40.5517   -3.6089 C   0  0  0  0  0  0  0  0  0  0  0  0
  -21.7557  -40.1660   -2.2228 C   0  0  0  0  0  0  0  0  0  0  0  0
  -19.8949  -45.0022   -6.7833 N   0  0  0  0  0  0  0  0  0  0  0  0
  -18.8398  -45.1197   -7.5915 C   0  0  0  0  0  0  0  0  0  0  0  0
  -18.2419  -43.9466   -8.0201 C   0  0  0  0  0  0  0  0  0  0  0  0
  -18.4040  -46.3740   -7.9537 O   0  0  0  0  0  0  0  0  0  0  0  0
  -19.3473  -47.4101   -8.1007 C   0  0  0  0  0  0  0  0  0  0  0  0
  1  2  1  0
  2  3  1  0
  3  4  1  0
  4  5  1  0
  5  6  1  0
  6  7  2  0
  6  8  1  0
  8  9  1  6
  8 10  1  0
 10 11  1  0
 11 12  1  1
 11 13  1  0
 13 14  1  1
 14 15  1  0
 15 16  2  0
 16 17  1  0
 17 18  2  0
 18 19  1  0
 19 20  2  0
 13 21  1  0
 21 22  1  0
 22 23  2  0
 22 24  1  0
 24 25  2  0
 25 26  1  0
 26 27  1  0
 27 28  1  0
 28 29  1  0
 29 30  1  0
 30 31  1  0
 26 32  2  0
 32 33  1  0
 33 34  2  0
 33 35  1  0
 35 36  1  0
 20 15  1  0
 34 24  1  0
M  END
$$$$
