
     RDKit          3D

 36 37  0  0  0  0  0  0  0  0999 V2000
  -10.8401  -36.8193  -13.5733 C   0  0  0  0  0  0  0  0  0  0  0  0
  -12.3171  -36.9869  -13.9352 C   0  0  0  0  0  0  0  0  0  0  0  0
  -13.1666  -36.4642  -12.7888 C   0  0  0  0  0  0  0  0  0  0  0  0
  -14.1495  -37.5562  -12.4540 C   0  0  0  0  0  0  0  0  0  0  0  0
  -13.7492  -38.4112  -11.3852 N   0  0  0  0  0  0  0  0  0  0  0  0
  -14.6183  -39.3874  -10.8357 C   0  0  0  0  0  0  0  0  0  0  0  0
  -15.4971  -39.8710  -11.5923 O   0  0  0  0  0  0  0  0  0  0  0  0
  -14.4839  -39.8243   -9.3890 C   0  0  2  0  0  0  0  0  0  0  0  0
  -13.6331  -41.1045   -9.3784 C   0  0  0  0  0  0  0  0  0  0  0  0
  -15.8426  -40.1010   -8.9123 C   0  0  0  0  0  0  0  0  0  0  0  0
  -16.4928  -39.1502   -7.9396 C   0  0  2  0  0  0  0  0  0  0  0  0
  -16.2375  -39.9242   -6.6881 O   0  0  0  0  0  0  0  0  0  0  0  0
  -17.9847  -39.1798   -7.9272 C   0  0  2  0  0  0  0  0  0  0  0  0
  -18.7868  -37.9539   -7.8449 C   0  0  0  0  0  0  0  0  0  0  0  0
  -20.2517  -38.0643   -8.0751 C   0  0  0  0  0  0  0  0  0  0  0  0
  -20.7957  -39.2804   -8.3952 C   0  0  0  0  0  0  0  0  0  0  0  0
  -22.1331  -39.4093   -8.6382 C   0  0  0  0  0  0  0  0  0  0  0  0
  -22.9901  -38.3169   -8.5708 C   0  0  0  0  0  0  0  0  0  0  0  0
  -22.4130  -37.1074   -8.2475 C   0  0  0  0  0  0  0  0  0  0  0  0
  -21.0688  -36.9784   -8.0038 C   0  0  0  0  0  0  0  0  0  0  0  0
  -18.4339  -40.0883   -6.8303 N   0  0  0  0  0  0  0  0  0  0  0  0
  -19.1643  -41.2620   -7.0536 C   0  0  0  0  0  0  0  0  0  0  0  0
  -19.0665  -41.7915   -8.1874 O   0  0  0  0  0  0  0  0  0  0  0  0
  -20.0230  -41.9107   -6.0739 C   0  0  0  0  0  0  0  0  0  0  0  0
  -20.8802  -42.9305   -6.4020 C   0  0  0  0  0  0  0  0  0  0  0  0
  -21.6992  -43.5550   -5.4709 C   0  0  0  0  0  0  0  0  0  0  0  0
  -22.5474  -44.6259   -5.8385 N   0  0  0  0  0  0  0  0  0  0  0  0
  -22.6040  -45.1697   -7.1545 C   0  0  0  0  0  0  0  0  0  0  0  0
  -23.6296  -44.6013   -8.0769 C   0  0  0  0  0  0  0  0  0  0  0  0
  -23.5412  -44.9856   -9.5134 C   0  0  0  0  0  0  0  0  0  0  0  0
  -23.5651  -43.6733  -10.3106 C   0  0  0  0  0  0  0  0  0  0  0  0
  -21.6069  -43.1003   -4.2110 N   0  0  0  0  0  0  0  0  0  0  0  0
  -20.8051  -42.1164   -3.7992 C   0  0  0  0  0  0  0  0  0  0  0  0
  -20.0025  -41.5172   -4.7553 C   0  0  0  0  0  0  0  0  0  0  0  0
  -20.8127  -41.7508   -2.4723 O   0  0  0  0  0  0  0  0  0  0  0  0
  -20.7969  -42.7561   -1.4854 C   0  0  0  0  0  0  0  0  0  0  0  0
  1  2  1  0
  2  3  1  0
  3  4  1  0
  4  5  1  0
  5  6  1  0
  6  7  2  0
  6  8  1  0
  8  9  1  6
  8 10  1  0
 10 11  1  0
 11 12  1  1
 11 13  1  0
 13 14  1  1
 14 15  1  0
 15 16  2  0
 16 17  1  0
 17 18  2  0
 18 19  1  0
 19 20  2  0
 13 21  1  0
 21 22  1  0
 22 23  2  0
 22 24  1  0
 24 25  2  0
 25 26  1  0
 26 27  1  0
 27 28  1  0
 28 29  1  0
 29 30  1  0
 30 31  1  0
 26 32  2  0
 32 33  1  0
 33 34  2  0
 33 35  1  0
 35 36  1  0
 20 15  1  0
 34 24  1  0
M  END
$$$$
