
     RDKit          3D

 36 37  0  0  0  0  0  0  0  0999 V2000
  -12.3266  -34.5703  -12.1399 C   0  0  0  0  0  0  0  0  0  0  0  0
  -11.9661  -36.0570  -12.1233 C   0  0  0  0  0  0  0  0  0  0  0  0
  -12.3928  -36.6516  -10.7916 C   0  0  0  0  0  0  0  0  0  0  0  0
  -11.8906  -38.0723  -10.7783 C   0  0  0  0  0  0  0  0  0  0  0  0
  -12.2512  -38.8212   -9.6197 N   0  0  0  0  0  0  0  0  0  0  0  0
  -13.3583  -39.7069   -9.6098 C   0  0  0  0  0  0  0  0  0  0  0  0
  -14.0890  -39.7308  -10.6316 O   0  0  0  0  0  0  0  0  0  0  0  0
  -13.6409  -40.5875   -8.4071 C   0  0  2  0  0  0  0  0  0  0  0  0
  -13.0816  -41.9836   -8.7250 C   0  0  0  0  0  0  0  0  0  0  0  0
  -15.0992  -40.6342   -8.2618 C   0  0  0  0  0  0  0  0  0  0  0  0
  -15.8221  -39.4481   -7.6757 C   0  0  2  0  0  0  0  0  0  0  0  0
  -16.0003  -39.9756   -6.2899 O   0  0  0  0  0  0  0  0  0  0  0  0
  -17.2585  -39.3284   -8.0620 C   0  0  2  0  0  0  0  0  0  0  0  0
  -18.2855  -38.8855   -7.1122 C   0  0  0  0  0  0  0  0  0  0  0  0
  -19.6325  -38.5549   -7.6482 C   0  0  0  0  0  0  0  0  0  0  0  0
  -19.8078  -38.4225   -9.0006 C   0  0  0  0  0  0  0  0  0  0  0  0
  -21.0263  -38.0939   -9.5220 C   0  0  0  0  0  0  0  0  0  0  0  0
  -22.1304  -37.8816   -8.7046 C   0  0  0  0  0  0  0  0  0  0  0  0
  -21.9221  -38.0213   -7.3489 C   0  0  0  0  0  0  0  0  0  0  0  0
  -20.6973  -38.3512   -6.8256 C   0  0  0  0  0  0  0  0  0  0  0  0
  -17.7070  -40.6313   -8.6377 N   0  0  0  0  0  0  0  0  0  0  0  0
  -18.9324  -40.8019   -9.2936 C   0  0  0  0  0  0  0  0  0  0  0  0
  -19.1472  -40.0870  -10.3027 O   0  0  0  0  0  0  0  0  0  0  0  0
  -19.9694  -41.7420   -8.8954 C   0  0  0  0  0  0  0  0  0  0  0  0
  -19.6879  -42.9425   -8.2938 C   0  0  0  0  0  0  0  0  0  0  0  0
  -20.6733  -43.8417   -7.9091 C   0  0  0  0  0  0  0  0  0  0  0  0
  -20.3481  -45.0565   -7.2611 N   0  0  0  0  0  0  0  0  0  0  0  0
  -19.1549  -45.7918   -7.5189 C   0  0  0  0  0  0  0  0  0  0  0  0
  -18.9330  -47.0251   -6.7093 C   0  0  0  0  0  0  0  0  0  0  0  0
  -19.7958  -48.2015   -7.0100 C   0  0  0  0  0  0  0  0  0  0  0  0
  -19.4688  -49.2569   -5.9434 C   0  0  0  0  0  0  0  0  0  0  0  0
  -21.9381  -43.4683   -8.1613 N   0  0  0  0  0  0  0  0  0  0  0  0
  -22.3072  -42.3243   -8.7405 C   0  0  0  0  0  0  0  0  0  0  0  0
  -21.2975  -41.4521   -9.1105 C   0  0  0  0  0  0  0  0  0  0  0  0
  -23.6452  -42.0698   -8.9390 O   0  0  0  0  0  0  0  0  0  0  0  0
  -24.5968  -42.9776   -8.4337 C   0  0  0  0  0  0  0  0  0  0  0  0
  1  2  1  0
  2  3  1  0
  3  4  1  0
  4  5  1  0
  5  6  1  0
  6  7  2  0
  6  8  1  0
  8  9  1  6
  8 10  1  0
 10 11  1  0
 11 12  1  1
 11 13  1  0
 13 14  1  1
 14 15  1  0
 15 16  2  0
 16 17  1  0
 17 18  2  0
 18 19  1  0
 19 20  2  0
 13 21  1  0
 21 22  1  0
 22 23  2  0
 22 24  1  0
 24 25  2  0
 25 26  1  0
 26 27  1  0
 27 28  1  0
 28 29  1  0
 29 30  1  0
 30 31  1  0
 26 32  2  0
 32 33  1  0
 33 34  2  0
 33 35  1  0
 35 36  1  0
 20 15  1  0
 34 24  1  0
M  END
$$$$
