
     RDKit          3D

 36 37  0  0  0  0  0  0  0  0999 V2000
  -11.8508  -33.8334  -12.5881 C   0  0  0  0  0  0  0  0  0  0  0  0
  -11.5709  -35.1086  -11.7906 C   0  0  0  0  0  0  0  0  0  0  0  0
  -12.7369  -35.3669  -10.8510 C   0  0  0  0  0  0  0  0  0  0  0  0
  -12.4379  -36.6653  -10.1472 C   0  0  0  0  0  0  0  0  0  0  0  0
  -12.6013  -37.8310  -10.9521 N   0  0  0  0  0  0  0  0  0  0  0  0
  -13.4097  -38.9216  -10.5430 C   0  0  0  0  0  0  0  0  0  0  0  0
  -13.9346  -39.6224  -11.4441 O   0  0  0  0  0  0  0  0  0  0  0  0
  -13.6260  -39.2224   -9.0717 C   0  0  2  0  0  0  0  0  0  0  0  0
  -12.7636  -40.4473   -8.7271 C   0  0  0  0  0  0  0  0  0  0  0  0
  -15.0509  -39.5318   -8.9178 C   0  0  0  0  0  0  0  0  0  0  0  0
  -15.8762  -38.7440   -7.9322 C   0  0  2  0  0  0  0  0  0  0  0  0
  -15.5936  -39.5666   -6.7180 O   0  0  0  0  0  0  0  0  0  0  0  0
  -17.3493  -38.9650   -8.0211 C   0  0  2  0  0  0  0  0  0  0  0  0
  -18.3139  -38.0231   -7.4423 C   0  0  0  0  0  0  0  0  0  0  0  0
  -19.7508  -38.2034   -7.7800 C   0  0  0  0  0  0  0  0  0  0  0  0
  -20.7018  -37.5084   -7.0802 C   0  0  0  0  0  0  0  0  0  0  0  0
  -22.0306  -37.6719   -7.3488 C   0  0  0  0  0  0  0  0  0  0  0  0
  -22.4675  -38.5457   -8.3377 C   0  0  0  0  0  0  0  0  0  0  0  0
  -21.4872  -39.2308   -9.0234 C   0  0  0  0  0  0  0  0  0  0  0  0
  -20.1521  -39.0665   -8.7527 C   0  0  0  0  0  0  0  0  0  0  0  0
  -17.6610  -40.3213   -7.4791 N   0  0  0  0  0  0  0  0  0  0  0  0
  -18.0721  -41.3942   -8.2795 C   0  0  0  0  0  0  0  0  0  0  0  0
  -17.8652  -41.3012   -9.5140 O   0  0  0  0  0  0  0  0  0  0  0  0
  -18.7170  -42.6032   -7.7892 C   0  0  0  0  0  0  0  0  0  0  0  0
  -19.6329  -42.5906   -6.7678 C   0  0  0  0  0  0  0  0  0  0  0  0
  -20.2534  -43.7405   -6.2982 C   0  0  0  0  0  0  0  0  0  0  0  0
  -21.2180  -43.6860   -5.2648 N   0  0  0  0  0  0  0  0  0  0  0  0
  -21.4095  -42.5507   -4.4252 C   0  0  0  0  0  0  0  0  0  0  0  0
  -22.5577  -41.6555   -4.7507 C   0  0  0  0  0  0  0  0  0  0  0  0
  -22.6548  -40.3723   -4.0004 C   0  0  0  0  0  0  0  0  0  0  0  0
  -23.9242  -39.6734   -4.5088 C   0  0  0  0  0  0  0  0  0  0  0  0
  -19.9036  -44.8852   -6.9066 N   0  0  0  0  0  0  0  0  0  0  0  0
  -19.0249  -44.9949   -7.9047 C   0  0  0  0  0  0  0  0  0  0  0  0
  -18.4262  -43.8273   -8.3469 C   0  0  0  0  0  0  0  0  0  0  0  0
  -18.7600  -46.2364   -8.4367 O   0  0  0  0  0  0  0  0  0  0  0  0
  -19.2809  -47.3795   -7.7988 C   0  0  0  0  0  0  0  0  0  0  0  0
  1  2  1  0
  2  3  1  0
  3  4  1  0
  4  5  1  0
  5  6  1  0
  6  7  2  0
  6  8  1  0
  8  9  1  6
  8 10  1  0
 10 11  1  0
 11 12  1  1
 11 13  1  0
 13 14  1  1
 14 15  1  0
 15 16  2  0
 16 17  1  0
 17 18  2  0
 18 19  1  0
 19 20  2  0
 13 21  1  0
 21 22  1  0
 22 23  2  0
 22 24  1  0
 24 25  2  0
 25 26  1  0
 26 27  1  0
 27 28  1  0
 28 29  1  0
 29 30  1  0
 30 31  1  0
 26 32  2  0
 32 33  1  0
 33 34  2  0
 33 35  1  0
 35 36  1  0
 20 15  1  0
 34 24  1  0
M  END
$$$$
