
     RDKit          3D

 36 37  0  0  0  0  0  0  0  0999 V2000
  -11.8668  -33.9072  -13.2602 C   0  0  0  0  0  0  0  0  0  0  0  0
  -13.1891  -34.0907  -12.5131 C   0  0  0  0  0  0  0  0  0  0  0  0
  -12.9306  -34.8847  -11.2435 C   0  0  0  0  0  0  0  0  0  0  0  0
  -13.7677  -36.1336  -11.3436 C   0  0  0  0  0  0  0  0  0  0  0  0
  -13.6495  -37.0210  -10.2336 N   0  0  0  0  0  0  0  0  0  0  0  0
  -14.3867  -38.2294  -10.1535 C   0  0  0  0  0  0  0  0  0  0  0  0
  -15.2348  -38.4503  -11.0538 O   0  0  0  0  0  0  0  0  0  0  0  0
  -14.1529  -39.2111   -9.0206 C   0  0  2  0  0  0  0  0  0  0  0  0
  -13.3886  -40.4086   -9.6078 C   0  0  0  0  0  0  0  0  0  0  0  0
  -15.4790  -39.6230   -8.5497 C   0  0  0  0  0  0  0  0  0  0  0  0
  -16.3604  -38.6187   -7.8515 C   0  0  2  0  0  0  0  0  0  0  0  0
  -16.2148  -39.1436   -6.4608 O   0  0  0  0  0  0  0  0  0  0  0  0
  -17.8267  -38.8346   -8.0257 C   0  0  2  0  0  0  0  0  0  0  0  0
  -18.8218  -37.9364   -7.4294 C   0  0  0  0  0  0  0  0  0  0  0  0
  -20.2485  -38.1358   -7.7983 C   0  0  0  0  0  0  0  0  0  0  0  0
  -21.1994  -37.2807   -7.3067 C   0  0  0  0  0  0  0  0  0  0  0  0
  -22.5206  -37.4529   -7.6057 C   0  0  0  0  0  0  0  0  0  0  0  0
  -22.9496  -38.4975   -8.4163 C   0  0  0  0  0  0  0  0  0  0  0  0
  -21.9696  -39.3411   -8.8945 C   0  0  0  0  0  0  0  0  0  0  0  0
  -20.6422  -39.1678   -8.5933 C   0  0  0  0  0  0  0  0  0  0  0  0
  -18.1577  -40.2257   -7.5948 N   0  0  0  0  0  0  0  0  0  0  0  0
  -18.3696  -41.2796   -8.4923 C   0  0  0  0  0  0  0  0  0  0  0  0
  -17.9802  -41.1138   -9.6740 O   0  0  0  0  0  0  0  0  0  0  0  0
  -19.0035  -42.5464   -8.1585 C   0  0  0  0  0  0  0  0  0  0  0  0
  -20.0975  -42.6316   -7.3351 C   0  0  0  0  0  0  0  0  0  0  0  0
  -20.7080  -43.8371   -7.0159 C   0  0  0  0  0  0  0  0  0  0  0  0
  -21.8551  -43.8844   -6.1893 N   0  0  0  0  0  0  0  0  0  0  0  0
  -21.8119  -44.1950   -4.7992 C   0  0  0  0  0  0  0  0  0  0  0  0
  -22.0362  -45.6199   -4.4179 C   0  0  0  0  0  0  0  0  0  0  0  0
  -21.6816  -46.0164   -3.0265 C   0  0  0  0  0  0  0  0  0  0  0  0
  -20.8094  -47.2744   -3.1484 C   0  0  0  0  0  0  0  0  0  0  0  0
  -20.1616  -44.9339   -7.5647 N   0  0  0  0  0  0  0  0  0  0  0  0
  -19.1011  -44.9489   -8.3743 C   0  0  0  0  0  0  0  0  0  0  0  0
  -18.5186  -43.7282   -8.6707 C   0  0  0  0  0  0  0  0  0  0  0  0
  -18.6453  -46.1507   -8.8666 O   0  0  0  0  0  0  0  0  0  0  0  0
  -19.3808  -47.3225   -8.6002 C   0  0  0  0  0  0  0  0  0  0  0  0
  1  2  1  0
  2  3  1  0
  3  4  1  0
  4  5  1  0
  5  6  1  0
  6  7  2  0
  6  8  1  0
  8  9  1  6
  8 10  1  0
 10 11  1  0
 11 12  1  1
 11 13  1  0
 13 14  1  1
 14 15  1  0
 15 16  2  0
 16 17  1  0
 17 18  2  0
 18 19  1  0
 19 20  2  0
 13 21  1  0
 21 22  1  0
 22 23  2  0
 22 24  1  0
 24 25  2  0
 25 26  1  0
 26 27  1  0
 27 28  1  0
 28 29  1  0
 29 30  1  0
 30 31  1  0
 26 32  2  0
 32 33  1  0
 33 34  2  0
 33 35  1  0
 35 36  1  0
 20 15  1  0
 34 24  1  0
M  END
$$$$
