
     RDKit          3D

 36 37  0  0  0  0  0  0  0  0999 V2000
  -10.8372  -35.0901  -12.4297 C   0  0  0  0  0  0  0  0  0  0  0  0
  -11.9800  -35.6443  -11.5769 C   0  0  0  0  0  0  0  0  0  0  0  0
  -12.0826  -37.1430  -11.8061 C   0  0  0  0  0  0  0  0  0  0  0  0
  -13.2026  -37.6334  -10.9253 C   0  0  0  0  0  0  0  0  0  0  0  0
  -13.4338  -39.0394  -10.9824 N   0  0  0  0  0  0  0  0  0  0  0  0
  -14.3987  -39.6780  -10.1631 C   0  0  0  0  0  0  0  0  0  0  0  0
  -15.5874  -39.6882  -10.5701 O   0  0  0  0  0  0  0  0  0  0  0  0
  -14.0011  -40.3212   -8.8478 C   0  0  2  0  0  0  0  0  0  0  0  0
  -13.4559  -41.7211   -9.1733 C   0  0  0  0  0  0  0  0  0  0  0  0
  -15.2253  -40.4152   -8.0463 C   0  0  0  0  0  0  0  0  0  0  0  0
  -16.0340  -39.1703   -7.7831 C   0  0  2  0  0  0  0  0  0  0  0  0
  -16.4115  -39.4614   -6.3677 O   0  0  0  0  0  0  0  0  0  0  0  0
  -17.3985  -39.1627   -8.3874 C   0  0  2  0  0  0  0  0  0  0  0  0
  -18.1072  -37.9149   -8.6930 C   0  0  0  0  0  0  0  0  0  0  0  0
  -19.5899  -37.9640   -8.7946 C   0  0  0  0  0  0  0  0  0  0  0  0
  -20.3530  -37.3077   -7.8650 C   0  0  0  0  0  0  0  0  0  0  0  0
  -21.7167  -37.3554   -7.9158 C   0  0  0  0  0  0  0  0  0  0  0  0
  -22.3801  -38.0684   -8.9076 C   0  0  0  0  0  0  0  0  0  0  0  0
  -21.5851  -38.7185   -9.8274 C   0  0  0  0  0  0  0  0  0  0  0  0
  -20.2147  -38.6706   -9.7756 C   0  0  0  0  0  0  0  0  0  0  0  0
  -18.2997  -39.9983   -7.5390 N   0  0  0  0  0  0  0  0  0  0  0  0
  -18.5129  -41.3650   -7.7567 C   0  0  0  0  0  0  0  0  0  0  0  0
  -17.6964  -41.9616   -8.5003 O   0  0  0  0  0  0  0  0  0  0  0  0
  -19.6041  -42.1415   -7.1872 C   0  0  0  0  0  0  0  0  0  0  0  0
  -20.4505  -41.6377   -6.2323 C   0  0  0  0  0  0  0  0  0  0  0  0
  -21.4949  -42.3728   -5.6879 C   0  0  0  0  0  0  0  0  0  0  0  0
  -22.3688  -41.8099   -4.7282 N   0  0  0  0  0  0  0  0  0  0  0  0
  -22.3918  -40.4230   -4.4018 C   0  0  0  0  0  0  0  0  0  0  0  0
  -21.5137  -39.9781   -3.2807 C   0  0  0  0  0  0  0  0  0  0  0  0
  -21.4249  -38.5132   -3.0255 C   0  0  0  0  0  0  0  0  0  0  0  0
  -19.9847  -38.2448   -2.5650 C   0  0  0  0  0  0  0  0  0  0  0  0
  -21.6351  -43.6246   -6.1530 N   0  0  0  0  0  0  0  0  0  0  0  0
  -20.8628  -44.1987   -7.0773 C   0  0  0  0  0  0  0  0  0  0  0  0
  -19.8314  -43.4353   -7.5977 C   0  0  0  0  0  0  0  0  0  0  0  0
  -21.1213  -45.4946   -7.4621 O   0  0  0  0  0  0  0  0  0  0  0  0
  -21.1155  -46.5120   -6.4875 C   0  0  0  0  0  0  0  0  0  0  0  0
  1  2  1  0
  2  3  1  0
  3  4  1  0
  4  5  1  0
  5  6  1  0
  6  7  2  0
  6  8  1  0
  8  9  1  6
  8 10  1  0
 10 11  1  0
 11 12  1  1
 11 13  1  0
 13 14  1  1
 14 15  1  0
 15 16  2  0
 16 17  1  0
 17 18  2  0
 18 19  1  0
 19 20  2  0
 13 21  1  0
 21 22  1  0
 22 23  2  0
 22 24  1  0
 24 25  2  0
 25 26  1  0
 26 27  1  0
 27 28  1  0
 28 29  1  0
 29 30  1  0
 30 31  1  0
 26 32  2  0
 32 33  1  0
 33 34  2  0
 33 35  1  0
 35 36  1  0
 20 15  1  0
 34 24  1  0
M  END
$$$$
