
     RDKit          3D

 36 37  0  0  0  0  0  0  0  0999 V2000
  -13.1023  -33.5472  -11.9790 C   0  0  0  0  0  0  0  0  0  0  0  0
  -12.5929  -34.3836  -10.8037 C   0  0  0  0  0  0  0  0  0  0  0  0
  -12.5552  -35.8446  -11.2196 C   0  0  0  0  0  0  0  0  0  0  0  0
  -11.9218  -36.5968  -10.0779 C   0  0  0  0  0  0  0  0  0  0  0  0
  -12.8158  -36.9398   -9.0212 N   0  0  0  0  0  0  0  0  0  0  0  0
  -13.6772  -38.0633   -9.0981 C   0  0  0  0  0  0  0  0  0  0  0  0
  -14.4911  -38.1036  -10.0545 O   0  0  0  0  0  0  0  0  0  0  0  0
  -13.6107  -39.1686   -8.0610 C   0  0  2  0  0  0  0  0  0  0  0  0
  -12.6148  -40.2186   -8.5795 C   0  0  0  0  0  0  0  0  0  0  0  0
  -14.9605  -39.7342   -7.9718 C   0  0  0  0  0  0  0  0  0  0  0  0
  -16.0447  -38.9530   -7.2738 C   0  0  2  0  0  0  0  0  0  0  0  0
  -16.0006  -39.6619   -5.9600 O   0  0  0  0  0  0  0  0  0  0  0  0
  -17.4377  -39.3044   -7.6774 C   0  0  2  0  0  0  0  0  0  0  0  0
  -18.5890  -39.0473   -6.8050 C   0  0  0  0  0  0  0  0  0  0  0  0
  -19.9387  -39.0082   -7.4278 C   0  0  0  0  0  0  0  0  0  0  0  0
  -21.0466  -38.8790   -6.6321 C   0  0  0  0  0  0  0  0  0  0  0  0
  -22.3010  -38.8662   -7.1715 C   0  0  0  0  0  0  0  0  0  0  0  0
  -22.5013  -38.9836   -8.5421 C   0  0  0  0  0  0  0  0  0  0  0  0
  -21.3675  -39.1130   -9.3157 C   0  0  0  0  0  0  0  0  0  0  0  0
  -20.1073  -39.1261   -8.7731 C   0  0  0  0  0  0  0  0  0  0  0  0
  -17.4731  -40.7479   -8.0589 N   0  0  0  0  0  0  0  0  0  0  0  0
  -18.6095  -41.3785   -8.5803 C   0  0  0  0  0  0  0  0  0  0  0  0
  -19.1963  -40.8082   -9.5321 O   0  0  0  0  0  0  0  0  0  0  0  0
  -19.1574  -42.6399   -8.1040 C   0  0  0  0  0  0  0  0  0  0  0  0
  -20.4764  -42.7892   -7.7573 C   0  0  0  0  0  0  0  0  0  0  0  0
  -21.0050  -43.9909   -7.3053 C   0  0  0  0  0  0  0  0  0  0  0  0
  -22.3778  -44.1173   -6.9876 N   0  0  0  0  0  0  0  0  0  0  0  0
  -23.2383  -45.0843   -7.5836 C   0  0  0  0  0  0  0  0  0  0  0  0
  -23.3249  -46.4151   -6.9148 C   0  0  0  0  0  0  0  0  0  0  0  0
  -24.0982  -47.4794   -7.6136 C   0  0  0  0  0  0  0  0  0  0  0  0
  -23.8179  -48.7832   -6.8521 C   0  0  0  0  0  0  0  0  0  0  0  0
  -20.1425  -45.0167   -7.2238 N   0  0  0  0  0  0  0  0  0  0  0  0
  -18.8467  -44.9661   -7.5378 C   0  0  0  0  0  0  0  0  0  0  0  0
  -18.3547  -43.7514   -7.9850 C   0  0  0  0  0  0  0  0  0  0  0  0
  -18.0759  -46.0986   -7.4055 O   0  0  0  0  0  0  0  0  0  0  0  0
  -16.7410  -46.0744   -7.8555 C   0  0  0  0  0  0  0  0  0  0  0  0
  1  2  1  0
  2  3  1  0
  3  4  1  0
  4  5  1  0
  5  6  1  0
  6  7  2  0
  6  8  1  0
  8  9  1  6
  8 10  1  0
 10 11  1  0
 11 12  1  1
 11 13  1  0
 13 14  1  1
 14 15  1  0
 15 16  2  0
 16 17  1  0
 17 18  2  0
 18 19  1  0
 19 20  2  0
 13 21  1  0
 21 22  1  0
 22 23  2  0
 22 24  1  0
 24 25  2  0
 25 26  1  0
 26 27  1  0
 27 28  1  0
 28 29  1  0
 29 30  1  0
 30 31  1  0
 26 32  2  0
 32 33  1  0
 33 34  2  0
 33 35  1  0
 35 36  1  0
 20 15  1  0
 34 24  1  0
M  END
$$$$
