
     RDKit          3D

 36 37  0  0  0  0  0  0  0  0999 V2000
  -11.9178  -35.7126  -14.7285 C   0  0  0  0  0  0  0  0  0  0  0  0
  -12.6658  -35.4112  -13.4285 C   0  0  0  0  0  0  0  0  0  0  0  0
  -12.2478  -36.4229  -12.3746 C   0  0  0  0  0  0  0  0  0  0  0  0
  -13.0043  -36.0695  -11.1203 C   0  0  0  0  0  0  0  0  0  0  0  0
  -12.8311  -36.9860  -10.0416 N   0  0  0  0  0  0  0  0  0  0  0  0
  -13.5140  -38.2274   -9.9909 C   0  0  0  0  0  0  0  0  0  0  0  0
  -13.8635  -38.7403  -11.0834 O   0  0  0  0  0  0  0  0  0  0  0  0
  -13.8065  -38.9022   -8.6639 C   0  0  2  0  0  0  0  0  0  0  0  0
  -12.8616  -40.1093   -8.5502 C   0  0  0  0  0  0  0  0  0  0  0  0
  -15.2041  -39.3418   -8.7223 C   0  0  0  0  0  0  0  0  0  0  0  0
  -16.0756  -39.1990   -7.5004 C   0  0  2  0  0  0  0  0  0  0  0  0
  -15.8250  -40.5461   -6.9060 O   0  0  0  0  0  0  0  0  0  0  0  0
  -17.5412  -39.3276   -7.7500 C   0  0  2  0  0  0  0  0  0  0  0  0
  -18.5051  -38.3399   -7.2519 C   0  0  0  0  0  0  0  0  0  0  0  0
  -19.9463  -38.5690   -7.5375 C   0  0  0  0  0  0  0  0  0  0  0  0
  -20.3706  -38.6663   -8.8367 C   0  0  0  0  0  0  0  0  0  0  0  0
  -21.6909  -38.8503   -9.1323 C   0  0  0  0  0  0  0  0  0  0  0  0
  -22.6509  -38.9451   -8.1314 C   0  0  0  0  0  0  0  0  0  0  0  0
  -22.1931  -38.8426   -6.8350 C   0  0  0  0  0  0  0  0  0  0  0  0
  -20.8663  -38.6573   -6.5386 C   0  0  0  0  0  0  0  0  0  0  0  0
  -17.9882  -40.6726   -7.2793 N   0  0  0  0  0  0  0  0  0  0  0  0
  -18.4100  -41.6898   -8.1444 C   0  0  0  0  0  0  0  0  0  0  0  0
  -18.2052  -41.5210   -9.3712 O   0  0  0  0  0  0  0  0  0  0  0  0
  -19.0635  -42.9220   -7.7292 C   0  0  0  0  0  0  0  0  0  0  0  0
  -20.1877  -42.9342   -6.9429 C   0  0  0  0  0  0  0  0  0  0  0  0
  -20.8170  -44.1066   -6.5464 C   0  0  0  0  0  0  0  0  0  0  0  0
  -21.9942  -44.0806   -5.7622 N   0  0  0  0  0  0  0  0  0  0  0  0
  -22.1720  -43.2250   -4.6366 C   0  0  0  0  0  0  0  0  0  0  0  0
  -23.3760  -42.3440   -4.6411 C   0  0  0  0  0  0  0  0  0  0  0  0
  -23.1747  -40.9176   -5.0200 C   0  0  0  0  0  0  0  0  0  0  0  0
  -24.5689  -40.2738   -5.0226 C   0  0  0  0  0  0  0  0  0  0  0  0
  -20.2576  -45.2475   -6.9802 N   0  0  0  0  0  0  0  0  0  0  0  0
  -19.1679  -45.3339   -7.7455 C   0  0  0  0  0  0  0  0  0  0  0  0
  -18.5673  -44.1443   -8.1215 C   0  0  0  0  0  0  0  0  0  0  0  0
  -18.7017  -46.5743   -8.1175 O   0  0  0  0  0  0  0  0  0  0  0  0
  -19.4010  -47.7227   -7.6968 C   0  0  0  0  0  0  0  0  0  0  0  0
  1  2  1  0
  2  3  1  0
  3  4  1  0
  4  5  1  0
  5  6  1  0
  6  7  2  0
  6  8  1  0
  8  9  1  6
  8 10  1  0
 10 11  1  0
 11 12  1  1
 11 13  1  0
 13 14  1  1
 14 15  1  0
 15 16  2  0
 16 17  1  0
 17 18  2  0
 18 19  1  0
 19 20  2  0
 13 21  1  0
 21 22  1  0
 22 23  2  0
 22 24  1  0
 24 25  2  0
 25 26  1  0
 26 27  1  0
 27 28  1  0
 28 29  1  0
 29 30  1  0
 30 31  1  0
 26 32  2  0
 32 33  1  0
 33 34  2  0
 33 35  1  0
 35 36  1  0
 20 15  1  0
 34 24  1  0
M  END
$$$$
