
     RDKit          3D

 36 37  0  0  0  0  0  0  0  0999 V2000
  -11.6976  -35.2422  -11.2405 C   0  0  0  0  0  0  0  0  0  0  0  0
  -11.9232  -36.6361  -11.8292 C   0  0  0  0  0  0  0  0  0  0  0  0
  -11.3949  -37.6737  -10.8529 C   0  0  0  0  0  0  0  0  0  0  0  0
  -12.4064  -37.7660   -9.7398 C   0  0  0  0  0  0  0  0  0  0  0  0
  -12.2611  -38.9059   -8.8954 N   0  0  0  0  0  0  0  0  0  0  0  0
  -13.1404  -40.0156   -8.9702 C   0  0  0  0  0  0  0  0  0  0  0  0
  -13.5776  -40.3317  -10.1050 O   0  0  0  0  0  0  0  0  0  0  0  0
  -13.5318  -40.7851   -7.7226 C   0  0  2  0  0  0  0  0  0  0  0  0
  -13.1514  -42.2558   -7.9580 C   0  0  0  0  0  0  0  0  0  0  0  0
  -14.9845  -40.6410   -7.5861 C   0  0  0  0  0  0  0  0  0  0  0  0
  -15.6145  -39.2854   -7.7822 C   0  0  2  0  0  0  0  0  0  0  0  0
  -16.0197  -39.0362   -6.3664 O   0  0  0  0  0  0  0  0  0  0  0  0
  -16.9687  -39.3017   -8.4088 C   0  0  2  0  0  0  0  0  0  0  0  0
  -17.8942  -38.1692   -8.2914 C   0  0  0  0  0  0  0  0  0  0  0  0
  -19.2143  -38.2766   -8.9675 C   0  0  0  0  0  0  0  0  0  0  0  0
  -19.2659  -38.5403  -10.3110 C   0  0  0  0  0  0  0  0  0  0  0  0
  -20.4615  -38.6191  -10.9658 C   0  0  0  0  0  0  0  0  0  0  0  0
  -21.6666  -38.4353  -10.2977 C   0  0  0  0  0  0  0  0  0  0  0  0
  -21.5817  -38.1707   -8.9473 C   0  0  0  0  0  0  0  0  0  0  0  0
  -20.3799  -38.0913   -8.2900 C   0  0  0  0  0  0  0  0  0  0  0  0
  -17.6913  -40.5254   -7.9496 N   0  0  0  0  0  0  0  0  0  0  0  0
  -18.1232  -41.5355   -8.8179 C   0  0  0  0  0  0  0  0  0  0  0  0
  -17.6979  -41.4980   -9.9982 O   0  0  0  0  0  0  0  0  0  0  0  0
  -19.0230  -42.6204   -8.4554 C   0  0  0  0  0  0  0  0  0  0  0  0
  -19.8686  -42.5510   -7.3773 C   0  0  0  0  0  0  0  0  0  0  0  0
  -20.7311  -43.5816   -7.0288 C   0  0  0  0  0  0  0  0  0  0  0  0
  -21.6132  -43.4625   -5.9292 N   0  0  0  0  0  0  0  0  0  0  0  0
  -21.4668  -42.4829   -4.9046 C   0  0  0  0  0  0  0  0  0  0  0  0
  -22.0599  -41.1390   -5.1650 C   0  0  0  0  0  0  0  0  0  0  0  0
  -21.2495  -39.9505   -4.7781 C   0  0  0  0  0  0  0  0  0  0  0  0
  -22.0805  -38.7194   -5.1681 C   0  0  0  0  0  0  0  0  0  0  0  0
  -20.6932  -44.6687   -7.8159 N   0  0  0  0  0  0  0  0  0  0  0  0
  -19.9064  -44.8263   -8.8820 C   0  0  0  0  0  0  0  0  0  0  0  0
  -19.0596  -43.7777   -9.1994 C   0  0  0  0  0  0  0  0  0  0  0  0
  -19.9715  -45.9981   -9.6010 O   0  0  0  0  0  0  0  0  0  0  0  0
  -20.5964  -47.1212   -9.0240 C   0  0  0  0  0  0  0  0  0  0  0  0
  1  2  1  0
  2  3  1  0
  3  4  1  0
  4  5  1  0
  5  6  1  0
  6  7  2  0
  6  8  1  0
  8  9  1  6
  8 10  1  0
 10 11  1  0
 11 12  1  1
 11 13  1  0
 13 14  1  1
 14 15  1  0
 15 16  2  0
 16 17  1  0
 17 18  2  0
 18 19  1  0
 19 20  2  0
 13 21  1  0
 21 22  1  0
 22 23  2  0
 22 24  1  0
 24 25  2  0
 25 26  1  0
 26 27  1  0
 27 28  1  0
 28 29  1  0
 29 30  1  0
 30 31  1  0
 26 32  2  0
 32 33  1  0
 33 34  2  0
 33 35  1  0
 35 36  1  0
 20 15  1  0
 34 24  1  0
M  END
$$$$
