
     RDKit          3D

 36 37  0  0  0  0  0  0  0  0999 V2000
  -13.6181  -33.8905  -11.2917 C   0  0  0  0  0  0  0  0  0  0  0  0
  -13.6963  -35.3748  -11.6539 C   0  0  0  0  0  0  0  0  0  0  0  0
  -12.3875  -36.0444  -11.2694 C   0  0  0  0  0  0  0  0  0  0  0  0
  -12.5315  -37.5004  -11.6297 C   0  0  0  0  0  0  0  0  0  0  0  0
  -12.3815  -38.4028  -10.5358 N   0  0  0  0  0  0  0  0  0  0  0  0
  -13.4562  -39.1965  -10.0611 C   0  0  0  0  0  0  0  0  0  0  0  0
  -14.4878  -39.2599  -10.7755 O   0  0  0  0  0  0  0  0  0  0  0  0
  -13.3543  -39.9367   -8.7407 C   0  0  2  0  0  0  0  0  0  0  0  0
  -12.5331  -41.2107   -8.9963 C   0  0  0  0  0  0  0  0  0  0  0  0
  -14.7263  -40.2743   -8.3487 C   0  0  0  0  0  0  0  0  0  0  0  0
  -15.5814  -39.2300   -7.6770 C   0  0  2  0  0  0  0  0  0  0  0  0
  -15.7103  -39.8910   -6.3439 O   0  0  0  0  0  0  0  0  0  0  0  0
  -17.0192  -39.2370   -8.0764 C   0  0  2  0  0  0  0  0  0  0  0  0
  -17.9066  -38.0995   -7.8094 C   0  0  0  0  0  0  0  0  0  0  0  0
  -19.3317  -38.2182   -8.2171 C   0  0  0  0  0  0  0  0  0  0  0  0
  -20.3106  -38.2233   -7.2585 C   0  0  0  0  0  0  0  0  0  0  0  0
  -21.6262  -38.3572   -7.5990 C   0  0  0  0  0  0  0  0  0  0  0  0
  -22.0210  -38.4932   -8.9249 C   0  0  0  0  0  0  0  0  0  0  0  0
  -21.0133  -38.4853   -9.8656 C   0  0  0  0  0  0  0  0  0  0  0  0
  -19.6914  -38.3511   -9.5229 C   0  0  0  0  0  0  0  0  0  0  0  0
  -17.6655  -40.4576   -7.5080 N   0  0  0  0  0  0  0  0  0  0  0  0
  -17.9269  -41.6104   -8.2585 C   0  0  0  0  0  0  0  0  0  0  0  0
  -17.3017  -41.7459   -9.3385 O   0  0  0  0  0  0  0  0  0  0  0  0
  -18.8637  -42.6583   -7.8812 C   0  0  0  0  0  0  0  0  0  0  0  0
  -19.6057  -42.6070   -6.7284 C   0  0  0  0  0  0  0  0  0  0  0  0
  -20.5030  -43.6022   -6.3651 C   0  0  0  0  0  0  0  0  0  0  0  0
  -21.2760  -43.5005   -5.1846 N   0  0  0  0  0  0  0  0  0  0  0  0
  -21.4602  -42.2837   -4.4663 C   0  0  0  0  0  0  0  0  0  0  0  0
  -22.1560  -41.1750   -5.1823 C   0  0  0  0  0  0  0  0  0  0  0  0
  -22.2161  -39.8538   -4.4970 C   0  0  0  0  0  0  0  0  0  0  0  0
  -23.7057  -39.4994   -4.3791 C   0  0  0  0  0  0  0  0  0  0  0  0
  -20.6080  -44.6355   -7.2160 N   0  0  0  0  0  0  0  0  0  0  0  0
  -19.9294  -44.7717   -8.3568 C   0  0  0  0  0  0  0  0  0  0  0  0
  -19.0438  -43.7596   -8.6866 C   0  0  0  0  0  0  0  0  0  0  0  0
  -20.1365  -45.8874   -9.1357 O   0  0  0  0  0  0  0  0  0  0  0  0
  -21.4413  -46.4051   -9.2565 C   0  0  0  0  0  0  0  0  0  0  0  0
  1  2  1  0
  2  3  1  0
  3  4  1  0
  4  5  1  0
  5  6  1  0
  6  7  2  0
  6  8  1  0
  8  9  1  6
  8 10  1  0
 10 11  1  0
 11 12  1  1
 11 13  1  0
 13 14  1  1
 14 15  1  0
 15 16  2  0
 16 17  1  0
 17 18  2  0
 18 19  1  0
 19 20  2  0
 13 21  1  0
 21 22  1  0
 22 23  2  0
 22 24  1  0
 24 25  2  0
 25 26  1  0
 26 27  1  0
 27 28  1  0
 28 29  1  0
 29 30  1  0
 30 31  1  0
 26 32  2  0
 32 33  1  0
 33 34  2  0
 33 35  1  0
 35 36  1  0
 20 15  1  0
 34 24  1  0
M  END
$$$$
