
     RDKit          3D

 36 37  0  0  0  0  0  0  0  0999 V2000
  -12.9887  -34.7051  -12.9178 C   0  0  0  0  0  0  0  0  0  0  0  0
  -12.6958  -36.2046  -12.9953 C   0  0  0  0  0  0  0  0  0  0  0  0
  -12.8524  -36.8085  -11.6097 C   0  0  0  0  0  0  0  0  0  0  0  0
  -12.5109  -38.2703  -11.7404 C   0  0  0  0  0  0  0  0  0  0  0  0
  -12.6818  -39.0314  -10.5468 N   0  0  0  0  0  0  0  0  0  0  0  0
  -13.9255  -39.6161  -10.1977 C   0  0  0  0  0  0  0  0  0  0  0  0
  -14.8563  -39.5405  -11.0383 O   0  0  0  0  0  0  0  0  0  0  0  0
  -14.1146  -40.3042   -8.8589 C   0  0  2  0  0  0  0  0  0  0  0  0
  -13.6137  -41.7489   -9.0160 C   0  0  0  0  0  0  0  0  0  0  0  0
  -15.5542  -40.2820   -8.5819 C   0  0  0  0  0  0  0  0  0  0  0  0
  -16.1827  -39.0252   -8.0355 C   0  0  2  0  0  0  0  0  0  0  0  0
  -15.9619  -39.2952   -6.5833 O   0  0  0  0  0  0  0  0  0  0  0  0
  -17.6749  -39.0096   -8.0416 C   0  0  2  0  0  0  0  0  0  0  0  0
  -18.4444  -37.9269   -7.4183 C   0  0  0  0  0  0  0  0  0  0  0  0
  -19.9278  -37.9933   -7.4969 C   0  0  0  0  0  0  0  0  0  0  0  0
  -20.5254  -39.0744   -8.0897 C   0  0  0  0  0  0  0  0  0  0  0  0
  -21.8841  -39.1524   -8.2007 C   0  0  0  0  0  0  0  0  0  0  0  0
  -22.7093  -38.1427   -7.7193 C   0  0  0  0  0  0  0  0  0  0  0  0
  -22.0785  -37.0682   -7.1292 C   0  0  0  0  0  0  0  0  0  0  0  0
  -20.7131  -36.9902   -7.0183 C   0  0  0  0  0  0  0  0  0  0  0  0
  -18.1669  -40.2996   -7.4722 N   0  0  0  0  0  0  0  0  0  0  0  0
  -18.6915  -41.3358   -8.2545 C   0  0  0  0  0  0  0  0  0  0  0  0
  -18.6201  -41.2062   -9.5010 O   0  0  0  0  0  0  0  0  0  0  0  0
  -19.3091  -42.5460   -7.7328 C   0  0  0  0  0  0  0  0  0  0  0  0
  -19.9128  -42.5966   -6.5019 C   0  0  0  0  0  0  0  0  0  0  0  0
  -20.5062  -43.7474   -6.0006 C   0  0  0  0  0  0  0  0  0  0  0  0
  -21.1487  -43.7545   -4.7403 N   0  0  0  0  0  0  0  0  0  0  0  0
  -20.8004  -42.8760   -3.6737 C   0  0  0  0  0  0  0  0  0  0  0  0
  -21.7555  -42.7888   -2.5309 C   0  0  0  0  0  0  0  0  0  0  0  0
  -21.3957  -41.8748   -1.4110 C   0  0  0  0  0  0  0  0  0  0  0  0
  -22.4572  -42.0918   -0.3227 C   0  0  0  0  0  0  0  0  0  0  0  0
  -20.4569  -44.8268   -6.7977 N   0  0  0  0  0  0  0  0  0  0  0  0
  -19.8932  -44.8724   -8.0062 C   0  0  0  0  0  0  0  0  0  0  0  0
  -19.3114  -43.7060   -8.4734 C   0  0  0  0  0  0  0  0  0  0  0  0
  -19.9154  -46.0510   -8.7167 O   0  0  0  0  0  0  0  0  0  0  0  0
  -20.5863  -47.1647   -8.1741 C   0  0  0  0  0  0  0  0  0  0  0  0
  1  2  1  0
  2  3  1  0
  3  4  1  0
  4  5  1  0
  5  6  1  0
  6  7  2  0
  6  8  1  0
  8  9  1  6
  8 10  1  0
 10 11  1  0
 11 12  1  1
 11 13  1  0
 13 14  1  1
 14 15  1  0
 15 16  2  0
 16 17  1  0
 17 18  2  0
 18 19  1  0
 19 20  2  0
 13 21  1  0
 21 22  1  0
 22 23  2  0
 22 24  1  0
 24 25  2  0
 25 26  1  0
 26 27  1  0
 27 28  1  0
 28 29  1  0
 29 30  1  0
 30 31  1  0
 26 32  2  0
 32 33  1  0
 33 34  2  0
 33 35  1  0
 35 36  1  0
 20 15  1  0
 34 24  1  0
M  END
$$$$
