
     RDKit          3D

 36 37  0  0  0  0  0  0  0  0999 V2000
   -8.1690  -41.8939  -12.7756 C   0  0  0  0  0  0  0  0  0  0  0  0
   -9.6582  -41.6980  -13.0661 C   0  0  0  0  0  0  0  0  0  0  0  0
  -10.3834  -41.4303  -11.7578 C   0  0  0  0  0  0  0  0  0  0  0  0
  -10.7191  -39.9613  -11.7491 C   0  0  0  0  0  0  0  0  0  0  0  0
  -10.8579  -39.3893  -10.4502 N   0  0  0  0  0  0  0  0  0  0  0  0
  -11.7153  -39.9479   -9.4689 C   0  0  0  0  0  0  0  0  0  0  0  0
  -11.3701  -41.0407   -8.9537 O   0  0  0  0  0  0  0  0  0  0  0  0
  -12.9974  -39.2453   -9.0633 C   0  0  2  0  0  0  0  0  0  0  0  0
  -12.6265  -38.2050   -7.9942 C   0  0  0  0  0  0  0  0  0  0  0  0
  -13.8743  -40.2768   -8.5006 C   0  0  0  0  0  0  0  0  0  0  0  0
  -15.3687  -40.1323   -8.6383 C   0  0  2  0  0  0  0  0  0  0  0  0
  -15.6164  -39.3327   -7.4014 O   0  0  0  0  0  0  0  0  0  0  0  0
  -16.1573  -41.3493   -8.2863 C   0  0  2  0  0  0  0  0  0  0  0  0
  -15.9080  -42.6485   -8.9209 C   0  0  0  0  0  0  0  0  0  0  0  0
  -17.0848  -43.4597   -9.3309 C   0  0  0  0  0  0  0  0  0  0  0  0
  -16.8914  -44.6540   -9.9738 C   0  0  0  0  0  0  0  0  0  0  0  0
  -17.9516  -45.4093  -10.3862 C   0  0  0  0  0  0  0  0  0  0  0  0
  -19.2617  -44.9973  -10.1710 C   0  0  0  0  0  0  0  0  0  0  0  0
  -19.4236  -43.7914   -9.5227 C   0  0  0  0  0  0  0  0  0  0  0  0
  -18.3578  -43.0327   -9.1089 C   0  0  0  0  0  0  0  0  0  0  0  0
  -17.6093  -41.0390   -8.4471 N   0  0  0  0  0  0  0  0  0  0  0  0
  -18.3086  -41.2280   -9.6454 C   0  0  0  0  0  0  0  0  0  0  0  0
  -17.8591  -42.0870  -10.4426 O   0  0  0  0  0  0  0  0  0  0  0  0
  -19.5121  -40.5073  -10.0329 C   0  0  0  0  0  0  0  0  0  0  0  0
  -20.4343  -40.0628   -9.1195 C   0  0  0  0  0  0  0  0  0  0  0  0
  -21.5824  -39.3721   -9.4834 C   0  0  0  0  0  0  0  0  0  0  0  0
  -22.4956  -38.8997   -8.5116 N   0  0  0  0  0  0  0  0  0  0  0  0
  -22.2688  -38.9906   -7.1077 C   0  0  0  0  0  0  0  0  0  0  0  0
  -21.1826  -38.1383   -6.5422 C   0  0  0  0  0  0  0  0  0  0  0  0
  -21.5887  -37.0380   -5.6239 C   0  0  0  0  0  0  0  0  0  0  0  0
  -20.8537  -37.2915   -4.2997 C   0  0  0  0  0  0  0  0  0  0  0  0
  -21.7458  -39.1588  -10.7989 N   0  0  0  0  0  0  0  0  0  0  0  0
  -20.9057  -39.5527  -11.7578 C   0  0  0  0  0  0  0  0  0  0  0  0
  -19.7713  -40.2385  -11.3576 C   0  0  0  0  0  0  0  0  0  0  0  0
  -21.1991  -39.2654  -13.0715 O   0  0  0  0  0  0  0  0  0  0  0  0
  -21.8604  -38.0595  -13.3770 C   0  0  0  0  0  0  0  0  0  0  0  0
  1  2  1  0
  2  3  1  0
  3  4  1  0
  4  5  1  0
  5  6  1  0
  6  7  2  0
  6  8  1  0
  8  9  1  1
  8 10  1  0
 10 11  1  0
 11 12  1  1
 11 13  1  0
 13 14  1  6
 14 15  1  0
 15 16  2  0
 16 17  1  0
 17 18  2  0
 18 19  1  0
 19 20  2  0
 13 21  1  0
 21 22  1  0
 22 23  2  0
 22 24  1  0
 24 25  2  0
 25 26  1  0
 26 27  1  0
 27 28  1  0
 28 29  1  0
 29 30  1  0
 30 31  1  0
 26 32  2  0
 32 33  1  0
 33 34  2  0
 33 35  1  0
 35 36  1  0
 20 15  1  0
 34 24  1  0
M  END
$$$$
