
     RDKit          3D

 36 37  0  0  0  0  0  0  0  0999 V2000
  -15.3473  -34.7813  -12.9036 C   0  0  0  0  0  0  0  0  0  0  0  0
  -14.8082  -34.5317  -11.4939 C   0  0  0  0  0  0  0  0  0  0  0  0
  -13.3824  -35.0509  -11.4135 C   0  0  0  0  0  0  0  0  0  0  0  0
  -13.4696  -36.5525  -11.5041 C   0  0  0  0  0  0  0  0  0  0  0  0
  -13.7042  -37.2120  -10.2617 N   0  0  0  0  0  0  0  0  0  0  0  0
  -13.8183  -38.6220  -10.1671 C   0  0  0  0  0  0  0  0  0  0  0  0
  -13.4478  -39.3000  -11.1580 O   0  0  0  0  0  0  0  0  0  0  0  0
  -14.3677  -39.2770   -8.9137 C   0  0  2  0  0  0  0  0  0  0  0  0
  -13.6595  -40.6329   -8.7621 C   0  0  0  0  0  0  0  0  0  0  0  0
  -15.8040  -39.4650   -9.1406 C   0  0  0  0  0  0  0  0  0  0  0  0
  -16.7288  -39.5937   -7.9568 C   0  0  2  0  0  0  0  0  0  0  0  0
  -16.1559  -40.8461   -7.3789 O   0  0  0  0  0  0  0  0  0  0  0  0
  -18.0983  -40.0936   -8.2752 C   0  0  2  0  0  0  0  0  0  0  0  0
  -19.2145  -39.9592   -7.3324 C   0  0  0  0  0  0  0  0  0  0  0  0
  -20.4076  -39.1884   -7.7723 C   0  0  0  0  0  0  0  0  0  0  0  0
  -20.2612  -37.8860   -8.1717 C   0  0  0  0  0  0  0  0  0  0  0  0
  -21.3410  -37.1439   -8.5562 C   0  0  0  0  0  0  0  0  0  0  0  0
  -22.6242  -37.6784   -8.5569 C   0  0  0  0  0  0  0  0  0  0  0  0
  -22.7390  -38.9904   -8.1492 C   0  0  0  0  0  0  0  0  0  0  0  0
  -21.6537  -39.7356   -7.7625 C   0  0  0  0  0  0  0  0  0  0  0  0
  -18.0023  -41.5335   -8.6596 N   0  0  0  0  0  0  0  0  0  0  0  0
  -17.5011  -42.5257   -7.8081 C   0  0  0  0  0  0  0  0  0  0  0  0
  -16.3206  -42.3914   -7.4030 O   0  0  0  0  0  0  0  0  0  0  0  0
  -18.2432  -43.6943   -7.3592 C   0  0  0  0  0  0  0  0  0  0  0  0
  -19.5993  -43.8181   -7.5259 C   0  0  0  0  0  0  0  0  0  0  0  0
  -20.3118  -44.9320   -7.1025 C   0  0  0  0  0  0  0  0  0  0  0  0
  -21.7054  -45.0403   -7.3204 N   0  0  0  0  0  0  0  0  0  0  0  0
  -22.3898  -44.3826   -8.3833 C   0  0  0  0  0  0  0  0  0  0  0  0
  -22.4000  -45.0695   -9.7077 C   0  0  0  0  0  0  0  0  0  0  0  0
  -23.0016  -44.3313  -10.8531 C   0  0  0  0  0  0  0  0  0  0  0  0
  -22.8712  -45.2539  -12.0738 C   0  0  0  0  0  0  0  0  0  0  0  0
  -19.5913  -45.8981   -6.5106 N   0  0  0  0  0  0  0  0  0  0  0  0
  -18.2733  -45.8661   -6.3051 C   0  0  0  0  0  0  0  0  0  0  0  0
  -17.5960  -44.7397   -6.7408 C   0  0  0  0  0  0  0  0  0  0  0  0
  -17.6616  -46.9306   -5.6831 O   0  0  0  0  0  0  0  0  0  0  0  0
  -17.7464  -48.2079   -6.2716 C   0  0  0  0  0  0  0  0  0  0  0  0
  1  2  1  0
  2  3  1  0
  3  4  1  0
  4  5  1  0
  5  6  1  0
  6  7  2  0
  6  8  1  0
  8  9  1  6
  8 10  1  0
 10 11  1  0
 11 12  1  1
 11 13  1  0
 13 14  1  1
 14 15  1  0
 15 16  2  0
 16 17  1  0
 17 18  2  0
 18 19  1  0
 19 20  2  0
 13 21  1  0
 21 22  1  0
 22 23  2  0
 22 24  1  0
 24 25  2  0
 25 26  1  0
 26 27  1  0
 27 28  1  0
 28 29  1  0
 29 30  1  0
 30 31  1  0
 26 32  2  0
 32 33  1  0
 33 34  2  0
 33 35  1  0
 35 36  1  0
 20 15  1  0
 34 24  1  0
M  END
$$$$
