
     RDKit          3D

 42 45  0  0  0  0  0  0  0  0999 V2000
  -12.6624  -34.2220  -11.3689 C   0  0  0  0  0  0  0  0  0  0  0  0
  -13.7641  -35.1687  -11.7846 C   0  0  0  0  0  0  0  0  0  0  0  0
  -13.9015  -35.0370  -13.2928 C   0  0  0  0  0  0  0  0  0  0  0  0
  -13.2986  -36.5767  -11.5238 C   0  0  0  0  0  0  0  0  0  0  0  0
  -13.5207  -37.1763  -10.2990 C   0  0  0  0  0  0  0  0  0  0  0  0
  -13.1151  -38.4621  -10.0110 C   0  0  0  0  0  0  0  0  0  0  0  0
  -12.4607  -39.1822  -10.9817 C   0  0  0  0  0  0  0  0  0  0  0  0
  -12.2373  -38.5825  -12.2095 C   0  0  0  0  0  0  0  0  0  0  0  0
  -12.6432  -37.2981  -12.4959 C   0  0  0  0  0  0  0  0  0  0  0  0
  -12.0560  -40.4669  -10.6918 O   0  0  0  0  0  0  0  0  0  0  0  0
  -11.6526  -40.8668   -9.3997 C   0  0  0  0  0  0  0  0  0  0  0  0
  -12.0390  -42.3142   -9.1358 C   0  0  0  0  0  0  0  0  0  0  0  0
  -10.1388  -40.8127   -9.3558 C   0  0  0  0  0  0  0  0  0  0  0  0
  -12.1695  -39.9569   -8.3006 C   0  0  0  0  0  0  0  0  0  0  0  0
  -13.3500  -39.1299   -8.6964 C   0  0  2  0  0  0  0  0  0  0  0  0
  -14.6132  -39.7637   -8.6161 N   0  0  0  0  0  0  0  0  0  0  0  0
  -15.7765  -38.9635   -8.4541 C   0  0  0  0  0  0  0  0  0  0  0  0
  -16.8037  -39.4839   -7.5230 C   0  0  1  0  0  0  0  0  0  0  0  0
  -17.5164  -38.4432   -6.9584 O   0  0  0  0  0  0  0  0  0  0  0  0
  -17.7651  -40.4617   -8.2395 C   0  0  2  0  0  0  0  0  0  0  0  0
  -18.8359  -39.6522   -8.8460 C   0  0  0  0  0  0  0  0  0  0  0  0
  -20.2154  -39.7098   -8.2858 C   0  0  0  0  0  0  0  0  0  0  0  0
  -20.6944  -39.4783   -7.0206 C   0  0  0  0  0  0  0  0  0  0  0  0
  -22.0557  -39.6316   -6.7990 C   0  0  0  0  0  0  0  0  0  0  0  0
  -22.9179  -40.0099   -7.8479 C   0  0  0  0  0  0  0  0  0  0  0  0
  -22.4676  -40.2451   -9.1180 C   0  0  0  0  0  0  0  0  0  0  0  0
  -21.1232  -40.0896   -9.3075 C   0  0  0  0  0  0  0  0  0  0  0  0
  -22.7774  -39.4660   -5.6318 O   0  0  0  0  0  0  0  0  0  0  0  0
  -22.7731  -40.0187   -4.3579 C   0  0  0  0  0  0  0  0  0  0  0  0
  -21.8049  -41.1499   -4.2745 C   0  0  0  0  0  0  0  0  0  0  0  0
  -22.3986  -42.5138   -4.3933 C   0  0  0  0  0  0  0  0  0  0  0  0
  -22.3298  -43.1561   -5.7257 C   0  0  0  0  0  0  0  0  0  0  0  0
  -20.9435  -43.5165   -6.2026 C   0  0  0  0  0  0  0  0  0  0  0  0
  -21.0251  -43.7953   -7.6545 C   0  0  0  0  0  0  0  0  0  0  0  0
  -22.1503  -44.2334   -8.0808 O   0  0  0  0  0  0  0  0  0  0  0  0
  -19.9882  -43.6256   -8.6056 N   0  0  0  0  0  0  0  0  0  0  0  0
  -20.4187  -43.3276   -9.9858 C   0  0  0  0  0  0  0  0  0  0  0  0
  -18.5747  -43.7409   -8.3029 C   0  0  1  0  0  0  0  0  0  0  0  0
  -17.7269  -43.6978   -9.5511 C   0  0  0  0  0  0  0  0  0  0  0  0
  -18.0969  -42.8086   -7.2593 C   0  0  0  0  0  0  0  0  0  0  0  0
  -17.5299  -43.3353   -6.2228 O   0  0  0  0  0  0  0  0  0  0  0  0
  -18.1771  -41.4204   -7.2428 N   0  0  0  0  0  0  0  0  0  0  0  0
  1  2  1  0
  2  3  1  0
  2  4  1  0
  4  5  2  0
  5  6  1  0
  6  7  2  0
  7  8  1  0
  8  9  2  0
  7 10  1  0
 10 11  1  0
 11 12  1  0
 11 13  1  0
 11 14  1  0
 14 15  1  0
 15 16  1  6
 16 17  1  0
 17 18  1  0
 18 19  1  6
 18 20  1  0
 20 21  1  1
 21 22  1  0
 22 23  2  0
 23 24  1  0
 24 25  2  0
 25 26  1  0
 26 27  2  0
 24 28  1  0
 28 29  1  0
 29 30  1  0
 30 31  1  0
 31 32  1  0
 32 33  1  0
 33 34  1  0
 34 35  2  0
 34 36  1  0
 36 37  1  0
 36 38  1  0
 38 39  1  6
 38 40  1  0
 40 41  2  0
 40 42  1  0
  9  4  1  0
 15  6  1  0
 27 22  1  0
 42 20  1  0
M  END
$$$$
