
     RDKit          3D

 42 45  0  0  0  0  0  0  0  0999 V2000
  -11.0468  -33.4002  -10.4882 C   0  0  0  0  0  0  0  0  0  0  0  0
  -11.5088  -34.6664   -9.8053 C   0  0  0  0  0  0  0  0  0  0  0  0
  -11.6043  -34.3479   -8.3220 C   0  0  0  0  0  0  0  0  0  0  0  0
  -12.9114  -34.9645  -10.2648 C   0  0  0  0  0  0  0  0  0  0  0  0
  -13.4250  -36.2440  -10.1744 C   0  0  0  0  0  0  0  0  0  0  0  0
  -14.7020  -36.5679  -10.5805 C   0  0  0  0  0  0  0  0  0  0  0  0
  -15.5023  -35.5780  -11.0986 C   0  0  0  0  0  0  0  0  0  0  0  0
  -14.9890  -34.2953  -11.1899 C   0  0  0  0  0  0  0  0  0  0  0  0
  -13.7132  -33.9731  -10.7837 C   0  0  0  0  0  0  0  0  0  0  0  0
  -16.7782  -35.9037  -11.5040 O   0  0  0  0  0  0  0  0  0  0  0  0
  -17.1080  -37.1640  -12.0473 C   0  0  0  0  0  0  0  0  0  0  0  0
  -18.5229  -37.5668  -11.6604 C   0  0  0  0  0  0  0  0  0  0  0  0
  -17.0987  -37.0282  -13.5566 C   0  0  0  0  0  0  0  0  0  0  0  0
  -16.1145  -38.2527  -11.6853 C   0  0  0  0  0  0  0  0  0  0  0  0
  -15.2776  -37.9424  -10.4864 C   0  0  2  0  0  0  0  0  0  0  0  0
  -15.8650  -38.2109   -9.2267 N   0  0  0  0  0  0  0  0  0  0  0  0
  -16.5245  -39.4534   -9.0248 C   0  0  0  0  0  0  0  0  0  0  0  0
  -17.7327  -39.4210   -8.1692 C   0  0  1  0  0  0  0  0  0  0  0  0
  -18.3351  -38.1788   -8.2297 O   0  0  0  0  0  0  0  0  0  0  0  0
  -18.7391  -40.5222   -8.5796 C   0  0  2  0  0  0  0  0  0  0  0  0
  -20.0507  -39.8726   -8.7450 C   0  0  0  0  0  0  0  0  0  0  0  0
  -21.1376  -40.1372   -7.7606 C   0  0  0  0  0  0  0  0  0  0  0  0
  -21.1858  -39.9907   -6.3968 C   0  0  0  0  0  0  0  0  0  0  0  0
  -22.3576  -40.3440   -5.7427 C   0  0  0  0  0  0  0  0  0  0  0  0
  -23.4650  -40.8344   -6.4636 C   0  0  0  0  0  0  0  0  0  0  0  0
  -23.4445  -40.9888   -7.8227 C   0  0  0  0  0  0  0  0  0  0  0  0
  -22.2780  -40.6361   -8.4408 C   0  0  0  0  0  0  0  0  0  0  0  0
  -22.6563  -40.2972   -4.3939 O   0  0  0  0  0  0  0  0  0  0  0  0
  -22.1460  -40.8556   -3.2293 C   0  0  0  0  0  0  0  0  0  0  0  0
  -21.0639  -41.8335   -3.5406 C   0  0  0  0  0  0  0  0  0  0  0  0
  -21.4734  -43.2684   -3.5341 C   0  0  0  0  0  0  0  0  0  0  0  0
  -21.7744  -43.8808   -4.8482 C   0  0  0  0  0  0  0  0  0  0  0  0
  -20.5967  -44.0295   -5.7810 C   0  0  0  0  0  0  0  0  0  0  0  0
  -21.1272  -44.3032   -7.1360 C   0  0  0  0  0  0  0  0  0  0  0  0
  -22.2604  -44.8973   -7.1870 O   0  0  0  0  0  0  0  0  0  0  0  0
  -20.5071  -43.9741   -8.3671 N   0  0  0  0  0  0  0  0  0  0  0  0
  -21.4159  -43.7291   -9.5043 C   0  0  0  0  0  0  0  0  0  0  0  0
  -19.0728  -43.8839   -8.5612 C   0  0  1  0  0  0  0  0  0  0  0  0
  -18.7123  -43.7049  -10.0160 C   0  0  0  0  0  0  0  0  0  0  0  0
  -18.3998  -42.9018   -7.6843 C   0  0  0  0  0  0  0  0  0  0  0  0
  -17.4495  -43.3497   -6.9295 O   0  0  0  0  0  0  0  0  0  0  0  0
  -18.6558  -41.5406   -7.5605 N   0  0  0  0  0  0  0  0  0  0  0  0
  1  2  1  0
  2  3  1  0
  2  4  1  0
  4  5  2  0
  5  6  1  0
  6  7  2  0
  7  8  1  0
  8  9  2  0
  7 10  1  0
 10 11  1  0
 11 12  1  0
 11 13  1  0
 11 14  1  0
 14 15  1  0
 15 16  1  1
 16 17  1  0
 17 18  1  0
 18 19  1  6
 18 20  1  0
 20 21  1  1
 21 22  1  0
 22 23  2  0
 23 24  1  0
 24 25  2  0
 25 26  1  0
 26 27  2  0
 24 28  1  0
 28 29  1  0
 29 30  1  0
 30 31  1  0
 31 32  1  0
 32 33  1  0
 33 34  1  0
 34 35  2  0
 34 36  1  0
 36 37  1  0
 36 38  1  0
 38 39  1  6
 38 40  1  0
 40 41  2  0
 40 42  1  0
  9  4  1  0
 15  6  1  0
 27 22  1  0
 42 20  1  0
M  END
$$$$
