
     RDKit          3D

 42 45  0  0  0  0  0  0  0  0999 V2000
  -13.9304  -33.4776  -12.1090 C   0  0  0  0  0  0  0  0  0  0  0  0
  -15.0434  -34.3431  -11.5662 C   0  0  0  0  0  0  0  0  0  0  0  0
  -16.2483  -34.1118  -12.4637 C   0  0  0  0  0  0  0  0  0  0  0  0
  -14.6506  -35.7851  -11.7492 C   0  0  0  0  0  0  0  0  0  0  0  0
  -14.3779  -36.5849  -10.6560 C   0  0  0  0  0  0  0  0  0  0  0  0
  -14.0151  -37.9100  -10.7704 C   0  0  0  0  0  0  0  0  0  0  0  0
  -13.9192  -38.4635  -12.0247 C   0  0  0  0  0  0  0  0  0  0  0  0
  -14.1922  -37.6633  -13.1211 C   0  0  0  0  0  0  0  0  0  0  0  0
  -14.5546  -36.3398  -13.0055 C   0  0  0  0  0  0  0  0  0  0  0  0
  -13.5564  -39.7879  -12.1370 O   0  0  0  0  0  0  0  0  0  0  0  0
  -12.6745  -40.4170  -11.2322 C   0  0  0  0  0  0  0  0  0  0  0  0
  -13.0477  -41.8792  -11.0406 C   0  0  0  0  0  0  0  0  0  0  0  0
  -11.2936  -40.4055  -11.8564 C   0  0  0  0  0  0  0  0  0  0  0  0
  -12.5730  -39.7022   -9.8972 C   0  0  0  0  0  0  0  0  0  0  0  0
  -13.7215  -38.7923   -9.6022 C   0  0  2  0  0  0  0  0  0  0  0  0
  -14.8805  -39.4017   -9.0645 N   0  0  0  0  0  0  0  0  0  0  0  0
  -15.7527  -38.6272   -8.2527 C   0  0  0  0  0  0  0  0  0  0  0  0
  -16.6281  -39.3827   -7.3275 C   0  0  1  0  0  0  0  0  0  0  0  0
  -17.2669  -38.5222   -6.4551 O   0  0  0  0  0  0  0  0  0  0  0  0
  -17.6685  -40.2249   -8.1034 C   0  0  2  0  0  0  0  0  0  0  0  0
  -18.6585  -39.2872   -8.6604 C   0  0  0  0  0  0  0  0  0  0  0  0
  -20.0413  -39.2546   -8.1060 C   0  0  0  0  0  0  0  0  0  0  0  0
  -20.5058  -39.0584   -6.8296 C   0  0  0  0  0  0  0  0  0  0  0  0
  -21.8768  -39.1021   -6.6191 C   0  0  0  0  0  0  0  0  0  0  0  0
  -22.7626  -39.3369   -7.6900 C   0  0  0  0  0  0  0  0  0  0  0  0
  -22.3269  -39.5341   -8.9716 C   0  0  0  0  0  0  0  0  0  0  0  0
  -20.9728  -39.4887   -9.1499 C   0  0  0  0  0  0  0  0  0  0  0  0
  -22.5883  -38.9435   -5.4447 O   0  0  0  0  0  0  0  0  0  0  0  0
  -22.6417  -39.5708   -4.2069 C   0  0  0  0  0  0  0  0  0  0  0  0
  -21.7793  -40.7873   -4.1918 C   0  0  0  0  0  0  0  0  0  0  0  0
  -22.4920  -42.0826   -4.3943 C   0  0  0  0  0  0  0  0  0  0  0  0
  -22.4723  -42.6464   -5.7634 C   0  0  0  0  0  0  0  0  0  0  0  0
  -21.1208  -43.1002   -6.2600 C   0  0  0  0  0  0  0  0  0  0  0  0
  -21.2176  -43.2818   -7.7263 C   0  0  0  0  0  0  0  0  0  0  0  0
  -22.3747  -43.5904   -8.1797 O   0  0  0  0  0  0  0  0  0  0  0  0
  -20.1636  -43.1483   -8.6643 N   0  0  0  0  0  0  0  0  0  0  0  0
  -20.5567  -42.7296  -10.0242 C   0  0  0  0  0  0  0  0  0  0  0  0
  -18.7680  -43.4083   -8.3678 C   0  0  1  0  0  0  0  0  0  0  0  0
  -17.9118  -43.3657   -9.6102 C   0  0  0  0  0  0  0  0  0  0  0  0
  -18.2155  -42.5878   -7.2687 C   0  0  0  0  0  0  0  0  0  0  0  0
  -17.7046  -43.2252   -6.2658 O   0  0  0  0  0  0  0  0  0  0  0  0
  -18.1712  -41.2016   -7.1675 N   0  0  0  0  0  0  0  0  0  0  0  0
  1  2  1  0
  2  3  1  0
  2  4  1  0
  4  5  2  0
  5  6  1  0
  6  7  2  0
  7  8  1  0
  8  9  2  0
  7 10  1  0
 10 11  1  0
 11 12  1  0
 11 13  1  0
 11 14  1  0
 14 15  1  0
 15 16  1  6
 16 17  1  0
 17 18  1  0
 18 19  1  1
 18 20  1  0
 20 21  1  1
 21 22  1  0
 22 23  2  0
 23 24  1  0
 24 25  2  0
 25 26  1  0
 26 27  2  0
 24 28  1  0
 28 29  1  0
 29 30  1  0
 30 31  1  0
 31 32  1  0
 32 33  1  0
 33 34  1  0
 34 35  2  0
 34 36  1  0
 36 37  1  0
 36 38  1  0
 38 39  1  6
 38 40  1  0
 40 41  2  0
 40 42  1  0
  9  4  1  0
 15  6  1  0
 27 22  1  0
 42 20  1  0
M  END
$$$$
