
     RDKit          3D

 42 45  0  0  0  0  0  0  0  0999 V2000
  -14.4050  -34.0372  -11.7666 C   0  0  0  0  0  0  0  0  0  0  0  0
  -12.9191  -34.3101  -11.7811 C   0  0  0  0  0  0  0  0  0  0  0  0
  -12.3525  -33.6874  -10.5154 C   0  0  0  0  0  0  0  0  0  0  0  0
  -12.7117  -35.7957  -11.6507 C   0  0  0  0  0  0  0  0  0  0  0  0
  -13.1831  -36.4782  -10.5456 C   0  0  0  0  0  0  0  0  0  0  0  0
  -13.0194  -37.8370  -10.3795 C   0  0  0  0  0  0  0  0  0  0  0  0
  -12.3590  -38.5474  -11.3532 C   0  0  0  0  0  0  0  0  0  0  0  0
  -11.8860  -37.8648  -12.4611 C   0  0  0  0  0  0  0  0  0  0  0  0
  -12.0503  -36.5076  -12.6258 C   0  0  0  0  0  0  0  0  0  0  0  0
  -12.1962  -39.9052  -11.1853 O   0  0  0  0  0  0  0  0  0  0  0  0
  -12.0336  -40.5034   -9.9173 C   0  0  0  0  0  0  0  0  0  0  0  0
  -12.6670  -41.8860   -9.8857 C   0  0  0  0  0  0  0  0  0  0  0  0
  -10.5485  -40.7073   -9.6947 C   0  0  0  0  0  0  0  0  0  0  0  0
  -12.5476  -39.6436   -8.7772 C   0  0  0  0  0  0  0  0  0  0  0  0
  -13.5255  -38.5938   -9.1962 C   0  0  2  0  0  0  0  0  0  0  0  0
  -14.8697  -39.0131   -9.3416 N   0  0  0  0  0  0  0  0  0  0  0  0
  -15.8722  -38.4035   -8.5396 C   0  0  0  0  0  0  0  0  0  0  0  0
  -16.6608  -39.3120   -7.6761 C   0  0  1  0  0  0  0  0  0  0  0  0
  -17.3428  -38.5930   -6.7129 O   0  0  0  0  0  0  0  0  0  0  0  0
  -17.6513  -40.1583   -8.5107 C   0  0  2  0  0  0  0  0  0  0  0  0
  -18.6758  -39.2382   -9.0336 C   0  0  0  0  0  0  0  0  0  0  0  0
  -20.0658  -39.2971   -8.4999 C   0  0  0  0  0  0  0  0  0  0  0  0
  -20.5556  -39.1894   -7.2224 C   0  0  0  0  0  0  0  0  0  0  0  0
  -21.9258  -39.3058   -7.0358 C   0  0  0  0  0  0  0  0  0  0  0  0
  -22.7857  -39.5237   -8.1310 C   0  0  0  0  0  0  0  0  0  0  0  0
  -22.3246  -39.6334   -9.4143 C   0  0  0  0  0  0  0  0  0  0  0  0
  -20.9718  -39.5177   -9.5689 C   0  0  0  0  0  0  0  0  0  0  0  0
  -22.6592  -39.2414   -5.8660 O   0  0  0  0  0  0  0  0  0  0  0  0
  -22.7001  -39.9347   -4.6634 C   0  0  0  0  0  0  0  0  0  0  0  0
  -21.7832  -41.1102   -4.6980 C   0  0  0  0  0  0  0  0  0  0  0  0
  -22.4331  -42.4239   -4.9785 C   0  0  0  0  0  0  0  0  0  0  0  0
  -22.3695  -42.9134   -6.3745 C   0  0  0  0  0  0  0  0  0  0  0  0
  -20.9923  -43.2791   -6.8730 C   0  0  0  0  0  0  0  0  0  0  0  0
  -21.0613  -43.3876   -8.3481 C   0  0  0  0  0  0  0  0  0  0  0  0
  -22.1970  -43.7237   -8.8348 O   0  0  0  0  0  0  0  0  0  0  0  0
  -20.0023  -43.1577   -9.2613 N   0  0  0  0  0  0  0  0  0  0  0  0
  -20.3962  -42.6862  -10.6036 C   0  0  0  0  0  0  0  0  0  0  0  0
  -18.6003  -43.3697   -8.9570 C   0  0  1  0  0  0  0  0  0  0  0  0
  -17.7306  -43.2233  -10.1821 C   0  0  0  0  0  0  0  0  0  0  0  0
  -18.1005  -42.5841   -7.8084 C   0  0  0  0  0  0  0  0  0  0  0  0
  -17.5742  -43.2497   -6.8321 O   0  0  0  0  0  0  0  0  0  0  0  0
  -18.1210  -41.2045   -7.6347 N   0  0  0  0  0  0  0  0  0  0  0  0
  1  2  1  0
  2  3  1  0
  2  4  1  0
  4  5  2  0
  5  6  1  0
  6  7  2  0
  7  8  1  0
  8  9  2  0
  7 10  1  0
 10 11  1  0
 11 12  1  0
 11 13  1  0
 11 14  1  0
 14 15  1  0
 15 16  1  6
 16 17  1  0
 17 18  1  0
 18 19  1  1
 18 20  1  0
 20 21  1  1
 21 22  1  0
 22 23  2  0
 23 24  1  0
 24 25  2  0
 25 26  1  0
 26 27  2  0
 24 28  1  0
 28 29  1  0
 29 30  1  0
 30 31  1  0
 31 32  1  0
 32 33  1  0
 33 34  1  0
 34 35  2  0
 34 36  1  0
 36 37  1  0
 36 38  1  0
 38 39  1  6
 38 40  1  0
 40 41  2  0
 40 42  1  0
  9  4  1  0
 15  6  1  0
 27 22  1  0
 42 20  1  0
M  END
$$$$
