
     RDKit          3D

 42 45  0  0  0  0  0  0  0  0999 V2000
   -8.5970  -36.5539  -11.4951 C   0  0  0  0  0  0  0  0  0  0  0  0
   -9.4311  -37.3509  -10.5195 C   0  0  0  0  0  0  0  0  0  0  0  0
   -9.0607  -36.8577   -9.1300 C   0  0  0  0  0  0  0  0  0  0  0  0
  -10.8768  -36.9845  -10.7266 C   0  0  0  0  0  0  0  0  0  0  0  0
  -11.8712  -37.9329  -10.5827 C   0  0  0  0  0  0  0  0  0  0  0  0
  -13.2082  -37.6480  -10.7609 C   0  0  0  0  0  0  0  0  0  0  0  0
  -13.5722  -36.3658  -11.0965 C   0  0  0  0  0  0  0  0  0  0  0  0
  -12.5767  -35.4144  -11.2411 C   0  0  0  0  0  0  0  0  0  0  0  0
  -11.2415  -35.7003  -11.0627 C   0  0  0  0  0  0  0  0  0  0  0  0
  -14.9089  -36.0831  -11.2742 O   0  0  0  0  0  0  0  0  0  0  0  0
  -15.8268  -37.0253  -11.7859 C   0  0  0  0  0  0  0  0  0  0  0  0
  -17.2011  -36.8361  -11.1619 C   0  0  0  0  0  0  0  0  0  0  0  0
  -15.9873  -36.7496  -13.2674 C   0  0  0  0  0  0  0  0  0  0  0  0
  -15.3570  -38.4611  -11.6417 C   0  0  0  0  0  0  0  0  0  0  0  0
  -14.2981  -38.6565  -10.6050 C   0  0  2  0  0  0  0  0  0  0  0  0
  -14.7468  -38.7837   -9.2684 N   0  0  0  0  0  0  0  0  0  0  0  0
  -15.7313  -39.7618   -8.9623 C   0  0  0  0  0  0  0  0  0  0  0  0
  -17.0402  -39.2488   -8.4969 C   0  0  1  0  0  0  0  0  0  0  0  0
  -17.2392  -37.9560   -8.9426 O   0  0  0  0  0  0  0  0  0  0  0  0
  -18.1984  -40.1598   -8.9687 C   0  0  2  0  0  0  0  0  0  0  0  0
  -19.3683  -39.2937   -9.1945 C   0  0  0  0  0  0  0  0  0  0  0  0
  -20.5340  -39.3677   -8.2694 C   0  0  0  0  0  0  0  0  0  0  0  0
  -20.6271  -39.2162   -6.9085 C   0  0  0  0  0  0  0  0  0  0  0  0
  -21.8745  -39.3627   -6.3185 C   0  0  0  0  0  0  0  0  0  0  0  0
  -23.0108  -39.6543   -7.0996 C   0  0  0  0  0  0  0  0  0  0  0  0
  -22.9468  -39.8090   -8.4573 C   0  0  0  0  0  0  0  0  0  0  0  0
  -21.7064  -39.6622   -9.0117 C   0  0  0  0  0  0  0  0  0  0  0  0
  -22.2303  -39.2661   -4.9862 O   0  0  0  0  0  0  0  0  0  0  0  0
  -21.8848  -39.9050   -3.8026 C   0  0  0  0  0  0  0  0  0  0  0  0
  -20.9725  -41.0545   -4.0677 C   0  0  0  0  0  0  0  0  0  0  0  0
  -21.6225  -42.3974   -4.0961 C   0  0  0  0  0  0  0  0  0  0  0  0
  -21.9558  -42.9478   -5.4297 C   0  0  0  0  0  0  0  0  0  0  0  0
  -20.7745  -43.2965   -6.3026 C   0  0  0  0  0  0  0  0  0  0  0  0
  -21.2732  -43.4737   -7.6855 C   0  0  0  0  0  0  0  0  0  0  0  0
  -22.4875  -43.8636   -7.7999 O   0  0  0  0  0  0  0  0  0  0  0  0
  -20.5426  -43.2555   -8.8801 N   0  0  0  0  0  0  0  0  0  0  0  0
  -21.3355  -42.8567  -10.0597 C   0  0  0  0  0  0  0  0  0  0  0  0
  -19.1061  -43.4137   -8.9999 C   0  0  1  0  0  0  0  0  0  0  0  0
  -18.6452  -43.2984  -10.4327 C   0  0  0  0  0  0  0  0  0  0  0  0
  -18.3205  -42.5629   -8.0803 C   0  0  0  0  0  0  0  0  0  0  0  0
  -17.5020  -43.1684   -7.2825 O   0  0  0  0  0  0  0  0  0  0  0  0
  -18.3445  -41.1780   -7.9567 N   0  0  0  0  0  0  0  0  0  0  0  0
  1  2  1  0
  2  3  1  0
  2  4  1  0
  4  5  2  0
  5  6  1  0
  6  7  2  0
  7  8  1  0
  8  9  2  0
  7 10  1  0
 10 11  1  0
 11 12  1  0
 11 13  1  0
 11 14  1  0
 14 15  1  0
 15 16  1  1
 16 17  1  0
 17 18  1  0
 18 19  1  6
 18 20  1  0
 20 21  1  1
 21 22  1  0
 22 23  2  0
 23 24  1  0
 24 25  2  0
 25 26  1  0
 26 27  2  0
 24 28  1  0
 28 29  1  0
 29 30  1  0
 30 31  1  0
 31 32  1  0
 32 33  1  0
 33 34  1  0
 34 35  2  0
 34 36  1  0
 36 37  1  0
 36 38  1  0
 38 39  1  6
 38 40  1  0
 40 41  2  0
 40 42  1  0
  9  4  1  0
 15  6  1  0
 27 22  1  0
 42 20  1  0
M  END
$$$$
