
     RDKit          3D

 42 45  0  0  0  0  0  0  0  0999 V2000
  -14.7885  -34.7086  -12.8719 C   0  0  0  0  0  0  0  0  0  0  0  0
  -13.8604  -35.7860  -13.3822 C   0  0  0  0  0  0  0  0  0  0  0  0
  -12.4996  -35.5145  -12.7612 C   0  0  0  0  0  0  0  0  0  0  0  0
  -14.3222  -37.1073  -12.8272 C   0  0  0  0  0  0  0  0  0  0  0  0
  -13.8801  -37.5463  -11.5939 C   0  0  0  0  0  0  0  0  0  0  0  0
  -14.2734  -38.7468  -11.0420 C   0  0  0  0  0  0  0  0  0  0  0  0
  -15.1430  -39.5449  -11.7461 C   0  0  0  0  0  0  0  0  0  0  0  0
  -15.5868  -39.1064  -12.9821 C   0  0  0  0  0  0  0  0  0  0  0  0
  -15.1933  -37.9068  -13.5321 C   0  0  0  0  0  0  0  0  0  0  0  0
  -15.5348  -40.7445  -11.1930 O   0  0  0  0  0  0  0  0  0  0  0  0
  -14.6906  -41.5150  -10.3648 C   0  0  0  0  0  0  0  0  0  0  0  0
  -15.4958  -42.2447   -9.3004 C   0  0  0  0  0  0  0  0  0  0  0  0
  -14.0542  -42.5848  -11.2291 C   0  0  0  0  0  0  0  0  0  0  0  0
  -13.5657  -40.7107   -9.7396 C   0  0  0  0  0  0  0  0  0  0  0  0
  -13.8117  -39.2367   -9.7093 C   0  0  2  0  0  0  0  0  0  0  0  0
  -14.6037  -38.7564   -8.6389 N   0  0  0  0  0  0  0  0  0  0  0  0
  -14.9877  -39.6562   -7.6081 C   0  0  0  0  0  0  0  0  0  0  0  0
  -16.3334  -39.4479   -7.0260 C   0  0  1  0  0  0  0  0  0  0  0  0
  -16.4446  -38.1711   -6.5094 O   0  0  0  0  0  0  0  0  0  0  0  0
  -17.4422  -39.6968   -8.0760 C   0  0  2  0  0  0  0  0  0  0  0  0
  -18.4527  -38.6397   -7.9001 C   0  0  0  0  0  0  0  0  0  0  0  0
  -19.7911  -38.9803   -7.3404 C   0  0  0  0  0  0  0  0  0  0  0  0
  -20.1586  -39.5904   -6.1673 C   0  0  0  0  0  0  0  0  0  0  0  0
  -21.5114  -39.7886   -5.9297 C   0  0  0  0  0  0  0  0  0  0  0  0
  -22.4762  -39.3694   -6.8677 C   0  0  0  0  0  0  0  0  0  0  0  0
  -22.1378  -38.7577   -8.0436 C   0  0  0  0  0  0  0  0  0  0  0  0
  -20.7995  -38.5776   -8.2531 C   0  0  0  0  0  0  0  0  0  0  0  0
  -22.1334  -40.3756   -4.8438 O   0  0  0  0  0  0  0  0  0  0  0  0
  -22.1087  -41.6149   -4.2175 C   0  0  0  0  0  0  0  0  0  0  0  0
  -21.2696  -42.5797   -4.9848 C   0  0  0  0  0  0  0  0  0  0  0  0
  -22.0184  -43.5237   -5.8652 C   0  0  0  0  0  0  0  0  0  0  0  0
  -22.1077  -43.1676   -7.2996 C   0  0  0  0  0  0  0  0  0  0  0  0
  -20.8041  -43.2013   -8.0601 C   0  0  0  0  0  0  0  0  0  0  0  0
  -21.0097  -42.4830   -9.3384 C   0  0  0  0  0  0  0  0  0  0  0  0
  -22.2019  -42.4960   -9.8055 O   0  0  0  0  0  0  0  0  0  0  0  0
  -20.0238  -41.7909  -10.0852 N   0  0  0  0  0  0  0  0  0  0  0  0
  -20.5064  -40.6601  -10.9023 C   0  0  0  0  0  0  0  0  0  0  0  0
  -18.6154  -42.1365  -10.0971 C   0  0  1  0  0  0  0  0  0  0  0  0
  -17.8504  -41.3431  -11.1285 C   0  0  0  0  0  0  0  0  0  0  0  0
  -17.9703  -42.1100   -8.7668 C   0  0  0  0  0  0  0  0  0  0  0  0
  -17.4000  -43.2025   -8.3740 O   0  0  0  0  0  0  0  0  0  0  0  0
  -17.8937  -41.0516   -7.8680 N   0  0  0  0  0  0  0  0  0  0  0  0
  1  2  1  0
  2  3  1  0
  2  4  1  0
  4  5  2  0
  5  6  1  0
  6  7  2  0
  7  8  1  0
  8  9  2  0
  7 10  1  0
 10 11  1  0
 11 12  1  0
 11 13  1  0
 11 14  1  0
 14 15  1  0
 15 16  1  1
 16 17  1  0
 17 18  1  0
 18 19  1  6
 18 20  1  0
 20 21  1  1
 21 22  1  0
 22 23  2  0
 23 24  1  0
 24 25  2  0
 25 26  1  0
 26 27  2  0
 24 28  1  0
 28 29  1  0
 29 30  1  0
 30 31  1  0
 31 32  1  0
 32 33  1  0
 33 34  1  0
 34 35  2  0
 34 36  1  0
 36 37  1  0
 36 38  1  0
 38 39  1  6
 38 40  1  0
 40 41  2  0
 40 42  1  0
  9  4  1  0
 15  6  1  0
 27 22  1  0
 42 20  1  0
M  END
$$$$
