
     RDKit          3D

 42 45  0  0  0  0  0  0  0  0999 V2000
  -17.9841  -34.5160  -10.7328 C   0  0  0  0  0  0  0  0  0  0  0  0
  -17.6337  -35.2623  -11.9989 C   0  0  0  0  0  0  0  0  0  0  0  0
  -17.6167  -34.2328  -13.1173 C   0  0  0  0  0  0  0  0  0  0  0  0
  -16.2223  -35.7706  -11.8708 C   0  0  0  0  0  0  0  0  0  0  0  0
  -15.7577  -36.2630  -10.6662 C   0  0  0  0  0  0  0  0  0  0  0  0
  -14.4753  -36.7401  -10.4977 C   0  0  0  0  0  0  0  0  0  0  0  0
  -13.6183  -36.7270  -11.5720 C   0  0  0  0  0  0  0  0  0  0  0  0
  -14.0824  -36.2339  -12.7797 C   0  0  0  0  0  0  0  0  0  0  0  0
  -15.3637  -35.7577  -12.9468 C   0  0  0  0  0  0  0  0  0  0  0  0
  -12.3370  -37.2041  -11.4015 O   0  0  0  0  0  0  0  0  0  0  0  0
  -11.6326  -37.0816  -10.1845 C   0  0  0  0  0  0  0  0  0  0  0  0
  -10.7180  -38.2772   -9.9658 C   0  0  0  0  0  0  0  0  0  0  0  0
  -10.7319  -35.8681  -10.2974 C   0  0  0  0  0  0  0  0  0  0  0  0
  -12.5377  -36.8628   -8.9861 C   0  0  0  0  0  0  0  0  0  0  0  0
  -13.9557  -37.2809   -9.2066 C   0  0  2  0  0  0  0  0  0  0  0  0
  -14.2369  -38.6570   -9.0304 N   0  0  0  0  0  0  0  0  0  0  0  0
  -15.4697  -39.1754   -9.5112 C   0  0  0  0  0  0  0  0  0  0  0  0
  -16.5884  -39.2071   -8.5414 C   0  0  1  0  0  0  0  0  0  0  0  0
  -17.0846  -37.9342   -8.3337 O   0  0  0  0  0  0  0  0  0  0  0  0
  -17.7188  -40.1483   -9.0212 C   0  0  2  0  0  0  0  0  0  0  0  0
  -18.8891  -39.3052   -9.3198 C   0  0  0  0  0  0  0  0  0  0  0  0
  -20.0867  -39.3604   -8.4349 C   0  0  0  0  0  0  0  0  0  0  0  0
  -20.2306  -39.1615   -7.0846 C   0  0  0  0  0  0  0  0  0  0  0  0
  -21.4969  -39.3022   -6.5346 C   0  0  0  0  0  0  0  0  0  0  0  0
  -22.6010  -39.6353   -7.3449 C   0  0  0  0  0  0  0  0  0  0  0  0
  -22.4861  -39.8374   -8.6930 C   0  0  0  0  0  0  0  0  0  0  0  0
  -21.2282  -39.6953   -9.2076 C   0  0  0  0  0  0  0  0  0  0  0  0
  -21.9017  -39.1625   -5.2203 O   0  0  0  0  0  0  0  0  0  0  0  0
  -21.5923  -39.7546   -4.0028 C   0  0  0  0  0  0  0  0  0  0  0  0
  -20.6585  -40.9015   -4.1935 C   0  0  0  0  0  0  0  0  0  0  0  0
  -21.2924  -42.2524   -4.1966 C   0  0  0  0  0  0  0  0  0  0  0  0
  -21.5712  -42.8540   -5.5206 C   0  0  0  0  0  0  0  0  0  0  0  0
  -20.3554  -43.2192   -6.3376 C   0  0  0  0  0  0  0  0  0  0  0  0
  -20.8017  -43.4516   -7.7301 C   0  0  0  0  0  0  0  0  0  0  0  0
  -22.0068  -43.8601   -7.8738 O   0  0  0  0  0  0  0  0  0  0  0  0
  -20.0309  -43.2673   -8.9049 N   0  0  0  0  0  0  0  0  0  0  0  0
  -20.7848  -42.9205  -10.1258 C   0  0  0  0  0  0  0  0  0  0  0  0
  -18.5893  -43.4121   -8.9675 C   0  0  1  0  0  0  0  0  0  0  0  0
  -18.0781  -43.3424  -10.3861 C   0  0  0  0  0  0  0  0  0  0  0  0
  -17.8468  -42.5196   -8.0517 C   0  0  0  0  0  0  0  0  0  0  0  0
  -17.0511  -43.0863   -7.2038 O   0  0  0  0  0  0  0  0  0  0  0  0
  -17.8904  -41.1316   -7.9790 N   0  0  0  0  0  0  0  0  0  0  0  0
  1  2  1  0
  2  3  1  0
  2  4  1  0
  4  5  2  0
  5  6  1  0
  6  7  2  0
  7  8  1  0
  8  9  2  0
  7 10  1  0
 10 11  1  0
 11 12  1  0
 11 13  1  0
 11 14  1  0
 14 15  1  0
 15 16  1  6
 16 17  1  0
 17 18  1  0
 18 19  1  6
 18 20  1  0
 20 21  1  1
 21 22  1  0
 22 23  2  0
 23 24  1  0
 24 25  2  0
 25 26  1  0
 26 27  2  0
 24 28  1  0
 28 29  1  0
 29 30  1  0
 30 31  1  0
 31 32  1  0
 32 33  1  0
 33 34  1  0
 34 35  2  0
 34 36  1  0
 36 37  1  0
 36 38  1  0
 38 39  1  6
 38 40  1  0
 40 41  2  0
 40 42  1  0
  9  4  1  0
 15  6  1  0
 27 22  1  0
 42 20  1  0
M  END
$$$$
