
     RDKit          3D

 42 45  0  0  0  0  0  0  0  0999 V2000
  -17.2662  -34.6515  -11.6021 C   0  0  0  0  0  0  0  0  0  0  0  0
  -16.2056  -34.7011  -12.6769 C   0  0  0  0  0  0  0  0  0  0  0  0
  -15.2089  -33.6001  -12.3522 C   0  0  0  0  0  0  0  0  0  0  0  0
  -15.4582  -36.0012  -12.5415 C   0  0  0  0  0  0  0  0  0  0  0  0
  -14.9921  -36.4207  -11.3103 C   0  0  0  0  0  0  0  0  0  0  0  0
  -14.3036  -37.6019  -11.1338 C   0  0  0  0  0  0  0  0  0  0  0  0
  -14.0683  -38.4000  -12.2277 C   0  0  0  0  0  0  0  0  0  0  0  0
  -14.5346  -37.9809  -13.4622 C   0  0  0  0  0  0  0  0  0  0  0  0
  -15.2224  -36.8008  -13.6370 C   0  0  0  0  0  0  0  0  0  0  0  0
  -13.3798  -39.5801  -12.0493 O   0  0  0  0  0  0  0  0  0  0  0  0
  -12.3680  -39.7340  -11.0774 C   0  0  0  0  0  0  0  0  0  0  0  0
  -12.3566  -41.1523  -10.5277 C   0  0  0  0  0  0  0  0  0  0  0  0
  -11.0348  -39.5318  -11.7690 C   0  0  0  0  0  0  0  0  0  0  0  0
  -12.4537  -38.7163   -9.9548 C   0  0  0  0  0  0  0  0  0  0  0  0
  -13.7965  -38.0756   -9.8118 C   0  0  2  0  0  0  0  0  0  0  0  0
  -14.7627  -38.8048   -9.0779 N   0  0  0  0  0  0  0  0  0  0  0  0
  -15.4016  -38.1823   -7.9715 C   0  0  0  0  0  0  0  0  0  0  0  0
  -16.2822  -39.0473   -7.1534 C   0  0  1  0  0  0  0  0  0  0  0  0
  -17.0058  -38.2879   -6.2538 O   0  0  0  0  0  0  0  0  0  0  0  0
  -17.2394  -39.8741   -8.0444 C   0  0  2  0  0  0  0  0  0  0  0  0
  -18.1837  -38.9277   -8.6629 C   0  0  0  0  0  0  0  0  0  0  0  0
  -19.6115  -38.9210   -8.2364 C   0  0  0  0  0  0  0  0  0  0  0  0
  -20.1921  -38.7651   -7.0027 C   0  0  0  0  0  0  0  0  0  0  0  0
  -21.5761  -38.8246   -6.9196 C   0  0  0  0  0  0  0  0  0  0  0  0
  -22.3584  -39.0347   -8.0731 C   0  0  0  0  0  0  0  0  0  0  0  0
  -21.8059  -39.1916   -9.3146 C   0  0  0  0  0  0  0  0  0  0  0  0
  -20.4417  -39.1314   -9.3672 C   0  0  0  0  0  0  0  0  0  0  0  0
  -22.3931  -38.7050   -5.8111 O   0  0  0  0  0  0  0  0  0  0  0  0
  -22.5529  -39.3682   -4.6015 C   0  0  0  0  0  0  0  0  0  0  0  0
  -21.6837  -40.5785   -4.5419 C   0  0  0  0  0  0  0  0  0  0  0  0
  -22.3624  -41.8724   -4.8450 C   0  0  0  0  0  0  0  0  0  0  0  0
  -22.2126  -42.3963   -6.2219 C   0  0  0  0  0  0  0  0  0  0  0  0
  -20.8172  -42.8259   -6.6056 C   0  0  0  0  0  0  0  0  0  0  0  0
  -20.7783  -42.9657   -8.0791 C   0  0  0  0  0  0  0  0  0  0  0  0
  -21.8863  -43.2693   -8.6448 O   0  0  0  0  0  0  0  0  0  0  0  0
  -19.6446  -42.7978   -8.9128 N   0  0  0  0  0  0  0  0  0  0  0  0
  -19.9163  -42.3427  -10.2906 C   0  0  0  0  0  0  0  0  0  0  0  0
  -18.2794  -43.0562   -8.4976 C   0  0  1  0  0  0  0  0  0  0  0  0
  -17.3140  -42.9717   -9.6549 C   0  0  0  0  0  0  0  0  0  0  0  0
  -17.8373  -42.2640   -7.3300 C   0  0  0  0  0  0  0  0  0  0  0  0
  -17.4136  -42.9265   -6.3029 O   0  0  0  0  0  0  0  0  0  0  0  0
  -17.8158  -40.8810   -7.1862 N   0  0  0  0  0  0  0  0  0  0  0  0
  1  2  1  0
  2  3  1  0
  2  4  1  0
  4  5  2  0
  5  6  1  0
  6  7  2  0
  7  8  1  0
  8  9  2  0
  7 10  1  0
 10 11  1  0
 11 12  1  0
 11 13  1  0
 11 14  1  0
 14 15  1  0
 15 16  1  6
 16 17  1  0
 17 18  1  0
 18 19  1  1
 18 20  1  0
 20 21  1  1
 21 22  1  0
 22 23  2  0
 23 24  1  0
 24 25  2  0
 25 26  1  0
 26 27  2  0
 24 28  1  0
 28 29  1  0
 29 30  1  0
 30 31  1  0
 31 32  1  0
 32 33  1  0
 33 34  1  0
 34 35  2  0
 34 36  1  0
 36 37  1  0
 36 38  1  0
 38 39  1  6
 38 40  1  0
 40 41  2  0
 40 42  1  0
  9  4  1  0
 15  6  1  0
 27 22  1  0
 42 20  1  0
M  END
$$$$
