
     RDKit          3D

 42 45  0  0  0  0  0  0  0  0999 V2000
  -18.6034  -41.0454  -12.9576 C   0  0  0  0  0  0  0  0  0  0  0  0
  -18.8646  -39.5729  -13.1723 C   0  0  0  0  0  0  0  0  0  0  0  0
  -19.9324  -39.1719  -12.1674 C   0  0  0  0  0  0  0  0  0  0  0  0
  -17.6208  -38.8137  -12.7932 C   0  0  0  0  0  0  0  0  0  0  0  0
  -17.4319  -38.3739  -11.4970 C   0  0  0  0  0  0  0  0  0  0  0  0
  -16.3114  -37.6760  -11.0996 C   0  0  0  0  0  0  0  0  0  0  0  0
  -15.3374  -37.4035  -12.0302 C   0  0  0  0  0  0  0  0  0  0  0  0
  -15.5254  -37.8435  -13.3295 C   0  0  0  0  0  0  0  0  0  0  0  0
  -16.6451  -38.5407  -13.7251 C   0  0  0  0  0  0  0  0  0  0  0  0
  -14.2184  -36.7057  -11.6312 O   0  0  0  0  0  0  0  0  0  0  0  0
  -14.2542  -35.7170  -10.6245 C   0  0  0  0  0  0  0  0  0  0  0  0
  -12.9550  -35.7025   -9.8335 C   0  0  0  0  0  0  0  0  0  0  0  0
  -14.3533  -34.3692  -11.3103 C   0  0  0  0  0  0  0  0  0  0  0  0
  -15.4519  -35.8432   -9.7009 C   0  0  0  0  0  0  0  0  0  0  0  0
  -16.0858  -37.1968   -9.7036 C   0  0  2  0  0  0  0  0  0  0  0  0
  -15.4814  -38.1725   -8.8750 N   0  0  0  0  0  0  0  0  0  0  0  0
  -15.5376  -38.0090   -7.4644 C   0  0  0  0  0  0  0  0  0  0  0  0
  -16.5945  -38.7700   -6.7595 C   0  0  1  0  0  0  0  0  0  0  0  0
  -17.1612  -38.0000   -5.7617 O   0  0  0  0  0  0  0  0  0  0  0  0
  -17.6857  -39.2552   -7.7433 C   0  0  2  0  0  0  0  0  0  0  0  0
  -18.8744  -38.4135   -7.5235 C   0  0  0  0  0  0  0  0  0  0  0  0
  -20.0881  -38.9979   -6.8864 C   0  0  0  0  0  0  0  0  0  0  0  0
  -20.2661  -39.6421   -5.6877 C   0  0  0  0  0  0  0  0  0  0  0  0
  -21.5388  -40.0970   -5.3730 C   0  0  0  0  0  0  0  0  0  0  0  0
  -22.6152  -39.8964   -6.2606 C   0  0  0  0  0  0  0  0  0  0  0  0
  -22.4661  -39.2566   -7.4605 C   0  0  0  0  0  0  0  0  0  0  0  0
  -21.2025  -38.8217   -7.7462 C   0  0  0  0  0  0  0  0  0  0  0  0
  -21.9751  -40.7704   -4.2475 O   0  0  0  0  0  0  0  0  0  0  0  0
  -21.6735  -41.9664   -3.6093 C   0  0  0  0  0  0  0  0  0  0  0  0
  -20.7018  -42.7644   -4.4109 C   0  0  0  0  0  0  0  0  0  0  0  0
  -21.2944  -43.8565   -5.2373 C   0  0  0  0  0  0  0  0  0  0  0  0
  -21.5272  -43.5568   -6.6686 C   0  0  0  0  0  0  0  0  0  0  0  0
  -20.2841  -43.3507   -7.5000 C   0  0  0  0  0  0  0  0  0  0  0  0
  -20.6940  -42.7154   -8.7731 C   0  0  0  0  0  0  0  0  0  0  0  0
  -21.8829  -42.9728   -9.1729 O   0  0  0  0  0  0  0  0  0  0  0  0
  -19.9046  -41.8599   -9.5815 N   0  0  0  0  0  0  0  0  0  0  0  0
  -20.6429  -40.8645  -10.3834 C   0  0  0  0  0  0  0  0  0  0  0  0
  -18.4583  -41.9222   -9.6677 C   0  0  1  0  0  0  0  0  0  0  0  0
  -17.9199  -41.0171  -10.7491 C   0  0  0  0  0  0  0  0  0  0  0  0
  -17.7624  -41.7398   -8.3757 C   0  0  0  0  0  0  0  0  0  0  0  0
  -16.9679  -42.6900   -8.0027 O   0  0  0  0  0  0  0  0  0  0  0  0
  -17.8493  -40.6673   -7.4949 N   0  0  0  0  0  0  0  0  0  0  0  0
  1  2  1  0
  2  3  1  0
  2  4  1  0
  4  5  2  0
  5  6  1  0
  6  7  2  0
  7  8  1  0
  8  9  2  0
  7 10  1  0
 10 11  1  0
 11 12  1  0
 11 13  1  0
 11 14  1  0
 14 15  1  0
 15 16  1  6
 16 17  1  0
 17 18  1  0
 18 19  1  1
 18 20  1  0
 20 21  1  1
 21 22  1  0
 22 23  2  0
 23 24  1  0
 24 25  2  0
 25 26  1  0
 26 27  2  0
 24 28  1  0
 28 29  1  0
 29 30  1  0
 30 31  1  0
 31 32  1  0
 32 33  1  0
 33 34  1  0
 34 35  2  0
 34 36  1  0
 36 37  1  0
 36 38  1  0
 38 39  1  6
 38 40  1  0
 40 41  2  0
 40 42  1  0
  9  4  1  0
 15  6  1  0
 27 22  1  0
 42 20  1  0
M  END
$$$$
