
     RDKit          3D

 42 45  0  0  0  0  0  0  0  0999 V2000
  -14.1347  -32.4605   -9.9209 C   0  0  0  0  0  0  0  0  0  0  0  0
  -14.8231  -33.1998  -11.0444 C   0  0  0  0  0  0  0  0  0  0  0  0
  -14.5709  -32.3960  -12.3097 C   0  0  0  0  0  0  0  0  0  0  0  0
  -14.1255  -34.5202  -11.2363 C   0  0  0  0  0  0  0  0  0  0  0  0
  -14.4107  -35.5935  -10.4142 C   0  0  0  0  0  0  0  0  0  0  0  0
  -13.8004  -36.8222  -10.5491 C   0  0  0  0  0  0  0  0  0  0  0  0
  -12.8668  -36.9913  -11.5434 C   0  0  0  0  0  0  0  0  0  0  0  0
  -12.5798  -35.9167  -12.3680 C   0  0  0  0  0  0  0  0  0  0  0  0
  -13.1903  -34.6898  -12.2322 C   0  0  0  0  0  0  0  0  0  0  0  0
  -12.2578  -38.2200  -11.6766 O   0  0  0  0  0  0  0  0  0  0  0  0
  -11.9906  -39.0626  -10.5763 C   0  0  0  0  0  0  0  0  0  0  0  0
  -12.1082  -40.5261  -10.9741 C   0  0  0  0  0  0  0  0  0  0  0  0
  -10.5467  -38.8432  -10.1719 C   0  0  0  0  0  0  0  0  0  0  0  0
  -12.8508  -38.7580   -9.3636 C   0  0  0  0  0  0  0  0  0  0  0  0
  -14.0981  -37.9955   -9.6751 C   0  0  2  0  0  0  0  0  0  0  0  0
  -15.2006  -38.7582  -10.1297 N   0  0  0  0  0  0  0  0  0  0  0  0
  -15.8397  -39.6511   -9.2276 C   0  0  0  0  0  0  0  0  0  0  0  0
  -17.1768  -39.2420   -8.7398 C   0  0  1  0  0  0  0  0  0  0  0  0
  -17.6009  -38.0997   -9.3918 O   0  0  0  0  0  0  0  0  0  0  0  0
  -18.2117  -40.3771   -8.9249 C   0  0  2  0  0  0  0  0  0  0  0  0
  -19.4546  -39.7565   -9.4146 C   0  0  0  0  0  0  0  0  0  0  0  0
  -20.6458  -39.6804   -8.5225 C   0  0  0  0  0  0  0  0  0  0  0  0
  -20.8137  -39.1387   -7.2727 C   0  0  0  0  0  0  0  0  0  0  0  0
  -22.0637  -39.2410   -6.6787 C   0  0  0  0  0  0  0  0  0  0  0  0
  -23.1280  -39.8800   -7.3462 C   0  0  0  0  0  0  0  0  0  0  0  0
  -22.9887  -40.4268   -8.5924 C   0  0  0  0  0  0  0  0  0  0  0  0
  -21.7473  -40.3143   -9.1525 C   0  0  0  0  0  0  0  0  0  0  0  0
  -22.4857  -38.7897   -5.4422 O   0  0  0  0  0  0  0  0  0  0  0  0
  -22.1276  -39.0006   -4.1171 C   0  0  0  0  0  0  0  0  0  0  0  0
  -21.0895  -40.0660   -4.0119 C   0  0  0  0  0  0  0  0  0  0  0  0
  -21.5939  -41.4198   -3.6383 C   0  0  0  0  0  0  0  0  0  0  0  0
  -21.8091  -42.3791   -4.7455 C   0  0  0  0  0  0  0  0  0  0  0  0
  -20.5607  -42.8382   -5.4595 C   0  0  0  0  0  0  0  0  0  0  0  0
  -20.9770  -43.4774   -6.7285 C   0  0  0  0  0  0  0  0  0  0  0  0
  -22.1378  -44.0181   -6.7317 O   0  0  0  0  0  0  0  0  0  0  0  0
  -20.2216  -43.5471   -7.9256 N   0  0  0  0  0  0  0  0  0  0  0  0
  -20.9992  -43.6129   -9.1786 C   0  0  0  0  0  0  0  0  0  0  0  0
  -18.7725  -43.5709   -7.9772 C   0  0  1  0  0  0  0  0  0  0  0  0
  -18.2638  -43.8399   -9.3726 C   0  0  0  0  0  0  0  0  0  0  0  0
  -18.1211  -42.4004   -7.3509 C   0  0  0  0  0  0  0  0  0  0  0  0
  -17.2796  -42.6420   -6.3987 O   0  0  0  0  0  0  0  0  0  0  0  0
  -18.2950  -41.0542   -7.6533 N   0  0  0  0  0  0  0  0  0  0  0  0
  1  2  1  0
  2  3  1  0
  2  4  1  0
  4  5  2  0
  5  6  1  0
  6  7  2  0
  7  8  1  0
  8  9  2  0
  7 10  1  0
 10 11  1  0
 11 12  1  0
 11 13  1  0
 11 14  1  0
 14 15  1  0
 15 16  1  6
 16 17  1  0
 17 18  1  0
 18 19  1  6
 18 20  1  0
 20 21  1  1
 21 22  1  0
 22 23  2  0
 23 24  1  0
 24 25  2  0
 25 26  1  0
 26 27  2  0
 24 28  1  0
 28 29  1  0
 29 30  1  0
 30 31  1  0
 31 32  1  0
 32 33  1  0
 33 34  1  0
 34 35  2  0
 34 36  1  0
 36 37  1  0
 36 38  1  0
 38 39  1  6
 38 40  1  0
 40 41  2  0
 40 42  1  0
  9  4  1  0
 15  6  1  0
 27 22  1  0
 42 20  1  0
M  END
$$$$
