
     RDKit          3D

 42 45  0  0  0  0  0  0  0  0999 V2000
  -14.4373  -33.8349  -10.9385 C   0  0  0  0  0  0  0  0  0  0  0  0
  -13.5171  -34.5874  -11.8711 C   0  0  0  0  0  0  0  0  0  0  0  0
  -12.1012  -34.1601  -11.5197 C   0  0  0  0  0  0  0  0  0  0  0  0
  -13.6099  -36.0539  -11.5426 C   0  0  0  0  0  0  0  0  0  0  0  0
  -13.4321  -36.4977  -10.2462 C   0  0  0  0  0  0  0  0  0  0  0  0
  -13.5075  -37.8285   -9.8941 C   0  0  0  0  0  0  0  0  0  0  0  0
  -13.7708  -38.7575  -10.8722 C   0  0  0  0  0  0  0  0  0  0  0  0
  -13.9491  -38.3142  -12.1717 C   0  0  0  0  0  0  0  0  0  0  0  0
  -13.8736  -36.9845  -12.5220 C   0  0  0  0  0  0  0  0  0  0  0  0
  -13.8457  -40.0869  -10.5184 O   0  0  0  0  0  0  0  0  0  0  0  0
  -13.0706  -40.6449   -9.4790 C   0  0  0  0  0  0  0  0  0  0  0  0
  -13.8351  -41.7511   -8.7678 C   0  0  0  0  0  0  0  0  0  0  0  0
  -11.8596  -41.2998  -10.1123 C   0  0  0  0  0  0  0  0  0  0  0  0
  -12.5609  -39.6132   -8.4896 C   0  0  0  0  0  0  0  0  0  0  0  0
  -13.3239  -38.3280   -8.4991 C   0  0  2  0  0  0  0  0  0  0  0  0
  -14.5194  -38.3044   -7.7414 N   0  0  0  0  0  0  0  0  0  0  0  0
  -15.3397  -39.4645   -7.7123 C   0  0  0  0  0  0  0  0  0  0  0  0
  -16.7550  -39.2552   -7.3302 C   0  0  1  0  0  0  0  0  0  0  0  0
  -17.0966  -37.9216   -7.4514 O   0  0  0  0  0  0  0  0  0  0  0  0
  -17.7015  -40.1281   -8.1881 C   0  0  2  0  0  0  0  0  0  0  0  0
  -18.8179  -39.2677   -8.6159 C   0  0  0  0  0  0  0  0  0  0  0  0
  -20.1775  -39.4795   -8.0440 C   0  0  0  0  0  0  0  0  0  0  0  0
  -20.6270  -39.4960   -6.7474 C   0  0  0  0  0  0  0  0  0  0  0  0
  -21.9749  -39.7411   -6.5261 C   0  0  0  0  0  0  0  0  0  0  0  0
  -22.8535  -39.9615   -7.6060 C   0  0  0  0  0  0  0  0  0  0  0  0
  -22.4325  -39.9490   -8.9075 C   0  0  0  0  0  0  0  0  0  0  0  0
  -21.1007  -39.7082   -9.0964 C   0  0  0  0  0  0  0  0  0  0  0  0
  -22.6675  -39.8147   -5.3322 O   0  0  0  0  0  0  0  0  0  0  0  0
  -22.6059  -40.5843   -4.1779 C   0  0  0  0  0  0  0  0  0  0  0  0
  -21.5960  -41.6723   -4.3197 C   0  0  0  0  0  0  0  0  0  0  0  0
  -22.1439  -43.0162   -4.6668 C   0  0  0  0  0  0  0  0  0  0  0  0
  -22.0913  -43.4083   -6.0937 C   0  0  0  0  0  0  0  0  0  0  0  0
  -20.7077  -43.6220   -6.6584 C   0  0  0  0  0  0  0  0  0  0  0  0
  -20.8218  -43.6416   -8.1346 C   0  0  0  0  0  0  0  0  0  0  0  0
  -21.9427  -44.0420   -8.6068 O   0  0  0  0  0  0  0  0  0  0  0  0
  -19.8201  -43.2639   -9.0632 N   0  0  0  0  0  0  0  0  0  0  0  0
  -20.3013  -42.7431  -10.3580 C   0  0  0  0  0  0  0  0  0  0  0  0
  -18.3950  -43.3739   -8.8179 C   0  0  1  0  0  0  0  0  0  0  0  0
  -17.5864  -43.0756  -10.0571 C   0  0  0  0  0  0  0  0  0  0  0  0
  -17.9204  -42.6234   -7.6356 C   0  0  0  0  0  0  0  0  0  0  0  0
  -17.3047  -43.3024   -6.7229 O   0  0  0  0  0  0  0  0  0  0  0  0
  -18.0496  -41.2645   -7.3696 N   0  0  0  0  0  0  0  0  0  0  0  0
  1  2  1  0
  2  3  1  0
  2  4  1  0
  4  5  2  0
  5  6  1  0
  6  7  2  0
  7  8  1  0
  8  9  2  0
  7 10  1  0
 10 11  1  0
 11 12  1  0
 11 13  1  0
 11 14  1  0
 14 15  1  0
 15 16  1  6
 16 17  1  0
 17 18  1  0
 18 19  1  6
 18 20  1  0
 20 21  1  1
 21 22  1  0
 22 23  2  0
 23 24  1  0
 24 25  2  0
 25 26  1  0
 26 27  2  0
 24 28  1  0
 28 29  1  0
 29 30  1  0
 30 31  1  0
 31 32  1  0
 32 33  1  0
 33 34  1  0
 34 35  2  0
 34 36  1  0
 36 37  1  0
 36 38  1  0
 38 39  1  6
 38 40  1  0
 40 41  2  0
 40 42  1  0
  9  4  1  0
 15  6  1  0
 27 22  1  0
 42 20  1  0
M  END
$$$$
