
     RDKit          3D

 42 45  0  0  0  0  0  0  0  0999 V2000
  -13.8747  -32.3820  -11.6052 C   0  0  0  0  0  0  0  0  0  0  0  0
  -14.6430  -33.3161  -10.6998 C   0  0  0  0  0  0  0  0  0  0  0  0
  -16.0826  -33.3049  -11.1879 C   0  0  0  0  0  0  0  0  0  0  0  0
  -14.1319  -34.7147  -10.9231 C   0  0  0  0  0  0  0  0  0  0  0  0
  -14.2189  -35.6643   -9.9231 C   0  0  0  0  0  0  0  0  0  0  0  0
  -13.7665  -36.9573  -10.0778 C   0  0  0  0  0  0  0  0  0  0  0  0
  -13.2035  -37.3219  -11.2774 C   0  0  0  0  0  0  0  0  0  0  0  0
  -13.1155  -36.3714  -12.2803 C   0  0  0  0  0  0  0  0  0  0  0  0
  -13.5680  -35.0801  -12.1245 C   0  0  0  0  0  0  0  0  0  0  0  0
  -12.7518  -38.6145  -11.4301 O   0  0  0  0  0  0  0  0  0  0  0  0
  -12.2128  -39.3656  -10.3635 C   0  0  0  0  0  0  0  0  0  0  0  0
  -12.5482  -40.8414  -10.5169 C   0  0  0  0  0  0  0  0  0  0  0  0
  -10.7034  -39.2585  -10.4453 C   0  0  0  0  0  0  0  0  0  0  0  0
  -12.6289  -38.8526   -8.9971 C   0  0  0  0  0  0  0  0  0  0  0  0
  -13.8561  -37.9993   -9.0123 C   0  0  2  0  0  0  0  0  0  0  0  0
  -15.0947  -38.6846   -9.0117 N   0  0  0  0  0  0  0  0  0  0  0  0
  -15.5463  -39.2906   -7.8082 C   0  0  0  0  0  0  0  0  0  0  0  0
  -16.9594  -39.0426   -7.4413 C   0  0  1  0  0  0  0  0  0  0  0  0
  -17.3109  -37.7367   -7.7258 O   0  0  0  0  0  0  0  0  0  0  0  0
  -17.9080  -40.0217   -8.1730 C   0  0  2  0  0  0  0  0  0  0  0  0
  -19.0801  -39.2450   -8.6117 C   0  0  0  0  0  0  0  0  0  0  0  0
  -20.3997  -39.4603   -7.9539 C   0  0  0  0  0  0  0  0  0  0  0  0
  -20.7842  -39.3840   -6.6386 C   0  0  0  0  0  0  0  0  0  0  0  0
  -22.1077  -39.6617   -6.3275 C   0  0  0  0  0  0  0  0  0  0  0  0
  -23.0277  -40.0074   -7.3378 C   0  0  0  0  0  0  0  0  0  0  0  0
  -22.6718  -40.0893   -8.6562 C   0  0  0  0  0  0  0  0  0  0  0  0
  -21.3625  -39.8136   -8.9339 C   0  0  0  0  0  0  0  0  0  0  0  0
  -22.7373  -39.6604   -5.0969 O   0  0  0  0  0  0  0  0  0  0  0  0
  -22.5862  -40.3260   -3.8875 C   0  0  0  0  0  0  0  0  0  0  0  0
  -21.5382  -41.3818   -3.9912 C   0  0  0  0  0  0  0  0  0  0  0  0
  -22.0437  -42.7708   -4.1964 C   0  0  0  0  0  0  0  0  0  0  0  0
  -22.0439  -43.2806   -5.5866 C   0  0  0  0  0  0  0  0  0  0  0  0
  -20.6816  -43.4874   -6.2032 C   0  0  0  0  0  0  0  0  0  0  0  0
  -20.8668  -43.6369   -7.6647 C   0  0  0  0  0  0  0  0  0  0  0  0
  -21.9910  -44.1196   -8.0427 O   0  0  0  0  0  0  0  0  0  0  0  0
  -19.9289  -43.3008   -8.6726 N   0  0  0  0  0  0  0  0  0  0  0  0
  -20.4949  -42.9113   -9.9792 C   0  0  0  0  0  0  0  0  0  0  0  0
  -18.4902  -43.3339   -8.4939 C   0  0  1  0  0  0  0  0  0  0  0  0
  -17.7567  -43.1108   -9.7942 C   0  0  0  0  0  0  0  0  0  0  0  0
  -17.9914  -42.4674   -7.4045 C   0  0  0  0  0  0  0  0  0  0  0  0
  -17.3029  -43.0418   -6.4721 O   0  0  0  0  0  0  0  0  0  0  0  0
  -18.1661  -41.0970   -7.2459 N   0  0  0  0  0  0  0  0  0  0  0  0
  1  2  1  0
  2  3  1  0
  2  4  1  0
  4  5  2  0
  5  6  1  0
  6  7  2  0
  7  8  1  0
  8  9  2  0
  7 10  1  0
 10 11  1  0
 11 12  1  0
 11 13  1  0
 11 14  1  0
 14 15  1  0
 15 16  1  6
 16 17  1  0
 17 18  1  0
 18 19  1  6
 18 20  1  0
 20 21  1  1
 21 22  1  0
 22 23  2  0
 23 24  1  0
 24 25  2  0
 25 26  1  0
 26 27  2  0
 24 28  1  0
 28 29  1  0
 29 30  1  0
 30 31  1  0
 31 32  1  0
 32 33  1  0
 33 34  1  0
 34 35  2  0
 34 36  1  0
 36 37  1  0
 36 38  1  0
 38 39  1  6
 38 40  1  0
 40 41  2  0
 40 42  1  0
  9  4  1  0
 15  6  1  0
 27 22  1  0
 42 20  1  0
M  END
$$$$
