
     RDKit          3D

 42 45  0  0  0  0  0  0  0  0999 V2000
   -9.2806  -36.3583  -11.9609 C   0  0  0  0  0  0  0  0  0  0  0  0
  -10.0165  -36.0328  -10.6822 C   0  0  0  0  0  0  0  0  0  0  0  0
   -9.6690  -34.5937  -10.3373 C   0  0  0  0  0  0  0  0  0  0  0  0
  -11.4942  -36.0533  -10.9708 C   0  0  0  0  0  0  0  0  0  0  0  0
  -12.2590  -37.1586  -10.6505 C   0  0  0  0  0  0  0  0  0  0  0  0
  -13.6143  -37.2265  -10.8936 C   0  0  0  0  0  0  0  0  0  0  0  0
  -14.2357  -36.1500  -11.4800 C   0  0  0  0  0  0  0  0  0  0  0  0
  -13.4706  -35.0418  -11.8016 C   0  0  0  0  0  0  0  0  0  0  0  0
  -12.1168  -34.9752  -11.5581 C   0  0  0  0  0  0  0  0  0  0  0  0
  -15.5902  -36.2198  -11.7223 O   0  0  0  0  0  0  0  0  0  0  0  0
  -16.2466  -37.4269  -12.0451 C   0  0  0  0  0  0  0  0  0  0  0  0
  -17.6601  -37.4415  -11.4833 C   0  0  0  0  0  0  0  0  0  0  0  0
  -16.3844  -37.4836  -13.5532 C   0  0  0  0  0  0  0  0  0  0  0  0
  -15.4776  -38.6625  -11.6147 C   0  0  0  0  0  0  0  0  0  0  0  0
  -14.4592  -38.4087  -10.5505 C   0  0  2  0  0  0  0  0  0  0  0  0
  -14.9397  -38.3773   -9.2193 N   0  0  0  0  0  0  0  0  0  0  0  0
  -15.3667  -39.5892   -8.6122 C   0  0  0  0  0  0  0  0  0  0  0  0
  -16.6279  -39.5242   -7.8387 C   0  0  1  0  0  0  0  0  0  0  0  0
  -17.0975  -38.2255   -7.7874 O   0  0  0  0  0  0  0  0  0  0  0  0
  -17.7042  -40.4569   -8.4433 C   0  0  2  0  0  0  0  0  0  0  0  0
  -18.7893  -39.5983   -8.9484 C   0  0  0  0  0  0  0  0  0  0  0  0
  -20.1063  -39.5823   -8.2515 C   0  0  0  0  0  0  0  0  0  0  0  0
  -20.4428  -39.3184   -6.9474 C   0  0  0  0  0  0  0  0  0  0  0  0
  -21.7806  -39.4011   -6.5881 C   0  0  0  0  0  0  0  0  0  0  0  0
  -22.7622  -39.7423   -7.5403 C   0  0  0  0  0  0  0  0  0  0  0  0
  -22.4548  -40.0086   -8.8465 C   0  0  0  0  0  0  0  0  0  0  0  0
  -21.1305  -39.9226   -9.1721 C   0  0  0  0  0  0  0  0  0  0  0  0
  -22.3715  -39.1913   -5.3563 O   0  0  0  0  0  0  0  0  0  0  0  0
  -22.2658  -39.7350   -4.0828 C   0  0  0  0  0  0  0  0  0  0  0  0
  -21.3516  -40.9131   -4.0839 C   0  0  0  0  0  0  0  0  0  0  0  0
  -22.0212  -42.2460   -4.1263 C   0  0  0  0  0  0  0  0  0  0  0  0
  -22.1194  -42.8999   -5.4511 C   0  0  0  0  0  0  0  0  0  0  0  0
  -20.8081  -43.3332   -6.0608 C   0  0  0  0  0  0  0  0  0  0  0  0
  -21.0498  -43.6173   -7.4938 C   0  0  0  0  0  0  0  0  0  0  0  0
  -22.2327  -44.0008   -7.7994 O   0  0  0  0  0  0  0  0  0  0  0  0
  -20.1073  -43.5066   -8.5463 N   0  0  0  0  0  0  0  0  0  0  0  0
  -20.6598  -43.1966   -9.8797 C   0  0  0  0  0  0  0  0  0  0  0  0
  -18.6779  -43.6913   -8.3861 C   0  0  1  0  0  0  0  0  0  0  0  0
  -17.9596  -43.6995   -9.7137 C   0  0  0  0  0  0  0  0  0  0  0  0
  -18.0514  -42.7774   -7.4069 C   0  0  0  0  0  0  0  0  0  0  0  0
  -17.4093  -43.3251   -6.4267 O   0  0  0  0  0  0  0  0  0  0  0  0
  -18.0604  -41.3868   -7.3989 N   0  0  0  0  0  0  0  0  0  0  0  0
  1  2  1  0
  2  3  1  0
  2  4  1  0
  4  5  2  0
  5  6  1  0
  6  7  2  0
  7  8  1  0
  8  9  2  0
  7 10  1  0
 10 11  1  0
 11 12  1  0
 11 13  1  0
 11 14  1  0
 14 15  1  0
 15 16  1  1
 16 17  1  0
 17 18  1  0
 18 19  1  6
 18 20  1  0
 20 21  1  1
 21 22  1  0
 22 23  2  0
 23 24  1  0
 24 25  2  0
 25 26  1  0
 26 27  2  0
 24 28  1  0
 28 29  1  0
 29 30  1  0
 30 31  1  0
 31 32  1  0
 32 33  1  0
 33 34  1  0
 34 35  2  0
 34 36  1  0
 36 37  1  0
 36 38  1  0
 38 39  1  6
 38 40  1  0
 40 41  2  0
 40 42  1  0
  9  4  1  0
 15  6  1  0
 27 22  1  0
 42 20  1  0
M  END
$$$$
