
     RDKit          3D

 42 45  0  0  0  0  0  0  0  0999 V2000
   -9.2867  -35.2513  -11.2743 C   0  0  0  0  0  0  0  0  0  0  0  0
   -9.9320  -36.2174  -10.3084 C   0  0  0  0  0  0  0  0  0  0  0  0
  -10.0890  -35.4732   -8.9922 C   0  0  0  0  0  0  0  0  0  0  0  0
  -11.3256  -36.5114  -10.7967 C   0  0  0  0  0  0  0  0  0  0  0  0
  -11.9882  -37.6534  -10.3893 C   0  0  0  0  0  0  0  0  0  0  0  0
  -13.2640  -37.9673  -10.8069 C   0  0  0  0  0  0  0  0  0  0  0  0
  -13.9084  -37.1097  -11.6661 C   0  0  0  0  0  0  0  0  0  0  0  0
  -13.2456  -35.9650  -12.0752 C   0  0  0  0  0  0  0  0  0  0  0  0
  -11.9713  -35.6525  -11.6572 C   0  0  0  0  0  0  0  0  0  0  0  0
  -15.1833  -37.4253  -12.0825 O   0  0  0  0  0  0  0  0  0  0  0  0
  -15.6191  -38.7552  -12.2658 C   0  0  0  0  0  0  0  0  0  0  0  0
  -17.0937  -38.8943  -11.9193 C   0  0  0  0  0  0  0  0  0  0  0  0
  -15.4932  -39.0786  -13.7410 C   0  0  0  0  0  0  0  0  0  0  0  0
  -14.7841  -39.7707  -11.5077 C   0  0  0  0  0  0  0  0  0  0  0  0
  -13.9991  -39.1928  -10.3745 C   0  0  2  0  0  0  0  0  0  0  0  0
  -14.6966  -39.0180   -9.1552 N   0  0  0  0  0  0  0  0  0  0  0  0
  -15.6723  -39.9789   -8.7756 C   0  0  0  0  0  0  0  0  0  0  0  0
  -16.8031  -39.4764   -7.9620 C   0  0  1  0  0  0  0  0  0  0  0  0
  -16.8108  -38.0947   -7.9457 O   0  0  0  0  0  0  0  0  0  0  0  0
  -18.1550  -40.0110   -8.4918 C   0  0  2  0  0  0  0  0  0  0  0  0
  -19.0837  -38.8689   -8.5436 C   0  0  0  0  0  0  0  0  0  0  0  0
  -20.2176  -38.7921   -7.5798 C   0  0  0  0  0  0  0  0  0  0  0  0
  -20.2490  -38.8142   -6.2079 C   0  0  0  0  0  0  0  0  0  0  0  0
  -21.4851  -38.7409   -5.5814 C   0  0  0  0  0  0  0  0  0  0  0  0
  -22.6707  -38.6421   -6.3370 C   0  0  0  0  0  0  0  0  0  0  0  0
  -22.6680  -38.6165   -7.7048 C   0  0  0  0  0  0  0  0  0  0  0  0
  -21.4382  -38.6928   -8.2956 C   0  0  0  0  0  0  0  0  0  0  0  0
  -21.7852  -38.7495   -4.2321 O   0  0  0  0  0  0  0  0  0  0  0  0
  -21.5856  -39.6110   -3.1613 C   0  0  0  0  0  0  0  0  0  0  0  0
  -20.9833  -40.8957   -3.6201 C   0  0  0  0  0  0  0  0  0  0  0  0
  -21.9396  -42.0282   -3.7927 C   0  0  0  0  0  0  0  0  0  0  0  0
  -22.4179  -42.2919   -5.1690 C   0  0  0  0  0  0  0  0  0  0  0  0
  -21.3706  -42.7860   -6.1375 C   0  0  0  0  0  0  0  0  0  0  0  0
  -21.9197  -42.6448   -7.5053 C   0  0  0  0  0  0  0  0  0  0  0  0
  -23.1940  -42.7150   -7.6099 O   0  0  0  0  0  0  0  0  0  0  0  0
  -21.1775  -42.4419   -8.6955 N   0  0  0  0  0  0  0  0  0  0  0  0
  -21.8691  -41.7055   -9.7718 C   0  0  0  0  0  0  0  0  0  0  0  0
  -19.8242  -42.9187   -8.9059 C   0  0  1  0  0  0  0  0  0  0  0  0
  -19.3724  -42.7175  -10.3321 C   0  0  0  0  0  0  0  0  0  0  0  0
  -18.8412  -42.4160   -7.9223 C   0  0  0  0  0  0  0  0  0  0  0  0
  -18.1808  -43.3040   -7.2525 O   0  0  0  0  0  0  0  0  0  0  0  0
  -18.5270  -41.0963   -7.6165 N   0  0  0  0  0  0  0  0  0  0  0  0
  1  2  1  0
  2  3  1  0
  2  4  1  0
  4  5  2  0
  5  6  1  0
  6  7  2  0
  7  8  1  0
  8  9  2  0
  7 10  1  0
 10 11  1  0
 11 12  1  0
 11 13  1  0
 11 14  1  0
 14 15  1  0
 15 16  1  1
 16 17  1  0
 17 18  1  0
 18 19  1  6
 18 20  1  0
 20 21  1  1
 21 22  1  0
 22 23  2  0
 23 24  1  0
 24 25  2  0
 25 26  1  0
 26 27  2  0
 24 28  1  0
 28 29  1  0
 29 30  1  0
 30 31  1  0
 31 32  1  0
 32 33  1  0
 33 34  1  0
 34 35  2  0
 34 36  1  0
 36 37  1  0
 36 38  1  0
 38 39  1  6
 38 40  1  0
 40 41  2  0
 40 42  1  0
  9  4  1  0
 15  6  1  0
 27 22  1  0
 42 20  1  0
M  END
$$$$
