
     RDKit          3D

 42 45  0  0  0  0  0  0  0  0999 V2000
  -18.7407  -37.3975  -11.3625 C   0  0  0  0  0  0  0  0  0  0  0  0
  -17.8407  -36.9442  -12.4882 C   0  0  0  0  0  0  0  0  0  0  0  0
  -17.9323  -35.4274  -12.5314 C   0  0  0  0  0  0  0  0  0  0  0  0
  -16.4190  -37.2713  -12.1155 C   0  0  0  0  0  0  0  0  0  0  0  0
  -16.0225  -37.2817  -10.7920 C   0  0  0  0  0  0  0  0  0  0  0  0
  -14.7340  -37.5751  -10.3993 C   0  0  0  0  0  0  0  0  0  0  0  0
  -13.8000  -37.8707  -11.3631 C   0  0  0  0  0  0  0  0  0  0  0  0
  -14.1958  -37.8606  -12.6899 C   0  0  0  0  0  0  0  0  0  0  0  0
  -15.4833  -37.5675  -13.0808 C   0  0  0  0  0  0  0  0  0  0  0  0
  -12.5128  -38.1635  -10.9687 O   0  0  0  0  0  0  0  0  0  0  0  0
  -11.9096  -37.5766   -9.8356 C   0  0  0  0  0  0  0  0  0  0  0  0
  -10.9547  -38.5522   -9.1644 C   0  0  0  0  0  0  0  0  0  0  0  0
  -11.0655  -36.4138  -10.3173 C   0  0  0  0  0  0  0  0  0  0  0  0
  -12.9126  -37.0249   -8.8392 C   0  0  0  0  0  0  0  0  0  0  0  0
  -14.2868  -37.5969   -8.9749 C   0  0  2  0  0  0  0  0  0  0  0  0
  -14.5105  -38.8443   -8.3441 N   0  0  0  0  0  0  0  0  0  0  0  0
  -15.6590  -39.6011   -8.7017 C   0  0  0  0  0  0  0  0  0  0  0  0
  -16.8500  -39.4294   -7.8386 C   0  0  1  0  0  0  0  0  0  0  0  0
  -17.1128  -38.0876   -7.6383 O   0  0  0  0  0  0  0  0  0  0  0  0
  -18.0880  -40.1303   -8.4469 C   0  0  2  0  0  0  0  0  0  0  0  0
  -19.1916  -39.1548   -8.4303 C   0  0  0  0  0  0  0  0  0  0  0  0
  -20.3354  -39.3465   -7.4947 C   0  0  0  0  0  0  0  0  0  0  0  0
  -20.3811  -39.4904   -6.1306 C   0  0  0  0  0  0  0  0  0  0  0  0
  -21.6206  -39.6735   -5.5340 C   0  0  0  0  0  0  0  0  0  0  0  0
  -22.7961  -39.7055   -6.3110 C   0  0  0  0  0  0  0  0  0  0  0  0
  -22.7794  -39.5632   -7.6714 C   0  0  0  0  0  0  0  0  0  0  0  0
  -21.5460  -39.3872   -8.2329 C   0  0  0  0  0  0  0  0  0  0  0  0
  -21.9333  -39.8459   -4.1986 O   0  0  0  0  0  0  0  0  0  0  0  0
  -21.6087  -40.7514   -3.1970 C   0  0  0  0  0  0  0  0  0  0  0  0
  -20.7967  -41.8768   -3.7428 C   0  0  0  0  0  0  0  0  0  0  0  0
  -21.5508  -43.1312   -4.0335 C   0  0  0  0  0  0  0  0  0  0  0  0
  -21.9605  -43.3511   -5.4394 C   0  0  0  0  0  0  0  0  0  0  0  0
  -20.8332  -43.5833   -6.4162 C   0  0  0  0  0  0  0  0  0  0  0  0
  -21.3797  -43.4175   -7.7823 C   0  0  0  0  0  0  0  0  0  0  0  0
  -22.6235  -43.6855   -7.9269 O   0  0  0  0  0  0  0  0  0  0  0  0
  -20.6653  -42.9955   -8.9312 N   0  0  0  0  0  0  0  0  0  0  0  0
  -21.4544  -42.2928   -9.9620 C   0  0  0  0  0  0  0  0  0  0  0  0
  -19.2492  -43.2254   -9.1430 C   0  0  1  0  0  0  0  0  0  0  0  0
  -18.8177  -42.8323  -10.5351 C   0  0  0  0  0  0  0  0  0  0  0  0
  -18.3757  -42.6547   -8.0952 C   0  0  0  0  0  0  0  0  0  0  0  0
  -17.5871  -43.4768   -7.4826 O   0  0  0  0  0  0  0  0  0  0  0  0
  -18.2876  -41.3324   -7.6739 N   0  0  0  0  0  0  0  0  0  0  0  0
  1  2  1  0
  2  3  1  0
  2  4  1  0
  4  5  2  0
  5  6  1  0
  6  7  2  0
  7  8  1  0
  8  9  2  0
  7 10  1  0
 10 11  1  0
 11 12  1  0
 11 13  1  0
 11 14  1  0
 14 15  1  0
 15 16  1  6
 16 17  1  0
 17 18  1  0
 18 19  1  6
 18 20  1  0
 20 21  1  1
 21 22  1  0
 22 23  2  0
 23 24  1  0
 24 25  2  0
 25 26  1  0
 26 27  2  0
 24 28  1  0
 28 29  1  0
 29 30  1  0
 30 31  1  0
 31 32  1  0
 32 33  1  0
 33 34  1  0
 34 35  2  0
 34 36  1  0
 36 37  1  0
 36 38  1  0
 38 39  1  6
 38 40  1  0
 40 41  2  0
 40 42  1  0
  9  4  1  0
 15  6  1  0
 27 22  1  0
 42 20  1  0
M  END
$$$$
