
     RDKit          3D

 42 45  0  0  0  0  0  0  0  0999 V2000
  -12.2179  -34.0978  -10.9214 C   0  0  0  0  0  0  0  0  0  0  0  0
  -13.4418  -34.9810  -10.9888 C   0  0  0  0  0  0  0  0  0  0  0  0
  -14.0209  -34.8124  -12.3841 C   0  0  0  0  0  0  0  0  0  0  0  0
  -12.9940  -36.4150  -10.8874 C   0  0  0  0  0  0  0  0  0  0  0  0
  -13.4244  -37.2153   -9.8465 C   0  0  0  0  0  0  0  0  0  0  0  0
  -13.0439  -38.5332   -9.7094 C   0  0  0  0  0  0  0  0  0  0  0  0
  -12.1996  -39.0788  -10.6467 C   0  0  0  0  0  0  0  0  0  0  0  0
  -11.7675  -38.2781  -11.6902 C   0  0  0  0  0  0  0  0  0  0  0  0
  -12.1484  -36.9617  -11.8261 C   0  0  0  0  0  0  0  0  0  0  0  0
  -11.8204  -40.3961  -10.5078 O   0  0  0  0  0  0  0  0  0  0  0  0
  -11.6548  -41.0140   -9.2496 C   0  0  0  0  0  0  0  0  0  0  0  0
  -12.0430  -42.4835   -9.3130 C   0  0  0  0  0  0  0  0  0  0  0  0
  -10.1780  -40.9753   -8.9118 C   0  0  0  0  0  0  0  0  0  0  0  0
  -12.3934  -40.3042   -8.1299 C   0  0  0  0  0  0  0  0  0  0  0  0
  -13.5017  -39.4160   -8.5956 C   0  0  2  0  0  0  0  0  0  0  0  0
  -14.7394  -40.0483   -8.8642 N   0  0  0  0  0  0  0  0  0  0  0  0
  -15.6964  -40.1614   -7.8196 C   0  0  0  0  0  0  0  0  0  0  0  0
  -16.9793  -39.4519   -8.0285 C   0  0  1  0  0  0  0  0  0  0  0  0
  -16.7940  -38.3442   -8.8338 O   0  0  0  0  0  0  0  0  0  0  0  0
  -18.0432  -40.3893   -8.6476 C   0  0  2  0  0  0  0  0  0  0  0  0
  -19.1268  -39.5357   -9.1642 C   0  0  0  0  0  0  0  0  0  0  0  0
  -20.4521  -39.5281   -8.4831 C   0  0  0  0  0  0  0  0  0  0  0  0
  -20.8056  -39.2684   -7.1827 C   0  0  0  0  0  0  0  0  0  0  0  0
  -22.1473  -39.3591   -6.8396 C   0  0  0  0  0  0  0  0  0  0  0  0
  -23.1155  -39.7038   -7.8041 C   0  0  0  0  0  0  0  0  0  0  0  0
  -22.7910  -39.9660   -9.1070 C   0  0  0  0  0  0  0  0  0  0  0  0
  -21.4633  -39.8722   -9.4165 C   0  0  0  0  0  0  0  0  0  0  0  0
  -22.7540  -39.1547   -5.6146 O   0  0  0  0  0  0  0  0  0  0  0  0
  -22.6606  -39.7002   -4.3409 C   0  0  0  0  0  0  0  0  0  0  0  0
  -21.7400  -40.8733   -4.3331 C   0  0  0  0  0  0  0  0  0  0  0  0
  -22.4019  -42.2097   -4.3859 C   0  0  0  0  0  0  0  0  0  0  0  0
  -22.4806  -42.8618   -5.7130 C   0  0  0  0  0  0  0  0  0  0  0  0
  -21.1598  -43.2868   -6.3076 C   0  0  0  0  0  0  0  0  0  0  0  0
  -21.3827  -43.5696   -7.7439 C   0  0  0  0  0  0  0  0  0  0  0  0
  -22.5597  -43.9589   -8.0644 O   0  0  0  0  0  0  0  0  0  0  0  0
  -20.4283  -43.4519   -8.7849 N   0  0  0  0  0  0  0  0  0  0  0  0
  -20.9664  -43.1423  -10.1242 C   0  0  0  0  0  0  0  0  0  0  0  0
  -18.9999  -43.6290   -8.6078 C   0  0  1  0  0  0  0  0  0  0  0  0
  -18.2657  -43.6309   -9.9267 C   0  0  0  0  0  0  0  0  0  0  0  0
  -18.3901  -42.7136   -7.6196 C   0  0  0  0  0  0  0  0  0  0  0  0
  -17.7569  -43.2596   -6.6327 O   0  0  0  0  0  0  0  0  0  0  0  0
  -18.4069  -41.3231   -7.6092 N   0  0  0  0  0  0  0  0  0  0  0  0
  1  2  1  0
  2  3  1  0
  2  4  1  0
  4  5  2  0
  5  6  1  0
  6  7  2  0
  7  8  1  0
  8  9  2  0
  7 10  1  0
 10 11  1  0
 11 12  1  0
 11 13  1  0
 11 14  1  0
 14 15  1  0
 15 16  1  6
 16 17  1  0
 17 18  1  0
 18 19  1  6
 18 20  1  0
 20 21  1  1
 21 22  1  0
 22 23  2  0
 23 24  1  0
 24 25  2  0
 25 26  1  0
 26 27  2  0
 24 28  1  0
 28 29  1  0
 29 30  1  0
 30 31  1  0
 31 32  1  0
 32 33  1  0
 33 34  1  0
 34 35  2  0
 34 36  1  0
 36 37  1  0
 36 38  1  0
 38 39  1  6
 38 40  1  0
 40 41  2  0
 40 42  1  0
  9  4  1  0
 15  6  1  0
 27 22  1  0
 42 20  1  0
M  END
$$$$
