
     RDKit          3D

 42 45  0  0  0  0  0  0  0  0999 V2000
  -10.6851  -34.3073  -11.2540 C   0  0  0  0  0  0  0  0  0  0  0  0
  -11.8100  -34.5348  -10.2714 C   0  0  0  0  0  0  0  0  0  0  0  0
  -12.3836  -33.1652   -9.9457 C   0  0  0  0  0  0  0  0  0  0  0  0
  -12.9033  -35.2946  -10.9746 C   0  0  0  0  0  0  0  0  0  0  0  0
  -13.3947  -36.4726  -10.4455 C   0  0  0  0  0  0  0  0  0  0  0  0
  -14.3945  -37.2045  -11.0500 C   0  0  0  0  0  0  0  0  0  0  0  0
  -14.9283  -36.7460  -12.2306 C   0  0  0  0  0  0  0  0  0  0  0  0
  -14.4368  -35.5657  -12.7620 C   0  0  0  0  0  0  0  0  0  0  0  0
  -13.4382  -34.8355  -12.1570 C   0  0  0  0  0  0  0  0  0  0  0  0
  -15.9272  -37.4789  -12.8332 O   0  0  0  0  0  0  0  0  0  0  0  0
  -15.9945  -38.8866  -12.7547 C   0  0  0  0  0  0  0  0  0  0  0  0
  -17.4402  -39.3593  -12.7363 C   0  0  0  0  0  0  0  0  0  0  0  0
  -15.3771  -39.4454  -14.0209 C   0  0  0  0  0  0  0  0  0  0  0  0
  -15.2197  -39.4605  -11.5827 C   0  0  0  0  0  0  0  0  0  0  0  0
  -14.9429  -38.4763  -10.4923 C   0  0  2  0  0  0  0  0  0  0  0  0
  -15.9865  -38.2663   -9.5592 N   0  0  0  0  0  0  0  0  0  0  0  0
  -15.6802  -38.2663   -8.1714 C   0  0  0  0  0  0  0  0  0  0  0  0
  -16.2627  -39.3693   -7.3733 C   0  0  1  0  0  0  0  0  0  0  0  0
  -16.6689  -38.9085   -6.1354 O   0  0  0  0  0  0  0  0  0  0  0  0
  -17.4509  -40.0288   -8.1129 C   0  0  2  0  0  0  0  0  0  0  0  0
  -18.5190  -39.0188   -8.2069 C   0  0  0  0  0  0  0  0  0  0  0  0
  -19.7606  -39.1765   -7.3982 C   0  0  0  0  0  0  0  0  0  0  0  0
  -19.9546  -39.3225   -6.0474 C   0  0  0  0  0  0  0  0  0  0  0  0
  -21.2552  -39.4677   -5.5859 C   0  0  0  0  0  0  0  0  0  0  0  0
  -22.3426  -39.4602   -6.4827 C   0  0  0  0  0  0  0  0  0  0  0  0
  -22.1779  -39.3149   -7.8329 C   0  0  0  0  0  0  0  0  0  0  0  0
  -20.8872  -39.1766   -8.2601 C   0  0  0  0  0  0  0  0  0  0  0  0
  -21.7124  -39.6337   -4.2920 O   0  0  0  0  0  0  0  0  0  0  0  0
  -21.5239  -40.5517   -3.2672 C   0  0  0  0  0  0  0  0  0  0  0  0
  -20.6945  -41.7009   -3.7312 C   0  0  0  0  0  0  0  0  0  0  0  0
  -21.4526  -42.9299   -4.1074 C   0  0  0  0  0  0  0  0  0  0  0  0
  -21.7184  -43.1329   -5.5498 C   0  0  0  0  0  0  0  0  0  0  0  0
  -20.5021  -43.3982   -6.4037 C   0  0  0  0  0  0  0  0  0  0  0  0
  -20.8958  -43.2114   -7.8188 C   0  0  0  0  0  0  0  0  0  0  0  0
  -22.1252  -43.4394   -8.0954 O   0  0  0  0  0  0  0  0  0  0  0  0
  -20.0512  -42.8093   -8.8835 N   0  0  0  0  0  0  0  0  0  0  0  0
  -20.7048  -42.0791   -9.9875 C   0  0  0  0  0  0  0  0  0  0  0  0
  -18.6286  -43.0836   -8.9462 C   0  0  1  0  0  0  0  0  0  0  0  0
  -18.0405  -42.7006  -10.2826 C   0  0  0  0  0  0  0  0  0  0  0  0
  -17.8532  -42.5437   -7.8087 C   0  0  0  0  0  0  0  0  0  0  0  0
  -17.1597  -43.3922   -7.1214 O   0  0  0  0  0  0  0  0  0  0  0  0
  -17.7686  -41.2260   -7.3725 N   0  0  0  0  0  0  0  0  0  0  0  0
  1  2  1  0
  2  3  1  0
  2  4  1  0
  4  5  2  0
  5  6  1  0
  6  7  2  0
  7  8  1  0
  8  9  2  0
  7 10  1  0
 10 11  1  0
 11 12  1  0
 11 13  1  0
 11 14  1  0
 14 15  1  0
 15 16  1  6
 16 17  1  0
 17 18  1  0
 18 19  1  1
 18 20  1  0
 20 21  1  1
 21 22  1  0
 22 23  2  0
 23 24  1  0
 24 25  2  0
 25 26  1  0
 26 27  2  0
 24 28  1  0
 28 29  1  0
 29 30  1  0
 30 31  1  0
 31 32  1  0
 32 33  1  0
 33 34  1  0
 34 35  2  0
 34 36  1  0
 36 37  1  0
 36 38  1  0
 38 39  1  6
 38 40  1  0
 40 41  2  0
 40 42  1  0
  9  4  1  0
 15  6  1  0
 27 22  1  0
 42 20  1  0
M  END
$$$$
