
     RDKit          3D

 42 45  0  0  0  0  0  0  0  0999 V2000
  -16.4100  -34.0695   -6.1168 C   0  0  0  0  0  0  0  0  0  0  0  0
  -17.3018  -34.9376   -6.9734 C   0  0  0  0  0  0  0  0  0  0  0  0
  -18.3586  -34.0198   -7.5664 C   0  0  0  0  0  0  0  0  0  0  0  0
  -16.4882  -35.4497   -8.1322 C   0  0  0  0  0  0  0  0  0  0  0  0
  -16.3370  -36.8072   -8.3412 C   0  0  0  0  0  0  0  0  0  0  0  0
  -15.6034  -37.3260   -9.3868 C   0  0  0  0  0  0  0  0  0  0  0  0
  -14.9941  -36.4587  -10.2617 C   0  0  0  0  0  0  0  0  0  0  0  0
  -15.1447  -35.0982  -10.0535 C   0  0  0  0  0  0  0  0  0  0  0  0
  -15.8779  -34.5812   -9.0087 C   0  0  0  0  0  0  0  0  0  0  0  0
  -14.2613  -36.9791  -11.3059 O   0  0  0  0  0  0  0  0  0  0  0  0
  -13.5451  -38.1913  -11.2061 C   0  0  0  0  0  0  0  0  0  0  0  0
  -13.5364  -38.9261  -12.5380 C   0  0  0  0  0  0  0  0  0  0  0  0
  -12.1020  -37.8460  -10.8979 C   0  0  0  0  0  0  0  0  0  0  0  0
  -14.0422  -39.0926  -10.0909 C   0  0  0  0  0  0  0  0  0  0  0  0
  -15.4322  -38.7886   -9.6331 C   0  0  2  0  0  0  0  0  0  0  0  0
  -16.4808  -39.3461  -10.4036 N   0  0  0  0  0  0  0  0  0  0  0  0
  -17.0856  -40.5570   -9.9703 C   0  0  0  0  0  0  0  0  0  0  0  0
  -18.5263  -40.4850   -9.6353 C   0  0  1  0  0  0  0  0  0  0  0  0
  -19.1994  -39.7082  -10.5589 O   0  0  0  0  0  0  0  0  0  0  0  0
  -19.1560  -41.8965   -9.5657 C   0  0  2  0  0  0  0  0  0  0  0  0
  -20.5026  -41.8013  -10.1550 C   0  0  0  0  0  0  0  0  0  0  0  0
  -21.7036  -41.9174   -9.2806 C   0  0  0  0  0  0  0  0  0  0  0  0
  -22.0908  -41.2134   -8.1679 C   0  0  0  0  0  0  0  0  0  0  0  0
  -23.2785  -41.5737   -7.5472 C   0  0  0  0  0  0  0  0  0  0  0  0
  -24.0631  -42.6303   -8.0519 C   0  0  0  0  0  0  0  0  0  0  0  0
  -23.7016  -43.3472   -9.1594 C   0  0  0  0  0  0  0  0  0  0  0  0
  -22.5269  -42.9733   -9.7490 C   0  0  0  0  0  0  0  0  0  0  0  0
  -23.8793  -41.0346   -6.4251 O   0  0  0  0  0  0  0  0  0  0  0  0
  -23.5410  -40.8530   -5.0906 C   0  0  0  0  0  0  0  0  0  0  0  0
  -22.2345  -41.5025   -4.7820 C   0  0  0  0  0  0  0  0  0  0  0  0
  -22.3211  -42.8411   -4.1283 C   0  0  0  0  0  0  0  0  0  0  0  0
  -22.1783  -44.0227   -5.0092 C   0  0  0  0  0  0  0  0  0  0  0  0
  -20.8153  -44.2091   -5.6308 C   0  0  0  0  0  0  0  0  0  0  0  0
  -20.9532  -45.1877   -6.7334 C   0  0  0  0  0  0  0  0  0  0  0  0
  -21.8927  -46.0486   -6.6072 O   0  0  0  0  0  0  0  0  0  0  0  0
  -20.1533  -45.2612   -7.9010 N   0  0  0  0  0  0  0  0  0  0  0  0
  -20.8102  -45.8149   -9.1015 C   0  0  0  0  0  0  0  0  0  0  0  0
  -18.7651  -44.8474   -7.9680 C   0  0  1  0  0  0  0  0  0  0  0  0
  -18.1293  -45.2223   -9.2847 C   0  0  0  0  0  0  0  0  0  0  0  0
  -18.5331  -43.4321   -7.6078 C   0  0  0  0  0  0  0  0  0  0  0  0
  -17.7068  -43.2054   -6.6388 O   0  0  0  0  0  0  0  0  0  0  0  0
  -19.0930  -42.2952   -8.1801 N   0  0  0  0  0  0  0  0  0  0  0  0
  1  2  1  0
  2  3  1  0
  2  4  1  0
  4  5  2  0
  5  6  1  0
  6  7  2  0
  7  8  1  0
  8  9  2  0
  7 10  1  0
 10 11  1  0
 11 12  1  0
 11 13  1  0
 11 14  1  0
 14 15  1  0
 15 16  1  6
 16 17  1  0
 17 18  1  0
 18 19  1  6
 18 20  1  0
 20 21  1  1
 21 22  1  0
 22 23  2  0
 23 24  1  0
 24 25  2  0
 25 26  1  0
 26 27  2  0
 24 28  1  0
 28 29  1  0
 29 30  1  0
 30 31  1  0
 31 32  1  0
 32 33  1  0
 33 34  1  0
 34 35  2  0
 34 36  1  0
 36 37  1  0
 36 38  1  0
 38 39  1  6
 38 40  1  0
 40 41  2  0
 40 42  1  0
  9  4  1  0
 15  6  1  0
 27 22  1  0
 42 20  1  0
M  END
$$$$
