
     RDKit          3D

 42 45  0  0  0  0  0  0  0  0999 V2000
   -8.7452  -36.7254  -11.3097 C   0  0  0  0  0  0  0  0  0  0  0  0
   -9.4984  -36.5958  -10.0063 C   0  0  0  0  0  0  0  0  0  0  0  0
   -8.9806  -35.3363   -9.3308 C   0  0  0  0  0  0  0  0  0  0  0  0
  -10.9479  -36.3400  -10.3234 C   0  0  0  0  0  0  0  0  0  0  0  0
  -11.8304  -37.3914  -10.4815 C   0  0  0  0  0  0  0  0  0  0  0  0
  -13.1659  -37.2100  -10.7714 C   0  0  0  0  0  0  0  0  0  0  0  0
  -13.6445  -35.9291  -10.9103 C   0  0  0  0  0  0  0  0  0  0  0  0
  -12.7613  -34.8746  -10.7522 C   0  0  0  0  0  0  0  0  0  0  0  0
  -11.4275  -35.0571  -10.4624 C   0  0  0  0  0  0  0  0  0  0  0  0
  -14.9794  -35.7499  -11.2002 O   0  0  0  0  0  0  0  0  0  0  0  0
  -15.7184  -36.6595  -11.9868 C   0  0  0  0  0  0  0  0  0  0  0  0
  -17.1633  -36.7321  -11.5168 C   0  0  0  0  0  0  0  0  0  0  0  0
  -15.7547  -36.1168  -13.4013 C   0  0  0  0  0  0  0  0  0  0  0  0
  -15.0967  -38.0426  -12.0493 C   0  0  0  0  0  0  0  0  0  0  0  0
  -14.1366  -38.3317  -10.9408 C   0  0  2  0  0  0  0  0  0  0  0  0
  -14.7043  -38.7612   -9.7173 N   0  0  0  0  0  0  0  0  0  0  0  0
  -15.6847  -39.7899   -9.7362 C   0  0  0  0  0  0  0  0  0  0  0  0
  -16.9649  -39.4857   -9.0568 C   0  0  1  0  0  0  0  0  0  0  0  0
  -17.5350  -38.3443   -9.5878 O   0  0  0  0  0  0  0  0  0  0  0  0
  -17.9510  -40.6732   -9.1630 C   0  0  2  0  0  0  0  0  0  0  0  0
  -19.2239  -40.1368   -9.6747 C   0  0  0  0  0  0  0  0  0  0  0  0
  -20.4095  -40.0589   -8.7755 C   0  0  0  0  0  0  0  0  0  0  0  0
  -20.5902  -39.4515   -7.5582 C   0  0  0  0  0  0  0  0  0  0  0  0
  -21.8294  -39.5718   -6.9453 C   0  0  0  0  0  0  0  0  0  0  0  0
  -22.8706  -40.2944   -7.5620 C   0  0  0  0  0  0  0  0  0  0  0  0
  -22.7182  -40.9080   -8.7751 C   0  0  0  0  0  0  0  0  0  0  0  0
  -21.4878  -40.7759   -9.3546 C   0  0  0  0  0  0  0  0  0  0  0  0
  -22.2601  -39.0662   -5.7331 O   0  0  0  0  0  0  0  0  0  0  0  0
  -21.8819  -39.1821   -4.4019 C   0  0  0  0  0  0  0  0  0  0  0  0
  -20.7975  -40.1939   -4.2454 C   0  0  0  0  0  0  0  0  0  0  0  0
  -21.2394  -41.5434   -3.7868 C   0  0  0  0  0  0  0  0  0  0  0  0
  -21.4221  -42.5753   -4.8329 C   0  0  0  0  0  0  0  0  0  0  0  0
  -20.1611  -43.0221   -5.5322 C   0  0  0  0  0  0  0  0  0  0  0  0
  -20.5600  -43.7531   -6.7566 C   0  0  0  0  0  0  0  0  0  0  0  0
  -21.6962  -44.3423   -6.7149 O   0  0  0  0  0  0  0  0  0  0  0  0
  -19.8124  -43.8614   -7.9557 N   0  0  0  0  0  0  0  0  0  0  0  0
  -20.5972  -44.0351   -9.1940 C   0  0  0  0  0  0  0  0  0  0  0  0
  -18.3642  -43.8260   -8.0219 C   0  0  1  0  0  0  0  0  0  0  0  0
  -17.8562  -44.1556   -9.4046 C   0  0  0  0  0  0  0  0  0  0  0  0
  -17.7591  -42.5934   -7.4732 C   0  0  0  0  0  0  0  0  0  0  0  0
  -16.8997  -42.7416   -6.5178 O   0  0  0  0  0  0  0  0  0  0  0  0
  -17.9939  -41.2764   -7.8527 N   0  0  0  0  0  0  0  0  0  0  0  0
  1  2  1  0
  2  3  1  0
  2  4  1  0
  4  5  2  0
  5  6  1  0
  6  7  2  0
  7  8  1  0
  8  9  2  0
  7 10  1  0
 10 11  1  0
 11 12  1  0
 11 13  1  0
 11 14  1  0
 14 15  1  0
 15 16  1  1
 16 17  1  0
 17 18  1  0
 18 19  1  6
 18 20  1  0
 20 21  1  1
 21 22  1  0
 22 23  2  0
 23 24  1  0
 24 25  2  0
 25 26  1  0
 26 27  2  0
 24 28  1  0
 28 29  1  0
 29 30  1  0
 30 31  1  0
 31 32  1  0
 32 33  1  0
 33 34  1  0
 34 35  2  0
 34 36  1  0
 36 37  1  0
 36 38  1  0
 38 39  1  6
 38 40  1  0
 40 41  2  0
 40 42  1  0
  9  4  1  0
 15  6  1  0
 27 22  1  0
 42 20  1  0
M  END
$$$$
