
     RDKit          3D

 42 45  0  0  0  0  0  0  0  0999 V2000
  -17.9032  -37.0987  -12.0251 C   0  0  0  0  0  0  0  0  0  0  0  0
  -16.8641  -36.2373  -12.7040 C   0  0  0  0  0  0  0  0  0  0  0  0
  -16.9890  -34.8493  -12.0969 C   0  0  0  0  0  0  0  0  0  0  0  0
  -15.5020  -36.7478  -12.3151 C   0  0  0  0  0  0  0  0  0  0  0  0
  -15.1877  -36.9762  -10.9891 C   0  0  0  0  0  0  0  0  0  0  0  0
  -13.9563  -37.4432  -10.5818 C   0  0  0  0  0  0  0  0  0  0  0  0
  -12.9964  -37.6937  -11.5330 C   0  0  0  0  0  0  0  0  0  0  0  0
  -13.3098  -37.4653  -12.8621 C   0  0  0  0  0  0  0  0  0  0  0  0
  -14.5404  -36.9989  -13.2676 C   0  0  0  0  0  0  0  0  0  0  0  0
  -11.7662  -38.1603  -11.1239 O   0  0  0  0  0  0  0  0  0  0  0  0
  -11.1819  -37.7939   -9.8925 C   0  0  0  0  0  0  0  0  0  0  0  0
  -10.3595  -38.9391   -9.3215 C   0  0  0  0  0  0  0  0  0  0  0  0
  -10.2104  -36.6633  -10.1655 C   0  0  0  0  0  0  0  0  0  0  0  0
  -12.1894  -37.2885   -8.8763 C   0  0  0  0  0  0  0  0  0  0  0  0
  -13.5986  -37.7015   -9.1554 C   0  0  2  0  0  0  0  0  0  0  0  0
  -13.9697  -38.9955   -8.7178 N   0  0  0  0  0  0  0  0  0  0  0  0
  -15.2553  -39.4960   -9.0592 C   0  0  0  0  0  0  0  0  0  0  0  0
  -16.3397  -39.2311   -8.0862 C   0  0  1  0  0  0  0  0  0  0  0  0
  -16.5039  -37.8712   -7.9033 O   0  0  0  0  0  0  0  0  0  0  0  0
  -17.6715  -39.8722   -8.5438 C   0  0  2  0  0  0  0  0  0  0  0  0
  -18.6906  -38.8087   -8.5377 C   0  0  0  0  0  0  0  0  0  0  0  0
  -19.7718  -38.8249   -7.5125 C   0  0  0  0  0  0  0  0  0  0  0  0
  -19.7253  -38.8514   -6.1411 C   0  0  0  0  0  0  0  0  0  0  0  0
  -20.9267  -38.8790   -5.4470 C   0  0  0  0  0  0  0  0  0  0  0  0
  -22.1565  -38.8751   -6.1356 C   0  0  0  0  0  0  0  0  0  0  0  0
  -22.2316  -38.8475   -7.5012 C   0  0  0  0  0  0  0  0  0  0  0  0
  -21.0342  -38.8235   -8.1593 C   0  0  0  0  0  0  0  0  0  0  0  0
  -21.1500  -38.9136   -4.0833 O   0  0  0  0  0  0  0  0  0  0  0  0
  -20.8227  -39.7577   -3.0302 C   0  0  0  0  0  0  0  0  0  0  0  0
  -20.1453  -40.9890   -3.5290 C   0  0  0  0  0  0  0  0  0  0  0  0
  -21.0154  -42.1947   -3.6552 C   0  0  0  0  0  0  0  0  0  0  0  0
  -21.5464  -42.4942   -5.0046 C   0  0  0  0  0  0  0  0  0  0  0  0
  -20.5180  -42.9009   -6.0322 C   0  0  0  0  0  0  0  0  0  0  0  0
  -21.1516  -42.8025   -7.3669 C   0  0  0  0  0  0  0  0  0  0  0  0
  -22.4199  -42.9751   -7.4015 O   0  0  0  0  0  0  0  0  0  0  0  0
  -20.4952  -42.5388   -8.5949 N   0  0  0  0  0  0  0  0  0  0  0  0
  -21.3024  -41.8591   -9.6272 C   0  0  0  0  0  0  0  0  0  0  0  0
  -19.1216  -42.9046   -8.8823 C   0  0  1  0  0  0  0  0  0  0  0  0
  -18.7672  -42.6655  -10.3300 C   0  0  0  0  0  0  0  0  0  0  0  0
  -18.1293  -42.3255   -7.9515 C   0  0  0  0  0  0  0  0  0  0  0  0
  -17.3635  -43.1582   -7.3243 O   0  0  0  0  0  0  0  0  0  0  0  0
  -17.9059  -40.9852   -7.6557 N   0  0  0  0  0  0  0  0  0  0  0  0
  1  2  1  0
  2  3  1  0
  2  4  1  0
  4  5  2  0
  5  6  1  0
  6  7  2  0
  7  8  1  0
  8  9  2  0
  7 10  1  0
 10 11  1  0
 11 12  1  0
 11 13  1  0
 11 14  1  0
 14 15  1  0
 15 16  1  6
 16 17  1  0
 17 18  1  0
 18 19  1  6
 18 20  1  0
 20 21  1  1
 21 22  1  0
 22 23  2  0
 23 24  1  0
 24 25  2  0
 25 26  1  0
 26 27  2  0
 24 28  1  0
 28 29  1  0
 29 30  1  0
 30 31  1  0
 31 32  1  0
 32 33  1  0
 33 34  1  0
 34 35  2  0
 34 36  1  0
 36 37  1  0
 36 38  1  0
 38 39  1  6
 38 40  1  0
 40 41  2  0
 40 42  1  0
  9  4  1  0
 15  6  1  0
 27 22  1  0
 42 20  1  0
M  END
$$$$
