
     RDKit          3D

 42 45  0  0  0  0  0  0  0  0999 V2000
  -16.0213  -33.6190  -11.5030 C   0  0  0  0  0  0  0  0  0  0  0  0
  -16.4563  -34.9651  -12.0335 C   0  0  0  0  0  0  0  0  0  0  0  0
  -16.7566  -34.7714  -13.5111 C   0  0  0  0  0  0  0  0  0  0  0  0
  -15.2802  -35.9026  -11.9606 C   0  0  0  0  0  0  0  0  0  0  0  0
  -14.9294  -36.5006  -10.7654 C   0  0  0  0  0  0  0  0  0  0  0  0
  -13.8627  -37.3659  -10.6466 C   0  0  0  0  0  0  0  0  0  0  0  0
  -13.1129  -37.6485  -11.7632 C   0  0  0  0  0  0  0  0  0  0  0  0
  -13.4632  -37.0500  -12.9615 C   0  0  0  0  0  0  0  0  0  0  0  0
  -14.5291  -36.1859  -13.0789 C   0  0  0  0  0  0  0  0  0  0  0  0
  -12.0472  -38.5134  -11.6423 O   0  0  0  0  0  0  0  0  0  0  0  0
  -11.2702  -38.6077  -10.4678 C   0  0  0  0  0  0  0  0  0  0  0  0
  -10.7804  -40.0322  -10.2558 C   0  0  0  0  0  0  0  0  0  0  0  0
  -10.0337  -37.7547  -10.6674 C   0  0  0  0  0  0  0  0  0  0  0  0
  -11.9831  -38.0883   -9.2327 C   0  0  0  0  0  0  0  0  0  0  0  0
  -13.4705  -38.0263   -9.3663 C   0  0  2  0  0  0  0  0  0  0  0  0
  -14.1709  -39.2335   -9.1295 N   0  0  0  0  0  0  0  0  0  0  0  0
  -15.5608  -39.2920   -9.4201 C   0  0  0  0  0  0  0  0  0  0  0  0
  -16.4549  -39.5978   -8.2800 C   0  0  1  0  0  0  0  0  0  0  0  0
  -16.8294  -38.4351   -7.6336 O   0  0  0  0  0  0  0  0  0  0  0  0
  -17.7083  -40.3769   -8.7446 C   0  0  2  0  0  0  0  0  0  0  0  0
  -18.7275  -39.3799   -9.1146 C   0  0  0  0  0  0  0  0  0  0  0  0
  -19.9360  -39.2044   -8.2608 C   0  0  0  0  0  0  0  0  0  0  0  0
  -20.0733  -38.9166   -6.9259 C   0  0  0  0  0  0  0  0  0  0  0  0
  -21.3565  -38.8320   -6.4043 C   0  0  0  0  0  0  0  0  0  0  0  0
  -22.4830  -39.0321   -7.2273 C   0  0  0  0  0  0  0  0  0  0  0  0
  -22.3749  -39.3185   -8.5606 C   0  0  0  0  0  0  0  0  0  0  0  0
  -21.1005  -39.3986   -9.0472 C   0  0  0  0  0  0  0  0  0  0  0  0
  -21.7599  -38.5643   -5.1096 O   0  0  0  0  0  0  0  0  0  0  0  0
  -21.5698  -39.1336   -3.8573 C   0  0  0  0  0  0  0  0  0  0  0  0
  -20.8219  -40.4190   -3.9677 C   0  0  0  0  0  0  0  0  0  0  0  0
  -21.6577  -41.6544   -3.9234 C   0  0  0  0  0  0  0  0  0  0  0  0
  -22.0010  -42.2731   -5.2242 C   0  0  0  0  0  0  0  0  0  0  0  0
  -20.8411  -42.8628   -5.9896 C   0  0  0  0  0  0  0  0  0  0  0  0
  -21.2911  -43.0948   -7.3810 C   0  0  0  0  0  0  0  0  0  0  0  0
  -22.5420  -43.3195   -7.5375 O   0  0  0  0  0  0  0  0  0  0  0  0
  -20.4784  -43.0921   -8.5420 N   0  0  0  0  0  0  0  0  0  0  0  0
  -21.1456  -42.6964   -9.7980 C   0  0  0  0  0  0  0  0  0  0  0  0
  -19.0759  -43.4604   -8.5586 C   0  0  1  0  0  0  0  0  0  0  0  0
  -18.5328  -43.5433   -9.9646 C   0  0  0  0  0  0  0  0  0  0  0  0
  -18.2217  -42.6472   -7.6668 C   0  0  0  0  0  0  0  0  0  0  0  0
  -17.5401  -43.2854   -6.7716 O   0  0  0  0  0  0  0  0  0  0  0  0
  -18.0506  -41.2671   -7.6616 N   0  0  0  0  0  0  0  0  0  0  0  0
  1  2  1  0
  2  3  1  0
  2  4  1  0
  4  5  2  0
  5  6  1  0
  6  7  2  0
  7  8  1  0
  8  9  2  0
  7 10  1  0
 10 11  1  0
 11 12  1  0
 11 13  1  0
 11 14  1  0
 14 15  1  0
 15 16  1  6
 16 17  1  0
 17 18  1  0
 18 19  1  6
 18 20  1  0
 20 21  1  1
 21 22  1  0
 22 23  2  0
 23 24  1  0
 24 25  2  0
 25 26  1  0
 26 27  2  0
 24 28  1  0
 28 29  1  0
 29 30  1  0
 30 31  1  0
 31 32  1  0
 32 33  1  0
 33 34  1  0
 34 35  2  0
 34 36  1  0
 36 37  1  0
 36 38  1  0
 38 39  1  6
 38 40  1  0
 40 41  2  0
 40 42  1  0
  9  4  1  0
 15  6  1  0
 27 22  1  0
 42 20  1  0
M  END
$$$$
