
     RDKit          3D

 42 45  0  0  0  0  0  0  0  0999 V2000
  -17.5346  -34.2366  -10.9918 C   0  0  0  0  0  0  0  0  0  0  0  0
  -17.3109  -35.3005  -12.0410 C   0  0  0  0  0  0  0  0  0  0  0  0
  -17.2630  -34.5837  -13.3807 C   0  0  0  0  0  0  0  0  0  0  0  0
  -15.9424  -35.8913  -11.8286 C   0  0  0  0  0  0  0  0  0  0  0  0
  -15.6312  -36.5413  -10.6497 C   0  0  0  0  0  0  0  0  0  0  0  0
  -14.3941  -37.0991  -10.4069 C   0  0  0  0  0  0  0  0  0  0  0  0
  -13.4251  -37.0067  -11.3771 C   0  0  0  0  0  0  0  0  0  0  0  0
  -13.7354  -36.3555  -12.5590 C   0  0  0  0  0  0  0  0  0  0  0  0
  -14.9716  -35.7989  -12.8002 C   0  0  0  0  0  0  0  0  0  0  0  0
  -12.1893  -37.5646  -11.1326 O   0  0  0  0  0  0  0  0  0  0  0  0
  -11.6178  -37.6182   -9.8431 C   0  0  0  0  0  0  0  0  0  0  0  0
  -10.7789  -38.8760   -9.6747 C   0  0  0  0  0  0  0  0  0  0  0  0
  -10.6643  -36.4472   -9.7162 C   0  0  0  0  0  0  0  0  0  0  0  0
  -12.6392  -37.4924   -8.7277 C   0  0  0  0  0  0  0  0  0  0  0  0
  -14.0396  -37.8099   -9.1426 C   0  0  2  0  0  0  0  0  0  0  0  0
  -14.3908  -39.1811   -9.1620 N   0  0  0  0  0  0  0  0  0  0  0  0
  -15.7180  -39.5475   -9.5142 C   0  0  0  0  0  0  0  0  0  0  0  0
  -16.6542  -39.7738   -8.3893 C   0  0  1  0  0  0  0  0  0  0  0  0
  -17.0372  -38.5701   -7.8290 O   0  0  0  0  0  0  0  0  0  0  0  0
  -17.8998  -40.5684   -8.8488 C   0  0  2  0  0  0  0  0  0  0  0  0
  -19.0037  -39.6033   -8.9887 C   0  0  0  0  0  0  0  0  0  0  0  0
  -20.1347  -39.6262   -8.0187 C   0  0  0  0  0  0  0  0  0  0  0  0
  -20.1620  -39.5286   -6.6501 C   0  0  0  0  0  0  0  0  0  0  0  0
  -21.3932  -39.6023   -6.0141 C   0  0  0  0  0  0  0  0  0  0  0  0
  -22.5790  -39.7680   -6.7577 C   0  0  0  0  0  0  0  0  0  0  0  0
  -22.5807  -39.8664   -8.1221 C   0  0  0  0  0  0  0  0  0  0  0  0
  -21.3551  -39.7935   -8.7221 C   0  0  0  0  0  0  0  0  0  0  0  0
  -21.6878  -39.5374   -4.6651 O   0  0  0  0  0  0  0  0  0  0  0  0
  -21.3491  -40.2539   -3.5247 C   0  0  0  0  0  0  0  0  0  0  0  0
  -20.5437  -41.4589   -3.8757 C   0  0  0  0  0  0  0  0  0  0  0  0
  -21.3008  -42.7436   -3.9319 C   0  0  0  0  0  0  0  0  0  0  0  0
  -21.7293  -43.2058   -5.2718 C   0  0  0  0  0  0  0  0  0  0  0  0
  -20.6150  -43.6075   -6.2078 C   0  0  0  0  0  0  0  0  0  0  0  0
  -21.1800  -43.6827   -7.5744 C   0  0  0  0  0  0  0  0  0  0  0  0
  -22.4254  -43.9699   -7.6531 O   0  0  0  0  0  0  0  0  0  0  0  0
  -20.4813  -43.4699   -8.7889 N   0  0  0  0  0  0  0  0  0  0  0  0
  -21.2848  -42.9574   -9.9163 C   0  0  0  0  0  0  0  0  0  0  0  0
  -19.0680  -43.7357   -8.9761 C   0  0  1  0  0  0  0  0  0  0  0  0
  -18.6556  -43.5934  -10.4212 C   0  0  0  0  0  0  0  0  0  0  0  0
  -18.1810  -42.9916   -8.0563 C   0  0  0  0  0  0  0  0  0  0  0  0
  -17.3836  -43.6950   -7.3197 O   0  0  0  0  0  0  0  0  0  0  0  0
  -18.0882  -41.6161   -7.8745 N   0  0  0  0  0  0  0  0  0  0  0  0
  1  2  1  0
  2  3  1  0
  2  4  1  0
  4  5  2  0
  5  6  1  0
  6  7  2  0
  7  8  1  0
  8  9  2  0
  7 10  1  0
 10 11  1  0
 11 12  1  0
 11 13  1  0
 11 14  1  0
 14 15  1  0
 15 16  1  6
 16 17  1  0
 17 18  1  0
 18 19  1  6
 18 20  1  0
 20 21  1  1
 21 22  1  0
 22 23  2  0
 23 24  1  0
 24 25  2  0
 25 26  1  0
 26 27  2  0
 24 28  1  0
 28 29  1  0
 29 30  1  0
 30 31  1  0
 31 32  1  0
 32 33  1  0
 33 34  1  0
 34 35  2  0
 34 36  1  0
 36 37  1  0
 36 38  1  0
 38 39  1  6
 38 40  1  0
 40 41  2  0
 40 42  1  0
  9  4  1  0
 15  6  1  0
 27 22  1  0
 42 20  1  0
M  END
$$$$
