
     RDKit          3D

 42 45  0  0  0  0  0  0  0  0999 V2000
  -10.0849  -41.2072  -10.3006 C   0  0  0  0  0  0  0  0  0  0  0  0
   -9.5363  -40.0779  -11.1410 C   0  0  0  0  0  0  0  0  0  0  0  0
   -9.6117  -40.5390  -12.5876 C   0  0  0  0  0  0  0  0  0  0  0  0
  -10.4723  -38.9045  -11.0220 C   0  0  0  0  0  0  0  0  0  0  0  0
  -11.8306  -39.0644  -11.2183 C   0  0  0  0  0  0  0  0  0  0  0  0
  -12.7284  -38.0229  -11.1202 C   0  0  0  0  0  0  0  0  0  0  0  0
  -12.2559  -36.7690  -10.8143 C   0  0  0  0  0  0  0  0  0  0  0  0
  -10.8950  -36.6072  -10.6175 C   0  0  0  0  0  0  0  0  0  0  0  0
   -9.9992  -37.6485  -10.7155 C   0  0  0  0  0  0  0  0  0  0  0  0
  -13.1547  -35.7293  -10.7169 O   0  0  0  0  0  0  0  0  0  0  0  0
  -14.3256  -35.6567  -11.5017 C   0  0  0  0  0  0  0  0  0  0  0  0
  -15.4556  -34.9943  -10.7282 C   0  0  0  0  0  0  0  0  0  0  0  0
  -14.0292  -34.7551  -12.6832 C   0  0  0  0  0  0  0  0  0  0  0  0
  -14.7611  -37.0004  -12.0567 C   0  0  0  0  0  0  0  0  0  0  0  0
  -14.1997  -38.1756  -11.3232 C   0  0  2  0  0  0  0  0  0  0  0  0
  -14.8831  -38.5629  -10.1456 N   0  0  0  0  0  0  0  0  0  0  0  0
  -16.2294  -39.0070  -10.2447 C   0  0  0  0  0  0  0  0  0  0  0  0
  -16.8817  -39.4053   -8.9763 C   0  0  1  0  0  0  0  0  0  0  0  0
  -17.1211  -38.2969   -8.1866 O   0  0  0  0  0  0  0  0  0  0  0  0
  -18.2023  -40.1669   -9.2409 C   0  0  2  0  0  0  0  0  0  0  0  0
  -19.2680  -39.1580   -9.3678 C   0  0  0  0  0  0  0  0  0  0  0  0
  -20.2984  -39.0308   -8.2990 C   0  0  0  0  0  0  0  0  0  0  0  0
  -20.1871  -38.8099   -6.9490 C   0  0  0  0  0  0  0  0  0  0  0  0
  -21.3523  -38.7575   -6.1972 C   0  0  0  0  0  0  0  0  0  0  0  0
  -22.6116  -38.9224   -6.8082 C   0  0  0  0  0  0  0  0  0  0  0  0
  -22.7514  -39.1421   -8.1512 C   0  0  0  0  0  0  0  0  0  0  0  0
  -21.5883  -39.1918   -8.8668 C   0  0  0  0  0  0  0  0  0  0  0  0
  -21.5101  -38.5560   -4.8388 O   0  0  0  0  0  0  0  0  0  0  0  0
  -21.0956  -39.1854   -3.6724 C   0  0  0  0  0  0  0  0  0  0  0  0
  -20.3861  -40.4601   -3.9815 C   0  0  0  0  0  0  0  0  0  0  0  0
  -21.2047  -41.7003   -3.8456 C   0  0  0  0  0  0  0  0  0  0  0  0
  -21.7835  -42.2558   -5.0902 C   0  0  0  0  0  0  0  0  0  0  0  0
  -20.7863  -42.8012   -6.0837 C   0  0  0  0  0  0  0  0  0  0  0  0
  -21.4851  -42.9666   -7.3786 C   0  0  0  0  0  0  0  0  0  0  0  0
  -22.7444  -43.1896   -7.3137 O   0  0  0  0  0  0  0  0  0  0  0  0
  -20.8994  -42.9025   -8.6676 N   0  0  0  0  0  0  0  0  0  0  0  0
  -21.7842  -42.4488   -9.7586 C   0  0  0  0  0  0  0  0  0  0  0  0
  -19.5253  -43.2626   -8.9595 C   0  0  1  0  0  0  0  0  0  0  0  0
  -19.2499  -43.2733  -10.4437 C   0  0  0  0  0  0  0  0  0  0  0  0
  -18.5185  -42.4901   -8.2006 C   0  0  0  0  0  0  0  0  0  0  0  0
  -17.6868  -43.1682   -7.4784 O   0  0  0  0  0  0  0  0  0  0  0  0
  -18.3436  -41.1111   -8.1588 N   0  0  0  0  0  0  0  0  0  0  0  0
  1  2  1  0
  2  3  1  0
  2  4  1  0
  4  5  2  0
  5  6  1  0
  6  7  2  0
  7  8  1  0
  8  9  2  0
  7 10  1  0
 10 11  1  0
 11 12  1  0
 11 13  1  0
 11 14  1  0
 14 15  1  0
 15 16  1  1
 16 17  1  0
 17 18  1  0
 18 19  1  1
 18 20  1  0
 20 21  1  1
 21 22  1  0
 22 23  2  0
 23 24  1  0
 24 25  2  0
 25 26  1  0
 26 27  2  0
 24 28  1  0
 28 29  1  0
 29 30  1  0
 30 31  1  0
 31 32  1  0
 32 33  1  0
 33 34  1  0
 34 35  2  0
 34 36  1  0
 36 37  1  0
 36 38  1  0
 38 39  1  6
 38 40  1  0
 40 41  2  0
 40 42  1  0
  9  4  1  0
 15  6  1  0
 27 22  1  0
 42 20  1  0
M  END
$$$$
