
     RDKit          3D

 42 45  0  0  0  0  0  0  0  0999 V2000
  -13.3048  -33.8263  -11.2903 C   0  0  0  0  0  0  0  0  0  0  0  0
  -12.2853  -34.6639  -12.0264 C   0  0  0  0  0  0  0  0  0  0  0  0
  -10.9719  -34.5033  -11.2780 C   0  0  0  0  0  0  0  0  0  0  0  0
  -12.6765  -36.1113  -11.8879 C   0  0  0  0  0  0  0  0  0  0  0  0
  -12.9454  -36.6523  -10.6453 C   0  0  0  0  0  0  0  0  0  0  0  0
  -13.3076  -37.9703  -10.4656 C   0  0  0  0  0  0  0  0  0  0  0  0
  -13.4066  -38.7851  -11.5680 C   0  0  0  0  0  0  0  0  0  0  0  0
  -13.1374  -38.2443  -12.8138 C   0  0  0  0  0  0  0  0  0  0  0  0
  -12.7757  -36.9276  -12.9919 C   0  0  0  0  0  0  0  0  0  0  0  0
  -13.7687  -40.1020  -11.3864 O   0  0  0  0  0  0  0  0  0  0  0  0
  -13.4142  -40.8393  -10.2362 C   0  0  0  0  0  0  0  0  0  0  0  0
  -14.5005  -41.8430   -9.8806 C   0  0  0  0  0  0  0  0  0  0  0  0
  -12.1779  -41.6479  -10.5741 C   0  0  0  0  0  0  0  0  0  0  0  0
  -13.0705  -39.9648   -9.0444 C   0  0  0  0  0  0  0  0  0  0  0  0
  -13.6075  -38.5727   -9.1328 C   0  0  2  0  0  0  0  0  0  0  0  0
  -14.9547  -38.3953   -8.7362 N   0  0  0  0  0  0  0  0  0  0  0  0
  -15.6294  -39.4662   -8.0899 C   0  0  0  0  0  0  0  0  0  0  0  0
  -17.0238  -39.2008   -7.6678 C   0  0  1  0  0  0  0  0  0  0  0  0
  -17.3760  -37.8957   -7.9550 O   0  0  0  0  0  0  0  0  0  0  0  0
  -18.0103  -40.1809   -8.3459 C   0  0  2  0  0  0  0  0  0  0  0  0
  -19.1942  -39.4001   -8.7439 C   0  0  0  0  0  0  0  0  0  0  0  0
  -20.4860  -39.5966   -8.0275 C   0  0  0  0  0  0  0  0  0  0  0  0
  -20.8131  -39.5012   -6.6981 C   0  0  0  0  0  0  0  0  0  0  0  0
  -22.1243  -39.7643   -6.3272 C   0  0  0  0  0  0  0  0  0  0  0  0
  -23.0892  -40.1147   -7.2929 C   0  0  0  0  0  0  0  0  0  0  0  0
  -22.7908  -40.2155   -8.6241 C   0  0  0  0  0  0  0  0  0  0  0  0
  -21.4926  -39.9539   -8.9610 C   0  0  0  0  0  0  0  0  0  0  0  0
  -22.7005  -39.7429   -5.0710 O   0  0  0  0  0  0  0  0  0  0  0  0
  -22.5027  -40.3950   -3.8609 C   0  0  0  0  0  0  0  0  0  0  0  0
  -21.4682  -41.4605   -3.9961 C   0  0  0  0  0  0  0  0  0  0  0  0
  -21.9926  -42.8477   -4.1622 C   0  0  0  0  0  0  0  0  0  0  0  0
  -22.0563  -43.3744   -5.5446 C   0  0  0  0  0  0  0  0  0  0  0  0
  -20.7233  -43.5997   -6.2163 C   0  0  0  0  0  0  0  0  0  0  0  0
  -20.9721  -43.7655   -7.6665 C   0  0  0  0  0  0  0  0  0  0  0  0
  -22.1152  -44.2435   -7.9901 O   0  0  0  0  0  0  0  0  0  0  0  0
  -20.0758  -43.4493   -8.7178 N   0  0  0  0  0  0  0  0  0  0  0  0
  -20.6943  -43.0711  -10.0037 C   0  0  0  0  0  0  0  0  0  0  0  0
  -18.6310  -43.4919   -8.6004 C   0  0  1  0  0  0  0  0  0  0  0  0
  -17.9523  -43.2906   -9.9336 C   0  0  0  0  0  0  0  0  0  0  0  0
  -18.0793  -42.6164   -7.5442 C   0  0  0  0  0  0  0  0  0  0  0  0
  -17.3560  -43.1850   -6.6350 O   0  0  0  0  0  0  0  0  0  0  0  0
  -18.2367  -41.2428   -7.3953 N   0  0  0  0  0  0  0  0  0  0  0  0
  1  2  1  0
  2  3  1  0
  2  4  1  0
  4  5  2  0
  5  6  1  0
  6  7  2  0
  7  8  1  0
  8  9  2  0
  7 10  1  0
 10 11  1  0
 11 12  1  0
 11 13  1  0
 11 14  1  0
 14 15  1  0
 15 16  1  6
 16 17  1  0
 17 18  1  0
 18 19  1  6
 18 20  1  0
 20 21  1  1
 21 22  1  0
 22 23  2  0
 23 24  1  0
 24 25  2  0
 25 26  1  0
 26 27  2  0
 24 28  1  0
 28 29  1  0
 29 30  1  0
 30 31  1  0
 31 32  1  0
 32 33  1  0
 33 34  1  0
 34 35  2  0
 34 36  1  0
 36 37  1  0
 36 38  1  0
 38 39  1  6
 38 40  1  0
 40 41  2  0
 40 42  1  0
  9  4  1  0
 15  6  1  0
 27 22  1  0
 42 20  1  0
M  END
$$$$
