
     RDKit          3D

 42 45  0  0  0  0  0  0  0  0999 V2000
  -18.3983  -34.5226  -10.3332 C   0  0  0  0  0  0  0  0  0  0  0  0
  -18.0484  -34.6073  -11.8005 C   0  0  0  0  0  0  0  0  0  0  0  0
  -17.8737  -33.1777  -12.2869 C   0  0  0  0  0  0  0  0  0  0  0  0
  -16.6994  -35.2642  -11.9259 C   0  0  0  0  0  0  0  0  0  0  0  0
  -16.0356  -35.7288  -10.8067 C   0  0  0  0  0  0  0  0  0  0  0  0
  -14.8002  -36.3374  -10.8684 C   0  0  0  0  0  0  0  0  0  0  0  0
  -14.1989  -36.4906  -12.0948 C   0  0  0  0  0  0  0  0  0  0  0  0
  -14.8629  -36.0255  -13.2172 C   0  0  0  0  0  0  0  0  0  0  0  0
  -16.0970  -35.4178  -13.1542 C   0  0  0  0  0  0  0  0  0  0  0  0
  -12.9642  -37.0989  -12.1544 O   0  0  0  0  0  0  0  0  0  0  0  0
  -12.0046  -36.9805  -11.1262 C   0  0  0  0  0  0  0  0  0  0  0  0
  -11.1858  -38.2563  -11.0003 C   0  0  0  0  0  0  0  0  0  0  0  0
  -11.0352  -35.8874  -11.5287 C   0  0  0  0  0  0  0  0  0  0  0  0
  -12.6029  -36.5841   -9.7890 C   0  0  0  0  0  0  0  0  0  0  0  0
  -14.0690  -36.8508   -9.6722 C   0  0  2  0  0  0  0  0  0  0  0  0
  -14.4387  -38.1719   -9.3229 N   0  0  0  0  0  0  0  0  0  0  0  0
  -15.8177  -38.4897   -9.1925 C   0  0  0  0  0  0  0  0  0  0  0  0
  -16.1646  -39.4796   -8.1472 C   0  0  1  0  0  0  0  0  0  0  0  0
  -16.5908  -38.8407   -6.9983 O   0  0  0  0  0  0  0  0  0  0  0  0
  -17.2510  -40.4623   -8.6451 C   0  0  2  0  0  0  0  0  0  0  0  0
  -18.3790  -39.6515   -9.1348 C   0  0  0  0  0  0  0  0  0  0  0  0
  -19.6578  -39.6237   -8.3704 C   0  0  0  0  0  0  0  0  0  0  0  0
  -19.9311  -39.2986   -7.0653 C   0  0  0  0  0  0  0  0  0  0  0  0
  -21.2463  -39.3873   -6.6314 C   0  0  0  0  0  0  0  0  0  0  0  0
  -22.2688  -39.7957   -7.5113 C   0  0  0  0  0  0  0  0  0  0  0  0
  -22.0246  -40.1239   -8.8167 C   0  0  0  0  0  0  0  0  0  0  0  0
  -20.7213  -40.0304   -9.2164 C   0  0  0  0  0  0  0  0  0  0  0  0
  -21.7763  -39.1247   -5.3821 O   0  0  0  0  0  0  0  0  0  0  0  0
  -21.5925  -39.5993   -4.0900 C   0  0  0  0  0  0  0  0  0  0  0  0
  -20.6547  -40.7588   -4.0798 C   0  0  0  0  0  0  0  0  0  0  0  0
  -21.2972  -42.1042   -4.0184 C   0  0  0  0  0  0  0  0  0  0  0  0
  -21.4506  -42.8279   -5.3011 C   0  0  0  0  0  0  0  0  0  0  0  0
  -20.1641  -43.2679   -5.9569 C   0  0  0  0  0  0  0  0  0  0  0  0
  -20.4743  -43.6306   -7.3586 C   0  0  0  0  0  0  0  0  0  0  0  0
  -21.6631  -44.0513   -7.5808 O   0  0  0  0  0  0  0  0  0  0  0  0
  -19.5907  -43.5574   -8.4642 N   0  0  0  0  0  0  0  0  0  0  0  0
  -20.2187  -43.3275   -9.7803 C   0  0  0  0  0  0  0  0  0  0  0  0
  -18.1513  -43.7069   -8.3713 C   0  0  1  0  0  0  0  0  0  0  0  0
  -17.5034  -43.7709   -9.7331 C   0  0  0  0  0  0  0  0  0  0  0  0
  -17.4940  -42.7318   -7.4748 C   0  0  0  0  0  0  0  0  0  0  0  0
  -16.7900  -43.2158   -6.5036 O   0  0  0  0  0  0  0  0  0  0  0  0
  -17.5322  -41.3431   -7.5372 N   0  0  0  0  0  0  0  0  0  0  0  0
  1  2  1  0
  2  3  1  0
  2  4  1  0
  4  5  2  0
  5  6  1  0
  6  7  2  0
  7  8  1  0
  8  9  2  0
  7 10  1  0
 10 11  1  0
 11 12  1  0
 11 13  1  0
 11 14  1  0
 14 15  1  0
 15 16  1  6
 16 17  1  0
 17 18  1  0
 18 19  1  1
 18 20  1  0
 20 21  1  1
 21 22  1  0
 22 23  2  0
 23 24  1  0
 24 25  2  0
 25 26  1  0
 26 27  2  0
 24 28  1  0
 28 29  1  0
 29 30  1  0
 30 31  1  0
 31 32  1  0
 32 33  1  0
 33 34  1  0
 34 35  2  0
 34 36  1  0
 36 37  1  0
 36 38  1  0
 38 39  1  6
 38 40  1  0
 40 41  2  0
 40 42  1  0
  9  4  1  0
 15  6  1  0
 27 22  1  0
 42 20  1  0
M  END
$$$$
