
     RDKit          3D

 42 45  0  0  0  0  0  0  0  0999 V2000
  -22.8304  -40.3853   -3.4440 C   0  0  0  0  0  0  0  0  0  0  0  0
  -22.8325  -41.3592   -4.5685 C   0  0  0  0  0  0  0  0  0  0  0  0
  -23.8180  -42.0583   -4.6927 O   0  0  0  0  0  0  0  0  0  0  0  0
  -21.6738  -41.4704   -5.5010 C   0  0  0  0  0  0  0  0  0  0  0  0
  -21.8423  -42.4378   -6.4952 O   0  0  0  0  0  0  0  0  0  0  0  0
  -20.8272  -42.6791   -7.4062 C   0  0  0  0  0  0  0  0  0  0  0  0
  -20.5036  -43.9234   -7.8676 C   0  0  0  0  0  0  0  0  0  0  0  0
  -19.4662  -44.1703   -8.8068 C   0  0  0  0  0  0  0  0  0  0  0  0
  -18.7194  -43.0955   -9.3010 C   0  0  0  0  0  0  0  0  0  0  0  0
  -19.0197  -41.8423   -8.8522 C   0  0  0  0  0  0  0  0  0  0  0  0
  -20.0678  -41.6549   -7.9153 C   0  0  0  0  0  0  0  0  0  0  0  0
  -18.3969  -40.5345   -9.1408 C   0  0  0  0  0  0  0  0  0  0  0  0
  -19.1323  -39.4896   -9.4113 O   0  0  0  0  0  0  0  0  0  0  0  0
  -17.0009  -40.1806   -9.1742 N   0  0  0  0  0  0  0  0  0  0  0  0
  -16.0544  -40.6014   -8.1681 C   0  0  1  0  0  0  0  0  0  0  0  0
  -14.7575  -41.0340   -8.7005 C   0  0  0  0  0  0  0  0  0  0  0  0
  -14.5986  -42.2923   -9.4785 C   0  0  0  0  0  0  0  0  0  0  0  0
  -15.1855  -43.5180   -9.3521 C   0  0  0  0  0  0  0  0  0  0  0  0
  -14.8301  -44.4919  -10.2680 C   0  0  0  0  0  0  0  0  0  0  0  0
  -13.9027  -44.2450  -11.2822 C   0  0  0  0  0  0  0  0  0  0  0  0
  -13.2887  -43.0231  -11.4393 C   0  0  0  0  0  0  0  0  0  0  0  0
  -13.6594  -42.0774  -10.5259 C   0  0  0  0  0  0  0  0  0  0  0  0
  -15.3068  -45.8205  -10.3477 O   0  0  0  0  0  0  0  0  0  0  0  0
  -16.6211  -46.2937  -10.5797 C   0  0  0  0  0  0  0  0  0  0  0  0
  -16.8666  -47.5305   -9.7916 C   0  0  0  0  0  0  0  0  0  0  0  0
  -18.3333  -47.6521   -9.4626 C   0  0  0  0  0  0  0  0  0  0  0  0
  -19.1700  -46.4828   -9.9827 C   0  0  0  0  0  0  0  0  0  0  0  0
  -19.3667  -45.5030   -9.0800 O   0  0  0  0  0  0  0  0  0  0  0  0
  -15.9563  -39.5932   -7.0431 C   0  0  2  0  0  0  0  0  0  0  0  0
  -15.7325  -40.3798   -5.8832 O   0  0  0  0  0  0  0  0  0  0  0  0
  -17.1714  -38.7542   -6.8498 C   0  0  0  0  0  0  0  0  0  0  0  0
  -17.0965  -37.4612   -7.4765 N   0  0  0  0  0  0  0  0  0  0  0  0
  -17.0488  -37.5600   -8.9224 C   0  0  0  0  0  0  0  0  0  0  0  0
  -18.3919  -37.5091   -9.5327 C   0  0  0  0  0  0  0  0  0  0  0  0
  -19.5205  -37.1299   -8.8275 C   0  0  0  0  0  0  0  0  0  0  0  0
  -20.7834  -37.0854   -9.4115 C   0  0  0  0  0  0  0  0  0  0  0  0
  -20.8674  -37.4382  -10.7371 C   0  0  0  0  0  0  0  0  0  0  0  0
  -19.7761  -37.8278  -11.5017 C   0  0  0  0  0  0  0  0  0  0  0  0
  -18.5422  -37.8526  -10.8636 C   0  0  0  0  0  0  0  0  0  0  0  0
  -22.0026  -36.6873   -8.6893 C   0  0  0  0  0  0  0  0  0  0  0  0
  -23.1923  -37.4307   -9.2545 C   0  0  0  0  0  0  0  0  0  0  0  0
  -22.2395  -35.2029   -8.9898 C   0  0  0  0  0  0  0  0  0  0  0  0
  1  2  1  0
  2  3  2  0
  2  4  1  0
  4  5  1  0
  5  6  1  0
  6  7  2  0
  7  8  1  0
  8  9  2  0
  9 10  1  0
 10 11  2  0
 10 12  1  0
 12 13  2  0
 12 14  1  0
 14 15  1  0
 15 16  1  6
 16 17  1  0
 17 18  2  0
 18 19  1  0
 19 20  2  0
 20 21  1  0
 21 22  2  0
 19 23  1  0
 23 24  1  0
 24 25  1  0
 25 26  1  0
 26 27  1  0
 27 28  1  0
 15 29  1  0
 29 30  1  1
 29 31  1  0
 31 32  1  0
 32 33  1  0
 33 34  1  0
 34 35  2  0
 35 36  1  0
 36 37  2  0
 37 38  1  0
 38 39  2  0
 36 40  1  0
 40 41  1  0
 40 42  1  0
 11  6  1  0
 22 17  1  0
 28  8  1  0
 39 34  1  0
M  END
$$$$
