
     RDKit          3D

 42 45  0  0  0  0  0  0  0  0999 V2000
  -11.7949  -45.0802  -12.2334 C   0  0  0  0  0  0  0  0  0  0  0  0
  -12.8474  -45.0764  -11.1820 C   0  0  0  0  0  0  0  0  0  0  0  0
  -13.7964  -45.8164  -11.3470 O   0  0  0  0  0  0  0  0  0  0  0  0
  -12.7396  -44.2012   -9.9792 C   0  0  0  0  0  0  0  0  0  0  0  0
  -12.1914  -42.9438  -10.2455 O   0  0  0  0  0  0  0  0  0  0  0  0
  -12.9937  -41.9288  -10.7403 C   0  0  0  0  0  0  0  0  0  0  0  0
  -12.5568  -40.9777  -11.6179 C   0  0  0  0  0  0  0  0  0  0  0  0
  -13.3815  -39.9400  -12.1302 C   0  0  0  0  0  0  0  0  0  0  0  0
  -14.7192  -39.8662  -11.7275 C   0  0  0  0  0  0  0  0  0  0  0  0
  -15.1793  -40.8020  -10.8474 C   0  0  0  0  0  0  0  0  0  0  0  0
  -14.3111  -41.8169  -10.3704 C   0  0  0  0  0  0  0  0  0  0  0  0
  -16.5007  -40.9637  -10.2076 C   0  0  0  0  0  0  0  0  0  0  0  0
  -17.0777  -42.1341  -10.1528 O   0  0  0  0  0  0  0  0  0  0  0  0
  -17.3319  -39.9709   -9.5762 N   0  0  0  0  0  0  0  0  0  0  0  0
  -16.8205  -38.9773   -8.6616 C   0  0  1  0  0  0  0  0  0  0  0  0
  -17.3776  -37.6337   -8.8543 C   0  0  0  0  0  0  0  0  0  0  0  0
  -17.0560  -36.8047  -10.0472 C   0  0  0  0  0  0  0  0  0  0  0  0
  -15.9038  -36.6515  -10.7624 C   0  0  0  0  0  0  0  0  0  0  0  0
  -15.9401  -35.8037  -11.8549 C   0  0  0  0  0  0  0  0  0  0  0  0
  -17.1023  -35.1198  -12.2175 C   0  0  0  0  0  0  0  0  0  0  0  0
  -18.2816  -35.2472  -11.5192 C   0  0  0  0  0  0  0  0  0  0  0  0
  -18.2214  -36.0928  -10.4481 C   0  0  0  0  0  0  0  0  0  0  0  0
  -14.8876  -35.4960  -12.7473 O   0  0  0  0  0  0  0  0  0  0  0  0
  -14.1694  -36.3479  -13.6211 C   0  0  0  0  0  0  0  0  0  0  0  0
  -12.7473  -35.9205  -13.6987 C   0  0  0  0  0  0  0  0  0  0  0  0
  -11.8663  -37.1059  -14.0034 C   0  0  0  0  0  0  0  0  0  0  0  0
  -12.6382  -38.4206  -14.1195 C   0  0  0  0  0  0  0  0  0  0  0  0
  -12.6786  -39.1371  -12.9800 O   0  0  0  0  0  0  0  0  0  0  0  0
  -16.8658  -39.4664   -7.2297 C   0  0  2  0  0  0  0  0  0  0  0  0
  -16.0863  -40.6523   -7.2373 O   0  0  0  0  0  0  0  0  0  0  0  0
  -18.2307  -39.7702   -6.7172 C   0  0  0  0  0  0  0  0  0  0  0  0
  -18.6369  -41.1374   -6.9071 N   0  0  0  0  0  0  0  0  0  0  0  0
  -19.4686  -41.6134   -5.8188 C   0  0  0  0  0  0  0  0  0  0  0  0
  -20.8388  -41.0675   -5.8798 C   0  0  0  0  0  0  0  0  0  0  0  0
  -21.2299  -39.9462   -5.1698 C   0  0  0  0  0  0  0  0  0  0  0  0
  -22.5248  -39.4388   -5.2332 C   0  0  0  0  0  0  0  0  0  0  0  0
  -23.4140  -40.1054   -6.0417 C   0  0  0  0  0  0  0  0  0  0  0  0
  -23.0874  -41.2349   -6.7800 C   0  0  0  0  0  0  0  0  0  0  0  0
  -21.7801  -41.6938   -6.6758 C   0  0  0  0  0  0  0  0  0  0  0  0
  -22.9723  -38.2495   -4.4905 C   0  0  0  0  0  0  0  0  0  0  0  0
  -24.3474  -37.8404   -4.9692 C   0  0  0  0  0  0  0  0  0  0  0  0
  -22.0267  -37.1025   -4.8653 C   0  0  0  0  0  0  0  0  0  0  0  0
  1  2  1  0
  2  3  2  0
  2  4  1  0
  4  5  1  0
  5  6  1  0
  6  7  2  0
  7  8  1  0
  8  9  2  0
  9 10  1  0
 10 11  2  0
 10 12  1  0
 12 13  2  0
 12 14  1  0
 14 15  1  0
 15 16  1  1
 16 17  1  0
 17 18  2  0
 18 19  1  0
 19 20  2  0
 20 21  1  0
 21 22  2  0
 19 23  1  0
 23 24  1  0
 24 25  1  0
 25 26  1  0
 26 27  1  0
 27 28  1  0
 15 29  1  0
 29 30  1  6
 29 31  1  0
 31 32  1  0
 32 33  1  0
 33 34  1  0
 34 35  2  0
 35 36  1  0
 36 37  2  0
 37 38  1  0
 38 39  2  0
 36 40  1  0
 40 41  1  0
 40 42  1  0
 11  6  1  0
 22 17  1  0
 28  8  1  0
 39 34  1  0
M  END
$$$$
