
     RDKit          3D

 42 45  0  0  0  0  0  0  0  0999 V2000
  -14.9136  -41.6534  -12.7157 C   0  0  0  0  0  0  0  0  0  0  0  0
  -16.2501  -41.4101  -13.3223 C   0  0  0  0  0  0  0  0  0  0  0  0
  -16.5180  -42.0252  -14.3348 O   0  0  0  0  0  0  0  0  0  0  0  0
  -17.2167  -40.4523  -12.7118 C   0  0  0  0  0  0  0  0  0  0  0  0
  -18.4784  -41.0026  -12.4711 O   0  0  0  0  0  0  0  0  0  0  0  0
  -18.9109  -41.2016  -11.1703 C   0  0  0  0  0  0  0  0  0  0  0  0
  -20.1639  -41.6390  -10.8473 C   0  0  0  0  0  0  0  0  0  0  0  0
  -20.6055  -41.8489   -9.5131 C   0  0  0  0  0  0  0  0  0  0  0  0
  -19.7269  -41.5998   -8.4534 C   0  0  0  0  0  0  0  0  0  0  0  0
  -18.4704  -41.1573   -8.7491 C   0  0  0  0  0  0  0  0  0  0  0  0
  -18.0832  -40.9674  -10.1002 C   0  0  0  0  0  0  0  0  0  0  0  0
  -17.3486  -40.7673   -7.8711 C   0  0  0  0  0  0  0  0  0  0  0  0
  -16.1355  -41.1880   -8.1103 O   0  0  0  0  0  0  0  0  0  0  0  0
  -17.3608  -39.9289   -6.6997 N   0  0  0  0  0  0  0  0  0  0  0  0
  -18.0733  -38.6746   -6.6328 C   0  0  1  0  0  0  0  0  0  0  0  0
  -18.7867  -38.4505   -5.3704 C   0  0  0  0  0  0  0  0  0  0  0  0
  -19.9907  -39.2368   -4.9887 C   0  0  0  0  0  0  0  0  0  0  0  0
  -21.0318  -39.7191   -5.7276 C   0  0  0  0  0  0  0  0  0  0  0  0
  -22.0027  -40.4459   -5.0621 C   0  0  0  0  0  0  0  0  0  0  0  0
  -21.9351  -40.6775   -3.6867 C   0  0  0  0  0  0  0  0  0  0  0  0
  -20.9024  -40.2050   -2.9088 C   0  0  0  0  0  0  0  0  0  0  0  0
  -19.9548  -39.4947   -3.5895 C   0  0  0  0  0  0  0  0  0  0  0  0
  -23.1579  -41.0508   -5.6083 O   0  0  0  0  0  0  0  0  0  0  0  0
  -23.2644  -42.0788   -6.5763 C   0  0  0  0  0  0  0  0  0  0  0  0
  -24.4462  -41.8418   -7.4470 C   0  0  0  0  0  0  0  0  0  0  0  0
  -24.2110  -42.4374   -8.8124 C   0  0  0  0  0  0  0  0  0  0  0  0
  -22.8359  -43.0892   -8.9605 C   0  0  0  0  0  0  0  0  0  0  0  0
  -21.8990  -42.2817   -9.4931 O   0  0  0  0  0  0  0  0  0  0  0  0
  -17.1986  -37.5165   -7.0631 C   0  0  2  0  0  0  0  0  0  0  0  0
  -18.1151  -36.5293   -7.5098 O   0  0  0  0  0  0  0  0  0  0  0  0
  -16.2363  -37.8337   -8.1546 C   0  0  0  0  0  0  0  0  0  0  0  0
  -14.9008  -38.1105   -7.6963 N   0  0  0  0  0  0  0  0  0  0  0  0
  -14.1289  -38.8429   -8.6814 C   0  0  0  0  0  0  0  0  0  0  0  0
  -14.1069  -38.1660   -9.9930 C   0  0  0  0  0  0  0  0  0  0  0  0
  -15.0785  -38.3699  -10.9569 C   0  0  0  0  0  0  0  0  0  0  0  0
  -15.0490  -37.7272  -12.1915 C   0  0  0  0  0  0  0  0  0  0  0  0
  -14.0008  -36.8683  -12.4196 C   0  0  0  0  0  0  0  0  0  0  0  0
  -12.9940  -36.6187  -11.4969 C   0  0  0  0  0  0  0  0  0  0  0  0
  -13.0776  -37.2895  -10.2830 C   0  0  0  0  0  0  0  0  0  0  0  0
  -16.0660  -37.9228  -13.2374 C   0  0  0  0  0  0  0  0  0  0  0  0
  -17.2911  -38.5760  -12.6376 C   0  0  0  0  0  0  0  0  0  0  0  0
  -15.4906  -38.9272  -14.2426 C   0  0  0  0  0  0  0  0  0  0  0  0
  1  2  1  0
  2  3  2  0
  2  4  1  0
  4  5  1  0
  5  6  1  0
  6  7  2  0
  7  8  1  0
  8  9  2  0
  9 10  1  0
 10 11  2  0
 10 12  1  0
 12 13  2  0
 12 14  1  0
 14 15  1  0
 15 16  1  1
 16 17  1  0
 17 18  2  0
 18 19  1  0
 19 20  2  0
 20 21  1  0
 21 22  2  0
 19 23  1  0
 23 24  1  0
 24 25  1  0
 25 26  1  0
 26 27  1  0
 27 28  1  0
 15 29  1  0
 29 30  1  6
 29 31  1  0
 31 32  1  0
 32 33  1  0
 33 34  1  0
 34 35  2  0
 35 36  1  0
 36 37  2  0
 37 38  1  0
 38 39  2  0
 36 40  1  0
 40 41  1  0
 40 42  1  0
 11  6  1  0
 22 17  1  0
 28  8  1  0
 39 34  1  0
M  END
$$$$
