
     RDKit          3D

 42 45  0  0  0  0  0  0  0  0999 V2000
  -13.7390  -43.6245  -12.6407 C   0  0  0  0  0  0  0  0  0  0  0  0
  -15.1219  -44.1552  -12.7793 C   0  0  0  0  0  0  0  0  0  0  0  0
  -15.4775  -44.4877  -13.8921 O   0  0  0  0  0  0  0  0  0  0  0  0
  -16.0298  -44.2725  -11.6019 C   0  0  0  0  0  0  0  0  0  0  0  0
  -17.0698  -43.3393  -11.5981 O   0  0  0  0  0  0  0  0  0  0  0  0
  -17.8314  -43.1553  -10.4558 C   0  0  0  0  0  0  0  0  0  0  0  0
  -19.0442  -43.7493  -10.2502 C   0  0  0  0  0  0  0  0  0  0  0  0
  -19.8226  -43.5654   -9.0757 C   0  0  0  0  0  0  0  0  0  0  0  0
  -19.3423  -42.7333   -8.0588 C   0  0  0  0  0  0  0  0  0  0  0  0
  -18.1351  -42.1240   -8.2416 C   0  0  0  0  0  0  0  0  0  0  0  0
  -17.4001  -42.3460   -9.4341 C   0  0  0  0  0  0  0  0  0  0  0  0
  -17.3928  -41.1698   -7.3931 C   0  0  0  0  0  0  0  0  0  0  0  0
  -16.1145  -41.3247   -7.1744 O   0  0  0  0  0  0  0  0  0  0  0  0
  -17.8741  -39.9961   -6.7106 N   0  0  0  0  0  0  0  0  0  0  0  0
  -18.7534  -39.0292   -7.3250 C   0  0  1  0  0  0  0  0  0  0  0  0
  -19.8318  -38.5517   -6.4523 C   0  0  0  0  0  0  0  0  0  0  0  0
  -20.9636  -39.4245   -6.0388 C   0  0  0  0  0  0  0  0  0  0  0  0
  -21.6570  -40.3903   -6.7089 C   0  0  0  0  0  0  0  0  0  0  0  0
  -22.6611  -41.0473   -6.0205 C   0  0  0  0  0  0  0  0  0  0  0  0
  -22.9677  -40.7381   -4.6937 C   0  0  0  0  0  0  0  0  0  0  0  0
  -22.2923  -39.7691   -3.9869 C   0  0  0  0  0  0  0  0  0  0  0  0
  -21.3033  -39.1383   -4.6867 C   0  0  0  0  0  0  0  0  0  0  0  0
  -23.5006  -42.0822   -6.4928 O   0  0  0  0  0  0  0  0  0  0  0  0
  -23.1629  -43.3821   -6.9413 C   0  0  0  0  0  0  0  0  0  0  0  0
  -24.0575  -43.7870   -8.0579 C   0  0  0  0  0  0  0  0  0  0  0  0
  -23.3448  -44.7568   -8.9667 C   0  0  0  0  0  0  0  0  0  0  0  0
  -21.9059  -45.0445   -8.5368 C   0  0  0  0  0  0  0  0  0  0  0  0
  -20.9851  -44.2755   -9.1485 O   0  0  0  0  0  0  0  0  0  0  0  0
  -17.9735  -37.9248   -8.0059 C   0  0  2  0  0  0  0  0  0  0  0  0
  -18.9412  -37.2384   -8.7847 O   0  0  0  0  0  0  0  0  0  0  0  0
  -16.8669  -38.3936   -8.8855 C   0  0  0  0  0  0  0  0  0  0  0  0
  -16.8725  -37.8048  -10.1984 N   0  0  0  0  0  0  0  0  0  0  0  0
  -16.1907  -36.5253  -10.2232 C   0  0  0  0  0  0  0  0  0  0  0  0
  -14.8077  -36.6365  -10.7271 C   0  0  0  0  0  0  0  0  0  0  0  0
  -13.9998  -35.5345  -10.9452 C   0  0  0  0  0  0  0  0  0  0  0  0
  -12.6965  -35.6491  -11.4212 C   0  0  0  0  0  0  0  0  0  0  0  0
  -12.2359  -36.9197  -11.6700 C   0  0  0  0  0  0  0  0  0  0  0  0
  -12.9931  -38.0666  -11.4732 C   0  0  0  0  0  0  0  0  0  0  0  0
  -14.2860  -37.8882  -10.9967 C   0  0  0  0  0  0  0  0  0  0  0  0
  -11.8125  -34.4976  -11.6640 C   0  0  0  0  0  0  0  0  0  0  0  0
  -10.5777  -34.6151  -10.7986 C   0  0  0  0  0  0  0  0  0  0  0  0
  -12.5586  -33.2478  -11.1829 C   0  0  0  0  0  0  0  0  0  0  0  0
  1  2  1  0
  2  3  2  0
  2  4  1  0
  4  5  1  0
  5  6  1  0
  6  7  2  0
  7  8  1  0
  8  9  2  0
  9 10  1  0
 10 11  2  0
 10 12  1  0
 12 13  2  0
 12 14  1  0
 14 15  1  0
 15 16  1  1
 16 17  1  0
 17 18  2  0
 18 19  1  0
 19 20  2  0
 20 21  1  0
 21 22  2  0
 19 23  1  0
 23 24  1  0
 24 25  1  0
 25 26  1  0
 26 27  1  0
 27 28  1  0
 15 29  1  0
 29 30  1  6
 29 31  1  0
 31 32  1  0
 32 33  1  0
 33 34  1  0
 34 35  2  0
 35 36  1  0
 36 37  2  0
 37 38  1  0
 38 39  2  0
 36 40  1  0
 40 41  1  0
 40 42  1  0
 11  6  1  0
 22 17  1  0
 28  8  1  0
 39 34  1  0
M  END
$$$$
