
     RDKit          3D

 42 45  0  0  0  0  0  0  0  0999 V2000
  -14.8123  -46.3858  -11.3384 C   0  0  0  0  0  0  0  0  0  0  0  0
  -14.3590  -46.1070   -9.9492 C   0  0  0  0  0  0  0  0  0  0  0  0
  -13.3187  -46.6232   -9.5930 O   0  0  0  0  0  0  0  0  0  0  0  0
  -15.1491  -45.2319   -9.0359 C   0  0  0  0  0  0  0  0  0  0  0  0
  -16.3585  -44.7945   -9.5823 O   0  0  0  0  0  0  0  0  0  0  0  0
  -17.2040  -43.9887   -8.8377 C   0  0  0  0  0  0  0  0  0  0  0  0
  -18.4670  -44.3541   -8.4673 C   0  0  0  0  0  0  0  0  0  0  0  0
  -19.3321  -43.5299   -7.6982 C   0  0  0  0  0  0  0  0  0  0  0  0
  -18.8891  -42.2684   -7.2860 C   0  0  0  0  0  0  0  0  0  0  0  0
  -17.6327  -41.8775   -7.6472 C   0  0  0  0  0  0  0  0  0  0  0  0
  -16.8117  -42.7430   -8.4142 C   0  0  0  0  0  0  0  0  0  0  0  0
  -16.9064  -40.6129   -7.4128 C   0  0  0  0  0  0  0  0  0  0  0  0
  -15.6655  -40.6209   -7.0054 O   0  0  0  0  0  0  0  0  0  0  0  0
  -17.3670  -39.2575   -7.5735 N   0  0  0  0  0  0  0  0  0  0  0  0
  -18.1224  -38.8099   -8.7200 C   0  0  1  0  0  0  0  0  0  0  0  0
  -19.2395  -37.9153   -8.3969 C   0  0  0  0  0  0  0  0  0  0  0  0
  -20.4588  -38.3916   -7.6897 C   0  0  0  0  0  0  0  0  0  0  0  0
  -21.1531  -39.5641   -7.7663 C   0  0  0  0  0  0  0  0  0  0  0  0
  -22.2554  -39.7069   -6.9428 C   0  0  0  0  0  0  0  0  0  0  0  0
  -22.6566  -38.6949   -6.0684 C   0  0  0  0  0  0  0  0  0  0  0  0
  -21.9834  -37.4987   -5.9655 C   0  0  0  0  0  0  0  0  0  0  0  0
  -20.8967  -37.3839   -6.7851 C   0  0  0  0  0  0  0  0  0  0  0  0
  -23.1169  -40.8227   -6.8351 O   0  0  0  0  0  0  0  0  0  0  0  0
  -22.8281  -42.1477   -6.4276 C   0  0  0  0  0  0  0  0  0  0  0  0
  -23.6456  -43.1133   -7.2089 C   0  0  0  0  0  0  0  0  0  0  0  0
  -22.9214  -44.4312   -7.3231 C   0  0  0  0  0  0  0  0  0  0  0  0
  -21.5485  -44.4285   -6.6502 C   0  0  0  0  0  0  0  0  0  0  0  0
  -20.5282  -44.1496   -7.4837 O   0  0  0  0  0  0  0  0  0  0  0  0
  -17.2138  -38.2944   -9.8156 C   0  0  2  0  0  0  0  0  0  0  0  0
  -17.8777  -38.6472  -11.0193 O   0  0  0  0  0  0  0  0  0  0  0  0
  -15.8426  -38.8756   -9.8137 C   0  0  0  0  0  0  0  0  0  0  0  0
  -14.9067  -38.1663   -8.9824 N   0  0  0  0  0  0  0  0  0  0  0  0
  -13.5581  -38.2218   -9.5125 C   0  0  0  0  0  0  0  0  0  0  0  0
  -13.4143  -37.4488  -10.7619 C   0  0  0  0  0  0  0  0  0  0  0  0
  -13.7010  -36.0976  -10.8431 C   0  0  0  0  0  0  0  0  0  0  0  0
  -13.5628  -35.3769  -12.0262 C   0  0  0  0  0  0  0  0  0  0  0  0
  -13.1234  -36.0706  -13.1281 C   0  0  0  0  0  0  0  0  0  0  0  0
  -12.8186  -37.4249  -13.1154 C   0  0  0  0  0  0  0  0  0  0  0  0
  -12.9762  -38.0901  -11.9058 C   0  0  0  0  0  0  0  0  0  0  0  0
  -13.8597  -33.9402  -12.1456 C   0  0  0  0  0  0  0  0  0  0  0  0
  -14.8523  -33.5371  -11.0781 C   0  0  0  0  0  0  0  0  0  0  0  0
  -14.5669  -33.7370  -13.4905 C   0  0  0  0  0  0  0  0  0  0  0  0
  1  2  1  0
  2  3  2  0
  2  4  1  0
  4  5  1  0
  5  6  1  0
  6  7  2  0
  7  8  1  0
  8  9  2  0
  9 10  1  0
 10 11  2  0
 10 12  1  0
 12 13  2  0
 12 14  1  0
 14 15  1  0
 15 16  1  1
 16 17  1  0
 17 18  2  0
 18 19  1  0
 19 20  2  0
 20 21  1  0
 21 22  2  0
 19 23  1  0
 23 24  1  0
 24 25  1  0
 25 26  1  0
 26 27  1  0
 27 28  1  0
 15 29  1  0
 29 30  1  6
 29 31  1  0
 31 32  1  0
 32 33  1  0
 33 34  1  0
 34 35  2  0
 35 36  1  0
 36 37  2  0
 37 38  1  0
 38 39  2  0
 36 40  1  0
 40 41  1  0
 40 42  1  0
 11  6  1  0
 22 17  1  0
 28  8  1  0
 39 34  1  0
M  END
$$$$
