
     RDKit          3D

 42 45  0  0  0  0  0  0  0  0999 V2000
  -25.1918  -43.4459   -6.0952 C   0  0  0  0  0  0  0  0  0  0  0  0
  -23.9598  -43.8601   -6.8190 C   0  0  0  0  0  0  0  0  0  0  0  0
  -24.0177  -43.8989   -8.0317 O   0  0  0  0  0  0  0  0  0  0  0  0
  -22.7099  -44.2120   -6.0853 C   0  0  0  0  0  0  0  0  0  0  0  0
  -21.6988  -43.2550   -6.2050 O   0  0  0  0  0  0  0  0  0  0  0  0
  -20.6264  -43.4822   -7.0517 C   0  0  0  0  0  0  0  0  0  0  0  0
  -20.0593  -44.7100   -7.2431 C   0  0  0  0  0  0  0  0  0  0  0  0
  -18.9631  -44.9442   -8.1164 C   0  0  0  0  0  0  0  0  0  0  0  0
  -18.4154  -43.8732   -8.8308 C   0  0  0  0  0  0  0  0  0  0  0  0
  -18.9609  -42.6350   -8.6538 C   0  0  0  0  0  0  0  0  0  0  0  0
  -20.0564  -42.4604   -7.7702 C   0  0  0  0  0  0  0  0  0  0  0  0
  -18.5857  -41.3216   -9.2155 C   0  0  0  0  0  0  0  0  0  0  0  0
  -19.4949  -40.5157   -9.6949 O   0  0  0  0  0  0  0  0  0  0  0  0
  -17.2808  -40.7226   -9.3322 N   0  0  0  0  0  0  0  0  0  0  0  0
  -16.3064  -40.7365   -8.2665 C   0  0  1  0  0  0  0  0  0  0  0  0
  -14.9342  -41.0147   -8.7049 C   0  0  0  0  0  0  0  0  0  0  0  0
  -14.5156  -42.3532   -9.2016 C   0  0  0  0  0  0  0  0  0  0  0  0
  -14.8654  -43.6148   -8.8161 C   0  0  0  0  0  0  0  0  0  0  0  0
  -14.3028  -44.6718   -9.5089 C   0  0  0  0  0  0  0  0  0  0  0  0
  -13.4047  -44.4687  -10.5587 C   0  0  0  0  0  0  0  0  0  0  0  0
  -13.0265  -43.2120  -10.9736 C   0  0  0  0  0  0  0  0  0  0  0  0
  -13.5988  -42.1856  -10.2773 C   0  0  0  0  0  0  0  0  0  0  0  0
  -14.5182  -46.0539   -9.3039 O   0  0  0  0  0  0  0  0  0  0  0  0
  -15.7116  -46.8069   -9.4221 C   0  0  0  0  0  0  0  0  0  0  0  0
  -15.7465  -47.8764   -8.3897 C   0  0  0  0  0  0  0  0  0  0  0  0
  -17.1744  -48.2046   -8.0323 C   0  0  0  0  0  0  0  0  0  0  0  0
  -18.1980  -47.3507   -8.7811 C   0  0  0  0  0  0  0  0  0  0  0  0
  -18.6057  -46.2606   -8.1036 O   0  0  0  0  0  0  0  0  0  0  0  0
  -16.4374  -39.5167   -7.3797 C   0  0  2  0  0  0  0  0  0  0  0  0
  -16.2180  -40.0098   -6.0672 O   0  0  0  0  0  0  0  0  0  0  0  0
  -17.7621  -38.8390   -7.4428 C   0  0  0  0  0  0  0  0  0  0  0  0
  -17.6887  -37.4030   -7.3901 N   0  0  0  0  0  0  0  0  0  0  0  0
  -17.7919  -36.8048   -8.7070 C   0  0  0  0  0  0  0  0  0  0  0  0
  -19.1387  -36.9620   -9.2905 C   0  0  0  0  0  0  0  0  0  0  0  0
  -19.3470  -37.4177  -10.5803 C   0  0  0  0  0  0  0  0  0  0  0  0
  -20.6211  -37.5623  -11.1223 C   0  0  0  0  0  0  0  0  0  0  0  0
  -21.6813  -37.2298  -10.3136 C   0  0  0  0  0  0  0  0  0  0  0  0
  -21.5426  -36.7671   -9.0120 C   0  0  0  0  0  0  0  0  0  0  0  0
  -20.2465  -36.6437   -8.5269 C   0  0  0  0  0  0  0  0  0  0  0  0
  -20.8762  -38.0435  -12.4897 C   0  0  0  0  0  0  0  0  0  0  0  0
  -20.7634  -39.5512  -12.5260 C   0  0  0  0  0  0  0  0  0  0  0  0
  -19.7458  -37.5054  -13.3745 C   0  0  0  0  0  0  0  0  0  0  0  0
  1  2  1  0
  2  3  2  0
  2  4  1  0
  4  5  1  0
  5  6  1  0
  6  7  2  0
  7  8  1  0
  8  9  2  0
  9 10  1  0
 10 11  2  0
 10 12  1  0
 12 13  2  0
 12 14  1  0
 14 15  1  0
 15 16  1  6
 16 17  1  0
 17 18  2  0
 18 19  1  0
 19 20  2  0
 20 21  1  0
 21 22  2  0
 19 23  1  0
 23 24  1  0
 24 25  1  0
 25 26  1  0
 26 27  1  0
 27 28  1  0
 15 29  1  0
 29 30  1  1
 29 31  1  0
 31 32  1  0
 32 33  1  0
 33 34  1  0
 34 35  2  0
 35 36  1  0
 36 37  2  0
 37 38  1  0
 38 39  2  0
 36 40  1  0
 40 41  1  0
 40 42  1  0
 11  6  1  0
 22 17  1  0
 28  8  1  0
 39 34  1  0
M  END
$$$$
