
     RDKit          3D

 42 45  0  0  0  0  0  0  0  0999 V2000
  -10.1594  -43.2095   -9.7821 C   0  0  0  0  0  0  0  0  0  0  0  0
  -11.5321  -43.2878   -9.2139 C   0  0  0  0  0  0  0  0  0  0  0  0
  -11.6730  -42.9398   -8.0587 O   0  0  0  0  0  0  0  0  0  0  0  0
  -12.6830  -43.7729  -10.0291 C   0  0  0  0  0  0  0  0  0  0  0  0
  -12.6934  -43.2806  -11.3368 O   0  0  0  0  0  0  0  0  0  0  0  0
  -13.2600  -42.0460  -11.6080 C   0  0  0  0  0  0  0  0  0  0  0  0
  -12.7378  -41.1523  -12.4992 C   0  0  0  0  0  0  0  0  0  0  0  0
  -13.3224  -39.8884  -12.7818 C   0  0  0  0  0  0  0  0  0  0  0  0
  -14.4984  -39.5147  -12.1226 C   0  0  0  0  0  0  0  0  0  0  0  0
  -15.0379  -40.3879  -11.2235 C   0  0  0  0  0  0  0  0  0  0  0  0
  -14.4120  -41.6376  -10.9826 C   0  0  0  0  0  0  0  0  0  0  0  0
  -16.2219  -40.2698  -10.3485 C   0  0  0  0  0  0  0  0  0  0  0  0
  -17.0788  -41.2502  -10.2481 O   0  0  0  0  0  0  0  0  0  0  0  0
  -16.6275  -39.1690   -9.5125 N   0  0  0  0  0  0  0  0  0  0  0  0
  -15.7136  -38.4445   -8.6609 C   0  0  1  0  0  0  0  0  0  0  0  0
  -15.9060  -36.9900   -8.6656 C   0  0  0  0  0  0  0  0  0  0  0  0
  -15.5808  -36.1501   -9.8499 C   0  0  0  0  0  0  0  0  0  0  0  0
  -14.5722  -36.2246  -10.7662 C   0  0  0  0  0  0  0  0  0  0  0  0
  -14.5630  -35.2849  -11.7814 C   0  0  0  0  0  0  0  0  0  0  0  0
  -15.5380  -34.2894  -11.8714 C   0  0  0  0  0  0  0  0  0  0  0  0
  -16.5681  -34.1813  -10.9649 C   0  0  0  0  0  0  0  0  0  0  0  0
  -16.5577  -35.1227   -9.9753 C   0  0  0  0  0  0  0  0  0  0  0  0
  -13.6370  -35.1665  -12.8432 O   0  0  0  0  0  0  0  0  0  0  0  0
  -13.3417  -36.0771  -13.8866 C   0  0  0  0  0  0  0  0  0  0  0  0
  -11.8925  -36.0259  -14.2158 C   0  0  0  0  0  0  0  0  0  0  0  0
  -11.4362  -37.3594  -14.7525 C   0  0  0  0  0  0  0  0  0  0  0  0
  -12.5466  -38.4098  -14.7894 C   0  0  0  0  0  0  0  0  0  0  0  0
  -12.5842  -39.2086  -13.7059 O   0  0  0  0  0  0  0  0  0  0  0  0
  -15.6431  -39.0548   -7.2773 C   0  0  2  0  0  0  0  0  0  0  0  0
  -14.4125  -39.7617   -7.2661 O   0  0  0  0  0  0  0  0  0  0  0  0
  -16.7568  -39.9876   -6.9496 C   0  0  0  0  0  0  0  0  0  0  0  0
  -18.0389  -39.5681   -7.4501 N   0  0  0  0  0  0  0  0  0  0  0  0
  -19.0147  -40.6401   -7.4118 C   0  0  0  0  0  0  0  0  0  0  0  0
  -20.3523  -40.1667   -7.0049 C   0  0  0  0  0  0  0  0  0  0  0  0
  -20.7941  -40.2078   -5.6943 C   0  0  0  0  0  0  0  0  0  0  0  0
  -22.0578  -39.7594   -5.3201 C   0  0  0  0  0  0  0  0  0  0  0  0
  -22.8626  -39.2660   -6.3188 C   0  0  0  0  0  0  0  0  0  0  0  0
  -22.4818  -39.1964   -7.6520 C   0  0  0  0  0  0  0  0  0  0  0  0
  -21.2092  -39.6589   -7.9639 C   0  0  0  0  0  0  0  0  0  0  0  0
  -22.5575  -39.7902   -3.9360 C   0  0  0  0  0  0  0  0  0  0  0  0
  -21.8496  -38.7335   -3.1177 C   0  0  0  0  0  0  0  0  0  0  0  0
  -22.1492  -41.1422   -3.3398 C   0  0  0  0  0  0  0  0  0  0  0  0
  1  2  1  0
  2  3  2  0
  2  4  1  0
  4  5  1  0
  5  6  1  0
  6  7  2  0
  7  8  1  0
  8  9  2  0
  9 10  1  0
 10 11  2  0
 10 12  1  0
 12 13  2  0
 12 14  1  0
 14 15  1  0
 15 16  1  1
 16 17  1  0
 17 18  2  0
 18 19  1  0
 19 20  2  0
 20 21  1  0
 21 22  2  0
 19 23  1  0
 23 24  1  0
 24 25  1  0
 25 26  1  0
 26 27  1  0
 27 28  1  0
 15 29  1  0
 29 30  1  6
 29 31  1  0
 31 32  1  0
 32 33  1  0
 33 34  1  0
 34 35  2  0
 35 36  1  0
 36 37  2  0
 37 38  1  0
 38 39  2  0
 36 40  1  0
 40 41  1  0
 40 42  1  0
 11  6  1  0
 22 17  1  0
 28  8  1  0
 39 34  1  0
M  END
$$$$
