
     RDKit          3D

 42 45  0  0  0  0  0  0  0  0999 V2000
  -10.1654  -42.5901  -13.2629 C   0  0  0  0  0  0  0  0  0  0  0  0
  -10.5495  -42.7399  -11.8334 C   0  0  0  0  0  0  0  0  0  0  0  0
   -9.6684  -42.6097  -11.0075 O   0  0  0  0  0  0  0  0  0  0  0  0
  -11.9557  -43.0369  -11.4348 C   0  0  0  0  0  0  0  0  0  0  0  0
  -12.4498  -42.1888  -10.4403 O   0  0  0  0  0  0  0  0  0  0  0  0
  -13.3791  -41.2129  -10.7607 C   0  0  0  0  0  0  0  0  0  0  0  0
  -13.0631  -40.0454  -11.3956 C   0  0  0  0  0  0  0  0  0  0  0  0
  -14.0173  -39.0470  -11.7298 C   0  0  0  0  0  0  0  0  0  0  0  0
  -15.3621  -39.2468  -11.3999 C   0  0  0  0  0  0  0  0  0  0  0  0
  -15.7034  -40.4031  -10.7607 C   0  0  0  0  0  0  0  0  0  0  0  0
  -14.7085  -41.3661  -10.4538 C   0  0  0  0  0  0  0  0  0  0  0  0
  -17.0038  -40.8789  -10.2470 C   0  0  0  0  0  0  0  0  0  0  0  0
  -17.4027  -42.1025  -10.4694 O   0  0  0  0  0  0  0  0  0  0  0  0
  -17.9901  -40.1685   -9.4739 N   0  0  0  0  0  0  0  0  0  0  0  0
  -17.6572  -39.3315   -8.3452 C   0  0  1  0  0  0  0  0  0  0  0  0
  -18.4011  -38.0682   -8.2883 C   0  0  0  0  0  0  0  0  0  0  0  0
  -18.1722  -36.9677   -9.2631 C   0  0  0  0  0  0  0  0  0  0  0  0
  -17.0356  -36.5074   -9.8621 C   0  0  0  0  0  0  0  0  0  0  0  0
  -17.1660  -35.4596  -10.7560 C   0  0  0  0  0  0  0  0  0  0  0  0
  -18.4059  -34.8820  -11.0369 C   0  0  0  0  0  0  0  0  0  0  0  0
  -19.5727  -35.3175  -10.4506 C   0  0  0  0  0  0  0  0  0  0  0  0
  -19.4182  -36.3552   -9.5759 C   0  0  0  0  0  0  0  0  0  0  0  0
  -16.1459  -34.8261  -11.5021 O   0  0  0  0  0  0  0  0  0  0  0  0
  -15.2853  -35.3643  -12.4894 C   0  0  0  0  0  0  0  0  0  0  0  0
  -13.9404  -34.7373  -12.3932 C   0  0  0  0  0  0  0  0  0  0  0  0
  -12.8856  -35.6968  -12.8842 C   0  0  0  0  0  0  0  0  0  0  0  0
  -13.4511  -37.0506  -13.3147 C   0  0  0  0  0  0  0  0  0  0  0  0
  -13.4173  -37.9919  -12.3524 O   0  0  0  0  0  0  0  0  0  0  0  0
  -17.6700  -40.1159   -7.0506 C   0  0  2  0  0  0  0  0  0  0  0  0
  -16.5577  -39.6162   -6.3245 O   0  0  0  0  0  0  0  0  0  0  0  0
  -17.5374  -41.5904   -7.2133 C   0  0  0  0  0  0  0  0  0  0  0  0
  -18.3584  -42.1406   -8.2591 N   0  0  0  0  0  0  0  0  0  0  0  0
  -19.6412  -42.5967   -7.7599 C   0  0  0  0  0  0  0  0  0  0  0  0
  -20.5465  -41.4772   -7.4343 C   0  0  0  0  0  0  0  0  0  0  0  0
  -20.6461  -40.9408   -6.1627 C   0  0  0  0  0  0  0  0  0  0  0  0
  -21.5033  -39.8850   -5.8648 C   0  0  0  0  0  0  0  0  0  0  0  0
  -22.2590  -39.3879   -6.8995 C   0  0  0  0  0  0  0  0  0  0  0  0
  -22.2077  -39.8792   -8.1969 C   0  0  0  0  0  0  0  0  0  0  0  0
  -21.3335  -40.9331   -8.4325 C   0  0  0  0  0  0  0  0  0  0  0  0
  -21.6328  -39.2928   -4.5236 C   0  0  0  0  0  0  0  0  0  0  0  0
  -20.2617  -38.9462   -3.9878 C   0  0  0  0  0  0  0  0  0  0  0  0
  -22.1926  -40.3828   -3.6023 C   0  0  0  0  0  0  0  0  0  0  0  0
  1  2  1  0
  2  3  2  0
  2  4  1  0
  4  5  1  0
  5  6  1  0
  6  7  2  0
  7  8  1  0
  8  9  2  0
  9 10  1  0
 10 11  2  0
 10 12  1  0
 12 13  2  0
 12 14  1  0
 14 15  1  0
 15 16  1  1
 16 17  1  0
 17 18  2  0
 18 19  1  0
 19 20  2  0
 20 21  1  0
 21 22  2  0
 19 23  1  0
 23 24  1  0
 24 25  1  0
 25 26  1  0
 26 27  1  0
 27 28  1  0
 15 29  1  0
 29 30  1  1
 29 31  1  0
 31 32  1  0
 32 33  1  0
 33 34  1  0
 34 35  2  0
 35 36  1  0
 36 37  2  0
 37 38  1  0
 38 39  2  0
 36 40  1  0
 40 41  1  0
 40 42  1  0
 11  6  1  0
 22 17  1  0
 28  8  1  0
 39 34  1  0
M  END
$$$$
