
     RDKit          3D

 42 45  0  0  0  0  0  0  0  0999 V2000
  -18.4141  -37.6398  -13.3933 C   0  0  0  0  0  0  0  0  0  0  0  0
  -17.9879  -39.0224  -13.0467 C   0  0  0  0  0  0  0  0  0  0  0  0
  -16.9507  -39.1421  -12.4261 O   0  0  0  0  0  0  0  0  0  0  0  0
  -18.8005  -40.2078  -13.4452 C   0  0  0  0  0  0  0  0  0  0  0  0
  -20.0542  -40.2631  -12.8307 O   0  0  0  0  0  0  0  0  0  0  0  0
  -20.1661  -40.7063  -11.5231 C   0  0  0  0  0  0  0  0  0  0  0  0
  -21.3535  -41.0365  -10.9342 C   0  0  0  0  0  0  0  0  0  0  0  0
  -21.4675  -41.4970   -9.5948 C   0  0  0  0  0  0  0  0  0  0  0  0
  -20.3136  -41.6270   -8.8145 C   0  0  0  0  0  0  0  0  0  0  0  0
  -19.1149  -41.2988   -9.3779 C   0  0  0  0  0  0  0  0  0  0  0  0
  -19.0607  -40.8464  -10.7209 C   0  0  0  0  0  0  0  0  0  0  0  0
  -17.7505  -41.2826   -8.8126 C   0  0  0  0  0  0  0  0  0  0  0  0
  -16.7469  -41.7925   -9.4748 O   0  0  0  0  0  0  0  0  0  0  0  0
  -17.2954  -40.7532   -7.5525 N   0  0  0  0  0  0  0  0  0  0  0  0
  -17.7071  -39.4672   -7.0404 C   0  0  1  0  0  0  0  0  0  0  0  0
  -18.0119  -39.4568   -5.6053 C   0  0  0  0  0  0  0  0  0  0  0  0
  -19.2059  -40.1432   -5.0424 C   0  0  0  0  0  0  0  0  0  0  0  0
  -20.4762  -40.2921   -5.5189 C   0  0  0  0  0  0  0  0  0  0  0  0
  -21.3646  -41.0199   -4.7478 C   0  0  0  0  0  0  0  0  0  0  0  0
  -20.9904  -41.5791   -3.5242 C   0  0  0  0  0  0  0  0  0  0  0  0
  -19.7201  -41.4478   -3.0106 C   0  0  0  0  0  0  0  0  0  0  0  0
  -18.8608  -40.7291   -3.7922 C   0  0  0  0  0  0  0  0  0  0  0  0
  -22.7169  -41.3174   -5.0335 O   0  0  0  0  0  0  0  0  0  0  0  0
  -23.2687  -42.0618   -6.1043 C   0  0  0  0  0  0  0  0  0  0  0  0
  -24.5655  -41.4685   -6.5255 C   0  0  0  0  0  0  0  0  0  0  0  0
  -24.8123  -41.7479   -7.9867 C   0  0  0  0  0  0  0  0  0  0  0  0
  -23.6771  -42.5236   -8.6556 C   0  0  0  0  0  0  0  0  0  0  0  0
  -22.7706  -41.7452   -9.2767 O   0  0  0  0  0  0  0  0  0  0  0  0
  -16.7645  -38.3676   -7.4808 C   0  0  2  0  0  0  0  0  0  0  0  0
  -17.5831  -37.2108   -7.5564 O   0  0  0  0  0  0  0  0  0  0  0  0
  -16.1068  -38.5998   -8.7966 C   0  0  0  0  0  0  0  0  0  0  0  0
  -15.0856  -39.6130   -8.7706 N   0  0  0  0  0  0  0  0  0  0  0  0
  -14.8387  -40.1699  -10.0865 C   0  0  0  0  0  0  0  0  0  0  0  0
  -14.3158  -39.1642  -11.0321 C   0  0  0  0  0  0  0  0  0  0  0  0
  -13.6589  -38.0187  -10.6187 C   0  0  0  0  0  0  0  0  0  0  0  0
  -13.1695  -37.0754  -11.5180 C   0  0  0  0  0  0  0  0  0  0  0  0
  -13.3670  -37.3301  -12.8539 C   0  0  0  0  0  0  0  0  0  0  0  0
  -14.0170  -38.4583  -13.3357 C   0  0  0  0  0  0  0  0  0  0  0  0
  -14.4831  -39.3632  -12.3901 C   0  0  0  0  0  0  0  0  0  0  0  0
  -12.4676  -35.8474  -11.1109 C   0  0  0  0  0  0  0  0  0  0  0  0
  -12.2744  -35.8474   -9.6108 C   0  0  0  0  0  0  0  0  0  0  0  0
  -13.3989  -34.6711  -11.4254 C   0  0  0  0  0  0  0  0  0  0  0  0
  1  2  1  0
  2  3  2  0
  2  4  1  0
  4  5  1  0
  5  6  1  0
  6  7  2  0
  7  8  1  0
  8  9  2  0
  9 10  1  0
 10 11  2  0
 10 12  1  0
 12 13  2  0
 12 14  1  0
 14 15  1  0
 15 16  1  1
 16 17  1  0
 17 18  2  0
 18 19  1  0
 19 20  2  0
 20 21  1  0
 21 22  2  0
 19 23  1  0
 23 24  1  0
 24 25  1  0
 25 26  1  0
 26 27  1  0
 27 28  1  0
 15 29  1  0
 29 30  1  6
 29 31  1  0
 31 32  1  0
 32 33  1  0
 33 34  1  0
 34 35  2  0
 35 36  1  0
 36 37  2  0
 37 38  1  0
 38 39  2  0
 36 40  1  0
 40 41  1  0
 40 42  1  0
 11  6  1  0
 22 17  1  0
 28  8  1  0
 39 34  1  0
M  END
$$$$
