
     RDKit          3D

 42 45  0  0  0  0  0  0  0  0999 V2000
  -17.2408  -48.3998   -7.2060 C   0  0  0  0  0  0  0  0  0  0  0  0
  -17.3489  -46.9590   -6.8514 C   0  0  0  0  0  0  0  0  0  0  0  0
  -18.2046  -46.6504   -6.0465 O   0  0  0  0  0  0  0  0  0  0  0  0
  -16.4449  -45.9403   -7.4591 C   0  0  0  0  0  0  0  0  0  0  0  0
  -17.0974  -45.0463   -8.3121 O   0  0  0  0  0  0  0  0  0  0  0  0
  -17.8064  -43.9789   -7.7861 C   0  0  0  0  0  0  0  0  0  0  0  0
  -19.1068  -44.0617   -7.3765 C   0  0  0  0  0  0  0  0  0  0  0  0
  -19.8323  -42.9683   -6.8312 C   0  0  0  0  0  0  0  0  0  0  0  0
  -19.2019  -41.7266   -6.6971 C   0  0  0  0  0  0  0  0  0  0  0  0
  -17.9040  -41.6161   -7.1036 C   0  0  0  0  0  0  0  0  0  0  0  0
  -17.2283  -42.7424   -7.6388 C   0  0  0  0  0  0  0  0  0  0  0  0
  -16.9944  -40.4529   -7.1363 C   0  0  0  0  0  0  0  0  0  0  0  0
  -15.7655  -40.5535   -6.7056 O   0  0  0  0  0  0  0  0  0  0  0  0
  -17.2478  -39.1144   -7.6045 N   0  0  0  0  0  0  0  0  0  0  0  0
  -17.9368  -38.8265   -8.8405 C   0  0  1  0  0  0  0  0  0  0  0  0
  -18.9045  -37.7272   -8.7521 C   0  0  0  0  0  0  0  0  0  0  0  0
  -20.1756  -37.8483   -7.9885 C   0  0  0  0  0  0  0  0  0  0  0  0
  -21.0385  -38.8925   -7.8216 C   0  0  0  0  0  0  0  0  0  0  0  0
  -22.1430  -38.6836   -7.0154 C   0  0  0  0  0  0  0  0  0  0  0  0
  -22.3809  -37.4544   -6.3970 C   0  0  0  0  0  0  0  0  0  0  0  0
  -21.5351  -36.3785   -6.5441 C   0  0  0  0  0  0  0  0  0  0  0  0
  -20.4502  -36.6111   -7.3407 C   0  0  0  0  0  0  0  0  0  0  0  0
  -23.1612  -39.6074   -6.6855 O   0  0  0  0  0  0  0  0  0  0  0  0
  -23.0711  -40.8362   -5.9877 C   0  0  0  0  0  0  0  0  0  0  0  0
  -24.0304  -41.8196   -6.5567 C   0  0  0  0  0  0  0  0  0  0  0  0
  -23.5131  -43.2222   -6.3579 C   0  0  0  0  0  0  0  0  0  0  0  0
  -22.1499  -43.2730   -5.6674 C   0  0  0  0  0  0  0  0  0  0  0  0
  -21.1060  -43.3408   -6.5156 O   0  0  0  0  0  0  0  0  0  0  0  0
  -16.9701  -38.7080   -9.9994 C   0  0  2  0  0  0  0  0  0  0  0  0
  -17.4509  -39.6393  -10.9563 O   0  0  0  0  0  0  0  0  0  0  0  0
  -15.5536  -39.0235   -9.6648 C   0  0  0  0  0  0  0  0  0  0  0  0
  -14.8911  -38.0019   -8.8981 N   0  0  0  0  0  0  0  0  0  0  0  0
  -14.3857  -36.9336   -9.7382 C   0  0  0  0  0  0  0  0  0  0  0  0
  -13.4338  -37.4224  -10.7551 C   0  0  0  0  0  0  0  0  0  0  0  0
  -13.7642  -38.3930  -11.6843 C   0  0  0  0  0  0  0  0  0  0  0  0
  -12.8595  -38.8482  -12.6394 C   0  0  0  0  0  0  0  0  0  0  0  0
  -11.6052  -38.2869  -12.6238 C   0  0  0  0  0  0  0  0  0  0  0  0
  -11.2088  -37.3103  -11.7202 C   0  0  0  0  0  0  0  0  0  0  0  0
  -12.1555  -36.8967  -10.7912 C   0  0  0  0  0  0  0  0  0  0  0  0
  -13.1794  -39.8789  -13.6403 C   0  0  0  0  0  0  0  0  0  0  0  0
  -14.3416  -40.7152  -13.1532 C   0  0  0  0  0  0  0  0  0  0  0  0
  -11.9728  -40.8213  -13.7175 C   0  0  0  0  0  0  0  0  0  0  0  0
  1  2  1  0
  2  3  2  0
  2  4  1  0
  4  5  1  0
  5  6  1  0
  6  7  2  0
  7  8  1  0
  8  9  2  0
  9 10  1  0
 10 11  2  0
 10 12  1  0
 12 13  2  0
 12 14  1  0
 14 15  1  0
 15 16  1  1
 16 17  1  0
 17 18  2  0
 18 19  1  0
 19 20  2  0
 20 21  1  0
 21 22  2  0
 19 23  1  0
 23 24  1  0
 24 25  1  0
 25 26  1  0
 26 27  1  0
 27 28  1  0
 15 29  1  0
 29 30  1  6
 29 31  1  0
 31 32  1  0
 32 33  1  0
 33 34  1  0
 34 35  2  0
 35 36  1  0
 36 37  2  0
 37 38  1  0
 38 39  2  0
 36 40  1  0
 40 41  1  0
 40 42  1  0
 11  6  1  0
 22 17  1  0
 28  8  1  0
 39 34  1  0
M  END
$$$$
