
     RDKit          3D

 42 45  0  0  0  0  0  0  0  0999 V2000
  -15.5699  -46.0321  -12.3454 C   0  0  0  0  0  0  0  0  0  0  0  0
  -15.4946  -46.5645  -10.9583 C   0  0  0  0  0  0  0  0  0  0  0  0
  -14.6843  -47.4445  -10.7471 O   0  0  0  0  0  0  0  0  0  0  0  0
  -16.3766  -46.0392   -9.8765 C   0  0  0  0  0  0  0  0  0  0  0  0
  -17.2436  -45.0279  -10.2986 O   0  0  0  0  0  0  0  0  0  0  0  0
  -17.8904  -44.2353   -9.3647 C   0  0  0  0  0  0  0  0  0  0  0  0
  -19.1401  -44.5008   -8.8815 C   0  0  0  0  0  0  0  0  0  0  0  0
  -19.8011  -43.6910   -7.9189 C   0  0  0  0  0  0  0  0  0  0  0  0
  -19.1573  -42.5519   -7.4237 C   0  0  0  0  0  0  0  0  0  0  0  0
  -17.9097  -42.2617   -7.8940 C   0  0  0  0  0  0  0  0  0  0  0  0
  -17.2972  -43.1074   -8.8537 C   0  0  0  0  0  0  0  0  0  0  0  0
  -17.0062  -41.1285   -7.6096 C   0  0  0  0  0  0  0  0  0  0  0  0
  -15.7387  -41.3292   -7.3668 O   0  0  0  0  0  0  0  0  0  0  0  0
  -17.3050  -39.7204   -7.5531 N   0  0  0  0  0  0  0  0  0  0  0  0
  -18.1208  -39.0454   -8.5350 C   0  0  1  0  0  0  0  0  0  0  0  0
  -19.0712  -38.0799   -7.9717 C   0  0  0  0  0  0  0  0  0  0  0  0
  -20.2543  -38.5033   -7.1750 C   0  0  0  0  0  0  0  0  0  0  0  0
  -21.0968  -39.5700   -7.2975 C   0  0  0  0  0  0  0  0  0  0  0  0
  -22.1090  -39.6931   -6.3626 C   0  0  0  0  0  0  0  0  0  0  0  0
  -22.2771  -38.7644   -5.3334 C   0  0  0  0  0  0  0  0  0  0  0  0
  -21.4493  -37.6754   -5.1797 C   0  0  0  0  0  0  0  0  0  0  0  0
  -20.4557  -37.5786   -6.1120 C   0  0  0  0  0  0  0  0  0  0  0  0
  -23.0883  -40.7090   -6.2756 O   0  0  0  0  0  0  0  0  0  0  0  0
  -22.9273  -42.0997   -6.0636 C   0  0  0  0  0  0  0  0  0  0  0  0
  -23.9438  -42.8572   -6.8408 C   0  0  0  0  0  0  0  0  0  0  0  0
  -23.4113  -44.2224   -7.1972 C   0  0  0  0  0  0  0  0  0  0  0  0
  -21.9825  -44.4621   -6.7084 C   0  0  0  0  0  0  0  0  0  0  0  0
  -21.0349  -44.1944   -7.6270 O   0  0  0  0  0  0  0  0  0  0  0  0
  -17.2825  -38.4979   -9.6704 C   0  0  2  0  0  0  0  0  0  0  0  0
  -18.1765  -38.4362  -10.7709 O   0  0  0  0  0  0  0  0  0  0  0  0
  -16.1025  -39.3313  -10.0326 C   0  0  0  0  0  0  0  0  0  0  0  0
  -15.1038  -39.4130   -9.0002 N   0  0  0  0  0  0  0  0  0  0  0  0
  -13.8493  -39.9432   -9.4982 C   0  0  0  0  0  0  0  0  0  0  0  0
  -13.4078  -39.2702  -10.7356 C   0  0  0  0  0  0  0  0  0  0  0  0
  -13.3454  -37.8933  -10.8573 C   0  0  0  0  0  0  0  0  0  0  0  0
  -12.9281  -37.2675  -12.0288 C   0  0  0  0  0  0  0  0  0  0  0  0
  -12.5746  -38.0833  -13.0767 C   0  0  0  0  0  0  0  0  0  0  0  0
  -12.6141  -39.4699  -13.0214 C   0  0  0  0  0  0  0  0  0  0  0  0
  -13.0389  -40.0364  -11.8259 C   0  0  0  0  0  0  0  0  0  0  0  0
  -12.8512  -35.8065  -12.1903 C   0  0  0  0  0  0  0  0  0  0  0  0
  -11.9921  -35.2195  -11.0928 C   0  0  0  0  0  0  0  0  0  0  0  0
  -14.2648  -35.2545  -11.9729 C   0  0  0  0  0  0  0  0  0  0  0  0
  1  2  1  0
  2  3  2  0
  2  4  1  0
  4  5  1  0
  5  6  1  0
  6  7  2  0
  7  8  1  0
  8  9  2  0
  9 10  1  0
 10 11  2  0
 10 12  1  0
 12 13  2  0
 12 14  1  0
 14 15  1  0
 15 16  1  1
 16 17  1  0
 17 18  2  0
 18 19  1  0
 19 20  2  0
 20 21  1  0
 21 22  2  0
 19 23  1  0
 23 24  1  0
 24 25  1  0
 25 26  1  0
 26 27  1  0
 27 28  1  0
 15 29  1  0
 29 30  1  6
 29 31  1  0
 31 32  1  0
 32 33  1  0
 33 34  1  0
 34 35  2  0
 35 36  1  0
 36 37  2  0
 37 38  1  0
 38 39  2  0
 36 40  1  0
 40 41  1  0
 40 42  1  0
 11  6  1  0
 22 17  1  0
 28  8  1  0
 39 34  1  0
M  END
$$$$
