
     RDKit          3D

 42 45  0  0  0  0  0  0  0  0999 V2000
  -16.3007  -46.2047  -12.5083 C   0  0  0  0  0  0  0  0  0  0  0  0
  -15.1594  -45.3614  -12.0617 C   0  0  0  0  0  0  0  0  0  0  0  0
  -14.0462  -45.8351  -12.1706 O   0  0  0  0  0  0  0  0  0  0  0  0
  -15.3753  -43.9948  -11.5051 C   0  0  0  0  0  0  0  0  0  0  0  0
  -16.1054  -43.1527  -12.3480 O   0  0  0  0  0  0  0  0  0  0  0  0
  -17.2197  -42.4860  -11.8655 C   0  0  0  0  0  0  0  0  0  0  0  0
  -18.2064  -41.9829  -12.6649 C   0  0  0  0  0  0  0  0  0  0  0  0
  -19.3524  -41.3044  -12.1696 C   0  0  0  0  0  0  0  0  0  0  0  0
  -19.5011  -41.1281  -10.7897 C   0  0  0  0  0  0  0  0  0  0  0  0
  -18.5266  -41.6173   -9.9693 C   0  0  0  0  0  0  0  0  0  0  0  0
  -17.4049  -42.2885  -10.5195 C   0  0  0  0  0  0  0  0  0  0  0  0
  -18.3717  -41.5513   -8.5020 C   0  0  0  0  0  0  0  0  0  0  0  0
  -18.0344  -42.6112   -7.8174 O   0  0  0  0  0  0  0  0  0  0  0  0
  -18.5382  -40.4240   -7.6207 N   0  0  0  0  0  0  0  0  0  0  0  0
  -18.0078  -39.1117   -7.9070 C   0  0  1  0  0  0  0  0  0  0  0  0
  -18.9209  -38.0077   -7.5908 C   0  0  0  0  0  0  0  0  0  0  0  0
  -20.1616  -37.7552   -8.3722 C   0  0  0  0  0  0  0  0  0  0  0  0
  -20.4342  -37.8690   -9.7046 C   0  0  0  0  0  0  0  0  0  0  0  0
  -21.7204  -37.5733  -10.1193 C   0  0  0  0  0  0  0  0  0  0  0  0
  -22.7081  -37.1658   -9.2203 C   0  0  0  0  0  0  0  0  0  0  0  0
  -22.4697  -37.0371   -7.8707 C   0  0  0  0  0  0  0  0  0  0  0  0
  -21.1943  -37.3389   -7.4858 C   0  0  0  0  0  0  0  0  0  0  0  0
  -22.2408  -37.6284  -11.4327 O   0  0  0  0  0  0  0  0  0  0  0  0
  -22.3759  -38.7377  -12.3024 C   0  0  0  0  0  0  0  0  0  0  0  0
  -22.1337  -38.3185  -13.7083 C   0  0  0  0  0  0  0  0  0  0  0  0
  -21.5948  -39.4775  -14.5086 C   0  0  0  0  0  0  0  0  0  0  0  0
  -21.4077  -40.7499  -13.6817 C   0  0  0  0  0  0  0  0  0  0  0  0
  -20.1630  -40.9106  -13.1936 O   0  0  0  0  0  0  0  0  0  0  0  0
  -16.6133  -38.9422   -7.3429 C   0  0  2  0  0  0  0  0  0  0  0  0
  -16.1054  -37.7904   -7.9983 O   0  0  0  0  0  0  0  0  0  0  0  0
  -15.7001  -40.0944   -7.5803 C   0  0  0  0  0  0  0  0  0  0  0  0
  -15.9844  -41.2451   -6.7647 N   0  0  0  0  0  0  0  0  0  0  0  0
  -14.8174  -41.6913   -6.0286 C   0  0  0  0  0  0  0  0  0  0  0  0
  -14.9087  -41.3776   -4.5890 C   0  0  0  0  0  0  0  0  0  0  0  0
  -16.0520  -41.6068   -3.8441 C   0  0  0  0  0  0  0  0  0  0  0  0
  -16.1289  -41.3072   -2.4868 C   0  0  0  0  0  0  0  0  0  0  0  0
  -15.0071  -40.7664   -1.9057 C   0  0  0  0  0  0  0  0  0  0  0  0
  -13.8290  -40.5111   -2.5945 C   0  0  0  0  0  0  0  0  0  0  0  0
  -13.8131  -40.8312   -3.9464 C   0  0  0  0  0  0  0  0  0  0  0  0
  -17.3294  -41.5382   -1.6671 C   0  0  0  0  0  0  0  0  0  0  0  0
  -17.6203  -43.0209   -1.6006 C   0  0  0  0  0  0  0  0  0  0  0  0
  -18.5100  -40.9001   -2.4080 C   0  0  0  0  0  0  0  0  0  0  0  0
  1  2  1  0
  2  3  2  0
  2  4  1  0
  4  5  1  0
  5  6  1  0
  6  7  2  0
  7  8  1  0
  8  9  2  0
  9 10  1  0
 10 11  2  0
 10 12  1  0
 12 13  2  0
 12 14  1  0
 14 15  1  0
 15 16  1  1
 16 17  1  0
 17 18  2  0
 18 19  1  0
 19 20  2  0
 20 21  1  0
 21 22  2  0
 19 23  1  0
 23 24  1  0
 24 25  1  0
 25 26  1  0
 26 27  1  0
 27 28  1  0
 15 29  1  0
 29 30  1  6
 29 31  1  0
 31 32  1  0
 32 33  1  0
 33 34  1  0
 34 35  2  0
 35 36  1  0
 36 37  2  0
 37 38  1  0
 38 39  2  0
 36 40  1  0
 40 41  1  0
 40 42  1  0
 11  6  1  0
 22 17  1  0
 28  8  1  0
 39 34  1  0
M  END
$$$$
