
     RDKit          3D

 42 45  0  0  0  0  0  0  0  0999 V2000
  -12.6744  -41.3845   -9.1101 C   0  0  0  0  0  0  0  0  0  0  0  0
  -13.0555  -42.0982  -10.3586 C   0  0  0  0  0  0  0  0  0  0  0  0
  -12.6228  -41.6546  -11.4032 O   0  0  0  0  0  0  0  0  0  0  0  0
  -13.9308  -43.3054  -10.3260 C   0  0  0  0  0  0  0  0  0  0  0  0
  -15.1452  -43.1382  -10.9967 O   0  0  0  0  0  0  0  0  0  0  0  0
  -16.3141  -42.9516  -10.2772 C   0  0  0  0  0  0  0  0  0  0  0  0
  -17.5484  -43.3252  -10.7274 C   0  0  0  0  0  0  0  0  0  0  0  0
  -18.7468  -43.1394   -9.9868 C   0  0  0  0  0  0  0  0  0  0  0  0
  -18.6856  -42.5415   -8.7234 C   0  0  0  0  0  0  0  0  0  0  0  0
  -17.4646  -42.1547   -8.2526 C   0  0  0  0  0  0  0  0  0  0  0  0
  -16.3010  -42.3672   -9.0350 C   0  0  0  0  0  0  0  0  0  0  0  0
  -17.0814  -41.4672   -7.0028 C   0  0  0  0  0  0  0  0  0  0  0  0
  -16.0682  -41.8866   -6.2933 O   0  0  0  0  0  0  0  0  0  0  0  0
  -17.6794  -40.3140   -6.3801 N   0  0  0  0  0  0  0  0  0  0  0  0
  -18.0664  -39.1315   -7.1130 C   0  0  1  0  0  0  0  0  0  0  0  0
  -19.3592  -38.5664   -6.7108 C   0  0  0  0  0  0  0  0  0  0  0  0
  -20.6484  -39.2521   -6.9962 C   0  0  0  0  0  0  0  0  0  0  0  0
  -21.0706  -39.9815   -8.0697 C   0  0  0  0  0  0  0  0  0  0  0  0
  -22.3462  -40.5141   -8.0162 C   0  0  0  0  0  0  0  0  0  0  0  0
  -23.1817  -40.3137   -6.9154 C   0  0  0  0  0  0  0  0  0  0  0  0
  -22.7918  -39.5822   -5.8165 C   0  0  0  0  0  0  0  0  0  0  0  0
  -21.5274  -39.0710   -5.8916 C   0  0  0  0  0  0  0  0  0  0  0  0
  -22.9950  -41.3068   -8.9906 O   0  0  0  0  0  0  0  0  0  0  0  0
  -22.6446  -42.5838   -9.4920 C   0  0  0  0  0  0  0  0  0  0  0  0
  -22.9773  -42.6749  -10.9384 C   0  0  0  0  0  0  0  0  0  0  0  0
  -22.0487  -43.6461  -11.6231 C   0  0  0  0  0  0  0  0  0  0  0  0
  -21.0045  -44.2507  -10.6839 C   0  0  0  0  0  0  0  0  0  0  0  0
  -19.8241  -43.6024  -10.6837 O   0  0  0  0  0  0  0  0  0  0  0  0
  -16.9403  -38.1213   -7.1698 C   0  0  2  0  0  0  0  0  0  0  0  0
  -17.3981  -37.1339   -8.0807 O   0  0  0  0  0  0  0  0  0  0  0  0
  -15.6364  -38.6665   -7.6393 C   0  0  0  0  0  0  0  0  0  0  0  0
  -15.6688  -40.0689   -7.9594 N   0  0  0  0  0  0  0  0  0  0  0  0
  -14.4738  -40.4937   -8.6624 C   0  0  0  0  0  0  0  0  0  0  0  0
  -14.3676  -39.8883  -10.0045 C   0  0  0  0  0  0  0  0  0  0  0  0
  -13.2682  -39.1514  -10.4081 C   0  0  0  0  0  0  0  0  0  0  0  0
  -13.1771  -38.5836  -11.6760 C   0  0  0  0  0  0  0  0  0  0  0  0
  -14.2384  -38.7868  -12.5251 C   0  0  0  0  0  0  0  0  0  0  0  0
  -15.3701  -39.5149  -12.1839 C   0  0  0  0  0  0  0  0  0  0  0  0
  -15.4031  -40.0569  -10.9050 C   0  0  0  0  0  0  0  0  0  0  0  0
  -12.0227  -37.7945  -12.1354 C   0  0  0  0  0  0  0  0  0  0  0  0
  -10.8899  -38.7239  -12.5100 C   0  0  0  0  0  0  0  0  0  0  0  0
  -11.5304  -36.9766  -10.9359 C   0  0  0  0  0  0  0  0  0  0  0  0
  1  2  1  0
  2  3  2  0
  2  4  1  0
  4  5  1  0
  5  6  1  0
  6  7  2  0
  7  8  1  0
  8  9  2  0
  9 10  1  0
 10 11  2  0
 10 12  1  0
 12 13  2  0
 12 14  1  0
 14 15  1  0
 15 16  1  1
 16 17  1  0
 17 18  2  0
 18 19  1  0
 19 20  2  0
 20 21  1  0
 21 22  2  0
 19 23  1  0
 23 24  1  0
 24 25  1  0
 25 26  1  0
 26 27  1  0
 27 28  1  0
 15 29  1  0
 29 30  1  6
 29 31  1  0
 31 32  1  0
 32 33  1  0
 33 34  1  0
 34 35  2  0
 35 36  1  0
 36 37  2  0
 37 38  1  0
 38 39  2  0
 36 40  1  0
 40 41  1  0
 40 42  1  0
 11  6  1  0
 22 17  1  0
 28  8  1  0
 39 34  1  0
M  END
$$$$
