
     RDKit          3D

 42 45  0  0  0  0  0  0  0  0999 V2000
  -24.0511  -43.4602   -3.5830 C   0  0  0  0  0  0  0  0  0  0  0  0
  -22.8304  -44.0452   -2.9658 C   0  0  0  0  0  0  0  0  0  0  0  0
  -22.9847  -45.0043   -2.2367 O   0  0  0  0  0  0  0  0  0  0  0  0
  -21.4775  -43.4767   -3.2323 C   0  0  0  0  0  0  0  0  0  0  0  0
  -20.6632  -44.3030   -4.0111 O   0  0  0  0  0  0  0  0  0  0  0  0
  -20.5387  -44.0704   -5.3709 C   0  0  0  0  0  0  0  0  0  0  0  0
  -20.4699  -45.0637   -6.3060 C   0  0  0  0  0  0  0  0  0  0  0  0
  -20.3484  -44.8249   -7.7015 C   0  0  0  0  0  0  0  0  0  0  0  0
  -20.2928  -43.5075   -8.1689 C   0  0  0  0  0  0  0  0  0  0  0  0
  -20.3547  -42.4966   -7.2543 C   0  0  0  0  0  0  0  0  0  0  0  0
  -20.4780  -42.7941   -5.8732 C   0  0  0  0  0  0  0  0  0  0  0  0
  -20.2750  -41.0314   -7.4225 C   0  0  0  0  0  0  0  0  0  0  0  0
  -21.1172  -40.2421   -6.8115 O   0  0  0  0  0  0  0  0  0  0  0  0
  -19.3481  -40.2561   -8.2067 N   0  0  0  0  0  0  0  0  0  0  0  0
  -17.9262  -40.5073   -8.2266 C   0  0  1  0  0  0  0  0  0  0  0  0
  -17.3155  -40.4233   -9.5580 C   0  0  0  0  0  0  0  0  0  0  0  0
  -17.5810  -41.4329  -10.6181 C   0  0  0  0  0  0  0  0  0  0  0  0
  -17.7575  -42.7850  -10.5604 C   0  0  0  0  0  0  0  0  0  0  0  0
  -18.0140  -43.4453  -11.7486 C   0  0  0  0  0  0  0  0  0  0  0  0
  -18.0846  -42.7669  -12.9671 C   0  0  0  0  0  0  0  0  0  0  0  0
  -17.9096  -41.4051  -13.0648 C   0  0  0  0  0  0  0  0  0  0  0  0
  -17.6621  -40.7758  -11.8780 C   0  0  0  0  0  0  0  0  0  0  0  0
  -18.2413  -44.8276  -11.9393 O   0  0  0  0  0  0  0  0  0  0  0  0
  -19.2782  -45.6483  -11.4330 C   0  0  0  0  0  0  0  0  0  0  0  0
  -18.7533  -47.0050  -11.1252 C   0  0  0  0  0  0  0  0  0  0  0  0
  -19.5556  -47.6304  -10.0119 C   0  0  0  0  0  0  0  0  0  0  0  0
  -20.6580  -46.7180   -9.4731 C   0  0  0  0  0  0  0  0  0  0  0  0
  -20.2983  -46.0004   -8.3919 O   0  0  0  0  0  0  0  0  0  0  0  0
  -17.2065  -39.7044   -7.1640 C   0  0  2  0  0  0  0  0  0  0  0  0
  -16.1228  -40.5319   -6.7705 O   0  0  0  0  0  0  0  0  0  0  0  0
  -18.0328  -39.3648   -5.9724 C   0  0  0  0  0  0  0  0  0  0  0  0
  -18.6703  -38.0773   -6.0491 N   0  0  0  0  0  0  0  0  0  0  0  0
  -17.9145  -37.1440   -6.8617 C   0  0  0  0  0  0  0  0  0  0  0  0
  -18.5054  -36.9610   -8.2020 C   0  0  0  0  0  0  0  0  0  0  0  0
  -17.7868  -37.1515   -9.3691 C   0  0  0  0  0  0  0  0  0  0  0  0
  -18.3526  -36.9761  -10.6289 C   0  0  0  0  0  0  0  0  0  0  0  0
  -19.6739  -36.6006  -10.6694 C   0  0  0  0  0  0  0  0  0  0  0  0
  -20.4513  -36.3930   -9.5381 C   0  0  0  0  0  0  0  0  0  0  0  0
  -19.8311  -36.5835   -8.3095 C   0  0  0  0  0  0  0  0  0  0  0  0
  -17.6158  -37.1700  -11.8883 C   0  0  0  0  0  0  0  0  0  0  0  0
  -17.7118  -35.9171  -12.7300 C   0  0  0  0  0  0  0  0  0  0  0  0
  -18.3419  -38.2709  -12.6698 C   0  0  0  0  0  0  0  0  0  0  0  0
  1  2  1  0
  2  3  2  0
  2  4  1  0
  4  5  1  0
  5  6  1  0
  6  7  2  0
  7  8  1  0
  8  9  2  0
  9 10  1  0
 10 11  2  0
 10 12  1  0
 12 13  2  0
 12 14  1  0
 14 15  1  0
 15 16  1  6
 16 17  1  0
 17 18  2  0
 18 19  1  0
 19 20  2  0
 20 21  1  0
 21 22  2  0
 19 23  1  0
 23 24  1  0
 24 25  1  0
 25 26  1  0
 26 27  1  0
 27 28  1  0
 15 29  1  0
 29 30  1  1
 29 31  1  0
 31 32  1  0
 32 33  1  0
 33 34  1  0
 34 35  2  0
 35 36  1  0
 36 37  2  0
 37 38  1  0
 38 39  2  0
 36 40  1  0
 40 41  1  0
 40 42  1  0
 11  6  1  0
 22 17  1  0
 28  8  1  0
 39 34  1  0
M  END
$$$$
