
     RDKit          3D

 42 45  0  0  0  0  0  0  0  0999 V2000
  -13.0818  -43.8132  -14.6297 C   0  0  0  0  0  0  0  0  0  0  0  0
  -11.9419  -42.9235  -14.2801 C   0  0  0  0  0  0  0  0  0  0  0  0
  -10.8377  -43.2681  -14.6506 O   0  0  0  0  0  0  0  0  0  0  0  0
  -12.1488  -41.6642  -13.5082 C   0  0  0  0  0  0  0  0  0  0  0  0
  -13.0346  -41.8002  -12.4362 O   0  0  0  0  0  0  0  0  0  0  0  0
  -14.0261  -40.8547  -12.2324 C   0  0  0  0  0  0  0  0  0  0  0  0
  -14.0582  -39.6430  -12.8622 C   0  0  0  0  0  0  0  0  0  0  0  0
  -15.0786  -38.6755  -12.6577 C   0  0  0  0  0  0  0  0  0  0  0  0
  -16.1193  -38.9554  -11.7655 C   0  0  0  0  0  0  0  0  0  0  0  0
  -16.1079  -40.1574  -11.1197 C   0  0  0  0  0  0  0  0  0  0  0  0
  -15.0645  -41.0862  -11.3645 C   0  0  0  0  0  0  0  0  0  0  0  0
  -17.0197  -40.7198  -10.1029 C   0  0  0  0  0  0  0  0  0  0  0  0
  -17.4525  -41.9482  -10.2001 O   0  0  0  0  0  0  0  0  0  0  0  0
  -17.5564  -40.0970   -8.9200 N   0  0  0  0  0  0  0  0  0  0  0  0
  -16.7600  -39.3031   -8.0140 C   0  0  1  0  0  0  0  0  0  0  0  0
  -17.4196  -38.0811   -7.5405 C   0  0  0  0  0  0  0  0  0  0  0  0
  -17.6833  -36.9232   -8.4368 C   0  0  0  0  0  0  0  0  0  0  0  0
  -16.9560  -36.3797   -9.4557 C   0  0  0  0  0  0  0  0  0  0  0  0
  -17.5011  -35.2956  -10.1200 C   0  0  0  0  0  0  0  0  0  0  0  0
  -18.7430  -34.7642   -9.7661 C   0  0  0  0  0  0  0  0  0  0  0  0
  -19.5035  -35.2837   -8.7431 C   0  0  0  0  0  0  0  0  0  0  0  0
  -18.9459  -36.3556   -8.1060 C   0  0  0  0  0  0  0  0  0  0  0  0
  -16.9479  -34.5775  -11.2048 O   0  0  0  0  0  0  0  0  0  0  0  0
  -16.6243  -35.0237  -12.5092 C   0  0  0  0  0  0  0  0  0  0  0  0
  -15.3968  -34.3391  -12.9947 C   0  0  0  0  0  0  0  0  0  0  0  0
  -14.6653  -35.2214  -13.9749 C   0  0  0  0  0  0  0  0  0  0  0  0
  -15.3390  -36.5770  -14.1897 C   0  0  0  0  0  0  0  0  0  0  0  0
  -14.8504  -37.5631  -13.4135 O   0  0  0  0  0  0  0  0  0  0  0  0
  -16.1638  -40.1515   -6.9111 C   0  0  2  0  0  0  0  0  0  0  0  0
  -14.7793  -39.8411   -6.9367 O   0  0  0  0  0  0  0  0  0  0  0  0
  -16.3490  -41.6191   -7.0839 C   0  0  0  0  0  0  0  0  0  0  0  0
  -17.6914  -42.0035   -7.4309 N   0  0  0  0  0  0  0  0  0  0  0  0
  -18.5294  -42.1693   -6.2592 C   0  0  0  0  0  0  0  0  0  0  0  0
  -19.7312  -41.3132   -6.3036 C   0  0  0  0  0  0  0  0  0  0  0  0
  -20.5193  -41.1876   -7.4339 C   0  0  0  0  0  0  0  0  0  0  0  0
  -21.6508  -40.3773   -7.4665 C   0  0  0  0  0  0  0  0  0  0  0  0
  -21.9601  -39.6960   -6.3137 C   0  0  0  0  0  0  0  0  0  0  0  0
  -21.2130  -39.7771   -5.1464 C   0  0  0  0  0  0  0  0  0  0  0  0
  -20.0952  -40.6017   -5.1753 C   0  0  0  0  0  0  0  0  0  0  0  0
  -22.5090  -40.2218   -8.6521 C   0  0  0  0  0  0  0  0  0  0  0  0
  -23.9136  -40.6772   -8.3247 C   0  0  0  0  0  0  0  0  0  0  0  0
  -21.9810  -41.1869   -9.7198 C   0  0  0  0  0  0  0  0  0  0  0  0
  1  2  1  0
  2  3  2  0
  2  4  1  0
  4  5  1  0
  5  6  1  0
  6  7  2  0
  7  8  1  0
  8  9  2  0
  9 10  1  0
 10 11  2  0
 10 12  1  0
 12 13  2  0
 12 14  1  0
 14 15  1  0
 15 16  1  1
 16 17  1  0
 17 18  2  0
 18 19  1  0
 19 20  2  0
 20 21  1  0
 21 22  2  0
 19 23  1  0
 23 24  1  0
 24 25  1  0
 25 26  1  0
 26 27  1  0
 27 28  1  0
 15 29  1  0
 29 30  1  6
 29 31  1  0
 31 32  1  0
 32 33  1  0
 33 34  1  0
 34 35  2  0
 35 36  1  0
 36 37  2  0
 37 38  1  0
 38 39  2  0
 36 40  1  0
 40 41  1  0
 40 42  1  0
 11  6  1  0
 22 17  1  0
 28  8  1  0
 39 34  1  0
M  END
$$$$
