
     RDKit          3D

 42 45  0  0  0  0  0  0  0  0999 V2000
  -17.9789  -38.4854  -15.1881 C   0  0  0  0  0  0  0  0  0  0  0  0
  -18.8681  -39.6306  -14.8550 C   0  0  0  0  0  0  0  0  0  0  0  0
  -19.5281  -40.0998  -15.7604 O   0  0  0  0  0  0  0  0  0  0  0  0
  -18.9442  -40.1766  -13.4692 C   0  0  0  0  0  0  0  0  0  0  0  0
  -20.0873  -39.7802  -12.7701 O   0  0  0  0  0  0  0  0  0  0  0  0
  -20.3584  -40.3189  -11.5231 C   0  0  0  0  0  0  0  0  0  0  0  0
  -21.6174  -40.4381  -11.0069 C   0  0  0  0  0  0  0  0  0  0  0  0
  -21.8960  -40.9964   -9.7302 C   0  0  0  0  0  0  0  0  0  0  0  0
  -20.8385  -41.4558   -8.9379 C   0  0  0  0  0  0  0  0  0  0  0  0
  -19.5702  -41.3437   -9.4286 C   0  0  0  0  0  0  0  0  0  0  0  0
  -19.3515  -40.7798  -10.7114 C   0  0  0  0  0  0  0  0  0  0  0  0
  -18.2650  -41.6857   -8.8279 C   0  0  0  0  0  0  0  0  0  0  0  0
  -17.3627  -42.3337   -9.5148 O   0  0  0  0  0  0  0  0  0  0  0  0
  -17.7711  -41.4007   -7.5051 N   0  0  0  0  0  0  0  0  0  0  0  0
  -17.9211  -40.1147   -6.8654 C   0  0  1  0  0  0  0  0  0  0  0  0
  -18.2890  -40.1839   -5.4467 C   0  0  0  0  0  0  0  0  0  0  0  0
  -19.6300  -40.6445   -4.9960 C   0  0  0  0  0  0  0  0  0  0  0  0
  -20.8765  -40.4610   -5.5205 C   0  0  0  0  0  0  0  0  0  0  0  0
  -21.9391  -41.0503   -4.8592 C   0  0  0  0  0  0  0  0  0  0  0  0
  -21.7570  -41.7998   -3.6952 C   0  0  0  0  0  0  0  0  0  0  0  0
  -20.5161  -42.0042   -3.1358 C   0  0  0  0  0  0  0  0  0  0  0  0
  -19.4834  -41.4163   -3.8093 C   0  0  0  0  0  0  0  0  0  0  0  0
  -23.3074  -41.0123   -5.2129 O   0  0  0  0  0  0  0  0  0  0  0  0
  -23.9517  -41.5039   -6.3741 C   0  0  0  0  0  0  0  0  0  0  0  0
  -25.0668  -40.6001   -6.7623 C   0  0  0  0  0  0  0  0  0  0  0  0
  -25.2935  -40.6679   -8.2518 C   0  0  0  0  0  0  0  0  0  0  0  0
  -24.3199  -41.6020   -8.9710 C   0  0  0  0  0  0  0  0  0  0  0  0
  -23.2364  -40.9829   -9.4773 O   0  0  0  0  0  0  0  0  0  0  0  0
  -16.7423  -39.2104   -7.1555 C   0  0  2  0  0  0  0  0  0  0  0  0
  -17.2452  -37.8991   -6.9510 O   0  0  0  0  0  0  0  0  0  0  0  0
  -16.1935  -39.3243   -8.5353 C   0  0  0  0  0  0  0  0  0  0  0  0
  -15.5330  -40.5745   -8.8018 N   0  0  0  0  0  0  0  0  0  0  0  0
  -14.1574  -40.3842   -9.2194 C   0  0  0  0  0  0  0  0  0  0  0  0
  -14.0279  -39.3586  -10.2731 C   0  0  0  0  0  0  0  0  0  0  0  0
  -13.2164  -38.2459  -10.1387 C   0  0  0  0  0  0  0  0  0  0  0  0
  -13.1009  -37.2835  -11.1380 C   0  0  0  0  0  0  0  0  0  0  0  0
  -13.8358  -37.4845  -12.2817 C   0  0  0  0  0  0  0  0  0  0  0  0
  -14.6683  -38.5776  -12.4809 C   0  0  0  0  0  0  0  0  0  0  0  0
  -14.7422  -39.5040  -11.4480 C   0  0  0  0  0  0  0  0  0  0  0  0
  -12.2477  -36.0894  -11.0258 C   0  0  0  0  0  0  0  0  0  0  0  0
  -13.1069  -34.8768  -10.7453 C   0  0  0  0  0  0  0  0  0  0  0  0
  -11.6130  -35.8587  -12.4021 C   0  0  0  0  0  0  0  0  0  0  0  0
  1  2  1  0
  2  3  2  0
  2  4  1  0
  4  5  1  0
  5  6  1  0
  6  7  2  0
  7  8  1  0
  8  9  2  0
  9 10  1  0
 10 11  2  0
 10 12  1  0
 12 13  2  0
 12 14  1  0
 14 15  1  0
 15 16  1  1
 16 17  1  0
 17 18  2  0
 18 19  1  0
 19 20  2  0
 20 21  1  0
 21 22  2  0
 19 23  1  0
 23 24  1  0
 24 25  1  0
 25 26  1  0
 26 27  1  0
 27 28  1  0
 15 29  1  0
 29 30  1  6
 29 31  1  0
 31 32  1  0
 32 33  1  0
 33 34  1  0
 34 35  2  0
 35 36  1  0
 36 37  2  0
 37 38  1  0
 38 39  2  0
 36 40  1  0
 40 41  1  0
 40 42  1  0
 11  6  1  0
 22 17  1  0
 28  8  1  0
 39 34  1  0
M  END
$$$$
