
     RDKit          3D

 42 45  0  0  0  0  0  0  0  0999 V2000
  -13.6217  -43.9841   -8.7369 C   0  0  0  0  0  0  0  0  0  0  0  0
  -13.7120  -44.4427  -10.1493 C   0  0  0  0  0  0  0  0  0  0  0  0
  -12.9169  -45.2879  -10.5082 O   0  0  0  0  0  0  0  0  0  0  0  0
  -14.7349  -43.8871  -11.0817 C   0  0  0  0  0  0  0  0  0  0  0  0
  -14.2735  -42.8143  -11.8489 O   0  0  0  0  0  0  0  0  0  0  0  0
  -14.9543  -41.6081  -11.8337 C   0  0  0  0  0  0  0  0  0  0  0  0
  -14.5092  -40.4791  -12.4607 C   0  0  0  0  0  0  0  0  0  0  0  0
  -15.2106  -39.2434  -12.4503 C   0  0  0  0  0  0  0  0  0  0  0  0
  -16.4271  -39.1520  -11.7654 C   0  0  0  0  0  0  0  0  0  0  0  0
  -16.8916  -40.2646  -11.1264 C   0  0  0  0  0  0  0  0  0  0  0  0
  -16.1498  -41.4725  -11.1724 C   0  0  0  0  0  0  0  0  0  0  0  0
  -18.0941  -40.4735  -10.2947 C   0  0  0  0  0  0  0  0  0  0  0  0
  -18.8522  -41.5227  -10.4681 O   0  0  0  0  0  0  0  0  0  0  0  0
  -18.6178  -39.6532   -9.2326 N   0  0  0  0  0  0  0  0  0  0  0  0
  -17.7919  -39.0793   -8.1964 C   0  0  1  0  0  0  0  0  0  0  0  0
  -18.1259  -37.6920   -7.8552 C   0  0  0  0  0  0  0  0  0  0  0  0
  -17.8672  -36.5612   -8.7869 C   0  0  0  0  0  0  0  0  0  0  0  0
  -16.8428  -36.3161   -9.6548 C   0  0  0  0  0  0  0  0  0  0  0  0
  -16.9109  -35.1593  -10.4104 C   0  0  0  0  0  0  0  0  0  0  0  0
  -17.9773  -34.2656  -10.2932 C   0  0  0  0  0  0  0  0  0  0  0  0
  -19.0263  -34.4778   -9.4276 C   0  0  0  0  0  0  0  0  0  0  0  0
  -18.9381  -35.6282   -8.6964 C   0  0  0  0  0  0  0  0  0  0  0  0
  -15.9856  -34.7000  -11.3755 O   0  0  0  0  0  0  0  0  0  0  0  0
  -15.5872  -35.2958  -12.5967 C   0  0  0  0  0  0  0  0  0  0  0  0
  -14.1453  -35.0332  -12.8481 C   0  0  0  0  0  0  0  0  0  0  0  0
  -13.5527  -36.1468  -13.6746 C   0  0  0  0  0  0  0  0  0  0  0  0
  -14.5542  -37.2531  -14.0078 C   0  0  0  0  0  0  0  0  0  0  0  0
  -14.5292  -38.2932  -13.1528 O   0  0  0  0  0  0  0  0  0  0  0  0
  -17.6822  -40.0013   -7.0007 C   0  0  2  0  0  0  0  0  0  0  0  0
  -16.5344  -39.5407   -6.3046 O   0  0  0  0  0  0  0  0  0  0  0  0
  -17.5161  -41.4424   -7.3376 C   0  0  0  0  0  0  0  0  0  0  0  0
  -18.2760  -41.8678   -8.4829 N   0  0  0  0  0  0  0  0  0  0  0  0
  -19.6731  -42.0823   -8.1591 C   0  0  0  0  0  0  0  0  0  0  0  0
  -20.0911  -41.3356   -6.9563 C   0  0  0  0  0  0  0  0  0  0  0  0
  -21.4179  -41.0830   -6.6557 C   0  0  0  0  0  0  0  0  0  0  0  0
  -21.8026  -40.3773   -5.5190 C   0  0  0  0  0  0  0  0  0  0  0  0
  -20.7973  -39.9342   -4.6934 C   0  0  0  0  0  0  0  0  0  0  0  0
  -19.4480  -40.1529   -4.9358 C   0  0  0  0  0  0  0  0  0  0  0  0
  -19.1263  -40.8631   -6.0858 C   0  0  0  0  0  0  0  0  0  0  0  0
  -23.2041  -40.0918   -5.1714 C   0  0  0  0  0  0  0  0  0  0  0  0
  -23.7886  -41.2651   -4.4171 C   0  0  0  0  0  0  0  0  0  0  0  0
  -23.9835  -39.9943   -6.4879 C   0  0  0  0  0  0  0  0  0  0  0  0
  1  2  1  0
  2  3  2  0
  2  4  1  0
  4  5  1  0
  5  6  1  0
  6  7  2  0
  7  8  1  0
  8  9  2  0
  9 10  1  0
 10 11  2  0
 10 12  1  0
 12 13  2  0
 12 14  1  0
 14 15  1  0
 15 16  1  1
 16 17  1  0
 17 18  2  0
 18 19  1  0
 19 20  2  0
 20 21  1  0
 21 22  2  0
 19 23  1  0
 23 24  1  0
 24 25  1  0
 25 26  1  0
 26 27  1  0
 27 28  1  0
 15 29  1  0
 29 30  1  6
 29 31  1  0
 31 32  1  0
 32 33  1  0
 33 34  1  0
 34 35  2  0
 35 36  1  0
 36 37  2  0
 37 38  1  0
 38 39  2  0
 36 40  1  0
 40 41  1  0
 40 42  1  0
 11  6  1  0
 22 17  1  0
 28  8  1  0
 39 34  1  0
M  END
$$$$
