
     RDKit          3D

 42 45  0  0  0  0  0  0  0  0999 V2000
  -16.9089  -46.4874  -13.1701 C   0  0  0  0  0  0  0  0  0  0  0  0
  -16.6055  -45.4988  -12.1006 C   0  0  0  0  0  0  0  0  0  0  0  0
  -16.3517  -45.9384  -10.9972 O   0  0  0  0  0  0  0  0  0  0  0  0
  -16.6136  -44.0327  -12.3741 C   0  0  0  0  0  0  0  0  0  0  0  0
  -17.8890  -43.4623  -12.3482 O   0  0  0  0  0  0  0  0  0  0  0  0
  -18.4985  -43.1827  -11.1361 C   0  0  0  0  0  0  0  0  0  0  0  0
  -19.8310  -43.3659  -10.8983 C   0  0  0  0  0  0  0  0  0  0  0  0
  -20.4551  -43.0849   -9.6531 C   0  0  0  0  0  0  0  0  0  0  0  0
  -19.6832  -42.5910   -8.5960 C   0  0  0  0  0  0  0  0  0  0  0  0
  -18.3498  -42.3945   -8.8092 C   0  0  0  0  0  0  0  0  0  0  0  0
  -17.7801  -42.6946  -10.0728 C   0  0  0  0  0  0  0  0  0  0  0  0
  -17.2971  -41.8512   -7.9271 C   0  0  0  0  0  0  0  0  0  0  0  0
  -16.1373  -42.4436   -7.8278 O   0  0  0  0  0  0  0  0  0  0  0  0
  -17.3289  -40.6796   -7.0895 N   0  0  0  0  0  0  0  0  0  0  0  0
  -17.8563  -39.4087   -7.5277 C   0  0  1  0  0  0  0  0  0  0  0  0
  -18.6762  -38.7164   -6.5271 C   0  0  0  0  0  0  0  0  0  0  0  0
  -20.0178  -39.2133   -6.1188 C   0  0  0  0  0  0  0  0  0  0  0  0
  -21.0213  -39.8058   -6.8291 C   0  0  0  0  0  0  0  0  0  0  0  0
  -22.1594  -40.1770   -6.1358 C   0  0  0  0  0  0  0  0  0  0  0  0
  -22.2913  -39.9527   -4.7638 C   0  0  0  0  0  0  0  0  0  0  0  0
  -21.3022  -39.3559   -4.0153 C   0  0  0  0  0  0  0  0  0  0  0  0
  -20.1876  -39.0029   -4.7215 C   0  0  0  0  0  0  0  0  0  0  0  0
  -23.3157  -40.8108   -6.6457 O   0  0  0  0  0  0  0  0  0  0  0  0
  -23.4522  -42.0827   -7.2530 C   0  0  0  0  0  0  0  0  0  0  0  0
  -24.4745  -42.0281   -8.3314 C   0  0  0  0  0  0  0  0  0  0  0  0
  -24.1655  -43.0565   -9.3903 C   0  0  0  0  0  0  0  0  0  0  0  0
  -22.8908  -43.8524   -9.1083 C   0  0  0  0  0  0  0  0  0  0  0  0
  -21.7904  -43.3586   -9.7073 O   0  0  0  0  0  0  0  0  0  0  0  0
  -16.7788  -38.5459   -8.1490 C   0  0  2  0  0  0  0  0  0  0  0  0
  -17.4933  -37.5482   -8.8618 O   0  0  0  0  0  0  0  0  0  0  0  0
  -15.8636  -39.2641   -9.0789 C   0  0  0  0  0  0  0  0  0  0  0  0
  -14.8202  -40.0034   -8.4195 N   0  0  0  0  0  0  0  0  0  0  0  0
  -13.8845  -40.5828   -9.3636 C   0  0  0  0  0  0  0  0  0  0  0  0
  -13.8008  -39.8082  -10.6174 C   0  0  0  0  0  0  0  0  0  0  0  0
  -13.1913  -38.5682  -10.6918 C   0  0  0  0  0  0  0  0  0  0  0  0
  -13.1177  -37.8447  -11.8789 C   0  0  0  0  0  0  0  0  0  0  0  0
  -13.6826  -38.4190  -12.9922 C   0  0  0  0  0  0  0  0  0  0  0  0
  -14.3087  -39.6581  -12.9868 C   0  0  0  0  0  0  0  0  0  0  0  0
  -14.3508  -40.3323  -11.7727 C   0  0  0  0  0  0  0  0  0  0  0  0
  -12.4774  -36.5241  -11.9909 C   0  0  0  0  0  0  0  0  0  0  0  0
  -11.1065  -36.5696  -11.3538 C   0  0  0  0  0  0  0  0  0  0  0  0
  -13.3101  -35.5474  -11.1526 C   0  0  0  0  0  0  0  0  0  0  0  0
  1  2  1  0
  2  3  2  0
  2  4  1  0
  4  5  1  0
  5  6  1  0
  6  7  2  0
  7  8  1  0
  8  9  2  0
  9 10  1  0
 10 11  2  0
 10 12  1  0
 12 13  2  0
 12 14  1  0
 14 15  1  0
 15 16  1  1
 16 17  1  0
 17 18  2  0
 18 19  1  0
 19 20  2  0
 20 21  1  0
 21 22  2  0
 19 23  1  0
 23 24  1  0
 24 25  1  0
 25 26  1  0
 26 27  1  0
 27 28  1  0
 15 29  1  0
 29 30  1  6
 29 31  1  0
 31 32  1  0
 32 33  1  0
 33 34  1  0
 34 35  2  0
 35 36  1  0
 36 37  2  0
 37 38  1  0
 38 39  2  0
 36 40  1  0
 40 41  1  0
 40 42  1  0
 11  6  1  0
 22 17  1  0
 28  8  1  0
 39 34  1  0
M  END
$$$$
