
     RDKit          3D

 42 45  0  0  0  0  0  0  0  0999 V2000
  -17.9564  -40.1818  -14.9913 C   0  0  0  0  0  0  0  0  0  0  0  0
  -18.5547  -41.0836  -13.9704 C   0  0  0  0  0  0  0  0  0  0  0  0
  -17.8124  -41.8823  -13.4353 O   0  0  0  0  0  0  0  0  0  0  0  0
  -20.0027  -41.0081  -13.6214 C   0  0  0  0  0  0  0  0  0  0  0  0
  -20.2942  -40.0681  -12.6294 O   0  0  0  0  0  0  0  0  0  0  0  0
  -20.4478  -40.4739  -11.3139 C   0  0  0  0  0  0  0  0  0  0  0  0
  -21.6521  -40.7980  -10.7569 C   0  0  0  0  0  0  0  0  0  0  0  0
  -21.8089  -41.2202   -9.4092 C   0  0  0  0  0  0  0  0  0  0  0  0
  -20.6818  -41.3164   -8.5860 C   0  0  0  0  0  0  0  0  0  0  0  0
  -19.4670  -40.9936   -9.1171 C   0  0  0  0  0  0  0  0  0  0  0  0
  -19.3699  -40.5801  -10.4702 C   0  0  0  0  0  0  0  0  0  0  0  0
  -18.1233  -40.9479   -8.5057 C   0  0  0  0  0  0  0  0  0  0  0  0
  -17.0930  -41.4674   -9.1175 O   0  0  0  0  0  0  0  0  0  0  0  0
  -17.7169  -40.3776   -7.2468 N   0  0  0  0  0  0  0  0  0  0  0  0
  -18.1570  -39.0812   -6.7874 C   0  0  1  0  0  0  0  0  0  0  0  0
  -18.5117  -39.0317   -5.3646 C   0  0  0  0  0  0  0  0  0  0  0  0
  -19.7187  -39.7126   -4.8234 C   0  0  0  0  0  0  0  0  0  0  0  0
  -20.9703  -39.8874   -5.3388 C   0  0  0  0  0  0  0  0  0  0  0  0
  -21.8789  -40.6007   -4.5777 C   0  0  0  0  0  0  0  0  0  0  0  0
  -21.5428  -41.1203   -3.3260 C   0  0  0  0  0  0  0  0  0  0  0  0
  -20.2923  -40.9621   -2.7729 C   0  0  0  0  0  0  0  0  0  0  0  0
  -19.4124  -40.2584   -3.5452 C   0  0  0  0  0  0  0  0  0  0  0  0
  -23.2178  -40.9193   -4.9011 O   0  0  0  0  0  0  0  0  0  0  0  0
  -23.7257  -41.6997   -5.9679 C   0  0  0  0  0  0  0  0  0  0  0  0
  -25.0120  -41.1313   -6.4510 C   0  0  0  0  0  0  0  0  0  0  0  0
  -25.2054  -41.4556   -7.9110 C   0  0  0  0  0  0  0  0  0  0  0  0
  -24.0411  -42.2398   -8.5170 C   0  0  0  0  0  0  0  0  0  0  0  0
  -23.1201  -41.4713   -9.1292 O   0  0  0  0  0  0  0  0  0  0  0  0
  -17.2089  -37.9861   -7.2272 C   0  0  2  0  0  0  0  0  0  0  0  0
  -18.0550  -36.9845   -7.7705 O   0  0  0  0  0  0  0  0  0  0  0  0
  -16.2077  -38.4009   -8.2488 C   0  0  0  0  0  0  0  0  0  0  0  0
  -16.1292  -39.8236   -8.4483 N   0  0  0  0  0  0  0  0  0  0  0  0
  -16.3796  -40.1937   -9.8278 C   0  0  0  0  0  0  0  0  0  0  0  0
  -15.3593  -39.6532  -10.7475 C   0  0  0  0  0  0  0  0  0  0  0  0
  -14.6299  -38.5110  -10.4683 C   0  0  0  0  0  0  0  0  0  0  0  0
  -13.6699  -38.0083  -11.3422 C   0  0  0  0  0  0  0  0  0  0  0  0
  -13.4711  -38.7018  -12.5119 C   0  0  0  0  0  0  0  0  0  0  0  0
  -14.1678  -39.8530  -12.8534 C   0  0  0  0  0  0  0  0  0  0  0  0
  -15.1129  -40.3060  -11.9412 C   0  0  0  0  0  0  0  0  0  0  0  0
  -12.8783  -36.7965  -11.0751 C   0  0  0  0  0  0  0  0  0  0  0  0
  -11.8114  -37.1040  -10.0482 C   0  0  0  0  0  0  0  0  0  0  0  0
  -13.8209  -35.7771  -10.4252 C   0  0  0  0  0  0  0  0  0  0  0  0
  1  2  1  0
  2  3  2  0
  2  4  1  0
  4  5  1  0
  5  6  1  0
  6  7  2  0
  7  8  1  0
  8  9  2  0
  9 10  1  0
 10 11  2  0
 10 12  1  0
 12 13  2  0
 12 14  1  0
 14 15  1  0
 15 16  1  1
 16 17  1  0
 17 18  2  0
 18 19  1  0
 19 20  2  0
 20 21  1  0
 21 22  2  0
 19 23  1  0
 23 24  1  0
 24 25  1  0
 25 26  1  0
 26 27  1  0
 27 28  1  0
 15 29  1  0
 29 30  1  6
 29 31  1  0
 31 32  1  0
 32 33  1  0
 33 34  1  0
 34 35  2  0
 35 36  1  0
 36 37  2  0
 37 38  1  0
 38 39  2  0
 36 40  1  0
 40 41  1  0
 40 42  1  0
 11  6  1  0
 22 17  1  0
 28  8  1  0
 39 34  1  0
M  END
$$$$
