
     RDKit          3D

 42 45  0  0  0  0  0  0  0  0999 V2000
  -16.0816  -47.2409   -8.2732 C   0  0  0  0  0  0  0  0  0  0  0  0
  -15.9009  -46.0740   -9.1782 C   0  0  0  0  0  0  0  0  0  0  0  0
  -14.7808  -45.6132   -9.2693 O   0  0  0  0  0  0  0  0  0  0  0  0
  -17.0467  -45.4973   -9.9391 C   0  0  0  0  0  0  0  0  0  0  0  0
  -16.6858  -44.9569  -11.1761 O   0  0  0  0  0  0  0  0  0  0  0  0
  -16.7790  -43.5914  -11.3894 C   0  0  0  0  0  0  0  0  0  0  0  0
  -16.0155  -42.9125  -12.2960 C   0  0  0  0  0  0  0  0  0  0  0  0
  -16.1154  -41.5127  -12.5191 C   0  0  0  0  0  0  0  0  0  0  0  0
  -17.0393  -40.7655  -11.7806 C   0  0  0  0  0  0  0  0  0  0  0  0
  -17.8111  -41.4193  -10.8648 C   0  0  0  0  0  0  0  0  0  0  0  0
  -17.6697  -42.8191  -10.6857 C   0  0  0  0  0  0  0  0  0  0  0  0
  -18.8239  -40.9158   -9.9150 C   0  0  0  0  0  0  0  0  0  0  0  0
  -19.9717  -41.5236   -9.7779 O   0  0  0  0  0  0  0  0  0  0  0  0
  -18.7579  -39.7765   -9.0359 N   0  0  0  0  0  0  0  0  0  0  0  0
  -17.6001  -39.4650   -8.2311 C   0  0  1  0  0  0  0  0  0  0  0  0
  -17.2515  -38.0402   -8.1982 C   0  0  0  0  0  0  0  0  0  0  0  0
  -16.7061  -37.3289   -9.3858 C   0  0  0  0  0  0  0  0  0  0  0  0
  -15.8428  -37.7268  -10.3650 C   0  0  0  0  0  0  0  0  0  0  0  0
  -15.5463  -36.8149  -11.3621 C   0  0  0  0  0  0  0  0  0  0  0  0
  -16.0968  -35.5317  -11.3732 C   0  0  0  0  0  0  0  0  0  0  0  0
  -16.9684  -35.0943  -10.4018 C   0  0  0  0  0  0  0  0  0  0  0  0
  -17.2486  -36.0139   -9.4314 C   0  0  0  0  0  0  0  0  0  0  0  0
  -14.6975  -36.9976  -12.4779 O   0  0  0  0  0  0  0  0  0  0  0  0
  -14.8079  -37.9118  -13.5536 C   0  0  0  0  0  0  0  0  0  0  0  0
  -13.4584  -38.3748  -13.9725 C   0  0  0  0  0  0  0  0  0  0  0  0
  -13.5459  -39.7609  -14.5601 C   0  0  0  0  0  0  0  0  0  0  0  0
  -14.9621  -40.3370  -14.5454 C   0  0  0  0  0  0  0  0  0  0  0  0
  -15.2304  -41.1099  -13.4758 O   0  0  0  0  0  0  0  0  0  0  0  0
  -17.6836  -40.1132   -6.8656 C   0  0  2  0  0  0  0  0  0  0  0  0
  -17.0640  -41.3784   -7.0375 O   0  0  0  0  0  0  0  0  0  0  0  0
  -19.0673  -40.3018   -6.3483 C   0  0  0  0  0  0  0  0  0  0  0  0
  -19.8022  -41.3479   -7.0085 N   0  0  0  0  0  0  0  0  0  0  0  0
  -21.0140  -41.6962   -6.2923 C   0  0  0  0  0  0  0  0  0  0  0  0
  -21.8803  -40.5252   -6.0530 C   0  0  0  0  0  0  0  0  0  0  0  0
  -22.4727  -40.2702   -4.8288 C   0  0  0  0  0  0  0  0  0  0  0  0
  -23.2887  -39.1633   -4.6126 C   0  0  0  0  0  0  0  0  0  0  0  0
  -23.4863  -38.3197   -5.6793 C   0  0  0  0  0  0  0  0  0  0  0  0
  -22.9227  -38.5167   -6.9327 C   0  0  0  0  0  0  0  0  0  0  0  0
  -22.1179  -39.6387   -7.0871 C   0  0  0  0  0  0  0  0  0  0  0  0
  -23.9335  -38.8644   -3.3237 C   0  0  0  0  0  0  0  0  0  0  0  0
  -24.6103  -37.5138   -3.3963 C   0  0  0  0  0  0  0  0  0  0  0  0
  -22.8169  -38.7314   -2.2818 C   0  0  0  0  0  0  0  0  0  0  0  0
  1  2  1  0
  2  3  2  0
  2  4  1  0
  4  5  1  0
  5  6  1  0
  6  7  2  0
  7  8  1  0
  8  9  2  0
  9 10  1  0
 10 11  2  0
 10 12  1  0
 12 13  2  0
 12 14  1  0
 14 15  1  0
 15 16  1  1
 16 17  1  0
 17 18  2  0
 18 19  1  0
 19 20  2  0
 20 21  1  0
 21 22  2  0
 19 23  1  0
 23 24  1  0
 24 25  1  0
 25 26  1  0
 26 27  1  0
 27 28  1  0
 15 29  1  0
 29 30  1  6
 29 31  1  0
 31 32  1  0
 32 33  1  0
 33 34  1  0
 34 35  2  0
 35 36  1  0
 36 37  2  0
 37 38  1  0
 38 39  2  0
 36 40  1  0
 40 41  1  0
 40 42  1  0
 11  6  1  0
 22 17  1  0
 28  8  1  0
 39 34  1  0
M  END
$$$$
