
     RDKit          3D

 45 47  0  0  0  0  0  0  0  0999 V2000
  -11.9372  -35.8042  -13.4556 C   0  0  0  0  0  0  0  0  0  0  0  0
  -13.3782  -35.9234  -13.0847 C   0  0  0  0  0  0  0  0  0  0  0  0
  -13.7352  -34.8773  -12.0467 C   0  0  0  0  0  0  0  0  0  0  0  0
  -13.7355  -37.2872  -12.6000 C   0  0  0  0  0  0  0  0  0  0  0  0
  -13.6162  -37.6124  -11.2663 C   0  0  0  0  0  0  0  0  0  0  0  0
  -13.9424  -38.8747  -10.7723 C   0  0  0  0  0  0  0  0  0  0  0  0
  -13.8151  -39.2180   -9.3460 C   0  0  0  0  0  0  0  0  0  0  0  0
  -15.0319  -39.6128   -8.7210 N   0  0  0  0  0  0  0  0  0  0  0  0
  -16.1467  -38.7363   -8.8049 C   0  0  0  0  0  0  0  0  0  0  0  0
  -17.0266  -38.6941   -7.5873 C   0  0  1  0  0  0  0  0  0  0  0  0
  -17.9234  -37.6428   -7.7335 O   0  0  0  0  0  0  0  0  0  0  0  0
  -17.7305  -39.9941   -7.2823 C   0  0  2  0  0  0  0  0  0  0  0  0
  -18.5653  -39.8843   -6.0697 C   0  0  0  0  0  0  0  0  0  0  0  0
  -20.0117  -39.4938   -6.3346 C   0  0  2  0  0  0  0  0  0  0  0  0
  -20.1478  -37.9881   -6.3242 C   0  0  0  0  0  0  0  0  0  0  0  0
  -20.9130  -40.0305   -5.2178 C   0  0  0  0  0  0  0  0  0  0  0  0
  -22.3344  -40.1586   -5.6815 C   0  0  0  0  0  0  0  0  0  0  0  0
  -23.0366  -41.3735   -5.1713 C   0  0  0  0  0  0  0  0  0  0  0  0
  -22.1947  -42.6145   -5.1581 C   0  0  0  0  0  0  0  0  0  0  0  0
  -22.9829  -43.8744   -5.3658 C   0  0  0  0  0  0  0  0  0  0  0  0
  -23.6815  -43.9291   -6.6950 C   0  0  0  0  0  0  0  0  0  0  0  0
  -22.9093  -43.3525   -7.8256 C   0  0  0  0  0  0  0  0  0  0  0  0
  -21.8293  -44.1936   -8.3196 N   0  0  0  0  0  0  0  0  0  0  0  0
  -20.4160  -44.1224   -8.0510 C   0  0  0  0  0  0  0  0  0  0  0  0
  -19.5393  -43.0518   -8.0627 C   0  0  0  0  0  0  0  0  0  0  0  0
  -18.2223  -43.3139   -7.7518 C   0  0  0  0  0  0  0  0  0  0  0  0
  -17.8197  -44.6406   -7.4390 C   0  0  0  0  0  0  0  0  0  0  0  0
  -18.6656  -45.7155   -7.4207 C   0  0  0  0  0  0  0  0  0  0  0  0
  -19.9666  -45.4285   -7.7322 C   0  0  0  0  0  0  0  0  0  0  0  0
  -18.2250  -47.0267   -7.1035 N   0  0  0  0  0  0  0  0  0  0  0  0
  -17.3660  -47.6936   -8.0468 C   0  0  0  0  0  0  0  0  0  0  0  0
  -18.6747  -47.8287   -5.6567 S   0  0  0  0  0  6  0  0  0  0  0  0
  -20.2522  -48.6306   -5.8205 C   0  0  0  0  0  0  0  0  0  0  0  0
  -17.6613  -48.8524   -5.2989 O   0  0  0  0  0  0  0  0  0  0  0  0
  -18.8031  -46.8544   -4.5142 O   0  0  0  0  0  0  0  0  0  0  0  0
  -17.0424  -42.4227   -7.6842 C   0  0  0  0  0  0  0  0  0  0  0  0
  -15.8896  -42.9030   -8.1518 O   0  0  0  0  0  0  0  0  0  0  0  0
  -16.8143  -41.1258   -7.2249 N   0  0  0  0  0  0  0  0  0  0  0  0
  -22.4454  -45.4868   -9.3623 S   0  0  0  0  0  6  0  0  0  0  0  0
  -22.6473  -46.9668   -8.4014 C   0  0  0  0  0  0  0  0  0  0  0  0
  -23.8014  -45.1352   -9.8826 O   0  0  0  0  0  0  0  0  0  0  0  0
  -21.4735  -45.6801  -10.4848 O   0  0  0  0  0  0  0  0  0  0  0  0
  -14.3925  -39.7908  -11.6775 C   0  0  0  0  0  0  0  0  0  0  0  0
  -14.5307  -39.5094  -13.0400 C   0  0  0  0  0  0  0  0  0  0  0  0
  -14.1947  -38.2537  -13.4647 C   0  0  0  0  0  0  0  0  0  0  0  0
  1  2  1  0
  2  3  1  0
  2  4  1  0
  4  5  2  0
  5  6  1  0
  6  7  1  0
  7  8  1  0
  8  9  1  0
  9 10  1  0
 10 11  1  6
 10 12  1  0
 12 13  1  1
 13 14  1  0
 14 15  1  1
 14 16  1  0
 16 17  1  0
 17 18  1  0
 18 19  1  0
 19 20  1  0
 20 21  1  0
 21 22  1  0
 22 23  1  0
 23 24  1  0
 24 25  2  0
 25 26  1  0
 26 27  2  0
 27 28  1  0
 28 29  2  0
 28 30  1  0
 30 31  1  0
 30 32  1  0
 32 33  1  0
 32 34  2  0
 32 35  2  0
 26 36  1  0
 36 37  2  0
 36 38  1  0
 23 39  1  0
 39 40  1  0
 39 41  2  0
 39 42  2  0
  6 43  2  0
 43 44  1  0
 44 45  2  0
 29 24  1  0
 38 12  1  0
 45  4  1  0
M  END
$$$$
