
     RDKit          3D

 45 47  0  0  0  0  0  0  0  0999 V2000
  -11.9537  -36.9326  -15.6356 C   0  0  0  0  0  0  0  0  0  0  0  0
  -13.0293  -37.3136  -14.6733 C   0  0  0  0  0  0  0  0  0  0  0  0
  -14.1220  -36.2623  -14.6733 C   0  0  0  0  0  0  0  0  0  0  0  0
  -12.5126  -37.5338  -13.2923 C   0  0  0  0  0  0  0  0  0  0  0  0
  -13.3810  -37.6836  -12.2329 C   0  0  0  0  0  0  0  0  0  0  0  0
  -12.9388  -37.8941  -10.9275 C   0  0  0  0  0  0  0  0  0  0  0  0
  -13.8699  -38.0553   -9.7982 C   0  0  0  0  0  0  0  0  0  0  0  0
  -14.0969  -39.4050   -9.4058 N   0  0  0  0  0  0  0  0  0  0  0  0
  -14.3297  -39.6758   -8.0308 C   0  0  0  0  0  0  0  0  0  0  0  0
  -15.6490  -39.1966   -7.4938 C   0  0  1  0  0  0  0  0  0  0  0  0
  -16.0613  -38.1101   -8.2556 O   0  0  0  0  0  0  0  0  0  0  0  0
  -16.7138  -40.2635   -7.4151 C   0  0  2  0  0  0  0  0  0  0  0  0
  -17.9131  -39.7778   -6.7043 C   0  0  0  0  0  0  0  0  0  0  0  0
  -18.9816  -39.1807   -7.6079 C   0  0  2  0  0  0  0  0  0  0  0  0
  -18.7328  -37.7005   -7.7895 C   0  0  0  0  0  0  0  0  0  0  0  0
  -20.3606  -39.3241   -6.9556 C   0  0  0  0  0  0  0  0  0  0  0  0
  -21.4548  -39.2688   -7.9809 C   0  0  0  0  0  0  0  0  0  0  0  0
  -22.5803  -40.2160   -7.7253 C   0  0  0  0  0  0  0  0  0  0  0  0
  -22.1522  -41.5678   -7.2371 C   0  0  0  0  0  0  0  0  0  0  0  0
  -23.0733  -42.6751   -7.6577 C   0  0  0  0  0  0  0  0  0  0  0  0
  -23.1624  -42.8438   -9.1481 C   0  0  0  0  0  0  0  0  0  0  0  0
  -21.8815  -42.6404   -9.8727 C   0  0  0  0  0  0  0  0  0  0  0  0
  -20.9391  -43.7445   -9.7693 N   0  0  0  0  0  0  0  0  0  0  0  0
  -19.7870  -43.8893   -8.9172 C   0  0  0  0  0  0  0  0  0  0  0  0
  -18.7458  -43.0216   -8.6378 C   0  0  0  0  0  0  0  0  0  0  0  0
  -17.7780  -43.4622   -7.7607 C   0  0  0  0  0  0  0  0  0  0  0  0
  -17.8791  -44.7595   -7.1889 C   0  0  0  0  0  0  0  0  0  0  0  0
  -18.8970  -45.6358   -7.4486 C   0  0  0  0  0  0  0  0  0  0  0  0
  -19.8442  -45.1743   -8.3213 C   0  0  0  0  0  0  0  0  0  0  0  0
  -18.9627  -46.9244   -6.8576 N   0  0  0  0  0  0  0  0  0  0  0  0
  -19.4825  -48.0039   -7.6557 C   0  0  0  0  0  0  0  0  0  0  0  0
  -18.4508  -47.2320   -5.2508 S   0  0  0  0  0  6  0  0  0  0  0  0
  -19.6827  -46.7374   -4.0693 C   0  0  0  0  0  0  0  0  0  0  0  0
  -18.1755  -48.6789   -5.0660 O   0  0  0  0  0  0  0  0  0  0  0  0
  -17.2017  -46.4557   -4.9217 O   0  0  0  0  0  0  0  0  0  0  0  0
  -16.5466  -42.8095   -7.2620 C   0  0  0  0  0  0  0  0  0  0  0  0
  -15.4616  -43.5741   -7.1346 O   0  0  0  0  0  0  0  0  0  0  0  0
  -16.2112  -41.5155   -6.8644 N   0  0  0  0  0  0  0  0  0  0  0  0
  -21.3784  -45.0705  -10.8592 S   0  0  0  0  0  6  0  0  0  0  0  0
  -20.0446  -45.3600  -11.9957 C   0  0  0  0  0  0  0  0  0  0  0  0
  -21.5582  -46.3392  -10.0903 O   0  0  0  0  0  0  0  0  0  0  0  0
  -22.6409  -44.6892  -11.5681 O   0  0  0  0  0  0  0  0  0  0  0  0
  -11.5889  -37.9470  -10.7376 C   0  0  0  0  0  0  0  0  0  0  0  0
  -10.6679  -37.8008  -11.7792 C   0  0  0  0  0  0  0  0  0  0  0  0
  -11.1621  -37.5965  -13.0378 C   0  0  0  0  0  0  0  0  0  0  0  0
  1  2  1  0
  2  3  1  0
  2  4  1  0
  4  5  2  0
  5  6  1  0
  6  7  1  0
  7  8  1  0
  8  9  1  0
  9 10  1  0
 10 11  1  6
 10 12  1  0
 12 13  1  1
 13 14  1  0
 14 15  1  1
 14 16  1  0
 16 17  1  0
 17 18  1  0
 18 19  1  0
 19 20  1  0
 20 21  1  0
 21 22  1  0
 22 23  1  0
 23 24  1  0
 24 25  2  0
 25 26  1  0
 26 27  2  0
 27 28  1  0
 28 29  2  0
 28 30  1  0
 30 31  1  0
 30 32  1  0
 32 33  1  0
 32 34  2  0
 32 35  2  0
 26 36  1  0
 36 37  2  0
 36 38  1  0
 23 39  1  0
 39 40  1  0
 39 41  2  0
 39 42  2  0
  6 43  2  0
 43 44  1  0
 44 45  2  0
 29 24  1  0
 38 12  1  0
 45  4  1  0
M  END
$$$$
