
     RDKit          3D

 45 47  0  0  0  0  0  0  0  0999 V2000
  -16.0017  -36.5628  -13.2782 C   0  0  0  0  0  0  0  0  0  0  0  0
  -14.6684  -36.7783  -12.6427 C   0  0  0  0  0  0  0  0  0  0  0  0
  -13.5794  -36.1629  -13.4998 C   0  0  0  0  0  0  0  0  0  0  0  0
  -14.3818  -38.2182  -12.3836 C   0  0  0  0  0  0  0  0  0  0  0  0
  -14.4319  -38.7252  -11.1033 C   0  0  0  0  0  0  0  0  0  0  0  0
  -14.1737  -40.0654  -10.8190 C   0  0  0  0  0  0  0  0  0  0  0  0
  -14.2298  -40.6038   -9.4496 C   0  0  0  0  0  0  0  0  0  0  0  0
  -14.5204  -39.6379   -8.4449 N   0  0  0  0  0  0  0  0  0  0  0  0
  -15.7676  -38.9604   -8.5036 C   0  0  0  0  0  0  0  0  0  0  0  0
  -16.5860  -39.0063   -7.2439 C   0  0  1  0  0  0  0  0  0  0  0  0
  -17.2624  -37.7989   -7.1190 O   0  0  0  0  0  0  0  0  0  0  0  0
  -17.5226  -40.1865   -7.1525 C   0  0  2  0  0  0  0  0  0  0  0  0
  -18.5812  -39.9590   -6.1490 C   0  0  0  0  0  0  0  0  0  0  0  0
  -19.8592  -39.3523   -6.7088 C   0  0  2  0  0  0  0  0  0  0  0  0
  -19.7724  -37.8434   -6.6687 C   0  0  0  0  0  0  0  0  0  0  0  0
  -21.0551  -39.7531   -5.8390 C   0  0  0  0  0  0  0  0  0  0  0  0
  -22.3406  -39.6615   -6.6076 C   0  0  0  0  0  0  0  0  0  0  0  0
  -23.3088  -40.7591   -6.3124 C   0  0  0  0  0  0  0  0  0  0  0  0
  -22.6819  -42.1135   -6.1642 C   0  0  0  0  0  0  0  0  0  0  0  0
  -23.5797  -43.2380   -6.5895 C   0  0  0  0  0  0  0  0  0  0  0  0
  -23.9651  -43.1781   -8.0406 C   0  0  0  0  0  0  0  0  0  0  0  0
  -22.8846  -42.7182   -8.9506 C   0  0  0  0  0  0  0  0  0  0  0  0
  -21.8567  -43.7101   -9.2288 N   0  0  0  0  0  0  0  0  0  0  0  0
  -20.5440  -43.8556   -8.6543 C   0  0  0  0  0  0  0  0  0  0  0  0
  -19.5397  -42.9300   -8.4311 C   0  0  0  0  0  0  0  0  0  0  0  0
  -18.3779  -43.3905   -7.8497 C   0  0  0  0  0  0  0  0  0  0  0  0
  -18.2536  -44.7648   -7.5091 C   0  0  0  0  0  0  0  0  0  0  0  0
  -19.2303  -45.6993   -7.7193 C   0  0  0  0  0  0  0  0  0  0  0  0
  -20.3729  -45.2166   -8.2968 C   0  0  0  0  0  0  0  0  0  0  0  0
  -19.0682  -47.0640   -7.3655 N   0  0  0  0  0  0  0  0  0  0  0  0
  -19.9654  -48.0225   -7.9563 C   0  0  0  0  0  0  0  0  0  0  0  0
  -17.8580  -47.5995   -6.2759 S   0  0  0  0  0  6  0  0  0  0  0  0
  -18.1891  -47.0552   -4.6169 C   0  0  0  0  0  0  0  0  0  0  0  0
  -17.7819  -49.0818   -6.2785 O   0  0  0  0  0  0  0  0  0  0  0  0
  -16.5077  -47.0447   -6.6501 O   0  0  0  0  0  0  0  0  0  0  0  0
  -17.1252  -42.6888   -7.4898 C   0  0  0  0  0  0  0  0  0  0  0  0
  -15.9803  -43.3353   -7.7119 O   0  0  0  0  0  0  0  0  0  0  0  0
  -16.8179  -41.4443   -6.9406 N   0  0  0  0  0  0  0  0  0  0  0  0
  -22.4076  -44.8886  -10.4316 S   0  0  0  0  0  6  0  0  0  0  0  0
  -22.0543  -44.2720  -12.0594 C   0  0  0  0  0  0  0  0  0  0  0  0
  -21.6486  -46.1683  -10.2931 O   0  0  0  0  0  0  0  0  0  0  0  0
  -23.8742  -45.1097  -10.2264 O   0  0  0  0  0  0  0  0  0  0  0  0
  -13.8644  -40.8690  -11.8773 C   0  0  0  0  0  0  0  0  0  0  0  0
  -13.8008  -40.4023  -13.1936 C   0  0  0  0  0  0  0  0  0  0  0  0
  -14.0640  -39.0779  -13.4096 C   0  0  0  0  0  0  0  0  0  0  0  0
  1  2  1  0
  2  3  1  0
  2  4  1  0
  4  5  2  0
  5  6  1  0
  6  7  1  0
  7  8  1  0
  8  9  1  0
  9 10  1  0
 10 11  1  6
 10 12  1  0
 12 13  1  1
 13 14  1  0
 14 15  1  1
 14 16  1  0
 16 17  1  0
 17 18  1  0
 18 19  1  0
 19 20  1  0
 20 21  1  0
 21 22  1  0
 22 23  1  0
 23 24  1  0
 24 25  2  0
 25 26  1  0
 26 27  2  0
 27 28  1  0
 28 29  2  0
 28 30  1  0
 30 31  1  0
 30 32  1  0
 32 33  1  0
 32 34  2  0
 32 35  2  0
 26 36  1  0
 36 37  2  0
 36 38  1  0
 23 39  1  0
 39 40  1  0
 39 41  2  0
 39 42  2  0
  6 43  2  0
 43 44  1  0
 44 45  2  0
 29 24  1  0
 38 12  1  0
 45  4  1  0
M  END
$$$$
