
     RDKit          3D

 45 47  0  0  0  0  0  0  0  0999 V2000
  -24.2585  -39.5450   -5.7272 C   0  0  0  0  0  0  0  0  0  0  0  0
  -23.6407  -40.1457   -4.5083 C   0  0  0  0  0  0  0  0  0  0  0  0
  -24.0627  -39.3693   -3.2761 C   0  0  0  0  0  0  0  0  0  0  0  0
  -22.1546  -40.2233   -4.5966 C   0  0  0  0  0  0  0  0  0  0  0  0
  -21.4034  -39.0884   -4.8119 C   0  0  0  0  0  0  0  0  0  0  0  0
  -20.0121  -39.1176   -4.8978 C   0  0  0  0  0  0  0  0  0  0  0  0
  -19.2127  -37.9023   -5.1264 C   0  0  0  0  0  0  0  0  0  0  0  0
  -17.8261  -38.0421   -4.8352 N   0  0  0  0  0  0  0  0  0  0  0  0
  -17.0910  -39.0424   -5.5260 C   0  0  0  0  0  0  0  0  0  0  0  0
  -17.0452  -38.8920   -7.0206 C   0  0  1  0  0  0  0  0  0  0  0  0
  -15.7427  -38.5766   -7.3876 O   0  0  0  0  0  0  0  0  0  0  0  0
  -17.5701  -40.0844   -7.7828 C   0  0  2  0  0  0  0  0  0  0  0  0
  -18.5629  -39.6815   -8.7984 C   0  0  0  0  0  0  0  0  0  0  0  0
  -17.9796  -39.4165  -10.1784 C   0  0  2  0  0  0  0  0  0  0  0  0
  -17.5679  -37.9662  -10.2925 C   0  0  0  0  0  0  0  0  0  0  0  0
  -19.0427  -39.6640  -11.2537 C   0  0  0  0  0  0  0  0  0  0  0  0
  -18.4121  -39.9507  -12.5848 C   0  0  0  0  0  0  0  0  0  0  0  0
  -19.1097  -41.0068  -13.3768 C   0  0  0  0  0  0  0  0  0  0  0  0
  -19.5846  -42.1755  -12.5658 C   0  0  0  0  0  0  0  0  0  0  0  0
  -19.5979  -43.4674  -13.3291 C   0  0  0  0  0  0  0  0  0  0  0  0
  -18.2384  -43.8918  -13.8079 C   0  0  0  0  0  0  0  0  0  0  0  0
  -17.1313  -43.6132  -12.8572 C   0  0  0  0  0  0  0  0  0  0  0  0
  -17.0549  -44.5239  -11.7246 N   0  0  0  0  0  0  0  0  0  0  0  0
  -17.5138  -44.3439  -10.3713 C   0  0  0  0  0  0  0  0  0  0  0  0
  -17.3560  -43.2900   -9.4885 C   0  0  0  0  0  0  0  0  0  0  0  0
  -17.9286  -43.4227   -8.2417 C   0  0  0  0  0  0  0  0  0  0  0  0
  -18.6421  -44.6073   -7.9133 C   0  0  0  0  0  0  0  0  0  0  0  0
  -18.8122  -45.6627   -8.7668 C   0  0  0  0  0  0  0  0  0  0  0  0
  -18.2349  -45.5057   -9.9973 C   0  0  0  0  0  0  0  0  0  0  0  0
  -19.5317  -46.8301   -8.4015 N   0  0  0  0  0  0  0  0  0  0  0  0
  -19.3581  -48.0075   -9.2116 C   0  0  0  0  0  0  0  0  0  0  0  0
  -20.5830  -46.8829   -7.0485 S   0  0  0  0  0  6  0  0  0  0  0  0
  -19.8651  -47.7934   -5.7017 C   0  0  0  0  0  0  0  0  0  0  0  0
  -20.8867  -45.5083   -6.5783 O   0  0  0  0  0  0  0  0  0  0  0  0
  -21.8771  -47.5734   -7.3942 O   0  0  0  0  0  0  0  0  0  0  0  0
  -17.9417  -42.5121   -7.0748 C   0  0  0  0  0  0  0  0  0  0  0  0
  -17.8060  -43.0660   -5.8693 O   0  0  0  0  0  0  0  0  0  0  0  0
  -18.0696  -41.1340   -6.9040 N   0  0  0  0  0  0  0  0  0  0  0  0
  -16.3100  -46.0639  -12.1855 S   0  0  0  0  0  6  0  0  0  0  0  0
  -17.5755  -47.2987  -12.3540 C   0  0  0  0  0  0  0  0  0  0  0  0
  -15.6564  -45.9467  -13.5242 O   0  0  0  0  0  0  0  0  0  0  0  0
  -15.3118  -46.4302  -11.1313 O   0  0  0  0  0  0  0  0  0  0  0  0
  -19.4137  -40.3356   -4.7576 C   0  0  0  0  0  0  0  0  0  0  0  0
  -20.1317  -41.5150   -4.5380 C   0  0  0  0  0  0  0  0  0  0  0  0
  -21.4940  -41.4228   -4.4634 C   0  0  0  0  0  0  0  0  0  0  0  0
  1  2  1  0
  2  3  1  0
  2  4  1  0
  4  5  2  0
  5  6  1  0
  6  7  1  0
  7  8  1  0
  8  9  1  0
  9 10  1  0
 10 11  1  6
 10 12  1  0
 12 13  1  6
 13 14  1  0
 14 15  1  1
 14 16  1  0
 16 17  1  0
 17 18  1  0
 18 19  1  0
 19 20  1  0
 20 21  1  0
 21 22  1  0
 22 23  1  0
 23 24  1  0
 24 25  2  0
 25 26  1  0
 26 27  2  0
 27 28  1  0
 28 29  2  0
 28 30  1  0
 30 31  1  0
 30 32  1  0
 32 33  1  0
 32 34  2  0
 32 35  2  0
 26 36  1  0
 36 37  2  0
 36 38  1  0
 23 39  1  0
 39 40  1  0
 39 41  2  0
 39 42  2  0
  6 43  2  0
 43 44  1  0
 44 45  2  0
 29 24  1  0
 38 12  1  0
 45  4  1  0
M  END
$$$$
