
     RDKit          3D

 45 47  0  0  0  0  0  0  0  0999 V2000
  -14.9351  -45.0519  -11.0090 C   0  0  0  0  0  0  0  0  0  0  0  0
  -15.5931  -43.7598  -11.3637 C   0  0  0  0  0  0  0  0  0  0  0  0
  -16.3208  -43.8940  -12.6872 C   0  0  0  0  0  0  0  0  0  0  0  0
  -14.6338  -42.6194  -11.4053 C   0  0  0  0  0  0  0  0  0  0  0  0
  -14.3558  -41.8933  -10.2676 C   0  0  0  0  0  0  0  0  0  0  0  0
  -13.4633  -40.8223  -10.2634 C   0  0  0  0  0  0  0  0  0  0  0  0
  -13.1676  -40.0497   -9.0452 C   0  0  0  0  0  0  0  0  0  0  0  0
  -14.2950  -39.8053   -8.2108 N   0  0  0  0  0  0  0  0  0  0  0  0
  -15.4498  -39.2190   -8.7946 C   0  0  0  0  0  0  0  0  0  0  0  0
  -16.5480  -38.8623   -7.8326 C   0  0  1  0  0  0  0  0  0  0  0  0
  -17.3065  -37.8429   -8.3951 O   0  0  0  0  0  0  0  0  0  0  0  0
  -17.4047  -40.0292   -7.4052 C   0  0  2  0  0  0  0  0  0  0  0  0
  -18.1287  -39.7368   -6.1523 C   0  0  0  0  0  0  0  0  0  0  0  0
  -19.5207  -39.1557   -6.3506 C   0  0  2  0  0  0  0  0  0  0  0  0
  -19.4424  -37.6476   -6.4245 C   0  0  0  0  0  0  0  0  0  0  0  0
  -20.4082  -39.4975   -5.1493 C   0  0  0  0  0  0  0  0  0  0  0  0
  -21.8624  -39.4427   -5.5153 C   0  0  0  0  0  0  0  0  0  0  0  0
  -22.6911  -40.5151   -4.8888 C   0  0  0  0  0  0  0  0  0  0  0  0
  -22.0335  -41.8624   -4.8514 C   0  0  0  0  0  0  0  0  0  0  0  0
  -23.0039  -43.0041   -4.9319 C   0  0  0  0  0  0  0  0  0  0  0  0
  -23.7947  -43.0264   -6.2094 C   0  0  0  0  0  0  0  0  0  0  0  0
  -23.0301  -42.6272   -7.4190 C   0  0  0  0  0  0  0  0  0  0  0  0
  -22.1166  -43.6402   -7.9262 N   0  0  0  0  0  0  0  0  0  0  0  0
  -20.6920  -43.7603   -7.7505 C   0  0  0  0  0  0  0  0  0  0  0  0
  -19.6763  -42.8297   -7.8824 C   0  0  0  0  0  0  0  0  0  0  0  0
  -18.3908  -43.2629   -7.6380 C   0  0  0  0  0  0  0  0  0  0  0  0
  -18.1581  -44.6158   -7.2697 C   0  0  0  0  0  0  0  0  0  0  0  0
  -19.1435  -45.5546   -7.1328 C   0  0  0  0  0  0  0  0  0  0  0  0
  -20.4098  -45.0992   -7.3803 C   0  0  0  0  0  0  0  0  0  0  0  0
  -18.8709  -46.8975   -6.7634 N   0  0  0  0  0  0  0  0  0  0  0  0
  -19.9576  -47.8407   -6.8086 C   0  0  0  0  0  0  0  0  0  0  0  0
  -17.3148  -47.4242   -6.2739 S   0  0  0  0  0  6  0  0  0  0  0  0
  -17.1964  -47.5485   -4.5051 C   0  0  0  0  0  0  0  0  0  0  0  0
  -17.0130  -48.7539   -6.8604 O   0  0  0  0  0  0  0  0  0  0  0  0
  -16.2507  -46.4500   -6.7097 O   0  0  0  0  0  0  0  0  0  0  0  0
  -17.0953  -42.5494   -7.6986 C   0  0  0  0  0  0  0  0  0  0  0  0
  -16.0573  -43.2150   -8.2062 O   0  0  0  0  0  0  0  0  0  0  0  0
  -16.6553  -41.2769   -7.3351 N   0  0  0  0  0  0  0  0  0  0  0  0
  -22.9802  -44.8832   -8.8471 S   0  0  0  0  0  6  0  0  0  0  0  0
  -21.8642  -45.6323  -10.0082 C   0  0  0  0  0  0  0  0  0  0  0  0
  -23.4404  -45.9782   -7.9403 O   0  0  0  0  0  0  0  0  0  0  0  0
  -24.1406  -44.2305   -9.5322 O   0  0  0  0  0  0  0  0  0  0  0  0
  -12.8655  -40.5166  -11.4510 C   0  0  0  0  0  0  0  0  0  0  0  0
  -13.1143  -41.2226  -12.6318 C   0  0  0  0  0  0  0  0  0  0  0  0
  -13.9998  -42.2631  -12.5731 C   0  0  0  0  0  0  0  0  0  0  0  0
  1  2  1  0
  2  3  1  0
  2  4  1  0
  4  5  2  0
  5  6  1  0
  6  7  1  0
  7  8  1  0
  8  9  1  0
  9 10  1  0
 10 11  1  6
 10 12  1  0
 12 13  1  1
 13 14  1  0
 14 15  1  1
 14 16  1  0
 16 17  1  0
 17 18  1  0
 18 19  1  0
 19 20  1  0
 20 21  1  0
 21 22  1  0
 22 23  1  0
 23 24  1  0
 24 25  2  0
 25 26  1  0
 26 27  2  0
 27 28  1  0
 28 29  2  0
 28 30  1  0
 30 31  1  0
 30 32  1  0
 32 33  1  0
 32 34  2  0
 32 35  2  0
 26 36  1  0
 36 37  2  0
 36 38  1  0
 23 39  1  0
 39 40  1  0
 39 41  2  0
 39 42  2  0
  6 43  2  0
 43 44  1  0
 44 45  2  0
 29 24  1  0
 38 12  1  0
 45  4  1  0
M  END
$$$$
