
     RDKit          3D

 45 47  0  0  0  0  0  0  0  0999 V2000
  -13.6565  -44.6569  -10.9584 C   0  0  0  0  0  0  0  0  0  0  0  0
  -14.5616  -43.5854  -11.4692 C   0  0  0  0  0  0  0  0  0  0  0  0
  -14.6826  -43.6835  -12.9775 C   0  0  0  0  0  0  0  0  0  0  0  0
  -14.1200  -42.2200  -11.0656 C   0  0  0  0  0  0  0  0  0  0  0  0
  -14.2012  -41.8153   -9.7509 C   0  0  0  0  0  0  0  0  0  0  0  0
  -13.7961  -40.5487   -9.3319 C   0  0  0  0  0  0  0  0  0  0  0  0
  -13.8830  -40.1204   -7.9257 C   0  0  0  0  0  0  0  0  0  0  0  0
  -15.2005  -39.8173   -7.4793 N   0  0  0  0  0  0  0  0  0  0  0  0
  -15.6042  -38.4556   -7.4494 C   0  0  0  0  0  0  0  0  0  0  0  0
  -17.0890  -38.2237   -7.4349 C   0  0  1  0  0  0  0  0  0  0  0  0
  -17.4356  -37.5435   -8.5959 O   0  0  0  0  0  0  0  0  0  0  0  0
  -17.9130  -39.4748   -7.2500 C   0  0  2  0  0  0  0  0  0  0  0  0
  -18.6955  -39.4258   -5.9992 C   0  0  0  0  0  0  0  0  0  0  0  0
  -20.1016  -38.8667   -6.1579 C   0  0  2  0  0  0  0  0  0  0  0  0
  -20.0822  -37.3665   -5.9714 C   0  0  0  0  0  0  0  0  0  0  0  0
  -21.0194  -39.4389   -5.0726 C   0  0  0  0  0  0  0  0  0  0  0  0
  -22.4596  -39.3714   -5.4883 C   0  0  0  0  0  0  0  0  0  0  0  0
  -23.2671  -40.5626   -5.0903 C   0  0  0  0  0  0  0  0  0  0  0  0
  -22.5568  -41.8734   -5.2526 C   0  0  0  0  0  0  0  0  0  0  0  0
  -23.4759  -43.0167   -5.5687 C   0  0  0  0  0  0  0  0  0  0  0  0
  -24.2159  -42.8468   -6.8653 C   0  0  0  0  0  0  0  0  0  0  0  0
  -23.4227  -42.2209   -7.9545 C   0  0  0  0  0  0  0  0  0  0  0  0
  -22.4499  -43.1006   -8.5850 N   0  0  0  0  0  0  0  0  0  0  0  0
  -21.0294  -43.2008   -8.3689 C   0  0  0  0  0  0  0  0  0  0  0  0
  -20.0483  -42.2275   -8.2957 C   0  0  0  0  0  0  0  0  0  0  0  0
  -18.7564  -42.6524   -8.0715 C   0  0  0  0  0  0  0  0  0  0  0  0
  -18.4827  -44.0397   -7.9278 C   0  0  0  0  0  0  0  0  0  0  0  0
  -19.4334  -45.0210   -7.9962 C   0  0  0  0  0  0  0  0  0  0  0  0
  -20.7069  -44.5730   -8.2189 C   0  0  0  0  0  0  0  0  0  0  0  0
  -19.1203  -46.3972   -7.8480 N   0  0  0  0  0  0  0  0  0  0  0  0
  -20.1845  -47.3510   -8.0224 C   0  0  0  0  0  0  0  0  0  0  0  0
  -17.5417  -46.9515   -7.4749 S   0  0  0  0  0  6  0  0  0  0  0  0
  -17.3586  -47.2727   -5.7367 C   0  0  0  0  0  0  0  0  0  0  0  0
  -17.2457  -48.2017   -8.2182 O   0  0  0  0  0  0  0  0  0  0  0  0
  -16.5053  -45.9180   -7.8337 O   0  0  0  0  0  0  0  0  0  0  0  0
  -17.4898  -41.8957   -7.9524 C   0  0  0  0  0  0  0  0  0  0  0  0
  -16.4068  -42.4291   -8.5188 O   0  0  0  0  0  0  0  0  0  0  0  0
  -17.1164  -40.6901   -7.3592 N   0  0  0  0  0  0  0  0  0  0  0  0
  -23.2262  -44.1963   -9.7408 S   0  0  0  0  0  6  0  0  0  0  0  0
  -24.5169  -45.0966   -8.9173 C   0  0  0  0  0  0  0  0  0  0  0  0
  -23.8869  -43.4189  -10.8328 O   0  0  0  0  0  0  0  0  0  0  0  0
  -22.1753  -45.1092  -10.2922 O   0  0  0  0  0  0  0  0  0  0  0  0
  -13.3076  -39.7115  -10.2919 C   0  0  0  0  0  0  0  0  0  0  0  0
  -13.2053  -40.0752  -11.6380 C   0  0  0  0  0  0  0  0  0  0  0  0
  -13.6186  -41.3309  -11.9881 C   0  0  0  0  0  0  0  0  0  0  0  0
  1  2  1  0
  2  3  1  0
  2  4  1  0
  4  5  2  0
  5  6  1  0
  6  7  1  0
  7  8  1  0
  8  9  1  0
  9 10  1  0
 10 11  1  6
 10 12  1  0
 12 13  1  1
 13 14  1  0
 14 15  1  1
 14 16  1  0
 16 17  1  0
 17 18  1  0
 18 19  1  0
 19 20  1  0
 20 21  1  0
 21 22  1  0
 22 23  1  0
 23 24  1  0
 24 25  2  0
 25 26  1  0
 26 27  2  0
 27 28  1  0
 28 29  2  0
 28 30  1  0
 30 31  1  0
 30 32  1  0
 32 33  1  0
 32 34  2  0
 32 35  2  0
 26 36  1  0
 36 37  2  0
 36 38  1  0
 23 39  1  0
 39 40  1  0
 39 41  2  0
 39 42  2  0
  6 43  2  0
 43 44  1  0
 44 45  2  0
 29 24  1  0
 38 12  1  0
 45  4  1  0
M  END
$$$$
