
     RDKit          3D

 45 47  0  0  0  0  0  0  0  0999 V2000
  -11.2576  -35.4029  -11.7056 C   0  0  0  0  0  0  0  0  0  0  0  0
  -11.9838  -36.0169  -12.8562 C   0  0  0  0  0  0  0  0  0  0  0  0
  -13.1682  -35.1528  -13.2431 C   0  0  0  0  0  0  0  0  0  0  0  0
  -12.4219  -37.4146  -12.5787 C   0  0  0  0  0  0  0  0  0  0  0  0
  -12.7558  -37.8055  -11.3003 C   0  0  0  0  0  0  0  0  0  0  0  0
  -13.1728  -39.1014  -10.9994 C   0  0  0  0  0  0  0  0  0  0  0  0
  -13.5304  -39.5149   -9.6321 C   0  0  0  0  0  0  0  0  0  0  0  0
  -14.9073  -39.3568   -9.3065 N   0  0  0  0  0  0  0  0  0  0  0  0
  -15.2644  -39.2267   -7.9377 C   0  0  0  0  0  0  0  0  0  0  0  0
  -16.6967  -38.8531   -7.6779 C   0  0  1  0  0  0  0  0  0  0  0  0
  -17.1688  -38.1448   -8.7761 O   0  0  0  0  0  0  0  0  0  0  0  0
  -17.5919  -40.0190   -7.3347 C   0  0  2  0  0  0  0  0  0  0  0  0
  -18.3300  -39.7812   -6.0785 C   0  0  0  0  0  0  0  0  0  0  0  0
  -19.7022  -39.1509   -6.2644 C   0  0  2  0  0  0  0  0  0  0  0  0
  -19.5822  -37.6438   -6.2469 C   0  0  0  0  0  0  0  0  0  0  0  0
  -20.6197  -39.5383   -5.1001 C   0  0  0  0  0  0  0  0  0  0  0  0
  -22.0652  -39.4215   -5.4856 C   0  0  0  0  0  0  0  0  0  0  0  0
  -22.9334  -40.5056   -4.9377 C   0  0  0  0  0  0  0  0  0  0  0  0
  -22.3129  -41.8706   -4.9700 C   0  0  0  0  0  0  0  0  0  0  0  0
  -23.3120  -42.9781   -5.1342 C   0  0  0  0  0  0  0  0  0  0  0  0
  -24.0802  -42.9028   -6.4234 C   0  0  0  0  0  0  0  0  0  0  0  0
  -23.2837  -42.4542   -7.5944 C   0  0  0  0  0  0  0  0  0  0  0  0
  -22.3888  -43.4604   -8.1463 N   0  0  0  0  0  0  0  0  0  0  0  0
  -20.9714  -43.6302   -7.9550 C   0  0  0  0  0  0  0  0  0  0  0  0
  -19.9289  -42.7220   -8.0147 C   0  0  0  0  0  0  0  0  0  0  0  0
  -18.6600  -43.2046   -7.7759 C   0  0  0  0  0  0  0  0  0  0  0  0
  -18.4702  -44.5828   -7.4851 C   0  0  0  0  0  0  0  0  0  0  0  0
  -19.4828  -45.5003   -7.4205 C   0  0  0  0  0  0  0  0  0  0  0  0
  -20.7317  -44.9960   -7.6608 C   0  0  0  0  0  0  0  0  0  0  0  0
  -19.2528  -46.8697   -7.1274 N   0  0  0  0  0  0  0  0  0  0  0  0
  -19.5343  -47.8341   -8.1586 C   0  0  0  0  0  0  0  0  0  0  0  0
  -18.6598  -47.4038   -5.6103 S   0  0  0  0  0  6  0  0  0  0  0  0
  -19.2758  -49.0204   -5.2033 C   0  0  0  0  0  0  0  0  0  0  0  0
  -17.1765  -47.4557   -5.6263 O   0  0  0  0  0  0  0  0  0  0  0  0
  -19.1001  -46.4831   -4.5014 O   0  0  0  0  0  0  0  0  0  0  0  0
  -17.3450  -42.5250   -7.7728 C   0  0  0  0  0  0  0  0  0  0  0  0
  -16.3163  -43.1880   -8.3023 O   0  0  0  0  0  0  0  0  0  0  0  0
  -16.8776  -41.2890   -7.3270 N   0  0  0  0  0  0  0  0  0  0  0  0
  -23.2689  -44.6223   -9.1536 S   0  0  0  0  0  6  0  0  0  0  0  0
  -24.2034  -45.7126   -8.1084 C   0  0  0  0  0  0  0  0  0  0  0  0
  -24.2618  -43.9154  -10.0181 O   0  0  0  0  0  0  0  0  0  0  0  0
  -22.2695  -45.3673   -9.9831 O   0  0  0  0  0  0  0  0  0  0  0  0
  -13.2385  -39.9822  -12.0391 C   0  0  0  0  0  0  0  0  0  0  0  0
  -12.9103  -39.6341  -13.3528 C   0  0  0  0  0  0  0  0  0  0  0  0
  -12.5078  -38.3481  -13.5857 C   0  0  0  0  0  0  0  0  0  0  0  0
  1  2  1  0
  2  3  1  0
  2  4  1  0
  4  5  2  0
  5  6  1  0
  6  7  1  0
  7  8  1  0
  8  9  1  0
  9 10  1  0
 10 11  1  6
 10 12  1  0
 12 13  1  1
 13 14  1  0
 14 15  1  1
 14 16  1  0
 16 17  1  0
 17 18  1  0
 18 19  1  0
 19 20  1  0
 20 21  1  0
 21 22  1  0
 22 23  1  0
 23 24  1  0
 24 25  2  0
 25 26  1  0
 26 27  2  0
 27 28  1  0
 28 29  2  0
 28 30  1  0
 30 31  1  0
 30 32  1  0
 32 33  1  0
 32 34  2  0
 32 35  2  0
 26 36  1  0
 36 37  2  0
 36 38  1  0
 23 39  1  0
 39 40  1  0
 39 41  2  0
 39 42  2  0
  6 43  2  0
 43 44  1  0
 44 45  2  0
 29 24  1  0
 38 12  1  0
 45  4  1  0
M  END
$$$$
