
     RDKit          3D

 45 47  0  0  0  0  0  0  0  0999 V2000
  -13.7401  -34.2234  -13.0064 C   0  0  0  0  0  0  0  0  0  0  0  0
  -14.8072  -33.2554  -12.6160 C   0  0  0  0  0  0  0  0  0  0  0  0
  -14.1923  -32.0603  -11.9138 C   0  0  0  0  0  0  0  0  0  0  0  0
  -15.8636  -33.8767  -11.7673 C   0  0  0  0  0  0  0  0  0  0  0  0
  -15.5520  -34.4086  -10.5348 C   0  0  0  0  0  0  0  0  0  0  0  0
  -16.5104  -34.9954   -9.7096 C   0  0  0  0  0  0  0  0  0  0  0  0
  -16.1738  -35.5613   -8.3925 C   0  0  0  0  0  0  0  0  0  0  0  0
  -15.9194  -36.9622   -8.3973 N   0  0  0  0  0  0  0  0  0  0  0  0
  -16.8933  -37.8209   -8.9737 C   0  0  0  0  0  0  0  0  0  0  0  0
  -16.7147  -39.2846   -8.6835 C   0  0  1  0  0  0  0  0  0  0  0  0
  -15.6854  -39.4238   -7.7605 O   0  0  0  0  0  0  0  0  0  0  0  0
  -17.9718  -39.9881   -8.2328 C   0  0  2  0  0  0  0  0  0  0  0  0
  -19.1583  -39.4891   -8.9557 C   0  0  0  0  0  0  0  0  0  0  0  0
  -19.5088  -40.2766  -10.2094 C   0  0  2  0  0  0  0  0  0  0  0  0
  -18.7835  -39.6948  -11.4015 C   0  0  0  0  0  0  0  0  0  0  0  0
  -21.0087  -40.1602  -10.4999 C   0  0  0  0  0  0  0  0  0  0  0  0
  -21.4883  -41.3030  -11.3460 C   0  0  0  0  0  0  0  0  0  0  0  0
  -22.8378  -41.8184  -10.9688 C   0  0  0  0  0  0  0  0  0  0  0  0
  -23.0784  -41.8983   -9.4906 C   0  0  0  0  0  0  0  0  0  0  0  0
  -24.0108  -43.0055   -9.0953 C   0  0  0  0  0  0  0  0  0  0  0  0
  -23.4980  -44.3728   -9.4496 C   0  0  0  0  0  0  0  0  0  0  0  0
  -22.0333  -44.5501   -9.2752 C   0  0  0  0  0  0  0  0  0  0  0  0
  -21.5968  -44.7059   -7.8957 N   0  0  0  0  0  0  0  0  0  0  0  0
  -21.0199  -43.7351   -7.0017 C   0  0  0  0  0  0  0  0  0  0  0  0
  -19.9949  -42.8237   -7.1853 C   0  0  0  0  0  0  0  0  0  0  0  0
  -19.6731  -42.0153   -6.1163 C   0  0  0  0  0  0  0  0  0  0  0  0
  -20.3857  -42.1428   -4.8931 C   0  0  0  0  0  0  0  0  0  0  0  0
  -21.4017  -43.0350   -4.6858 C   0  0  0  0  0  0  0  0  0  0  0  0
  -21.7017  -43.8247   -5.7621 C   0  0  0  0  0  0  0  0  0  0  0  0
  -22.0896  -43.1327   -3.4484 N   0  0  0  0  0  0  0  0  0  0  0  0
  -23.5243  -43.0135   -3.4659 C   0  0  0  0  0  0  0  0  0  0  0  0
  -21.2810  -43.3847   -1.9581 S   0  0  0  0  0  6  0  0  0  0  0  0
  -21.7650  -44.9206   -1.2066 C   0  0  0  0  0  0  0  0  0  0  0  0
  -19.8115  -43.4052   -2.1665 O   0  0  0  0  0  0  0  0  0  0  0  0
  -21.6146  -42.2972   -0.9696 O   0  0  0  0  0  0  0  0  0  0  0  0
  -18.6427  -40.9631   -5.9673 C   0  0  0  0  0  0  0  0  0  0  0  0
  -17.9948  -40.9065   -4.8031 O   0  0  0  0  0  0  0  0  0  0  0  0
  -18.1462  -39.9496   -6.7866 N   0  0  0  0  0  0  0  0  0  0  0  0
  -21.8950  -46.3504   -7.3076 S   0  0  0  0  0  6  0  0  0  0  0  0
  -20.5661  -47.4078   -7.8277 C   0  0  0  0  0  0  0  0  0  0  0  0
  -21.8938  -46.3779   -5.8135 O   0  0  0  0  0  0  0  0  0  0  0  0
  -23.2137  -46.8054   -7.8515 O   0  0  0  0  0  0  0  0  0  0  0  0
  -17.7911  -35.0225  -10.1789 C   0  0  0  0  0  0  0  0  0  0  0  0
  -18.1571  -34.4966  -11.4215 C   0  0  0  0  0  0  0  0  0  0  0  0
  -17.1728  -33.9339  -12.1861 C   0  0  0  0  0  0  0  0  0  0  0  0
  1  2  1  0
  2  3  1  0
  2  4  1  0
  4  5  2  0
  5  6  1  0
  6  7  1  0
  7  8  1  0
  8  9  1  0
  9 10  1  0
 10 11  1  1
 10 12  1  0
 12 13  1  6
 13 14  1  0
 14 15  1  6
 14 16  1  0
 16 17  1  0
 17 18  1  0
 18 19  1  0
 19 20  1  0
 20 21  1  0
 21 22  1  0
 22 23  1  0
 23 24  1  0
 24 25  2  0
 25 26  1  0
 26 27  2  0
 27 28  1  0
 28 29  2  0
 28 30  1  0
 30 31  1  0
 30 32  1  0
 32 33  1  0
 32 34  2  0
 32 35  2  0
 26 36  1  0
 36 37  2  0
 36 38  1  0
 23 39  1  0
 39 40  1  0
 39 41  2  0
 39 42  2  0
  6 43  2  0
 43 44  1  0
 44 45  2  0
 29 24  1  0
 38 12  1  0
 45  4  1  0
M  END
$$$$
