
     RDKit          3D

 45 47  0  0  0  0  0  0  0  0999 V2000
  -11.2692  -44.2318   -7.6339 C   0  0  0  0  0  0  0  0  0  0  0  0
  -10.9689  -43.5759   -8.9407 C   0  0  0  0  0  0  0  0  0  0  0  0
   -9.7021  -42.7502   -8.8280 C   0  0  0  0  0  0  0  0  0  0  0  0
  -12.0987  -42.7391   -9.4362 C   0  0  0  0  0  0  0  0  0  0  0  0
  -12.3359  -41.4913   -8.9018 C   0  0  0  0  0  0  0  0  0  0  0  0
  -13.3794  -40.6765   -9.3389 C   0  0  0  0  0  0  0  0  0  0  0  0
  -13.6286  -39.3429   -8.7664 C   0  0  0  0  0  0  0  0  0  0  0  0
  -15.0038  -39.0288   -8.5736 N   0  0  0  0  0  0  0  0  0  0  0  0
  -15.6698  -39.5853   -7.4489 C   0  0  0  0  0  0  0  0  0  0  0  0
  -17.1009  -39.1617   -7.2726 C   0  0  1  0  0  0  0  0  0  0  0  0
  -17.4705  -38.4033   -8.3767 O   0  0  0  0  0  0  0  0  0  0  0  0
  -18.0614  -40.2997   -7.0262 C   0  0  2  0  0  0  0  0  0  0  0  0
  -19.0171  -39.9757   -5.9486 C   0  0  0  0  0  0  0  0  0  0  0  0
  -20.3212  -39.3566   -6.4290 C   0  0  2  0  0  0  0  0  0  0  0  0
  -20.1843  -37.8521   -6.4894 C   0  0  0  0  0  0  0  0  0  0  0  0
  -21.4451  -39.6623   -5.4336 C   0  0  0  0  0  0  0  0  0  0  0  0
  -22.7916  -39.5689   -6.0893 C   0  0  0  0  0  0  0  0  0  0  0  0
  -23.7625  -40.6115   -5.6427 C   0  0  0  0  0  0  0  0  0  0  0  0
  -23.1670  -41.9768   -5.4679 C   0  0  0  0  0  0  0  0  0  0  0  0
  -24.1342  -43.0908   -5.7421 C   0  0  0  0  0  0  0  0  0  0  0  0
  -24.6476  -43.1016   -7.1542 C   0  0  0  0  0  0  0  0  0  0  0  0
  -23.6404  -42.7351   -8.1830 C   0  0  0  0  0  0  0  0  0  0  0  0
  -22.6732  -43.7783   -8.4900 N   0  0  0  0  0  0  0  0  0  0  0  0
  -21.3189  -43.9377   -8.0263 C   0  0  0  0  0  0  0  0  0  0  0  0
  -20.2703  -43.0379   -7.9502 C   0  0  0  0  0  0  0  0  0  0  0  0
  -19.0754  -43.5057   -7.4471 C   0  0  0  0  0  0  0  0  0  0  0  0
  -18.9634  -44.8614   -7.0352 C   0  0  0  0  0  0  0  0  0  0  0  0
  -19.9836  -45.7703   -7.1003 C   0  0  0  0  0  0  0  0  0  0  0  0
  -21.1584  -45.2809   -7.6026 C   0  0  0  0  0  0  0  0  0  0  0  0
  -19.8325  -47.1171   -6.6792 N   0  0  0  0  0  0  0  0  0  0  0  0
  -20.8759  -48.0487   -7.0198 C   0  0  0  0  0  0  0  0  0  0  0  0
  -18.4696  -47.6618   -5.7935 S   0  0  0  0  0  6  0  0  0  0  0  0
  -18.5763  -47.1942   -4.0823 C   0  0  0  0  0  0  0  0  0  0  0  0
  -18.3618  -49.1401   -5.8716 O   0  0  0  0  0  0  0  0  0  0  0  0
  -17.1979  -47.0547   -6.3277 O   0  0  0  0  0  0  0  0  0  0  0  0
  -17.7741  -42.8302   -7.2434 C   0  0  0  0  0  0  0  0  0  0  0  0
  -16.6746  -43.5298   -7.5261 O   0  0  0  0  0  0  0  0  0  0  0  0
  -17.3798  -41.5678   -6.8010 N   0  0  0  0  0  0  0  0  0  0  0  0
  -23.3673  -45.0041   -9.5646 S   0  0  0  0  0  6  0  0  0  0  0  0
  -22.2750  -45.2611  -10.9414 C   0  0  0  0  0  0  0  0  0  0  0  0
  -23.4705  -46.3174   -8.8592 O   0  0  0  0  0  0  0  0  0  0  0  0
  -24.7154  -44.5245  -10.0056 O   0  0  0  0  0  0  0  0  0  0  0  0
  -14.1699  -41.1723  -10.3341 C   0  0  0  0  0  0  0  0  0  0  0  0
  -13.9703  -42.4313  -10.9082 C   0  0  0  0  0  0  0  0  0  0  0  0
  -12.9305  -43.1846  -10.4375 C   0  0  0  0  0  0  0  0  0  0  0  0
  1  2  1  0
  2  3  1  0
  2  4  1  0
  4  5  2  0
  5  6  1  0
  6  7  1  0
  7  8  1  0
  8  9  1  0
  9 10  1  0
 10 11  1  6
 10 12  1  0
 12 13  1  1
 13 14  1  0
 14 15  1  1
 14 16  1  0
 16 17  1  0
 17 18  1  0
 18 19  1  0
 19 20  1  0
 20 21  1  0
 21 22  1  0
 22 23  1  0
 23 24  1  0
 24 25  2  0
 25 26  1  0
 26 27  2  0
 27 28  1  0
 28 29  2  0
 28 30  1  0
 30 31  1  0
 30 32  1  0
 32 33  1  0
 32 34  2  0
 32 35  2  0
 26 36  1  0
 36 37  2  0
 36 38  1  0
 23 39  1  0
 39 40  1  0
 39 41  2  0
 39 42  2  0
  6 43  2  0
 43 44  1  0
 44 45  2  0
 29 24  1  0
 38 12  1  0
 45  4  1  0
M  END
$$$$
