
     RDKit          3D

 45 47  0  0  0  0  0  0  0  0999 V2000
  -16.8077  -35.9978  -13.3380 C   0  0  0  0  0  0  0  0  0  0  0  0
  -16.1971  -35.8079  -11.9892 C   0  0  0  0  0  0  0  0  0  0  0  0
  -15.6596  -34.3962  -11.8569 C   0  0  0  0  0  0  0  0  0  0  0  0
  -15.1290  -36.8059  -11.6968 C   0  0  0  0  0  0  0  0  0  0  0  0
  -15.2786  -37.7153  -10.6724 C   0  0  0  0  0  0  0  0  0  0  0  0
  -14.3055  -38.6663  -10.3685 C   0  0  0  0  0  0  0  0  0  0  0  0
  -14.4697  -39.6375   -9.2740 C   0  0  0  0  0  0  0  0  0  0  0  0
  -15.8077  -39.7874   -8.8109 N   0  0  0  0  0  0  0  0  0  0  0  0
  -16.4328  -38.6740   -8.1882 C   0  0  0  0  0  0  0  0  0  0  0  0
  -16.9294  -38.9125   -6.7899 C   0  0  1  0  0  0  0  0  0  0  0  0
  -17.6981  -37.8199   -6.4078 O   0  0  0  0  0  0  0  0  0  0  0  0
  -17.6725  -40.2135   -6.6064 C   0  0  2  0  0  0  0  0  0  0  0  0
  -18.3116  -40.2872   -5.2777 C   0  0  0  0  0  0  0  0  0  0  0  0
  -19.7494  -39.7911   -5.2423 C   0  0  2  0  0  0  0  0  0  0  0  0
  -19.7743  -38.3075   -4.9525 C   0  0  0  0  0  0  0  0  0  0  0  0
  -20.5144  -40.4798   -4.1073 C   0  0  0  0  0  0  0  0  0  0  0  0
  -21.9937  -40.4585   -4.3583 C   0  0  0  0  0  0  0  0  0  0  0  0
  -22.6991  -41.7129   -3.9609 C   0  0  0  0  0  0  0  0  0  0  0  0
  -21.9554  -42.9723   -4.2926 C   0  0  0  0  0  0  0  0  0  0  0  0
  -22.8537  -44.1374   -4.5877 C   0  0  0  0  0  0  0  0  0  0  0  0
  -23.7408  -43.9201   -5.7808 C   0  0  0  0  0  0  0  0  0  0  0  0
  -23.1024  -43.1839   -6.9022 C   0  0  0  0  0  0  0  0  0  0  0  0
  -22.1691  -43.9693   -7.6958 N   0  0  0  0  0  0  0  0  0  0  0  0
  -20.7303  -44.0111   -7.6431 C   0  0  0  0  0  0  0  0  0  0  0  0
  -19.7903  -42.9961   -7.6077 C   0  0  0  0  0  0  0  0  0  0  0  0
  -18.4642  -43.3686   -7.5560 C   0  0  0  0  0  0  0  0  0  0  0  0
  -18.1163  -44.7466   -7.5423 C   0  0  0  0  0  0  0  0  0  0  0  0
  -19.0253  -45.7683   -7.5768 C   0  0  0  0  0  0  0  0  0  0  0  0
  -20.3339  -45.3720   -7.6274 C   0  0  0  0  0  0  0  0  0  0  0  0
  -18.6384  -47.1336   -7.5622 N   0  0  0  0  0  0  0  0  0  0  0  0
  -17.3505  -47.4729   -8.1089 C   0  0  0  0  0  0  0  0  0  0  0  0
  -19.6381  -48.3713   -6.9242 S   0  0  0  0  0  6  0  0  0  0  0  0
  -20.3669  -49.3499   -8.2163 C   0  0  0  0  0  0  0  0  0  0  0  0
  -18.8490  -49.2679   -6.0430 O   0  0  0  0  0  0  0  0  0  0  0  0
  -20.7783  -47.7908   -6.1280 O   0  0  0  0  0  0  0  0  0  0  0  0
  -17.2262  -42.5579   -7.5216 C   0  0  0  0  0  0  0  0  0  0  0  0
  -16.1913  -42.9969   -8.2389 O   0  0  0  0  0  0  0  0  0  0  0  0
  -16.8413  -41.3767   -6.8879 N   0  0  0  0  0  0  0  0  0  0  0  0
  -23.0217  -45.0242   -8.8357 S   0  0  0  0  0  6  0  0  0  0  0  0
  -21.8634  -45.6613  -10.0219 C   0  0  0  0  0  0  0  0  0  0  0  0
  -23.5895  -46.2093   -8.1243 O   0  0  0  0  0  0  0  0  0  0  0  0
  -24.1036  -44.2219   -9.4897 O   0  0  0  0  0  0  0  0  0  0  0  0
  -13.1797  -38.6607  -11.1392 C   0  0  0  0  0  0  0  0  0  0  0  0
  -12.9811  -37.7589  -12.1889 C   0  0  0  0  0  0  0  0  0  0  0  0
  -13.9713  -36.8495  -12.4389 C   0  0  0  0  0  0  0  0  0  0  0  0
  1  2  1  0
  2  3  1  0
  2  4  1  0
  4  5  2  0
  5  6  1  0
  6  7  1  0
  7  8  1  0
  8  9  1  0
  9 10  1  0
 10 11  1  6
 10 12  1  0
 12 13  1  1
 13 14  1  0
 14 15  1  1
 14 16  1  0
 16 17  1  0
 17 18  1  0
 18 19  1  0
 19 20  1  0
 20 21  1  0
 21 22  1  0
 22 23  1  0
 23 24  1  0
 24 25  2  0
 25 26  1  0
 26 27  2  0
 27 28  1  0
 28 29  2  0
 28 30  1  0
 30 31  1  0
 30 32  1  0
 32 33  1  0
 32 34  2  0
 32 35  2  0
 26 36  1  0
 36 37  2  0
 36 38  1  0
 23 39  1  0
 39 40  1  0
 39 41  2  0
 39 42  2  0
  6 43  2  0
 43 44  1  0
 44 45  2  0
 29 24  1  0
 38 12  1  0
 45  4  1  0
M  END
$$$$
