
     RDKit          3D

 45 47  0  0  0  0  0  0  0  0999 V2000
  -12.0506  -34.9321  -11.5129 C   0  0  0  0  0  0  0  0  0  0  0  0
  -13.2761  -35.5262  -12.1241 C   0  0  0  0  0  0  0  0  0  0  0  0
  -14.5157  -34.9131  -11.5021 C   0  0  0  0  0  0  0  0  0  0  0  0
  -13.3117  -37.0122  -12.0105 C   0  0  0  0  0  0  0  0  0  0  0  0
  -13.3678  -37.6213  -10.7757 C   0  0  0  0  0  0  0  0  0  0  0  0
  -13.4056  -39.0069  -10.6263 C   0  0  0  0  0  0  0  0  0  0  0  0
  -13.4671  -39.6541   -9.3051 C   0  0  0  0  0  0  0  0  0  0  0  0
  -14.5351  -39.2078   -8.4761 N   0  0  0  0  0  0  0  0  0  0  0  0
  -15.8663  -39.3927   -8.9361 C   0  0  0  0  0  0  0  0  0  0  0  0
  -16.9442  -38.9824   -7.9725 C   0  0  1  0  0  0  0  0  0  0  0  0
  -17.5890  -37.8653   -8.4892 O   0  0  0  0  0  0  0  0  0  0  0  0
  -17.9182  -40.0812   -7.6228 C   0  0  2  0  0  0  0  0  0  0  0  0
  -18.7761  -39.6996   -6.4836 C   0  0  0  0  0  0  0  0  0  0  0  0
  -20.0934  -39.0485   -6.8781 C   0  0  2  0  0  0  0  0  0  0  0  0
  -19.9140  -37.5514   -6.9885 C   0  0  0  0  0  0  0  0  0  0  0  0
  -21.1454  -39.2923   -5.7912 C   0  0  0  0  0  0  0  0  0  0  0  0
  -22.5353  -39.1693   -6.3433 C   0  0  0  0  0  0  0  0  0  0  0  0
  -23.5010  -40.1676   -5.7957 C   0  0  0  0  0  0  0  0  0  0  0  0
  -22.9374  -41.5477   -5.6315 C   0  0  0  0  0  0  0  0  0  0  0  0
  -23.9578  -42.6347   -5.8007 C   0  0  0  0  0  0  0  0  0  0  0  0
  -24.5799  -42.6618   -7.1682 C   0  0  0  0  0  0  0  0  0  0  0  0
  -23.6448  -42.3541   -8.2809 C   0  0  0  0  0  0  0  0  0  0  0  0
  -22.7382  -43.4363   -8.6340 N   0  0  0  0  0  0  0  0  0  0  0  0
  -21.3576  -43.6302   -8.2723 C   0  0  0  0  0  0  0  0  0  0  0  0
  -20.2782  -42.7646   -8.3011 C   0  0  0  0  0  0  0  0  0  0  0  0
  -19.0631  -43.2603   -7.8794 C   0  0  0  0  0  0  0  0  0  0  0  0
  -18.9624  -44.6088   -7.4418 C   0  0  0  0  0  0  0  0  0  0  0  0
  -20.0130  -45.4842   -7.4040 C   0  0  0  0  0  0  0  0  0  0  0  0
  -21.2072  -44.9675   -7.8269 C   0  0  0  0  0  0  0  0  0  0  0  0
  -19.8723  -46.8249   -6.9605 N   0  0  0  0  0  0  0  0  0  0  0  0
  -21.0411  -47.6652   -6.9799 C   0  0  0  0  0  0  0  0  0  0  0  0
  -18.3800  -47.4658   -6.4121 S   0  0  0  0  0  6  0  0  0  0  0  0
  -17.5833  -48.4310   -7.6739 C   0  0  0  0  0  0  0  0  0  0  0  0
  -17.4646  -46.3685   -6.0107 O   0  0  0  0  0  0  0  0  0  0  0  0
  -18.5839  -48.3819   -5.2331 O   0  0  0  0  0  0  0  0  0  0  0  0
  -17.7291  -42.6244   -7.7946 C   0  0  0  0  0  0  0  0  0  0  0  0
  -16.6778  -43.3671   -8.1429 O   0  0  0  0  0  0  0  0  0  0  0  0
  -17.2617  -41.3658   -7.4174 N   0  0  0  0  0  0  0  0  0  0  0  0
  -23.5524  -44.6633   -9.6192 S   0  0  0  0  0  6  0  0  0  0  0  0
  -24.3757  -45.8193   -8.5514 C   0  0  0  0  0  0  0  0  0  0  0  0
  -24.6171  -44.0351  -10.4589 O   0  0  0  0  0  0  0  0  0  0  0  0
  -22.5204  -45.3321  -10.4733 O   0  0  0  0  0  0  0  0  0  0  0  0
  -13.3847  -39.7487  -11.7712 C   0  0  0  0  0  0  0  0  0  0  0  0
  -13.3281  -39.1781  -13.0462 C   0  0  0  0  0  0  0  0  0  0  0  0
  -13.2929  -37.8135  -13.1287 C   0  0  0  0  0  0  0  0  0  0  0  0
  1  2  1  0
  2  3  1  0
  2  4  1  0
  4  5  2  0
  5  6  1  0
  6  7  1  0
  7  8  1  0
  8  9  1  0
  9 10  1  0
 10 11  1  6
 10 12  1  0
 12 13  1  1
 13 14  1  0
 14 15  1  1
 14 16  1  0
 16 17  1  0
 17 18  1  0
 18 19  1  0
 19 20  1  0
 20 21  1  0
 21 22  1  0
 22 23  1  0
 23 24  1  0
 24 25  2  0
 25 26  1  0
 26 27  2  0
 27 28  1  0
 28 29  2  0
 28 30  1  0
 30 31  1  0
 30 32  1  0
 32 33  1  0
 32 34  2  0
 32 35  2  0
 26 36  1  0
 36 37  2  0
 36 38  1  0
 23 39  1  0
 39 40  1  0
 39 41  2  0
 39 42  2  0
  6 43  2  0
 43 44  1  0
 44 45  2  0
 29 24  1  0
 38 12  1  0
 45  4  1  0
M  END
$$$$
