
     RDKit          3D

 45 47  0  0  0  0  0  0  0  0999 V2000
  -15.9113  -35.9245  -12.8646 C   0  0  0  0  0  0  0  0  0  0  0  0
  -14.5550  -36.4873  -12.5965 C   0  0  0  0  0  0  0  0  0  0  0  0
  -13.6025  -36.0992  -13.7107 C   0  0  0  0  0  0  0  0  0  0  0  0
  -14.5732  -37.9666  -12.4128 C   0  0  0  0  0  0  0  0  0  0  0  0
  -14.3761  -38.5224  -11.1674 C   0  0  0  0  0  0  0  0  0  0  0  0
  -14.3886  -39.8999  -10.9527 C   0  0  0  0  0  0  0  0  0  0  0  0
  -14.1791  -40.4901   -9.6200 C   0  0  0  0  0  0  0  0  0  0  0  0
  -15.2421  -40.2665   -8.6996 N   0  0  0  0  0  0  0  0  0  0  0  0
  -15.8148  -38.9680   -8.6356 C   0  0  0  0  0  0  0  0  0  0  0  0
  -16.8754  -38.7822   -7.5872 C   0  0  1  0  0  0  0  0  0  0  0  0
  -17.6933  -37.7284   -7.9762 O   0  0  0  0  0  0  0  0  0  0  0  0
  -17.6718  -40.0270   -7.2795 C   0  0  2  0  0  0  0  0  0  0  0  0
  -18.4189  -39.8907   -6.0136 C   0  0  0  0  0  0  0  0  0  0  0  0
  -19.8384  -39.3673   -6.1737 C   0  0  2  0  0  0  0  0  0  0  0  0
  -19.8399  -37.8569   -6.1069 C   0  0  0  0  0  0  0  0  0  0  0  0
  -20.7146  -39.8653   -5.0196 C   0  0  0  0  0  0  0  0  0  0  0  0
  -22.1671  -39.8530   -5.3960 C   0  0  0  0  0  0  0  0  0  0  0  0
  -22.9419  -41.0208   -4.8812 C   0  0  0  0  0  0  0  0  0  0  0  0
  -22.2138  -42.3295   -4.9608 C   0  0  0  0  0  0  0  0  0  0  0  0
  -23.1214  -43.5080   -5.1579 C   0  0  0  0  0  0  0  0  0  0  0  0
  -23.9012  -43.4529   -6.4412 C   0  0  0  0  0  0  0  0  0  0  0  0
  -23.1506  -42.9035   -7.5996 C   0  0  0  0  0  0  0  0  0  0  0  0
  -22.1810  -43.8157   -8.1875 N   0  0  0  0  0  0  0  0  0  0  0  0
  -20.7534  -43.8768   -8.0069 C   0  0  0  0  0  0  0  0  0  0  0  0
  -19.7878  -42.8861   -8.0402 C   0  0  0  0  0  0  0  0  0  0  0  0
  -18.4827  -43.2723   -7.8220 C   0  0  0  0  0  0  0  0  0  0  0  0
  -18.1808  -44.6395   -7.5775 C   0  0  0  0  0  0  0  0  0  0  0  0
  -19.1158  -45.6373   -7.5397 C   0  0  0  0  0  0  0  0  0  0  0  0
  -20.4028  -45.2278   -7.7588 C   0  0  0  0  0  0  0  0  0  0  0  0
  -18.7746  -46.9925   -7.2928 N   0  0  0  0  0  0  0  0  0  0  0  0
  -19.0764  -47.9587   -8.3166 C   0  0  0  0  0  0  0  0  0  0  0  0
  -18.0264  -47.5077   -5.8391 S   0  0  0  0  0  6  0  0  0  0  0  0
  -16.3421  -48.0034   -6.1143 C   0  0  0  0  0  0  0  0  0  0  0  0
  -18.0369  -46.4119   -4.8380 O   0  0  0  0  0  0  0  0  0  0  0  0
  -18.7376  -48.7021   -5.2570 O   0  0  0  0  0  0  0  0  0  0  0  0
  -17.2267  -42.4894   -7.8011 C   0  0  0  0  0  0  0  0  0  0  0  0
  -16.1512  -43.0497   -8.3558 O   0  0  0  0  0  0  0  0  0  0  0  0
  -16.8575  -41.2350   -7.3163 N   0  0  0  0  0  0  0  0  0  0  0  0
  -22.9709  -45.0113   -9.2295 S   0  0  0  0  0  6  0  0  0  0  0  0
  -23.0265  -44.3918  -10.8931 C   0  0  0  0  0  0  0  0  0  0  0  0
  -22.1696  -46.2717   -9.2770 O   0  0  0  0  0  0  0  0  0  0  0  0
  -24.3420  -45.2674   -8.6849 O   0  0  0  0  0  0  0  0  0  0  0  0
  -14.6076  -40.6894  -12.0436 C   0  0  0  0  0  0  0  0  0  0  0  0
  -14.8126  -40.1737  -13.3268 C   0  0  0  0  0  0  0  0  0  0  0  0
  -14.7890  -38.8145  -13.4746 C   0  0  0  0  0  0  0  0  0  0  0  0
  1  2  1  0
  2  3  1  0
  2  4  1  0
  4  5  2  0
  5  6  1  0
  6  7  1  0
  7  8  1  0
  8  9  1  0
  9 10  1  0
 10 11  1  6
 10 12  1  0
 12 13  1  1
 13 14  1  0
 14 15  1  1
 14 16  1  0
 16 17  1  0
 17 18  1  0
 18 19  1  0
 19 20  1  0
 20 21  1  0
 21 22  1  0
 22 23  1  0
 23 24  1  0
 24 25  2  0
 25 26  1  0
 26 27  2  0
 27 28  1  0
 28 29  2  0
 28 30  1  0
 30 31  1  0
 30 32  1  0
 32 33  1  0
 32 34  2  0
 32 35  2  0
 26 36  1  0
 36 37  2  0
 36 38  1  0
 23 39  1  0
 39 40  1  0
 39 41  2  0
 39 42  2  0
  6 43  2  0
 43 44  1  0
 44 45  2  0
 29 24  1  0
 38 12  1  0
 45  4  1  0
M  END
$$$$
