
     RDKit          3D

 45 47  0  0  0  0  0  0  0  0999 V2000
  -11.9702  -34.2404  -11.8325 C   0  0  0  0  0  0  0  0  0  0  0  0
  -13.3011  -34.6230  -12.3897 C   0  0  0  0  0  0  0  0  0  0  0  0
  -14.4084  -33.9847  -11.5737 C   0  0  0  0  0  0  0  0  0  0  0  0
  -13.4891  -36.1000  -12.4648 C   0  0  0  0  0  0  0  0  0  0  0  0
  -14.0835  -36.7863  -11.4282 C   0  0  0  0  0  0  0  0  0  0  0  0
  -14.2804  -38.1661  -11.4605 C   0  0  0  0  0  0  0  0  0  0  0  0
  -14.9174  -38.8957  -10.3514 C   0  0  0  0  0  0  0  0  0  0  0  0
  -15.9940  -39.7423  -10.7403 N   0  0  0  0  0  0  0  0  0  0  0  0
  -17.3019  -39.4170  -10.2913 C   0  0  0  0  0  0  0  0  0  0  0  0
  -17.4237  -39.1175   -8.8236 C   0  0  1  0  0  0  0  0  0  0  0  0
  -18.0160  -37.8687   -8.6810 O   0  0  0  0  0  0  0  0  0  0  0  0
  -18.1490  -40.1769   -8.0300 C   0  0  2  0  0  0  0  0  0  0  0  0
  -18.6038  -39.6571   -6.7252 C   0  0  0  0  0  0  0  0  0  0  0  0
  -20.0184  -39.0971   -6.7292 C   0  0  2  0  0  0  0  0  0  0  0  0
  -19.9882  -37.6270   -7.0809 C   0  0  0  0  0  0  0  0  0  0  0  0
  -20.6306  -39.2079   -5.3290 C   0  0  0  0  0  0  0  0  0  0  0  0
  -22.1299  -39.1944   -5.3892 C   0  0  0  0  0  0  0  0  0  0  0  0
  -22.7886  -40.1262   -4.4264 C   0  0  0  0  0  0  0  0  0  0  0  0
  -22.1098  -41.4566   -4.2906 C   0  0  0  0  0  0  0  0  0  0  0  0
  -23.0521  -42.5786   -3.9667 C   0  0  0  0  0  0  0  0  0  0  0  0
  -24.0896  -42.8121   -5.0282 C   0  0  0  0  0  0  0  0  0  0  0  0
  -23.6004  -42.6443   -6.4209 C   0  0  0  0  0  0  0  0  0  0  0  0
  -22.7910  -43.7455   -6.9211 N   0  0  0  0  0  0  0  0  0  0  0  0
  -21.3588  -43.8561   -7.0264 C   0  0  0  0  0  0  0  0  0  0  0  0
  -20.4119  -42.9800   -7.5271 C   0  0  0  0  0  0  0  0  0  0  0  0
  -19.0949  -43.3846   -7.4827 C   0  0  0  0  0  0  0  0  0  0  0  0
  -18.7631  -44.6553   -6.9394 C   0  0  0  0  0  0  0  0  0  0  0  0
  -19.6793  -45.5392   -6.4387 C   0  0  0  0  0  0  0  0  0  0  0  0
  -20.9784  -45.1136   -6.4940 C   0  0  0  0  0  0  0  0  0  0  0  0
  -19.3084  -46.8005   -5.9043 N   0  0  0  0  0  0  0  0  0  0  0  0
  -20.3599  -47.6771   -5.4588 C   0  0  0  0  0  0  0  0  0  0  0  0
  -17.6755  -47.3061   -5.7750 S   0  0  0  0  0  6  0  0  0  0  0  0
  -17.5295  -48.7965   -4.8181 C   0  0  0  0  0  0  0  0  0  0  0  0
  -17.1049  -47.5542   -7.1226 O   0  0  0  0  0  0  0  0  0  0  0  0
  -16.8386  -46.2636   -5.0794 O   0  0  0  0  0  0  0  0  0  0  0  0
  -17.8551  -42.7142   -7.9348 C   0  0  0  0  0  0  0  0  0  0  0  0
  -16.9312  -43.4756   -8.5220 O   0  0  0  0  0  0  0  0  0  0  0  0
  -17.3757  -41.4051   -7.8993 N   0  0  0  0  0  0  0  0  0  0  0  0
  -23.8007  -45.1166   -7.4103 S   0  0  0  0  0  6  0  0  0  0  0  0
  -23.4960  -45.4868   -9.1205 C   0  0  0  0  0  0  0  0  0  0  0  0
  -23.4243  -46.3416   -6.6416 O   0  0  0  0  0  0  0  0  0  0  0  0
  -25.2317  -44.7490   -7.1668 O   0  0  0  0  0  0  0  0  0  0  0  0
  -13.8540  -38.8212  -12.5787 C   0  0  0  0  0  0  0  0  0  0  0  0
  -13.2457  -38.1702  -13.6561 C   0  0  0  0  0  0  0  0  0  0  0  0
  -13.0797  -36.8158  -13.5661 C   0  0  0  0  0  0  0  0  0  0  0  0
  1  2  1  0
  2  3  1  0
  2  4  1  0
  4  5  2  0
  5  6  1  0
  6  7  1  0
  7  8  1  0
  8  9  1  0
  9 10  1  0
 10 11  1  6
 10 12  1  0
 12 13  1  1
 13 14  1  0
 14 15  1  1
 14 16  1  0
 16 17  1  0
 17 18  1  0
 18 19  1  0
 19 20  1  0
 20 21  1  0
 21 22  1  0
 22 23  1  0
 23 24  1  0
 24 25  2  0
 25 26  1  0
 26 27  2  0
 27 28  1  0
 28 29  2  0
 28 30  1  0
 30 31  1  0
 30 32  1  0
 32 33  1  0
 32 34  2  0
 32 35  2  0
 26 36  1  0
 36 37  2  0
 36 38  1  0
 23 39  1  0
 39 40  1  0
 39 41  2  0
 39 42  2  0
  6 43  2  0
 43 44  1  0
 44 45  2  0
 29 24  1  0
 38 12  1  0
 45  4  1  0
M  END
$$$$
