
     RDKit          3D

 45 47  0  0  0  0  0  0  0  0999 V2000
  -13.3515  -39.3172  -15.2564 C   0  0  0  0  0  0  0  0  0  0  0  0
  -12.3798  -38.7585  -14.2706 C   0  0  0  0  0  0  0  0  0  0  0  0
  -11.4868  -39.8627  -13.7390 C   0  0  0  0  0  0  0  0  0  0  0  0
  -13.0488  -38.0388  -13.1495 C   0  0  0  0  0  0  0  0  0  0  0  0
  -12.8765  -38.4530  -11.8466 C   0  0  0  0  0  0  0  0  0  0  0  0
  -13.4816  -37.8061  -10.7699 C   0  0  0  0  0  0  0  0  0  0  0  0
  -13.2937  -38.2507   -9.3788 C   0  0  0  0  0  0  0  0  0  0  0  0
  -14.4021  -38.9534   -8.8269 N   0  0  0  0  0  0  0  0  0  0  0  0
  -15.4934  -39.2662   -9.6809 C   0  0  0  0  0  0  0  0  0  0  0  0
  -16.8323  -38.7538   -9.2299 C   0  0  1  0  0  0  0  0  0  0  0  0
  -17.5098  -38.2670  -10.3411 O   0  0  0  0  0  0  0  0  0  0  0  0
  -17.6582  -39.7592   -8.4647 C   0  0  2  0  0  0  0  0  0  0  0  0
  -18.1883  -39.1818   -7.2137 C   0  0  0  0  0  0  0  0  0  0  0  0
  -19.5744  -38.5678   -7.3416 C   0  0  2  0  0  0  0  0  0  0  0  0
  -19.4575  -37.1116   -7.7310 C   0  0  0  0  0  0  0  0  0  0  0  0
  -20.2943  -38.6112   -5.9897 C   0  0  0  0  0  0  0  0  0  0  0  0
  -21.7830  -38.5415   -6.1648 C   0  0  0  0  0  0  0  0  0  0  0  0
  -22.5500  -39.4167   -5.2294 C   0  0  0  0  0  0  0  0  0  0  0  0
  -21.9385  -40.7676   -5.0049 C   0  0  0  0  0  0  0  0  0  0  0  0
  -22.9477  -41.8416   -4.7227 C   0  0  0  0  0  0  0  0  0  0  0  0
  -23.9111  -42.0675   -5.8535 C   0  0  0  0  0  0  0  0  0  0  0  0
  -23.3119  -41.9621   -7.2089 C   0  0  0  0  0  0  0  0  0  0  0  0
  -22.5130  -43.1089   -7.6146 N   0  0  0  0  0  0  0  0  0  0  0  0
  -21.0827  -43.2782   -7.6069 C   0  0  0  0  0  0  0  0  0  0  0  0
  -20.0656  -42.4554   -8.0581 C   0  0  0  0  0  0  0  0  0  0  0  0
  -18.7735  -42.9092   -7.9018 C   0  0  0  0  0  0  0  0  0  0  0  0
  -18.5359  -44.1743   -7.2992 C   0  0  0  0  0  0  0  0  0  0  0  0
  -19.5226  -45.0061   -6.8455 C   0  0  0  0  0  0  0  0  0  0  0  0
  -20.7954  -44.5324   -7.0120 C   0  0  0  0  0  0  0  0  0  0  0  0
  -19.2451  -46.2636   -6.2492 N   0  0  0  0  0  0  0  0  0  0  0  0
  -20.1298  -47.3592   -6.5486 C   0  0  0  0  0  0  0  0  0  0  0  0
  -17.9119  -46.5163   -5.2018 S   0  0  0  0  0  6  0  0  0  0  0  0
  -16.5200  -45.5138   -5.6665 C   0  0  0  0  0  0  0  0  0  0  0  0
  -18.2849  -46.1846   -3.8040 O   0  0  0  0  0  0  0  0  0  0  0  0
  -17.4470  -47.9490   -5.2518 O   0  0  0  0  0  0  0  0  0  0  0  0
  -17.4766  -42.3017   -8.2763 C   0  0  0  0  0  0  0  0  0  0  0  0
  -16.5431  -43.1162   -8.7695 O   0  0  0  0  0  0  0  0  0  0  0  0
  -16.9480  -41.0117   -8.2409 N   0  0  0  0  0  0  0  0  0  0  0  0
  -23.5384  -44.4544   -8.1410 S   0  0  0  0  0  6  0  0  0  0  0  0
  -23.0132  -45.9433   -7.3276 C   0  0  0  0  0  0  0  0  0  0  0  0
  -24.9548  -44.2246   -7.7236 O   0  0  0  0  0  0  0  0  0  0  0  0
  -23.4293  -44.5656   -9.6302 O   0  0  0  0  0  0  0  0  0  0  0  0
  -14.2645  -36.7279  -11.0628 C   0  0  0  0  0  0  0  0  0  0  0  0
  -14.4704  -36.2693  -12.3673 C   0  0  0  0  0  0  0  0  0  0  0  0
  -13.8504  -36.9450  -13.3817 C   0  0  0  0  0  0  0  0  0  0  0  0
  1  2  1  0
  2  3  1  0
  2  4  1  0
  4  5  2  0
  5  6  1  0
  6  7  1  0
  7  8  1  0
  8  9  1  0
  9 10  1  0
 10 11  1  6
 10 12  1  0
 12 13  1  1
 13 14  1  0
 14 15  1  1
 14 16  1  0
 16 17  1  0
 17 18  1  0
 18 19  1  0
 19 20  1  0
 20 21  1  0
 21 22  1  0
 22 23  1  0
 23 24  1  0
 24 25  2  0
 25 26  1  0
 26 27  2  0
 27 28  1  0
 28 29  2  0
 28 30  1  0
 30 31  1  0
 30 32  1  0
 32 33  1  0
 32 34  2  0
 32 35  2  0
 26 36  1  0
 36 37  2  0
 36 38  1  0
 23 39  1  0
 39 40  1  0
 39 41  2  0
 39 42  2  0
  6 43  2  0
 43 44  1  0
 44 45  2  0
 29 24  1  0
 38 12  1  0
 45  4  1  0
M  END
$$$$
