
     RDKit          3D

 45 47  0  0  0  0  0  0  0  0999 V2000
  -17.7440  -38.9800  -13.7932 C   0  0  0  0  0  0  0  0  0  0  0  0
  -17.1217  -37.8839  -12.9936 C   0  0  0  0  0  0  0  0  0  0  0  0
  -16.7726  -36.7167  -13.8963 C   0  0  0  0  0  0  0  0  0  0  0  0
  -15.9218  -38.3373  -12.2339 C   0  0  0  0  0  0  0  0  0  0  0  0
  -15.6809  -37.8737  -10.9589 C   0  0  0  0  0  0  0  0  0  0  0  0
  -14.5728  -38.2751  -10.2141 C   0  0  0  0  0  0  0  0  0  0  0  0
  -14.3196  -37.7786   -8.8511 C   0  0  0  0  0  0  0  0  0  0  0  0
  -13.9950  -38.7900   -7.9031 N   0  0  0  0  0  0  0  0  0  0  0  0
  -14.9700  -39.7831   -7.6184 C   0  0  0  0  0  0  0  0  0  0  0  0
  -16.3880  -39.2911   -7.5420 C   0  0  1  0  0  0  0  0  0  0  0  0
  -16.6876  -38.6378   -8.7312 O   0  0  0  0  0  0  0  0  0  0  0  0
  -17.4020  -40.3615   -7.2187 C   0  0  2  0  0  0  0  0  0  0  0  0
  -18.2072  -40.0022   -6.0347 C   0  0  0  0  0  0  0  0  0  0  0  0
  -19.5034  -39.2719   -6.3530 C   0  0  2  0  0  0  0  0  0  0  0  0
  -19.2570  -37.7807   -6.3917 C   0  0  0  0  0  0  0  0  0  0  0  0
  -20.5334  -39.5249   -5.2472 C   0  0  0  0  0  0  0  0  0  0  0  0
  -21.9315  -39.3097   -5.7478 C   0  0  0  0  0  0  0  0  0  0  0  0
  -22.9267  -40.2907   -5.2220 C   0  0  0  0  0  0  0  0  0  0  0  0
  -22.4240  -41.7017   -5.1472 C   0  0  0  0  0  0  0  0  0  0  0  0
  -23.4991  -42.7307   -5.3397 C   0  0  0  0  0  0  0  0  0  0  0  0
  -24.1616  -42.6570   -6.6863 C   0  0  0  0  0  0  0  0  0  0  0  0
  -23.2462  -42.3336   -7.8109 C   0  0  0  0  0  0  0  0  0  0  0  0
  -22.4022  -43.4357   -8.2479 N   0  0  0  0  0  0  0  0  0  0  0  0
  -21.0222  -43.7110   -7.9407 C   0  0  0  0  0  0  0  0  0  0  0  0
  -19.9046  -42.8951   -7.9591 C   0  0  0  0  0  0  0  0  0  0  0  0
  -18.7024  -43.4672   -7.6025 C   0  0  0  0  0  0  0  0  0  0  0  0
  -18.6525  -44.8402   -7.2384 C   0  0  0  0  0  0  0  0  0  0  0  0
  -19.7415  -45.6676   -7.2124 C   0  0  0  0  0  0  0  0  0  0  0  0
  -20.9220  -45.0755   -7.5700 C   0  0  0  0  0  0  0  0  0  0  0  0
  -19.6511  -47.0350   -6.8434 N   0  0  0  0  0  0  0  0  0  0  0  0
  -20.7420  -47.9021   -7.2050 C   0  0  0  0  0  0  0  0  0  0  0  0
  -18.3068  -47.6771   -5.9955 S   0  0  0  0  0  6  0  0  0  0  0  0
  -18.0916  -46.8837   -4.4200 C   0  0  0  0  0  0  0  0  0  0  0  0
  -18.4884  -49.1327   -5.7685 O   0  0  0  0  0  0  0  0  0  0  0  0
  -17.0283  -47.4628   -6.7642 O   0  0  0  0  0  0  0  0  0  0  0  0
  -17.3380  -42.8980   -7.5274 C   0  0  0  0  0  0  0  0  0  0  0  0
  -16.3335  -43.6683   -7.9468 O   0  0  0  0  0  0  0  0  0  0  0  0
  -16.8010  -41.6837   -7.1009 N   0  0  0  0  0  0  0  0  0  0  0  0
  -23.3019  -44.5704   -9.2687 S   0  0  0  0  0  6  0  0  0  0  0  0
  -22.1901  -45.3147  -10.4368 C   0  0  0  0  0  0  0  0  0  0  0  0
  -23.8550  -45.6873   -8.4443 O   0  0  0  0  0  0  0  0  0  0  0  0
  -24.3988  -43.8121   -9.9498 O   0  0  0  0  0  0  0  0  0  0  0  0
  -13.7218  -39.1606  -10.8081 C   0  0  0  0  0  0  0  0  0  0  0  0
  -13.9225  -39.6596  -12.0986 C   0  0  0  0  0  0  0  0  0  0  0  0
  -15.0273  -39.2289  -12.7797 C   0  0  0  0  0  0  0  0  0  0  0  0
  1  2  1  0
  2  3  1  0
  2  4  1  0
  4  5  2  0
  5  6  1  0
  6  7  1  0
  7  8  1  0
  8  9  1  0
  9 10  1  0
 10 11  1  6
 10 12  1  0
 12 13  1  1
 13 14  1  0
 14 15  1  1
 14 16  1  0
 16 17  1  0
 17 18  1  0
 18 19  1  0
 19 20  1  0
 20 21  1  0
 21 22  1  0
 22 23  1  0
 23 24  1  0
 24 25  2  0
 25 26  1  0
 26 27  2  0
 27 28  1  0
 28 29  2  0
 28 30  1  0
 30 31  1  0
 30 32  1  0
 32 33  1  0
 32 34  2  0
 32 35  2  0
 26 36  1  0
 36 37  2  0
 36 38  1  0
 23 39  1  0
 39 40  1  0
 39 41  2  0
 39 42  2  0
  6 43  2  0
 43 44  1  0
 44 45  2  0
 29 24  1  0
 38 12  1  0
 45  4  1  0
M  END
$$$$
