
     RDKit          3D

 45 47  0  0  0  0  0  0  0  0999 V2000
  -20.8076  -39.7531   -4.6668 C   0  0  0  0  0  0  0  0  0  0  0  0
  -19.7173  -40.6038   -5.2287 C   0  0  0  0  0  0  0  0  0  0  0  0
  -19.5138  -41.8285   -4.3582 C   0  0  0  0  0  0  0  0  0  0  0  0
  -18.4364  -39.8595   -5.3954 C   0  0  0  0  0  0  0  0  0  0  0  0
  -17.6146  -40.1080   -6.4733 C   0  0  0  0  0  0  0  0  0  0  0  0
  -16.4108  -39.4321   -6.6674 C   0  0  0  0  0  0  0  0  0  0  0  0
  -15.5360  -39.6993   -7.8213 C   0  0  0  0  0  0  0  0  0  0  0  0
  -16.1103  -39.3841   -9.0854 N   0  0  0  0  0  0  0  0  0  0  0  0
  -16.7097  -40.4331   -9.8325 C   0  0  0  0  0  0  0  0  0  0  0  0
  -18.1948  -40.3158  -10.0313 C   0  0  1  0  0  0  0  0  0  0  0  0
  -18.4502  -40.2742  -11.3965 O   0  0  0  0  0  0  0  0  0  0  0  0
  -19.0020  -41.3887   -9.3416 C   0  0  2  0  0  0  0  0  0  0  0  0
  -19.9656  -40.8084   -8.3855 C   0  0  0  0  0  0  0  0  0  0  0  0
  -21.3466  -40.5432   -8.9663 C   0  0  2  0  0  0  0  0  0  0  0  0
  -21.3974  -39.1523   -9.5567 C   0  0  0  0  0  0  0  0  0  0  0  0
  -22.4015  -40.5950   -7.8563 C   0  0  0  0  0  0  0  0  0  0  0  0
  -23.7637  -40.8849   -8.4148 C   0  0  0  0  0  0  0  0  0  0  0  0
  -24.5885  -41.7993   -7.5705 C   0  0  0  0  0  0  0  0  0  0  0  0
  -23.8256  -42.9419   -6.9691 C   0  0  0  0  0  0  0  0  0  0  0  0
  -24.6542  -44.1776   -6.7740 C   0  0  0  0  0  0  0  0  0  0  0  0
  -25.1943  -44.7429   -8.0572 C   0  0  0  0  0  0  0  0  0  0  0  0
  -24.2635  -44.6590   -9.2120 C   0  0  0  0  0  0  0  0  0  0  0  0
  -23.1824  -45.6332   -9.1974 N   0  0  0  0  0  0  0  0  0  0  0  0
  -21.8086  -45.4718   -8.7960 C   0  0  0  0  0  0  0  0  0  0  0  0
  -20.8774  -44.4965   -9.1067 C   0  0  0  0  0  0  0  0  0  0  0  0
  -19.6228  -44.6247   -8.5504 C   0  0  0  0  0  0  0  0  0  0  0  0
  -19.3354  -45.7262   -7.6994 C   0  0  0  0  0  0  0  0  0  0  0  0
  -20.2372  -46.7031   -7.3769 C   0  0  0  0  0  0  0  0  0  0  0  0
  -21.4744  -46.5523   -7.9414 C   0  0  0  0  0  0  0  0  0  0  0  0
  -19.9119  -47.7889   -6.5230 N   0  0  0  0  0  0  0  0  0  0  0  0
  -20.5165  -49.0658   -6.7995 C   0  0  0  0  0  0  0  0  0  0  0  0
  -18.8392  -47.6319   -5.1951 S   0  0  0  0  0  6  0  0  0  0  0  0
  -19.6041  -46.7764   -3.8382 C   0  0  0  0  0  0  0  0  0  0  0  0
  -18.4048  -48.9703   -4.7228 O   0  0  0  0  0  0  0  0  0  0  0  0
  -17.6191  -46.8332   -5.5753 O   0  0  0  0  0  0  0  0  0  0  0  0
  -18.4103  -43.7856   -8.6799 C   0  0  0  0  0  0  0  0  0  0  0  0
  -17.2398  -44.4178   -8.7712 O   0  0  0  0  0  0  0  0  0  0  0  0
  -18.1645  -42.4138   -8.7325 N   0  0  0  0  0  0  0  0  0  0  0  0
  -23.7444  -47.2270   -9.7293 S   0  0  0  0  0  6  0  0  0  0  0  0
  -22.7096  -48.4809   -9.0143 C   0  0  0  0  0  0  0  0  0  0  0  0
  -25.1275  -47.4864   -9.2266 O   0  0  0  0  0  0  0  0  0  0  0  0
  -23.7029  -47.2577  -11.2258 O   0  0  0  0  0  0  0  0  0  0  0  0
  -16.0730  -38.4985   -5.7316 C   0  0  0  0  0  0  0  0  0  0  0  0
  -16.8724  -38.2106   -4.6214 C   0  0  0  0  0  0  0  0  0  0  0  0
  -18.0417  -38.9065   -4.4850 C   0  0  0  0  0  0  0  0  0  0  0  0
  1  2  1  0
  2  3  1  0
  2  4  1  0
  4  5  2  0
  5  6  1  0
  6  7  1  0
  7  8  1  0
  8  9  1  0
  9 10  1  0
 10 11  1  6
 10 12  1  0
 12 13  1  1
 13 14  1  0
 14 15  1  1
 14 16  1  0
 16 17  1  0
 17 18  1  0
 18 19  1  0
 19 20  1  0
 20 21  1  0
 21 22  1  0
 22 23  1  0
 23 24  1  0
 24 25  2  0
 25 26  1  0
 26 27  2  0
 27 28  1  0
 28 29  2  0
 28 30  1  0
 30 31  1  0
 30 32  1  0
 32 33  1  0
 32 34  2  0
 32 35  2  0
 26 36  1  0
 36 37  2  0
 36 38  1  0
 23 39  1  0
 39 40  1  0
 39 41  2  0
 39 42  2  0
  6 43  2  0
 43 44  1  0
 44 45  2  0
 29 24  1  0
 38 12  1  0
 45  4  1  0
M  END
$$$$
