
     RDKit          3D

 45 47  0  0  0  0  0  0  0  0999 V2000
  -24.3175  -39.6107   -5.1792 C   0  0  0  0  0  0  0  0  0  0  0  0
  -23.5120  -39.9967   -6.3751 C   0  0  0  0  0  0  0  0  0  0  0  0
  -23.7955  -41.4388   -6.7485 C   0  0  0  0  0  0  0  0  0  0  0  0
  -22.0500  -39.7837   -6.1758 C   0  0  0  0  0  0  0  0  0  0  0  0
  -21.4285  -38.6615   -6.6789 C   0  0  0  0  0  0  0  0  0  0  0  0
  -20.0650  -38.4234   -6.5119 C   0  0  0  0  0  0  0  0  0  0  0  0
  -19.4048  -37.2221   -7.0497 C   0  0  0  0  0  0  0  0  0  0  0  0
  -17.9884  -37.3215   -7.1544 N   0  0  0  0  0  0  0  0  0  0  0  0
  -17.3331  -38.3655   -6.4482 C   0  0  0  0  0  0  0  0  0  0  0  0
  -16.4023  -39.2134   -7.2688 C   0  0  1  0  0  0  0  0  0  0  0  0
  -15.2353  -39.4100   -6.5406 O   0  0  0  0  0  0  0  0  0  0  0  0
  -16.9986  -40.5187   -7.7369 C   0  0  2  0  0  0  0  0  0  0  0  0
  -16.9141  -40.6550   -9.2045 C   0  0  0  0  0  0  0  0  0  0  0  0
  -15.6688  -41.3757   -9.6990 C   0  0  2  0  0  0  0  0  0  0  0  0
  -14.5545  -40.3795   -9.9261 C   0  0  0  0  0  0  0  0  0  0  0  0
  -15.9506  -42.0445  -11.0484 C   0  0  0  0  0  0  0  0  0  0  0  0
  -14.9967  -43.1742  -11.3044 C   0  0  0  0  0  0  0  0  0  0  0  0
  -15.6187  -44.3627  -11.9598 C   0  0  0  0  0  0  0  0  0  0  0  0
  -16.9843  -44.7085  -11.4454 C   0  0  0  0  0  0  0  0  0  0  0  0
  -17.2940  -46.1754  -11.5095 C   0  0  0  0  0  0  0  0  0  0  0  0
  -16.3721  -47.0171  -10.6733 C   0  0  0  0  0  0  0  0  0  0  0  0
  -15.9796  -46.4064   -9.3771 C   0  0  0  0  0  0  0  0  0  0  0  0
  -17.0068  -46.4466   -8.3469 N   0  0  0  0  0  0  0  0  0  0  0  0
  -17.9159  -45.4148   -7.9185 C   0  0  0  0  0  0  0  0  0  0  0  0
  -17.7005  -44.0851   -7.6014 C   0  0  0  0  0  0  0  0  0  0  0  0
  -18.7984  -43.3433   -7.2215 C   0  0  0  0  0  0  0  0  0  0  0  0
  -20.0809  -43.9537   -7.1688 C   0  0  0  0  0  0  0  0  0  0  0  0
  -20.3204  -45.2648   -7.4767 C   0  0  0  0  0  0  0  0  0  0  0  0
  -19.2147  -45.9787   -7.8509 C   0  0  0  0  0  0  0  0  0  0  0  0
  -21.6167  -45.8386   -7.4114 N   0  0  0  0  0  0  0  0  0  0  0  0
  -22.3086  -46.0785   -8.6509 C   0  0  0  0  0  0  0  0  0  0  0  0
  -22.3727  -46.2491   -5.9287 S   0  0  0  0  0  6  0  0  0  0  0  0
  -23.9854  -45.5145   -5.7951 C   0  0  0  0  0  0  0  0  0  0  0  0
  -22.5156  -47.7220   -5.8139 O   0  0  0  0  0  0  0  0  0  0  0  0
  -21.5720  -45.7474   -4.7547 O   0  0  0  0  0  0  0  0  0  0  0  0
  -18.9210  -41.9263   -6.8116 C   0  0  0  0  0  0  0  0  0  0  0  0
  -19.7542  -41.6535   -5.8069 O   0  0  0  0  0  0  0  0  0  0  0  0
  -18.3515  -40.7265   -7.2371 N   0  0  0  0  0  0  0  0  0  0  0  0
  -17.1036  -48.0483   -7.5959 S   0  0  0  0  0  6  0  0  0  0  0  0
  -15.8123  -48.2066   -6.3868 C   0  0  0  0  0  0  0  0  0  0  0  0
  -18.3930  -48.1999   -6.8559 O   0  0  0  0  0  0  0  0  0  0  0  0
  -16.9820  -49.0760   -8.6780 O   0  0  0  0  0  0  0  0  0  0  0  0
  -19.3583  -39.3620   -5.8184 C   0  0  0  0  0  0  0  0  0  0  0  0
  -19.9428  -40.5163   -5.2888 C   0  0  0  0  0  0  0  0  0  0  0  0
  -21.2843  -40.6945   -5.4853 C   0  0  0  0  0  0  0  0  0  0  0  0
  1  2  1  0
  2  3  1  0
  2  4  1  0
  4  5  2  0
  5  6  1  0
  6  7  1  0
  7  8  1  0
  8  9  1  0
  9 10  1  0
 10 11  1  1
 10 12  1  0
 12 13  1  6
 13 14  1  0
 14 15  1  6
 14 16  1  0
 16 17  1  0
 17 18  1  0
 18 19  1  0
 19 20  1  0
 20 21  1  0
 21 22  1  0
 22 23  1  0
 23 24  1  0
 24 25  2  0
 25 26  1  0
 26 27  2  0
 27 28  1  0
 28 29  2  0
 28 30  1  0
 30 31  1  0
 30 32  1  0
 32 33  1  0
 32 34  2  0
 32 35  2  0
 26 36  1  0
 36 37  2  0
 36 38  1  0
 23 39  1  0
 39 40  1  0
 39 41  2  0
 39 42  2  0
  6 43  2  0
 43 44  1  0
 44 45  2  0
 29 24  1  0
 38 12  1  0
 45  4  1  0
M  END
$$$$
