
     RDKit          3D

 45 47  0  0  0  0  0  0  0  0999 V2000
  -22.3401  -37.8335   -3.7137 C   0  0  0  0  0  0  0  0  0  0  0  0
  -23.0038  -38.8912   -4.5316 C   0  0  0  0  0  0  0  0  0  0  0  0
  -23.0356  -40.1980   -3.7631 C   0  0  0  0  0  0  0  0  0  0  0  0
  -22.3564  -39.0797   -5.8612 C   0  0  0  0  0  0  0  0  0  0  0  0
  -21.1947  -39.8113   -5.9796 C   0  0  0  0  0  0  0  0  0  0  0  0
  -20.5598  -40.0135   -7.2042 C   0  0  0  0  0  0  0  0  0  0  0  0
  -19.3193  -40.7973   -7.3269 C   0  0  0  0  0  0  0  0  0  0  0  0
  -18.3479  -40.5302   -6.3208 N   0  0  0  0  0  0  0  0  0  0  0  0
  -17.8950  -39.1933   -6.1610 C   0  0  0  0  0  0  0  0  0  0  0  0
  -16.6703  -38.8287   -6.9522 C   0  0  1  0  0  0  0  0  0  0  0  0
  -15.5697  -38.8923   -6.1063 O   0  0  0  0  0  0  0  0  0  0  0  0
  -16.4673  -39.6525   -8.2005 C   0  0  2  0  0  0  0  0  0  0  0  0
  -16.7695  -38.8726   -9.4170 C   0  0  0  0  0  0  0  0  0  0  0  0
  -15.5669  -38.1701  -10.0292 C   0  0  2  0  0  0  0  0  0  0  0  0
  -15.4130  -36.7931   -9.4242 C   0  0  0  0  0  0  0  0  0  0  0  0
  -15.7831  -37.9744  -11.5334 C   0  0  0  0  0  0  0  0  0  0  0  0
  -14.4767  -37.8074  -12.2526 C   0  0  0  0  0  0  0  0  0  0  0  0
  -14.4200  -38.4850  -13.5819 C   0  0  0  0  0  0  0  0  0  0  0  0
  -15.0635  -39.8392  -13.6137 C   0  0  0  0  0  0  0  0  0  0  0  0
  -14.4286  -40.7803  -14.5950 C   0  0  0  0  0  0  0  0  0  0  0  0
  -12.9868  -41.0754  -14.2920 C   0  0  0  0  0  0  0  0  0  0  0  0
  -12.6702  -41.2005  -12.8459 C   0  0  0  0  0  0  0  0  0  0  0  0
  -13.0908  -42.4523  -12.2344 N   0  0  0  0  0  0  0  0  0  0  0  0
  -14.2526  -42.7351  -11.4314 C   0  0  0  0  0  0  0  0  0  0  0  0
  -14.7975  -42.0654  -10.3500 C   0  0  0  0  0  0  0  0  0  0  0  0
  -15.9390  -42.5981   -9.7903 C   0  0  0  0  0  0  0  0  0  0  0  0
  -16.5023  -43.7869  -10.3284 C   0  0  0  0  0  0  0  0  0  0  0  0
  -15.9836  -44.4677  -11.3955 C   0  0  0  0  0  0  0  0  0  0  0  0
  -14.8515  -43.9182  -11.9327 C   0  0  0  0  0  0  0  0  0  0  0  0
  -16.5754  -45.6531  -11.9040 N   0  0  0  0  0  0  0  0  0  0  0  0
  -16.0483  -46.1952  -13.1291 C   0  0  0  0  0  0  0  0  0  0  0  0
  -17.8759  -46.4476  -11.1192 S   0  0  0  0  0  6  0  0  0  0  0  0
  -19.4427  -45.7562  -11.5939 C   0  0  0  0  0  0  0  0  0  0  0  0
  -17.8769  -47.8926  -11.4586 O   0  0  0  0  0  0  0  0  0  0  0  0
  -17.7763  -46.3019   -9.6225 O   0  0  0  0  0  0  0  0  0  0  0  0
  -16.7577  -42.1536   -8.6400 C   0  0  0  0  0  0  0  0  0  0  0  0
  -17.2312  -43.0999   -7.8285 O   0  0  0  0  0  0  0  0  0  0  0  0
  -17.1889  -40.9178   -8.1589 N   0  0  0  0  0  0  0  0  0  0  0  0
  -11.9696  -43.7678  -12.6232 S   0  0  0  0  0  6  0  0  0  0  0  0
  -11.4725  -44.5759  -11.1217 C   0  0  0  0  0  0  0  0  0  0  0  0
  -12.6522  -44.8063  -13.4532 O   0  0  0  0  0  0  0  0  0  0  0  0
  -10.8010  -43.1809  -13.3526 O   0  0  0  0  0  0  0  0  0  0  0  0
  -21.1446  -39.4486   -8.2997 C   0  0  0  0  0  0  0  0  0  0  0  0
  -22.3221  -38.6981   -8.2313 C   0  0  0  0  0  0  0  0  0  0  0  0
  -22.8985  -38.5344   -7.0020 C   0  0  0  0  0  0  0  0  0  0  0  0
  1  2  1  0
  2  3  1  0
  2  4  1  0
  4  5  2  0
  5  6  1  0
  6  7  1  0
  7  8  1  0
  8  9  1  0
  9 10  1  0
 10 11  1  1
 10 12  1  0
 12 13  1  6
 13 14  1  0
 14 15  1  1
 14 16  1  0
 16 17  1  0
 17 18  1  0
 18 19  1  0
 19 20  1  0
 20 21  1  0
 21 22  1  0
 22 23  1  0
 23 24  1  0
 24 25  2  0
 25 26  1  0
 26 27  2  0
 27 28  1  0
 28 29  2  0
 28 30  1  0
 30 31  1  0
 30 32  1  0
 32 33  1  0
 32 34  2  0
 32 35  2  0
 26 36  1  0
 36 37  2  0
 36 38  1  0
 23 39  1  0
 39 40  1  0
 39 41  2  0
 39 42  2  0
  6 43  2  0
 43 44  1  0
 44 45  2  0
 29 24  1  0
 38 12  1  0
 45  4  1  0
M  END
$$$$
