
     RDKit          3D

 45 47  0  0  0  0  0  0  0  0999 V2000
  -13.4382  -35.7963  -11.8707 C   0  0  0  0  0  0  0  0  0  0  0  0
  -12.5201  -36.8407  -11.3282 C   0  0  0  0  0  0  0  0  0  0  0  0
  -11.2299  -36.8620  -12.1246 C   0  0  0  0  0  0  0  0  0  0  0  0
  -13.1428  -38.1949  -11.3013 C   0  0  0  0  0  0  0  0  0  0  0  0
  -13.2599  -38.8910  -10.1178 C   0  0  0  0  0  0  0  0  0  0  0  0
  -13.8383  -40.1577  -10.0493 C   0  0  0  0  0  0  0  0  0  0  0  0
  -13.9631  -40.8978   -8.7825 C   0  0  0  0  0  0  0  0  0  0  0  0
  -15.1981  -40.7023   -8.1015 N   0  0  0  0  0  0  0  0  0  0  0  0
  -15.6447  -39.3710   -7.8869 C   0  0  0  0  0  0  0  0  0  0  0  0
  -16.7836  -39.2214   -6.9178 C   0  0  1  0  0  0  0  0  0  0  0  0
  -17.4772  -38.0602   -7.2358 O   0  0  0  0  0  0  0  0  0  0  0  0
  -17.6988  -40.4194   -6.8428 C   0  0  2  0  0  0  0  0  0  0  0  0
  -18.7558  -40.2286   -5.8300 C   0  0  0  0  0  0  0  0  0  0  0  0
  -20.0472  -39.6345   -6.3723 C   0  0  2  0  0  0  0  0  0  0  0  0
  -19.9866  -38.1253   -6.3055 C   0  0  0  0  0  0  0  0  0  0  0  0
  -21.2313  -40.0719   -5.5037 C   0  0  0  0  0  0  0  0  0  0  0  0
  -22.5223  -39.9892   -6.2641 C   0  0  0  0  0  0  0  0  0  0  0  0
  -23.4695  -41.1087   -5.9837 C   0  0  0  0  0  0  0  0  0  0  0  0
  -22.8182  -42.4543   -5.8632 C   0  0  0  0  0  0  0  0  0  0  0  0
  -23.6985  -43.5867   -6.3040 C   0  0  0  0  0  0  0  0  0  0  0  0
  -24.0927  -43.5075   -7.7518 C   0  0  0  0  0  0  0  0  0  0  0  0
  -23.0253  -43.0125   -8.6589 C   0  0  0  0  0  0  0  0  0  0  0  0
  -21.9818  -43.9810   -8.9602 N   0  0  0  0  0  0  0  0  0  0  0  0
  -20.6636  -44.1136   -8.3951 C   0  0  0  0  0  0  0  0  0  0  0  0
  -19.6745  -43.1746   -8.1604 C   0  0  0  0  0  0  0  0  0  0  0  0
  -18.5016  -43.6250   -7.5933 C   0  0  0  0  0  0  0  0  0  0  0  0
  -18.3515  -45.0028   -7.2781 C   0  0  0  0  0  0  0  0  0  0  0  0
  -19.3128  -45.9503   -7.5002 C   0  0  0  0  0  0  0  0  0  0  0  0
  -20.4668  -45.4776   -8.0630 C   0  0  0  0  0  0  0  0  0  0  0  0
  -19.1249  -47.3181   -7.1719 N   0  0  0  0  0  0  0  0  0  0  0  0
  -20.1432  -48.2522   -7.5760 C   0  0  0  0  0  0  0  0  0  0  0  0
  -17.7470  -47.8849   -6.3242 S   0  0  0  0  0  6  0  0  0  0  0  0
  -16.3623  -48.1165   -7.4138 C   0  0  0  0  0  0  0  0  0  0  0  0
  -17.3580  -46.9173   -5.2680 O   0  0  0  0  0  0  0  0  0  0  0  0
  -18.0175  -49.2207   -5.6812 O   0  0  0  0  0  0  0  0  0  0  0  0
  -17.2595  -42.9079   -7.2271 C   0  0  0  0  0  0  0  0  0  0  0  0
  -16.1047  -43.5300   -7.4667 O   0  0  0  0  0  0  0  0  0  0  0  0
  -16.9711  -41.6682   -6.6572 N   0  0  0  0  0  0  0  0  0  0  0  0
  -22.5184  -45.1472  -10.1812 S   0  0  0  0  0  6  0  0  0  0  0  0
  -24.2750  -45.3714  -10.0441 C   0  0  0  0  0  0  0  0  0  0  0  0
  -22.2687  -44.6154  -11.5552 O   0  0  0  0  0  0  0  0  0  0  0  0
  -21.7749  -46.4275   -9.9581 O   0  0  0  0  0  0  0  0  0  0  0  0
  -14.2917  -40.6898  -11.2209 C   0  0  0  0  0  0  0  0  0  0  0  0
  -14.1958  -40.0237  -12.4463 C   0  0  0  0  0  0  0  0  0  0  0  0
  -13.6185  -38.7840  -12.4500 C   0  0  0  0  0  0  0  0  0  0  0  0
  1  2  1  0
  2  3  1  0
  2  4  1  0
  4  5  2  0
  5  6  1  0
  6  7  1  0
  7  8  1  0
  8  9  1  0
  9 10  1  0
 10 11  1  6
 10 12  1  0
 12 13  1  1
 13 14  1  0
 14 15  1  1
 14 16  1  0
 16 17  1  0
 17 18  1  0
 18 19  1  0
 19 20  1  0
 20 21  1  0
 21 22  1  0
 22 23  1  0
 23 24  1  0
 24 25  2  0
 25 26  1  0
 26 27  2  0
 27 28  1  0
 28 29  2  0
 28 30  1  0
 30 31  1  0
 30 32  1  0
 32 33  1  0
 32 34  2  0
 32 35  2  0
 26 36  1  0
 36 37  2  0
 36 38  1  0
 23 39  1  0
 39 40  1  0
 39 41  2  0
 39 42  2  0
  6 43  2  0
 43 44  1  0
 44 45  2  0
 29 24  1  0
 38 12  1  0
 45  4  1  0
M  END
$$$$
