
     RDKit          3D

 45 47  0  0  0  0  0  0  0  0999 V2000
  -11.1378  -40.7675  -10.1148 C   0  0  0  0  0  0  0  0  0  0  0  0
  -11.8104  -41.3937  -11.2911 C   0  0  0  0  0  0  0  0  0  0  0  0
  -11.0633  -41.0436  -12.5633 C   0  0  0  0  0  0  0  0  0  0  0  0
  -13.2465  -41.0097  -11.4030 C   0  0  0  0  0  0  0  0  0  0  0  0
  -13.6905  -39.8003  -10.9142 C   0  0  0  0  0  0  0  0  0  0  0  0
  -15.0239  -39.4024  -11.0016 C   0  0  0  0  0  0  0  0  0  0  0  0
  -15.4942  -38.1084  -10.4794 C   0  0  0  0  0  0  0  0  0  0  0  0
  -15.2082  -37.8861   -9.1026 N   0  0  0  0  0  0  0  0  0  0  0  0
  -15.8378  -38.7212   -8.1412 C   0  0  0  0  0  0  0  0  0  0  0  0
  -17.3393  -38.6589   -8.1179 C   0  0  1  0  0  0  0  0  0  0  0  0
  -17.7765  -38.2117   -9.3587 O   0  0  0  0  0  0  0  0  0  0  0  0
  -18.0100  -39.9508   -7.7183 C   0  0  2  0  0  0  0  0  0  0  0  0
  -18.7575  -39.8022   -6.4540 C   0  0  0  0  0  0  0  0  0  0  0  0
  -20.2219  -39.4285   -6.6288 C   0  0  2  0  0  0  0  0  0  0  0  0
  -20.3682  -37.9241   -6.6613 C   0  0  0  0  0  0  0  0  0  0  0  0
  -21.0378  -39.9298   -5.4327 C   0  0  0  0  0  0  0  0  0  0  0  0
  -22.4875  -40.0812   -5.7893 C   0  0  0  0  0  0  0  0  0  0  0  0
  -23.1427  -41.2808   -5.1883 C   0  0  0  0  0  0  0  0  0  0  0  0
  -22.2927  -42.5164   -5.1917 C   0  0  0  0  0  0  0  0  0  0  0  0
  -23.0843  -43.7866   -5.2986 C   0  0  0  0  0  0  0  0  0  0  0  0
  -23.8750  -43.8918   -6.5720 C   0  0  0  0  0  0  0  0  0  0  0  0
  -23.1892  -43.3518   -7.7741 C   0  0  0  0  0  0  0  0  0  0  0  0
  -22.1407  -44.2045   -8.3141 N   0  0  0  0  0  0  0  0  0  0  0  0
  -20.7126  -44.1169   -8.1493 C   0  0  0  0  0  0  0  0  0  0  0  0
  -19.8469  -43.0430   -8.2608 C   0  0  0  0  0  0  0  0  0  0  0  0
  -18.5092  -43.2875   -8.0354 C   0  0  0  0  0  0  0  0  0  0  0  0
  -18.0756  -44.6003   -7.7058 C   0  0  0  0  0  0  0  0  0  0  0  0
  -18.9100  -45.6780   -7.5898 C   0  0  0  0  0  0  0  0  0  0  0  0
  -20.2319  -45.4087   -7.8178 C   0  0  0  0  0  0  0  0  0  0  0  0
  -18.4384  -46.9750   -7.2591 N   0  0  0  0  0  0  0  0  0  0  0  0
  -18.3778  -47.9564   -8.3107 C   0  0  0  0  0  0  0  0  0  0  0  0
  -17.9458  -47.4036   -5.6742 S   0  0  0  0  0  6  0  0  0  0  0  0
  -19.3423  -47.6528   -4.6036 C   0  0  0  0  0  0  0  0  0  0  0  0
  -17.1464  -48.6540   -5.7036 O   0  0  0  0  0  0  0  0  0  0  0  0
  -17.1144  -46.3121   -5.0510 O   0  0  0  0  0  0  0  0  0  0  0  0
  -17.3341  -42.3886   -8.0830 C   0  0  0  0  0  0  0  0  0  0  0  0
  -16.2138  -42.8795   -8.6143 O   0  0  0  0  0  0  0  0  0  0  0  0
  -17.0837  -41.0752   -7.6868 N   0  0  0  0  0  0  0  0  0  0  0  0
  -22.8196  -45.5368   -9.2644 S   0  0  0  0  0  6  0  0  0  0  0  0
  -21.8597  -45.7488  -10.7437 C   0  0  0  0  0  0  0  0  0  0  0  0
  -22.7162  -46.8217   -8.5086 O   0  0  0  0  0  0  0  0  0  0  0  0
  -24.2479  -45.2076   -9.5702 O   0  0  0  0  0  0  0  0  0  0  0  0
  -15.8864  -40.2731  -11.6009 C   0  0  0  0  0  0  0  0  0  0  0  0
  -15.4849  -41.5108  -12.1121 C   0  0  0  0  0  0  0  0  0  0  0  0
  -14.1640  -41.8455  -11.9968 C   0  0  0  0  0  0  0  0  0  0  0  0
  1  2  1  0
  2  3  1  0
  2  4  1  0
  4  5  2  0
  5  6  1  0
  6  7  1  0
  7  8  1  0
  8  9  1  0
  9 10  1  0
 10 11  1  6
 10 12  1  0
 12 13  1  1
 13 14  1  0
 14 15  1  1
 14 16  1  0
 16 17  1  0
 17 18  1  0
 18 19  1  0
 19 20  1  0
 20 21  1  0
 21 22  1  0
 22 23  1  0
 23 24  1  0
 24 25  2  0
 25 26  1  0
 26 27  2  0
 27 28  1  0
 28 29  2  0
 28 30  1  0
 30 31  1  0
 30 32  1  0
 32 33  1  0
 32 34  2  0
 32 35  2  0
 26 36  1  0
 36 37  2  0
 36 38  1  0
 23 39  1  0
 39 40  1  0
 39 41  2  0
 39 42  2  0
  6 43  2  0
 43 44  1  0
 44 45  2  0
 29 24  1  0
 38 12  1  0
 45  4  1  0
M  END
$$$$
