
     RDKit          3D

 45 47  0  0  0  0  0  0  0  0999 V2000
  -13.3999  -36.0229  -13.6895 C   0  0  0  0  0  0  0  0  0  0  0  0
  -12.5274  -36.6801  -12.6721 C   0  0  0  0  0  0  0  0  0  0  0  0
  -11.1141  -36.8096  -13.2062 C   0  0  0  0  0  0  0  0  0  0  0  0
  -13.0491  -38.0080  -12.2400 C   0  0  0  0  0  0  0  0  0  0  0  0
  -13.2148  -38.2965  -10.9028 C   0  0  0  0  0  0  0  0  0  0  0  0
  -13.7024  -39.5244  -10.4574 C   0  0  0  0  0  0  0  0  0  0  0  0
  -13.8795  -39.8284   -9.0275 C   0  0  0  0  0  0  0  0  0  0  0  0
  -14.8040  -38.9820   -8.3523 N   0  0  0  0  0  0  0  0  0  0  0  0
  -16.1398  -38.9260   -8.8325 C   0  0  0  0  0  0  0  0  0  0  0  0
  -17.1820  -38.5945   -7.8017 C   0  0  1  0  0  0  0  0  0  0  0  0
  -17.9432  -37.5335   -8.2767 O   0  0  0  0  0  0  0  0  0  0  0  0
  -18.0436  -39.7631   -7.3889 C   0  0  2  0  0  0  0  0  0  0  0  0
  -18.7512  -39.4911   -6.1221 C   0  0  0  0  0  0  0  0  0  0  0  0
  -20.1404  -38.8948   -6.2927 C   0  0  2  0  0  0  0  0  0  0  0  0
  -20.0505  -37.3862   -6.3362 C   0  0  0  0  0  0  0  0  0  0  0  0
  -21.0173  -39.2544   -5.0888 C   0  0  0  0  0  0  0  0  0  0  0  0
  -22.4750  -39.1803   -5.4372 C   0  0  0  0  0  0  0  0  0  0  0  0
  -23.3055  -40.2588   -4.8238 C   0  0  0  0  0  0  0  0  0  0  0  0
  -22.6587  -41.6119   -4.8218 C   0  0  0  0  0  0  0  0  0  0  0  0
  -23.6394  -42.7439   -4.9150 C   0  0  0  0  0  0  0  0  0  0  0  0
  -24.4444  -42.7332   -6.1837 C   0  0  0  0  0  0  0  0  0  0  0  0
  -23.6900  -42.3150   -7.3933 C   0  0  0  0  0  0  0  0  0  0  0  0
  -22.7905  -43.3245   -7.9317 N   0  0  0  0  0  0  0  0  0  0  0  0
  -21.3652  -43.4596   -7.7745 C   0  0  0  0  0  0  0  0  0  0  0  0
  -20.3434  -42.5347   -7.8985 C   0  0  0  0  0  0  0  0  0  0  0  0
  -19.0588  -42.9832   -7.6777 C   0  0  0  0  0  0  0  0  0  0  0  0
  -18.8332  -44.3453   -7.3401 C   0  0  0  0  0  0  0  0  0  0  0  0
  -19.8248  -45.2789   -7.2117 C   0  0  0  0  0  0  0  0  0  0  0  0
  -21.0899  -44.8082   -7.4354 C   0  0  0  0  0  0  0  0  0  0  0  0
  -19.5592  -46.6312   -6.8733 N   0  0  0  0  0  0  0  0  0  0  0  0
  -20.6806  -47.4789   -6.5626 C   0  0  0  0  0  0  0  0  0  0  0  0
  -17.9723  -47.2777   -6.8241 S   0  0  0  0  0  6  0  0  0  0  0  0
  -17.4806  -47.9171   -8.4076 C   0  0  0  0  0  0  0  0  0  0  0  0
  -17.0020  -46.2307   -6.4174 O   0  0  0  0  0  0  0  0  0  0  0  0
  -17.8840  -48.4242   -5.8501 O   0  0  0  0  0  0  0  0  0  0  0  0
  -17.7583  -42.2790   -7.7380 C   0  0  0  0  0  0  0  0  0  0  0  0
  -16.7314  -42.9422   -8.2709 O   0  0  0  0  0  0  0  0  0  0  0  0
  -17.3038  -41.0180   -7.3531 N   0  0  0  0  0  0  0  0  0  0  0  0
  -23.6745  -44.5411   -8.8684 S   0  0  0  0  0  6  0  0  0  0  0  0
  -25.1548  -43.8118   -9.5253 C   0  0  0  0  0  0  0  0  0  0  0  0
  -22.8655  -44.9821  -10.0449 O   0  0  0  0  0  0  0  0  0  0  0  0
  -23.9769  -45.6943   -7.9625 O   0  0  0  0  0  0  0  0  0  0  0  0
  -14.0145  -40.4449  -11.4148 C   0  0  0  0  0  0  0  0  0  0  0  0
  -13.8641  -40.2001  -12.7830 C   0  0  0  0  0  0  0  0  0  0  0  0
  -13.3811  -38.9770  -13.1585 C   0  0  0  0  0  0  0  0  0  0  0  0
  1  2  1  0
  2  3  1  0
  2  4  1  0
  4  5  2  0
  5  6  1  0
  6  7  1  0
  7  8  1  0
  8  9  1  0
  9 10  1  0
 10 11  1  6
 10 12  1  0
 12 13  1  1
 13 14  1  0
 14 15  1  1
 14 16  1  0
 16 17  1  0
 17 18  1  0
 18 19  1  0
 19 20  1  0
 20 21  1  0
 21 22  1  0
 22 23  1  0
 23 24  1  0
 24 25  2  0
 25 26  1  0
 26 27  2  0
 27 28  1  0
 28 29  2  0
 28 30  1  0
 30 31  1  0
 30 32  1  0
 32 33  1  0
 32 34  2  0
 32 35  2  0
 26 36  1  0
 36 37  2  0
 36 38  1  0
 23 39  1  0
 39 40  1  0
 39 41  2  0
 39 42  2  0
  6 43  2  0
 43 44  1  0
 44 45  2  0
 29 24  1  0
 38 12  1  0
 45  4  1  0
M  END
$$$$
