
     RDKit          3D

 45 47  0  0  0  0  0  0  0  0999 V2000
  -23.6132  -39.0422   -7.8010 C   0  0  0  0  0  0  0  0  0  0  0  0
  -22.7455  -38.3700   -6.7894 C   0  0  0  0  0  0  0  0  0  0  0  0
  -23.2509  -36.9652   -6.5236 C   0  0  0  0  0  0  0  0  0  0  0  0
  -21.3099  -38.3443   -7.1905 C   0  0  0  0  0  0  0  0  0  0  0  0
  -20.3207  -38.1581   -6.2495 C   0  0  0  0  0  0  0  0  0  0  0  0
  -18.9672  -38.1308   -6.5826 C   0  0  0  0  0  0  0  0  0  0  0  0
  -17.9129  -37.9331   -5.5738 C   0  0  0  0  0  0  0  0  0  0  0  0
  -16.5874  -37.9385   -6.0936 N   0  0  0  0  0  0  0  0  0  0  0  0
  -15.9074  -39.1821   -6.1896 C   0  0  0  0  0  0  0  0  0  0  0  0
  -15.6880  -39.6907   -7.5867 C   0  0  1  0  0  0  0  0  0  0  0  0
  -14.3510  -40.0459   -7.7166 O   0  0  0  0  0  0  0  0  0  0  0  0
  -16.6096  -40.8153   -7.9919 C   0  0  2  0  0  0  0  0  0  0  0  0
  -16.9732  -40.7272   -9.4200 C   0  0  0  0  0  0  0  0  0  0  0  0
  -16.0655  -41.5178  -10.3505 C   0  0  2  0  0  0  0  0  0  0  0  0
  -14.9079  -40.6535  -10.7961 C   0  0  0  0  0  0  0  0  0  0  0  0
  -16.8326  -41.9213  -11.6140 C   0  0  0  0  0  0  0  0  0  0  0  0
  -16.2021  -43.1116  -12.2753 C   0  0  0  0  0  0  0  0  0  0  0  0
  -17.1813  -44.0890  -12.8365 C   0  0  0  0  0  0  0  0  0  0  0  0
  -18.3812  -44.3294  -11.9695 C   0  0  0  0  0  0  0  0  0  0  0  0
  -18.9451  -45.7139  -12.0989 C   0  0  0  0  0  0  0  0  0  0  0  0
  -17.9827  -46.7914  -11.6860 C   0  0  0  0  0  0  0  0  0  0  0  0
  -17.1366  -46.4508  -10.5133 C   0  0  0  0  0  0  0  0  0  0  0  0
  -17.8171  -46.5183   -9.2287 N   0  0  0  0  0  0  0  0  0  0  0  0
  -18.3730  -45.4571   -8.4291 C   0  0  0  0  0  0  0  0  0  0  0  0
  -17.8493  -44.2345   -8.0469 C   0  0  0  0  0  0  0  0  0  0  0  0
  -18.6472  -43.4244   -7.2678 C   0  0  0  0  0  0  0  0  0  0  0  0
  -19.9465  -43.8614   -6.8922 C   0  0  0  0  0  0  0  0  0  0  0  0
  -20.4870  -45.0642   -7.2562 C   0  0  0  0  0  0  0  0  0  0  0  0
  -19.6754  -45.8488   -8.0293 C   0  0  0  0  0  0  0  0  0  0  0  0
  -21.7894  -45.4655   -6.8604 N   0  0  0  0  0  0  0  0  0  0  0  0
  -22.4696  -46.4380   -7.6753 C   0  0  0  0  0  0  0  0  0  0  0  0
  -22.5658  -44.8405   -5.4658 S   0  0  0  0  0  6  0  0  0  0  0  0
  -23.9864  -43.8626   -5.8949 C   0  0  0  0  0  0  0  0  0  0  0  0
  -23.0067  -45.9482   -4.5816 O   0  0  0  0  0  0  0  0  0  0  0  0
  -21.6412  -43.9393   -4.6885 O   0  0  0  0  0  0  0  0  0  0  0  0
  -18.4004  -42.0866   -6.6842 C   0  0  0  0  0  0  0  0  0  0  0  0
  -18.8513  -41.8694   -5.4483 O   0  0  0  0  0  0  0  0  0  0  0  0
  -17.7778  -40.9200   -7.1272 N   0  0  0  0  0  0  0  0  0  0  0  0
  -17.9707  -48.1921   -8.6682 S   0  0  0  0  0  6  0  0  0  0  0  0
  -18.9768  -49.1028   -9.8141 C   0  0  0  0  0  0  0  0  0  0  0  0
  -16.6352  -48.8624   -8.6566 O   0  0  0  0  0  0  0  0  0  0  0  0
  -18.5713  -48.1687   -7.2968 O   0  0  0  0  0  0  0  0  0  0  0  0
  -18.6556  -38.2988   -7.9002 C   0  0  0  0  0  0  0  0  0  0  0  0
  -19.6223  -38.4908   -8.8918 C   0  0  0  0  0  0  0  0  0  0  0  0
  -20.9334  -38.5080   -8.5037 C   0  0  0  0  0  0  0  0  0  0  0  0
  1  2  1  0
  2  3  1  0
  2  4  1  0
  4  5  2  0
  5  6  1  0
  6  7  1  0
  7  8  1  0
  8  9  1  0
  9 10  1  0
 10 11  1  1
 10 12  1  0
 12 13  1  6
 13 14  1  0
 14 15  1  6
 14 16  1  0
 16 17  1  0
 17 18  1  0
 18 19  1  0
 19 20  1  0
 20 21  1  0
 21 22  1  0
 22 23  1  0
 23 24  1  0
 24 25  2  0
 25 26  1  0
 26 27  2  0
 27 28  1  0
 28 29  2  0
 28 30  1  0
 30 31  1  0
 30 32  1  0
 32 33  1  0
 32 34  2  0
 32 35  2  0
 26 36  1  0
 36 37  2  0
 36 38  1  0
 23 39  1  0
 39 40  1  0
 39 41  2  0
 39 42  2  0
  6 43  2  0
 43 44  1  0
 44 45  2  0
 29 24  1  0
 38 12  1  0
 45  4  1  0
M  END
$$$$
