
     RDKit          3D

 45 47  0  0  0  0  0  0  0  0999 V2000
  -12.0651  -34.9724  -11.4048 C   0  0  0  0  0  0  0  0  0  0  0  0
  -12.9950  -35.5426  -12.4238 C   0  0  0  0  0  0  0  0  0  0  0  0
  -14.3708  -34.9227  -12.2756 C   0  0  0  0  0  0  0  0  0  0  0  0
  -13.0790  -37.0295  -12.3562 C   0  0  0  0  0  0  0  0  0  0  0  0
  -12.8937  -37.6900  -11.1611 C   0  0  0  0  0  0  0  0  0  0  0  0
  -12.9670  -39.0782  -11.0547 C   0  0  0  0  0  0  0  0  0  0  0  0
  -12.7699  -39.7804   -9.7755 C   0  0  0  0  0  0  0  0  0  0  0  0
  -13.7893  -39.5479   -8.8091 N   0  0  0  0  0  0  0  0  0  0  0  0
  -15.0121  -40.2596   -8.9365 C   0  0  0  0  0  0  0  0  0  0  0  0
  -16.1739  -39.6864   -8.1747 C   0  0  1  0  0  0  0  0  0  0  0  0
  -16.7654  -38.7021   -8.9569 O   0  0  0  0  0  0  0  0  0  0  0  0
  -17.1786  -40.7113   -7.7073 C   0  0  2  0  0  0  0  0  0  0  0  0
  -18.0081  -40.1896   -6.6031 C   0  0  0  0  0  0  0  0  0  0  0  0
  -19.3085  -39.5364   -7.0471 C   0  0  2  0  0  0  0  0  0  0  0  0
  -19.0816  -38.0646   -7.3080 C   0  0  0  0  0  0  0  0  0  0  0  0
  -20.3532  -39.6352   -5.9307 C   0  0  0  0  0  0  0  0  0  0  0  0
  -21.7456  -39.5204   -6.4782 C   0  0  0  0  0  0  0  0  0  0  0  0
  -22.7361  -40.4261   -5.8240 C   0  0  0  0  0  0  0  0  0  0  0  0
  -22.2159  -41.8013   -5.5288 C   0  0  0  0  0  0  0  0  0  0  0  0
  -23.2737  -42.8645   -5.5784 C   0  0  0  0  0  0  0  0  0  0  0  0
  -23.9147  -43.0060   -6.9300 C   0  0  0  0  0  0  0  0  0  0  0  0
  -22.9852  -42.8423   -8.0773 C   0  0  0  0  0  0  0  0  0  0  0  0
  -22.1194  -43.9844   -8.3300 N   0  0  0  0  0  0  0  0  0  0  0  0
  -20.7412  -44.1882   -7.9648 C   0  0  0  0  0  0  0  0  0  0  0  0
  -19.6344  -43.3670   -8.0907 C   0  0  0  0  0  0  0  0  0  0  0  0
  -18.4307  -43.8594   -7.6341 C   0  0  0  0  0  0  0  0  0  0  0  0
  -18.3684  -45.1605   -7.0654 C   0  0  0  0  0  0  0  0  0  0  0  0
  -19.4465  -45.9915   -6.9298 C   0  0  0  0  0  0  0  0  0  0  0  0
  -20.6288  -45.4791   -7.3899 C   0  0  0  0  0  0  0  0  0  0  0  0
  -19.3440  -47.2856   -6.3563 N   0  0  0  0  0  0  0  0  0  0  0  0
  -20.4826  -48.1601   -6.4631 C   0  0  0  0  0  0  0  0  0  0  0  0
  -17.9310  -47.8324   -5.5545 S   0  0  0  0  0  6  0  0  0  0  0  0
  -16.6515  -46.5993   -5.5768 C   0  0  0  0  0  0  0  0  0  0  0  0
  -18.2376  -48.1669   -4.1412 O   0  0  0  0  0  0  0  0  0  0  0  0
  -17.3634  -49.0546   -6.2291 O   0  0  0  0  0  0  0  0  0  0  0  0
  -17.0755  -43.2640   -7.6267 C   0  0  0  0  0  0  0  0  0  0  0  0
  -16.0540  -44.0730   -7.9099 O   0  0  0  0  0  0  0  0  0  0  0  0
  -16.5619  -41.9908   -7.3816 N   0  0  0  0  0  0  0  0  0  0  0  0
  -22.9868  -45.2747   -9.1797 S   0  0  0  0  0  6  0  0  0  0  0  0
  -22.7188  -45.1072  -10.9275 C   0  0  0  0  0  0  0  0  0  0  0  0
  -22.4386  -46.6111   -8.7966 O   0  0  0  0  0  0  0  0  0  0  0  0
  -24.4379  -45.1686   -8.8264 O   0  0  0  0  0  0  0  0  0  0  0  0
  -13.2343  -39.7686  -12.2007 C   0  0  0  0  0  0  0  0  0  0  0  0
  -13.4298  -39.1447  -13.4364 C   0  0  0  0  0  0  0  0  0  0  0  0
  -13.3455  -37.7804  -13.4777 C   0  0  0  0  0  0  0  0  0  0  0  0
  1  2  1  0
  2  3  1  0
  2  4  1  0
  4  5  2  0
  5  6  1  0
  6  7  1  0
  7  8  1  0
  8  9  1  0
  9 10  1  0
 10 11  1  6
 10 12  1  0
 12 13  1  1
 13 14  1  0
 14 15  1  1
 14 16  1  0
 16 17  1  0
 17 18  1  0
 18 19  1  0
 19 20  1  0
 20 21  1  0
 21 22  1  0
 22 23  1  0
 23 24  1  0
 24 25  2  0
 25 26  1  0
 26 27  2  0
 27 28  1  0
 28 29  2  0
 28 30  1  0
 30 31  1  0
 30 32  1  0
 32 33  1  0
 32 34  2  0
 32 35  2  0
 26 36  1  0
 36 37  2  0
 36 38  1  0
 23 39  1  0
 39 40  1  0
 39 41  2  0
 39 42  2  0
  6 43  2  0
 43 44  1  0
 44 45  2  0
 29 24  1  0
 38 12  1  0
 45  4  1  0
M  END
$$$$
