
     RDKit          3D

 45 47  0  0  0  0  0  0  0  0999 V2000
  -11.3275  -40.3032  -14.2081 C   0  0  0  0  0  0  0  0  0  0  0  0
  -11.2730  -40.7999  -12.8015 C   0  0  0  0  0  0  0  0  0  0  0  0
  -11.0414  -42.2984  -12.7889 C   0  0  0  0  0  0  0  0  0  0  0  0
  -12.4946  -40.4509  -12.0216 C   0  0  0  0  0  0  0  0  0  0  0  0
  -12.4245  -39.5728  -10.9619 C   0  0  0  0  0  0  0  0  0  0  0  0
  -13.5432  -39.2181  -10.2093 C   0  0  0  0  0  0  0  0  0  0  0  0
  -13.4646  -38.2781   -9.0786 C   0  0  0  0  0  0  0  0  0  0  0  0
  -14.7019  -38.0475   -8.4130 N   0  0  0  0  0  0  0  0  0  0  0  0
  -15.7577  -38.9763   -8.6147 C   0  0  0  0  0  0  0  0  0  0  0  0
  -17.0550  -38.6344   -7.9373 C   0  0  1  0  0  0  0  0  0  0  0  0
  -17.7637  -37.7703   -8.7631 O   0  0  0  0  0  0  0  0  0  0  0  0
  -17.8821  -39.8315   -7.5355 C   0  0  2  0  0  0  0  0  0  0  0  0
  -18.7865  -39.5107   -6.4137 C   0  0  0  0  0  0  0  0  0  0  0  0
  -20.1745  -39.0522   -6.8355 C   0  0  2  0  0  0  0  0  0  0  0  0
  -20.1875  -37.5511   -7.0153 C   0  0  0  0  0  0  0  0  0  0  0  0
  -21.1913  -39.3782   -5.7366 C   0  0  0  0  0  0  0  0  0  0  0  0
  -22.5831  -39.4595   -6.2914 C   0  0  0  0  0  0  0  0  0  0  0  0
  -23.4156  -40.5468   -5.6966 C   0  0  0  0  0  0  0  0  0  0  0  0
  -22.6809  -41.8344   -5.4697 C   0  0  0  0  0  0  0  0  0  0  0  0
  -23.5533  -43.0496   -5.5867 C   0  0  0  0  0  0  0  0  0  0  0  0
  -24.1611  -43.2191   -6.9504 C   0  0  0  0  0  0  0  0  0  0  0  0
  -23.2685  -42.8459   -8.0778 C   0  0  0  0  0  0  0  0  0  0  0  0
  -22.2295  -43.8184   -8.3821 N   0  0  0  0  0  0  0  0  0  0  0  0
  -20.8369  -43.8172   -8.0142 C   0  0  0  0  0  0  0  0  0  0  0  0
  -19.8769  -42.8230   -8.0848 C   0  0  0  0  0  0  0  0  0  0  0  0
  -18.6102  -43.1393   -7.6429 C   0  0  0  0  0  0  0  0  0  0  0  0
  -18.3398  -44.4423   -7.1436 C   0  0  0  0  0  0  0  0  0  0  0  0
  -19.2700  -45.4421   -7.0635 C   0  0  0  0  0  0  0  0  0  0  0  0
  -20.5187  -45.1024   -7.5078 C   0  0  0  0  0  0  0  0  0  0  0  0
  -18.9610  -46.7320   -6.5587 N   0  0  0  0  0  0  0  0  0  0  0  0
  -20.0427  -47.6689   -6.4014 C   0  0  0  0  0  0  0  0  0  0  0  0
  -17.3674  -47.2030   -6.1380 S   0  0  0  0  0  6  0  0  0  0  0  0
  -16.2383  -46.9577   -7.4883 C   0  0  0  0  0  0  0  0  0  0  0  0
  -16.8878  -46.4157   -4.9746 O   0  0  0  0  0  0  0  0  0  0  0  0
  -17.3094  -48.6677   -5.7883 O   0  0  0  0  0  0  0  0  0  0  0  0
  -17.3688  -42.3348   -7.5900 C   0  0  0  0  0  0  0  0  0  0  0  0
  -16.2298  -42.9523   -7.9053 O   0  0  0  0  0  0  0  0  0  0  0  0
  -17.0676  -41.0108   -7.2722 N   0  0  0  0  0  0  0  0  0  0  0  0
  -22.8761  -45.1835   -9.3081 S   0  0  0  0  0  6  0  0  0  0  0  0
  -21.6795  -45.6877  -10.5198 C   0  0  0  0  0  0  0  0  0  0  0  0
  -23.0931  -46.3624   -8.4158 O   0  0  0  0  0  0  0  0  0  0  0  0
  -24.1604  -44.7469   -9.9422 O   0  0  0  0  0  0  0  0  0  0  0  0
  -14.7307  -39.7846  -10.5702 C   0  0  0  0  0  0  0  0  0  0  0  0
  -14.8532  -40.6804  -11.6366 C   0  0  0  0  0  0  0  0  0  0  0  0
  -13.7204  -40.9898  -12.3373 C   0  0  0  0  0  0  0  0  0  0  0  0
  1  2  1  0
  2  3  1  0
  2  4  1  0
  4  5  2  0
  5  6  1  0
  6  7  1  0
  7  8  1  0
  8  9  1  0
  9 10  1  0
 10 11  1  6
 10 12  1  0
 12 13  1  1
 13 14  1  0
 14 15  1  1
 14 16  1  0
 16 17  1  0
 17 18  1  0
 18 19  1  0
 19 20  1  0
 20 21  1  0
 21 22  1  0
 22 23  1  0
 23 24  1  0
 24 25  2  0
 25 26  1  0
 26 27  2  0
 27 28  1  0
 28 29  2  0
 28 30  1  0
 30 31  1  0
 30 32  1  0
 32 33  1  0
 32 34  2  0
 32 35  2  0
 26 36  1  0
 36 37  2  0
 36 38  1  0
 23 39  1  0
 39 40  1  0
 39 41  2  0
 39 42  2  0
  6 43  2  0
 43 44  1  0
 44 45  2  0
 29 24  1  0
 38 12  1  0
 45  4  1  0
M  END
$$$$
