
     RDKit          3D

 45 47  0  0  0  0  0  0  0  0999 V2000
  -12.8714  -34.7330  -12.1256 C   0  0  0  0  0  0  0  0  0  0  0  0
  -14.0730  -35.2089  -12.8725 C   0  0  0  0  0  0  0  0  0  0  0  0
  -15.3032  -34.4503  -12.4140 C   0  0  0  0  0  0  0  0  0  0  0  0
  -14.2842  -36.6789  -12.7436 C   0  0  0  0  0  0  0  0  0  0  0  0
  -14.2573  -37.2868  -11.5072 C   0  0  0  0  0  0  0  0  0  0  0  0
  -14.4531  -38.6575  -11.3434 C   0  0  0  0  0  0  0  0  0  0  0  0
  -14.4252  -39.3032  -10.0203 C   0  0  0  0  0  0  0  0  0  0  0  0
  -15.6343  -39.9612   -9.6568 N   0  0  0  0  0  0  0  0  0  0  0  0
  -16.8153  -39.1808   -9.5372 C   0  0  0  0  0  0  0  0  0  0  0  0
  -17.3585  -39.0432   -8.1427 C   0  0  1  0  0  0  0  0  0  0  0  0
  -18.2595  -37.9854   -8.1281 O   0  0  0  0  0  0  0  0  0  0  0  0
  -17.9668  -40.3065   -7.5838 C   0  0  2  0  0  0  0  0  0  0  0  0
  -18.5804  -40.0712   -6.2619 C   0  0  0  0  0  0  0  0  0  0  0  0
  -20.0599  -39.7195   -6.3084 C   0  0  2  0  0  0  0  0  0  0  0  0
  -20.2287  -38.2222   -6.4328 C   0  0  0  0  0  0  0  0  0  0  0  0
  -20.7400  -40.1376   -5.0006 C   0  0  0  0  0  0  0  0  0  0  0  0
  -22.2168  -40.3227   -5.1915 C   0  0  0  0  0  0  0  0  0  0  0  0
  -22.7898  -41.4793   -4.4411 C   0  0  0  0  0  0  0  0  0  0  0  0
  -21.9285  -42.7071   -4.4453 C   0  0  0  0  0  0  0  0  0  0  0  0
  -22.7100  -43.9863   -4.3776 C   0  0  0  0  0  0  0  0  0  0  0  0
  -23.6275  -44.1879   -5.5503 C   0  0  0  0  0  0  0  0  0  0  0  0
  -23.0779  -43.7324   -6.8532 C   0  0  0  0  0  0  0  0  0  0  0  0
  -22.0802  -44.6159   -7.4378 N   0  0  0  0  0  0  0  0  0  0  0  0
  -20.6439  -44.5084   -7.4304 C   0  0  0  0  0  0  0  0  0  0  0  0
  -19.8089  -43.4405   -7.7084 C   0  0  0  0  0  0  0  0  0  0  0  0
  -18.4519  -43.6603   -7.6077 C   0  0  0  0  0  0  0  0  0  0  0  0
  -17.9688  -44.9432   -7.2325 C   0  0  0  0  0  0  0  0  0  0  0  0
  -18.7722  -46.0145   -6.9530 C   0  0  0  0  0  0  0  0  0  0  0  0
  -20.1142  -45.7700   -7.0598 C   0  0  0  0  0  0  0  0  0  0  0  0
  -18.2515  -47.2815   -6.5818 N   0  0  0  0  0  0  0  0  0  0  0  0
  -16.8315  -47.4858   -6.7021 C   0  0  0  0  0  0  0  0  0  0  0  0
  -19.2423  -48.5552   -6.0036 S   0  0  0  0  0  6  0  0  0  0  0  0
  -20.9403  -48.0485   -5.8677 C   0  0  0  0  0  0  0  0  0  0  0  0
  -19.1708  -49.7202   -6.9205 O   0  0  0  0  0  0  0  0  0  0  0  0
  -18.8123  -48.9948   -4.6278 O   0  0  0  0  0  0  0  0  0  0  0  0
  -17.3002  -42.7605   -7.8424 C   0  0  0  0  0  0  0  0  0  0  0  0
  -16.2349  -43.2821   -8.4518 O   0  0  0  0  0  0  0  0  0  0  0  0
  -17.0274  -41.4204   -7.5694 N   0  0  0  0  0  0  0  0  0  0  0  0
  -22.8366  -46.0174   -8.2142 S   0  0  0  0  0  6  0  0  0  0  0  0
  -23.8776  -46.8467   -7.0381 C   0  0  0  0  0  0  0  0  0  0  0  0
  -23.7294  -45.5770   -9.3287 O   0  0  0  0  0  0  0  0  0  0  0  0
  -21.7472  -46.9111   -8.7206 O   0  0  0  0  0  0  0  0  0  0  0  0
  -14.6764  -39.3855  -12.4754 C   0  0  0  0  0  0  0  0  0  0  0  0
  -14.7130  -38.8154  -13.7514 C   0  0  0  0  0  0  0  0  0  0  0  0
  -14.5138  -37.4660  -13.8484 C   0  0  0  0  0  0  0  0  0  0  0  0
  1  2  1  0
  2  3  1  0
  2  4  1  0
  4  5  2  0
  5  6  1  0
  6  7  1  0
  7  8  1  0
  8  9  1  0
  9 10  1  0
 10 11  1  6
 10 12  1  0
 12 13  1  1
 13 14  1  0
 14 15  1  1
 14 16  1  0
 16 17  1  0
 17 18  1  0
 18 19  1  0
 19 20  1  0
 20 21  1  0
 21 22  1  0
 22 23  1  0
 23 24  1  0
 24 25  2  0
 25 26  1  0
 26 27  2  0
 27 28  1  0
 28 29  2  0
 28 30  1  0
 30 31  1  0
 30 32  1  0
 32 33  1  0
 32 34  2  0
 32 35  2  0
 26 36  1  0
 36 37  2  0
 36 38  1  0
 23 39  1  0
 39 40  1  0
 39 41  2  0
 39 42  2  0
  6 43  2  0
 43 44  1  0
 44 45  2  0
 29 24  1  0
 38 12  1  0
 45  4  1  0
M  END
$$$$
