
     RDKit          3D

 45 47  0  0  0  0  0  0  0  0999 V2000
  -11.7211  -39.4444  -13.9362 C   0  0  0  0  0  0  0  0  0  0  0  0
  -12.4869  -38.8667  -12.7925 C   0  0  0  0  0  0  0  0  0  0  0  0
  -11.6148  -37.8945  -12.0222 C   0  0  0  0  0  0  0  0  0  0  0  0
  -13.0371  -39.9123  -11.8835 C   0  0  0  0  0  0  0  0  0  0  0  0
  -13.1166  -39.6916  -10.5256 C   0  0  0  0  0  0  0  0  0  0  0  0
  -13.6271  -40.6417   -9.6422 C   0  0  0  0  0  0  0  0  0  0  0  0
  -13.7119  -40.4016   -8.1918 C   0  0  0  0  0  0  0  0  0  0  0  0
  -15.0384  -40.3399   -7.6783 N   0  0  0  0  0  0  0  0  0  0  0  0
  -15.5882  -39.0630   -7.3865 C   0  0  0  0  0  0  0  0  0  0  0  0
  -17.0080  -38.8551   -7.8334 C   0  0  1  0  0  0  0  0  0  0  0  0
  -16.9925  -38.4603   -9.1656 O   0  0  0  0  0  0  0  0  0  0  0  0
  -17.9114  -40.0436   -7.6105 C   0  0  2  0  0  0  0  0  0  0  0  0
  -18.6172  -39.9500   -6.3173 C   0  0  0  0  0  0  0  0  0  0  0  0
  -19.9843  -39.2866   -6.3930 C   0  0  2  0  0  0  0  0  0  0  0  0
  -19.8428  -37.7940   -6.1982 C   0  0  0  0  0  0  0  0  0  0  0  0
  -20.8804  -39.8006   -5.2614 C   0  0  0  0  0  0  0  0  0  0  0  0
  -22.3325  -39.6223   -5.5949 C   0  0  0  0  0  0  0  0  0  0  0  0
  -23.2031  -40.7545   -5.1597 C   0  0  0  0  0  0  0  0  0  0  0  0
  -22.6027  -42.1126   -5.3703 C   0  0  0  0  0  0  0  0  0  0  0  0
  -23.6207  -43.1811   -5.6414 C   0  0  0  0  0  0  0  0  0  0  0  0
  -24.4170  -42.9431   -6.8932 C   0  0  0  0  0  0  0  0  0  0  0  0
  -23.6412  -42.3662   -8.0212 C   0  0  0  0  0  0  0  0  0  0  0  0
  -22.7733  -43.3089   -8.7112 N   0  0  0  0  0  0  0  0  0  0  0  0
  -21.3544  -43.5162   -8.5761 C   0  0  0  0  0  0  0  0  0  0  0  0
  -20.3010  -42.6192   -8.5520 C   0  0  0  0  0  0  0  0  0  0  0  0
  -19.0338  -43.1411   -8.4036 C   0  0  0  0  0  0  0  0  0  0  0  0
  -18.8568  -44.5463   -8.2845 C   0  0  0  0  0  0  0  0  0  0  0  0
  -19.8804  -45.4536   -8.3056 C   0  0  0  0  0  0  0  0  0  0  0  0
  -21.1273  -44.9101   -8.4534 C   0  0  0  0  0  0  0  0  0  0  0  0
  -19.6631  -46.8507   -8.1841 N   0  0  0  0  0  0  0  0  0  0  0  0
  -20.3898  -47.7232   -9.0691 C   0  0  0  0  0  0  0  0  0  0  0  0
  -18.5804  -47.5219   -7.0370 S   0  0  0  0  0  6  0  0  0  0  0  0
  -19.4476  -48.1900   -5.6370 C   0  0  0  0  0  0  0  0  0  0  0  0
  -17.7809  -48.6078   -7.6573 O   0  0  0  0  0  0  0  0  0  0  0  0
  -17.6397  -46.4735   -6.5012 O   0  0  0  0  0  0  0  0  0  0  0  0
  -17.7097  -42.4815   -8.3512 C   0  0  0  0  0  0  0  0  0  0  0  0
  -16.7027  -43.0877   -8.9811 O   0  0  0  0  0  0  0  0  0  0  0  0
  -17.2150  -41.3133   -7.7722 N   0  0  0  0  0  0  0  0  0  0  0  0
  -23.6924  -44.3316   -9.8285 S   0  0  0  0  0  6  0  0  0  0  0  0
  -22.6278  -44.8598  -11.1484 C   0  0  0  0  0  0  0  0  0  0  0  0
  -24.1539  -45.5739   -9.1381 O   0  0  0  0  0  0  0  0  0  0  0  0
  -24.8551  -43.5361  -10.3357 O   0  0  0  0  0  0  0  0  0  0  0  0
  -14.0524  -41.8189  -10.1850 C   0  0  0  0  0  0  0  0  0  0  0  0
  -13.9925  -42.0903  -11.5551 C   0  0  0  0  0  0  0  0  0  0  0  0
  -13.4816  -41.1194  -12.3715 C   0  0  0  0  0  0  0  0  0  0  0  0
  1  2  1  0
  2  3  1  0
  2  4  1  0
  4  5  2  0
  5  6  1  0
  6  7  1  0
  7  8  1  0
  8  9  1  0
  9 10  1  0
 10 11  1  6
 10 12  1  0
 12 13  1  1
 13 14  1  0
 14 15  1  1
 14 16  1  0
 16 17  1  0
 17 18  1  0
 18 19  1  0
 19 20  1  0
 20 21  1  0
 21 22  1  0
 22 23  1  0
 23 24  1  0
 24 25  2  0
 25 26  1  0
 26 27  2  0
 27 28  1  0
 28 29  2  0
 28 30  1  0
 30 31  1  0
 30 32  1  0
 32 33  1  0
 32 34  2  0
 32 35  2  0
 26 36  1  0
 36 37  2  0
 36 38  1  0
 23 39  1  0
 39 40  1  0
 39 41  2  0
 39 42  2  0
  6 43  2  0
 43 44  1  0
 44 45  2  0
 29 24  1  0
 38 12  1  0
 45  4  1  0
M  END
$$$$
