
     RDKit          3D

 43 46  0  0  0  0  0  0  0  0999 V2000
  -17.0315  -47.9517   -9.3096 C   0  0  0  0  0  0  0  0  0  0  0  0
  -17.6992  -46.7484   -9.4653 O   0  0  0  0  0  0  0  0  0  0  0  0
  -17.1831  -45.7536   -8.6483 C   0  0  0  0  0  0  0  0  0  0  0  0
  -18.1818  -44.7099   -8.2944 C   0  0  0  0  0  0  0  0  0  0  0  0
  -19.3070  -44.9803   -7.5745 C   0  0  0  0  0  0  0  0  0  0  0  0
  -20.2774  -43.9980   -7.2243 C   0  0  0  0  0  0  0  0  0  0  0  0
  -20.0967  -42.6915   -7.6227 C   0  0  0  0  0  0  0  0  0  0  0  0
  -18.9679  -42.3820   -8.3520 C   0  0  0  0  0  0  0  0  0  0  0  0
  -18.0335  -43.4044   -8.6720 C   0  0  0  0  0  0  0  0  0  0  0  0
  -18.4875  -41.1075   -8.9175 C   0  0  0  0  0  0  0  0  0  0  0  0
  -17.9648  -41.1273  -10.1366 O   0  0  0  0  0  0  0  0  0  0  0  0
  -18.4536  -39.7840   -8.4203 N   0  0  0  0  0  0  0  0  0  0  0  0
  -17.9126  -39.2955   -7.1909 C   0  0  1  0  0  0  0  0  0  0  0  0
  -18.6207  -39.8171   -5.9618 C   0  0  0  0  0  0  0  0  0  0  0  0
  -20.0050  -39.1766   -5.8834 C   0  0  2  0  0  0  0  0  0  0  0  0
  -19.9031  -37.6801   -6.0453 C   0  0  0  0  0  0  0  0  0  0  0  0
  -20.5297  -39.4435   -4.5026 C   0  0  0  0  0  0  0  0  0  0  0  0
  -21.9941  -39.1945   -4.3255 C   0  0  0  0  0  0  0  0  0  0  0  0
  -22.8944  -40.0268   -5.1780 C   0  0  0  0  0  0  0  0  0  0  0  0
  -22.5613  -41.4910   -4.9392 C   0  0  0  0  0  0  0  0  0  0  0  0
  -23.4527  -42.3010   -5.8267 C   0  0  0  0  0  0  0  0  0  0  0  0
  -23.3835  -43.7469   -5.4566 C   0  0  0  0  0  0  0  0  0  0  0  0
  -21.9964  -44.2514   -5.2463 C   0  0  0  0  0  0  0  0  0  0  0  0
  -21.3154  -44.6266   -6.4697 N   0  0  0  0  0  0  0  0  0  0  0  0
  -16.4153  -39.3646   -7.1076 C   0  0  2  0  0  0  0  0  0  0  0  0
  -15.8252  -38.7306   -6.0653 O   0  0  0  0  0  0  0  0  0  0  0  0
  -15.7809  -38.9091   -8.4018 C   0  0  0  0  0  0  0  0  0  0  0  0
  -14.9262  -39.9807   -8.8640 N   0  0  0  0  0  0  0  0  0  0  0  0
  -13.6654  -39.5669   -9.3865 C   0  0  1  0  0  0  0  0  0  0  0  0
  -12.6150  -40.6201   -9.3573 C   0  0  0  0  0  0  0  0  0  0  0  0
  -12.8814  -41.7635  -10.3034 C   0  0  0  0  0  0  0  0  0  0  0  0
  -11.5328  -42.1616  -10.9075 C   0  0  0  0  0  0  0  0  0  0  0  0
  -13.4467  -42.9642   -9.6201 C   0  0  0  0  0  0  0  0  0  0  0  0
  -13.6827  -41.3554  -11.4142 O   0  0  0  0  0  0  0  0  0  0  0  0
  -13.7909  -40.0197  -11.7781 C   0  0  0  0  0  0  0  0  0  0  0  0
  -13.9008  -39.5939  -13.0798 C   0  0  0  0  0  0  0  0  0  0  0  0
  -14.0063  -38.2544  -13.3919 C   0  0  0  0  0  0  0  0  0  0  0  0
  -14.0064  -37.2782  -12.4156 C   0  0  0  0  0  0  0  0  0  0  0  0
  -13.8944  -37.7200  -11.1027 C   0  0  0  0  0  0  0  0  0  0  0  0
  -13.7894  -39.0570  -10.7928 C   0  0  0  0  0  0  0  0  0  0  0  0
  -14.1191  -35.8243  -12.7365 C   0  0  0  0  0  0  0  0  0  0  0  0
  -13.0047  -35.0546  -12.0246 C   0  0  0  0  0  0  0  0  0  0  0  0
  -15.4617  -35.2544  -12.4154 C   0  0  0  0  0  0  0  0  0  0  0  0
  1  2  1  0
  2  3  1  0
  3  4  1  0
  4  5  2  0
  5  6  1  0
  6  7  2  0
  7  8  1  0
  8  9  2  0
  8 10  1  0
 10 11  2  0
 10 12  1  0
 12 13  1  0
 13 14  1  1
 14 15  1  0
 15 16  1  1
 15 17  1  0
 17 18  1  0
 18 19  1  0
 19 20  1  0
 20 21  1  0
 21 22  1  0
 22 23  1  0
 23 24  1  0
 13 25  1  0
 25 26  1  1
 25 27  1  0
 27 28  1  0
 29 28  1  6
 29 30  1  0
 30 31  1  0
 31 32  1  0
 31 33  1  0
 31 34  1  0
 34 35  1  0
 35 36  2  0
 36 37  1  0
 37 38  2  0
 38 39  1  0
 39 40  2  0
 38 41  1  0
 41 42  1  0
 41 43  1  0
  9  4  1  0
 24  6  1  0
 40 35  1  0
 40 29  1  0
M  END
$$$$
