
     RDKit          3D

 43 46  0  0  0  0  0  0  0  0999 V2000
  -21.0161  -41.8112   -4.0025 C   0  0  0  0  0  0  0  0  0  0  0  0
  -21.4302  -40.7009   -4.7194 O   0  0  0  0  0  0  0  0  0  0  0  0
  -21.9560  -41.0426   -5.9564 C   0  0  0  0  0  0  0  0  0  0  0  0
  -21.5643  -40.1013   -7.0392 C   0  0  0  0  0  0  0  0  0  0  0  0
  -22.1510  -38.8823   -7.2043 C   0  0  0  0  0  0  0  0  0  0  0  0
  -21.7931  -37.9649   -8.2336 C   0  0  0  0  0  0  0  0  0  0  0  0
  -20.8018  -38.3009   -9.1296 C   0  0  0  0  0  0  0  0  0  0  0  0
  -20.1857  -39.5269   -8.9912 C   0  0  0  0  0  0  0  0  0  0  0  0
  -20.5846  -40.4019   -7.9442 C   0  0  0  0  0  0  0  0  0  0  0  0
  -19.1117  -40.1751   -9.7666 C   0  0  0  0  0  0  0  0  0  0  0  0
  -19.2341  -41.4684  -10.0355 O   0  0  0  0  0  0  0  0  0  0  0  0
  -17.9013  -39.6990  -10.3217 N   0  0  0  0  0  0  0  0  0  0  0  0
  -16.8382  -38.9835   -9.6888 C   0  0  1  0  0  0  0  0  0  0  0  0
  -17.2353  -37.6122   -9.1926 C   0  0  0  0  0  0  0  0  0  0  0  0
  -17.4532  -36.6981  -10.3966 C   0  0  2  0  0  0  0  0  0  0  0  0
  -16.2806  -36.7834  -11.3420 C   0  0  0  0  0  0  0  0  0  0  0  0
  -17.5045  -35.2929   -9.8716 C   0  0  0  0  0  0  0  0  0  0  0  0
  -18.0400  -34.2797  -10.8331 C   0  0  0  0  0  0  0  0  0  0  0  0
  -19.4448  -34.5050  -11.2867 C   0  0  0  0  0  0  0  0  0  0  0  0
  -20.3342  -34.6082  -10.0577 C   0  0  0  0  0  0  0  0  0  0  0  0
  -21.7279  -34.8654  -10.5369 C   0  0  0  0  0  0  0  0  0  0  0  0
  -22.7029  -34.7074   -9.4158 C   0  0  0  0  0  0  0  0  0  0  0  0
  -22.2854  -35.3798   -8.1522 C   0  0  0  0  0  0  0  0  0  0  0  0
  -22.6018  -36.7936   -8.1061 N   0  0  0  0  0  0  0  0  0  0  0  0
  -16.0617  -39.7921   -8.6905 C   0  0  2  0  0  0  0  0  0  0  0  0
  -14.9631  -39.2130   -8.1478 O   0  0  0  0  0  0  0  0  0  0  0  0
  -15.6926  -41.1429   -9.2598 C   0  0  0  0  0  0  0  0  0  0  0  0
  -16.3130  -42.1475   -8.4241 N   0  0  0  0  0  0  0  0  0  0  0  0
  -16.4168  -43.4432   -9.0108 C   0  0  1  0  0  0  0  0  0  0  0  0
  -15.1177  -44.0262   -9.4415 C   0  0  0  0  0  0  0  0  0  0  0  0
  -14.2040  -44.3761   -8.2942 C   0  0  0  0  0  0  0  0  0  0  0  0
  -13.5174  -45.6937   -8.6610 C   0  0  0  0  0  0  0  0  0  0  0  0
  -13.1388  -43.3553   -8.0668 C   0  0  0  0  0  0  0  0  0  0  0  0
  -14.9376  -44.6565   -7.1003 O   0  0  0  0  0  0  0  0  0  0  0  0
  -16.2827  -44.9990   -7.1395 C   0  0  0  0  0  0  0  0  0  0  0  0
  -16.8630  -45.8972   -6.2766 C   0  0  0  0  0  0  0  0  0  0  0  0
  -18.2053  -46.2052   -6.3547 C   0  0  0  0  0  0  0  0  0  0  0  0
  -19.0297  -45.6289   -7.3004 C   0  0  0  0  0  0  0  0  0  0  0  0
  -18.4324  -44.7223   -8.1680 C   0  0  0  0  0  0  0  0  0  0  0  0
  -17.0928  -44.4158   -8.0887 C   0  0  0  0  0  0  0  0  0  0  0  0
  -20.4842  -45.9519   -7.3988 C   0  0  0  0  0  0  0  0  0  0  0  0
  -20.7521  -46.7190   -8.6954 C   0  0  0  0  0  0  0  0  0  0  0  0
  -21.3616  -44.7483   -7.2903 C   0  0  0  0  0  0  0  0  0  0  0  0
  1  2  1  0
  2  3  1  0
  3  4  1  0
  4  5  2  0
  5  6  1  0
  6  7  2  0
  7  8  1  0
  8  9  2  0
  8 10  1  0
 10 11  2  0
 10 12  1  0
 12 13  1  0
 13 14  1  1
 14 15  1  0
 15 16  1  6
 15 17  1  0
 17 18  1  0
 18 19  1  0
 19 20  1  0
 20 21  1  0
 21 22  1  0
 22 23  1  0
 23 24  1  0
 13 25  1  0
 25 26  1  6
 25 27  1  0
 27 28  1  0
 29 28  1  1
 29 30  1  0
 30 31  1  0
 31 32  1  0
 31 33  1  0
 31 34  1  0
 34 35  1  0
 35 36  2  0
 36 37  1  0
 37 38  2  0
 38 39  1  0
 39 40  2  0
 38 41  1  0
 41 42  1  0
 41 43  1  0
  9  4  1  0
 24  6  1  0
 40 35  1  0
 40 29  1  0
M  END
$$$$
