
     RDKit          3D

 43 46  0  0  0  0  0  0  0  0999 V2000
  -23.1570  -40.4916   -7.6343 C   0  0  0  0  0  0  0  0  0  0  0  0
  -23.6750  -41.7741   -7.5643 O   0  0  0  0  0  0  0  0  0  0  0  0
  -23.4514  -42.3624   -6.3284 C   0  0  0  0  0  0  0  0  0  0  0  0
  -22.3989  -43.4127   -6.3620 C   0  0  0  0  0  0  0  0  0  0  0  0
  -22.6849  -44.7445   -6.3196 C   0  0  0  0  0  0  0  0  0  0  0  0
  -21.6944  -45.7679   -6.3499 C   0  0  0  0  0  0  0  0  0  0  0  0
  -20.3625  -45.4231   -6.4247 C   0  0  0  0  0  0  0  0  0  0  0  0
  -20.0370  -44.0838   -6.4703 C   0  0  0  0  0  0  0  0  0  0  0  0
  -21.0686  -43.1063   -6.4372 C   0  0  0  0  0  0  0  0  0  0  0  0
  -18.7351  -43.3956   -6.5518 C   0  0  0  0  0  0  0  0  0  0  0  0
  -18.5572  -42.3136   -5.8052 O   0  0  0  0  0  0  0  0  0  0  0  0
  -17.5586  -43.6433   -7.2965 N   0  0  0  0  0  0  0  0  0  0  0  0
  -17.4047  -43.8293   -8.7052 C   0  0  1  0  0  0  0  0  0  0  0  0
  -18.0893  -45.0676   -9.2362 C   0  0  0  0  0  0  0  0  0  0  0  0
  -17.3263  -46.2979   -8.7494 C   0  0  2  0  0  0  0  0  0  0  0  0
  -15.8509  -46.1461   -9.0250 C   0  0  0  0  0  0  0  0  0  0  0  0
  -17.8164  -47.4621   -9.5602 C   0  0  0  0  0  0  0  0  0  0  0  0
  -17.4453  -48.8071   -9.0205 C   0  0  0  0  0  0  0  0  0  0  0  0
  -17.9715  -49.1197   -7.6584 C   0  0  0  0  0  0  0  0  0  0  0  0
  -19.4814  -48.9409   -7.6755 C   0  0  0  0  0  0  0  0  0  0  0  0
  -19.9795  -49.2280   -6.2944 C   0  0  0  0  0  0  0  0  0  0  0  0
  -21.4692  -49.3431   -6.2901 C   0  0  0  0  0  0  0  0  0  0  0  0
  -22.1612  -48.2627   -7.0496 C   0  0  0  0  0  0  0  0  0  0  0  0
  -22.3455  -47.0388   -6.2951 N   0  0  0  0  0  0  0  0  0  0  0  0
  -17.6598  -42.5945   -9.5199 C   0  0  2  0  0  0  0  0  0  0  0  0
  -17.2309  -42.6037  -10.8054 O   0  0  0  0  0  0  0  0  0  0  0  0
  -17.1288  -41.3654   -8.8181 C   0  0  0  0  0  0  0  0  0  0  0  0
  -18.1117  -40.3168   -8.9817 N   0  0  0  0  0  0  0  0  0  0  0  0
  -18.0804  -39.2969   -7.9854 C   0  0  1  0  0  0  0  0  0  0  0  0
  -17.0676  -38.2345   -8.2282 C   0  0  0  0  0  0  0  0  0  0  0  0
  -17.3780  -37.3673   -9.4220 C   0  0  0  0  0  0  0  0  0  0  0  0
  -16.9931  -35.9359   -9.0414 C   0  0  0  0  0  0  0  0  0  0  0  0
  -16.5922  -37.7433  -10.6342 C   0  0  0  0  0  0  0  0  0  0  0  0
  -18.7810  -37.3184   -9.6899 O   0  0  0  0  0  0  0  0  0  0  0  0
  -19.7166  -37.6453   -8.7172 C   0  0  0  0  0  0  0  0  0  0  0  0
  -20.9353  -37.0223   -8.5962 C   0  0  0  0  0  0  0  0  0  0  0  0
  -21.8327  -37.3828   -7.6125 C   0  0  0  0  0  0  0  0  0  0  0  0
  -21.5521  -38.3835   -6.7037 C   0  0  0  0  0  0  0  0  0  0  0  0
  -20.3168  -39.0065   -6.8351 C   0  0  0  0  0  0  0  0  0  0  0  0
  -19.4224  -38.6458   -7.8173 C   0  0  0  0  0  0  0  0  0  0  0  0
  -22.5120  -38.7852   -5.6328 C   0  0  0  0  0  0  0  0  0  0  0  0
  -21.7747  -38.8873   -4.2959 C   0  0  0  0  0  0  0  0  0  0  0  0
  -23.2452  -40.0482   -5.9449 C   0  0  0  0  0  0  0  0  0  0  0  0
  1  2  1  0
  2  3  1  0
  3  4  1  0
  4  5  2  0
  5  6  1  0
  6  7  2  0
  7  8  1  0
  8  9  2  0
  8 10  1  0
 10 11  2  0
 10 12  1  0
 12 13  1  0
 13 14  1  6
 14 15  1  0
 15 16  1  6
 15 17  1  0
 17 18  1  0
 18 19  1  0
 19 20  1  0
 20 21  1  0
 21 22  1  0
 22 23  1  0
 23 24  1  0
 13 25  1  0
 25 26  1  6
 25 27  1  0
 27 28  1  0
 29 28  1  6
 29 30  1  0
 30 31  1  0
 31 32  1  0
 31 33  1  0
 31 34  1  0
 34 35  1  0
 35 36  2  0
 36 37  1  0
 37 38  2  0
 38 39  1  0
 39 40  2  0
 38 41  1  0
 41 42  1  0
 41 43  1  0
  9  4  1  0
 24  6  1  0
 40 35  1  0
 40 29  1  0
M  END
$$$$
