
     RDKit          3D

 43 46  0  0  0  0  0  0  0  0999 V2000
  -22.5016  -40.5086   -2.2731 C   0  0  0  0  0  0  0  0  0  0  0  0
  -22.8200  -41.2449   -3.4020 O   0  0  0  0  0  0  0  0  0  0  0  0
  -22.0182  -40.9163   -4.4849 C   0  0  0  0  0  0  0  0  0  0  0  0
  -21.7384  -42.0720   -5.3782 C   0  0  0  0  0  0  0  0  0  0  0  0
  -22.6669  -42.5830   -6.2351 C   0  0  0  0  0  0  0  0  0  0  0  0
  -22.4223  -43.6888   -7.0991 C   0  0  0  0  0  0  0  0  0  0  0  0
  -21.1868  -44.2985   -7.0901 C   0  0  0  0  0  0  0  0  0  0  0  0
  -20.2227  -43.8062   -6.2357 C   0  0  0  0  0  0  0  0  0  0  0  0
  -20.5240  -42.6995   -5.3959 C   0  0  0  0  0  0  0  0  0  0  0  0
  -18.8294  -44.2223   -5.9890 C   0  0  0  0  0  0  0  0  0  0  0  0
  -18.4020  -44.2465   -4.7334 O   0  0  0  0  0  0  0  0  0  0  0  0
  -17.7776  -44.6247   -6.8444 N   0  0  0  0  0  0  0  0  0  0  0  0
  -17.2416  -43.9594   -7.9902 C   0  0  1  0  0  0  0  0  0  0  0  0
  -18.2204  -43.8291   -9.1344 C   0  0  0  0  0  0  0  0  0  0  0  0
  -18.4477  -45.2100   -9.7461 C   0  0  2  0  0  0  0  0  0  0  0  0
  -17.1282  -45.8832  -10.0322 C   0  0  0  0  0  0  0  0  0  0  0  0
  -19.1356  -44.9941  -11.0626 C   0  0  0  0  0  0  0  0  0  0  0  0
  -19.7446  -46.2209  -11.6645 C   0  0  0  0  0  0  0  0  0  0  0  0
  -20.8102  -46.8751  -10.8482 C   0  0  0  0  0  0  0  0  0  0  0  0
  -21.8777  -45.8386  -10.5349 C   0  0  0  0  0  0  0  0  0  0  0  0
  -22.9154  -46.5091   -9.6912 C   0  0  0  0  0  0  0  0  0  0  0  0
  -24.1278  -45.6444   -9.5696 C   0  0  0  0  0  0  0  0  0  0  0  0
  -23.8242  -44.2170   -9.2642 C   0  0  0  0  0  0  0  0  0  0  0  0
  -23.6057  -43.9505   -7.8562 N   0  0  0  0  0  0  0  0  0  0  0  0
  -16.5000  -42.6928   -7.6748 C   0  0  2  0  0  0  0  0  0  0  0  0
  -15.3196  -42.8154   -7.0204 O   0  0  0  0  0  0  0  0  0  0  0  0
  -17.3880  -41.7164   -6.9379 C   0  0  0  0  0  0  0  0  0  0  0  0
  -17.8756  -40.7602   -7.9076 N   0  0  0  0  0  0  0  0  0  0  0  0
  -18.1990  -39.4750   -7.3807 C   0  0  1  0  0  0  0  0  0  0  0  0
  -17.0744  -38.5014   -7.4078 C   0  0  0  0  0  0  0  0  0  0  0  0
  -16.6786  -38.0762   -8.7993 C   0  0  0  0  0  0  0  0  0  0  0  0
  -16.3534  -36.5824   -8.7299 C   0  0  0  0  0  0  0  0  0  0  0  0
  -15.4636  -38.7841   -9.3002 C   0  0  0  0  0  0  0  0  0  0  0  0
  -17.7712  -38.1789   -9.7147 O   0  0  0  0  0  0  0  0  0  0  0  0
  -19.0866  -38.2196   -9.2719 C   0  0  0  0  0  0  0  0  0  0  0  0
  -20.1345  -37.6463   -9.9511 C   0  0  0  0  0  0  0  0  0  0  0  0
  -21.4258  -37.7135   -9.4706 C   0  0  0  0  0  0  0  0  0  0  0  0
  -21.7287  -38.3575   -8.2875 C   0  0  0  0  0  0  0  0  0  0  0  0
  -20.6614  -38.9334   -7.6088 C   0  0  0  0  0  0  0  0  0  0  0  0
  -19.3735  -38.8656   -8.0896 C   0  0  0  0  0  0  0  0  0  0  0  0
  -23.1207  -38.4387   -7.7533 C   0  0  0  0  0  0  0  0  0  0  0  0
  -23.2136  -37.6526   -6.4439 C   0  0  0  0  0  0  0  0  0  0  0  0
  -23.6015  -39.8417   -7.5782 C   0  0  0  0  0  0  0  0  0  0  0  0
  1  2  1  0
  2  3  1  0
  3  4  1  0
  4  5  2  0
  5  6  1  0
  6  7  2  0
  7  8  1  0
  8  9  2  0
  8 10  1  0
 10 11  2  0
 10 12  1  0
 12 13  1  0
 13 14  1  6
 14 15  1  0
 15 16  1  6
 15 17  1  0
 17 18  1  0
 18 19  1  0
 19 20  1  0
 20 21  1  0
 21 22  1  0
 22 23  1  0
 23 24  1  0
 13 25  1  0
 25 26  1  1
 25 27  1  0
 27 28  1  0
 29 28  1  6
 29 30  1  0
 30 31  1  0
 31 32  1  0
 31 33  1  0
 31 34  1  0
 34 35  1  0
 35 36  2  0
 36 37  1  0
 37 38  2  0
 38 39  1  0
 39 40  2  0
 38 41  1  0
 41 42  1  0
 41 43  1  0
  9  4  1  0
 24  6  1  0
 40 35  1  0
 40 29  1  0
M  END
$$$$
