
     RDKit          3D

 43 46  0  0  0  0  0  0  0  0999 V2000
  -19.4289  -48.1388   -7.7394 C   0  0  0  0  0  0  0  0  0  0  0  0
  -18.2137  -47.4744   -7.7482 O   0  0  0  0  0  0  0  0  0  0  0  0
  -18.1392  -46.5062   -6.7580 C   0  0  0  0  0  0  0  0  0  0  0  0
  -18.9925  -45.3197   -7.0339 C   0  0  0  0  0  0  0  0  0  0  0  0
  -20.2893  -45.2330   -6.6239 C   0  0  0  0  0  0  0  0  0  0  0  0
  -21.1256  -44.1079   -6.8768 C   0  0  0  0  0  0  0  0  0  0  0  0
  -20.6238  -43.0309   -7.5745 C   0  0  0  0  0  0  0  0  0  0  0  0
  -19.3143  -43.0845   -8.0037 C   0  0  0  0  0  0  0  0  0  0  0  0
  -18.5268  -44.2339   -7.7218 C   0  0  0  0  0  0  0  0  0  0  0  0
  -18.4916  -42.1200   -8.7574 C   0  0  0  0  0  0  0  0  0  0  0  0
  -17.6983  -42.5922   -9.7101 O   0  0  0  0  0  0  0  0  0  0  0  0
  -18.3461  -40.7151   -8.6873 N   0  0  0  0  0  0  0  0  0  0  0  0
  -18.0448  -39.8944   -7.5567 C   0  0  1  0  0  0  0  0  0  0  0  0
  -19.1134  -39.9105   -6.4880 C   0  0  0  0  0  0  0  0  0  0  0  0
  -20.3383  -39.1600   -7.0067 C   0  0  2  0  0  0  0  0  0  0  0  0
  -19.9358  -37.8188   -7.5682 C   0  0  0  0  0  0  0  0  0  0  0  0
  -21.2240  -38.9027   -5.8225 C   0  0  0  0  0  0  0  0  0  0  0  0
  -22.6189  -38.4796   -6.1584 C   0  0  0  0  0  0  0  0  0  0  0  0
  -23.4160  -39.4651   -6.9480 C   0  0  0  0  0  0  0  0  0  0  0  0
  -23.4170  -40.7891   -6.2003 C   0  0  0  0  0  0  0  0  0  0  0  0
  -24.1931  -41.7660   -7.0257 C   0  0  0  0  0  0  0  0  0  0  0  0
  -24.4746  -43.0055   -6.2402 C   0  0  0  0  0  0  0  0  0  0  0  0
  -23.2935  -43.5322   -5.4982 C   0  0  0  0  0  0  0  0  0  0  0  0
  -22.4114  -44.3534   -6.3037 N   0  0  0  0  0  0  0  0  0  0  0  0
  -16.6503  -40.0647   -7.0274 C   0  0  2  0  0  0  0  0  0  0  0  0
  -16.5044  -40.1279   -5.6816 O   0  0  0  0  0  0  0  0  0  0  0  0
  -15.7273  -39.0067   -7.5874 C   0  0  0  0  0  0  0  0  0  0  0  0
  -15.1329  -39.5458   -8.7909 N   0  0  0  0  0  0  0  0  0  0  0  0
  -13.8413  -39.0325   -9.1106 C   0  0  1  0  0  0  0  0  0  0  0  0
  -12.7338  -40.0107   -8.9385 C   0  0  0  0  0  0  0  0  0  0  0  0
  -12.7720  -41.1454   -9.9308 C   0  0  0  0  0  0  0  0  0  0  0  0
  -11.3229  -41.4334  -10.3298 C   0  0  0  0  0  0  0  0  0  0  0  0
  -13.3448  -42.3994   -9.3586 C   0  0  0  0  0  0  0  0  0  0  0  0
  -13.4253  -40.7656  -11.1438 O   0  0  0  0  0  0  0  0  0  0  0  0
  -13.5741  -39.4317  -11.5001 C   0  0  0  0  0  0  0  0  0  0  0  0
  -13.5183  -38.9815  -12.7971 C   0  0  0  0  0  0  0  0  0  0  0  0
  -13.6726  -37.6451  -13.1018 C   0  0  0  0  0  0  0  0  0  0  0  0
  -13.8896  -36.6965  -12.1224 C   0  0  0  0  0  0  0  0  0  0  0  0
  -13.9438  -37.1627  -10.8143 C   0  0  0  0  0  0  0  0  0  0  0  0
  -13.7899  -38.4967  -10.5119 C   0  0  0  0  0  0  0  0  0  0  0  0
  -14.0578  -35.2461  -12.4352 C   0  0  0  0  0  0  0  0  0  0  0  0
  -12.8414  -34.4683  -11.9286 C   0  0  0  0  0  0  0  0  0  0  0  0
  -15.3287  -34.6734  -11.8993 C   0  0  0  0  0  0  0  0  0  0  0  0
  1  2  1  0
  2  3  1  0
  3  4  1  0
  4  5  2  0
  5  6  1  0
  6  7  2  0
  7  8  1  0
  8  9  2  0
  8 10  1  0
 10 11  2  0
 10 12  1  0
 12 13  1  0
 13 14  1  1
 14 15  1  0
 15 16  1  1
 15 17  1  0
 17 18  1  0
 18 19  1  0
 19 20  1  0
 20 21  1  0
 21 22  1  0
 22 23  1  0
 23 24  1  0
 13 25  1  0
 25 26  1  1
 25 27  1  0
 27 28  1  0
 29 28  1  6
 29 30  1  0
 30 31  1  0
 31 32  1  0
 31 33  1  0
 31 34  1  0
 34 35  1  0
 35 36  2  0
 36 37  1  0
 37 38  2  0
 38 39  1  0
 39 40  2  0
 38 41  1  0
 41 42  1  0
 41 43  1  0
  9  4  1  0
 24  6  1  0
 40 35  1  0
 40 29  1  0
M  END
$$$$
