
     RDKit          3D

 43 46  0  0  0  0  0  0  0  0999 V2000
  -16.6561  -47.9447   -9.1467 C   0  0  0  0  0  0  0  0  0  0  0  0
  -16.9396  -46.6190   -9.4297 O   0  0  0  0  0  0  0  0  0  0  0  0
  -16.7895  -45.8026   -8.3186 C   0  0  0  0  0  0  0  0  0  0  0  0
  -17.9349  -44.8762   -8.1139 C   0  0  0  0  0  0  0  0  0  0  0  0
  -19.0045  -45.1886   -7.3292 C   0  0  0  0  0  0  0  0  0  0  0  0
  -20.1125  -44.3183   -7.1189 C   0  0  0  0  0  0  0  0  0  0  0  0
  -20.1335  -43.0841   -7.7311 C   0  0  0  0  0  0  0  0  0  0  0  0
  -19.0664  -42.7348   -8.5316 C   0  0  0  0  0  0  0  0  0  0  0  0
  -17.9877  -43.6444   -8.7046 C   0  0  0  0  0  0  0  0  0  0  0  0
  -18.7866  -41.5147   -9.3115 C   0  0  0  0  0  0  0  0  0  0  0  0
  -18.2692  -41.6586  -10.5246 O   0  0  0  0  0  0  0  0  0  0  0  0
  -18.9537  -40.1371   -9.0395 N   0  0  0  0  0  0  0  0  0  0  0  0
  -18.4911  -39.3753   -7.9221 C   0  0  1  0  0  0  0  0  0  0  0  0
  -19.1094  -39.7852   -6.6053 C   0  0  0  0  0  0  0  0  0  0  0  0
  -20.5749  -39.3553   -6.5956 C   0  0  2  0  0  0  0  0  0  0  0  0
  -20.7023  -37.9086   -7.0037 C   0  0  0  0  0  0  0  0  0  0  0  0
  -21.0503  -39.4643   -5.1761 C   0  0  0  0  0  0  0  0  0  0  0  0
  -22.5353  -39.4116   -5.0027 C   0  0  0  0  0  0  0  0  0  0  0  0
  -23.2999  -40.4995   -5.6822 C   0  0  0  0  0  0  0  0  0  0  0  0
  -22.7473  -41.8369   -5.2153 C   0  0  0  0  0  0  0  0  0  0  0  0
  -23.5067  -42.9075   -5.9333 C   0  0  0  0  0  0  0  0  0  0  0  0
  -23.2175  -44.2448   -5.3328 C   0  0  0  0  0  0  0  0  0  0  0  0
  -21.7693  -44.4937   -5.0802 C   0  0  0  0  0  0  0  0  0  0  0  0
  -21.0414  -44.9609   -6.2434 N   0  0  0  0  0  0  0  0  0  0  0  0
  -17.0006  -39.2045   -7.8691 C   0  0  2  0  0  0  0  0  0  0  0  0
  -16.4866  -38.0882   -8.4403 O   0  0  0  0  0  0  0  0  0  0  0  0
  -16.2975  -40.4242   -8.4195 C   0  0  0  0  0  0  0  0  0  0  0  0
  -15.6374  -40.0261   -9.6435 N   0  0  0  0  0  0  0  0  0  0  0  0
  -14.3521  -39.4323   -9.4726 C   0  0  1  0  0  0  0  0  0  0  0  0
  -13.2304  -40.4075   -9.4104 C   0  0  0  0  0  0  0  0  0  0  0  0
  -12.9742  -41.1159  -10.7166 C   0  0  0  0  0  0  0  0  0  0  0  0
  -11.4560  -41.2431  -10.8608 C   0  0  0  0  0  0  0  0  0  0  0  0
  -13.5524  -42.4916  -10.7553 C   0  0  0  0  0  0  0  0  0  0  0  0
  -13.3915  -40.3303  -11.8351 O   0  0  0  0  0  0  0  0  0  0  0  0
  -13.5680  -38.9569  -11.7309 C   0  0  0  0  0  0  0  0  0  0  0  0
  -13.2819  -38.0755  -12.7453 C   0  0  0  0  0  0  0  0  0  0  0  0
  -13.4745  -36.7179  -12.5943 C   0  0  0  0  0  0  0  0  0  0  0  0
  -13.9623  -36.1790  -11.4205 C   0  0  0  0  0  0  0  0  0  0  0  0
  -14.2480  -37.0794  -10.4012 C   0  0  0  0  0  0  0  0  0  0  0  0
  -14.0554  -38.4338  -10.5535 C   0  0  0  0  0  0  0  0  0  0  0  0
  -14.1759  -34.7122  -11.2406 C   0  0  0  0  0  0  0  0  0  0  0  0
  -15.3790  -34.2638  -12.0728 C   0  0  0  0  0  0  0  0  0  0  0  0
  -12.9642  -33.8990  -11.5581 C   0  0  0  0  0  0  0  0  0  0  0  0
  1  2  1  0
  2  3  1  0
  3  4  1  0
  4  5  2  0
  5  6  1  0
  6  7  2  0
  7  8  1  0
  8  9  2  0
  8 10  1  0
 10 11  2  0
 10 12  1  0
 12 13  1  0
 13 14  1  1
 14 15  1  0
 15 16  1  1
 15 17  1  0
 17 18  1  0
 18 19  1  0
 19 20  1  0
 20 21  1  0
 21 22  1  0
 22 23  1  0
 23 24  1  0
 13 25  1  0
 25 26  1  6
 25 27  1  0
 27 28  1  0
 29 28  1  6
 29 30  1  0
 30 31  1  0
 31 32  1  0
 31 33  1  0
 31 34  1  0
 34 35  1  0
 35 36  2  0
 36 37  1  0
 37 38  2  0
 38 39  1  0
 39 40  2  0
 38 41  1  0
 41 42  1  0
 41 43  1  0
  9  4  1  0
 24  6  1  0
 40 35  1  0
 40 29  1  0
M  END
$$$$
