
     RDKit          3D

 43 46  0  0  0  0  0  0  0  0999 V2000
  -16.6511  -47.9370   -8.2782 C   0  0  0  0  0  0  0  0  0  0  0  0
  -16.4001  -46.6124   -8.5955 O   0  0  0  0  0  0  0  0  0  0  0  0
  -16.5190  -45.7785   -7.4937 C   0  0  0  0  0  0  0  0  0  0  0  0
  -17.6405  -44.8088   -7.6118 C   0  0  0  0  0  0  0  0  0  0  0  0
  -18.8463  -44.9989   -7.0057 C   0  0  0  0  0  0  0  0  0  0  0  0
  -19.9346  -44.0851   -7.1050 C   0  0  0  0  0  0  0  0  0  0  0  0
  -19.7910  -42.9350   -7.8500 C   0  0  0  0  0  0  0  0  0  0  0  0
  -18.5831  -42.7100   -8.4763 C   0  0  0  0  0  0  0  0  0  0  0  0
  -17.5321  -43.6577   -8.3415 C   0  0  0  0  0  0  0  0  0  0  0  0
  -18.1144  -41.6012   -9.3283 C   0  0  0  0  0  0  0  0  0  0  0  0
  -17.3946  -41.9040  -10.4007 O   0  0  0  0  0  0  0  0  0  0  0  0
  -18.2667  -40.1972   -9.2537 N   0  0  0  0  0  0  0  0  0  0  0  0
  -17.9790  -39.3148   -8.1668 C   0  0  1  0  0  0  0  0  0  0  0  0
  -18.8410  -39.5466   -6.9472 C   0  0  0  0  0  0  0  0  0  0  0  0
  -20.2641  -39.0864   -7.2566 C   0  0  2  0  0  0  0  0  0  0  0  0
  -20.2522  -37.6980   -7.8467 C   0  0  0  0  0  0  0  0  0  0  0  0
  -20.9908  -39.0101   -5.9455 C   0  0  0  0  0  0  0  0  0  0  0  0
  -22.4790  -38.9037   -6.0547 C   0  0  0  0  0  0  0  0  0  0  0  0
  -23.1565  -40.0494   -6.7317 C   0  0  0  0  0  0  0  0  0  0  0  0
  -22.7562  -41.3315   -6.0190 C   0  0  0  0  0  0  0  0  0  0  0  0
  -23.4208  -42.4648   -6.7345 C   0  0  0  0  0  0  0  0  0  0  0  0
  -23.3033  -43.7246   -5.9397 C   0  0  0  0  0  0  0  0  0  0  0  0
  -21.9364  -43.9727   -5.3985 C   0  0  0  0  0  0  0  0  0  0  0  0
  -21.0328  -44.5949   -6.3460 N   0  0  0  0  0  0  0  0  0  0  0  0
  -16.5161  -39.1719   -7.8616 C   0  0  2  0  0  0  0  0  0  0  0  0
  -16.1505  -38.1414   -7.0609 O   0  0  0  0  0  0  0  0  0  0  0  0
  -15.6999  -39.1388   -9.1335 C   0  0  0  0  0  0  0  0  0  0  0  0
  -14.7204  -40.1995   -9.0453 N   0  0  0  0  0  0  0  0  0  0  0  0
  -13.3741  -39.8029   -9.2983 C   0  0  1  0  0  0  0  0  0  0  0  0
  -12.3609  -40.8511   -9.0018 C   0  0  0  0  0  0  0  0  0  0  0  0
  -12.4229  -42.0314   -9.9381 C   0  0  0  0  0  0  0  0  0  0  0  0
  -10.9778  -42.4489  -10.2202 C   0  0  0  0  0  0  0  0  0  0  0  0
  -13.1293  -43.2061   -9.3471 C   0  0  0  0  0  0  0  0  0  0  0  0
  -12.9626  -41.6693  -11.2108 O   0  0  0  0  0  0  0  0  0  0  0  0
  -12.9820  -40.3492  -11.6411 C   0  0  0  0  0  0  0  0  0  0  0  0
  -12.8054  -39.9749  -12.9513 C   0  0  0  0  0  0  0  0  0  0  0  0
  -12.8333  -38.6490  -13.3305 C   0  0  0  0  0  0  0  0  0  0  0  0
  -13.0390  -37.6354  -12.4160 C   0  0  0  0  0  0  0  0  0  0  0  0
  -13.2161  -38.0251  -11.0938 C   0  0  0  0  0  0  0  0  0  0  0  0
  -13.1882  -39.3487  -10.7169 C   0  0  0  0  0  0  0  0  0  0  0  0
  -13.0714  -36.1954  -12.8099 C   0  0  0  0  0  0  0  0  0  0  0  0
  -13.3729  -36.0801  -14.3055 C   0  0  0  0  0  0  0  0  0  0  0  0
  -11.8221  -35.4602  -12.4508 C   0  0  0  0  0  0  0  0  0  0  0  0
  1  2  1  0
  2  3  1  0
  3  4  1  0
  4  5  2  0
  5  6  1  0
  6  7  2  0
  7  8  1  0
  8  9  2  0
  8 10  1  0
 10 11  2  0
 10 12  1  0
 12 13  1  0
 13 14  1  1
 14 15  1  0
 15 16  1  1
 15 17  1  0
 17 18  1  0
 18 19  1  0
 19 20  1  0
 20 21  1  0
 21 22  1  0
 22 23  1  0
 23 24  1  0
 13 25  1  0
 25 26  1  6
 25 27  1  0
 27 28  1  0
 29 28  1  6
 29 30  1  0
 30 31  1  0
 31 32  1  0
 31 33  1  0
 31 34  1  0
 34 35  1  0
 35 36  2  0
 36 37  1  0
 37 38  2  0
 38 39  1  0
 39 40  2  0
 38 41  1  0
 41 42  1  0
 41 43  1  0
  9  4  1  0
 24  6  1  0
 40 35  1  0
 40 29  1  0
M  END
$$$$
