
     RDKit          3D

 43 46  0  0  0  0  0  0  0  0999 V2000
  -15.2779  -43.2098  -13.3040 C   0  0  0  0  0  0  0  0  0  0  0  0
  -16.5811  -43.6551  -13.1578 O   0  0  0  0  0  0  0  0  0  0  0  0
  -16.9343  -43.8127  -11.8259 C   0  0  0  0  0  0  0  0  0  0  0  0
  -17.8219  -42.7302  -11.3236 C   0  0  0  0  0  0  0  0  0  0  0  0
  -19.1656  -42.8932  -11.1643 C   0  0  0  0  0  0  0  0  0  0  0  0
  -20.0353  -41.8715  -10.6858 C   0  0  0  0  0  0  0  0  0  0  0  0
  -19.5185  -40.6369  -10.3583 C   0  0  0  0  0  0  0  0  0  0  0  0
  -18.1620  -40.4374  -10.5063 C   0  0  0  0  0  0  0  0  0  0  0  0
  -17.3427  -41.4945  -10.9884 C   0  0  0  0  0  0  0  0  0  0  0  0
  -17.3126  -39.2595  -10.2493 C   0  0  0  0  0  0  0  0  0  0  0  0
  -16.3653  -38.9728  -11.1327 O   0  0  0  0  0  0  0  0  0  0  0  0
  -17.2759  -38.3067   -9.2049 N   0  0  0  0  0  0  0  0  0  0  0  0
  -17.1902  -38.5174   -7.7939 C   0  0  1  0  0  0  0  0  0  0  0  0
  -18.3916  -39.2223   -7.2074 C   0  0  0  0  0  0  0  0  0  0  0  0
  -19.5829  -38.2669   -7.2331 C   0  0  2  0  0  0  0  0  0  0  0  0
  -19.2011  -36.9328   -6.6410 C   0  0  0  0  0  0  0  0  0  0  0  0
  -20.6383  -38.8644   -6.3488 C   0  0  0  0  0  0  0  0  0  0  0  0
  -21.9999  -38.2630   -6.4973 C   0  0  0  0  0  0  0  0  0  0  0  0
  -22.6108  -38.3848   -7.8544 C   0  0  0  0  0  0  0  0  0  0  0  0
  -22.6225  -39.8545   -8.2443 C   0  0  0  0  0  0  0  0  0  0  0  0
  -23.2084  -39.9461   -9.6178 C   0  0  0  0  0  0  0  0  0  0  0  0
  -23.5083  -41.3685   -9.9636 C   0  0  0  0  0  0  0  0  0  0  0  0
  -22.4064  -42.3165   -9.6317 C   0  0  0  0  0  0  0  0  0  0  0  0
  -21.3674  -42.3867  -10.6399 N   0  0  0  0  0  0  0  0  0  0  0  0
  -15.8731  -39.0717   -7.3338 C   0  0  2  0  0  0  0  0  0  0  0  0
  -15.5709  -38.9346   -6.0199 O   0  0  0  0  0  0  0  0  0  0  0  0
  -14.7375  -38.5323   -8.1732 C   0  0  0  0  0  0  0  0  0  0  0  0
  -14.7681  -39.2301   -9.4400 N   0  0  0  0  0  0  0  0  0  0  0  0
  -14.7951  -40.6529   -9.3468 C   0  0  1  0  0  0  0  0  0  0  0  0
  -15.4705  -41.3285  -10.4873 C   0  0  0  0  0  0  0  0  0  0  0  0
  -14.7207  -41.2068  -11.7898 C   0  0  0  0  0  0  0  0  0  0  0  0
  -14.8569  -42.5522  -12.5063 C   0  0  0  0  0  0  0  0  0  0  0  0
  -15.2811  -40.1539  -12.6873 C   0  0  0  0  0  0  0  0  0  0  0  0
  -13.3176  -41.0362  -11.5786 O   0  0  0  0  0  0  0  0  0  0  0  0
  -12.7160  -41.3953  -10.3797 C   0  0  0  0  0  0  0  0  0  0  0  0
  -11.4483  -41.9182  -10.2931 C   0  0  0  0  0  0  0  0  0  0  0  0
  -10.8928  -42.2598   -9.0775 C   0  0  0  0  0  0  0  0  0  0  0  0
  -11.5803  -42.0944   -7.8918 C   0  0  0  0  0  0  0  0  0  0  0  0
  -12.8615  -41.5652   -7.9911 C   0  0  0  0  0  0  0  0  0  0  0  0
  -13.4144  -41.2246   -9.2047 C   0  0  0  0  0  0  0  0  0  0  0  0
  -10.9938  -42.4597   -6.5681 C   0  0  0  0  0  0  0  0  0  0  0  0
   -9.5285  -42.8611   -6.7502 C   0  0  0  0  0  0  0  0  0  0  0  0
  -11.7632  -43.5252   -5.8588 C   0  0  0  0  0  0  0  0  0  0  0  0
  1  2  1  0
  2  3  1  0
  3  4  1  0
  4  5  2  0
  5  6  1  0
  6  7  2  0
  7  8  1  0
  8  9  2  0
  8 10  1  0
 10 11  2  0
 10 12  1  0
 12 13  1  0
 13 14  1  6
 14 15  1  0
 15 16  1  1
 15 17  1  0
 17 18  1  0
 18 19  1  0
 19 20  1  0
 20 21  1  0
 21 22  1  0
 22 23  1  0
 23 24  1  0
 13 25  1  0
 25 26  1  1
 25 27  1  0
 27 28  1  0
 29 28  1  6
 29 30  1  0
 30 31  1  0
 31 32  1  0
 31 33  1  0
 31 34  1  0
 34 35  1  0
 35 36  2  0
 36 37  1  0
 37 38  2  0
 38 39  1  0
 39 40  2  0
 38 41  1  0
 41 42  1  0
 41 43  1  0
  9  4  1  0
 24  6  1  0
 40 35  1  0
 40 29  1  0
M  END
$$$$
