
     RDKit          3D

 43 46  0  0  0  0  0  0  0  0999 V2000
  -20.5807  -35.9703  -11.8545 C   0  0  0  0  0  0  0  0  0  0  0  0
  -19.2059  -35.8146  -11.7928 O   0  0  0  0  0  0  0  0  0  0  0  0
  -18.5744  -36.2791  -12.9369 C   0  0  0  0  0  0  0  0  0  0  0  0
  -17.2599  -36.9181  -12.6616 C   0  0  0  0  0  0  0  0  0  0  0  0
  -16.0753  -36.3588  -13.0376 C   0  0  0  0  0  0  0  0  0  0  0  0
  -14.8049  -36.9521  -12.7856 C   0  0  0  0  0  0  0  0  0  0  0  0
  -14.7374  -38.1606  -12.1274 C   0  0  0  0  0  0  0  0  0  0  0  0
  -15.9174  -38.7545  -11.7313 C   0  0  0  0  0  0  0  0  0  0  0  0
  -17.1562  -38.1155  -12.0101 C   0  0  0  0  0  0  0  0  0  0  0  0
  -16.1860  -40.0191  -11.0215 C   0  0  0  0  0  0  0  0  0  0  0  0
  -17.2009  -40.7631  -11.4415 O   0  0  0  0  0  0  0  0  0  0  0  0
  -15.5677  -40.6573   -9.9213 N   0  0  0  0  0  0  0  0  0  0  0  0
  -15.2792  -40.1371   -8.6217 C   0  0  1  0  0  0  0  0  0  0  0  0
  -14.2748  -39.0078   -8.6249 C   0  0  0  0  0  0  0  0  0  0  0  0
  -12.8982  -39.5756   -8.9646 C   0  0  2  0  0  0  0  0  0  0  0  0
  -12.5948  -40.7743   -8.1003 C   0  0  0  0  0  0  0  0  0  0  0  0
  -11.8941  -38.5127   -8.6255 C   0  0  0  0  0  0  0  0  0  0  0  0
  -10.5261  -38.7349   -9.1888 C   0  0  0  0  0  0  0  0  0  0  0  0
  -10.4465  -38.7888  -10.6790 C   0  0  0  0  0  0  0  0  0  0  0  0
  -11.0620  -37.5156  -11.2378 C   0  0  0  0  0  0  0  0  0  0  0  0
  -10.9993  -37.6083  -12.7297 C   0  0  0  0  0  0  0  0  0  0  0  0
  -11.3294  -36.2892  -13.3490 C   0  0  0  0  0  0  0  0  0  0  0  0
  -12.5293  -35.6283  -12.7604 C   0  0  0  0  0  0  0  0  0  0  0  0
  -13.7868  -36.0966  -13.3087 N   0  0  0  0  0  0  0  0  0  0  0  0
  -16.4950  -39.8696   -7.7827 C   0  0  2  0  0  0  0  0  0  0  0  0
  -16.3280  -39.8653   -6.4378 O   0  0  0  0  0  0  0  0  0  0  0  0
  -17.6215  -40.8084   -8.1497 C   0  0  0  0  0  0  0  0  0  0  0  0
  -18.2388  -40.2924   -9.3518 N   0  0  0  0  0  0  0  0  0  0  0  0
  -19.3853  -39.4713   -9.1390 C   0  0  1  0  0  0  0  0  0  0  0  0
  -20.0637  -39.0314  -10.3878 C   0  0  0  0  0  0  0  0  0  0  0  0
  -20.7333  -40.1550  -11.1380 C   0  0  0  0  0  0  0  0  0  0  0  0
  -22.0516  -39.6001  -11.6822 C   0  0  0  0  0  0  0  0  0  0  0  0
  -19.9293  -40.6397  -12.2986 C   0  0  0  0  0  0  0  0  0  0  0  0
  -21.1089  -41.2232  -10.2661 O   0  0  0  0  0  0  0  0  0  0  0  0
  -21.2446  -41.0287   -8.8979 C   0  0  0  0  0  0  0  0  0  0  0  0
  -22.1867  -41.6690   -8.1297 C   0  0  0  0  0  0  0  0  0  0  0  0
  -22.2825  -41.4429   -6.7723 C   0  0  0  0  0  0  0  0  0  0  0  0
  -21.4399  -40.5649   -6.1203 C   0  0  0  0  0  0  0  0  0  0  0  0
  -20.4911  -39.9225   -6.9069 C   0  0  0  0  0  0  0  0  0  0  0  0
  -20.3966  -40.1494   -8.2612 C   0  0  0  0  0  0  0  0  0  0  0  0
  -21.5307  -40.3083   -4.6521 C   0  0  0  0  0  0  0  0  0  0  0  0
  -20.9858  -38.9127   -4.3413 C   0  0  0  0  0  0  0  0  0  0  0  0
  -20.8481  -41.3518   -3.8303 C   0  0  0  0  0  0  0  0  0  0  0  0
  1  2  1  0
  2  3  1  0
  3  4  1  0
  4  5  2  0
  5  6  1  0
  6  7  2  0
  7  8  1  0
  8  9  2  0
  8 10  1  0
 10 11  2  0
 10 12  1  0
 12 13  1  0
 13 14  1  6
 14 15  1  0
 15 16  1  1
 15 17  1  0
 17 18  1  0
 18 19  1  0
 19 20  1  0
 20 21  1  0
 21 22  1  0
 22 23  1  0
 23 24  1  0
 13 25  1  0
 25 26  1  1
 25 27  1  0
 27 28  1  0
 29 28  1  6
 29 30  1  0
 30 31  1  0
 31 32  1  0
 31 33  1  0
 31 34  1  0
 34 35  1  0
 35 36  2  0
 36 37  1  0
 37 38  2  0
 38 39  1  0
 39 40  2  0
 38 41  1  0
 41 42  1  0
 41 43  1  0
  9  4  1  0
 24  6  1  0
 40 35  1  0
 40 29  1  0
M  END
$$$$
