
     RDKit          3D

 43 46  0  0  0  0  0  0  0  0999 V2000
  -20.6203  -45.1608   -8.0954 C   0  0  0  0  0  0  0  0  0  0  0  0
  -21.1447  -44.6817   -9.2843 O   0  0  0  0  0  0  0  0  0  0  0  0
  -20.6534  -43.4248   -9.6045 C   0  0  0  0  0  0  0  0  0  0  0  0
  -19.1806  -43.4072   -9.8107 C   0  0  0  0  0  0  0  0  0  0  0  0
  -18.5956  -43.7877  -10.9814 C   0  0  0  0  0  0  0  0  0  0  0  0
  -17.1882  -43.7798  -11.2019 C   0  0  0  0  0  0  0  0  0  0  0  0
  -16.3442  -43.3705  -10.1926 C   0  0  0  0  0  0  0  0  0  0  0  0
  -16.9025  -42.9775   -8.9945 C   0  0  0  0  0  0  0  0  0  0  0  0
  -18.3145  -43.0061   -8.8320 C   0  0  0  0  0  0  0  0  0  0  0  0
  -16.2914  -42.4948   -7.7420 C   0  0  0  0  0  0  0  0  0  0  0  0
  -16.7870  -42.9437   -6.5963 O   0  0  0  0  0  0  0  0  0  0  0  0
  -15.2295  -41.6015   -7.4692 N   0  0  0  0  0  0  0  0  0  0  0  0
  -15.0354  -40.2627   -7.9304 C   0  0  1  0  0  0  0  0  0  0  0  0
  -14.8401  -40.1538   -9.4251 C   0  0  0  0  0  0  0  0  0  0  0  0
  -13.4721  -40.7298   -9.7851 C   0  0  2  0  0  0  0  0  0  0  0  0
  -12.4027  -40.1410   -8.8989 C   0  0  0  0  0  0  0  0  0  0  0  0
  -13.1759  -40.2989  -11.1921 C   0  0  0  0  0  0  0  0  0  0  0  0
  -12.0473  -41.0276  -11.8503 C   0  0  0  0  0  0  0  0  0  0  0  0
  -12.2345  -42.5017  -11.9981 C   0  0  0  0  0  0  0  0  0  0  0  0
  -13.5411  -42.7470  -12.7363 C   0  0  0  0  0  0  0  0  0  0  0  0
  -13.7210  -44.2283  -12.8429 C   0  0  0  0  0  0  0  0  0  0  0  0
  -14.8320  -44.5525  -13.7879 C   0  0  0  0  0  0  0  0  0  0  0  0
  -16.0605  -43.7334  -13.5804 C   0  0  0  0  0  0  0  0  0  0  0  0
  -16.9294  -44.2316  -12.5326 N   0  0  0  0  0  0  0  0  0  0  0  0
  -16.0130  -39.2713   -7.3691 C   0  0  2  0  0  0  0  0  0  0  0  0
  -15.5195  -38.3193   -6.5403 O   0  0  0  0  0  0  0  0  0  0  0  0
  -17.1709  -39.9749   -6.6990 C   0  0  0  0  0  0  0  0  0  0  0  0
  -18.3382  -39.7711   -7.5288 N   0  0  0  0  0  0  0  0  0  0  0  0
  -19.2523  -38.7840   -7.0558 C   0  0  1  0  0  0  0  0  0  0  0  0
  -19.0822  -37.4436   -7.6784 C   0  0  0  0  0  0  0  0  0  0  0  0
  -19.4533  -37.4059   -9.1394 C   0  0  0  0  0  0  0  0  0  0  0  0
  -20.1632  -36.0720   -9.3815 C   0  0  0  0  0  0  0  0  0  0  0  0
  -18.2662  -37.4608  -10.0426 C   0  0  0  0  0  0  0  0  0  0  0  0
  -20.4187  -38.4079   -9.4659 O   0  0  0  0  0  0  0  0  0  0  0  0
  -21.2119  -38.9959   -8.4896 C   0  0  0  0  0  0  0  0  0  0  0  0
  -22.5157  -39.3762   -8.6980 C   0  0  0  0  0  0  0  0  0  0  0  0
  -23.2642  -39.9577   -7.6958 C   0  0  0  0  0  0  0  0  0  0  0  0
  -22.7429  -40.1854   -6.4378 C   0  0  0  0  0  0  0  0  0  0  0  0
  -21.4237  -39.7965   -6.2380 C   0  0  0  0  0  0  0  0  0  0  0  0
  -20.6779  -39.2166   -7.2391 C   0  0  0  0  0  0  0  0  0  0  0  0
  -23.5398  -40.8129   -5.3420 C   0  0  0  0  0  0  0  0  0  0  0  0
  -23.5755  -39.8756   -4.1331 C   0  0  0  0  0  0  0  0  0  0  0  0
  -23.0470  -42.1702   -4.9608 C   0  0  0  0  0  0  0  0  0  0  0  0
  1  2  1  0
  2  3  1  0
  3  4  1  0
  4  5  2  0
  5  6  1  0
  6  7  2  0
  7  8  1  0
  8  9  2  0
  8 10  1  0
 10 11  2  0
 10 12  1  0
 12 13  1  0
 13 14  1  6
 14 15  1  0
 15 16  1  1
 15 17  1  0
 17 18  1  0
 18 19  1  0
 19 20  1  0
 20 21  1  0
 21 22  1  0
 22 23  1  0
 23 24  1  0
 13 25  1  0
 25 26  1  1
 25 27  1  0
 27 28  1  0
 29 28  1  6
 29 30  1  0
 30 31  1  0
 31 32  1  0
 31 33  1  0
 31 34  1  0
 34 35  1  0
 35 36  2  0
 36 37  1  0
 37 38  2  0
 38 39  1  0
 39 40  2  0
 38 41  1  0
 41 42  1  0
 41 43  1  0
  9  4  1  0
 24  6  1  0
 40 35  1  0
 40 29  1  0
M  END
$$$$
