
     RDKit          3D

 43 46  0  0  0  0  0  0  0  0999 V2000
  -15.2061  -46.7404   -8.5050 C   0  0  0  0  0  0  0  0  0  0  0  0
  -16.1141  -45.6954   -8.4664 O   0  0  0  0  0  0  0  0  0  0  0  0
  -17.2611  -46.0241   -7.7593 C   0  0  0  0  0  0  0  0  0  0  0  0
  -18.2854  -44.9458   -7.7712 C   0  0  0  0  0  0  0  0  0  0  0  0
  -19.5149  -45.0907   -7.2015 C   0  0  0  0  0  0  0  0  0  0  0  0
  -20.5117  -44.0730   -7.2010 C   0  0  0  0  0  0  0  0  0  0  0  0
  -20.2479  -42.8626   -7.8041 C   0  0  0  0  0  0  0  0  0  0  0  0
  -19.0126  -42.6810   -8.3898 C   0  0  0  0  0  0  0  0  0  0  0  0
  -18.0568  -43.7329   -8.3592 C   0  0  0  0  0  0  0  0  0  0  0  0
  -18.4270  -41.5296   -9.1013 C   0  0  0  0  0  0  0  0  0  0  0  0
  -17.7180  -41.7717  -10.1961 O   0  0  0  0  0  0  0  0  0  0  0  0
  -18.4498  -40.1358   -8.8628 N   0  0  0  0  0  0  0  0  0  0  0  0
  -18.1023  -39.4173   -7.6772 C   0  0  1  0  0  0  0  0  0  0  0  0
  -19.0051  -39.7075   -6.5004 C   0  0  0  0  0  0  0  0  0  0  0  0
  -20.3732  -39.0821   -6.7648 C   0  0  2  0  0  0  0  0  0  0  0  0
  -20.2214  -37.6417   -7.1869 C   0  0  0  0  0  0  0  0  0  0  0  0
  -21.1146  -39.0911   -5.4597 C   0  0  0  0  0  0  0  0  0  0  0  0
  -22.5841  -38.8327   -5.5676 C   0  0  0  0  0  0  0  0  0  0  0  0
  -23.3519  -39.8225   -6.3804 C   0  0  0  0  0  0  0  0  0  0  0  0
  -23.0859  -41.2110   -5.8206 C   0  0  0  0  0  0  0  0  0  0  0  0
  -23.8390  -42.1854   -6.6701 C   0  0  0  0  0  0  0  0  0  0  0  0
  -23.8541  -43.5347   -6.0284 C   0  0  0  0  0  0  0  0  0  0  0  0
  -22.5266  -43.9721   -5.5094 C   0  0  0  0  0  0  0  0  0  0  0  0
  -21.6668  -44.5619   -6.5163 N   0  0  0  0  0  0  0  0  0  0  0  0
  -16.6385  -39.4496   -7.3455 C   0  0  2  0  0  0  0  0  0  0  0  0
  -16.2550  -38.8598   -6.1872 O   0  0  0  0  0  0  0  0  0  0  0  0
  -15.8137  -38.9037   -8.4886 C   0  0  0  0  0  0  0  0  0  0  0  0
  -15.1574  -40.0266   -9.1218 N   0  0  0  0  0  0  0  0  0  0  0  0
  -13.7628  -39.8541   -9.3652 C   0  0  1  0  0  0  0  0  0  0  0  0
  -12.9593  -41.0989   -9.2313 C   0  0  0  0  0  0  0  0  0  0  0  0
  -13.2458  -42.1197  -10.3035 C   0  0  0  0  0  0  0  0  0  0  0  0
  -11.9052  -42.7552  -10.6790 C   0  0  0  0  0  0  0  0  0  0  0  0
  -14.1533  -43.2105   -9.8403 C   0  0  0  0  0  0  0  0  0  0  0  0
  -13.7185  -41.5066  -11.5047 O   0  0  0  0  0  0  0  0  0  0  0  0
  -13.4960  -40.1615  -11.7683 C   0  0  0  0  0  0  0  0  0  0  0  0
  -13.2628  -39.6629  -13.0273 C   0  0  0  0  0  0  0  0  0  0  0  0
  -13.0473  -38.3171  -13.2393 C   0  0  0  0  0  0  0  0  0  0  0  0
  -13.0549  -37.4072  -12.2010 C   0  0  0  0  0  0  0  0  0  0  0  0
  -13.2914  -37.9223  -10.9321 C   0  0  0  0  0  0  0  0  0  0  0  0
  -13.5065  -39.2655  -10.7221 C   0  0  0  0  0  0  0  0  0  0  0  0
  -12.8228  -35.9475  -12.4133 C   0  0  0  0  0  0  0  0  0  0  0  0
  -11.4377  -35.5670  -11.8860 C   0  0  0  0  0  0  0  0  0  0  0  0
  -13.8864  -35.0899  -11.8103 C   0  0  0  0  0  0  0  0  0  0  0  0
  1  2  1  0
  2  3  1  0
  3  4  1  0
  4  5  2  0
  5  6  1  0
  6  7  2  0
  7  8  1  0
  8  9  2  0
  8 10  1  0
 10 11  2  0
 10 12  1  0
 12 13  1  0
 13 14  1  1
 14 15  1  0
 15 16  1  1
 15 17  1  0
 17 18  1  0
 18 19  1  0
 19 20  1  0
 20 21  1  0
 21 22  1  0
 22 23  1  0
 23 24  1  0
 13 25  1  0
 25 26  1  1
 25 27  1  0
 27 28  1  0
 29 28  1  6
 29 30  1  0
 30 31  1  0
 31 32  1  0
 31 33  1  0
 31 34  1  0
 34 35  1  0
 35 36  2  0
 36 37  1  0
 37 38  2  0
 38 39  1  0
 39 40  2  0
 38 41  1  0
 41 42  1  0
 41 43  1  0
  9  4  1  0
 24  6  1  0
 40 35  1  0
 40 29  1  0
M  END
$$$$
