
     RDKit          3D

 43 46  0  0  0  0  0  0  0  0999 V2000
  -16.6881  -48.1006   -8.2246 C   0  0  0  0  0  0  0  0  0  0  0  0
  -17.8689  -47.4764   -7.8583 O   0  0  0  0  0  0  0  0  0  0  0  0
  -17.6628  -46.4741   -6.9221 C   0  0  0  0  0  0  0  0  0  0  0  0
  -18.5928  -45.3243   -7.0812 C   0  0  0  0  0  0  0  0  0  0  0  0
  -19.8503  -45.3153   -6.5560 C   0  0  0  0  0  0  0  0  0  0  0  0
  -20.7584  -44.2266   -6.6957 C   0  0  0  0  0  0  0  0  0  0  0  0
  -20.3727  -43.1053   -7.3974 C   0  0  0  0  0  0  0  0  0  0  0  0
  -19.1058  -43.0800   -7.9417 C   0  0  0  0  0  0  0  0  0  0  0  0
  -18.2426  -44.1963   -7.7696 C   0  0  0  0  0  0  0  0  0  0  0  0
  -18.4006  -42.0533   -8.7313 C   0  0  0  0  0  0  0  0  0  0  0  0
  -17.6742  -42.4562   -9.7656 O   0  0  0  0  0  0  0  0  0  0  0  0
  -18.3163  -40.6455   -8.6261 N   0  0  0  0  0  0  0  0  0  0  0  0
  -17.9543  -39.8449   -7.4988 C   0  0  1  0  0  0  0  0  0  0  0  0
  -18.9210  -39.9467   -6.3416 C   0  0  0  0  0  0  0  0  0  0  0  0
  -20.2217  -39.2436   -6.7246 C   0  0  2  0  0  0  0  0  0  0  0  0
  -19.9351  -37.8677   -7.2729 C   0  0  0  0  0  0  0  0  0  0  0  0
  -21.0090  -39.0669   -5.4589 C   0  0  0  0  0  0  0  0  0  0  0  0
  -22.4470  -38.7046   -5.6562 C   0  0  0  0  0  0  0  0  0  0  0  0
  -23.2638  -39.7049   -6.4060 C   0  0  0  0  0  0  0  0  0  0  0  0
  -23.1350  -41.0491   -5.7069 C   0  0  0  0  0  0  0  0  0  0  0  0
  -23.9346  -42.0387   -6.4940 C   0  0  0  0  0  0  0  0  0  0  0  0
  -24.0855  -43.3137   -5.7297 C   0  0  0  0  0  0  0  0  0  0  0  0
  -22.8191  -43.8023   -5.1129 C   0  0  0  0  0  0  0  0  0  0  0  0
  -21.9746  -44.5536   -6.0205 N   0  0  0  0  0  0  0  0  0  0  0  0
  -16.5116  -39.9606   -7.1004 C   0  0  2  0  0  0  0  0  0  0  0  0
  -15.9224  -38.8535   -6.5868 O   0  0  0  0  0  0  0  0  0  0  0  0
  -15.6772  -40.4943   -8.2423 C   0  0  0  0  0  0  0  0  0  0  0  0
  -14.9139  -39.3863   -8.7736 N   0  0  0  0  0  0  0  0  0  0  0  0
  -14.1811  -39.6713   -9.9634 C   0  0  1  0  0  0  0  0  0  0  0  0
  -14.9234  -40.4916  -10.9581 C   0  0  0  0  0  0  0  0  0  0  0  0
  -16.0896  -39.7698  -11.5847 C   0  0  0  0  0  0  0  0  0  0  0  0
  -16.1168  -40.1711  -13.0613 C   0  0  0  0  0  0  0  0  0  0  0  0
  -17.4014  -40.1529  -10.9843 C   0  0  0  0  0  0  0  0  0  0  0  0
  -15.8966  -38.3538  -11.5857 O   0  0  0  0  0  0  0  0  0  0  0  0
  -14.6328  -37.7942  -11.4510 C   0  0  0  0  0  0  0  0  0  0  0  0
  -14.2407  -36.6421  -12.0888 C   0  0  0  0  0  0  0  0  0  0  0  0
  -12.9730  -36.1241  -11.9231 C   0  0  0  0  0  0  0  0  0  0  0  0
  -12.0382  -36.7354  -11.1116 C   0  0  0  0  0  0  0  0  0  0  0  0
  -12.4453  -37.9000  -10.4718 C   0  0  0  0  0  0  0  0  0  0  0  0
  -13.7107  -38.4156  -10.6379 C   0  0  0  0  0  0  0  0  0  0  0  0
  -10.6618  -36.1883  -10.9221 C   0  0  0  0  0  0  0  0  0  0  0  0
  -10.7023  -35.0371   -9.9149 C   0  0  0  0  0  0  0  0  0  0  0  0
  -10.0163  -35.7666  -12.2011 C   0  0  0  0  0  0  0  0  0  0  0  0
  1  2  1  0
  2  3  1  0
  3  4  1  0
  4  5  2  0
  5  6  1  0
  6  7  2  0
  7  8  1  0
  8  9  2  0
  8 10  1  0
 10 11  2  0
 10 12  1  0
 12 13  1  0
 13 14  1  1
 14 15  1  0
 15 16  1  1
 15 17  1  0
 17 18  1  0
 18 19  1  0
 19 20  1  0
 20 21  1  0
 21 22  1  0
 22 23  1  0
 23 24  1  0
 13 25  1  0
 25 26  1  6
 25 27  1  0
 27 28  1  0
 29 28  1  1
 29 30  1  0
 30 31  1  0
 31 32  1  0
 31 33  1  0
 31 34  1  0
 34 35  1  0
 35 36  2  0
 36 37  1  0
 37 38  2  0
 38 39  1  0
 39 40  2  0
 38 41  1  0
 41 42  1  0
 41 43  1  0
  9  4  1  0
 24  6  1  0
 40 35  1  0
 40 29  1  0
M  END
$$$$
