
     RDKit          3D

 43 46  0  0  0  0  0  0  0  0999 V2000
  -20.2786  -35.8846  -10.5889 C   0  0  0  0  0  0  0  0  0  0  0  0
  -20.0091  -36.7328  -11.6500 O   0  0  0  0  0  0  0  0  0  0  0  0
  -19.0866  -36.1907  -12.5325 C   0  0  0  0  0  0  0  0  0  0  0  0
  -17.7581  -36.8566  -12.4730 C   0  0  0  0  0  0  0  0  0  0  0  0
  -16.6290  -36.2968  -12.9917 C   0  0  0  0  0  0  0  0  0  0  0  0
  -15.3466  -36.9155  -12.9471 C   0  0  0  0  0  0  0  0  0  0  0  0
  -15.2082  -38.1511  -12.3533 C   0  0  0  0  0  0  0  0  0  0  0  0
  -16.3304  -38.7465  -11.8168 C   0  0  0  0  0  0  0  0  0  0  0  0
  -17.5846  -38.0813  -11.8906 C   0  0  0  0  0  0  0  0  0  0  0  0
  -16.5183  -40.0361  -11.1263 C   0  0  0  0  0  0  0  0  0  0  0  0
  -17.5958  -40.7495  -11.4263 O   0  0  0  0  0  0  0  0  0  0  0  0
  -15.7617  -40.7270  -10.1516 N   0  0  0  0  0  0  0  0  0  0  0  0
  -15.2822  -40.2650   -8.8870 C   0  0  1  0  0  0  0  0  0  0  0  0
  -14.2682  -39.1489   -8.9889 C   0  0  0  0  0  0  0  0  0  0  0  0
  -12.9643  -39.7189   -9.5435 C   0  0  2  0  0  0  0  0  0  0  0  0
  -12.5629  -40.9562   -8.7794 C   0  0  0  0  0  0  0  0  0  0  0  0
  -11.9031  -38.6834   -9.3095 C   0  0  0  0  0  0  0  0  0  0  0  0
  -10.6333  -38.8988  -10.0704 C   0  0  0  0  0  0  0  0  0  0  0  0
  -10.7671  -38.8915  -11.5577 C   0  0  0  0  0  0  0  0  0  0  0  0
  -11.4326  -37.5887  -11.9723 C   0  0  0  0  0  0  0  0  0  0  0  0
  -11.5841  -37.6201  -13.4604 C   0  0  0  0  0  0  0  0  0  0  0  0
  -11.9749  -36.2724  -13.9738 C   0  0  0  0  0  0  0  0  0  0  0  0
  -13.0669  -35.6219  -13.1945 C   0  0  0  0  0  0  0  0  0  0  0  0
  -14.3978  -36.0515  -13.5758 N   0  0  0  0  0  0  0  0  0  0  0  0
  -16.3615  -40.0178   -7.8732 C   0  0  2  0  0  0  0  0  0  0  0  0
  -15.9677  -39.7720   -6.6000 O   0  0  0  0  0  0  0  0  0  0  0  0
  -17.3769  -41.1376   -7.8817 C   0  0  0  0  0  0  0  0  0  0  0  0
  -18.6644  -40.5503   -8.1815 N   0  0  0  0  0  0  0  0  0  0  0  0
  -19.5171  -40.3537   -7.0555 C   0  0  1  0  0  0  0  0  0  0  0  0
  -19.7035  -38.9290   -6.6698 C   0  0  0  0  0  0  0  0  0  0  0  0
  -20.4847  -38.1281   -7.6806 C   0  0  0  0  0  0  0  0  0  0  0  0
  -21.3946  -37.1849   -6.8903 C   0  0  0  0  0  0  0  0  0  0  0  0
  -19.6140  -37.2917   -8.5584 C   0  0  0  0  0  0  0  0  0  0  0  0
  -21.3707  -38.9538   -8.4392 O   0  0  0  0  0  0  0  0  0  0  0  0
  -21.7664  -40.2039   -7.9821 C   0  0  0  0  0  0  0  0  0  0  0  0
  -23.0166  -40.7311   -8.1993 C   0  0  0  0  0  0  0  0  0  0  0  0
  -23.3632  -41.9792   -7.7251 C   0  0  0  0  0  0  0  0  0  0  0  0
  -22.4747  -42.7580   -7.0108 C   0  0  0  0  0  0  0  0  0  0  0  0
  -21.2135  -42.2150   -6.7967 C   0  0  0  0  0  0  0  0  0  0  0  0
  -20.8690  -40.9695   -7.2707 C   0  0  0  0  0  0  0  0  0  0  0  0
  -22.8342  -44.1104   -6.4900 C   0  0  0  0  0  0  0  0  0  0  0  0
  -23.8406  -43.9681   -5.3462 C   0  0  0  0  0  0  0  0  0  0  0  0
  -21.6467  -44.9127   -6.0699 C   0  0  0  0  0  0  0  0  0  0  0  0
  1  2  1  0
  2  3  1  0
  3  4  1  0
  4  5  2  0
  5  6  1  0
  6  7  2  0
  7  8  1  0
  8  9  2  0
  8 10  1  0
 10 11  2  0
 10 12  1  0
 12 13  1  0
 13 14  1  6
 14 15  1  0
 15 16  1  1
 15 17  1  0
 17 18  1  0
 18 19  1  0
 19 20  1  0
 20 21  1  0
 21 22  1  0
 22 23  1  0
 23 24  1  0
 13 25  1  0
 25 26  1  1
 25 27  1  0
 27 28  1  0
 29 28  1  6
 29 30  1  0
 30 31  1  0
 31 32  1  0
 31 33  1  0
 31 34  1  0
 34 35  1  0
 35 36  2  0
 36 37  1  0
 37 38  2  0
 38 39  1  0
 39 40  2  0
 38 41  1  0
 41 42  1  0
 41 43  1  0
  9  4  1  0
 24  6  1  0
 40 35  1  0
 40 29  1  0
M  END
$$$$
