
     RDKit          3D

 43 46  0  0  0  0  0  0  0  0999 V2000
  -18.2536  -48.4368   -7.5334 C   0  0  0  0  0  0  0  0  0  0  0  0
  -18.0435  -47.3792   -8.4025 O   0  0  0  0  0  0  0  0  0  0  0  0
  -17.6631  -46.2229   -7.7379 C   0  0  0  0  0  0  0  0  0  0  0  0
  -18.7520  -45.2138   -7.6487 C   0  0  0  0  0  0  0  0  0  0  0  0
  -19.6633  -45.2003   -6.6354 C   0  0  0  0  0  0  0  0  0  0  0  0
  -20.7146  -44.2449   -6.5294 C   0  0  0  0  0  0  0  0  0  0  0  0
  -20.8442  -43.2669   -7.4913 C   0  0  0  0  0  0  0  0  0  0  0  0
  -19.9380  -43.2502   -8.5307 C   0  0  0  0  0  0  0  0  0  0  0  0
  -18.9090  -44.2295   -8.5844 C   0  0  0  0  0  0  0  0  0  0  0  0
  -19.8019  -42.3560   -9.6956 C   0  0  0  0  0  0  0  0  0  0  0  0
  -19.5113  -42.9041  -10.8682 O   0  0  0  0  0  0  0  0  0  0  0  0
  -19.9160  -40.9554   -9.8544 N   0  0  0  0  0  0  0  0  0  0  0  0
  -19.2592  -39.9092   -9.1354 C   0  0  1  0  0  0  0  0  0  0  0  0
  -19.6309  -39.8472   -7.6718 C   0  0  0  0  0  0  0  0  0  0  0  0
  -21.0704  -39.3512   -7.5510 C   0  0  2  0  0  0  0  0  0  0  0  0
  -21.2677  -38.1014   -8.3727 C   0  0  0  0  0  0  0  0  0  0  0  0
  -21.2828  -38.9800   -6.1122 C   0  0  0  0  0  0  0  0  0  0  0  0
  -22.7123  -38.7887   -5.7148 C   0  0  0  0  0  0  0  0  0  0  0  0
  -23.5877  -39.9884   -5.8701 C   0  0  0  0  0  0  0  0  0  0  0  0
  -22.9615  -41.1410   -5.1010 C   0  0  0  0  0  0  0  0  0  0  0  0
  -23.8387  -42.3368   -5.2984 C   0  0  0  0  0  0  0  0  0  0  0  0
  -23.4475  -43.4317   -4.3600 C   0  0  0  0  0  0  0  0  0  0  0  0
  -21.9778  -43.6728   -4.2914 C   0  0  0  0  0  0  0  0  0  0  0  0
  -21.4714  -44.5239   -5.3498 N   0  0  0  0  0  0  0  0  0  0  0  0
  -17.7833  -39.8179   -9.3943 C   0  0  2  0  0  0  0  0  0  0  0  0
  -17.3198  -40.3890  -10.5325 O   0  0  0  0  0  0  0  0  0  0  0  0
  -16.9949  -40.3335   -8.2121 C   0  0  0  0  0  0  0  0  0  0  0  0
  -15.6036  -40.3737   -8.6058 N   0  0  0  0  0  0  0  0  0  0  0  0
  -14.8610  -39.1885   -8.3268 C   0  0  1  0  0  0  0  0  0  0  0  0
  -13.4902  -39.4338   -7.8033 C   0  0  0  0  0  0  0  0  0  0  0  0
  -12.5575  -40.0448   -8.8184 C   0  0  0  0  0  0  0  0  0  0  0  0
  -11.1907  -39.3868   -8.6161 C   0  0  0  0  0  0  0  0  0  0  0  0
  -12.3857  -41.5166   -8.6386 C   0  0  0  0  0  0  0  0  0  0  0  0
  -12.9387  -39.7116  -10.1548 O   0  0  0  0  0  0  0  0  0  0  0  0
  -13.7575  -38.6232  -10.4253 C   0  0  0  0  0  0  0  0  0  0  0  0
  -13.6285  -37.8352  -11.5434 C   0  0  0  0  0  0  0  0  0  0  0  0
  -14.4673  -36.7636  -11.7688 C   0  0  0  0  0  0  0  0  0  0  0  0
  -15.4744  -36.4302  -10.8853 C   0  0  0  0  0  0  0  0  0  0  0  0
  -15.5957  -37.2336   -9.7577 C   0  0  0  0  0  0  0  0  0  0  0  0
  -14.7580  -38.3027   -9.5343 C   0  0  0  0  0  0  0  0  0  0  0  0
  -16.3903  -35.2733  -11.1140 C   0  0  0  0  0  0  0  0  0  0  0  0
  -15.7836  -34.0103  -10.4992 C   0  0  0  0  0  0  0  0  0  0  0  0
  -17.7748  -35.5112  -10.6072 C   0  0  0  0  0  0  0  0  0  0  0  0
  1  2  1  0
  2  3  1  0
  3  4  1  0
  4  5  2  0
  5  6  1  0
  6  7  2  0
  7  8  1  0
  8  9  2  0
  8 10  1  0
 10 11  2  0
 10 12  1  0
 12 13  1  0
 13 14  1  1
 14 15  1  0
 15 16  1  6
 15 17  1  0
 17 18  1  0
 18 19  1  0
 19 20  1  0
 20 21  1  0
 21 22  1  0
 22 23  1  0
 23 24  1  0
 13 25  1  0
 25 26  1  6
 25 27  1  0
 27 28  1  0
 29 28  1  6
 29 30  1  0
 30 31  1  0
 31 32  1  0
 31 33  1  0
 31 34  1  0
 34 35  1  0
 35 36  2  0
 36 37  1  0
 37 38  2  0
 38 39  1  0
 39 40  2  0
 38 41  1  0
 41 42  1  0
 41 43  1  0
  9  4  1  0
 24  6  1  0
 40 35  1  0
 40 29  1  0
M  END
$$$$
