
     RDKit          3D

 43 46  0  0  0  0  0  0  0  0999 V2000
  -17.0476  -47.1724   -5.7735 C   0  0  0  0  0  0  0  0  0  0  0  0
  -16.6232  -46.1570   -6.6143 O   0  0  0  0  0  0  0  0  0  0  0  0
  -17.3522  -46.1144   -7.7934 C   0  0  0  0  0  0  0  0  0  0  0  0
  -18.3028  -44.9721   -7.8530 C   0  0  0  0  0  0  0  0  0  0  0  0
  -19.5749  -45.0458   -7.3697 C   0  0  0  0  0  0  0  0  0  0  0  0
  -20.5028  -43.9659   -7.4162 C   0  0  0  0  0  0  0  0  0  0  0  0
  -20.1223  -42.7662   -7.9768 C   0  0  0  0  0  0  0  0  0  0  0  0
  -18.8411  -42.6561   -8.4749 C   0  0  0  0  0  0  0  0  0  0  0  0
  -17.9583  -43.7679   -8.4008 C   0  0  0  0  0  0  0  0  0  0  0  0
  -18.1366  -41.5343   -9.1233 C   0  0  0  0  0  0  0  0  0  0  0  0
  -17.3716  -41.8054  -10.1727 O   0  0  0  0  0  0  0  0  0  0  0  0
  -18.0870  -40.1458   -8.8600 N   0  0  0  0  0  0  0  0  0  0  0  0
  -17.7760  -39.4691   -7.6401 C   0  0  1  0  0  0  0  0  0  0  0  0
  -18.7734  -39.7179   -6.5322 C   0  0  0  0  0  0  0  0  0  0  0  0
  -20.0779  -39.0015   -6.8753 C   0  0  2  0  0  0  0  0  0  0  0  0
  -19.8067  -37.5678   -7.2585 C   0  0  0  0  0  0  0  0  0  0  0  0
  -20.9054  -38.9821   -5.6232 C   0  0  0  0  0  0  0  0  0  0  0  0
  -22.3448  -38.6278   -5.8241 C   0  0  0  0  0  0  0  0  0  0  0  0
  -23.1168  -39.5536   -6.7054 C   0  0  0  0  0  0  0  0  0  0  0  0
  -22.9781  -40.9647   -6.1560 C   0  0  0  0  0  0  0  0  0  0  0  0
  -23.7321  -41.8755   -7.0726 C   0  0  0  0  0  0  0  0  0  0  0  0
  -23.8763  -43.2304   -6.4596 C   0  0  0  0  0  0  0  0  0  0  0  0
  -22.6176  -43.7604   -5.8615 C   0  0  0  0  0  0  0  0  0  0  0  0
  -21.7305  -44.3895   -6.8199 N   0  0  0  0  0  0  0  0  0  0  0  0
  -16.3432  -39.6009   -7.2120 C   0  0  2  0  0  0  0  0  0  0  0  0
  -16.0524  -39.2894   -5.9255 O   0  0  0  0  0  0  0  0  0  0  0  0
  -15.4300  -38.8306   -8.1380 C   0  0  0  0  0  0  0  0  0  0  0  0
  -14.8812  -39.7748   -9.0866 N   0  0  0  0  0  0  0  0  0  0  0  0
  -13.5713  -39.4665   -9.5588 C   0  0  1  0  0  0  0  0  0  0  0  0
  -12.6532  -40.6353   -9.6242 C   0  0  0  0  0  0  0  0  0  0  0  0
  -13.0357  -41.6442  -10.6775 C   0  0  0  0  0  0  0  0  0  0  0  0
  -11.7330  -42.1411  -11.3083 C   0  0  0  0  0  0  0  0  0  0  0  0
  -13.7507  -42.8283  -10.1163 C   0  0  0  0  0  0  0  0  0  0  0  0
  -13.7634  -41.0403  -11.7490 O   0  0  0  0  0  0  0  0  0  0  0  0
  -13.7068  -39.6728  -11.9836 C   0  0  0  0  0  0  0  0  0  0  0  0
  -13.7425  -39.1157  -13.2391 C   0  0  0  0  0  0  0  0  0  0  0  0
  -13.6838  -37.7497  -13.4217 C   0  0  0  0  0  0  0  0  0  0  0  0
  -13.5861  -36.8773  -12.3562 C   0  0  0  0  0  0  0  0  0  0  0  0
  -13.5504  -37.4514  -11.0911 C   0  0  0  0  0  0  0  0  0  0  0  0
  -13.6093  -38.8147  -10.9104 C   0  0  0  0  0  0  0  0  0  0  0  0
  -13.5208  -35.3964  -12.5367 C   0  0  0  0  0  0  0  0  0  0  0  0
  -14.7195  -34.9279  -13.3641 C   0  0  0  0  0  0  0  0  0  0  0  0
  -12.2339  -34.9343  -13.1374 C   0  0  0  0  0  0  0  0  0  0  0  0
  1  2  1  0
  2  3  1  0
  3  4  1  0
  4  5  2  0
  5  6  1  0
  6  7  2  0
  7  8  1  0
  8  9  2  0
  8 10  1  0
 10 11  2  0
 10 12  1  0
 12 13  1  0
 13 14  1  1
 14 15  1  0
 15 16  1  1
 15 17  1  0
 17 18  1  0
 18 19  1  0
 19 20  1  0
 20 21  1  0
 21 22  1  0
 22 23  1  0
 23 24  1  0
 13 25  1  0
 25 26  1  1
 25 27  1  0
 27 28  1  0
 29 28  1  6
 29 30  1  0
 30 31  1  0
 31 32  1  0
 31 33  1  0
 31 34  1  0
 34 35  1  0
 35 36  2  0
 36 37  1  0
 37 38  2  0
 38 39  1  0
 39 40  2  0
 38 41  1  0
 41 42  1  0
 41 43  1  0
  9  4  1  0
 24  6  1  0
 40 35  1  0
 40 29  1  0
M  END
$$$$
