
     RDKit          3D

 43 46  0  0  0  0  0  0  0  0999 V2000
  -17.1028  -46.3871  -10.6394 C   0  0  0  0  0  0  0  0  0  0  0  0
  -16.5083  -46.9026   -9.4997 O   0  0  0  0  0  0  0  0  0  0  0  0
  -16.3279  -45.9369   -8.5207 C   0  0  0  0  0  0  0  0  0  0  0  0
  -17.4369  -44.9475   -8.4630 C   0  0  0  0  0  0  0  0  0  0  0  0
  -18.6641  -45.2449   -7.9502 C   0  0  0  0  0  0  0  0  0  0  0  0
  -19.7410  -44.3146   -7.8850 C   0  0  0  0  0  0  0  0  0  0  0  0
  -19.5628  -43.0339   -8.3606 C   0  0  0  0  0  0  0  0  0  0  0  0
  -18.3325  -42.6982   -8.8856 C   0  0  0  0  0  0  0  0  0  0  0  0
  -17.2944  -43.6686   -8.9245 C   0  0  0  0  0  0  0  0  0  0  0  0
  -17.8262  -41.4396   -9.4642 C   0  0  0  0  0  0  0  0  0  0  0  0
  -17.0727  -41.5162  -10.5534 O   0  0  0  0  0  0  0  0  0  0  0  0
  -17.9696  -40.0822   -9.0945 N   0  0  0  0  0  0  0  0  0  0  0  0
  -17.7119  -39.4579   -7.8348 C   0  0  1  0  0  0  0  0  0  0  0  0
  -18.6168  -39.9328   -6.7213 C   0  0  0  0  0  0  0  0  0  0  0  0
  -20.0247  -39.3953   -6.9693 C   0  0  2  0  0  0  0  0  0  0  0  0
  -19.9816  -37.9130   -7.2466 C   0  0  0  0  0  0  0  0  0  0  0  0
  -20.7950  -39.5911   -5.6960 C   0  0  0  0  0  0  0  0  0  0  0  0
  -22.2777  -39.4410   -5.8266 C   0  0  0  0  0  0  0  0  0  0  0  0
  -22.9410  -40.4044   -6.7550 C   0  0  0  0  0  0  0  0  0  0  0  0
  -22.5756  -41.8155   -6.3222 C   0  0  0  0  0  0  0  0  0  0  0  0
  -23.2246  -42.7588   -7.2851 C   0  0  0  0  0  0  0  0  0  0  0  0
  -23.1444  -44.1613   -6.7762 C   0  0  0  0  0  0  0  0  0  0  0  0
  -21.7987  -44.5405   -6.2582 C   0  0  0  0  0  0  0  0  0  0  0  0
  -20.8685  -44.9586   -7.2883 N   0  0  0  0  0  0  0  0  0  0  0  0
  -16.2592  -39.4060   -7.4601 C   0  0  2  0  0  0  0  0  0  0  0  0
  -15.7072  -38.1791   -7.2974 O   0  0  0  0  0  0  0  0  0  0  0  0
  -15.4230  -40.2130   -8.4269 C   0  0  0  0  0  0  0  0  0  0  0  0
  -15.3486  -39.4640   -9.6622 N   0  0  0  0  0  0  0  0  0  0  0  0
  -14.1146  -39.5809  -10.3676 C   0  0  1  0  0  0  0  0  0  0  0  0
  -13.9287  -40.8821  -11.0645 C   0  0  0  0  0  0  0  0  0  0  0  0
  -14.8675  -41.0828  -12.2273 C   0  0  0  0  0  0  0  0  0  0  0  0
  -14.0636  -41.7741  -13.3309 C   0  0  0  0  0  0  0  0  0  0  0  0
  -16.0288  -41.9588  -11.8927 C   0  0  0  0  0  0  0  0  0  0  0  0
  -15.2838  -39.8377  -12.7920 O   0  0  0  0  0  0  0  0  0  0  0  0
  -14.5624  -38.6697  -12.5834 C   0  0  0  0  0  0  0  0  0  0  0  0
  -14.4274  -37.6816  -13.5286 C   0  0  0  0  0  0  0  0  0  0  0  0
  -13.6999  -36.5375  -13.2742 C   0  0  0  0  0  0  0  0  0  0  0  0
  -13.0732  -36.3290  -12.0619 C   0  0  0  0  0  0  0  0  0  0  0  0
  -13.2161  -37.3348  -11.1135 C   0  0  0  0  0  0  0  0  0  0  0  0
  -13.9424  -38.4758  -11.3687 C   0  0  0  0  0  0  0  0  0  0  0  0
  -12.2817  -35.0968  -11.7708 C   0  0  0  0  0  0  0  0  0  0  0  0
  -13.2292  -33.9073  -11.6015 C   0  0  0  0  0  0  0  0  0  0  0  0
  -11.2358  -34.8142  -12.7987 C   0  0  0  0  0  0  0  0  0  0  0  0
  1  2  1  0
  2  3  1  0
  3  4  1  0
  4  5  2  0
  5  6  1  0
  6  7  2  0
  7  8  1  0
  8  9  2  0
  8 10  1  0
 10 11  2  0
 10 12  1  0
 12 13  1  0
 13 14  1  1
 14 15  1  0
 15 16  1  1
 15 17  1  0
 17 18  1  0
 18 19  1  0
 19 20  1  0
 20 21  1  0
 21 22  1  0
 22 23  1  0
 23 24  1  0
 13 25  1  0
 25 26  1  6
 25 27  1  0
 27 28  1  0
 29 28  1  6
 29 30  1  0
 30 31  1  0
 31 32  1  0
 31 33  1  0
 31 34  1  0
 34 35  1  0
 35 36  2  0
 36 37  1  0
 37 38  2  0
 38 39  1  0
 39 40  2  0
 38 41  1  0
 41 42  1  0
 41 43  1  0
  9  4  1  0
 24  6  1  0
 40 35  1  0
 40 29  1  0
M  END
$$$$
