
     RDKit          3D

 43 46  0  0  0  0  0  0  0  0999 V2000
  -15.3465  -46.2124   -8.8446 C   0  0  0  0  0  0  0  0  0  0  0  0
  -16.7029  -45.9694   -8.9828 O   0  0  0  0  0  0  0  0  0  0  0  0
  -17.3387  -45.8367   -7.7573 C   0  0  0  0  0  0  0  0  0  0  0  0
  -18.2839  -44.6894   -7.7094 C   0  0  0  0  0  0  0  0  0  0  0  0
  -19.4648  -44.7351   -7.0305 C   0  0  0  0  0  0  0  0  0  0  0  0
  -20.3857  -43.6499   -6.9710 C   0  0  0  0  0  0  0  0  0  0  0  0
  -20.0947  -42.4743   -7.6281 C   0  0  0  0  0  0  0  0  0  0  0  0
  -18.9071  -42.3929   -8.3244 C   0  0  0  0  0  0  0  0  0  0  0  0
  -18.0264  -43.5086   -8.3485 C   0  0  0  0  0  0  0  0  0  0  0  0
  -18.3100  -41.3011   -9.1159 C   0  0  0  0  0  0  0  0  0  0  0  0
  -17.7197  -41.6162  -10.2614 O   0  0  0  0  0  0  0  0  0  0  0  0
  -18.2162  -39.9045   -8.9151 N   0  0  0  0  0  0  0  0  0  0  0  0
  -17.7160  -39.1869   -7.7847 C   0  0  1  0  0  0  0  0  0  0  0  0
  -18.5280  -39.3873   -6.5258 C   0  0  0  0  0  0  0  0  0  0  0  0
  -19.8683  -38.6729   -6.6867 C   0  0  2  0  0  0  0  0  0  0  0  0
  -19.6568  -37.2562   -7.1602 C   0  0  0  0  0  0  0  0  0  0  0  0
  -20.4892  -38.6016   -5.3220 C   0  0  0  0  0  0  0  0  0  0  0  0
  -21.9414  -38.2426   -5.3080 C   0  0  0  0  0  0  0  0  0  0  0  0
  -22.8445  -39.1932   -6.0228 C   0  0  0  0  0  0  0  0  0  0  0  0
  -22.6250  -40.5846   -5.4503 C   0  0  0  0  0  0  0  0  0  0  0  0
  -23.5157  -41.5215   -6.2034 C   0  0  0  0  0  0  0  0  0  0  0  0
  -23.5656  -42.8523   -5.5258 C   0  0  0  0  0  0  0  0  0  0  0  0
  -22.2301  -43.3709   -5.1130 C   0  0  0  0  0  0  0  0  0  0  0  0
  -21.5058  -44.0414   -6.1746 N   0  0  0  0  0  0  0  0  0  0  0  0
  -16.2342  -39.3151   -7.5816 C   0  0  2  0  0  0  0  0  0  0  0  0
  -15.5039  -38.1745   -7.6277 O   0  0  0  0  0  0  0  0  0  0  0  0
  -15.6449  -40.3321   -8.5322 C   0  0  0  0  0  0  0  0  0  0  0  0
  -14.8615  -39.6070   -9.5083 N   0  0  0  0  0  0  0  0  0  0  0  0
  -15.4690  -39.4702  -10.7913 C   0  0  1  0  0  0  0  0  0  0  0  0
  -15.7985  -38.0688  -11.1665 C   0  0  0  0  0  0  0  0  0  0  0  0
  -14.5843  -37.2070  -11.4043 C   0  0  0  0  0  0  0  0  0  0  0  0
  -14.9083  -36.3053  -12.5976 C   0  0  0  0  0  0  0  0  0  0  0  0
  -14.2594  -36.3269  -10.2433 C   0  0  0  0  0  0  0  0  0  0  0  0
  -13.4575  -37.9830  -11.8172 O   0  0  0  0  0  0  0  0  0  0  0  0
  -13.6102  -39.2548  -12.3531 C   0  0  0  0  0  0  0  0  0  0  0  0
  -12.8077  -39.7616  -13.3466 C   0  0  0  0  0  0  0  0  0  0  0  0
  -12.9985  -41.0327  -13.8471 C   0  0  0  0  0  0  0  0  0  0  0  0
  -14.0020  -41.8561  -13.3769 C   0  0  0  0  0  0  0  0  0  0  0  0
  -14.8079  -41.3335  -12.3725 C   0  0  0  0  0  0  0  0  0  0  0  0
  -14.6160  -40.0649  -11.8739 C   0  0  0  0  0  0  0  0  0  0  0  0
  -14.2225  -43.2340  -13.9083 C   0  0  0  0  0  0  0  0  0  0  0  0
  -15.7236  -43.5223  -13.9776 C   0  0  0  0  0  0  0  0  0  0  0  0
  -13.5042  -44.2860  -13.1286 C   0  0  0  0  0  0  0  0  0  0  0  0
  1  2  1  0
  2  3  1  0
  3  4  1  0
  4  5  2  0
  5  6  1  0
  6  7  2  0
  7  8  1  0
  8  9  2  0
  8 10  1  0
 10 11  2  0
 10 12  1  0
 12 13  1  0
 13 14  1  1
 14 15  1  0
 15 16  1  1
 15 17  1  0
 17 18  1  0
 18 19  1  0
 19 20  1  0
 20 21  1  0
 21 22  1  0
 22 23  1  0
 23 24  1  0
 13 25  1  0
 25 26  1  6
 25 27  1  0
 27 28  1  0
 29 28  1  1
 29 30  1  0
 30 31  1  0
 31 32  1  0
 31 33  1  0
 31 34  1  0
 34 35  1  0
 35 36  2  0
 36 37  1  0
 37 38  2  0
 38 39  1  0
 39 40  2  0
 38 41  1  0
 41 42  1  0
 41 43  1  0
  9  4  1  0
 24  6  1  0
 40 35  1  0
 40 29  1  0
M  END
$$$$
