
     RDKit          3D

 43 46  0  0  0  0  0  0  0  0999 V2000
  -12.6256  -39.3852  -16.4197 C   0  0  0  0  0  0  0  0  0  0  0  0
  -13.7742  -39.3641  -15.6461 O   0  0  0  0  0  0  0  0  0  0  0  0
  -13.5261  -38.9315  -14.3520 C   0  0  0  0  0  0  0  0  0  0  0  0
  -13.4421  -40.0443  -13.3688 C   0  0  0  0  0  0  0  0  0  0  0  0
  -12.3915  -40.9112  -13.3246 C   0  0  0  0  0  0  0  0  0  0  0  0
  -12.2895  -41.9840  -12.3930 C   0  0  0  0  0  0  0  0  0  0  0  0
  -13.2952  -42.1830  -11.4724 C   0  0  0  0  0  0  0  0  0  0  0  0
  -14.3733  -41.3233  -11.4879 C   0  0  0  0  0  0  0  0  0  0  0  0
  -14.4208  -40.2697  -12.4412 C   0  0  0  0  0  0  0  0  0  0  0  0
  -15.5889  -41.2633  -10.6549 C   0  0  0  0  0  0  0  0  0  0  0  0
  -16.7425  -41.0076  -11.2579 O   0  0  0  0  0  0  0  0  0  0  0  0
  -15.8164  -41.4244   -9.2685 N   0  0  0  0  0  0  0  0  0  0  0  0
  -15.1837  -40.7678   -8.1679 C   0  0  1  0  0  0  0  0  0  0  0  0
  -13.7104  -41.0779   -8.0365 C   0  0  0  0  0  0  0  0  0  0  0  0
  -13.5522  -42.5246   -7.5730 C   0  0  2  0  0  0  0  0  0  0  0  0
  -14.4292  -42.7929   -6.3752 C   0  0  0  0  0  0  0  0  0  0  0  0
  -12.1270  -42.6855   -7.1302 C   0  0  0  0  0  0  0  0  0  0  0  0
  -11.6771  -44.1015   -6.9556 C   0  0  0  0  0  0  0  0  0  0  0  0
  -11.7295  -44.9479   -8.1847 C   0  0  0  0  0  0  0  0  0  0  0  0
  -10.9290  -44.2562   -9.2770 C   0  0  0  0  0  0  0  0  0  0  0  0
  -11.0236  -45.1061  -10.5045 C   0  0  0  0  0  0  0  0  0  0  0  0
  -10.0469  -44.6436  -11.5362 C   0  0  0  0  0  0  0  0  0  0  0  0
  -10.0310  -43.1659  -11.7342 C   0  0  0  0  0  0  0  0  0  0  0  0
  -11.0643  -42.6811  -12.6277 N   0  0  0  0  0  0  0  0  0  0  0  0
  -15.5124  -39.3077   -8.0516 C   0  0  2  0  0  0  0  0  0  0  0  0
  -15.4372  -38.7545   -6.8167 O   0  0  0  0  0  0  0  0  0  0  0  0
  -16.8641  -39.0085   -8.6586 C   0  0  0  0  0  0  0  0  0  0  0  0
  -16.6472  -38.1166   -9.7765 N   0  0  0  0  0  0  0  0  0  0  0  0
  -17.3782  -36.8931   -9.7255 C   0  0  1  0  0  0  0  0  0  0  0  0
  -16.6159  -35.7043  -10.1934 C   0  0  0  0  0  0  0  0  0  0  0  0
  -16.3187  -35.7222  -11.6716 C   0  0  0  0  0  0  0  0  0  0  0  0
  -16.4819  -34.2857  -12.1733 C   0  0  0  0  0  0  0  0  0  0  0  0
  -14.9241  -36.1566  -11.9791 C   0  0  0  0  0  0  0  0  0  0  0  0
  -17.2866  -36.4837  -12.3966 O   0  0  0  0  0  0  0  0  0  0  0  0
  -18.5393  -36.7587  -11.8643 C   0  0  0  0  0  0  0  0  0  0  0  0
  -19.6863  -36.8260  -12.6178 C   0  0  0  0  0  0  0  0  0  0  0  0
  -20.9093  -37.1031  -12.0429 C   0  0  0  0  0  0  0  0  0  0  0  0
  -21.0414  -37.3256  -10.6868 C   0  0  0  0  0  0  0  0  0  0  0  0
  -19.8752  -37.2548   -9.9343 C   0  0  0  0  0  0  0  0  0  0  0  0
  -18.6555  -36.9784  -10.5094 C   0  0  0  0  0  0  0  0  0  0  0  0
  -22.3576  -37.6260  -10.0488 C   0  0  0  0  0  0  0  0  0  0  0  0
  -22.1554  -37.8845   -8.5544 C   0  0  0  0  0  0  0  0  0  0  0  0
  -23.0818  -38.7574  -10.7013 C   0  0  0  0  0  0  0  0  0  0  0  0
  1  2  1  0
  2  3  1  0
  3  4  1  0
  4  5  2  0
  5  6  1  0
  6  7  2  0
  7  8  1  0
  8  9  2  0
  8 10  1  0
 10 11  2  0
 10 12  1  0
 12 13  1  0
 13 14  1  6
 14 15  1  0
 15 16  1  1
 15 17  1  0
 17 18  1  0
 18 19  1  0
 19 20  1  0
 20 21  1  0
 21 22  1  0
 22 23  1  0
 23 24  1  0
 13 25  1  0
 25 26  1  1
 25 27  1  0
 27 28  1  0
 29 28  1  6
 29 30  1  0
 30 31  1  0
 31 32  1  0
 31 33  1  0
 31 34  1  0
 34 35  1  0
 35 36  2  0
 36 37  1  0
 37 38  2  0
 38 39  1  0
 39 40  2  0
 38 41  1  0
 41 42  1  0
 41 43  1  0
  9  4  1  0
 24  6  1  0
 40 35  1  0
 40 29  1  0
M  END
$$$$
