
     RDKit          3D

 43 46  0  0  0  0  0  0  0  0999 V2000
  -23.1917  -41.7651   -5.7884 C   0  0  0  0  0  0  0  0  0  0  0  0
  -21.9410  -42.0287   -5.2552 O   0  0  0  0  0  0  0  0  0  0  0  0
  -21.6723  -43.3881   -5.1976 C   0  0  0  0  0  0  0  0  0  0  0  0
  -20.5304  -43.7961   -6.0586 C   0  0  0  0  0  0  0  0  0  0  0  0
  -20.6761  -44.6189   -7.1353 C   0  0  0  0  0  0  0  0  0  0  0  0
  -19.5978  -45.0236   -7.9736 C   0  0  0  0  0  0  0  0  0  0  0  0
  -18.3229  -44.5752   -7.7055 C   0  0  0  0  0  0  0  0  0  0  0  0
  -18.1392  -43.7398   -6.6239 C   0  0  0  0  0  0  0  0  0  0  0  0
  -19.2533  -43.3692   -5.8224 C   0  0  0  0  0  0  0  0  0  0  0  0
  -16.9288  -43.0978   -6.0780 C   0  0  0  0  0  0  0  0  0  0  0  0
  -16.7796  -43.0740   -4.7600 O   0  0  0  0  0  0  0  0  0  0  0  0
  -15.8212  -42.4583   -6.6814 N   0  0  0  0  0  0  0  0  0  0  0  0
  -15.8031  -41.3917   -7.6327 C   0  0  1  0  0  0  0  0  0  0  0  0
  -16.4145  -41.7528   -8.9668 C   0  0  0  0  0  0  0  0  0  0  0  0
  -15.4847  -42.7282   -9.6856 C   0  0  2  0  0  0  0  0  0  0  0  0
  -14.0703  -42.2034   -9.6876 C   0  0  0  0  0  0  0  0  0  0  0  0
  -15.9414  -42.7913  -11.1140 C   0  0  0  0  0  0  0  0  0  0  0  0
  -15.3820  -43.9311  -11.9051 C   0  0  0  0  0  0  0  0  0  0  0  0
  -15.7237  -45.2934  -11.3977 C   0  0  0  0  0  0  0  0  0  0  0  0
  -17.2368  -45.3992  -11.2913 C   0  0  0  0  0  0  0  0  0  0  0  0
  -17.5512  -46.7587  -10.7516 C   0  0  0  0  0  0  0  0  0  0  0  0
  -19.0128  -47.0437  -10.8741 C   0  0  0  0  0  0  0  0  0  0  0  0
  -19.8871  -45.9198  -10.4322 C   0  0  0  0  0  0  0  0  0  0  0  0
  -20.1094  -45.8756   -9.0005 N   0  0  0  0  0  0  0  0  0  0  0  0
  -16.2666  -40.0726   -7.0863 C   0  0  2  0  0  0  0  0  0  0  0  0
  -15.8067  -39.7155   -5.8625 O   0  0  0  0  0  0  0  0  0  0  0  0
  -17.7752  -39.9797   -7.1069 C   0  0  0  0  0  0  0  0  0  0  0  0
  -18.1194  -38.6462   -7.5491 N   0  0  0  0  0  0  0  0  0  0  0  0
  -18.7655  -38.5773   -8.8187 C   0  0  1  0  0  0  0  0  0  0  0  0
  -20.2500  -38.5107   -8.7475 C   0  0  0  0  0  0  0  0  0  0  0  0
  -20.7683  -37.2197   -8.1658 C   0  0  0  0  0  0  0  0  0  0  0  0
  -22.0146  -36.8412   -8.9693 C   0  0  0  0  0  0  0  0  0  0  0  0
  -21.1706  -37.3471   -6.7340 C   0  0  0  0  0  0  0  0  0  0  0  0
  -19.8514  -36.1425   -8.3684 O   0  0  0  0  0  0  0  0  0  0  0  0
  -18.8697  -36.2006   -9.3488 C   0  0  0  0  0  0  0  0  0  0  0  0
  -18.4498  -35.1081  -10.0686 C   0  0  0  0  0  0  0  0  0  0  0  0
  -17.4698  -35.2159  -11.0334 C   0  0  0  0  0  0  0  0  0  0  0  0
  -16.8645  -36.4224  -11.3232 C   0  0  0  0  0  0  0  0  0  0  0  0
  -17.2970  -37.5206  -10.5895 C   0  0  0  0  0  0  0  0  0  0  0  0
  -18.2748  -37.4115   -9.6270 C   0  0  0  0  0  0  0  0  0  0  0  0
  -15.8029  -36.5562  -12.3647 C   0  0  0  0  0  0  0  0  0  0  0  0
  -14.5548  -35.7877  -11.9258 C   0  0  0  0  0  0  0  0  0  0  0  0
  -16.2543  -36.1266  -13.7219 C   0  0  0  0  0  0  0  0  0  0  0  0
  1  2  1  0
  2  3  1  0
  3  4  1  0
  4  5  2  0
  5  6  1  0
  6  7  2  0
  7  8  1  0
  8  9  2  0
  8 10  1  0
 10 11  2  0
 10 12  1  0
 12 13  1  0
 13 14  1  6
 14 15  1  0
 15 16  1  6
 15 17  1  0
 17 18  1  0
 18 19  1  0
 19 20  1  0
 20 21  1  0
 21 22  1  0
 22 23  1  0
 23 24  1  0
 13 25  1  0
 25 26  1  1
 25 27  1  0
 27 28  1  0
 29 28  1  1
 29 30  1  0
 30 31  1  0
 31 32  1  0
 31 33  1  0
 31 34  1  0
 34 35  1  0
 35 36  2  0
 36 37  1  0
 37 38  2  0
 38 39  1  0
 39 40  2  0
 38 41  1  0
 41 42  1  0
 41 43  1  0
  9  4  1  0
 24  6  1  0
 40 35  1  0
 40 29  1  0
M  END
$$$$
