
     RDKit          3D

 43 46  0  0  0  0  0  0  0  0999 V2000
  -23.0070  -40.1978   -6.4031 C   0  0  0  0  0  0  0  0  0  0  0  0
  -22.1216  -39.3217   -7.0085 O   0  0  0  0  0  0  0  0  0  0  0  0
  -22.5451  -38.9394   -8.2726 C   0  0  0  0  0  0  0  0  0  0  0  0
  -21.4225  -38.6206   -9.1946 C   0  0  0  0  0  0  0  0  0  0  0  0
  -21.5187  -37.6792  -10.1753 C   0  0  0  0  0  0  0  0  0  0  0  0
  -20.4579  -37.3573  -11.0700 C   0  0  0  0  0  0  0  0  0  0  0  0
  -19.2542  -38.0193  -10.9636 C   0  0  0  0  0  0  0  0  0  0  0  0
  -19.1215  -38.9779   -9.9811 C   0  0  0  0  0  0  0  0  0  0  0  0
  -20.2149  -39.2568   -9.1164 C   0  0  0  0  0  0  0  0  0  0  0  0
  -17.9899  -39.8474   -9.6091 C   0  0  0  0  0  0  0  0  0  0  0  0
  -18.2519  -41.1128   -9.3090 O   0  0  0  0  0  0  0  0  0  0  0  0
  -16.5990  -39.6213   -9.4896 N   0  0  0  0  0  0  0  0  0  0  0  0
  -15.9088  -38.6182   -8.7412 C   0  0  1  0  0  0  0  0  0  0  0  0
  -16.1708  -37.2093   -9.2215 C   0  0  0  0  0  0  0  0  0  0  0  0
  -15.4828  -37.0143  -10.5711 C   0  0  2  0  0  0  0  0  0  0  0  0
  -14.0463  -37.4698  -10.5008 C   0  0  0  0  0  0  0  0  0  0  0  0
  -15.4723  -35.5385  -10.8443 C   0  0  0  0  0  0  0  0  0  0  0  0
  -15.1481  -35.1606  -12.2550 C   0  0  0  0  0  0  0  0  0  0  0  0
  -16.0946  -35.6726  -13.2903 C   0  0  0  0  0  0  0  0  0  0  0  0
  -17.4992  -35.2241  -12.9188 C   0  0  0  0  0  0  0  0  0  0  0  0
  -18.4305  -35.7756  -13.9516 C   0  0  0  0  0  0  0  0  0  0  0  0
  -19.7843  -35.1580  -13.8169 C   0  0  0  0  0  0  0  0  0  0  0  0
  -20.2853  -35.0999  -12.4138 C   0  0  0  0  0  0  0  0  0  0  0  0
  -20.9023  -36.3300  -11.9583 N   0  0  0  0  0  0  0  0  0  0  0  0
  -16.0093  -38.7837   -7.2526 C   0  0  2  0  0  0  0  0  0  0  0  0
  -14.8799  -38.5812   -6.5314 O   0  0  0  0  0  0  0  0  0  0  0  0
  -16.6021  -40.1281   -6.8976 C   0  0  0  0  0  0  0  0  0  0  0  0
  -15.7208  -41.1430   -7.4323 N   0  0  0  0  0  0  0  0  0  0  0  0
  -16.3582  -42.1400   -8.2282 C   0  0  1  0  0  0  0  0  0  0  0  0
  -15.4345  -42.9010   -9.1119 C   0  0  0  0  0  0  0  0  0  0  0  0
  -14.4810  -43.7951   -8.3602 C   0  0  0  0  0  0  0  0  0  0  0  0
  -14.3526  -45.0865   -9.1712 C   0  0  0  0  0  0  0  0  0  0  0  0
  -13.1165  -43.2055   -8.2232 C   0  0  0  0  0  0  0  0  0  0  0  0
  -15.0171  -44.1979   -7.0982 O   0  0  0  0  0  0  0  0  0  0  0  0
  -16.3801  -44.1422   -6.8384 C   0  0  0  0  0  0  0  0  0  0  0  0
  -17.0428  -45.0600   -6.0597 C   0  0  0  0  0  0  0  0  0  0  0  0
  -18.3994  -44.9621   -5.8299 C   0  0  0  0  0  0  0  0  0  0  0  0
  -19.1564  -43.9412   -6.3691 C   0  0  0  0  0  0  0  0  0  0  0  0
  -18.4761  -43.0188   -7.1551 C   0  0  0  0  0  0  0  0  0  0  0  0
  -17.1223  -43.1177   -7.3834 C   0  0  0  0  0  0  0  0  0  0  0  0
  -20.6255  -43.8213   -6.1307 C   0  0  0  0  0  0  0  0  0  0  0  0
  -21.3822  -44.6580   -7.1644 C   0  0  0  0  0  0  0  0  0  0  0  0
  -21.1055  -42.4071   -6.1220 C   0  0  0  0  0  0  0  0  0  0  0  0
  1  2  1  0
  2  3  1  0
  3  4  1  0
  4  5  2  0
  5  6  1  0
  6  7  2  0
  7  8  1  0
  8  9  2  0
  8 10  1  0
 10 11  2  0
 10 12  1  0
 12 13  1  0
 13 14  1  1
 14 15  1  0
 15 16  1  1
 15 17  1  0
 17 18  1  0
 18 19  1  0
 19 20  1  0
 20 21  1  0
 21 22  1  0
 22 23  1  0
 23 24  1  0
 13 25  1  0
 25 26  1  1
 25 27  1  0
 27 28  1  0
 29 28  1  1
 29 30  1  0
 30 31  1  0
 31 32  1  0
 31 33  1  0
 31 34  1  0
 34 35  1  0
 35 36  2  0
 36 37  1  0
 37 38  2  0
 38 39  1  0
 39 40  2  0
 38 41  1  0
 41 42  1  0
 41 43  1  0
  9  4  1  0
 24  6  1  0
 40 35  1  0
 40 29  1  0
M  END
$$$$
