
     RDKit          3D

 43 46  0  0  0  0  0  0  0  0999 V2000
  -22.4609  -41.6066  -11.8058 C   0  0  0  0  0  0  0  0  0  0  0  0
  -21.1585  -42.0055  -11.5554 O   0  0  0  0  0  0  0  0  0  0  0  0
  -21.0919  -43.3048  -11.0750 C   0  0  0  0  0  0  0  0  0  0  0  0
  -19.7066  -43.7397  -10.7530 C   0  0  0  0  0  0  0  0  0  0  0  0
  -19.0294  -44.6567  -11.5000 C   0  0  0  0  0  0  0  0  0  0  0  0
  -17.7031  -45.0887  -11.2109 C   0  0  0  0  0  0  0  0  0  0  0  0
  -17.0414  -44.5691  -10.1199 C   0  0  0  0  0  0  0  0  0  0  0  0
  -17.6967  -43.6376   -9.3423 C   0  0  0  0  0  0  0  0  0  0  0  0
  -19.0204  -43.2441   -9.6795 C   0  0  0  0  0  0  0  0  0  0  0  0
  -17.2781  -42.9041   -8.1332 C   0  0  0  0  0  0  0  0  0  0  0  0
  -18.1638  -42.7617   -7.1559 O   0  0  0  0  0  0  0  0  0  0  0  0
  -16.0684  -42.2753   -7.7575 N   0  0  0  0  0  0  0  0  0  0  0  0
  -15.3046  -41.2942   -8.4623 C   0  0  1  0  0  0  0  0  0  0  0  0
  -14.7260  -41.7919   -9.7668 C   0  0  0  0  0  0  0  0  0  0  0  0
  -13.6091  -42.7877   -9.4608 C   0  0  2  0  0  0  0  0  0  0  0  0
  -12.6502  -42.2096   -8.4498 C   0  0  0  0  0  0  0  0  0  0  0  0
  -12.8462  -42.9908  -10.7374 C   0  0  0  0  0  0  0  0  0  0  0  0
  -11.9272  -44.1711  -10.7418 C   0  0  0  0  0  0  0  0  0  0  0  0
  -12.5848  -45.4974  -10.5457 C   0  0  0  0  0  0  0  0  0  0  0  0
  -13.6715  -45.6534  -11.5979 C   0  0  0  0  0  0  0  0  0  0  0  0
  -14.3351  -46.9730  -11.3604 C   0  0  0  0  0  0  0  0  0  0  0  0
  -15.2232  -47.3249  -12.5092 C   0  0  0  0  0  0  0  0  0  0  0  0
  -16.0905  -46.2026  -12.9689 C   0  0  0  0  0  0  0  0  0  0  0  0
  -17.3067  -46.0449  -12.1962 N   0  0  0  0  0  0  0  0  0  0  0  0
  -15.9702  -39.9524   -8.5628 C   0  0  2  0  0  0  0  0  0  0  0  0
  -15.1870  -38.8603   -8.3885 O   0  0  0  0  0  0  0  0  0  0  0  0
  -17.1642  -39.8715   -7.6392 C   0  0  0  0  0  0  0  0  0  0  0  0
  -18.0020  -38.7908   -8.1108 N   0  0  0  0  0  0  0  0  0  0  0  0
  -18.7376  -38.1085   -7.0973 C   0  0  1  0  0  0  0  0  0  0  0  0
  -18.7643  -36.6290   -7.2509 C   0  0  0  0  0  0  0  0  0  0  0  0
  -19.5525  -36.1614   -8.4483 C   0  0  0  0  0  0  0  0  0  0  0  0
  -20.3065  -34.9013   -8.0172 C   0  0  0  0  0  0  0  0  0  0  0  0
  -18.6869  -35.7995   -9.6093 C   0  0  0  0  0  0  0  0  0  0  0  0
  -20.5682  -37.0987   -8.8119 O   0  0  0  0  0  0  0  0  0  0  0  0
  -21.0339  -38.0484   -7.9122 C   0  0  0  0  0  0  0  0  0  0  0  0
  -22.3395  -38.4738   -7.8652 C   0  0  0  0  0  0  0  0  0  0  0  0
  -22.7549  -39.4211   -6.9525 C   0  0  0  0  0  0  0  0  0  0  0  0
  -21.8829  -39.9867   -6.0438 C   0  0  0  0  0  0  0  0  0  0  0  0
  -20.5650  -39.5489   -6.1000 C   0  0  0  0  0  0  0  0  0  0  0  0
  -20.1520  -38.6038   -7.0114 C   0  0  0  0  0  0  0  0  0  0  0  0
  -22.3164  -41.0125   -5.0491 C   0  0  0  0  0  0  0  0  0  0  0  0
  -22.6935  -42.3045   -5.7769 C   0  0  0  0  0  0  0  0  0  0  0  0
  -23.4270  -40.5432   -4.1678 C   0  0  0  0  0  0  0  0  0  0  0  0
  1  2  1  0
  2  3  1  0
  3  4  1  0
  4  5  2  0
  5  6  1  0
  6  7  2  0
  7  8  1  0
  8  9  2  0
  8 10  1  0
 10 11  2  0
 10 12  1  0
 12 13  1  0
 13 14  1  6
 14 15  1  0
 15 16  1  1
 15 17  1  0
 17 18  1  0
 18 19  1  0
 19 20  1  0
 20 21  1  0
 21 22  1  0
 22 23  1  0
 23 24  1  0
 13 25  1  0
 25 26  1  1
 25 27  1  0
 27 28  1  0
 29 28  1  6
 29 30  1  0
 30 31  1  0
 31 32  1  0
 31 33  1  0
 31 34  1  0
 34 35  1  0
 35 36  2  0
 36 37  1  0
 37 38  2  0
 38 39  1  0
 39 40  2  0
 38 41  1  0
 41 42  1  0
 41 43  1  0
  9  4  1  0
 24  6  1  0
 40 35  1  0
 40 29  1  0
M  END
$$$$
