
     RDKit          3D

 43 46  0  0  0  0  0  0  0  0999 V2000
  -21.2824  -44.5223  -10.7286 C   0  0  0  0  0  0  0  0  0  0  0  0
  -20.0614  -44.1448  -11.2621 O   0  0  0  0  0  0  0  0  0  0  0  0
  -19.9818  -42.7760  -11.4709 C   0  0  0  0  0  0  0  0  0  0  0  0
  -18.5847  -42.2851  -11.6088 C   0  0  0  0  0  0  0  0  0  0  0  0
  -18.0734  -41.8391  -12.7908 C   0  0  0  0  0  0  0  0  0  0  0  0
  -16.7392  -41.3651  -12.9471 C   0  0  0  0  0  0  0  0  0  0  0  0
  -15.8929  -41.3454  -11.8600 C   0  0  0  0  0  0  0  0  0  0  0  0
  -16.3779  -41.7887  -10.6476 C   0  0  0  0  0  0  0  0  0  0  0  0
  -17.7189  -42.2506  -10.5514 C   0  0  0  0  0  0  0  0  0  0  0  0
  -15.7443  -41.8942   -9.3199 C   0  0  0  0  0  0  0  0  0  0  0  0
  -15.9885  -42.9816   -8.6004 O   0  0  0  0  0  0  0  0  0  0  0  0
  -14.8819  -41.0414   -8.5928 N   0  0  0  0  0  0  0  0  0  0  0  0
  -15.0452  -39.6600   -8.2641 C   0  0  1  0  0  0  0  0  0  0  0  0
  -15.0579  -38.7436   -9.4658 C   0  0  0  0  0  0  0  0  0  0  0  0
  -13.6491  -38.6832  -10.0527 C   0  0  2  0  0  0  0  0  0  0  0  0
  -12.6390  -38.3965   -8.9695 C   0  0  0  0  0  0  0  0  0  0  0  0
  -13.6250  -37.5244  -11.0064 C   0  0  0  0  0  0  0  0  0  0  0  0
  -12.4495  -37.4933  -11.9312 C   0  0  0  0  0  0  0  0  0  0  0  0
  -12.3219  -38.6660  -12.8468 C   0  0  0  0  0  0  0  0  0  0  0  0
  -13.6200  -38.8090  -13.6257 C   0  0  0  0  0  0  0  0  0  0  0  0
  -13.4789  -40.0073  -14.5102 C   0  0  0  0  0  0  0  0  0  0  0  0
  -14.5949  -40.0580  -15.5024 C   0  0  0  0  0  0  0  0  0  0  0  0
  -15.9405  -39.8056  -14.9122 C   0  0  0  0  0  0  0  0  0  0  0  0
  -16.5468  -40.9757  -14.3085 N   0  0  0  0  0  0  0  0  0  0  0  0
  -16.1442  -39.3884   -7.2782 C   0  0  2  0  0  0  0  0  0  0  0  0
  -15.8587  -38.5523   -6.2506 O   0  0  0  0  0  0  0  0  0  0  0  0
  -16.7151  -40.6791   -6.7369 C   0  0  0  0  0  0  0  0  0  0  0  0
  -18.1351  -40.6719   -7.0124 N   0  0  0  0  0  0  0  0  0  0  0  0
  -18.8120  -39.4643   -6.6699 C   0  0  1  0  0  0  0  0  0  0  0  0
  -18.5577  -38.3339   -7.6030 C   0  0  0  0  0  0  0  0  0  0  0  0
  -19.1515  -38.5385   -8.9738 C   0  0  0  0  0  0  0  0  0  0  0  0
  -19.6959  -37.1821   -9.4274 C   0  0  0  0  0  0  0  0  0  0  0  0
  -18.1461  -38.9862   -9.9823 C   0  0  0  0  0  0  0  0  0  0  0  0
  -20.2886  -39.4033   -8.9341 O   0  0  0  0  0  0  0  0  0  0  0  0
  -20.9881  -39.6275   -7.7556 C   0  0  0  0  0  0  0  0  0  0  0  0
  -22.3488  -39.8107   -7.7035 C   0  0  0  0  0  0  0  0  0  0  0  0
  -22.9995  -40.0309   -6.5073 C   0  0  0  0  0  0  0  0  0  0  0  0
  -22.3187  -40.0777   -5.3071 C   0  0  0  0  0  0  0  0  0  0  0  0
  -20.9431  -39.8909   -5.3715 C   0  0  0  0  0  0  0  0  0  0  0  0
  -20.2951  -39.6714   -6.5659 C   0  0  0  0  0  0  0  0  0  0  0  0
  -23.0080  -40.3144   -4.0038 C   0  0  0  0  0  0  0  0  0  0  0  0
  -22.0466  -40.0094   -2.8532 C   0  0  0  0  0  0  0  0  0  0  0  0
  -23.5792  -41.6889   -3.8827 C   0  0  0  0  0  0  0  0  0  0  0  0
  1  2  1  0
  2  3  1  0
  3  4  1  0
  4  5  2  0
  5  6  1  0
  6  7  2  0
  7  8  1  0
  8  9  2  0
  8 10  1  0
 10 11  2  0
 10 12  1  0
 12 13  1  0
 13 14  1  6
 14 15  1  0
 15 16  1  1
 15 17  1  0
 17 18  1  0
 18 19  1  0
 19 20  1  0
 20 21  1  0
 21 22  1  0
 22 23  1  0
 23 24  1  0
 13 25  1  0
 25 26  1  1
 25 27  1  0
 27 28  1  0
 29 28  1  6
 29 30  1  0
 30 31  1  0
 31 32  1  0
 31 33  1  0
 31 34  1  0
 34 35  1  0
 35 36  2  0
 36 37  1  0
 37 38  2  0
 38 39  1  0
 39 40  2  0
 38 41  1  0
 41 42  1  0
 41 43  1  0
  9  4  1  0
 24  6  1  0
 40 35  1  0
 40 29  1  0
M  END
$$$$
