
     RDKit          3D

 43 46  0  0  0  0  0  0  0  0999 V2000
  -17.4986  -44.4953   -2.1456 C   0  0  0  0  0  0  0  0  0  0  0  0
  -18.1065  -43.6662   -3.0736 O   0  0  0  0  0  0  0  0  0  0  0  0
  -18.3335  -44.3094   -4.2811 C   0  0  0  0  0  0  0  0  0  0  0  0
  -19.2069  -43.5343   -5.2022 C   0  0  0  0  0  0  0  0  0  0  0  0
  -20.5369  -43.3453   -4.9723 C   0  0  0  0  0  0  0  0  0  0  0  0
  -21.3928  -42.6077   -5.8398 C   0  0  0  0  0  0  0  0  0  0  0  0
  -20.8764  -42.0423   -6.9851 C   0  0  0  0  0  0  0  0  0  0  0  0
  -19.5335  -42.2129   -7.2486 C   0  0  0  0  0  0  0  0  0  0  0  0
  -18.7276  -42.9591   -6.3460 C   0  0  0  0  0  0  0  0  0  0  0  0
  -18.6882  -41.7459   -8.3632 C   0  0  0  0  0  0  0  0  0  0  0  0
  -17.7967  -42.5919   -8.8627 O   0  0  0  0  0  0  0  0  0  0  0  0
  -18.6062  -40.5197   -9.0630 N   0  0  0  0  0  0  0  0  0  0  0  0
  -18.4376  -39.1968   -8.5489 C   0  0  1  0  0  0  0  0  0  0  0  0
  -19.5935  -38.7194   -7.7002 C   0  0  0  0  0  0  0  0  0  0  0  0
  -20.7981  -38.4707   -8.6056 C   0  0  2  0  0  0  0  0  0  0  0  0
  -20.4029  -37.6185   -9.7861 C   0  0  0  0  0  0  0  0  0  0  0  0
  -21.7929  -37.6871   -7.7998 C   0  0  0  0  0  0  0  0  0  0  0  0
  -23.1694  -37.6276   -8.3826 C   0  0  0  0  0  0  0  0  0  0  0  0
  -23.8544  -38.9443   -8.5466 C   0  0  0  0  0  0  0  0  0  0  0  0
  -23.8668  -39.6489   -7.1992 C   0  0  0  0  0  0  0  0  0  0  0  0
  -24.5281  -40.9762   -7.3968 C   0  0  0  0  0  0  0  0  0  0  0  0
  -24.8263  -41.6123   -6.0782 C   0  0  0  0  0  0  0  0  0  0  0  0
  -23.6938  -41.5565   -5.1101 C   0  0  0  0  0  0  0  0  0  0  0  0
  -22.7126  -42.6079   -5.2917 N   0  0  0  0  0  0  0  0  0  0  0  0
  -17.0887  -38.9402   -7.9423 C   0  0  2  0  0  0  0  0  0  0  0  0
  -16.8801  -37.7177   -7.3959 O   0  0  0  0  0  0  0  0  0  0  0  0
  -15.9856  -39.2484   -8.9288 C   0  0  0  0  0  0  0  0  0  0  0  0
  -15.0999  -40.2043   -8.3010 N   0  0  0  0  0  0  0  0  0  0  0  0
  -13.7091  -39.9168   -8.4305 C   0  0  1  0  0  0  0  0  0  0  0  0
  -12.8136  -41.0479   -8.0671 C   0  0  0  0  0  0  0  0  0  0  0  0
  -12.8892  -42.2089   -9.0262 C   0  0  0  0  0  0  0  0  0  0  0  0
  -11.4636  -42.7405   -9.1909 C   0  0  0  0  0  0  0  0  0  0  0  0
  -13.7370  -43.3279   -8.5192 C   0  0  0  0  0  0  0  0  0  0  0  0
  -13.2853  -41.7899  -10.3338 O   0  0  0  0  0  0  0  0  0  0  0  0
  -13.1603  -40.4680  -10.7405 C   0  0  0  0  0  0  0  0  0  0  0  0
  -12.8409  -40.0953  -12.0238 C   0  0  0  0  0  0  0  0  0  0  0  0
  -12.7284  -38.7675  -12.3802 C   0  0  0  0  0  0  0  0  0  0  0  0
  -12.9302  -37.7504  -11.4686 C   0  0  0  0  0  0  0  0  0  0  0  0
  -13.2524  -38.1387  -10.1737 C   0  0  0  0  0  0  0  0  0  0  0  0
  -13.3645  -39.4641   -9.8196 C   0  0  0  0  0  0  0  0  0  0  0  0
  -12.8116  -36.3085  -11.8380 C   0  0  0  0  0  0  0  0  0  0  0  0
  -13.8811  -35.9554  -12.8737 C   0  0  0  0  0  0  0  0  0  0  0  0
  -11.4478  -35.9356  -12.3187 C   0  0  0  0  0  0  0  0  0  0  0  0
  1  2  1  0
  2  3  1  0
  3  4  1  0
  4  5  2  0
  5  6  1  0
  6  7  2  0
  7  8  1  0
  8  9  2  0
  8 10  1  0
 10 11  2  0
 10 12  1  0
 12 13  1  0
 13 14  1  1
 14 15  1  0
 15 16  1  6
 15 17  1  0
 17 18  1  0
 18 19  1  0
 19 20  1  0
 20 21  1  0
 21 22  1  0
 22 23  1  0
 23 24  1  0
 13 25  1  0
 25 26  1  6
 25 27  1  0
 27 28  1  0
 29 28  1  6
 29 30  1  0
 30 31  1  0
 31 32  1  0
 31 33  1  0
 31 34  1  0
 34 35  1  0
 35 36  2  0
 36 37  1  0
 37 38  2  0
 38 39  1  0
 39 40  2  0
 38 41  1  0
 41 42  1  0
 41 43  1  0
  9  4  1  0
 24  6  1  0
 40 35  1  0
 40 29  1  0
M  END
$$$$
