
     RDKit          3D

 43 46  0  0  0  0  0  0  0  0999 V2000
  -14.1629  -45.8829   -8.7528 C   0  0  0  0  0  0  0  0  0  0  0  0
  -15.3936  -45.5472   -8.2134 O   0  0  0  0  0  0  0  0  0  0  0  0
  -16.4265  -45.7098   -9.1245 C   0  0  0  0  0  0  0  0  0  0  0  0
  -17.6067  -44.8538   -8.8304 C   0  0  0  0  0  0  0  0  0  0  0  0
  -18.6438  -45.2709   -8.0507 C   0  0  0  0  0  0  0  0  0  0  0  0
  -19.7841  -44.4696   -7.7558 C   0  0  0  0  0  0  0  0  0  0  0  0
  -19.8731  -43.1964   -8.2749 C   0  0  0  0  0  0  0  0  0  0  0  0
  -18.8404  -42.7414   -9.0676 C   0  0  0  0  0  0  0  0  0  0  0  0
  -17.7269  -43.5860   -9.3276 C   0  0  0  0  0  0  0  0  0  0  0  0
  -18.6321  -41.4564   -9.7606 C   0  0  0  0  0  0  0  0  0  0  0  0
  -18.1359  -41.4879  -10.9905 O   0  0  0  0  0  0  0  0  0  0  0  0
  -18.8536  -40.1112   -9.3846 N   0  0  0  0  0  0  0  0  0  0  0  0
  -18.4002  -39.4126   -8.2231 C   0  0  1  0  0  0  0  0  0  0  0  0
  -18.9703  -39.9450   -6.9286 C   0  0  0  0  0  0  0  0  0  0  0  0
  -20.4528  -39.5841   -6.8595 C   0  0  2  0  0  0  0  0  0  0  0  0
  -20.6528  -38.1188   -7.1573 C   0  0  0  0  0  0  0  0  0  0  0  0
  -20.8912  -39.8176   -5.4430 C   0  0  0  0  0  0  0  0  0  0  0  0
  -22.3728  -39.8454   -5.2380 C   0  0  0  0  0  0  0  0  0  0  0  0
  -23.1037  -40.9146   -5.9813 C   0  0  0  0  0  0  0  0  0  0  0  0
  -22.4826  -42.2559   -5.6249 C   0  0  0  0  0  0  0  0  0  0  0  0
  -23.2099  -43.3049   -6.4053 C   0  0  0  0  0  0  0  0  0  0  0  0
  -22.8488  -44.6677   -5.9106 C   0  0  0  0  0  0  0  0  0  0  0  0
  -21.3858  -44.8682   -5.7046 C   0  0  0  0  0  0  0  0  0  0  0  0
  -20.6640  -45.2158   -6.9127 N   0  0  0  0  0  0  0  0  0  0  0  0
  -16.9179  -39.1784   -8.1860 C   0  0  2  0  0  0  0  0  0  0  0  0
  -16.4989  -37.9100   -7.9568 O   0  0  0  0  0  0  0  0  0  0  0  0
  -16.2555  -39.7121   -9.4355 C   0  0  0  0  0  0  0  0  0  0  0  0
  -15.5213  -38.6193  -10.0350 N   0  0  0  0  0  0  0  0  0  0  0  0
  -14.1479  -38.8902  -10.3075 C   0  0  1  0  0  0  0  0  0  0  0  0
  -13.8413  -40.3274  -10.5388 C   0  0  0  0  0  0  0  0  0  0  0  0
  -14.4310  -40.8717  -11.8154 C   0  0  0  0  0  0  0  0  0  0  0  0
  -13.3888  -41.8177  -12.4162 C   0  0  0  0  0  0  0  0  0  0  0  0
  -15.6815  -41.6552  -11.5907 C   0  0  0  0  0  0  0  0  0  0  0  0
  -14.6128  -39.8459  -12.7936 O   0  0  0  0  0  0  0  0  0  0  0  0
  -13.9202  -38.6446  -12.7217 C   0  0  0  0  0  0  0  0  0  0  0  0
  -13.4804  -37.9544  -13.8254 C   0  0  0  0  0  0  0  0  0  0  0  0
  -12.7958  -36.7631  -13.7031 C   0  0  0  0  0  0  0  0  0  0  0  0
  -12.5190  -36.2069  -12.4702 C   0  0  0  0  0  0  0  0  0  0  0  0
  -12.9680  -36.9134  -11.3608 C   0  0  0  0  0  0  0  0  0  0  0  0
  -13.6512  -38.1020  -11.4845 C   0  0  0  0  0  0  0  0  0  0  0  0
  -11.7786  -34.9189  -12.3204 C   0  0  0  0  0  0  0  0  0  0  0  0
  -10.3886  -35.1913  -11.7417 C   0  0  0  0  0  0  0  0  0  0  0  0
  -12.5167  -33.9088  -11.5047 C   0  0  0  0  0  0  0  0  0  0  0  0
  1  2  1  0
  2  3  1  0
  3  4  1  0
  4  5  2  0
  5  6  1  0
  6  7  2  0
  7  8  1  0
  8  9  2  0
  8 10  1  0
 10 11  2  0
 10 12  1  0
 12 13  1  0
 13 14  1  1
 14 15  1  0
 15 16  1  1
 15 17  1  0
 17 18  1  0
 18 19  1  0
 19 20  1  0
 20 21  1  0
 21 22  1  0
 22 23  1  0
 23 24  1  0
 13 25  1  0
 25 26  1  6
 25 27  1  0
 27 28  1  0
 29 28  1  6
 29 30  1  0
 30 31  1  0
 31 32  1  0
 31 33  1  0
 31 34  1  0
 34 35  1  0
 35 36  2  0
 36 37  1  0
 37 38  2  0
 38 39  1  0
 39 40  2  0
 38 41  1  0
 41 42  1  0
 41 43  1  0
  9  4  1  0
 24  6  1  0
 40 35  1  0
 40 29  1  0
M  END
$$$$
