
     RDKit          3D

 43 46  0  0  0  0  0  0  0  0999 V2000
  -15.0920  -45.6217   -8.3746 C   0  0  0  0  0  0  0  0  0  0  0  0
  -16.3137  -46.2736   -8.3976 O   0  0  0  0  0  0  0  0  0  0  0  0
  -17.1158  -45.8461   -9.4451 C   0  0  0  0  0  0  0  0  0  0  0  0
  -18.1684  -44.8844   -9.0217 C   0  0  0  0  0  0  0  0  0  0  0  0
  -19.2342  -45.2488   -8.2544 C   0  0  0  0  0  0  0  0  0  0  0  0
  -20.2543  -44.3462   -7.8373 C   0  0  0  0  0  0  0  0  0  0  0  0
  -20.1882  -43.0232   -8.2164 C   0  0  0  0  0  0  0  0  0  0  0  0
  -19.1222  -42.6195   -8.9926 C   0  0  0  0  0  0  0  0  0  0  0  0
  -18.1335  -43.5652   -9.3786 C   0  0  0  0  0  0  0  0  0  0  0  0
  -18.7635  -41.3036   -9.5538 C   0  0  0  0  0  0  0  0  0  0  0  0
  -18.3018  -41.2640  -10.7968 O   0  0  0  0  0  0  0  0  0  0  0  0
  -18.8005  -39.9901   -9.0311 N   0  0  0  0  0  0  0  0  0  0  0  0
  -18.2358  -39.4848   -7.8193 C   0  0  1  0  0  0  0  0  0  0  0  0
  -18.8428  -40.0781   -6.5687 C   0  0  0  0  0  0  0  0  0  0  0  0
  -20.2640  -39.5418   -6.4103 C   0  0  2  0  0  0  0  0  0  0  0  0
  -20.2784  -38.0393   -6.5455 C   0  0  0  0  0  0  0  0  0  0  0  0
  -20.6990  -39.8703   -5.0118 C   0  0  0  0  0  0  0  0  0  0  0  0
  -22.1670  -39.7320   -4.7592 C   0  0  0  0  0  0  0  0  0  0  0  0
  -23.0461  -40.6128   -5.5846 C   0  0  0  0  0  0  0  0  0  0  0  0
  -22.5969  -42.0528   -5.3928 C   0  0  0  0  0  0  0  0  0  0  0  0
  -23.4705  -42.9100   -6.2531 C   0  0  0  0  0  0  0  0  0  0  0  0
  -23.2790  -44.3533   -5.9171 C   0  0  0  0  0  0  0  0  0  0  0  0
  -21.8504  -44.7588   -5.7845 C   0  0  0  0  0  0  0  0  0  0  0  0
  -21.2056  -45.0619   -7.0469 N   0  0  0  0  0  0  0  0  0  0  0  0
  -16.7351  -39.4459   -7.8096 C   0  0  2  0  0  0  0  0  0  0  0  0
  -16.1490  -38.3969   -7.1830 O   0  0  0  0  0  0  0  0  0  0  0  0
  -16.1828  -39.5712   -9.2111 C   0  0  0  0  0  0  0  0  0  0  0  0
  -14.7580  -39.3330   -9.1362 N   0  0  0  0  0  0  0  0  0  0  0  0
  -14.3237  -38.0855   -9.6738 C   0  0  1  0  0  0  0  0  0  0  0  0
  -12.8465  -37.9469   -9.7831 C   0  0  0  0  0  0  0  0  0  0  0  0
  -12.2301  -38.8581  -10.8144 C   0  0  0  0  0  0  0  0  0  0  0  0
  -11.1259  -38.0578  -11.5087 C   0  0  0  0  0  0  0  0  0  0  0  0
  -11.6041  -40.0740  -10.2162 C   0  0  0  0  0  0  0  0  0  0  0  0
  -13.1582  -39.1902  -11.8491 O   0  0  0  0  0  0  0  0  0  0  0  0
  -14.2851  -38.4149  -12.0885 C   0  0  0  0  0  0  0  0  0  0  0  0
  -14.8056  -38.1983  -13.3415 C   0  0  0  0  0  0  0  0  0  0  0  0
  -15.9288  -37.4197  -13.5290 C   0  0  0  0  0  0  0  0  0  0  0  0
  -16.5834  -36.8211  -12.4711 C   0  0  0  0  0  0  0  0  0  0  0  0
  -16.0483  -37.0466  -11.2085 C   0  0  0  0  0  0  0  0  0  0  0  0
  -14.9276  -37.8239  -11.0229 C   0  0  0  0  0  0  0  0  0  0  0  0
  -17.7996  -35.9751  -12.6570 C   0  0  0  0  0  0  0  0  0  0  0  0
  -18.8180  -36.2938  -11.5604 C   0  0  0  0  0  0  0  0  0  0  0  0
  -18.4062  -36.1091  -14.0151 C   0  0  0  0  0  0  0  0  0  0  0  0
  1  2  1  0
  2  3  1  0
  3  4  1  0
  4  5  2  0
  5  6  1  0
  6  7  2  0
  7  8  1  0
  8  9  2  0
  8 10  1  0
 10 11  2  0
 10 12  1  0
 12 13  1  0
 13 14  1  1
 14 15  1  0
 15 16  1  1
 15 17  1  0
 17 18  1  0
 18 19  1  0
 19 20  1  0
 20 21  1  0
 21 22  1  0
 22 23  1  0
 23 24  1  0
 13 25  1  0
 25 26  1  6
 25 27  1  0
 27 28  1  0
 29 28  1  6
 29 30  1  0
 30 31  1  0
 31 32  1  0
 31 33  1  0
 31 34  1  0
 34 35  1  0
 35 36  2  0
 36 37  1  0
 37 38  2  0
 38 39  1  0
 39 40  2  0
 38 41  1  0
 41 42  1  0
 41 43  1  0
  9  4  1  0
 24  6  1  0
 40 35  1  0
 40 29  1  0
M  END
$$$$
