
     RDKit          3D

 37 39  0  0  0  0  0  0  0  0999 V2000
  -14.8151  -33.9779  -11.2916 C   0  0  0  0  0  0  0  0  0  0  0  0
  -13.5382  -34.6816  -11.7608 C   0  0  0  0  0  0  0  0  0  0  0  0
  -12.4105  -34.1361  -10.9203 C   0  0  0  0  0  0  0  0  0  0  0  0
  -13.7191  -36.1463  -11.5306 C   0  0  0  0  0  0  0  0  0  0  0  0
  -13.5325  -36.7436  -10.3079 C   0  0  0  0  0  0  0  0  0  0  0  0
  -13.7077  -38.1078  -10.1220 C   0  0  0  0  0  0  0  0  0  0  0  0
  -13.5117  -38.7745   -8.8154 C   0  0  0  0  0  0  0  0  0  0  0  0
  -14.0651  -40.0984   -8.7507 N   0  0  0  0  0  0  0  0  0  0  0  0
  -15.4700  -40.0402   -9.0379 C   0  0  0  0  0  0  0  0  0  0  0  0
  -16.3113  -39.7728   -7.8273 C   0  0  1  0  0  0  0  0  0  0  0  0
  -16.2650  -38.4212   -7.5233 O   0  0  0  0  0  0  0  0  0  0  0  0
  -17.7669  -40.1544   -8.0530 C   0  0  2  0  0  0  0  0  0  0  0  0
  -18.6131  -38.9189   -7.7234 C   0  0  0  0  0  0  0  0  0  0  0  0
  -20.0351  -39.2852   -7.3688 C   0  0  2  0  0  0  0  0  0  0  0  0
  -21.0171  -38.7570   -8.4074 C   0  0  0  0  0  0  0  0  0  0  0  0
  -20.4069  -38.8293   -5.9788 C   0  0  0  0  0  0  0  0  0  0  0  0
  -21.8604  -38.4366   -5.8636 C   0  0  0  0  0  0  0  0  0  0  0  0
  -22.5125  -39.0436   -4.6370 C   0  0  0  0  0  0  0  0  0  0  0  0
  -23.5699  -40.0608   -4.9966 C   0  0  0  0  0  0  0  0  0  0  0  0
  -23.0469  -41.2111   -5.7889 C   0  0  0  0  0  0  0  0  0  0  0  0
  -22.5484  -42.3206   -4.8963 C   0  0  0  0  0  0  0  0  0  0  0  0
  -22.1262  -43.5190   -5.6926 C   0  0  0  0  0  0  0  0  0  0  0  0
  -20.9110  -43.1693   -6.5618 C   0  0  0  0  0  0  0  0  0  0  0  0
  -20.3589  -44.3937   -7.1917 C   0  0  0  0  0  0  0  0  0  0  0  0
  -20.6543  -45.5010   -6.6185 O   0  0  0  0  0  0  0  0  0  0  0  0
  -19.5549  -44.3891   -8.3486 N   0  0  0  0  0  0  0  0  0  0  0  0
  -19.6547  -45.4866   -9.2798 C   0  0  0  0  0  0  0  0  0  0  0  0
  -19.6135  -44.8179  -10.6640 C   0  0  0  0  0  0  0  0  0  0  0  0
  -20.1539  -43.3964  -10.5574 C   0  0  0  0  0  0  0  0  0  0  0  0
  -19.2021  -42.5031   -9.7452 C   0  0  0  0  0  0  0  0  0  0  0  0
  -18.6198  -43.3363   -8.6683 C   0  0  1  0  0  0  0  0  0  0  0  0
  -18.1436  -42.6122   -7.4733 C   0  0  0  0  0  0  0  0  0  0  0  0
  -17.6426  -43.3897   -6.5800 O   0  0  0  0  0  0  0  0  0  0  0  0
  -18.1730  -41.2447   -7.2128 N   0  0  0  0  0  0  0  0  0  0  0  0
  -14.0832  -38.8375  -11.2441 C   0  0  0  0  0  0  0  0  0  0  0  0
  -14.2761  -38.2595  -12.4807 C   0  0  0  0  0  0  0  0  0  0  0  0
  -14.0937  -36.9098  -12.6255 C   0  0  0  0  0  0  0  0  0  0  0  0
  1  2  1  0
  2  3  1  0
  2  4  1  0
  4  5  2  0
  5  6  1  0
  6  7  1  0
  7  8  1  0
  8  9  1  0
  9 10  1  0
 10 11  1  6
 10 12  1  0
 12 13  1  1
 13 14  1  0
 14 15  1  6
 14 16  1  0
 16 17  1  0
 17 18  1  0
 18 19  1  0
 19 20  1  0
 20 21  1  0
 21 22  1  0
 22 23  1  0
 23 24  1  0
 24 25  2  0
 24 26  1  0
 26 27  1  0
 27 28  1  0
 28 29  1  0
 29 30  1  0
 31 30  1  6
 31 32  1  0
 32 33  2  0
 32 34  1  0
  6 35  2  0
 35 36  1  0
 36 37  2  0
 31 26  1  0
 34 12  1  0
 37  4  1  0
M  END
$$$$
