
     RDKit          3D

 37 39  0  0  0  0  0  0  0  0999 V2000
  -21.8965  -41.2792   -4.8105 C   0  0  0  0  0  0  0  0  0  0  0  0
  -22.8318  -40.0987   -5.0882 C   0  0  0  0  0  0  0  0  0  0  0  0
  -22.6646  -39.1354   -3.9394 C   0  0  0  0  0  0  0  0  0  0  0  0
  -22.4036  -39.4766   -6.3769 C   0  0  0  0  0  0  0  0  0  0  0  0
  -21.1735  -38.8928   -6.5574 C   0  0  0  0  0  0  0  0  0  0  0  0
  -20.8013  -38.3218   -7.7665 C   0  0  0  0  0  0  0  0  0  0  0  0
  -19.4829  -37.6862   -7.9851 C   0  0  0  0  0  0  0  0  0  0  0  0
  -18.6861  -38.3335   -8.9899 N   0  0  0  0  0  0  0  0  0  0  0  0
  -17.9957  -39.4468   -8.4038 C   0  0  0  0  0  0  0  0  0  0  0  0
  -16.5912  -39.1237   -7.9944 C   0  0  1  0  0  0  0  0  0  0  0  0
  -16.5425  -38.9373   -6.6217 O   0  0  0  0  0  0  0  0  0  0  0  0
  -15.6248  -40.2435   -8.3515 C   0  0  2  0  0  0  0  0  0  0  0  0
  -14.2112  -39.7326   -8.0485 C   0  0  0  0  0  0  0  0  0  0  0  0
  -13.1596  -40.4746   -8.8394 C   0  0  2  0  0  0  0  0  0  0  0  0
  -12.2536  -41.2901   -7.9250 C   0  0  0  0  0  0  0  0  0  0  0  0
  -12.3593  -39.5496   -9.7237 C   0  0  0  0  0  0  0  0  0  0  0  0
  -10.9247  -39.9929   -9.8836 C   0  0  0  0  0  0  0  0  0  0  0  0
  -10.4816  -39.9557  -11.3329 C   0  0  0  0  0  0  0  0  0  0  0  0
  -10.2052  -41.3359  -11.8813 C   0  0  0  0  0  0  0  0  0  0  0  0
  -11.3892  -42.2420  -11.8425 C   0  0  0  0  0  0  0  0  0  0  0  0
  -12.2268  -42.1169  -13.0910 C   0  0  0  0  0  0  0  0  0  0  0  0
  -13.3532  -43.1067  -13.0988 C   0  0  0  0  0  0  0  0  0  0  0  0
  -14.3349  -42.7927  -11.9620 C   0  0  0  0  0  0  0  0  0  0  0  0
  -15.5527  -43.6305  -12.0871 C   0  0  0  0  0  0  0  0  0  0  0  0
  -15.7877  -44.1073  -13.2530 O   0  0  0  0  0  0  0  0  0  0  0  0
  -16.4269  -43.9120  -11.0188 N   0  0  0  0  0  0  0  0  0  0  0  0
  -17.0912  -45.1919  -10.9712 C   0  0  0  0  0  0  0  0  0  0  0  0
  -17.0230  -45.6027   -9.4908 C   0  0  0  0  0  0  0  0  0  0  0  0
  -15.8055  -44.9561   -8.8400 C   0  0  0  0  0  0  0  0  0  0  0  0
  -15.9778  -43.4317   -8.7385 C   0  0  0  0  0  0  0  0  0  0  0  0
  -16.7059  -42.9844   -9.9481 C   0  0  1  0  0  0  0  0  0  0  0  0
  -16.5033  -41.5767  -10.3438 C   0  0  0  0  0  0  0  0  0  0  0  0
  -17.1677  -41.2487  -11.3947 O   0  0  0  0  0  0  0  0  0  0  0  0
  -15.7107  -40.6057   -9.7375 N   0  0  0  0  0  0  0  0  0  0  0  0
  -21.7444  -38.3738   -8.7865 C   0  0  0  0  0  0  0  0  0  0  0  0
  -22.9846  -38.9544   -8.6282 C   0  0  0  0  0  0  0  0  0  0  0  0
  -23.3163  -39.5078   -7.4200 C   0  0  0  0  0  0  0  0  0  0  0  0
  1  2  1  0
  2  3  1  0
  2  4  1  0
  4  5  2  0
  5  6  1  0
  6  7  1  0
  7  8  1  0
  8  9  1  0
  9 10  1  0
 10 11  1  1
 10 12  1  0
 12 13  1  6
 13 14  1  0
 14 15  1  1
 14 16  1  0
 16 17  1  0
 17 18  1  0
 18 19  1  0
 19 20  1  0
 20 21  1  0
 21 22  1  0
 22 23  1  0
 23 24  1  0
 24 25  2  0
 24 26  1  0
 26 27  1  0
 27 28  1  0
 28 29  1  0
 29 30  1  0
 31 30  1  1
 31 32  1  0
 32 33  2  0
 32 34  1  0
  6 35  2  0
 35 36  1  0
 36 37  2  0
 31 26  1  0
 34 12  1  0
 37  4  1  0
M  END
$$$$
