
     RDKit          3D

 37 39  0  0  0  0  0  0  0  0999 V2000
  -23.7854  -39.9046   -5.2687 C   0  0  0  0  0  0  0  0  0  0  0  0
  -22.8187  -40.9476   -5.8371 C   0  0  0  0  0  0  0  0  0  0  0  0
  -23.6240  -41.8226   -6.7654 C   0  0  0  0  0  0  0  0  0  0  0  0
  -21.7508  -40.2153   -6.5817 C   0  0  0  0  0  0  0  0  0  0  0  0
  -20.5495  -39.8609   -6.0178 C   0  0  0  0  0  0  0  0  0  0  0  0
  -19.5741  -39.1804   -6.7333 C   0  0  0  0  0  0  0  0  0  0  0  0
  -18.2732  -38.7869   -6.1480 C   0  0  0  0  0  0  0  0  0  0  0  0
  -17.4247  -39.8984   -5.8196 N   0  0  0  0  0  0  0  0  0  0  0  0
  -16.1720  -39.7583   -6.5057 C   0  0  0  0  0  0  0  0  0  0  0  0
  -16.2481  -38.8552   -7.6988 C   0  0  1  0  0  0  0  0  0  0  0  0
  -16.2690  -37.5350   -7.2769 O   0  0  0  0  0  0  0  0  0  0  0  0
  -15.0525  -39.0347   -8.6228 C   0  0  2  0  0  0  0  0  0  0  0  0
  -14.9970  -37.8018   -9.5326 C   0  0  0  0  0  0  0  0  0  0  0  0
  -14.2486  -38.0783  -10.8154 C   0  0  2  0  0  0  0  0  0  0  0  0
  -12.9615  -37.2660  -10.8904 C   0  0  0  0  0  0  0  0  0  0  0  0
  -15.1116  -37.8547  -12.0334 C   0  0  0  0  0  0  0  0  0  0  0  0
  -14.3270  -37.3419  -13.2172 C   0  0  0  0  0  0  0  0  0  0  0  0
  -14.6658  -38.0969  -14.4875 C   0  0  0  0  0  0  0  0  0  0  0  0
  -13.5005  -38.9135  -14.9947 C   0  0  0  0  0  0  0  0  0  0  0  0
  -13.0260  -39.9430  -14.0255 C   0  0  0  0  0  0  0  0  0  0  0  0
  -13.7693  -41.2456  -14.1891 C   0  0  0  0  0  0  0  0  0  0  0  0
  -13.2159  -42.3109  -13.2905 C   0  0  0  0  0  0  0  0  0  0  0  0
  -13.4515  -41.9327  -11.8222 C   0  0  0  0  0  0  0  0  0  0  0  0
  -13.0986  -43.0680  -10.9350 C   0  0  0  0  0  0  0  0  0  0  0  0
  -13.0910  -44.2263  -11.4829 O   0  0  0  0  0  0  0  0  0  0  0  0
  -12.7840  -42.9303   -9.5687 N   0  0  0  0  0  0  0  0  0  0  0  0
  -11.8123  -43.8175   -8.9769 C   0  0  0  0  0  0  0  0  0  0  0  0
  -10.9722  -42.9094   -8.0634 C   0  0  0  0  0  0  0  0  0  0  0  0
  -10.9933  -41.4848   -8.6056 C   0  0  0  0  0  0  0  0  0  0  0  0
  -12.3929  -40.8630   -8.4706 C   0  0  0  0  0  0  0  0  0  0  0  0
  -13.3828  -41.9391   -8.7061 C   0  0  1  0  0  0  0  0  0  0  0  0
  -14.7144  -41.5050   -9.1724 C   0  0  0  0  0  0  0  0  0  0  0  0
  -15.5292  -42.4837   -9.3503 O   0  0  0  0  0  0  0  0  0  0  0  0
  -15.1703  -40.2149   -9.4307 N   0  0  0  0  0  0  0  0  0  0  0  0
  -19.8811  -38.8768   -8.0547 C   0  0  0  0  0  0  0  0  0  0  0  0
  -21.0798  -39.2224   -8.6414 C   0  0  0  0  0  0  0  0  0  0  0  0
  -22.0182  -39.8937   -7.9034 C   0  0  0  0  0  0  0  0  0  0  0  0
  1  2  1  0
  2  3  1  0
  2  4  1  0
  4  5  2  0
  5  6  1  0
  6  7  1  0
  7  8  1  0
  8  9  1  0
  9 10  1  0
 10 11  1  1
 10 12  1  0
 12 13  1  6
 13 14  1  0
 14 15  1  6
 14 16  1  0
 16 17  1  0
 17 18  1  0
 18 19  1  0
 19 20  1  0
 20 21  1  0
 21 22  1  0
 22 23  1  0
 23 24  1  0
 24 25  2  0
 24 26  1  0
 26 27  1  0
 27 28  1  0
 28 29  1  0
 29 30  1  0
 31 30  1  6
 31 32  1  0
 32 33  2  0
 32 34  1  0
  6 35  2  0
 35 36  1  0
 36 37  2  0
 31 26  1  0
 34 12  1  0
 37  4  1  0
M  END
$$$$
