
     RDKit          3D

 37 39  0  0  0  0  0  0  0  0999 V2000
  -12.1029  -34.5382  -11.3238 C   0  0  0  0  0  0  0  0  0  0  0  0
  -13.1395  -35.3865  -12.0665 C   0  0  0  0  0  0  0  0  0  0  0  0
  -13.0789  -34.9718  -13.5157 C   0  0  0  0  0  0  0  0  0  0  0  0
  -12.7520  -36.8196  -11.9018 C   0  0  0  0  0  0  0  0  0  0  0  0
  -13.2504  -37.6231  -10.9055 C   0  0  0  0  0  0  0  0  0  0  0  0
  -12.8731  -38.9525  -10.7757 C   0  0  0  0  0  0  0  0  0  0  0  0
  -13.3950  -39.8376   -9.7107 C   0  0  0  0  0  0  0  0  0  0  0  0
  -14.6321  -40.4847  -10.0485 N   0  0  0  0  0  0  0  0  0  0  0  0
  -15.7043  -39.5349   -9.9596 C   0  0  0  0  0  0  0  0  0  0  0  0
  -16.2968  -39.4375   -8.5869 C   0  0  1  0  0  0  0  0  0  0  0  0
  -16.3308  -38.1089   -8.1928 O   0  0  0  0  0  0  0  0  0  0  0  0
  -17.7188  -39.9773   -8.5435 C   0  0  2  0  0  0  0  0  0  0  0  0
  -18.6285  -38.8176   -8.1213 C   0  0  0  0  0  0  0  0  0  0  0  0
  -19.9223  -39.3057   -7.5131 C   0  0  2  0  0  0  0  0  0  0  0  0
  -21.1161  -38.9401   -8.3867 C   0  0  0  0  0  0  0  0  0  0  0  0
  -20.1043  -38.8116   -6.0986 C   0  0  0  0  0  0  0  0  0  0  0  0
  -21.5523  -38.5628   -5.7501 C   0  0  0  0  0  0  0  0  0  0  0  0
  -21.9196  -39.1621   -4.4069 C   0  0  0  0  0  0  0  0  0  0  0  0
  -22.9039  -40.3005   -4.5393 C   0  0  0  0  0  0  0  0  0  0  0  0
  -22.3976  -41.4348   -5.3645 C   0  0  0  0  0  0  0  0  0  0  0  0
  -21.6380  -42.4352   -4.5289 C   0  0  0  0  0  0  0  0  0  0  0  0
  -21.2257  -43.6279   -5.3389 C   0  0  0  0  0  0  0  0  0  0  0  0
  -20.2187  -43.2065   -6.4173 C   0  0  0  0  0  0  0  0  0  0  0  0
  -19.6486  -44.4023   -7.0848 C   0  0  0  0  0  0  0  0  0  0  0  0
  -19.7205  -45.4994   -6.4268 O   0  0  0  0  0  0  0  0  0  0  0  0
  -19.0546  -44.3818   -8.3622 N   0  0  0  0  0  0  0  0  0  0  0  0
  -19.1874  -45.5349   -9.2191 C   0  0  0  0  0  0  0  0  0  0  0  0
  -19.4519  -44.9454  -10.6145 C   0  0  0  0  0  0  0  0  0  0  0  0
  -20.1198  -43.5825  -10.4717 C   0  0  0  0  0  0  0  0  0  0  0  0
  -19.1496  -42.5523   -9.8708 C   0  0  0  0  0  0  0  0  0  0  0  0
  -18.3075  -43.2593   -8.8788 C   0  0  1  0  0  0  0  0  0  0  0  0
  -17.7208  -42.4237   -7.8126 C   0  0  0  0  0  0  0  0  0  0  0  0
  -16.9953  -43.0941   -6.9895 O   0  0  0  0  0  0  0  0  0  0  0  0
  -17.8564  -41.0536   -7.6043 N   0  0  0  0  0  0  0  0  0  0  0  0
  -11.9611  -39.4264  -11.7118 C   0  0  0  0  0  0  0  0  0  0  0  0
  -11.4478  -38.6385  -12.7198 C   0  0  0  0  0  0  0  0  0  0  0  0
  -11.8438  -37.3309  -12.8160 C   0  0  0  0  0  0  0  0  0  0  0  0
  1  2  1  0
  2  3  1  0
  2  4  1  0
  4  5  2  0
  5  6  1  0
  6  7  1  0
  7  8  1  0
  8  9  1  0
  9 10  1  0
 10 11  1  6
 10 12  1  0
 12 13  1  1
 13 14  1  0
 14 15  1  6
 14 16  1  0
 16 17  1  0
 17 18  1  0
 18 19  1  0
 19 20  1  0
 20 21  1  0
 21 22  1  0
 22 23  1  0
 23 24  1  0
 24 25  2  0
 24 26  1  0
 26 27  1  0
 27 28  1  0
 28 29  1  0
 29 30  1  0
 31 30  1  1
 31 32  1  0
 32 33  2  0
 32 34  1  0
  6 35  2  0
 35 36  1  0
 36 37  2  0
 31 26  1  0
 34 12  1  0
 37  4  1  0
M  END
$$$$
