
     RDKit          3D

 37 39  0  0  0  0  0  0  0  0999 V2000
  -14.6045  -33.6239  -12.4934 C   0  0  0  0  0  0  0  0  0  0  0  0
  -14.7743  -34.5285  -11.2694 C   0  0  0  0  0  0  0  0  0  0  0  0
  -16.2586  -34.6736  -11.0418 C   0  0  0  0  0  0  0  0  0  0  0  0
  -14.1495  -35.8464  -11.5916 C   0  0  0  0  0  0  0  0  0  0  0  0
  -13.9796  -36.8445  -10.6634 C   0  0  0  0  0  0  0  0  0  0  0  0
  -13.3956  -38.0605  -10.9904 C   0  0  0  0  0  0  0  0  0  0  0  0
  -13.2007  -39.1503  -10.0085 C   0  0  0  0  0  0  0  0  0  0  0  0
  -13.9956  -39.0099   -8.8203 N   0  0  0  0  0  0  0  0  0  0  0  0
  -15.3426  -39.4190   -9.0993 C   0  0  0  0  0  0  0  0  0  0  0  0
  -16.2711  -39.2305   -7.9387 C   0  0  1  0  0  0  0  0  0  0  0  0
  -16.4233  -37.8762   -7.6854 O   0  0  0  0  0  0  0  0  0  0  0  0
  -17.6487  -39.8150   -8.2141 C   0  0  2  0  0  0  0  0  0  0  0  0
  -18.6747  -38.7218   -7.8927 C   0  0  0  0  0  0  0  0  0  0  0  0
  -20.0376  -39.2970   -7.5869 C   0  0  2  0  0  0  0  0  0  0  0  0
  -21.0565  -38.8977   -8.6472 C   0  0  0  0  0  0  0  0  0  0  0  0
  -20.5106  -38.9259   -6.2025 C   0  0  0  0  0  0  0  0  0  0  0  0
  -22.0085  -38.7505   -6.1260 C   0  0  0  0  0  0  0  0  0  0  0  0
  -22.5994  -39.4684   -4.9287 C   0  0  0  0  0  0  0  0  0  0  0  0
  -23.4869  -40.6215   -5.3349 C   0  0  0  0  0  0  0  0  0  0  0  0
  -22.7800  -41.6688   -6.1273 C   0  0  0  0  0  0  0  0  0  0  0  0
  -22.1505  -42.7106   -5.2360 C   0  0  0  0  0  0  0  0  0  0  0  0
  -21.5361  -43.8200   -6.0361 C   0  0  0  0  0  0  0  0  0  0  0  0
  -20.3609  -43.2815   -6.8628 C   0  0  0  0  0  0  0  0  0  0  0  0
  -19.6190  -44.4009   -7.4930 C   0  0  0  0  0  0  0  0  0  0  0  0
  -19.7660  -45.5498   -6.9451 O   0  0  0  0  0  0  0  0  0  0  0  0
  -18.7921  -44.2581   -8.6247 N   0  0  0  0  0  0  0  0  0  0  0  0
  -18.7048  -45.3409   -9.5742 C   0  0  0  0  0  0  0  0  0  0  0  0
  -18.7226  -44.6476  -10.9467 C   0  0  0  0  0  0  0  0  0  0  0  0
  -19.4670  -43.3219  -10.8363 C   0  0  0  0  0  0  0  0  0  0  0  0
  -18.6786  -42.3152   -9.9827 C   0  0  0  0  0  0  0  0  0  0  0  0
  -18.0116  -43.0750   -8.9006 C   0  0  1  0  0  0  0  0  0  0  0  0
  -17.6796  -42.3118   -7.6814 C   0  0  0  0  0  0  0  0  0  0  0  0
  -17.0961  -43.0249   -6.7844 O   0  0  0  0  0  0  0  0  0  0  0  0
  -17.9151  -40.9681   -7.4024 N   0  0  0  0  0  0  0  0  0  0  0  0
  -12.9917  -38.2124  -12.3119 C   0  0  0  0  0  0  0  0  0  0  0  0
  -13.1522  -37.2248  -13.2602 C   0  0  0  0  0  0  0  0  0  0  0  0
  -13.7328  -36.0377  -12.8999 C   0  0  0  0  0  0  0  0  0  0  0  0
  1  2  1  0
  2  3  1  0
  2  4  1  0
  4  5  2  0
  5  6  1  0
  6  7  1  0
  7  8  1  0
  8  9  1  0
  9 10  1  0
 10 11  1  6
 10 12  1  0
 12 13  1  1
 13 14  1  0
 14 15  1  6
 14 16  1  0
 16 17  1  0
 17 18  1  0
 18 19  1  0
 19 20  1  0
 20 21  1  0
 21 22  1  0
 22 23  1  0
 23 24  1  0
 24 25  2  0
 24 26  1  0
 26 27  1  0
 27 28  1  0
 28 29  1  0
 29 30  1  0
 31 30  1  6
 31 32  1  0
 32 33  2  0
 32 34  1  0
  6 35  2  0
 35 36  1  0
 36 37  2  0
 31 26  1  0
 34 12  1  0
 37  4  1  0
M  END
$$$$
