
     RDKit          3D

 37 39  0  0  0  0  0  0  0  0999 V2000
  -14.8353  -35.5831  -14.4975 C   0  0  0  0  0  0  0  0  0  0  0  0
  -14.7021  -35.0506  -13.0677 C   0  0  0  0  0  0  0  0  0  0  0  0
  -16.0978  -34.9858  -12.4989 C   0  0  0  0  0  0  0  0  0  0  0  0
  -13.8555  -36.0153  -12.3035 C   0  0  0  0  0  0  0  0  0  0  0  0
  -14.3122  -37.2356  -11.8691 C   0  0  0  0  0  0  0  0  0  0  0  0
  -13.5034  -38.1133  -11.1606 C   0  0  0  0  0  0  0  0  0  0  0  0
  -13.9724  -39.4324  -10.6812 C   0  0  0  0  0  0  0  0  0  0  0  0
  -14.0363  -39.5406   -9.2502 N   0  0  0  0  0  0  0  0  0  0  0  0
  -15.2296  -38.8977   -8.7785 C   0  0  0  0  0  0  0  0  0  0  0  0
  -15.8775  -39.6174   -7.6353 C   0  0  1  0  0  0  0  0  0  0  0  0
  -15.8798  -38.7984   -6.5169 O   0  0  0  0  0  0  0  0  0  0  0  0
  -17.3190  -39.9932   -7.9459 C   0  0  2  0  0  0  0  0  0  0  0  0
  -18.1785  -38.7557   -7.6618 C   0  0  0  0  0  0  0  0  0  0  0  0
  -19.6199  -39.1179   -7.3910 C   0  0  2  0  0  0  0  0  0  0  0  0
  -20.5385  -38.5830   -8.4830 C   0  0  0  0  0  0  0  0  0  0  0  0
  -20.0698  -38.6648   -6.0234 C   0  0  0  0  0  0  0  0  0  0  0  0
  -21.5262  -38.2673   -5.9911 C   0  0  0  0  0  0  0  0  0  0  0  0
  -22.2502  -38.8756   -4.8062 C   0  0  0  0  0  0  0  0  0  0  0  0
  -23.2884  -39.8880   -5.2295 C   0  0  0  0  0  0  0  0  0  0  0  0
  -22.7245  -41.0378   -5.9939 C   0  0  0  0  0  0  0  0  0  0  0  0
  -22.2821  -42.1517   -5.0776 C   0  0  0  0  0  0  0  0  0  0  0  0
  -21.8187  -43.3492   -5.8520 C   0  0  0  0  0  0  0  0  0  0  0  0
  -20.5541  -43.0012   -6.6484 C   0  0  0  0  0  0  0  0  0  0  0  0
  -19.9708  -44.2257   -7.2493 C   0  0  0  0  0  0  0  0  0  0  0  0
  -20.3025  -45.3336   -6.6977 O   0  0  0  0  0  0  0  0  0  0  0  0
  -19.1013  -44.2205   -8.3577 N   0  0  0  0  0  0  0  0  0  0  0  0
  -19.1508  -45.3148   -9.2967 C   0  0  0  0  0  0  0  0  0  0  0  0
  -19.0275  -44.6421  -10.6741 C   0  0  0  0  0  0  0  0  0  0  0  0
  -19.5683  -43.2191  -10.5944 C   0  0  0  0  0  0  0  0  0  0  0  0
  -18.6620  -42.3316   -9.7257 C   0  0  0  0  0  0  0  0  0  0  0  0
  -18.1456  -43.1701   -8.6195 C   0  0  1  0  0  0  0  0  0  0  0  0
  -17.7369  -42.4513   -7.3967 C   0  0  0  0  0  0  0  0  0  0  0  0
  -17.2910  -43.2332   -6.4785 O   0  0  0  0  0  0  0  0  0  0  0  0
  -17.7766  -41.0845   -7.1340 N   0  0  0  0  0  0  0  0  0  0  0  0
  -12.2029  -37.6878  -10.9147 C   0  0  0  0  0  0  0  0  0  0  0  0
  -11.7231  -36.4678  -11.3410 C   0  0  0  0  0  0  0  0  0  0  0  0
  -12.5511  -35.6282  -12.0376 C   0  0  0  0  0  0  0  0  0  0  0  0
  1  2  1  0
  2  3  1  0
  2  4  1  0
  4  5  2  0
  5  6  1  0
  6  7  1  0
  7  8  1  0
  8  9  1  0
  9 10  1  0
 10 11  1  1
 10 12  1  0
 12 13  1  1
 13 14  1  0
 14 15  1  6
 14 16  1  0
 16 17  1  0
 17 18  1  0
 18 19  1  0
 19 20  1  0
 20 21  1  0
 21 22  1  0
 22 23  1  0
 23 24  1  0
 24 25  2  0
 24 26  1  0
 26 27  1  0
 27 28  1  0
 28 29  1  0
 29 30  1  0
 31 30  1  6
 31 32  1  0
 32 33  2  0
 32 34  1  0
  6 35  2  0
 35 36  1  0
 36 37  2  0
 31 26  1  0
 34 12  1  0
 37  4  1  0
M  END
$$$$
