
     RDKit          3D

 37 39  0  0  0  0  0  0  0  0999 V2000
  -11.2932  -34.8616  -13.2366 C   0  0  0  0  0  0  0  0  0  0  0  0
  -11.4760  -36.3791  -13.3334 C   0  0  0  0  0  0  0  0  0  0  0  0
  -10.2962  -37.0023  -12.6295 C   0  0  0  0  0  0  0  0  0  0  0  0
  -12.7556  -36.7247  -12.6446 C   0  0  0  0  0  0  0  0  0  0  0  0
  -12.8153  -37.1545  -11.3414 C   0  0  0  0  0  0  0  0  0  0  0  0
  -14.0188  -37.4689  -10.7256 C   0  0  0  0  0  0  0  0  0  0  0  0
  -14.1089  -37.9347   -9.3239 C   0  0  0  0  0  0  0  0  0  0  0  0
  -15.4375  -38.2998   -8.9180 N   0  0  0  0  0  0  0  0  0  0  0  0
  -15.4981  -38.3541   -7.4852 C   0  0  0  0  0  0  0  0  0  0  0  0
  -16.0383  -39.6508   -6.9641 C   0  0  1  0  0  0  0  0  0  0  0  0
  -16.0467  -39.6228   -5.5782 O   0  0  0  0  0  0  0  0  0  0  0  0
  -17.4621  -39.9030   -7.4379 C   0  0  2  0  0  0  0  0  0  0  0  0
  -18.3625  -38.8920   -6.7181 C   0  0  0  0  0  0  0  0  0  0  0  0
  -19.7976  -39.3590   -6.6517 C   0  0  2  0  0  0  0  0  0  0  0  0
  -20.7106  -38.4579   -7.4741 C   0  0  0  0  0  0  0  0  0  0  0  0
  -20.2861  -39.4854   -5.2292 C   0  0  0  0  0  0  0  0  0  0  0  0
  -21.7537  -39.1605   -5.0860 C   0  0  0  0  0  0  0  0  0  0  0  0
  -22.4819  -40.1975   -4.2538 C   0  0  0  0  0  0  0  0  0  0  0  0
  -23.4822  -40.9837   -5.0683 C   0  0  0  0  0  0  0  0  0  0  0  0
  -22.8708  -41.7321   -6.2043 C   0  0  0  0  0  0  0  0  0  0  0  0
  -22.4136  -43.1067   -5.7832 C   0  0  0  0  0  0  0  0  0  0  0  0
  -21.9011  -43.8970   -6.9499 C   0  0  0  0  0  0  0  0  0  0  0  0
  -20.6324  -43.2410   -7.5107 C   0  0  0  0  0  0  0  0  0  0  0  0
  -20.0025  -44.1217   -8.5248 C   0  0  0  0  0  0  0  0  0  0  0  0
  -20.3123  -45.3632   -8.4591 O   0  0  0  0  0  0  0  0  0  0  0  0
  -19.1128  -43.6667   -9.5179 N   0  0  0  0  0  0  0  0  0  0  0  0
  -19.1129  -44.3077  -10.8105 C   0  0  0  0  0  0  0  0  0  0  0  0
  -18.9832  -43.1479  -11.8120 C   0  0  0  0  0  0  0  0  0  0  0  0
  -19.5665  -41.8799  -11.1987 C   0  0  0  0  0  0  0  0  0  0  0  0
  -18.7029  -41.3853  -10.0269 C   0  0  0  0  0  0  0  0  0  0  0  0
  -18.1833  -42.5793   -9.3215 C   0  0  1  0  0  0  0  0  0  0  0  0
  -17.8187  -42.3879   -7.9039 C   0  0  0  0  0  0  0  0  0  0  0  0
  -17.3677  -43.4577   -7.3513 O   0  0  0  0  0  0  0  0  0  0  0  0
  -17.9030  -41.2335   -7.1298 N   0  0  0  0  0  0  0  0  0  0  0  0
  -15.1625  -37.3245  -11.5026 C   0  0  0  0  0  0  0  0  0  0  0  0
  -15.1265  -36.8950  -12.8121 C   0  0  0  0  0  0  0  0  0  0  0  0
  -13.9198  -36.5939  -13.3858 C   0  0  0  0  0  0  0  0  0  0  0  0
  1  2  1  0
  2  3  1  0
  2  4  1  0
  4  5  2  0
  5  6  1  0
  6  7  1  0
  7  8  1  0
  8  9  1  0
  9 10  1  0
 10 11  1  1
 10 12  1  0
 12 13  1  1
 13 14  1  0
 14 15  1  6
 14 16  1  0
 16 17  1  0
 17 18  1  0
 18 19  1  0
 19 20  1  0
 20 21  1  0
 21 22  1  0
 22 23  1  0
 23 24  1  0
 24 25  2  0
 24 26  1  0
 26 27  1  0
 27 28  1  0
 28 29  1  0
 29 30  1  0
 31 30  1  1
 31 32  1  0
 32 33  2  0
 32 34  1  0
  6 35  2  0
 35 36  1  0
 36 37  2  0
 31 26  1  0
 34 12  1  0
 37  4  1  0
M  END
$$$$
