
     RDKit          3D

 37 39  0  0  0  0  0  0  0  0999 V2000
  -18.2558  -37.7396  -13.6385 C   0  0  0  0  0  0  0  0  0  0  0  0
  -17.2061  -38.6748  -13.0308 C   0  0  0  0  0  0  0  0  0  0  0  0
  -16.6100  -39.4568  -14.1749 C   0  0  0  0  0  0  0  0  0  0  0  0
  -16.1735  -37.8239  -12.3669 C   0  0  0  0  0  0  0  0  0  0  0  0
  -15.5416  -38.1814  -11.2008 C   0  0  0  0  0  0  0  0  0  0  0  0
  -14.5850  -37.3712  -10.6051 C   0  0  0  0  0  0  0  0  0  0  0  0
  -13.8915  -37.7337   -9.3491 C   0  0  0  0  0  0  0  0  0  0  0  0
  -14.1783  -39.0647   -8.8912 N   0  0  0  0  0  0  0  0  0  0  0  0
  -15.5760  -39.3371   -9.0696 C   0  0  0  0  0  0  0  0  0  0  0  0
  -16.3732  -39.1924   -7.8093 C   0  0  1  0  0  0  0  0  0  0  0  0
  -16.4144  -37.8568   -7.4408 O   0  0  0  0  0  0  0  0  0  0  0  0
  -17.8051  -39.6761   -7.9855 C   0  0  2  0  0  0  0  0  0  0  0  0
  -18.7215  -38.5923   -7.4052 C   0  0  0  0  0  0  0  0  0  0  0  0
  -20.0709  -39.1444   -7.0099 C   0  0  2  0  0  0  0  0  0  0  0  0
  -21.1809  -38.5650   -7.8784 C   0  0  0  0  0  0  0  0  0  0  0  0
  -20.3579  -38.9402   -5.5422 C   0  0  0  0  0  0  0  0  0  0  0  0
  -21.8240  -38.7129   -5.2612 C   0  0  0  0  0  0  0  0  0  0  0  0
  -22.3129  -39.5573   -4.1011 C   0  0  0  0  0  0  0  0  0  0  0  0
  -23.3071  -40.6075   -4.5380 C   0  0  0  0  0  0  0  0  0  0  0  0
  -22.7590  -41.5696   -5.5371 C   0  0  0  0  0  0  0  0  0  0  0  0
  -22.0920  -42.7463   -4.8686 C   0  0  0  0  0  0  0  0  0  0  0  0
  -21.6402  -43.7650   -5.8719 C   0  0  0  0  0  0  0  0  0  0  0  0
  -20.5394  -43.1723   -6.7615 C   0  0  0  0  0  0  0  0  0  0  0  0
  -19.9420  -44.2289   -7.6144 C   0  0  0  0  0  0  0  0  0  0  0  0
  -20.0910  -45.4329   -7.2023 O   0  0  0  0  0  0  0  0  0  0  0  0
  -19.2449  -43.9727   -8.8116 N   0  0  0  0  0  0  0  0  0  0  0  0
  -19.3315  -44.9228   -9.8939 C   0  0  0  0  0  0  0  0  0  0  0  0
  -19.4679  -44.0536  -11.1552 C   0  0  0  0  0  0  0  0  0  0  0  0
  -20.1161  -42.7237  -10.7876 C   0  0  0  0  0  0  0  0  0  0  0  0
  -19.1768  -41.8735   -9.9166 C   0  0  0  0  0  0  0  0  0  0  0  0
  -18.4342  -42.7978   -9.0292 C   0  0  1  0  0  0  0  0  0  0  0  0
  -17.9193  -42.2178   -7.7732 C   0  0  0  0  0  0  0  0  0  0  0  0
  -17.2781  -43.0677   -7.0520 O   0  0  0  0  0  0  0  0  0  0  0  0
  -18.0422  -40.9142   -7.2997 N   0  0  0  0  0  0  0  0  0  0  0  0
  -14.3013  -36.1757  -11.2554 C   0  0  0  0  0  0  0  0  0  0  0  0
  -14.9227  -35.7965  -12.4260 C   0  0  0  0  0  0  0  0  0  0  0  0
  -15.8618  -36.6224  -12.9843 C   0  0  0  0  0  0  0  0  0  0  0  0
  1  2  1  0
  2  3  1  0
  2  4  1  0
  4  5  2  0
  5  6  1  0
  6  7  1  0
  7  8  1  0
  8  9  1  0
  9 10  1  0
 10 11  1  6
 10 12  1  0
 12 13  1  1
 13 14  1  0
 14 15  1  6
 14 16  1  0
 16 17  1  0
 17 18  1  0
 18 19  1  0
 19 20  1  0
 20 21  1  0
 21 22  1  0
 22 23  1  0
 23 24  1  0
 24 25  2  0
 24 26  1  0
 26 27  1  0
 27 28  1  0
 28 29  1  0
 29 30  1  0
 31 30  1  1
 31 32  1  0
 32 33  2  0
 32 34  1  0
  6 35  2  0
 35 36  1  0
 36 37  2  0
 31 26  1  0
 34 12  1  0
 37  4  1  0
M  END
$$$$
