
     RDKit          3D

 37 39  0  0  0  0  0  0  0  0999 V2000
  -21.7931  -38.7684   -3.8684 C   0  0  0  0  0  0  0  0  0  0  0  0
  -22.8094  -39.4048   -4.8210 C   0  0  0  0  0  0  0  0  0  0  0  0
  -23.4573  -38.2737   -5.5802 C   0  0  0  0  0  0  0  0  0  0  0  0
  -22.0593  -40.3096   -5.7429 C   0  0  0  0  0  0  0  0  0  0  0  0
  -21.0676  -39.8697   -6.5854 C   0  0  0  0  0  0  0  0  0  0  0  0
  -20.3862  -40.7329   -7.4321 C   0  0  0  0  0  0  0  0  0  0  0  0
  -19.3154  -40.2831   -8.3491 C   0  0  0  0  0  0  0  0  0  0  0  0
  -18.4082  -39.3367   -7.7620 N   0  0  0  0  0  0  0  0  0  0  0  0
  -17.1299  -39.9604   -7.5707 C   0  0  0  0  0  0  0  0  0  0  0  0
  -15.9856  -38.9947   -7.6262 C   0  0  1  0  0  0  0  0  0  0  0  0
  -15.5083  -38.7716   -6.3441 O   0  0  0  0  0  0  0  0  0  0  0  0
  -14.8362  -39.5257   -8.4701 C   0  0  2  0  0  0  0  0  0  0  0  0
  -13.6871  -38.5174   -8.3520 C   0  0  0  0  0  0  0  0  0  0  0  0
  -12.7334  -38.6070   -9.5201 C   0  0  2  0  0  0  0  0  0  0  0  0
  -11.3593  -39.0931   -9.0754 C   0  0  0  0  0  0  0  0  0  0  0  0
  -12.6378  -37.3028  -10.2738 C   0  0  0  0  0  0  0  0  0  0  0  0
  -11.2633  -37.0629  -10.8513 C   0  0  0  0  0  0  0  0  0  0  0  0
  -11.3305  -36.6127  -12.2973 C   0  0  0  0  0  0  0  0  0  0  0  0
  -10.7512  -37.6389  -13.2426 C   0  0  0  0  0  0  0  0  0  0  0  0
  -11.4495  -38.9558  -13.1952 C   0  0  0  0  0  0  0  0  0  0  0  0
  -12.6135  -39.0032  -14.1539 C   0  0  0  0  0  0  0  0  0  0  0  0
  -13.2449  -40.3629  -14.1851 C   0  0  0  0  0  0  0  0  0  0  0  0
  -13.8751  -40.6797  -12.8224 C   0  0  0  0  0  0  0  0  0  0  0  0
  -14.6783  -41.9243  -12.9033 C   0  0  0  0  0  0  0  0  0  0  0  0
  -15.0673  -42.2652  -14.0756 O   0  0  0  0  0  0  0  0  0  0  0  0
  -15.0175  -42.7155  -11.7881 N   0  0  0  0  0  0  0  0  0  0  0  0
  -15.1197  -44.1461  -11.9445 C   0  0  0  0  0  0  0  0  0  0  0  0
  -14.4571  -44.7169  -10.6797 C   0  0  0  0  0  0  0  0  0  0  0  0
  -13.4236  -43.7258  -10.1565 C   0  0  0  0  0  0  0  0  0  0  0  0
  -14.1007  -42.4564   -9.6145 C   0  0  0  0  0  0  0  0  0  0  0  0
  -15.2742  -42.1762  -10.4734 C   0  0  1  0  0  0  0  0  0  0  0  0
  -15.7310  -40.7730  -10.5102 C   0  0  0  0  0  0  0  0  0  0  0  0
  -16.7564  -40.5971  -11.2660 O   0  0  0  0  0  0  0  0  0  0  0  0
  -15.2033  -39.6663   -9.8503 N   0  0  0  0  0  0  0  0  0  0  0  0
  -20.7637  -42.0698   -7.3800 C   0  0  0  0  0  0  0  0  0  0  0  0
  -21.7557  -42.5337   -6.5427 C   0  0  0  0  0  0  0  0  0  0  0  0
  -22.4062  -41.6517   -5.7212 C   0  0  0  0  0  0  0  0  0  0  0  0
  1  2  1  0
  2  3  1  0
  2  4  1  0
  4  5  2  0
  5  6  1  0
  6  7  1  0
  7  8  1  0
  8  9  1  0
  9 10  1  0
 10 11  1  1
 10 12  1  0
 12 13  1  6
 13 14  1  0
 14 15  1  1
 14 16  1  0
 16 17  1  0
 17 18  1  0
 18 19  1  0
 19 20  1  0
 20 21  1  0
 21 22  1  0
 22 23  1  0
 23 24  1  0
 24 25  2  0
 24 26  1  0
 26 27  1  0
 27 28  1  0
 28 29  1  0
 29 30  1  0
 31 30  1  1
 31 32  1  0
 32 33  2  0
 32 34  1  0
  6 35  2  0
 35 36  1  0
 36 37  2  0
 31 26  1  0
 34 12  1  0
 37  4  1  0
M  END
$$$$
