
     RDKit          3D

 37 39  0  0  0  0  0  0  0  0999 V2000
  -19.3771  -35.4982   -6.9442 C   0  0  0  0  0  0  0  0  0  0  0  0
  -18.3303  -34.6875   -7.7139 C   0  0  0  0  0  0  0  0  0  0  0  0
  -17.5332  -33.9241   -6.6855 C   0  0  0  0  0  0  0  0  0  0  0  0
  -17.4649  -35.6543   -8.4540 C   0  0  0  0  0  0  0  0  0  0  0  0
  -16.8090  -36.6954   -7.8438 C   0  0  0  0  0  0  0  0  0  0  0  0
  -16.0108  -37.5797   -8.5562 C   0  0  0  0  0  0  0  0  0  0  0  0
  -15.2935  -38.7078   -7.9216 C   0  0  0  0  0  0  0  0  0  0  0  0
  -16.0741  -39.4166   -6.9462 N   0  0  0  0  0  0  0  0  0  0  0  0
  -16.8996  -40.3842   -7.6110 C   0  0  0  0  0  0  0  0  0  0  0  0
  -18.3504  -40.2693   -7.2550 C   0  0  1  0  0  0  0  0  0  0  0  0
  -18.8290  -39.0344   -7.6641 O   0  0  0  0  0  0  0  0  0  0  0  0
  -19.1871  -41.3454   -7.9314 C   0  0  2  0  0  0  0  0  0  0  0  0
  -20.5424  -40.7146   -8.2724 C   0  0  0  0  0  0  0  0  0  0  0  0
  -21.6280  -41.7541   -8.4246 C   0  0  2  0  0  0  0  0  0  0  0  0
  -22.1374  -41.8149   -9.8594 C   0  0  0  0  0  0  0  0  0  0  0  0
  -22.7588  -41.5382   -7.4484 C   0  0  0  0  0  0  0  0  0  0  0  0
  -24.0998  -41.9446   -8.0110 C   0  0  0  0  0  0  0  0  0  0  0  0
  -24.8908  -42.7868   -7.0295 C   0  0  0  0  0  0  0  0  0  0  0  0
  -25.0749  -44.2060   -7.5134 C   0  0  0  0  0  0  0  0  0  0  0  0
  -23.7915  -44.9342   -7.7302 C   0  0  0  0  0  0  0  0  0  0  0  0
  -23.3224  -45.6218   -6.4719 C   0  0  0  0  0  0  0  0  0  0  0  0
  -22.0925  -46.4429   -6.7199 C   0  0  0  0  0  0  0  0  0  0  0  0
  -20.9202  -45.5293   -7.1011 C   0  0  0  0  0  0  0  0  0  0  0  0
  -19.6561  -46.3045   -7.1443 C   0  0  0  0  0  0  0  0  0  0  0  0
  -19.6476  -47.4004   -6.4805 O   0  0  0  0  0  0  0  0  0  0  0  0
  -18.5099  -45.9009   -7.8572 N   0  0  0  0  0  0  0  0  0  0  0  0
  -17.6622  -46.9043   -8.4539 C   0  0  0  0  0  0  0  0  0  0  0  0
  -17.2934  -46.3240   -9.8294 C   0  0  0  0  0  0  0  0  0  0  0  0
  -18.3959  -45.3792  -10.2941 C   0  0  0  0  0  0  0  0  0  0  0  0
  -18.4454  -44.1157   -9.4196 C   0  0  0  0  0  0  0  0  0  0  0  0
  -18.1218  -44.5211   -8.0325 C   0  0  1  0  0  0  0  0  0  0  0  0
  -18.6353  -43.6425   -6.9632 C   0  0  0  0  0  0  0  0  0  0  0  0
  -18.3143  -44.0437   -5.7844 O   0  0  0  0  0  0  0  0  0  0  0  0
  -19.3939  -42.4806   -7.0782 N   0  0  0  0  0  0  0  0  0  0  0  0
  -15.9121  -37.3526   -9.9242 C   0  0  0  0  0  0  0  0  0  0  0  0
  -16.5612  -36.3146  -10.5578 C   0  0  0  0  0  0  0  0  0  0  0  0
  -17.3403  -35.4622   -9.8213 C   0  0  0  0  0  0  0  0  0  0  0  0
  1  2  1  0
  2  3  1  0
  2  4  1  0
  4  5  2  0
  5  6  1  0
  6  7  1  0
  7  8  1  0
  8  9  1  0
  9 10  1  0
 10 11  1  6
 10 12  1  0
 12 13  1  1
 13 14  1  0
 14 15  1  6
 14 16  1  0
 16 17  1  0
 17 18  1  0
 18 19  1  0
 19 20  1  0
 20 21  1  0
 21 22  1  0
 22 23  1  0
 23 24  1  0
 24 25  2  0
 24 26  1  0
 26 27  1  0
 27 28  1  0
 28 29  1  0
 29 30  1  0
 31 30  1  6
 31 32  1  0
 32 33  2  0
 32 34  1  0
  6 35  2  0
 35 36  1  0
 36 37  2  0
 31 26  1  0
 34 12  1  0
 37  4  1  0
M  END
$$$$
