
     RDKit          3D

 37 39  0  0  0  0  0  0  0  0999 V2000
  -13.5068  -34.1957  -11.5057 C   0  0  0  0  0  0  0  0  0  0  0  0
  -12.2841  -34.7704  -12.2270 C   0  0  0  0  0  0  0  0  0  0  0  0
  -11.0797  -34.4020  -11.3966 C   0  0  0  0  0  0  0  0  0  0  0  0
  -12.4555  -36.2526  -12.2956 C   0  0  0  0  0  0  0  0  0  0  0  0
  -12.7795  -37.0229  -11.2054 C   0  0  0  0  0  0  0  0  0  0  0  0
  -12.9329  -38.3993  -11.2976 C   0  0  0  0  0  0  0  0  0  0  0  0
  -13.2804  -39.2505  -10.1380 C   0  0  0  0  0  0  0  0  0  0  0  0
  -14.6877  -39.2978   -9.8539 N   0  0  0  0  0  0  0  0  0  0  0  0
  -14.9150  -40.1498   -8.7217 C   0  0  0  0  0  0  0  0  0  0  0  0
  -15.9601  -39.6243   -7.7855 C   0  0  1  0  0  0  0  0  0  0  0  0
  -16.0380  -38.2458   -7.9086 O   0  0  0  0  0  0  0  0  0  0  0  0
  -17.3348  -40.2020   -8.0885 C   0  0  2  0  0  0  0  0  0  0  0  0
  -18.3626  -39.1086   -7.7736 C   0  0  0  0  0  0  0  0  0  0  0  0
  -19.7320  -39.6824   -7.4952 C   0  0  2  0  0  0  0  0  0  0  0  0
  -20.7324  -39.2700   -8.5681 C   0  0  0  0  0  0  0  0  0  0  0  0
  -20.2262  -39.3227   -6.1152 C   0  0  0  0  0  0  0  0  0  0  0  0
  -21.7246  -39.1433   -6.0612 C   0  0  0  0  0  0  0  0  0  0  0  0
  -22.3370  -39.8705   -4.8804 C   0  0  0  0  0  0  0  0  0  0  0  0
  -23.2211  -41.0170   -5.3117 C   0  0  0  0  0  0  0  0  0  0  0  0
  -22.5046  -42.0591   -6.1023 C   0  0  0  0  0  0  0  0  0  0  0  0
  -21.8927  -43.1111   -5.2107 C   0  0  0  0  0  0  0  0  0  0  0  0
  -21.2687  -44.2149   -6.0112 C   0  0  0  0  0  0  0  0  0  0  0  0
  -20.0787  -43.6724   -6.8137 C   0  0  0  0  0  0  0  0  0  0  0  0
  -19.3300  -44.7882   -7.4423 C   0  0  0  0  0  0  0  0  0  0  0  0
  -19.4892  -45.9416   -6.9075 O   0  0  0  0  0  0  0  0  0  0  0  0
  -18.4845  -44.6374   -8.5590 N   0  0  0  0  0  0  0  0  0  0  0  0
  -18.3851  -45.7116   -9.5171 C   0  0  0  0  0  0  0  0  0  0  0  0
  -18.3786  -45.0056  -10.8832 C   0  0  0  0  0  0  0  0  0  0  0  0
  -19.1208  -43.6786  -10.7724 C   0  0  0  0  0  0  0  0  0  0  0  0
  -18.3433  -42.6823   -9.8969 C   0  0  0  0  0  0  0  0  0  0  0  0
  -17.6961  -43.4543   -8.8113 C   0  0  1  0  0  0  0  0  0  0  0  0
  -17.3817  -42.7035   -7.5798 C   0  0  0  0  0  0  0  0  0  0  0  0
  -16.8148  -43.4267   -6.6802 O   0  0  0  0  0  0  0  0  0  0  0  0
  -17.6177  -41.3617   -7.2920 N   0  0  0  0  0  0  0  0  0  0  0  0
  -12.7402  -38.9560  -12.5568 C   0  0  0  0  0  0  0  0  0  0  0  0
  -12.4147  -38.2027  -13.6645 C   0  0  0  0  0  0  0  0  0  0  0  0
  -12.2716  -36.8468  -13.5346 C   0  0  0  0  0  0  0  0  0  0  0  0
  1  2  1  0
  2  3  1  0
  2  4  1  0
  4  5  2  0
  5  6  1  0
  6  7  1  0
  7  8  1  0
  8  9  1  0
  9 10  1  0
 10 11  1  6
 10 12  1  0
 12 13  1  1
 13 14  1  0
 14 15  1  6
 14 16  1  0
 16 17  1  0
 17 18  1  0
 18 19  1  0
 19 20  1  0
 20 21  1  0
 21 22  1  0
 22 23  1  0
 23 24  1  0
 24 25  2  0
 24 26  1  0
 26 27  1  0
 27 28  1  0
 28 29  1  0
 29 30  1  0
 31 30  1  6
 31 32  1  0
 32 33  2  0
 32 34  1  0
  6 35  2  0
 35 36  1  0
 36 37  2  0
 31 26  1  0
 34 12  1  0
 37  4  1  0
M  END
$$$$
