
     RDKit          3D

 37 39  0  0  0  0  0  0  0  0999 V2000
  -23.5471  -35.9066   -6.6905 C   0  0  0  0  0  0  0  0  0  0  0  0
  -23.8507  -37.3645   -6.3332 C   0  0  0  0  0  0  0  0  0  0  0  0
  -25.2408  -37.6539   -6.8428 C   0  0  0  0  0  0  0  0  0  0  0  0
  -22.8378  -38.2189   -7.0226 C   0  0  0  0  0  0  0  0  0  0  0  0
  -21.5609  -37.7952   -7.2998 C   0  0  0  0  0  0  0  0  0  0  0  0
  -20.6392  -38.6106   -7.9419 C   0  0  0  0  0  0  0  0  0  0  0  0
  -19.2589  -38.1769   -8.2523 C   0  0  0  0  0  0  0  0  0  0  0  0
  -18.4063  -39.2384   -8.7103 N   0  0  0  0  0  0  0  0  0  0  0  0
  -17.3121  -39.3965   -7.7953 C   0  0  0  0  0  0  0  0  0  0  0  0
  -16.0658  -38.6906   -8.2348 C   0  0  1  0  0  0  0  0  0  0  0  0
  -15.5518  -37.9598   -7.1750 O   0  0  0  0  0  0  0  0  0  0  0  0
  -14.9939  -39.6670   -8.6964 C   0  0  2  0  0  0  0  0  0  0  0  0
  -13.6584  -38.9142   -8.6735 C   0  0  0  0  0  0  0  0  0  0  0  0
  -12.6397  -39.5407   -9.5964 C   0  0  2  0  0  0  0  0  0  0  0  0
  -11.4698  -40.1241   -8.8134 C   0  0  0  0  0  0  0  0  0  0  0  0
  -12.1657  -38.5748  -10.6550 C   0  0  0  0  0  0  0  0  0  0  0  0
  -10.7224  -38.7949  -11.0404 C   0  0  0  0  0  0  0  0  0  0  0  0
  -10.5364  -38.8054  -12.5449 C   0  0  0  0  0  0  0  0  0  0  0  0
  -10.1217  -40.1638  -13.0597 C   0  0  0  0  0  0  0  0  0  0  0  0
  -11.1104  -41.2410  -12.7660 C   0  0  0  0  0  0  0  0  0  0  0  0
  -12.1505  -41.3531  -13.8530 C   0  0  0  0  0  0  0  0  0  0  0  0
  -13.0767  -42.5073  -13.6108 C   0  0  0  0  0  0  0  0  0  0  0  0
  -13.8973  -42.2626  -12.3376 C   0  0  0  0  0  0  0  0  0  0  0  0
  -14.9576  -43.2914  -12.2027 C   0  0  0  0  0  0  0  0  0  0  0  0
  -15.2957  -43.8928  -13.2824 O   0  0  0  0  0  0  0  0  0  0  0  0
  -15.5832  -43.6211  -10.9843 N   0  0  0  0  0  0  0  0  0  0  0  0
  -16.0016  -44.9825  -10.7533 C   0  0  0  0  0  0  0  0  0  0  0  0
  -15.6220  -45.2554   -9.2883 C   0  0  0  0  0  0  0  0  0  0  0  0
  -14.4430  -44.3720   -8.8963 C   0  0  0  0  0  0  0  0  0  0  0  0
  -14.8547  -42.8915   -8.8467 C   0  0  0  0  0  0  0  0  0  0  0  0
  -15.8372  -42.6660   -9.9316 C   0  0  1  0  0  0  0  0  0  0  0  0
  -15.9463  -41.2809  -10.4305 C   0  0  0  0  0  0  0  0  0  0  0  0
  -16.8205  -41.1496  -11.3643 O   0  0  0  0  0  0  0  0  0  0  0  0
  -15.2430  -40.1498  -10.0247 N   0  0  0  0  0  0  0  0  0  0  0  0
  -21.0811  -39.8821   -8.2894 C   0  0  0  0  0  0  0  0  0  0  0  0
  -22.3575  -40.3285   -8.0213 C   0  0  0  0  0  0  0  0  0  0  0  0
  -23.2393  -39.4951   -7.3860 C   0  0  0  0  0  0  0  0  0  0  0  0
  1  2  1  0
  2  3  1  0
  2  4  1  0
  4  5  2  0
  5  6  1  0
  6  7  1  0
  7  8  1  0
  8  9  1  0
  9 10  1  0
 10 11  1  1
 10 12  1  0
 12 13  1  6
 13 14  1  0
 14 15  1  1
 14 16  1  0
 16 17  1  0
 17 18  1  0
 18 19  1  0
 19 20  1  0
 20 21  1  0
 21 22  1  0
 22 23  1  0
 23 24  1  0
 24 25  2  0
 24 26  1  0
 26 27  1  0
 27 28  1  0
 28 29  1  0
 29 30  1  0
 31 30  1  1
 31 32  1  0
 32 33  2  0
 32 34  1  0
  6 35  2  0
 35 36  1  0
 36 37  2  0
 31 26  1  0
 34 12  1  0
 37  4  1  0
M  END
$$$$
