
     RDKit          3D

 37 39  0  0  0  0  0  0  0  0999 V2000
  -23.1730  -40.6247   -3.2528 C   0  0  0  0  0  0  0  0  0  0  0  0
  -22.9040  -40.2299   -4.7079 C   0  0  0  0  0  0  0  0  0  0  0  0
  -22.6077  -38.7507   -4.7066 C   0  0  0  0  0  0  0  0  0  0  0  0
  -21.7221  -41.0135   -5.1773 C   0  0  0  0  0  0  0  0  0  0  0  0
  -20.4556  -40.8358   -4.6763 C   0  0  0  0  0  0  0  0  0  0  0  0
  -19.3746  -41.5783   -5.1309 C   0  0  0  0  0  0  0  0  0  0  0  0
  -18.0012  -41.4047   -4.6080 C   0  0  0  0  0  0  0  0  0  0  0  0
  -17.3432  -40.2210   -5.0870 N   0  0  0  0  0  0  0  0  0  0  0  0
  -16.8107  -40.4708   -6.3961 C   0  0  0  0  0  0  0  0  0  0  0  0
  -16.2549  -39.2443   -7.0532 C   0  0  1  0  0  0  0  0  0  0  0  0
  -14.9641  -39.0230   -6.5992 O   0  0  0  0  0  0  0  0  0  0  0  0
  -16.2030  -39.3866   -8.5673 C   0  0  2  0  0  0  0  0  0  0  0  0
  -15.1265  -38.4195   -9.0741 C   0  0  0  0  0  0  0  0  0  0  0  0
  -15.3372  -38.0470  -10.5229 C   0  0  2  0  0  0  0  0  0  0  0  0
  -14.2109  -38.5803  -11.3999 C   0  0  0  0  0  0  0  0  0  0  0  0
  -15.5178  -36.5595  -10.7041 C   0  0  0  0  0  0  0  0  0  0  0  0
  -14.9550  -36.0593  -12.0130 C   0  0  0  0  0  0  0  0  0  0  0  0
  -15.9256  -35.1414  -12.7296 C   0  0  0  0  0  0  0  0  0  0  0  0
  -16.4370  -35.7439  -14.0171 C   0  0  0  0  0  0  0  0  0  0  0  0
  -17.1633  -37.0324  -13.8263 C   0  0  0  0  0  0  0  0  0  0  0  0
  -18.6324  -36.8096  -13.5649 C   0  0  0  0  0  0  0  0  0  0  0  0
  -19.3793  -38.1073  -13.4835 C   0  0  0  0  0  0  0  0  0  0  0  0
  -18.9045  -38.9099  -12.2650 C   0  0  0  0  0  0  0  0  0  0  0  0
  -19.7759  -40.0920  -12.0556 C   0  0  0  0  0  0  0  0  0  0  0  0
  -20.9435  -40.0276  -12.5793 O   0  0  0  0  0  0  0  0  0  0  0  0
  -19.3876  -41.2374  -11.3330 N   0  0  0  0  0  0  0  0  0  0  0  0
  -19.8851  -42.5290  -11.7401 C   0  0  0  0  0  0  0  0  0  0  0  0
  -18.6716  -43.4645  -11.6088 C   0  0  0  0  0  0  0  0  0  0  0  0
  -17.3889  -42.6600  -11.7857 C   0  0  0  0  0  0  0  0  0  0  0  0
  -17.1748  -41.6956  -10.6077 C   0  0  0  0  0  0  0  0  0  0  0  0
  -18.5066  -41.2009  -10.1895 C   0  0  1  0  0  0  0  0  0  0  0  0
  -18.5262  -39.8990   -9.4940 C   0  0  0  0  0  0  0  0  0  0  0  0
  -19.7089  -39.5295   -9.1505 O   0  0  0  0  0  0  0  0  0  0  0  0
  -17.4589  -39.0614   -9.1808 N   0  0  0  0  0  0  0  0  0  0  0  0
  -19.6455  -42.5135   -6.1232 C   0  0  0  0  0  0  0  0  0  0  0  0
  -20.9082  -42.7090   -6.6406 C   0  0  0  0  0  0  0  0  0  0  0  0
  -21.9504  -41.9571   -6.1669 C   0  0  0  0  0  0  0  0  0  0  0  0
  1  2  1  0
  2  3  1  0
  2  4  1  0
  4  5  2  0
  5  6  1  0
  6  7  1  0
  7  8  1  0
  8  9  1  0
  9 10  1  0
 10 11  1  1
 10 12  1  0
 12 13  1  6
 13 14  1  0
 14 15  1  6
 14 16  1  0
 16 17  1  0
 17 18  1  0
 18 19  1  0
 19 20  1  0
 20 21  1  0
 21 22  1  0
 22 23  1  0
 23 24  1  0
 24 25  2  0
 24 26  1  0
 26 27  1  0
 27 28  1  0
 28 29  1  0
 29 30  1  0
 31 30  1  6
 31 32  1  0
 32 33  2  0
 32 34  1  0
  6 35  2  0
 35 36  1  0
 36 37  2  0
 31 26  1  0
 34 12  1  0
 37  4  1  0
M  END
$$$$
