
     RDKit          3D

 37 39  0  0  0  0  0  0  0  0999 V2000
  -10.6180  -35.1583  -10.5027 C   0  0  0  0  0  0  0  0  0  0  0  0
  -10.4768  -35.8871  -11.8423 C   0  0  0  0  0  0  0  0  0  0  0  0
   -9.1530  -36.6096  -11.8037 C   0  0  0  0  0  0  0  0  0  0  0  0
  -11.6116  -36.8520  -11.9534 C   0  0  0  0  0  0  0  0  0  0  0  0
  -12.4019  -37.2086  -10.8880 C   0  0  0  0  0  0  0  0  0  0  0  0
  -13.4507  -38.1081  -11.0196 C   0  0  0  0  0  0  0  0  0  0  0  0
  -14.3151  -38.5087   -9.8873 C   0  0  0  0  0  0  0  0  0  0  0  0
  -15.6803  -38.0821  -10.0201 N   0  0  0  0  0  0  0  0  0  0  0  0
  -16.5511  -39.1297   -9.5685 C   0  0  0  0  0  0  0  0  0  0  0  0
  -16.9483  -38.9909   -8.1306 C   0  0  1  0  0  0  0  0  0  0  0  0
  -16.8051  -37.6691   -7.7384 O   0  0  0  0  0  0  0  0  0  0  0  0
  -18.3972  -39.3952   -7.9011 C   0  0  2  0  0  0  0  0  0  0  0  0
  -18.8166  -38.8180   -6.5440 C   0  0  0  0  0  0  0  0  0  0  0  0
  -19.9817  -39.5701   -5.9448 C   0  0  2  0  0  0  0  0  0  0  0  0
  -21.2233  -38.6904   -5.8618 C   0  0  0  0  0  0  0  0  0  0  0  0
  -19.6394  -40.1663   -4.6011 C   0  0  0  0  0  0  0  0  0  0  0  0
  -20.8202  -40.1991   -3.6604 C   0  0  0  0  0  0  0  0  0  0  0  0
  -20.9604  -41.5460   -2.9790 C   0  0  0  0  0  0  0  0  0  0  0  0
  -22.2109  -42.2763   -3.4091 C   0  0  0  0  0  0  0  0  0  0  0  0
  -22.2660  -42.5550   -4.8732 C   0  0  0  0  0  0  0  0  0  0  0  0
  -21.6061  -43.8680   -5.2149 C   0  0  0  0  0  0  0  0  0  0  0  0
  -21.7598  -44.1983   -6.6694 C   0  0  0  0  0  0  0  0  0  0  0  0
  -21.0040  -43.1714   -7.5230 C   0  0  0  0  0  0  0  0  0  0  0  0
  -20.9742  -43.6032   -8.9419 C   0  0  0  0  0  0  0  0  0  0  0  0
  -21.1574  -44.8540   -9.1512 O   0  0  0  0  0  0  0  0  0  0  0  0
  -20.7611  -42.7289  -10.0259 N   0  0  0  0  0  0  0  0  0  0  0  0
  -21.4214  -42.9904  -11.2818 C   0  0  0  0  0  0  0  0  0  0  0  0
  -21.8826  -41.6057  -11.7663 C   0  0  0  0  0  0  0  0  0  0  0  0
  -22.0988  -40.6933  -10.5644 C   0  0  0  0  0  0  0  0  0  0  0  0
  -20.7647  -40.3604   -9.8766 C   0  0  0  0  0  0  0  0  0  0  0  0
  -19.9081  -41.5657   -9.9593 C   0  0  1  0  0  0  0  0  0  0  0  0
  -18.8564  -41.6861   -8.9305 C   0  0  0  0  0  0  0  0  0  0  0  0
  -18.1432  -42.7479   -9.0616 O   0  0  0  0  0  0  0  0  0  0  0  0
  -18.5603  -40.8208   -7.8805 N   0  0  0  0  0  0  0  0  0  0  0  0
  -13.6574  -38.6289  -12.2919 C   0  0  0  0  0  0  0  0  0  0  0  0
  -12.8772  -38.2855  -13.3753 C   0  0  0  0  0  0  0  0  0  0  0  0
  -11.8509  -37.3944  -13.2066 C   0  0  0  0  0  0  0  0  0  0  0  0
  1  2  1  0
  2  3  1  0
  2  4  1  0
  4  5  2  0
  5  6  1  0
  6  7  1  0
  7  8  1  0
  8  9  1  0
  9 10  1  0
 10 11  1  6
 10 12  1  0
 12 13  1  1
 13 14  1  0
 14 15  1  1
 14 16  1  0
 16 17  1  0
 17 18  1  0
 18 19  1  0
 19 20  1  0
 20 21  1  0
 21 22  1  0
 22 23  1  0
 23 24  1  0
 24 25  2  0
 24 26  1  0
 26 27  1  0
 27 28  1  0
 28 29  1  0
 29 30  1  0
 31 30  1  1
 31 32  1  0
 32 33  2  0
 32 34  1  0
  6 35  2  0
 35 36  1  0
 36 37  2  0
 31 26  1  0
 34 12  1  0
 37  4  1  0
M  END
$$$$
