
     RDKit          3D

 37 39  0  0  0  0  0  0  0  0999 V2000
  -23.3997  -41.7244   -5.0634 C   0  0  0  0  0  0  0  0  0  0  0  0
  -22.6541  -40.5291   -4.4626 C   0  0  0  0  0  0  0  0  0  0  0  0
  -21.7571  -41.0784   -3.3811 C   0  0  0  0  0  0  0  0  0  0  0  0
  -21.8535  -39.9002   -5.5556 C   0  0  0  0  0  0  0  0  0  0  0  0
  -21.1208  -40.6256   -6.4632 C   0  0  0  0  0  0  0  0  0  0  0  0
  -20.3856  -40.0151   -7.4698 C   0  0  0  0  0  0  0  0  0  0  0  0
  -19.5878  -40.7744   -8.4582 C   0  0  0  0  0  0  0  0  0  0  0  0
  -18.2418  -41.0427   -8.0345 N   0  0  0  0  0  0  0  0  0  0  0  0
  -17.6215  -39.8169   -7.6196 C   0  0  0  0  0  0  0  0  0  0  0  0
  -17.0859  -39.0081   -8.7614 C   0  0  1  0  0  0  0  0  0  0  0  0
  -17.1484  -37.6609   -8.4413 O   0  0  0  0  0  0  0  0  0  0  0  0
  -15.6357  -39.3517   -9.0684 C   0  0  2  0  0  0  0  0  0  0  0  0
  -14.9466  -38.0522   -9.5013 C   0  0  0  0  0  0  0  0  0  0  0  0
  -13.7179  -38.3154  -10.3399 C   0  0  2  0  0  0  0  0  0  0  0  0
  -12.4514  -37.8690   -9.6197 C   0  0  0  0  0  0  0  0  0  0  0  0
  -13.8222  -37.6880  -11.7087 C   0  0  0  0  0  0  0  0  0  0  0  0
  -12.4872  -37.2241  -12.2403 C   0  0  0  0  0  0  0  0  0  0  0  0
  -12.2707  -37.6586  -13.6764 C   0  0  0  0  0  0  0  0  0  0  0  0
  -11.1517  -38.6651  -13.8062 C   0  0  0  0  0  0  0  0  0  0  0  0
  -11.3843  -39.9196  -13.0338 C   0  0  0  0  0  0  0  0  0  0  0  0
  -12.1449  -40.9394  -13.8447 C   0  0  0  0  0  0  0  0  0  0  0  0
  -12.2809  -42.2378  -13.1071 C   0  0  0  0  0  0  0  0  0  0  0  0
  -13.1458  -42.0413  -11.8549 C   0  0  0  0  0  0  0  0  0  0  0  0
  -13.4588  -43.3519  -11.2344 C   0  0  0  0  0  0  0  0  0  0  0  0
  -13.3647  -44.3728  -12.0030 O   0  0  0  0  0  0  0  0  0  0  0  0
  -13.8403  -43.5136   -9.8879 N   0  0  0  0  0  0  0  0  0  0  0  0
  -13.4391  -44.7054   -9.1807 C   0  0  0  0  0  0  0  0  0  0  0  0
  -13.0267  -44.2021   -7.7873 C   0  0  0  0  0  0  0  0  0  0  0  0
  -12.5540  -42.7564   -7.8891 C   0  0  0  0  0  0  0  0  0  0  0  0
  -13.7210  -41.8166   -8.2332 C   0  0  0  0  0  0  0  0  0  0  0  0
  -14.6217  -42.5446   -9.1562 C   0  0  1  0  0  0  0  0  0  0  0  0
  -15.4641  -41.7089  -10.0344 C   0  0  0  0  0  0  0  0  0  0  0  0
  -16.2280  -42.3992  -10.8047 O   0  0  0  0  0  0  0  0  0  0  0  0
  -15.5245  -40.3205  -10.1213 N   0  0  0  0  0  0  0  0  0  0  0  0
  -20.4321  -38.6263   -7.5085 C   0  0  0  0  0  0  0  0  0  0  0  0
  -21.1604  -37.8780   -6.6084 C   0  0  0  0  0  0  0  0  0  0  0  0
  -21.8736  -38.5160   -5.6286 C   0  0  0  0  0  0  0  0  0  0  0  0
  1  2  1  0
  2  3  1  0
  2  4  1  0
  4  5  2  0
  5  6  1  0
  6  7  1  0
  7  8  1  0
  8  9  1  0
  9 10  1  0
 10 11  1  1
 10 12  1  0
 12 13  1  6
 13 14  1  0
 14 15  1  1
 14 16  1  0
 16 17  1  0
 17 18  1  0
 18 19  1  0
 19 20  1  0
 20 21  1  0
 21 22  1  0
 22 23  1  0
 23 24  1  0
 24 25  2  0
 24 26  1  0
 26 27  1  0
 27 28  1  0
 28 29  1  0
 29 30  1  0
 31 30  1  6
 31 32  1  0
 32 33  2  0
 32 34  1  0
  6 35  2  0
 35 36  1  0
 36 37  2  0
 31 26  1  0
 34 12  1  0
 37  4  1  0
M  END
$$$$
