
     RDKit          3D

 37 39  0  0  0  0  0  0  0  0999 V2000
  -23.3843  -37.3656   -5.2665 C   0  0  0  0  0  0  0  0  0  0  0  0
  -22.8248  -38.5129   -6.1128 C   0  0  0  0  0  0  0  0  0  0  0  0
  -22.1013  -37.8796   -7.2752 C   0  0  0  0  0  0  0  0  0  0  0  0
  -21.8824  -39.2903   -5.2533 C   0  0  0  0  0  0  0  0  0  0  0  0
  -20.5274  -39.0666   -5.2308 C   0  0  0  0  0  0  0  0  0  0  0  0
  -19.6741  -39.8042   -4.4218 C   0  0  0  0  0  0  0  0  0  0  0  0
  -18.2115  -39.5829   -4.3807 C   0  0  0  0  0  0  0  0  0  0  0  0
  -17.7207  -38.7491   -5.4425 N   0  0  0  0  0  0  0  0  0  0  0  0
  -17.3843  -39.5679   -6.5721 C   0  0  0  0  0  0  0  0  0  0  0  0
  -16.3502  -38.9510   -7.4636 C   0  0  1  0  0  0  0  0  0  0  0  0
  -15.0915  -39.1569   -6.9205 O   0  0  0  0  0  0  0  0  0  0  0  0
  -16.3664  -39.5613   -8.8574 C   0  0  2  0  0  0  0  0  0  0  0  0
  -16.6273  -38.4190   -9.8465 C   0  0  0  0  0  0  0  0  0  0  0  0
  -17.2072  -38.9193  -11.1486 C   0  0  2  0  0  0  0  0  0  0  0  0
  -16.2391  -38.7003  -12.3049 C   0  0  0  0  0  0  0  0  0  0  0  0
  -18.5568  -38.3089  -11.4384 C   0  0  0  0  0  0  0  0  0  0  0  0
  -18.8008  -38.1086  -12.9151 C   0  0  0  0  0  0  0  0  0  0  0  0
  -20.1723  -38.6020  -13.3316 C   0  0  0  0  0  0  0  0  0  0  0  0
  -20.0941  -39.7995  -14.2493 C   0  0  0  0  0  0  0  0  0  0  0  0
  -19.4082  -40.9752  -13.6397 C   0  0  0  0  0  0  0  0  0  0  0  0
  -20.3745  -41.8524  -12.8829 C   0  0  0  0  0  0  0  0  0  0  0  0
  -19.7041  -43.0897  -12.3652 C   0  0  0  0  0  0  0  0  0  0  0  0
  -18.6474  -42.7143  -11.3178 C   0  0  0  0  0  0  0  0  0  0  0  0
  -18.1275  -43.9332  -10.6510 C   0  0  0  0  0  0  0  0  0  0  0  0
  -18.8810  -44.9680  -10.7079 O   0  0  0  0  0  0  0  0  0  0  0  0
  -16.8883  -43.9969   -9.9839 N   0  0  0  0  0  0  0  0  0  0  0  0
  -16.1378  -45.2289  -10.0087 C   0  0  0  0  0  0  0  0  0  0  0  0
  -14.6807  -44.7843  -10.2184 C   0  0  0  0  0  0  0  0  0  0  0  0
  -14.6579  -43.4524  -10.9597 C   0  0  0  0  0  0  0  0  0  0  0  0
  -15.2112  -42.3205  -10.0788 C   0  0  0  0  0  0  0  0  0  0  0  0
  -16.3099  -42.8873   -9.2634 C   0  0  1  0  0  0  0  0  0  0  0  0
  -17.3231  -41.9273   -8.7828 C   0  0  0  0  0  0  0  0  0  0  0  0
  -18.2441  -42.4793   -8.0754 O   0  0  0  0  0  0  0  0  0  0  0  0
  -17.3938  -40.5533   -8.9976 N   0  0  0  0  0  0  0  0  0  0  0  0
  -20.2683  -40.7836   -3.6341 C   0  0  0  0  0  0  0  0  0  0  0  0
  -21.6254  -41.0255   -3.6404 C   0  0  0  0  0  0  0  0  0  0  0  0
  -22.4358  -40.2771   -4.4521 C   0  0  0  0  0  0  0  0  0  0  0  0
  1  2  1  0
  2  3  1  0
  2  4  1  0
  4  5  2  0
  5  6  1  0
  6  7  1  0
  7  8  1  0
  8  9  1  0
  9 10  1  0
 10 11  1  1
 10 12  1  0
 12 13  1  6
 13 14  1  0
 14 15  1  6
 14 16  1  0
 16 17  1  0
 17 18  1  0
 18 19  1  0
 19 20  1  0
 20 21  1  0
 21 22  1  0
 22 23  1  0
 23 24  1  0
 24 25  2  0
 24 26  1  0
 26 27  1  0
 27 28  1  0
 28 29  1  0
 29 30  1  0
 31 30  1  6
 31 32  1  0
 32 33  2  0
 32 34  1  0
  6 35  2  0
 35 36  1  0
 36 37  2  0
 31 26  1  0
 34 12  1  0
 37  4  1  0
M  END
$$$$
