
     RDKit          3D

 37 39  0  0  0  0  0  0  0  0999 V2000
  -12.5353  -34.2055  -11.8103 C   0  0  0  0  0  0  0  0  0  0  0  0
  -13.8914  -34.9036  -11.9495 C   0  0  0  0  0  0  0  0  0  0  0  0
  -14.6259  -34.2022  -13.0650 C   0  0  0  0  0  0  0  0  0  0  0  0
  -13.6301  -36.3332  -12.2947 C   0  0  0  0  0  0  0  0  0  0  0  0
  -13.6690  -37.3486  -11.3706 C   0  0  0  0  0  0  0  0  0  0  0  0
  -13.4221  -38.6693  -11.7191 C   0  0  0  0  0  0  0  0  0  0  0  0
  -13.4570  -39.7802  -10.7421 C   0  0  0  0  0  0  0  0  0  0  0  0
  -13.7788  -39.3667   -9.4046 N   0  0  0  0  0  0  0  0  0  0  0  0
  -15.1687  -39.0155   -9.3378 C   0  0  0  0  0  0  0  0  0  0  0  0
  -15.7923  -39.3162   -8.0091 C   0  0  1  0  0  0  0  0  0  0  0  0
  -15.8883  -38.1475   -7.2699 O   0  0  0  0  0  0  0  0  0  0  0  0
  -17.1918  -39.8949   -8.1577 C   0  0  2  0  0  0  0  0  0  0  0  0
  -18.1814  -38.7734   -7.8201 C   0  0  0  0  0  0  0  0  0  0  0  0
  -19.5250  -39.3144   -7.3911 C   0  0  2  0  0  0  0  0  0  0  0  0
  -20.6123  -38.9539   -8.3960 C   0  0  0  0  0  0  0  0  0  0  0  0
  -19.8952  -38.8694   -5.9971 C   0  0  0  0  0  0  0  0  0  0  0  0
  -21.3820  -38.6702   -5.8246 C   0  0  0  0  0  0  0  0  0  0  0  0
  -21.8940  -39.3204   -4.5545 C   0  0  0  0  0  0  0  0  0  0  0  0
  -22.8195  -40.4799   -4.8393 C   0  0  0  0  0  0  0  0  0  0  0  0
  -22.1810  -41.5743   -5.6260 C   0  0  0  0  0  0  0  0  0  0  0  0
  -21.5004  -42.5795   -4.7302 C   0  0  0  0  0  0  0  0  0  0  0  0
  -20.9554  -43.7351   -5.5151 C   0  0  0  0  0  0  0  0  0  0  0  0
  -19.8362  -43.2538   -6.4480 C   0  0  0  0  0  0  0  0  0  0  0  0
  -19.1520  -44.4127   -7.0721 C   0  0  0  0  0  0  0  0  0  0  0  0
  -19.2714  -45.5312   -6.4584 O   0  0  0  0  0  0  0  0  0  0  0  0
  -18.4058  -44.3369   -8.2647 N   0  0  0  0  0  0  0  0  0  0  0  0
  -18.3968  -45.4661   -9.1627 C   0  0  0  0  0  0  0  0  0  0  0  0
  -18.5047  -44.8409  -10.5635 C   0  0  0  0  0  0  0  0  0  0  0  0
  -19.2261  -43.5013  -10.4675 C   0  0  0  0  0  0  0  0  0  0  0  0
  -18.3692  -42.4647   -9.7227 C   0  0  0  0  0  0  0  0  0  0  0  0
  -17.6350  -43.1794   -8.6534 C   0  0  1  0  0  0  0  0  0  0  0  0
  -17.2100  -42.3619   -7.5001 C   0  0  0  0  0  0  0  0  0  0  0  0
  -16.5716  -43.0379   -6.6118 O   0  0  0  0  0  0  0  0  0  0  0  0
  -17.4116  -41.0030   -7.2727 N   0  0  0  0  0  0  0  0  0  0  0  0
  -13.1329  -38.9076  -13.0579 C   0  0  0  0  0  0  0  0  0  0  0  0
  -13.0885  -37.9045  -14.0024 C   0  0  0  0  0  0  0  0  0  0  0  0
  -13.3377  -36.6129  -13.6207 C   0  0  0  0  0  0  0  0  0  0  0  0
  1  2  1  0
  2  3  1  0
  2  4  1  0
  4  5  2  0
  5  6  1  0
  6  7  1  0
  7  8  1  0
  8  9  1  0
  9 10  1  0
 10 11  1  1
 10 12  1  0
 12 13  1  1
 13 14  1  0
 14 15  1  6
 14 16  1  0
 16 17  1  0
 17 18  1  0
 18 19  1  0
 19 20  1  0
 20 21  1  0
 21 22  1  0
 22 23  1  0
 23 24  1  0
 24 25  2  0
 24 26  1  0
 26 27  1  0
 27 28  1  0
 28 29  1  0
 29 30  1  0
 31 30  1  6
 31 32  1  0
 32 33  2  0
 32 34  1  0
  6 35  2  0
 35 36  1  0
 36 37  2  0
 31 26  1  0
 34 12  1  0
 37  4  1  0
M  END
$$$$
