
     RDKit          3D

 37 39  0  0  0  0  0  0  0  0999 V2000
  -14.5206  -34.1581  -13.1966 C   0  0  0  0  0  0  0  0  0  0  0  0
  -13.6117  -34.5467  -12.0268 C   0  0  0  0  0  0  0  0  0  0  0  0
  -14.3049  -34.0849  -10.7690 C   0  0  0  0  0  0  0  0  0  0  0  0
  -13.4645  -36.0331  -12.0435 C   0  0  0  0  0  0  0  0  0  0  0  0
  -14.4592  -36.8913  -11.6424 C   0  0  0  0  0  0  0  0  0  0  0  0
  -14.2955  -38.2693  -11.6685 C   0  0  0  0  0  0  0  0  0  0  0  0
  -15.3512  -39.2141  -11.2408 C   0  0  0  0  0  0  0  0  0  0  0  0
  -15.0665  -39.8793   -9.9999 N   0  0  0  0  0  0  0  0  0  0  0  0
  -15.4333  -39.0239   -8.9076 C   0  0  0  0  0  0  0  0  0  0  0  0
  -16.0758  -39.7579   -7.7705 C   0  0  1  0  0  0  0  0  0  0  0  0
  -16.1896  -38.9098   -6.6799 O   0  0  0  0  0  0  0  0  0  0  0  0
  -17.4697  -40.2515   -8.1297 C   0  0  2  0  0  0  0  0  0  0  0  0
  -18.4145  -39.0483   -8.0259 C   0  0  0  0  0  0  0  0  0  0  0  0
  -19.8483  -39.4718   -7.8092 C   0  0  2  0  0  0  0  0  0  0  0  0
  -20.7195  -39.1043   -9.0042 C   0  0  0  0  0  0  0  0  0  0  0  0
  -20.4142  -38.9166   -6.5248 C   0  0  0  0  0  0  0  0  0  0  0  0
  -21.8894  -38.6096   -6.6227 C   0  0  0  0  0  0  0  0  0  0  0  0
  -22.6565  -39.1437   -5.4292 C   0  0  0  0  0  0  0  0  0  0  0  0
  -23.6055  -40.2554   -5.8111 C   0  0  0  0  0  0  0  0  0  0  0  0
  -22.9277  -41.4366   -6.4189 C   0  0  0  0  0  0  0  0  0  0  0  0
  -22.4865  -42.4262   -5.3690 C   0  0  0  0  0  0  0  0  0  0  0  0
  -21.9054  -43.6621   -5.9881 C   0  0  0  0  0  0  0  0  0  0  0  0
  -20.6114  -43.3151   -6.7362 C   0  0  0  0  0  0  0  0  0  0  0  0
  -19.9211  -44.5534   -7.1729 C   0  0  0  0  0  0  0  0  0  0  0  0
  -20.2268  -45.6209   -6.5334 O   0  0  0  0  0  0  0  0  0  0  0  0
  -18.9804  -44.6019   -8.2205 N   0  0  0  0  0  0  0  0  0  0  0  0
  -18.9050  -45.7834   -9.0450 C   0  0  0  0  0  0  0  0  0  0  0  0
  -18.7268  -45.2417  -10.4732 C   0  0  0  0  0  0  0  0  0  0  0  0
  -19.3506  -43.8542  -10.5715 C   0  0  0  0  0  0  0  0  0  0  0  0
  -18.5562  -42.8315   -9.7429 C   0  0  0  0  0  0  0  0  0  0  0  0
  -18.0696  -43.5244   -8.5279 C   0  0  1  0  0  0  0  0  0  0  0  0
  -17.7853  -42.6657   -7.3612 C   0  0  0  0  0  0  0  0  0  0  0  0
  -17.3593  -43.3251   -6.3428 O   0  0  0  0  0  0  0  0  0  0  0  0
  -17.9192  -41.2849   -7.2413 N   0  0  0  0  0  0  0  0  0  0  0  0
  -13.0668  -38.7335  -12.1240 C   0  0  0  0  0  0  0  0  0  0  0  0
  -12.0546  -37.8911  -12.5314 C   0  0  0  0  0  0  0  0  0  0  0  0
  -12.2530  -36.5366  -12.4914 C   0  0  0  0  0  0  0  0  0  0  0  0
  1  2  1  0
  2  3  1  0
  2  4  1  0
  4  5  2  0
  5  6  1  0
  6  7  1  0
  7  8  1  0
  8  9  1  0
  9 10  1  0
 10 11  1  1
 10 12  1  0
 12 13  1  1
 13 14  1  0
 14 15  1  6
 14 16  1  0
 16 17  1  0
 17 18  1  0
 18 19  1  0
 19 20  1  0
 20 21  1  0
 21 22  1  0
 22 23  1  0
 23 24  1  0
 24 25  2  0
 24 26  1  0
 26 27  1  0
 27 28  1  0
 28 29  1  0
 29 30  1  0
 31 30  1  6
 31 32  1  0
 32 33  2  0
 32 34  1  0
  6 35  2  0
 35 36  1  0
 36 37  2  0
 31 26  1  0
 34 12  1  0
 37  4  1  0
M  END
$$$$
