
     RDKit          3D

 37 39  0  0  0  0  0  0  0  0999 V2000
  -24.5193  -38.7514   -7.7925 C   0  0  0  0  0  0  0  0  0  0  0  0
  -23.7417  -39.9432   -8.3586 C   0  0  0  0  0  0  0  0  0  0  0  0
  -23.6634  -39.7384   -9.8512 C   0  0  0  0  0  0  0  0  0  0  0  0
  -22.3809  -39.9283   -7.7429 C   0  0  0  0  0  0  0  0  0  0  0  0
  -21.5227  -38.8605   -7.8426 C   0  0  0  0  0  0  0  0  0  0  0  0
  -20.2629  -38.8733   -7.2600 C   0  0  0  0  0  0  0  0  0  0  0  0
  -19.3203  -37.7365   -7.3542 C   0  0  0  0  0  0  0  0  0  0  0  0
  -18.6319  -37.6563   -8.6124 N   0  0  0  0  0  0  0  0  0  0  0  0
  -17.4381  -38.4505   -8.5517 C   0  0  0  0  0  0  0  0  0  0  0  0
  -16.1823  -37.6423   -8.6720 C   0  0  1  0  0  0  0  0  0  0  0  0
  -15.8930  -37.0555   -7.4500 O   0  0  0  0  0  0  0  0  0  0  0  0
  -14.9922  -38.5006   -9.0750 C   0  0  2  0  0  0  0  0  0  0  0  0
  -13.7594  -37.5889   -9.0774 C   0  0  0  0  0  0  0  0  0  0  0  0
  -12.6579  -38.1290   -9.9590 C   0  0  2  0  0  0  0  0  0  0  0  0
  -11.4372  -38.5258   -9.1376 C   0  0  0  0  0  0  0  0  0  0  0  0
  -12.2899  -37.1642  -11.0598 C   0  0  0  0  0  0  0  0  0  0  0  0
  -10.8249  -37.2234  -11.4210 C   0  0  0  0  0  0  0  0  0  0  0  0
  -10.6164  -37.2833  -12.9214 C   0  0  0  0  0  0  0  0  0  0  0  0
  -10.0309  -38.6035  -13.3645 C   0  0  0  0  0  0  0  0  0  0  0  0
  -10.8846  -39.7788  -13.0266 C   0  0  0  0  0  0  0  0  0  0  0  0
  -11.8868  -40.0701  -14.1161 C   0  0  0  0  0  0  0  0  0  0  0  0
  -12.6683  -41.3164  -13.8253 C   0  0  0  0  0  0  0  0  0  0  0  0
  -13.5317  -41.1136  -12.5731 C   0  0  0  0  0  0  0  0  0  0  0  0
  -14.4599  -42.2573  -12.3970 C   0  0  0  0  0  0  0  0  0  0  0  0
  -14.7057  -42.9470  -13.4485 O   0  0  0  0  0  0  0  0  0  0  0  0
  -15.0587  -42.6025  -11.1693 N   0  0  0  0  0  0  0  0  0  0  0  0
  -15.3107  -43.9923  -10.8750 C   0  0  0  0  0  0  0  0  0  0  0  0
  -14.9225  -44.1457   -9.3949 C   0  0  0  0  0  0  0  0  0  0  0  0
  -13.8666  -43.1062   -9.0366 C   0  0  0  0  0  0  0  0  0  0  0  0
  -14.4570  -41.6869   -9.0641 C   0  0  0  0  0  0  0  0  0  0  0  0
  -15.4435  -41.6363  -10.1676 C   0  0  1  0  0  0  0  0  0  0  0  0
  -15.7138  -40.3008  -10.7354 C   0  0  0  0  0  0  0  0  0  0  0  0
  -16.5833  -40.3231  -11.6825 O   0  0  0  0  0  0  0  0  0  0  0  0
  -15.1604  -39.0736  -10.3799 N   0  0  0  0  0  0  0  0  0  0  0  0
  -19.9176  -40.0290   -6.5687 C   0  0  0  0  0  0  0  0  0  0  0  0
  -20.7625  -41.1123   -6.4557 C   0  0  0  0  0  0  0  0  0  0  0  0
  -21.9982  -41.0629   -7.0442 C   0  0  0  0  0  0  0  0  0  0  0  0
  1  2  1  0
  2  3  1  0
  2  4  1  0
  4  5  2  0
  5  6  1  0
  6  7  1  0
  7  8  1  0
  8  9  1  0
  9 10  1  0
 10 11  1  1
 10 12  1  0
 12 13  1  6
 13 14  1  0
 14 15  1  1
 14 16  1  0
 16 17  1  0
 17 18  1  0
 18 19  1  0
 19 20  1  0
 20 21  1  0
 21 22  1  0
 22 23  1  0
 23 24  1  0
 24 25  2  0
 24 26  1  0
 26 27  1  0
 27 28  1  0
 28 29  1  0
 29 30  1  0
 31 30  1  1
 31 32  1  0
 32 33  2  0
 32 34  1  0
  6 35  2  0
 35 36  1  0
 36 37  2  0
 31 26  1  0
 34 12  1  0
 37  4  1  0
M  END
$$$$
