
     RDKit          3D

 37 39  0  0  0  0  0  0  0  0999 V2000
  -16.2182  -35.9458  -12.4975 C   0  0  0  0  0  0  0  0  0  0  0  0
  -14.8716  -35.2546  -12.2640 C   0  0  0  0  0  0  0  0  0  0  0  0
  -15.0039  -34.4728  -10.9806 C   0  0  0  0  0  0  0  0  0  0  0  0
  -13.8326  -36.3204  -12.1383 C   0  0  0  0  0  0  0  0  0  0  0  0
  -14.0535  -37.5129  -11.4933 C   0  0  0  0  0  0  0  0  0  0  0  0
  -13.0695  -38.4865  -11.3914 C   0  0  0  0  0  0  0  0  0  0  0  0
  -13.2827  -39.7780  -10.7011 C   0  0  0  0  0  0  0  0  0  0  0  0
  -13.7524  -39.6433   -9.3503 N   0  0  0  0  0  0  0  0  0  0  0  0
  -15.1875  -39.6390   -9.3450 C   0  0  0  0  0  0  0  0  0  0  0  0
  -15.7752  -39.8287   -7.9799 C   0  0  1  0  0  0  0  0  0  0  0  0
  -15.6644  -38.6480   -7.2623 O   0  0  0  0  0  0  0  0  0  0  0  0
  -17.2486  -40.2034   -8.0441 C   0  0  2  0  0  0  0  0  0  0  0  0
  -18.0483  -38.9573   -7.6459 C   0  0  0  0  0  0  0  0  0  0  0  0
  -19.4266  -39.3082   -7.1368 C   0  0  2  0  0  0  0  0  0  0  0  0
  -20.5105  -38.7886   -8.0736 C   0  0  0  0  0  0  0  0  0  0  0  0
  -19.6464  -38.8291   -5.7225 C   0  0  0  0  0  0  0  0  0  0  0  0
  -21.0773  -38.4246   -5.4600 C   0  0  0  0  0  0  0  0  0  0  0  0
  -21.5989  -39.0087   -4.1619 C   0  0  0  0  0  0  0  0  0  0  0  0
  -22.6939  -40.0237   -4.3916 C   0  0  0  0  0  0  0  0  0  0  0  0
  -22.2642  -41.1893   -5.2168 C   0  0  0  0  0  0  0  0  0  0  0  0
  -21.6797  -42.2889   -4.3651 C   0  0  0  0  0  0  0  0  0  0  0  0
  -21.3509  -43.5019   -5.1829 C   0  0  0  0  0  0  0  0  0  0  0  0
  -20.2329  -43.1737   -6.1814 C   0  0  0  0  0  0  0  0  0  0  0  0
  -19.7574  -44.4112   -6.8471 C   0  0  0  0  0  0  0  0  0  0  0  0
  -19.9963  -45.5077   -6.2287 O   0  0  0  0  0  0  0  0  0  0  0  0
  -19.0807  -44.4294   -8.0826 N   0  0  0  0  0  0  0  0  0  0  0  0
  -19.2846  -45.5398   -8.9809 C   0  0  0  0  0  0  0  0  0  0  0  0
  -19.3869  -44.8921  -10.3719 C   0  0  0  0  0  0  0  0  0  0  0  0
  -19.9053  -43.4655  -10.2307 C   0  0  0  0  0  0  0  0  0  0  0  0
  -18.8679  -42.5669   -9.5380 C   0  0  0  0  0  0  0  0  0  0  0  0
  -18.1790  -43.3881   -8.5160 C   0  0  1  0  0  0  0  0  0  0  0  0
  -17.5749  -42.6496   -7.3896 C   0  0  0  0  0  0  0  0  0  0  0  0
  -16.9862  -43.4172   -6.5424 O   0  0  0  0  0  0  0  0  0  0  0  0
  -17.5691  -41.2782   -7.1488 N   0  0  0  0  0  0  0  0  0  0  0  0
  -11.8459  -38.1872  -11.9795 C   0  0  0  0  0  0  0  0  0  0  0  0
  -11.6018  -36.9975  -12.6318 C   0  0  0  0  0  0  0  0  0  0  0  0
  -12.5976  -36.0606  -12.7119 C   0  0  0  0  0  0  0  0  0  0  0  0
  1  2  1  0
  2  3  1  0
  2  4  1  0
  4  5  2  0
  5  6  1  0
  6  7  1  0
  7  8  1  0
  8  9  1  0
  9 10  1  0
 10 11  1  1
 10 12  1  0
 12 13  1  1
 13 14  1  0
 14 15  1  6
 14 16  1  0
 16 17  1  0
 17 18  1  0
 18 19  1  0
 19 20  1  0
 20 21  1  0
 21 22  1  0
 22 23  1  0
 23 24  1  0
 24 25  2  0
 24 26  1  0
 26 27  1  0
 27 28  1  0
 28 29  1  0
 29 30  1  0
 31 30  1  6
 31 32  1  0
 32 33  2  0
 32 34  1  0
  6 35  2  0
 35 36  1  0
 36 37  2  0
 31 26  1  0
 34 12  1  0
 37  4  1  0
M  END
$$$$
