
     RDKit          3D

 37 39  0  0  0  0  0  0  0  0999 V2000
  -13.8097  -36.4570  -14.5856 C   0  0  0  0  0  0  0  0  0  0  0  0
  -12.6160  -36.3849  -13.6288 C   0  0  0  0  0  0  0  0  0  0  0  0
  -12.0766  -34.9788  -13.7161 C   0  0  0  0  0  0  0  0  0  0  0  0
  -13.1202  -36.6819  -12.2545 C   0  0  0  0  0  0  0  0  0  0  0  0
  -13.0315  -37.9234  -11.6735 C   0  0  0  0  0  0  0  0  0  0  0  0
  -13.5084  -38.1717  -10.3939 C   0  0  0  0  0  0  0  0  0  0  0  0
  -13.4254  -39.5001   -9.7470 C   0  0  0  0  0  0  0  0  0  0  0  0
  -13.7748  -39.4898   -8.3537 N   0  0  0  0  0  0  0  0  0  0  0  0
  -15.0526  -40.1197   -8.1802 C   0  0  0  0  0  0  0  0  0  0  0  0
  -16.1034  -39.1915   -7.6520 C   0  0  1  0  0  0  0  0  0  0  0  0
  -15.9418  -37.9391   -8.2237 O   0  0  0  0  0  0  0  0  0  0  0  0
  -17.5071  -39.6798   -7.9785 C   0  0  2  0  0  0  0  0  0  0  0  0
  -18.4618  -38.5061   -7.7298 C   0  0  0  0  0  0  0  0  0  0  0  0
  -19.8764  -38.9713   -7.4754 C   0  0  2  0  0  0  0  0  0  0  0  0
  -20.8138  -38.5253   -8.5909 C   0  0  0  0  0  0  0  0  0  0  0  0
  -20.3822  -38.5310   -6.1232 C   0  0  0  0  0  0  0  0  0  0  0  0
  -21.8646  -38.2438   -6.1208 C   0  0  0  0  0  0  0  0  0  0  0  0
  -22.5609  -38.8853   -4.9368 C   0  0  0  0  0  0  0  0  0  0  0  0
  -23.5129  -39.9799   -5.3583 C   0  0  0  0  0  0  0  0  0  0  0  0
  -22.8514  -41.0964   -6.0933 C   0  0  0  0  0  0  0  0  0  0  0  0
  -22.3422  -42.1585   -5.1506 C   0  0  0  0  0  0  0  0  0  0  0  0
  -21.7772  -43.3303   -5.8963 C   0  0  0  0  0  0  0  0  0  0  0  0
  -20.5289  -42.9013   -6.6788 C   0  0  0  0  0  0  0  0  0  0  0  0
  -19.8452  -44.0881   -7.2487 C   0  0  0  0  0  0  0  0  0  0  0  0
  -20.1022  -45.2086   -6.6828 O   0  0  0  0  0  0  0  0  0  0  0  0
  -18.9598  -44.0356   -8.3433 N   0  0  0  0  0  0  0  0  0  0  0  0
  -18.9111  -45.1459   -9.2634 C   0  0  0  0  0  0  0  0  0  0  0  0
  -18.8153  -44.4886  -10.6503 C   0  0  0  0  0  0  0  0  0  0  0  0
  -19.4627  -43.1092  -10.6043 C   0  0  0  0  0  0  0  0  0  0  0  0
  -18.6404  -42.1418   -9.7374 C   0  0  0  0  0  0  0  0  0  0  0  0
  -18.0814  -42.9207   -8.6086 C   0  0  1  0  0  0  0  0  0  0  0  0
  -17.7486  -42.1531   -7.3925 C   0  0  0  0  0  0  0  0  0  0  0  0
  -17.2609  -42.8840   -6.4536 O   0  0  0  0  0  0  0  0  0  0  0  0
  -17.8952  -40.7890   -7.1547 N   0  0  0  0  0  0  0  0  0  0  0  0
  -14.0817  -37.0921   -9.7317 C   0  0  0  0  0  0  0  0  0  0  0  0
  -14.1813  -35.8378  -10.2950 C   0  0  0  0  0  0  0  0  0  0  0  0
  -13.6994  -35.6310  -11.5602 C   0  0  0  0  0  0  0  0  0  0  0  0
  1  2  1  0
  2  3  1  0
  2  4  1  0
  4  5  2  0
  5  6  1  0
  6  7  1  0
  7  8  1  0
  8  9  1  0
  9 10  1  0
 10 11  1  6
 10 12  1  0
 12 13  1  1
 13 14  1  0
 14 15  1  6
 14 16  1  0
 16 17  1  0
 17 18  1  0
 18 19  1  0
 19 20  1  0
 20 21  1  0
 21 22  1  0
 22 23  1  0
 23 24  1  0
 24 25  2  0
 24 26  1  0
 26 27  1  0
 27 28  1  0
 28 29  1  0
 29 30  1  0
 31 30  1  6
 31 32  1  0
 32 33  2  0
 32 34  1  0
  6 35  2  0
 35 36  1  0
 36 37  2  0
 31 26  1  0
 34 12  1  0
 37  4  1  0
M  END
$$$$
