
     RDKit          3D

 37 39  0  0  0  0  0  0  0  0999 V2000
  -24.2176  -35.9503   -7.1037 C   0  0  0  0  0  0  0  0  0  0  0  0
  -24.0176  -37.2652   -6.3442 C   0  0  0  0  0  0  0  0  0  0  0  0
  -25.2879  -38.0606   -6.5155 C   0  0  0  0  0  0  0  0  0  0  0  0
  -22.8551  -37.9711   -6.9618 C   0  0  0  0  0  0  0  0  0  0  0  0
  -21.6277  -38.0721   -6.3535 C   0  0  0  0  0  0  0  0  0  0  0  0
  -20.5640  -38.7346   -6.9503 C   0  0  0  0  0  0  0  0  0  0  0  0
  -19.2326  -38.8558   -6.3159 C   0  0  0  0  0  0  0  0  0  0  0  0
  -18.4505  -39.9532   -6.8134 N   0  0  0  0  0  0  0  0  0  0  0  0
  -17.3776  -39.4444   -7.6194 C   0  0  0  0  0  0  0  0  0  0  0  0
  -16.1917  -40.3585   -7.6722 C   0  0  1  0  0  0  0  0  0  0  0  0
  -16.5384  -41.5254   -8.3353 O   0  0  0  0  0  0  0  0  0  0  0  0
  -15.0217  -39.7270   -8.4123 C   0  0  2  0  0  0  0  0  0  0  0  0
  -15.3530  -38.2411   -8.5947 C   0  0  0  0  0  0  0  0  0  0  0  0
  -14.5922  -37.6291   -9.7475 C   0  0  2  0  0  0  0  0  0  0  0  0
  -13.6002  -36.5800   -9.2600 C   0  0  0  0  0  0  0  0  0  0  0  0
  -15.5162  -37.0652  -10.7993 C   0  0  0  0  0  0  0  0  0  0  0  0
  -14.9481  -35.8422  -11.4789 C   0  0  0  0  0  0  0  0  0  0  0  0
  -15.0873  -35.9196  -12.9865 C   0  0  0  0  0  0  0  0  0  0  0  0
  -13.7490  -36.0298  -13.6787 C   0  0  0  0  0  0  0  0  0  0  0  0
  -12.9686  -37.2369  -13.2811 C   0  0  0  0  0  0  0  0  0  0  0  0
  -13.3043  -38.4264  -14.1462 C   0  0  0  0  0  0  0  0  0  0  0  0
  -12.4400  -39.6067  -13.8174 C   0  0  0  0  0  0  0  0  0  0  0  0
  -12.7349  -40.0914  -12.3917 C   0  0  0  0  0  0  0  0  0  0  0  0
  -12.0421  -41.3771  -12.1313 C   0  0  0  0  0  0  0  0  0  0  0  0
  -11.7126  -42.0561  -13.1668 O   0  0  0  0  0  0  0  0  0  0  0  0
  -11.7437  -41.8630  -10.8430 N   0  0  0  0  0  0  0  0  0  0  0  0
  -10.5397  -42.6321  -10.6420 C   0  0  0  0  0  0  0  0  0  0  0  0
   -9.9757  -42.1170   -9.3073 C   0  0  0  0  0  0  0  0  0  0  0  0
  -10.4259  -40.6771   -9.0878 C   0  0  0  0  0  0  0  0  0  0  0  0
  -11.9417  -40.6039   -8.8411 C   0  0  0  0  0  0  0  0  0  0  0  0
  -12.5812  -41.6361   -9.6889 C   0  0  1  0  0  0  0  0  0  0  0  0
  -13.9939  -41.3989  -10.0455 C   0  0  0  0  0  0  0  0  0  0  0  0
  -14.4928  -42.3332  -10.7746 O   0  0  0  0  0  0  0  0  0  0  0  0
  -14.8128  -40.3273   -9.6989 N   0  0  0  0  0  0  0  0  0  0  0  0
  -20.8104  -39.2912   -8.2001 C   0  0  0  0  0  0  0  0  0  0  0  0
  -22.0337  -39.2023   -8.8293 C   0  0  0  0  0  0  0  0  0  0  0  0
  -23.0599  -38.5404   -8.2091 C   0  0  0  0  0  0  0  0  0  0  0  0
  1  2  1  0
  2  3  1  0
  2  4  1  0
  4  5  2  0
  5  6  1  0
  6  7  1  0
  7  8  1  0
  8  9  1  0
  9 10  1  0
 10 11  1  6
 10 12  1  0
 12 13  1  6
 13 14  1  0
 14 15  1  1
 14 16  1  0
 16 17  1  0
 17 18  1  0
 18 19  1  0
 19 20  1  0
 20 21  1  0
 21 22  1  0
 22 23  1  0
 23 24  1  0
 24 25  2  0
 24 26  1  0
 26 27  1  0
 27 28  1  0
 28 29  1  0
 29 30  1  0
 31 30  1  6
 31 32  1  0
 32 33  2  0
 32 34  1  0
  6 35  2  0
 35 36  1  0
 36 37  2  0
 31 26  1  0
 34 12  1  0
 37  4  1  0
M  END
$$$$
