
     RDKit          3D

 37 39  0  0  0  0  0  0  0  0999 V2000
  -13.8997  -35.6027  -15.0074 C   0  0  0  0  0  0  0  0  0  0  0  0
  -13.8705  -37.0044  -14.3908 C   0  0  0  0  0  0  0  0  0  0  0  0
  -12.5936  -37.6564  -14.8600 C   0  0  0  0  0  0  0  0  0  0  0  0
  -13.8772  -36.8447  -12.9057 C   0  0  0  0  0  0  0  0  0  0  0  0
  -13.4257  -37.8141  -12.0436 C   0  0  0  0  0  0  0  0  0  0  0  0
  -13.4432  -37.6392  -10.6668 C   0  0  0  0  0  0  0  0  0  0  0  0
  -12.9636  -38.6685   -9.7179 C   0  0  0  0  0  0  0  0  0  0  0  0
  -13.7555  -38.7708   -8.5238 N   0  0  0  0  0  0  0  0  0  0  0  0
  -15.0684  -39.2401   -8.8637 C   0  0  0  0  0  0  0  0  0  0  0  0
  -15.8015  -39.8406   -7.7031 C   0  0  1  0  0  0  0  0  0  0  0  0
  -15.9247  -38.8953   -6.6968 O   0  0  0  0  0  0  0  0  0  0  0  0
  -17.1996  -40.2988   -8.0915 C   0  0  2  0  0  0  0  0  0  0  0  0
  -18.1101  -39.0665   -8.0336 C   0  0  0  0  0  0  0  0  0  0  0  0
  -19.5612  -39.4433   -7.8487 C   0  0  2  0  0  0  0  0  0  0  0  0
  -20.3890  -39.0714   -9.0728 C   0  0  0  0  0  0  0  0  0  0  0  0
  -20.1440  -38.8489   -6.5896 C   0  0  0  0  0  0  0  0  0  0  0  0
  -21.6062  -38.5000   -6.7325 C   0  0  0  0  0  0  0  0  0  0  0  0
  -22.4204  -38.9898   -5.5513 C   0  0  0  0  0  0  0  0  0  0  0  0
  -23.3920  -40.0795   -5.9397 C   0  0  0  0  0  0  0  0  0  0  0  0
  -22.7342  -41.2909   -6.5089 C   0  0  0  0  0  0  0  0  0  0  0  0
  -22.3510  -42.2743   -5.4309 C   0  0  0  0  0  0  0  0  0  0  0  0
  -21.7913  -43.5378   -6.0131 C   0  0  0  0  0  0  0  0  0  0  0  0
  -20.4680  -43.2426   -6.7317 C   0  0  0  0  0  0  0  0  0  0  0  0
  -19.8041  -44.5084   -7.1285 C   0  0  0  0  0  0  0  0  0  0  0  0
  -20.1586  -45.5548   -6.4795 O   0  0  0  0  0  0  0  0  0  0  0  0
  -18.8378  -44.6034   -8.1493 N   0  0  0  0  0  0  0  0  0  0  0  0
  -18.7762  -45.8011   -8.9514 C   0  0  0  0  0  0  0  0  0  0  0  0
  -18.5440  -45.2903  -10.3832 C   0  0  0  0  0  0  0  0  0  0  0  0
  -19.1229  -43.8869  -10.5218 C   0  0  0  0  0  0  0  0  0  0  0  0
  -18.3202  -42.8736   -9.6895 C   0  0  0  0  0  0  0  0  0  0  0  0
  -17.8871  -43.5590   -8.4502 C   0  0  1  0  0  0  0  0  0  0  0  0
  -17.6081  -42.6886   -7.2911 C   0  0  0  0  0  0  0  0  0  0  0  0
  -17.2293  -43.3421   -6.2504 O   0  0  0  0  0  0  0  0  0  0  0  0
  -17.7034  -41.3026   -7.1982 N   0  0  0  0  0  0  0  0  0  0  0  0
  -13.9440  -36.4261  -10.2080 C   0  0  0  0  0  0  0  0  0  0  0  0
  -14.4022  -35.4392  -11.0544 C   0  0  0  0  0  0  0  0  0  0  0  0
  -14.3692  -35.6482  -12.4075 C   0  0  0  0  0  0  0  0  0  0  0  0
  1  2  1  0
  2  3  1  0
  2  4  1  0
  4  5  2  0
  5  6  1  0
  6  7  1  0
  7  8  1  0
  8  9  1  0
  9 10  1  0
 10 11  1  1
 10 12  1  0
 12 13  1  1
 13 14  1  0
 14 15  1  6
 14 16  1  0
 16 17  1  0
 17 18  1  0
 18 19  1  0
 19 20  1  0
 20 21  1  0
 21 22  1  0
 22 23  1  0
 23 24  1  0
 24 25  2  0
 24 26  1  0
 26 27  1  0
 27 28  1  0
 28 29  1  0
 29 30  1  0
 31 30  1  6
 31 32  1  0
 32 33  2  0
 32 34  1  0
  6 35  2  0
 35 36  1  0
 36 37  2  0
 31 26  1  0
 34 12  1  0
 37  4  1  0
M  END
$$$$
