
     RDKit          3D

 37 39  0  0  0  0  0  0  0  0999 V2000
  -22.2157  -35.4715   -7.3850 C   0  0  0  0  0  0  0  0  0  0  0  0
  -21.7571  -36.8883   -7.7423 C   0  0  0  0  0  0  0  0  0  0  0  0
  -22.9657  -37.6097   -8.2852 C   0  0  0  0  0  0  0  0  0  0  0  0
  -20.6913  -36.7693   -8.7821 C   0  0  0  0  0  0  0  0  0  0  0  0
  -19.3572  -36.6450   -8.4800 C   0  0  0  0  0  0  0  0  0  0  0  0
  -18.3873  -36.5362   -9.4668 C   0  0  0  0  0  0  0  0  0  0  0  0
  -16.9446  -36.4002   -9.1667 C   0  0  0  0  0  0  0  0  0  0  0  0
  -16.4682  -37.3252   -8.1763 N   0  0  0  0  0  0  0  0  0  0  0  0
  -17.5069  -38.2659   -7.8668 C   0  0  0  0  0  0  0  0  0  0  0  0
  -16.9860  -39.6085   -7.4537 C   0  0  1  0  0  0  0  0  0  0  0  0
  -17.4156  -39.8936   -6.1670 O   0  0  0  0  0  0  0  0  0  0  0  0
  -17.4824  -40.7161   -8.3714 C   0  0  2  0  0  0  0  0  0  0  0  0
  -19.0148  -40.6666   -8.3495 C   0  0  0  0  0  0  0  0  0  0  0  0
  -19.6294  -41.9900   -8.7403 C   0  0  2  0  0  0  0  0  0  0  0  0
  -20.3893  -41.8792  -10.0565 C   0  0  0  0  0  0  0  0  0  0  0  0
  -20.5039  -42.5527   -7.6463 C   0  0  0  0  0  0  0  0  0  0  0  0
  -21.6807  -43.3315   -8.1836 C   0  0  0  0  0  0  0  0  0  0  0  0
  -21.8482  -44.6606   -7.4739 C   0  0  0  0  0  0  0  0  0  0  0  0
  -21.5855  -45.8337   -8.3888 C   0  0  0  0  0  0  0  0  0  0  0  0
  -20.2075  -45.8493   -8.9591 C   0  0  0  0  0  0  0  0  0  0  0  0
  -19.2403  -46.5753   -8.0571 C   0  0  0  0  0  0  0  0  0  0  0  0
  -17.8822  -46.6859   -8.6830 C   0  0  0  0  0  0  0  0  0  0  0  0
  -17.2632  -45.2909   -8.8424 C   0  0  0  0  0  0  0  0  0  0  0  0
  -15.8453  -45.4017   -9.2641 C   0  0  0  0  0  0  0  0  0  0  0  0
  -15.2716  -46.5196   -9.0133 O   0  0  0  0  0  0  0  0  0  0  0  0
  -15.1319  -44.3690   -9.9039 N   0  0  0  0  0  0  0  0  0  0  0  0
  -14.1268  -44.7084  -10.8816 C   0  0  0  0  0  0  0  0  0  0  0  0
  -14.3283  -43.6818  -12.0088 C   0  0  0  0  0  0  0  0  0  0  0  0
  -15.7809  -43.2196  -12.0207 C   0  0  0  0  0  0  0  0  0  0  0  0
  -16.1055  -42.3857  -10.7705 C   0  0  0  0  0  0  0  0  0  0  0  0
  -15.3464  -42.9658   -9.6389 C   0  0  1  0  0  0  0  0  0  0  0  0
  -15.8971  -42.7159   -8.2923 C   0  0  0  0  0  0  0  0  0  0  0  0
  -15.1893  -43.2379   -7.3542 O   0  0  0  0  0  0  0  0  0  0  0  0
  -17.0440  -42.0114   -7.9360 N   0  0  0  0  0  0  0  0  0  0  0  0
  -18.8419  -36.5602  -10.7804 C   0  0  0  0  0  0  0  0  0  0  0  0
  -20.1754  -36.6842  -11.1070 C   0  0  0  0  0  0  0  0  0  0  0  0
  -21.1038  -36.7891  -10.1055 C   0  0  0  0  0  0  0  0  0  0  0  0
  1  2  1  0
  2  3  1  0
  2  4  1  0
  4  5  2  0
  5  6  1  0
  6  7  1  0
  7  8  1  0
  8  9  1  0
  9 10  1  0
 10 11  1  1
 10 12  1  0
 12 13  1  1
 13 14  1  0
 14 15  1  6
 14 16  1  0
 16 17  1  0
 17 18  1  0
 18 19  1  0
 19 20  1  0
 20 21  1  0
 21 22  1  0
 22 23  1  0
 23 24  1  0
 24 25  2  0
 24 26  1  0
 26 27  1  0
 27 28  1  0
 28 29  1  0
 29 30  1  0
 31 30  1  6
 31 32  1  0
 32 33  2  0
 32 34  1  0
  6 35  2  0
 35 36  1  0
 36 37  2  0
 31 26  1  0
 34 12  1  0
 37  4  1  0
M  END
$$$$
