
     RDKit          3D

 41 44  0  0  0  0  0  0  0  0999 V2000
  -13.3416  -36.0344  -12.3214 C   0  0  0  0  0  0  0  0  0  0  0  0
  -12.2987  -36.7121  -11.4782 C   0  0  0  0  0  0  0  0  0  0  0  0
  -10.8986  -36.2452  -11.8217 C   0  0  0  0  0  0  0  0  0  0  0  0
  -12.4223  -38.1829  -11.6558 C   0  0  0  0  0  0  0  0  0  0  0  0
  -12.6558  -38.9767  -10.5557 C   0  0  0  0  0  0  0  0  0  0  0  0
  -12.7698  -40.3286  -10.7208 C   0  0  0  0  0  0  0  0  0  0  0  0
  -13.0172  -41.1633   -9.5425 C   0  0  0  0  0  0  0  0  0  0  0  0
  -14.1249  -40.7088   -8.7662 N   0  0  0  0  0  0  0  0  0  0  0  0
  -15.3721  -40.5998   -9.4809 C   0  0  0  0  0  0  0  0  0  0  0  0
  -16.4561  -40.0053   -8.6146 C   0  0  1  0  0  0  0  0  0  0  0  0
  -15.8537  -39.4829   -7.4852 O   0  0  0  0  0  0  0  0  0  0  0  0
  -17.3452  -39.0687   -9.3686 C   0  0  2  0  0  0  0  0  0  0  0  0
  -17.8724  -37.9120   -8.5639 C   0  0  0  0  0  0  0  0  0  0  0  0
  -19.3271  -38.1038   -8.2063 C   0  0  0  0  0  0  0  0  0  0  0  0
  -19.8899  -38.9216   -7.2710 C   0  0  0  0  0  0  0  0  0  0  0  0
  -21.2796  -38.8944   -7.1426 C   0  0  0  0  0  0  0  0  0  0  0  0
  -22.0464  -38.0357   -7.9711 C   0  0  0  0  0  0  0  0  0  0  0  0
  -21.5004  -37.2095   -8.9136 C   0  0  0  0  0  0  0  0  0  0  0  0
  -20.1349  -37.2633   -9.0110 C   0  0  0  0  0  0  0  0  0  0  0  0
  -22.1062  -39.5931   -6.3090 O   0  0  0  0  0  0  0  0  0  0  0  0
  -22.2376  -40.2515   -5.1450 C   0  0  0  0  0  0  0  0  0  0  0  0
  -22.0230  -41.7540   -5.2151 C   0  0  0  0  0  0  0  0  0  0  0  0
  -22.9373  -42.4181   -6.1926 C   0  0  0  0  0  0  0  0  0  0  0  0
  -22.4458  -43.7549   -6.6962 C   0  0  0  0  0  0  0  0  0  0  0  0
  -20.9999  -43.8597   -6.7064 N   0  0  0  0  0  0  0  0  0  0  0  0
  -20.4748  -44.5154   -5.5181 C   0  0  0  0  0  0  0  0  0  0  0  0
  -21.3686  -44.7969   -4.3868 C   0  0  0  0  0  0  0  0  0  0  0  0
  -19.2872  -44.8339   -5.4566 O   0  0  0  0  0  0  0  0  0  0  0  0
  -20.0826  -43.4302   -7.7394 C   0  0  0  0  0  0  0  0  0  0  0  0
  -19.9897  -42.2720   -8.4735 C   0  0  0  0  0  0  0  0  0  0  0  0
  -18.9620  -42.1951   -9.3912 C   0  0  0  0  0  0  0  0  0  0  0  0
  -18.0785  -43.2956   -9.5239 C   0  0  0  0  0  0  0  0  0  0  0  0
  -18.1790  -44.4491   -8.7855 C   0  0  0  0  0  0  0  0  0  0  0  0
  -17.2179  -45.5758   -8.9676 C   0  0  0  0  0  0  0  0  0  0  0  0
  -19.1743  -44.4687   -7.9254 N   0  0  0  0  0  0  0  0  0  0  0  0
  -18.5623  -41.1270  -10.3229 C   0  0  0  0  0  0  0  0  0  0  0  0
  -18.3435  -41.4828  -11.5849 O   0  0  0  0  0  0  0  0  0  0  0  0
  -18.3501  -39.7468  -10.1560 N   0  0  0  0  0  0  0  0  0  0  0  0
  -12.6554  -40.8674  -11.9375 N   0  0  0  0  0  0  0  0  0  0  0  0
  -12.4253  -40.1116  -13.0396 C   0  0  0  0  0  0  0  0  0  0  0  0
  -12.3051  -38.7453  -12.9086 C   0  0  0  0  0  0  0  0  0  0  0  0
  1  2  1  0
  2  3  1  0
  2  4  1  0
  4  5  2  0
  5  6  1  0
  6  7  1  0
  7  8  1  0
  8  9  1  0
  9 10  1  0
 10 11  1  1
 10 12  1  0
 12 13  1  1
 13 14  1  0
 14 15  2  0
 15 16  1  0
 16 17  2  0
 17 18  1  0
 18 19  2  0
 16 20  1  0
 20 21  1  0
 21 22  1  0
 22 23  1  0
 23 24  1  0
 24 25  1  0
 25 26  1  0
 26 27  1  0
 26 28  2  0
 25 29  1  0
 29 30  2  0
 30 31  1  0
 31 32  2  0
 32 33  1  0
 33 34  1  0
 33 35  2  0
 31 36  1  0
 36 37  2  0
 36 38  1  0
  6 39  2  0
 39 40  1  0
 40 41  2  0
 19 14  1  0
 35 29  1  0
 38 12  1  0
 41  4  1  0
M  END
$$$$
