
     RDKit          3D

 41 44  0  0  0  0  0  0  0  0999 V2000
  -10.6484  -40.3266  -12.3576 C   0  0  0  0  0  0  0  0  0  0  0  0
  -11.1316  -38.9065  -12.4438 C   0  0  0  0  0  0  0  0  0  0  0  0
  -10.4235  -38.0040  -11.4536 C   0  0  0  0  0  0  0  0  0  0  0  0
  -12.6008  -38.8870  -12.2174 C   0  0  0  0  0  0  0  0  0  0  0  0
  -13.1089  -38.1740  -11.1551 C   0  0  0  0  0  0  0  0  0  0  0  0
  -14.4598  -38.1567  -10.9487 C   0  0  0  0  0  0  0  0  0  0  0  0
  -14.9889  -37.3953   -9.8143 C   0  0  0  0  0  0  0  0  0  0  0  0
  -14.7227  -38.0184   -8.5585 N   0  0  0  0  0  0  0  0  0  0  0  0
  -15.3966  -39.2740   -8.3409 C   0  0  0  0  0  0  0  0  0  0  0  0
  -16.8112  -39.0660   -7.8566 C   0  0  1  0  0  0  0  0  0  0  0  0
  -16.7478  -38.4214   -6.6352 O   0  0  0  0  0  0  0  0  0  0  0  0
  -17.6823  -38.4211   -8.8870 C   0  0  2  0  0  0  0  0  0  0  0  0
  -18.5863  -37.3388   -8.3626 C   0  0  0  0  0  0  0  0  0  0  0  0
  -20.0177  -37.8111   -8.2675 C   0  0  0  0  0  0  0  0  0  0  0  0
  -20.5980  -38.6424   -7.3550 C   0  0  0  0  0  0  0  0  0  0  0  0
  -21.9605  -38.9089   -7.4999 C   0  0  0  0  0  0  0  0  0  0  0  0
  -22.6832  -38.3197   -8.5687 C   0  0  0  0  0  0  0  0  0  0  0  0
  -22.1191  -37.4846   -9.4925 C   0  0  0  0  0  0  0  0  0  0  0  0
  -20.7813  -37.2464   -9.3184 C   0  0  0  0  0  0  0  0  0  0  0  0
  -22.7945  -39.6917   -6.7530 O   0  0  0  0  0  0  0  0  0  0  0  0
  -23.0426  -40.2524   -5.5572 C   0  0  0  0  0  0  0  0  0  0  0  0
  -22.5284  -41.6711   -5.3802 C   0  0  0  0  0  0  0  0  0  0  0  0
  -23.0624  -42.6071   -6.4153 C   0  0  0  0  0  0  0  0  0  0  0  0
  -22.2222  -43.8442   -6.6292 C   0  0  0  0  0  0  0  0  0  0  0  0
  -20.8163  -43.6298   -6.3481 N   0  0  0  0  0  0  0  0  0  0  0  0
  -20.4421  -44.0416   -5.0034 C   0  0  0  0  0  0  0  0  0  0  0  0
  -21.3512  -43.7752   -3.8808 C   0  0  0  0  0  0  0  0  0  0  0  0
  -19.3688  -44.6103   -4.8029 O   0  0  0  0  0  0  0  0  0  0  0  0
  -19.7998  -43.1070   -7.2350 C   0  0  0  0  0  0  0  0  0  0  0  0
  -19.7791  -42.0296   -8.0881 C   0  0  0  0  0  0  0  0  0  0  0  0
  -18.6130  -41.8143   -8.7938 C   0  0  0  0  0  0  0  0  0  0  0  0
  -17.5239  -42.7017   -8.6043 C   0  0  0  0  0  0  0  0  0  0  0  0
  -17.5538  -43.7758   -7.7492 C   0  0  0  0  0  0  0  0  0  0  0  0
  -16.3748  -44.6761   -7.5892 C   0  0  0  0  0  0  0  0  0  0  0  0
  -18.6877  -43.9336   -7.1009 N   0  0  0  0  0  0  0  0  0  0  0  0
  -18.2384  -40.7755   -9.7680 C   0  0  0  0  0  0  0  0  0  0  0  0
  -17.6873  -41.1897  -10.9046 O   0  0  0  0  0  0  0  0  0  0  0  0
  -18.3412  -39.3729   -9.7526 N   0  0  0  0  0  0  0  0  0  0  0  0
  -15.2724  -38.8253  -11.7712 N   0  0  0  0  0  0  0  0  0  0  0  0
  -14.8015  -39.5363  -12.8255 C   0  0  0  0  0  0  0  0  0  0  0  0
  -13.4448  -39.5749  -13.0624 C   0  0  0  0  0  0  0  0  0  0  0  0
  1  2  1  0
  2  3  1  0
  2  4  1  0
  4  5  2  0
  5  6  1  0
  6  7  1  0
  7  8  1  0
  8  9  1  0
  9 10  1  0
 10 11  1  1
 10 12  1  0
 12 13  1  1
 13 14  1  0
 14 15  2  0
 15 16  1  0
 16 17  2  0
 17 18  1  0
 18 19  2  0
 16 20  1  0
 20 21  1  0
 21 22  1  0
 22 23  1  0
 23 24  1  0
 24 25  1  0
 25 26  1  0
 26 27  1  0
 26 28  2  0
 25 29  1  0
 29 30  2  0
 30 31  1  0
 31 32  2  0
 32 33  1  0
 33 34  1  0
 33 35  2  0
 31 36  1  0
 36 37  2  0
 36 38  1  0
  6 39  2  0
 39 40  1  0
 40 41  2  0
 19 14  1  0
 35 29  1  0
 38 12  1  0
 41  4  1  0
M  END
$$$$
