
     RDKit          3D

 41 44  0  0  0  0  0  0  0  0999 V2000
  -12.0213  -36.6609  -11.6482 C   0  0  0  0  0  0  0  0  0  0  0  0
  -11.1791  -37.8827  -11.4123 C   0  0  0  0  0  0  0  0  0  0  0  0
   -9.9766  -37.9305  -12.3332 C   0  0  0  0  0  0  0  0  0  0  0  0
  -12.0280  -39.0900  -11.5908 C   0  0  0  0  0  0  0  0  0  0  0  0
  -12.8164  -39.5190  -10.5471 C   0  0  0  0  0  0  0  0  0  0  0  0
  -13.5968  -40.6287  -10.7131 C   0  0  0  0  0  0  0  0  0  0  0  0
  -14.4307  -41.0764   -9.5949 C   0  0  0  0  0  0  0  0  0  0  0  0
  -14.2171  -40.3153   -8.4069 N   0  0  0  0  0  0  0  0  0  0  0  0
  -14.9930  -39.1045   -8.3057 C   0  0  0  0  0  0  0  0  0  0  0  0
  -16.3760  -39.3772   -7.7653 C   0  0  1  0  0  0  0  0  0  0  0  0
  -16.2563  -39.6353   -6.4124 O   0  0  0  0  0  0  0  0  0  0  0  0
  -17.3589  -38.3139   -8.1392 C   0  0  2  0  0  0  0  0  0  0  0  0
  -17.9382  -37.5522   -6.9783 C   0  0  0  0  0  0  0  0  0  0  0  0
  -19.3605  -37.9732   -6.6946 C   0  0  0  0  0  0  0  0  0  0  0  0
  -19.8265  -39.1061   -6.0946 C   0  0  0  0  0  0  0  0  0  0  0  0
  -21.2087  -39.2381   -5.9507 C   0  0  0  0  0  0  0  0  0  0  0  0
  -22.0667  -38.2120   -6.4226 C   0  0  0  0  0  0  0  0  0  0  0  0
  -21.6183  -37.0702   -7.0261 C   0  0  0  0  0  0  0  0  0  0  0  0
  -20.2572  -36.9758   -7.1500 C   0  0  0  0  0  0  0  0  0  0  0  0
  -21.9500  -40.2459   -5.4023 O   0  0  0  0  0  0  0  0  0  0  0  0
  -21.9892  -41.2734   -4.5371 C   0  0  0  0  0  0  0  0  0  0  0  0
  -21.6683  -42.6370   -5.1254 C   0  0  0  0  0  0  0  0  0  0  0  0
  -22.5680  -42.9959   -6.2631 C   0  0  0  0  0  0  0  0  0  0  0  0
  -21.9997  -44.0327   -7.2035 C   0  0  0  0  0  0  0  0  0  0  0  0
  -20.5515  -44.0095   -7.2640 N   0  0  0  0  0  0  0  0  0  0  0  0
  -19.9355  -44.9892   -6.3818 C   0  0  0  0  0  0  0  0  0  0  0  0
  -20.7819  -45.8402   -5.5349 C   0  0  0  0  0  0  0  0  0  0  0  0
  -18.7108  -45.1072   -6.3417 O   0  0  0  0  0  0  0  0  0  0  0  0
  -19.7075  -43.1772   -8.0937 C   0  0  0  0  0  0  0  0  0  0  0  0
  -19.7271  -41.8335   -8.3821 C   0  0  0  0  0  0  0  0  0  0  0  0
  -18.7431  -41.3618   -9.2267 C   0  0  0  0  0  0  0  0  0  0  0  0
  -17.7873  -42.2734   -9.7414 C   0  0  0  0  0  0  0  0  0  0  0  0
  -17.7756  -43.6148   -9.4472 C   0  0  0  0  0  0  0  0  0  0  0  0
  -16.7425  -44.5275  -10.0181 C   0  0  0  0  0  0  0  0  0  0  0  0
  -18.7336  -44.0104   -8.6370 N   0  0  0  0  0  0  0  0  0  0  0  0
  -18.4578  -40.0094   -9.7349 C   0  0  0  0  0  0  0  0  0  0  0  0
  -18.2613  -39.8897  -11.0441 O   0  0  0  0  0  0  0  0  0  0  0  0
  -18.3406  -38.7587   -9.1024 N   0  0  0  0  0  0  0  0  0  0  0  0
  -13.5905  -41.2848  -11.8764 N   0  0  0  0  0  0  0  0  0  0  0  0
  -12.8246  -40.8865  -12.9221 C   0  0  0  0  0  0  0  0  0  0  0  0
  -12.0261  -39.7717  -12.7886 C   0  0  0  0  0  0  0  0  0  0  0  0
  1  2  1  0
  2  3  1  0
  2  4  1  0
  4  5  2  0
  5  6  1  0
  6  7  1  0
  7  8  1  0
  8  9  1  0
  9 10  1  0
 10 11  1  1
 10 12  1  0
 12 13  1  1
 13 14  1  0
 14 15  2  0
 15 16  1  0
 16 17  2  0
 17 18  1  0
 18 19  2  0
 16 20  1  0
 20 21  1  0
 21 22  1  0
 22 23  1  0
 23 24  1  0
 24 25  1  0
 25 26  1  0
 26 27  1  0
 26 28  2  0
 25 29  1  0
 29 30  2  0
 30 31  1  0
 31 32  2  0
 32 33  1  0
 33 34  1  0
 33 35  2  0
 31 36  1  0
 36 37  2  0
 36 38  1  0
  6 39  2  0
 39 40  1  0
 40 41  2  0
 19 14  1  0
 35 29  1  0
 38 12  1  0
 41  4  1  0
M  END
$$$$
