
     RDKit          3D

 41 44  0  0  0  0  0  0  0  0999 V2000
  -12.2698  -34.9925  -10.2235 C   0  0  0  0  0  0  0  0  0  0  0  0
  -12.5198  -35.4014  -11.6476 C   0  0  0  0  0  0  0  0  0  0  0  0
  -12.9237  -34.2255  -12.5140 C   0  0  0  0  0  0  0  0  0  0  0  0
  -13.5694  -36.4541  -11.6653 C   0  0  0  0  0  0  0  0  0  0  0  0
  -13.4446  -37.5433  -10.8329 C   0  0  0  0  0  0  0  0  0  0  0  0
  -14.4107  -38.5099  -10.8498 C   0  0  0  0  0  0  0  0  0  0  0  0
  -14.2665  -39.6650   -9.9604 C   0  0  0  0  0  0  0  0  0  0  0  0
  -14.7921  -39.4264   -8.6553 N   0  0  0  0  0  0  0  0  0  0  0  0
  -15.1511  -40.6085   -7.9124 C   0  0  0  0  0  0  0  0  0  0  0  0
  -16.6017  -40.5804   -7.4951 C   0  0  1  0  0  0  0  0  0  0  0  0
  -16.6418  -40.4442   -6.1199 O   0  0  0  0  0  0  0  0  0  0  0  0
  -17.4032  -39.5838   -8.2701 C   0  0  2  0  0  0  0  0  0  0  0  0
  -18.0833  -38.5331   -7.4353 C   0  0  0  0  0  0  0  0  0  0  0  0
  -19.5670  -38.7910   -7.3217 C   0  0  0  0  0  0  0  0  0  0  0  0
  -20.2315  -39.7175   -6.5730 C   0  0  0  0  0  0  0  0  0  0  0  0
  -21.6251  -39.7314   -6.6519 C   0  0  0  0  0  0  0  0  0  0  0  0
  -22.2920  -38.8016   -7.4900 C   0  0  0  0  0  0  0  0  0  0  0  0
  -21.6434  -37.8664   -8.2473 C   0  0  0  0  0  0  0  0  0  0  0  0
  -20.2774  -37.8828   -8.1445 C   0  0  0  0  0  0  0  0  0  0  0  0
  -22.5397  -40.5333   -6.0300 O   0  0  0  0  0  0  0  0  0  0  0  0
  -22.8170  -41.3182   -4.9752 C   0  0  0  0  0  0  0  0  0  0  0  0
  -22.5413  -42.7995   -5.1712 C   0  0  0  0  0  0  0  0  0  0  0  0
  -23.2783  -43.3695   -6.3393 C   0  0  0  0  0  0  0  0  0  0  0  0
  -22.6713  -44.6330   -6.9024 C   0  0  0  0  0  0  0  0  0  0  0  0
  -21.2368  -44.7083   -6.7073 N   0  0  0  0  0  0  0  0  0  0  0  0
  -20.8687  -45.4805   -5.5301 C   0  0  0  0  0  0  0  0  0  0  0  0
  -21.9084  -45.9044   -4.5829 C   0  0  0  0  0  0  0  0  0  0  0  0
  -19.6921  -45.7788   -5.3245 O   0  0  0  0  0  0  0  0  0  0  0  0
  -20.1937  -44.1500   -7.5401 C   0  0  0  0  0  0  0  0  0  0  0  0
  -20.0353  -42.9165   -8.1252 C   0  0  0  0  0  0  0  0  0  0  0  0
  -18.8875  -42.7193   -8.8654 C   0  0  0  0  0  0  0  0  0  0  0  0
  -17.9557  -43.7813   -8.9804 C   0  0  0  0  0  0  0  0  0  0  0  0
  -18.1225  -45.0108   -8.3917 C   0  0  0  0  0  0  0  0  0  0  0  0
  -17.1058  -46.0918   -8.5464 C   0  0  0  0  0  0  0  0  0  0  0  0
  -19.2317  -45.1441   -7.6971 N   0  0  0  0  0  0  0  0  0  0  0  0
  -18.3937  -41.5477   -9.6084 C   0  0  0  0  0  0  0  0  0  0  0  0
  -17.9797  -41.7582  -10.8539 O   0  0  0  0  0  0  0  0  0  0  0  0
  -18.2571  -40.1904   -9.2663 N   0  0  0  0  0  0  0  0  0  0  0  0
  -15.4612  -38.3934  -11.6663 N   0  0  0  0  0  0  0  0  0  0  0  0
  -15.6116  -37.3326  -12.4974 C   0  0  0  0  0  0  0  0  0  0  0  0
  -14.6559  -36.3401  -12.5056 C   0  0  0  0  0  0  0  0  0  0  0  0
  1  2  1  0
  2  3  1  0
  2  4  1  0
  4  5  2  0
  5  6  1  0
  6  7  1  0
  7  8  1  0
  8  9  1  0
  9 10  1  0
 10 11  1  1
 10 12  1  0
 12 13  1  1
 13 14  1  0
 14 15  2  0
 15 16  1  0
 16 17  2  0
 17 18  1  0
 18 19  2  0
 16 20  1  0
 20 21  1  0
 21 22  1  0
 22 23  1  0
 23 24  1  0
 24 25  1  0
 25 26  1  0
 26 27  1  0
 26 28  2  0
 25 29  1  0
 29 30  2  0
 30 31  1  0
 31 32  2  0
 32 33  1  0
 33 34  1  0
 33 35  2  0
 31 36  1  0
 36 37  2  0
 36 38  1  0
  6 39  2  0
 39 40  1  0
 40 41  2  0
 19 14  1  0
 35 29  1  0
 38 12  1  0
 41  4  1  0
M  END
$$$$
