
     RDKit          3D

 41 44  0  0  0  0  0  0  0  0999 V2000
  -18.6809  -44.2379   -8.2770 C   0  0  0  0  0  0  0  0  0  0  0  0
  -18.5788  -44.3078   -9.7745 C   0  0  0  0  0  0  0  0  0  0  0  0
  -19.3091  -45.5099  -10.3384 C   0  0  0  0  0  0  0  0  0  0  0  0
  -17.1420  -44.3379  -10.1547 C   0  0  0  0  0  0  0  0  0  0  0  0
  -16.2321  -43.6275   -9.4048 C   0  0  0  0  0  0  0  0  0  0  0  0
  -14.9114  -43.6567   -9.7552 C   0  0  0  0  0  0  0  0  0  0  0  0
  -13.9524  -42.8959   -8.9503 C   0  0  0  0  0  0  0  0  0  0  0  0
  -14.5713  -42.1867   -7.8778 N   0  0  0  0  0  0  0  0  0  0  0  0
  -14.4329  -40.7526   -7.9294 C   0  0  0  0  0  0  0  0  0  0  0  0
  -15.7672  -40.0748   -8.1273 C   0  0  1  0  0  0  0  0  0  0  0  0
  -15.9313  -39.1606   -7.1033 O   0  0  0  0  0  0  0  0  0  0  0  0
  -15.9386  -39.5367   -9.5120 C   0  0  2  0  0  0  0  0  0  0  0  0
  -16.1306  -38.0466   -9.5918 C   0  0  0  0  0  0  0  0  0  0  0  0
  -17.5684  -37.6888   -9.8845 C   0  0  0  0  0  0  0  0  0  0  0  0
  -18.6541  -37.7150   -9.0593 C   0  0  0  0  0  0  0  0  0  0  0  0
  -19.8811  -37.3198   -9.5947 C   0  0  0  0  0  0  0  0  0  0  0  0
  -19.9587  -36.9120  -10.9509 C   0  0  0  0  0  0  0  0  0  0  0  0
  -18.8821  -36.8792  -11.7928 C   0  0  0  0  0  0  0  0  0  0  0  0
  -17.6957  -37.2737  -11.2328 C   0  0  0  0  0  0  0  0  0  0  0  0
  -21.1174  -37.2480   -9.0180 O   0  0  0  0  0  0  0  0  0  0  0  0
  -21.8254  -37.1144   -7.8837 C   0  0  0  0  0  0  0  0  0  0  0  0
  -22.2497  -38.4138   -7.2203 C   0  0  0  0  0  0  0  0  0  0  0  0
  -23.0522  -39.2860   -8.1301 C   0  0  0  0  0  0  0  0  0  0  0  0
  -23.0488  -40.7489   -7.7535 C   0  0  0  0  0  0  0  0  0  0  0  0
  -21.8380  -41.1545   -7.0672 N   0  0  0  0  0  0  0  0  0  0  0  0
  -21.9830  -41.1487   -5.6192 C   0  0  0  0  0  0  0  0  0  0  0  0
  -23.1162  -40.4451   -5.0037 C   0  0  0  0  0  0  0  0  0  0  0  0
  -21.1614  -41.7288   -4.9093 O   0  0  0  0  0  0  0  0  0  0  0  0
  -20.5813  -41.5728   -7.6493 C   0  0  0  0  0  0  0  0  0  0  0  0
  -19.8149  -41.0588   -8.6679 C   0  0  0  0  0  0  0  0  0  0  0  0
  -18.6419  -41.7228   -8.9629 C   0  0  0  0  0  0  0  0  0  0  0  0
  -18.3015  -42.8775   -8.2144 C   0  0  0  0  0  0  0  0  0  0  0  0
  -19.0737  -43.3837   -7.1978 C   0  0  0  0  0  0  0  0  0  0  0  0
  -18.6636  -44.6033   -6.4425 C   0  0  0  0  0  0  0  0  0  0  0  0
  -20.1789  -42.7118   -6.9573 N   0  0  0  0  0  0  0  0  0  0  0  0
  -17.5936  -41.4568   -9.9624 C   0  0  0  0  0  0  0  0  0  0  0  0
  -17.2079  -42.4825  -10.7148 O   0  0  0  0  0  0  0  0  0  0  0  0
  -16.8773  -40.2963  -10.3064 N   0  0  0  0  0  0  0  0  0  0  0  0
  -14.5142  -44.3680  -10.8136 N   0  0  0  0  0  0  0  0  0  0  0  0
  -15.3868  -45.0774  -11.5713 C   0  0  0  0  0  0  0  0  0  0  0  0
  -16.7255  -45.0697  -11.2458 C   0  0  0  0  0  0  0  0  0  0  0  0
  1  2  1  0
  2  3  1  0
  2  4  1  0
  4  5  2  0
  5  6  1  0
  6  7  1  0
  7  8  1  0
  8  9  1  0
  9 10  1  0
 10 11  1  1
 10 12  1  0
 12 13  1  1
 13 14  1  0
 14 15  2  0
 15 16  1  0
 16 17  2  0
 17 18  1  0
 18 19  2  0
 16 20  1  0
 20 21  1  0
 21 22  1  0
 22 23  1  0
 23 24  1  0
 24 25  1  0
 25 26  1  0
 26 27  1  0
 26 28  2  0
 25 29  1  0
 29 30  2  0
 30 31  1  0
 31 32  2  0
 32 33  1  0
 33 34  1  0
 33 35  2  0
 31 36  1  0
 36 37  2  0
 36 38  1  0
  6 39  2  0
 39 40  1  0
 40 41  2  0
 19 14  1  0
 35 29  1  0
 38 12  1  0
 41  4  1  0
M  END
$$$$
