
     RDKit          3D

 41 44  0  0  0  0  0  0  0  0999 V2000
  -13.3157  -34.6928  -12.1813 C   0  0  0  0  0  0  0  0  0  0  0  0
  -14.8148  -34.7933  -12.2047 C   0  0  0  0  0  0  0  0  0  0  0  0
  -15.4638  -33.8382  -11.2234 C   0  0  0  0  0  0  0  0  0  0  0  0
  -15.2042  -36.1974  -11.9095 C   0  0  0  0  0  0  0  0  0  0  0  0
  -14.3862  -36.9706  -11.1171 C   0  0  0  0  0  0  0  0  0  0  0  0
  -14.7459  -38.2610  -10.8462 C   0  0  0  0  0  0  0  0  0  0  0  0
  -13.8668  -39.0746  -10.0027 C   0  0  0  0  0  0  0  0  0  0  0  0
  -14.5448  -40.1751   -9.3982 N   0  0  0  0  0  0  0  0  0  0  0  0
  -14.7432  -40.0670   -7.9744 C   0  0  0  0  0  0  0  0  0  0  0  0
  -16.2106  -40.0497   -7.6200 C   0  0  1  0  0  0  0  0  0  0  0  0
  -16.3132  -39.8133   -6.2618 O   0  0  0  0  0  0  0  0  0  0  0  0
  -17.0034  -39.1366   -8.4999 C   0  0  2  0  0  0  0  0  0  0  0  0
  -17.6152  -37.9554   -7.7972 C   0  0  0  0  0  0  0  0  0  0  0  0
  -19.1021  -38.1356   -7.6039 C   0  0  0  0  0  0  0  0  0  0  0  0
  -19.7720  -38.9239   -6.7149 C   0  0  0  0  0  0  0  0  0  0  0  0
  -21.1672  -38.8923   -6.7484 C   0  0  0  0  0  0  0  0  0  0  0  0
  -21.8301  -38.0594   -7.6857 C   0  0  0  0  0  0  0  0  0  0  0  0
  -21.1761  -37.2630   -8.5839 C   0  0  0  0  0  0  0  0  0  0  0  0
  -19.8087  -37.3202   -8.5216 C   0  0  0  0  0  0  0  0  0  0  0  0
  -22.0869  -39.5646   -5.9944 O   0  0  0  0  0  0  0  0  0  0  0  0
  -22.3540  -40.1866   -4.8336 C   0  0  0  0  0  0  0  0  0  0  0  0
  -22.1385  -41.6906   -4.8324 C   0  0  0  0  0  0  0  0  0  0  0  0
  -22.9367  -42.3845   -5.8878 C   0  0  0  0  0  0  0  0  0  0  0  0
  -22.3957  -43.7363   -6.2901 C   0  0  0  0  0  0  0  0  0  0  0  0
  -20.9587  -43.8419   -6.1305 N   0  0  0  0  0  0  0  0  0  0  0  0
  -20.5764  -44.4606   -4.8700 C   0  0  0  0  0  0  0  0  0  0  0  0
  -21.6073  -44.7792   -3.8731 C   0  0  0  0  0  0  0  0  0  0  0  0
  -19.3954  -44.7170   -4.6357 O   0  0  0  0  0  0  0  0  0  0  0  0
  -19.9269  -43.4448   -7.0637 C   0  0  0  0  0  0  0  0  0  0  0  0
  -19.7457  -42.3099   -7.8174 C   0  0  0  0  0  0  0  0  0  0  0  0
  -18.6189  -42.2617   -8.6125 C   0  0  0  0  0  0  0  0  0  0  0  0
  -17.7302  -43.3661   -8.6088 C   0  0  0  0  0  0  0  0  0  0  0  0
  -17.9195  -44.4961   -7.8517 C   0  0  0  0  0  0  0  0  0  0  0  0
  -16.9482  -45.6282   -7.8872 C   0  0  0  0  0  0  0  0  0  0  0  0
  -19.0072  -44.4888   -7.1118 N   0  0  0  0  0  0  0  0  0  0  0  0
  -18.1105  -41.2231   -9.5244 C   0  0  0  0  0  0  0  0  0  0  0  0
  -17.7491  -41.6179  -10.7412 O   0  0  0  0  0  0  0  0  0  0  0  0
  -17.9135  -39.8384   -9.3766 N   0  0  0  0  0  0  0  0  0  0  0  0
  -15.8789  -38.7603  -11.3470 N   0  0  0  0  0  0  0  0  0  0  0  0
  -16.7047  -38.0234  -12.1304 C   0  0  0  0  0  0  0  0  0  0  0  0
  -16.3720  -36.7188  -12.4232 C   0  0  0  0  0  0  0  0  0  0  0  0
  1  2  1  0
  2  3  1  0
  2  4  1  0
  4  5  2  0
  5  6  1  0
  6  7  1  0
  7  8  1  0
  8  9  1  0
  9 10  1  0
 10 11  1  1
 10 12  1  0
 12 13  1  1
 13 14  1  0
 14 15  2  0
 15 16  1  0
 16 17  2  0
 17 18  1  0
 18 19  2  0
 16 20  1  0
 20 21  1  0
 21 22  1  0
 22 23  1  0
 23 24  1  0
 24 25  1  0
 25 26  1  0
 26 27  1  0
 26 28  2  0
 25 29  1  0
 29 30  2  0
 30 31  1  0
 31 32  2  0
 32 33  1  0
 33 34  1  0
 33 35  2  0
 31 36  1  0
 36 37  2  0
 36 38  1  0
  6 39  2  0
 39 40  1  0
 40 41  2  0
 19 14  1  0
 35 29  1  0
 38 12  1  0
 41  4  1  0
M  END
$$$$
