
     RDKit          3D

 41 44  0  0  0  0  0  0  0  0999 V2000
  -14.2781  -35.0072  -12.6167 C   0  0  0  0  0  0  0  0  0  0  0  0
  -15.0267  -35.4205  -11.3812 C   0  0  0  0  0  0  0  0  0  0  0  0
  -14.4195  -34.8302  -10.1246 C   0  0  0  0  0  0  0  0  0  0  0  0
  -15.0474  -36.9053  -11.3093 C   0  0  0  0  0  0  0  0  0  0  0  0
  -14.3117  -37.5425  -10.3358 C   0  0  0  0  0  0  0  0  0  0  0  0
  -14.3322  -38.9075  -10.2705 C   0  0  0  0  0  0  0  0  0  0  0  0
  -13.5444  -39.5745   -9.2310 C   0  0  0  0  0  0  0  0  0  0  0  0
  -14.1763  -39.5410   -7.9520 N   0  0  0  0  0  0  0  0  0  0  0  0
  -14.9023  -40.7340   -7.5944 C   0  0  0  0  0  0  0  0  0  0  0  0
  -16.3475  -40.4294   -7.2817 C   0  0  1  0  0  0  0  0  0  0  0  0
  -16.4517  -40.2376   -5.9165 O   0  0  0  0  0  0  0  0  0  0  0  0
  -16.9015  -39.3338   -8.1357 C   0  0  2  0  0  0  0  0  0  0  0  0
  -17.5674  -38.2174   -7.3782 C   0  0  0  0  0  0  0  0  0  0  0  0
  -19.0717  -38.2937   -7.4889 C   0  0  0  0  0  0  0  0  0  0  0  0
  -19.9450  -39.1405   -6.8718 C   0  0  0  0  0  0  0  0  0  0  0  0
  -21.3033  -38.9835   -7.1525 C   0  0  0  0  0  0  0  0  0  0  0  0
  -21.7237  -37.9699   -8.0513 C   0  0  0  0  0  0  0  0  0  0  0  0
  -20.8637  -37.1124   -8.6789 C   0  0  0  0  0  0  0  0  0  0  0  0
  -19.5396  -37.2965   -8.3793 C   0  0  0  0  0  0  0  0  0  0  0  0
  -22.3885  -39.6748   -6.6936 O   0  0  0  0  0  0  0  0  0  0  0  0
  -22.9099  -40.4318   -5.7134 C   0  0  0  0  0  0  0  0  0  0  0  0
  -22.7866  -41.9333   -5.9102 C   0  0  0  0  0  0  0  0  0  0  0  0
  -23.4056  -42.3961   -7.1890 C   0  0  0  0  0  0  0  0  0  0  0  0
  -22.8768  -43.7178   -7.6945 C   0  0  0  0  0  0  0  0  0  0  0  0
  -21.5061  -43.9696   -7.2954 N   0  0  0  0  0  0  0  0  0  0  0  0
  -21.4104  -44.7941   -6.1001 C   0  0  0  0  0  0  0  0  0  0  0  0
  -22.6202  -45.0914   -5.3218 C   0  0  0  0  0  0  0  0  0  0  0  0
  -20.3221  -45.2420   -5.7387 O   0  0  0  0  0  0  0  0  0  0  0  0
  -20.2926  -43.5335   -7.9514 C   0  0  0  0  0  0  0  0  0  0  0  0
  -19.9038  -42.3220   -8.4712 C   0  0  0  0  0  0  0  0  0  0  0  0
  -18.6442  -42.2580   -9.0309 C   0  0  0  0  0  0  0  0  0  0  0  0
  -17.8386  -43.4243   -9.0401 C   0  0  0  0  0  0  0  0  0  0  0  0
  -18.2356  -44.6308   -8.5179 C   0  0  0  0  0  0  0  0  0  0  0  0
  -17.3432  -45.8260   -8.5546 C   0  0  0  0  0  0  0  0  0  0  0  0
  -19.4431  -44.6356   -7.9958 N   0  0  0  0  0  0  0  0  0  0  0  0
  -17.9101  -41.1471   -9.6599 C   0  0  0  0  0  0  0  0  0  0  0  0
  -17.3448  -41.3925  -10.8378 O   0  0  0  0  0  0  0  0  0  0  0  0
  -17.6651  -39.8205   -9.2624 N   0  0  0  0  0  0  0  0  0  0  0  0
  -15.0595  -39.6094  -11.1435 N   0  0  0  0  0  0  0  0  0  0  0  0
  -15.7940  -39.0102  -12.1131 C   0  0  0  0  0  0  0  0  0  0  0  0
  -15.7957  -37.6356  -12.2071 C   0  0  0  0  0  0  0  0  0  0  0  0
  1  2  1  0
  2  3  1  0
  2  4  1  0
  4  5  2  0
  5  6  1  0
  6  7  1  0
  7  8  1  0
  8  9  1  0
  9 10  1  0
 10 11  1  1
 10 12  1  0
 12 13  1  1
 13 14  1  0
 14 15  2  0
 15 16  1  0
 16 17  2  0
 17 18  1  0
 18 19  2  0
 16 20  1  0
 20 21  1  0
 21 22  1  0
 22 23  1  0
 23 24  1  0
 24 25  1  0
 25 26  1  0
 26 27  1  0
 26 28  2  0
 25 29  1  0
 29 30  2  0
 30 31  1  0
 31 32  2  0
 32 33  1  0
 33 34  1  0
 33 35  2  0
 31 36  1  0
 36 37  2  0
 36 38  1  0
  6 39  2  0
 39 40  1  0
 40 41  2  0
 19 14  1  0
 35 29  1  0
 38 12  1  0
 41  4  1  0
M  END
$$$$
