
     RDKit          3D

 41 44  0  0  0  0  0  0  0  0999 V2000
  -14.1529  -33.8282  -12.0491 C   0  0  0  0  0  0  0  0  0  0  0  0
  -13.5585  -35.1763  -11.7539 C   0  0  0  0  0  0  0  0  0  0  0  0
  -12.9410  -35.8072  -12.9856 C   0  0  0  0  0  0  0  0  0  0  0  0
  -14.6182  -36.0521  -11.1881 C   0  0  0  0  0  0  0  0  0  0  0  0
  -14.3413  -36.8088  -10.0719 C   0  0  0  0  0  0  0  0  0  0  0  0
  -15.3167  -37.6130   -9.5526 C   0  0  0  0  0  0  0  0  0  0  0  0
  -15.0101  -38.4145   -8.3653 C   0  0  0  0  0  0  0  0  0  0  0  0
  -14.8353  -39.7990   -8.6633 N   0  0  0  0  0  0  0  0  0  0  0  0
  -15.2118  -40.7064   -7.6083 C   0  0  0  0  0  0  0  0  0  0  0  0
  -16.6486  -40.5042   -7.1912 C   0  0  1  0  0  0  0  0  0  0  0  0
  -16.6640  -40.2835   -5.8265 O   0  0  0  0  0  0  0  0  0  0  0  0
  -17.3493  -39.4779   -8.0231 C   0  0  2  0  0  0  0  0  0  0  0  0
  -18.1273  -38.4546   -7.2414 C   0  0  0  0  0  0  0  0  0  0  0  0
  -19.6136  -38.7106   -7.3202 C   0  0  0  0  0  0  0  0  0  0  0  0
  -20.3647  -39.6603   -6.6920 C   0  0  0  0  0  0  0  0  0  0  0  0
  -21.7380  -39.6660   -6.9418 C   0  0  0  0  0  0  0  0  0  0  0  0
  -22.2974  -38.7048   -7.8222 C   0  0  0  0  0  0  0  0  0  0  0  0
  -21.5610  -37.7460   -8.4605 C   0  0  0  0  0  0  0  0  0  0  0  0
  -20.2180  -37.7713   -8.1913 C   0  0  0  0  0  0  0  0  0  0  0  0
  -22.7217  -40.4858   -6.4658 O   0  0  0  0  0  0  0  0  0  0  0  0
  -23.1261  -41.3062   -5.4814 C   0  0  0  0  0  0  0  0  0  0  0  0
  -22.8277  -42.7807   -5.6943 C   0  0  0  0  0  0  0  0  0  0  0  0
  -23.4153  -43.3065   -6.9635 C   0  0  0  0  0  0  0  0  0  0  0  0
  -22.7430  -44.5518   -7.4922 C   0  0  0  0  0  0  0  0  0  0  0  0
  -21.3434  -44.6393   -7.1251 N   0  0  0  0  0  0  0  0  0  0  0  0
  -21.1223  -45.4539   -5.9396 C   0  0  0  0  0  0  0  0  0  0  0  0
  -22.2427  -45.7404   -5.0338 C   0  0  0  0  0  0  0  0  0  0  0  0
  -20.0027  -45.9023   -5.6927 O   0  0  0  0  0  0  0  0  0  0  0  0
  -20.2061  -44.0562   -7.8033 C   0  0  0  0  0  0  0  0  0  0  0  0
  -19.9776  -42.8035   -8.3204 C   0  0  0  0  0  0  0  0  0  0  0  0
  -18.7477  -42.5848   -8.9066 C   0  0  0  0  0  0  0  0  0  0  0  0
  -17.8082  -43.6457   -8.9438 C   0  0  0  0  0  0  0  0  0  0  0  0
  -18.0455  -44.8944   -8.4239 C   0  0  0  0  0  0  0  0  0  0  0  0
  -17.0170  -45.9733   -8.4906 C   0  0  0  0  0  0  0  0  0  0  0  0
  -19.2316  -45.0478   -7.8759 N   0  0  0  0  0  0  0  0  0  0  0  0
  -18.1668  -41.3897   -9.5414 C   0  0  0  0  0  0  0  0  0  0  0  0
  -17.6028  -41.5579  -10.7334 O   0  0  0  0  0  0  0  0  0  0  0  0
  -18.0741  -40.0458   -9.1374 N   0  0  0  0  0  0  0  0  0  0  0  0
  -16.5223  -37.6599  -10.1254 N   0  0  0  0  0  0  0  0  0  0  0  0
  -16.8247  -36.9265  -11.2251 C   0  0  0  0  0  0  0  0  0  0  0  0
  -15.8643  -36.1052  -11.7744 C   0  0  0  0  0  0  0  0  0  0  0  0
  1  2  1  0
  2  3  1  0
  2  4  1  0
  4  5  2  0
  5  6  1  0
  6  7  1  0
  7  8  1  0
  8  9  1  0
  9 10  1  0
 10 11  1  1
 10 12  1  0
 12 13  1  1
 13 14  1  0
 14 15  2  0
 15 16  1  0
 16 17  2  0
 17 18  1  0
 18 19  2  0
 16 20  1  0
 20 21  1  0
 21 22  1  0
 22 23  1  0
 23 24  1  0
 24 25  1  0
 25 26  1  0
 26 27  1  0
 26 28  2  0
 25 29  1  0
 29 30  2  0
 30 31  1  0
 31 32  2  0
 32 33  1  0
 33 34  1  0
 33 35  2  0
 31 36  1  0
 36 37  2  0
 36 38  1  0
  6 39  2  0
 39 40  1  0
 40 41  2  0
 19 14  1  0
 35 29  1  0
 38 12  1  0
 41  4  1  0
M  END
$$$$
