
     RDKit          3D

 41 44  0  0  0  0  0  0  0  0999 V2000
  -15.8522  -35.7077  -13.3925 C   0  0  0  0  0  0  0  0  0  0  0  0
  -14.4663  -35.8991  -12.8446 C   0  0  0  0  0  0  0  0  0  0  0  0
  -13.4006  -35.6320  -13.8883 C   0  0  0  0  0  0  0  0  0  0  0  0
  -14.3491  -37.2829  -12.3140 C   0  0  0  0  0  0  0  0  0  0  0  0
  -13.9162  -37.4738  -11.0213 C   0  0  0  0  0  0  0  0  0  0  0  0
  -13.8097  -38.7465  -10.5347 C   0  0  0  0  0  0  0  0  0  0  0  0
  -13.3469  -38.9374   -9.1579 C   0  0  0  0  0  0  0  0  0  0  0  0
  -14.3987  -38.8226   -8.2004 N   0  0  0  0  0  0  0  0  0  0  0  0
  -14.8238  -40.0641   -7.6036 C   0  0  0  0  0  0  0  0  0  0  0  0
  -16.3282  -40.1443   -7.5056 C   0  0  1  0  0  0  0  0  0  0  0  0
  -16.6681  -40.0628   -6.1680 O   0  0  0  0  0  0  0  0  0  0  0  0
  -17.0156  -39.1725   -8.4108 C   0  0  2  0  0  0  0  0  0  0  0  0
  -17.7715  -38.0787   -7.7067 C   0  0  0  0  0  0  0  0  0  0  0  0
  -19.2625  -38.3139   -7.7597 C   0  0  0  0  0  0  0  0  0  0  0  0
  -20.0264  -39.1993   -7.0576 C   0  0  0  0  0  0  0  0  0  0  0  0
  -21.4010  -39.1999   -7.3007 C   0  0  0  0  0  0  0  0  0  0  0  0
  -21.9483  -38.2991   -8.2498 C   0  0  0  0  0  0  0  0  0  0  0  0
  -21.1989  -37.4051   -8.9627 C   0  0  0  0  0  0  0  0  0  0  0  0
  -19.8551  -37.4334   -8.6977 C   0  0  0  0  0  0  0  0  0  0  0  0
  -22.3961  -39.9634   -6.7594 O   0  0  0  0  0  0  0  0  0  0  0  0
  -22.8093  -40.6988   -5.7134 C   0  0  0  0  0  0  0  0  0  0  0  0
  -22.5376  -42.1903   -5.8140 C   0  0  0  0  0  0  0  0  0  0  0  0
  -23.1410  -42.8012   -7.0368 C   0  0  0  0  0  0  0  0  0  0  0  0
  -22.4932  -44.0949   -7.4712 C   0  0  0  0  0  0  0  0  0  0  0  0
  -21.0933  -44.1788   -7.1042 N   0  0  0  0  0  0  0  0  0  0  0  0
  -20.8800  -44.9041   -5.8607 C   0  0  0  0  0  0  0  0  0  0  0  0
  -21.9969  -45.0886   -4.9246 C   0  0  0  0  0  0  0  0  0  0  0  0
  -19.7697  -45.3620   -5.5900 O   0  0  0  0  0  0  0  0  0  0  0  0
  -19.9498  -43.6694   -7.8295 C   0  0  0  0  0  0  0  0  0  0  0  0
  -19.7024  -42.4642   -8.4421 C   0  0  0  0  0  0  0  0  0  0  0  0
  -18.4721  -42.3127   -9.0482 C   0  0  0  0  0  0  0  0  0  0  0  0
  -17.5513  -43.3897   -9.0078 C   0  0  0  0  0  0  0  0  0  0  0  0
  -17.8073  -44.5907   -8.3929 C   0  0  0  0  0  0  0  0  0  0  0  0
  -16.7980  -45.6894   -8.3809 C   0  0  0  0  0  0  0  0  0  0  0  0
  -18.9930  -44.6807   -7.8300 N   0  0  0  0  0  0  0  0  0  0  0  0
  -17.8741  -41.1801   -9.7750 C   0  0  0  0  0  0  0  0  0  0  0  0
  -17.3194  -41.4489  -10.9528 O   0  0  0  0  0  0  0  0  0  0  0  0
  -17.7559  -39.8111   -9.4754 N   0  0  0  0  0  0  0  0  0  0  0  0
  -14.1235  -39.7886  -11.3088 N   0  0  0  0  0  0  0  0  0  0  0  0
  -14.5525  -39.6322  -12.5856 C   0  0  0  0  0  0  0  0  0  0  0  0
  -14.6712  -38.3626  -13.1076 C   0  0  0  0  0  0  0  0  0  0  0  0
  1  2  1  0
  2  3  1  0
  2  4  1  0
  4  5  2  0
  5  6  1  0
  6  7  1  0
  7  8  1  0
  8  9  1  0
  9 10  1  0
 10 11  1  1
 10 12  1  0
 12 13  1  1
 13 14  1  0
 14 15  2  0
 15 16  1  0
 16 17  2  0
 17 18  1  0
 18 19  2  0
 16 20  1  0
 20 21  1  0
 21 22  1  0
 22 23  1  0
 23 24  1  0
 24 25  1  0
 25 26  1  0
 26 27  1  0
 26 28  2  0
 25 29  1  0
 29 30  2  0
 30 31  1  0
 31 32  2  0
 32 33  1  0
 33 34  1  0
 33 35  2  0
 31 36  1  0
 36 37  2  0
 36 38  1  0
  6 39  2  0
 39 40  1  0
 40 41  2  0
 19 14  1  0
 35 29  1  0
 38 12  1  0
 41  4  1  0
M  END
$$$$
