
     RDKit          3D

 41 44  0  0  0  0  0  0  0  0999 V2000
  -10.2845  -36.8324  -13.1047 C   0  0  0  0  0  0  0  0  0  0  0  0
  -10.2559  -37.7197  -11.8925 C   0  0  0  0  0  0  0  0  0  0  0  0
   -8.9996  -38.5653  -11.8366 C   0  0  0  0  0  0  0  0  0  0  0  0
  -11.4694  -38.5785  -11.9002 C   0  0  0  0  0  0  0  0  0  0  0  0
  -11.8973  -39.1499  -10.7232 C   0  0  0  0  0  0  0  0  0  0  0  0
  -13.0134  -39.9387  -10.7319 C   0  0  0  0  0  0  0  0  0  0  0  0
  -13.4586  -40.5423   -9.4734 C   0  0  0  0  0  0  0  0  0  0  0  0
  -14.8798  -40.6156   -9.3682 N   0  0  0  0  0  0  0  0  0  0  0  0
  -15.5666  -39.3499   -9.4366 C   0  0  0  0  0  0  0  0  0  0  0  0
  -16.7443  -39.3078   -8.4930 C   0  0  1  0  0  0  0  0  0  0  0  0
  -16.2731  -38.9359   -7.2476 O   0  0  0  0  0  0  0  0  0  0  0  0
  -17.8798  -38.4944   -9.0273 C   0  0  2  0  0  0  0  0  0  0  0  0
  -18.4894  -37.5356   -8.0412 C   0  0  0  0  0  0  0  0  0  0  0  0
  -19.8247  -38.0321   -7.5396 C   0  0  0  0  0  0  0  0  0  0  0  0
  -20.1008  -39.0221   -6.6429 C   0  0  0  0  0  0  0  0  0  0  0  0
  -21.4427  -39.2717   -6.3503 C   0  0  0  0  0  0  0  0  0  0  0  0
  -22.4551  -38.5045   -6.9812 C   0  0  0  0  0  0  0  0  0  0  0  0
  -22.1978  -37.5089   -7.8820 C   0  0  0  0  0  0  0  0  0  0  0  0
  -20.8707  -37.2926   -8.1441 C   0  0  0  0  0  0  0  0  0  0  0  0
  -22.0108  -40.1864   -5.5097 O   0  0  0  0  0  0  0  0  0  0  0  0
  -21.8638  -40.9588   -4.4200 C   0  0  0  0  0  0  0  0  0  0  0  0
  -21.3973  -42.3806   -4.6836 C   0  0  0  0  0  0  0  0  0  0  0  0
  -22.3035  -43.1170   -5.6158 C   0  0  0  0  0  0  0  0  0  0  0  0
  -21.6556  -44.2854   -6.3209 C   0  0  0  0  0  0  0  0  0  0  0  0
  -20.2291  -44.1116   -6.5122 N   0  0  0  0  0  0  0  0  0  0  0  0
  -19.4393  -44.7584   -5.4751 C   0  0  0  0  0  0  0  0  0  0  0  0
  -20.0992  -45.2537   -4.2598 C   0  0  0  0  0  0  0  0  0  0  0  0
  -18.2230  -44.8912   -5.6112 O   0  0  0  0  0  0  0  0  0  0  0  0
  -19.5518  -43.4249   -7.5906 C   0  0  0  0  0  0  0  0  0  0  0  0
  -19.7668  -42.2095   -8.1953 C   0  0  0  0  0  0  0  0  0  0  0  0
  -18.9036  -41.8568   -9.2124 C   0  0  0  0  0  0  0  0  0  0  0  0
  -17.8651  -42.7526   -9.5710 C   0  0  0  0  0  0  0  0  0  0  0  0
  -17.6578  -43.9652   -8.9606 C   0  0  0  0  0  0  0  0  0  0  0  0
  -16.5458  -44.8674   -9.3798 C   0  0  0  0  0  0  0  0  0  0  0  0
  -18.5074  -44.2506   -7.9975 N   0  0  0  0  0  0  0  0  0  0  0  0
  -18.8304  -40.6536  -10.0583 C   0  0  0  0  0  0  0  0  0  0  0  0
  -18.7255  -40.8474  -11.3692 O   0  0  0  0  0  0  0  0  0  0  0  0
  -18.8458  -39.2786   -9.7629 N   0  0  0  0  0  0  0  0  0  0  0  0
  -13.6770  -40.1488  -11.8718 N   0  0  0  0  0  0  0  0  0  0  0  0
  -13.2798  -39.5999  -13.0464 C   0  0  0  0  0  0  0  0  0  0  0  0
  -12.1587  -38.7995  -13.0731 C   0  0  0  0  0  0  0  0  0  0  0  0
  1  2  1  0
  2  3  1  0
  2  4  1  0
  4  5  2  0
  5  6  1  0
  6  7  1  0
  7  8  1  0
  8  9  1  0
  9 10  1  0
 10 11  1  1
 10 12  1  0
 12 13  1  1
 13 14  1  0
 14 15  2  0
 15 16  1  0
 16 17  2  0
 17 18  1  0
 18 19  2  0
 16 20  1  0
 20 21  1  0
 21 22  1  0
 22 23  1  0
 23 24  1  0
 24 25  1  0
 25 26  1  0
 26 27  1  0
 26 28  2  0
 25 29  1  0
 29 30  2  0
 30 31  1  0
 31 32  2  0
 32 33  1  0
 33 34  1  0
 33 35  2  0
 31 36  1  0
 36 37  2  0
 36 38  1  0
  6 39  2  0
 39 40  1  0
 40 41  2  0
 19 14  1  0
 35 29  1  0
 38 12  1  0
 41  4  1  0
M  END
$$$$
