
     RDKit          3D

 41 44  0  0  0  0  0  0  0  0999 V2000
  -11.2136  -36.7416  -10.7221 C   0  0  0  0  0  0  0  0  0  0  0  0
  -12.3547  -36.6252  -11.6927 C   0  0  0  0  0  0  0  0  0  0  0  0
  -13.5204  -35.8525  -11.1093 C   0  0  0  0  0  0  0  0  0  0  0  0
  -12.7782  -37.9913  -12.0983 C   0  0  0  0  0  0  0  0  0  0  0  0
  -13.4336  -38.7908  -11.1893 C   0  0  0  0  0  0  0  0  0  0  0  0
  -13.8228  -40.0462  -11.5640 C   0  0  0  0  0  0  0  0  0  0  0  0
  -14.5185  -40.8883  -10.5877 C   0  0  0  0  0  0  0  0  0  0  0  0
  -14.7417  -40.2239   -9.3447 N   0  0  0  0  0  0  0  0  0  0  0  0
  -15.4543  -38.9741   -9.4358 C   0  0  0  0  0  0  0  0  0  0  0  0
  -16.8124  -39.0626   -8.7825 C   0  0  1  0  0  0  0  0  0  0  0  0
  -16.6661  -38.7017   -7.4560 O   0  0  0  0  0  0  0  0  0  0  0  0
  -17.8657  -38.3234   -9.5443 C   0  0  2  0  0  0  0  0  0  0  0  0
  -18.6103  -37.2859   -8.7489 C   0  0  0  0  0  0  0  0  0  0  0  0
  -20.0004  -37.7555   -8.3908 C   0  0  0  0  0  0  0  0  0  0  0  0
  -20.3946  -38.6604   -7.4495 C   0  0  0  0  0  0  0  0  0  0  0  0
  -21.7631  -38.9042   -7.3222 C   0  0  0  0  0  0  0  0  0  0  0  0
  -22.6811  -38.2180   -8.1578 C   0  0  0  0  0  0  0  0  0  0  0  0
  -22.3049  -37.3081   -9.1063 C   0  0  0  0  0  0  0  0  0  0  0  0
  -20.9551  -37.0949   -9.2024 C   0  0  0  0  0  0  0  0  0  0  0  0
  -22.4391  -39.7446   -6.4838 O   0  0  0  0  0  0  0  0  0  0  0  0
  -22.4420  -40.4073   -5.3148 C   0  0  0  0  0  0  0  0  0  0  0  0
  -21.9378  -41.8394   -5.3731 C   0  0  0  0  0  0  0  0  0  0  0  0
  -22.7027  -42.6766   -6.3460 C   0  0  0  0  0  0  0  0  0  0  0  0
  -21.9586  -43.8954   -6.8389 C   0  0  0  0  0  0  0  0  0  0  0  0
  -20.5201  -43.7159   -6.8474 N   0  0  0  0  0  0  0  0  0  0  0  0
  -19.8796  -44.2475   -5.6537 C   0  0  0  0  0  0  0  0  0  0  0  0
  -20.7021  -44.6630   -4.5097 C   0  0  0  0  0  0  0  0  0  0  0  0
  -18.6540  -44.3496   -5.5983 O   0  0  0  0  0  0  0  0  0  0  0  0
  -19.7021  -43.1232   -7.8832 C   0  0  0  0  0  0  0  0  0  0  0  0
  -19.8356  -41.9747   -8.6262 C   0  0  0  0  0  0  0  0  0  0  0  0
  -18.8408  -41.7054   -9.5437 C   0  0  0  0  0  0  0  0  0  0  0  0
  -17.7591  -42.6131   -9.6674 C   0  0  0  0  0  0  0  0  0  0  0  0
  -17.6340  -43.7585   -8.9201 C   0  0  0  0  0  0  0  0  0  0  0  0
  -16.4710  -44.6771   -9.0929 C   0  0  0  0  0  0  0  0  0  0  0  0
  -18.6080  -43.9657   -8.0605 N   0  0  0  0  0  0  0  0  0  0  0  0
  -18.6554  -40.5868  -10.4834 C   0  0  0  0  0  0  0  0  0  0  0  0
  -18.3686  -40.9024  -11.7425 O   0  0  0  0  0  0  0  0  0  0  0  0
  -18.7171  -39.1905  -10.3270 N   0  0  0  0  0  0  0  0  0  0  0  0
  -13.5679  -40.4865  -12.7989 N   0  0  0  0  0  0  0  0  0  0  0  0
  -12.9243  -39.7225  -13.7158 C   0  0  0  0  0  0  0  0  0  0  0  0
  -12.5181  -38.4519  -13.3710 C   0  0  0  0  0  0  0  0  0  0  0  0
  1  2  1  0
  2  3  1  0
  2  4  1  0
  4  5  2  0
  5  6  1  0
  6  7  1  0
  7  8  1  0
  8  9  1  0
  9 10  1  0
 10 11  1  1
 10 12  1  0
 12 13  1  1
 13 14  1  0
 14 15  2  0
 15 16  1  0
 16 17  2  0
 17 18  1  0
 18 19  2  0
 16 20  1  0
 20 21  1  0
 21 22  1  0
 22 23  1  0
 23 24  1  0
 24 25  1  0
 25 26  1  0
 26 27  1  0
 26 28  2  0
 25 29  1  0
 29 30  2  0
 30 31  1  0
 31 32  2  0
 32 33  1  0
 33 34  1  0
 33 35  2  0
 31 36  1  0
 36 37  2  0
 36 38  1  0
  6 39  2  0
 39 40  1  0
 40 41  2  0
 19 14  1  0
 35 29  1  0
 38 12  1  0
 41  4  1  0
M  END
$$$$
