
     RDKit          3D

 41 44  0  0  0  0  0  0  0  0999 V2000
  -15.2379  -42.0743  -13.8495 C   0  0  0  0  0  0  0  0  0  0  0  0
  -13.8899  -41.4105  -13.8631 C   0  0  0  0  0  0  0  0  0  0  0  0
  -12.7693  -42.3940  -13.5922 C   0  0  0  0  0  0  0  0  0  0  0  0
  -13.8858  -40.3165  -12.8565 C   0  0  0  0  0  0  0  0  0  0  0  0
  -13.6295  -40.6161  -11.5376 C   0  0  0  0  0  0  0  0  0  0  0  0
  -13.6255  -39.6091  -10.6135 C   0  0  0  0  0  0  0  0  0  0  0  0
  -13.3526  -39.9402   -9.2127 C   0  0  0  0  0  0  0  0  0  0  0  0
  -14.3458  -39.4342   -8.3218 N   0  0  0  0  0  0  0  0  0  0  0  0
  -14.8044  -40.3651   -7.3211 C   0  0  0  0  0  0  0  0  0  0  0  0
  -16.2689  -40.1680   -7.0120 C   0  0  1  0  0  0  0  0  0  0  0  0
  -16.3874  -39.9560   -5.6510 O   0  0  0  0  0  0  0  0  0  0  0  0
  -16.9073  -39.1375   -7.8878 C   0  0  2  0  0  0  0  0  0  0  0  0
  -17.6658  -38.0658   -7.1532 C   0  0  0  0  0  0  0  0  0  0  0  0
  -19.1582  -38.2674   -7.2664 C   0  0  0  0  0  0  0  0  0  0  0  0
  -19.9617  -39.1715   -6.6360 C   0  0  0  0  0  0  0  0  0  0  0  0
  -21.3271  -39.1317   -6.9233 C   0  0  0  0  0  0  0  0  0  0  0  0
  -21.8255  -38.1729   -7.8420 C   0  0  0  0  0  0  0  0  0  0  0  0
  -21.0361  -37.2593   -8.4832 C   0  0  0  0  0  0  0  0  0  0  0  0
  -19.7026  -37.3285   -8.1766 C   0  0  0  0  0  0  0  0  0  0  0  0
  -22.3538  -39.9013   -6.4545 O   0  0  0  0  0  0  0  0  0  0  0  0
  -22.8156  -40.6804   -5.4617 C   0  0  0  0  0  0  0  0  0  0  0  0
  -22.5686  -42.1701   -5.6301 C   0  0  0  0  0  0  0  0  0  0  0  0
  -23.1421  -42.7055   -6.9016 C   0  0  0  0  0  0  0  0  0  0  0  0
  -22.5045  -43.9885   -7.3809 C   0  0  0  0  0  0  0  0  0  0  0  0
  -21.1195  -44.1195   -6.9734 N   0  0  0  0  0  0  0  0  0  0  0  0
  -20.9615  -44.9112   -5.7627 C   0  0  0  0  0  0  0  0  0  0  0  0
  -22.1469  -45.3003   -4.9873 C   0  0  0  0  0  0  0  0  0  0  0  0
  -19.8411  -45.2549   -5.3858 O   0  0  0  0  0  0  0  0  0  0  0  0
  -19.9431  -43.5973   -7.6342 C   0  0  0  0  0  0  0  0  0  0  0  0
  -19.6529  -42.3678   -8.1755 C   0  0  0  0  0  0  0  0  0  0  0  0
  -18.4003  -42.2108   -8.7329 C   0  0  0  0  0  0  0  0  0  0  0  0
  -17.5018  -43.3071   -8.7181 C   0  0  0  0  0  0  0  0  0  0  0  0
  -17.8006  -44.5323   -8.1745 C   0  0  0  0  0  0  0  0  0  0  0  0
  -16.8130  -45.6507   -8.1864 C   0  0  0  0  0  0  0  0  0  0  0  0
  -19.0059  -44.6266   -7.6557 N   0  0  0  0  0  0  0  0  0  0  0  0
  -17.7572  -41.0552   -9.3806 C   0  0  0  0  0  0  0  0  0  0  0  0
  -17.1687  -41.2750  -10.5521 O   0  0  0  0  0  0  0  0  0  0  0  0
  -17.6236  -39.7059   -9.0073 N   0  0  0  0  0  0  0  0  0  0  0  0
  -13.8678  -38.3513  -10.9916 N   0  0  0  0  0  0  0  0  0  0  0  0
  -14.1236  -38.0254  -12.2828 C   0  0  0  0  0  0  0  0  0  0  0  0
  -14.1353  -39.0164  -13.2400 C   0  0  0  0  0  0  0  0  0  0  0  0
  1  2  1  0
  2  3  1  0
  2  4  1  0
  4  5  2  0
  5  6  1  0
  6  7  1  0
  7  8  1  0
  8  9  1  0
  9 10  1  0
 10 11  1  1
 10 12  1  0
 12 13  1  1
 13 14  1  0
 14 15  2  0
 15 16  1  0
 16 17  2  0
 17 18  1  0
 18 19  2  0
 16 20  1  0
 20 21  1  0
 21 22  1  0
 22 23  1  0
 23 24  1  0
 24 25  1  0
 25 26  1  0
 26 27  1  0
 26 28  2  0
 25 29  1  0
 29 30  2  0
 30 31  1  0
 31 32  2  0
 32 33  1  0
 33 34  1  0
 33 35  2  0
 31 36  1  0
 36 37  2  0
 36 38  1  0
  6 39  2  0
 39 40  1  0
 40 41  2  0
 19 14  1  0
 35 29  1  0
 38 12  1  0
 41  4  1  0
M  END
$$$$
