
     RDKit          3D

 41 44  0  0  0  0  0  0  0  0999 V2000
  -11.8084  -36.6198  -11.4340 C   0  0  0  0  0  0  0  0  0  0  0  0
  -13.1030  -35.8594  -11.3754 C   0  0  0  0  0  0  0  0  0  0  0  0
  -13.1399  -34.8888  -10.2122 C   0  0  0  0  0  0  0  0  0  0  0  0
  -14.2244  -36.8314  -11.2865 C   0  0  0  0  0  0  0  0  0  0  0  0
  -13.9550  -38.1427  -10.9660 C   0  0  0  0  0  0  0  0  0  0  0  0
  -14.9871  -39.0349  -10.8841 C   0  0  0  0  0  0  0  0  0  0  0  0
  -14.6880  -40.4280  -10.5433 C   0  0  0  0  0  0  0  0  0  0  0  0
  -14.6770  -40.6624   -9.1358 N   0  0  0  0  0  0  0  0  0  0  0  0
  -15.1648  -39.5726   -8.3281 C   0  0  0  0  0  0  0  0  0  0  0  0
  -16.6415  -39.7108   -8.0460 C   0  0  1  0  0  0  0  0  0  0  0  0
  -16.8471  -39.3989   -6.7150 O   0  0  0  0  0  0  0  0  0  0  0  0
  -17.4863  -38.9617   -9.0267 C   0  0  2  0  0  0  0  0  0  0  0  0
  -18.2424  -37.7964   -8.4490 C   0  0  0  0  0  0  0  0  0  0  0  0
  -19.7101  -38.1139   -8.2880 C   0  0  0  0  0  0  0  0  0  0  0  0
  -20.3323  -38.8910   -7.3556 C   0  0  0  0  0  0  0  0  0  0  0  0
  -21.7209  -39.0080   -7.4359 C   0  0  0  0  0  0  0  0  0  0  0  0
  -22.4263  -38.3296   -8.4626 C   0  0  0  0  0  0  0  0  0  0  0  0
  -21.8203  -37.5468   -9.4055 C   0  0  0  0  0  0  0  0  0  0  0  0
  -20.4578  -37.4558   -9.2952 C   0  0  0  0  0  0  0  0  0  0  0  0
  -22.5977  -39.7074   -6.6560 O   0  0  0  0  0  0  0  0  0  0  0  0
  -22.8474  -40.2551   -5.4546 C   0  0  0  0  0  0  0  0  0  0  0  0
  -22.4810  -41.7231   -5.3157 C   0  0  0  0  0  0  0  0  0  0  0  0
  -23.1615  -42.5818   -6.3316 C   0  0  0  0  0  0  0  0  0  0  0  0
  -22.4707  -43.8986   -6.5975 C   0  0  0  0  0  0  0  0  0  0  0  0
  -21.0381  -43.8401   -6.3838 N   0  0  0  0  0  0  0  0  0  0  0  0
  -20.6465  -44.3086   -5.0628 C   0  0  0  0  0  0  0  0  0  0  0  0
  -21.6780  -44.7141   -4.0987 C   0  0  0  0  0  0  0  0  0  0  0  0
  -19.4572  -44.3658   -4.7502 O   0  0  0  0  0  0  0  0  0  0  0  0
  -20.0148  -43.4167   -7.3148 C   0  0  0  0  0  0  0  0  0  0  0  0
  -19.9189  -42.3357   -8.1582 C   0  0  0  0  0  0  0  0  0  0  0  0
  -18.7715  -42.2367   -8.9183 C   0  0  0  0  0  0  0  0  0  0  0  0
  -17.7765  -43.2382   -8.7904 C   0  0  0  0  0  0  0  0  0  0  0  0
  -17.8810  -44.3149   -7.9444 C   0  0  0  0  0  0  0  0  0  0  0  0
  -16.7995  -45.3386   -7.8505 C   0  0  0  0  0  0  0  0  0  0  0  0
  -18.9930  -44.3595   -7.2427 N   0  0  0  0  0  0  0  0  0  0  0  0
  -18.3342  -41.2303   -9.9004 C   0  0  0  0  0  0  0  0  0  0  0  0
  -17.8858  -41.6851  -11.0663 O   0  0  0  0  0  0  0  0  0  0  0  0
  -18.2845  -39.8251   -9.8674 N   0  0  0  0  0  0  0  0  0  0  0  0
  -16.2401  -38.6333  -11.1131 N   0  0  0  0  0  0  0  0  0  0  0  0
  -16.5366  -37.3488  -11.4308 C   0  0  0  0  0  0  0  0  0  0  0  0
  -15.5197  -36.4235  -11.5217 C   0  0  0  0  0  0  0  0  0  0  0  0
  1  2  1  0
  2  3  1  0
  2  4  1  0
  4  5  2  0
  5  6  1  0
  6  7  1  0
  7  8  1  0
  8  9  1  0
  9 10  1  0
 10 11  1  1
 10 12  1  0
 12 13  1  1
 13 14  1  0
 14 15  2  0
 15 16  1  0
 16 17  2  0
 17 18  1  0
 18 19  2  0
 16 20  1  0
 20 21  1  0
 21 22  1  0
 22 23  1  0
 23 24  1  0
 24 25  1  0
 25 26  1  0
 26 27  1  0
 26 28  2  0
 25 29  1  0
 29 30  2  0
 30 31  1  0
 31 32  2  0
 32 33  1  0
 33 34  1  0
 33 35  2  0
 31 36  1  0
 36 37  2  0
 36 38  1  0
  6 39  2  0
 39 40  1  0
 40 41  2  0
 19 14  1  0
 35 29  1  0
 38 12  1  0
 41  4  1  0
M  END
$$$$
