
     RDKit          3D

 41 44  0  0  0  0  0  0  0  0999 V2000
  -13.1085  -36.1070  -10.3525 C   0  0  0  0  0  0  0  0  0  0  0  0
  -13.1450  -36.2324  -11.8493 C   0  0  0  0  0  0  0  0  0  0  0  0
  -14.2274  -35.3693  -12.4658 C   0  0  0  0  0  0  0  0  0  0  0  0
  -13.3449  -37.6621  -12.2044 C   0  0  0  0  0  0  0  0  0  0  0  0
  -13.4598  -38.5957  -11.1993 C   0  0  0  0  0  0  0  0  0  0  0  0
  -13.6442  -39.9095  -11.5273 C   0  0  0  0  0  0  0  0  0  0  0  0
  -13.7639  -40.8942  -10.4492 C   0  0  0  0  0  0  0  0  0  0  0  0
  -15.0241  -40.8330   -9.7825 N   0  0  0  0  0  0  0  0  0  0  0  0
  -15.1499  -39.7834   -8.8024 C   0  0  0  0  0  0  0  0  0  0  0  0
  -16.5425  -39.7327   -8.2216 C   0  0  1  0  0  0  0  0  0  0  0  0
  -16.4293  -39.4013   -6.8842 O   0  0  0  0  0  0  0  0  0  0  0  0
  -17.4697  -38.8787   -9.0262 C   0  0  2  0  0  0  0  0  0  0  0  0
  -18.1002  -37.7423   -8.2681 C   0  0  0  0  0  0  0  0  0  0  0  0
  -19.5488  -38.0260   -7.9491 C   0  0  0  0  0  0  0  0  0  0  0  0
  -20.0832  -38.8581   -7.0096 C   0  0  0  0  0  0  0  0  0  0  0  0
  -21.4748  -38.9245   -6.9234 C   0  0  0  0  0  0  0  0  0  0  0  0
  -22.2724  -38.1415   -7.7966 C   0  0  0  0  0  0  0  0  0  0  0  0
  -21.7551  -37.3024   -8.7438 C   0  0  0  0  0  0  0  0  0  0  0  0
  -20.3868  -37.2634   -8.7992 C   0  0  0  0  0  0  0  0  0  0  0  0
  -22.2772  -39.6586   -6.0966 O   0  0  0  0  0  0  0  0  0  0  0  0
  -22.3996  -40.2961   -4.9200 C   0  0  0  0  0  0  0  0  0  0  0  0
  -22.0801  -41.7813   -4.9442 C   0  0  0  0  0  0  0  0  0  0  0  0
  -22.9153  -42.5309   -5.9306 C   0  0  0  0  0  0  0  0  0  0  0  0
  -22.3175  -43.8421   -6.3840 C   0  0  0  0  0  0  0  0  0  0  0  0
  -20.8683  -43.8464   -6.3484 N   0  0  0  0  0  0  0  0  0  0  0  0
  -20.3370  -44.4350   -5.1282 C   0  0  0  0  0  0  0  0  0  0  0  0
  -21.1965  -44.5539   -3.9430 C   0  0  0  0  0  0  0  0  0  0  0  0
  -19.1725  -44.8322   -5.0848 O   0  0  0  0  0  0  0  0  0  0  0  0
  -19.9506  -43.3792   -7.3648 C   0  0  0  0  0  0  0  0  0  0  0  0
  -19.9145  -42.2354   -8.1260 C   0  0  0  0  0  0  0  0  0  0  0  0
  -18.8662  -42.1095   -9.0144 C   0  0  0  0  0  0  0  0  0  0  0  0
  -17.9054  -43.1488   -9.0919 C   0  0  0  0  0  0  0  0  0  0  0  0
  -17.9495  -44.2883   -8.3267 C   0  0  0  0  0  0  0  0  0  0  0  0
  -16.9080  -45.3495   -8.4504 C   0  0  0  0  0  0  0  0  0  0  0  0
  -18.9676  -44.3562   -7.4962 N   0  0  0  0  0  0  0  0  0  0  0  0
  -18.5118  -41.0391   -9.9617 C   0  0  0  0  0  0  0  0  0  0  0  0
  -18.2294  -41.4093  -11.2068 O   0  0  0  0  0  0  0  0  0  0  0  0
  -18.4003  -39.6438   -9.8249 N   0  0  0  0  0  0  0  0  0  0  0  0
  -13.7117  -40.2773  -12.8095 N   0  0  0  0  0  0  0  0  0  0  0  0
  -13.6019  -39.3810  -13.8211 C   0  0  0  0  0  0  0  0  0  0  0  0
  -13.4153  -38.0483  -13.5255 C   0  0  0  0  0  0  0  0  0  0  0  0
  1  2  1  0
  2  3  1  0
  2  4  1  0
  4  5  2  0
  5  6  1  0
  6  7  1  0
  7  8  1  0
  8  9  1  0
  9 10  1  0
 10 11  1  1
 10 12  1  0
 12 13  1  1
 13 14  1  0
 14 15  2  0
 15 16  1  0
 16 17  2  0
 17 18  1  0
 18 19  2  0
 16 20  1  0
 20 21  1  0
 21 22  1  0
 22 23  1  0
 23 24  1  0
 24 25  1  0
 25 26  1  0
 26 27  1  0
 26 28  2  0
 25 29  1  0
 29 30  2  0
 30 31  1  0
 31 32  2  0
 32 33  1  0
 33 34  1  0
 33 35  2  0
 31 36  1  0
 36 37  2  0
 36 38  1  0
  6 39  2  0
 39 40  1  0
 40 41  2  0
 19 14  1  0
 35 29  1  0
 38 12  1  0
 41  4  1  0
M  END
$$$$
