
     RDKit          3D

 41 44  0  0  0  0  0  0  0  0999 V2000
  -12.8194  -36.1321  -13.9565 C   0  0  0  0  0  0  0  0  0  0  0  0
  -13.5771  -36.0788  -12.6600 C   0  0  0  0  0  0  0  0  0  0  0  0
  -12.6861  -35.6931  -11.4965 C   0  0  0  0  0  0  0  0  0  0  0  0
  -14.2111  -37.4022  -12.4223 C   0  0  0  0  0  0  0  0  0  0  0  0
  -13.7722  -38.1807  -11.3753 C   0  0  0  0  0  0  0  0  0  0  0  0
  -14.3565  -39.3969  -11.1576 C   0  0  0  0  0  0  0  0  0  0  0  0
  -13.8803  -40.2170  -10.0410 C   0  0  0  0  0  0  0  0  0  0  0  0
  -14.2250  -39.6714   -8.7683 N   0  0  0  0  0  0  0  0  0  0  0  0
  -14.7927  -40.6088   -7.8318 C   0  0  0  0  0  0  0  0  0  0  0  0
  -16.1944  -40.2134   -7.4340 C   0  0  1  0  0  0  0  0  0  0  0  0
  -16.1548  -39.7873   -6.1194 O   0  0  0  0  0  0  0  0  0  0  0  0
  -16.8214  -39.2652   -8.4056 C   0  0  2  0  0  0  0  0  0  0  0  0
  -17.3395  -37.9895   -7.7991 C   0  0  0  0  0  0  0  0  0  0  0  0
  -18.8466  -37.9955   -7.7012 C   0  0  0  0  0  0  0  0  0  0  0  0
  -19.6564  -38.6590   -6.8268 C   0  0  0  0  0  0  0  0  0  0  0  0
  -21.0341  -38.4764   -6.9579 C   0  0  0  0  0  0  0  0  0  0  0  0
  -21.5378  -37.6248   -7.9742 C   0  0  0  0  0  0  0  0  0  0  0  0
  -20.7422  -36.9520   -8.8592 C   0  0  0  0  0  0  0  0  0  0  0  0
  -19.3967  -37.1555   -8.7003 C   0  0  0  0  0  0  0  0  0  0  0  0
  -22.0699  -39.0042   -6.2405 O   0  0  0  0  0  0  0  0  0  0  0  0
  -22.4789  -39.5329   -5.0748 C   0  0  0  0  0  0  0  0  0  0  0  0
  -22.4350  -41.0495   -4.9927 C   0  0  0  0  0  0  0  0  0  0  0  0
  -23.2376  -41.7047   -6.0694 C   0  0  0  0  0  0  0  0  0  0  0  0
  -22.8280  -43.1265   -6.3738 C   0  0  0  0  0  0  0  0  0  0  0  0
  -21.4252  -43.3807   -6.1109 N   0  0  0  0  0  0  0  0  0  0  0  0
  -21.1962  -43.9723   -4.8012 C   0  0  0  0  0  0  0  0  0  0  0  0
  -22.2729  -43.9677   -3.8019 C   0  0  0  0  0  0  0  0  0  0  0  0
  -20.1062  -44.4748   -4.5274 O   0  0  0  0  0  0  0  0  0  0  0  0
  -20.2979  -43.1475   -6.9872 C   0  0  0  0  0  0  0  0  0  0  0  0
  -19.9421  -42.0794   -7.7757 C   0  0  0  0  0  0  0  0  0  0  0  0
  -18.7687  -42.1959   -8.4924 C   0  0  0  0  0  0  0  0  0  0  0  0
  -18.0124  -43.3894   -8.3790 C   0  0  0  0  0  0  0  0  0  0  0  0
  -18.3758  -44.4516   -7.5882 C   0  0  0  0  0  0  0  0  0  0  0  0
  -17.5382  -45.6837   -7.5069 C   0  0  0  0  0  0  0  0  0  0  0  0
  -19.5007  -44.2872   -6.9260 N   0  0  0  0  0  0  0  0  0  0  0  0
  -18.0894  -41.2674   -9.4116 C   0  0  0  0  0  0  0  0  0  0  0  0
  -17.6981  -41.7612  -10.5822 O   0  0  0  0  0  0  0  0  0  0  0  0
  -17.7472  -39.9069   -9.3114 N   0  0  0  0  0  0  0  0  0  0  0  0
  -15.3414  -39.8196  -11.9546 N   0  0  0  0  0  0  0  0  0  0  0  0
  -15.7949  -39.0755  -12.9935 C   0  0  0  0  0  0  0  0  0  0  0  0
  -15.2278  -37.8445  -13.2410 C   0  0  0  0  0  0  0  0  0  0  0  0
  1  2  1  0
  2  3  1  0
  2  4  1  0
  4  5  2  0
  5  6  1  0
  6  7  1  0
  7  8  1  0
  8  9  1  0
  9 10  1  0
 10 11  1  1
 10 12  1  0
 12 13  1  1
 13 14  1  0
 14 15  2  0
 15 16  1  0
 16 17  2  0
 17 18  1  0
 18 19  2  0
 16 20  1  0
 20 21  1  0
 21 22  1  0
 22 23  1  0
 23 24  1  0
 24 25  1  0
 25 26  1  0
 26 27  1  0
 26 28  2  0
 25 29  1  0
 29 30  2  0
 30 31  1  0
 31 32  2  0
 32 33  1  0
 33 34  1  0
 33 35  2  0
 31 36  1  0
 36 37  2  0
 36 38  1  0
  6 39  2  0
 39 40  1  0
 40 41  2  0
 19 14  1  0
 35 29  1  0
 38 12  1  0
 41  4  1  0
M  END
$$$$
