
     RDKit          3D

 41 44  0  0  0  0  0  0  0  0999 V2000
  -15.5059  -35.8733  -11.7258 C   0  0  0  0  0  0  0  0  0  0  0  0
  -14.1282  -35.5790  -12.2483 C   0  0  0  0  0  0  0  0  0  0  0  0
  -14.0726  -35.6248  -13.7620 C   0  0  0  0  0  0  0  0  0  0  0  0
  -13.1743  -36.5533  -11.6561 C   0  0  0  0  0  0  0  0  0  0  0  0
  -13.6458  -37.7612  -11.1938 C   0  0  0  0  0  0  0  0  0  0  0  0
  -12.7674  -38.6561  -10.6503 C   0  0  0  0  0  0  0  0  0  0  0  0
  -13.2810  -39.9378  -10.1606 C   0  0  0  0  0  0  0  0  0  0  0  0
  -14.6048  -39.8390   -9.6372 N   0  0  0  0  0  0  0  0  0  0  0  0
  -14.6965  -39.8194   -8.1987 C   0  0  0  0  0  0  0  0  0  0  0  0
  -16.1329  -39.7731   -7.7364 C   0  0  1  0  0  0  0  0  0  0  0  0
  -16.1299  -39.5254   -6.3763 O   0  0  0  0  0  0  0  0  0  0  0  0
  -16.9729  -38.8521   -8.5625 C   0  0  2  0  0  0  0  0  0  0  0  0
  -17.6903  -37.7826   -7.7848 C   0  0  0  0  0  0  0  0  0  0  0  0
  -19.1631  -38.0892   -7.6509 C   0  0  0  0  0  0  0  0  0  0  0  0
  -19.7908  -38.9966   -6.8490 C   0  0  0  0  0  0  0  0  0  0  0  0
  -21.1830  -39.0670   -6.9211 C   0  0  0  0  0  0  0  0  0  0  0  0
  -21.8861  -38.2112   -7.8071 C   0  0  0  0  0  0  0  0  0  0  0  0
  -21.2746  -37.2962   -8.6181 C   0  0  0  0  0  0  0  0  0  0  0  0
  -19.9088  -37.2556   -8.5201 C   0  0  0  0  0  0  0  0  0  0  0  0
  -22.0655  -39.8666   -6.2518 O   0  0  0  0  0  0  0  0  0  0  0  0
  -22.3109  -40.6012   -5.1536 C   0  0  0  0  0  0  0  0  0  0  0  0
  -21.9801  -42.0797   -5.2678 C   0  0  0  0  0  0  0  0  0  0  0  0
  -22.6975  -42.7414   -6.3992 C   0  0  0  0  0  0  0  0  0  0  0  0
  -22.0445  -44.0108   -6.8935 C   0  0  0  0  0  0  0  0  0  0  0  0
  -20.6078  -44.0212   -6.7004 N   0  0  0  0  0  0  0  0  0  0  0  0
  -20.2085  -44.7120   -5.4834 C   0  0  0  0  0  0  0  0  0  0  0  0
  -21.2330  -45.3025   -4.6118 C   0  0  0  0  0  0  0  0  0  0  0  0
  -19.0185  -44.8030   -5.1814 O   0  0  0  0  0  0  0  0  0  0  0  0
  -19.5882  -43.4717   -7.5673 C   0  0  0  0  0  0  0  0  0  0  0  0
  -19.4775  -42.2678   -8.2210 C   0  0  0  0  0  0  0  0  0  0  0  0
  -18.3394  -42.0694   -8.9758 C   0  0  0  0  0  0  0  0  0  0  0  0
  -17.3685  -43.1005   -9.0351 C   0  0  0  0  0  0  0  0  0  0  0  0
  -17.4877  -44.3006   -8.3781 C   0  0  0  0  0  0  0  0  0  0  0  0
  -16.4314  -45.3498   -8.4764 C   0  0  0  0  0  0  0  0  0  0  0  0
  -18.5898  -44.4362   -7.6726 N   0  0  0  0  0  0  0  0  0  0  0  0
  -17.8915  -40.9235   -9.7850 C   0  0  0  0  0  0  0  0  0  0  0  0
  -17.4724  -41.1876  -11.0186 O   0  0  0  0  0  0  0  0  0  0  0  0
  -17.8055  -39.5450   -9.5197 N   0  0  0  0  0  0  0  0  0  0  0  0
  -11.4682  -38.3569  -10.5715 N   0  0  0  0  0  0  0  0  0  0  0  0
  -10.9742  -37.1757  -11.0181 C   0  0  0  0  0  0  0  0  0  0  0  0
  -11.8323  -36.2507  -11.5717 C   0  0  0  0  0  0  0  0  0  0  0  0
  1  2  1  0
  2  3  1  0
  2  4  1  0
  4  5  2  0
  5  6  1  0
  6  7  1  0
  7  8  1  0
  8  9  1  0
  9 10  1  0
 10 11  1  1
 10 12  1  0
 12 13  1  1
 13 14  1  0
 14 15  2  0
 15 16  1  0
 16 17  2  0
 17 18  1  0
 18 19  2  0
 16 20  1  0
 20 21  1  0
 21 22  1  0
 22 23  1  0
 23 24  1  0
 24 25  1  0
 25 26  1  0
 26 27  1  0
 26 28  2  0
 25 29  1  0
 29 30  2  0
 30 31  1  0
 31 32  2  0
 32 33  1  0
 33 34  1  0
 33 35  2  0
 31 36  1  0
 36 37  2  0
 36 38  1  0
  6 39  2  0
 39 40  1  0
 40 41  2  0
 19 14  1  0
 35 29  1  0
 38 12  1  0
 41  4  1  0
M  END
$$$$
