
     RDKit          3D

 41 44  0  0  0  0  0  0  0  0999 V2000
  -10.0833  -38.2535  -13.1360 C   0  0  0  0  0  0  0  0  0  0  0  0
  -11.1941  -38.9281  -12.3817 C   0  0  0  0  0  0  0  0  0  0  0  0
  -11.8592  -40.0154  -13.2014 C   0  0  0  0  0  0  0  0  0  0  0  0
  -12.1845  -37.8994  -11.9683 C   0  0  0  0  0  0  0  0  0  0  0  0
  -13.4436  -38.2957  -11.5776 C   0  0  0  0  0  0  0  0  0  0  0  0
  -14.3528  -37.3489  -11.1971 C   0  0  0  0  0  0  0  0  0  0  0  0
  -15.6899  -37.7825  -10.7844 C   0  0  0  0  0  0  0  0  0  0  0  0
  -15.7517  -39.1771  -10.4887 N   0  0  0  0  0  0  0  0  0  0  0  0
  -15.4523  -39.5291   -9.1232 C   0  0  0  0  0  0  0  0  0  0  0  0
  -16.7056  -39.6118   -8.2856 C   0  0  1  0  0  0  0  0  0  0  0  0
  -16.3395  -39.4487   -6.9625 O   0  0  0  0  0  0  0  0  0  0  0  0
  -17.7862  -38.7025   -8.7773 C   0  0  2  0  0  0  0  0  0  0  0  0
  -18.4362  -37.8602   -7.7136 C   0  0  0  0  0  0  0  0  0  0  0  0
  -19.8114  -38.3764   -7.3625 C   0  0  0  0  0  0  0  0  0  0  0  0
  -20.1662  -39.4645   -6.6204 C   0  0  0  0  0  0  0  0  0  0  0  0
  -21.5292  -39.7088   -6.4445 C   0  0  0  0  0  0  0  0  0  0  0  0
  -22.4821  -38.8366   -7.0304 C   0  0  0  0  0  0  0  0  0  0  0  0
  -22.1457  -37.7419   -7.7769 C   0  0  0  0  0  0  0  0  0  0  0  0
  -20.8000  -37.5341   -7.9279 C   0  0  0  0  0  0  0  0  0  0  0  0
  -22.1701  -40.7062   -5.7659 O   0  0  0  0  0  0  0  0  0  0  0  0
  -22.1102  -41.6162   -4.7789 C   0  0  0  0  0  0  0  0  0  0  0  0
  -21.6595  -43.0059   -5.1965 C   0  0  0  0  0  0  0  0  0  0  0  0
  -22.5204  -43.5888   -6.2696 C   0  0  0  0  0  0  0  0  0  0  0  0
  -21.8549  -44.6761   -7.0801 C   0  0  0  0  0  0  0  0  0  0  0  0
  -20.4156  -44.5224   -7.1606 N   0  0  0  0  0  0  0  0  0  0  0  0
  -19.7082  -45.3206   -6.1705 C   0  0  0  0  0  0  0  0  0  0  0  0
  -20.4489  -45.9135   -5.0491 C   0  0  0  0  0  0  0  0  0  0  0  0
  -18.4942  -45.4999   -6.2681 O   0  0  0  0  0  0  0  0  0  0  0  0
  -19.6557  -43.7238   -8.0976 C   0  0  0  0  0  0  0  0  0  0  0  0
  -19.8046  -42.4349   -8.5510 C   0  0  0  0  0  0  0  0  0  0  0  0
  -18.8706  -41.9808   -9.4596 C   0  0  0  0  0  0  0  0  0  0  0  0
  -17.8314  -42.8542   -9.8681 C   0  0  0  0  0  0  0  0  0  0  0  0
  -17.6906  -44.1409   -9.4092 C   0  0  0  0  0  0  0  0  0  0  0  0
  -16.5744  -45.0150   -9.8741 C   0  0  0  0  0  0  0  0  0  0  0  0
  -18.6060  -44.5216   -8.5445 N   0  0  0  0  0  0  0  0  0  0  0  0
  -18.7168  -40.6817  -10.1358 C   0  0  0  0  0  0  0  0  0  0  0  0
  -18.5327  -40.7087  -11.4520 O   0  0  0  0  0  0  0  0  0  0  0  0
  -18.7205  -39.3562   -9.6657 N   0  0  0  0  0  0  0  0  0  0  0  0
  -14.0178  -36.0560  -11.2062 N   0  0  0  0  0  0  0  0  0  0  0  0
  -12.7860  -35.6352  -11.5860 C   0  0  0  0  0  0  0  0  0  0  0  0
  -11.8454  -36.5636  -11.9755 C   0  0  0  0  0  0  0  0  0  0  0  0
  1  2  1  0
  2  3  1  0
  2  4  1  0
  4  5  2  0
  5  6  1  0
  6  7  1  0
  7  8  1  0
  8  9  1  0
  9 10  1  0
 10 11  1  1
 10 12  1  0
 12 13  1  1
 13 14  1  0
 14 15  2  0
 15 16  1  0
 16 17  2  0
 17 18  1  0
 18 19  2  0
 16 20  1  0
 20 21  1  0
 21 22  1  0
 22 23  1  0
 23 24  1  0
 24 25  1  0
 25 26  1  0
 26 27  1  0
 26 28  2  0
 25 29  1  0
 29 30  2  0
 30 31  1  0
 31 32  2  0
 32 33  1  0
 33 34  1  0
 33 35  2  0
 31 36  1  0
 36 37  2  0
 36 38  1  0
  6 39  2  0
 39 40  1  0
 40 41  2  0
 19 14  1  0
 35 29  1  0
 38 12  1  0
 41  4  1  0
M  END
$$$$
