
     RDKit          3D

 41 44  0  0  0  0  0  0  0  0999 V2000
  -12.0204  -39.3915  -13.0659 C   0  0  0  0  0  0  0  0  0  0  0  0
  -12.5761  -38.0753  -13.5313 C   0  0  0  0  0  0  0  0  0  0  0  0
  -11.4824  -37.1090  -13.9393 C   0  0  0  0  0  0  0  0  0  0  0  0
  -13.4111  -37.4981  -12.4451 C   0  0  0  0  0  0  0  0  0  0  0  0
  -14.2149  -38.3304  -11.6994 C   0  0  0  0  0  0  0  0  0  0  0  0
  -14.9814  -37.7983  -10.7007 C   0  0  0  0  0  0  0  0  0  0  0  0
  -15.8338  -38.6937   -9.9145 C   0  0  0  0  0  0  0  0  0  0  0  0
  -15.1878  -39.9223   -9.5838 N   0  0  0  0  0  0  0  0  0  0  0  0
  -15.3091  -40.3282   -8.2059 C   0  0  0  0  0  0  0  0  0  0  0  0
  -16.5574  -39.7647   -7.5709 C   0  0  1  0  0  0  0  0  0  0  0  0
  -16.1957  -39.1939   -6.3648 O   0  0  0  0  0  0  0  0  0  0  0  0
  -17.3277  -38.8832   -8.5016 C   0  0  2  0  0  0  0  0  0  0  0  0
  -18.0485  -37.7410   -7.8388 C   0  0  0  0  0  0  0  0  0  0  0  0
  -19.5348  -37.9968   -7.7581 C   0  0  0  0  0  0  0  0  0  0  0  0
  -20.2283  -38.8264   -6.9266 C   0  0  0  0  0  0  0  0  0  0  0  0
  -21.6169  -38.8638   -7.0639 C   0  0  0  0  0  0  0  0  0  0  0  0
  -22.2495  -38.0554   -8.0426 C   0  0  0  0  0  0  0  0  0  0  0  0
  -21.5715  -37.2184   -8.8844 C   0  0  0  0  0  0  0  0  0  0  0  0
  -20.2114  -37.2082   -8.7207 C   0  0  0  0  0  0  0  0  0  0  0  0
  -22.5550  -39.5885   -6.3850 O   0  0  0  0  0  0  0  0  0  0  0  0
  -22.8759  -40.2348   -5.2514 C   0  0  0  0  0  0  0  0  0  0  0  0
  -22.5857  -41.7262   -5.2437 C   0  0  0  0  0  0  0  0  0  0  0  0
  -23.2676  -42.4481   -6.3602 C   0  0  0  0  0  0  0  0  0  0  0  0
  -22.6309  -43.7672   -6.7297 C   0  0  0  0  0  0  0  0  0  0  0  0
  -21.2063  -43.8029   -6.4640 N   0  0  0  0  0  0  0  0  0  0  0  0
  -20.8879  -44.4146   -5.1825 C   0  0  0  0  0  0  0  0  0  0  0  0
  -21.7871  -44.2169   -4.0379 C   0  0  0  0  0  0  0  0  0  0  0  0
  -19.8701  -45.0951   -5.0537 O   0  0  0  0  0  0  0  0  0  0  0  0
  -20.1293  -43.3456   -7.3151 C   0  0  0  0  0  0  0  0  0  0  0  0
  -19.9500  -42.1955   -8.0459 C   0  0  0  0  0  0  0  0  0  0  0  0
  -18.7712  -42.0834   -8.7544 C   0  0  0  0  0  0  0  0  0  0  0  0
  -17.8308  -43.1422   -8.6915 C   0  0  0  0  0  0  0  0  0  0  0  0
  -18.0187  -44.2879   -7.9580 C   0  0  0  0  0  0  0  0  0  0  0  0
  -16.9918  -45.3699   -7.9282 C   0  0  0  0  0  0  0  0  0  0  0  0
  -19.1573  -44.3421   -7.3011 N   0  0  0  0  0  0  0  0  0  0  0  0
  -18.2494  -41.0116   -9.6191 C   0  0  0  0  0  0  0  0  0  0  0  0
  -17.7795  -41.3756  -10.8081 O   0  0  0  0  0  0  0  0  0  0  0  0
  -18.1338  -39.6204   -9.4481 N   0  0  0  0  0  0  0  0  0  0  0  0
  -14.9466  -36.4859  -10.4558 N   0  0  0  0  0  0  0  0  0  0  0  0
  -14.1652  -35.6412  -11.1732 C   0  0  0  0  0  0  0  0  0  0  0  0
  -13.3799  -36.1446  -12.1873 C   0  0  0  0  0  0  0  0  0  0  0  0
  1  2  1  0
  2  3  1  0
  2  4  1  0
  4  5  2  0
  5  6  1  0
  6  7  1  0
  7  8  1  0
  8  9  1  0
  9 10  1  0
 10 11  1  1
 10 12  1  0
 12 13  1  1
 13 14  1  0
 14 15  2  0
 15 16  1  0
 16 17  2  0
 17 18  1  0
 18 19  2  0
 16 20  1  0
 20 21  1  0
 21 22  1  0
 22 23  1  0
 23 24  1  0
 24 25  1  0
 25 26  1  0
 26 27  1  0
 26 28  2  0
 25 29  1  0
 29 30  2  0
 30 31  1  0
 31 32  2  0
 32 33  1  0
 33 34  1  0
 33 35  2  0
 31 36  1  0
 36 37  2  0
 36 38  1  0
  6 39  2  0
 39 40  1  0
 40 41  2  0
 19 14  1  0
 35 29  1  0
 38 12  1  0
 41  4  1  0
M  END
$$$$
