
     RDKit          3D

 41 44  0  0  0  0  0  0  0  0999 V2000
  -12.7198  -38.4212  -13.9768 C   0  0  0  0  0  0  0  0  0  0  0  0
  -13.5690  -37.3592  -13.3375 C   0  0  0  0  0  0  0  0  0  0  0  0
  -13.2912  -35.9857  -13.9143 C   0  0  0  0  0  0  0  0  0  0  0  0
  -13.3280  -37.3734  -11.8706 C   0  0  0  0  0  0  0  0  0  0  0  0
  -13.1583  -38.5788  -11.2278 C   0  0  0  0  0  0  0  0  0  0  0  0
  -12.9362  -38.5901   -9.8793 C   0  0  0  0  0  0  0  0  0  0  0  0
  -12.7582  -39.8790   -9.2060 C   0  0  0  0  0  0  0  0  0  0  0  0
  -13.9934  -40.4615   -8.7924 N   0  0  0  0  0  0  0  0  0  0  0  0
  -14.7863  -39.6516   -7.9015 C   0  0  0  0  0  0  0  0  0  0  0  0
  -16.2484  -40.0213   -7.9715 C   0  0  1  0  0  0  0  0  0  0  0  0
  -16.6833  -40.2654   -6.6821 O   0  0  0  0  0  0  0  0  0  0  0  0
  -17.0542  -39.0328   -8.7526 C   0  0  2  0  0  0  0  0  0  0  0  0
  -17.8289  -38.0491   -7.9186 C   0  0  0  0  0  0  0  0  0  0  0  0
  -19.3023  -38.3802   -7.8984 C   0  0  0  0  0  0  0  0  0  0  0  0
  -19.9607  -39.3658   -7.2234 C   0  0  0  0  0  0  0  0  0  0  0  0
  -21.3456  -39.4413   -7.3809 C   0  0  0  0  0  0  0  0  0  0  0  0
  -22.0105  -38.5108   -8.2199 C   0  0  0  0  0  0  0  0  0  0  0  0
  -21.3679  -37.5169   -8.9040 C   0  0  0  0  0  0  0  0  0  0  0  0
  -20.0103  -37.4738   -8.7252 C   0  0  0  0  0  0  0  0  0  0  0  0
  -22.2525  -40.3092   -6.8419 O   0  0  0  0  0  0  0  0  0  0  0  0
  -22.5483  -41.1477   -5.8343 C   0  0  0  0  0  0  0  0  0  0  0  0
  -22.1906  -42.6055   -6.0697 C   0  0  0  0  0  0  0  0  0  0  0  0
  -22.8343  -43.1620   -7.2979 C   0  0  0  0  0  0  0  0  0  0  0  0
  -22.1368  -44.3724   -7.8729 C   0  0  0  0  0  0  0  0  0  0  0  0
  -20.7131  -44.3885   -7.6003 N   0  0  0  0  0  0  0  0  0  0  0  0
  -20.3724  -45.1893   -6.4340 C   0  0  0  0  0  0  0  0  0  0  0  0
  -18.9994  -45.6836   -6.2660 C   0  0  0  0  0  0  0  0  0  0  0  0
  -21.2282  -45.4543   -5.5896 O   0  0  0  0  0  0  0  0  0  0  0  0
  -19.6547  -43.7495   -8.3518 C   0  0  0  0  0  0  0  0  0  0  0  0
  -19.5249  -42.4875   -8.8805 C   0  0  0  0  0  0  0  0  0  0  0  0
  -18.3496  -42.2077   -9.5471 C   0  0  0  0  0  0  0  0  0  0  0  0
  -17.3623  -43.2197   -9.6491 C   0  0  0  0  0  0  0  0  0  0  0  0
  -17.5008  -44.4782   -9.1171 C   0  0  0  0  0  0  0  0  0  0  0  0
  -16.4258  -45.5037   -9.2547 C   0  0  0  0  0  0  0  0  0  0  0  0
  -18.6384  -44.6906   -8.4914 N   0  0  0  0  0  0  0  0  0  0  0  0
  -17.8736  -40.9856  -10.2169 C   0  0  0  0  0  0  0  0  0  0  0  0
  -17.3828  -41.1265  -11.4442 O   0  0  0  0  0  0  0  0  0  0  0  0
  -17.8222  -39.6381   -9.8171 N   0  0  0  0  0  0  0  0  0  0  0  0
  -12.8853  -37.4421   -9.1987 N   0  0  0  0  0  0  0  0  0  0  0  0
  -13.0488  -36.2397   -9.8039 C   0  0  0  0  0  0  0  0  0  0  0  0
  -13.2744  -36.1923  -11.1623 C   0  0  0  0  0  0  0  0  0  0  0  0
  1  2  1  0
  2  3  1  0
  2  4  1  0
  4  5  2  0
  5  6  1  0
  6  7  1  0
  7  8  1  0
  8  9  1  0
  9 10  1  0
 10 11  1  1
 10 12  1  0
 12 13  1  1
 13 14  1  0
 14 15  2  0
 15 16  1  0
 16 17  2  0
 17 18  1  0
 18 19  2  0
 16 20  1  0
 20 21  1  0
 21 22  1  0
 22 23  1  0
 23 24  1  0
 24 25  1  0
 25 26  1  0
 26 27  1  0
 26 28  2  0
 25 29  1  0
 29 30  2  0
 30 31  1  0
 31 32  2  0
 32 33  1  0
 33 34  1  0
 33 35  2  0
 31 36  1  0
 36 37  2  0
 36 38  1  0
  6 39  2  0
 39 40  1  0
 40 41  2  0
 19 14  1  0
 35 29  1  0
 38 12  1  0
 41  4  1  0
M  END
$$$$
