
     RDKit          3D

 41 44  0  0  0  0  0  0  0  0999 V2000
  -21.1581  -41.7805   -3.0505 C   0  0  0  0  0  0  0  0  0  0  0  0
  -22.4595  -41.8183   -3.8006 C   0  0  0  0  0  0  0  0  0  0  0  0
  -23.0435  -43.2156   -3.8553 C   0  0  0  0  0  0  0  0  0  0  0  0
  -22.2371  -41.2861   -5.1707 C   0  0  0  0  0  0  0  0  0  0  0  0
  -21.8966  -39.9620   -5.3316 C   0  0  0  0  0  0  0  0  0  0  0  0
  -21.6918  -39.4744   -6.5919 C   0  0  0  0  0  0  0  0  0  0  0  0
  -21.3310  -38.0635   -6.7507 C   0  0  0  0  0  0  0  0  0  0  0  0
  -19.9871  -37.8836   -7.1955 N   0  0  0  0  0  0  0  0  0  0  0  0
  -19.1125  -39.0087   -6.9777 C   0  0  0  0  0  0  0  0  0  0  0  0
  -18.1597  -39.2006   -8.1329 C   0  0  1  0  0  0  0  0  0  0  0  0
  -18.7082  -38.5786   -9.2391 O   0  0  0  0  0  0  0  0  0  0  0  0
  -16.7581  -38.8045   -7.7935 C   0  0  2  0  0  0  0  0  0  0  0  0
  -16.0514  -38.0080   -8.8563 C   0  0  0  0  0  0  0  0  0  0  0  0
  -15.0338  -38.8471   -9.5920 C   0  0  0  0  0  0  0  0  0  0  0  0
  -15.2251  -39.8104  -10.5386 C   0  0  0  0  0  0  0  0  0  0  0  0
  -14.0914  -40.4310  -11.0658 C   0  0  0  0  0  0  0  0  0  0  0  0
  -12.8037  -40.0485  -10.6105 C   0  0  0  0  0  0  0  0  0  0  0  0
  -12.5923  -39.0859   -9.6632 C   0  0  0  0  0  0  0  0  0  0  0  0
  -13.7275  -38.4994   -9.1690 C   0  0  0  0  0  0  0  0  0  0  0  0
  -13.9766  -41.4142  -12.0072 O   0  0  0  0  0  0  0  0  0  0  0  0
  -14.5290  -42.0301  -13.0661 C   0  0  0  0  0  0  0  0  0  0  0  0
  -15.3612  -43.2606  -12.7469 C   0  0  0  0  0  0  0  0  0  0  0  0
  -14.5871  -44.2974  -11.9997 C   0  0  0  0  0  0  0  0  0  0  0  0
  -15.4397  -45.2626  -11.2101 C   0  0  0  0  0  0  0  0  0  0  0  0
  -16.6925  -44.6817  -10.7689 N   0  0  0  0  0  0  0  0  0  0  0  0
  -17.8003  -44.9886  -11.6612 C   0  0  0  0  0  0  0  0  0  0  0  0
  -17.5352  -45.2888  -13.0745 C   0  0  0  0  0  0  0  0  0  0  0  0
  -18.9563  -44.9969  -11.2379 O   0  0  0  0  0  0  0  0  0  0  0  0
  -16.9412  -43.8989   -9.5778 C   0  0  0  0  0  0  0  0  0  0  0  0
  -16.2675  -42.8488   -9.0014 C   0  0  0  0  0  0  0  0  0  0  0  0
  -16.8032  -42.3237   -7.8432 C   0  0  0  0  0  0  0  0  0  0  0  0
  -17.9943  -42.8884   -7.3220 C   0  0  0  0  0  0  0  0  0  0  0  0
  -18.6609  -43.9378   -7.9053 C   0  0  0  0  0  0  0  0  0  0  0  0
  -19.9131  -44.4908   -7.3116 C   0  0  0  0  0  0  0  0  0  0  0  0
  -18.1085  -44.3985   -9.0069 N   0  0  0  0  0  0  0  0  0  0  0  0
  -16.3642  -41.2150   -6.9791 C   0  0  0  0  0  0  0  0  0  0  0  0
  -16.3095  -41.4577   -5.6732 O   0  0  0  0  0  0  0  0  0  0  0  0
  -15.9744  -39.8913   -7.2512 N   0  0  0  0  0  0  0  0  0  0  0  0
  -21.8217  -40.2778   -7.6508 N   0  0  0  0  0  0  0  0  0  0  0  0
  -22.1561  -41.5858   -7.5240 C   0  0  0  0  0  0  0  0  0  0  0  0
  -22.3697  -42.1097   -6.2678 C   0  0  0  0  0  0  0  0  0  0  0  0
  1  2  1  0
  2  3  1  0
  2  4  1  0
  4  5  2  0
  5  6  1  0
  6  7  1  0
  7  8  1  0
  8  9  1  0
  9 10  1  0
 10 11  1  6
 10 12  1  0
 12 13  1  6
 13 14  1  0
 14 15  2  0
 15 16  1  0
 16 17  2  0
 17 18  1  0
 18 19  2  0
 16 20  1  0
 20 21  1  0
 21 22  1  0
 22 23  1  0
 23 24  1  0
 24 25  1  0
 25 26  1  0
 26 27  1  0
 26 28  2  0
 25 29  1  0
 29 30  2  0
 30 31  1  0
 31 32  2  0
 32 33  1  0
 33 34  1  0
 33 35  2  0
 31 36  1  0
 36 37  2  0
 36 38  1  0
  6 39  2  0
 39 40  1  0
 40 41  2  0
 19 14  1  0
 35 29  1  0
 38 12  1  0
 41  4  1  0
M  END
$$$$
