
     RDKit          3D

 41 44  0  0  0  0  0  0  0  0999 V2000
  -12.4222  -35.6940  -11.9760 C   0  0  0  0  0  0  0  0  0  0  0  0
  -13.9215  -35.6638  -11.8831 C   0  0  0  0  0  0  0  0  0  0  0  0
  -14.4043  -34.7382  -10.7846 C   0  0  0  0  0  0  0  0  0  0  0  0
  -14.4145  -37.0484  -11.6600 C   0  0  0  0  0  0  0  0  0  0  0  0
  -13.7716  -37.8531  -10.7467 C   0  0  0  0  0  0  0  0  0  0  0  0
  -14.2265  -39.1256  -10.5424 C   0  0  0  0  0  0  0  0  0  0  0  0
  -13.5335  -39.9730   -9.5687 C   0  0  0  0  0  0  0  0  0  0  0  0
  -14.1054  -39.8964   -8.2636 N   0  0  0  0  0  0  0  0  0  0  0  0
  -15.1406  -40.8615   -7.9893 C   0  0  0  0  0  0  0  0  0  0  0  0
  -16.4199  -40.1909   -7.5500 C   0  0  1  0  0  0  0  0  0  0  0  0
  -16.1853  -39.5988   -6.3230 O   0  0  0  0  0  0  0  0  0  0  0  0
  -16.9911  -39.2969   -8.6040 C   0  0  2  0  0  0  0  0  0  0  0  0
  -17.4951  -37.9709   -8.1029 C   0  0  0  0  0  0  0  0  0  0  0  0
  -19.0042  -37.9345   -8.0551 C   0  0  0  0  0  0  0  0  0  0  0  0
  -19.8582  -38.5173   -7.1654 C   0  0  0  0  0  0  0  0  0  0  0  0
  -21.2258  -38.3117   -7.3544 C   0  0  0  0  0  0  0  0  0  0  0  0
  -21.6749  -37.5201   -8.4423 C   0  0  0  0  0  0  0  0  0  0  0  0
  -20.8345  -36.9284   -9.3437 C   0  0  0  0  0  0  0  0  0  0  0  0
  -19.5005  -37.1522   -9.1266 C   0  0  0  0  0  0  0  0  0  0  0  0
  -22.2971  -38.7646   -6.6379 O   0  0  0  0  0  0  0  0  0  0  0  0
  -22.7564  -39.2024   -5.4534 C   0  0  0  0  0  0  0  0  0  0  0  0
  -22.7542  -40.7104   -5.2675 C   0  0  0  0  0  0  0  0  0  0  0  0
  -23.5389  -41.4187   -6.3235 C   0  0  0  0  0  0  0  0  0  0  0  0
  -23.1567  -42.8673   -6.5171 C   0  0  0  0  0  0  0  0  0  0  0  0
  -21.7700  -43.1359   -6.1910 N   0  0  0  0  0  0  0  0  0  0  0  0
  -21.5980  -43.6416   -4.8373 C   0  0  0  0  0  0  0  0  0  0  0  0
  -22.7259  -43.6035   -3.8970 C   0  0  0  0  0  0  0  0  0  0  0  0
  -20.5135  -44.0996   -4.4774 O   0  0  0  0  0  0  0  0  0  0  0  0
  -20.6098  -42.9899   -7.0429 C   0  0  0  0  0  0  0  0  0  0  0  0
  -20.2018  -41.9870   -7.8895 C   0  0  0  0  0  0  0  0  0  0  0  0
  -19.0097  -42.1799   -8.5572 C   0  0  0  0  0  0  0  0  0  0  0  0
  -18.2883  -43.3804   -8.3381 C   0  0  0  0  0  0  0  0  0  0  0  0
  -18.7040  -44.3771   -7.4897 C   0  0  0  0  0  0  0  0  0  0  0  0
  -17.9014  -45.6201   -7.2974 C   0  0  0  0  0  0  0  0  0  0  0  0
  -19.8446  -44.1412   -6.8781 N   0  0  0  0  0  0  0  0  0  0  0  0
  -18.2778  -41.3328   -9.5139 C   0  0  0  0  0  0  0  0  0  0  0  0
  -17.8625  -41.9147  -10.6347 O   0  0  0  0  0  0  0  0  0  0  0  0
  -17.9040  -39.9771   -9.4946 N   0  0  0  0  0  0  0  0  0  0  0  0
  -15.2828  -39.5774  -11.2235 N   0  0  0  0  0  0  0  0  0  0  0  0
  -15.9364  -38.8087  -12.1293 C   0  0  0  0  0  0  0  0  0  0  0  0
  -15.5040  -37.5209  -12.3597 C   0  0  0  0  0  0  0  0  0  0  0  0
  1  2  1  0
  2  3  1  0
  2  4  1  0
  4  5  2  0
  5  6  1  0
  6  7  1  0
  7  8  1  0
  8  9  1  0
  9 10  1  0
 10 11  1  1
 10 12  1  0
 12 13  1  1
 13 14  1  0
 14 15  2  0
 15 16  1  0
 16 17  2  0
 17 18  1  0
 18 19  2  0
 16 20  1  0
 20 21  1  0
 21 22  1  0
 22 23  1  0
 23 24  1  0
 24 25  1  0
 25 26  1  0
 26 27  1  0
 26 28  2  0
 25 29  1  0
 29 30  2  0
 30 31  1  0
 31 32  2  0
 32 33  1  0
 33 34  1  0
 33 35  2  0
 31 36  1  0
 36 37  2  0
 36 38  1  0
  6 39  2  0
 39 40  1  0
 40 41  2  0
 19 14  1  0
 35 29  1  0
 38 12  1  0
 41  4  1  0
M  END
$$$$
