
     RDKit          3D

 41 44  0  0  0  0  0  0  0  0999 V2000
  -13.8212  -34.6527  -13.0293 C   0  0  0  0  0  0  0  0  0  0  0  0
  -15.0672  -35.2910  -12.4835 C   0  0  0  0  0  0  0  0  0  0  0  0
  -15.4721  -34.6975  -11.1493 C   0  0  0  0  0  0  0  0  0  0  0  0
  -14.8401  -36.7552  -12.3619 C   0  0  0  0  0  0  0  0  0  0  0  0
  -14.4393  -37.2762  -11.1524 C   0  0  0  0  0  0  0  0  0  0  0  0
  -14.2317  -38.6225  -11.0421 C   0  0  0  0  0  0  0  0  0  0  0  0
  -13.8041  -39.1653   -9.7503 C   0  0  0  0  0  0  0  0  0  0  0  0
  -14.8359  -39.1253   -8.7654 N   0  0  0  0  0  0  0  0  0  0  0  0
  -15.2533  -40.4096   -8.2608 C   0  0  0  0  0  0  0  0  0  0  0  0
  -16.6331  -40.3430   -7.6519 C   0  0  1  0  0  0  0  0  0  0  0  0
  -16.4839  -40.1938   -6.2857 O   0  0  0  0  0  0  0  0  0  0  0  0
  -17.5094  -39.3344   -8.3237 C   0  0  2  0  0  0  0  0  0  0  0  0
  -18.2049  -38.3804   -7.3910 C   0  0  0  0  0  0  0  0  0  0  0  0
  -19.6695  -38.7184   -7.2446 C   0  0  0  0  0  0  0  0  0  0  0  0
  -20.2609  -39.7273   -6.5426 C   0  0  0  0  0  0  0  0  0  0  0  0
  -21.6544  -39.8040   -6.5733 C   0  0  0  0  0  0  0  0  0  0  0  0
  -22.3956  -38.8508   -7.3175 C   0  0  0  0  0  0  0  0  0  0  0  0
  -21.8208  -37.8333   -8.0268 C   0  0  0  0  0  0  0  0  0  0  0  0
  -20.4525  -37.7899   -7.9735 C   0  0  0  0  0  0  0  0  0  0  0  0
  -22.5060  -40.6921   -5.9799 O   0  0  0  0  0  0  0  0  0  0  0  0
  -22.7057  -41.5627   -4.9759 C   0  0  0  0  0  0  0  0  0  0  0  0
  -22.3692  -43.0110   -5.2890 C   0  0  0  0  0  0  0  0  0  0  0  0
  -23.1234  -43.5320   -6.4689 C   0  0  0  0  0  0  0  0  0  0  0  0
  -22.4805  -44.7208   -7.1437 C   0  0  0  0  0  0  0  0  0  0  0  0
  -21.0376  -44.7392   -7.0050 N   0  0  0  0  0  0  0  0  0  0  0  0
  -20.5889  -45.5742   -5.9009 C   0  0  0  0  0  0  0  0  0  0  0  0
  -21.5564  -46.0338   -4.8956 C   0  0  0  0  0  0  0  0  0  0  0  0
  -19.4044  -45.8958   -5.8054 O   0  0  0  0  0  0  0  0  0  0  0  0
  -20.0545  -44.0726   -7.8310 C   0  0  0  0  0  0  0  0  0  0  0  0
  -19.9762  -42.7942   -8.3298 C   0  0  0  0  0  0  0  0  0  0  0  0
  -18.8683  -42.4887   -9.0935 C   0  0  0  0  0  0  0  0  0  0  0  0
  -17.8932  -43.4927   -9.3182 C   0  0  0  0  0  0  0  0  0  0  0  0
  -17.9799  -44.7677   -8.8153 C   0  0  0  0  0  0  0  0  0  0  0  0
  -16.9208  -45.7838   -9.0840 C   0  0  0  0  0  0  0  0  0  0  0  0
  -19.0541  -45.0044   -8.0937 N   0  0  0  0  0  0  0  0  0  0  0  0
  -18.4584  -41.2444   -9.7659 C   0  0  0  0  0  0  0  0  0  0  0  0
  -18.0834  -41.3451  -11.0373 O   0  0  0  0  0  0  0  0  0  0  0  0
  -18.3720  -39.9097   -9.3308 N   0  0  0  0  0  0  0  0  0  0  0  0
  -14.4172  -39.4182  -12.0986 N   0  0  0  0  0  0  0  0  0  0  0  0
  -14.8115  -38.9344  -13.3024 C   0  0  0  0  0  0  0  0  0  0  0  0
  -15.0297  -37.5818  -13.4482 C   0  0  0  0  0  0  0  0  0  0  0  0
  1  2  1  0
  2  3  1  0
  2  4  1  0
  4  5  2  0
  5  6  1  0
  6  7  1  0
  7  8  1  0
  8  9  1  0
  9 10  1  0
 10 11  1  1
 10 12  1  0
 12 13  1  1
 13 14  1  0
 14 15  2  0
 15 16  1  0
 16 17  2  0
 17 18  1  0
 18 19  2  0
 16 20  1  0
 20 21  1  0
 21 22  1  0
 22 23  1  0
 23 24  1  0
 24 25  1  0
 25 26  1  0
 26 27  1  0
 26 28  2  0
 25 29  1  0
 29 30  2  0
 30 31  1  0
 31 32  2  0
 32 33  1  0
 33 34  1  0
 33 35  2  0
 31 36  1  0
 36 37  2  0
 36 38  1  0
  6 39  2  0
 39 40  1  0
 40 41  2  0
 19 14  1  0
 35 29  1  0
 38 12  1  0
 41  4  1  0
M  END
$$$$
