
     RDKit          3D

 41 44  0  0  0  0  0  0  0  0999 V2000
  -21.5193  -39.3233   -2.9201 C   0  0  0  0  0  0  0  0  0  0  0  0
  -22.3185  -40.4600   -3.4918 C   0  0  0  0  0  0  0  0  0  0  0  0
  -22.5909  -41.5378   -2.4620 C   0  0  0  0  0  0  0  0  0  0  0  0
  -21.5869  -41.0191   -4.6590 C   0  0  0  0  0  0  0  0  0  0  0  0
  -20.2113  -41.0630   -4.6332 C   0  0  0  0  0  0  0  0  0  0  0  0
  -19.5402  -41.5778   -5.7068 C   0  0  0  0  0  0  0  0  0  0  0  0
  -18.0762  -41.6183   -5.6684 C   0  0  0  0  0  0  0  0  0  0  0  0
  -17.4807  -40.3552   -5.9620 N   0  0  0  0  0  0  0  0  0  0  0  0
  -18.4094  -39.2743   -6.1796 C   0  0  0  0  0  0  0  0  0  0  0  0
  -18.3713  -38.7916   -7.6095 C   0  0  1  0  0  0  0  0  0  0  0  0
  -19.4998  -38.0225   -7.8247 O   0  0  0  0  0  0  0  0  0  0  0  0
  -17.0690  -38.1475   -7.9640 C   0  0  2  0  0  0  0  0  0  0  0  0
  -17.1817  -36.7445   -8.4954 C   0  0  0  0  0  0  0  0  0  0  0  0
  -16.9624  -36.6991   -9.9889 C   0  0  0  0  0  0  0  0  0  0  0  0
  -17.7971  -37.0753  -11.0000 C   0  0  0  0  0  0  0  0  0  0  0  0
  -17.3381  -36.9159  -12.3086 C   0  0  0  0  0  0  0  0  0  0  0  0
  -16.0459  -36.3792  -12.5408 C   0  0  0  0  0  0  0  0  0  0  0  0
  -15.1957  -35.9968  -11.5408 C   0  0  0  0  0  0  0  0  0  0  0  0
  -15.6800  -36.1678  -10.2708 C   0  0  0  0  0  0  0  0  0  0  0  0
  -17.9413  -37.2030  -13.5002 O   0  0  0  0  0  0  0  0  0  0  0  0
  -19.0959  -37.3737  -14.1661 C   0  0  0  0  0  0  0  0  0  0  0  0
  -19.5973  -38.8055  -14.2504 C   0  0  0  0  0  0  0  0  0  0  0  0
  -18.5990  -39.7261  -14.8737 C   0  0  0  0  0  0  0  0  0  0  0  0
  -18.7875  -41.1822  -14.5180 C   0  0  0  0  0  0  0  0  0  0  0  0
  -19.3952  -41.3733  -13.2158 N   0  0  0  0  0  0  0  0  0  0  0  0
  -20.8346  -41.5734  -13.2905 C   0  0  0  0  0  0  0  0  0  0  0  0
  -21.6231  -40.8279  -14.2806 C   0  0  0  0  0  0  0  0  0  0  0  0
  -21.3934  -42.3626  -12.5285 O   0  0  0  0  0  0  0  0  0  0  0  0
  -18.7424  -41.4152  -11.9253 C   0  0  0  0  0  0  0  0  0  0  0  0
  -17.7834  -40.6196  -11.3454 C   0  0  0  0  0  0  0  0  0  0  0  0
  -17.3857  -40.9524  -10.0667 C   0  0  0  0  0  0  0  0  0  0  0  0
  -17.9761  -42.0765   -9.4365 C   0  0  0  0  0  0  0  0  0  0  0  0
  -18.9342  -42.8657  -10.0240 C   0  0  0  0  0  0  0  0  0  0  0  0
  -19.5218  -44.0373   -9.3109 C   0  0  0  0  0  0  0  0  0  0  0  0
  -19.2775  -42.5031  -11.2411 N   0  0  0  0  0  0  0  0  0  0  0  0
  -16.4093  -40.3327   -9.1550 C   0  0  0  0  0  0  0  0  0  0  0  0
  -15.5264  -41.1436   -8.5805 O   0  0  0  0  0  0  0  0  0  0  0  0
  -16.2019  -39.0049   -8.7401 N   0  0  0  0  0  0  0  0  0  0  0  0
  -20.2164  -42.0316   -6.7653 N   0  0  0  0  0  0  0  0  0  0  0  0
  -21.5710  -42.0015   -6.8198 C   0  0  0  0  0  0  0  0  0  0  0  0
  -22.2787  -41.4889   -5.7545 C   0  0  0  0  0  0  0  0  0  0  0  0
  1  2  1  0
  2  3  1  0
  2  4  1  0
  4  5  2  0
  5  6  1  0
  6  7  1  0
  7  8  1  0
  8  9  1  0
  9 10  1  0
 10 11  1  1
 10 12  1  0
 12 13  1  6
 13 14  1  0
 14 15  2  0
 15 16  1  0
 16 17  2  0
 17 18  1  0
 18 19  2  0
 16 20  1  0
 20 21  1  0
 21 22  1  0
 22 23  1  0
 23 24  1  0
 24 25  1  0
 25 26  1  0
 26 27  1  0
 26 28  2  0
 25 29  1  0
 29 30  2  0
 30 31  1  0
 31 32  2  0
 32 33  1  0
 33 34  1  0
 33 35  2  0
 31 36  1  0
 36 37  2  0
 36 38  1  0
  6 39  2  0
 39 40  1  0
 40 41  2  0
 19 14  1  0
 35 29  1  0
 38 12  1  0
 41  4  1  0
M  END
$$$$
