
     RDKit          3D

 41 44  0  0  0  0  0  0  0  0999 V2000
  -12.8115  -34.5443  -11.4294 C   0  0  0  0  0  0  0  0  0  0  0  0
  -14.2439  -34.9955  -11.3820 C   0  0  0  0  0  0  0  0  0  0  0  0
  -14.9095  -34.6374  -10.0686 C   0  0  0  0  0  0  0  0  0  0  0  0
  -14.2905  -36.4632  -11.6136 C   0  0  0  0  0  0  0  0  0  0  0  0
  -13.8999  -37.3165  -10.6064 C   0  0  0  0  0  0  0  0  0  0  0  0
  -13.9439  -38.6656  -10.8206 C   0  0  0  0  0  0  0  0  0  0  0  0
  -13.5247  -39.5637   -9.7418 C   0  0  0  0  0  0  0  0  0  0  0  0
  -14.5780  -40.4138   -9.2899 N   0  0  0  0  0  0  0  0  0  0  0  0
  -14.7720  -40.4449   -7.8617 C   0  0  0  0  0  0  0  0  0  0  0  0
  -16.2248  -40.2572   -7.4965 C   0  0  1  0  0  0  0  0  0  0  0  0
  -16.2926  -40.0504   -6.1313 O   0  0  0  0  0  0  0  0  0  0  0  0
  -16.9018  -39.2275   -8.3438 C   0  0  2  0  0  0  0  0  0  0  0  0
  -17.5799  -38.1247   -7.5774 C   0  0  0  0  0  0  0  0  0  0  0  0
  -19.0809  -38.2922   -7.5780 C   0  0  0  0  0  0  0  0  0  0  0  0
  -19.8565  -39.1651   -6.8732 C   0  0  0  0  0  0  0  0  0  0  0  0
  -21.2380  -39.0975   -7.0614 C   0  0  0  0  0  0  0  0  0  0  0  0
  -21.7802  -38.1436   -7.9602 C   0  0  0  0  0  0  0  0  0  0  0  0
  -21.0191  -37.2611   -8.6749 C   0  0  0  0  0  0  0  0  0  0  0  0
  -19.6688  -37.3569   -8.4647 C   0  0  0  0  0  0  0  0  0  0  0  0
  -22.2451  -39.8334   -6.5042 O   0  0  0  0  0  0  0  0  0  0  0  0
  -22.6507  -40.5831   -5.4653 C   0  0  0  0  0  0  0  0  0  0  0  0
  -22.4507  -42.0811   -5.6217 C   0  0  0  0  0  0  0  0  0  0  0  0
  -23.1277  -42.6254   -6.8375 C   0  0  0  0  0  0  0  0  0  0  0  0
  -22.5562  -43.9318   -7.3363 C   0  0  0  0  0  0  0  0  0  0  0  0
  -21.1485  -44.0889   -7.0280 N   0  0  0  0  0  0  0  0  0  0  0  0
  -20.9205  -44.8622   -5.8165 C   0  0  0  0  0  0  0  0  0  0  0  0
  -22.0448  -45.1556   -4.9177 C   0  0  0  0  0  0  0  0  0  0  0  0
  -19.7919  -45.2701   -5.5418 O   0  0  0  0  0  0  0  0  0  0  0  0
  -20.0118  -43.6073   -7.7826 C   0  0  0  0  0  0  0  0  0  0  0  0
  -19.7339  -42.3951   -8.3677 C   0  0  0  0  0  0  0  0  0  0  0  0
  -18.5222  -42.2786   -9.0175 C   0  0  0  0  0  0  0  0  0  0  0  0
  -17.6502  -43.3958   -9.0464 C   0  0  0  0  0  0  0  0  0  0  0  0
  -17.9364  -44.6034   -8.4584 C   0  0  0  0  0  0  0  0  0  0  0  0
  -16.9781  -45.7454   -8.5199 C   0  0  0  0  0  0  0  0  0  0  0  0
  -19.1024  -44.6592   -7.8517 N   0  0  0  0  0  0  0  0  0  0  0  0
  -17.9020  -41.1507   -9.7329 C   0  0  0  0  0  0  0  0  0  0  0  0
  -17.4058  -41.4058  -10.9395 O   0  0  0  0  0  0  0  0  0  0  0  0
  -17.7107  -39.7985   -9.3970 N   0  0  0  0  0  0  0  0  0  0  0  0
  -14.3620  -39.1445  -11.9951 N   0  0  0  0  0  0  0  0  0  0  0  0
  -14.7528  -38.3294  -13.0058 C   0  0  0  0  0  0  0  0  0  0  0  0
  -14.7208  -36.9641  -12.8233 C   0  0  0  0  0  0  0  0  0  0  0  0
  1  2  1  0
  2  3  1  0
  2  4  1  0
  4  5  2  0
  5  6  1  0
  6  7  1  0
  7  8  1  0
  8  9  1  0
  9 10  1  0
 10 11  1  1
 10 12  1  0
 12 13  1  1
 13 14  1  0
 14 15  2  0
 15 16  1  0
 16 17  2  0
 17 18  1  0
 18 19  2  0
 16 20  1  0
 20 21  1  0
 21 22  1  0
 22 23  1  0
 23 24  1  0
 24 25  1  0
 25 26  1  0
 26 27  1  0
 26 28  2  0
 25 29  1  0
 29 30  2  0
 30 31  1  0
 31 32  2  0
 32 33  1  0
 33 34  1  0
 33 35  2  0
 31 36  1  0
 36 37  2  0
 36 38  1  0
  6 39  2  0
 39 40  1  0
 40 41  2  0
 19 14  1  0
 35 29  1  0
 38 12  1  0
 41  4  1  0
M  END
$$$$
