
     RDKit          3D

 41 44  0  0  0  0  0  0  0  0999 V2000
  -13.0996  -36.3275  -12.2448 C   0  0  0  0  0  0  0  0  0  0  0  0
  -11.9534  -37.2552  -11.9561 C   0  0  0  0  0  0  0  0  0  0  0  0
  -10.9183  -37.2412  -13.0628 C   0  0  0  0  0  0  0  0  0  0  0  0
  -12.4887  -38.6271  -11.7525 C   0  0  0  0  0  0  0  0  0  0  0  0
  -12.8266  -39.0363  -10.4823 C   0  0  0  0  0  0  0  0  0  0  0  0
  -13.3191  -40.2976  -10.2969 C   0  0  0  0  0  0  0  0  0  0  0  0
  -13.6742  -40.7224   -8.9405 C   0  0  0  0  0  0  0  0  0  0  0  0
  -15.0801  -40.6826   -8.6993 N   0  0  0  0  0  0  0  0  0  0  0  0
  -15.7145  -39.4174   -8.9730 C   0  0  0  0  0  0  0  0  0  0  0  0
  -16.8657  -39.1605   -8.0308 C   0  0  1  0  0  0  0  0  0  0  0  0
  -16.3394  -38.6984   -6.8388 O   0  0  0  0  0  0  0  0  0  0  0  0
  -17.9309  -38.3086   -8.6441 C   0  0  2  0  0  0  0  0  0  0  0  0
  -18.6917  -37.4497   -7.6709 C   0  0  0  0  0  0  0  0  0  0  0  0
  -20.0739  -37.9996   -7.4105 C   0  0  0  0  0  0  0  0  0  0  0  0
  -20.4535  -39.0704   -6.6558 C   0  0  0  0  0  0  0  0  0  0  0  0
  -21.8179  -39.3552   -6.5800 C   0  0  0  0  0  0  0  0  0  0  0  0
  -22.7469  -38.5395   -7.2752 C   0  0  0  0  0  0  0  0  0  0  0  0
  -22.3855  -37.4627   -8.0362 C   0  0  0  0  0  0  0  0  0  0  0  0
  -21.0393  -37.2142   -8.0871 C   0  0  0  0  0  0  0  0  0  0  0  0
  -22.4802  -40.3478   -5.9150 O   0  0  0  0  0  0  0  0  0  0  0  0
  -22.4721  -41.2171   -4.8902 C   0  0  0  0  0  0  0  0  0  0  0  0
  -21.9453  -42.6051   -5.2136 C   0  0  0  0  0  0  0  0  0  0  0  0
  -22.6970  -43.2578   -6.3278 C   0  0  0  0  0  0  0  0  0  0  0  0
  -21.9337  -44.3513   -7.0375 C   0  0  0  0  0  0  0  0  0  0  0  0
  -20.4983  -44.1508   -7.0084 N   0  0  0  0  0  0  0  0  0  0  0  0
  -19.8490  -44.8858   -5.9333 C   0  0  0  0  0  0  0  0  0  0  0  0
  -20.6641  -45.5136   -4.8848 C   0  0  0  0  0  0  0  0  0  0  0  0
  -18.6223  -44.9829   -5.8983 O   0  0  0  0  0  0  0  0  0  0  0  0
  -19.6901  -43.3624   -7.9132 C   0  0  0  0  0  0  0  0  0  0  0  0
  -19.8421  -42.0975   -8.4290 C   0  0  0  0  0  0  0  0  0  0  0  0
  -18.8520  -41.6461   -9.2775 C   0  0  0  0  0  0  0  0  0  0  0  0
  -17.7560  -42.4977   -9.5656 C   0  0  0  0  0  0  0  0  0  0  0  0
  -17.6124  -43.7603   -9.0449 C   0  0  0  0  0  0  0  0  0  0  0  0
  -16.4350  -44.6122   -9.3830 C   0  0  0  0  0  0  0  0  0  0  0  0
  -18.5829  -44.1396   -8.2417 N   0  0  0  0  0  0  0  0  0  0  0  0
  -18.6847  -40.3690   -9.9913 C   0  0  0  0  0  0  0  0  0  0  0  0
  -18.3932  -40.4394  -11.2864 O   0  0  0  0  0  0  0  0  0  0  0  0
  -18.7686  -39.0275   -9.5772 N   0  0  0  0  0  0  0  0  0  0  0  0
  -13.4689  -41.1188  -11.3395 N   0  0  0  0  0  0  0  0  0  0  0  0
  -13.1449  -40.7444  -12.6018 C   0  0  0  0  0  0  0  0  0  0  0  0
  -12.6456  -39.4796  -12.8240 C   0  0  0  0  0  0  0  0  0  0  0  0
  1  2  1  0
  2  3  1  0
  2  4  1  0
  4  5  2  0
  5  6  1  0
  6  7  1  0
  7  8  1  0
  8  9  1  0
  9 10  1  0
 10 11  1  1
 10 12  1  0
 12 13  1  1
 13 14  1  0
 14 15  2  0
 15 16  1  0
 16 17  2  0
 17 18  1  0
 18 19  2  0
 16 20  1  0
 20 21  1  0
 21 22  1  0
 22 23  1  0
 23 24  1  0
 24 25  1  0
 25 26  1  0
 26 27  1  0
 26 28  2  0
 25 29  1  0
 29 30  2  0
 30 31  1  0
 31 32  2  0
 32 33  1  0
 33 34  1  0
 33 35  2  0
 31 36  1  0
 36 37  2  0
 36 38  1  0
  6 39  2  0
 39 40  1  0
 40 41  2  0
 19 14  1  0
 35 29  1  0
 38 12  1  0
 41  4  1  0
M  END
$$$$
