
     RDKit          3D

 41 44  0  0  0  0  0  0  0  0999 V2000
   -9.8364  -37.0228  -12.0132 C   0  0  0  0  0  0  0  0  0  0  0  0
   -9.9910  -38.3333  -11.2946 C   0  0  0  0  0  0  0  0  0  0  0  0
   -9.0000  -39.3701  -11.7838 C   0  0  0  0  0  0  0  0  0  0  0  0
  -11.3867  -38.8136  -11.4717 C   0  0  0  0  0  0  0  0  0  0  0  0
  -12.4089  -38.1709  -10.8105 C   0  0  0  0  0  0  0  0  0  0  0  0
  -13.6915  -38.6133  -10.9748 C   0  0  0  0  0  0  0  0  0  0  0  0
  -14.7709  -37.9222  -10.2652 C   0  0  0  0  0  0  0  0  0  0  0  0
  -15.7730  -38.8145   -9.7796 N   0  0  0  0  0  0  0  0  0  0  0  0
  -15.7796  -39.0118   -8.3516 C   0  0  0  0  0  0  0  0  0  0  0  0
  -17.1728  -39.2830   -7.8370 C   0  0  1  0  0  0  0  0  0  0  0  0
  -17.1400  -39.1808   -6.4587 O   0  0  0  0  0  0  0  0  0  0  0  0
  -18.2107  -38.4552   -8.5253 C   0  0  2  0  0  0  0  0  0  0  0  0
  -19.0115  -37.5623   -7.6170 C   0  0  0  0  0  0  0  0  0  0  0  0
  -20.4038  -38.1040   -7.3954 C   0  0  0  0  0  0  0  0  0  0  0  0
  -20.8153  -39.1471   -6.6189 C   0  0  0  0  0  0  0  0  0  0  0  0
  -22.1819  -39.4304   -6.5904 C   0  0  0  0  0  0  0  0  0  0  0  0
  -23.0803  -38.6415   -7.3535 C   0  0  0  0  0  0  0  0  0  0  0  0
  -22.6867  -37.5928   -8.1371 C   0  0  0  0  0  0  0  0  0  0  0  0
  -21.3394  -37.3447   -8.1402 C   0  0  0  0  0  0  0  0  0  0  0  0
  -22.8720  -40.3990   -5.9183 O   0  0  0  0  0  0  0  0  0  0  0  0
  -22.9076  -41.2304   -4.8632 C   0  0  0  0  0  0  0  0  0  0  0  0
  -22.3682  -42.6286   -5.1133 C   0  0  0  0  0  0  0  0  0  0  0  0
  -23.0725  -43.3223   -6.2338 C   0  0  0  0  0  0  0  0  0  0  0  0
  -22.2804  -44.4399   -6.8705 C   0  0  0  0  0  0  0  0  0  0  0  0
  -20.8474  -44.2370   -6.7881 N   0  0  0  0  0  0  0  0  0  0  0  0
  -20.2444  -44.9317   -5.6605 C   0  0  0  0  0  0  0  0  0  0  0  0
  -21.1007  -45.4756   -4.5981 C   0  0  0  0  0  0  0  0  0  0  0  0
  -19.0224  -45.0647   -5.5929 O   0  0  0  0  0  0  0  0  0  0  0  0
  -20.0014  -43.4810   -7.6860 C   0  0  0  0  0  0  0  0  0  0  0  0
  -20.1310  -42.2360   -8.2535 C   0  0  0  0  0  0  0  0  0  0  0  0
  -19.1057  -41.8145   -9.0752 C   0  0  0  0  0  0  0  0  0  0  0  0
  -17.9988  -42.6748   -9.2856 C   0  0  0  0  0  0  0  0  0  0  0  0
  -17.8779  -43.9176   -8.7139 C   0  0  0  0  0  0  0  0  0  0  0  0
  -16.6877  -44.7798   -8.9708 C   0  0  0  0  0  0  0  0  0  0  0  0
  -18.8816  -44.2685   -7.9390 N   0  0  0  0  0  0  0  0  0  0  0  0
  -18.9078  -40.5641   -9.8273 C   0  0  0  0  0  0  0  0  0  0  0  0
  -18.5620  -40.6812  -11.1055 O   0  0  0  0  0  0  0  0  0  0  0  0
  -19.0086  -39.2085   -9.4662 N   0  0  0  0  0  0  0  0  0  0  0  0
  -13.9442  -39.6571  -11.7689 N   0  0  0  0  0  0  0  0  0  0  0  0
  -12.9587  -40.3102  -12.4329 C   0  0  0  0  0  0  0  0  0  0  0  0
  -11.6543  -39.8902  -12.2895 C   0  0  0  0  0  0  0  0  0  0  0  0
  1  2  1  0
  2  3  1  0
  2  4  1  0
  4  5  2  0
  5  6  1  0
  6  7  1  0
  7  8  1  0
  8  9  1  0
  9 10  1  0
 10 11  1  1
 10 12  1  0
 12 13  1  1
 13 14  1  0
 14 15  2  0
 15 16  1  0
 16 17  2  0
 17 18  1  0
 18 19  2  0
 16 20  1  0
 20 21  1  0
 21 22  1  0
 22 23  1  0
 23 24  1  0
 24 25  1  0
 25 26  1  0
 26 27  1  0
 26 28  2  0
 25 29  1  0
 29 30  2  0
 30 31  1  0
 31 32  2  0
 32 33  1  0
 33 34  1  0
 33 35  2  0
 31 36  1  0
 36 37  2  0
 36 38  1  0
  6 39  2  0
 39 40  1  0
 40 41  2  0
 19 14  1  0
 35 29  1  0
 38 12  1  0
 41  4  1  0
M  END
$$$$
