
     RDKit          3D

 40 43  0  0  0  0  0  0  0  0999 V2000
  -15.6308  -44.9729  -14.4528 C   0  0  0  0  0  0  0  0  0  0  0  0
  -15.7942  -45.1040  -13.0881 O   0  0  0  0  0  0  0  0  0  0  0  0
  -14.6212  -44.8256  -12.4405 C   0  0  0  0  0  0  0  0  0  0  0  0
  -14.5123  -43.4233  -11.9549 C   0  0  0  0  0  0  0  0  0  0  0  0
  -13.5997  -42.5352  -12.4519 C   0  0  0  0  0  0  0  0  0  0  0  0
  -13.5044  -41.1847  -12.0032 C   0  0  0  0  0  0  0  0  0  0  0  0
  -14.3749  -40.7497  -11.0211 C   0  0  0  0  0  0  0  0  0  0  0  0
  -15.3117  -41.5977  -10.4904 C   0  0  0  0  0  0  0  0  0  0  0  0
  -15.3420  -42.9338  -10.9896 C   0  0  0  0  0  0  0  0  0  0  0  0
  -16.3704  -41.4177   -9.4935 C   0  0  0  0  0  0  0  0  0  0  0  0
  -16.5470  -42.4365   -8.6357 O   0  0  0  0  0  0  0  0  0  0  0  0
  -17.2983  -40.4081   -9.1884 N   0  0  0  0  0  0  0  0  0  0  0  0
  -17.0229  -39.0324   -8.7322 C   0  0  1  0  0  0  0  0  0  0  0  0
  -17.7738  -38.0105   -9.5774 C   0  0  0  0  0  0  0  0  0  0  0  0
  -16.9406  -37.2809  -10.5722 C   0  0  0  0  0  0  0  0  0  0  0  0
  -16.2109  -37.7824  -11.6157 C   0  0  0  0  0  0  0  0  0  0  0  0
  -15.4429  -36.8842  -12.3282 C   0  0  0  0  0  0  0  0  0  0  0  0
  -15.4092  -35.5282  -12.0239 C   0  0  0  0  0  0  0  0  0  0  0  0
  -16.1356  -34.9892  -10.9856 C   0  0  0  0  0  0  0  0  0  0  0  0
  -16.8867  -35.8984  -10.2834 C   0  0  0  0  0  0  0  0  0  0  0  0
  -14.5808  -37.1694  -13.4346 O   0  0  0  0  0  0  0  0  0  0  0  0
  -13.5922  -38.1855  -13.4349 C   0  0  0  0  0  0  0  0  0  0  0  0
  -12.4002  -37.8552  -14.2424 C   0  0  0  0  0  0  0  0  0  0  0  0
  -11.3449  -38.9517  -14.0541 C   0  0  0  0  0  0  0  0  0  0  0  0
  -11.5180  -39.6371  -12.7011 C   0  0  0  0  0  0  0  0  0  0  0  0
  -12.5119  -40.5413  -12.6807 O   0  0  0  0  0  0  0  0  0  0  0  0
  -17.4737  -39.0149   -7.2874 C   0  0  2  0  0  0  0  0  0  0  0  0
  -16.4664  -39.3745   -6.4281 O   0  0  0  0  0  0  0  0  0  0  0  0
  -18.7760  -39.6347   -6.9817 C   0  0  0  0  0  0  0  0  0  0  0  0
  -18.9491  -41.0145   -7.1126 N   0  0  0  0  0  0  0  0  0  0  0  0
  -19.5559  -41.7853   -6.1045 C   0  0  0  0  0  0  0  0  0  0  0  0
  -20.9989  -41.5906   -5.8946 C   0  0  0  0  0  0  0  0  0  0  0  0
  -21.8150  -41.3224   -6.9561 C   0  0  0  0  0  0  0  0  0  0  0  0
  -23.1799  -41.1407   -6.8730 C   0  0  0  0  0  0  0  0  0  0  0  0
  -23.7447  -41.2391   -5.6267 C   0  0  0  0  0  0  0  0  0  0  0  0
  -22.9447  -41.5110   -4.5172 C   0  0  0  0  0  0  0  0  0  0  0  0
  -21.5906  -41.6841   -4.6485 C   0  0  0  0  0  0  0  0  0  0  0  0
  -23.9451  -40.8379   -8.0915 C   0  0  0  0  0  0  0  0  0  0  0  0
  -23.0907  -41.1892   -9.3066 C   0  0  0  0  0  0  0  0  0  0  0  0
  -24.5016  -39.4580   -8.1885 C   0  0  0  0  0  0  0  0  0  0  0  0
  1  2  1  0
  2  3  1  0
  3  4  1  0
  4  5  2  0
  5  6  1  0
  6  7  2  0
  7  8  1  0
  8  9  2  0
  8 10  1  0
 10 11  2  0
 10 12  1  0
 12 13  1  0
 13 14  1  6
 14 15  1  0
 15 16  2  0
 16 17  1  0
 17 18  2  0
 18 19  1  0
 19 20  2  0
 17 21  1  0
 21 22  1  0
 22 23  1  0
 23 24  1  0
 24 25  1  0
 25 26  1  0
 13 27  1  0
 27 28  1  1
 27 29  1  0
 29 30  1  0
 30 31  1  0
 31 32  1  0
 32 33  2  0
 33 34  1  0
 34 35  2  0
 35 36  1  0
 36 37  2  0
 34 38  1  0
 38 39  1  0
 38 40  1  0
  9  4  1  0
 20 15  1  0
 26  6  1  0
 37 32  1  0
M  END
$$$$
