
     RDKit          3D

 40 43  0  0  0  0  0  0  0  0999 V2000
  -21.7766  -40.4512  -13.6261 C   0  0  0  0  0  0  0  0  0  0  0  0
  -21.4684  -41.3978  -12.6694 O   0  0  0  0  0  0  0  0  0  0  0  0
  -20.4448  -42.1957  -13.1033 C   0  0  0  0  0  0  0  0  0  0  0  0
  -19.1120  -41.8290  -12.5525 C   0  0  0  0  0  0  0  0  0  0  0  0
  -17.9448  -42.0432  -13.2309 C   0  0  0  0  0  0  0  0  0  0  0  0
  -16.6667  -41.6759  -12.7153 C   0  0  0  0  0  0  0  0  0  0  0  0
  -16.6018  -41.0736  -11.4725 C   0  0  0  0  0  0  0  0  0  0  0  0
  -17.7417  -40.8325  -10.7509 C   0  0  0  0  0  0  0  0  0  0  0  0
  -18.9812  -41.2317  -11.3335 C   0  0  0  0  0  0  0  0  0  0  0  0
  -17.9872  -40.1893   -9.4575 C   0  0  0  0  0  0  0  0  0  0  0  0
  -18.9219  -40.7662   -8.6840 O   0  0  0  0  0  0  0  0  0  0  0  0
  -17.4769  -39.0674   -8.7834 N   0  0  0  0  0  0  0  0  0  0  0  0
  -16.0959  -38.8424   -8.3156 C   0  0  1  0  0  0  0  0  0  0  0  0
  -15.5689  -37.4907   -8.7824 C   0  0  0  0  0  0  0  0  0  0  0  0
  -14.6102  -37.5466   -9.9198 C   0  0  0  0  0  0  0  0  0  0  0  0
  -14.8009  -38.0401  -11.1819 C   0  0  0  0  0  0  0  0  0  0  0  0
  -13.7025  -38.0588  -12.0169 C   0  0  0  0  0  0  0  0  0  0  0  0
  -12.4560  -37.5906  -11.6176 C   0  0  0  0  0  0  0  0  0  0  0  0
  -12.2306  -37.0817  -10.3580 C   0  0  0  0  0  0  0  0  0  0  0  0
  -13.3320  -37.0786   -9.5391 C   0  0  0  0  0  0  0  0  0  0  0  0
  -13.6452  -38.5479  -13.3608 O   0  0  0  0  0  0  0  0  0  0  0  0
  -14.1151  -39.8222  -13.7671 C   0  0  0  0  0  0  0  0  0  0  0  0
  -13.3423  -40.4147  -14.8779 C   0  0  0  0  0  0  0  0  0  0  0  0
  -13.8425  -41.8413  -15.1345 C   0  0  0  0  0  0  0  0  0  0  0  0
  -14.4463  -42.4355  -13.8645 C   0  0  0  0  0  0  0  0  0  0  0  0
  -15.6943  -42.0058  -13.6116 O   0  0  0  0  0  0  0  0  0  0  0  0
  -16.1886  -38.9250   -6.8071 C   0  0  2  0  0  0  0  0  0  0  0  0
  -14.9598  -39.1035   -6.2235 O   0  0  0  0  0  0  0  0  0  0  0  0
  -17.2519  -39.7773   -6.2443 C   0  0  0  0  0  0  0  0  0  0  0  0
  -18.5195  -39.8038   -6.8303 N   0  0  0  0  0  0  0  0  0  0  0  0
  -19.5061  -38.8544   -6.5081 C   0  0  0  0  0  0  0  0  0  0  0  0
  -20.7818  -39.3696   -5.9872 C   0  0  0  0  0  0  0  0  0  0  0  0
  -20.8532  -39.8616   -4.7154 C   0  0  0  0  0  0  0  0  0  0  0  0
  -21.9994  -40.3513   -4.1245 C   0  0  0  0  0  0  0  0  0  0  0  0
  -23.1432  -40.3370   -4.8816 C   0  0  0  0  0  0  0  0  0  0  0  0
  -23.1112  -39.8432   -6.1855 C   0  0  0  0  0  0  0  0  0  0  0  0
  -21.9470  -39.3664   -6.7315 C   0  0  0  0  0  0  0  0  0  0  0  0
  -21.9396  -40.8714   -2.7505 C   0  0  0  0  0  0  0  0  0  0  0  0
  -21.3913  -39.7788   -1.8364 C   0  0  0  0  0  0  0  0  0  0  0  0
  -21.2106  -42.1595   -2.5697 C   0  0  0  0  0  0  0  0  0  0  0  0
  1  2  1  0
  2  3  1  0
  3  4  1  0
  4  5  2  0
  5  6  1  0
  6  7  2  0
  7  8  1  0
  8  9  2  0
  8 10  1  0
 10 11  2  0
 10 12  1  0
 12 13  1  0
 13 14  1  1
 14 15  1  0
 15 16  2  0
 16 17  1  0
 17 18  2  0
 18 19  1  0
 19 20  2  0
 17 21  1  0
 21 22  1  0
 22 23  1  0
 23 24  1  0
 24 25  1  0
 25 26  1  0
 13 27  1  0
 27 28  1  6
 27 29  1  0
 29 30  1  0
 30 31  1  0
 31 32  1  0
 32 33  2  0
 33 34  1  0
 34 35  2  0
 35 36  1  0
 36 37  2  0
 34 38  1  0
 38 39  1  0
 38 40  1  0
  9  4  1  0
 20 15  1  0
 26  6  1  0
 37 32  1  0
M  END
$$$$
