
     RDKit          3D

 40 43  0  0  0  0  0  0  0  0999 V2000
  -23.7493  -39.8024   -3.0288 C   0  0  0  0  0  0  0  0  0  0  0  0
  -22.4418  -39.9297   -3.4536 O   0  0  0  0  0  0  0  0  0  0  0  0
  -22.3205  -40.9946   -4.3045 C   0  0  0  0  0  0  0  0  0  0  0  0
  -21.5989  -40.6844   -5.5684 C   0  0  0  0  0  0  0  0  0  0  0  0
  -22.2433  -40.3743   -6.7333 C   0  0  0  0  0  0  0  0  0  0  0  0
  -21.5558  -40.0575   -7.9421 C   0  0  0  0  0  0  0  0  0  0  0  0
  -20.1733  -40.0616   -7.9387 C   0  0  0  0  0  0  0  0  0  0  0  0
  -19.4769  -40.3623   -6.7972 C   0  0  0  0  0  0  0  0  0  0  0  0
  -20.2366  -40.6711   -5.6299 C   0  0  0  0  0  0  0  0  0  0  0  0
  -18.0465  -40.4059   -6.4827 C   0  0  0  0  0  0  0  0  0  0  0  0
  -17.6515  -41.4152   -5.6889 O   0  0  0  0  0  0  0  0  0  0  0  0
  -16.9247  -39.6254   -6.8082 N   0  0  0  0  0  0  0  0  0  0  0  0
  -16.3373  -39.3954   -8.1418 C   0  0  1  0  0  0  0  0  0  0  0  0
  -16.1381  -37.9080   -8.4074 C   0  0  0  0  0  0  0  0  0  0  0  0
  -17.1358  -37.2924   -9.3250 C   0  0  0  0  0  0  0  0  0  0  0  0
  -18.4943  -37.2055   -9.1849 C   0  0  0  0  0  0  0  0  0  0  0  0
  -19.1972  -36.6661  -10.2428 C   0  0  0  0  0  0  0  0  0  0  0  0
  -18.5715  -36.2146  -11.3992 C   0  0  0  0  0  0  0  0  0  0  0  0
  -17.2067  -36.2810  -11.5706 C   0  0  0  0  0  0  0  0  0  0  0  0
  -16.5253  -36.8275  -10.5120 C   0  0  0  0  0  0  0  0  0  0  0  0
  -20.6149  -36.4968  -10.3434 O   0  0  0  0  0  0  0  0  0  0  0  0
  -21.5610  -37.5224  -10.0930 C   0  0  0  0  0  0  0  0  0  0  0  0
  -22.7789  -37.4236  -10.9231 C   0  0  0  0  0  0  0  0  0  0  0  0
  -23.6589  -38.6545  -10.6743 C   0  0  0  0  0  0  0  0  0  0  0  0
  -22.8091  -39.8403  -10.2247 C   0  0  0  0  0  0  0  0  0  0  0  0
  -22.4564  -39.7872   -8.9290 O   0  0  0  0  0  0  0  0  0  0  0  0
  -15.0240  -40.1473   -8.1123 C   0  0  2  0  0  0  0  0  0  0  0  0
  -14.3189  -40.0004   -9.2800 O   0  0  0  0  0  0  0  0  0  0  0  0
  -15.0507  -41.5274   -7.5945 C   0  0  0  0  0  0  0  0  0  0  0  0
  -16.2587  -42.1138   -7.2099 N   0  0  0  0  0  0  0  0  0  0  0  0
  -17.3376  -42.2448   -8.1028 C   0  0  0  0  0  0  0  0  0  0  0  0
  -17.3661  -43.4538   -8.9405 C   0  0  0  0  0  0  0  0  0  0  0  0
  -17.6768  -44.6629   -8.3871 C   0  0  0  0  0  0  0  0  0  0  0  0
  -17.7487  -45.8515   -9.0832 C   0  0  0  0  0  0  0  0  0  0  0  0
  -17.4864  -45.8001  -10.4287 C   0  0  0  0  0  0  0  0  0  0  0  0
  -17.1645  -44.5843  -11.0312 C   0  0  0  0  0  0  0  0  0  0  0  0
  -17.1046  -43.4269  -10.2980 C   0  0  0  0  0  0  0  0  0  0  0  0
  -18.0762  -47.0920   -8.3649 C   0  0  0  0  0  0  0  0  0  0  0  0
  -19.3546  -46.8698   -7.5610 C   0  0  0  0  0  0  0  0  0  0  0  0
  -16.9880  -47.6674   -7.5234 C   0  0  0  0  0  0  0  0  0  0  0  0
  1  2  1  0
  2  3  1  0
  3  4  1  0
  4  5  2  0
  5  6  1  0
  6  7  2  0
  7  8  1  0
  8  9  2  0
  8 10  1  0
 10 11  2  0
 10 12  1  0
 12 13  1  0
 13 14  1  1
 14 15  1  0
 15 16  2  0
 16 17  1  0
 17 18  2  0
 18 19  1  0
 19 20  2  0
 17 21  1  0
 21 22  1  0
 22 23  1  0
 23 24  1  0
 24 25  1  0
 25 26  1  0
 13 27  1  0
 27 28  1  6
 27 29  1  0
 29 30  1  0
 30 31  1  0
 31 32  1  0
 32 33  2  0
 33 34  1  0
 34 35  2  0
 35 36  1  0
 36 37  2  0
 34 38  1  0
 38 39  1  0
 38 40  1  0
  9  4  1  0
 20 15  1  0
 26  6  1  0
 37 32  1  0
M  END
$$$$
