
     RDKit          3D

 40 43  0  0  0  0  0  0  0  0999 V2000
  -18.4110  -47.6568   -5.0756 C   0  0  0  0  0  0  0  0  0  0  0  0
  -17.5890  -46.8510   -5.8381 O   0  0  0  0  0  0  0  0  0  0  0  0
  -18.1074  -46.6981   -7.0953 C   0  0  0  0  0  0  0  0  0  0  0  0
  -18.8784  -45.4399   -7.2867 C   0  0  0  0  0  0  0  0  0  0  0  0
  -20.2446  -45.3978   -7.2715 C   0  0  0  0  0  0  0  0  0  0  0  0
  -20.9875  -44.1913   -7.4352 C   0  0  0  0  0  0  0  0  0  0  0  0
  -20.2970  -43.0073   -7.6164 C   0  0  0  0  0  0  0  0  0  0  0  0
  -18.9267  -42.9921   -7.6367 C   0  0  0  0  0  0  0  0  0  0  0  0
  -18.2563  -44.2401   -7.4689 C   0  0  0  0  0  0  0  0  0  0  0  0
  -17.9421  -41.9146   -7.7651 C   0  0  0  0  0  0  0  0  0  0  0  0
  -16.8668  -42.1905   -8.5218 O   0  0  0  0  0  0  0  0  0  0  0  0
  -17.8217  -40.6036   -7.2750 N   0  0  0  0  0  0  0  0  0  0  0  0
  -18.7014  -39.4508   -7.5461 C   0  0  1  0  0  0  0  0  0  0  0  0
  -19.1362  -38.7727   -6.2524 C   0  0  0  0  0  0  0  0  0  0  0  0
  -20.5331  -39.0626   -5.8273 C   0  0  0  0  0  0  0  0  0  0  0  0
  -21.1080  -40.2677   -5.5269 C   0  0  0  0  0  0  0  0  0  0  0  0
  -22.4608  -40.2628   -5.2549 C   0  0  0  0  0  0  0  0  0  0  0  0
  -23.2183  -39.0972   -5.2676 C   0  0  0  0  0  0  0  0  0  0  0  0
  -22.6710  -37.8676   -5.5591 C   0  0  0  0  0  0  0  0  0  0  0  0
  -21.3267  -37.8931   -5.8349 C   0  0  0  0  0  0  0  0  0  0  0  0
  -23.2851  -41.3907   -4.9436 O   0  0  0  0  0  0  0  0  0  0  0  0
  -23.3304  -42.5821   -5.7105 C   0  0  0  0  0  0  0  0  0  0  0  0
  -24.6553  -43.2353   -5.7169 C   0  0  0  0  0  0  0  0  0  0  0  0
  -24.6264  -44.4231   -6.6863 C   0  0  0  0  0  0  0  0  0  0  0  0
  -23.5784  -44.2030   -7.7743 C   0  0  0  0  0  0  0  0  0  0  0  0
  -22.3226  -44.4580   -7.3693 O   0  0  0  0  0  0  0  0  0  0  0  0
  -17.8675  -38.5338   -8.4149 C   0  0  2  0  0  0  0  0  0  0  0  0
  -18.5644  -37.4185   -8.8058 O   0  0  0  0  0  0  0  0  0  0  0  0
  -17.0805  -39.1604   -9.4927 C   0  0  0  0  0  0  0  0  0  0  0  0
  -16.0631  -38.4468  -10.1303 N   0  0  0  0  0  0  0  0  0  0  0  0
  -14.7052  -38.6700   -9.8392 C   0  0  0  0  0  0  0  0  0  0  0  0
  -14.1515  -39.9819  -10.2087 C   0  0  0  0  0  0  0  0  0  0  0  0
  -13.5505  -40.7622   -9.2629 C   0  0  0  0  0  0  0  0  0  0  0  0
  -13.0156  -42.0118   -9.4979 C   0  0  0  0  0  0  0  0  0  0  0  0
  -13.1006  -42.4927  -10.7798 C   0  0  0  0  0  0  0  0  0  0  0  0
  -13.7063  -41.7254  -11.7745 C   0  0  0  0  0  0  0  0  0  0  0  0
  -14.2244  -40.4871  -11.4937 C   0  0  0  0  0  0  0  0  0  0  0  0
  -12.3772  -42.7448   -8.3946 C   0  0  0  0  0  0  0  0  0  0  0  0
  -11.0557  -42.0618   -8.0526 C   0  0  0  0  0  0  0  0  0  0  0  0
  -12.2040  -44.2118   -8.5977 C   0  0  0  0  0  0  0  0  0  0  0  0
  1  2  1  0
  2  3  1  0
  3  4  1  0
  4  5  2  0
  5  6  1  0
  6  7  2  0
  7  8  1  0
  8  9  2  0
  8 10  1  0
 10 11  2  0
 10 12  1  0
 12 13  1  0
 13 14  1  1
 14 15  1  0
 15 16  2  0
 16 17  1  0
 17 18  2  0
 18 19  1  0
 19 20  2  0
 17 21  1  0
 21 22  1  0
 22 23  1  0
 23 24  1  0
 24 25  1  0
 25 26  1  0
 13 27  1  0
 27 28  1  6
 27 29  1  0
 29 30  1  0
 30 31  1  0
 31 32  1  0
 32 33  2  0
 33 34  1  0
 34 35  2  0
 35 36  1  0
 36 37  2  0
 34 38  1  0
 38 39  1  0
 38 40  1  0
  9  4  1  0
 20 15  1  0
 26  6  1  0
 37 32  1  0
M  END
$$$$
