
     RDKit          3D

 40 43  0  0  0  0  0  0  0  0999 V2000
  -18.1948  -43.4426   -1.7283 C   0  0  0  0  0  0  0  0  0  0  0  0
  -19.4007  -43.4621   -2.4006 O   0  0  0  0  0  0  0  0  0  0  0  0
  -19.2919  -44.1971   -3.5498 C   0  0  0  0  0  0  0  0  0  0  0  0
  -19.5426  -43.4211   -4.7944 C   0  0  0  0  0  0  0  0  0  0  0  0
  -20.6850  -43.5534   -5.5333 C   0  0  0  0  0  0  0  0  0  0  0  0
  -20.9382  -42.7979   -6.7162 C   0  0  0  0  0  0  0  0  0  0  0  0
  -19.9868  -41.8873   -7.1372 C   0  0  0  0  0  0  0  0  0  0  0  0
  -18.8248  -41.7124   -6.4319 C   0  0  0  0  0  0  0  0  0  0  0  0
  -18.6443  -42.5074   -5.2613 C   0  0  0  0  0  0  0  0  0  0  0  0
  -17.6783  -40.8162   -6.6032 C   0  0  0  0  0  0  0  0  0  0  0  0
  -16.4725  -41.3526   -6.3520 O   0  0  0  0  0  0  0  0  0  0  0  0
  -17.5031  -39.4733   -6.9766 N   0  0  0  0  0  0  0  0  0  0  0  0
  -17.8312  -38.8423   -8.2691 C   0  0  1  0  0  0  0  0  0  0  0  0
  -18.6669  -37.5833   -8.0718 C   0  0  0  0  0  0  0  0  0  0  0  0
  -20.1155  -37.7334   -8.3803 C   0  0  0  0  0  0  0  0  0  0  0  0
  -21.0335  -38.5737   -7.8111 C   0  0  0  0  0  0  0  0  0  0  0  0
  -22.2993  -38.5786   -8.3603 C   0  0  0  0  0  0  0  0  0  0  0  0
  -22.6485  -37.7660   -9.4328 C   0  0  0  0  0  0  0  0  0  0  0  0
  -21.7522  -36.9044  -10.0250 C   0  0  0  0  0  0  0  0  0  0  0  0
  -20.4965  -36.9191   -9.4710 C   0  0  0  0  0  0  0  0  0  0  0  0
  -23.4132  -39.3836   -7.9603 O   0  0  0  0  0  0  0  0  0  0  0  0
  -23.3610  -40.7899   -7.7892 C   0  0  0  0  0  0  0  0  0  0  0  0
  -24.6249  -41.4771   -8.1244 C   0  0  0  0  0  0  0  0  0  0  0  0
  -24.4105  -42.9933   -8.0433 C   0  0  0  0  0  0  0  0  0  0  0  0
  -22.9463  -43.3430   -8.2969 C   0  0  0  0  0  0  0  0  0  0  0  0
  -22.1534  -43.1386   -7.2313 O   0  0  0  0  0  0  0  0  0  0  0  0
  -16.4868  -38.5386   -8.8947 C   0  0  2  0  0  0  0  0  0  0  0  0
  -16.5762  -38.3686  -10.2531 O   0  0  0  0  0  0  0  0  0  0  0  0
  -15.3433  -39.3642   -8.4652 C   0  0  0  0  0  0  0  0  0  0  0  0
  -15.2465  -40.6989   -8.8656 N   0  0  0  0  0  0  0  0  0  0  0  0
  -14.7693  -41.0590  -10.1388 C   0  0  0  0  0  0  0  0  0  0  0  0
  -13.6584  -40.2631  -10.6837 C   0  0  0  0  0  0  0  0  0  0  0  0
  -13.5526  -38.9364  -10.3783 C   0  0  0  0  0  0  0  0  0  0  0  0
  -12.5441  -38.1054  -10.8201 C   0  0  0  0  0  0  0  0  0  0  0  0
  -11.5847  -38.6664  -11.6243 C   0  0  0  0  0  0  0  0  0  0  0  0
  -11.6581  -40.0181  -11.9597 C   0  0  0  0  0  0  0  0  0  0  0  0
  -12.6805  -40.8060  -11.4965 C   0  0  0  0  0  0  0  0  0  0  0  0
  -12.5543  -36.6867  -10.4340 C   0  0  0  0  0  0  0  0  0  0  0  0
  -13.8416  -36.0481  -10.9487 C   0  0  0  0  0  0  0  0  0  0  0  0
  -11.3520  -35.8946  -10.8217 C   0  0  0  0  0  0  0  0  0  0  0  0
  1  2  1  0
  2  3  1  0
  3  4  1  0
  4  5  2  0
  5  6  1  0
  6  7  2  0
  7  8  1  0
  8  9  2  0
  8 10  1  0
 10 11  2  0
 10 12  1  0
 12 13  1  0
 13 14  1  1
 14 15  1  0
 15 16  2  0
 16 17  1  0
 17 18  2  0
 18 19  1  0
 19 20  2  0
 17 21  1  0
 21 22  1  0
 22 23  1  0
 23 24  1  0
 24 25  1  0
 25 26  1  0
 13 27  1  0
 27 28  1  6
 27 29  1  0
 29 30  1  0
 30 31  1  0
 31 32  1  0
 32 33  2  0
 33 34  1  0
 34 35  2  0
 35 36  1  0
 36 37  2  0
 34 38  1  0
 38 39  1  0
 38 40  1  0
  9  4  1  0
 20 15  1  0
 26  6  1  0
 37 32  1  0
M  END
$$$$
