
     RDKit          3D

 40 43  0  0  0  0  0  0  0  0999 V2000
  -23.3612  -38.9799  -11.1088 C   0  0  0  0  0  0  0  0  0  0  0  0
  -22.6791  -39.4921  -12.1945 O   0  0  0  0  0  0  0  0  0  0  0  0
  -21.8884  -40.5398  -11.8075 C   0  0  0  0  0  0  0  0  0  0  0  0
  -20.4570  -40.1826  -11.6137 C   0  0  0  0  0  0  0  0  0  0  0  0
  -19.6081  -39.9303  -12.6549 C   0  0  0  0  0  0  0  0  0  0  0  0
  -18.2404  -39.5688  -12.4734 C   0  0  0  0  0  0  0  0  0  0  0  0
  -17.7473  -39.4664  -11.1858 C   0  0  0  0  0  0  0  0  0  0  0  0
  -18.5559  -39.7055  -10.1055 C   0  0  0  0  0  0  0  0  0  0  0  0
  -19.9110  -40.0648  -10.3695 C   0  0  0  0  0  0  0  0  0  0  0  0
  -18.3350  -39.6369   -8.6586 C   0  0  0  0  0  0  0  0  0  0  0  0
  -18.9117  -40.6080   -7.9310 O   0  0  0  0  0  0  0  0  0  0  0  0
  -17.6459  -38.7744   -7.7899 N   0  0  0  0  0  0  0  0  0  0  0  0
  -16.1958  -38.5079   -7.7400 C   0  0  1  0  0  0  0  0  0  0  0  0
  -15.9092  -37.0112   -7.7604 C   0  0  0  0  0  0  0  0  0  0  0  0
  -15.4245  -36.4799   -9.0638 C   0  0  0  0  0  0  0  0  0  0  0  0
  -16.0448  -36.4970  -10.2836 C   0  0  0  0  0  0  0  0  0  0  0  0
  -15.3218  -36.0199  -11.3577 C   0  0  0  0  0  0  0  0  0  0  0  0
  -14.0281  -35.5286  -11.2248 C   0  0  0  0  0  0  0  0  0  0  0  0
  -13.3769  -35.4906  -10.0120 C   0  0  0  0  0  0  0  0  0  0  0  0
  -14.1081  -35.9766   -8.9571 C   0  0  0  0  0  0  0  0  0  0  0  0
  -15.7404  -35.9608  -12.7251 O   0  0  0  0  0  0  0  0  0  0  0  0
  -16.2910  -37.0547  -13.4392 C   0  0  0  0  0  0  0  0  0  0  0  0
  -15.9557  -37.0551  -14.8779 C   0  0  0  0  0  0  0  0  0  0  0  0
  -16.4766  -38.3485  -15.5159 C   0  0  0  0  0  0  0  0  0  0  0  0
  -16.5650  -39.4627  -14.4759 C   0  0  0  0  0  0  0  0  0  0  0  0
  -17.6486  -39.3746  -13.6859 O   0  0  0  0  0  0  0  0  0  0  0  0
  -15.7354  -39.1562   -6.4520 C   0  0  2  0  0  0  0  0  0  0  0  0
  -14.3700  -39.2778   -6.3948 O   0  0  0  0  0  0  0  0  0  0  0  0
  -16.4660  -40.3559   -6.0045 C   0  0  0  0  0  0  0  0  0  0  0  0
  -17.8335  -40.4851   -6.2579 N   0  0  0  0  0  0  0  0  0  0  0  0
  -18.8015  -40.1613   -5.2901 C   0  0  0  0  0  0  0  0  0  0  0  0
  -20.1074  -39.6966   -5.7833 C   0  0  0  0  0  0  0  0  0  0  0  0
  -21.1886  -40.5299   -5.7473 C   0  0  0  0  0  0  0  0  0  0  0  0
  -22.4580  -40.1902   -6.1668 C   0  0  0  0  0  0  0  0  0  0  0  0
  -22.6319  -38.9194   -6.6534 C   0  0  0  0  0  0  0  0  0  0  0  0
  -21.5520  -38.0387   -6.7073 C   0  0  0  0  0  0  0  0  0  0  0  0
  -20.3067  -38.4213   -6.2787 C   0  0  0  0  0  0  0  0  0  0  0  0
  -23.5357  -41.1877   -6.0929 C   0  0  0  0  0  0  0  0  0  0  0  0
  -24.8564  -40.5093   -6.4471 C   0  0  0  0  0  0  0  0  0  0  0  0
  -23.6329  -41.9524   -4.8166 C   0  0  0  0  0  0  0  0  0  0  0  0
  1  2  1  0
  2  3  1  0
  3  4  1  0
  4  5  2  0
  5  6  1  0
  6  7  2  0
  7  8  1  0
  8  9  2  0
  8 10  1  0
 10 11  2  0
 10 12  1  0
 12 13  1  0
 13 14  1  1
 14 15  1  0
 15 16  2  0
 16 17  1  0
 17 18  2  0
 18 19  1  0
 19 20  2  0
 17 21  1  0
 21 22  1  0
 22 23  1  0
 23 24  1  0
 24 25  1  0
 25 26  1  0
 13 27  1  0
 27 28  1  6
 27 29  1  0
 29 30  1  0
 30 31  1  0
 31 32  1  0
 32 33  2  0
 33 34  1  0
 34 35  2  0
 35 36  1  0
 36 37  2  0
 34 38  1  0
 38 39  1  0
 38 40  1  0
  9  4  1  0
 20 15  1  0
 26  6  1  0
 37 32  1  0
M  END
$$$$
