
     RDKit          3D

 40 43  0  0  0  0  0  0  0  0999 V2000
  -17.9018  -46.5175   -5.3654 C   0  0  0  0  0  0  0  0  0  0  0  0
  -17.9491  -47.5987   -6.2228 O   0  0  0  0  0  0  0  0  0  0  0  0
  -18.2791  -47.1890   -7.4861 C   0  0  0  0  0  0  0  0  0  0  0  0
  -18.8074  -45.7997   -7.5566 C   0  0  0  0  0  0  0  0  0  0  0  0
  -20.1404  -45.5180   -7.6679 C   0  0  0  0  0  0  0  0  0  0  0  0
  -20.6529  -44.1879   -7.7164 C   0  0  0  0  0  0  0  0  0  0  0  0
  -19.7632  -43.1320   -7.6462 C   0  0  0  0  0  0  0  0  0  0  0  0
  -18.4164  -43.3579   -7.5307 C   0  0  0  0  0  0  0  0  0  0  0  0
  -17.9820  -44.7161   -7.4916 C   0  0  0  0  0  0  0  0  0  0  0  0
  -17.2623  -42.4651   -7.3963 C   0  0  0  0  0  0  0  0  0  0  0  0
  -16.1616  -42.8234   -8.0781 O   0  0  0  0  0  0  0  0  0  0  0  0
  -16.9922  -41.2741   -6.7019 N   0  0  0  0  0  0  0  0  0  0  0  0
  -17.6343  -39.9576   -6.8775 C   0  0  1  0  0  0  0  0  0  0  0  0
  -18.1082  -39.3929   -5.5437 C   0  0  0  0  0  0  0  0  0  0  0  0
  -19.5749  -39.4845   -5.3058 C   0  0  0  0  0  0  0  0  0  0  0  0
  -20.3693  -40.5975   -5.2507 C   0  0  0  0  0  0  0  0  0  0  0  0
  -21.7265  -40.3889   -5.1140 C   0  0  0  0  0  0  0  0  0  0  0  0
  -22.2784  -39.1163   -5.0217 C   0  0  0  0  0  0  0  0  0  0  0  0
  -21.5080  -37.9757   -5.0669 C   0  0  0  0  0  0  0  0  0  0  0  0
  -20.1621  -38.2024   -5.2113 C   0  0  0  0  0  0  0  0  0  0  0  0
  -22.7540  -41.3839   -5.0606 O   0  0  0  0  0  0  0  0  0  0  0  0
  -22.8974  -42.4344   -6.0017 C   0  0  0  0  0  0  0  0  0  0  0  0
  -24.2997  -42.8349   -6.2367 C   0  0  0  0  0  0  0  0  0  0  0  0
  -24.3452  -43.8679   -7.3691 C   0  0  0  0  0  0  0  0  0  0  0  0
  -23.1507  -43.6935   -8.3035 C   0  0  0  0  0  0  0  0  0  0  0  0
  -22.0115  -44.2195   -7.8222 O   0  0  0  0  0  0  0  0  0  0  0  0
  -16.5635  -39.0951   -7.5104 C   0  0  2  0  0  0  0  0  0  0  0  0
  -16.8700  -37.7595   -7.4432 O   0  0  0  0  0  0  0  0  0  0  0  0
  -16.0380  -39.5272   -8.8184 C   0  0  0  0  0  0  0  0  0  0  0  0
  -15.3622  -38.6231   -9.6412 N   0  0  0  0  0  0  0  0  0  0  0  0
  -15.1953  -38.8547  -11.0185 C   0  0  0  0  0  0  0  0  0  0  0  0
  -16.0461  -38.0773  -11.9328 C   0  0  0  0  0  0  0  0  0  0  0  0
  -16.8860  -37.1205  -11.4390 C   0  0  0  0  0  0  0  0  0  0  0  0
  -17.7109  -36.3253  -12.2072 C   0  0  0  0  0  0  0  0  0  0  0  0
  -17.6743  -36.5212  -13.5644 C   0  0  0  0  0  0  0  0  0  0  0  0
  -16.8303  -37.4895  -14.1075 C   0  0  0  0  0  0  0  0  0  0  0  0
  -16.0274  -38.2575  -13.3035 C   0  0  0  0  0  0  0  0  0  0  0  0
  -18.5843  -35.3416  -11.5503 C   0  0  0  0  0  0  0  0  0  0  0  0
  -17.7264  -34.4327  -10.6740 C   0  0  0  0  0  0  0  0  0  0  0  0
  -19.7458  -35.8971  -10.7984 C   0  0  0  0  0  0  0  0  0  0  0  0
  1  2  1  0
  2  3  1  0
  3  4  1  0
  4  5  2  0
  5  6  1  0
  6  7  2  0
  7  8  1  0
  8  9  2  0
  8 10  1  0
 10 11  2  0
 10 12  1  0
 12 13  1  0
 13 14  1  1
 14 15  1  0
 15 16  2  0
 16 17  1  0
 17 18  2  0
 18 19  1  0
 19 20  2  0
 17 21  1  0
 21 22  1  0
 22 23  1  0
 23 24  1  0
 24 25  1  0
 25 26  1  0
 13 27  1  0
 27 28  1  6
 27 29  1  0
 29 30  1  0
 30 31  1  0
 31 32  1  0
 32 33  2  0
 33 34  1  0
 34 35  2  0
 35 36  1  0
 36 37  2  0
 34 38  1  0
 38 39  1  0
 38 40  1  0
  9  4  1  0
 20 15  1  0
 26  6  1  0
 37 32  1  0
M  END
$$$$
