
     RDKit          3D

 40 43  0  0  0  0  0  0  0  0999 V2000
  -15.5988  -46.6245   -6.3541 C   0  0  0  0  0  0  0  0  0  0  0  0
  -16.8238  -47.2047   -6.6174 O   0  0  0  0  0  0  0  0  0  0  0  0
  -17.7837  -46.6814   -5.7944 C   0  0  0  0  0  0  0  0  0  0  0  0
  -18.4513  -45.4660   -6.3341 C   0  0  0  0  0  0  0  0  0  0  0  0
  -19.8058  -45.3720   -6.4915 C   0  0  0  0  0  0  0  0  0  0  0  0
  -20.4517  -44.2022   -6.9902 C   0  0  0  0  0  0  0  0  0  0  0  0
  -19.6748  -43.1101   -7.3297 C   0  0  0  0  0  0  0  0  0  0  0  0
  -18.3121  -43.1494   -7.1887 C   0  0  0  0  0  0  0  0  0  0  0  0
  -17.7411  -44.3562   -6.6861 C   0  0  0  0  0  0  0  0  0  0  0  0
  -17.2557  -42.1607   -7.4197 C   0  0  0  0  0  0  0  0  0  0  0  0
  -16.1230  -42.6307   -7.9683 O   0  0  0  0  0  0  0  0  0  0  0  0
  -17.1100  -40.7805   -7.2022 N   0  0  0  0  0  0  0  0  0  0  0  0
  -17.8832  -39.6811   -7.8104 C   0  0  1  0  0  0  0  0  0  0  0  0
  -18.4146  -38.7269   -6.7475 C   0  0  0  0  0  0  0  0  0  0  0  0
  -19.8646  -38.8684   -6.4416 C   0  0  0  0  0  0  0  0  0  0  0  0
  -20.5411  -39.9597   -5.9681 C   0  0  0  0  0  0  0  0  0  0  0  0
  -21.9126  -39.8477   -5.8669 C   0  0  0  0  0  0  0  0  0  0  0  0
  -22.5920  -38.6851   -6.2123 C   0  0  0  0  0  0  0  0  0  0  0  0
  -21.9423  -37.5668   -6.6855 C   0  0  0  0  0  0  0  0  0  0  0  0
  -20.5800  -37.6995   -6.7871 C   0  0  0  0  0  0  0  0  0  0  0  0
  -22.8331  -40.8524   -5.4287 O   0  0  0  0  0  0  0  0  0  0  0  0
  -22.8667  -42.1777   -5.9308 C   0  0  0  0  0  0  0  0  0  0  0  0
  -24.2203  -42.7686   -5.9597 C   0  0  0  0  0  0  0  0  0  0  0  0
  -24.1580  -44.1363   -6.6503 C   0  0  0  0  0  0  0  0  0  0  0  0
  -22.9860  -44.1920   -7.6269 C   0  0  0  0  0  0  0  0  0  0  0  0
  -21.7998  -44.3999   -7.0305 O   0  0  0  0  0  0  0  0  0  0  0  0
  -16.9051  -39.0017   -8.7448 C   0  0  2  0  0  0  0  0  0  0  0  0
  -17.5418  -38.2989   -9.7363 O   0  0  0  0  0  0  0  0  0  0  0  0
  -15.7581  -39.8002   -9.2141 C   0  0  0  0  0  0  0  0  0  0  0  0
  -15.9439  -41.1141   -9.6501 N   0  0  0  0  0  0  0  0  0  0  0  0
  -15.8177  -41.4714  -11.0047 C   0  0  0  0  0  0  0  0  0  0  0  0
  -14.8831  -40.6787  -11.8186 C   0  0  0  0  0  0  0  0  0  0  0  0
  -14.2728  -39.5799  -11.2849 C   0  0  0  0  0  0  0  0  0  0  0  0
  -13.3695  -38.7795  -11.9529 C   0  0  0  0  0  0  0  0  0  0  0  0
  -13.0725  -39.1244  -13.2469 C   0  0  0  0  0  0  0  0  0  0  0  0
  -13.6757  -40.2394  -13.8283 C   0  0  0  0  0  0  0  0  0  0  0  0
  -14.5689  -41.0061  -13.1247 C   0  0  0  0  0  0  0  0  0  0  0  0
  -12.7954  -37.6106  -11.2701 C   0  0  0  0  0  0  0  0  0  0  0  0
  -11.4015  -37.9739  -10.7653 C   0  0  0  0  0  0  0  0  0  0  0  0
  -13.6317  -37.0054  -10.1942 C   0  0  0  0  0  0  0  0  0  0  0  0
  1  2  1  0
  2  3  1  0
  3  4  1  0
  4  5  2  0
  5  6  1  0
  6  7  2  0
  7  8  1  0
  8  9  2  0
  8 10  1  0
 10 11  2  0
 10 12  1  0
 12 13  1  0
 13 14  1  1
 14 15  1  0
 15 16  2  0
 16 17  1  0
 17 18  2  0
 18 19  1  0
 19 20  2  0
 17 21  1  0
 21 22  1  0
 22 23  1  0
 23 24  1  0
 24 25  1  0
 25 26  1  0
 13 27  1  0
 27 28  1  6
 27 29  1  0
 29 30  1  0
 30 31  1  0
 31 32  1  0
 32 33  2  0
 33 34  1  0
 34 35  2  0
 35 36  1  0
 36 37  2  0
 34 38  1  0
 38 39  1  0
 38 40  1  0
  9  4  1  0
 20 15  1  0
 26  6  1  0
 37 32  1  0
M  END
$$$$
