
     RDKit          3D

 40 43  0  0  0  0  0  0  0  0999 V2000
  -25.3016  -40.6171  -11.1917 C   0  0  0  0  0  0  0  0  0  0  0  0
  -24.9706  -39.4870  -10.4708 O   0  0  0  0  0  0  0  0  0  0  0  0
  -23.6814  -39.1139  -10.7379 C   0  0  0  0  0  0  0  0  0  0  0  0
  -22.7217  -39.4128   -9.6406 C   0  0  0  0  0  0  0  0  0  0  0  0
  -23.0641  -40.1362   -8.5325 C   0  0  0  0  0  0  0  0  0  0  0  0
  -22.1428  -40.4415   -7.4875 C   0  0  0  0  0  0  0  0  0  0  0  0
  -20.8415  -39.9876   -7.5979 C   0  0  0  0  0  0  0  0  0  0  0  0
  -20.4439  -39.2606   -8.6896 C   0  0  0  0  0  0  0  0  0  0  0  0
  -21.4247  -38.9943   -9.6906 C   0  0  0  0  0  0  0  0  0  0  0  0
  -19.1552  -38.6940   -9.0962 C   0  0  0  0  0  0  0  0  0  0  0  0
  -19.2028  -37.4769   -9.6629 O   0  0  0  0  0  0  0  0  0  0  0  0
  -17.8158  -39.1150   -9.0490 N   0  0  0  0  0  0  0  0  0  0  0  0
  -16.9964  -39.3969   -7.8551 C   0  0  1  0  0  0  0  0  0  0  0  0
  -16.3233  -40.7604   -7.9576 C   0  0  0  0  0  0  0  0  0  0  0  0
  -16.9435  -41.8332   -7.1325 C   0  0  0  0  0  0  0  0  0  0  0  0
  -18.2185  -42.3279   -7.1824 C   0  0  0  0  0  0  0  0  0  0  0  0
  -18.5630  -43.2616   -6.2266 C   0  0  0  0  0  0  0  0  0  0  0  0
  -17.6672  -43.7014   -5.2588 C   0  0  0  0  0  0  0  0  0  0  0  0
  -16.3755  -43.2298   -5.1838 C   0  0  0  0  0  0  0  0  0  0  0  0
  -16.0535  -42.2962   -6.1369 C   0  0  0  0  0  0  0  0  0  0  0  0
  -19.8335  -43.8988   -6.0575 O   0  0  0  0  0  0  0  0  0  0  0  0
  -21.0697  -43.2084   -5.9888 C   0  0  0  0  0  0  0  0  0  0  0  0
  -22.0654  -43.8574   -5.1116 C   0  0  0  0  0  0  0  0  0  0  0  0
  -23.3007  -42.9559   -4.9990 C   0  0  0  0  0  0  0  0  0  0  0  0
  -22.9219  -41.4947   -5.2266 C   0  0  0  0  0  0  0  0  0  0  0  0
  -22.7647  -41.1767   -6.5229 O   0  0  0  0  0  0  0  0  0  0  0  0
  -15.9885  -38.2685   -7.8121 C   0  0  2  0  0  0  0  0  0  0  0  0
  -15.0588  -38.4444   -6.8186 O   0  0  0  0  0  0  0  0  0  0  0  0
  -16.5132  -36.8941   -7.9092 C   0  0  0  0  0  0  0  0  0  0  0  0
  -17.0926  -36.4421   -9.0971 N   0  0  0  0  0  0  0  0  0  0  0  0
  -17.2917  -37.2954  -10.1974 C   0  0  0  0  0  0  0  0  0  0  0  0
  -16.2012  -37.3793  -11.1814 C   0  0  0  0  0  0  0  0  0  0  0  0
  -15.1742  -36.4801  -11.1434 C   0  0  0  0  0  0  0  0  0  0  0  0
  -14.0968  -36.4795  -12.0047 C   0  0  0  0  0  0  0  0  0  0  0  0
  -14.0685  -37.4593  -12.9644 C   0  0  0  0  0  0  0  0  0  0  0  0
  -15.0993  -38.3959  -13.0366 C   0  0  0  0  0  0  0  0  0  0  0  0
  -16.1515  -38.3568  -12.1579 C   0  0  0  0  0  0  0  0  0  0  0  0
  -13.0634  -35.4423  -11.8701 C   0  0  0  0  0  0  0  0  0  0  0  0
  -13.4157  -34.5508  -10.6822 C   0  0  0  0  0  0  0  0  0  0  0  0
  -12.7766  -34.6418  -13.0950 C   0  0  0  0  0  0  0  0  0  0  0  0
  1  2  1  0
  2  3  1  0
  3  4  1  0
  4  5  2  0
  5  6  1  0
  6  7  2  0
  7  8  1  0
  8  9  2  0
  8 10  1  0
 10 11  2  0
 10 12  1  0
 12 13  1  0
 13 14  1  6
 14 15  1  0
 15 16  2  0
 16 17  1  0
 17 18  2  0
 18 19  1  0
 19 20  2  0
 17 21  1  0
 21 22  1  0
 22 23  1  0
 23 24  1  0
 24 25  1  0
 25 26  1  0
 13 27  1  0
 27 28  1  1
 27 29  1  0
 29 30  1  0
 30 31  1  0
 31 32  1  0
 32 33  2  0
 33 34  1  0
 34 35  2  0
 35 36  1  0
 36 37  2  0
 34 38  1  0
 38 39  1  0
 38 40  1  0
  9  4  1  0
 20 15  1  0
 26  6  1  0
 37 32  1  0
M  END
$$$$
