
     RDKit          3D

 40 43  0  0  0  0  0  0  0  0999 V2000
  -20.9991  -41.7238   -1.8255 C   0  0  0  0  0  0  0  0  0  0  0  0
  -21.1784  -42.3170   -3.0594 O   0  0  0  0  0  0  0  0  0  0  0  0
  -22.0884  -41.6107   -3.7981 C   0  0  0  0  0  0  0  0  0  0  0  0
  -21.5623  -41.1136   -5.0981 C   0  0  0  0  0  0  0  0  0  0  0  0
  -22.2683  -40.2708   -5.9103 C   0  0  0  0  0  0  0  0  0  0  0  0
  -21.7604  -39.7763   -7.1480 C   0  0  0  0  0  0  0  0  0  0  0  0
  -20.4948  -40.1642   -7.5472 C   0  0  0  0  0  0  0  0  0  0  0  0
  -19.7424  -41.0052   -6.7693 C   0  0  0  0  0  0  0  0  0  0  0  0
  -20.3216  -41.4587   -5.5470 C   0  0  0  0  0  0  0  0  0  0  0  0
  -18.3869  -41.5448   -6.9048 C   0  0  0  0  0  0  0  0  0  0  0  0
  -18.2270  -42.8270   -6.5372 O   0  0  0  0  0  0  0  0  0  0  0  0
  -17.1476  -41.0439   -7.3369 N   0  0  0  0  0  0  0  0  0  0  0  0
  -16.7860  -40.5588   -8.6824 C   0  0  1  0  0  0  0  0  0  0  0  0
  -16.1315  -39.1841   -8.6155 C   0  0  0  0  0  0  0  0  0  0  0  0
  -17.0058  -38.0493   -9.0207 C   0  0  0  0  0  0  0  0  0  0  0  0
  -18.1925  -37.6408   -8.4752 C   0  0  0  0  0  0  0  0  0  0  0  0
  -18.8507  -36.6102   -9.1145 C   0  0  0  0  0  0  0  0  0  0  0  0
  -18.3419  -35.9944  -10.2523 C   0  0  0  0  0  0  0  0  0  0  0  0
  -17.1482  -36.3758  -10.8233 C   0  0  0  0  0  0  0  0  0  0  0  0
  -16.5121  -37.4072  -10.1790 C   0  0  0  0  0  0  0  0  0  0  0  0
  -20.1091  -36.0313   -8.7538 O   0  0  0  0  0  0  0  0  0  0  0  0
  -21.2882  -36.7773   -8.5030 C   0  0  0  0  0  0  0  0  0  0  0  0
  -22.5292  -36.0768   -8.8920 C   0  0  0  0  0  0  0  0  0  0  0  0
  -23.7203  -37.0258   -8.7130 C   0  0  0  0  0  0  0  0  0  0  0  0
  -23.2724  -38.4797   -8.8393 C   0  0  0  0  0  0  0  0  0  0  0  0
  -22.6805  -38.9572   -7.7312 O   0  0  0  0  0  0  0  0  0  0  0  0
  -15.8418  -41.6109   -9.2235 C   0  0  2  0  0  0  0  0  0  0  0  0
  -15.5652  -41.4211  -10.5538 O   0  0  0  0  0  0  0  0  0  0  0  0
  -16.1176  -43.0128   -8.8600 C   0  0  0  0  0  0  0  0  0  0  0  0
  -16.7203  -43.8749   -9.7789 N   0  0  0  0  0  0  0  0  0  0  0  0
  -16.9045  -45.2420   -9.5038 C   0  0  0  0  0  0  0  0  0  0  0  0
  -18.1524  -45.6226   -8.8239 C   0  0  0  0  0  0  0  0  0  0  0  0
  -19.3430  -45.0923   -9.2312 C   0  0  0  0  0  0  0  0  0  0  0  0
  -20.5694  -45.3936   -8.6762 C   0  0  0  0  0  0  0  0  0  0  0  0
  -20.5782  -46.2929   -7.6404 C   0  0  0  0  0  0  0  0  0  0  0  0
  -19.3827  -46.8561   -7.1947 C   0  0  0  0  0  0  0  0  0  0  0  0
  -18.1861  -46.5258   -7.7776 C   0  0  0  0  0  0  0  0  0  0  0  0
  -21.7791  -44.7383   -9.1951 C   0  0  0  0  0  0  0  0  0  0  0  0
  -22.1848  -45.4202  -10.4990 C   0  0  0  0  0  0  0  0  0  0  0  0
  -21.7066  -43.2567   -9.3464 C   0  0  0  0  0  0  0  0  0  0  0  0
  1  2  1  0
  2  3  1  0
  3  4  1  0
  4  5  2  0
  5  6  1  0
  6  7  2  0
  7  8  1  0
  8  9  2  0
  8 10  1  0
 10 11  2  0
 10 12  1  0
 12 13  1  0
 13 14  1  1
 14 15  1  0
 15 16  2  0
 16 17  1  0
 17 18  2  0
 18 19  1  0
 19 20  2  0
 17 21  1  0
 21 22  1  0
 22 23  1  0
 23 24  1  0
 24 25  1  0
 25 26  1  0
 13 27  1  0
 27 28  1  6
 27 29  1  0
 29 30  1  0
 30 31  1  0
 31 32  1  0
 32 33  2  0
 33 34  1  0
 34 35  2  0
 35 36  1  0
 36 37  2  0
 34 38  1  0
 38 39  1  0
 38 40  1  0
  9  4  1  0
 20 15  1  0
 26  6  1  0
 37 32  1  0
M  END
$$$$
