
     RDKit          3D

 40 43  0  0  0  0  0  0  0  0999 V2000
  -18.5140  -46.8967   -4.7643 C   0  0  0  0  0  0  0  0  0  0  0  0
  -18.6268  -47.3415   -6.0666 O   0  0  0  0  0  0  0  0  0  0  0  0
  -17.8837  -46.5540   -6.9034 C   0  0  0  0  0  0  0  0  0  0  0  0
  -18.5331  -45.2639   -7.2611 C   0  0  0  0  0  0  0  0  0  0  0  0
  -19.8896  -45.1111   -7.3321 C   0  0  0  0  0  0  0  0  0  0  0  0
  -20.5170  -43.8718   -7.6556 C   0  0  0  0  0  0  0  0  0  0  0  0
  -19.7191  -42.7713   -7.9083 C   0  0  0  0  0  0  0  0  0  0  0  0
  -18.3534  -42.8680   -7.8477 C   0  0  0  0  0  0  0  0  0  0  0  0
  -17.8019  -44.1423   -7.5204 C   0  0  0  0  0  0  0  0  0  0  0  0
  -17.2747  -41.8914   -8.0200 C   0  0  0  0  0  0  0  0  0  0  0  0
  -16.1893  -42.3275   -8.6806 O   0  0  0  0  0  0  0  0  0  0  0  0
  -17.0680  -40.5514   -7.6522 N   0  0  0  0  0  0  0  0  0  0  0  0
  -17.8305  -39.3652   -8.0855 C   0  0  1  0  0  0  0  0  0  0  0  0
  -18.2721  -38.5272   -6.8916 C   0  0  0  0  0  0  0  0  0  0  0  0
  -19.7088  -38.6599   -6.5252 C   0  0  0  0  0  0  0  0  0  0  0  0
  -20.3996  -39.7784   -6.1451 C   0  0  0  0  0  0  0  0  0  0  0  0
  -21.7593  -39.6377   -5.9566 C   0  0  0  0  0  0  0  0  0  0  0  0
  -22.4125  -38.4224   -6.1270 C   0  0  0  0  0  0  0  0  0  0  0  0
  -21.7475  -37.2764   -6.5023 C   0  0  0  0  0  0  0  0  0  0  0  0
  -20.3979  -37.4373   -6.6931 C   0  0  0  0  0  0  0  0  0  0  0  0
  -22.6922  -40.6587   -5.5880 O   0  0  0  0  0  0  0  0  0  0  0  0
  -22.7996  -41.9140   -6.2379 C   0  0  0  0  0  0  0  0  0  0  0  0
  -24.1735  -42.4562   -6.2608 C   0  0  0  0  0  0  0  0  0  0  0  0
  -24.1963  -43.7344   -7.1078 C   0  0  0  0  0  0  0  0  0  0  0  0
  -23.0783  -43.7101   -8.1470 C   0  0  0  0  0  0  0  0  0  0  0  0
  -21.8716  -44.0225   -7.6447 O   0  0  0  0  0  0  0  0  0  0  0  0
  -16.8773  -38.6104   -8.9870 C   0  0  2  0  0  0  0  0  0  0  0  0
  -17.0867  -37.2553   -8.9405 O   0  0  0  0  0  0  0  0  0  0  0  0
  -16.6748  -39.1420  -10.3471 C   0  0  0  0  0  0  0  0  0  0  0  0
  -15.6940  -40.1066  -10.5893 N   0  0  0  0  0  0  0  0  0  0  0  0
  -14.7552  -39.9662  -11.6272 C   0  0  0  0  0  0  0  0  0  0  0  0
  -13.4523  -39.3822  -11.2727 C   0  0  0  0  0  0  0  0  0  0  0  0
  -13.2461  -38.0387  -11.4031 C   0  0  0  0  0  0  0  0  0  0  0  0
  -12.0723  -37.3882  -11.0837 C   0  0  0  0  0  0  0  0  0  0  0  0
  -11.0460  -38.1601  -10.6013 C   0  0  0  0  0  0  0  0  0  0  0  0
  -11.2170  -39.5364  -10.4544 C   0  0  0  0  0  0  0  0  0  0  0  0
  -12.4032  -40.1398  -10.7856 C   0  0  0  0  0  0  0  0  0  0  0  0
  -11.9712  -35.9357  -11.2883 C   0  0  0  0  0  0  0  0  0  0  0  0
  -11.5654  -35.2823   -9.9699 C   0  0  0  0  0  0  0  0  0  0  0  0
  -13.1661  -35.2747  -11.8871 C   0  0  0  0  0  0  0  0  0  0  0  0
  1  2  1  0
  2  3  1  0
  3  4  1  0
  4  5  2  0
  5  6  1  0
  6  7  2  0
  7  8  1  0
  8  9  2  0
  8 10  1  0
 10 11  2  0
 10 12  1  0
 12 13  1  0
 13 14  1  1
 14 15  1  0
 15 16  2  0
 16 17  1  0
 17 18  2  0
 18 19  1  0
 19 20  2  0
 17 21  1  0
 21 22  1  0
 22 23  1  0
 23 24  1  0
 24 25  1  0
 25 26  1  0
 13 27  1  0
 27 28  1  6
 27 29  1  0
 29 30  1  0
 30 31  1  0
 31 32  1  0
 32 33  2  0
 33 34  1  0
 34 35  2  0
 35 36  1  0
 36 37  2  0
 34 38  1  0
 38 39  1  0
 38 40  1  0
  9  4  1  0
 20 15  1  0
 26  6  1  0
 37 32  1  0
M  END
$$$$
