
     RDKit          3D

 40 43  0  0  0  0  0  0  0  0999 V2000
  -16.8627  -47.0407   -5.3407 C   0  0  0  0  0  0  0  0  0  0  0  0
  -16.3514  -46.5104   -6.5085 O   0  0  0  0  0  0  0  0  0  0  0  0
  -17.2727  -46.6041   -7.5159 C   0  0  0  0  0  0  0  0  0  0  0  0
  -18.0772  -45.3693   -7.7216 C   0  0  0  0  0  0  0  0  0  0  0  0
  -19.4305  -45.3893   -7.9132 C   0  0  0  0  0  0  0  0  0  0  0  0
  -20.2085  -44.2073   -8.0915 C   0  0  0  0  0  0  0  0  0  0  0  0
  -19.5675  -42.9824   -8.0684 C   0  0  0  0  0  0  0  0  0  0  0  0
  -18.2127  -42.9048   -7.8765 C   0  0  0  0  0  0  0  0  0  0  0  0
  -17.5045  -44.1317   -7.7087 C   0  0  0  0  0  0  0  0  0  0  0  0
  -17.2832  -41.7775   -7.7649 C   0  0  0  0  0  0  0  0  0  0  0  0
  -16.0930  -41.9375   -8.3670 O   0  0  0  0  0  0  0  0  0  0  0  0
  -17.3126  -40.5109   -7.1581 N   0  0  0  0  0  0  0  0  0  0  0  0
  -18.2065  -39.3788   -7.4675 C   0  0  1  0  0  0  0  0  0  0  0  0
  -18.8678  -38.8375   -6.2056 C   0  0  0  0  0  0  0  0  0  0  0  0
  -20.2936  -39.2255   -6.0251 C   0  0  0  0  0  0  0  0  0  0  0  0
  -20.8370  -40.4766   -5.9146 C   0  0  0  0  0  0  0  0  0  0  0  0
  -22.2133  -40.5557   -5.8543 C   0  0  0  0  0  0  0  0  0  0  0  0
  -23.0259  -39.4283   -5.8894 C   0  0  0  0  0  0  0  0  0  0  0  0
  -22.5124  -38.1548   -5.9933 C   0  0  0  0  0  0  0  0  0  0  0  0
  -21.1428  -38.0962   -6.0603 C   0  0  0  0  0  0  0  0  0  0  0  0
  -23.0089  -41.7422   -5.7653 O   0  0  0  0  0  0  0  0  0  0  0  0
  -22.8709  -42.8621   -6.6235 C   0  0  0  0  0  0  0  0  0  0  0  0
  -24.1404  -43.5702   -6.8861 C   0  0  0  0  0  0  0  0  0  0  0  0
  -23.8991  -44.6653   -7.9320 C   0  0  0  0  0  0  0  0  0  0  0  0
  -22.7146  -44.3038   -8.8247 C   0  0  0  0  0  0  0  0  0  0  0  0
  -21.5210  -44.5376   -8.2533 O   0  0  0  0  0  0  0  0  0  0  0  0
  -17.3060  -38.3526   -8.1210 C   0  0  2  0  0  0  0  0  0  0  0  0
  -17.9975  -37.2343   -8.5132 O   0  0  0  0  0  0  0  0  0  0  0  0
  -16.3402  -38.8446   -9.1204 C   0  0  0  0  0  0  0  0  0  0  0  0
  -16.6688  -38.8470  -10.4780 N   0  0  0  0  0  0  0  0  0  0  0  0
  -16.1671  -39.8200  -11.3612 C   0  0  0  0  0  0  0  0  0  0  0  0
  -14.7940  -39.6285  -11.8535 C   0  0  0  0  0  0  0  0  0  0  0  0
  -14.1648  -38.4294  -11.6774 C   0  0  0  0  0  0  0  0  0  0  0  0
  -12.8764  -38.1500  -12.0834 C   0  0  0  0  0  0  0  0  0  0  0  0
  -12.1895  -39.1596  -12.7084 C   0  0  0  0  0  0  0  0  0  0  0  0
  -12.7978  -40.3986  -12.9078 C   0  0  0  0  0  0  0  0  0  0  0  0
  -14.0822  -40.6304  -12.4868 C   0  0  0  0  0  0  0  0  0  0  0  0
  -12.3191  -36.8094  -11.8506 C   0  0  0  0  0  0  0  0  0  0  0  0
  -11.2586  -36.9028  -10.7567 C   0  0  0  0  0  0  0  0  0  0  0  0
  -13.3082  -35.7295  -11.5696 C   0  0  0  0  0  0  0  0  0  0  0  0
  1  2  1  0
  2  3  1  0
  3  4  1  0
  4  5  2  0
  5  6  1  0
  6  7  2  0
  7  8  1  0
  8  9  2  0
  8 10  1  0
 10 11  2  0
 10 12  1  0
 12 13  1  0
 13 14  1  1
 14 15  1  0
 15 16  2  0
 16 17  1  0
 17 18  2  0
 18 19  1  0
 19 20  2  0
 17 21  1  0
 21 22  1  0
 22 23  1  0
 23 24  1  0
 24 25  1  0
 25 26  1  0
 13 27  1  0
 27 28  1  6
 27 29  1  0
 29 30  1  0
 30 31  1  0
 31 32  1  0
 32 33  2  0
 33 34  1  0
 34 35  2  0
 35 36  1  0
 36 37  2  0
 34 38  1  0
 38 39  1  0
 38 40  1  0
  9  4  1  0
 20 15  1  0
 26  6  1  0
 37 32  1  0
M  END
$$$$
