
     RDKit          3D

 40 43  0  0  0  0  0  0  0  0999 V2000
  -17.6719  -48.6836   -6.5930 C   0  0  0  0  0  0  0  0  0  0  0  0
  -17.0908  -47.5214   -6.1261 O   0  0  0  0  0  0  0  0  0  0  0  0
  -17.9758  -46.8281   -5.3460 C   0  0  0  0  0  0  0  0  0  0  0  0
  -18.5778  -45.6430   -6.0149 C   0  0  0  0  0  0  0  0  0  0  0  0
  -19.8623  -45.6281   -6.4822 C   0  0  0  0  0  0  0  0  0  0  0  0
  -20.4497  -44.4883   -7.1066 C   0  0  0  0  0  0  0  0  0  0  0  0
  -19.6880  -43.3429   -7.2460 C   0  0  0  0  0  0  0  0  0  0  0  0
  -18.3955  -43.3023   -6.7921 C   0  0  0  0  0  0  0  0  0  0  0  0
  -17.8792  -44.4837   -6.1817 C   0  0  0  0  0  0  0  0  0  0  0  0
  -17.3808  -42.2456   -6.7618 C   0  0  0  0  0  0  0  0  0  0  0  0
  -16.1238  -42.6321   -7.0362 O   0  0  0  0  0  0  0  0  0  0  0  0
  -17.3795  -40.8647   -6.5036 N   0  0  0  0  0  0  0  0  0  0  0  0
  -18.0606  -39.8002   -7.2648 C   0  0  1  0  0  0  0  0  0  0  0  0
  -18.8846  -38.9062   -6.3459 C   0  0  0  0  0  0  0  0  0  0  0  0
  -20.3537  -39.1434   -6.3870 C   0  0  0  0  0  0  0  0  0  0  0  0
  -21.0490  -40.2851   -6.0940 C   0  0  0  0  0  0  0  0  0  0  0  0
  -22.4110  -40.2595   -6.3137 C   0  0  0  0  0  0  0  0  0  0  0  0
  -23.0660  -39.1325   -6.7969 C   0  0  0  0  0  0  0  0  0  0  0  0
  -22.3985  -37.9656   -7.0956 C   0  0  0  0  0  0  0  0  0  0  0  0
  -21.0441  -38.0123   -6.8787 C   0  0  0  0  0  0  0  0  0  0  0  0
  -23.3406  -41.3289   -6.1110 O   0  0  0  0  0  0  0  0  0  0  0  0
  -23.1708  -42.6412   -6.6195 C   0  0  0  0  0  0  0  0  0  0  0  0
  -24.4395  -43.3128   -6.9679 C   0  0  0  0  0  0  0  0  0  0  0  0
  -24.1302  -44.6571   -7.6377 C   0  0  0  0  0  0  0  0  0  0  0  0
  -22.7628  -44.6175   -8.3154 C   0  0  0  0  0  0  0  0  0  0  0  0
  -21.7360  -44.7670   -7.4613 O   0  0  0  0  0  0  0  0  0  0  0  0
  -16.9390  -39.0400   -7.9396 C   0  0  2  0  0  0  0  0  0  0  0  0
  -17.3983  -37.9452   -8.6272 O   0  0  0  0  0  0  0  0  0  0  0  0
  -15.9345  -39.8329   -8.6716 C   0  0  0  0  0  0  0  0  0  0  0  0
  -14.6967  -39.2748   -8.9991 N   0  0  0  0  0  0  0  0  0  0  0  0
  -14.5820  -37.9652   -9.4995 C   0  0  0  0  0  0  0  0  0  0  0  0
  -14.6728  -37.7991  -10.9584 C   0  0  0  0  0  0  0  0  0  0  0  0
  -13.6418  -37.2276  -11.6477 C   0  0  0  0  0  0  0  0  0  0  0  0
  -13.6169  -37.0409  -13.0142 C   0  0  0  0  0  0  0  0  0  0  0  0
  -14.7148  -37.4648  -13.7190 C   0  0  0  0  0  0  0  0  0  0  0  0
  -15.7888  -38.0527  -13.0512 C   0  0  0  0  0  0  0  0  0  0  0  0
  -15.7690  -38.2175  -11.6899 C   0  0  0  0  0  0  0  0  0  0  0  0
  -12.4515  -36.3941  -13.6350 C   0  0  0  0  0  0  0  0  0  0  0  0
  -11.7248  -37.4204  -14.5002 C   0  0  0  0  0  0  0  0  0  0  0  0
  -11.5180  -35.6963  -12.7050 C   0  0  0  0  0  0  0  0  0  0  0  0
  1  2  1  0
  2  3  1  0
  3  4  1  0
  4  5  2  0
  5  6  1  0
  6  7  2  0
  7  8  1  0
  8  9  2  0
  8 10  1  0
 10 11  2  0
 10 12  1  0
 12 13  1  0
 13 14  1  1
 14 15  1  0
 15 16  2  0
 16 17  1  0
 17 18  2  0
 18 19  1  0
 19 20  2  0
 17 21  1  0
 21 22  1  0
 22 23  1  0
 23 24  1  0
 24 25  1  0
 25 26  1  0
 13 27  1  0
 27 28  1  6
 27 29  1  0
 29 30  1  0
 30 31  1  0
 31 32  1  0
 32 33  2  0
 33 34  1  0
 34 35  2  0
 35 36  1  0
 36 37  2  0
 34 38  1  0
 38 39  1  0
 38 40  1  0
  9  4  1  0
 20 15  1  0
 26  6  1  0
 37 32  1  0
M  END
$$$$
