
     RDKit          3D

 40 43  0  0  0  0  0  0  0  0999 V2000
  -14.8004  -45.2807   -8.4407 C   0  0  0  0  0  0  0  0  0  0  0  0
  -15.8323  -46.1247   -8.8003 O   0  0  0  0  0  0  0  0  0  0  0  0
  -16.4844  -45.6358   -9.8996 C   0  0  0  0  0  0  0  0  0  0  0  0
  -17.4051  -44.5039   -9.6076 C   0  0  0  0  0  0  0  0  0  0  0  0
  -18.7490  -44.5595   -9.8507 C   0  0  0  0  0  0  0  0  0  0  0  0
  -19.6383  -43.4845   -9.5546 C   0  0  0  0  0  0  0  0  0  0  0  0
  -19.1205  -42.3315   -8.9941 C   0  0  0  0  0  0  0  0  0  0  0  0
  -17.7806  -42.2237   -8.7267 C   0  0  0  0  0  0  0  0  0  0  0  0
  -16.9564  -43.3411   -9.0541 C   0  0  0  0  0  0  0  0  0  0  0  0
  -16.9666  -41.1710   -8.1135 C   0  0  0  0  0  0  0  0  0  0  0  0
  -15.7638  -40.9593   -8.6733 O   0  0  0  0  0  0  0  0  0  0  0  0
  -17.1225  -40.2834   -7.0358 N   0  0  0  0  0  0  0  0  0  0  0  0
  -18.1216  -39.2086   -6.8848 C   0  0  1  0  0  0  0  0  0  0  0  0
  -18.8381  -39.3063   -5.5433 C   0  0  0  0  0  0  0  0  0  0  0  0
  -20.2198  -39.8569   -5.6052 C   0  0  0  0  0  0  0  0  0  0  0  0
  -20.6385  -41.0811   -6.0511 C   0  0  0  0  0  0  0  0  0  0  0  0
  -22.0007  -41.2978   -6.0912 C   0  0  0  0  0  0  0  0  0  0  0  0
  -22.9197  -40.3351   -5.6895 C   0  0  0  0  0  0  0  0  0  0  0  0
  -22.5330  -39.0960   -5.2297 C   0  0  0  0  0  0  0  0  0  0  0  0
  -21.1754  -38.8956   -5.2045 C   0  0  0  0  0  0  0  0  0  0  0  0
  -22.6767  -42.4766   -6.5409 O   0  0  0  0  0  0  0  0  0  0  0  0
  -22.4259  -43.1165   -7.7807 C   0  0  0  0  0  0  0  0  0  0  0  0
  -23.6189  -43.7569   -8.3714 C   0  0  0  0  0  0  0  0  0  0  0  0
  -23.2669  -44.2868   -9.7667 C   0  0  0  0  0  0  0  0  0  0  0  0
  -22.1198  -43.4826  -10.3731 C   0  0  0  0  0  0  0  0  0  0  0  0
  -20.9114  -43.8294   -9.8983 O   0  0  0  0  0  0  0  0  0  0  0  0
  -17.3232  -37.9287   -7.0097 C   0  0  2  0  0  0  0  0  0  0  0  0
  -17.8500  -36.9155   -6.2493 O   0  0  0  0  0  0  0  0  0  0  0  0
  -16.9215  -37.5165   -8.3670 C   0  0  0  0  0  0  0  0  0  0  0  0
  -15.5855  -37.6045   -8.7650 N   0  0  0  0  0  0  0  0  0  0  0  0
  -14.9557  -38.8434   -8.9815 C   0  0  0  0  0  0  0  0  0  0  0  0
  -14.8884  -39.3229  -10.3707 C   0  0  0  0  0  0  0  0  0  0  0  0
  -14.7963  -38.4297  -11.3995 C   0  0  0  0  0  0  0  0  0  0  0  0
  -14.7103  -38.7718  -12.7330 C   0  0  0  0  0  0  0  0  0  0  0  0
  -14.7194  -40.1104  -13.0326 C   0  0  0  0  0  0  0  0  0  0  0  0
  -14.8131  -41.0540  -12.0100 C   0  0  0  0  0  0  0  0  0  0  0  0
  -14.8969  -40.6665  -10.6971 C   0  0  0  0  0  0  0  0  0  0  0  0
  -14.6342  -37.7112  -13.7486 C   0  0  0  0  0  0  0  0  0  0  0  0
  -13.1861  -37.2414  -13.8589 C   0  0  0  0  0  0  0  0  0  0  0  0
  -15.5737  -36.5670  -13.5711 C   0  0  0  0  0  0  0  0  0  0  0  0
  1  2  1  0
  2  3  1  0
  3  4  1  0
  4  5  2  0
  5  6  1  0
  6  7  2  0
  7  8  1  0
  8  9  2  0
  8 10  1  0
 10 11  2  0
 10 12  1  0
 12 13  1  0
 13 14  1  1
 14 15  1  0
 15 16  2  0
 16 17  1  0
 17 18  2  0
 18 19  1  0
 19 20  2  0
 17 21  1  0
 21 22  1  0
 22 23  1  0
 23 24  1  0
 24 25  1  0
 25 26  1  0
 13 27  1  0
 27 28  1  6
 27 29  1  0
 29 30  1  0
 30 31  1  0
 31 32  1  0
 32 33  2  0
 33 34  1  0
 34 35  2  0
 35 36  1  0
 36 37  2  0
 34 38  1  0
 38 39  1  0
 38 40  1  0
  9  4  1  0
 20 15  1  0
 26  6  1  0
 37 32  1  0
M  END
$$$$
