
     RDKit          3D

 40 43  0  0  0  0  0  0  0  0999 V2000
  -16.6389  -48.0269   -6.5161 C   0  0  0  0  0  0  0  0  0  0  0  0
  -17.9753  -47.7249   -6.6871 O   0  0  0  0  0  0  0  0  0  0  0  0
  -18.3923  -46.8514   -5.7197 C   0  0  0  0  0  0  0  0  0  0  0  0
  -18.9472  -45.5764   -6.2495 C   0  0  0  0  0  0  0  0  0  0  0  0
  -20.2873  -45.3615   -6.4118 C   0  0  0  0  0  0  0  0  0  0  0  0
  -20.8248  -44.1343   -6.9009 C   0  0  0  0  0  0  0  0  0  0  0  0
  -19.9527  -43.1117   -7.2255 C   0  0  0  0  0  0  0  0  0  0  0  0
  -18.5996  -43.2726   -7.0790 C   0  0  0  0  0  0  0  0  0  0  0  0
  -18.1400  -44.5301   -6.5866 C   0  0  0  0  0  0  0  0  0  0  0  0
  -17.4588  -42.3787   -7.2949 C   0  0  0  0  0  0  0  0  0  0  0  0
  -16.3691  -42.9413   -7.8435 O   0  0  0  0  0  0  0  0  0  0  0  0
  -17.1931  -41.0190   -7.0622 N   0  0  0  0  0  0  0  0  0  0  0  0
  -17.8629  -39.8495   -7.6621 C   0  0  1  0  0  0  0  0  0  0  0  0
  -18.3137  -38.8630   -6.5916 C   0  0  0  0  0  0  0  0  0  0  0  0
  -19.7721  -38.8790   -6.2935 C   0  0  0  0  0  0  0  0  0  0  0  0
  -20.5448  -39.9111   -5.8345 C   0  0  0  0  0  0  0  0  0  0  0  0
  -21.9016  -39.6794   -5.7381 C   0  0  0  0  0  0  0  0  0  0  0  0
  -22.4739  -38.4579   -6.0741 C   0  0  0  0  0  0  0  0  0  0  0  0
  -21.7256  -37.3966   -6.5327 C   0  0  0  0  0  0  0  0  0  0  0  0
  -20.3798  -37.6480   -6.6298 C   0  0  0  0  0  0  0  0  0  0  0  0
  -22.9094  -40.6033   -5.3145 O   0  0  0  0  0  0  0  0  0  0  0  0
  -23.0572  -41.9153   -5.8308 C   0  0  0  0  0  0  0  0  0  0  0  0
  -24.4575  -42.3840   -5.8717 C   0  0  0  0  0  0  0  0  0  0  0  0
  -24.5125  -43.7448   -6.5765 C   0  0  0  0  0  0  0  0  0  0  0  0
  -23.3448  -43.8939   -7.5486 C   0  0  0  0  0  0  0  0  0  0  0  0
  -22.1848  -44.2118   -6.9492 O   0  0  0  0  0  0  0  0  0  0  0  0
  -16.8239  -39.2497   -8.5850 C   0  0  2  0  0  0  0  0  0  0  0  0
  -17.3440  -38.2497   -9.3671 O   0  0  0  0  0  0  0  0  0  0  0  0
  -15.9474  -40.1873   -9.3105 C   0  0  0  0  0  0  0  0  0  0  0  0
  -14.6106  -40.3384   -8.9348 N   0  0  0  0  0  0  0  0  0  0  0  0
  -13.6042  -40.6289   -9.8734 C   0  0  0  0  0  0  0  0  0  0  0  0
  -13.5796  -39.8138  -11.0979 C   0  0  0  0  0  0  0  0  0  0  0  0
  -13.2071  -38.5013  -11.0391 C   0  0  0  0  0  0  0  0  0  0  0  0
  -13.1331  -37.6552  -12.1260 C   0  0  0  0  0  0  0  0  0  0  0  0
  -13.4606  -38.1843  -13.3485 C   0  0  0  0  0  0  0  0  0  0  0  0
  -13.8469  -39.5205  -13.4500 C   0  0  0  0  0  0  0  0  0  0  0  0
  -13.9062  -40.3245  -12.3405 C   0  0  0  0  0  0  0  0  0  0  0  0
  -12.7349  -36.2539  -11.9262 C   0  0  0  0  0  0  0  0  0  0  0  0
  -13.9918  -35.3887  -11.8838 C   0  0  0  0  0  0  0  0  0  0  0  0
  -11.7275  -35.7170  -12.8855 C   0  0  0  0  0  0  0  0  0  0  0  0
  1  2  1  0
  2  3  1  0
  3  4  1  0
  4  5  2  0
  5  6  1  0
  6  7  2  0
  7  8  1  0
  8  9  2  0
  8 10  1  0
 10 11  2  0
 10 12  1  0
 12 13  1  0
 13 14  1  1
 14 15  1  0
 15 16  2  0
 16 17  1  0
 17 18  2  0
 18 19  1  0
 19 20  2  0
 17 21  1  0
 21 22  1  0
 22 23  1  0
 23 24  1  0
 24 25  1  0
 25 26  1  0
 13 27  1  0
 27 28  1  6
 27 29  1  0
 29 30  1  0
 30 31  1  0
 31 32  1  0
 32 33  2  0
 33 34  1  0
 34 35  2  0
 35 36  1  0
 36 37  2  0
 34 38  1  0
 38 39  1  0
 38 40  1  0
  9  4  1  0
 20 15  1  0
 26  6  1  0
 37 32  1  0
M  END
$$$$
