
     RDKit          3D

 40 43  0  0  0  0  0  0  0  0999 V2000
  -15.5845  -46.2721  -13.0838 C   0  0  0  0  0  0  0  0  0  0  0  0
  -15.8324  -45.0342  -12.5246 O   0  0  0  0  0  0  0  0  0  0  0  0
  -17.0907  -44.6083  -12.8527 C   0  0  0  0  0  0  0  0  0  0  0  0
  -17.5008  -43.3462  -12.1794 C   0  0  0  0  0  0  0  0  0  0  0  0
  -18.4727  -42.5230  -12.6754 C   0  0  0  0  0  0  0  0  0  0  0  0
  -18.8825  -41.3224  -12.0236 C   0  0  0  0  0  0  0  0  0  0  0  0
  -18.2715  -40.9727  -10.8338 C   0  0  0  0  0  0  0  0  0  0  0  0
  -17.2932  -41.7638  -10.2902 C   0  0  0  0  0  0  0  0  0  0  0  0
  -16.9371  -42.9467  -11.0036 C   0  0  0  0  0  0  0  0  0  0  0  0
  -16.5124  -41.6778   -9.0533 C   0  0  0  0  0  0  0  0  0  0  0  0
  -15.2174  -42.0213   -9.1526 O   0  0  0  0  0  0  0  0  0  0  0  0
  -16.7799  -41.3155   -7.7226 N   0  0  0  0  0  0  0  0  0  0  0  0
  -17.2094  -40.0002   -7.2108 C   0  0  1  0  0  0  0  0  0  0  0  0
  -18.4367  -40.1304   -6.3167 C   0  0  0  0  0  0  0  0  0  0  0  0
  -19.7207  -39.7131   -6.9440 C   0  0  0  0  0  0  0  0  0  0  0  0
  -20.3351  -40.2130   -8.0600 C   0  0  0  0  0  0  0  0  0  0  0  0
  -21.4800  -39.5693   -8.4828 C   0  0  0  0  0  0  0  0  0  0  0  0
  -22.0073  -38.4714   -7.8127 C   0  0  0  0  0  0  0  0  0  0  0  0
  -21.4187  -37.9468   -6.6836 C   0  0  0  0  0  0  0  0  0  0  0  0
  -20.2770  -38.5946   -6.2828 C   0  0  0  0  0  0  0  0  0  0  0  0
  -22.2778  -39.8855   -9.6283 O   0  0  0  0  0  0  0  0  0  0  0  0
  -21.7611  -40.0636  -10.9364 C   0  0  0  0  0  0  0  0  0  0  0  0
  -22.6867  -39.6350  -12.0049 C   0  0  0  0  0  0  0  0  0  0  0  0
  -21.9739  -39.7359  -13.3588 C   0  0  0  0  0  0  0  0  0  0  0  0
  -20.4640  -39.5952  -13.1828 C   0  0  0  0  0  0  0  0  0  0  0  0
  -19.8677  -40.7174  -12.7457 O   0  0  0  0  0  0  0  0  0  0  0  0
  -16.0080  -39.4779   -6.4526 C   0  0  2  0  0  0  0  0  0  0  0  0
  -16.2327  -38.2315   -5.9249 O   0  0  0  0  0  0  0  0  0  0  0  0
  -14.6893  -39.6315   -7.0937 C   0  0  0  0  0  0  0  0  0  0  0  0
  -14.5242  -39.3346   -8.4485 N   0  0  0  0  0  0  0  0  0  0  0  0
  -13.4043  -39.7786   -9.1745 C   0  0  0  0  0  0  0  0  0  0  0  0
  -13.3409  -39.4052  -10.5960 C   0  0  0  0  0  0  0  0  0  0  0  0
  -13.1028  -38.1089  -10.9532 C   0  0  0  0  0  0  0  0  0  0  0  0
  -13.0064  -37.6559  -12.2526 C   0  0  0  0  0  0  0  0  0  0  0  0
  -13.1638  -38.5866  -13.2480 C   0  0  0  0  0  0  0  0  0  0  0  0
  -13.4093  -39.9206  -12.9240 C   0  0  0  0  0  0  0  0  0  0  0  0
  -13.4971  -40.3249  -11.6165 C   0  0  0  0  0  0  0  0  0  0  0  0
  -12.7648  -36.2276  -12.5049 C   0  0  0  0  0  0  0  0  0  0  0  0
  -12.5513  -35.5231  -11.1677 C   0  0  0  0  0  0  0  0  0  0  0  0
  -13.7837  -35.5293  -13.3401 C   0  0  0  0  0  0  0  0  0  0  0  0
  1  2  1  0
  2  3  1  0
  3  4  1  0
  4  5  2  0
  5  6  1  0
  6  7  2  0
  7  8  1  0
  8  9  2  0
  8 10  1  0
 10 11  2  0
 10 12  1  0
 12 13  1  0
 13 14  1  1
 14 15  1  0
 15 16  2  0
 16 17  1  0
 17 18  2  0
 18 19  1  0
 19 20  2  0
 17 21  1  0
 21 22  1  0
 22 23  1  0
 23 24  1  0
 24 25  1  0
 25 26  1  0
 13 27  1  0
 27 28  1  6
 27 29  1  0
 29 30  1  0
 30 31  1  0
 31 32  1  0
 32 33  2  0
 33 34  1  0
 34 35  2  0
 35 36  1  0
 36 37  2  0
 34 38  1  0
 38 39  1  0
 38 40  1  0
  9  4  1  0
 20 15  1  0
 26  6  1  0
 37 32  1  0
M  END
$$$$
