
     RDKit          3D

 40 43  0  0  0  0  0  0  0  0999 V2000
  -20.0696  -45.4973   -2.9238 C   0  0  0  0  0  0  0  0  0  0  0  0
  -19.8488  -44.1658   -2.6325 O   0  0  0  0  0  0  0  0  0  0  0  0
  -20.9372  -43.4155   -2.9861 C   0  0  0  0  0  0  0  0  0  0  0  0
  -20.8253  -42.7739   -4.3240 C   0  0  0  0  0  0  0  0  0  0  0  0
  -21.8011  -42.8697   -5.2763 C   0  0  0  0  0  0  0  0  0  0  0  0
  -21.7068  -42.2405   -6.5528 C   0  0  0  0  0  0  0  0  0  0  0  0
  -20.5779  -41.4970   -6.8433 C   0  0  0  0  0  0  0  0  0  0  0  0
  -19.5705  -41.3655   -5.9235 C   0  0  0  0  0  0  0  0  0  0  0  0
  -19.7381  -42.0272   -4.6708 C   0  0  0  0  0  0  0  0  0  0  0  0
  -18.3049  -40.6271   -5.9278 C   0  0  0  0  0  0  0  0  0  0  0  0
  -17.2569  -41.2572   -5.3715 O   0  0  0  0  0  0  0  0  0  0  0  0
  -17.8817  -39.3667   -6.3814 N   0  0  0  0  0  0  0  0  0  0  0  0
  -17.8543  -38.8655   -7.7686 C   0  0  1  0  0  0  0  0  0  0  0  0
  -18.5387  -37.5083   -7.8783 C   0  0  0  0  0  0  0  0  0  0  0  0
  -19.9014  -37.5360   -8.4770 C   0  0  0  0  0  0  0  0  0  0  0  0
  -21.0186  -38.1958   -8.0420 C   0  0  0  0  0  0  0  0  0  0  0  0
  -22.1359  -38.1294   -8.8489 C   0  0  0  0  0  0  0  0  0  0  0  0
  -22.1497  -37.4199  -10.0444 C   0  0  0  0  0  0  0  0  0  0  0  0
  -21.0459  -36.7397  -10.5084 C   0  0  0  0  0  0  0  0  0  0  0  0
  -19.9421  -36.8237   -9.6971 C   0  0  0  0  0  0  0  0  0  0  0  0
  -23.4043  -38.7535   -8.6240 O   0  0  0  0  0  0  0  0  0  0  0  0
  -23.5743  -40.1259   -8.3117 C   0  0  0  0  0  0  0  0  0  0  0  0
  -24.8234  -40.7068   -8.8450 C   0  0  0  0  0  0  0  0  0  0  0  0
  -24.8322  -42.2162   -8.5746 C   0  0  0  0  0  0  0  0  0  0  0  0
  -23.4064  -42.7516   -8.4707 C   0  0  0  0  0  0  0  0  0  0  0  0
  -22.8263  -42.5068   -7.2834 O   0  0  0  0  0  0  0  0  0  0  0  0
  -16.3827  -38.7885   -8.1147 C   0  0  2  0  0  0  0  0  0  0  0  0
  -16.1760  -38.3290   -9.3909 O   0  0  0  0  0  0  0  0  0  0  0  0
  -15.5442  -39.9442   -7.7476 C   0  0  0  0  0  0  0  0  0  0  0  0
  -14.2277  -40.0349   -8.2056 N   0  0  0  0  0  0  0  0  0  0  0  0
  -13.8785  -40.8381   -9.3062 C   0  0  0  0  0  0  0  0  0  0  0  0
  -13.7807  -40.1709  -10.6137 C   0  0  0  0  0  0  0  0  0  0  0  0
  -13.3658  -38.8721  -10.6901 C   0  0  0  0  0  0  0  0  0  0  0  0
  -13.2226  -38.1596  -11.8625 C   0  0  0  0  0  0  0  0  0  0  0  0
  -13.5227  -38.8164  -13.0289 C   0  0  0  0  0  0  0  0  0  0  0  0
  -13.9507  -40.1432  -12.9928 C   0  0  0  0  0  0  0  0  0  0  0  0
  -14.0785  -40.8116  -11.8021 C   0  0  0  0  0  0  0  0  0  0  0  0
  -12.7842  -36.7572  -11.8080 C   0  0  0  0  0  0  0  0  0  0  0  0
  -11.3827  -36.7050  -11.2055 C   0  0  0  0  0  0  0  0  0  0  0  0
  -13.7123  -35.8076  -11.1297 C   0  0  0  0  0  0  0  0  0  0  0  0
  1  2  1  0
  2  3  1  0
  3  4  1  0
  4  5  2  0
  5  6  1  0
  6  7  2  0
  7  8  1  0
  8  9  2  0
  8 10  1  0
 10 11  2  0
 10 12  1  0
 12 13  1  0
 13 14  1  1
 14 15  1  0
 15 16  2  0
 16 17  1  0
 17 18  2  0
 18 19  1  0
 19 20  2  0
 17 21  1  0
 21 22  1  0
 22 23  1  0
 23 24  1  0
 24 25  1  0
 25 26  1  0
 13 27  1  0
 27 28  1  6
 27 29  1  0
 29 30  1  0
 30 31  1  0
 31 32  1  0
 32 33  2  0
 33 34  1  0
 34 35  2  0
 35 36  1  0
 36 37  2  0
 34 38  1  0
 38 39  1  0
 38 40  1  0
  9  4  1  0
 20 15  1  0
 26  6  1  0
 37 32  1  0
M  END
$$$$
