
     RDKit          3D

 40 43  0  0  0  0  0  0  0  0999 V2000
  -18.6644  -47.7769   -8.3210 C   0  0  0  0  0  0  0  0  0  0  0  0
  -19.1086  -46.5020   -8.6101 O   0  0  0  0  0  0  0  0  0  0  0  0
  -18.7459  -46.1497   -9.8818 C   0  0  0  0  0  0  0  0  0  0  0  0
  -17.8032  -45.0004   -9.9493 C   0  0  0  0  0  0  0  0  0  0  0  0
  -16.6739  -45.0119  -10.7194 C   0  0  0  0  0  0  0  0  0  0  0  0
  -15.7776  -43.9055  -10.8023 C   0  0  0  0  0  0  0  0  0  0  0  0
  -16.0619  -42.7663  -10.0723 C   0  0  0  0  0  0  0  0  0  0  0  0
  -17.1827  -42.7000   -9.2863 C   0  0  0  0  0  0  0  0  0  0  0  0
  -18.0279  -43.8488   -9.2542 C   0  0  0  0  0  0  0  0  0  0  0  0
  -17.7559  -41.6404   -8.4522 C   0  0  0  0  0  0  0  0  0  0  0  0
  -18.2830  -42.0365   -7.2817 O   0  0  0  0  0  0  0  0  0  0  0  0
  -17.9091  -40.2486   -8.5653 N   0  0  0  0  0  0  0  0  0  0  0  0
  -16.8503  -39.2244   -8.6464 C   0  0  1  0  0  0  0  0  0  0  0  0
  -17.0777  -38.2887   -9.8277 C   0  0  0  0  0  0  0  0  0  0  0  0
  -16.1966  -38.5316  -11.0028 C   0  0  0  0  0  0  0  0  0  0  0  0
  -16.0755  -39.6594  -11.7684 C   0  0  0  0  0  0  0  0  0  0  0  0
  -15.1014  -39.6483  -12.7456 C   0  0  0  0  0  0  0  0  0  0  0  0
  -14.2808  -38.5480  -12.9660 C   0  0  0  0  0  0  0  0  0  0  0  0
  -14.3799  -37.3953  -12.2191 C   0  0  0  0  0  0  0  0  0  0  0  0
  -15.3483  -37.4278  -11.2470 C   0  0  0  0  0  0  0  0  0  0  0  0
  -14.7674  -40.7089  -13.6468 O   0  0  0  0  0  0  0  0  0  0  0  0
  -14.5083  -42.0441  -13.2470 C   0  0  0  0  0  0  0  0  0  0  0  0
  -13.5129  -42.7353  -14.0918 C   0  0  0  0  0  0  0  0  0  0  0  0
  -13.2058  -44.1099  -13.4855 C   0  0  0  0  0  0  0  0  0  0  0  0
  -13.4527  -44.0999  -11.9791 C   0  0  0  0  0  0  0  0  0  0  0  0
  -14.7508  -44.2046  -11.6473 O   0  0  0  0  0  0  0  0  0  0  0  0
  -16.9263  -38.4951   -7.3222 C   0  0  2  0  0  0  0  0  0  0  0  0
  -16.0106  -37.4767   -7.2406 O   0  0  0  0  0  0  0  0  0  0  0  0
  -17.0188  -39.3206   -6.1042 C   0  0  0  0  0  0  0  0  0  0  0  0
  -18.2648  -39.7175   -5.6135 N   0  0  0  0  0  0  0  0  0  0  0  0
  -19.3243  -38.8061   -5.4541 C   0  0  0  0  0  0  0  0  0  0  0  0
  -20.5330  -39.0421   -6.2590 C   0  0  0  0  0  0  0  0  0  0  0  0
  -21.3698  -40.0760   -5.9503 C   0  0  0  0  0  0  0  0  0  0  0  0
  -22.5345  -40.3743   -6.6265 C   0  0  0  0  0  0  0  0  0  0  0  0
  -22.8632  -39.5648   -7.6842 C   0  0  0  0  0  0  0  0  0  0  0  0
  -22.0338  -38.4989   -8.0316 C   0  0  0  0  0  0  0  0  0  0  0  0
  -20.8843  -38.2407   -7.3295 C   0  0  0  0  0  0  0  0  0  0  0  0
  -23.3404  -41.5296   -6.2050 C   0  0  0  0  0  0  0  0  0  0  0  0
  -23.2166  -42.6248   -7.2611 C   0  0  0  0  0  0  0  0  0  0  0  0
  -24.7650  -41.2457   -5.8687 C   0  0  0  0  0  0  0  0  0  0  0  0
  1  2  1  0
  2  3  1  0
  3  4  1  0
  4  5  2  0
  5  6  1  0
  6  7  2  0
  7  8  1  0
  8  9  2  0
  8 10  1  0
 10 11  2  0
 10 12  1  0
 12 13  1  0
 13 14  1  6
 14 15  1  0
 15 16  2  0
 16 17  1  0
 17 18  2  0
 18 19  1  0
 19 20  2  0
 17 21  1  0
 21 22  1  0
 22 23  1  0
 23 24  1  0
 24 25  1  0
 25 26  1  0
 13 27  1  0
 27 28  1  1
 27 29  1  0
 29 30  1  0
 30 31  1  0
 31 32  1  0
 32 33  2  0
 33 34  1  0
 34 35  2  0
 35 36  1  0
 36 37  2  0
 34 38  1  0
 38 39  1  0
 38 40  1  0
  9  4  1  0
 20 15  1  0
 26  6  1  0
 37 32  1  0
M  END
$$$$
