
     RDKit          3D

 40 43  0  0  0  0  0  0  0  0999 V2000
  -20.4394  -40.6638  -15.2999 C   0  0  0  0  0  0  0  0  0  0  0  0
  -21.2222  -41.6462  -14.7268 O   0  0  0  0  0  0  0  0  0  0  0  0
  -20.5409  -42.2659  -13.7146 C   0  0  0  0  0  0  0  0  0  0  0  0
  -20.6930  -41.6096  -12.3878 C   0  0  0  0  0  0  0  0  0  0  0  0
  -21.9107  -41.3567  -11.8208 C   0  0  0  0  0  0  0  0  0  0  0  0
  -22.0611  -40.7455  -10.5409 C   0  0  0  0  0  0  0  0  0  0  0  0
  -20.9243  -40.3924   -9.8376 C   0  0  0  0  0  0  0  0  0  0  0  0
  -19.6782  -40.6261  -10.3582 C   0  0  0  0  0  0  0  0  0  0  0  0
  -19.6112  -41.2386  -11.6448 C   0  0  0  0  0  0  0  0  0  0  0  0
  -18.3240  -40.4061   -9.8437 C   0  0  0  0  0  0  0  0  0  0  0  0
  -17.4226  -39.9640  -10.7363 O   0  0  0  0  0  0  0  0  0  0  0  0
  -17.6899  -40.5480   -8.5982 N   0  0  0  0  0  0  0  0  0  0  0  0
  -17.9800  -39.8235   -7.3462 C   0  0  1  0  0  0  0  0  0  0  0  0
  -18.1652  -40.7883   -6.1810 C   0  0  0  0  0  0  0  0  0  0  0  0
  -19.5766  -41.0049   -5.7602 C   0  0  0  0  0  0  0  0  0  0  0  0
  -20.6251  -41.4981   -6.4884 C   0  0  0  0  0  0  0  0  0  0  0  0
  -21.8623  -41.5005   -5.8774 C   0  0  0  0  0  0  0  0  0  0  0  0
  -22.0524  -41.0401   -4.5795 C   0  0  0  0  0  0  0  0  0  0  0  0
  -21.0190  -40.5438   -3.8166 C   0  0  0  0  0  0  0  0  0  0  0  0
  -19.7980  -40.5416   -4.4434 C   0  0  0  0  0  0  0  0  0  0  0  0
  -23.1042  -41.9370   -6.4394 O   0  0  0  0  0  0  0  0  0  0  0  0
  -23.6027  -41.5156   -7.6979 C   0  0  0  0  0  0  0  0  0  0  0  0
  -25.0764  -41.4328   -7.7563 C   0  0  0  0  0  0  0  0  0  0  0  0
  -25.4939  -40.8328   -9.1043 C   0  0  0  0  0  0  0  0  0  0  0  0
  -24.3867  -39.9417   -9.6616 C   0  0  0  0  0  0  0  0  0  0  0  0
  -23.3847  -40.6275  -10.2375 O   0  0  0  0  0  0  0  0  0  0  0  0
  -16.7845  -38.9167   -7.1474 C   0  0  2  0  0  0  0  0  0  0  0  0
  -16.9414  -38.0852   -6.0675 O   0  0  0  0  0  0  0  0  0  0  0  0
  -16.2381  -38.2521   -8.3447 C   0  0  0  0  0  0  0  0  0  0  0  0
  -15.9472  -38.9931   -9.4924 N   0  0  0  0  0  0  0  0  0  0  0  0
  -14.7736  -38.7776  -10.2372 C   0  0  0  0  0  0  0  0  0  0  0  0
  -14.5493  -37.4164  -10.7483 C   0  0  0  0  0  0  0  0  0  0  0  0
  -13.4262  -36.7272  -10.3901 C   0  0  0  0  0  0  0  0  0  0  0  0
  -13.1109  -35.4565  -10.8246 C   0  0  0  0  0  0  0  0  0  0  0  0
  -13.9997  -34.8536  -11.6780 C   0  0  0  0  0  0  0  0  0  0  0  0
  -15.1589  -35.5244  -12.0668 C   0  0  0  0  0  0  0  0  0  0  0  0
  -15.4308  -36.7881  -11.6084 C   0  0  0  0  0  0  0  0  0  0  0  0
  -11.8764  -34.8148  -10.3492 C   0  0  0  0  0  0  0  0  0  0  0  0
  -10.7779  -35.8710  -10.2605 C   0  0  0  0  0  0  0  0  0  0  0  0
  -11.9913  -34.0307   -9.0861 C   0  0  0  0  0  0  0  0  0  0  0  0
  1  2  1  0
  2  3  1  0
  3  4  1  0
  4  5  2  0
  5  6  1  0
  6  7  2  0
  7  8  1  0
  8  9  2  0
  8 10  1  0
 10 11  2  0
 10 12  1  0
 12 13  1  0
 13 14  1  1
 14 15  1  0
 15 16  2  0
 16 17  1  0
 17 18  2  0
 18 19  1  0
 19 20  2  0
 17 21  1  0
 21 22  1  0
 22 23  1  0
 23 24  1  0
 24 25  1  0
 25 26  1  0
 13 27  1  0
 27 28  1  1
 27 29  1  0
 29 30  1  0
 30 31  1  0
 31 32  1  0
 32 33  2  0
 33 34  1  0
 34 35  2  0
 35 36  1  0
 36 37  2  0
 34 38  1  0
 38 39  1  0
 38 40  1  0
  9  4  1  0
 20 15  1  0
 26  6  1  0
 37 32  1  0
M  END
$$$$
