
     RDKit          3D

 37 39  0  0  0  0  0  0  0  0999 V2000
  -12.6525  -40.7057   -9.0293 C   0  0  0  0  0  0  0  0  0  0  0  0
  -14.0005  -40.0276   -8.9815 C   0  0  2  0  0  0  0  0  0  0  0  0
  -15.0595  -41.0031   -8.9975 N   0  0  0  0  0  0  0  0  0  0  0  0
  -15.6178  -41.2422   -7.6887 C   0  0  0  0  0  0  0  0  0  0  0  0
  -16.4839  -40.1303   -7.2506 C   0  0  1  0  0  0  0  0  0  0  0  0
  -15.7270  -38.9308   -7.2882 O   0  0  0  0  0  0  0  0  0  0  0  0
  -17.7078  -39.8490   -8.0660 C   0  0  2  0  0  0  0  0  0  0  0  0
  -18.9086  -39.4969   -7.2193 C   0  0  0  0  0  0  0  0  0  0  0  0
  -19.8027  -38.4827   -7.9095 C   0  0  2  0  0  0  0  0  0  0  0  0
  -19.4958  -37.1291   -7.2881 C   0  0  0  0  0  0  0  0  0  0  0  0
  -21.2497  -38.7302   -7.8188 C   0  0  0  0  0  0  0  0  0  0  0  0
  -21.7233  -39.9770   -7.1662 C   0  0  0  0  0  0  0  0  0  0  0  0
  -23.2323  -40.0383   -7.0092 C   0  0  0  0  0  0  0  0  0  0  0  0
  -23.5176  -40.9733   -5.8496 C   0  0  0  0  0  0  0  0  0  0  0  0
  -23.2484  -42.4164   -6.2288 C   0  0  0  0  0  0  0  0  0  0  0  0
  -23.1799  -43.3379   -5.0724 C   0  0  0  0  0  0  0  0  0  0  0  0
  -21.8214  -43.6652   -4.5614 C   0  0  0  0  0  0  0  0  0  0  0  0
  -20.9899  -44.3857   -5.4012 O   0  0  0  0  0  0  0  0  0  0  0  0
  -20.4034  -44.1867   -6.6458 C   0  0  0  0  0  0  0  0  0  0  0  0
  -19.5265  -43.1835   -7.0275 C   0  0  0  0  0  0  0  0  0  0  0  0
  -19.0588  -43.1560   -8.3157 C   0  0  0  0  0  0  0  0  0  0  0  0
  -19.4984  -44.1754   -9.2103 C   0  0  0  0  0  0  0  0  0  0  0  0
  -20.3583  -45.1833   -8.8773 C   0  0  0  0  0  0  0  0  0  0  0  0
  -20.7977  -45.1612   -7.5740 C   0  0  0  0  0  0  0  0  0  0  0  0
  -18.1474  -42.2390   -9.0146 C   0  0  0  0  0  0  0  0  0  0  0  0
  -17.2443  -42.8431   -9.8248 O   0  0  0  0  0  0  0  0  0  0  0  0
  -17.9817  -40.8385   -9.0505 N   0  0  0  0  0  0  0  0  0  0  0  0
  -14.1525  -39.0616  -10.1137 C   0  0  0  0  0  0  0  0  0  0  0  0
  -13.8484  -37.7229  -10.0787 C   0  0  0  0  0  0  0  0  0  0  0  0
  -14.1377  -37.1946  -11.3466 C   0  0  0  0  0  0  0  0  0  0  0  0
  -13.9893  -35.8166  -11.8280 C   0  0  0  0  0  0  0  0  0  0  0  0
  -12.7662  -35.6031  -12.6764 C   0  0  0  0  0  0  0  0  0  0  0  0
  -12.4762  -34.1418  -12.9335 C   0  0  0  0  0  0  0  0  0  0  0  0
  -11.5720  -36.1293  -11.8709 C   0  0  0  0  0  0  0  0  0  0  0  0
  -12.7883  -36.3350  -13.9764 C   0  0  0  0  0  0  0  0  0  0  0  0
  -14.5837  -38.1983  -12.0546 O   0  0  0  0  0  0  0  0  0  0  0  0
  -14.6015  -39.2966  -11.3578 N   0  0  0  0  0  0  0  0  0  0  0  0
  2  1  1  6
  2  3  1  0
  3  4  1  0
  4  5  1  0
  5  6  1  6
  5  7  1  0
  7  8  1  1
  8  9  1  0
  9 10  1  1
  9 11  1  0
 11 12  1  0
 12 13  1  0
 13 14  1  0
 14 15  1  0
 15 16  1  0
 16 17  1  0
 17 18  1  0
 18 19  1  0
 19 20  2  0
 20 21  1  0
 21 22  2  0
 22 23  1  0
 23 24  2  0
 21 25  1  0
 25 26  2  0
 25 27  1  0
  2 28  1  0
 28 29  1  0
 29 30  2  0
 30 31  1  0
 31 32  1  0
 32 33  1  0
 32 34  1  0
 32 35  1  0
 30 36  1  0
 36 37  1  0
 24 19  1  0
 27  7  1  0
 37 28  2  0
M  END
$$$$
