
     RDKit          3D

 37 39  0  0  0  0  0  0  0  0999 V2000
  -12.5276  -40.9969   -9.6212 C   0  0  0  0  0  0  0  0  0  0  0  0
  -13.3661  -39.7695   -9.3578 C   0  0  2  0  0  0  0  0  0  0  0  0
  -14.6756  -40.1415   -8.8884 N   0  0  0  0  0  0  0  0  0  0  0  0
  -14.8814  -39.8205   -7.4968 C   0  0  0  0  0  0  0  0  0  0  0  0
  -16.2512  -40.1480   -7.0553 C   0  0  1  0  0  0  0  0  0  0  0  0
  -16.5185  -39.4355   -5.8577 O   0  0  0  0  0  0  0  0  0  0  0  0
  -17.3748  -39.7974   -7.9808 C   0  0  2  0  0  0  0  0  0  0  0  0
  -18.5044  -39.0749   -7.2847 C   0  0  0  0  0  0  0  0  0  0  0  0
  -19.1642  -38.0563   -8.1967 C   0  0  2  0  0  0  0  0  0  0  0  0
  -18.6136  -36.6933   -7.8069 C   0  0  0  0  0  0  0  0  0  0  0  0
  -20.6335  -38.0057   -8.1521 C   0  0  0  0  0  0  0  0  0  0  0  0
  -21.3590  -38.9981   -7.3195 C   0  0  0  0  0  0  0  0  0  0  0  0
  -22.8542  -38.7441   -7.2465 C   0  0  0  0  0  0  0  0  0  0  0  0
  -23.3470  -39.3774   -5.9595 C   0  0  0  0  0  0  0  0  0  0  0  0
  -23.3567  -40.8901   -6.0603 C   0  0  0  0  0  0  0  0  0  0  0  0
  -23.4999  -41.5775   -4.7572 C   0  0  0  0  0  0  0  0  0  0  0  0
  -22.2456  -42.0542   -4.1145 C   0  0  0  0  0  0  0  0  0  0  0  0
  -21.5504  -43.0612   -4.7612 O   0  0  0  0  0  0  0  0  0  0  0  0
  -20.9046  -43.2104   -5.9832 C   0  0  0  0  0  0  0  0  0  0  0  0
  -19.8384  -42.4786   -6.4820 C   0  0  0  0  0  0  0  0  0  0  0  0
  -19.3416  -42.7788   -7.7238 C   0  0  0  0  0  0  0  0  0  0  0  0
  -19.9496  -43.8451   -8.4492 C   0  0  0  0  0  0  0  0  0  0  0  0
  -20.9989  -44.5936   -7.9963 C   0  0  0  0  0  0  0  0  0  0  0  0
  -21.4586  -44.2480   -6.7467 C   0  0  0  0  0  0  0  0  0  0  0  0
  -18.2504  -42.1955   -8.5169 C   0  0  0  0  0  0  0  0  0  0  0  0
  -17.4630  -43.0984   -9.1508 O   0  0  0  0  0  0  0  0  0  0  0  0
  -17.8123  -40.8826   -8.7897 N   0  0  0  0  0  0  0  0  0  0  0  0
  -13.4647  -38.9172  -10.5834 C   0  0  0  0  0  0  0  0  0  0  0  0
  -13.3456  -37.5499  -10.6271 C   0  0  0  0  0  0  0  0  0  0  0  0
  -13.5010  -37.1587  -11.9662 C   0  0  0  0  0  0  0  0  0  0  0  0
  -13.4596  -35.8111  -12.5449 C   0  0  0  0  0  0  0  0  0  0  0  0
  -12.1163  -35.4385  -13.1089 C   0  0  0  0  0  0  0  0  0  0  0  0
  -12.1144  -34.0826  -13.7776 C   0  0  0  0  0  0  0  0  0  0  0  0
  -11.1555  -35.3177  -11.9197 C   0  0  0  0  0  0  0  0  0  0  0  0
  -11.5452  -36.4487  -14.0465 C   0  0  0  0  0  0  0  0  0  0  0  0
  -13.6982  -38.2631  -12.6366 O   0  0  0  0  0  0  0  0  0  0  0  0
  -13.6813  -39.3008  -11.8525 N   0  0  0  0  0  0  0  0  0  0  0  0
  2  1  1  6
  2  3  1  0
  3  4  1  0
  4  5  1  0
  5  6  1  1
  5  7  1  0
  7  8  1  1
  8  9  1  0
  9 10  1  1
  9 11  1  0
 11 12  1  0
 12 13  1  0
 13 14  1  0
 14 15  1  0
 15 16  1  0
 16 17  1  0
 17 18  1  0
 18 19  1  0
 19 20  2  0
 20 21  1  0
 21 22  2  0
 22 23  1  0
 23 24  2  0
 21 25  1  0
 25 26  2  0
 25 27  1  0
  2 28  1  0
 28 29  1  0
 29 30  2  0
 30 31  1  0
 31 32  1  0
 32 33  1  0
 32 34  1  0
 32 35  1  0
 30 36  1  0
 36 37  1  0
 24 19  1  0
 27  7  1  0
 37 28  2  0
M  END
$$$$
