
     RDKit          3D

 37 39  0  0  0  0  0  0  0  0999 V2000
  -13.0153  -41.9287   -9.2572 C   0  0  0  0  0  0  0  0  0  0  0  0
  -13.6457  -40.6113   -8.8752 C   0  0  2  0  0  0  0  0  0  0  0  0
  -15.0565  -40.7745   -8.6377 N   0  0  0  0  0  0  0  0  0  0  0  0
  -15.7200  -39.5283   -8.3401 C   0  0  0  0  0  0  0  0  0  0  0  0
  -16.8604  -39.7196   -7.4228 C   0  0  1  0  0  0  0  0  0  0  0  0
  -16.6336  -38.9425   -6.2575 O   0  0  0  0  0  0  0  0  0  0  0  0
  -18.2141  -39.3082   -7.9128 C   0  0  2  0  0  0  0  0  0  0  0  0
  -19.2734  -39.3788   -6.8377 C   0  0  0  0  0  0  0  0  0  0  0  0
  -20.3160  -38.2882   -7.0061 C   0  0  2  0  0  0  0  0  0  0  0  0
  -19.9741  -37.1934   -6.0075 C   0  0  0  0  0  0  0  0  0  0  0  0
  -21.7148  -38.6955   -6.8045 C   0  0  0  0  0  0  0  0  0  0  0  0
  -22.0150  -40.1289   -6.5598 C   0  0  0  0  0  0  0  0  0  0  0  0
  -23.4726  -40.3897   -6.2241 C   0  0  0  0  0  0  0  0  0  0  0  0
  -23.5180  -41.6797   -5.4279 C   0  0  0  0  0  0  0  0  0  0  0  0
  -23.2480  -42.8810   -6.3126 C   0  0  0  0  0  0  0  0  0  0  0  0
  -22.9460  -44.1218   -5.5641 C   0  0  0  0  0  0  0  0  0  0  0  0
  -21.5079  -44.4620   -5.3915 C   0  0  0  0  0  0  0  0  0  0  0  0
  -20.7939  -44.7763   -6.5348 O   0  0  0  0  0  0  0  0  0  0  0  0
  -20.4315  -44.1185   -7.7047 C   0  0  0  0  0  0  0  0  0  0  0  0
  -19.6777  -42.9629   -7.8377 C   0  0  0  0  0  0  0  0  0  0  0  0
  -19.4315  -42.4634   -9.0902 C   0  0  0  0  0  0  0  0  0  0  0  0
  -19.9648  -43.1674  -10.2094 C   0  0  0  0  0  0  0  0  0  0  0  0
  -20.7096  -44.3096  -10.1256 C   0  0  0  0  0  0  0  0  0  0  0  0
  -20.9278  -44.7647   -8.8460 C   0  0  0  0  0  0  0  0  0  0  0  0
  -18.6923  -41.2802   -9.5522 C   0  0  0  0  0  0  0  0  0  0  0  0
  -17.9084  -41.4880  -10.6382 O   0  0  0  0  0  0  0  0  0  0  0  0
  -18.6006  -39.9378   -9.1283 N   0  0  0  0  0  0  0  0  0  0  0  0
  -13.4017  -39.5773   -9.9286 C   0  0  0  0  0  0  0  0  0  0  0  0
  -12.6775  -38.4211   -9.7720 C   0  0  0  0  0  0  0  0  0  0  0  0
  -12.6982  -37.7444  -11.0016 C   0  0  0  0  0  0  0  0  0  0  0  0
  -12.0760  -36.4654  -11.3619 C   0  0  0  0  0  0  0  0  0  0  0  0
  -10.7540  -36.6147  -12.0628 C   0  0  0  0  0  0  0  0  0  0  0  0
   -9.8256  -37.5845  -11.3677 C   0  0  0  0  0  0  0  0  0  0  0  0
  -11.0487  -37.2315  -13.4356 C   0  0  0  0  0  0  0  0  0  0  0  0
  -10.0356  -35.3277  -12.2939 C   0  0  0  0  0  0  0  0  0  0  0  0
  -13.4045  -38.4941  -11.8060 O   0  0  0  0  0  0  0  0  0  0  0  0
  -13.8251  -39.5674  -11.2034 N   0  0  0  0  0  0  0  0  0  0  0  0
  2  1  1  6
  2  3  1  0
  3  4  1  0
  4  5  1  0
  5  6  1  1
  5  7  1  0
  7  8  1  1
  8  9  1  0
  9 10  1  1
  9 11  1  0
 11 12  1  0
 12 13  1  0
 13 14  1  0
 14 15  1  0
 15 16  1  0
 16 17  1  0
 17 18  1  0
 18 19  1  0
 19 20  2  0
 20 21  1  0
 21 22  2  0
 22 23  1  0
 23 24  2  0
 21 25  1  0
 25 26  2  0
 25 27  1  0
  2 28  1  0
 28 29  1  0
 29 30  2  0
 30 31  1  0
 31 32  1  0
 32 33  1  0
 32 34  1  0
 32 35  1  0
 30 36  1  0
 36 37  1  0
 24 19  1  0
 27  7  1  0
 37 28  2  0
M  END
$$$$
