
     RDKit          3D

 37 39  0  0  0  0  0  0  0  0999 V2000
  -15.3298  -43.6347   -7.6013 C   0  0  0  0  0  0  0  0  0  0  0  0
  -16.6291  -42.8683   -7.6573 C   0  0  2  0  0  0  0  0  0  0  0  0
  -16.5055  -41.6100   -6.9683 N   0  0  0  0  0  0  0  0  0  0  0  0
  -15.4134  -40.8076   -7.4635 C   0  0  0  0  0  0  0  0  0  0  0  0
  -15.8226  -39.4090   -7.6977 C   0  0  1  0  0  0  0  0  0  0  0  0
  -14.8336  -38.5541   -7.1463 O   0  0  0  0  0  0  0  0  0  0  0  0
  -15.9769  -38.9662   -9.1197 C   0  0  2  0  0  0  0  0  0  0  0  0
  -16.6270  -37.6080   -9.2439 C   0  0  0  0  0  0  0  0  0  0  0  0
  -16.0793  -36.8308  -10.4273 C   0  0  2  0  0  0  0  0  0  0  0  0
  -15.0751  -35.8325   -9.8727 C   0  0  0  0  0  0  0  0  0  0  0  0
  -17.0699  -36.1074  -11.2390 C   0  0  0  0  0  0  0  0  0  0  0  0
  -18.5110  -36.2656  -10.9186 C   0  0  0  0  0  0  0  0  0  0  0  0
  -19.4122  -35.3554  -11.7340 C   0  0  0  0  0  0  0  0  0  0  0  0
  -20.6830  -35.1575  -10.9301 C   0  0  0  0  0  0  0  0  0  0  0  0
  -21.5332  -36.4128  -10.9290 C   0  0  0  0  0  0  0  0  0  0  0  0
  -22.6047  -36.4110   -9.9077 C   0  0  0  0  0  0  0  0  0  0  0  0
  -22.3116  -37.1216   -8.6339 C   0  0  0  0  0  0  0  0  0  0  0  0
  -22.1460  -38.4940   -8.7025 O   0  0  0  0  0  0  0  0  0  0  0  0
  -21.2587  -39.3685   -9.3195 C   0  0  0  0  0  0  0  0  0  0  0  0
  -19.8847  -39.4491   -9.1562 C   0  0  0  0  0  0  0  0  0  0  0  0
  -19.1788  -40.3855   -9.8661 C   0  0  0  0  0  0  0  0  0  0  0  0
  -19.9011  -41.2449  -10.7450 C   0  0  0  0  0  0  0  0  0  0  0  0
  -21.2534  -41.2029  -10.9350 C   0  0  0  0  0  0  0  0  0  0  0  0
  -21.9107  -40.2437  -10.2001 C   0  0  0  0  0  0  0  0  0  0  0  0
  -17.7461  -40.7084   -9.9199 C   0  0  0  0  0  0  0  0  0  0  0  0
  -17.4621  -42.0336   -9.9312 O   0  0  0  0  0  0  0  0  0  0  0  0
  -16.5577  -39.9497   -9.9676 N   0  0  0  0  0  0  0  0  0  0  0  0
  -17.7511  -43.6770   -7.0868 C   0  0  0  0  0  0  0  0  0  0  0  0
  -19.0769  -43.3194   -7.0711 C   0  0  0  0  0  0  0  0  0  0  0  0
  -19.7837  -44.3597   -6.4476 C   0  0  0  0  0  0  0  0  0  0  0  0
  -21.2226  -44.4687   -6.1828 C   0  0  0  0  0  0  0  0  0  0  0  0
  -21.5947  -44.1919   -4.7523 C   0  0  0  0  0  0  0  0  0  0  0  0
  -20.6074  -44.7712   -3.7648 C   0  0  0  0  0  0  0  0  0  0  0  0
  -21.5281  -42.6713   -4.5644 C   0  0  0  0  0  0  0  0  0  0  0  0
  -22.9723  -44.6299   -4.3830 C   0  0  0  0  0  0  0  0  0  0  0  0
  -18.8871  -45.2561   -6.1309 O   0  0  0  0  0  0  0  0  0  0  0  0
  -17.6956  -44.8807   -6.4932 N   0  0  0  0  0  0  0  0  0  0  0  0
  2  1  1  1
  2  3  1  0
  3  4  1  0
  4  5  1  0
  5  6  1  6
  5  7  1  0
  7  8  1  1
  8  9  1  0
  9 10  1  1
  9 11  1  0
 11 12  1  0
 12 13  1  0
 13 14  1  0
 14 15  1  0
 15 16  1  0
 16 17  1  0
 17 18  1  0
 18 19  1  0
 19 20  2  0
 20 21  1  0
 21 22  2  0
 22 23  1  0
 23 24  2  0
 21 25  1  0
 25 26  2  0
 25 27  1  0
  2 28  1  0
 28 29  1  0
 29 30  2  0
 30 31  1  0
 31 32  1  0
 32 33  1  0
 32 34  1  0
 32 35  1  0
 30 36  1  0
 36 37  1  0
 24 19  1  0
 27  7  1  0
 37 28  2  0
M  END
$$$$
