
     RDKit          3D

 37 39  0  0  0  0  0  0  0  0999 V2000
  -14.2993  -38.9522  -11.6404 C   0  0  0  0  0  0  0  0  0  0  0  0
  -14.5089  -40.3245  -11.0472 C   0  0  2  0  0  0  0  0  0  0  0  0
  -15.3330  -40.2469   -9.8690 N   0  0  0  0  0  0  0  0  0  0  0  0
  -16.0891  -39.0201   -9.7967 C   0  0  0  0  0  0  0  0  0  0  0  0
  -16.9166  -38.9571   -8.5763 C   0  0  1  0  0  0  0  0  0  0  0  0
  -16.4257  -37.9092   -7.7553 O   0  0  0  0  0  0  0  0  0  0  0  0
  -18.3762  -38.6709   -8.7486 C   0  0  2  0  0  0  0  0  0  0  0  0
  -19.1226  -38.6181   -7.4361 C   0  0  0  0  0  0  0  0  0  0  0  0
  -20.2499  -37.6020   -7.4731 C   0  0  2  0  0  0  0  0  0  0  0  0
  -19.7475  -36.3596   -6.7543 C   0  0  0  0  0  0  0  0  0  0  0  0
  -21.5197  -38.0237   -6.8623 C   0  0  0  0  0  0  0  0  0  0  0  0
  -21.6442  -39.4145   -6.3574 C   0  0  0  0  0  0  0  0  0  0  0  0
  -22.9475  -39.6736   -5.6228 C   0  0  0  0  0  0  0  0  0  0  0  0
  -22.6976  -40.8317   -4.6760 C   0  0  0  0  0  0  0  0  0  0  0  0
  -22.5732  -42.1409   -5.4305 C   0  0  0  0  0  0  0  0  0  0  0  0
  -22.0036  -43.2453   -4.6261 C   0  0  0  0  0  0  0  0  0  0  0  0
  -20.5477  -43.5053   -4.7888 C   0  0  0  0  0  0  0  0  0  0  0  0
  -20.1240  -43.9608   -6.0252 O   0  0  0  0  0  0  0  0  0  0  0  0
  -20.1164  -43.4718   -7.3265 C   0  0  0  0  0  0  0  0  0  0  0  0
  -19.5059  -42.3231   -7.8049 C   0  0  0  0  0  0  0  0  0  0  0  0
  -19.6198  -42.0069   -9.1339 C   0  0  0  0  0  0  0  0  0  0  0  0
  -20.3656  -42.8878   -9.9709 C   0  0  0  0  0  0  0  0  0  0  0  0
  -20.9809  -44.0303   -9.5436 C   0  0  0  0  0  0  0  0  0  0  0  0
  -20.8363  -44.2975   -8.2021 C   0  0  0  0  0  0  0  0  0  0  0  0
  -19.1083  -40.8802   -9.9269 C   0  0  0  0  0  0  0  0  0  0  0  0
  -18.6103  -41.2195  -11.1410 O   0  0  0  0  0  0  0  0  0  0  0  0
  -19.0099  -39.4874   -9.7260 N   0  0  0  0  0  0  0  0  0  0  0  0
  -13.1992  -40.9772  -10.7359 C   0  0  0  0  0  0  0  0  0  0  0  0
  -12.3523  -41.5612  -11.6455 C   0  0  0  0  0  0  0  0  0  0  0  0
  -11.2437  -42.0462  -10.9340 C   0  0  0  0  0  0  0  0  0  0  0  0
  -10.0591  -42.7497  -11.4384 C   0  0  0  0  0  0  0  0  0  0  0  0
   -8.7894  -42.3831  -10.7207 C   0  0  0  0  0  0  0  0  0  0  0  0
   -7.6214  -43.2626  -11.1050 C   0  0  0  0  0  0  0  0  0  0  0  0
   -8.4147  -40.9687  -11.1799 C   0  0  0  0  0  0  0  0  0  0  0  0
   -8.9137  -42.3542   -9.2342 C   0  0  0  0  0  0  0  0  0  0  0  0
  -11.4670  -41.7438   -9.6824 O   0  0  0  0  0  0  0  0  0  0  0  0
  -12.6001  -41.1206   -9.5421 N   0  0  0  0  0  0  0  0  0  0  0  0
  2  1  1  1
  2  3  1  0
  3  4  1  0
  4  5  1  0
  5  6  1  1
  5  7  1  0
  7  8  1  1
  8  9  1  0
  9 10  1  1
  9 11  1  0
 11 12  1  0
 12 13  1  0
 13 14  1  0
 14 15  1  0
 15 16  1  0
 16 17  1  0
 17 18  1  0
 18 19  1  0
 19 20  2  0
 20 21  1  0
 21 22  2  0
 22 23  1  0
 23 24  2  0
 21 25  1  0
 25 26  2  0
 25 27  1  0
  2 28  1  0
 28 29  1  0
 29 30  2  0
 30 31  1  0
 31 32  1  0
 32 33  1  0
 32 34  1  0
 32 35  1  0
 30 36  1  0
 36 37  1  0
 24 19  1  0
 27  7  1  0
 37 28  2  0
M  END
$$$$
