
     RDKit          3D

 37 39  0  0  0  0  0  0  0  0999 V2000
  -12.9163  -40.7614   -9.8464 C   0  0  0  0  0  0  0  0  0  0  0  0
  -13.6287  -39.5037   -9.4107 C   0  0  2  0  0  0  0  0  0  0  0  0
  -14.9902  -39.7939   -9.0429 N   0  0  0  0  0  0  0  0  0  0  0  0
  -15.0870  -40.5779   -7.8355 C   0  0  0  0  0  0  0  0  0  0  0  0
  -16.3331  -40.2955   -7.0967 C   0  0  1  0  0  0  0  0  0  0  0  0
  -16.0799  -39.2470   -6.1749 O   0  0  0  0  0  0  0  0  0  0  0  0
  -17.5174  -39.8419   -7.8928 C   0  0  2  0  0  0  0  0  0  0  0  0
  -18.6766  -39.4098   -7.0255 C   0  0  0  0  0  0  0  0  0  0  0  0
  -19.4553  -38.2705   -7.6580 C   0  0  2  0  0  0  0  0  0  0  0  0
  -19.0079  -36.9926   -6.9656 C   0  0  0  0  0  0  0  0  0  0  0  0
  -20.9207  -38.3668   -7.5771 C   0  0  0  0  0  0  0  0  0  0  0  0
  -21.5266  -39.5893   -6.9913 C   0  0  0  0  0  0  0  0  0  0  0  0
  -23.0341  -39.4977   -6.8341 C   0  0  0  0  0  0  0  0  0  0  0  0
  -23.4211  -40.4579   -5.7257 C   0  0  0  0  0  0  0  0  0  0  0  0
  -23.3061  -41.8990   -6.1825 C   0  0  0  0  0  0  0  0  0  0  0  0
  -23.3399  -42.8833   -5.0774 C   0  0  0  0  0  0  0  0  0  0  0  0
  -22.0257  -43.3805   -4.5881 C   0  0  0  0  0  0  0  0  0  0  0  0
  -21.2730  -44.1393   -5.4674 O   0  0  0  0  0  0  0  0  0  0  0  0
  -20.6646  -43.9375   -6.7010 C   0  0  0  0  0  0  0  0  0  0  0  0
  -19.6845  -43.0145   -7.0304 C   0  0  0  0  0  0  0  0  0  0  0  0
  -19.2123  -42.9679   -8.3165 C   0  0  0  0  0  0  0  0  0  0  0  0
  -19.7551  -43.8852   -9.2634 C   0  0  0  0  0  0  0  0  0  0  0  0
  -20.7187  -44.8121   -8.9829 C   0  0  0  0  0  0  0  0  0  0  0  0
  -21.1574  -44.8132   -7.6792 C   0  0  0  0  0  0  0  0  0  0  0  0
  -18.2061  -42.1171   -8.9674 C   0  0  0  0  0  0  0  0  0  0  0  0
  -17.3699  -42.7697   -9.8111 O   0  0  0  0  0  0  0  0  0  0  0  0
  -17.8920  -40.7424   -8.9283 N   0  0  0  0  0  0  0  0  0  0  0  0
  -13.5801  -38.4633  -10.4848 C   0  0  0  0  0  0  0  0  0  0  0  0
  -12.7829  -38.4941  -11.6025 C   0  0  0  0  0  0  0  0  0  0  0  0
  -13.0523  -37.3311  -12.3410 C   0  0  0  0  0  0  0  0  0  0  0  0
  -12.4678  -36.8888  -13.6120 C   0  0  0  0  0  0  0  0  0  0  0  0
  -11.3098  -35.9438  -13.4462 C   0  0  0  0  0  0  0  0  0  0  0  0
  -10.6797  -35.5488  -14.7624 C   0  0  0  0  0  0  0  0  0  0  0  0
  -11.8772  -34.6494  -12.8509 C   0  0  0  0  0  0  0  0  0  0  0  0
  -10.2472  -36.4351  -12.5213 C   0  0  0  0  0  0  0  0  0  0  0  0
  -13.9605  -36.6829  -11.6609 O   0  0  0  0  0  0  0  0  0  0  0  0
  -14.2839  -37.3228  -10.5756 N   0  0  0  0  0  0  0  0  0  0  0  0
  2  1  1  6
  2  3  1  0
  3  4  1  0
  4  5  1  0
  5  6  1  1
  5  7  1  0
  7  8  1  1
  8  9  1  0
  9 10  1  1
  9 11  1  0
 11 12  1  0
 12 13  1  0
 13 14  1  0
 14 15  1  0
 15 16  1  0
 16 17  1  0
 17 18  1  0
 18 19  1  0
 19 20  2  0
 20 21  1  0
 21 22  2  0
 22 23  1  0
 23 24  2  0
 21 25  1  0
 25 26  2  0
 25 27  1  0
  2 28  1  0
 28 29  1  0
 29 30  2  0
 30 31  1  0
 31 32  1  0
 32 33  1  0
 32 34  1  0
 32 35  1  0
 30 36  1  0
 36 37  1  0
 24 19  1  0
 27  7  1  0
 37 28  2  0
M  END
$$$$
