
     RDKit          3D

 37 39  0  0  0  0  0  0  0  0999 V2000
  -13.3040  -40.1273  -11.2701 C   0  0  0  0  0  0  0  0  0  0  0  0
  -14.4677  -40.5822  -10.4229 C   0  0  2  0  0  0  0  0  0  0  0  0
  -14.7005  -39.6582   -9.3434 N   0  0  0  0  0  0  0  0  0  0  0  0
  -15.6415  -40.1608   -8.3719 C   0  0  0  0  0  0  0  0  0  0  0  0
  -16.3676  -39.0683   -7.6955 C   0  0  1  0  0  0  0  0  0  0  0  0
  -15.6200  -37.8719   -7.8471 O   0  0  0  0  0  0  0  0  0  0  0  0
  -17.7401  -38.7407   -8.1965 C   0  0  2  0  0  0  0  0  0  0  0  0
  -18.7865  -38.7780   -7.1073 C   0  0  0  0  0  0  0  0  0  0  0  0
  -19.8706  -37.7403   -7.3362 C   0  0  2  0  0  0  0  0  0  0  0  0
  -19.5612  -36.5692   -6.4167 C   0  0  0  0  0  0  0  0  0  0  0  0
  -21.2514  -38.1843   -7.0922 C   0  0  0  0  0  0  0  0  0  0  0  0
  -21.4955  -39.6082   -6.7491 C   0  0  0  0  0  0  0  0  0  0  0  0
  -22.9393  -39.8993   -6.3804 C   0  0  0  0  0  0  0  0  0  0  0  0
  -22.9293  -41.1339   -5.4994 C   0  0  0  0  0  0  0  0  0  0  0  0
  -22.6223  -42.3810   -6.3051 C   0  0  0  0  0  0  0  0  0  0  0  0
  -22.2675  -43.5569   -5.4790 C   0  0  0  0  0  0  0  0  0  0  0  0
  -20.8162  -43.8316   -5.3004 C   0  0  0  0  0  0  0  0  0  0  0  0
  -20.1011  -44.1954   -6.4281 O   0  0  0  0  0  0  0  0  0  0  0  0
  -19.7738  -43.6046   -7.6432 C   0  0  0  0  0  0  0  0  0  0  0  0
  -19.0651  -42.4336   -7.8615 C   0  0  0  0  0  0  0  0  0  0  0  0
  -18.8487  -42.0104   -9.1472 C   0  0  0  0  0  0  0  0  0  0  0  0
  -19.3651  -42.8070  -10.2109 C   0  0  0  0  0  0  0  0  0  0  0  0
  -20.0658  -43.9676  -10.0428 C   0  0  0  0  0  0  0  0  0  0  0  0
  -20.2556  -44.3436   -8.7333 C   0  0  0  0  0  0  0  0  0  0  0  0
  -18.1584  -40.8344   -9.6954 C   0  0  0  0  0  0  0  0  0  0  0  0
  -17.3768  -41.0856  -10.7739 O   0  0  0  0  0  0  0  0  0  0  0  0
  -18.1133  -39.4642   -9.3630 N   0  0  0  0  0  0  0  0  0  0  0  0
  -14.2376  -41.9640   -9.8975 C   0  0  0  0  0  0  0  0  0  0  0  0
  -14.6618  -43.1312  -10.4835 C   0  0  0  0  0  0  0  0  0  0  0  0
  -14.2342  -44.1894   -9.6664 C   0  0  0  0  0  0  0  0  0  0  0  0
  -14.4303  -45.6322   -9.8467 C   0  0  0  0  0  0  0  0  0  0  0  0
  -15.7467  -45.9867  -10.4814 C   0  0  0  0  0  0  0  0  0  0  0  0
  -16.9349  -45.5135   -9.6753 C   0  0  0  0  0  0  0  0  0  0  0  0
  -15.8157  -45.2257  -11.8110 C   0  0  0  0  0  0  0  0  0  0  0  0
  -15.9073  -47.4384  -10.7863 C   0  0  0  0  0  0  0  0  0  0  0  0
  -13.5997  -43.6320   -8.6692 O   0  0  0  0  0  0  0  0  0  0  0  0
  -13.5885  -42.3362   -8.7818 N   0  0  0  0  0  0  0  0  0  0  0  0
  2  1  1  1
  2  3  1  0
  3  4  1  0
  4  5  1  0
  5  6  1  6
  5  7  1  0
  7  8  1  1
  8  9  1  0
  9 10  1  1
  9 11  1  0
 11 12  1  0
 12 13  1  0
 13 14  1  0
 14 15  1  0
 15 16  1  0
 16 17  1  0
 17 18  1  0
 18 19  1  0
 19 20  2  0
 20 21  1  0
 21 22  2  0
 22 23  1  0
 23 24  2  0
 21 25  1  0
 25 26  2  0
 25 27  1  0
  2 28  1  0
 28 29  1  0
 29 30  2  0
 30 31  1  0
 31 32  1  0
 32 33  1  0
 32 34  1  0
 32 35  1  0
 30 36  1  0
 36 37  1  0
 24 19  1  0
 27  7  1  0
 37 28  2  0
M  END
$$$$
