
     RDKit          3D

 37 39  0  0  0  0  0  0  0  0999 V2000
  -14.7627  -41.8786  -10.3852 C   0  0  0  0  0  0  0  0  0  0  0  0
  -13.8121  -40.7748   -9.9888 C   0  0  2  0  0  0  0  0  0  0  0  0
  -14.3618  -39.9956   -8.9099 N   0  0  0  0  0  0  0  0  0  0  0  0
  -15.0582  -40.8025   -7.9374 C   0  0  0  0  0  0  0  0  0  0  0  0
  -16.0668  -40.0198   -7.1968 C   0  0  1  0  0  0  0  0  0  0  0  0
  -15.4870  -38.7794   -6.8246 O   0  0  0  0  0  0  0  0  0  0  0  0
  -17.3282  -39.6631   -7.9203 C   0  0  2  0  0  0  0  0  0  0  0  0
  -18.4230  -39.1904   -6.9925 C   0  0  0  0  0  0  0  0  0  0  0  0
  -19.2887  -38.1269   -7.6436 C   0  0  2  0  0  0  0  0  0  0  0  0
  -18.8255  -36.7856   -7.0968 C   0  0  0  0  0  0  0  0  0  0  0  0
  -20.7382  -38.2530   -7.4280 C   0  0  0  0  0  0  0  0  0  0  0  0
  -21.2527  -39.4380   -6.6960 C   0  0  0  0  0  0  0  0  0  0  0  0
  -22.7435  -39.3717   -6.4160 C   0  0  0  0  0  0  0  0  0  0  0  0
  -23.0042  -40.2470   -5.2051 C   0  0  0  0  0  0  0  0  0  0  0  0
  -22.8821  -41.7175   -5.5538 C   0  0  0  0  0  0  0  0  0  0  0  0
  -22.7905  -42.6082   -4.3751 C   0  0  0  0  0  0  0  0  0  0  0  0
  -21.4243  -43.0303   -3.9641 C   0  0  0  0  0  0  0  0  0  0  0  0
  -20.7248  -43.8397   -4.8423 O   0  0  0  0  0  0  0  0  0  0  0  0
  -20.2300  -43.7247   -6.1364 C   0  0  0  0  0  0  0  0  0  0  0  0
  -19.3115  -42.8075   -6.6224 C   0  0  0  0  0  0  0  0  0  0  0  0
  -18.9518  -42.8548   -7.9443 C   0  0  0  0  0  0  0  0  0  0  0  0
  -19.5432  -43.8602   -8.7643 C   0  0  0  0  0  0  0  0  0  0  0  0
  -20.4492  -44.7848   -8.3279 C   0  0  0  0  0  0  0  0  0  0  0  0
  -20.7756  -44.6899   -6.9950 C   0  0  0  0  0  0  0  0  0  0  0  0
  -18.0322  -42.0354   -8.7461 C   0  0  0  0  0  0  0  0  0  0  0  0
  -17.2500  -42.7339   -9.6047 O   0  0  0  0  0  0  0  0  0  0  0  0
  -17.7602  -40.6547   -8.8442 N   0  0  0  0  0  0  0  0  0  0  0  0
  -13.4880  -39.9030  -11.1607 C   0  0  0  0  0  0  0  0  0  0  0  0
  -12.9195  -38.6542  -11.1046 C   0  0  0  0  0  0  0  0  0  0  0  0
  -12.7886  -38.1942  -12.4243 C   0  0  0  0  0  0  0  0  0  0  0  0
  -12.2406  -36.9221  -12.9083 C   0  0  0  0  0  0  0  0  0  0  0  0
  -13.2824  -35.8581  -13.1179 C   0  0  0  0  0  0  0  0  0  0  0  0
  -14.6120  -36.2041  -12.4871 C   0  0  0  0  0  0  0  0  0  0  0  0
  -12.7876  -34.6047  -12.3858 C   0  0  0  0  0  0  0  0  0  0  0  0
  -13.4988  -35.4872  -14.5467 C   0  0  0  0  0  0  0  0  0  0  0  0
  -13.2648  -39.1480  -13.1801 O   0  0  0  0  0  0  0  0  0  0  0  0
  -13.6783  -40.1539  -12.4666 N   0  0  0  0  0  0  0  0  0  0  0  0
  2  1  1  6
  2  3  1  0
  3  4  1  0
  4  5  1  0
  5  6  1  6
  5  7  1  0
  7  8  1  1
  8  9  1  0
  9 10  1  1
  9 11  1  0
 11 12  1  0
 12 13  1  0
 13 14  1  0
 14 15  1  0
 15 16  1  0
 16 17  1  0
 17 18  1  0
 18 19  1  0
 19 20  2  0
 20 21  1  0
 21 22  2  0
 22 23  1  0
 23 24  2  0
 21 25  1  0
 25 26  2  0
 25 27  1  0
  2 28  1  0
 28 29  1  0
 29 30  2  0
 30 31  1  0
 31 32  1  0
 32 33  1  0
 32 34  1  0
 32 35  1  0
 30 36  1  0
 36 37  1  0
 24 19  1  0
 27  7  1  0
 37 28  2  0
M  END
$$$$
