
     RDKit          3D

 37 39  0  0  0  0  0  0  0  0999 V2000
  -12.2111  -36.5264   -9.2353 C   0  0  0  0  0  0  0  0  0  0  0  0
  -13.3230  -37.3700   -9.8107 C   0  0  2  0  0  0  0  0  0  0  0  0
  -14.0330  -38.0561   -8.7625 N   0  0  0  0  0  0  0  0  0  0  0  0
  -15.4442  -37.7554   -8.7552 C   0  0  0  0  0  0  0  0  0  0  0  0
  -16.2575  -38.9487   -8.4505 C   0  0  1  0  0  0  0  0  0  0  0  0
  -16.3006  -39.1142   -7.0420 O   0  0  0  0  0  0  0  0  0  0  0  0
  -17.6892  -38.9360   -8.8890 C   0  0  2  0  0  0  0  0  0  0  0  0
  -18.6515  -38.7236   -7.7438 C   0  0  0  0  0  0  0  0  0  0  0  0
  -19.8691  -37.9263   -8.1758 C   0  0  2  0  0  0  0  0  0  0  0  0
  -19.6507  -36.4973   -7.7035 C   0  0  0  0  0  0  0  0  0  0  0  0
  -21.1653  -38.4016   -7.6687 C   0  0  0  0  0  0  0  0  0  0  0  0
  -21.2075  -39.6562   -6.8757 C   0  0  0  0  0  0  0  0  0  0  0  0
  -22.5774  -39.9536   -6.2923 C   0  0  0  0  0  0  0  0  0  0  0  0
  -22.3575  -40.8321   -5.0757 C   0  0  0  0  0  0  0  0  0  0  0  0
  -21.9489  -42.2355   -5.4782 C   0  0  0  0  0  0  0  0  0  0  0  0
  -21.3983  -43.0425   -4.3662 C   0  0  0  0  0  0  0  0  0  0  0  0
  -19.9157  -43.1013   -4.2566 C   0  0  0  0  0  0  0  0  0  0  0  0
  -19.2338  -43.7364   -5.2800 O   0  0  0  0  0  0  0  0  0  0  0  0
  -19.0605  -43.5385   -6.6451 C   0  0  0  0  0  0  0  0  0  0  0  0
  -18.5188  -42.4362   -7.2875 C   0  0  0  0  0  0  0  0  0  0  0  0
  -18.4389  -42.4298   -8.6559 C   0  0  0  0  0  0  0  0  0  0  0  0
  -18.9183  -43.5728   -9.3607 C   0  0  0  0  0  0  0  0  0  0  0  0
  -19.4565  -44.6806   -8.7696 C   0  0  0  0  0  0  0  0  0  0  0  0
  -19.5145  -44.6323   -7.3961 C   0  0  0  0  0  0  0  0  0  0  0  0
  -17.9371  -41.4308   -9.6098 C   0  0  0  0  0  0  0  0  0  0  0  0
  -17.2002  -41.9374  -10.6284 O   0  0  0  0  0  0  0  0  0  0  0  0
  -18.0424  -40.0290   -9.7280 N   0  0  0  0  0  0  0  0  0  0  0  0
  -12.7902  -38.3428  -10.8146 C   0  0  0  0  0  0  0  0  0  0  0  0
  -12.6764  -38.1269  -12.1660 C   0  0  0  0  0  0  0  0  0  0  0  0
  -12.1308  -39.2901  -12.7314 C   0  0  0  0  0  0  0  0  0  0  0  0
  -11.8111  -39.5715  -14.1354 C   0  0  0  0  0  0  0  0  0  0  0  0
  -12.6673  -40.6474  -14.7444 C   0  0  0  0  0  0  0  0  0  0  0  0
  -12.5324  -41.9771  -14.0378 C   0  0  0  0  0  0  0  0  0  0  0  0
  -14.1258  -40.2167  -14.5467 C   0  0  0  0  0  0  0  0  0  0  0  0
  -12.4520  -40.8453  -16.2074 C   0  0  0  0  0  0  0  0  0  0  0  0
  -11.9500  -40.1162  -11.7351 O   0  0  0  0  0  0  0  0  0  0  0  0
  -12.3268  -39.5867  -10.6083 N   0  0  0  0  0  0  0  0  0  0  0  0
  2  1  1  1
  2  3  1  0
  3  4  1  0
  4  5  1  0
  5  6  1  1
  5  7  1  0
  7  8  1  1
  8  9  1  0
  9 10  1  1
  9 11  1  0
 11 12  1  0
 12 13  1  0
 13 14  1  0
 14 15  1  0
 15 16  1  0
 16 17  1  0
 17 18  1  0
 18 19  1  0
 19 20  2  0
 20 21  1  0
 21 22  2  0
 22 23  1  0
 23 24  2  0
 21 25  1  0
 25 26  2  0
 25 27  1  0
  2 28  1  0
 28 29  1  0
 29 30  2  0
 30 31  1  0
 31 32  1  0
 32 33  1  0
 32 34  1  0
 32 35  1  0
 30 36  1  0
 36 37  1  0
 24 19  1  0
 27  7  1  0
 37 28  2  0
M  END
$$$$
