
     RDKit          3D

 37 39  0  0  0  0  0  0  0  0999 V2000
  -16.6065  -36.2088  -11.1854 C   0  0  0  0  0  0  0  0  0  0  0  0
  -16.2430  -37.6517  -10.9308 C   0  0  2  0  0  0  0  0  0  0  0  0
  -16.4182  -37.9807   -9.5400 N   0  0  0  0  0  0  0  0  0  0  0  0
  -16.5899  -39.3961   -9.3188 C   0  0  0  0  0  0  0  0  0  0  0  0
  -16.9999  -39.6885   -7.9315 C   0  0  1  0  0  0  0  0  0  0  0  0
  -15.9811  -39.2301   -7.0567 O   0  0  0  0  0  0  0  0  0  0  0  0
  -18.2602  -39.0488   -7.4370 C   0  0  2  0  0  0  0  0  0  0  0  0
  -18.9787  -39.8880   -6.4063 C   0  0  0  0  0  0  0  0  0  0  0  0
  -19.6755  -39.0259   -5.3691 C   0  0  2  0  0  0  0  0  0  0  0  0
  -18.7901  -39.0211   -4.1327 C   0  0  0  0  0  0  0  0  0  0  0  0
  -21.0299  -39.4492   -4.9821 C   0  0  0  0  0  0  0  0  0  0  0  0
  -21.6499  -40.5989   -5.6883 C   0  0  0  0  0  0  0  0  0  0  0  0
  -22.9821  -41.0218   -5.0954 C   0  0  0  0  0  0  0  0  0  0  0  0
  -23.1829  -42.4809   -5.4577 C   0  0  0  0  0  0  0  0  0  0  0  0
  -23.5042  -42.6418   -6.9307 C   0  0  0  0  0  0  0  0  0  0  0  0
  -23.3828  -44.0324   -7.4230 C   0  0  0  0  0  0  0  0  0  0  0  0
  -22.1069  -44.3902   -8.0995 C   0  0  0  0  0  0  0  0  0  0  0  0
  -21.8341  -43.7610   -9.3017 O   0  0  0  0  0  0  0  0  0  0  0  0
  -21.6169  -42.4545   -9.7244 C   0  0  0  0  0  0  0  0  0  0  0  0
  -20.6281  -41.5753   -9.3118 C   0  0  0  0  0  0  0  0  0  0  0  0
  -20.5845  -40.3150   -9.8490 C   0  0  0  0  0  0  0  0  0  0  0  0
  -21.5673  -39.9665  -10.8214 C   0  0  0  0  0  0  0  0  0  0  0  0
  -22.5569  -40.8005  -11.2591 C   0  0  0  0  0  0  0  0  0  0  0  0
  -22.5549  -42.0507  -10.6855 C   0  0  0  0  0  0  0  0  0  0  0  0
  -19.6867  -39.1747   -9.6175 C   0  0  0  0  0  0  0  0  0  0  0  0
  -19.3042  -38.5157  -10.7384 O   0  0  0  0  0  0  0  0  0  0  0  0
  -19.1113  -38.5791   -8.4755 N   0  0  0  0  0  0  0  0  0  0  0  0
  -14.8410  -37.9345  -11.3699 C   0  0  0  0  0  0  0  0  0  0  0  0
  -13.7041  -37.3557  -10.8617 C   0  0  0  0  0  0  0  0  0  0  0  0
  -12.6112  -37.9037  -11.5515 C   0  0  0  0  0  0  0  0  0  0  0  0
  -11.1807  -37.6217  -11.3874 C   0  0  0  0  0  0  0  0  0  0  0  0
  -10.3022  -38.3921  -12.3340 C   0  0  0  0  0  0  0  0  0  0  0  0
   -8.8285  -38.2064  -12.0521 C   0  0  0  0  0  0  0  0  0  0  0  0
  -10.5884  -39.8792  -12.0918 C   0  0  0  0  0  0  0  0  0  0  0  0
  -10.5649  -38.1135  -13.7760 C   0  0  0  0  0  0  0  0  0  0  0  0
  -13.1212  -38.7506  -12.4062 O   0  0  0  0  0  0  0  0  0  0  0  0
  -14.4185  -38.7859  -12.3191 N   0  0  0  0  0  0  0  0  0  0  0  0
  2  1  1  1
  2  3  1  0
  3  4  1  0
  4  5  1  0
  5  6  1  1
  5  7  1  0
  7  8  1  6
  8  9  1  0
  9 10  1  1
  9 11  1  0
 11 12  1  0
 12 13  1  0
 13 14  1  0
 14 15  1  0
 15 16  1  0
 16 17  1  0
 17 18  1  0
 18 19  1  0
 19 20  2  0
 20 21  1  0
 21 22  2  0
 22 23  1  0
 23 24  2  0
 21 25  1  0
 25 26  2  0
 25 27  1  0
  2 28  1  0
 28 29  1  0
 29 30  2  0
 30 31  1  0
 31 32  1  0
 32 33  1  0
 32 34  1  0
 32 35  1  0
 30 36  1  0
 36 37  1  0
 24 19  1  0
 27  7  1  0
 37 28  2  0
M  END
$$$$
