
     RDKit          3D

 37 39  0  0  0  0  0  0  0  0999 V2000
  -12.8877  -41.5439  -10.6046 C   0  0  0  0  0  0  0  0  0  0  0  0
  -13.4593  -40.3827   -9.8275 C   0  0  2  0  0  0  0  0  0  0  0  0
  -14.7238  -40.7403   -9.2387 N   0  0  0  0  0  0  0  0  0  0  0  0
  -14.9703  -40.0601   -7.9904 C   0  0  0  0  0  0  0  0  0  0  0  0
  -16.3087  -40.3707   -7.4516 C   0  0  1  0  0  0  0  0  0  0  0  0
  -16.4661  -39.6852   -6.2193 O   0  0  0  0  0  0  0  0  0  0  0  0
  -17.4925  -39.9721   -8.2774 C   0  0  2  0  0  0  0  0  0  0  0  0
  -18.5638  -39.2773   -7.4698 C   0  0  0  0  0  0  0  0  0  0  0  0
  -19.2786  -38.2144   -8.2846 C   0  0  2  0  0  0  0  0  0  0  0  0
  -18.6906  -36.8736   -7.8729 C   0  0  0  0  0  0  0  0  0  0  0  0
  -20.7405  -38.1589   -8.1329 C   0  0  0  0  0  0  0  0  0  0  0  0
  -21.4130  -39.1854   -7.2970 C   0  0  0  0  0  0  0  0  0  0  0  0
  -22.8971  -38.9279   -7.1058 C   0  0  0  0  0  0  0  0  0  0  0  0
  -23.3022  -39.6178   -5.8173 C   0  0  0  0  0  0  0  0  0  0  0  0
  -23.3312  -41.1242   -5.9866 C   0  0  0  0  0  0  0  0  0  0  0  0
  -23.3869  -41.8706   -4.7095 C   0  0  0  0  0  0  0  0  0  0  0  0
  -22.0940  -42.3826   -4.1806 C   0  0  0  0  0  0  0  0  0  0  0  0
  -21.4547  -43.3619   -4.9210 O   0  0  0  0  0  0  0  0  0  0  0  0
  -20.8987  -43.4572   -6.1916 C   0  0  0  0  0  0  0  0  0  0  0  0
  -19.8648  -42.7082   -6.7311 C   0  0  0  0  0  0  0  0  0  0  0  0
  -19.4601  -42.9529   -8.0177 C   0  0  0  0  0  0  0  0  0  0  0  0
  -20.1268  -43.9814   -8.7460 C   0  0  0  0  0  0  0  0  0  0  0  0
  -21.1472  -44.7451   -8.2542 C   0  0  0  0  0  0  0  0  0  0  0  0
  -21.5140  -44.4557   -6.9605 C   0  0  0  0  0  0  0  0  0  0  0  0
  -18.4234  -42.3386   -8.8591 C   0  0  0  0  0  0  0  0  0  0  0  0
  -17.6904  -43.2148   -9.5885 O   0  0  0  0  0  0  0  0  0  0  0  0
  -17.9952  -41.0166   -9.1019 N   0  0  0  0  0  0  0  0  0  0  0  0
  -13.6032  -39.1757  -10.6998 C   0  0  0  0  0  0  0  0  0  0  0  0
  -13.1875  -37.9036  -10.3921 C   0  0  0  0  0  0  0  0  0  0  0  0
  -13.5129  -37.0817  -11.4824 C   0  0  0  0  0  0  0  0  0  0  0  0
  -13.2821  -35.6431  -11.6551 C   0  0  0  0  0  0  0  0  0  0  0  0
  -12.3057  -35.3167  -12.7512 C   0  0  0  0  0  0  0  0  0  0  0  0
  -12.2414  -33.8383  -13.0610 C   0  0  0  0  0  0  0  0  0  0  0  0
  -10.9136  -35.6939  -12.2301 C   0  0  0  0  0  0  0  0  0  0  0  0
  -12.5316  -36.0738  -14.0168 C   0  0  0  0  0  0  0  0  0  0  0  0
  -14.0851  -37.8654  -12.3577 O   0  0  0  0  0  0  0  0  0  0  0  0
  -14.1491  -39.0901  -11.9242 N   0  0  0  0  0  0  0  0  0  0  0  0
  2  1  1  6
  2  3  1  0
  3  4  1  0
  4  5  1  0
  5  6  1  1
  5  7  1  0
  7  8  1  1
  8  9  1  0
  9 10  1  1
  9 11  1  0
 11 12  1  0
 12 13  1  0
 13 14  1  0
 14 15  1  0
 15 16  1  0
 16 17  1  0
 17 18  1  0
 18 19  1  0
 19 20  2  0
 20 21  1  0
 21 22  2  0
 22 23  1  0
 23 24  2  0
 21 25  1  0
 25 26  2  0
 25 27  1  0
  2 28  1  0
 28 29  1  0
 29 30  2  0
 30 31  1  0
 31 32  1  0
 32 33  1  0
 32 34  1  0
 32 35  1  0
 30 36  1  0
 36 37  1  0
 24 19  1  0
 27  7  1  0
 37 28  2  0
M  END
$$$$
