
     RDKit          3D

 37 39  0  0  0  0  0  0  0  0999 V2000
  -13.1840  -42.3369  -10.2480 C   0  0  0  0  0  0  0  0  0  0  0  0
  -13.5276  -40.9482   -9.7658 C   0  0  2  0  0  0  0  0  0  0  0  0
  -14.8391  -40.9280   -9.1717 N   0  0  0  0  0  0  0  0  0  0  0  0
  -15.1808  -39.6405   -8.6173 C   0  0  0  0  0  0  0  0  0  0  0  0
  -16.3761  -39.7145   -7.7548 C   0  0  1  0  0  0  0  0  0  0  0  0
  -16.2020  -38.8174   -6.6694 O   0  0  0  0  0  0  0  0  0  0  0  0
  -17.6906  -39.3409   -8.3670 C   0  0  2  0  0  0  0  0  0  0  0  0
  -18.7879  -39.1720   -7.3423 C   0  0  0  0  0  0  0  0  0  0  0  0
  -19.7692  -38.0863   -7.7462 C   0  0  2  0  0  0  0  0  0  0  0  0
  -19.4079  -36.8451   -6.9451 C   0  0  0  0  0  0  0  0  0  0  0  0
  -21.1924  -38.3910   -7.5345 C   0  0  0  0  0  0  0  0  0  0  0  0
  -21.5710  -39.7429   -7.0512 C   0  0  0  0  0  0  0  0  0  0  0  0
  -23.0503  -39.8770   -6.7363 C   0  0  0  0  0  0  0  0  0  0  0  0
  -23.1862  -40.9996   -5.7256 C   0  0  0  0  0  0  0  0  0  0  0  0
  -22.9458  -42.3508   -6.3699 C   0  0  0  0  0  0  0  0  0  0  0  0
  -22.7309  -43.4484   -5.4002 C   0  0  0  0  0  0  0  0  0  0  0  0
  -21.3180  -43.8126   -5.1092 C   0  0  0  0  0  0  0  0  0  0  0  0
  -20.5820  -44.3575   -6.1470 O   0  0  0  0  0  0  0  0  0  0  0  0
  -20.1481  -43.9368   -7.3990 C   0  0  0  0  0  0  0  0  0  0  0  0
  -19.3342  -42.8571   -7.7038 C   0  0  0  0  0  0  0  0  0  0  0  0
  -19.0212  -42.6020   -9.0137 C   0  0  0  0  0  0  0  0  0  0  0  0
  -19.5503  -43.4727  -10.0111 C   0  0  0  0  0  0  0  0  0  0  0  0
  -20.3529  -44.5485   -9.7567 C   0  0  0  0  0  0  0  0  0  0  0  0
  -20.6366  -44.7562   -8.4268 C   0  0  0  0  0  0  0  0  0  0  0  0
  -18.2094  -41.5536   -9.6476 C   0  0  0  0  0  0  0  0  0  0  0  0
  -17.4002  -41.9865  -10.6451 O   0  0  0  0  0  0  0  0  0  0  0  0
  -18.0661  -40.1620   -9.4661 N   0  0  0  0  0  0  0  0  0  0  0  0
  -13.4366  -39.9573  -10.8831 C   0  0  0  0  0  0  0  0  0  0  0  0
  -12.6004  -38.8691  -10.9303 C   0  0  0  0  0  0  0  0  0  0  0  0
  -12.8358  -38.2128  -12.1486 C   0  0  0  0  0  0  0  0  0  0  0  0
  -12.2028  -37.0012  -12.6817 C   0  0  0  0  0  0  0  0  0  0  0  0
  -12.9543  -35.7384  -12.3624 C   0  0  0  0  0  0  0  0  0  0  0  0
  -12.9921  -35.4345  -10.8820 C   0  0  0  0  0  0  0  0  0  0  0  0
  -12.1738  -34.5851  -13.0046 C   0  0  0  0  0  0  0  0  0  0  0  0
  -14.3428  -35.6988  -12.9070 C   0  0  0  0  0  0  0  0  0  0  0  0
  -13.7637  -38.9082  -12.7512 O   0  0  0  0  0  0  0  0  0  0  0  0
  -14.1297  -39.9293  -12.0334 N   0  0  0  0  0  0  0  0  0  0  0  0
  2  1  1  6
  2  3  1  0
  3  4  1  0
  4  5  1  0
  5  6  1  1
  5  7  1  0
  7  8  1  1
  8  9  1  0
  9 10  1  1
  9 11  1  0
 11 12  1  0
 12 13  1  0
 13 14  1  0
 14 15  1  0
 15 16  1  0
 16 17  1  0
 17 18  1  0
 18 19  1  0
 19 20  2  0
 20 21  1  0
 21 22  2  0
 22 23  1  0
 23 24  2  0
 21 25  1  0
 25 26  2  0
 25 27  1  0
  2 28  1  0
 28 29  1  0
 29 30  2  0
 30 31  1  0
 31 32  1  0
 32 33  1  0
 32 34  1  0
 32 35  1  0
 30 36  1  0
 36 37  1  0
 24 19  1  0
 27  7  1  0
 37 28  2  0
M  END
$$$$
