
     RDKit          3D

 37 39  0  0  0  0  0  0  0  0999 V2000
  -19.3224  -37.0939   -7.7568 C   0  0  0  0  0  0  0  0  0  0  0  0
  -18.8197  -38.3720   -7.1302 C   0  0  2  0  0  0  0  0  0  0  0  0
  -17.7274  -38.9159   -7.8947 N   0  0  0  0  0  0  0  0  0  0  0  0
  -16.4833  -38.9216   -7.1639 C   0  0  0  0  0  0  0  0  0  0  0  0
  -15.4403  -38.1350   -7.8507 C   0  0  1  0  0  0  0  0  0  0  0  0
  -14.8491  -37.2546   -6.9080 O   0  0  0  0  0  0  0  0  0  0  0  0
  -14.2968  -38.8886   -8.4561 C   0  0  2  0  0  0  0  0  0  0  0  0
  -13.3793  -38.0072   -9.2710 C   0  0  0  0  0  0  0  0  0  0  0  0
  -11.9351  -38.4665   -9.1803 C   0  0  2  0  0  0  0  0  0  0  0  0
  -11.2421  -37.5486   -8.1854 C   0  0  0  0  0  0  0  0  0  0  0  0
  -11.1758  -38.4618  -10.4400 C   0  0  0  0  0  0  0  0  0  0  0  0
  -11.8817  -38.1181  -11.7002 C   0  0  0  0  0  0  0  0  0  0  0  0
  -10.9552  -38.0079  -12.8981 C   0  0  0  0  0  0  0  0  0  0  0  0
  -11.6366  -37.0962  -13.9005 C   0  0  0  0  0  0  0  0  0  0  0  0
  -12.8140  -37.7875  -14.5597 C   0  0  0  0  0  0  0  0  0  0  0  0
  -13.7186  -36.8690  -15.2873 C   0  0  0  0  0  0  0  0  0  0  0  0
  -14.9365  -36.4198  -14.5604 C   0  0  0  0  0  0  0  0  0  0  0  0
  -15.8819  -37.3849  -14.2597 O   0  0  0  0  0  0  0  0  0  0  0  0
  -15.9263  -38.5406  -13.4883 C   0  0  0  0  0  0  0  0  0  0  0  0
  -15.7084  -38.6681  -12.1254 C   0  0  0  0  0  0  0  0  0  0  0  0
  -15.7934  -39.9073  -11.5457 C   0  0  0  0  0  0  0  0  0  0  0  0
  -16.1103  -41.0180  -12.3817 C   0  0  0  0  0  0  0  0  0  0  0  0
  -16.3353  -40.9387  -13.7268 C   0  0  0  0  0  0  0  0  0  0  0  0
  -16.2348  -39.6729  -14.2559 C   0  0  0  0  0  0  0  0  0  0  0  0
  -15.6114  -40.3626  -10.1603 C   0  0  0  0  0  0  0  0  0  0  0  0
  -16.5233  -41.2713   -9.7361 O   0  0  0  0  0  0  0  0  0  0  0  0
  -14.6869  -40.0768   -9.1338 N   0  0  0  0  0  0  0  0  0  0  0  0
  -19.9243  -39.3724   -6.9985 C   0  0  0  0  0  0  0  0  0  0  0  0
  -20.8258  -39.4478   -5.9654 C   0  0  0  0  0  0  0  0  0  0  0  0
  -21.6856  -40.5234   -6.2377 C   0  0  0  0  0  0  0  0  0  0  0  0
  -22.8174  -41.0229   -5.4488 C   0  0  0  0  0  0  0  0  0  0  0  0
  -22.4332  -42.0690   -4.4391 C   0  0  0  0  0  0  0  0  0  0  0  0
  -20.9646  -42.4242   -4.4896 C   0  0  0  0  0  0  0  0  0  0  0  0
  -22.6654  -41.4529   -3.0541 C   0  0  0  0  0  0  0  0  0  0  0  0
  -23.2434  -43.3195   -4.5157 C   0  0  0  0  0  0  0  0  0  0  0  0
  -21.2776  -41.0234   -7.3740 O   0  0  0  0  0  0  0  0  0  0  0  0
  -20.2527  -40.3695   -7.8367 N   0  0  0  0  0  0  0  0  0  0  0  0
  2  1  1  6
  2  3  1  0
  3  4  1  0
  4  5  1  0
  5  6  1  1
  5  7  1  0
  7  8  1  6
  8  9  1  0
  9 10  1  1
  9 11  1  0
 11 12  1  0
 12 13  1  0
 13 14  1  0
 14 15  1  0
 15 16  1  0
 16 17  1  0
 17 18  1  0
 18 19  1  0
 19 20  2  0
 20 21  1  0
 21 22  2  0
 22 23  1  0
 23 24  2  0
 21 25  1  0
 25 26  2  0
 25 27  1  0
  2 28  1  0
 28 29  1  0
 29 30  2  0
 30 31  1  0
 31 32  1  0
 32 33  1  0
 32 34  1  0
 32 35  1  0
 30 36  1  0
 36 37  1  0
 24 19  1  0
 27  7  1  0
 37 28  2  0
M  END
$$$$
