
     RDKit          3D

 37 39  0  0  0  0  0  0  0  0999 V2000
  -12.0248  -40.3458   -8.7864 C   0  0  0  0  0  0  0  0  0  0  0  0
  -13.2422  -39.4878   -9.0327 C   0  0  2  0  0  0  0  0  0  0  0  0
  -14.4461  -40.2669   -8.9024 N   0  0  0  0  0  0  0  0  0  0  0  0
  -15.6365  -39.5089   -9.2029 C   0  0  0  0  0  0  0  0  0  0  0  0
  -16.6586  -39.6519   -8.1478 C   0  0  1  0  0  0  0  0  0  0  0  0
  -16.3382  -38.7624   -7.0898 O   0  0  0  0  0  0  0  0  0  0  0  0
  -18.0750  -39.3335   -8.5142 C   0  0  2  0  0  0  0  0  0  0  0  0
  -18.9904  -39.2663   -7.3140 C   0  0  0  0  0  0  0  0  0  0  0  0
  -20.0802  -38.2256   -7.4983 C   0  0  2  0  0  0  0  0  0  0  0  0
  -19.6528  -36.9956   -6.7128 C   0  0  0  0  0  0  0  0  0  0  0  0
  -21.4296  -38.6203   -7.0662 C   0  0  0  0  0  0  0  0  0  0  0  0
  -21.6511  -40.0087   -6.5888 C   0  0  0  0  0  0  0  0  0  0  0  0
  -23.0469  -40.2402   -6.0378 C   0  0  0  0  0  0  0  0  0  0  0  0
  -22.9520  -41.4049   -5.0710 C   0  0  0  0  0  0  0  0  0  0  0  0
  -22.7551  -42.7154   -5.8076 C   0  0  0  0  0  0  0  0  0  0  0  0
  -22.3231  -43.8332   -4.9386 C   0  0  0  0  0  0  0  0  0  0  0  0
  -20.8646  -44.1248   -4.9045 C   0  0  0  0  0  0  0  0  0  0  0  0
  -20.2879  -44.5877   -6.0744 O   0  0  0  0  0  0  0  0  0  0  0  0
  -20.0942  -44.0971   -7.3607 C   0  0  0  0  0  0  0  0  0  0  0  0
  -19.4001  -42.9614   -7.7474 C   0  0  0  0  0  0  0  0  0  0  0  0
  -19.3268  -42.6409   -9.0782 C   0  0  0  0  0  0  0  0  0  0  0  0
  -19.9717  -43.5040  -10.0120 C   0  0  0  0  0  0  0  0  0  0  0  0
  -20.6634  -44.6333   -9.6766 C   0  0  0  0  0  0  0  0  0  0  0  0
  -20.7069  -44.9056   -8.3290 C   0  0  0  0  0  0  0  0  0  0  0  0
  -18.6888  -41.5246   -9.7900 C   0  0  0  0  0  0  0  0  0  0  0  0
  -18.0390  -41.8729  -10.9273 O   0  0  0  0  0  0  0  0  0  0  0  0
  -18.5885  -40.1345   -9.5716 N   0  0  0  0  0  0  0  0  0  0  0  0
  -13.1742  -38.8384  -10.3788 C   0  0  0  0  0  0  0  0  0  0  0  0
  -13.0396  -37.4932  -10.6198 C   0  0  0  0  0  0  0  0  0  0  0  0
  -13.0168  -37.3176  -12.0123 C   0  0  0  0  0  0  0  0  0  0  0  0
  -12.8899  -36.0763  -12.7841 C   0  0  0  0  0  0  0  0  0  0  0  0
  -11.4853  -35.7905  -13.2391 C   0  0  0  0  0  0  0  0  0  0  0  0
  -11.3608  -34.4745  -13.9727 C   0  0  0  0  0  0  0  0  0  0  0  0
  -10.6318  -35.6442  -11.9735 C   0  0  0  0  0  0  0  0  0  0  0  0
  -10.8785  -36.8732  -14.0671 C   0  0  0  0  0  0  0  0  0  0  0  0
  -13.1341  -38.5154  -12.5216 O   0  0  0  0  0  0  0  0  0  0  0  0
  -13.2274  -39.4178  -11.5895 N   0  0  0  0  0  0  0  0  0  0  0  0
  2  1  1  6
  2  3  1  0
  3  4  1  0
  4  5  1  0
  5  6  1  1
  5  7  1  0
  7  8  1  1
  8  9  1  0
  9 10  1  1
  9 11  1  0
 11 12  1  0
 12 13  1  0
 13 14  1  0
 14 15  1  0
 15 16  1  0
 16 17  1  0
 17 18  1  0
 18 19  1  0
 19 20  2  0
 20 21  1  0
 21 22  2  0
 22 23  1  0
 23 24  2  0
 21 25  1  0
 25 26  2  0
 25 27  1  0
  2 28  1  0
 28 29  1  0
 29 30  2  0
 30 31  1  0
 31 32  1  0
 32 33  1  0
 32 34  1  0
 32 35  1  0
 30 36  1  0
 36 37  1  0
 24 19  1  0
 27  7  1  0
 37 28  2  0
M  END
$$$$
