
     RDKit          3D

 37 39  0  0  0  0  0  0  0  0999 V2000
  -12.5584  -41.1052   -9.5574 C   0  0  0  0  0  0  0  0  0  0  0  0
  -13.4345  -39.9289   -9.2001 C   0  0  2  0  0  0  0  0  0  0  0  0
  -14.7475  -40.3744   -8.8113 N   0  0  0  0  0  0  0  0  0  0  0  0
  -15.5812  -39.2999   -8.3292 C   0  0  0  0  0  0  0  0  0  0  0  0
  -16.7037  -39.8010   -7.5124 C   0  0  1  0  0  0  0  0  0  0  0  0
  -16.6828  -39.1303   -6.2622 O   0  0  0  0  0  0  0  0  0  0  0  0
  -18.0878  -39.5963   -8.0456 C   0  0  2  0  0  0  0  0  0  0  0  0
  -19.1315  -39.5234   -6.9555 C   0  0  0  0  0  0  0  0  0  0  0  0
  -20.2541  -38.5678   -7.3178 C   0  0  2  0  0  0  0  0  0  0  0  0
  -19.9886  -37.2713   -6.5685 C   0  0  0  0  0  0  0  0  0  0  0  0
  -21.6170  -39.0255   -7.0076 C   0  0  0  0  0  0  0  0  0  0  0  0
  -21.8071  -40.3972   -6.4720 C   0  0  0  0  0  0  0  0  0  0  0  0
  -23.2387  -40.6889   -6.0588 C   0  0  0  0  0  0  0  0  0  0  0  0
  -23.1817  -41.7903   -5.0176 C   0  0  0  0  0  0  0  0  0  0  0  0
  -22.8284  -43.1235   -5.6473 C   0  0  0  0  0  0  0  0  0  0  0  0
  -22.4290  -44.1614   -4.6705 C   0  0  0  0  0  0  0  0  0  0  0  0
  -20.9683  -44.3549   -4.4643 C   0  0  0  0  0  0  0  0  0  0  0  0
  -20.2406  -44.8424   -5.5359 O   0  0  0  0  0  0  0  0  0  0  0  0
  -19.9365  -44.4113   -6.8221 C   0  0  0  0  0  0  0  0  0  0  0  0
  -19.2725  -43.2555   -7.2021 C   0  0  0  0  0  0  0  0  0  0  0  0
  -19.0729  -43.0042   -8.5348 C   0  0  0  0  0  0  0  0  0  0  0  0
  -19.5595  -43.9574   -9.4769 C   0  0  0  0  0  0  0  0  0  0  0  0
  -20.2160  -45.1094   -9.1479 C   0  0  0  0  0  0  0  0  0  0  0  0
  -20.3907  -45.3098   -7.7983 C   0  0  0  0  0  0  0  0  0  0  0  0
  -18.4278  -41.8892   -9.2423 C   0  0  0  0  0  0  0  0  0  0  0  0
  -17.6379  -42.2561  -10.2809 O   0  0  0  0  0  0  0  0  0  0  0  0
  -18.4342  -40.4857   -9.1003 N   0  0  0  0  0  0  0  0  0  0  0  0
  -13.5187  -38.9609  -10.3378 C   0  0  0  0  0  0  0  0  0  0  0  0
  -12.9268  -37.7228  -10.3892 C   0  0  0  0  0  0  0  0  0  0  0  0
  -13.2573  -37.1520  -11.6283 C   0  0  0  0  0  0  0  0  0  0  0  0
  -12.8753  -35.8445  -12.1734 C   0  0  0  0  0  0  0  0  0  0  0  0
  -11.6546  -35.8906  -13.0505 C   0  0  0  0  0  0  0  0  0  0  0  0
  -11.8603  -36.7126  -14.3025 C   0  0  0  0  0  0  0  0  0  0  0  0
  -11.4009  -34.4565  -13.5308 C   0  0  0  0  0  0  0  0  0  0  0  0
  -10.4194  -36.3562  -12.3552 C   0  0  0  0  0  0  0  0  0  0  0  0
  -14.0012  -38.0366  -12.2380 O   0  0  0  0  0  0  0  0  0  0  0  0
  -14.1675  -39.0988  -11.5059 N   0  0  0  0  0  0  0  0  0  0  0  0
  2  1  1  6
  2  3  1  0
  3  4  1  0
  4  5  1  0
  5  6  1  1
  5  7  1  0
  7  8  1  1
  8  9  1  0
  9 10  1  1
  9 11  1  0
 11 12  1  0
 12 13  1  0
 13 14  1  0
 14 15  1  0
 15 16  1  0
 16 17  1  0
 17 18  1  0
 18 19  1  0
 19 20  2  0
 20 21  1  0
 21 22  2  0
 22 23  1  0
 23 24  2  0
 21 25  1  0
 25 26  2  0
 25 27  1  0
  2 28  1  0
 28 29  1  0
 29 30  2  0
 30 31  1  0
 31 32  1  0
 32 33  1  0
 32 34  1  0
 32 35  1  0
 30 36  1  0
 36 37  1  0
 24 19  1  0
 27  7  1  0
 37 28  2  0
M  END
$$$$
