
     RDKit          3D

 37 39  0  0  0  0  0  0  0  0999 V2000
  -20.5070  -37.8936   -9.3213 C   0  0  0  0  0  0  0  0  0  0  0  0
  -20.5023  -38.0200   -7.8170 C   0  0  2  0  0  0  0  0  0  0  0  0
  -19.1746  -37.8224   -7.2959 N   0  0  0  0  0  0  0  0  0  0  0  0
  -18.3659  -39.0155   -7.3619 C   0  0  0  0  0  0  0  0  0  0  0  0
  -17.1712  -38.8222   -8.2066 C   0  0  1  0  0  0  0  0  0  0  0  0
  -16.6706  -37.5136   -7.9824 O   0  0  0  0  0  0  0  0  0  0  0  0
  -16.0073  -39.7343   -7.9713 C   0  0  2  0  0  0  0  0  0  0  0  0
  -14.9067  -39.5558   -8.9909 C   0  0  0  0  0  0  0  0  0  0  0  0
  -13.5351  -39.7775   -8.3793 C   0  0  2  0  0  0  0  0  0  0  0  0
  -12.9408  -38.4021   -8.1190 C   0  0  0  0  0  0  0  0  0  0  0  0
  -12.5868  -40.5599   -9.1868 C   0  0  0  0  0  0  0  0  0  0  0  0
  -13.0545  -41.1539  -10.4647 C   0  0  0  0  0  0  0  0  0  0  0  0
  -11.9435  -41.8084  -11.2663 C   0  0  0  0  0  0  0  0  0  0  0  0
  -12.3846  -41.8032  -12.7174 C   0  0  0  0  0  0  0  0  0  0  0  0
  -13.4916  -42.8107  -12.9585 C   0  0  0  0  0  0  0  0  0  0  0  0
  -14.1955  -42.6316  -14.2483 C   0  0  0  0  0  0  0  0  0  0  0  0
  -15.4754  -41.8742  -14.2087 C   0  0  0  0  0  0  0  0  0  0  0  0
  -16.5279  -42.4525  -13.5207 O   0  0  0  0  0  0  0  0  0  0  0  0
  -16.7834  -42.8265  -12.2063 C   0  0  0  0  0  0  0  0  0  0  0  0
  -16.7956  -42.0245  -11.0759 C   0  0  0  0  0  0  0  0  0  0  0  0
  -17.0668  -42.5887   -9.8564 C   0  0  0  0  0  0  0  0  0  0  0  0
  -17.3311  -43.9890   -9.8095 C   0  0  0  0  0  0  0  0  0  0  0  0
  -17.3322  -44.8161  -10.8968 C   0  0  0  0  0  0  0  0  0  0  0  0
  -17.0518  -44.1982  -12.0933 C   0  0  0  0  0  0  0  0  0  0  0  0
  -17.1432  -42.0218   -8.5026 C   0  0  0  0  0  0  0  0  0  0  0  0
  -18.1781  -42.4754   -7.7540 O   0  0  0  0  0  0  0  0  0  0  0  0
  -16.3747  -41.0936   -7.7693 N   0  0  0  0  0  0  0  0  0  0  0  0
  -21.0468  -39.3468   -7.3910 C   0  0  0  0  0  0  0  0  0  0  0  0
  -21.9445  -39.5619   -6.3743 C   0  0  0  0  0  0  0  0  0  0  0  0
  -22.1861  -40.9434   -6.3145 C   0  0  0  0  0  0  0  0  0  0  0  0
  -23.0651  -41.6881   -5.4060 C   0  0  0  0  0  0  0  0  0  0  0  0
  -22.4141  -42.0503   -4.0998 C   0  0  0  0  0  0  0  0  0  0  0  0
  -21.7352  -40.8745   -3.4348 C   0  0  0  0  0  0  0  0  0  0  0  0
  -23.5390  -42.4748   -3.1478 C   0  0  0  0  0  0  0  0  0  0  0  0
  -21.4507  -43.1859   -4.1908 C   0  0  0  0  0  0  0  0  0  0  0  0
  -21.4529  -41.4718   -7.2584 O   0  0  0  0  0  0  0  0  0  0  0  0
  -20.7802  -40.5614   -7.8992 N   0  0  0  0  0  0  0  0  0  0  0  0
  2  1  1  6
  2  3  1  0
  3  4  1  0
  4  5  1  0
  5  6  1  1
  5  7  1  0
  7  8  1  6
  8  9  1  0
  9 10  1  6
  9 11  1  0
 11 12  1  0
 12 13  1  0
 13 14  1  0
 14 15  1  0
 15 16  1  0
 16 17  1  0
 17 18  1  0
 18 19  1  0
 19 20  2  0
 20 21  1  0
 21 22  2  0
 22 23  1  0
 23 24  2  0
 21 25  1  0
 25 26  2  0
 25 27  1  0
  2 28  1  0
 28 29  1  0
 29 30  2  0
 30 31  1  0
 31 32  1  0
 32 33  1  0
 32 34  1  0
 32 35  1  0
 30 36  1  0
 36 37  1  0
 24 19  1  0
 27  7  1  0
 37 28  2  0
M  END
$$$$
