
     RDKit          3D

 37 39  0  0  0  0  0  0  0  0999 V2000
  -12.9065  -42.2574   -9.9955 C   0  0  0  0  0  0  0  0  0  0  0  0
  -13.2746  -40.9189   -9.4023 C   0  0  2  0  0  0  0  0  0  0  0  0
  -14.4973  -41.0177   -8.6482 N   0  0  0  0  0  0  0  0  0  0  0  0
  -15.4210  -39.9485   -8.9405 C   0  0  0  0  0  0  0  0  0  0  0  0
  -16.3998  -39.7567   -7.8527 C   0  0  1  0  0  0  0  0  0  0  0  0
  -15.9989  -38.6353   -7.0813 O   0  0  0  0  0  0  0  0  0  0  0  0
  -17.8179  -39.4781   -8.2442 C   0  0  2  0  0  0  0  0  0  0  0  0
  -18.6872  -39.0979   -7.0684 C   0  0  0  0  0  0  0  0  0  0  0  0
  -19.7501  -38.0876   -7.4611 C   0  0  2  0  0  0  0  0  0  0  0  0
  -19.2569  -36.7258   -6.9974 C   0  0  0  0  0  0  0  0  0  0  0  0
  -21.0948  -38.3184   -6.9115 C   0  0  0  0  0  0  0  0  0  0  0  0
  -21.3420  -39.5478   -6.1165 C   0  0  0  0  0  0  0  0  0  0  0  0
  -22.7237  -39.5906   -5.4884 C   0  0  0  0  0  0  0  0  0  0  0  0
  -22.6304  -40.5008   -4.2788 C   0  0  0  0  0  0  0  0  0  0  0  0
  -22.5008  -41.9534   -4.6933 C   0  0  0  0  0  0  0  0  0  0  0  0
  -22.0729  -42.8538   -3.5990 C   0  0  0  0  0  0  0  0  0  0  0  0
  -20.6239  -43.1854   -3.5379 C   0  0  0  0  0  0  0  0  0  0  0  0
  -20.1040  -43.9300   -4.5824 O   0  0  0  0  0  0  0  0  0  0  0  0
  -19.9414  -43.7604   -5.9526 C   0  0  0  0  0  0  0  0  0  0  0  0
  -19.2267  -42.7736   -6.6133 C   0  0  0  0  0  0  0  0  0  0  0  0
  -19.1912  -42.7750   -7.9837 C   0  0  0  0  0  0  0  0  0  0  0  0
  -19.8955  -43.8064   -8.6713 C   0  0  0  0  0  0  0  0  0  0  0  0
  -20.6095  -44.7991   -8.0620 C   0  0  0  0  0  0  0  0  0  0  0  0
  -20.6132  -44.7480   -6.6874 C   0  0  0  0  0  0  0  0  0  0  0  0
  -18.5447  -41.8807   -8.9543 C   0  0  0  0  0  0  0  0  0  0  0  0
  -17.9472  -42.5092   -9.9960 O   0  0  0  0  0  0  0  0  0  0  0  0
  -18.3935  -40.4830   -9.0702 N   0  0  0  0  0  0  0  0  0  0  0  0
  -13.3925  -39.8764  -10.4689 C   0  0  0  0  0  0  0  0  0  0  0  0
  -13.0126  -38.5615  -10.3576 C   0  0  0  0  0  0  0  0  0  0  0  0
  -13.2947  -37.9390  -11.5837 C   0  0  0  0  0  0  0  0  0  0  0  0
  -13.0775  -36.5437  -11.9819 C   0  0  0  0  0  0  0  0  0  0  0  0
  -11.8589  -36.3446  -12.8402 C   0  0  0  0  0  0  0  0  0  0  0  0
  -11.9102  -37.1360  -14.1273 C   0  0  0  0  0  0  0  0  0  0  0  0
  -11.8489  -34.8693  -13.2585 C   0  0  0  0  0  0  0  0  0  0  0  0
  -10.5688  -36.6227  -12.1444 C   0  0  0  0  0  0  0  0  0  0  0  0
  -13.8095  -38.8699  -12.3427 O   0  0  0  0  0  0  0  0  0  0  0  0
  -13.8766  -40.0073  -11.7151 N   0  0  0  0  0  0  0  0  0  0  0  0
  2  1  1  6
  2  3  1  0
  3  4  1  0
  4  5  1  0
  5  6  1  1
  5  7  1  0
  7  8  1  1
  8  9  1  0
  9 10  1  1
  9 11  1  0
 11 12  1  0
 12 13  1  0
 13 14  1  0
 14 15  1  0
 15 16  1  0
 16 17  1  0
 17 18  1  0
 18 19  1  0
 19 20  2  0
 20 21  1  0
 21 22  2  0
 22 23  1  0
 23 24  2  0
 21 25  1  0
 25 26  2  0
 25 27  1  0
  2 28  1  0
 28 29  1  0
 29 30  2  0
 30 31  1  0
 31 32  1  0
 32 33  1  0
 32 34  1  0
 32 35  1  0
 30 36  1  0
 36 37  1  0
 24 19  1  0
 27  7  1  0
 37 28  2  0
M  END
$$$$
