
     RDKit          3D

 37 39  0  0  0  0  0  0  0  0999 V2000
  -13.8853  -42.6359  -10.3400 C   0  0  0  0  0  0  0  0  0  0  0  0
  -13.8816  -41.2408   -9.7634 C   0  0  2  0  0  0  0  0  0  0  0  0
  -15.0965  -40.9915   -9.0318 N   0  0  0  0  0  0  0  0  0  0  0  0
  -14.8532  -40.5133   -7.6924 C   0  0  0  0  0  0  0  0  0  0  0  0
  -16.1050  -40.1296   -7.0112 C   0  0  1  0  0  0  0  0  0  0  0  0
  -15.8216  -39.0621   -6.1205 O   0  0  0  0  0  0  0  0  0  0  0  0
  -17.2317  -39.6394   -7.8670 C   0  0  2  0  0  0  0  0  0  0  0  0
  -18.3523  -39.0214   -7.0638 C   0  0  0  0  0  0  0  0  0  0  0  0
  -19.0106  -37.8753   -7.8104 C   0  0  2  0  0  0  0  0  0  0  0  0
  -18.4486  -36.5883   -7.2269 C   0  0  0  0  0  0  0  0  0  0  0  0
  -20.4793  -37.8235   -7.7489 C   0  0  0  0  0  0  0  0  0  0  0  0
  -21.2065  -38.9240   -7.0673 C   0  0  0  0  0  0  0  0  0  0  0  0
  -22.6995  -38.6750   -6.9474 C   0  0  0  0  0  0  0  0  0  0  0  0
  -23.1889  -39.4890   -5.7649 C   0  0  0  0  0  0  0  0  0  0  0  0
  -23.2093  -40.9701   -6.0885 C   0  0  0  0  0  0  0  0  0  0  0  0
  -23.3494  -41.8420   -4.9005 C   0  0  0  0  0  0  0  0  0  0  0  0
  -22.0946  -42.4158   -4.3440 C   0  0  0  0  0  0  0  0  0  0  0  0
  -21.4099  -43.3199   -5.1374 O   0  0  0  0  0  0  0  0  0  0  0  0
  -20.7724  -43.2902   -6.3725 C   0  0  0  0  0  0  0  0  0  0  0  0
  -19.7043  -42.4988   -6.7647 C   0  0  0  0  0  0  0  0  0  0  0  0
  -19.2168  -42.6147   -8.0407 C   0  0  0  0  0  0  0  0  0  0  0  0
  -19.8363  -43.5583   -8.9117 C   0  0  0  0  0  0  0  0  0  0  0  0
  -20.8878  -44.3596   -8.5674 C   0  0  0  0  0  0  0  0  0  0  0  0
  -21.3378  -44.2002   -7.2774 C   0  0  0  0  0  0  0  0  0  0  0  0
  -18.1265  -41.9267   -8.7461 C   0  0  0  0  0  0  0  0  0  0  0  0
  -17.3489  -42.7302   -9.5121 O   0  0  0  0  0  0  0  0  0  0  0  0
  -17.6812  -40.5904   -8.8245 N   0  0  0  0  0  0  0  0  0  0  0  0
  -13.6918  -40.2189  -10.8395 C   0  0  0  0  0  0  0  0  0  0  0  0
  -12.8068  -39.1694  -10.8086 C   0  0  0  0  0  0  0  0  0  0  0  0
  -12.9527  -38.4631  -12.0129 C   0  0  0  0  0  0  0  0  0  0  0  0
  -12.2411  -37.2651  -12.4724 C   0  0  0  0  0  0  0  0  0  0  0  0
  -12.9221  -35.9782  -12.0959 C   0  0  0  0  0  0  0  0  0  0  0  0
  -14.2259  -36.1953  -11.3621 C   0  0  0  0  0  0  0  0  0  0  0  0
  -11.9985  -35.2636  -11.1019 C   0  0  0  0  0  0  0  0  0  0  0  0
  -13.1524  -35.0504  -13.2414 C   0  0  0  0  0  0  0  0  0  0  0  0
  -13.8799  -39.0947  -12.6831 O   0  0  0  0  0  0  0  0  0  0  0  0
  -14.3257  -40.1210  -12.0198 N   0  0  0  0  0  0  0  0  0  0  0  0
  2  1  1  6
  2  3  1  0
  3  4  1  0
  4  5  1  0
  5  6  1  1
  5  7  1  0
  7  8  1  1
  8  9  1  0
  9 10  1  1
  9 11  1  0
 11 12  1  0
 12 13  1  0
 13 14  1  0
 14 15  1  0
 15 16  1  0
 16 17  1  0
 17 18  1  0
 18 19  1  0
 19 20  2  0
 20 21  1  0
 21 22  2  0
 22 23  1  0
 23 24  2  0
 21 25  1  0
 25 26  2  0
 25 27  1  0
  2 28  1  0
 28 29  1  0
 29 30  2  0
 30 31  1  0
 31 32  1  0
 32 33  1  0
 32 34  1  0
 32 35  1  0
 30 36  1  0
 36 37  1  0
 24 19  1  0
 27  7  1  0
 37 28  2  0
M  END
$$$$
