
     RDKit          3D

 37 39  0  0  0  0  0  0  0  0999 V2000
  -14.3819  -41.3396  -11.0956 C   0  0  0  0  0  0  0  0  0  0  0  0
  -14.6545  -40.0138  -10.4271 C   0  0  2  0  0  0  0  0  0  0  0  0
  -16.0679  -39.8309  -10.2216 N   0  0  0  0  0  0  0  0  0  0  0  0
  -16.3620  -38.9617   -9.1082 C   0  0  0  0  0  0  0  0  0  0  0  0
  -17.3281  -39.5735   -8.1751 C   0  0  1  0  0  0  0  0  0  0  0  0
  -17.3924  -38.7711   -7.0066 O   0  0  0  0  0  0  0  0  0  0  0  0
  -18.7452  -39.7054   -8.6403 C   0  0  2  0  0  0  0  0  0  0  0  0
  -19.7384  -39.7087   -7.5017 C   0  0  0  0  0  0  0  0  0  0  0  0
  -21.0427  -39.0384   -7.8942 C   0  0  2  0  0  0  0  0  0  0  0  0
  -21.0122  -37.6361   -7.3066 C   0  0  0  0  0  0  0  0  0  0  0  0
  -22.2733  -39.7120   -7.4526 C   0  0  0  0  0  0  0  0  0  0  0  0
  -22.1642  -41.0218   -6.7619 C   0  0  0  0  0  0  0  0  0  0  0  0
  -23.4912  -41.5351   -6.2317 C   0  0  0  0  0  0  0  0  0  0  0  0
  -23.1741  -42.4742   -5.0838 C   0  0  0  0  0  0  0  0  0  0  0  0
  -22.5867  -43.7781   -5.5872 C   0  0  0  0  0  0  0  0  0  0  0  0
  -21.9496  -44.5966   -4.5311 C   0  0  0  0  0  0  0  0  0  0  0  0
  -20.4727  -44.4774   -4.3963 C   0  0  0  0  0  0  0  0  0  0  0  0
  -19.7053  -44.9371   -5.4524 O   0  0  0  0  0  0  0  0  0  0  0  0
  -19.5446  -44.6096   -6.7939 C   0  0  0  0  0  0  0  0  0  0  0  0
  -19.1405  -43.3998   -7.3364 C   0  0  0  0  0  0  0  0  0  0  0  0
  -19.0481  -43.2731   -8.6982 C   0  0  0  0  0  0  0  0  0  0  0  0
  -19.3713  -44.4066   -9.5003 C   0  0  0  0  0  0  0  0  0  0  0  0
  -19.7707  -45.6173   -9.0093 C   0  0  0  0  0  0  0  0  0  0  0  0
  -19.8484  -45.6876   -7.6378 C   0  0  0  0  0  0  0  0  0  0  0  0
  -18.6672  -42.1453   -9.5601 C   0  0  0  0  0  0  0  0  0  0  0  0
  -17.8617  -42.4715  -10.6002 O   0  0  0  0  0  0  0  0  0  0  0  0
  -18.9483  -40.7629   -9.5697 N   0  0  0  0  0  0  0  0  0  0  0  0
  -14.0849  -38.8853  -11.2274 C   0  0  0  0  0  0  0  0  0  0  0  0
  -13.4131  -37.7982  -10.7247 C   0  0  0  0  0  0  0  0  0  0  0  0
  -13.0523  -36.9890  -11.8135 C   0  0  0  0  0  0  0  0  0  0  0  0
  -12.3216  -35.7167  -11.8156 C   0  0  0  0  0  0  0  0  0  0  0  0
  -11.1909  -35.6728  -12.8061 C   0  0  0  0  0  0  0  0  0  0  0  0
  -10.2580  -36.8564  -12.6869 C   0  0  0  0  0  0  0  0  0  0  0  0
  -11.8204  -35.7774  -14.2006 C   0  0  0  0  0  0  0  0  0  0  0  0
  -10.3925  -34.4130  -12.7673 C   0  0  0  0  0  0  0  0  0  0  0  0
  -13.5053  -37.6019  -12.8750 O   0  0  0  0  0  0  0  0  0  0  0  0
  -14.1106  -38.7089  -12.5588 N   0  0  0  0  0  0  0  0  0  0  0  0
  2  1  1  6
  2  3  1  0
  3  4  1  0
  4  5  1  0
  5  6  1  1
  5  7  1  0
  7  8  1  1
  8  9  1  0
  9 10  1  1
  9 11  1  0
 11 12  1  0
 12 13  1  0
 13 14  1  0
 14 15  1  0
 15 16  1  0
 16 17  1  0
 17 18  1  0
 18 19  1  0
 19 20  2  0
 20 21  1  0
 21 22  2  0
 22 23  1  0
 23 24  2  0
 21 25  1  0
 25 26  2  0
 25 27  1  0
  2 28  1  0
 28 29  1  0
 29 30  2  0
 30 31  1  0
 31 32  1  0
 32 33  1  0
 32 34  1  0
 32 35  1  0
 30 36  1  0
 36 37  1  0
 24 19  1  0
 27  7  1  0
 37 28  2  0
M  END
$$$$
