
     RDKit          3D

 37 39  0  0  0  0  0  0  0  0999 V2000
  -12.6644  -42.3013   -9.1721 C   0  0  0  0  0  0  0  0  0  0  0  0
  -12.9934  -40.8488   -8.9253 C   0  0  2  0  0  0  0  0  0  0  0  0
  -14.2659  -40.7228   -8.2632 N   0  0  0  0  0  0  0  0  0  0  0  0
  -15.2743  -40.1221   -9.1023 C   0  0  0  0  0  0  0  0  0  0  0  0
  -16.2217  -39.3037   -8.3208 C   0  0  1  0  0  0  0  0  0  0  0  0
  -15.6747  -38.0028   -8.1734 O   0  0  0  0  0  0  0  0  0  0  0  0
  -17.5875  -39.0931   -8.8974 C   0  0  2  0  0  0  0  0  0  0  0  0
  -18.6049  -38.6797   -7.8597 C   0  0  0  0  0  0  0  0  0  0  0  0
  -19.6373  -37.7274   -8.4358 C   0  0  2  0  0  0  0  0  0  0  0  0
  -19.2408  -36.3273   -7.9937 C   0  0  0  0  0  0  0  0  0  0  0  0
  -21.0329  -37.9728   -8.0419 C   0  0  0  0  0  0  0  0  0  0  0  0
  -21.3442  -39.1656   -7.2143 C   0  0  0  0  0  0  0  0  0  0  0  0
  -22.7912  -39.2204   -6.7578 C   0  0  0  0  0  0  0  0  0  0  0  0
  -22.8242  -40.0614   -5.4960 C   0  0  0  0  0  0  0  0  0  0  0  0
  -22.6065  -41.5289   -5.8083 C   0  0  0  0  0  0  0  0  0  0  0  0
  -22.2936  -42.3552   -4.6207 C   0  0  0  0  0  0  0  0  0  0  0  0
  -20.8549  -42.6352   -4.3647 C   0  0  0  0  0  0  0  0  0  0  0  0
  -20.1908  -43.4168   -5.2941 O   0  0  0  0  0  0  0  0  0  0  0  0
  -19.8648  -43.3151   -6.6417 C   0  0  0  0  0  0  0  0  0  0  0  0
  -19.1001  -42.3419   -7.2655 C   0  0  0  0  0  0  0  0  0  0  0  0
  -18.8956  -42.4150   -8.6190 C   0  0  0  0  0  0  0  0  0  0  0  0
  -19.4825  -43.5042   -9.3276 C   0  0  0  0  0  0  0  0  0  0  0  0
  -20.2400  -44.4860   -8.7543 C   0  0  0  0  0  0  0  0  0  0  0  0
  -20.4147  -44.3620   -7.3955 C   0  0  0  0  0  0  0  0  0  0  0  0
  -18.1579  -41.5528   -9.5530 C   0  0  0  0  0  0  0  0  0  0  0  0
  -17.4201  -42.2158  -10.4766 O   0  0  0  0  0  0  0  0  0  0  0  0
  -18.0302  -40.1590   -9.7289 N   0  0  0  0  0  0  0  0  0  0  0  0
  -12.9828  -40.0741  -10.2051 C   0  0  0  0  0  0  0  0  0  0  0  0
  -12.8553  -38.7118  -10.3226 C   0  0  0  0  0  0  0  0  0  0  0  0
  -12.8931  -38.4044  -11.6918 C   0  0  0  0  0  0  0  0  0  0  0  0
  -12.7970  -37.0950  -12.3467 C   0  0  0  0  0  0  0  0  0  0  0  0
  -11.4050  -36.7472  -12.7969 C   0  0  0  0  0  0  0  0  0  0  0  0
  -10.3350  -37.3137  -11.8915 C   0  0  0  0  0  0  0  0  0  0  0  0
  -11.1989  -37.4225  -14.1583 C   0  0  0  0  0  0  0  0  0  0  0  0
  -11.1690  -35.2855  -12.9806 C   0  0  0  0  0  0  0  0  0  0  0  0
  -13.0357  -39.5484  -12.3072 O   0  0  0  0  0  0  0  0  0  0  0  0
  -13.0905  -40.5356  -11.4620 N   0  0  0  0  0  0  0  0  0  0  0  0
  2  1  1  6
  2  3  1  0
  3  4  1  0
  4  5  1  0
  5  6  1  6
  5  7  1  0
  7  8  1  1
  8  9  1  0
  9 10  1  1
  9 11  1  0
 11 12  1  0
 12 13  1  0
 13 14  1  0
 14 15  1  0
 15 16  1  0
 16 17  1  0
 17 18  1  0
 18 19  1  0
 19 20  2  0
 20 21  1  0
 21 22  2  0
 22 23  1  0
 23 24  2  0
 21 25  1  0
 25 26  2  0
 25 27  1  0
  2 28  1  0
 28 29  1  0
 29 30  2  0
 30 31  1  0
 31 32  1  0
 32 33  1  0
 32 34  1  0
 32 35  1  0
 30 36  1  0
 36 37  1  0
 24 19  1  0
 27  7  1  0
 37 28  2  0
M  END
$$$$
