
     RDKit          3D

 37 39  0  0  0  0  0  0  0  0999 V2000
  -12.7827  -41.2508   -9.5651 C   0  0  0  0  0  0  0  0  0  0  0  0
  -12.9671  -39.8273   -9.0975 C   0  0  2  0  0  0  0  0  0  0  0  0
  -13.8953  -39.7711   -7.9981 N   0  0  0  0  0  0  0  0  0  0  0  0
  -14.8630  -40.8409   -8.0297 C   0  0  0  0  0  0  0  0  0  0  0  0
  -16.0952  -40.4875   -7.2983 C   0  0  1  0  0  0  0  0  0  0  0  0
  -15.8127  -39.3857   -6.4500 O   0  0  0  0  0  0  0  0  0  0  0  0
  -17.2802  -40.0650   -8.1103 C   0  0  2  0  0  0  0  0  0  0  0  0
  -18.3288  -39.3507   -7.2900 C   0  0  0  0  0  0  0  0  0  0  0  0
  -19.0319  -38.2730   -8.0956 C   0  0  2  0  0  0  0  0  0  0  0  0
  -18.4136  -36.9445   -7.6891 C   0  0  0  0  0  0  0  0  0  0  0  0
  -20.4907  -38.1895   -7.9275 C   0  0  0  0  0  0  0  0  0  0  0  0
  -21.1736  -39.2039   -7.0852 C   0  0  0  0  0  0  0  0  0  0  0  0
  -22.6502  -38.9180   -6.8771 C   0  0  0  0  0  0  0  0  0  0  0  0
  -23.0541  -39.6016   -5.5849 C   0  0  0  0  0  0  0  0  0  0  0  0
  -23.1141  -41.1069   -5.7554 C   0  0  0  0  0  0  0  0  0  0  0  0
  -23.1700  -41.8538   -4.4786 C   0  0  0  0  0  0  0  0  0  0  0  0
  -21.8814  -42.3913   -3.9648 C   0  0  0  0  0  0  0  0  0  0  0  0
  -21.2695  -43.3818   -4.7133 O   0  0  0  0  0  0  0  0  0  0  0  0
  -20.7297  -43.4863   -5.9902 C   0  0  0  0  0  0  0  0  0  0  0  0
  -19.6876  -42.7567   -6.5405 C   0  0  0  0  0  0  0  0  0  0  0  0
  -19.3021  -43.0075   -7.8318 C   0  0  0  0  0  0  0  0  0  0  0  0
  -19.9967  -44.0220   -8.5537 C   0  0  0  0  0  0  0  0  0  0  0  0
  -21.0261  -44.7665   -8.0513 C   0  0  0  0  0  0  0  0  0  0  0  0
  -21.3728  -44.4716   -6.7532 C   0  0  0  0  0  0  0  0  0  0  0  0
  -18.2633  -42.4123   -8.6841 C   0  0  0  0  0  0  0  0  0  0  0  0
  -17.5555  -43.3016   -9.4226 O   0  0  0  0  0  0  0  0  0  0  0  0
  -17.8123  -41.0985   -8.9302 N   0  0  0  0  0  0  0  0  0  0  0  0
  -13.4228  -38.9511  -10.2212 C   0  0  0  0  0  0  0  0  0  0  0  0
  -13.1933  -37.6021  -10.3367 C   0  0  0  0  0  0  0  0  0  0  0  0
  -13.7887  -37.1772  -11.5348 C   0  0  0  0  0  0  0  0  0  0  0  0
  -13.8288  -35.8320  -12.1191 C   0  0  0  0  0  0  0  0  0  0  0  0
  -12.6902  -35.5494  -13.0599 C   0  0  0  0  0  0  0  0  0  0  0  0
  -12.6005  -36.5478  -14.1916 C   0  0  0  0  0  0  0  0  0  0  0  0
  -12.9871  -34.1973  -13.7198 C   0  0  0  0  0  0  0  0  0  0  0  0
  -11.3594  -35.4414  -12.3942 C   0  0  0  0  0  0  0  0  0  0  0  0
  -14.3259  -38.2459  -12.0611 O   0  0  0  0  0  0  0  0  0  0  0  0
  -14.1259  -39.2917  -11.3140 N   0  0  0  0  0  0  0  0  0  0  0  0
  2  1  1  6
  2  3  1  0
  3  4  1  0
  4  5  1  0
  5  6  1  1
  5  7  1  0
  7  8  1  1
  8  9  1  0
  9 10  1  1
  9 11  1  0
 11 12  1  0
 12 13  1  0
 13 14  1  0
 14 15  1  0
 15 16  1  0
 16 17  1  0
 17 18  1  0
 18 19  1  0
 19 20  2  0
 20 21  1  0
 21 22  2  0
 22 23  1  0
 23 24  2  0
 21 25  1  0
 25 26  2  0
 25 27  1  0
  2 28  1  0
 28 29  1  0
 29 30  2  0
 30 31  1  0
 31 32  1  0
 32 33  1  0
 32 34  1  0
 32 35  1  0
 30 36  1  0
 36 37  1  0
 24 19  1  0
 27  7  1  0
 37 28  2  0
M  END
$$$$
