
     RDKit          3D

 37 39  0  0  0  0  0  0  0  0999 V2000
  -12.5270  -41.7608   -9.4564 C   0  0  0  0  0  0  0  0  0  0  0  0
  -13.1213  -40.5023   -8.8717 C   0  0  2  0  0  0  0  0  0  0  0  0
  -14.4997  -40.7123   -8.5121 N   0  0  0  0  0  0  0  0  0  0  0  0
  -15.0334  -39.6455   -7.7004 C   0  0  0  0  0  0  0  0  0  0  0  0
  -16.3168  -40.0210   -7.0757 C   0  0  1  0  0  0  0  0  0  0  0  0
  -16.3775  -39.4313   -5.7866 O   0  0  0  0  0  0  0  0  0  0  0  0
  -17.5718  -39.5860   -7.7669 C   0  0  2  0  0  0  0  0  0  0  0  0
  -18.7263  -39.3832   -6.8135 C   0  0  0  0  0  0  0  0  0  0  0  0
  -19.6337  -38.2531   -7.2651 C   0  0  2  0  0  0  0  0  0  0  0  0
  -19.2755  -37.0373   -6.4247 C   0  0  0  0  0  0  0  0  0  0  0  0
  -21.0791  -38.5006   -7.1509 C   0  0  0  0  0  0  0  0  0  0  0  0
  -21.5434  -39.8410   -6.7124 C   0  0  0  0  0  0  0  0  0  0  0  0
  -23.0444  -39.9170   -6.4965 C   0  0  0  0  0  0  0  0  0  0  0  0
  -23.2921  -41.0444   -5.5127 C   0  0  0  0  0  0  0  0  0  0  0  0
  -23.0654  -42.3970   -6.1590 C   0  0  0  0  0  0  0  0  0  0  0  0
  -22.9596  -43.5135   -5.1930 C   0  0  0  0  0  0  0  0  0  0  0  0
  -21.5849  -43.9396   -4.8158 C   0  0  0  0  0  0  0  0  0  0  0  0
  -20.8052  -44.5028   -5.8110 O   0  0  0  0  0  0  0  0  0  0  0  0
  -20.2732  -44.0864   -7.0260 C   0  0  0  0  0  0  0  0  0  0  0  0
  -19.3977  -43.0380   -7.2619 C   0  0  0  0  0  0  0  0  0  0  0  0
  -18.9892  -42.7812   -8.5449 C   0  0  0  0  0  0  0  0  0  0  0  0
  -19.4868  -43.6177   -9.5868 C   0  0  0  0  0  0  0  0  0  0  0  0
  -20.3476  -44.6620   -9.4005 C   0  0  0  0  0  0  0  0  0  0  0  0
  -20.7263  -44.8729   -8.0950 C   0  0  0  0  0  0  0  0  0  0  0  0
  -18.0954  -41.7605   -9.1097 C   0  0  0  0  0  0  0  0  0  0  0  0
  -17.2408  -42.2152  -10.0584 O   0  0  0  0  0  0  0  0  0  0  0  0
  -17.9076  -40.3782   -8.8996 N   0  0  0  0  0  0  0  0  0  0  0  0
  -12.9911  -39.3571   -9.8256 C   0  0  0  0  0  0  0  0  0  0  0  0
  -13.4502  -39.3285  -11.1195 C   0  0  0  0  0  0  0  0  0  0  0  0
  -13.1223  -38.0719  -11.6524 C   0  0  0  0  0  0  0  0  0  0  0  0
  -13.3900  -37.5396  -12.9932 C   0  0  0  0  0  0  0  0  0  0  0  0
  -12.7662  -36.1943  -13.2430 C   0  0  0  0  0  0  0  0  0  0  0  0
  -13.1119  -35.1786  -12.1779 C   0  0  0  0  0  0  0  0  0  0  0  0
  -11.2474  -36.3882  -13.1563 C   0  0  0  0  0  0  0  0  0  0  0  0
  -13.0694  -35.6196  -14.5860 C   0  0  0  0  0  0  0  0  0  0  0  0
  -12.5071  -37.4311  -10.6940 O   0  0  0  0  0  0  0  0  0  0  0  0
  -12.4186  -38.1594   -9.6199 N   0  0  0  0  0  0  0  0  0  0  0  0
  2  1  1  6
  2  3  1  0
  3  4  1  0
  4  5  1  0
  5  6  1  1
  5  7  1  0
  7  8  1  1
  8  9  1  0
  9 10  1  1
  9 11  1  0
 11 12  1  0
 12 13  1  0
 13 14  1  0
 14 15  1  0
 15 16  1  0
 16 17  1  0
 17 18  1  0
 18 19  1  0
 19 20  2  0
 20 21  1  0
 21 22  2  0
 22 23  1  0
 23 24  2  0
 21 25  1  0
 25 26  2  0
 25 27  1  0
  2 28  1  0
 28 29  1  0
 29 30  2  0
 30 31  1  0
 31 32  1  0
 32 33  1  0
 32 34  1  0
 32 35  1  0
 30 36  1  0
 36 37  1  0
 24 19  1  0
 27  7  1  0
 37 28  2  0
M  END
$$$$
