
     RDKit          3D

 37 39  0  0  0  0  0  0  0  0999 V2000
  -14.5558  -41.9313  -11.7094 C   0  0  0  0  0  0  0  0  0  0  0  0
  -14.2466  -40.8813  -10.6697 C   0  0  2  0  0  0  0  0  0  0  0  0
  -15.4425  -40.1731  -10.2933 N   0  0  0  0  0  0  0  0  0  0  0  0
  -15.9386  -40.5656   -8.9965 C   0  0  0  0  0  0  0  0  0  0  0  0
  -16.8652  -39.5622   -8.4372 C   0  0  1  0  0  0  0  0  0  0  0  0
  -16.3480  -38.2704   -8.7149 O   0  0  0  0  0  0  0  0  0  0  0  0
  -18.2655  -39.5477   -8.9672 C   0  0  2  0  0  0  0  0  0  0  0  0
  -19.2466  -38.9053   -8.0145 C   0  0  0  0  0  0  0  0  0  0  0  0
  -20.3454  -38.1658   -8.7563 C   0  0  2  0  0  0  0  0  0  0  0  0
  -19.9866  -36.6884   -8.7173 C   0  0  0  0  0  0  0  0  0  0  0  0
  -21.7082  -38.3379   -8.2307 C   0  0  0  0  0  0  0  0  0  0  0  0
  -21.9276  -39.2807   -7.1047 C   0  0  0  0  0  0  0  0  0  0  0  0
  -23.3466  -39.2540   -6.5652 C   0  0  0  0  0  0  0  0  0  0  0  0
  -23.2815  -39.7360   -5.1287 C   0  0  0  0  0  0  0  0  0  0  0  0
  -23.0181  -41.2276   -5.0612 C   0  0  0  0  0  0  0  0  0  0  0  0
  -22.6121  -41.7052   -3.7203 C   0  0  0  0  0  0  0  0  0  0  0  0
  -21.1521  -41.8687   -3.4856 C   0  0  0  0  0  0  0  0  0  0  0  0
  -20.5027  -42.8476   -4.2174 O   0  0  0  0  0  0  0  0  0  0  0  0
  -20.2486  -43.0932   -5.5619 C   0  0  0  0  0  0  0  0  0  0  0  0
  -19.5574  -42.2965   -6.4611 C   0  0  0  0  0  0  0  0  0  0  0  0
  -19.4175  -42.7157   -7.7587 C   0  0  0  0  0  0  0  0  0  0  0  0
  -19.9925  -43.9681   -8.1242 C   0  0  0  0  0  0  0  0  0  0  0  0
  -20.6787  -44.7861   -7.2719 C   0  0  0  0  0  0  0  0  0  0  0  0
  -20.7908  -44.3157   -5.9842 C   0  0  0  0  0  0  0  0  0  0  0  0
  -18.7640  -42.1080   -8.9264 C   0  0  0  0  0  0  0  0  0  0  0  0
  -18.0457  -42.9690   -9.6879 O   0  0  0  0  0  0  0  0  0  0  0  0
  -18.7038  -40.8058   -9.4656 N   0  0  0  0  0  0  0  0  0  0  0  0
  -13.2017  -39.9316  -11.1644 C   0  0  0  0  0  0  0  0  0  0  0  0
  -12.6076  -38.9330  -10.4326 C   0  0  0  0  0  0  0  0  0  0  0  0
  -11.6896  -38.2863  -11.2749 C   0  0  0  0  0  0  0  0  0  0  0  0
  -10.8017  -37.1566  -10.9780 C   0  0  0  0  0  0  0  0  0  0  0  0
   -9.7369  -36.9377  -12.0172 C   0  0  0  0  0  0  0  0  0  0  0  0
   -8.9336  -38.1850  -12.3082 C   0  0  0  0  0  0  0  0  0  0  0  0
  -10.4597  -36.5932  -13.3250 C   0  0  0  0  0  0  0  0  0  0  0  0
   -8.8046  -35.8142  -11.7101 C   0  0  0  0  0  0  0  0  0  0  0  0
  -11.7717  -38.9007  -12.4253 O   0  0  0  0  0  0  0  0  0  0  0  0
  -12.6460  -39.8629  -12.3854 N   0  0  0  0  0  0  0  0  0  0  0  0
  2  1  1  6
  2  3  1  0
  3  4  1  0
  4  5  1  0
  5  6  1  6
  5  7  1  0
  7  8  1  1
  8  9  1  0
  9 10  1  1
  9 11  1  0
 11 12  1  0
 12 13  1  0
 13 14  1  0
 14 15  1  0
 15 16  1  0
 16 17  1  0
 17 18  1  0
 18 19  1  0
 19 20  2  0
 20 21  1  0
 21 22  2  0
 22 23  1  0
 23 24  2  0
 21 25  1  0
 25 26  2  0
 25 27  1  0
  2 28  1  0
 28 29  1  0
 29 30  2  0
 30 31  1  0
 31 32  1  0
 32 33  1  0
 32 34  1  0
 32 35  1  0
 30 36  1  0
 36 37  1  0
 24 19  1  0
 27  7  1  0
 37 28  2  0
M  END
$$$$
