
     RDKit          3D

 37 39  0  0  0  0  0  0  0  0999 V2000
  -13.1364  -42.0616  -10.5792 C   0  0  0  0  0  0  0  0  0  0  0  0
  -13.6583  -40.7044  -10.1735 C   0  0  2  0  0  0  0  0  0  0  0  0
  -14.9413  -40.8260   -9.5312 N   0  0  0  0  0  0  0  0  0  0  0  0
  -15.3550  -39.6087   -8.8762 C   0  0  0  0  0  0  0  0  0  0  0  0
  -16.4821  -39.8392   -7.9516 C   0  0  1  0  0  0  0  0  0  0  0  0
  -16.3067  -39.0080   -6.8151 O   0  0  0  0  0  0  0  0  0  0  0  0
  -17.8586  -39.5325   -8.4547 C   0  0  2  0  0  0  0  0  0  0  0  0
  -18.8085  -39.1246   -7.3528 C   0  0  0  0  0  0  0  0  0  0  0  0
  -19.8145  -38.0943   -7.8334 C   0  0  2  0  0  0  0  0  0  0  0  0
  -19.3286  -36.7402   -7.3403 C   0  0  0  0  0  0  0  0  0  0  0  0
  -21.2028  -38.2915   -7.3896 C   0  0  0  0  0  0  0  0  0  0  0  0
  -21.5389  -39.5092   -6.6094 C   0  0  0  0  0  0  0  0  0  0  0  0
  -22.9662  -39.5171   -6.0913 C   0  0  0  0  0  0  0  0  0  0  0  0
  -22.9883  -40.4201   -4.8730 C   0  0  0  0  0  0  0  0  0  0  0  0
  -22.8592  -41.8782   -5.2677 C   0  0  0  0  0  0  0  0  0  0  0  0
  -22.5386  -42.7796   -4.1382 C   0  0  0  0  0  0  0  0  0  0  0  0
  -21.1065  -43.1424   -3.9617 C   0  0  0  0  0  0  0  0  0  0  0  0
  -20.5233  -43.9060   -4.9580 O   0  0  0  0  0  0  0  0  0  0  0  0
  -20.2502  -43.7502   -6.3122 C   0  0  0  0  0  0  0  0  0  0  0  0
  -19.4641  -42.7842   -6.9205 C   0  0  0  0  0  0  0  0  0  0  0  0
  -19.3216  -42.7966   -8.2838 C   0  0  0  0  0  0  0  0  0  0  0  0
  -19.9929  -43.8174   -9.0187 C   0  0  0  0  0  0  0  0  0  0  0  0
  -20.7744  -44.7896   -8.4615 C   0  0  0  0  0  0  0  0  0  0  0  0
  -20.8845  -44.7282   -7.0918 C   0  0  0  0  0  0  0  0  0  0  0  0
  -18.5813  -41.9239   -9.2059 C   0  0  0  0  0  0  0  0  0  0  0  0
  -17.9183  -42.5731  -10.1939 O   0  0  0  0  0  0  0  0  0  0  0  0
  -18.3902  -40.5307   -9.3176 N   0  0  0  0  0  0  0  0  0  0  0  0
  -13.7415  -39.7896  -11.3544 C   0  0  0  0  0  0  0  0  0  0  0  0
  -12.8867  -38.7515  -11.6327 C   0  0  0  0  0  0  0  0  0  0  0  0
  -13.3227  -38.1592  -12.8284 C   0  0  0  0  0  0  0  0  0  0  0  0
  -12.7546  -37.0172  -13.5534 C   0  0  0  0  0  0  0  0  0  0  0  0
  -13.3804  -35.6996  -13.1878 C   0  0  0  0  0  0  0  0  0  0  0  0
  -12.7434  -34.5279  -13.8999 C   0  0  0  0  0  0  0  0  0  0  0  0
  -14.8318  -35.7475  -13.6806 C   0  0  0  0  0  0  0  0  0  0  0  0
  -13.4130  -35.4239  -11.7219 C   0  0  0  0  0  0  0  0  0  0  0  0
  -14.3752  -38.8404  -13.1971 O   0  0  0  0  0  0  0  0  0  0  0  0
  -14.6387  -39.7954  -12.3542 N   0  0  0  0  0  0  0  0  0  0  0  0
  2  1  1  6
  2  3  1  0
  3  4  1  0
  4  5  1  0
  5  6  1  1
  5  7  1  0
  7  8  1  1
  8  9  1  0
  9 10  1  1
  9 11  1  0
 11 12  1  0
 12 13  1  0
 13 14  1  0
 14 15  1  0
 15 16  1  0
 16 17  1  0
 17 18  1  0
 18 19  1  0
 19 20  2  0
 20 21  1  0
 21 22  2  0
 22 23  1  0
 23 24  2  0
 21 25  1  0
 25 26  2  0
 25 27  1  0
  2 28  1  0
 28 29  1  0
 29 30  2  0
 30 31  1  0
 31 32  1  0
 32 33  1  0
 32 34  1  0
 32 35  1  0
 30 36  1  0
 36 37  1  0
 24 19  1  0
 27  7  1  0
 37 28  2  0
M  END
$$$$
