
     RDKit          3D

 37 39  0  0  0  0  0  0  0  0999 V2000
  -13.4458  -42.0311   -9.9771 C   0  0  0  0  0  0  0  0  0  0  0  0
  -13.4297  -40.6486   -9.3710 C   0  0  2  0  0  0  0  0  0  0  0  0
  -14.3397  -40.5726   -8.2577 N   0  0  0  0  0  0  0  0  0  0  0  0
  -15.4380  -39.6676   -8.4955 C   0  0  0  0  0  0  0  0  0  0  0  0
  -16.5915  -39.9642   -7.6239 C   0  0  1  0  0  0  0  0  0  0  0  0
  -16.3987  -39.3013   -6.3842 O   0  0  0  0  0  0  0  0  0  0  0  0
  -17.9427  -39.5266   -8.0980 C   0  0  2  0  0  0  0  0  0  0  0  0
  -18.8828  -39.1929   -6.9632 C   0  0  0  0  0  0  0  0  0  0  0  0
  -19.8248  -38.0605   -7.3308 C   0  0  2  0  0  0  0  0  0  0  0  0
  -19.2719  -36.7997   -6.6847 C   0  0  0  0  0  0  0  0  0  0  0  0
  -21.2273  -38.2287   -6.9211 C   0  0  0  0  0  0  0  0  0  0  0  0
  -21.6394  -39.5058   -6.2856 C   0  0  0  0  0  0  0  0  0  0  0  0
  -23.0714  -39.4923   -5.7810 C   0  0  0  0  0  0  0  0  0  0  0  0
  -23.1583  -40.5239   -4.6726 C   0  0  0  0  0  0  0  0  0  0  0  0
  -23.1041  -41.9334   -5.2287 C   0  0  0  0  0  0  0  0  0  0  0  0
  -22.8476  -42.9725   -4.2062 C   0  0  0  0  0  0  0  0  0  0  0  0
  -21.4399  -43.4321   -4.0626 C   0  0  0  0  0  0  0  0  0  0  0  0
  -20.8867  -44.1101   -5.1350 O   0  0  0  0  0  0  0  0  0  0  0  0
  -20.5883  -43.8185   -6.4611 C   0  0  0  0  0  0  0  0  0  0  0  0
  -19.7429  -42.8356   -6.9513 C   0  0  0  0  0  0  0  0  0  0  0  0
  -19.5839  -42.7025   -8.3064 C   0  0  0  0  0  0  0  0  0  0  0  0
  -20.3006  -43.5952   -9.1562 C   0  0  0  0  0  0  0  0  0  0  0  0
  -21.1411  -44.5788   -8.7175 C   0  0  0  0  0  0  0  0  0  0  0  0
  -21.2651  -44.6658   -7.3503 C   0  0  0  0  0  0  0  0  0  0  0  0
  -18.7854  -41.7743   -9.1192 C   0  0  0  0  0  0  0  0  0  0  0  0
  -18.1464  -42.3442  -10.1699 O   0  0  0  0  0  0  0  0  0  0  0  0
  -18.5170  -40.3902   -9.0715 N   0  0  0  0  0  0  0  0  0  0  0  0
  -13.7605  -39.6118  -10.3976 C   0  0  0  0  0  0  0  0  0  0  0  0
  -13.6773  -38.2518  -10.2268 C   0  0  0  0  0  0  0  0  0  0  0  0
  -14.0752  -37.6533  -11.4326 C   0  0  0  0  0  0  0  0  0  0  0  0
  -14.1629  -36.2283  -11.7708 C   0  0  0  0  0  0  0  0  0  0  0  0
  -12.9115  -35.6800  -12.3993 C   0  0  0  0  0  0  0  0  0  0  0  0
  -11.6629  -36.0206  -11.6180 C   0  0  0  0  0  0  0  0  0  0  0  0
  -12.7566  -36.3767  -13.7566 C   0  0  0  0  0  0  0  0  0  0  0  0
  -12.9472  -34.2098  -12.6508 C   0  0  0  0  0  0  0  0  0  0  0  0
  -14.3669  -38.6403  -12.2378 O   0  0  0  0  0  0  0  0  0  0  0  0
  -14.1913  -39.7910  -11.6573 N   0  0  0  0  0  0  0  0  0  0  0  0
  2  1  1  6
  2  3  1  0
  3  4  1  0
  4  5  1  0
  5  6  1  1
  5  7  1  0
  7  8  1  1
  8  9  1  0
  9 10  1  1
  9 11  1  0
 11 12  1  0
 12 13  1  0
 13 14  1  0
 14 15  1  0
 15 16  1  0
 16 17  1  0
 17 18  1  0
 18 19  1  0
 19 20  2  0
 20 21  1  0
 21 22  2  0
 22 23  1  0
 23 24  2  0
 21 25  1  0
 25 26  2  0
 25 27  1  0
  2 28  1  0
 28 29  1  0
 29 30  2  0
 30 31  1  0
 31 32  1  0
 32 33  1  0
 32 34  1  0
 32 35  1  0
 30 36  1  0
 36 37  1  0
 24 19  1  0
 27  7  1  0
 37 28  2  0
M  END
$$$$
