
     RDKit          3D

 37 39  0  0  0  0  0  0  0  0999 V2000
  -17.5769  -35.2883   -8.9395 C   0  0  0  0  0  0  0  0  0  0  0  0
  -18.0180  -36.7307   -8.8771 C   0  0  2  0  0  0  0  0  0  0  0  0
  -17.0530  -37.5254   -8.1626 N   0  0  0  0  0  0  0  0  0  0  0  0
  -17.6324  -38.2416   -7.0521 C   0  0  0  0  0  0  0  0  0  0  0  0
  -16.8689  -39.4626   -6.7288 C   0  0  1  0  0  0  0  0  0  0  0  0
  -16.0943  -39.2123   -5.5666 O   0  0  0  0  0  0  0  0  0  0  0  0
  -17.6509  -40.7019   -6.4210 C   0  0  2  0  0  0  0  0  0  0  0  0
  -16.8314  -41.9632   -6.5640 C   0  0  0  0  0  0  0  0  0  0  0  0
  -17.2463  -43.0181   -5.5542 C   0  0  2  0  0  0  0  0  0  0  0  0
  -16.2207  -42.9818   -4.4319 C   0  0  0  0  0  0  0  0  0  0  0  0
  -17.3459  -44.3947   -6.0626 C   0  0  0  0  0  0  0  0  0  0  0  0
  -17.1421  -44.6388   -7.5130 C   0  0  0  0  0  0  0  0  0  0  0  0
  -17.1269  -46.1123   -7.8789 C   0  0  0  0  0  0  0  0  0  0  0  0
  -16.3323  -46.2394   -9.1646 C   0  0  0  0  0  0  0  0  0  0  0  0
  -17.1111  -45.6977  -10.3473 C   0  0  0  0  0  0  0  0  0  0  0  0
  -16.2885  -45.4798  -11.5584 C   0  0  0  0  0  0  0  0  0  0  0  0
  -15.7993  -44.0940  -11.7905 C   0  0  0  0  0  0  0  0  0  0  0  0
  -16.7525  -43.1266  -12.0573 O   0  0  0  0  0  0  0  0  0  0  0  0
  -17.8289  -42.5642  -11.3807 C   0  0  0  0  0  0  0  0  0  0  0  0
  -17.8189  -41.8836  -10.1734 C   0  0  0  0  0  0  0  0  0  0  0  0
  -18.9979  -41.4050   -9.6636 C   0  0  0  0  0  0  0  0  0  0  0  0
  -20.1913  -41.6289  -10.4110 C   0  0  0  0  0  0  0  0  0  0  0  0
  -20.2476  -42.2911  -11.6046 C   0  0  0  0  0  0  0  0  0  0  0  0
  -19.0369  -42.7515  -12.0678 C   0  0  0  0  0  0  0  0  0  0  0  0
  -19.3128  -40.6683   -8.4315 C   0  0  0  0  0  0  0  0  0  0  0  0
  -20.1970  -39.6529   -8.5866 O   0  0  0  0  0  0  0  0  0  0  0  0
  -18.9078  -40.7670   -7.0838 N   0  0  0  0  0  0  0  0  0  0  0  0
  -18.2442  -37.2797  -10.2503 C   0  0  0  0  0  0  0  0  0  0  0  0
  -19.2674  -36.9348  -11.0987 C   0  0  0  0  0  0  0  0  0  0  0  0
  -19.1037  -37.6803  -12.2768 C   0  0  0  0  0  0  0  0  0  0  0  0
  -19.9276  -37.6807  -13.4908 C   0  0  0  0  0  0  0  0  0  0  0  0
  -19.6419  -36.5281  -14.4134 C   0  0  0  0  0  0  0  0  0  0  0  0
  -19.1839  -36.9713  -15.7843 C   0  0  0  0  0  0  0  0  0  0  0  0
  -20.9726  -35.7985  -14.6345 C   0  0  0  0  0  0  0  0  0  0  0  0
  -18.6707  -35.5351  -13.8688 C   0  0  0  0  0  0  0  0  0  0  0  0
  -18.0346  -38.4079  -12.0891 O   0  0  0  0  0  0  0  0  0  0  0  0
  -17.5164  -38.1919  -10.9157 N   0  0  0  0  0  0  0  0  0  0  0  0
  2  1  1  6
  2  3  1  0
  3  4  1  0
  4  5  1  0
  5  6  1  1
  5  7  1  0
  7  8  1  6
  8  9  1  0
  9 10  1  1
  9 11  1  0
 11 12  1  0
 12 13  1  0
 13 14  1  0
 14 15  1  0
 15 16  1  0
 16 17  1  0
 17 18  1  0
 18 19  1  0
 19 20  2  0
 20 21  1  0
 21 22  2  0
 22 23  1  0
 23 24  2  0
 21 25  1  0
 25 26  2  0
 25 27  1  0
  2 28  1  0
 28 29  1  0
 29 30  2  0
 30 31  1  0
 31 32  1  0
 32 33  1  0
 32 34  1  0
 32 35  1  0
 30 36  1  0
 36 37  1  0
 24 19  1  0
 27  7  1  0
 37 28  2  0
M  END
$$$$
