
     RDKit          3D

 37 39  0  0  0  0  0  0  0  0999 V2000
  -12.7500  -41.3136   -8.5550 C   0  0  0  0  0  0  0  0  0  0  0  0
  -13.6260  -40.1036   -8.7734 C   0  0  2  0  0  0  0  0  0  0  0  0
  -15.0174  -40.4604   -8.6727 N   0  0  0  0  0  0  0  0  0  0  0  0
  -15.8883  -39.4903   -9.2909 C   0  0  0  0  0  0  0  0  0  0  0  0
  -16.8364  -38.9080   -8.3213 C   0  0  1  0  0  0  0  0  0  0  0  0
  -16.4295  -37.5781   -8.0397 O   0  0  0  0  0  0  0  0  0  0  0  0
  -18.2699  -38.8003   -8.7403 C   0  0  2  0  0  0  0  0  0  0  0  0
  -19.2315  -38.9483   -7.5843 C   0  0  0  0  0  0  0  0  0  0  0  0
  -20.4676  -38.0868   -7.7702 C   0  0  2  0  0  0  0  0  0  0  0  0
  -20.2777  -36.8504   -6.9054 C   0  0  0  0  0  0  0  0  0  0  0  0
  -21.7512  -38.7162   -7.4243 C   0  0  0  0  0  0  0  0  0  0  0  0
  -21.7632  -40.1468   -7.0271 C   0  0  0  0  0  0  0  0  0  0  0  0
  -23.1238  -40.6295   -6.5569 C   0  0  0  0  0  0  0  0  0  0  0  0
  -22.8799  -41.8166   -5.6450 C   0  0  0  0  0  0  0  0  0  0  0  0
  -22.4432  -43.0350   -6.4346 C   0  0  0  0  0  0  0  0  0  0  0  0
  -21.8707  -44.1164   -5.6015 C   0  0  0  0  0  0  0  0  0  0  0  0
  -20.3867  -44.1721   -5.5107 C   0  0  0  0  0  0  0  0  0  0  0  0
  -19.6959  -44.4701   -6.6725 O   0  0  0  0  0  0  0  0  0  0  0  0
  -19.5329  -43.8831   -7.9221 C   0  0  0  0  0  0  0  0  0  0  0  0
  -19.0177  -42.6309   -8.2182 C   0  0  0  0  0  0  0  0  0  0  0  0
  -18.9440  -42.2283   -9.5265 C   0  0  0  0  0  0  0  0  0  0  0  0
  -19.4020  -43.1295  -10.5319 C   0  0  0  0  0  0  0  0  0  0  0  0
  -19.9139  -44.3722  -10.2865 C   0  0  0  0  0  0  0  0  0  0  0  0
  -19.9668  -44.7234   -8.9577 C   0  0  0  0  0  0  0  0  0  0  0  0
  -18.4677  -40.9860  -10.1506 C   0  0  0  0  0  0  0  0  0  0  0  0
  -17.7248  -41.1611  -11.2707 O   0  0  0  0  0  0  0  0  0  0  0  0
  -18.6035  -39.6123   -9.8596 N   0  0  0  0  0  0  0  0  0  0  0  0
  -13.3365  -39.4666  -10.0958 C   0  0  0  0  0  0  0  0  0  0  0  0
  -12.9268  -38.1712  -10.2950 C   0  0  0  0  0  0  0  0  0  0  0  0
  -12.7701  -37.9897  -11.6781 C   0  0  0  0  0  0  0  0  0  0  0  0
  -12.3497  -36.7893  -12.4096 C   0  0  0  0  0  0  0  0  0  0  0  0
  -10.8963  -36.7968  -12.7954 C   0  0  0  0  0  0  0  0  0  0  0  0
  -10.1202  -37.9185  -12.1433 C   0  0  0  0  0  0  0  0  0  0  0  0
  -10.8404  -37.0732  -14.3028 C   0  0  0  0  0  0  0  0  0  0  0  0
  -10.1916  -35.5050  -12.5494 C   0  0  0  0  0  0  0  0  0  0  0  0
  -13.0802  -39.1364  -12.2226 O   0  0  0  0  0  0  0  0  0  0  0  0
  -13.4136  -40.0125  -11.3208 N   0  0  0  0  0  0  0  0  0  0  0  0
  2  1  1  6
  2  3  1  0
  3  4  1  0
  4  5  1  0
  5  6  1  6
  5  7  1  0
  7  8  1  1
  8  9  1  0
  9 10  1  1
  9 11  1  0
 11 12  1  0
 12 13  1  0
 13 14  1  0
 14 15  1  0
 15 16  1  0
 16 17  1  0
 17 18  1  0
 18 19  1  0
 19 20  2  0
 20 21  1  0
 21 22  2  0
 22 23  1  0
 23 24  2  0
 21 25  1  0
 25 26  2  0
 25 27  1  0
  2 28  1  0
 28 29  1  0
 29 30  2  0
 30 31  1  0
 31 32  1  0
 32 33  1  0
 32 34  1  0
 32 35  1  0
 30 36  1  0
 36 37  1  0
 24 19  1  0
 27  7  1  0
 37 28  2  0
M  END
$$$$
