
     RDKit          3D

 34 35  0  0  0  0  0  0  0  0999 V2000
  -13.2237  -40.7090  -15.6231 C   0  0  0  0  0  0  0  0  0  0  0  0
  -12.8003  -40.0369  -14.3346 C   0  0  0  0  0  0  0  0  0  0  0  0
  -12.4717  -41.0510  -13.2567 C   0  0  0  0  0  0  0  0  0  0  0  0
  -12.1512  -40.4075  -11.9474 C   0  0  0  0  0  0  0  0  0  0  0  0
  -13.3589  -39.8662  -11.3746 N   0  0  0  0  0  0  0  0  0  0  0  0
  -14.2616  -40.5830  -10.5484 C   0  0  0  0  0  0  0  0  0  0  0  0
  -15.0491  -41.3689  -11.1472 O   0  0  0  0  0  0  0  0  0  0  0  0
  -14.3300  -40.4650   -9.0963 C   0  0  2  0  0  0  0  0  0  0  0  0
  -13.3532  -41.3399   -8.3415 C   0  0  0  0  0  0  0  0  0  0  0  0
  -15.6875  -40.4714   -8.4851 C   0  0  0  0  0  0  0  0  0  0  0  0
  -16.4064  -39.1757   -8.4231 C   0  0  2  0  0  0  0  0  0  0  0  0
  -15.9008  -38.2044   -7.6245 O   0  0  0  0  0  0  0  0  0  0  0  0
  -17.9046  -39.4864   -8.1591 C   0  0  2  0  0  0  0  0  0  0  0  0
  -18.7586  -38.3444   -8.4904 C   0  0  0  0  0  0  0  0  0  0  0  0
  -19.6130  -37.6590   -7.5316 C   0  0  2  0  0  0  0  0  0  0  0  0
  -18.9824  -37.0814   -6.3007 C   0  0  0  0  0  0  0  0  0  0  0  0
  -20.9123  -38.3002   -7.1332 C   0  0  0  0  0  0  0  0  0  0  0  0
  -21.7878  -38.4362   -8.3541 C   0  0  0  0  0  0  0  0  0  0  0  0
  -22.1615  -39.8497   -8.6913 C   0  0  0  0  0  0  0  0  0  0  0  0
  -23.5046  -40.0861   -8.3111 C   0  0  0  0  0  0  0  0  0  0  0  0
  -24.1187  -41.3012   -8.4421 C   0  0  0  0  0  0  0  0  0  0  0  0
  -23.3402  -42.2931   -8.9723 C   0  0  0  0  0  0  0  0  0  0  0  0
  -21.9932  -42.1043   -9.3670 C   0  0  0  0  0  0  0  0  0  0  0  0
  -21.4232  -43.3933   -9.8474 C   0  0  0  0  0  0  0  0  0  0  0  0
  -20.2947  -44.1835   -8.7451 S   0  0  0  0  0  6  0  0  0  0  0  0
  -19.6732  -45.3210   -9.5080 O   0  0  0  0  0  0  0  0  0  0  0  0
  -21.0982  -44.7954   -7.6343 O   0  0  0  0  0  0  0  0  0  0  0  0
  -19.0017  -43.1531   -8.1529 C   0  0  0  0  0  0  0  0  0  0  0  0
  -19.2673  -42.4334   -6.8831 C   0  0  1  0  0  0  0  0  0  0  0  0
  -19.4324  -43.4299   -5.7111 C   0  0  0  0  0  0  0  0  0  0  0  0
  -18.2019  -41.4690   -6.5350 C   0  0  0  0  0  0  0  0  0  0  0  0
  -17.2667  -41.9624   -5.7820 O   0  0  0  0  0  0  0  0  0  0  0  0
  -18.0546  -40.1241   -6.8875 N   0  0  0  0  0  0  0  0  0  0  0  0
  -21.3964  -40.8637   -9.2262 C   0  0  0  0  0  0  0  0  0  0  0  0
  1  2  1  0
  2  3  1  0
  3  4  1  0
  4  5  1  0
  5  6  1  0
  6  7  2  0
  6  8  1  0
  8  9  1  1
  8 10  1  0
 10 11  1  0
 11 12  1  1
 11 13  1  0
 13 14  1  1
 14 15  1  0
 15 16  1  1
 15 17  1  0
 17 18  1  0
 18 19  1  0
 19 20  1  0
 20 21  2  0
 21 22  1  0
 22 23  2  0
 23 24  1  0
 24 25  1  0
 25 26  2  0
 25 27  2  0
 25 28  1  0
 28 29  1  0
 29 30  1  1
 29 31  1  0
 31 32  2  0
 31 33  1  0
 23 34  1  0
 33 13  1  0
 34 19  2  0
M  END
$$$$
