
     RDKit          3D

 34 35  0  0  0  0  0  0  0  0999 V2000
  -11.9547  -36.1326  -13.9375 C   0  0  0  0  0  0  0  0  0  0  0  0
  -11.9755  -35.6711  -12.4960 C   0  0  0  0  0  0  0  0  0  0  0  0
  -12.0091  -36.8424  -11.5342 C   0  0  0  0  0  0  0  0  0  0  0  0
  -13.2275  -37.6886  -11.7092 C   0  0  0  0  0  0  0  0  0  0  0  0
  -13.5131  -38.3735  -10.4726 N   0  0  0  0  0  0  0  0  0  0  0  0
  -14.4140  -39.4596  -10.3317 C   0  0  0  0  0  0  0  0  0  0  0  0
  -15.1274  -39.7167  -11.3423 O   0  0  0  0  0  0  0  0  0  0  0  0
  -14.5588  -40.2665   -9.1253 C   0  0  2  0  0  0  0  0  0  0  0  0
  -13.7297  -41.5320   -9.1046 C   0  0  0  0  0  0  0  0  0  0  0  0
  -15.9443  -40.4872   -8.6273 C   0  0  0  0  0  0  0  0  0  0  0  0
  -16.7319  -39.2837   -8.2656 C   0  0  2  0  0  0  0  0  0  0  0  0
  -16.2652  -38.4932   -7.2684 O   0  0  0  0  0  0  0  0  0  0  0  0
  -18.2055  -39.7323   -8.0711 C   0  0  2  0  0  0  0  0  0  0  0  0
  -19.1288  -38.5988   -8.1483 C   0  0  0  0  0  0  0  0  0  0  0  0
  -20.0071  -38.1864   -7.0631 C   0  0  2  0  0  0  0  0  0  0  0  0
  -19.3927  -37.8488   -5.7383 C   0  0  0  0  0  0  0  0  0  0  0  0
  -21.2612  -38.9742   -6.8086 C   0  0  0  0  0  0  0  0  0  0  0  0
  -22.1453  -38.8979   -8.0285 C   0  0  0  0  0  0  0  0  0  0  0  0
  -22.4418  -40.2263   -8.6599 C   0  0  0  0  0  0  0  0  0  0  0  0
  -23.7632  -40.6181   -8.3364 C   0  0  0  0  0  0  0  0  0  0  0  0
  -24.3080  -41.8115   -8.7236 C   0  0  0  0  0  0  0  0  0  0  0  0
  -23.4814  -42.6189   -9.4556 C   0  0  0  0  0  0  0  0  0  0  0  0
  -22.1536  -42.2702   -9.8035 C   0  0  0  0  0  0  0  0  0  0  0  0
  -21.5173  -43.3904  -10.5502 C   0  0  0  0  0  0  0  0  0  0  0  0
  -20.3288  -44.3293   -9.6451 S   0  0  0  0  0  6  0  0  0  0  0  0
  -19.6541  -45.2383  -10.6354 O   0  0  0  0  0  0  0  0  0  0  0  0
  -21.0792  -45.2113   -8.6896 O   0  0  0  0  0  0  0  0  0  0  0  0
  -19.0889  -43.3743   -8.8486 C   0  0  0  0  0  0  0  0  0  0  0  0
  -19.3768  -42.9598   -7.4535 C   0  0  1  0  0  0  0  0  0  0  0  0
  -19.4667  -44.1918   -6.5220 C   0  0  0  0  0  0  0  0  0  0  0  0
  -18.3638  -42.0304   -6.9091 C   0  0  0  0  0  0  0  0  0  0  0  0
  -17.3906  -42.6168   -6.2813 O   0  0  0  0  0  0  0  0  0  0  0  0
  -18.2996  -40.6349   -6.9655 N   0  0  0  0  0  0  0  0  0  0  0  0
  -21.6274  -41.0551   -9.4014 C   0  0  0  0  0  0  0  0  0  0  0  0
  1  2  1  0
  2  3  1  0
  3  4  1  0
  4  5  1  0
  5  6  1  0
  6  7  2  0
  6  8  1  0
  8  9  1  6
  8 10  1  0
 10 11  1  0
 11 12  1  1
 11 13  1  0
 13 14  1  1
 14 15  1  0
 15 16  1  1
 15 17  1  0
 17 18  1  0
 18 19  1  0
 19 20  1  0
 20 21  2  0
 21 22  1  0
 22 23  2  0
 23 24  1  0
 24 25  1  0
 25 26  2  0
 25 27  2  0
 25 28  1  0
 28 29  1  0
 29 30  1  1
 29 31  1  0
 31 32  2  0
 31 33  1  0
 23 34  1  0
 33 13  1  0
 34 19  2  0
M  END
$$$$
