
     RDKit          3D

 34 35  0  0  0  0  0  0  0  0999 V2000
  -11.4025  -34.9851  -11.5222 C   0  0  0  0  0  0  0  0  0  0  0  0
  -12.0023  -36.3298  -11.8738 C   0  0  0  0  0  0  0  0  0  0  0  0
  -13.3313  -36.5483  -11.1781 C   0  0  0  0  0  0  0  0  0  0  0  0
  -14.0094  -37.8019  -11.6252 C   0  0  0  0  0  0  0  0  0  0  0  0
  -14.5439  -38.4900  -10.4761 N   0  0  0  0  0  0  0  0  0  0  0  0
  -13.9889  -39.6584   -9.8947 C   0  0  0  0  0  0  0  0  0  0  0  0
  -12.7281  -39.6874   -9.8157 O   0  0  0  0  0  0  0  0  0  0  0  0
  -14.7663  -40.7899   -9.4023 C   0  0  2  0  0  0  0  0  0  0  0  0
  -14.4374  -42.1166  -10.0513 C   0  0  0  0  0  0  0  0  0  0  0  0
  -16.2322  -40.5813   -9.2479 C   0  0  0  0  0  0  0  0  0  0  0  0
  -16.6808  -39.7701   -8.0903 C   0  0  2  0  0  0  0  0  0  0  0  0
  -15.9319  -39.8030   -6.9611 O   0  0  0  0  0  0  0  0  0  0  0  0
  -18.1828  -40.0852   -7.8545 C   0  0  2  0  0  0  0  0  0  0  0  0
  -19.0214  -38.9043   -8.0679 C   0  0  0  0  0  0  0  0  0  0  0  0
  -19.8650  -38.3067   -7.0430 C   0  0  2  0  0  0  0  0  0  0  0  0
  -19.2249  -37.8637   -5.7623 C   0  0  0  0  0  0  0  0  0  0  0  0
  -21.1725  -38.9669   -6.7072 C   0  0  0  0  0  0  0  0  0  0  0  0
  -22.0514  -38.9683   -7.9332 C   0  0  0  0  0  0  0  0  0  0  0  0
  -22.4450  -40.3358   -8.4089 C   0  0  0  0  0  0  0  0  0  0  0  0
  -23.7907  -40.5908   -8.0507 C   0  0  0  0  0  0  0  0  0  0  0  0
  -24.4217  -41.7783   -8.3008 C   0  0  0  0  0  0  0  0  0  0  0  0
  -23.6575  -42.7228   -8.9295 C   0  0  0  0  0  0  0  0  0  0  0  0
  -22.3086  -42.5137   -9.3070 C   0  0  0  0  0  0  0  0  0  0  0  0
  -21.7570  -43.7559   -9.9153 C   0  0  0  0  0  0  0  0  0  0  0  0
  -20.6380  -44.6675   -8.9005 S   0  0  0  0  0  6  0  0  0  0  0  0
  -20.0332  -45.7313   -9.7749 O   0  0  0  0  0  0  0  0  0  0  0  0
  -21.4484  -45.3764   -7.8542 O   0  0  0  0  0  0  0  0  0  0  0  0
  -19.3302  -43.7191   -8.2118 C   0  0  0  0  0  0  0  0  0  0  0  0
  -19.5842  -43.1263   -6.8757 C   0  0  1  0  0  0  0  0  0  0  0  0
  -19.7614  -44.2326   -5.8088 C   0  0  0  0  0  0  0  0  0  0  0  0
  -18.5052  -42.2160   -6.4359 C   0  0  0  0  0  0  0  0  0  0  0  0
  -17.5759  -42.7949   -5.7385 O   0  0  0  0  0  0  0  0  0  0  0  0
  -18.3398  -40.8447   -6.6527 N   0  0  0  0  0  0  0  0  0  0  0  0
  -21.6946  -41.3016   -9.0446 C   0  0  0  0  0  0  0  0  0  0  0  0
  1  2  1  0
  2  3  1  0
  3  4  1  0
  4  5  1  0
  5  6  1  0
  6  7  2  0
  6  8  1  0
  8  9  1  6
  8 10  1  0
 10 11  1  0
 11 12  1  1
 11 13  1  0
 13 14  1  1
 14 15  1  0
 15 16  1  1
 15 17  1  0
 17 18  1  0
 18 19  1  0
 19 20  1  0
 20 21  2  0
 21 22  1  0
 22 23  2  0
 23 24  1  0
 24 25  1  0
 25 26  2  0
 25 27  2  0
 25 28  1  0
 28 29  1  0
 29 30  1  1
 29 31  1  0
 31 32  2  0
 31 33  1  0
 23 34  1  0
 33 13  1  0
 34 19  2  0
M  END
$$$$
