
     RDKit          3D

 34 35  0  0  0  0  0  0  0  0999 V2000
  -11.8275  -35.0166  -12.2189 C   0  0  0  0  0  0  0  0  0  0  0  0
  -12.8956  -36.0802  -12.0800 C   0  0  0  0  0  0  0  0  0  0  0  0
  -12.7454  -37.1638  -13.1295 C   0  0  0  0  0  0  0  0  0  0  0  0
  -13.7635  -38.2467  -12.9804 C   0  0  0  0  0  0  0  0  0  0  0  0
  -13.9205  -38.5634  -11.5823 N   0  0  0  0  0  0  0  0  0  0  0  0
  -14.6460  -39.6707  -11.0739 C   0  0  0  0  0  0  0  0  0  0  0  0
  -15.3700  -40.2836  -11.9087 O   0  0  0  0  0  0  0  0  0  0  0  0
  -14.6057  -40.1237   -9.6881 C   0  0  2  0  0  0  0  0  0  0  0  0
  -13.6149  -41.2334   -9.4115 C   0  0  0  0  0  0  0  0  0  0  0  0
  -15.9152  -40.3516   -9.0176 C   0  0  0  0  0  0  0  0  0  0  0  0
  -16.9929  -39.3696   -9.2890 C   0  0  2  0  0  0  0  0  0  0  0  0
  -16.7143  -38.0544   -9.1171 O   0  0  0  0  0  0  0  0  0  0  0  0
  -18.2596  -39.8457   -8.5277 C   0  0  2  0  0  0  0  0  0  0  0  0
  -19.1606  -38.7309   -8.2300 C   0  0  0  0  0  0  0  0  0  0  0  0
  -19.5453  -38.3295   -6.8847 C   0  0  2  0  0  0  0  0  0  0  0  0
  -18.4634  -37.9724   -5.9108 C   0  0  0  0  0  0  0  0  0  0  0  0
  -20.5799  -39.1401   -6.1561 C   0  0  0  0  0  0  0  0  0  0  0  0
  -21.8762  -39.0881   -6.9257 C   0  0  0  0  0  0  0  0  0  0  0  0
  -22.3716  -40.4257   -7.3913 C   0  0  0  0  0  0  0  0  0  0  0  0
  -23.4487  -40.8413   -6.5718 C   0  0  0  0  0  0  0  0  0  0  0  0
  -24.0780  -42.0473   -6.7143 C   0  0  0  0  0  0  0  0  0  0  0  0
  -23.5929  -42.8427   -7.7159 C   0  0  0  0  0  0  0  0  0  0  0  0
  -22.5188  -42.4701   -8.5605 C   0  0  0  0  0  0  0  0  0  0  0  0
  -22.2079  -43.5820   -9.5009 C   0  0  0  0  0  0  0  0  0  0  0  0
  -20.7395  -44.4923   -9.1430 S   0  0  0  0  0  6  0  0  0  0  0  0
  -20.4939  -45.3936  -10.3218 O   0  0  0  0  0  0  0  0  0  0  0  0
  -21.0320  -45.3833   -7.9705 O   0  0  0  0  0  0  0  0  0  0  0  0
  -19.3050  -43.5087   -8.9005 C   0  0  0  0  0  0  0  0  0  0  0  0
  -19.0250  -43.0919   -7.5045 C   0  0  1  0  0  0  0  0  0  0  0  0
  -18.7137  -44.3200   -6.6166 C   0  0  0  0  0  0  0  0  0  0  0  0
  -17.8982  -42.1398   -7.4036 C   0  0  0  0  0  0  0  0  0  0  0  0
  -16.7444  -42.7035   -7.2142 O   0  0  0  0  0  0  0  0  0  0  0  0
  -17.8898  -40.7436   -7.4774 N   0  0  0  0  0  0  0  0  0  0  0  0
  -21.9011  -41.2427   -8.3968 C   0  0  0  0  0  0  0  0  0  0  0  0
  1  2  1  0
  2  3  1  0
  3  4  1  0
  4  5  1  0
  5  6  1  0
  6  7  2  0
  6  8  1  0
  8  9  1  6
  8 10  1  0
 10 11  1  0
 11 12  1  1
 11 13  1  0
 13 14  1  1
 14 15  1  0
 15 16  1  1
 15 17  1  0
 17 18  1  0
 18 19  1  0
 19 20  1  0
 20 21  2  0
 21 22  1  0
 22 23  2  0
 23 24  1  0
 24 25  1  0
 25 26  2  0
 25 27  2  0
 25 28  1  0
 28 29  1  0
 29 30  1  1
 29 31  1  0
 31 32  2  0
 31 33  1  0
 23 34  1  0
 33 13  1  0
 34 19  2  0
M  END
$$$$
