
     RDKit          3D

 34 35  0  0  0  0  0  0  0  0999 V2000
  -12.8404  -35.2486  -11.4864 C   0  0  0  0  0  0  0  0  0  0  0  0
  -13.3327  -36.6647  -11.6952 C   0  0  0  0  0  0  0  0  0  0  0  0
  -12.2312  -37.5693  -12.2114 C   0  0  0  0  0  0  0  0  0  0  0  0
  -12.7241  -38.9427  -12.5304 C   0  0  0  0  0  0  0  0  0  0  0  0
  -13.1742  -39.5807  -11.3180 N   0  0  0  0  0  0  0  0  0  0  0  0
  -14.4121  -40.2548  -11.1627 C   0  0  0  0  0  0  0  0  0  0  0  0
  -15.1953  -40.2009  -12.1528 O   0  0  0  0  0  0  0  0  0  0  0  0
  -14.8177  -40.9796   -9.9638 C   0  0  2  0  0  0  0  0  0  0  0  0
  -14.3167  -42.4051   -9.8837 C   0  0  0  0  0  0  0  0  0  0  0  0
  -16.2435  -40.8550   -9.5538 C   0  0  0  0  0  0  0  0  0  0  0  0
  -16.5930  -39.7240   -8.6604 C   0  0  2  0  0  0  0  0  0  0  0  0
  -15.8021  -39.4948   -7.5839 O   0  0  0  0  0  0  0  0  0  0  0  0
  -18.1008  -39.8533   -8.3130 C   0  0  2  0  0  0  0  0  0  0  0  0
  -18.8121  -38.5907   -8.5205 C   0  0  0  0  0  0  0  0  0  0  0  0
  -19.5078  -37.8636   -7.4686 C   0  0  2  0  0  0  0  0  0  0  0  0
  -18.7329  -37.4544   -6.2528 C   0  0  0  0  0  0  0  0  0  0  0  0
  -20.8552  -38.3547   -7.0197 C   0  0  0  0  0  0  0  0  0  0  0  0
  -21.8126  -38.2958   -8.1840 C   0  0  0  0  0  0  0  0  0  0  0  0
  -22.3921  -39.6236   -8.5743 C   0  0  0  0  0  0  0  0  0  0  0  0
  -23.7295  -39.7072   -8.1177 C   0  0  0  0  0  0  0  0  0  0  0  0
  -24.5079  -40.8209   -8.2751 C   0  0  0  0  0  0  0  0  0  0  0  0
  -23.9026  -41.8692   -8.9121 C   0  0  0  0  0  0  0  0  0  0  0  0
  -22.5686  -41.8322   -9.3862 C   0  0  0  0  0  0  0  0  0  0  0  0
  -22.2065  -43.1505   -9.9763 C   0  0  0  0  0  0  0  0  0  0  0  0
  -21.1302  -44.1510   -8.9997 S   0  0  0  0  0  6  0  0  0  0  0  0
  -20.7138  -45.3077   -9.8661 O   0  0  0  0  0  0  0  0  0  0  0  0
  -21.9406  -44.7239   -7.8731 O   0  0  0  0  0  0  0  0  0  0  0  0
  -19.6776  -43.3385   -8.4395 C   0  0  0  0  0  0  0  0  0  0  0  0
  -19.7677  -42.6744   -7.1159 C   0  0  1  0  0  0  0  0  0  0  0  0
  -19.9945  -43.7149   -5.9936 C   0  0  0  0  0  0  0  0  0  0  0  0
  -18.5636  -41.8817   -6.7871 C   0  0  0  0  0  0  0  0  0  0  0  0
  -17.6597  -42.5406   -6.1286 O   0  0  0  0  0  0  0  0  0  0  0  0
  -18.2585  -40.5473   -7.0723 N   0  0  0  0  0  0  0  0  0  0  0  0
  -21.8034  -40.6917   -9.2165 C   0  0  0  0  0  0  0  0  0  0  0  0
  1  2  1  0
  2  3  1  0
  3  4  1  0
  4  5  1  0
  5  6  1  0
  6  7  2  0
  6  8  1  0
  8  9  1  6
  8 10  1  0
 10 11  1  0
 11 12  1  1
 11 13  1  0
 13 14  1  1
 14 15  1  0
 15 16  1  1
 15 17  1  0
 17 18  1  0
 18 19  1  0
 19 20  1  0
 20 21  2  0
 21 22  1  0
 22 23  2  0
 23 24  1  0
 24 25  1  0
 25 26  2  0
 25 27  2  0
 25 28  1  0
 28 29  1  0
 29 30  1  1
 29 31  1  0
 31 32  2  0
 31 33  1  0
 23 34  1  0
 33 13  1  0
 34 19  2  0
M  END
$$$$
