
     RDKit          3D

 34 35  0  0  0  0  0  0  0  0999 V2000
  -12.7857  -34.4510  -11.9953 C   0  0  0  0  0  0  0  0  0  0  0  0
  -11.8432  -35.6305  -11.8860 C   0  0  0  0  0  0  0  0  0  0  0  0
  -12.5919  -36.9485  -11.9102 C   0  0  0  0  0  0  0  0  0  0  0  0
  -13.7764  -36.9478  -11.0002 C   0  0  0  0  0  0  0  0  0  0  0  0
  -13.8461  -38.2113  -10.3085 N   0  0  0  0  0  0  0  0  0  0  0  0
  -14.6496  -39.3120  -10.7007 C   0  0  0  0  0  0  0  0  0  0  0  0
  -15.1565  -39.2386  -11.8557 O   0  0  0  0  0  0  0  0  0  0  0  0
  -14.9156  -40.4823   -9.8718 C   0  0  2  0  0  0  0  0  0  0  0  0
  -14.2987  -41.7694  -10.3739 C   0  0  0  0  0  0  0  0  0  0  0  0
  -16.3163  -40.6690   -9.4032 C   0  0  0  0  0  0  0  0  0  0  0  0
  -16.7158  -39.9543   -8.1667 C   0  0  2  0  0  0  0  0  0  0  0  0
  -16.0996  -40.2930   -7.0080 O   0  0  0  0  0  0  0  0  0  0  0  0
  -18.2659  -39.9935   -8.0859 C   0  0  2  0  0  0  0  0  0  0  0  0
  -18.8724  -38.8825   -8.8216 C   0  0  0  0  0  0  0  0  0  0  0  0
  -19.7181  -37.8660   -8.2130 C   0  0  2  0  0  0  0  0  0  0  0  0
  -19.1635  -37.0665   -7.0730 C   0  0  0  0  0  0  0  0  0  0  0  0
  -21.1449  -38.2106   -7.8906 C   0  0  0  0  0  0  0  0  0  0  0  0
  -21.8682  -38.5545   -9.1689 C   0  0  0  0  0  0  0  0  0  0  0  0
  -22.4220  -39.9484   -9.2087 C   0  0  0  0  0  0  0  0  0  0  0  0
  -23.8230  -39.9053   -9.0095 C   0  0  0  0  0  0  0  0  0  0  0  0
  -24.6059  -41.0248   -8.9403 C   0  0  0  0  0  0  0  0  0  0  0  0
  -23.9389  -42.2112   -9.0771 C   0  0  0  0  0  0  0  0  0  0  0  0
  -22.5400  -42.3041   -9.2780 C   0  0  0  0  0  0  0  0  0  0  0  0
  -22.1321  -43.7353   -9.3293 C   0  0  0  0  0  0  0  0  0  0  0  0
  -21.2976  -44.3400   -7.8972 S   0  0  0  0  0  6  0  0  0  0  0  0
  -20.7785  -45.7076   -8.2469 O   0  0  0  0  0  0  0  0  0  0  0  0
  -22.3252  -44.5297   -6.8192 O   0  0  0  0  0  0  0  0  0  0  0  0
  -19.9396  -43.3599   -7.3685 C   0  0  0  0  0  0  0  0  0  0  0  0
  -20.2434  -42.3019   -6.3739 C   0  0  1  0  0  0  0  0  0  0  0  0
  -20.7170  -42.9232   -5.0385 C   0  0  0  0  0  0  0  0  0  0  0  0
  -19.0877  -41.4212   -6.1002 C   0  0  0  0  0  0  0  0  0  0  0  0
  -18.3493  -41.8104   -5.1060 O   0  0  0  0  0  0  0  0  0  0  0  0
  -18.6787  -40.2473   -6.7401 N   0  0  0  0  0  0  0  0  0  0  0  0
  -21.7713  -41.1556   -9.3470 C   0  0  0  0  0  0  0  0  0  0  0  0
  1  2  1  0
  2  3  1  0
  3  4  1  0
  4  5  1  0
  5  6  1  0
  6  7  2  0
  6  8  1  0
  8  9  1  6
  8 10  1  0
 10 11  1  0
 11 12  1  1
 11 13  1  0
 13 14  1  1
 14 15  1  0
 15 16  1  1
 15 17  1  0
 17 18  1  0
 18 19  1  0
 19 20  1  0
 20 21  2  0
 21 22  1  0
 22 23  2  0
 23 24  1  0
 24 25  1  0
 25 26  2  0
 25 27  2  0
 25 28  1  0
 28 29  1  0
 29 30  1  1
 29 31  1  0
 31 32  2  0
 31 33  1  0
 23 34  1  0
 33 13  1  0
 34 19  2  0
M  END
$$$$
