
     RDKit          3D

 34 35  0  0  0  0  0  0  0  0999 V2000
  -11.8613  -35.2966  -13.0612 C   0  0  0  0  0  0  0  0  0  0  0  0
  -13.1126  -36.1421  -13.1658 C   0  0  0  0  0  0  0  0  0  0  0  0
  -12.9553  -37.4654  -12.4431 C   0  0  0  0  0  0  0  0  0  0  0  0
  -13.6750  -37.4892  -11.1345 C   0  0  0  0  0  0  0  0  0  0  0  0
  -13.6347  -38.8252  -10.5932 N   0  0  0  0  0  0  0  0  0  0  0  0
  -14.7689  -39.6421  -10.3535 C   0  0  0  0  0  0  0  0  0  0  0  0
  -15.7896  -39.3843  -11.0523 O   0  0  0  0  0  0  0  0  0  0  0  0
  -14.8209  -40.7240   -9.3768 C   0  0  2  0  0  0  0  0  0  0  0  0
  -14.2620  -42.0440   -9.8613 C   0  0  0  0  0  0  0  0  0  0  0  0
  -16.0948  -40.8889   -8.6242 C   0  0  0  0  0  0  0  0  0  0  0  0
  -16.6579  -39.6794   -7.9764 C   0  0  2  0  0  0  0  0  0  0  0  0
  -15.8893  -39.0251   -7.0719 O   0  0  0  0  0  0  0  0  0  0  0  0
  -18.0700  -40.0491   -7.4470 C   0  0  2  0  0  0  0  0  0  0  0  0
  -18.9204  -38.8656   -7.3077 C   0  0  0  0  0  0  0  0  0  0  0  0
  -19.4998  -38.4208   -6.0485 C   0  0  2  0  0  0  0  0  0  0  0  0
  -18.5783  -38.1359   -4.9013 C   0  0  0  0  0  0  0  0  0  0  0  0
  -20.7039  -39.1420   -5.5118 C   0  0  0  0  0  0  0  0  0  0  0  0
  -21.8399  -39.0003   -6.4942 C   0  0  0  0  0  0  0  0  0  0  0  0
  -22.3487  -40.3016   -7.0411 C   0  0  0  0  0  0  0  0  0  0  0  0
  -23.5799  -40.6246   -6.4213 C   0  0  0  0  0  0  0  0  0  0  0  0
  -24.2660  -41.7809   -6.6730 C   0  0  0  0  0  0  0  0  0  0  0  0
  -23.6777  -42.6222   -7.5770 C   0  0  0  0  0  0  0  0  0  0  0  0
  -22.4483  -42.3421   -8.2220 C   0  0  0  0  0  0  0  0  0  0  0  0
  -22.0660  -43.4851   -9.0965 C   0  0  0  0  0  0  0  0  0  0  0  0
  -20.7559  -44.5003   -8.4914 S   0  0  0  0  0  6  0  0  0  0  0  0
  -20.3804  -45.4311   -9.6116 O   0  0  0  0  0  0  0  0  0  0  0  0
  -21.3143  -45.3530   -7.3891 O   0  0  0  0  0  0  0  0  0  0  0  0
  -19.3136  -43.6259   -8.0022 C   0  0  0  0  0  0  0  0  0  0  0  0
  -19.2479  -43.2157   -6.5780 C   0  0  1  0  0  0  0  0  0  0  0  0
  -19.1901  -44.4537   -5.6520 C   0  0  0  0  0  0  0  0  0  0  0  0
  -18.0857  -42.3510   -6.2817 C   0  0  0  0  0  0  0  0  0  0  0  0
  -17.0288  -42.9986   -5.8963 O   0  0  0  0  0  0  0  0  0  0  0  0
  -17.9573  -40.9604   -6.3502 N   0  0  0  0  0  0  0  0  0  0  0  0
  -21.7757  -41.1634   -7.9514 C   0  0  0  0  0  0  0  0  0  0  0  0
  1  2  1  0
  2  3  1  0
  3  4  1  0
  4  5  1  0
  5  6  1  0
  6  7  2  0
  6  8  1  0
  8  9  1  6
  8 10  1  0
 10 11  1  0
 11 12  1  1
 11 13  1  0
 13 14  1  1
 14 15  1  0
 15 16  1  1
 15 17  1  0
 17 18  1  0
 18 19  1  0
 19 20  1  0
 20 21  2  0
 21 22  1  0
 22 23  2  0
 23 24  1  0
 24 25  1  0
 25 26  2  0
 25 27  2  0
 25 28  1  0
 28 29  1  0
 29 30  1  1
 29 31  1  0
 31 32  2  0
 31 33  1  0
 23 34  1  0
 33 13  1  0
 34 19  2  0
M  END
$$$$
