
     RDKit          3D

 34 35  0  0  0  0  0  0  0  0999 V2000
  -11.8430  -35.1595  -12.5458 C   0  0  0  0  0  0  0  0  0  0  0  0
  -12.3380  -35.2306  -11.1170 C   0  0  0  0  0  0  0  0  0  0  0  0
  -13.6448  -35.9922  -11.0153 C   0  0  0  0  0  0  0  0  0  0  0  0
  -13.5189  -37.4052  -11.4830 C   0  0  0  0  0  0  0  0  0  0  0  0
  -14.8172  -38.0324  -11.4583 N   0  0  0  0  0  0  0  0  0  0  0  0
  -15.2070  -39.0644  -10.5672 C   0  0  0  0  0  0  0  0  0  0  0  0
  -15.5875  -40.1418  -11.1066 O   0  0  0  0  0  0  0  0  0  0  0  0
  -15.1955  -38.9534   -9.1129 C   0  0  2  0  0  0  0  0  0  0  0  0
  -13.8607  -39.2482   -8.4642 C   0  0  0  0  0  0  0  0  0  0  0  0
  -16.3321  -39.5788   -8.3826 C   0  0  0  0  0  0  0  0  0  0  0  0
  -17.3276  -40.3227   -9.1919 C   0  0  2  0  0  0  0  0  0  0  0  0
  -17.5220  -39.9351  -10.4760 O   0  0  0  0  0  0  0  0  0  0  0  0
  -18.6352  -40.4080   -8.3591 C   0  0  2  0  0  0  0  0  0  0  0  0
  -19.5074  -39.2583   -8.6056 C   0  0  0  0  0  0  0  0  0  0  0  0
  -19.9241  -38.3151   -7.5780 C   0  0  2  0  0  0  0  0  0  0  0  0
  -18.8648  -37.5943   -6.8005 C   0  0  0  0  0  0  0  0  0  0  0  0
  -21.0102  -38.7207   -6.6218 C   0  0  0  0  0  0  0  0  0  0  0  0
  -22.2768  -38.9810   -7.3987 C   0  0  0  0  0  0  0  0  0  0  0  0
  -22.8012  -40.3811   -7.2729 C   0  0  0  0  0  0  0  0  0  0  0  0
  -23.9193  -40.3899   -6.4044 C   0  0  0  0  0  0  0  0  0  0  0  0
  -24.5841  -41.5312   -6.0487 C   0  0  0  0  0  0  0  0  0  0  0  0
  -24.0922  -42.6855   -6.5933 C   0  0  0  0  0  0  0  0  0  0  0  0
  -22.9777  -42.7263   -7.4662 C   0  0  0  0  0  0  0  0  0  0  0  0
  -22.6727  -44.1380   -7.8287 C   0  0  0  0  0  0  0  0  0  0  0  0
  -21.2493  -44.8323   -7.0509 S   0  0  0  0  0  6  0  0  0  0  0  0
  -20.9943  -46.1542   -7.7215 O   0  0  0  0  0  0  0  0  0  0  0  0
  -21.6121  -45.1330   -5.6255 O   0  0  0  0  0  0  0  0  0  0  0  0
  -19.7913  -43.8625   -7.1849 C   0  0  0  0  0  0  0  0  0  0  0  0
  -19.5454  -42.8945   -6.0878 C   0  0  1  0  0  0  0  0  0  0  0  0
  -19.3068  -43.6314   -4.7485 C   0  0  0  0  0  0  0  0  0  0  0  0
  -18.3910  -42.0088   -6.3504 C   0  0  0  0  0  0  0  0  0  0  0  0
  -17.2642  -42.4563   -5.8867 O   0  0  0  0  0  0  0  0  0  0  0  0
  -18.3324  -40.7779   -7.0109 N   0  0  0  0  0  0  0  0  0  0  0  0
  -22.3245  -41.5565   -7.8124 C   0  0  0  0  0  0  0  0  0  0  0  0
  1  2  1  0
  2  3  1  0
  3  4  1  0
  4  5  1  0
  5  6  1  0
  6  7  2  0
  6  8  1  0
  8  9  1  1
  8 10  1  0
 10 11  1  0
 11 12  1  6
 11 13  1  0
 13 14  1  1
 14 15  1  0
 15 16  1  1
 15 17  1  0
 17 18  1  0
 18 19  1  0
 19 20  1  0
 20 21  2  0
 21 22  1  0
 22 23  2  0
 23 24  1  0
 24 25  1  0
 25 26  2  0
 25 27  2  0
 25 28  1  0
 28 29  1  0
 29 30  1  1
 29 31  1  0
 31 32  2  0
 31 33  1  0
 23 34  1  0
 33 13  1  0
 34 19  2  0
M  END
$$$$
