
     RDKit          3D

 34 35  0  0  0  0  0  0  0  0999 V2000
  -12.9182  -35.9875  -14.2093 C   0  0  0  0  0  0  0  0  0  0  0  0
  -13.2499  -35.5995  -12.7842 C   0  0  0  0  0  0  0  0  0  0  0  0
  -12.4948  -36.4508  -11.7827 C   0  0  0  0  0  0  0  0  0  0  0  0
  -12.9520  -37.8728  -11.7841 C   0  0  0  0  0  0  0  0  0  0  0  0
  -13.4677  -38.2085  -10.4799 N   0  0  0  0  0  0  0  0  0  0  0  0
  -13.9073  -39.4974  -10.0842 C   0  0  0  0  0  0  0  0  0  0  0  0
  -13.9325  -40.3731  -10.9947 O   0  0  0  0  0  0  0  0  0  0  0  0
  -14.3200  -39.8545   -8.7317 C   0  0  2  0  0  0  0  0  0  0  0  0
  -13.6492  -41.0883   -8.1682 C   0  0  0  0  0  0  0  0  0  0  0  0
  -15.7803  -39.8208   -8.4440 C   0  0  0  0  0  0  0  0  0  0  0  0
  -16.5913  -40.9627   -8.9315 C   0  0  2  0  0  0  0  0  0  0  0  0
  -16.5413  -41.2614  -10.2526 O   0  0  0  0  0  0  0  0  0  0  0  0
  -18.0331  -40.7768   -8.3860 C   0  0  2  0  0  0  0  0  0  0  0  0
  -18.6371  -39.5346   -8.8713 C   0  0  0  0  0  0  0  0  0  0  0  0
  -19.0861  -38.4533   -8.0063 C   0  0  2  0  0  0  0  0  0  0  0  0
  -18.0963  -37.8354   -7.0657 C   0  0  0  0  0  0  0  0  0  0  0  0
  -20.3910  -38.6054   -7.2767 C   0  0  0  0  0  0  0  0  0  0  0  0
  -21.5051  -38.7385   -8.2850 C   0  0  0  0  0  0  0  0  0  0  0  0
  -22.2683  -40.0271   -8.1949 C   0  0  0  0  0  0  0  0  0  0  0  0
  -23.5213  -39.7913   -7.5794 C   0  0  0  0  0  0  0  0  0  0  0  0
  -24.4227  -40.7837   -7.3082 C   0  0  0  0  0  0  0  0  0  0  0  0
  -24.0311  -42.0422   -7.6744 C   0  0  0  0  0  0  0  0  0  0  0  0
  -22.7889  -42.3266   -8.2923 C   0  0  0  0  0  0  0  0  0  0  0  0
  -22.6564  -43.7944   -8.5056 C   0  0  0  0  0  0  0  0  0  0  0  0
  -21.5490  -44.6248   -7.4114 S   0  0  0  0  0  6  0  0  0  0  0  0
  -21.3892  -46.0235   -7.9409 O   0  0  0  0  0  0  0  0  0  0  0  0
  -22.2301  -44.7418   -6.0786 O   0  0  0  0  0  0  0  0  0  0  0  0
  -19.9532  -43.9015   -7.2915 C   0  0  0  0  0  0  0  0  0  0  0  0
  -19.7715  -42.8896   -6.2218 C   0  0  1  0  0  0  0  0  0  0  0  0
  -19.9266  -43.5343   -4.8240 C   0  0  0  0  0  0  0  0  0  0  0  0
  -18.4576  -42.2145   -6.2861 C   0  0  0  0  0  0  0  0  0  0  0  0
  -17.5341  -42.7847   -5.5740 O   0  0  0  0  0  0  0  0  0  0  0  0
  -18.0672  -41.0689   -6.9862 N   0  0  0  0  0  0  0  0  0  0  0  0
  -21.8959  -41.3035   -8.5582 C   0  0  0  0  0  0  0  0  0  0  0  0
  1  2  1  0
  2  3  1  0
  3  4  1  0
  4  5  1  0
  5  6  1  0
  6  7  2  0
  6  8  1  0
  8  9  1  6
  8 10  1  0
 10 11  1  0
 11 12  1  6
 11 13  1  0
 13 14  1  1
 14 15  1  0
 15 16  1  1
 15 17  1  0
 17 18  1  0
 18 19  1  0
 19 20  1  0
 20 21  2  0
 21 22  1  0
 22 23  2  0
 23 24  1  0
 24 25  1  0
 25 26  2  0
 25 27  2  0
 25 28  1  0
 28 29  1  0
 29 30  1  1
 29 31  1  0
 31 32  2  0
 31 33  1  0
 23 34  1  0
 33 13  1  0
 34 19  2  0
M  END
$$$$
