
     RDKit          3D

 34 35  0  0  0  0  0  0  0  0999 V2000
  -12.8128  -34.7484  -13.1090 C   0  0  0  0  0  0  0  0  0  0  0  0
  -12.4968  -36.1557  -12.6497 C   0  0  0  0  0  0  0  0  0  0  0  0
  -13.7507  -36.9990  -12.5281 C   0  0  0  0  0  0  0  0  0  0  0  0
  -13.4508  -38.4180  -12.1710 C   0  0  0  0  0  0  0  0  0  0  0  0
  -13.7524  -38.6322  -10.7772 N   0  0  0  0  0  0  0  0  0  0  0  0
  -14.6015  -39.6505  -10.2740 C   0  0  0  0  0  0  0  0  0  0  0  0
  -15.1941  -40.3510  -11.1427 O   0  0  0  0  0  0  0  0  0  0  0  0
  -14.8224  -39.9224   -8.8582 C   0  0  2  0  0  0  0  0  0  0  0  0
  -13.6860  -40.6420   -8.1651 C   0  0  0  0  0  0  0  0  0  0  0  0
  -16.1549  -40.4674   -8.4789 C   0  0  0  0  0  0  0  0  0  0  0  0
  -17.3109  -40.0706   -9.3188 C   0  0  2  0  0  0  0  0  0  0  0  0
  -17.2573  -38.8731   -9.9513 O   0  0  0  0  0  0  0  0  0  0  0  0
  -18.5950  -40.2731   -8.4698 C   0  0  2  0  0  0  0  0  0  0  0  0
  -19.4460  -39.0819   -8.4868 C   0  0  0  0  0  0  0  0  0  0  0  0
  -19.8092  -38.3216   -7.2997 C   0  0  2  0  0  0  0  0  0  0  0  0
  -18.7102  -37.7651   -6.4460 C   0  0  0  0  0  0  0  0  0  0  0  0
  -20.8760  -38.8649   -6.3914 C   0  0  0  0  0  0  0  0  0  0  0  0
  -22.1710  -38.9640   -7.1588 C   0  0  0  0  0  0  0  0  0  0  0  0
  -22.7252  -40.3549   -7.2570 C   0  0  0  0  0  0  0  0  0  0  0  0
  -23.8170  -40.4917   -6.3662 C   0  0  0  0  0  0  0  0  0  0  0  0
  -24.4985  -41.6644   -6.1891 C   0  0  0  0  0  0  0  0  0  0  0  0
  -24.0511  -42.7171   -6.9392 C   0  0  0  0  0  0  0  0  0  0  0  0
  -22.9641  -42.6282   -7.8428 C   0  0  0  0  0  0  0  0  0  0  0  0
  -22.7043  -43.9621   -8.4515 C   0  0  0  0  0  0  0  0  0  0  0  0
  -21.2758  -44.8063   -7.8518 S   0  0  0  0  0  6  0  0  0  0  0  0
  -21.0728  -45.9979   -8.7468 O   0  0  0  0  0  0  0  0  0  0  0  0
  -21.6035  -45.3406   -6.4875 O   0  0  0  0  0  0  0  0  0  0  0  0
  -19.7993  -43.8556   -7.8663 C   0  0  0  0  0  0  0  0  0  0  0  0
  -19.4977  -43.0953   -6.6285 C   0  0  1  0  0  0  0  0  0  0  0  0
  -19.2376  -44.0556   -5.4438 C   0  0  0  0  0  0  0  0  0  0  0  0
  -18.3305  -42.1995   -6.7740 C   0  0  0  0  0  0  0  0  0  0  0  0
  -17.2016  -42.7411   -6.4314 O   0  0  0  0  0  0  0  0  0  0  0  0
  -18.2616  -40.8747   -7.2157 N   0  0  0  0  0  0  0  0  0  0  0  0
  -22.2933  -41.4288   -8.0053 C   0  0  0  0  0  0  0  0  0  0  0  0
  1  2  1  0
  2  3  1  0
  3  4  1  0
  4  5  1  0
  5  6  1  0
  6  7  2  0
  6  8  1  0
  8  9  1  6
  8 10  1  0
 10 11  1  0
 11 12  1  1
 11 13  1  0
 13 14  1  1
 14 15  1  0
 15 16  1  1
 15 17  1  0
 17 18  1  0
 18 19  1  0
 19 20  1  0
 20 21  2  0
 21 22  1  0
 22 23  2  0
 23 24  1  0
 24 25  1  0
 25 26  2  0
 25 27  2  0
 25 28  1  0
 28 29  1  0
 29 30  1  1
 29 31  1  0
 31 32  2  0
 31 33  1  0
 23 34  1  0
 33 13  1  0
 34 19  2  0
M  END
$$$$
