
     RDKit          3D

 34 35  0  0  0  0  0  0  0  0999 V2000
  -13.1604  -35.5257  -14.5751 C   0  0  0  0  0  0  0  0  0  0  0  0
  -12.3731  -36.7929  -14.3185 C   0  0  0  0  0  0  0  0  0  0  0  0
  -12.6354  -37.3426  -12.9303 C   0  0  0  0  0  0  0  0  0  0  0  0
  -13.5147  -38.5499  -12.9522 C   0  0  0  0  0  0  0  0  0  0  0  0
  -13.5902  -39.1081  -11.6246 N   0  0  0  0  0  0  0  0  0  0  0  0
  -14.7009  -39.8170  -11.1005 C   0  0  0  0  0  0  0  0  0  0  0  0
  -15.7012  -39.9156  -11.8662 O   0  0  0  0  0  0  0  0  0  0  0  0
  -14.7512  -40.4156   -9.7714 C   0  0  2  0  0  0  0  0  0  0  0  0
  -13.9548  -41.6933   -9.6200 C   0  0  0  0  0  0  0  0  0  0  0  0
  -16.0886  -40.5000   -9.1229 C   0  0  0  0  0  0  0  0  0  0  0  0
  -16.9176  -39.2703   -9.1218 C   0  0  2  0  0  0  0  0  0  0  0  0
  -16.3187  -38.0989   -8.7957 O   0  0  0  0  0  0  0  0  0  0  0  0
  -18.1964  -39.5711   -8.2943 C   0  0  2  0  0  0  0  0  0  0  0  0
  -19.0219  -38.3742   -8.1234 C   0  0  0  0  0  0  0  0  0  0  0  0
  -19.3560  -37.7910   -6.8321 C   0  0  2  0  0  0  0  0  0  0  0  0
  -18.2362  -37.3884   -5.9208 C   0  0  0  0  0  0  0  0  0  0  0  0
  -20.4243  -38.4418   -5.9993 C   0  0  0  0  0  0  0  0  0  0  0  0
  -21.7293  -38.4010   -6.7548 C   0  0  0  0  0  0  0  0  0  0  0  0
  -22.3141  -39.7510   -7.0498 C   0  0  0  0  0  0  0  0  0  0  0  0
  -23.3988  -39.9968   -6.1739 C   0  0  0  0  0  0  0  0  0  0  0  0
  -24.1032  -41.1692   -6.1625 C   0  0  0  0  0  0  0  0  0  0  0  0
  -23.6864  -42.1079   -7.0660 C   0  0  0  0  0  0  0  0  0  0  0  0
  -22.6077  -41.9075   -7.9615 C   0  0  0  0  0  0  0  0  0  0  0  0
  -22.3829  -43.1415   -8.7641 C   0  0  0  0  0  0  0  0  0  0  0  0
  -20.9663  -44.0928   -8.3155 S   0  0  0  0  0  6  0  0  0  0  0  0
  -20.7984  -45.1426   -9.3794 O   0  0  0  0  0  0  0  0  0  0  0  0
  -21.2905  -44.8166   -7.0407 O   0  0  0  0  0  0  0  0  0  0  0  0
  -19.4701  -43.1793   -8.2099 C   0  0  0  0  0  0  0  0  0  0  0  0
  -19.1391  -42.6165   -6.8777 C   0  0  1  0  0  0  0  0  0  0  0  0
  -18.8866  -43.7464   -5.8514 C   0  0  0  0  0  0  0  0  0  0  0  0
  -17.9546  -41.7319   -6.9054 C   0  0  0  0  0  0  0  0  0  0  0  0
  -16.8339  -42.3402   -6.6622 O   0  0  0  0  0  0  0  0  0  0  0  0
  -17.8623  -40.3580   -7.1475 N   0  0  0  0  0  0  0  0  0  0  0  0
  -21.9132  -40.7106   -7.9543 C   0  0  0  0  0  0  0  0  0  0  0  0
  1  2  1  0
  2  3  1  0
  3  4  1  0
  4  5  1  0
  5  6  1  0
  6  7  2  0
  6  8  1  0
  8  9  1  6
  8 10  1  0
 10 11  1  0
 11 12  1  1
 11 13  1  0
 13 14  1  1
 14 15  1  0
 15 16  1  1
 15 17  1  0
 17 18  1  0
 18 19  1  0
 19 20  1  0
 20 21  2  0
 21 22  1  0
 22 23  2  0
 23 24  1  0
 24 25  1  0
 25 26  2  0
 25 27  2  0
 25 28  1  0
 28 29  1  0
 29 30  1  1
 29 31  1  0
 31 32  2  0
 31 33  1  0
 23 34  1  0
 33 13  1  0
 34 19  2  0
M  END
$$$$
