
     RDKit          3D

 34 35  0  0  0  0  0  0  0  0999 V2000
  -12.5472  -34.8407  -12.5577 C   0  0  0  0  0  0  0  0  0  0  0  0
  -12.1714  -36.2080  -13.0872 C   0  0  0  0  0  0  0  0  0  0  0  0
  -12.4072  -37.2920  -12.0540 C   0  0  0  0  0  0  0  0  0  0  0  0
  -13.8130  -37.7966  -12.0680 C   0  0  0  0  0  0  0  0  0  0  0  0
  -13.9276  -38.9119  -11.1611 N   0  0  0  0  0  0  0  0  0  0  0  0
  -15.1155  -39.6484  -10.9209 C   0  0  0  0  0  0  0  0  0  0  0  0
  -16.1487  -39.2356  -11.5196 O   0  0  0  0  0  0  0  0  0  0  0  0
  -15.2072  -40.8140  -10.0490 C   0  0  2  0  0  0  0  0  0  0  0  0
  -15.0531  -42.1456  -10.7509 C   0  0  0  0  0  0  0  0  0  0  0  0
  -16.3134  -40.8221   -9.0527 C   0  0  0  0  0  0  0  0  0  0  0  0
  -16.9089  -39.5121   -8.6939 C   0  0  2  0  0  0  0  0  0  0  0  0
  -16.1291  -38.6148   -8.0430 O   0  0  0  0  0  0  0  0  0  0  0  0
  -18.2626  -39.7935   -7.9874 C   0  0  2  0  0  0  0  0  0  0  0  0
  -19.0319  -38.5642   -7.7869 C   0  0  0  0  0  0  0  0  0  0  0  0
  -19.4324  -38.0557   -6.4830 C   0  0  2  0  0  0  0  0  0  0  0  0
  -18.3661  -37.7878   -5.4644 C   0  0  0  0  0  0  0  0  0  0  0  0
  -20.5960  -38.6986   -5.7824 C   0  0  0  0  0  0  0  0  0  0  0  0
  -21.8344  -38.5250   -6.6261 C   0  0  0  0  0  0  0  0  0  0  0  0
  -22.4679  -39.8126   -7.0646 C   0  0  0  0  0  0  0  0  0  0  0  0
  -23.6291  -40.0544   -6.2916 C   0  0  0  0  0  0  0  0  0  0  0  0
  -24.3955  -41.1799   -6.4208 C   0  0  0  0  0  0  0  0  0  0  0  0
  -23.9622  -42.0750   -7.3600 C   0  0  0  0  0  0  0  0  0  0  0  0
  -22.8080  -41.8766   -8.1565 C   0  0  0  0  0  0  0  0  0  0  0  0
  -22.5899  -43.0613   -9.0318 C   0  0  0  0  0  0  0  0  0  0  0  0
  -21.2667  -44.1263   -8.5543 S   0  0  0  0  0  6  0  0  0  0  0  0
  -21.0749  -45.1055   -9.6797 O   0  0  0  0  0  0  0  0  0  0  0  0
  -21.7279  -44.9184   -7.3653 O   0  0  0  0  0  0  0  0  0  0  0  0
  -19.7353  -43.3148   -8.2705 C   0  0  0  0  0  0  0  0  0  0  0  0
  -19.4779  -42.8699   -6.8788 C   0  0  1  0  0  0  0  0  0  0  0  0
  -19.3681  -44.0835   -5.9256 C   0  0  0  0  0  0  0  0  0  0  0  0
  -18.2481  -42.0589   -6.7526 C   0  0  0  0  0  0  0  0  0  0  0  0
  -17.1847  -42.7496   -6.4750 O   0  0  0  0  0  0  0  0  0  0  0  0
  -18.0620  -40.6792   -6.8823 N   0  0  0  0  0  0  0  0  0  0  0  0
  -22.0515  -40.7275   -8.0077 C   0  0  0  0  0  0  0  0  0  0  0  0
  1  2  1  0
  2  3  1  0
  3  4  1  0
  4  5  1  0
  5  6  1  0
  6  7  2  0
  6  8  1  0
  8  9  1  6
  8 10  1  0
 10 11  1  0
 11 12  1  1
 11 13  1  0
 13 14  1  1
 14 15  1  0
 15 16  1  1
 15 17  1  0
 17 18  1  0
 18 19  1  0
 19 20  1  0
 20 21  2  0
 21 22  1  0
 22 23  2  0
 23 24  1  0
 24 25  1  0
 25 26  2  0
 25 27  2  0
 25 28  1  0
 28 29  1  0
 29 30  1  1
 29 31  1  0
 31 32  2  0
 31 33  1  0
 23 34  1  0
 33 13  1  0
 34 19  2  0
M  END
$$$$
