
     RDKit          3D

 34 35  0  0  0  0  0  0  0  0999 V2000
  -13.8506  -34.5537  -12.3243 C   0  0  0  0  0  0  0  0  0  0  0  0
  -13.2766  -35.6835  -13.1522 C   0  0  0  0  0  0  0  0  0  0  0  0
  -12.2768  -36.5041  -12.3616 C   0  0  0  0  0  0  0  0  0  0  0  0
  -12.6353  -37.9536  -12.3198 C   0  0  0  0  0  0  0  0  0  0  0  0
  -13.4260  -38.2147  -11.1424 N   0  0  0  0  0  0  0  0  0  0  0  0
  -14.6534  -38.9250  -11.1259 C   0  0  0  0  0  0  0  0  0  0  0  0
  -15.5930  -38.4144  -11.7989 O   0  0  0  0  0  0  0  0  0  0  0  0
  -14.8832  -40.1678  -10.3981 C   0  0  2  0  0  0  0  0  0  0  0  0
  -14.5246  -41.4252  -11.1596 C   0  0  0  0  0  0  0  0  0  0  0  0
  -16.1780  -40.2925   -9.6739 C   0  0  0  0  0  0  0  0  0  0  0  0
  -16.5143  -39.2236   -8.7025 C   0  0  2  0  0  0  0  0  0  0  0  0
  -15.6182  -38.9474   -7.7239 O   0  0  0  0  0  0  0  0  0  0  0  0
  -17.9479  -39.5056   -8.1771 C   0  0  2  0  0  0  0  0  0  0  0  0
  -18.8065  -38.3255   -8.2931 C   0  0  0  0  0  0  0  0  0  0  0  0
  -19.4431  -37.6652   -7.1627 C   0  0  2  0  0  0  0  0  0  0  0  0
  -18.5749  -37.1669   -6.0472 C   0  0  0  0  0  0  0  0  0  0  0  0
  -20.6685  -38.2894   -6.5570 C   0  0  0  0  0  0  0  0  0  0  0  0
  -21.7593  -38.3406   -7.5976 C   0  0  0  0  0  0  0  0  0  0  0  0
  -22.2400  -39.7249   -7.9203 C   0  0  0  0  0  0  0  0  0  0  0  0
  -23.4971  -39.9428   -7.3067 C   0  0  0  0  0  0  0  0  0  0  0  0
  -24.1685  -41.1326   -7.3735 C   0  0  0  0  0  0  0  0  0  0  0  0
  -23.5381  -42.1181   -8.0824 C   0  0  0  0  0  0  0  0  0  0  0  0
  -22.2816  -41.9470   -8.7131 C   0  0  0  0  0  0  0  0  0  0  0  0
  -21.8576  -43.2259   -9.3472 C   0  0  0  0  0  0  0  0  0  0  0  0
  -20.5738  -44.1004   -8.5104 S   0  0  0  0  0  6  0  0  0  0  0  0
  -20.1460  -45.2153   -9.4248 O   0  0  0  0  0  0  0  0  0  0  0  0
  -21.1793  -44.7442   -7.2968 O   0  0  0  0  0  0  0  0  0  0  0  0
  -19.1570  -43.1366   -8.1258 C   0  0  0  0  0  0  0  0  0  0  0  0
  -19.1565  -42.4736   -6.7986 C   0  0  1  0  0  0  0  0  0  0  0  0
  -19.1377  -43.5220   -5.6610 C   0  0  0  0  0  0  0  0  0  0  0  0
  -18.0109  -41.5573   -6.6140 C   0  0  0  0  0  0  0  0  0  0  0  0
  -16.9709  -42.1129   -6.0711 O   0  0  0  0  0  0  0  0  0  0  0  0
  -17.8827  -40.2011   -6.9289 N   0  0  0  0  0  0  0  0  0  0  0  0
  -21.6245  -40.7318   -8.6324 C   0  0  0  0  0  0  0  0  0  0  0  0
  1  2  1  0
  2  3  1  0
  3  4  1  0
  4  5  1  0
  5  6  1  0
  6  7  2  0
  6  8  1  0
  8  9  1  6
  8 10  1  0
 10 11  1  0
 11 12  1  1
 11 13  1  0
 13 14  1  1
 14 15  1  0
 15 16  1  1
 15 17  1  0
 17 18  1  0
 18 19  1  0
 19 20  1  0
 20 21  2  0
 21 22  1  0
 22 23  2  0
 23 24  1  0
 24 25  1  0
 25 26  2  0
 25 27  2  0
 25 28  1  0
 28 29  1  0
 29 30  1  1
 29 31  1  0
 31 32  2  0
 31 33  1  0
 23 34  1  0
 33 13  1  0
 34 19  2  0
M  END
$$$$
