
     RDKit          3D

 34 35  0  0  0  0  0  0  0  0999 V2000
  -13.7324  -34.6637  -13.3654 C   0  0  0  0  0  0  0  0  0  0  0  0
  -13.2392  -35.6442  -12.3229 C   0  0  0  0  0  0  0  0  0  0  0  0
  -13.2376  -37.0659  -12.8490 C   0  0  0  0  0  0  0  0  0  0  0  0
  -12.7369  -38.0465  -11.8396 C   0  0  0  0  0  0  0  0  0  0  0  0
  -13.7646  -38.2842  -10.8562 N   0  0  0  0  0  0  0  0  0  0  0  0
  -14.6754  -39.3710  -10.8754 C   0  0  0  0  0  0  0  0  0  0  0  0
  -15.3812  -39.4783  -11.9179 O   0  0  0  0  0  0  0  0  0  0  0  0
  -14.8381  -40.3366   -9.7945 C   0  0  2  0  0  0  0  0  0  0  0  0
  -14.1091  -41.6467   -9.9984 C   0  0  0  0  0  0  0  0  0  0  0  0
  -16.2175  -40.5303   -9.2689 C   0  0  0  0  0  0  0  0  0  0  0  0
  -16.8249  -39.3957   -8.5319 C   0  0  2  0  0  0  0  0  0  0  0  0
  -16.1548  -38.8981   -7.4640 O   0  0  0  0  0  0  0  0  0  0  0  0
  -18.2988  -39.7754   -8.2245 C   0  0  2  0  0  0  0  0  0  0  0  0
  -19.1956  -38.6296   -8.3860 C   0  0  0  0  0  0  0  0  0  0  0  0
  -20.0112  -38.0745   -7.3156 C   0  0  2  0  0  0  0  0  0  0  0  0
  -19.3270  -37.6129   -6.0645 C   0  0  0  0  0  0  0  0  0  0  0  0
  -21.2716  -38.7914   -6.9208 C   0  0  0  0  0  0  0  0  0  0  0  0
  -22.2098  -38.8221   -8.1016 C   0  0  0  0  0  0  0  0  0  0  0  0
  -22.5691  -40.2020   -8.5686 C   0  0  0  0  0  0  0  0  0  0  0  0
  -23.8834  -40.5158   -8.1461 C   0  0  0  0  0  0  0  0  0  0  0  0
  -24.4758  -41.7273   -8.3746 C   0  0  0  0  0  0  0  0  0  0  0  0
  -23.7052  -42.6347   -9.0483 C   0  0  0  0  0  0  0  0  0  0  0  0
  -22.3867  -42.3666   -9.4905 C   0  0  0  0  0  0  0  0  0  0  0  0
  -21.8148  -43.5805  -10.1359 C   0  0  0  0  0  0  0  0  0  0  0  0
  -20.6093  -44.4505   -9.1855 S   0  0  0  0  0  6  0  0  0  0  0  0
  -20.0050  -45.4823  -10.0978 O   0  0  0  0  0  0  0  0  0  0  0  0
  -21.3361  -45.1994   -8.1063 O   0  0  0  0  0  0  0  0  0  0  0  0
  -19.3096  -43.4521   -8.5547 C   0  0  0  0  0  0  0  0  0  0  0  0
  -19.5211  -42.8789   -7.2027 C   0  0  1  0  0  0  0  0  0  0  0  0
  -19.5984  -43.9983   -6.1376 C   0  0  0  0  0  0  0  0  0  0  0  0
  -18.4605  -41.9267   -6.8094 C   0  0  0  0  0  0  0  0  0  0  0  0
  -17.4741  -42.4702   -6.1639 O   0  0  0  0  0  0  0  0  0  0  0  0
  -18.3636  -40.5483   -7.0227 N   0  0  0  0  0  0  0  0  0  0  0  0
  -21.8117  -41.1313   -9.2488 C   0  0  0  0  0  0  0  0  0  0  0  0
  1  2  1  0
  2  3  1  0
  3  4  1  0
  4  5  1  0
  5  6  1  0
  6  7  2  0
  6  8  1  0
  8  9  1  6
  8 10  1  0
 10 11  1  0
 11 12  1  1
 11 13  1  0
 13 14  1  1
 14 15  1  0
 15 16  1  1
 15 17  1  0
 17 18  1  0
 18 19  1  0
 19 20  1  0
 20 21  2  0
 21 22  1  0
 22 23  2  0
 23 24  1  0
 24 25  1  0
 25 26  2  0
 25 27  2  0
 25 28  1  0
 28 29  1  0
 29 30  1  1
 29 31  1  0
 31 32  2  0
 31 33  1  0
 23 34  1  0
 33 13  1  0
 34 19  2  0
M  END
$$$$
