
     RDKit          3D

 34 35  0  0  0  0  0  0  0  0999 V2000
  -12.5900  -34.3932  -10.8863 C   0  0  0  0  0  0  0  0  0  0  0  0
  -12.8244  -35.4819  -11.9115 C   0  0  0  0  0  0  0  0  0  0  0  0
  -13.7094  -36.5843  -11.3641 C   0  0  0  0  0  0  0  0  0  0  0  0
  -12.9349  -37.8075  -10.9969 C   0  0  0  0  0  0  0  0  0  0  0  0
  -13.6320  -38.9747  -11.4777 N   0  0  0  0  0  0  0  0  0  0  0  0
  -14.8228  -39.5018  -10.9162 C   0  0  0  0  0  0  0  0  0  0  0  0
  -15.9020  -39.0731  -11.4142 O   0  0  0  0  0  0  0  0  0  0  0  0
  -14.8685  -40.4759   -9.8316 C   0  0  2  0  0  0  0  0  0  0  0  0
  -14.2861  -41.8308  -10.1701 C   0  0  0  0  0  0  0  0  0  0  0  0
  -16.1470  -40.5801   -9.0759 C   0  0  0  0  0  0  0  0  0  0  0  0
  -16.6979  -39.3274   -8.5044 C   0  0  2  0  0  0  0  0  0  0  0  0
  -15.9739  -38.6892   -7.5528 O   0  0  0  0  0  0  0  0  0  0  0  0
  -18.1664  -39.6115   -8.0881 C   0  0  2  0  0  0  0  0  0  0  0  0
  -19.0348  -38.4641   -8.3574 C   0  0  0  0  0  0  0  0  0  0  0  0
  -19.7821  -37.7482   -7.3336 C   0  0  2  0  0  0  0  0  0  0  0  0
  -19.0263  -37.1561   -6.1827 C   0  0  0  0  0  0  0  0  0  0  0  0
  -21.0437  -38.3631   -6.7963 C   0  0  0  0  0  0  0  0  0  0  0  0
  -22.0368  -38.5101   -7.9222 C   0  0  0  0  0  0  0  0  0  0  0  0
  -22.4592  -39.9244   -8.1918 C   0  0  0  0  0  0  0  0  0  0  0  0
  -23.7611  -40.1343   -7.6768 C   0  0  0  0  0  0  0  0  0  0  0  0
  -24.4000  -41.3429   -7.7217 C   0  0  0  0  0  0  0  0  0  0  0  0
  -23.6897  -42.3558   -8.3053 C   0  0  0  0  0  0  0  0  0  0  0  0
  -22.3859  -42.1938   -8.8342 C   0  0  0  0  0  0  0  0  0  0  0  0
  -21.8819  -43.4999   -9.3417 C   0  0  0  0  0  0  0  0  0  0  0  0
  -20.6600  -44.2846   -8.3395 S   0  0  0  0  0  6  0  0  0  0  0  0
  -20.1307  -45.4453   -9.1362 O   0  0  0  0  0  0  0  0  0  0  0  0
  -21.3577  -44.8634   -7.1427 O   0  0  0  0  0  0  0  0  0  0  0  0
  -19.3024  -43.2615   -7.8986 C   0  0  0  0  0  0  0  0  0  0  0  0
  -19.4328  -42.5137   -6.6239 C   0  0  1  0  0  0  0  0  0  0  0  0
  -19.4938  -43.4849   -5.4211 C   0  0  0  0  0  0  0  0  0  0  0  0
  -18.3266  -41.5580   -6.4022 C   0  0  0  0  0  0  0  0  0  0  0  0
  -17.3279  -42.0501   -5.7347 O   0  0  0  0  0  0  0  0  0  0  0  0
  -18.1982  -40.2224   -6.7951 N   0  0  0  0  0  0  0  0  0  0  0  0
  -21.7630  -40.9593   -8.7784 C   0  0  0  0  0  0  0  0  0  0  0  0
  1  2  1  0
  2  3  1  0
  3  4  1  0
  4  5  1  0
  5  6  1  0
  6  7  2  0
  6  8  1  0
  8  9  1  6
  8 10  1  0
 10 11  1  0
 11 12  1  1
 11 13  1  0
 13 14  1  1
 14 15  1  0
 15 16  1  1
 15 17  1  0
 17 18  1  0
 18 19  1  0
 19 20  1  0
 20 21  2  0
 21 22  1  0
 22 23  2  0
 23 24  1  0
 24 25  1  0
 25 26  2  0
 25 27  2  0
 25 28  1  0
 28 29  1  0
 29 30  1  1
 29 31  1  0
 31 32  2  0
 31 33  1  0
 23 34  1  0
 33 13  1  0
 34 19  2  0
M  END
$$$$
