
     RDKit          3D

 34 35  0  0  0  0  0  0  0  0999 V2000
  -11.4405  -36.3225  -13.7791 C   0  0  0  0  0  0  0  0  0  0  0  0
  -11.7219  -36.2136  -12.2957 C   0  0  0  0  0  0  0  0  0  0  0  0
  -12.8845  -37.0937  -11.8811 C   0  0  0  0  0  0  0  0  0  0  0  0
  -12.5399  -38.5467  -11.9155 C   0  0  0  0  0  0  0  0  0  0  0  0
  -12.8909  -39.1493  -10.6532 N   0  0  0  0  0  0  0  0  0  0  0  0
  -14.1124  -39.8158  -10.3798 C   0  0  0  0  0  0  0  0  0  0  0  0
  -14.9270  -39.8874  -11.3430 O   0  0  0  0  0  0  0  0  0  0  0  0
  -14.4685  -40.4007   -9.0921 C   0  0  2  0  0  0  0  0  0  0  0  0
  -13.6706  -41.6282   -8.7098 C   0  0  0  0  0  0  0  0  0  0  0  0
  -15.9208  -40.5548   -8.8029 C   0  0  0  0  0  0  0  0  0  0  0  0
  -16.7364  -39.3168   -8.7620 C   0  0  2  0  0  0  0  0  0  0  0  0
  -16.2485  -38.2551   -8.0752 O   0  0  0  0  0  0  0  0  0  0  0  0
  -18.1771  -39.7215   -8.3482 C   0  0  2  0  0  0  0  0  0  0  0  0
  -19.0890  -38.5767   -8.3804 C   0  0  0  0  0  0  0  0  0  0  0  0
  -19.8126  -38.0769   -7.2204 C   0  0  2  0  0  0  0  0  0  0  0  0
  -19.0261  -37.6668   -6.0122 C   0  0  0  0  0  0  0  0  0  0  0  0
  -21.0319  -38.8206   -6.7530 C   0  0  0  0  0  0  0  0  0  0  0  0
  -22.0672  -38.8054   -7.8500 C   0  0  0  0  0  0  0  0  0  0  0  0
  -22.4595  -40.1656   -8.3472 C   0  0  0  0  0  0  0  0  0  0  0  0
  -23.7318  -40.5084   -7.8293 C   0  0  0  0  0  0  0  0  0  0  0  0
  -24.3368  -41.7130   -8.0616 C   0  0  0  0  0  0  0  0  0  0  0  0
  -23.6228  -42.5830   -8.8391 C   0  0  0  0  0  0  0  0  0  0  0  0
  -22.3479  -42.2848   -9.3791 C   0  0  0  0  0  0  0  0  0  0  0  0
  -21.8283  -43.4639  -10.1254 C   0  0  0  0  0  0  0  0  0  0  0  0
  -20.5428  -44.3664   -9.3216 S   0  0  0  0  0  6  0  0  0  0  0  0
  -20.0143  -45.3513  -10.3281 O   0  0  0  0  0  0  0  0  0  0  0  0
  -21.1719  -45.1690   -8.2198 O   0  0  0  0  0  0  0  0  0  0  0  0
  -19.1979  -43.3873   -8.7587 C   0  0  0  0  0  0  0  0  0  0  0  0
  -19.2956  -42.8774   -7.3689 C   0  0  1  0  0  0  0  0  0  0  0  0
  -19.2774  -44.0444   -6.3532 C   0  0  0  0  0  0  0  0  0  0  0  0
  -18.2091  -41.9357   -7.0241 C   0  0  0  0  0  0  0  0  0  0  0  0
  -17.1691  -42.5000   -6.4902 O   0  0  0  0  0  0  0  0  0  0  0  0
  -18.1362  -40.5484   -7.1817 N   0  0  0  0  0  0  0  0  0  0  0  0
  -21.7592  -41.0572   -9.1310 C   0  0  0  0  0  0  0  0  0  0  0  0
  1  2  1  0
  2  3  1  0
  3  4  1  0
  4  5  1  0
  5  6  1  0
  6  7  2  0
  6  8  1  0
  8  9  1  6
  8 10  1  0
 10 11  1  0
 11 12  1  1
 11 13  1  0
 13 14  1  1
 14 15  1  0
 15 16  1  1
 15 17  1  0
 17 18  1  0
 18 19  1  0
 19 20  1  0
 20 21  2  0
 21 22  1  0
 22 23  2  0
 23 24  1  0
 24 25  1  0
 25 26  2  0
 25 27  2  0
 25 28  1  0
 28 29  1  0
 29 30  1  1
 29 31  1  0
 31 32  2  0
 31 33  1  0
 23 34  1  0
 33 13  1  0
 34 19  2  0
M  END
$$$$
