
     RDKit          3D

 34 35  0  0  0  0  0  0  0  0999 V2000
  -12.2738  -34.6133  -11.3034 C   0  0  0  0  0  0  0  0  0  0  0  0
  -12.8821  -35.9939  -11.4262 C   0  0  0  0  0  0  0  0  0  0  0  0
  -14.0258  -36.0145  -12.4211 C   0  0  0  0  0  0  0  0  0  0  0  0
  -14.6911  -37.3497  -12.4972 C   0  0  0  0  0  0  0  0  0  0  0  0
  -14.7751  -37.9159  -11.1735 N   0  0  0  0  0  0  0  0  0  0  0  0
  -15.3592  -39.1692  -10.8588 C   0  0  0  0  0  0  0  0  0  0  0  0
  -15.9672  -39.7454  -11.8047 O   0  0  0  0  0  0  0  0  0  0  0  0
  -15.3007  -39.8063   -9.5480 C   0  0  2  0  0  0  0  0  0  0  0  0
  -14.1697  -40.7961   -9.3731 C   0  0  0  0  0  0  0  0  0  0  0  0
  -16.5854  -40.3071   -8.9867 C   0  0  0  0  0  0  0  0  0  0  0  0
  -17.7127  -39.3460   -8.9179 C   0  0  2  0  0  0  0  0  0  0  0  0
  -17.4313  -38.0547   -8.6172 O   0  0  0  0  0  0  0  0  0  0  0  0
  -18.8069  -39.9751   -8.0136 C   0  0  2  0  0  0  0  0  0  0  0  0
  -19.8453  -39.0028   -7.6679 C   0  0  0  0  0  0  0  0  0  0  0  0
  -20.1610  -38.5954   -6.3065 C   0  0  2  0  0  0  0  0  0  0  0  0
  -19.0645  -38.0193   -5.4626 C   0  0  0  0  0  0  0  0  0  0  0  0
  -20.9758  -39.5193   -5.4458 C   0  0  0  0  0  0  0  0  0  0  0  0
  -22.3303  -39.7151   -6.0802 C   0  0  0  0  0  0  0  0  0  0  0  0
  -22.6428  -41.1374   -6.4416 C   0  0  0  0  0  0  0  0  0  0  0  0
  -23.5550  -41.6737   -5.5011 C   0  0  0  0  0  0  0  0  0  0  0  0
  -23.9899  -42.9701   -5.5326 C   0  0  0  0  0  0  0  0  0  0  0  0
  -23.4787  -43.7314   -6.5476 C   0  0  0  0  0  0  0  0  0  0  0  0
  -22.5647  -43.2394   -7.5111 C   0  0  0  0  0  0  0  0  0  0  0  0
  -22.1671  -44.3370   -8.4355 C   0  0  0  0  0  0  0  0  0  0  0  0
  -20.5426  -44.9824   -8.1953 S   0  0  0  0  0  6  0  0  0  0  0  0
  -20.2662  -45.8956   -9.3580 O   0  0  0  0  0  0  0  0  0  0  0  0
  -20.5735  -45.8438   -6.9661 O   0  0  0  0  0  0  0  0  0  0  0  0
  -19.2713  -43.7722   -8.1383 C   0  0  0  0  0  0  0  0  0  0  0  0
  -18.9321  -43.2415   -6.7950 C   0  0  1  0  0  0  0  0  0  0  0  0
  -18.3419  -44.3550   -5.8976 C   0  0  0  0  0  0  0  0  0  0  0  0
  -17.9713  -42.1188   -6.8461 C   0  0  0  0  0  0  0  0  0  0  0  0
  -16.7282  -42.4814   -6.7543 O   0  0  0  0  0  0  0  0  0  0  0  0
  -18.1977  -40.7450   -6.9733 N   0  0  0  0  0  0  0  0  0  0  0  0
  -22.1427  -41.9225   -7.4581 C   0  0  0  0  0  0  0  0  0  0  0  0
  1  2  1  0
  2  3  1  0
  3  4  1  0
  4  5  1  0
  5  6  1  0
  6  7  2  0
  6  8  1  0
  8  9  1  6
  8 10  1  0
 10 11  1  0
 11 12  1  1
 11 13  1  0
 13 14  1  1
 14 15  1  0
 15 16  1  1
 15 17  1  0
 17 18  1  0
 18 19  1  0
 19 20  1  0
 20 21  2  0
 21 22  1  0
 22 23  2  0
 23 24  1  0
 24 25  1  0
 25 26  2  0
 25 27  2  0
 25 28  1  0
 28 29  1  0
 29 30  1  1
 29 31  1  0
 31 32  2  0
 31 33  1  0
 23 34  1  0
 33 13  1  0
 34 19  2  0
M  END
$$$$
