
     RDKit          3D

 34 35  0  0  0  0  0  0  0  0999 V2000
  -13.8782  -34.7653  -10.9007 C   0  0  0  0  0  0  0  0  0  0  0  0
  -13.7648  -35.1890  -12.3495 C   0  0  0  0  0  0  0  0  0  0  0  0
  -13.9180  -36.6889  -12.5071 C   0  0  0  0  0  0  0  0  0  0  0  0
  -13.3893  -37.4425  -11.3308 C   0  0  0  0  0  0  0  0  0  0  0  0
  -13.6713  -38.8467  -11.4990 N   0  0  0  0  0  0  0  0  0  0  0  0
  -14.7298  -39.5470  -10.8662 C   0  0  0  0  0  0  0  0  0  0  0  0
  -15.7696  -39.7183  -11.5633 O   0  0  0  0  0  0  0  0  0  0  0  0
  -14.6864  -40.0603   -9.5017 C   0  0  2  0  0  0  0  0  0  0  0  0
  -13.7034  -41.1889   -9.2789 C   0  0  0  0  0  0  0  0  0  0  0  0
  -15.9944  -40.3067   -8.8349 C   0  0  0  0  0  0  0  0  0  0  0  0
  -16.8891  -39.1384   -8.6502 C   0  0  2  0  0  0  0  0  0  0  0  0
  -16.4071  -38.0678   -7.9730 O   0  0  0  0  0  0  0  0  0  0  0  0
  -18.2412  -39.6690   -8.1016 C   0  0  2  0  0  0  0  0  0  0  0  0
  -19.2677  -38.6252   -8.0959 C   0  0  0  0  0  0  0  0  0  0  0  0
  -19.9433  -38.1518   -6.8966 C   0  0  2  0  0  0  0  0  0  0  0  0
  -19.1089  -37.6121   -5.7745 C   0  0  0  0  0  0  0  0  0  0  0  0
  -21.0361  -38.9946   -6.3018 C   0  0  0  0  0  0  0  0  0  0  0  0
  -22.1527  -39.1321   -7.3067 C   0  0  0  0  0  0  0  0  0  0  0  0
  -22.4393  -40.5453   -7.7214 C   0  0  0  0  0  0  0  0  0  0  0  0
  -23.6225  -40.9928   -7.0857 C   0  0  0  0  0  0  0  0  0  0  0  0
  -24.1147  -42.2615   -7.2239 C   0  0  0  0  0  0  0  0  0  0  0  0
  -23.3788  -43.0873   -8.0286 C   0  0  0  0  0  0  0  0  0  0  0  0
  -22.1900  -42.6848   -8.6850 C   0  0  0  0  0  0  0  0  0  0  0  0
  -21.6118  -43.8362   -9.4315 C   0  0  0  0  0  0  0  0  0  0  0  0
  -20.1780  -44.5679   -8.7092 S   0  0  0  0  0  6  0  0  0  0  0  0
  -19.6325  -45.5366   -9.7222 O   0  0  0  0  0  0  0  0  0  0  0  0
  -20.6283  -45.3818   -7.5307 O   0  0  0  0  0  0  0  0  0  0  0  0
  -18.9020  -43.4339   -8.2968 C   0  0  0  0  0  0  0  0  0  0  0  0
  -18.9398  -42.8770   -6.9222 C   0  0  1  0  0  0  0  0  0  0  0  0
  -18.7172  -43.9910   -5.8720 C   0  0  0  0  0  0  0  0  0  0  0  0
  -17.9337  -41.8157   -6.7038 C   0  0  0  0  0  0  0  0  0  0  0  0
  -16.8005  -42.2479   -6.2411 O   0  0  0  0  0  0  0  0  0  0  0  0
  -18.0196  -40.4363   -6.9150 N   0  0  0  0  0  0  0  0  0  0  0  0
  -21.7151  -41.3942   -8.5305 C   0  0  0  0  0  0  0  0  0  0  0  0
  1  2  1  0
  2  3  1  0
  3  4  1  0
  4  5  1  0
  5  6  1  0
  6  7  2  0
  6  8  1  0
  8  9  1  6
  8 10  1  0
 10 11  1  0
 11 12  1  1
 11 13  1  0
 13 14  1  1
 14 15  1  0
 15 16  1  1
 15 17  1  0
 17 18  1  0
 18 19  1  0
 19 20  1  0
 20 21  2  0
 21 22  1  0
 22 23  2  0
 23 24  1  0
 24 25  1  0
 25 26  2  0
 25 27  2  0
 25 28  1  0
 28 29  1  0
 29 30  1  1
 29 31  1  0
 31 32  2  0
 31 33  1  0
 23 34  1  0
 33 13  1  0
 34 19  2  0
M  END
$$$$
