
     RDKit          3D

 34 35  0  0  0  0  0  0  0  0999 V2000
  -11.7662  -34.5992  -12.5774 C   0  0  0  0  0  0  0  0  0  0  0  0
  -13.1232  -35.2586  -12.4543 C   0  0  0  0  0  0  0  0  0  0  0  0
  -13.0050  -36.7016  -12.0051 C   0  0  0  0  0  0  0  0  0  0  0  0
  -14.3214  -37.4074  -12.0026 C   0  0  0  0  0  0  0  0  0  0  0  0
  -14.1823  -38.6720  -11.3236 N   0  0  0  0  0  0  0  0  0  0  0  0
  -15.2347  -39.5950  -11.0961 C   0  0  0  0  0  0  0  0  0  0  0  0
  -16.1868  -39.5586  -11.9259 O   0  0  0  0  0  0  0  0  0  0  0  0
  -15.2778  -40.5491   -9.9938 C   0  0  2  0  0  0  0  0  0  0  0  0
  -14.5832  -41.8655  -10.2659 C   0  0  0  0  0  0  0  0  0  0  0  0
  -16.5892  -40.7294   -9.3124 C   0  0  0  0  0  0  0  0  0  0  0  0
  -16.8671  -39.8619   -8.1420 C   0  0  2  0  0  0  0  0  0  0  0  0
  -15.9371  -39.8029   -7.1579 O   0  0  0  0  0  0  0  0  0  0  0  0
  -18.2937  -40.2063   -7.6351 C   0  0  2  0  0  0  0  0  0  0  0  0
  -19.2096  -39.0751   -7.7926 C   0  0  0  0  0  0  0  0  0  0  0  0
  -19.8999  -38.4243   -6.6886 C   0  0  2  0  0  0  0  0  0  0  0  0
  -19.0791  -37.8575   -5.5699 C   0  0  0  0  0  0  0  0  0  0  0  0
  -21.1026  -39.0978   -6.0900 C   0  0  0  0  0  0  0  0  0  0  0  0
  -22.1700  -39.2281   -7.1479 C   0  0  0  0  0  0  0  0  0  0  0  0
  -22.5729  -40.6421   -7.4473 C   0  0  0  0  0  0  0  0  0  0  0  0
  -23.8282  -40.9114   -6.8507 C   0  0  0  0  0  0  0  0  0  0  0  0
  -24.4362  -42.1356   -6.9021 C   0  0  0  0  0  0  0  0  0  0  0  0
  -23.7430  -43.1023   -7.5775 C   0  0  0  0  0  0  0  0  0  0  0  0
  -22.4856  -42.8801   -8.1902 C   0  0  0  0  0  0  0  0  0  0  0  0
  -21.9848  -44.1488   -8.7877 C   0  0  0  0  0  0  0  0  0  0  0  0
  -20.6733  -44.9372   -7.9094 S   0  0  0  0  0  6  0  0  0  0  0  0
  -20.1721  -46.0481   -8.7908 O   0  0  0  0  0  0  0  0  0  0  0  0
  -21.2671  -45.5850   -6.6921 O   0  0  0  0  0  0  0  0  0  0  0  0
  -19.3153  -43.8932   -7.5224 C   0  0  0  0  0  0  0  0  0  0  0  0
  -19.3733  -43.2023   -6.2108 C   0  0  1  0  0  0  0  0  0  0  0  0
  -19.3214  -44.2233   -5.0495 C   0  0  0  0  0  0  0  0  0  0  0  0
  -18.2798  -42.2241   -6.0272 C   0  0  0  0  0  0  0  0  0  0  0  0
  -17.2228  -42.7132   -5.4541 O   0  0  0  0  0  0  0  0  0  0  0  0
  -18.2158  -40.8703   -6.3705 N   0  0  0  0  0  0  0  0  0  0  0  0
  -21.8935  -41.6310   -8.1257 C   0  0  0  0  0  0  0  0  0  0  0  0
  1  2  1  0
  2  3  1  0
  3  4  1  0
  4  5  1  0
  5  6  1  0
  6  7  2  0
  6  8  1  0
  8  9  1  6
  8 10  1  0
 10 11  1  0
 11 12  1  1
 11 13  1  0
 13 14  1  1
 14 15  1  0
 15 16  1  1
 15 17  1  0
 17 18  1  0
 18 19  1  0
 19 20  1  0
 20 21  2  0
 21 22  1  0
 22 23  2  0
 23 24  1  0
 24 25  1  0
 25 26  2  0
 25 27  2  0
 25 28  1  0
 28 29  1  0
 29 30  1  1
 29 31  1  0
 31 32  2  0
 31 33  1  0
 23 34  1  0
 33 13  1  0
 34 19  2  0
M  END
$$$$
