
     RDKit          3D

 34 35  0  0  0  0  0  0  0  0999 V2000
  -12.2983  -39.0466  -15.2576 C   0  0  0  0  0  0  0  0  0  0  0  0
  -11.3434  -38.6233  -14.1620 C   0  0  0  0  0  0  0  0  0  0  0  0
  -11.8742  -38.9821  -12.7882 C   0  0  0  0  0  0  0  0  0  0  0  0
  -12.8966  -38.0087  -12.3000 C   0  0  0  0  0  0  0  0  0  0  0  0
  -13.2984  -38.3705  -10.9631 N   0  0  0  0  0  0  0  0  0  0  0  0
  -14.2869  -39.3352  -10.6421 C   0  0  0  0  0  0  0  0  0  0  0  0
  -15.0770  -39.6451  -11.5782 O   0  0  0  0  0  0  0  0  0  0  0  0
  -14.4379  -39.9657   -9.3356 C   0  0  2  0  0  0  0  0  0  0  0  0
  -13.4012  -41.0204   -9.0160 C   0  0  0  0  0  0  0  0  0  0  0  0
  -15.8126  -40.3846   -8.9468 C   0  0  0  0  0  0  0  0  0  0  0  0
  -16.9372  -39.5545   -9.4424 C   0  0  2  0  0  0  0  0  0  0  0  0
  -16.7359  -38.2204   -9.5705 O   0  0  0  0  0  0  0  0  0  0  0  0
  -18.1915  -39.9206   -8.6036 C   0  0  2  0  0  0  0  0  0  0  0  0
  -19.1596  -38.8228   -8.5742 C   0  0  0  0  0  0  0  0  0  0  0  0
  -19.5951  -38.1512   -7.3583 C   0  0  2  0  0  0  0  0  0  0  0  0
  -18.5561  -37.5197   -6.4819 C   0  0  0  0  0  0  0  0  0  0  0  0
  -20.5982  -38.8361   -6.4736 C   0  0  0  0  0  0  0  0  0  0  0  0
  -21.8785  -39.0364   -7.2457 C   0  0  0  0  0  0  0  0  0  0  0  0
  -22.2882  -40.4716   -7.3998 C   0  0  0  0  0  0  0  0  0  0  0  0
  -23.3578  -40.7543   -6.5164 C   0  0  0  0  0  0  0  0  0  0  0  0
  -23.9156  -41.9965   -6.3868 C   0  0  0  0  0  0  0  0  0  0  0  0
  -23.3652  -42.9675   -7.1776 C   0  0  0  0  0  0  0  0  0  0  0  0
  -22.2956  -42.7324   -8.0757 C   0  0  0  0  0  0  0  0  0  0  0  0
  -21.9028  -44.0076   -8.7367 C   0  0  0  0  0  0  0  0  0  0  0  0
  -20.3938  -44.7247   -8.1693 S   0  0  0  0  0  6  0  0  0  0  0  0
  -20.0729  -45.8529   -9.1107 O   0  0  0  0  0  0  0  0  0  0  0  0
  -20.6613  -45.3433   -6.8277 O   0  0  0  0  0  0  0  0  0  0  0  0
  -19.0221  -43.6284   -8.1443 C   0  0  0  0  0  0  0  0  0  0  0  0
  -18.7961  -42.8909   -6.8770 C   0  0  1  0  0  0  0  0  0  0  0  0
  -18.4359  -43.8659   -5.7310 C   0  0  0  0  0  0  0  0  0  0  0  0
  -17.7268  -41.8756   -6.9853 C   0  0  0  0  0  0  0  0  0  0  0  0
  -16.5476  -42.3123   -6.6632 O   0  0  0  0  0  0  0  0  0  0  0  0
  -17.7948  -40.5342   -7.3740 N   0  0  0  0  0  0  0  0  0  0  0  0
  -21.7511  -41.4653   -8.1896 C   0  0  0  0  0  0  0  0  0  0  0  0
  1  2  1  0
  2  3  1  0
  3  4  1  0
  4  5  1  0
  5  6  1  0
  6  7  2  0
  6  8  1  0
  8  9  1  6
  8 10  1  0
 10 11  1  0
 11 12  1  1
 11 13  1  0
 13 14  1  1
 14 15  1  0
 15 16  1  1
 15 17  1  0
 17 18  1  0
 18 19  1  0
 19 20  1  0
 20 21  2  0
 21 22  1  0
 22 23  2  0
 23 24  1  0
 24 25  1  0
 25 26  2  0
 25 27  2  0
 25 28  1  0
 28 29  1  0
 29 30  1  1
 29 31  1  0
 31 32  2  0
 31 33  1  0
 23 34  1  0
 33 13  1  0
 34 19  2  0
M  END
$$$$
