
     RDKit          3D

 34 35  0  0  0  0  0  0  0  0999 V2000
  -13.4458  -35.4423  -13.1860 C   0  0  0  0  0  0  0  0  0  0  0  0
  -12.9510  -36.8447  -12.9034 C   0  0  0  0  0  0  0  0  0  0  0  0
  -12.7862  -37.0904  -11.4166 C   0  0  0  0  0  0  0  0  0  0  0  0
  -12.3857  -38.4969  -11.1123 C   0  0  0  0  0  0  0  0  0  0  0  0
  -13.4607  -39.3871  -11.4750 N   0  0  0  0  0  0  0  0  0  0  0  0
  -14.5747  -39.6968  -10.6540 C   0  0  0  0  0  0  0  0  0  0  0  0
  -15.4572  -38.7972  -10.5627 O   0  0  0  0  0  0  0  0  0  0  0  0
  -14.7503  -40.9520   -9.9323 C   0  0  2  0  0  0  0  0  0  0  0  0
  -14.5305  -42.1978  -10.7626 C   0  0  0  0  0  0  0  0  0  0  0  0
  -15.9468  -41.0596   -9.0530 C   0  0  0  0  0  0  0  0  0  0  0  0
  -16.3866  -39.8260   -8.3571 C   0  0  2  0  0  0  0  0  0  0  0  0
  -15.7219  -39.4560   -7.2355 O   0  0  0  0  0  0  0  0  0  0  0  0
  -17.9252  -39.9196   -8.1707 C   0  0  2  0  0  0  0  0  0  0  0  0
  -18.5968  -38.6943   -8.6076 C   0  0  0  0  0  0  0  0  0  0  0  0
  -19.4008  -37.8494   -7.7365 C   0  0  2  0  0  0  0  0  0  0  0  0
  -18.7652  -37.2935   -6.4982 C   0  0  0  0  0  0  0  0  0  0  0  0
  -20.7949  -38.2892   -7.3882 C   0  0  0  0  0  0  0  0  0  0  0  0
  -21.6133  -38.3750   -8.6525 C   0  0  0  0  0  0  0  0  0  0  0  0
  -22.1568  -39.7428   -8.9442 C   0  0  0  0  0  0  0  0  0  0  0  0
  -23.5382  -39.7771   -8.6361 C   0  0  0  0  0  0  0  0  0  0  0  0
  -24.3038  -40.9052   -8.7464 C   0  0  0  0  0  0  0  0  0  0  0  0
  -23.6397  -42.0196   -9.1802 C   0  0  0  0  0  0  0  0  0  0  0  0
  -22.2601  -42.0337   -9.5003 C   0  0  0  0  0  0  0  0  0  0  0  0
  -21.8455  -43.4116   -9.8831 C   0  0  0  0  0  0  0  0  0  0  0  0
  -20.8962  -44.2825   -8.6775 S   0  0  0  0  0  6  0  0  0  0  0  0
  -20.3946  -45.5330   -9.3460 O   0  0  0  0  0  0  0  0  0  0  0  0
  -21.8344  -44.7197   -7.5900 O   0  0  0  0  0  0  0  0  0  0  0  0
  -19.5092  -43.4020   -8.0571 C   0  0  0  0  0  0  0  0  0  0  0  0
  -19.7429  -42.5841   -6.8416 C   0  0  1  0  0  0  0  0  0  0  0  0
  -20.1051  -43.4833   -5.6358 C   0  0  0  0  0  0  0  0  0  0  0  0
  -18.5768  -41.7521   -6.4753 C   0  0  0  0  0  0  0  0  0  0  0  0
  -17.7595  -42.3230   -5.6440 O   0  0  0  0  0  0  0  0  0  0  0  0
  -18.2291  -40.4603   -6.8817 N   0  0  0  0  0  0  0  0  0  0  0  0
  -21.5088  -40.8775   -9.3826 C   0  0  0  0  0  0  0  0  0  0  0  0
  1  2  1  0
  2  3  1  0
  3  4  1  0
  4  5  1  0
  5  6  1  0
  6  7  2  0
  6  8  1  0
  8  9  1  6
  8 10  1  0
 10 11  1  0
 11 12  1  1
 11 13  1  0
 13 14  1  1
 14 15  1  0
 15 16  1  1
 15 17  1  0
 17 18  1  0
 18 19  1  0
 19 20  1  0
 20 21  2  0
 21 22  1  0
 22 23  2  0
 23 24  1  0
 24 25  1  0
 25 26  2  0
 25 27  2  0
 25 28  1  0
 28 29  1  0
 29 30  1  1
 29 31  1  0
 31 32  2  0
 31 33  1  0
 23 34  1  0
 33 13  1  0
 34 19  2  0
M  END
$$$$
