
     RDKit          3D

 34 35  0  0  0  0  0  0  0  0999 V2000
  -12.0148  -34.7782  -12.5213 C   0  0  0  0  0  0  0  0  0  0  0  0
  -11.1786  -35.8923  -11.9289 C   0  0  0  0  0  0  0  0  0  0  0  0
  -12.0062  -36.8015  -11.0420 C   0  0  0  0  0  0  0  0  0  0  0  0
  -12.6905  -37.8818  -11.8138 C   0  0  0  0  0  0  0  0  0  0  0  0
  -12.9918  -38.9807  -10.9300 N   0  0  0  0  0  0  0  0  0  0  0  0
  -14.2950  -39.4570  -10.6366 C   0  0  0  0  0  0  0  0  0  0  0  0
  -15.2489  -38.7569  -11.0799 O   0  0  0  0  0  0  0  0  0  0  0  0
  -14.5844  -40.6671   -9.8756 C   0  0  2  0  0  0  0  0  0  0  0  0
  -14.0878  -41.9489  -10.5080 C   0  0  0  0  0  0  0  0  0  0  0  0
  -15.9615  -40.8017   -9.3260 C   0  0  0  0  0  0  0  0  0  0  0  0
  -16.3764  -39.8192   -8.2955 C   0  0  2  0  0  0  0  0  0  0  0  0
  -15.6475  -39.7460   -7.1552 O   0  0  0  0  0  0  0  0  0  0  0  0
  -17.8981  -40.0116   -8.0542 C   0  0  2  0  0  0  0  0  0  0  0  0
  -18.6009  -38.7287   -7.9937 C   0  0  0  0  0  0  0  0  0  0  0  0
  -19.3439  -38.2593   -6.8332 C   0  0  2  0  0  0  0  0  0  0  0  0
  -18.6247  -38.1508   -5.5227 C   0  0  0  0  0  0  0  0  0  0  0  0
  -20.7095  -38.8286   -6.5703 C   0  0  0  0  0  0  0  0  0  0  0  0
  -21.6137  -38.4920   -7.7298 C   0  0  0  0  0  0  0  0  0  0  0  0
  -22.1736  -39.6874   -8.4431 C   0  0  0  0  0  0  0  0  0  0  0  0
  -23.5302  -39.8623   -8.0776 C   0  0  0  0  0  0  0  0  0  0  0  0
  -24.2994  -40.9017   -8.5235 C   0  0  0  0  0  0  0  0  0  0  0  0
  -23.6650  -41.7790   -9.3595 C   0  0  0  0  0  0  0  0  0  0  0  0
  -22.3110  -41.6454   -9.7529 C   0  0  0  0  0  0  0  0  0  0  0  0
  -21.9214  -42.7940  -10.6168 C   0  0  0  0  0  0  0  0  0  0  0  0
  -20.8889  -44.0039   -9.8531 S   0  0  0  0  0  6  0  0  0  0  0  0
  -20.4327  -44.9316  -10.9455 O   0  0  0  0  0  0  0  0  0  0  0  0
  -21.7484  -44.8151   -8.9272 O   0  0  0  0  0  0  0  0  0  0  0  0
  -19.4637  -43.3573   -9.0562 C   0  0  0  0  0  0  0  0  0  0  0  0
  -19.6139  -43.0178   -7.6198 C   0  0  1  0  0  0  0  0  0  0  0  0
  -19.8897  -44.2883   -6.7811 C   0  0  0  0  0  0  0  0  0  0  0  0
  -18.4267  -42.3344   -7.0633 C   0  0  0  0  0  0  0  0  0  0  0  0
  -17.5525  -43.1366   -6.5368 O   0  0  0  0  0  0  0  0  0  0  0  0
  -18.1106  -40.9732   -7.0169 N   0  0  0  0  0  0  0  0  0  0  0  0
  -21.5556  -40.5827   -9.2894 C   0  0  0  0  0  0  0  0  0  0  0  0
  1  2  1  0
  2  3  1  0
  3  4  1  0
  4  5  1  0
  5  6  1  0
  6  7  2  0
  6  8  1  0
  8  9  1  6
  8 10  1  0
 10 11  1  0
 11 12  1  1
 11 13  1  0
 13 14  1  1
 14 15  1  0
 15 16  1  1
 15 17  1  0
 17 18  1  0
 18 19  1  0
 19 20  1  0
 20 21  2  0
 21 22  1  0
 22 23  2  0
 23 24  1  0
 24 25  1  0
 25 26  2  0
 25 27  2  0
 25 28  1  0
 28 29  1  0
 29 30  1  1
 29 31  1  0
 31 32  2  0
 31 33  1  0
 23 34  1  0
 33 13  1  0
 34 19  2  0
M  END
$$$$
