
     RDKit          3D

 34 35  0  0  0  0  0  0  0  0999 V2000
  -11.1686  -35.6135  -13.5064 C   0  0  0  0  0  0  0  0  0  0  0  0
  -12.6007  -35.7900  -13.0489 C   0  0  0  0  0  0  0  0  0  0  0  0
  -12.7196  -36.8637  -11.9854 C   0  0  0  0  0  0  0  0  0  0  0  0
  -14.0059  -36.7785  -11.2309 C   0  0  0  0  0  0  0  0  0  0  0  0
  -14.0604  -37.8442  -10.2608 N   0  0  0  0  0  0  0  0  0  0  0  0
  -14.8616  -39.0089  -10.3736 C   0  0  0  0  0  0  0  0  0  0  0  0
  -15.6706  -39.0277  -11.3439 O   0  0  0  0  0  0  0  0  0  0  0  0
  -14.8066  -40.1455   -9.4612 C   0  0  2  0  0  0  0  0  0  0  0  0
  -13.9426  -41.2954   -9.9310 C   0  0  0  0  0  0  0  0  0  0  0  0
  -16.0989  -40.6057   -8.8829 C   0  0  0  0  0  0  0  0  0  0  0  0
  -16.7477  -39.7180   -7.8876 C   0  0  2  0  0  0  0  0  0  0  0  0
  -16.1002  -39.4914   -6.7187 O   0  0  0  0  0  0  0  0  0  0  0  0
  -18.2097  -40.2091   -7.7083 C   0  0  2  0  0  0  0  0  0  0  0  0
  -19.1665  -39.1070   -7.8227 C   0  0  0  0  0  0  0  0  0  0  0  0
  -20.0754  -38.7018   -6.7602 C   0  0  2  0  0  0  0  0  0  0  0  0
  -19.4943  -38.3197   -5.4325 C   0  0  0  0  0  0  0  0  0  0  0  0
  -21.3084  -39.5238   -6.5107 C   0  0  0  0  0  0  0  0  0  0  0  0
  -22.1738  -39.4988   -7.7460 C   0  0  0  0  0  0  0  0  0  0  0  0
  -22.4179  -40.8478   -8.3560 C   0  0  0  0  0  0  0  0  0  0  0  0
  -23.7317  -41.2748   -8.0464 C   0  0  0  0  0  0  0  0  0  0  0  0
  -24.2323  -42.4920   -8.4187 C   0  0  0  0  0  0  0  0  0  0  0  0
  -23.3687  -43.2869   -9.1212 C   0  0  0  0  0  0  0  0  0  0  0  0
  -22.0467  -42.9031   -9.4542 C   0  0  0  0  0  0  0  0  0  0  0  0
  -21.3632  -44.0168  -10.1683 C   0  0  0  0  0  0  0  0  0  0  0  0
  -20.1614  -44.9002   -9.2258 S   0  0  0  0  0  6  0  0  0  0  0  0
  -19.4420  -45.8062  -10.1869 O   0  0  0  0  0  0  0  0  0  0  0  0
  -20.8999  -45.7870   -8.2654 O   0  0  0  0  0  0  0  0  0  0  0  0
  -18.9655  -43.8914   -8.4282 C   0  0  0  0  0  0  0  0  0  0  0  0
  -19.2897  -43.4595   -7.0463 C   0  0  1  0  0  0  0  0  0  0  0  0
  -19.3568  -44.6757   -6.0924 C   0  0  0  0  0  0  0  0  0  0  0  0
  -18.3156  -42.4884   -6.5039 C   0  0  0  0  0  0  0  0  0  0  0  0
  -17.3353  -43.0316   -5.8490 O   0  0  0  0  0  0  0  0  0  0  0  0
  -18.2941  -41.0928   -6.5867 N   0  0  0  0  0  0  0  0  0  0  0  0
  -21.5656  -41.6645   -9.0676 C   0  0  0  0  0  0  0  0  0  0  0  0
  1  2  1  0
  2  3  1  0
  3  4  1  0
  4  5  1  0
  5  6  1  0
  6  7  2  0
  6  8  1  0
  8  9  1  6
  8 10  1  0
 10 11  1  0
 11 12  1  1
 11 13  1  0
 13 14  1  1
 14 15  1  0
 15 16  1  1
 15 17  1  0
 17 18  1  0
 18 19  1  0
 19 20  1  0
 20 21  2  0
 21 22  1  0
 22 23  2  0
 23 24  1  0
 24 25  1  0
 25 26  2  0
 25 27  2  0
 25 28  1  0
 28 29  1  0
 29 30  1  1
 29 31  1  0
 31 32  2  0
 31 33  1  0
 23 34  1  0
 33 13  1  0
 34 19  2  0
M  END
$$$$
