
     RDKit          3D

 34 35  0  0  0  0  0  0  0  0999 V2000
  -11.2452  -35.2575  -11.5789 C   0  0  0  0  0  0  0  0  0  0  0  0
  -12.6252  -35.8594  -11.7358 C   0  0  0  0  0  0  0  0  0  0  0  0
  -12.5623  -37.3638  -11.9120 C   0  0  0  0  0  0  0  0  0  0  0  0
  -13.9181  -37.9846  -11.9990 C   0  0  0  0  0  0  0  0  0  0  0  0
  -14.1678  -38.7523  -10.8040 N   0  0  0  0  0  0  0  0  0  0  0  0
  -15.1722  -39.7440  -10.6674 C   0  0  0  0  0  0  0  0  0  0  0  0
  -16.1837  -39.6083  -11.4125 O   0  0  0  0  0  0  0  0  0  0  0  0
  -15.1052  -40.8714   -9.7445 C   0  0  2  0  0  0  0  0  0  0  0  0
  -14.5437  -42.1451  -10.3378 C   0  0  0  0  0  0  0  0  0  0  0  0
  -16.3054  -41.1198   -8.8993 C   0  0  0  0  0  0  0  0  0  0  0  0
  -16.7330  -40.0248   -7.9951 C   0  0  2  0  0  0  0  0  0  0  0  0
  -16.0627  -39.8642   -6.8280 O   0  0  0  0  0  0  0  0  0  0  0  0
  -18.2719  -40.1371   -7.8226 C   0  0  2  0  0  0  0  0  0  0  0  0
  -18.9501  -38.9006   -8.2155 C   0  0  0  0  0  0  0  0  0  0  0  0
  -19.7661  -38.0967   -7.3171 C   0  0  2  0  0  0  0  0  0  0  0  0
  -19.1426  -37.5852   -6.0538 C   0  0  0  0  0  0  0  0  0  0  0  0
  -21.1589  -38.5601   -6.9957 C   0  0  0  0  0  0  0  0  0  0  0  0
  -21.9686  -38.6021   -8.2677 C   0  0  0  0  0  0  0  0  0  0  0  0
  -22.4998  -39.9614   -8.6166 C   0  0  0  0  0  0  0  0  0  0  0  0
  -23.8828  -40.0181   -8.3192 C   0  0  0  0  0  0  0  0  0  0  0  0
  -24.6390  -41.1466   -8.4789 C   0  0  0  0  0  0  0  0  0  0  0  0
  -23.9636  -42.2381   -8.9517 C   0  0  0  0  0  0  0  0  0  0  0  0
  -22.5820  -42.2293   -9.2630 C   0  0  0  0  0  0  0  0  0  0  0  0
  -22.1544  -43.5880   -9.6970 C   0  0  0  0  0  0  0  0  0  0  0  0
  -21.2061  -44.4987   -8.5203 S   0  0  0  0  0  6  0  0  0  0  0  0
  -20.6907  -45.7181   -9.2341 O   0  0  0  0  0  0  0  0  0  0  0  0
  -22.1478  -44.9852   -7.4571 O   0  0  0  0  0  0  0  0  0  0  0  0
  -19.8298  -43.6329   -7.8565 C   0  0  0  0  0  0  0  0  0  0  0  0
  -20.0775  -42.8653   -6.6114 C   0  0  1  0  0  0  0  0  0  0  0  0
  -20.4404  -43.8140   -5.4443 C   0  0  0  0  0  0  0  0  0  0  0  0
  -18.9201  -42.0397   -6.2050 C   0  0  0  0  0  0  0  0  0  0  0  0
  -18.1037  -42.6368   -5.3913 O   0  0  0  0  0  0  0  0  0  0  0  0
  -18.5798  -40.7304   -6.5580 N   0  0  0  0  0  0  0  0  0  0  0  0
  -21.8403  -41.0732   -9.0949 C   0  0  0  0  0  0  0  0  0  0  0  0
  1  2  1  0
  2  3  1  0
  3  4  1  0
  4  5  1  0
  5  6  1  0
  6  7  2  0
  6  8  1  0
  8  9  1  6
  8 10  1  0
 10 11  1  0
 11 12  1  1
 11 13  1  0
 13 14  1  1
 14 15  1  0
 15 16  1  1
 15 17  1  0
 17 18  1  0
 18 19  1  0
 19 20  1  0
 20 21  2  0
 21 22  1  0
 22 23  2  0
 23 24  1  0
 24 25  1  0
 25 26  2  0
 25 27  2  0
 25 28  1  0
 28 29  1  0
 29 30  1  1
 29 31  1  0
 31 32  2  0
 31 33  1  0
 23 34  1  0
 33 13  1  0
 34 19  2  0
M  END
$$$$
