
     RDKit          3D

 34 35  0  0  0  0  0  0  0  0999 V2000
   -9.8972  -37.3945  -13.0050 C   0  0  0  0  0  0  0  0  0  0  0  0
  -11.1522  -37.5505  -13.8370 C   0  0  0  0  0  0  0  0  0  0  0  0
  -12.3358  -36.8491  -13.2003 C   0  0  0  0  0  0  0  0  0  0  0  0
  -12.6394  -37.3700  -11.8337 C   0  0  0  0  0  0  0  0  0  0  0  0
  -13.9604  -37.9484  -11.8272 N   0  0  0  0  0  0  0  0  0  0  0  0
  -14.3077  -39.1805  -11.2171 C   0  0  0  0  0  0  0  0  0  0  0  0
  -14.3079  -40.1897  -11.9775 O   0  0  0  0  0  0  0  0  0  0  0  0
  -14.6550  -39.3408   -9.8096 C   0  0  2  0  0  0  0  0  0  0  0  0
  -13.7043  -40.2105   -9.0162 C   0  0  0  0  0  0  0  0  0  0  0  0
  -16.0820  -39.6292   -9.4985 C   0  0  0  0  0  0  0  0  0  0  0  0
  -16.5347  -39.3768   -8.1090 C   0  0  2  0  0  0  0  0  0  0  0  0
  -15.7561  -39.8252   -7.0942 O   0  0  0  0  0  0  0  0  0  0  0  0
  -18.0153  -39.8339   -8.0110 C   0  0  2  0  0  0  0  0  0  0  0  0
  -18.9376  -38.7033   -8.1297 C   0  0  0  0  0  0  0  0  0  0  0  0
  -19.8826  -38.3090   -7.0950 C   0  0  2  0  0  0  0  0  0  0  0  0
  -19.3522  -37.9867   -5.7308 C   0  0  0  0  0  0  0  0  0  0  0  0
  -21.1461  -39.1052   -6.9282 C   0  0  0  0  0  0  0  0  0  0  0  0
  -21.9543  -39.0163   -8.1988 C   0  0  0  0  0  0  0  0  0  0  0  0
  -22.2051  -40.3373   -8.8645 C   0  0  0  0  0  0  0  0  0  0  0  0
  -23.5419  -40.7388   -8.6277 C   0  0  0  0  0  0  0  0  0  0  0  0
  -24.0562  -41.9291   -9.0631 C   0  0  0  0  0  0  0  0  0  0  0  0
  -23.1824  -42.7233   -9.7536 C   0  0  0  0  0  0  0  0  0  0  0  0
  -21.8374  -42.3646  -10.0149 C   0  0  0  0  0  0  0  0  0  0  0  0
  -21.1512  -43.4721  -10.7358 C   0  0  0  0  0  0  0  0  0  0  0  0
  -20.0158  -44.4182   -9.7721 S   0  0  0  0  0  6  0  0  0  0  0  0
  -19.2773  -45.3111  -10.7309 O   0  0  0  0  0  0  0  0  0  0  0  0
  -20.8189  -45.3159   -8.8759 O   0  0  0  0  0  0  0  0  0  0  0  0
  -18.8316  -43.4688   -8.8886 C   0  0  0  0  0  0  0  0  0  0  0  0
  -19.2063  -43.0741   -7.5085 C   0  0  1  0  0  0  0  0  0  0  0  0
  -19.3470  -44.3188   -6.6004 C   0  0  0  0  0  0  0  0  0  0  0  0
  -18.2331  -42.1480   -6.8909 C   0  0  0  0  0  0  0  0  0  0  0  0
  -17.2973  -42.7387   -6.2125 O   0  0  0  0  0  0  0  0  0  0  0  0
  -18.1724  -40.7516   -6.9250 N   0  0  0  0  0  0  0  0  0  0  0  0
  -21.3428  -41.1528   -9.5655 C   0  0  0  0  0  0  0  0  0  0  0  0
  1  2  1  0
  2  3  1  0
  3  4  1  0
  4  5  1  0
  5  6  1  0
  6  7  2  0
  6  8  1  0
  8  9  1  6
  8 10  1  0
 10 11  1  0
 11 12  1  1
 11 13  1  0
 13 14  1  1
 14 15  1  0
 15 16  1  1
 15 17  1  0
 17 18  1  0
 18 19  1  0
 19 20  1  0
 20 21  2  0
 21 22  1  0
 22 23  2  0
 23 24  1  0
 24 25  1  0
 25 26  2  0
 25 27  2  0
 25 28  1  0
 28 29  1  0
 29 30  1  1
 29 31  1  0
 31 32  2  0
 31 33  1  0
 23 34  1  0
 33 13  1  0
 34 19  2  0
M  END
$$$$
