
     RDKit          3D

 34 35  0  0  0  0  0  0  0  0999 V2000
  -10.5082  -36.9810  -13.4425 C   0  0  0  0  0  0  0  0  0  0  0  0
  -11.4333  -36.8646  -12.2500 C   0  0  0  0  0  0  0  0  0  0  0  0
  -12.8875  -36.8057  -12.6741 C   0  0  0  0  0  0  0  0  0  0  0  0
  -13.8135  -36.6413  -11.5136 C   0  0  0  0  0  0  0  0  0  0  0  0
  -13.8834  -37.8814  -10.7809 N   0  0  0  0  0  0  0  0  0  0  0  0
  -14.6227  -39.0236  -11.1805 C   0  0  0  0  0  0  0  0  0  0  0  0
  -15.3039  -38.8956  -12.2370 O   0  0  0  0  0  0  0  0  0  0  0  0
  -14.6413  -40.2930  -10.4625 C   0  0  2  0  0  0  0  0  0  0  0  0
  -14.1708  -41.4847  -11.2676 C   0  0  0  0  0  0  0  0  0  0  0  0
  -15.8598  -40.5942   -9.6619 C   0  0  0  0  0  0  0  0  0  0  0  0
  -16.3732  -39.5164   -8.7821 C   0  0  2  0  0  0  0  0  0  0  0  0
  -15.6480  -39.1906   -7.6844 O   0  0  0  0  0  0  0  0  0  0  0  0
  -17.8622  -39.8336   -8.4769 C   0  0  2  0  0  0  0  0  0  0  0  0
  -18.6727  -38.6157   -8.4218 C   0  0  0  0  0  0  0  0  0  0  0  0
  -19.4113  -38.1796   -7.2456 C   0  0  2  0  0  0  0  0  0  0  0  0
  -18.6571  -37.9711   -5.9673 C   0  0  0  0  0  0  0  0  0  0  0  0
  -20.7109  -38.8580   -6.9153 C   0  0  0  0  0  0  0  0  0  0  0  0
  -21.6830  -38.6351   -8.0470 C   0  0  0  0  0  0  0  0  0  0  0  0
  -22.1610  -39.8949   -8.7072 C   0  0  0  0  0  0  0  0  0  0  0  0
  -23.4825  -40.1768   -8.2848 C   0  0  0  0  0  0  0  0  0  0  0  0
  -24.1728  -41.2917   -8.6737 C   0  0  0  0  0  0  0  0  0  0  0  0
  -23.4945  -42.1341   -9.5112 C   0  0  0  0  0  0  0  0  0  0  0  0
  -22.1729  -41.8943   -9.9603 C   0  0  0  0  0  0  0  0  0  0  0  0
  -21.7153  -43.0290  -10.8091 C   0  0  0  0  0  0  0  0  0  0  0  0
  -20.5528  -44.1217  -10.0556 S   0  0  0  0  0  6  0  0  0  0  0  0
  -20.0568  -45.0372  -11.1409 O   0  0  0  0  0  0  0  0  0  0  0  0
  -21.3030  -44.9777   -9.0765 O   0  0  0  0  0  0  0  0  0  0  0  0
  -19.1621  -43.3306   -9.3315 C   0  0  0  0  0  0  0  0  0  0  0  0
  -19.2890  -42.9643   -7.8995 C   0  0  1  0  0  0  0  0  0  0  0  0
  -19.4208  -44.2293   -7.0186 C   0  0  0  0  0  0  0  0  0  0  0  0
  -18.1472  -42.1642   -7.4073 C   0  0  0  0  0  0  0  0  0  0  0  0
  -17.1869  -42.8716   -6.8949 O   0  0  0  0  0  0  0  0  0  0  0  0
  -17.9509  -40.7799   -7.4079 N   0  0  0  0  0  0  0  0  0  0  0  0
  -21.4977  -40.7568   -9.5538 C   0  0  0  0  0  0  0  0  0  0  0  0
  1  2  1  0
  2  3  1  0
  3  4  1  0
  4  5  1  0
  5  6  1  0
  6  7  2  0
  6  8  1  0
  8  9  1  6
  8 10  1  0
 10 11  1  0
 11 12  1  1
 11 13  1  0
 13 14  1  1
 14 15  1  0
 15 16  1  1
 15 17  1  0
 17 18  1  0
 18 19  1  0
 19 20  1  0
 20 21  2  0
 21 22  1  0
 22 23  2  0
 23 24  1  0
 24 25  1  0
 25 26  2  0
 25 27  2  0
 25 28  1  0
 28 29  1  0
 29 30  1  1
 29 31  1  0
 31 32  2  0
 31 33  1  0
 23 34  1  0
 33 13  1  0
 34 19  2  0
M  END
$$$$
