
     RDKit          3D

 34 35  0  0  0  0  0  0  0  0999 V2000
  -10.4719  -35.7986  -12.0262 C   0  0  0  0  0  0  0  0  0  0  0  0
  -11.5042  -36.1006  -13.0913 C   0  0  0  0  0  0  0  0  0  0  0  0
  -12.1333  -37.4650  -12.8894 C   0  0  0  0  0  0  0  0  0  0  0  0
  -13.0443  -37.5031  -11.7062 C   0  0  0  0  0  0  0  0  0  0  0  0
  -13.8248  -38.7151  -11.7450 N   0  0  0  0  0  0  0  0  0  0  0  0
  -14.7878  -39.0958  -10.7762 C   0  0  0  0  0  0  0  0  0  0  0  0
  -14.7338  -38.4781   -9.6752 O   0  0  0  0  0  0  0  0  0  0  0  0
  -15.8004  -40.1269  -10.9731 C   0  0  2  0  0  0  0  0  0  0  0  0
  -16.1598  -40.3960  -12.4180 C   0  0  0  0  0  0  0  0  0  0  0  0
  -16.9986  -40.0687  -10.0914 C   0  0  0  0  0  0  0  0  0  0  0  0
  -16.7591  -40.0251   -8.6284 C   0  0  2  0  0  0  0  0  0  0  0  0
  -15.7809  -40.8131   -8.1194 O   0  0  0  0  0  0  0  0  0  0  0  0
  -18.1327  -40.2000   -7.9261 C   0  0  2  0  0  0  0  0  0  0  0  0
  -18.9630  -39.0016   -8.0593 C   0  0  0  0  0  0  0  0  0  0  0  0
  -19.4488  -38.2162   -6.9341 C   0  0  2  0  0  0  0  0  0  0  0  0
  -18.4465  -37.6542   -5.9718 C   0  0  0  0  0  0  0  0  0  0  0  0
  -20.6170  -38.7327   -6.1424 C   0  0  0  0  0  0  0  0  0  0  0  0
  -21.8185  -38.8340   -7.0489 C   0  0  0  0  0  0  0  0  0  0  0  0
  -22.3738  -40.2213   -7.1849 C   0  0  0  0  0  0  0  0  0  0  0  0
  -23.5603  -40.3315   -6.4204 C   0  0  0  0  0  0  0  0  0  0  0  0
  -24.2705  -41.4944   -6.3009 C   0  0  0  0  0  0  0  0  0  0  0  0
  -23.7535  -42.5648   -6.9776 C   0  0  0  0  0  0  0  0  0  0  0  0
  -22.5708  -42.5027   -7.7544 C   0  0  0  0  0  0  0  0  0  0  0  0
  -22.2593  -43.8499   -8.3068 C   0  0  0  0  0  0  0  0  0  0  0  0
  -20.9168  -44.6961   -7.5355 S   0  0  0  0  0  6  0  0  0  0  0  0
  -20.6279  -45.9058   -8.3812 O   0  0  0  0  0  0  0  0  0  0  0  0
  -21.4018  -45.2021   -6.2078 O   0  0  0  0  0  0  0  0  0  0  0  0
  -19.4375  -43.7595   -7.4001 C   0  0  0  0  0  0  0  0  0  0  0  0
  -19.2684  -42.9793   -6.1496 C   0  0  1  0  0  0  0  0  0  0  0  0
  -19.1540  -43.9199   -4.9266 C   0  0  0  0  0  0  0  0  0  0  0  0
  -18.0822  -42.0971   -6.1781 C   0  0  0  0  0  0  0  0  0  0  0  0
  -17.0052  -42.6428   -5.7013 O   0  0  0  0  0  0  0  0  0  0  0  0
  -17.9492  -40.7814   -6.6321 N   0  0  0  0  0  0  0  0  0  0  0  0
  -21.8725  -41.3128   -7.8610 C   0  0  0  0  0  0  0  0  0  0  0  0
  1  2  1  0
  2  3  1  0
  3  4  1  0
  4  5  1  0
  5  6  1  0
  6  7  2  0
  6  8  1  0
  8  9  1  6
  8 10  1  0
 10 11  1  0
 11 12  1  1
 11 13  1  0
 13 14  1  1
 14 15  1  0
 15 16  1  1
 15 17  1  0
 17 18  1  0
 18 19  1  0
 19 20  1  0
 20 21  2  0
 21 22  1  0
 22 23  2  0
 23 24  1  0
 24 25  1  0
 25 26  2  0
 25 27  2  0
 25 28  1  0
 28 29  1  0
 29 30  1  1
 29 31  1  0
 31 32  2  0
 31 33  1  0
 23 34  1  0
 33 13  1  0
 34 19  2  0
M  END
$$$$
