
     RDKit          3D

 34 35  0  0  0  0  0  0  0  0999 V2000
  -13.8584  -34.9191  -13.7302 C   0  0  0  0  0  0  0  0  0  0  0  0
  -14.6296  -35.4521  -12.5417 C   0  0  0  0  0  0  0  0  0  0  0  0
  -14.3678  -36.9290  -12.3221 C   0  0  0  0  0  0  0  0  0  0  0  0
  -13.6345  -37.1946  -11.0481 C   0  0  0  0  0  0  0  0  0  0  0  0
  -13.4339  -38.6151  -10.9014 N   0  0  0  0  0  0  0  0  0  0  0  0
  -14.4625  -39.5642  -10.6728 C   0  0  0  0  0  0  0  0  0  0  0  0
  -15.4403  -39.5184  -11.4718 O   0  0  0  0  0  0  0  0  0  0  0  0
  -14.4552  -40.5541   -9.6017 C   0  0  2  0  0  0  0  0  0  0  0  0
  -13.8520  -41.8903   -9.9762 C   0  0  0  0  0  0  0  0  0  0  0  0
  -15.7089  -40.6985   -8.8118 C   0  0  0  0  0  0  0  0  0  0  0  0
  -16.1731  -39.5086   -8.0582 C   0  0  2  0  0  0  0  0  0  0  0  0
  -15.4590  -39.1239   -6.9724 O   0  0  0  0  0  0  0  0  0  0  0  0
  -17.6882  -39.6978   -7.7759 C   0  0  2  0  0  0  0  0  0  0  0  0
  -18.4448  -38.4752   -8.0518 C   0  0  0  0  0  0  0  0  0  0  0  0
  -19.2205  -37.7530   -7.0539 C   0  0  2  0  0  0  0  0  0  0  0  0
  -18.5221  -37.2762   -5.8165 C   0  0  0  0  0  0  0  0  0  0  0  0
  -20.5641  -38.2933   -6.6525 C   0  0  0  0  0  0  0  0  0  0  0  0
  -21.4679  -38.3097   -7.8601 C   0  0  0  0  0  0  0  0  0  0  0  0
  -21.9686  -39.6728   -8.2378 C   0  0  0  0  0  0  0  0  0  0  0  0
  -23.3208  -39.8056   -7.8400 C   0  0  0  0  0  0  0  0  0  0  0  0
  -24.0404  -40.9577   -8.0003 C   0  0  0  0  0  0  0  0  0  0  0  0
  -23.3599  -41.9937   -8.5787 C   0  0  0  0  0  0  0  0  0  0  0  0
  -22.0082  -41.9081   -8.9927 C   0  0  0  0  0  0  0  0  0  0  0  0
  -21.5605  -43.2237   -9.5276 C   0  0  0  0  0  0  0  0  0  0  0  0
  -20.4872  -44.1471   -8.4747 S   0  0  0  0  0  6  0  0  0  0  0  0
  -19.9795  -45.3062   -9.2876 O   0  0  0  0  0  0  0  0  0  0  0  0
  -21.3227  -44.7262   -7.3699 O   0  0  0  0  0  0  0  0  0  0  0  0
  -19.0999  -43.2540   -7.8729 C   0  0  0  0  0  0  0  0  0  0  0  0
  -19.2812  -42.5594   -6.5745 C   0  0  1  0  0  0  0  0  0  0  0  0
  -19.5132  -43.5789   -5.4341 C   0  0  0  0  0  0  0  0  0  0  0  0
  -18.1304  -41.7037   -6.2146 C   0  0  0  0  0  0  0  0  0  0  0  0
  -17.2295  -42.3025   -5.4970 O   0  0  0  0  0  0  0  0  0  0  0  0
  -17.8723  -40.3649   -6.5241 N   0  0  0  0  0  0  0  0  0  0  0  0
  -21.3035  -40.7295   -8.8215 C   0  0  0  0  0  0  0  0  0  0  0  0
  1  2  1  0
  2  3  1  0
  3  4  1  0
  4  5  1  0
  5  6  1  0
  6  7  2  0
  6  8  1  0
  8  9  1  6
  8 10  1  0
 10 11  1  0
 11 12  1  1
 11 13  1  0
 13 14  1  1
 14 15  1  0
 15 16  1  1
 15 17  1  0
 17 18  1  0
 18 19  1  0
 19 20  1  0
 20 21  2  0
 21 22  1  0
 22 23  2  0
 23 24  1  0
 24 25  1  0
 25 26  2  0
 25 27  2  0
 25 28  1  0
 28 29  1  0
 29 30  1  1
 29 31  1  0
 31 32  2  0
 31 33  1  0
 23 34  1  0
 33 13  1  0
 34 19  2  0
M  END
$$$$
