
     RDKit          3D

 34 35  0  0  0  0  0  0  0  0999 V2000
  -12.9088  -35.1067  -12.2587 C   0  0  0  0  0  0  0  0  0  0  0  0
  -12.7391  -36.6013  -12.4285 C   0  0  0  0  0  0  0  0  0  0  0  0
  -12.6691  -37.3116  -11.0911 C   0  0  0  0  0  0  0  0  0  0  0  0
  -12.5430  -38.7926  -11.2383 C   0  0  0  0  0  0  0  0  0  0  0  0
  -13.6618  -39.2926  -11.9985 N   0  0  0  0  0  0  0  0  0  0  0  0
  -14.7036  -40.1024  -11.4789 C   0  0  0  0  0  0  0  0  0  0  0  0
  -15.6186  -40.4108  -12.2939 O   0  0  0  0  0  0  0  0  0  0  0  0
  -14.7755  -40.5801  -10.1027 C   0  0  2  0  0  0  0  0  0  0  0  0
  -13.9701  -41.8297   -9.8215 C   0  0  0  0  0  0  0  0  0  0  0  0
  -16.1252  -40.6215   -9.4758 C   0  0  0  0  0  0  0  0  0  0  0  0
  -16.4503  -39.5521   -8.5010 C   0  0  2  0  0  0  0  0  0  0  0  0
  -15.5804  -39.3299   -7.4857 O   0  0  0  0  0  0  0  0  0  0  0  0
  -17.9137  -39.7770   -8.0334 C   0  0  2  0  0  0  0  0  0  0  0  0
  -18.6975  -38.5424   -8.1025 C   0  0  0  0  0  0  0  0  0  0  0  0
  -19.3293  -37.9116   -6.9527 C   0  0  2  0  0  0  0  0  0  0  0  0
  -18.4687  -37.5323   -5.7857 C   0  0  0  0  0  0  0  0  0  0  0  0
  -20.6076  -38.4947   -6.4197 C   0  0  0  0  0  0  0  0  0  0  0  0
  -21.6665  -38.4194   -7.4914 C   0  0  0  0  0  0  0  0  0  0  0  0
  -22.2172  -39.7510   -7.9095 C   0  0  0  0  0  0  0  0  0  0  0  0
  -23.5035  -39.9278   -7.3452 C   0  0  0  0  0  0  0  0  0  0  0  0
  -24.2412  -41.0690   -7.5016 C   0  0  0  0  0  0  0  0  0  0  0  0
  -23.6478  -42.0480   -8.2504 C   0  0  0  0  0  0  0  0  0  0  0  0
  -22.3643  -41.9169   -8.8346 C   0  0  0  0  0  0  0  0  0  0  0  0
  -21.9965  -43.1800   -9.5320 C   0  0  0  0  0  0  0  0  0  0  0  0
  -20.7930  -44.1777   -8.7137 S   0  0  0  0  0  6  0  0  0  0  0  0
  -20.4030  -45.2614   -9.6809 O   0  0  0  0  0  0  0  0  0  0  0  0
  -21.4729  -44.8530   -7.5581 O   0  0  0  0  0  0  0  0  0  0  0  0
  -19.3348  -43.3252   -8.2330 C   0  0  0  0  0  0  0  0  0  0  0  0
  -19.3370  -42.7415   -6.8690 C   0  0  1  0  0  0  0  0  0  0  0  0
  -19.4153  -43.8534   -5.7960 C   0  0  0  0  0  0  0  0  0  0  0  0
  -18.1458  -41.9084   -6.5982 C   0  0  0  0  0  0  0  0  0  0  0  0
  -17.1577  -42.5564   -6.0608 O   0  0  0  0  0  0  0  0  0  0  0  0
  -17.9285  -40.5465   -6.8277 N   0  0  0  0  0  0  0  0  0  0  0  0
  -21.6399  -40.7503   -8.6631 C   0  0  0  0  0  0  0  0  0  0  0  0
  1  2  1  0
  2  3  1  0
  3  4  1  0
  4  5  1  0
  5  6  1  0
  6  7  2  0
  6  8  1  0
  8  9  1  6
  8 10  1  0
 10 11  1  0
 11 12  1  1
 11 13  1  0
 13 14  1  1
 14 15  1  0
 15 16  1  1
 15 17  1  0
 17 18  1  0
 18 19  1  0
 19 20  1  0
 20 21  2  0
 21 22  1  0
 22 23  2  0
 23 24  1  0
 24 25  1  0
 25 26  2  0
 25 27  2  0
 25 28  1  0
 28 29  1  0
 29 30  1  1
 29 31  1  0
 31 32  2  0
 31 33  1  0
 23 34  1  0
 33 13  1  0
 34 19  2  0
M  END
$$$$
