
     RDKit          3D

 39 41  0  0  0  0  0  0  0  0999 V2000
  -18.9613  -35.4296  -15.1157 C   0  0  0  0  0  0  0  0  0  0  0  0
  -17.9794  -35.9741  -14.1320 C   0  0  0  0  0  0  0  0  0  0  0  0
  -17.0493  -35.0514  -13.6607 O   0  0  0  0  0  0  0  0  0  0  0  0
  -16.0208  -35.3074  -12.7781 C   0  0  0  0  0  0  0  0  0  0  0  0
  -16.3286  -35.4080  -11.4180 C   0  0  0  0  0  0  0  0  0  0  0  0
  -15.3674  -35.6606  -10.4755 C   0  0  0  0  0  0  0  0  0  0  0  0
  -15.7894  -35.7519   -9.0397 C   0  0  0  0  0  0  0  0  0  0  0  0
  -16.7580  -36.7203   -8.7941 N   0  0  0  0  0  0  0  0  0  0  0  0
  -16.5763  -37.9055   -8.1213 C   0  0  0  0  0  0  0  0  0  0  0  0
  -16.6678  -39.2402   -8.6992 C   0  0  1  0  0  0  0  0  0  0  0  0
  -16.5452  -39.2794  -10.0902 O   0  0  0  0  0  0  0  0  0  0  0  0
  -16.1970  -40.4632   -7.9955 C   0  0  2  0  0  0  0  0  0  0  0  0
  -16.7286  -41.7071   -8.7099 C   0  0  0  0  0  0  0  0  0  0  0  0
  -15.7663  -42.8311   -8.6366 C   0  0  2  0  0  0  0  0  0  0  0  0
  -15.4782  -43.4689   -9.9975 C   0  0  0  0  0  0  0  0  0  0  0  0
  -16.2483  -43.9529   -7.7257 C   0  0  0  0  0  0  0  0  0  0  0  0
  -17.1263  -44.9465   -8.4265 C   0  0  0  0  0  0  0  0  0  0  0  0
  -18.3899  -44.9044   -7.8590 O   0  0  0  0  0  0  0  0  0  0  0  0
  -18.9186  -46.1257   -7.5290 C   0  0  0  0  0  0  0  0  0  0  0  0
  -19.8037  -46.0596   -6.2952 C   0  0  0  0  0  0  0  0  0  0  0  0
  -21.2388  -45.7500   -6.6102 C   0  0  0  0  0  0  0  0  0  0  0  0
  -21.8130  -44.6283   -5.7808 C   0  0  0  0  0  0  0  0  0  0  0  0
  -21.8444  -43.4027   -6.5506 N   0  0  0  0  0  0  0  0  0  0  0  0
  -21.0611  -42.2140   -6.4605 C   0  0  0  0  0  0  0  0  0  0  0  0
  -19.7149  -42.0100   -6.2690 C   0  0  0  0  0  0  0  0  0  0  0  0
  -19.2356  -40.7176   -6.2341 C   0  0  0  0  0  0  0  0  0  0  0  0
  -20.1343  -39.6352   -6.3942 C   0  0  0  0  0  0  0  0  0  0  0  0
  -21.4824  -39.7933   -6.5880 C   0  0  0  0  0  0  0  0  0  0  0  0
  -21.9139  -41.0868   -6.6169 C   0  0  0  0  0  0  0  0  0  0  0  0
  -17.8719  -40.1940   -6.0400 C   0  0  0  0  0  0  0  0  0  0  0  0
  -17.7465  -39.1974   -5.1562 O   0  0  0  0  0  0  0  0  0  0  0  0
  -16.6250  -40.5190   -6.5975 N   0  0  0  0  0  0  0  0  0  0  0  0
  -14.0572  -35.8224  -10.8620 C   0  0  0  0  0  0  0  0  0  0  0  0
  -13.7551  -35.7231  -12.2003 C   0  0  0  0  0  0  0  0  0  0  0  0
  -14.7194  -35.4686  -13.1558 C   0  0  0  0  0  0  0  0  0  0  0  0
  -12.3532  -35.8865  -12.6868 C   0  0  0  0  0  0  0  0  0  0  0  0
  -12.2529  -36.7177  -13.7600 F   0  0  0  0  0  0  0  0  0  0  0  0
  -11.8958  -34.6165  -12.9895 F   0  0  0  0  0  0  0  0  0  0  0  0
  -11.5910  -36.3451  -11.6120 F   0  0  0  0  0  0  0  0  0  0  0  0
  1  2  1  0
  2  3  1  0
  3  4  1  0
  4  5  2  0
  5  6  1  0
  6  7  1  0
  7  8  1  0
  8  9  1  0
  9 10  1  0
 10 11  1  6
 10 12  1  0
 12 13  1  6
 13 14  1  0
 14 15  1  6
 14 16  1  0
 16 17  1  0
 17 18  1  0
 18 19  1  0
 19 20  1  0
 20 21  1  0
 21 22  1  0
 22 23  1  0
 23 24  1  0
 24 25  2  0
 25 26  1  0
 26 27  2  0
 27 28  1  0
 28 29  2  0
 26 30  1  0
 30 31  2  0
 30 32  1  0
  6 33  2  0
 33 34  1  0
 34 35  2  0
 34 36  1  0
 36 37  1  0
 36 38  1  0
 36 39  1  0
 29 24  1  0
 32 12  1  0
 35  4  1  0
M  END
$$$$
