
     RDKit          3D

 39 41  0  0  0  0  0  0  0  0999 V2000
  -21.8223  -45.4467   -7.8888 C   0  0  0  0  0  0  0  0  0  0  0  0
  -21.2382  -44.0975   -8.1473 C   0  0  0  0  0  0  0  0  0  0  0  0
  -22.0305  -43.0280   -7.7385 O   0  0  0  0  0  0  0  0  0  0  0  0
  -21.6645  -41.6983   -7.7279 C   0  0  0  0  0  0  0  0  0  0  0  0
  -20.5220  -41.3344   -7.0089 C   0  0  0  0  0  0  0  0  0  0  0  0
  -20.0890  -40.0365   -6.9471 C   0  0  0  0  0  0  0  0  0  0  0  0
  -18.8531  -39.7388   -6.1521 C   0  0  0  0  0  0  0  0  0  0  0  0
  -17.7459  -40.4966   -6.5207 N   0  0  0  0  0  0  0  0  0  0  0  0
  -16.4311  -40.0969   -6.4773 C   0  0  0  0  0  0  0  0  0  0  0  0
  -15.7124  -39.4025   -7.5381 C   0  0  1  0  0  0  0  0  0  0  0  0
  -15.1834  -38.1644   -7.1656 O   0  0  0  0  0  0  0  0  0  0  0  0
  -14.9540  -40.1114   -8.6033 C   0  0  2  0  0  0  0  0  0  0  0  0
  -13.7068  -39.3062   -8.9724 C   0  0  0  0  0  0  0  0  0  0  0  0
  -12.5774  -40.1900   -9.3442 C   0  0  2  0  0  0  0  0  0  0  0  0
  -11.2806  -39.8566   -8.6032 C   0  0  0  0  0  0  0  0  0  0  0  0
  -12.2545  -40.1290  -10.8317 C   0  0  0  0  0  0  0  0  0  0  0  0
  -11.3083  -39.0205  -11.1855 C   0  0  0  0  0  0  0  0  0  0  0  0
  -11.9615  -38.1235  -12.0157 O   0  0  0  0  0  0  0  0  0  0  0  0
  -11.2701  -37.7695  -13.1456 C   0  0  0  0  0  0  0  0  0  0  0  0
  -12.1884  -37.5007  -14.3264 C   0  0  0  0  0  0  0  0  0  0  0  0
  -12.6498  -36.0741  -14.4066 C   0  0  0  0  0  0  0  0  0  0  0  0
  -14.1422  -35.9282  -14.5726 C   0  0  0  0  0  0  0  0  0  0  0  0
  -14.7552  -35.5876  -13.3061 N   0  0  0  0  0  0  0  0  0  0  0  0
  -15.5707  -36.3514  -12.4194 C   0  0  0  0  0  0  0  0  0  0  0  0
  -15.4882  -37.6524  -11.9821 C   0  0  0  0  0  0  0  0  0  0  0  0
  -16.4386  -38.1194  -11.0990 C   0  0  0  0  0  0  0  0  0  0  0  0
  -17.4728  -37.2553  -10.6648 C   0  0  0  0  0  0  0  0  0  0  0  0
  -17.5920  -35.9523  -11.0746 C   0  0  0  0  0  0  0  0  0  0  0  0
  -16.6315  -35.5309  -11.9465 C   0  0  0  0  0  0  0  0  0  0  0  0
  -16.6142  -39.4421  -10.4734 C   0  0  0  0  0  0  0  0  0  0  0  0
  -17.8515  -39.9495  -10.5119 O   0  0  0  0  0  0  0  0  0  0  0  0
  -15.7392  -40.3241   -9.8193 N   0  0  0  0  0  0  0  0  0  0  0  0
  -20.7870  -39.0511   -7.6059 C   0  0  0  0  0  0  0  0  0  0  0  0
  -21.9110  -39.4099   -8.3131 C   0  0  0  0  0  0  0  0  0  0  0  0
  -22.3531  -40.7166   -8.3794 C   0  0  0  0  0  0  0  0  0  0  0  0
  -22.7152  -38.3898   -9.0490 C   0  0  0  0  0  0  0  0  0  0  0  0
  -22.0761  -37.1948   -9.1762 F   0  0  0  0  0  0  0  0  0  0  0  0
  -23.0042  -38.9400  -10.2851 F   0  0  0  0  0  0  0  0  0  0  0  0
  -23.9287  -38.2515   -8.3746 F   0  0  0  0  0  0  0  0  0  0  0  0
  1  2  1  0
  2  3  1  0
  3  4  1  0
  4  5  2  0
  5  6  1  0
  6  7  1  0
  7  8  1  0
  8  9  1  0
  9 10  1  0
 10 11  1  1
 10 12  1  0
 12 13  1  6
 13 14  1  0
 14 15  1  1
 14 16  1  0
 16 17  1  0
 17 18  1  0
 18 19  1  0
 19 20  1  0
 20 21  1  0
 21 22  1  0
 22 23  1  0
 23 24  1  0
 24 25  2  0
 25 26  1  0
 26 27  2  0
 27 28  1  0
 28 29  2  0
 26 30  1  0
 30 31  2  0
 30 32  1  0
  6 33  2  0
 33 34  1  0
 34 35  2  0
 34 36  1  0
 36 37  1  0
 36 38  1  0
 36 39  1  0
 29 24  1  0
 32 12  1  0
 35  4  1  0
M  END
$$$$
