
     RDKit          3D

 39 41  0  0  0  0  0  0  0  0999 V2000
  -23.7827  -42.2273   -2.3169 C   0  0  0  0  0  0  0  0  0  0  0  0
  -22.8689  -41.7733   -3.4065 C   0  0  0  0  0  0  0  0  0  0  0  0
  -23.4469  -40.9111   -4.3345 O   0  0  0  0  0  0  0  0  0  0  0  0
  -22.8408  -40.4032   -5.4645 C   0  0  0  0  0  0  0  0  0  0  0  0
  -21.6066  -40.9367   -5.8475 C   0  0  0  0  0  0  0  0  0  0  0  0
  -20.9378  -40.4899   -6.9561 C   0  0  0  0  0  0  0  0  0  0  0  0
  -19.6195  -41.1207   -7.2907 C   0  0  0  0  0  0  0  0  0  0  0  0
  -18.5159  -40.3751   -6.8878 N   0  0  0  0  0  0  0  0  0  0  0  0
  -17.8747  -39.4037   -7.6197 C   0  0  0  0  0  0  0  0  0  0  0  0
  -16.4794  -39.0073   -7.4785 C   0  0  1  0  0  0  0  0  0  0  0  0
  -16.2787  -37.8534   -6.7171 O   0  0  0  0  0  0  0  0  0  0  0  0
  -15.3582  -39.9840   -7.4408 C   0  0  2  0  0  0  0  0  0  0  0  0
  -14.1491  -39.4113   -8.1825 C   0  0  0  0  0  0  0  0  0  0  0  0
  -12.8744  -39.8483   -7.5668 C   0  0  2  0  0  0  0  0  0  0  0  0
  -11.9139  -38.6916   -7.2817 C   0  0  0  0  0  0  0  0  0  0  0  0
  -12.1139  -40.8377   -8.4404 C   0  0  0  0  0  0  0  0  0  0  0  0
  -11.2256  -40.1730   -9.4495 C   0  0  0  0  0  0  0  0  0  0  0  0
  -11.6786  -40.4892  -10.7205 O   0  0  0  0  0  0  0  0  0  0  0  0
  -10.7114  -40.9247  -11.5894 C   0  0  0  0  0  0  0  0  0  0  0  0
  -11.2406  -41.9500  -12.5787 C   0  0  0  0  0  0  0  0  0  0  0  0
  -11.8003  -41.3345  -13.8287 C   0  0  0  0  0  0  0  0  0  0  0  0
  -13.1741  -41.8418  -14.1913 C   0  0  0  0  0  0  0  0  0  0  0  0
  -14.1820  -40.8792  -13.7997 N   0  0  0  0  0  0  0  0  0  0  0  0
  -15.1481  -40.9018  -12.7506 C   0  0  0  0  0  0  0  0  0  0  0  0
  -15.0704  -41.2932  -11.4347 C   0  0  0  0  0  0  0  0  0  0  0  0
  -16.1938  -41.1900  -10.6420 C   0  0  0  0  0  0  0  0  0  0  0  0
  -17.3959  -40.6875  -11.1964 C   0  0  0  0  0  0  0  0  0  0  0  0
  -17.5171  -40.2857  -12.5017 C   0  0  0  0  0  0  0  0  0  0  0  0
  -16.3828  -40.4034  -13.2499 C   0  0  0  0  0  0  0  0  0  0  0  0
  -16.4161  -41.5319   -9.2258 C   0  0  0  0  0  0  0  0  0  0  0  0
  -17.5203  -42.2387   -8.9594 O   0  0  0  0  0  0  0  0  0  0  0  0
  -15.7004  -41.2711   -8.0464 N   0  0  0  0  0  0  0  0  0  0  0  0
  -21.4829  -39.4881   -7.7253 C   0  0  0  0  0  0  0  0  0  0  0  0
  -22.6972  -38.9636   -7.3480 C   0  0  0  0  0  0  0  0  0  0  0  0
  -23.3767  -39.4096   -6.2313 C   0  0  0  0  0  0  0  0  0  0  0  0
  -23.3434  -37.8736   -8.1374 C   0  0  0  0  0  0  0  0  0  0  0  0
  -22.9973  -36.6278   -7.7122 F   0  0  0  0  0  0  0  0  0  0  0  0
  -22.9740  -38.0762   -9.4552 F   0  0  0  0  0  0  0  0  0  0  0  0
  -24.7226  -38.0724   -8.0692 F   0  0  0  0  0  0  0  0  0  0  0  0
  1  2  1  0
  2  3  1  0
  3  4  1  0
  4  5  2  0
  5  6  1  0
  6  7  1  0
  7  8  1  0
  8  9  1  0
  9 10  1  0
 10 11  1  1
 10 12  1  0
 12 13  1  6
 13 14  1  0
 14 15  1  6
 14 16  1  0
 16 17  1  0
 17 18  1  0
 18 19  1  0
 19 20  1  0
 20 21  1  0
 21 22  1  0
 22 23  1  0
 23 24  1  0
 24 25  2  0
 25 26  1  0
 26 27  2  0
 27 28  1  0
 28 29  2  0
 26 30  1  0
 30 31  2  0
 30 32  1  0
  6 33  2  0
 33 34  1  0
 34 35  2  0
 34 36  1  0
 36 37  1  0
 36 38  1  0
 36 39  1  0
 29 24  1  0
 32 12  1  0
 35  4  1  0
M  END
$$$$
