
     RDKit          3D

 39 41  0  0  0  0  0  0  0  0999 V2000
  -23.6765  -41.6312   -3.6165 C   0  0  0  0  0  0  0  0  0  0  0  0
  -22.7123  -40.8962   -4.4875 C   0  0  0  0  0  0  0  0  0  0  0  0
  -22.7607  -41.2408   -5.8357 O   0  0  0  0  0  0  0  0  0  0  0  0
  -22.1841  -40.5443   -6.8772 C   0  0  0  0  0  0  0  0  0  0  0  0
  -21.0901  -39.7209   -6.5945 C   0  0  0  0  0  0  0  0  0  0  0  0
  -20.4592  -38.9956   -7.5702 C   0  0  0  0  0  0  0  0  0  0  0  0
  -19.2937  -38.1393   -7.1749 C   0  0  0  0  0  0  0  0  0  0  0  0
  -18.4332  -38.7401   -6.2612 N   0  0  0  0  0  0  0  0  0  0  0  0
  -17.1234  -39.0943   -6.4833 C   0  0  0  0  0  0  0  0  0  0  0  0
  -16.3591  -38.8293   -7.6956 C   0  0  1  0  0  0  0  0  0  0  0  0
  -16.6657  -37.6185   -8.3211 O   0  0  0  0  0  0  0  0  0  0  0  0
  -14.9614  -39.2983   -7.8924 C   0  0  2  0  0  0  0  0  0  0  0  0
  -14.4573  -38.8570   -9.2676 C   0  0  0  0  0  0  0  0  0  0  0  0
  -13.0076  -38.5527   -9.2452 C   0  0  2  0  0  0  0  0  0  0  0  0
  -12.6669  -37.1915   -9.8559 C   0  0  0  0  0  0  0  0  0  0  0  0
  -12.1830  -39.5859  -10.0023 C   0  0  0  0  0  0  0  0  0  0  0  0
  -12.0700  -39.2917  -11.4686 C   0  0  0  0  0  0  0  0  0  0  0  0
  -12.6881  -40.3096  -12.1773 O   0  0  0  0  0  0  0  0  0  0  0  0
  -11.9507  -40.8275  -13.2109 C   0  0  0  0  0  0  0  0  0  0  0  0
  -12.2127  -42.3094  -13.4238 C   0  0  0  0  0  0  0  0  0  0  0  0
  -13.3496  -42.5816  -14.3662 C   0  0  0  0  0  0  0  0  0  0  0  0
  -14.3606  -43.5636  -13.8285 C   0  0  0  0  0  0  0  0  0  0  0  0
  -15.5258  -42.8612  -13.3337 N   0  0  0  0  0  0  0  0  0  0  0  0
  -15.9920  -42.6299  -12.0056 C   0  0  0  0  0  0  0  0  0  0  0  0
  -15.3390  -42.2762  -10.8484 C   0  0  0  0  0  0  0  0  0  0  0  0
  -16.0733  -42.1130   -9.6929 C   0  0  0  0  0  0  0  0  0  0  0  0
  -17.4748  -42.3127   -9.7222 C   0  0  0  0  0  0  0  0  0  0  0  0
  -18.1655  -42.6647  -10.8530 C   0  0  0  0  0  0  0  0  0  0  0  0
  -17.4016  -42.8148  -11.9730 C   0  0  0  0  0  0  0  0  0  0  0  0
  -15.6610  -41.7529   -8.3246 C   0  0  0  0  0  0  0  0  0  0  0  0
  -16.1618  -42.5110   -7.3426 O   0  0  0  0  0  0  0  0  0  0  0  0
  -14.8277  -40.7523   -7.7997 N   0  0  0  0  0  0  0  0  0  0  0  0
  -20.9025  -39.0686   -8.8703 C   0  0  0  0  0  0  0  0  0  0  0  0
  -21.9790  -39.8788   -9.1478 C   0  0  0  0  0  0  0  0  0  0  0  0
  -22.6197  -40.6127   -8.1688 C   0  0  0  0  0  0  0  0  0  0  0  0
  -22.5114  -40.0021  -10.5371 C   0  0  0  0  0  0  0  0  0  0  0  0
  -22.7952  -41.2859  -10.8892 F   0  0  0  0  0  0  0  0  0  0  0  0
  -23.6398  -39.2037  -10.5936 F   0  0  0  0  0  0  0  0  0  0  0  0
  -21.5700  -39.4328  -11.3950 F   0  0  0  0  0  0  0  0  0  0  0  0
  1  2  1  0
  2  3  1  0
  3  4  1  0
  4  5  2  0
  5  6  1  0
  6  7  1  0
  7  8  1  0
  8  9  1  0
  9 10  1  0
 10 11  1  1
 10 12  1  0
 12 13  1  6
 13 14  1  0
 14 15  1  6
 14 16  1  0
 16 17  1  0
 17 18  1  0
 18 19  1  0
 19 20  1  0
 20 21  1  0
 21 22  1  0
 22 23  1  0
 23 24  1  0
 24 25  2  0
 25 26  1  0
 26 27  2  0
 27 28  1  0
 28 29  2  0
 26 30  1  0
 30 31  2  0
 30 32  1  0
  6 33  2  0
 33 34  1  0
 34 35  2  0
 34 36  1  0
 36 37  1  0
 36 38  1  0
 36 39  1  0
 29 24  1  0
 32 12  1  0
 35  4  1  0
M  END
$$$$
