
     RDKit          3D

 39 41  0  0  0  0  0  0  0  0999 V2000
  -25.8172  -41.9740   -9.0143 C   0  0  0  0  0  0  0  0  0  0  0  0
  -24.5132  -41.4400   -8.5215 C   0  0  0  0  0  0  0  0  0  0  0  0
  -24.0846  -41.9697   -7.3072 O   0  0  0  0  0  0  0  0  0  0  0  0
  -22.9440  -41.6133   -6.6185 C   0  0  0  0  0  0  0  0  0  0  0  0
  -22.0949  -40.6641   -7.1951 C   0  0  0  0  0  0  0  0  0  0  0  0
  -20.9429  -40.2542   -6.5780 C   0  0  0  0  0  0  0  0  0  0  0  0
  -20.0931  -39.2314   -7.2707 C   0  0  0  0  0  0  0  0  0  0  0  0
  -18.7397  -39.5524   -7.3109 N   0  0  0  0  0  0  0  0  0  0  0  0
  -17.7084  -38.8119   -6.7833 C   0  0  0  0  0  0  0  0  0  0  0  0
  -16.3788  -38.6632   -7.3614 C   0  0  1  0  0  0  0  0  0  0  0  0
  -15.5525  -37.7589   -6.6898 O   0  0  0  0  0  0  0  0  0  0  0  0
  -15.6639  -39.7721   -8.0481 C   0  0  2  0  0  0  0  0  0  0  0  0
  -14.1987  -39.3879   -8.2620 C   0  0  0  0  0  0  0  0  0  0  0  0
  -13.3063  -40.5666   -8.1662 C   0  0  2  0  0  0  0  0  0  0  0  0
  -12.1236  -40.3530   -7.2188 C   0  0  0  0  0  0  0  0  0  0  0  0
  -12.7162  -40.9622   -9.5137 C   0  0  0  0  0  0  0  0  0  0  0  0
  -11.4552  -40.2216   -9.8464 C   0  0  0  0  0  0  0  0  0  0  0  0
  -11.6772  -39.4447  -10.9723 O   0  0  0  0  0  0  0  0  0  0  0  0
  -10.7232  -39.5555  -11.9509 C   0  0  0  0  0  0  0  0  0  0  0  0
  -11.3044  -39.4000  -13.3466 C   0  0  0  0  0  0  0  0  0  0  0  0
  -11.3356  -37.9758  -13.8211 C   0  0  0  0  0  0  0  0  0  0  0  0
  -12.6758  -37.5478  -14.3659 C   0  0  0  0  0  0  0  0  0  0  0  0
  -13.3903  -36.7662  -13.3788 N   0  0  0  0  0  0  0  0  0  0  0  0
  -14.5297  -37.0753  -12.5782 C   0  0  0  0  0  0  0  0  0  0  0  0
  -14.8865  -38.2054  -11.8808 C   0  0  0  0  0  0  0  0  0  0  0  0
  -16.0714  -38.2062  -11.1758 C   0  0  0  0  0  0  0  0  0  0  0  0
  -16.8906  -37.0513  -11.1857 C   0  0  0  0  0  0  0  0  0  0  0  0
  -16.5729  -35.9042  -11.8661 C   0  0  0  0  0  0  0  0  0  0  0  0
  -15.3928  -35.9457  -12.5489 C   0  0  0  0  0  0  0  0  0  0  0  0
  -16.7120  -39.2508  -10.3571 C   0  0  0  0  0  0  0  0  0  0  0  0
  -18.0129  -39.4615  -10.5880 O   0  0  0  0  0  0  0  0  0  0  0  0
  -16.2445  -40.1082   -9.3483 N   0  0  0  0  0  0  0  0  0  0  0  0
  -20.5975  -40.7820   -5.3556 C   0  0  0  0  0  0  0  0  0  0  0  0
  -21.4334  -41.7160   -4.7889 C   0  0  0  0  0  0  0  0  0  0  0  0
  -22.5964  -42.1337   -5.4057 C   0  0  0  0  0  0  0  0  0  0  0  0
  -21.1167  -42.3295   -3.4652 C   0  0  0  0  0  0  0  0  0  0  0  0
  -20.4004  -43.4824   -3.5676 F   0  0  0  0  0  0  0  0  0  0  0  0
  -20.4259  -41.3700   -2.7469 F   0  0  0  0  0  0  0  0  0  0  0  0
  -22.3270  -42.5368   -2.8028 F   0  0  0  0  0  0  0  0  0  0  0  0
  1  2  1  0
  2  3  1  0
  3  4  1  0
  4  5  2  0
  5  6  1  0
  6  7  1  0
  7  8  1  0
  8  9  1  0
  9 10  1  0
 10 11  1  1
 10 12  1  0
 12 13  1  6
 13 14  1  0
 14 15  1  1
 14 16  1  0
 16 17  1  0
 17 18  1  0
 18 19  1  0
 19 20  1  0
 20 21  1  0
 21 22  1  0
 22 23  1  0
 23 24  1  0
 24 25  2  0
 25 26  1  0
 26 27  2  0
 27 28  1  0
 28 29  2  0
 26 30  1  0
 30 31  2  0
 30 32  1  0
  6 33  2  0
 33 34  1  0
 34 35  2  0
 34 36  1  0
 36 37  1  0
 36 38  1  0
 36 39  1  0
 29 24  1  0
 32 12  1  0
 35  4  1  0
M  END
$$$$
