
     RDKit          3D

 39 41  0  0  0  0  0  0  0  0999 V2000
  -18.4102  -36.0203  -15.2520 C   0  0  0  0  0  0  0  0  0  0  0  0
  -18.0503  -36.1945  -13.8138 C   0  0  0  0  0  0  0  0  0  0  0  0
  -19.1133  -36.5338  -12.9809 O   0  0  0  0  0  0  0  0  0  0  0  0
  -19.0532  -36.7197  -11.6156 C   0  0  0  0  0  0  0  0  0  0  0  0
  -17.8046  -36.9687  -11.0381 C   0  0  0  0  0  0  0  0  0  0  0  0
  -17.6566  -37.1640   -9.6905 C   0  0  0  0  0  0  0  0  0  0  0  0
  -16.2791  -37.4249   -9.1592 C   0  0  0  0  0  0  0  0  0  0  0  0
  -16.2426  -38.3193   -8.0939 N   0  0  0  0  0  0  0  0  0  0  0  0
  -16.1763  -39.6900   -8.1797 C   0  0  0  0  0  0  0  0  0  0  0  0
  -16.9560  -40.6353   -7.3908 C   0  0  1  0  0  0  0  0  0  0  0  0
  -16.4821  -40.8363   -6.0922 O   0  0  0  0  0  0  0  0  0  0  0  0
  -18.4237  -40.8130   -7.5551 C   0  0  2  0  0  0  0  0  0  0  0  0
  -18.9396  -41.8237   -6.5293 C   0  0  0  0  0  0  0  0  0  0  0  0
  -20.3109  -41.4909   -6.0780 C   0  0  2  0  0  0  0  0  0  0  0  0
  -20.4557  -41.4662   -4.5547 C   0  0  0  0  0  0  0  0  0  0  0  0
  -21.3506  -42.4763   -6.5962 C   0  0  0  0  0  0  0  0  0  0  0  0
  -21.5138  -43.6797   -5.7161 C   0  0  0  0  0  0  0  0  0  0  0  0
  -21.1297  -44.8069   -6.4250 O   0  0  0  0  0  0  0  0  0  0  0  0
  -22.0150  -45.8528   -6.3757 C   0  0  0  0  0  0  0  0  0  0  0  0
  -22.0255  -46.6639   -7.6609 C   0  0  0  0  0  0  0  0  0  0  0  0
  -21.0205  -47.7794   -7.6669 C   0  0  0  0  0  0  0  0  0  0  0  0
  -20.1571  -47.8107   -8.9036 C   0  0  0  0  0  0  0  0  0  0  0  0
  -18.8574  -47.2393   -8.6205 N   0  0  0  0  0  0  0  0  0  0  0  0
  -18.2670  -46.0020   -9.0145 C   0  0  0  0  0  0  0  0  0  0  0  0
  -18.7676  -44.7233   -9.0847 C   0  0  0  0  0  0  0  0  0  0  0  0
  -17.9373  -43.7054   -9.5039 C   0  0  0  0  0  0  0  0  0  0  0  0
  -16.5961  -43.9969   -9.8518 C   0  0  0  0  0  0  0  0  0  0  0  0
  -16.0564  -45.2560   -9.7957 C   0  0  0  0  0  0  0  0  0  0  0  0
  -16.9110  -46.2324   -9.3753 C   0  0  0  0  0  0  0  0  0  0  0  0
  -18.1856  -42.2642   -9.6856 C   0  0  0  0  0  0  0  0  0  0  0  0
  -17.7544  -41.7352  -10.8363 O   0  0  0  0  0  0  0  0  0  0  0  0
  -18.7970  -41.2824   -8.8896 N   0  0  0  0  0  0  0  0  0  0  0  0
  -18.7584  -37.1168   -8.8682 C   0  0  0  0  0  0  0  0  0  0  0  0
  -19.9866  -36.8717   -9.4371 C   0  0  0  0  0  0  0  0  0  0  0  0
  -20.1427  -36.6740  -10.7950 C   0  0  0  0  0  0  0  0  0  0  0  0
  -21.2226  -36.8091   -8.6021 C   0  0  0  0  0  0  0  0  0  0  0  0
  -21.4349  -35.5823   -8.0519 F   0  0  0  0  0  0  0  0  0  0  0  0
  -22.2693  -37.1781   -9.4280 F   0  0  0  0  0  0  0  0  0  0  0  0
  -21.1130  -37.7967   -7.6227 F   0  0  0  0  0  0  0  0  0  0  0  0
  1  2  1  0
  2  3  1  0
  3  4  1  0
  4  5  2  0
  5  6  1  0
  6  7  1  0
  7  8  1  0
  8  9  1  0
  9 10  1  0
 10 11  1  1
 10 12  1  0
 12 13  1  1
 13 14  1  0
 14 15  1  1
 14 16  1  0
 16 17  1  0
 17 18  1  0
 18 19  1  0
 19 20  1  0
 20 21  1  0
 21 22  1  0
 22 23  1  0
 23 24  1  0
 24 25  2  0
 25 26  1  0
 26 27  2  0
 27 28  1  0
 28 29  2  0
 26 30  1  0
 30 31  2  0
 30 32  1  0
  6 33  2  0
 33 34  1  0
 34 35  2  0
 34 36  1  0
 36 37  1  0
 36 38  1  0
 36 39  1  0
 29 24  1  0
 32 12  1  0
 35  4  1  0
M  END
$$$$
