
     RDKit          3D

 39 41  0  0  0  0  0  0  0  0999 V2000
  -13.1295  -40.3505  -15.4478 C   0  0  0  0  0  0  0  0  0  0  0  0
  -13.3013  -39.7189  -14.1062 C   0  0  0  0  0  0  0  0  0  0  0  0
  -13.9680  -38.4966  -14.1152 O   0  0  0  0  0  0  0  0  0  0  0  0
  -14.2019  -37.6865  -13.0238 C   0  0  0  0  0  0  0  0  0  0  0  0
  -13.5836  -38.0153  -11.8137 C   0  0  0  0  0  0  0  0  0  0  0  0
  -13.7621  -37.2640  -10.6824 C   0  0  0  0  0  0  0  0  0  0  0  0
  -13.0591  -37.6920   -9.4292 C   0  0  0  0  0  0  0  0  0  0  0  0
  -13.7522  -38.6434   -8.6873 N   0  0  0  0  0  0  0  0  0  0  0  0
  -14.9833  -39.1764   -8.9885 C   0  0  0  0  0  0  0  0  0  0  0  0
  -16.0012  -39.5769   -8.0254 C   0  0  1  0  0  0  0  0  0  0  0  0
  -15.5869  -39.5332   -6.6920 O   0  0  0  0  0  0  0  0  0  0  0  0
  -17.4548  -39.3426   -8.2363 C   0  0  2  0  0  0  0  0  0  0  0  0
  -18.2311  -39.7519   -6.9833 C   0  0  0  0  0  0  0  0  0  0  0  0
  -19.4157  -38.8884   -6.7694 C   0  0  2  0  0  0  0  0  0  0  0  0
  -19.5013  -38.3216   -5.3504 C   0  0  0  0  0  0  0  0  0  0  0  0
  -20.7261  -39.6228   -7.0224 C   0  0  0  0  0  0  0  0  0  0  0  0
  -21.2320  -40.3598   -5.8182 C   0  0  0  0  0  0  0  0  0  0  0  0
  -21.2406  -41.7174   -6.0962 O   0  0  0  0  0  0  0  0  0  0  0  0
  -22.4068  -42.3665   -5.7823 C   0  0  0  0  0  0  0  0  0  0  0  0
  -22.7079  -43.5107   -6.7362 C   0  0  0  0  0  0  0  0  0  0  0  0
  -22.1029  -44.8162   -6.3068 C   0  0  0  0  0  0  0  0  0  0  0  0
  -21.3289  -45.5135   -7.3979 C   0  0  0  0  0  0  0  0  0  0  0  0
  -19.9080  -45.3056   -7.2141 N   0  0  0  0  0  0  0  0  0  0  0  0
  -18.9719  -44.5088   -7.9375 C   0  0  0  0  0  0  0  0  0  0  0  0
  -19.0491  -43.2362   -8.4524 C   0  0  0  0  0  0  0  0  0  0  0  0
  -17.9546  -42.7169   -9.1109 C   0  0  0  0  0  0  0  0  0  0  0  0
  -16.7826  -43.5004   -9.2427 C   0  0  0  0  0  0  0  0  0  0  0  0
  -16.6625  -44.7720   -8.7444 C   0  0  0  0  0  0  0  0  0  0  0  0
  -17.7671  -45.2465   -8.1000 C   0  0  0  0  0  0  0  0  0  0  0  0
  -17.7446  -41.4125   -9.7637 C   0  0  0  0  0  0  0  0  0  0  0  0
  -17.2032  -41.4491  -10.9866 O   0  0  0  0  0  0  0  0  0  0  0  0
  -17.9949  -40.0870   -9.3742 N   0  0  0  0  0  0  0  0  0  0  0  0
  -14.5697  -36.1512  -10.7216 C   0  0  0  0  0  0  0  0  0  0  0  0
  -15.1778  -35.8283  -11.9124 C   0  0  0  0  0  0  0  0  0  0  0  0
  -15.0021  -36.5815  -13.0567 C   0  0  0  0  0  0  0  0  0  0  0  0
  -16.0679  -34.6349  -12.0232 C   0  0  0  0  0  0  0  0  0  0  0  0
  -16.4929  -34.4007  -13.2949 F   0  0  0  0  0  0  0  0  0  0  0  0
  -17.1332  -34.8636  -11.1707 F   0  0  0  0  0  0  0  0  0  0  0  0
  -15.3662  -33.5439  -11.5095 F   0  0  0  0  0  0  0  0  0  0  0  0
  1  2  1  0
  2  3  1  0
  3  4  1  0
  4  5  2  0
  5  6  1  0
  6  7  1  0
  7  8  1  0
  8  9  1  0
  9 10  1  0
 10 11  1  1
 10 12  1  0
 12 13  1  1
 13 14  1  0
 14 15  1  1
 14 16  1  0
 16 17  1  0
 17 18  1  0
 18 19  1  0
 19 20  1  0
 20 21  1  0
 21 22  1  0
 22 23  1  0
 23 24  1  0
 24 25  2  0
 25 26  1  0
 26 27  2  0
 27 28  1  0
 28 29  2  0
 26 30  1  0
 30 31  2  0
 30 32  1  0
  6 33  2  0
 33 34  1  0
 34 35  2  0
 34 36  1  0
 36 37  1  0
 36 38  1  0
 36 39  1  0
 29 24  1  0
 32 12  1  0
 35  4  1  0
M  END
$$$$
