
     RDKit          3D

 39 41  0  0  0  0  0  0  0  0999 V2000
  -12.6342  -41.8368  -16.0125 C   0  0  0  0  0  0  0  0  0  0  0  0
  -12.6587  -41.3271  -14.6096 C   0  0  0  0  0  0  0  0  0  0  0  0
  -12.6817  -39.9400  -14.4906 O   0  0  0  0  0  0  0  0  0  0  0  0
  -12.6475  -39.2212  -13.3140 C   0  0  0  0  0  0  0  0  0  0  0  0
  -12.7612  -39.9217  -12.1095 C   0  0  0  0  0  0  0  0  0  0  0  0
  -12.7362  -39.2850  -10.8971 C   0  0  0  0  0  0  0  0  0  0  0  0
  -12.8647  -40.1173   -9.6567 C   0  0  0  0  0  0  0  0  0  0  0  0
  -14.1770  -40.3054   -9.2338 N   0  0  0  0  0  0  0  0  0  0  0  0
  -15.1388  -39.3325   -9.0970 C   0  0  0  0  0  0  0  0  0  0  0  0
  -16.2701  -39.3708   -8.1791 C   0  0  1  0  0  0  0  0  0  0  0  0
  -15.9610  -39.0192   -6.8629 O   0  0  0  0  0  0  0  0  0  0  0  0
  -17.6646  -39.0651   -8.5967 C   0  0  2  0  0  0  0  0  0  0  0  0
  -18.5951  -39.1407   -7.3848 C   0  0  0  0  0  0  0  0  0  0  0  0
  -19.6978  -38.1562   -7.4817 C   0  0  2  0  0  0  0  0  0  0  0  0
  -19.8583  -37.3033   -6.2212 C   0  0  0  0  0  0  0  0  0  0  0  0
  -21.0478  -38.8156   -7.7334 C   0  0  0  0  0  0  0  0  0  0  0  0
  -21.7401  -39.2431   -6.4736 C   0  0  0  0  0  0  0  0  0  0  0  0
  -21.8641  -40.6234   -6.4783 O   0  0  0  0  0  0  0  0  0  0  0  0
  -23.1164  -41.0944   -6.1782 C   0  0  0  0  0  0  0  0  0  0  0  0
  -23.4433  -42.3820   -6.9165 C   0  0  0  0  0  0  0  0  0  0  0  0
  -23.0218  -43.6162   -6.1724 C   0  0  0  0  0  0  0  0  0  0  0  0
  -22.2247  -44.5858   -7.0092 C   0  0  0  0  0  0  0  0  0  0  0  0
  -20.8138  -44.4632   -6.7087 N   0  0  0  0  0  0  0  0  0  0  0  0
  -19.7349  -43.9137   -7.4629 C   0  0  0  0  0  0  0  0  0  0  0  0
  -19.6294  -42.7731   -8.2235 C   0  0  0  0  0  0  0  0  0  0  0  0
  -18.4290  -42.4939   -8.8417 C   0  0  0  0  0  0  0  0  0  0  0  0
  -17.3381  -43.3823   -8.6821 C   0  0  0  0  0  0  0  0  0  0  0  0
  -17.3995  -44.5290   -7.9330 C   0  0  0  0  0  0  0  0  0  0  0  0
  -18.6039  -44.7666   -7.3384 C   0  0  0  0  0  0  0  0  0  0  0  0
  -18.0227  -41.3746   -9.7101 C   0  0  0  0  0  0  0  0  0  0  0  0
  -17.3742  -41.7080  -10.8318 O   0  0  0  0  0  0  0  0  0  0  0  0
  -18.1689  -39.9811   -9.6201 N   0  0  0  0  0  0  0  0  0  0  0  0
  -12.5958  -37.9175  -10.8462 C   0  0  0  0  0  0  0  0  0  0  0  0
  -12.4840  -37.2289  -12.0317 C   0  0  0  0  0  0  0  0  0  0  0  0
  -12.5085  -37.8647  -13.2575 C   0  0  0  0  0  0  0  0  0  0  0  0
  -12.3307  -35.7439  -12.0475 C   0  0  0  0  0  0  0  0  0  0  0  0
  -11.1746  -35.3317  -12.6360 F   0  0  0  0  0  0  0  0  0  0  0  0
  -13.4381  -35.2455  -12.7102 F   0  0  0  0  0  0  0  0  0  0  0  0
  -12.4176  -35.3030  -10.7267 F   0  0  0  0  0  0  0  0  0  0  0  0
  1  2  1  0
  2  3  1  0
  3  4  1  0
  4  5  2  0
  5  6  1  0
  6  7  1  0
  7  8  1  0
  8  9  1  0
  9 10  1  0
 10 11  1  1
 10 12  1  0
 12 13  1  1
 13 14  1  0
 14 15  1  1
 14 16  1  0
 16 17  1  0
 17 18  1  0
 18 19  1  0
 19 20  1  0
 20 21  1  0
 21 22  1  0
 22 23  1  0
 23 24  1  0
 24 25  2  0
 25 26  1  0
 26 27  2  0
 27 28  1  0
 28 29  2  0
 26 30  1  0
 30 31  2  0
 30 32  1  0
  6 33  2  0
 33 34  1  0
 34 35  2  0
 34 36  1  0
 36 37  1  0
 36 38  1  0
 36 39  1  0
 29 24  1  0
 32 12  1  0
 35  4  1  0
M  END
$$$$
