
     RDKit          3D

 39 41  0  0  0  0  0  0  0  0999 V2000
  -16.6256  -34.6576  -15.3031 C   0  0  0  0  0  0  0  0  0  0  0  0
  -16.2303  -35.3315  -14.0311 C   0  0  0  0  0  0  0  0  0  0  0  0
  -16.9384  -34.9194  -12.9053 O   0  0  0  0  0  0  0  0  0  0  0  0
  -16.6101  -35.1848  -11.5923 C   0  0  0  0  0  0  0  0  0  0  0  0
  -15.7543  -36.2589  -11.3305 C   0  0  0  0  0  0  0  0  0  0  0  0
  -15.3779  -36.5901  -10.0559 C   0  0  0  0  0  0  0  0  0  0  0  0
  -14.4564  -37.7581   -9.8700 C   0  0  0  0  0  0  0  0  0  0  0  0
  -14.6340  -38.4342   -8.6668 N   0  0  0  0  0  0  0  0  0  0  0  0
  -15.5280  -39.4503   -8.4248 C   0  0  0  0  0  0  0  0  0  0  0  0
  -16.7670  -39.6915   -9.1534 C   0  0  1  0  0  0  0  0  0  0  0  0
  -17.0228  -38.7792  -10.1799 O   0  0  0  0  0  0  0  0  0  0  0  0
  -17.3286  -41.0515   -9.3714 C   0  0  2  0  0  0  0  0  0  0  0  0
  -18.8112  -40.9462   -9.7332 C   0  0  0  0  0  0  0  0  0  0  0  0
  -19.2174  -42.0080  -10.6830 C   0  0  2  0  0  0  0  0  0  0  0  0
  -19.9690  -41.4712  -11.9033 C   0  0  0  0  0  0  0  0  0  0  0  0
  -20.1234  -43.0502  -10.0400 C   0  0  0  0  0  0  0  0  0  0  0  0
  -21.5745  -42.6726  -10.0737 C   0  0  0  0  0  0  0  0  0  0  0  0
  -22.0249  -42.5134   -8.7729 O   0  0  0  0  0  0  0  0  0  0  0  0
  -23.1973  -43.1620   -8.4815 C   0  0  0  0  0  0  0  0  0  0  0  0
  -23.2504  -43.6434   -7.0409 C   0  0  0  0  0  0  0  0  0  0  0  0
  -23.8155  -42.6236   -6.0948 C   0  0  0  0  0  0  0  0  0  0  0  0
  -22.9628  -42.3934   -4.8718 C   0  0  0  0  0  0  0  0  0  0  0  0
  -22.1941  -41.1756   -5.0202 N   0  0  0  0  0  0  0  0  0  0  0  0
  -20.8020  -40.9630   -5.2473 C   0  0  0  0  0  0  0  0  0  0  0  0
  -19.8979  -41.5852   -6.0756 C   0  0  0  0  0  0  0  0  0  0  0  0
  -18.5913  -41.1450   -6.0854 C   0  0  0  0  0  0  0  0  0  0  0  0
  -18.2107  -40.0692   -5.2472 C   0  0  0  0  0  0  0  0  0  0  0  0
  -19.0789  -39.4205   -4.4074 C   0  0  0  0  0  0  0  0  0  0  0  0
  -20.3606  -39.8866   -4.4295 C   0  0  0  0  0  0  0  0  0  0  0  0
  -17.4171  -41.6097   -6.8451 C   0  0  0  0  0  0  0  0  0  0  0  0
  -16.2955  -41.7906   -6.1385 O   0  0  0  0  0  0  0  0  0  0  0  0
  -17.2030  -41.9168   -8.1982 N   0  0  0  0  0  0  0  0  0  0  0  0
  -15.8467  -35.8547   -8.9921 C   0  0  0  0  0  0  0  0  0  0  0  0
  -16.6887  -34.7981   -9.2504 C   0  0  0  0  0  0  0  0  0  0  0  0
  -17.0722  -34.4588  -10.5331 C   0  0  0  0  0  0  0  0  0  0  0  0
  -17.2346  -33.9604   -8.1417 C   0  0  0  0  0  0  0  0  0  0  0  0
  -16.8159  -32.6663   -8.1931 F   0  0  0  0  0  0  0  0  0  0  0  0
  -18.6124  -34.0474   -8.2305 F   0  0  0  0  0  0  0  0  0  0  0  0
  -16.8676  -34.5692   -6.9413 F   0  0  0  0  0  0  0  0  0  0  0  0
  1  2  1  0
  2  3  1  0
  3  4  1  0
  4  5  2  0
  5  6  1  0
  6  7  1  0
  7  8  1  0
  8  9  1  0
  9 10  1  0
 10 11  1  6
 10 12  1  0
 12 13  1  1
 13 14  1  0
 14 15  1  6
 14 16  1  0
 16 17  1  0
 17 18  1  0
 18 19  1  0
 19 20  1  0
 20 21  1  0
 21 22  1  0
 22 23  1  0
 23 24  1  0
 24 25  2  0
 25 26  1  0
 26 27  2  0
 27 28  1  0
 28 29  2  0
 26 30  1  0
 30 31  2  0
 30 32  1  0
  6 33  2  0
 33 34  1  0
 34 35  2  0
 34 36  1  0
 36 37  1  0
 36 38  1  0
 36 39  1  0
 29 24  1  0
 32 12  1  0
 35  4  1  0
M  END
$$$$
