
     RDKit          3D

 39 41  0  0  0  0  0  0  0  0999 V2000
  -11.5273  -33.4564  -12.4543 C   0  0  0  0  0  0  0  0  0  0  0  0
  -12.6584  -33.0903  -11.5516 C   0  0  0  0  0  0  0  0  0  0  0  0
  -13.1069  -34.1191  -10.7276 O   0  0  0  0  0  0  0  0  0  0  0  0
  -14.0954  -35.0329  -11.0276 C   0  0  0  0  0  0  0  0  0  0  0  0
  -13.9360  -36.3479  -10.5803 C   0  0  0  0  0  0  0  0  0  0  0  0
  -14.8700  -37.3169  -10.8344 C   0  0  0  0  0  0  0  0  0  0  0  0
  -14.6154  -38.7002  -10.3153 C   0  0  0  0  0  0  0  0  0  0  0  0
  -15.2355  -38.9726   -9.0998 N   0  0  0  0  0  0  0  0  0  0  0  0
  -16.5889  -38.9834   -8.8574 C   0  0  0  0  0  0  0  0  0  0  0  0
  -17.2337  -39.4146   -7.6236 C   0  0  1  0  0  0  0  0  0  0  0  0
  -16.4558  -39.2505   -6.4749 O   0  0  0  0  0  0  0  0  0  0  0  0
  -18.7019  -39.3275   -7.4020 C   0  0  2  0  0  0  0  0  0  0  0  0
  -19.0810  -40.1060   -6.1409 C   0  0  0  0  0  0  0  0  0  0  0  0
  -20.2161  -39.4729   -5.4298 C   0  0  2  0  0  0  0  0  0  0  0  0
  -19.9496  -39.2576   -3.9383 C   0  0  0  0  0  0  0  0  0  0  0  0
  -21.4959  -40.2933   -5.5273 C   0  0  0  0  0  0  0  0  0  0  0  0
  -21.6074  -41.3424   -4.4613 C   0  0  0  0  0  0  0  0  0  0  0  0
  -21.6038  -42.5914   -5.0616 O   0  0  0  0  0  0  0  0  0  0  0  0
  -22.5969  -43.4391   -4.6428 C   0  0  0  0  0  0  0  0  0  0  0  0
  -23.0713  -44.3669   -5.7492 C   0  0  0  0  0  0  0  0  0  0  0  0
  -22.2899  -45.6467   -5.8263 C   0  0  0  0  0  0  0  0  0  0  0  0
  -21.7978  -45.9737   -7.2144 C   0  0  0  0  0  0  0  0  0  0  0  0
  -20.3968  -45.6319   -7.3418 N   0  0  0  0  0  0  0  0  0  0  0  0
  -19.7454  -44.5785   -8.0494 C   0  0  0  0  0  0  0  0  0  0  0  0
  -20.0412  -43.2432   -8.1911 C   0  0  0  0  0  0  0  0  0  0  0  0
  -19.2023  -42.4521   -8.9471 C   0  0  0  0  0  0  0  0  0  0  0  0
  -18.0621  -43.0281   -9.5581 C   0  0  0  0  0  0  0  0  0  0  0  0
  -17.7298  -44.3532   -9.4422 C   0  0  0  0  0  0  0  0  0  0  0  0
  -18.5851  -45.0991   -8.6856 C   0  0  0  0  0  0  0  0  0  0  0  0
  -19.2617  -41.0180   -9.2810 C   0  0  0  0  0  0  0  0  0  0  0  0
  -19.0713  -40.7071  -10.5683 O   0  0  0  0  0  0  0  0  0  0  0  0
  -19.4815  -39.8584   -8.5205 N   0  0  0  0  0  0  0  0  0  0  0  0
  -16.0029  -37.0033  -11.5488 C   0  0  0  0  0  0  0  0  0  0  0  0
  -16.1592  -35.7094  -11.9887 C   0  0  0  0  0  0  0  0  0  0  0  0
  -15.2212  -34.7276  -11.7360 C   0  0  0  0  0  0  0  0  0  0  0  0
  -17.3642  -35.3027  -12.7706 C   0  0  0  0  0  0  0  0  0  0  0  0
  -17.8311  -34.0700  -12.4313 F   0  0  0  0  0  0  0  0  0  0  0  0
  -16.9981  -35.3527  -14.1038 F   0  0  0  0  0  0  0  0  0  0  0  0
  -18.3346  -36.2870  -12.5807 F   0  0  0  0  0  0  0  0  0  0  0  0
  1  2  1  0
  2  3  1  0
  3  4  1  0
  4  5  2  0
  5  6  1  0
  6  7  1  0
  7  8  1  0
  8  9  1  0
  9 10  1  0
 10 11  1  1
 10 12  1  0
 12 13  1  1
 13 14  1  0
 14 15  1  1
 14 16  1  0
 16 17  1  0
 17 18  1  0
 18 19  1  0
 19 20  1  0
 20 21  1  0
 21 22  1  0
 22 23  1  0
 23 24  1  0
 24 25  2  0
 25 26  1  0
 26 27  2  0
 27 28  1  0
 28 29  2  0
 26 30  1  0
 30 31  2  0
 30 32  1  0
  6 33  2  0
 33 34  1  0
 34 35  2  0
 34 36  1  0
 36 37  1  0
 36 38  1  0
 36 39  1  0
 29 24  1  0
 32 12  1  0
 35  4  1  0
M  END
$$$$
