
     RDKit          3D

 39 41  0  0  0  0  0  0  0  0999 V2000
  -22.2670  -34.9969  -13.6371 C   0  0  0  0  0  0  0  0  0  0  0  0
  -21.4092  -35.2305  -12.4379 C   0  0  0  0  0  0  0  0  0  0  0  0
  -20.0729  -35.5033  -12.7177 O   0  0  0  0  0  0  0  0  0  0  0  0
  -19.0501  -35.6024  -11.7976 C   0  0  0  0  0  0  0  0  0  0  0  0
  -19.3196  -36.2278  -10.5766 C   0  0  0  0  0  0  0  0  0  0  0  0
  -18.3609  -36.3682   -9.6086 C   0  0  0  0  0  0  0  0  0  0  0  0
  -18.7401  -37.0528   -8.3297 C   0  0  0  0  0  0  0  0  0  0  0  0
  -17.7300  -37.8419   -7.7882 N   0  0  0  0  0  0  0  0  0  0  0  0
  -16.5555  -38.2027   -8.4053 C   0  0  0  0  0  0  0  0  0  0  0  0
  -16.3791  -39.3222   -9.3216 C   0  0  1  0  0  0  0  0  0  0  0  0
  -16.7200  -39.0452  -10.6477 O   0  0  0  0  0  0  0  0  0  0  0  0
  -15.3191  -40.3516   -9.1506 C   0  0  2  0  0  0  0  0  0  0  0  0
  -15.2714  -41.2538  -10.3850 C   0  0  0  0  0  0  0  0  0  0  0  0
  -13.8913  -41.7067  -10.6764 C   0  0  2  0  0  0  0  0  0  0  0  0
  -13.4763  -41.4804  -12.1320 C   0  0  0  0  0  0  0  0  0  0  0  0
  -13.6927  -43.1905  -10.3949 C   0  0  0  0  0  0  0  0  0  0  0  0
  -14.0651  -44.0664  -11.5541 C   0  0  0  0  0  0  0  0  0  0  0  0
  -15.1346  -44.8662  -11.1841 O   0  0  0  0  0  0  0  0  0  0  0  0
  -14.9890  -46.1990  -11.4718 C   0  0  0  0  0  0  0  0  0  0  0  0
  -15.6706  -47.0906  -10.4469 C   0  0  0  0  0  0  0  0  0  0  0  0
  -17.1058  -47.3838  -10.7764 C   0  0  0  0  0  0  0  0  0  0  0  0
  -18.0533  -47.1404   -9.6280 C   0  0  0  0  0  0  0  0  0  0  0  0
  -18.7363  -45.8759   -9.8027 N   0  0  0  0  0  0  0  0  0  0  0  0
  -18.6008  -44.6307   -9.1204 C   0  0  0  0  0  0  0  0  0  0  0  0
  -17.4978  -43.9285   -8.6949 C   0  0  0  0  0  0  0  0  0  0  0  0
  -17.6832  -42.7208   -8.0559 C   0  0  0  0  0  0  0  0  0  0  0  0
  -18.9968  -42.2332   -7.8520 C   0  0  0  0  0  0  0  0  0  0  0  0
  -20.1232  -42.8997   -8.2604 C   0  0  0  0  0  0  0  0  0  0  0  0
  -19.8949  -44.0887   -8.8885 C   0  0  0  0  0  0  0  0  0  0  0  0
  -16.7152  -41.7643   -7.4903 C   0  0  0  0  0  0  0  0  0  0  0  0
  -16.9852  -41.3154   -6.2592 O   0  0  0  0  0  0  0  0  0  0  0  0
  -15.5260  -41.1954   -7.9733 N   0  0  0  0  0  0  0  0  0  0  0  0
  -17.0917  -35.8855   -9.8286 C   0  0  0  0  0  0  0  0  0  0  0  0
  -16.8273  -35.2703  -11.0302 C   0  0  0  0  0  0  0  0  0  0  0  0
  -17.7893  -35.1253  -12.0105 C   0  0  0  0  0  0  0  0  0  0  0  0
  -15.4716  -34.7229  -11.3324 C   0  0  0  0  0  0  0  0  0  0  0  0
  -15.3821  -34.1710  -12.5734 F   0  0  0  0  0  0  0  0  0  0  0  0
  -15.1996  -33.7912  -10.3466 F   0  0  0  0  0  0  0  0  0  0  0  0
  -14.5571  -35.7636  -11.1685 F   0  0  0  0  0  0  0  0  0  0  0  0
  1  2  1  0
  2  3  1  0
  3  4  1  0
  4  5  2  0
  5  6  1  0
  6  7  1  0
  7  8  1  0
  8  9  1  0
  9 10  1  0
 10 11  1  6
 10 12  1  0
 12 13  1  6
 13 14  1  0
 14 15  1  6
 14 16  1  0
 16 17  1  0
 17 18  1  0
 18 19  1  0
 19 20  1  0
 20 21  1  0
 21 22  1  0
 22 23  1  0
 23 24  1  0
 24 25  2  0
 25 26  1  0
 26 27  2  0
 27 28  1  0
 28 29  2  0
 26 30  1  0
 30 31  2  0
 30 32  1  0
  6 33  2  0
 33 34  1  0
 34 35  2  0
 34 36  1  0
 36 37  1  0
 36 38  1  0
 36 39  1  0
 29 24  1  0
 32 12  1  0
 35  4  1  0
M  END
$$$$
