
     RDKit          3D

 39 41  0  0  0  0  0  0  0  0999 V2000
  -23.1129  -39.7258  -11.9443 C   0  0  0  0  0  0  0  0  0  0  0  0
  -22.3425  -39.4431  -10.6973 C   0  0  0  0  0  0  0  0  0  0  0  0
  -22.7681  -40.1467   -9.5736 O   0  0  0  0  0  0  0  0  0  0  0  0
  -22.2173  -40.0786   -8.3110 C   0  0  0  0  0  0  0  0  0  0  0  0
  -20.9406  -39.5247   -8.1774 C   0  0  0  0  0  0  0  0  0  0  0  0
  -20.3215  -39.4191   -6.9602 C   0  0  0  0  0  0  0  0  0  0  0  0
  -18.9518  -38.8112   -6.9120 C   0  0  0  0  0  0  0  0  0  0  0  0
  -18.1834  -39.2305   -5.8304 N   0  0  0  0  0  0  0  0  0  0  0  0
  -16.8105  -39.2761   -5.7722 C   0  0  0  0  0  0  0  0  0  0  0  0
  -15.9085  -39.3737   -6.9128 C   0  0  1  0  0  0  0  0  0  0  0  0
  -15.4847  -38.1445   -7.4236 O   0  0  0  0  0  0  0  0  0  0  0  0
  -14.9427  -40.4909   -7.0903 C   0  0  2  0  0  0  0  0  0  0  0  0
  -13.9709  -40.1584   -8.2239 C   0  0  0  0  0  0  0  0  0  0  0  0
  -12.6224  -40.7155   -7.9671 C   0  0  2  0  0  0  0  0  0  0  0  0
  -11.5028  -39.6846   -8.1273 C   0  0  0  0  0  0  0  0  0  0  0  0
  -12.2825  -41.8725   -8.8979 C   0  0  0  0  0  0  0  0  0  0  0  0
  -11.6870  -41.4271  -10.2004 C   0  0  0  0  0  0  0  0  0  0  0  0
  -12.5445  -41.7839  -11.2289 O   0  0  0  0  0  0  0  0  0  0  0  0
  -11.9487  -42.4230  -12.2856 C   0  0  0  0  0  0  0  0  0  0  0  0
  -12.8663  -43.4446  -12.9368 C   0  0  0  0  0  0  0  0  0  0  0  0
  -13.7184  -42.8657  -14.0293 C   0  0  0  0  0  0  0  0  0  0  0  0
  -15.1827  -43.2047  -13.8998 C   0  0  0  0  0  0  0  0  0  0  0  0
  -15.9093  -42.0806  -13.3480 N   0  0  0  0  0  0  0  0  0  0  0  0
  -16.4971  -41.8783  -12.0642 C   0  0  0  0  0  0  0  0  0  0  0  0
  -16.0556  -42.1631  -10.7935 C   0  0  0  0  0  0  0  0  0  0  0  0
  -16.8582  -41.8365   -9.7210 C   0  0  0  0  0  0  0  0  0  0  0  0
  -18.1121  -41.2198   -9.9496 C   0  0  0  0  0  0  0  0  0  0  0  0
  -18.5903  -40.9177  -11.1986 C   0  0  0  0  0  0  0  0  0  0  0  0
  -17.7650  -41.2564  -12.2304 C   0  0  0  0  0  0  0  0  0  0  0  0
  -16.6634  -42.0219   -8.2721 C   0  0  0  0  0  0  0  0  0  0  0  0
  -17.6988  -42.5419   -7.6029 O   0  0  0  0  0  0  0  0  0  0  0  0
  -15.5924  -41.7644   -7.4016 N   0  0  0  0  0  0  0  0  0  0  0  0
  -20.9610  -39.8661   -5.8273 C   0  0  0  0  0  0  0  0  0  0  0  0
  -22.2171  -40.4109   -5.9595 C   0  0  0  0  0  0  0  0  0  0  0  0
  -22.8470  -40.5205   -7.1838 C   0  0  0  0  0  0  0  0  0  0  0  0
  -22.9656  -40.9165   -4.7708 C   0  0  0  0  0  0  0  0  0  0  0  0
  -23.3227  -42.2254   -4.8805 F   0  0  0  0  0  0  0  0  0  0  0  0
  -22.1445  -40.7090   -3.6769 F   0  0  0  0  0  0  0  0  0  0  0  0
  -24.0803  -40.0949   -4.6011 F   0  0  0  0  0  0  0  0  0  0  0  0
  1  2  1  0
  2  3  1  0
  3  4  1  0
  4  5  2  0
  5  6  1  0
  6  7  1  0
  7  8  1  0
  8  9  1  0
  9 10  1  0
 10 11  1  1
 10 12  1  0
 12 13  1  6
 13 14  1  0
 14 15  1  6
 14 16  1  0
 16 17  1  0
 17 18  1  0
 18 19  1  0
 19 20  1  0
 20 21  1  0
 21 22  1  0
 22 23  1  0
 23 24  1  0
 24 25  2  0
 25 26  1  0
 26 27  2  0
 27 28  1  0
 28 29  2  0
 26 30  1  0
 30 31  2  0
 30 32  1  0
  6 33  2  0
 33 34  1  0
 34 35  2  0
 34 36  1  0
 36 37  1  0
 36 38  1  0
 36 39  1  0
 29 24  1  0
 32 12  1  0
 35  4  1  0
M  END
$$$$
