
     RDKit          3D

 39 41  0  0  0  0  0  0  0  0999 V2000
  -14.5577  -31.7099  -10.9746 C   0  0  0  0  0  0  0  0  0  0  0  0
  -14.7917  -33.1803  -10.8665 C   0  0  0  0  0  0  0  0  0  0  0  0
  -15.8879  -33.6533  -11.5829 O   0  0  0  0  0  0  0  0  0  0  0  0
  -16.2852  -34.9695  -11.6922 C   0  0  0  0  0  0  0  0  0  0  0  0
  -15.4679  -35.9541  -11.1290 C   0  0  0  0  0  0  0  0  0  0  0  0
  -15.7889  -37.2841  -11.1923 C   0  0  0  0  0  0  0  0  0  0  0  0
  -14.8528  -38.2700  -10.5602 C   0  0  0  0  0  0  0  0  0  0  0  0
  -15.2307  -38.6715   -9.2826 N   0  0  0  0  0  0  0  0  0  0  0  0
  -16.2145  -39.5793   -8.9689 C   0  0  0  0  0  0  0  0  0  0  0  0
  -17.0415  -39.5643   -7.7690 C   0  0  1  0  0  0  0  0  0  0  0  0
  -16.3980  -39.0805   -6.6274 O   0  0  0  0  0  0  0  0  0  0  0  0
  -18.5118  -39.3415   -7.7996 C   0  0  2  0  0  0  0  0  0  0  0  0
  -19.1188  -39.7131   -6.4455 C   0  0  0  0  0  0  0  0  0  0  0  0
  -20.2727  -38.8469   -6.1090 C   0  0  2  0  0  0  0  0  0  0  0  0
  -20.1805  -38.2354   -4.7092 C   0  0  0  0  0  0  0  0  0  0  0  0
  -21.5993  -39.5933   -6.1694 C   0  0  0  0  0  0  0  0  0  0  0  0
  -21.9419  -40.2930   -4.8879 C   0  0  0  0  0  0  0  0  0  0  0  0
  -21.9761  -41.6588   -5.1200 O   0  0  0  0  0  0  0  0  0  0  0  0
  -23.0880  -42.3013   -4.6394 C   0  0  0  0  0  0  0  0  0  0  0  0
  -23.5000  -43.4764   -5.5108 C   0  0  0  0  0  0  0  0  0  0  0  0
  -22.8358  -44.7655   -5.1216 C   0  0  0  0  0  0  0  0  0  0  0  0
  -22.2023  -45.4948   -6.2803 C   0  0  0  0  0  0  0  0  0  0  0  0
  -20.7711  -45.2766   -6.2862 N   0  0  0  0  0  0  0  0  0  0  0  0
  -19.9408  -44.5004   -7.1479 C   0  0  0  0  0  0  0  0  0  0  0  0
  -20.0923  -43.2451   -7.6883 C   0  0  0  0  0  0  0  0  0  0  0  0
  -19.0946  -42.7436   -8.4972 C   0  0  0  0  0  0  0  0  0  0  0  0
  -17.9434  -43.5271   -8.7532 C   0  0  0  0  0  0  0  0  0  0  0  0
  -17.7514  -44.7818   -8.2348 C   0  0  0  0  0  0  0  0  0  0  0  0
  -18.7612  -45.2390   -7.4400 C   0  0  0  0  0  0  0  0  0  0  0  0
  -18.9792  -41.4600   -9.2120 C   0  0  0  0  0  0  0  0  0  0  0  0
  -18.5980  -41.5339  -10.4923 O   0  0  0  0  0  0  0  0  0  0  0  0
  -19.1873  -40.1236   -8.8353 N   0  0  0  0  0  0  0  0  0  0  0  0
  -16.9451  -37.6786  -11.8246 C   0  0  0  0  0  0  0  0  0  0  0  0
  -17.7488  -36.7093  -12.3785 C   0  0  0  0  0  0  0  0  0  0  0  0
  -17.4309  -35.3666  -12.3183 C   0  0  0  0  0  0  0  0  0  0  0  0
  -19.0164  -37.0694  -13.0802 C   0  0  0  0  0  0  0  0  0  0  0  0
  -20.0564  -37.2849  -12.2290 F   0  0  0  0  0  0  0  0  0  0  0  0
  -19.2870  -36.0301  -13.9524 F   0  0  0  0  0  0  0  0  0  0  0  0
  -18.7536  -38.1948  -13.8617 F   0  0  0  0  0  0  0  0  0  0  0  0
  1  2  1  0
  2  3  1  0
  3  4  1  0
  4  5  2  0
  5  6  1  0
  6  7  1  0
  7  8  1  0
  8  9  1  0
  9 10  1  0
 10 11  1  1
 10 12  1  0
 12 13  1  1
 13 14  1  0
 14 15  1  1
 14 16  1  0
 16 17  1  0
 17 18  1  0
 18 19  1  0
 19 20  1  0
 20 21  1  0
 21 22  1  0
 22 23  1  0
 23 24  1  0
 24 25  2  0
 25 26  1  0
 26 27  2  0
 27 28  1  0
 28 29  2  0
 26 30  1  0
 30 31  2  0
 30 32  1  0
  6 33  2  0
 33 34  1  0
 34 35  2  0
 34 36  1  0
 36 37  1  0
 36 38  1  0
 36 39  1  0
 29 24  1  0
 32 12  1  0
 35  4  1  0
M  END
$$$$
