
     RDKit          3D

 39 41  0  0  0  0  0  0  0  0999 V2000
  -22.8223  -43.5727   -3.4340 C   0  0  0  0  0  0  0  0  0  0  0  0
  -22.9698  -42.1197   -3.7431 C   0  0  0  0  0  0  0  0  0  0  0  0
  -23.3961  -41.8366   -5.0381 O   0  0  0  0  0  0  0  0  0  0  0  0
  -22.7365  -41.0525   -5.9613 C   0  0  0  0  0  0  0  0  0  0  0  0
  -21.3665  -41.2615   -6.1455 C   0  0  0  0  0  0  0  0  0  0  0  0
  -20.6367  -40.5271   -7.0421 C   0  0  0  0  0  0  0  0  0  0  0  0
  -19.1722  -40.8206   -7.1731 C   0  0  0  0  0  0  0  0  0  0  0  0
  -18.3694  -40.1038   -6.2911 N   0  0  0  0  0  0  0  0  0  0  0  0
  -16.9992  -39.9992   -6.3342 C   0  0  0  0  0  0  0  0  0  0  0  0
  -16.2283  -39.2589   -7.3250 C   0  0  1  0  0  0  0  0  0  0  0  0
  -15.8000  -37.9982   -6.9024 O   0  0  0  0  0  0  0  0  0  0  0  0
  -15.3432  -39.9179   -8.3224 C   0  0  2  0  0  0  0  0  0  0  0  0
  -14.0535  -39.1108   -8.4815 C   0  0  0  0  0  0  0  0  0  0  0  0
  -12.8915  -39.9881   -8.7548 C   0  0  2  0  0  0  0  0  0  0  0  0
  -11.6991  -39.7147   -7.8354 C   0  0  0  0  0  0  0  0  0  0  0  0
  -12.3787  -39.8489  -10.1825 C   0  0  0  0  0  0  0  0  0  0  0  0
  -11.3874  -38.7357  -10.3479 C   0  0  0  0  0  0  0  0  0  0  0  0
  -11.9219  -37.7848  -11.2027 O   0  0  0  0  0  0  0  0  0  0  0  0
  -11.0880  -37.3781  -12.2122 C   0  0  0  0  0  0  0  0  0  0  0  0
  -11.8443  -37.0312  -13.4841 C   0  0  0  0  0  0  0  0  0  0  0  0
  -12.2820  -35.5961  -13.5415 C   0  0  0  0  0  0  0  0  0  0  0  0
  -13.7394  -35.4204  -13.8895 C   0  0  0  0  0  0  0  0  0  0  0  0
  -14.5087  -35.1424  -12.6950 N   0  0  0  0  0  0  0  0  0  0  0  0
  -15.4369  -35.9430  -11.9655 C   0  0  0  0  0  0  0  0  0  0  0  0
  -15.4202  -37.2674  -11.5961 C   0  0  0  0  0  0  0  0  0  0  0  0
  -16.4798  -37.7696  -10.8707 C   0  0  0  0  0  0  0  0  0  0  0  0
  -17.5557  -36.9166  -10.5246 C   0  0  0  0  0  0  0  0  0  0  0  0
  -17.6123  -35.5913  -10.8713 C   0  0  0  0  0  0  0  0  0  0  0  0
  -16.5445  -35.1354  -11.5870 C   0  0  0  0  0  0  0  0  0  0  0  0
  -16.7435  -39.1225  -10.3493 C   0  0  0  0  0  0  0  0  0  0  0  0
  -17.9688  -39.6097  -10.5755 O   0  0  0  0  0  0  0  0  0  0  0  0
  -15.9662  -40.0516   -9.6395 N   0  0  0  0  0  0  0  0  0  0  0  0
  -21.2547  -39.5522   -7.7904 C   0  0  0  0  0  0  0  0  0  0  0  0
  -22.6026  -39.3471   -7.6086 C   0  0  0  0  0  0  0  0  0  0  0  0
  -23.3444  -40.0840   -6.7063 C   0  0  0  0  0  0  0  0  0  0  0  0
  -23.3341  -38.3041   -8.3872 C   0  0  0  0  0  0  0  0  0  0  0  0
  -22.5656  -37.7123   -9.3421 F   0  0  0  0  0  0  0  0  0  0  0  0
  -24.4328  -38.9337   -8.9443 F   0  0  0  0  0  0  0  0  0  0  0  0
  -23.8235  -37.3703   -7.4735 F   0  0  0  0  0  0  0  0  0  0  0  0
  1  2  1  0
  2  3  1  0
  3  4  1  0
  4  5  2  0
  5  6  1  0
  6  7  1  0
  7  8  1  0
  8  9  1  0
  9 10  1  0
 10 11  1  1
 10 12  1  0
 12 13  1  6
 13 14  1  0
 14 15  1  1
 14 16  1  0
 16 17  1  0
 17 18  1  0
 18 19  1  0
 19 20  1  0
 20 21  1  0
 21 22  1  0
 22 23  1  0
 23 24  1  0
 24 25  2  0
 25 26  1  0
 26 27  2  0
 27 28  1  0
 28 29  2  0
 26 30  1  0
 30 31  2  0
 30 32  1  0
  6 33  2  0
 33 34  1  0
 34 35  2  0
 34 36  1  0
 36 37  1  0
 36 38  1  0
 36 39  1  0
 29 24  1  0
 32 12  1  0
 35  4  1  0
M  END
$$$$
