
     RDKit          3D

 39 41  0  0  0  0  0  0  0  0999 V2000
  -23.4222  -44.8390   -6.3504 C   0  0  0  0  0  0  0  0  0  0  0  0
  -22.5014  -43.7290   -6.7359 C   0  0  0  0  0  0  0  0  0  0  0  0
  -23.0417  -42.4514   -6.6161 O   0  0  0  0  0  0  0  0  0  0  0  0
  -22.4137  -41.2663   -6.9377 C   0  0  0  0  0  0  0  0  0  0  0  0
  -21.2955  -40.8880   -6.1887 C   0  0  0  0  0  0  0  0  0  0  0  0
  -20.6136  -39.7275   -6.4423 C   0  0  0  0  0  0  0  0  0  0  0  0
  -19.4253  -39.4024   -5.5878 C   0  0  0  0  0  0  0  0  0  0  0  0
  -18.2019  -39.5885   -6.2241 N   0  0  0  0  0  0  0  0  0  0  0  0
  -17.0434  -38.8865   -5.9886 C   0  0  0  0  0  0  0  0  0  0  0  0
  -15.9665  -38.6668   -6.9458 C   0  0  1  0  0  0  0  0  0  0  0  0
  -15.2170  -37.5098   -6.7197 O   0  0  0  0  0  0  0  0  0  0  0  0
  -15.2214  -39.7768   -7.5978 C   0  0  2  0  0  0  0  0  0  0  0  0
  -13.9290  -39.2391   -8.2148 C   0  0  0  0  0  0  0  0  0  0  0  0
  -12.8365  -40.2375   -8.1487 C   0  0  2  0  0  0  0  0  0  0  0  0
  -11.5407  -39.6764   -7.5587 C   0  0  0  0  0  0  0  0  0  0  0  0
  -12.4801  -40.8033   -9.5174 C   0  0  0  0  0  0  0  0  0  0  0  0
  -11.4738  -39.9720  -10.2561 C   0  0  0  0  0  0  0  0  0  0  0  0
  -12.0651  -39.4714  -11.4052 O   0  0  0  0  0  0  0  0  0  0  0  0
  -11.3338  -39.6368  -12.5532 C   0  0  0  0  0  0  0  0  0  0  0  0
  -12.2132  -39.8430  -13.7755 C   0  0  0  0  0  0  0  0  0  0  0  0
  -12.6028  -38.5591  -14.4497 C   0  0  0  0  0  0  0  0  0  0  0  0
  -14.0825  -38.4406  -14.7188 C   0  0  0  0  0  0  0  0  0  0  0  0
  -14.7045  -37.5890  -13.7270 N   0  0  0  0  0  0  0  0  0  0  0  0
  -15.5745  -37.8924  -12.6381 C   0  0  0  0  0  0  0  0  0  0  0  0
  -15.5647  -38.9018  -11.7045 C   0  0  0  0  0  0  0  0  0  0  0  0
  -16.5548  -38.9313  -10.7454 C   0  0  0  0  0  0  0  0  0  0  0  0
  -17.5546  -37.9286  -10.7429 C   0  0  0  0  0  0  0  0  0  0  0  0
  -17.6016  -36.9048  -11.6537 C   0  0  0  0  0  0  0  0  0  0  0  0
  -16.6037  -36.9127  -12.5835 C   0  0  0  0  0  0  0  0  0  0  0  0
  -16.8077  -39.8740   -9.6413 C   0  0  0  0  0  0  0  0  0  0  0  0
  -18.0672  -40.3078   -9.5173 O   0  0  0  0  0  0  0  0  0  0  0  0
  -15.9905  -40.4411   -8.6504 N   0  0  0  0  0  0  0  0  0  0  0  0
  -21.0284  -38.8997   -7.4597 C   0  0  0  0  0  0  0  0  0  0  0  0
  -22.1287  -39.2725   -8.1962 C   0  0  0  0  0  0  0  0  0  0  0  0
  -22.8207  -40.4412   -7.9457 C   0  0  0  0  0  0  0  0  0  0  0  0
  -22.6323  -38.4192   -9.3129 C   0  0  0  0  0  0  0  0  0  0  0  0
  -23.9118  -38.7109   -9.6740 F   0  0  0  0  0  0  0  0  0  0  0  0
  -22.5169  -37.1090   -8.8840 F   0  0  0  0  0  0  0  0  0  0  0  0
  -21.7511  -38.5731  -10.3836 F   0  0  0  0  0  0  0  0  0  0  0  0
  1  2  1  0
  2  3  1  0
  3  4  1  0
  4  5  2  0
  5  6  1  0
  6  7  1  0
  7  8  1  0
  8  9  1  0
  9 10  1  0
 10 11  1  1
 10 12  1  0
 12 13  1  6
 13 14  1  0
 14 15  1  6
 14 16  1  0
 16 17  1  0
 17 18  1  0
 18 19  1  0
 19 20  1  0
 20 21  1  0
 21 22  1  0
 22 23  1  0
 23 24  1  0
 24 25  2  0
 25 26  1  0
 26 27  2  0
 27 28  1  0
 28 29  2  0
 26 30  1  0
 30 31  2  0
 30 32  1  0
  6 33  2  0
 33 34  1  0
 34 35  2  0
 34 36  1  0
 36 37  1  0
 36 38  1  0
 36 39  1  0
 29 24  1  0
 32 12  1  0
 35  4  1  0
M  END
$$$$
