
     RDKit          3D

 39 41  0  0  0  0  0  0  0  0999 V2000
  -23.5505  -38.8727   -3.2206 C   0  0  0  0  0  0  0  0  0  0  0  0
  -23.6185  -40.1804   -3.9373 C   0  0  0  0  0  0  0  0  0  0  0  0
  -23.8522  -40.0865   -5.3067 O   0  0  0  0  0  0  0  0  0  0  0  0
  -22.8932  -40.0229   -6.2958 C   0  0  0  0  0  0  0  0  0  0  0  0
  -21.5494  -40.0996   -5.9176 C   0  0  0  0  0  0  0  0  0  0  0  0
  -20.5350  -40.0448   -6.8363 C   0  0  0  0  0  0  0  0  0  0  0  0
  -19.1232  -40.1348   -6.3394 C   0  0  0  0  0  0  0  0  0  0  0  0
  -18.3723  -38.9832   -6.5543 N   0  0  0  0  0  0  0  0  0  0  0  0
  -17.3026  -38.8528   -7.4082 C   0  0  0  0  0  0  0  0  0  0  0  0
  -15.9334  -39.2700   -7.1343 C   0  0  1  0  0  0  0  0  0  0  0  0
  -15.6309  -39.4123   -5.7780 O   0  0  0  0  0  0  0  0  0  0  0  0
  -15.1574  -40.1548   -8.0440 C   0  0  2  0  0  0  0  0  0  0  0  0
  -13.9800  -39.3796   -8.6382 C   0  0  0  0  0  0  0  0  0  0  0  0
  -12.8027  -40.2537   -8.8496 C   0  0  2  0  0  0  0  0  0  0  0  0
  -11.5121  -39.6813   -8.2592 C   0  0  0  0  0  0  0  0  0  0  0  0
  -12.5264  -40.5132  -10.3250 C   0  0  0  0  0  0  0  0  0  0  0  0
  -11.6700  -39.4583  -10.9598 C   0  0  0  0  0  0  0  0  0  0  0  0
  -12.4070  -38.8158  -11.9419 O   0  0  0  0  0  0  0  0  0  0  0  0
  -11.7737  -38.6864  -13.1511 C   0  0  0  0  0  0  0  0  0  0  0  0
  -12.7411  -38.7506  -14.3215 C   0  0  0  0  0  0  0  0  0  0  0  0
  -13.3028  -37.4108  -14.7013 C   0  0  0  0  0  0  0  0  0  0  0  0
  -14.8057  -37.3987  -14.8316 C   0  0  0  0  0  0  0  0  0  0  0  0
  -15.4054  -36.8171  -13.6492 N   0  0  0  0  0  0  0  0  0  0  0  0
  -16.1407  -37.4076  -12.5790 C   0  0  0  0  0  0  0  0  0  0  0  0
  -15.9556  -38.5673  -11.8638 C   0  0  0  0  0  0  0  0  0  0  0  0
  -16.8461  -38.8785  -10.8582 C   0  0  0  0  0  0  0  0  0  0  0  0
  -17.9256  -38.0035  -10.5859 C   0  0  0  0  0  0  0  0  0  0  0  0
  -18.1466  -36.8379  -11.2731 C   0  0  0  0  0  0  0  0  0  0  0  0
  -17.2424  -36.5679  -12.2580 C   0  0  0  0  0  0  0  0  0  0  0  0
  -16.9117  -40.0323   -9.9437 C   0  0  0  0  0  0  0  0  0  0  0  0
  -18.1113  -40.6102   -9.8137 O   0  0  0  0  0  0  0  0  0  0  0  0
  -15.9595  -40.6867   -9.1460 N   0  0  0  0  0  0  0  0  0  0  0  0
  -20.8302  -39.9107   -8.1731 C   0  0  0  0  0  0  0  0  0  0  0  0
  -22.1525  -39.8353   -8.5445 C   0  0  0  0  0  0  0  0  0  0  0  0
  -23.1802  -39.8898   -7.6234 C   0  0  0  0  0  0  0  0  0  0  0  0
  -22.5419  -39.6875   -9.9782 C   0  0  0  0  0  0  0  0  0  0  0  0
  -22.9607  -38.4310  -10.2920 F   0  0  0  0  0  0  0  0  0  0  0  0
  -21.4326  -40.0486  -10.7218 F   0  0  0  0  0  0  0  0  0  0  0  0
  -23.5305  -40.6364  -10.2403 F   0  0  0  0  0  0  0  0  0  0  0  0
  1  2  1  0
  2  3  1  0
  3  4  1  0
  4  5  2  0
  5  6  1  0
  6  7  1  0
  7  8  1  0
  8  9  1  0
  9 10  1  0
 10 11  1  1
 10 12  1  0
 12 13  1  6
 13 14  1  0
 14 15  1  6
 14 16  1  0
 16 17  1  0
 17 18  1  0
 18 19  1  0
 19 20  1  0
 20 21  1  0
 21 22  1  0
 22 23  1  0
 23 24  1  0
 24 25  2  0
 25 26  1  0
 26 27  2  0
 27 28  1  0
 28 29  2  0
 26 30  1  0
 30 31  2  0
 30 32  1  0
  6 33  2  0
 33 34  1  0
 34 35  2  0
 34 36  1  0
 36 37  1  0
 36 38  1  0
 36 39  1  0
 29 24  1  0
 32 12  1  0
 35  4  1  0
M  END
$$$$
