
     RDKit          3D

 39 41  0  0  0  0  0  0  0  0999 V2000
  -22.7440  -41.2869  -12.2888 C   0  0  0  0  0  0  0  0  0  0  0  0
  -22.9666  -41.1063  -10.8238 C   0  0  0  0  0  0  0  0  0  0  0  0
  -21.8062  -40.9567  -10.0689 O   0  0  0  0  0  0  0  0  0  0  0  0
  -21.7397  -40.7454   -8.7076 C   0  0  0  0  0  0  0  0  0  0  0  0
  -20.8175  -39.8095   -8.2297 C   0  0  0  0  0  0  0  0  0  0  0  0
  -20.6874  -39.5392   -6.8933 C   0  0  0  0  0  0  0  0  0  0  0  0
  -19.6720  -38.5199   -6.4719 C   0  0  0  0  0  0  0  0  0  0  0  0
  -18.3588  -38.8718   -6.7685 N   0  0  0  0  0  0  0  0  0  0  0  0
  -17.3801  -38.0390   -7.2572 C   0  0  0  0  0  0  0  0  0  0  0  0
  -16.0836  -38.4549   -7.7768 C   0  0  1  0  0  0  0  0  0  0  0  0
  -15.0800  -37.4889   -7.6719 O   0  0  0  0  0  0  0  0  0  0  0  0
  -15.6041  -39.8621   -7.7299 C   0  0  2  0  0  0  0  0  0  0  0  0
  -14.1870  -39.9443   -8.3003 C   0  0  0  0  0  0  0  0  0  0  0  0
  -13.3828  -40.9828   -7.6152 C   0  0  2  0  0  0  0  0  0  0  0  0
  -12.0220  -40.4733   -7.1347 C   0  0  0  0  0  0  0  0  0  0  0  0
  -13.1048  -42.1870   -8.5058 C   0  0  0  0  0  0  0  0  0  0  0  0
  -11.8847  -42.0192   -9.3617 C   0  0  0  0  0  0  0  0  0  0  0  0
  -12.2696  -42.0192  -10.6931 O   0  0  0  0  0  0  0  0  0  0  0  0
  -11.5414  -42.8478  -11.5074 C   0  0  0  0  0  0  0  0  0  0  0  0
  -12.3769  -43.4334  -12.6339 C   0  0  0  0  0  0  0  0  0  0  0  0
  -12.3974  -42.5748  -13.8656 C   0  0  0  0  0  0  0  0  0  0  0  0
  -13.7842  -42.3130  -14.3987 C   0  0  0  0  0  0  0  0  0  0  0  0
  -14.2274  -40.9904  -14.0111 N   0  0  0  0  0  0  0  0  0  0  0  0
  -15.2033  -40.5653  -13.0615 C   0  0  0  0  0  0  0  0  0  0  0  0
  -15.4956  -40.9913  -11.7872 C   0  0  0  0  0  0  0  0  0  0  0  0
  -16.5124  -40.3692  -11.0942 C   0  0  0  0  0  0  0  0  0  0  0  0
  -17.2297  -39.3127  -11.7058 C   0  0  0  0  0  0  0  0  0  0  0  0
  -16.9709  -38.8563  -12.9725 C   0  0  0  0  0  0  0  0  0  0  0  0
  -15.9576  -39.4980  -13.6218 C   0  0  0  0  0  0  0  0  0  0  0  0
  -17.0515  -40.6060   -9.7432 C   0  0  0  0  0  0  0  0  0  0  0  0
  -18.3841  -40.6748   -9.6472 O   0  0  0  0  0  0  0  0  0  0  0  0
  -16.4561  -40.7820   -8.4839 N   0  0  0  0  0  0  0  0  0  0  0  0
  -21.4795  -40.1991   -5.9825 C   0  0  0  0  0  0  0  0  0  0  0  0
  -22.3865  -41.1198   -6.4534 C   0  0  0  0  0  0  0  0  0  0  0  0
  -22.5227  -41.3970   -7.7995 C   0  0  0  0  0  0  0  0  0  0  0  0
  -23.2751  -41.8720   -5.5188 C   0  0  0  0  0  0  0  0  0  0  0  0
  -23.7614  -43.0249   -6.0545 F   0  0  0  0  0  0  0  0  0  0  0  0
  -22.5240  -42.1218   -4.3842 F   0  0  0  0  0  0  0  0  0  0  0  0
  -24.3048  -41.0101   -5.1401 F   0  0  0  0  0  0  0  0  0  0  0  0
  1  2  1  0
  2  3  1  0
  3  4  1  0
  4  5  2  0
  5  6  1  0
  6  7  1  0
  7  8  1  0
  8  9  1  0
  9 10  1  0
 10 11  1  1
 10 12  1  0
 12 13  1  6
 13 14  1  0
 14 15  1  6
 14 16  1  0
 16 17  1  0
 17 18  1  0
 18 19  1  0
 19 20  1  0
 20 21  1  0
 21 22  1  0
 22 23  1  0
 23 24  1  0
 24 25  2  0
 25 26  1  0
 26 27  2  0
 27 28  1  0
 28 29  2  0
 26 30  1  0
 30 31  2  0
 30 32  1  0
  6 33  2  0
 33 34  1  0
 34 35  2  0
 34 36  1  0
 36 37  1  0
 36 38  1  0
 36 39  1  0
 29 24  1  0
 32 12  1  0
 35  4  1  0
M  END
$$$$
