
     RDKit          3D

 39 41  0  0  0  0  0  0  0  0999 V2000
  -20.2992  -35.3256  -12.5121 C   0  0  0  0  0  0  0  0  0  0  0  0
  -18.8117  -35.2017  -12.5331 C   0  0  0  0  0  0  0  0  0  0  0  0
  -18.1239  -36.3237  -12.0786 O   0  0  0  0  0  0  0  0  0  0  0  0
  -16.7541  -36.4673  -12.0058 C   0  0  0  0  0  0  0  0  0  0  0  0
  -16.1926  -36.8237  -10.7760 C   0  0  0  0  0  0  0  0  0  0  0  0
  -14.8421  -36.9873  -10.6174 C   0  0  0  0  0  0  0  0  0  0  0  0
  -14.3289  -37.3705   -9.2618 C   0  0  0  0  0  0  0  0  0  0  0  0
  -14.4771  -38.7209   -8.9606 N   0  0  0  0  0  0  0  0  0  0  0  0
  -15.6548  -39.4303   -8.9458 C   0  0  0  0  0  0  0  0  0  0  0  0
  -16.5686  -39.5481   -7.8166 C   0  0  1  0  0  0  0  0  0  0  0  0
  -16.0827  -39.0164   -6.6197 O   0  0  0  0  0  0  0  0  0  0  0  0
  -18.0483  -39.5092   -7.9627 C   0  0  2  0  0  0  0  0  0  0  0  0
  -18.7085  -39.8735   -6.6317 C   0  0  0  0  0  0  0  0  0  0  0  0
  -19.9787  -39.1372   -6.4335 C   0  0  2  0  0  0  0  0  0  0  0  0
  -20.0662  -38.4392   -5.0744 C   0  0  0  0  0  0  0  0  0  0  0  0
  -21.1995  -40.0427   -6.5349 C   0  0  0  0  0  0  0  0  0  0  0  0
  -21.5537  -40.7039   -5.2362 C   0  0  0  0  0  0  0  0  0  0  0  0
  -21.4087  -42.0748   -5.3787 O   0  0  0  0  0  0  0  0  0  0  0  0
  -22.4703  -42.8198   -4.9337 C   0  0  0  0  0  0  0  0  0  0  0  0
  -22.6733  -44.0849   -5.7512 C   0  0  0  0  0  0  0  0  0  0  0  0
  -21.8932  -45.2582   -5.2324 C   0  0  0  0  0  0  0  0  0  0  0  0
  -21.0917  -45.9702   -6.2939 C   0  0  0  0  0  0  0  0  0  0  0  0
  -19.7000  -45.5790   -6.2162 N   0  0  0  0  0  0  0  0  0  0  0  0
  -18.9040  -44.7579   -7.0687 C   0  0  0  0  0  0  0  0  0  0  0  0
  -19.1610  -43.5640   -7.7005 C   0  0  0  0  0  0  0  0  0  0  0  0
  -18.1709  -42.9916   -8.4706 C   0  0  0  0  0  0  0  0  0  0  0  0
  -16.9191  -43.6417   -8.5944 C   0  0  0  0  0  0  0  0  0  0  0  0
  -16.6204  -44.8314   -7.9817 C   0  0  0  0  0  0  0  0  0  0  0  0
  -17.6267  -45.3621   -7.2294 C   0  0  0  0  0  0  0  0  0  0  0  0
  -18.1536  -41.7471   -9.2597 C   0  0  0  0  0  0  0  0  0  0  0  0
  -17.6701  -41.8476  -10.5031 O   0  0  0  0  0  0  0  0  0  0  0  0
  -18.5460  -40.4267   -8.9879 N   0  0  0  0  0  0  0  0  0  0  0  0
  -14.0005  -36.7993  -11.6892 C   0  0  0  0  0  0  0  0  0  0  0  0
  -14.5536  -36.4486  -12.8989 C   0  0  0  0  0  0  0  0  0  0  0  0
  -15.9144  -36.2821  -13.0656 C   0  0  0  0  0  0  0  0  0  0  0  0
  -13.6969  -36.2279  -14.1015 C   0  0  0  0  0  0  0  0  0  0  0  0
  -14.3675  -35.6548  -15.1381 F   0  0  0  0  0  0  0  0  0  0  0  0
  -12.6405  -35.4367  -13.6868 F   0  0  0  0  0  0  0  0  0  0  0  0
  -13.1592  -37.4640  -14.4614 F   0  0  0  0  0  0  0  0  0  0  0  0
  1  2  1  0
  2  3  1  0
  3  4  1  0
  4  5  2  0
  5  6  1  0
  6  7  1  0
  7  8  1  0
  8  9  1  0
  9 10  1  0
 10 11  1  1
 10 12  1  0
 12 13  1  1
 13 14  1  0
 14 15  1  1
 14 16  1  0
 16 17  1  0
 17 18  1  0
 18 19  1  0
 19 20  1  0
 20 21  1  0
 21 22  1  0
 22 23  1  0
 23 24  1  0
 24 25  2  0
 25 26  1  0
 26 27  2  0
 27 28  1  0
 28 29  2  0
 26 30  1  0
 30 31  2  0
 30 32  1  0
  6 33  2  0
 33 34  1  0
 34 35  2  0
 34 36  1  0
 36 37  1  0
 36 38  1  0
 36 39  1  0
 29 24  1  0
 32 12  1  0
 35  4  1  0
M  END
$$$$
