
     RDKit          3D

 39 41  0  0  0  0  0  0  0  0999 V2000
  -23.8007  -42.3065  -10.9805 C   0  0  0  0  0  0  0  0  0  0  0  0
  -23.6634  -41.7863   -9.5880 C   0  0  0  0  0  0  0  0  0  0  0  0
  -22.3818  -41.3647   -9.2439 O   0  0  0  0  0  0  0  0  0  0  0  0
  -22.0008  -40.8104   -8.0398 C   0  0  0  0  0  0  0  0  0  0  0  0
  -21.1938  -39.6691   -8.0650 C   0  0  0  0  0  0  0  0  0  0  0  0
  -20.7714  -39.0561   -6.9153 C   0  0  0  0  0  0  0  0  0  0  0  0
  -19.9082  -37.8364   -7.0384 C   0  0  0  0  0  0  0  0  0  0  0  0
  -18.5434  -38.1070   -7.0531 N   0  0  0  0  0  0  0  0  0  0  0  0
  -17.8394  -38.7027   -8.0729 C   0  0  0  0  0  0  0  0  0  0  0  0
  -16.4194  -39.0300   -8.0550 C   0  0  1  0  0  0  0  0  0  0  0  0
  -15.7170  -38.5045   -6.9679 O   0  0  0  0  0  0  0  0  0  0  0  0
  -15.8734  -40.3038   -8.5953 C   0  0  2  0  0  0  0  0  0  0  0  0
  -14.3537  -40.3290   -8.4222 C   0  0  0  0  0  0  0  0  0  0  0  0
  -13.8569  -41.7007   -8.1645 C   0  0  2  0  0  0  0  0  0  0  0  0
  -12.9364  -41.7903   -6.9453 C   0  0  0  0  0  0  0  0  0  0  0  0
  -13.0736  -42.2679   -9.3415 C   0  0  0  0  0  0  0  0  0  0  0  0
  -11.6205  -41.8977   -9.3170 C   0  0  0  0  0  0  0  0  0  0  0  0
  -11.3404  -41.1137  -10.4249 O   0  0  0  0  0  0  0  0  0  0  0  0
  -10.2356  -41.4957  -11.1416 C   0  0  0  0  0  0  0  0  0  0  0  0
  -10.3861  -41.2204  -12.6287 C   0  0  0  0  0  0  0  0  0  0  0  0
   -9.9211  -39.8498  -13.0285 C   0  0  0  0  0  0  0  0  0  0  0  0
  -10.9202  -39.0914  -13.8667 C   0  0  0  0  0  0  0  0  0  0  0  0
  -11.6274  -38.1269  -13.0511 N   0  0  0  0  0  0  0  0  0  0  0  0
  -12.9709  -38.1038  -12.5723 C   0  0  0  0  0  0  0  0  0  0  0  0
  -13.7758  -39.0827  -12.0388 C   0  0  0  0  0  0  0  0  0  0  0  0
  -15.0566  -38.7525  -11.6493 C   0  0  0  0  0  0  0  0  0  0  0  0
  -15.5129  -37.4214  -11.8069 C   0  0  0  0  0  0  0  0  0  0  0  0
  -14.7442  -36.4152  -12.3328 C   0  0  0  0  0  0  0  0  0  0  0  0
  -13.4848  -36.7845  -12.7040 C   0  0  0  0  0  0  0  0  0  0  0  0
  -16.1337  -39.5707  -11.0645 C   0  0  0  0  0  0  0  0  0  0  0  0
  -17.3431  -39.4316  -11.6193 O   0  0  0  0  0  0  0  0  0  0  0  0
  -16.1769  -40.5002  -10.0131 N   0  0  0  0  0  0  0  0  0  0  0  0
  -21.1432  -39.5658   -5.6929 C   0  0  0  0  0  0  0  0  0  0  0  0
  -21.9371  -40.6889   -5.6689 C   0  0  0  0  0  0  0  0  0  0  0  0
  -22.3665  -41.3118   -6.8244 C   0  0  0  0  0  0  0  0  0  0  0  0
  -22.3750  -41.2940   -4.3763 C   0  0  0  0  0  0  0  0  0  0  0  0
  -23.5248  -40.7491   -3.8929 F   0  0  0  0  0  0  0  0  0  0  0  0
  -22.5205  -42.6497   -4.6108 F   0  0  0  0  0  0  0  0  0  0  0  0
  -21.3219  -41.1509   -3.4724 F   0  0  0  0  0  0  0  0  0  0  0  0
  1  2  1  0
  2  3  1  0
  3  4  1  0
  4  5  2  0
  5  6  1  0
  6  7  1  0
  7  8  1  0
  8  9  1  0
  9 10  1  0
 10 11  1  1
 10 12  1  0
 12 13  1  6
 13 14  1  0
 14 15  1  1
 14 16  1  0
 16 17  1  0
 17 18  1  0
 18 19  1  0
 19 20  1  0
 20 21  1  0
 21 22  1  0
 22 23  1  0
 23 24  1  0
 24 25  2  0
 25 26  1  0
 26 27  2  0
 27 28  1  0
 28 29  2  0
 26 30  1  0
 30 31  2  0
 30 32  1  0
  6 33  2  0
 33 34  1  0
 34 35  2  0
 34 36  1  0
 36 37  1  0
 36 38  1  0
 36 39  1  0
 29 24  1  0
 32 12  1  0
 35  4  1  0
M  END
$$$$
