
     RDKit          3D

 39 41  0  0  0  0  0  0  0  0999 V2000
  -10.3926  -38.0606  -13.1373 C   0  0  0  0  0  0  0  0  0  0  0  0
  -11.6307  -37.8535  -13.9452 C   0  0  0  0  0  0  0  0  0  0  0  0
  -12.1686  -36.5712  -13.8746 O   0  0  0  0  0  0  0  0  0  0  0  0
  -12.9583  -36.0721  -12.8599 C   0  0  0  0  0  0  0  0  0  0  0  0
  -13.1224  -36.8487  -11.7090 C   0  0  0  0  0  0  0  0  0  0  0  0
  -13.8891  -36.4274  -10.6551 C   0  0  0  0  0  0  0  0  0  0  0  0
  -14.0081  -37.3266   -9.4613 C   0  0  0  0  0  0  0  0  0  0  0  0
  -15.2763  -37.3435   -8.8888 N   0  0  0  0  0  0  0  0  0  0  0  0
  -16.4518  -37.6817   -9.5167 C   0  0  0  0  0  0  0  0  0  0  0  0
  -17.5709  -38.3931   -8.9121 C   0  0  1  0  0  0  0  0  0  0  0  0
  -18.5658  -37.5668   -8.3841 O   0  0  0  0  0  0  0  0  0  0  0  0
  -18.0488  -39.7156   -9.3967 C   0  0  2  0  0  0  0  0  0  0  0  0
  -19.5776  -39.7256   -9.4471 C   0  0  0  0  0  0  0  0  0  0  0  0
  -20.0809  -40.5542  -10.5674 C   0  0  2  0  0  0  0  0  0  0  0  0
  -21.1115  -39.8312  -11.4375 C   0  0  0  0  0  0  0  0  0  0  0  0
  -20.7428  -41.8404  -10.0899 C   0  0  0  0  0  0  0  0  0  0  0  0
  -22.1959  -41.6695   -9.7604 C   0  0  0  0  0  0  0  0  0  0  0  0
  -22.3789  -41.9121   -8.4082 O   0  0  0  0  0  0  0  0  0  0  0  0
  -23.4065  -42.7681   -8.1063 C   0  0  0  0  0  0  0  0  0  0  0  0
  -23.1192  -43.6050   -6.8706 C   0  0  0  0  0  0  0  0  0  0  0  0
  -23.5599  -42.9489   -5.5939 C   0  0  0  0  0  0  0  0  0  0  0  0
  -22.4947  -42.9248   -4.5258 C   0  0  0  0  0  0  0  0  0  0  0  0
  -21.8789  -41.6161   -4.4633 N   0  0  0  0  0  0  0  0  0  0  0  0
  -20.5871  -41.1635   -4.8645 C   0  0  0  0  0  0  0  0  0  0  0  0
  -19.8251  -41.4228   -5.9793 C   0  0  0  0  0  0  0  0  0  0  0  0
  -18.5908  -40.8197   -6.0971 C   0  0  0  0  0  0  0  0  0  0  0  0
  -18.1368  -39.9528   -5.0737 C   0  0  0  0  0  0  0  0  0  0  0  0
  -18.8637  -39.6662   -3.9471 C   0  0  0  0  0  0  0  0  0  0  0  0
  -20.0781  -40.2824   -3.8711 C   0  0  0  0  0  0  0  0  0  0  0  0
  -17.5646  -40.9088   -7.1509 C   0  0  0  0  0  0  0  0  0  0  0  0
  -16.3097  -41.1090   -6.7323 O   0  0  0  0  0  0  0  0  0  0  0  0
  -17.6103  -40.8268   -8.5518 N   0  0  0  0  0  0  0  0  0  0  0  0
  -14.5223  -35.2078  -10.7153 C   0  0  0  0  0  0  0  0  0  0  0  0
  -14.3605  -34.4442  -11.8480 C   0  0  0  0  0  0  0  0  0  0  0  0
  -13.5889  -34.8630  -12.9142 C   0  0  0  0  0  0  0  0  0  0  0  0
  -15.0212  -33.1118  -11.9787 C   0  0  0  0  0  0  0  0  0  0  0  0
  -14.2891  -32.0969  -11.4433 F   0  0  0  0  0  0  0  0  0  0  0  0
  -15.2389  -32.9164  -13.3308 F   0  0  0  0  0  0  0  0  0  0  0  0
  -16.2763  -33.2094  -11.3772 F   0  0  0  0  0  0  0  0  0  0  0  0
  1  2  1  0
  2  3  1  0
  3  4  1  0
  4  5  2  0
  5  6  1  0
  6  7  1  0
  7  8  1  0
  8  9  1  0
  9 10  1  0
 10 11  1  6
 10 12  1  0
 12 13  1  1
 13 14  1  0
 14 15  1  1
 14 16  1  0
 16 17  1  0
 17 18  1  0
 18 19  1  0
 19 20  1  0
 20 21  1  0
 21 22  1  0
 22 23  1  0
 23 24  1  0
 24 25  2  0
 25 26  1  0
 26 27  2  0
 27 28  1  0
 28 29  2  0
 26 30  1  0
 30 31  2  0
 30 32  1  0
  6 33  2  0
 33 34  1  0
 34 35  2  0
 34 36  1  0
 36 37  1  0
 36 38  1  0
 36 39  1  0
 29 24  1  0
 32 12  1  0
 35  4  1  0
M  END
$$$$
