
     RDKit          3D

 39 41  0  0  0  0  0  0  0  0999 V2000
  -25.3197  -39.7127  -10.6570 C   0  0  0  0  0  0  0  0  0  0  0  0
  -24.1413  -39.4190   -9.7890 C   0  0  0  0  0  0  0  0  0  0  0  0
  -23.8618  -40.3910   -8.8321 O   0  0  0  0  0  0  0  0  0  0  0  0
  -22.8480  -40.3489   -7.8979 C   0  0  0  0  0  0  0  0  0  0  0  0
  -21.8681  -39.3608   -8.0320 C   0  0  0  0  0  0  0  0  0  0  0  0
  -20.8279  -39.2486   -7.1481 C   0  0  0  0  0  0  0  0  0  0  0  0
  -19.8233  -38.1581   -7.3704 C   0  0  0  0  0  0  0  0  0  0  0  0
  -18.8116  -38.4933   -8.2650 N   0  0  0  0  0  0  0  0  0  0  0  0
  -18.0209  -39.6172   -8.2206 C   0  0  0  0  0  0  0  0  0  0  0  0
  -16.5794  -39.6414   -8.0076 C   0  0  1  0  0  0  0  0  0  0  0  0
  -16.1258  -38.7726   -7.0122 O   0  0  0  0  0  0  0  0  0  0  0  0
  -15.7516  -40.8628   -8.1960 C   0  0  2  0  0  0  0  0  0  0  0  0
  -14.2697  -40.4841   -8.2178 C   0  0  0  0  0  0  0  0  0  0  0  0
  -13.4270  -41.5442   -7.6172 C   0  0  2  0  0  0  0  0  0  0  0  0
  -12.4582  -41.0168   -6.5564 C   0  0  0  0  0  0  0  0  0  0  0  0
  -12.5806  -42.2732   -8.6529 C   0  0  0  0  0  0  0  0  0  0  0  0
  -11.2710  -41.5960   -8.9278 C   0  0  0  0  0  0  0  0  0  0  0  0
  -11.2530  -41.1778  -10.2489 O   0  0  0  0  0  0  0  0  0  0  0  0
  -10.1220  -41.5127  -10.9480 C   0  0  0  0  0  0  0  0  0  0  0  0
  -10.4073  -41.7831  -12.4161 C   0  0  0  0  0  0  0  0  0  0  0  0
  -10.3276  -40.5524  -13.2726 C   0  0  0  0  0  0  0  0  0  0  0  0
  -11.5255  -40.3594  -14.1691 C   0  0  0  0  0  0  0  0  0  0  0  0
  -12.4170  -39.3675  -13.6057 N   0  0  0  0  0  0  0  0  0  0  0  0
  -13.6977  -39.4940  -12.9906 C   0  0  0  0  0  0  0  0  0  0  0  0
  -14.1996  -40.3988  -12.0850 C   0  0  0  0  0  0  0  0  0  0  0  0
  -15.5026  -40.2587  -11.6562 C   0  0  0  0  0  0  0  0  0  0  0  0
  -16.2911  -39.1937  -12.1551 C   0  0  0  0  0  0  0  0  0  0  0  0
  -15.8308  -38.2696  -13.0575 C   0  0  0  0  0  0  0  0  0  0  0  0
  -14.5376  -38.4443  -13.4542 C   0  0  0  0  0  0  0  0  0  0  0  0
  -16.3059  -41.0611  -10.7169 C   0  0  0  0  0  0  0  0  0  0  0  0
  -17.5353  -41.3904  -11.1294 O   0  0  0  0  0  0  0  0  0  0  0  0
  -16.0607  -41.5776   -9.4346 N   0  0  0  0  0  0  0  0  0  0  0  0
  -20.7304  -40.1256   -6.0928 C   0  0  0  0  0  0  0  0  0  0  0  0
  -21.6949  -41.0976   -5.9614 C   0  0  0  0  0  0  0  0  0  0  0  0
  -22.7462  -41.2162   -6.8492 C   0  0  0  0  0  0  0  0  0  0  0  0
  -21.6476  -42.0819   -4.8400 C   0  0  0  0  0  0  0  0  0  0  0  0
  -22.4998  -41.7763   -3.8236 F   0  0  0  0  0  0  0  0  0  0  0  0
  -21.9446  -43.3152   -5.3919 F   0  0  0  0  0  0  0  0  0  0  0  0
  -20.3259  -42.1448   -4.3976 F   0  0  0  0  0  0  0  0  0  0  0  0
  1  2  1  0
  2  3  1  0
  3  4  1  0
  4  5  2  0
  5  6  1  0
  6  7  1  0
  7  8  1  0
  8  9  1  0
  9 10  1  0
 10 11  1  1
 10 12  1  0
 12 13  1  6
 13 14  1  0
 14 15  1  1
 14 16  1  0
 16 17  1  0
 17 18  1  0
 18 19  1  0
 19 20  1  0
 20 21  1  0
 21 22  1  0
 22 23  1  0
 23 24  1  0
 24 25  2  0
 25 26  1  0
 26 27  2  0
 27 28  1  0
 28 29  2  0
 26 30  1  0
 30 31  2  0
 30 32  1  0
  6 33  2  0
 33 34  1  0
 34 35  2  0
 34 36  1  0
 36 37  1  0
 36 38  1  0
 36 39  1  0
 29 24  1  0
 32 12  1  0
 35  4  1  0
M  END
$$$$
