
     RDKit          3D

 39 41  0  0  0  0  0  0  0  0999 V2000
  -24.3992  -41.3501   -2.4091 C   0  0  0  0  0  0  0  0  0  0  0  0
  -23.2624  -41.1868   -3.3628 C   0  0  0  0  0  0  0  0  0  0  0  0
  -23.5835  -40.5356   -4.5509 O   0  0  0  0  0  0  0  0  0  0  0  0
  -22.7073  -40.2072   -5.5641 C   0  0  0  0  0  0  0  0  0  0  0  0
  -21.4126  -40.7322   -5.5125 C   0  0  0  0  0  0  0  0  0  0  0  0
  -20.4810  -40.4565   -6.4780 C   0  0  0  0  0  0  0  0  0  0  0  0
  -19.1171  -41.0637   -6.3408 C   0  0  0  0  0  0  0  0  0  0  0  0
  -18.1431  -40.4523   -7.1242 N   0  0  0  0  0  0  0  0  0  0  0  0
  -17.1319  -39.6337   -6.6795 C   0  0  0  0  0  0  0  0  0  0  0  0
  -15.9948  -39.1737   -7.4664 C   0  0  1  0  0  0  0  0  0  0  0  0
  -15.1826  -38.2388   -6.8200 O   0  0  0  0  0  0  0  0  0  0  0  0
  -15.2925  -40.0331   -8.4567 C   0  0  2  0  0  0  0  0  0  0  0  0
  -13.9129  -39.4472   -8.7626 C   0  0  0  0  0  0  0  0  0  0  0  0
  -12.9164  -40.5100   -9.0312 C   0  0  2  0  0  0  0  0  0  0  0  0
  -11.6324  -40.3544   -8.2133 C   0  0  0  0  0  0  0  0  0  0  0  0
  -12.4950  -40.5580  -10.4943 C   0  0  0  0  0  0  0  0  0  0  0  0
  -11.3650  -39.6251  -10.8142 C   0  0  0  0  0  0  0  0  0  0  0  0
  -11.8146  -38.6702  -11.7123 O   0  0  0  0  0  0  0  0  0  0  0  0
  -11.0062  -38.4725  -12.8019 C   0  0  0  0  0  0  0  0  0  0  0  0
  -11.7944  -38.1100  -14.0498 C   0  0  0  0  0  0  0  0  0  0  0  0
  -12.0183  -36.6330  -14.2020 C   0  0  0  0  0  0  0  0  0  0  0  0
  -13.4554  -36.2628  -14.4735 C   0  0  0  0  0  0  0  0  0  0  0  0
  -14.0853  -35.7819  -13.2620 N   0  0  0  0  0  0  0  0  0  0  0  0
  -15.0655  -36.3741  -12.4116 C   0  0  0  0  0  0  0  0  0  0  0  0
  -15.2175  -37.6541  -11.9328 C   0  0  0  0  0  0  0  0  0  0  0  0
  -16.2834  -37.9325  -11.1037 C   0  0  0  0  0  0  0  0  0  0  0  0
  -17.1932  -36.9015  -10.7659 C   0  0  0  0  0  0  0  0  0  0  0  0
  -17.0788  -35.6128  -11.2198 C   0  0  0  0  0  0  0  0  0  0  0  0
  -16.0108  -35.3805  -12.0358 C   0  0  0  0  0  0  0  0  0  0  0  0
  -16.7050  -39.1863  -10.4541 C   0  0  0  0  0  0  0  0  0  0  0  0
  -18.0021  -39.4957  -10.5625 O   0  0  0  0  0  0  0  0  0  0  0  0
  -16.0234  -40.1679   -9.7170 N   0  0  0  0  0  0  0  0  0  0  0  0
  -20.8133  -39.6415   -7.5352 C   0  0  0  0  0  0  0  0  0  0  0  0
  -22.0873  -39.1253   -7.5853 C   0  0  0  0  0  0  0  0  0  0  0  0
  -23.0314  -39.3992   -6.6152 C   0  0  0  0  0  0  0  0  0  0  0  0
  -22.5125  -38.2328   -8.7041 C   0  0  0  0  0  0  0  0  0  0  0  0
  -21.9934  -38.5996   -9.9078 F   0  0  0  0  0  0  0  0  0  0  0  0
  -23.8955  -38.2634   -8.7222 F   0  0  0  0  0  0  0  0  0  0  0  0
  -22.1414  -36.9321   -8.3622 F   0  0  0  0  0  0  0  0  0  0  0  0
  1  2  1  0
  2  3  1  0
  3  4  1  0
  4  5  2  0
  5  6  1  0
  6  7  1  0
  7  8  1  0
  8  9  1  0
  9 10  1  0
 10 11  1  1
 10 12  1  0
 12 13  1  6
 13 14  1  0
 14 15  1  1
 14 16  1  0
 16 17  1  0
 17 18  1  0
 18 19  1  0
 19 20  1  0
 20 21  1  0
 21 22  1  0
 22 23  1  0
 23 24  1  0
 24 25  2  0
 25 26  1  0
 26 27  2  0
 27 28  1  0
 28 29  2  0
 26 30  1  0
 30 31  2  0
 30 32  1  0
  6 33  2  0
 33 34  1  0
 34 35  2  0
 34 36  1  0
 36 37  1  0
 36 38  1  0
 36 39  1  0
 29 24  1  0
 32 12  1  0
 35  4  1  0
M  END
$$$$
