
     RDKit          3D

 39 41  0  0  0  0  0  0  0  0999 V2000
  -26.0835  -37.3135   -5.8557 C   0  0  0  0  0  0  0  0  0  0  0  0
  -24.8867  -38.0910   -6.2935 C   0  0  0  0  0  0  0  0  0  0  0  0
  -24.2032  -38.7404   -5.2690 O   0  0  0  0  0  0  0  0  0  0  0  0
  -23.0700  -39.5145   -5.4065 C   0  0  0  0  0  0  0  0  0  0  0  0
  -22.2702  -39.3181   -6.5363 C   0  0  0  0  0  0  0  0  0  0  0  0
  -21.1283  -40.0439   -6.7494 C   0  0  0  0  0  0  0  0  0  0  0  0
  -20.3325  -39.7652   -7.9891 C   0  0  0  0  0  0  0  0  0  0  0  0
  -19.0002  -39.4448   -7.7472 N   0  0  0  0  0  0  0  0  0  0  0  0
  -17.9643  -39.5237   -8.6478 C   0  0  0  0  0  0  0  0  0  0  0  0
  -16.5654  -39.2225   -8.3715 C   0  0  1  0  0  0  0  0  0  0  0  0
  -16.3456  -38.5369   -7.1743 O   0  0  0  0  0  0  0  0  0  0  0  0
  -15.4455  -40.1008   -8.8035 C   0  0  2  0  0  0  0  0  0  0  0  0
  -14.1122  -39.3840   -8.5832 C   0  0  0  0  0  0  0  0  0  0  0  0
  -13.0368  -40.3338   -8.2142 C   0  0  2  0  0  0  0  0  0  0  0  0
  -12.2610  -39.9117   -6.9644 C   0  0  0  0  0  0  0  0  0  0  0  0
  -12.0081  -40.5098   -9.3239 C   0  0  0  0  0  0  0  0  0  0  0  0
  -10.9131  -39.4858   -9.2817 C   0  0  0  0  0  0  0  0  0  0  0  0
  -10.9754  -38.7175  -10.4334 O   0  0  0  0  0  0  0  0  0  0  0  0
   -9.7814  -38.5548  -11.0875 C   0  0  0  0  0  0  0  0  0  0  0  0
   -9.9549  -38.4568  -12.5942 C   0  0  0  0  0  0  0  0  0  0  0  0
  -10.1783  -37.0523  -13.0758 C   0  0  0  0  0  0  0  0  0  0  0  0
  -11.3656  -36.9086  -13.9954 C   0  0  0  0  0  0  0  0  0  0  0  0
  -12.4956  -36.3653  -13.2718 N   0  0  0  0  0  0  0  0  0  0  0  0
  -13.7129  -36.9683  -12.8367 C   0  0  0  0  0  0  0  0  0  0  0  0
  -13.9826  -38.1870  -12.2598 C   0  0  0  0  0  0  0  0  0  0  0  0
  -15.2864  -38.4951  -11.9335 C   0  0  0  0  0  0  0  0  0  0  0  0
  -16.3130  -37.5566  -12.1986 C   0  0  0  0  0  0  0  0  0  0  0  0
  -16.0884  -36.3312  -12.7710 C   0  0  0  0  0  0  0  0  0  0  0  0
  -14.7858  -36.0665  -13.0769 C   0  0  0  0  0  0  0  0  0  0  0  0
  -15.8745  -39.7016  -11.3251 C   0  0  0  0  0  0  0  0  0  0  0  0
  -16.9673  -40.1877  -11.9247 O   0  0  0  0  0  0  0  0  0  0  0  0
  -15.5318  -40.4862  -10.2123 N   0  0  0  0  0  0  0  0  0  0  0  0
  -20.7438  -40.9970   -5.8351 C   0  0  0  0  0  0  0  0  0  0  0  0
  -21.5313  -41.1897   -4.7238 C   0  0  0  0  0  0  0  0  0  0  0  0
  -22.6838  -40.4614   -4.5029 C   0  0  0  0  0  0  0  0  0  0  0  0
  -21.1722  -42.2089   -3.6937 C   0  0  0  0  0  0  0  0  0  0  0  0
  -20.0049  -41.9315   -3.0509 F   0  0  0  0  0  0  0  0  0  0  0  0
  -22.2344  -42.2587   -2.8087 F   0  0  0  0  0  0  0  0  0  0  0  0
  -21.1214  -43.4473   -4.3342 F   0  0  0  0  0  0  0  0  0  0  0  0
  1  2  1  0
  2  3  1  0
  3  4  1  0
  4  5  2  0
  5  6  1  0
  6  7  1  0
  7  8  1  0
  8  9  1  0
  9 10  1  0
 10 11  1  1
 10 12  1  0
 12 13  1  6
 13 14  1  0
 14 15  1  1
 14 16  1  0
 16 17  1  0
 17 18  1  0
 18 19  1  0
 19 20  1  0
 20 21  1  0
 21 22  1  0
 22 23  1  0
 23 24  1  0
 24 25  2  0
 25 26  1  0
 26 27  2  0
 27 28  1  0
 28 29  2  0
 26 30  1  0
 30 31  2  0
 30 32  1  0
  6 33  2  0
 33 34  1  0
 34 35  2  0
 34 36  1  0
 36 37  1  0
 36 38  1  0
 36 39  1  0
 29 24  1  0
 32 12  1  0
 35  4  1  0
M  END
$$$$
