
     RDKit          3D

 39 41  0  0  0  0  0  0  0  0999 V2000
  -22.8200  -42.7081  -14.0268 C   0  0  0  0  0  0  0  0  0  0  0  0
  -23.2784  -41.2878  -14.0615 C   0  0  0  0  0  0  0  0  0  0  0  0
  -22.6688  -40.4526  -13.1291 O   0  0  0  0  0  0  0  0  0  0  0  0
  -21.4262  -39.8661  -13.2481 C   0  0  0  0  0  0  0  0  0  0  0  0
  -20.2980  -40.6573  -13.0121 C   0  0  0  0  0  0  0  0  0  0  0  0
  -19.0279  -40.1539  -13.1093 C   0  0  0  0  0  0  0  0  0  0  0  0
  -17.8773  -41.0762  -12.8387 C   0  0  0  0  0  0  0  0  0  0  0  0
  -17.5688  -41.2166  -11.4891 N   0  0  0  0  0  0  0  0  0  0  0  0
  -18.2134  -40.6111  -10.4363 C   0  0  0  0  0  0  0  0  0  0  0  0
  -17.8620  -40.7427   -9.0280 C   0  0  1  0  0  0  0  0  0  0  0  0
  -16.6771  -41.4429   -8.7892 O   0  0  0  0  0  0  0  0  0  0  0  0
  -18.1952  -39.7119   -8.0088 C   0  0  2  0  0  0  0  0  0  0  0  0
  -17.9000  -40.2547   -6.6095 C   0  0  0  0  0  0  0  0  0  0  0  0
  -17.4357  -39.1846   -5.6962 C   0  0  2  0  0  0  0  0  0  0  0  0
  -16.1455  -39.5415   -4.9546 C   0  0  0  0  0  0  0  0  0  0  0  0
  -18.4674  -38.8400   -4.6296 C   0  0  0  0  0  0  0  0  0  0  0  0
  -18.3734  -39.7127   -3.4135 C   0  0  0  0  0  0  0  0  0  0  0  0
  -19.5441  -40.4452   -3.2978 O   0  0  0  0  0  0  0  0  0  0  0  0
  -20.1178  -40.4291   -2.0525 C   0  0  0  0  0  0  0  0  0  0  0  0
  -21.6348  -40.5006   -2.1126 C   0  0  0  0  0  0  0  0  0  0  0  0
  -22.1630  -41.9061   -2.1156 C   0  0  0  0  0  0  0  0  0  0  0  0
  -23.1655  -42.1744   -3.2105 C   0  0  0  0  0  0  0  0  0  0  0  0
  -22.5344  -42.8839   -4.3033 N   0  0  0  0  0  0  0  0  0  0  0  0
  -22.1706  -42.4597   -5.6157 C   0  0  0  0  0  0  0  0  0  0  0  0
  -21.5856  -41.3059   -6.0820 C   0  0  0  0  0  0  0  0  0  0  0  0
  -21.3431  -41.1817   -7.4336 C   0  0  0  0  0  0  0  0  0  0  0  0
  -21.7001  -42.2376   -8.3070 C   0  0  0  0  0  0  0  0  0  0  0  0
  -22.2839  -43.4041   -7.8848 C   0  0  0  0  0  0  0  0  0  0  0  0
  -22.5051  -43.4860   -6.5414 C   0  0  0  0  0  0  0  0  0  0  0  0
  -20.7489  -40.0828   -8.2153 C   0  0  0  0  0  0  0  0  0  0  0  0
  -21.4112  -39.7249   -9.3214 O   0  0  0  0  0  0  0  0  0  0  0  0
  -19.5973  -39.2961   -8.0532 N   0  0  0  0  0  0  0  0  0  0  0  0
  -18.8402  -38.8339  -13.4480 C   0  0  0  0  0  0  0  0  0  0  0  0
  -19.9507  -38.0560  -13.6801 C   0  0  0  0  0  0  0  0  0  0  0  0
  -21.2340  -38.5573  -13.5837 C   0  0  0  0  0  0  0  0  0  0  0  0
  -19.8176  -36.6157  -14.0498 C   0  0  0  0  0  0  0  0  0  0  0  0
  -20.7328  -36.2138  -14.9738 F   0  0  0  0  0  0  0  0  0  0  0  0
  -19.9423  -35.8988  -12.8732 F   0  0  0  0  0  0  0  0  0  0  0  0
  -18.5130  -36.4221  -14.5047 F   0  0  0  0  0  0  0  0  0  0  0  0
  1  2  1  0
  2  3  1  0
  3  4  1  0
  4  5  2  0
  5  6  1  0
  6  7  1  0
  7  8  1  0
  8  9  1  0
  9 10  1  0
 10 11  1  6
 10 12  1  0
 12 13  1  1
 13 14  1  0
 14 15  1  1
 14 16  1  0
 16 17  1  0
 17 18  1  0
 18 19  1  0
 19 20  1  0
 20 21  1  0
 21 22  1  0
 22 23  1  0
 23 24  1  0
 24 25  2  0
 25 26  1  0
 26 27  2  0
 27 28  1  0
 28 29  2  0
 26 30  1  0
 30 31  2  0
 30 32  1  0
  6 33  2  0
 33 34  1  0
 34 35  2  0
 34 36  1  0
 36 37  1  0
 36 38  1  0
 36 39  1  0
 29 24  1  0
 32 12  1  0
 35  4  1  0
M  END
$$$$
