
     RDKit          3D

 39 41  0  0  0  0  0  0  0  0999 V2000
  -23.7047  -42.5249   -4.7210 C   0  0  0  0  0  0  0  0  0  0  0  0
  -22.9523  -41.3741   -5.3024 C   0  0  0  0  0  0  0  0  0  0  0  0
  -22.8504  -41.3825   -6.6910 O   0  0  0  0  0  0  0  0  0  0  0  0
  -22.2250  -40.4309   -7.4692 C   0  0  0  0  0  0  0  0  0  0  0  0
  -21.1857  -39.6906   -6.8977 C   0  0  0  0  0  0  0  0  0  0  0  0
  -20.5121  -38.7272   -7.6007 C   0  0  0  0  0  0  0  0  0  0  0  0
  -19.4110  -37.9831   -6.9065 C   0  0  0  0  0  0  0  0  0  0  0  0
  -18.5310  -37.3379   -7.7700 N   0  0  0  0  0  0  0  0  0  0  0  0
  -17.3439  -37.8380   -8.2506 C   0  0  0  0  0  0  0  0  0  0  0  0
  -16.7532  -39.1238   -7.9014 C   0  0  1  0  0  0  0  0  0  0  0  0
  -17.5000  -40.2334   -8.3042 O   0  0  0  0  0  0  0  0  0  0  0  0
  -15.2847  -39.3502   -7.8325 C   0  0  2  0  0  0  0  0  0  0  0  0
  -14.6649  -39.1447   -9.2159 C   0  0  0  0  0  0  0  0  0  0  0  0
  -13.3014  -38.5729   -9.1231 C   0  0  2  0  0  0  0  0  0  0  0  0
  -13.0990  -37.3464  -10.0157 C   0  0  0  0  0  0  0  0  0  0  0  0
  -12.2213  -39.5745   -9.5114 C   0  0  0  0  0  0  0  0  0  0  0  0
  -11.9467  -39.6047  -10.9855 C   0  0  0  0  0  0  0  0  0  0  0  0
  -12.2847  -40.8554  -11.4774 O   0  0  0  0  0  0  0  0  0  0  0  0
  -11.3325  -41.4441  -12.2692 C   0  0  0  0  0  0  0  0  0  0  0  0
  -11.3199  -42.9576  -12.1319 C   0  0  0  0  0  0  0  0  0  0  0  0
  -12.2504  -43.6479  -13.0871 C   0  0  0  0  0  0  0  0  0  0  0  0
  -13.1577  -44.6565  -12.4272 C   0  0  0  0  0  0  0  0  0  0  0  0
  -14.4795  -44.0952  -12.2436 N   0  0  0  0  0  0  0  0  0  0  0  0
  -15.1634  -43.6617  -11.0693 C   0  0  0  0  0  0  0  0  0  0  0  0
  -14.7494  -42.9370   -9.9765 C   0  0  0  0  0  0  0  0  0  0  0  0
  -15.6593  -42.6588   -8.9786 C   0  0  0  0  0  0  0  0  0  0  0  0
  -16.9915  -43.1231   -9.0991 C   0  0  0  0  0  0  0  0  0  0  0  0
  -17.4463  -43.8474  -10.1707 C   0  0  0  0  0  0  0  0  0  0  0  0
  -16.5148  -44.0993  -11.1347 C   0  0  0  0  0  0  0  0  0  0  0  0
  -15.5118  -41.9260   -7.7086 C   0  0  0  0  0  0  0  0  0  0  0  0
  -16.0209  -42.5226   -6.6247 O   0  0  0  0  0  0  0  0  0  0  0  0
  -14.9343  -40.6925   -7.3676 N   0  0  0  0  0  0  0  0  0  0  0  0
  -20.8559  -38.4688   -8.9073 C   0  0  0  0  0  0  0  0  0  0  0  0
  -21.8785  -39.1975   -9.4689 C   0  0  0  0  0  0  0  0  0  0  0  0
  -22.5618  -40.1701   -8.7657 C   0  0  0  0  0  0  0  0  0  0  0  0
  -22.3027  -38.9660  -10.8815 C   0  0  0  0  0  0  0  0  0  0  0  0
  -23.6442  -38.7773  -11.0130 F   0  0  0  0  0  0  0  0  0  0  0  0
  -21.5936  -37.8640  -11.3250 F   0  0  0  0  0  0  0  0  0  0  0  0
  -21.8639  -40.0576  -11.6314 F   0  0  0  0  0  0  0  0  0  0  0  0
  1  2  1  0
  2  3  1  0
  3  4  1  0
  4  5  2  0
  5  6  1  0
  6  7  1  0
  7  8  1  0
  8  9  1  0
  9 10  1  0
 10 11  1  6
 10 12  1  0
 12 13  1  6
 13 14  1  0
 14 15  1  6
 14 16  1  0
 16 17  1  0
 17 18  1  0
 18 19  1  0
 19 20  1  0
 20 21  1  0
 21 22  1  0
 22 23  1  0
 23 24  1  0
 24 25  2  0
 25 26  1  0
 26 27  2  0
 27 28  1  0
 28 29  2  0
 26 30  1  0
 30 31  2  0
 30 32  1  0
  6 33  2  0
 33 34  1  0
 34 35  2  0
 34 36  1  0
 36 37  1  0
 36 38  1  0
 36 39  1  0
 29 24  1  0
 32 12  1  0
 35  4  1  0
M  END
$$$$
