
     RDKit          3D

 39 41  0  0  0  0  0  0  0  0999 V2000
  -22.4494  -42.3872   -3.5277 C   0  0  0  0  0  0  0  0  0  0  0  0
  -22.2730  -41.9436   -4.9421 C   0  0  0  0  0  0  0  0  0  0  0  0
  -22.0837  -40.5741   -5.1072 O   0  0  0  0  0  0  0  0  0  0  0  0
  -21.7838  -39.9283   -6.2884 C   0  0  0  0  0  0  0  0  0  0  0  0
  -20.8085  -38.9269   -6.2634 C   0  0  0  0  0  0  0  0  0  0  0  0
  -20.4507  -38.2371   -7.3913 C   0  0  0  0  0  0  0  0  0  0  0  0
  -19.3947  -37.1797   -7.2703 C   0  0  0  0  0  0  0  0  0  0  0  0
  -18.1738  -37.5304   -7.8383 N   0  0  0  0  0  0  0  0  0  0  0  0
  -17.6282  -38.7914   -7.8886 C   0  0  0  0  0  0  0  0  0  0  0  0
  -16.2921  -39.1273   -8.3641 C   0  0  1  0  0  0  0  0  0  0  0  0
  -15.5529  -38.0386   -8.8329 O   0  0  0  0  0  0  0  0  0  0  0  0
  -15.4802  -40.2329   -7.7889 C   0  0  2  0  0  0  0  0  0  0  0  0
  -14.5966  -40.8452   -8.8772 C   0  0  0  0  0  0  0  0  0  0  0  0
  -13.3000  -41.3082   -8.3305 C   0  0  2  0  0  0  0  0  0  0  0  0
  -12.0939  -40.7959   -9.1210 C   0  0  0  0  0  0  0  0  0  0  0  0
  -13.1872  -42.8272   -8.3041 C   0  0  0  0  0  0  0  0  0  0  0  0
  -12.6801  -43.4040   -9.5922 C   0  0  0  0  0  0  0  0  0  0  0  0
  -13.6715  -44.1974  -10.1474 O   0  0  0  0  0  0  0  0  0  0  0  0
  -13.2605  -45.4416  -10.5513 C   0  0  0  0  0  0  0  0  0  0  0  0
  -14.3477  -46.4914  -10.3903 C   0  0  0  0  0  0  0  0  0  0  0  0
  -15.2354  -46.6160  -11.5948 C   0  0  0  0  0  0  0  0  0  0  0  0
  -16.7079  -46.5708  -11.2698 C   0  0  0  0  0  0  0  0  0  0  0  0
  -17.2447  -45.2588  -11.5636 N   0  0  0  0  0  0  0  0  0  0  0  0
  -17.6737  -44.2033  -10.7053 C   0  0  0  0  0  0  0  0  0  0  0  0
  -17.1410  -43.6808   -9.5504 C   0  0  0  0  0  0  0  0  0  0  0  0
  -17.7897  -42.6326   -8.9327 C   0  0  0  0  0  0  0  0  0  0  0  0
  -18.9834  -42.1206   -9.4967 C   0  0  0  0  0  0  0  0  0  0  0  0
  -19.5482  -42.6107  -10.6459 C   0  0  0  0  0  0  0  0  0  0  0  0
  -18.8743  -43.6458  -11.2247 C   0  0  0  0  0  0  0  0  0  0  0  0
  -17.4718  -41.8845   -7.7035 C   0  0  0  0  0  0  0  0  0  0  0  0
  -18.4860  -41.6993   -6.8508 O   0  0  0  0  0  0  0  0  0  0  0  0
  -16.2964  -41.2988   -7.2070 N   0  0  0  0  0  0  0  0  0  0  0  0
  -21.0591  -38.5259   -8.5907 C   0  0  0  0  0  0  0  0  0  0  0  0
  -22.0187  -39.5112   -8.6146 C   0  0  0  0  0  0  0  0  0  0  0  0
  -22.3841  -40.2106   -7.4811 C   0  0  0  0  0  0  0  0  0  0  0  0
  -22.7187  -39.8730   -9.8826 C   0  0  0  0  0  0  0  0  0  0  0  0
  -23.7656  -39.0515  -10.1689 F   0  0  0  0  0  0  0  0  0  0  0  0
  -21.7612  -39.8342  -10.8804 F   0  0  0  0  0  0  0  0  0  0  0  0
  -23.1283  -41.2017   -9.7669 F   0  0  0  0  0  0  0  0  0  0  0  0
  1  2  1  0
  2  3  1  0
  3  4  1  0
  4  5  2  0
  5  6  1  0
  6  7  1  0
  7  8  1  0
  8  9  1  0
  9 10  1  0
 10 11  1  1
 10 12  1  0
 12 13  1  6
 13 14  1  0
 14 15  1  6
 14 16  1  0
 16 17  1  0
 17 18  1  0
 18 19  1  0
 19 20  1  0
 20 21  1  0
 21 22  1  0
 22 23  1  0
 23 24  1  0
 24 25  2  0
 25 26  1  0
 26 27  2  0
 27 28  1  0
 28 29  2  0
 26 30  1  0
 30 31  2  0
 30 32  1  0
  6 33  2  0
 33 34  1  0
 34 35  2  0
 34 36  1  0
 36 37  1  0
 36 38  1  0
 36 39  1  0
 29 24  1  0
 32 12  1  0
 35  4  1  0
M  END
$$$$
