
     RDKit          3D

 39 42  0  0  0  0  0  0  0  0999 V2000
  -17.3499  -36.6728  -11.0360 C   0  0  0  0  0  0  0  0  0  0  0  0
  -16.4352  -37.1996  -12.1487 C   0  0  0  0  0  0  0  0  0  0  0  0
  -15.3579  -36.1806  -12.3762 C   0  0  0  0  0  0  0  0  0  0  0  0
  -15.8715  -38.5259  -11.7716 C   0  0  0  0  0  0  0  0  0  0  0  0
  -16.0982  -39.6101  -12.5783 C   0  0  0  0  0  0  0  0  0  0  0  0
  -15.5886  -40.8444  -12.2521 C   0  0  0  0  0  0  0  0  0  0  0  0
  -14.8459  -40.9863  -11.1055 C   0  0  0  0  0  0  0  0  0  0  0  0
  -14.5981  -39.9153  -10.2700 C   0  0  0  0  0  0  0  0  0  0  0  0
  -15.1188  -38.6942  -10.6196 C   0  0  0  0  0  0  0  0  0  0  0  0
  -13.7713  -40.1164   -9.0102 C   0  0  0  0  0  0  0  0  0  0  0  0
  -12.3888  -39.6007   -9.3507 C   0  0  0  0  0  0  0  0  0  0  0  0
  -13.6487  -41.5949   -8.8380 C   0  0  0  0  0  0  0  0  0  0  0  0
  -14.3624  -39.3712   -8.0282 N   0  0  0  0  0  0  0  0  0  0  0  0
  -15.2489  -39.7224   -7.0400 C   0  0  0  0  0  0  0  0  0  0  0  0
  -16.6814  -39.3078   -7.0817 C   0  0  1  0  0  0  0  0  0  0  0  0
  -16.7574  -38.0055   -6.6565 O   0  0  0  0  0  0  0  0  0  0  0  0
  -17.3194  -39.4181   -8.4546 C   0  0  2  0  0  0  0  0  0  0  0  0
  -18.4891  -38.5564   -8.7013 C   0  0  0  0  0  0  0  0  0  0  0  0
  -19.8168  -38.7714   -8.1589 C   0  0  0  0  0  0  0  0  0  0  0  0
  -20.0040  -38.0676   -6.9502 C   0  0  0  0  0  0  0  0  0  0  0  0
  -21.1609  -38.1041   -6.2105 C   0  0  0  0  0  0  0  0  0  0  0  0
  -22.1896  -38.8632   -6.6686 C   0  0  0  0  0  0  0  0  0  0  0  0
  -22.1368  -39.6295   -7.8828 C   0  0  0  0  0  0  0  0  0  0  0  0
  -23.4356  -40.3304   -8.0360 C   0  0  0  0  0  0  0  0  0  0  0  0
  -24.0373  -40.7414   -9.3487 C   0  0  0  0  0  0  0  0  0  0  0  0
  -24.4586  -42.2037   -9.3574 C   0  0  0  0  0  0  0  0  0  0  0  0
  -23.6515  -43.0937  -10.2287 C   0  0  0  0  0  0  0  0  0  0  0  0
  -22.4862  -43.6237   -9.8355 O   0  0  0  0  0  0  0  0  0  0  0  0
  -21.3746  -43.4360   -9.0021 C   0  0  0  0  0  0  0  0  0  0  0  0
  -20.1797  -42.7889   -9.3054 C   0  0  0  0  0  0  0  0  0  0  0  0
  -19.1299  -42.6465   -8.4302 C   0  0  0  0  0  0  0  0  0  0  0  0
  -19.3283  -43.2062   -7.1699 C   0  0  0  0  0  0  0  0  0  0  0  0
  -20.4905  -43.8483   -6.8400 C   0  0  0  0  0  0  0  0  0  0  0  0
  -20.6604  -44.4449   -5.4473 C   0  0  0  0  0  0  0  0  0  0  0  0
  -21.4259  -43.9245   -7.7551 N   0  0  0  0  0  0  0  0  0  0  0  0
  -17.7825  -41.9974   -8.5920 C   0  0  0  0  0  0  0  0  0  0  0  0
  -16.8528  -42.8628   -8.2143 O   0  0  0  0  0  0  0  0  0  0  0  0
  -17.3229  -40.7444   -9.0315 N   0  0  0  0  0  0  0  0  0  0  0  0
  -20.9477  -39.5379   -8.5594 C   0  0  0  0  0  0  0  0  0  0  0  0
  1  2  1  0
  2  3  1  0
  2  4  1  0
  4  5  2  0
  5  6  1  0
  6  7  2  0
  7  8  1  0
  8  9  2  0
  8 10  1  0
 10 11  1  0
 10 12  1  0
 10 13  1  0
 13 14  1  0
 14 15  1  0
 15 16  1  6
 15 17  1  0
 17 18  1  1
 18 19  1  0
 19 20  1  0
 20 21  2  0
 21 22  1  0
 22 23  2  0
 23 24  1  0
 24 25  1  0
 25 26  1  0
 26 27  1  0
 27 28  1  0
 28 29  1  0
 29 30  1  0
 30 31  2  0
 31 32  1  0
 32 33  2  0
 33 34  1  0
 33 35  1  0
 31 36  1  0
 36 37  2  0
 36 38  1  0
 23 39  1  0
  9  4  1  0
 35 29  2  0
 38 17  1  0
 39 19  2  0
M  END
$$$$
