
     RDKit          3D

 39 42  0  0  0  0  0  0  0  0999 V2000
   69.4561    3.8119   58.3485 C   0  0  0  0  0  0  0  0  0  0  0  0
   68.2284    3.3446   59.1401 C   0  0  0  0  0  0  0  0  0  0  0  0
   67.2408    4.4735   59.1613 C   0  0  0  0  0  0  0  0  0  0  0  0
   67.6519    2.1165   58.5248 C   0  0  0  0  0  0  0  0  0  0  0  0
   67.3855    1.0277   59.3129 C   0  0  0  0  0  0  0  0  0  0  0  0
   66.8532   -0.1170   58.7689 C   0  0  0  0  0  0  0  0  0  0  0  0
   66.5881   -0.1640   57.4220 C   0  0  0  0  0  0  0  0  0  0  0  0
   66.8442    0.9145   56.5989 C   0  0  0  0  0  0  0  0  0  0  0  0
   67.3757    2.0450   57.1682 C   0  0  0  0  0  0  0  0  0  0  0  0
   66.5361    0.8199   55.1132 C   0  0  0  0  0  0  0  0  0  0  0  0
   65.7692   -0.4749   54.9438 C   0  0  0  0  0  0  0  0  0  0  0  0
   67.8544    0.6307   54.4373 C   0  0  0  0  0  0  0  0  0  0  0  0
   65.7692    1.9077   54.8002 N   0  0  0  0  0  0  0  0  0  0  0  0
   65.3311    2.9546   55.5733 C   0  0  0  0  0  0  0  0  0  0  0  0
   65.2066    2.8422   57.0557 C   0  0  1  0  0  0  0  0  0  0  0  0
   66.0473    3.7668   57.6222 O   0  0  0  0  0  0  0  0  0  0  0  0
   63.7995    3.0671   57.5788 C   0  0  2  0  0  0  0  0  0  0  0  0
   63.5292    2.5936   58.9479 C   0  0  0  0  0  0  0  0  0  0  0  0
   63.3624    1.2065   59.3365 C   0  0  0  0  0  0  0  0  0  0  0  0
   64.5805    0.6373   59.7653 C   0  0  0  0  0  0  0  0  0  0  0  0
   64.7181   -0.6670   60.1735 C   0  0  0  0  0  0  0  0  0  0  0  0
   63.6154   -1.4597   60.1655 C   0  0  0  0  0  0  0  0  0  0  0  0
   62.3135   -1.0116   59.7548 C   0  0  0  0  0  0  0  0  0  0  0  0
   61.3796   -2.1588   59.8699 C   0  0  0  0  0  0  0  0  0  0  0  0
   59.9026   -2.0398   60.1115 C   0  0  0  0  0  0  0  0  0  0  0  0
   59.0877   -2.8482   59.1123 C   0  0  0  0  0  0  0  0  0  0  0  0
   58.2997   -2.0506   58.1398 C   0  0  0  0  0  0  0  0  0  0  0  0
   58.8334   -1.5496   57.0184 O   0  0  0  0  0  0  0  0  0  0  0  0
   60.0199   -1.0901   56.4297 C   0  0  0  0  0  0  0  0  0  0  0  0
   60.5201    0.2091   56.4188 C   0  0  0  0  0  0  0  0  0  0  0  0
   61.6967    0.5832   55.8154 C   0  0  0  0  0  0  0  0  0  0  0  0
   62.3944   -0.4461   55.1872 C   0  0  0  0  0  0  0  0  0  0  0  0
   61.9306   -1.7332   55.1800 C   0  0  0  0  0  0  0  0  0  0  0  0
   62.7304   -2.8254   54.4789 C   0  0  0  0  0  0  0  0  0  0  0  0
   60.7950   -1.9755   55.7883 N   0  0  0  0  0  0  0  0  0  0  0  0
   62.3712    1.9228   55.6982 C   0  0  0  0  0  0  0  0  0  0  0  0
   62.6534    2.1392   54.4217 O   0  0  0  0  0  0  0  0  0  0  0  0
   62.7452    2.9356   56.5974 N   0  0  0  0  0  0  0  0  0  0  0  0
   62.2638    0.3013   59.3627 C   0  0  0  0  0  0  0  0  0  0  0  0
  1  2  1  0
  2  3  1  0
  2  4  1  0
  4  5  2  0
  5  6  1  0
  6  7  2  0
  7  8  1  0
  8  9  2  0
  8 10  1  0
 10 11  1  0
 10 12  1  0
 10 13  1  0
 13 14  1  0
 14 15  1  0
 15 16  1  1
 15 17  1  0
 17 18  1  1
 18 19  1  0
 19 20  1  0
 20 21  2  0
 21 22  1  0
 22 23  2  0
 23 24  1  0
 24 25  1  0
 25 26  1  0
 26 27  1  0
 27 28  1  0
 28 29  1  0
 29 30  1  0
 30 31  2  0
 31 32  1  0
 32 33  2  0
 33 34  1  0
 33 35  1  0
 31 36  1  0
 36 37  2  0
 36 38  1  0
 23 39  1  0
  9  4  1  0
 35 29  2  0
 38 17  1  0
 39 19  2  0
M  END
$$$$
