
     RDKit          3D

 39 42  0  0  0  0  0  0  0  0999 V2000
  -17.0408  -36.1638  -13.1170 C   0  0  0  0  0  0  0  0  0  0  0  0
  -17.0664  -36.6706  -11.6696 C   0  0  0  0  0  0  0  0  0  0  0  0
  -18.5022  -36.7831  -11.2496 C   0  0  0  0  0  0  0  0  0  0  0  0
  -16.3555  -37.9755  -11.5649 C   0  0  0  0  0  0  0  0  0  0  0  0
  -16.6312  -38.9689  -12.4675 C   0  0  0  0  0  0  0  0  0  0  0  0
  -15.9884  -40.1816  -12.3920 C   0  0  0  0  0  0  0  0  0  0  0  0
  -15.0619  -40.3938  -11.4005 C   0  0  0  0  0  0  0  0  0  0  0  0
  -14.7600  -39.4150  -10.4748 C   0  0  0  0  0  0  0  0  0  0  0  0
  -15.4165  -38.2134  -10.5732 C   0  0  0  0  0  0  0  0  0  0  0  0
  -13.7281  -39.6918   -9.3931 C   0  0  0  0  0  0  0  0  0  0  0  0
  -13.1502  -38.3391   -9.0338 C   0  0  0  0  0  0  0  0  0  0  0  0
  -12.6371  -40.4620  -10.0618 C   0  0  0  0  0  0  0  0  0  0  0  0
  -14.4001  -40.2512   -8.3420 N   0  0  0  0  0  0  0  0  0  0  0  0
  -14.9196  -39.6888   -7.2020 C   0  0  0  0  0  0  0  0  0  0  0  0
  -16.3862  -39.6697   -6.9298 C   0  0  1  0  0  0  0  0  0  0  0  0
  -16.6505  -38.6015   -6.1102 O   0  0  0  0  0  0  0  0  0  0  0  0
  -17.2471  -39.5624   -8.1754 C   0  0  2  0  0  0  0  0  0  0  0  0
  -18.4206  -38.6760   -8.0828 C   0  0  0  0  0  0  0  0  0  0  0  0
  -19.6438  -38.9783   -7.3648 C   0  0  0  0  0  0  0  0  0  0  0  0
  -19.6096  -38.4759   -6.0465 C   0  0  0  0  0  0  0  0  0  0  0  0
  -20.6272  -38.6329   -5.1373 C   0  0  0  0  0  0  0  0  0  0  0  0
  -21.7359  -39.3125   -5.5288 C   0  0  0  0  0  0  0  0  0  0  0  0
  -21.9049  -39.8762   -6.8396 C   0  0  0  0  0  0  0  0  0  0  0  0
  -23.2275  -40.5476   -6.8796 C   0  0  0  0  0  0  0  0  0  0  0  0
  -24.0496  -40.7468   -8.1199 C   0  0  0  0  0  0  0  0  0  0  0  0
  -24.5014  -42.1904   -8.2870 C   0  0  0  0  0  0  0  0  0  0  0  0
  -23.8726  -42.9283   -9.4108 C   0  0  0  0  0  0  0  0  0  0  0  0
  -22.6710  -43.5106   -9.3079 O   0  0  0  0  0  0  0  0  0  0  0  0
  -21.4317  -43.4543   -8.6550 C   0  0  0  0  0  0  0  0  0  0  0  0
  -20.2891  -42.7638   -9.0500 C   0  0  0  0  0  0  0  0  0  0  0  0
  -19.1048  -42.7591   -8.3531 C   0  0  0  0  0  0  0  0  0  0  0  0
  -19.1032  -43.5124   -7.1813 C   0  0  0  0  0  0  0  0  0  0  0  0
  -20.2091  -44.2022   -6.7650 C   0  0  0  0  0  0  0  0  0  0  0  0
  -20.1581  -45.0128   -5.4748 C   0  0  0  0  0  0  0  0  0  0  0  0
  -21.2857  -44.1348   -7.5096 N   0  0  0  0  0  0  0  0  0  0  0  0
  -17.7882  -42.0885   -8.6360 C   0  0  0  0  0  0  0  0  0  0  0  0
  -16.8294  -43.0002   -8.5612 O   0  0  0  0  0  0  0  0  0  0  0  0
  -17.3786  -40.7803   -8.9445 N   0  0  0  0  0  0  0  0  0  0  0  0
  -20.8437  -39.6748   -7.6841 C   0  0  0  0  0  0  0  0  0  0  0  0
  1  2  1  0
  2  3  1  0
  2  4  1  0
  4  5  2  0
  5  6  1  0
  6  7  2  0
  7  8  1  0
  8  9  2  0
  8 10  1  0
 10 11  1  0
 10 12  1  0
 10 13  1  0
 13 14  1  0
 14 15  1  0
 15 16  1  1
 15 17  1  0
 17 18  1  1
 18 19  1  0
 19 20  1  0
 20 21  2  0
 21 22  1  0
 22 23  2  0
 23 24  1  0
 24 25  1  0
 25 26  1  0
 26 27  1  0
 27 28  1  0
 28 29  1  0
 29 30  1  0
 30 31  2  0
 31 32  1  0
 32 33  2  0
 33 34  1  0
 33 35  1  0
 31 36  1  0
 36 37  2  0
 36 38  1  0
 23 39  1  0
  9  4  1  0
 35 29  2  0
 38 17  1  0
 39 19  2  0
M  END
$$$$
