
     RDKit          3D

 39 42  0  0  0  0  0  0  0  0999 V2000
   -9.5469  -38.2912  -11.2996 C   0  0  0  0  0  0  0  0  0  0  0  0
  -10.8015  -37.6716  -10.6715 C   0  0  0  0  0  0  0  0  0  0  0  0
  -10.7904  -36.2036  -10.9803 C   0  0  0  0  0  0  0  0  0  0  0  0
  -12.0264  -38.3379  -11.1957 C   0  0  0  0  0  0  0  0  0  0  0  0
  -11.9848  -39.6687  -11.5198 C   0  0  0  0  0  0  0  0  0  0  0  0
  -13.1018  -40.3063  -12.0052 C   0  0  0  0  0  0  0  0  0  0  0  0
  -14.2676  -39.5977  -12.1646 C   0  0  0  0  0  0  0  0  0  0  0  0
  -14.3446  -38.2560  -11.8480 C   0  0  0  0  0  0  0  0  0  0  0  0
  -13.2145  -37.6441  -11.3653 C   0  0  0  0  0  0  0  0  0  0  0  0
  -15.6549  -37.5093  -12.0400 C   0  0  0  0  0  0  0  0  0  0  0  0
  -16.1488  -37.9118  -13.4138 C   0  0  0  0  0  0  0  0  0  0  0  0
  -15.2890  -36.0636  -12.1209 C   0  0  0  0  0  0  0  0  0  0  0  0
  -16.4993  -37.9357  -11.0529 N   0  0  0  0  0  0  0  0  0  0  0  0
  -16.3991  -37.8598   -9.6855 C   0  0  0  0  0  0  0  0  0  0  0  0
  -17.4777  -38.3635   -8.7864 C   0  0  1  0  0  0  0  0  0  0  0  0
  -17.7932  -37.3628   -7.9023 O   0  0  0  0  0  0  0  0  0  0  0  0
  -18.7381  -38.7976   -9.5124 C   0  0  2  0  0  0  0  0  0  0  0  0
  -20.0103  -38.2840   -8.9746 C   0  0  0  0  0  0  0  0  0  0  0  0
  -20.6522  -38.7448   -7.7586 C   0  0  0  0  0  0  0  0  0  0  0  0
  -20.2797  -37.9609   -6.6458 C   0  0  0  0  0  0  0  0  0  0  0  0
  -20.7238  -38.1838   -5.3652 C   0  0  0  0  0  0  0  0  0  0  0  0
  -21.5741  -39.2214   -5.1543 C   0  0  0  0  0  0  0  0  0  0  0  0
  -22.0358  -40.0988   -6.1942 C   0  0  0  0  0  0  0  0  0  0  0  0
  -22.9306  -41.1076   -5.5752 C   0  0  0  0  0  0  0  0  0  0  0  0
  -24.0468  -41.8146   -6.2881 C   0  0  0  0  0  0  0  0  0  0  0  0
  -23.9799  -43.3246   -6.1104 C   0  0  0  0  0  0  0  0  0  0  0  0
  -23.6304  -44.0944   -7.3302 C   0  0  0  0  0  0  0  0  0  0  0  0
  -22.3655  -44.2716   -7.7329 O   0  0  0  0  0  0  0  0  0  0  0  0
  -21.0784  -43.7160   -7.7181 C   0  0  0  0  0  0  0  0  0  0  0  0
  -20.5153  -42.8417   -8.6437 C   0  0  0  0  0  0  0  0  0  0  0  0
  -19.2389  -42.3394   -8.5606 C   0  0  0  0  0  0  0  0  0  0  0  0
  -18.5039  -42.7671   -7.4571 C   0  0  0  0  0  0  0  0  0  0  0  0
  -19.0279  -43.6253   -6.5293 C   0  0  0  0  0  0  0  0  0  0  0  0
  -18.1838  -44.0647   -5.3382 C   0  0  0  0  0  0  0  0  0  0  0  0
  -20.2579  -44.0411   -6.7095 N   0  0  0  0  0  0  0  0  0  0  0  0
  -18.4769  -41.4082   -9.4635 C   0  0  0  0  0  0  0  0  0  0  0  0
  -17.3109  -41.9673   -9.7535 O   0  0  0  0  0  0  0  0  0  0  0  0
  -18.7197  -40.1469  -10.0331 N   0  0  0  0  0  0  0  0  0  0  0  0
  -21.5451  -39.8072   -7.4409 C   0  0  0  0  0  0  0  0  0  0  0  0
  1  2  1  0
  2  3  1  0
  2  4  1  0
  4  5  2  0
  5  6  1  0
  6  7  2  0
  7  8  1  0
  8  9  2  0
  8 10  1  0
 10 11  1  0
 10 12  1  0
 10 13  1  0
 13 14  1  0
 14 15  1  0
 15 16  1  1
 15 17  1  0
 17 18  1  1
 18 19  1  0
 19 20  1  0
 20 21  2  0
 21 22  1  0
 22 23  2  0
 23 24  1  0
 24 25  1  0
 25 26  1  0
 26 27  1  0
 27 28  1  0
 28 29  1  0
 29 30  1  0
 30 31  2  0
 31 32  1  0
 32 33  2  0
 33 34  1  0
 33 35  1  0
 31 36  1  0
 36 37  2  0
 36 38  1  0
 23 39  1  0
  9  4  1  0
 35 29  2  0
 38 17  1  0
 39 19  2  0
M  END
$$$$
