
     RDKit          3D

 39 42  0  0  0  0  0  0  0  0999 V2000
  -11.0177  -35.7368  -13.6926 C   0  0  0  0  0  0  0  0  0  0  0  0
  -10.9430  -36.3926  -12.3081 C   0  0  0  0  0  0  0  0  0  0  0  0
  -11.2005  -35.3280  -11.2830 C   0  0  0  0  0  0  0  0  0  0  0  0
  -11.9274  -37.5063  -12.2086 C   0  0  0  0  0  0  0  0  0  0  0  0
  -11.6001  -38.7427  -12.7003 C   0  0  0  0  0  0  0  0  0  0  0  0
  -12.4912  -39.7864  -12.6201 C   0  0  0  0  0  0  0  0  0  0  0  0
  -13.7196  -39.5820  -12.0407 C   0  0  0  0  0  0  0  0  0  0  0  0
  -14.0819  -38.3493  -11.5351 C   0  0  0  0  0  0  0  0  0  0  0  0
  -13.1732  -37.3246  -11.6282 C   0  0  0  0  0  0  0  0  0  0  0  0
  -15.4520  -38.1665  -10.9021 C   0  0  0  0  0  0  0  0  0  0  0  0
  -16.4379  -38.2453  -12.0488 C   0  0  0  0  0  0  0  0  0  0  0  0
  -15.4833  -36.7589  -10.4038 C   0  0  0  0  0  0  0  0  0  0  0  0
  -15.6184  -39.1969  -10.0191 N   0  0  0  0  0  0  0  0  0  0  0  0
  -15.7443  -39.2012   -8.6517 C   0  0  0  0  0  0  0  0  0  0  0  0
  -17.0608  -38.9979   -7.9802 C   0  0  1  0  0  0  0  0  0  0  0  0
  -17.1627  -37.6722   -7.6414 O   0  0  0  0  0  0  0  0  0  0  0  0
  -18.2572  -39.3845   -8.8306 C   0  0  2  0  0  0  0  0  0  0  0  0
  -19.5253  -38.7003   -8.5218 C   0  0  0  0  0  0  0  0  0  0  0  0
  -20.3630  -38.9697   -7.3692 C   0  0  0  0  0  0  0  0  0  0  0  0
  -20.0540  -38.1129   -6.2912 C   0  0  0  0  0  0  0  0  0  0  0  0
  -20.6795  -38.1586   -5.0691 C   0  0  0  0  0  0  0  0  0  0  0  0
  -21.6561  -39.0840   -4.8843 C   0  0  0  0  0  0  0  0  0  0  0  0
  -22.0724  -40.0173   -5.8942 C   0  0  0  0  0  0  0  0  0  0  0  0
  -23.1420  -40.8676   -5.3157 C   0  0  0  0  0  0  0  0  0  0  0  0
  -24.2271  -41.5366   -6.1087 C   0  0  0  0  0  0  0  0  0  0  0  0
  -24.3457  -43.0194   -5.7875 C   0  0  0  0  0  0  0  0  0  0  0  0
  -23.9278  -43.9414   -6.8729 C   0  0  0  0  0  0  0  0  0  0  0  0
  -22.6481  -44.2778   -7.0798 O   0  0  0  0  0  0  0  0  0  0  0  0
  -21.3214  -43.8473   -6.9382 C   0  0  0  0  0  0  0  0  0  0  0  0
  -20.5541  -43.1310   -7.8527 C   0  0  0  0  0  0  0  0  0  0  0  0
  -19.2523  -42.7452   -7.6404 C   0  0  0  0  0  0  0  0  0  0  0  0
  -18.7146  -43.1231   -6.4120 C   0  0  0  0  0  0  0  0  0  0  0  0
  -19.4419  -43.8270   -5.4915 C   0  0  0  0  0  0  0  0  0  0  0  0
  -18.8090  -44.2178   -4.1606 C   0  0  0  0  0  0  0  0  0  0  0  0
  -20.6761  -44.1416   -5.8010 N   0  0  0  0  0  0  0  0  0  0  0  0
  -18.2857  -41.9888   -8.5102 C   0  0  0  0  0  0  0  0  0  0  0  0
  -17.1590  -42.6823   -8.5851 O   0  0  0  0  0  0  0  0  0  0  0  0
  -18.3171  -40.7763   -9.2196 N   0  0  0  0  0  0  0  0  0  0  0  0
  -21.3979  -39.9044   -7.0827 C   0  0  0  0  0  0  0  0  0  0  0  0
  1  2  1  0
  2  3  1  0
  2  4  1  0
  4  5  2  0
  5  6  1  0
  6  7  2  0
  7  8  1  0
  8  9  2  0
  8 10  1  0
 10 11  1  0
 10 12  1  0
 10 13  1  0
 13 14  1  0
 14 15  1  0
 15 16  1  6
 15 17  1  0
 17 18  1  1
 18 19  1  0
 19 20  1  0
 20 21  2  0
 21 22  1  0
 22 23  2  0
 23 24  1  0
 24 25  1  0
 25 26  1  0
 26 27  1  0
 27 28  1  0
 28 29  1  0
 29 30  1  0
 30 31  2  0
 31 32  1  0
 32 33  2  0
 33 34  1  0
 33 35  1  0
 31 36  1  0
 36 37  2  0
 36 38  1  0
 23 39  1  0
  9  4  1  0
 35 29  2  0
 38 17  1  0
 39 19  2  0
M  END
$$$$
