
     RDKit          3D

 39 42  0  0  0  0  0  0  0  0999 V2000
  -21.6431  -38.1602  -12.7847 C   0  0  0  0  0  0  0  0  0  0  0  0
  -20.2211  -37.6114  -12.9551 C   0  0  0  0  0  0  0  0  0  0  0  0
  -20.3253  -36.2667  -13.6119 C   0  0  0  0  0  0  0  0  0  0  0  0
  -19.5353  -37.5308  -11.6351 C   0  0  0  0  0  0  0  0  0  0  0  0
  -20.2321  -37.0981  -10.5375 C   0  0  0  0  0  0  0  0  0  0  0  0
  -19.6217  -37.0151   -9.3086 C   0  0  0  0  0  0  0  0  0  0  0  0
  -18.3007  -37.3708   -9.1858 C   0  0  0  0  0  0  0  0  0  0  0  0
  -17.5689  -37.8109  -10.2707 C   0  0  0  0  0  0  0  0  0  0  0  0
  -18.2030  -37.8842  -11.4861 C   0  0  0  0  0  0  0  0  0  0  0  0
  -16.1088  -38.1943  -10.0907 C   0  0  0  0  0  0  0  0  0  0  0  0
  -15.4280  -36.9474   -9.5664 C   0  0  0  0  0  0  0  0  0  0  0  0
  -15.5787  -38.4274  -11.4674 C   0  0  0  0  0  0  0  0  0  0  0  0
  -16.0785  -39.2106   -9.1767 N   0  0  0  0  0  0  0  0  0  0  0  0
  -16.0282  -39.1881   -7.8046 C   0  0  0  0  0  0  0  0  0  0  0  0
  -17.2644  -39.2043   -6.9698 C   0  0  1  0  0  0  0  0  0  0  0  0
  -17.2129  -38.1309   -6.1167 O   0  0  0  0  0  0  0  0  0  0  0  0
  -18.5535  -39.1398   -7.7687 C   0  0  2  0  0  0  0  0  0  0  0  0
  -19.7653  -38.7587   -7.0218 C   0  0  0  0  0  0  0  0  0  0  0  0
  -20.4808  -39.6137   -6.0945 C   0  0  0  0  0  0  0  0  0  0  0  0
  -20.0388  -39.4249   -4.7676 C   0  0  0  0  0  0  0  0  0  0  0  0
  -20.5308  -40.1166   -3.6876 C   0  0  0  0  0  0  0  0  0  0  0  0
  -21.5028  -41.0392   -3.9074 C   0  0  0  0  0  0  0  0  0  0  0  0
  -22.0460  -41.3324   -5.2049 C   0  0  0  0  0  0  0  0  0  0  0  0
  -23.0665  -42.3970   -5.0415 C   0  0  0  0  0  0  0  0  0  0  0  0
  -24.2452  -42.5998   -5.9489 C   0  0  0  0  0  0  0  0  0  0  0  0
  -24.3626  -44.0391   -6.4292 C   0  0  0  0  0  0  0  0  0  0  0  0
  -24.0842  -44.2538   -7.8712 C   0  0  0  0  0  0  0  0  0  0  0  0
  -22.8421  -44.3892   -8.3530 O   0  0  0  0  0  0  0  0  0  0  0  0
  -21.4984  -44.0461   -8.1475 C   0  0  0  0  0  0  0  0  0  0  0  0
  -20.8172  -42.9337   -8.6343 C   0  0  0  0  0  0  0  0  0  0  0  0
  -19.4918  -42.6662   -8.3892 C   0  0  0  0  0  0  0  0  0  0  0  0
  -18.8344  -43.6038   -7.5956 C   0  0  0  0  0  0  0  0  0  0  0  0
  -19.4749  -44.7071   -7.1014 C   0  0  0  0  0  0  0  0  0  0  0  0
  -18.7123  -45.7051   -6.2371 C   0  0  0  0  0  0  0  0  0  0  0  0
  -20.7420  -44.8611   -7.3994 N   0  0  0  0  0  0  0  0  0  0  0  0
  -18.6068  -41.5355   -8.8381 C   0  0  0  0  0  0  0  0  0  0  0  0
  -17.5106  -42.0501   -9.3762 O   0  0  0  0  0  0  0  0  0  0  0  0
  -18.6863  -40.1329   -8.8118 N   0  0  0  0  0  0  0  0  0  0  0  0
  -21.5001  -40.5988   -6.2266 C   0  0  0  0  0  0  0  0  0  0  0  0
  1  2  1  0
  2  3  1  0
  2  4  1  0
  4  5  2  0
  5  6  1  0
  6  7  2  0
  7  8  1  0
  8  9  2  0
  8 10  1  0
 10 11  1  0
 10 12  1  0
 10 13  1  0
 13 14  1  0
 14 15  1  0
 15 16  1  1
 15 17  1  0
 17 18  1  1
 18 19  1  0
 19 20  1  0
 20 21  2  0
 21 22  1  0
 22 23  2  0
 23 24  1  0
 24 25  1  0
 25 26  1  0
 26 27  1  0
 27 28  1  0
 28 29  1  0
 29 30  1  0
 30 31  2  0
 31 32  1  0
 32 33  2  0
 33 34  1  0
 33 35  1  0
 31 36  1  0
 36 37  2  0
 36 38  1  0
 23 39  1  0
  9  4  1  0
 35 29  2  0
 38 17  1  0
 39 19  2  0
M  END
$$$$
