
     RDKit          3D

 39 42  0  0  0  0  0  0  0  0999 V2000
  -11.5052  -41.6354   -7.8558 C   0  0  0  0  0  0  0  0  0  0  0  0
  -10.9604  -42.0637   -9.2241 C   0  0  0  0  0  0  0  0  0  0  0  0
  -11.3478  -43.4964   -9.4427 C   0  0  0  0  0  0  0  0  0  0  0  0
  -11.4942  -41.1765  -10.2951 C   0  0  0  0  0  0  0  0  0  0  0  0
  -11.1842  -41.4368  -11.6042 C   0  0  0  0  0  0  0  0  0  0  0  0
  -11.6647  -40.6330  -12.6106 C   0  0  0  0  0  0  0  0  0  0  0  0
  -12.4625  -39.5605  -12.2949 C   0  0  0  0  0  0  0  0  0  0  0  0
  -12.7945  -39.2694  -10.9867 C   0  0  0  0  0  0  0  0  0  0  0  0
  -12.3012  -40.0882  -10.0015 C   0  0  0  0  0  0  0  0  0  0  0  0
  -13.6802  -38.0721  -10.6814 C   0  0  0  0  0  0  0  0  0  0  0  0
  -13.8721  -37.3661  -12.0073 C   0  0  0  0  0  0  0  0  0  0  0  0
  -12.8560  -37.1660   -9.8268 C   0  0  0  0  0  0  0  0  0  0  0  0
  -14.8584  -38.5676  -10.1960 N   0  0  0  0  0  0  0  0  0  0  0  0
  -16.1315  -38.5311  -10.7093 C   0  0  0  0  0  0  0  0  0  0  0  0
  -17.3352  -38.4761   -9.8297 C   0  0  1  0  0  0  0  0  0  0  0  0
  -17.6553  -37.1566   -9.6326 O   0  0  0  0  0  0  0  0  0  0  0  0
  -18.5461  -39.2006  -10.3894 C   0  0  2  0  0  0  0  0  0  0  0  0
  -19.8630  -38.6568  -10.0131 C   0  0  0  0  0  0  0  0  0  0  0  0
  -20.4855  -38.7965   -8.7108 C   0  0  0  0  0  0  0  0  0  0  0  0
  -20.1933  -37.6975   -7.8751 C   0  0  0  0  0  0  0  0  0  0  0  0
  -20.6384  -37.5757   -6.5813 C   0  0  0  0  0  0  0  0  0  0  0  0
  -21.4077  -38.5727   -6.0728 C   0  0  0  0  0  0  0  0  0  0  0  0
  -21.7826  -39.7469   -6.8110 C   0  0  0  0  0  0  0  0  0  0  0  0
  -22.6049  -40.6021   -5.9198 C   0  0  0  0  0  0  0  0  0  0  0  0
  -23.6507  -41.5715   -6.3892 C   0  0  0  0  0  0  0  0  0  0  0  0
  -23.4681  -42.9554   -5.7831 C   0  0  0  0  0  0  0  0  0  0  0  0
  -23.0401  -44.0143   -6.7309 C   0  0  0  0  0  0  0  0  0  0  0  0
  -21.7591  -44.1987   -7.0750 O   0  0  0  0  0  0  0  0  0  0  0  0
  -20.5201  -43.5616   -7.2315 C   0  0  0  0  0  0  0  0  0  0  0  0
  -20.0130  -42.9498   -8.3747 C   0  0  0  0  0  0  0  0  0  0  0  0
  -18.7816  -42.3448   -8.4504 C   0  0  0  0  0  0  0  0  0  0  0  0
  -18.0325  -42.3754   -7.2761 C   0  0  0  0  0  0  0  0  0  0  0  0
  -18.5019  -42.9682   -6.1358 C   0  0  0  0  0  0  0  0  0  0  0  0
  -17.6445  -42.9761   -4.8751 C   0  0  0  0  0  0  0  0  0  0  0  0
  -19.6924  -43.5150   -6.1785 N   0  0  0  0  0  0  0  0  0  0  0  0
  -18.0811  -41.6563   -9.5899 C   0  0  0  0  0  0  0  0  0  0  0  0
  -16.8704  -42.1803   -9.7150 O   0  0  0  0  0  0  0  0  0  0  0  0
  -18.4134  -40.6368  -10.4979 N   0  0  0  0  0  0  0  0  0  0  0  0
  -21.2970  -39.7896   -8.0925 C   0  0  0  0  0  0  0  0  0  0  0  0
  1  2  1  0
  2  3  1  0
  2  4  1  0
  4  5  2  0
  5  6  1  0
  6  7  2  0
  7  8  1  0
  8  9  2  0
  8 10  1  0
 10 11  1  0
 10 12  1  0
 10 13  1  0
 13 14  1  0
 14 15  1  0
 15 16  1  6
 15 17  1  0
 17 18  1  1
 18 19  1  0
 19 20  1  0
 20 21  2  0
 21 22  1  0
 22 23  2  0
 23 24  1  0
 24 25  1  0
 25 26  1  0
 26 27  1  0
 27 28  1  0
 28 29  1  0
 29 30  1  0
 30 31  2  0
 31 32  1  0
 32 33  2  0
 33 34  1  0
 33 35  1  0
 31 36  1  0
 36 37  2  0
 36 38  1  0
 23 39  1  0
  9  4  1  0
 35 29  2  0
 38 17  1  0
 39 19  2  0
M  END
$$$$
