
     RDKit          3D

 39 42  0  0  0  0  0  0  0  0999 V2000
  -19.8061  -36.2792  -13.3754 C   0  0  0  0  0  0  0  0  0  0  0  0
  -18.8357  -36.2008  -12.1902 C   0  0  0  0  0  0  0  0  0  0  0  0
  -19.6389  -35.8939  -10.9608 C   0  0  0  0  0  0  0  0  0  0  0  0
  -18.0807  -37.4777  -12.0534 C   0  0  0  0  0  0  0  0  0  0  0  0
  -18.5109  -38.5917  -12.7254 C   0  0  0  0  0  0  0  0  0  0  0  0
  -17.8313  -39.7816  -12.6155 C   0  0  0  0  0  0  0  0  0  0  0  0
  -16.7112  -39.8484  -11.8235 C   0  0  0  0  0  0  0  0  0  0  0  0
  -16.2501  -38.7455  -11.1326 C   0  0  0  0  0  0  0  0  0  0  0  0
  -16.9476  -37.5700  -11.2601 C   0  0  0  0  0  0  0  0  0  0  0  0
  -15.0062  -38.8633  -10.2666 C   0  0  0  0  0  0  0  0  0  0  0  0
  -14.5964  -37.4389   -9.9564 C   0  0  0  0  0  0  0  0  0  0  0  0
  -13.9476  -39.4321  -11.1534 C   0  0  0  0  0  0  0  0  0  0  0  0
  -15.3750  -39.5416   -9.1382 N   0  0  0  0  0  0  0  0  0  0  0  0
  -15.7363  -39.0905   -7.8926 C   0  0  0  0  0  0  0  0  0  0  0  0
  -16.9952  -39.5353   -7.2272 C   0  0  1  0  0  0  0  0  0  0  0  0
  -17.2594  -38.6671   -6.1981 O   0  0  0  0  0  0  0  0  0  0  0  0
  -18.1990  -39.5894   -8.1502 C   0  0  2  0  0  0  0  0  0  0  0  0
  -19.4365  -38.9688   -7.6452 C   0  0  0  0  0  0  0  0  0  0  0  0
  -20.2990  -39.5313   -6.6241 C   0  0  0  0  0  0  0  0  0  0  0  0
  -19.9618  -39.0546   -5.3393 C   0  0  0  0  0  0  0  0  0  0  0  0
  -20.6023  -39.4353   -4.1854 C   0  0  0  0  0  0  0  0  0  0  0  0
  -21.6239  -40.3247   -4.2842 C   0  0  0  0  0  0  0  0  0  0  0  0
  -22.0728  -40.8895   -5.5268 C   0  0  0  0  0  0  0  0  0  0  0  0
  -23.1880  -41.8212   -5.2272 C   0  0  0  0  0  0  0  0  0  0  0  0
  -24.2948  -42.1669   -6.1808 C   0  0  0  0  0  0  0  0  0  0  0  0
  -24.4874  -43.6700   -6.3205 C   0  0  0  0  0  0  0  0  0  0  0  0
  -24.1017  -44.2420   -7.6346 C   0  0  0  0  0  0  0  0  0  0  0  0
  -22.8372  -44.5625   -7.9378 O   0  0  0  0  0  0  0  0  0  0  0  0
  -21.4932  -44.2598   -7.6780 C   0  0  0  0  0  0  0  0  0  0  0  0
  -20.6824  -43.3398   -8.3371 C   0  0  0  0  0  0  0  0  0  0  0  0
  -19.3663  -43.0997   -8.0233 C   0  0  0  0  0  0  0  0  0  0  0  0
  -18.8609  -43.8554   -6.9676 C   0  0  0  0  0  0  0  0  0  0  0  0
  -19.6312  -44.7674   -6.2991 C   0  0  0  0  0  0  0  0  0  0  0  0
  -19.0326  -45.5708   -5.1499 C   0  0  0  0  0  0  0  0  0  0  0  0
  -20.8755  -44.9137   -6.6845 N   0  0  0  0  0  0  0  0  0  0  0  0
  -18.3550  -42.1648   -8.6286 C   0  0  0  0  0  0  0  0  0  0  0  0
  -17.2618  -42.8577   -8.9128 O   0  0  0  0  0  0  0  0  0  0  0  0
  -18.3207  -40.7951   -8.9399 N   0  0  0  0  0  0  0  0  0  0  0  0
  -21.3804  -40.4573   -6.6285 C   0  0  0  0  0  0  0  0  0  0  0  0
  1  2  1  0
  2  3  1  0
  2  4  1  0
  4  5  2  0
  5  6  1  0
  6  7  2  0
  7  8  1  0
  8  9  2  0
  8 10  1  0
 10 11  1  0
 10 12  1  0
 10 13  1  0
 13 14  1  0
 14 15  1  0
 15 16  1  1
 15 17  1  0
 17 18  1  1
 18 19  1  0
 19 20  1  0
 20 21  2  0
 21 22  1  0
 22 23  2  0
 23 24  1  0
 24 25  1  0
 25 26  1  0
 26 27  1  0
 27 28  1  0
 28 29  1  0
 29 30  1  0
 30 31  2  0
 31 32  1  0
 32 33  2  0
 33 34  1  0
 33 35  1  0
 31 36  1  0
 36 37  2  0
 36 38  1  0
 23 39  1  0
  9  4  1  0
 35 29  2  0
 38 17  1  0
 39 19  2  0
M  END
$$$$
