
     RDKit          3D

 39 42  0  0  0  0  0  0  0  0999 V2000
  -15.2666  -35.2599  -10.9214 C   0  0  0  0  0  0  0  0  0  0  0  0
  -14.1376  -35.8944  -11.7430 C   0  0  0  0  0  0  0  0  0  0  0  0
  -12.8338  -35.4308  -11.1636 C   0  0  0  0  0  0  0  0  0  0  0  0
  -14.2546  -37.3793  -11.7242 C   0  0  0  0  0  0  0  0  0  0  0  0
  -14.9035  -38.0185  -12.7480 C   0  0  0  0  0  0  0  0  0  0  0  0
  -15.0245  -39.3878  -12.7535 C   0  0  0  0  0  0  0  0  0  0  0  0
  -14.4879  -40.1169  -11.7207 C   0  0  0  0  0  0  0  0  0  0  0  0
  -13.8277  -39.5054  -10.6735 C   0  0  0  0  0  0  0  0  0  0  0  0
  -13.7213  -38.1369  -10.6929 C   0  0  0  0  0  0  0  0  0  0  0  0
  -13.2489  -40.3503   -9.5500 C   0  0  0  0  0  0  0  0  0  0  0  0
  -11.7917  -39.9492   -9.4557 C   0  0  0  0  0  0  0  0  0  0  0  0
  -13.2763  -41.7585  -10.0468 C   0  0  0  0  0  0  0  0  0  0  0  0
  -13.9388  -40.0232   -8.4158 N   0  0  0  0  0  0  0  0  0  0  0  0
  -14.9269  -39.0948   -8.1977 C   0  0  0  0  0  0  0  0  0  0  0  0
  -16.3440  -39.4933   -7.9561 C   0  0  1  0  0  0  0  0  0  0  0  0
  -16.9585  -38.4759   -7.2706 O   0  0  0  0  0  0  0  0  0  0  0  0
  -17.1312  -39.7834   -9.2212 C   0  0  2  0  0  0  0  0  0  0  0  0
  -18.2212  -38.8447   -9.5408 C   0  0  0  0  0  0  0  0  0  0  0  0
  -19.4997  -38.7829   -8.8593 C   0  0  0  0  0  0  0  0  0  0  0  0
  -19.4823  -37.8426   -7.8071 C   0  0  0  0  0  0  0  0  0  0  0  0
  -20.5521  -37.5908   -6.9832 C   0  0  0  0  0  0  0  0  0  0  0  0
  -21.6987  -38.2879   -7.1921 C   0  0  0  0  0  0  0  0  0  0  0  0
  -21.8563  -39.2732   -8.2260 C   0  0  0  0  0  0  0  0  0  0  0  0
  -23.2317  -39.8212   -8.1270 C   0  0  0  0  0  0  0  0  0  0  0  0
  -24.0087  -40.3970   -9.2753 C   0  0  0  0  0  0  0  0  0  0  0  0
  -24.5829  -41.7691   -8.9529 C   0  0  0  0  0  0  0  0  0  0  0  0
  -23.9720  -42.9039   -9.6889 C   0  0  0  0  0  0  0  0  0  0  0  0
  -22.8353  -43.4911   -9.2931 O   0  0  0  0  0  0  0  0  0  0  0  0
  -21.6284  -43.2886   -8.6089 C   0  0  0  0  0  0  0  0  0  0  0  0
  -20.4097  -42.8674   -9.1339 C   0  0  0  0  0  0  0  0  0  0  0  0
  -19.2645  -42.6932   -8.3947 C   0  0  0  0  0  0  0  0  0  0  0  0
  -19.3879  -42.9715   -7.0352 C   0  0  0  0  0  0  0  0  0  0  0  0
  -20.5711  -43.3870   -6.4880 C   0  0  0  0  0  0  0  0  0  0  0  0
  -20.6564  -43.6793   -4.9942 C   0  0  0  0  0  0  0  0  0  0  0  0
  -21.6003  -43.5187   -7.2889 N   0  0  0  0  0  0  0  0  0  0  0  0
  -17.8798  -42.2620   -8.7945 C   0  0  0  0  0  0  0  0  0  0  0  0
  -17.0136  -43.1491   -8.3267 O   0  0  0  0  0  0  0  0  0  0  0  0
  -17.3374  -41.1845   -9.5151 N   0  0  0  0  0  0  0  0  0  0  0  0
  -20.7421  -39.4633   -9.0021 C   0  0  0  0  0  0  0  0  0  0  0  0
  1  2  1  0
  2  3  1  0
  2  4  1  0
  4  5  2  0
  5  6  1  0
  6  7  2  0
  7  8  1  0
  8  9  2  0
  8 10  1  0
 10 11  1  0
 10 12  1  0
 10 13  1  0
 13 14  1  0
 14 15  1  0
 15 16  1  6
 15 17  1  0
 17 18  1  1
 18 19  1  0
 19 20  1  0
 20 21  2  0
 21 22  1  0
 22 23  2  0
 23 24  1  0
 24 25  1  0
 25 26  1  0
 26 27  1  0
 27 28  1  0
 28 29  1  0
 29 30  1  0
 30 31  2  0
 31 32  1  0
 32 33  2  0
 33 34  1  0
 33 35  1  0
 31 36  1  0
 36 37  2  0
 36 38  1  0
 23 39  1  0
  9  4  1  0
 35 29  2  0
 38 17  1  0
 39 19  2  0
M  END
$$$$
