
     RDKit          3D

 39 42  0  0  0  0  0  0  0  0999 V2000
  -24.0973  -41.1714   -4.0803 C   0  0  0  0  0  0  0  0  0  0  0  0
  -24.2453  -41.2385   -5.6054 C   0  0  0  0  0  0  0  0  0  0  0  0
  -24.9661  -40.0003   -6.0500 C   0  0  0  0  0  0  0  0  0  0  0  0
  -22.9083  -41.3623   -6.2507 C   0  0  0  0  0  0  0  0  0  0  0  0
  -22.3208  -42.5958   -6.3555 C   0  0  0  0  0  0  0  0  0  0  0  0
  -21.0878  -42.7360   -6.9469 C   0  0  0  0  0  0  0  0  0  0  0  0
  -20.4435  -41.6258   -7.4355 C   0  0  0  0  0  0  0  0  0  0  0  0
  -21.0064  -40.3682   -7.3465 C   0  0  0  0  0  0  0  0  0  0  0  0
  -22.2384  -40.2566   -6.7513 C   0  0  0  0  0  0  0  0  0  0  0  0
  -20.2587  -39.1658   -7.9000 C   0  0  0  0  0  0  0  0  0  0  0  0
  -20.3798  -38.0936   -6.8375 C   0  0  0  0  0  0  0  0  0  0  0  0
  -21.0546  -38.6994   -9.0746 C   0  0  0  0  0  0  0  0  0  0  0  0
  -18.9610  -39.5574   -8.0790 N   0  0  0  0  0  0  0  0  0  0  0  0
  -17.8082  -39.1794   -7.4358 C   0  0  0  0  0  0  0  0  0  0  0  0
  -16.6515  -38.5904   -8.1712 C   0  0  1  0  0  0  0  0  0  0  0  0
  -16.7825  -37.2250   -8.1418 O   0  0  0  0  0  0  0  0  0  0  0  0
  -15.2964  -38.9698   -7.6021 C   0  0  2  0  0  0  0  0  0  0  0  0
  -14.1436  -38.1914   -8.0886 C   0  0  0  0  0  0  0  0  0  0  0  0
  -13.5371  -38.3236   -9.3992 C   0  0  0  0  0  0  0  0  0  0  0  0
  -14.0874  -37.4073  -10.3207 C   0  0  0  0  0  0  0  0  0  0  0  0
  -13.7120  -37.3239  -11.6394 C   0  0  0  0  0  0  0  0  0  0  0  0
  -12.7520  -38.1741  -12.0864 C   0  0  0  0  0  0  0  0  0  0  0  0
  -12.1066  -39.1553  -11.2585 C   0  0  0  0  0  0  0  0  0  0  0  0
  -11.1359  -39.8955  -12.1019 C   0  0  0  0  0  0  0  0  0  0  0  0
   -9.8890  -40.5581  -11.5918 C   0  0  0  0  0  0  0  0  0  0  0  0
   -9.7726  -42.0030  -12.0553 C   0  0  0  0  0  0  0  0  0  0  0  0
   -9.9304  -43.0272  -10.9928 C   0  0  0  0  0  0  0  0  0  0  0  0
  -11.1293  -43.4523  -10.5739 O   0  0  0  0  0  0  0  0  0  0  0  0
  -12.4751  -43.0905  -10.4213 C   0  0  0  0  0  0  0  0  0  0  0  0
  -13.0783  -42.4913   -9.3188 C   0  0  0  0  0  0  0  0  0  0  0  0
  -14.4116  -42.1671   -9.2439 C   0  0  0  0  0  0  0  0  0  0  0  0
  -15.1629  -42.4818  -10.3741 C   0  0  0  0  0  0  0  0  0  0  0  0
  -14.6006  -43.0706  -11.4737 C   0  0  0  0  0  0  0  0  0  0  0  0
  -15.4646  -43.3958  -12.6870 C   0  0  0  0  0  0  0  0  0  0  0  0
  -13.3174  -43.3351  -11.4346 N   0  0  0  0  0  0  0  0  0  0  0  0
  -15.2205  -41.5364   -8.1434 C   0  0  0  0  0  0  0  0  0  0  0  0
  -16.2802  -42.2980   -7.9135 O   0  0  0  0  0  0  0  0  0  0  0  0
  -15.1024  -40.3812   -7.3523 N   0  0  0  0  0  0  0  0  0  0  0  0
  -12.5396  -39.1721   -9.9576 C   0  0  0  0  0  0  0  0  0  0  0  0
  1  2  1  0
  2  3  1  0
  2  4  1  0
  4  5  2  0
  5  6  1  0
  6  7  2  0
  7  8  1  0
  8  9  2  0
  8 10  1  0
 10 11  1  0
 10 12  1  0
 10 13  1  0
 13 14  1  0
 14 15  1  0
 15 16  1  1
 15 17  1  0
 17 18  1  6
 18 19  1  0
 19 20  1  0
 20 21  2  0
 21 22  1  0
 22 23  2  0
 23 24  1  0
 24 25  1  0
 25 26  1  0
 26 27  1  0
 27 28  1  0
 28 29  1  0
 29 30  1  0
 30 31  2  0
 31 32  1  0
 32 33  2  0
 33 34  1  0
 33 35  1  0
 31 36  1  0
 36 37  2  0
 36 38  1  0
 23 39  1  0
  9  4  1  0
 35 29  2  0
 38 17  1  0
 39 19  2  0
M  END
$$$$
