
     RDKit          3D

 39 42  0  0  0  0  0  0  0  0999 V2000
  -14.6090  -33.6520  -12.0743 C   0  0  0  0  0  0  0  0  0  0  0  0
  -15.2955  -34.5974  -11.0807 C   0  0  0  0  0  0  0  0  0  0  0  0
  -16.7668  -34.3067  -11.1143 C   0  0  0  0  0  0  0  0  0  0  0  0
  -15.0037  -36.0160  -11.4292 C   0  0  0  0  0  0  0  0  0  0  0  0
  -15.1267  -36.4309  -12.7293 C   0  0  0  0  0  0  0  0  0  0  0  0
  -14.8630  -37.7347  -13.0761 C   0  0  0  0  0  0  0  0  0  0  0  0
  -14.4728  -38.6254  -12.1061 C   0  0  0  0  0  0  0  0  0  0  0  0
  -14.3388  -38.2413  -10.7867 C   0  0  0  0  0  0  0  0  0  0  0  0
  -14.6084  -36.9335  -10.4680 C   0  0  0  0  0  0  0  0  0  0  0  0
  -13.9048  -39.2596   -9.7446 C   0  0  0  0  0  0  0  0  0  0  0  0
  -12.3997  -39.1211   -9.6503 C   0  0  0  0  0  0  0  0  0  0  0  0
  -14.1768  -40.5982  -10.3485 C   0  0  0  0  0  0  0  0  0  0  0  0
  -14.5199  -38.9117   -8.5742 N   0  0  0  0  0  0  0  0  0  0  0  0
  -14.8833  -39.6679   -7.4871 C   0  0  0  0  0  0  0  0  0  0  0  0
  -16.2885  -39.7073   -6.9878 C   0  0  1  0  0  0  0  0  0  0  0  0
  -16.3873  -38.8353   -5.9331 O   0  0  0  0  0  0  0  0  0  0  0  0
  -17.3281  -39.3411   -8.0315 C   0  0  2  0  0  0  0  0  0  0  0  0
  -18.4810  -38.5560   -7.5562 C   0  0  0  0  0  0  0  0  0  0  0  0
  -19.5796  -39.0763   -6.7654 C   0  0  0  0  0  0  0  0  0  0  0  0
  -19.3508  -38.9055   -5.3833 C   0  0  0  0  0  0  0  0  0  0  0  0
  -20.2185  -39.3219   -4.4032 C   0  0  0  0  0  0  0  0  0  0  0  0
  -21.3683  -39.9356   -4.7850 C   0  0  0  0  0  0  0  0  0  0  0  0
  -21.7287  -40.1735   -6.1553 C   0  0  0  0  0  0  0  0  0  0  0  0
  -23.0370  -40.8734   -6.1673 C   0  0  0  0  0  0  0  0  0  0  0  0
  -24.0352  -40.8038   -7.2865 C   0  0  0  0  0  0  0  0  0  0  0  0
  -24.4960  -42.1832   -7.7351 C   0  0  0  0  0  0  0  0  0  0  0  0
  -24.0383  -42.5998   -9.0841 C   0  0  0  0  0  0  0  0  0  0  0  0
  -22.8305  -43.1359   -9.3016 O   0  0  0  0  0  0  0  0  0  0  0  0
  -21.5073  -43.1839   -8.8407 C   0  0  0  0  0  0  0  0  0  0  0  0
  -20.4427  -42.3687   -9.2152 C   0  0  0  0  0  0  0  0  0  0  0  0
  -19.1669  -42.4796   -8.7169 C   0  0  0  0  0  0  0  0  0  0  0  0
  -18.9828  -43.4925   -7.7782 C   0  0  0  0  0  0  0  0  0  0  0  0
  -20.0080  -44.3105   -7.3884 C   0  0  0  0  0  0  0  0  0  0  0  0
  -19.7569  -45.4051   -6.3574 C   0  0  0  0  0  0  0  0  0  0  0  0
  -21.1851  -44.1133   -7.9304 N   0  0  0  0  0  0  0  0  0  0  0  0
  -17.9131  -41.7031   -9.0138 C   0  0  0  0  0  0  0  0  0  0  0  0
  -16.9471  -42.5626   -9.3039 O   0  0  0  0  0  0  0  0  0  0  0  0
  -17.5648  -40.3423   -9.0483 N   0  0  0  0  0  0  0  0  0  0  0  0
  -20.8086  -39.7277   -7.0689 C   0  0  0  0  0  0  0  0  0  0  0  0
  1  2  1  0
  2  3  1  0
  2  4  1  0
  4  5  2  0
  5  6  1  0
  6  7  2  0
  7  8  1  0
  8  9  2  0
  8 10  1  0
 10 11  1  0
 10 12  1  0
 10 13  1  0
 13 14  1  0
 14 15  1  0
 15 16  1  1
 15 17  1  0
 17 18  1  1
 18 19  1  0
 19 20  1  0
 20 21  2  0
 21 22  1  0
 22 23  2  0
 23 24  1  0
 24 25  1  0
 25 26  1  0
 26 27  1  0
 27 28  1  0
 28 29  1  0
 29 30  1  0
 30 31  2  0
 31 32  1  0
 32 33  2  0
 33 34  1  0
 33 35  1  0
 31 36  1  0
 36 37  2  0
 36 38  1  0
 23 39  1  0
  9  4  1  0
 35 29  2  0
 38 17  1  0
 39 19  2  0
M  END
$$$$
