
     RDKit          3D

 39 42  0  0  0  0  0  0  0  0999 V2000
  -12.2567  -34.2417  -11.6119 C   0  0  0  0  0  0  0  0  0  0  0  0
  -13.6530  -34.7926  -11.9272 C   0  0  0  0  0  0  0  0  0  0  0  0
  -14.1424  -34.1135  -13.1721 C   0  0  0  0  0  0  0  0  0  0  0  0
  -13.6018  -36.2727  -12.0879 C   0  0  0  0  0  0  0  0  0  0  0  0
  -13.5163  -36.8128  -13.3443 C   0  0  0  0  0  0  0  0  0  0  0  0
  -13.4675  -38.1755  -13.5187 C   0  0  0  0  0  0  0  0  0  0  0  0
  -13.5051  -38.9984  -12.4197 C   0  0  0  0  0  0  0  0  0  0  0  0
  -13.5910  -38.4879  -11.1397 C   0  0  0  0  0  0  0  0  0  0  0  0
  -13.6382  -37.1237  -10.9941 C   0  0  0  0  0  0  0  0  0  0  0  0
  -13.6304  -39.4346   -9.9508 C   0  0  0  0  0  0  0  0  0  0  0  0
  -12.6141  -38.8894   -8.9695 C   0  0  0  0  0  0  0  0  0  0  0  0
  -13.0916  -40.7348  -10.4504 C   0  0  0  0  0  0  0  0  0  0  0  0
  -14.9004  -39.3813   -9.4471 N   0  0  0  0  0  0  0  0  0  0  0  0
  -15.3690  -38.9652   -8.2253 C   0  0  0  0  0  0  0  0  0  0  0  0
  -16.6697  -39.4451   -7.6743 C   0  0  1  0  0  0  0  0  0  0  0  0
  -17.0782  -38.5525   -6.7157 O   0  0  0  0  0  0  0  0  0  0  0  0
  -17.7668  -39.5924   -8.7129 C   0  0  2  0  0  0  0  0  0  0  0  0
  -18.9767  -38.7776   -8.5035 C   0  0  0  0  0  0  0  0  0  0  0  0
  -19.9990  -39.0370   -7.5083 C   0  0  0  0  0  0  0  0  0  0  0  0
  -19.7513  -38.3292   -6.3128 C   0  0  0  0  0  0  0  0  0  0  0  0
  -20.5488  -38.4021   -5.1968 C   0  0  0  0  0  0  0  0  0  0  0  0
  -21.6441  -39.2036   -5.2442 C   0  0  0  0  0  0  0  0  0  0  0  0
  -22.0162  -39.9789   -6.3952 C   0  0  0  0  0  0  0  0  0  0  0  0
  -23.2513  -40.7295   -6.0590 C   0  0  0  0  0  0  0  0  0  0  0  0
  -24.2808  -41.1753   -7.0567 C   0  0  0  0  0  0  0  0  0  0  0  0
  -24.6188  -42.6524   -6.9158 C   0  0  0  0  0  0  0  0  0  0  0  0
  -24.1591  -43.5197   -8.0290 C   0  0  0  0  0  0  0  0  0  0  0  0
  -22.9116  -44.0019   -8.0990 O   0  0  0  0  0  0  0  0  0  0  0  0
  -21.5782  -43.7646   -7.7367 C   0  0  0  0  0  0  0  0  0  0  0  0
  -20.6070  -43.0761   -8.4585 C   0  0  0  0  0  0  0  0  0  0  0  0
  -19.3137  -42.8860   -8.0347 C   0  0  0  0  0  0  0  0  0  0  0  0
  -19.0086  -43.4408   -6.7937 C   0  0  0  0  0  0  0  0  0  0  0  0
  -19.9400  -44.1229   -6.0593 C   0  0  0  0  0  0  0  0  0  0  0  0
  -19.5579  -44.7120   -4.7060 C   0  0  0  0  0  0  0  0  0  0  0  0
  -21.1445  -44.2427   -6.5622 N   0  0  0  0  0  0  0  0  0  0  0  0
  -18.1485  -42.1884   -8.6817 C   0  0  0  0  0  0  0  0  0  0  0  0
  -17.1125  -43.0147   -8.6804 O   0  0  0  0  0  0  0  0  0  0  0  0
  -17.9332  -40.9233   -9.2541 N   0  0  0  0  0  0  0  0  0  0  0  0
  -21.1675  -39.8492   -7.4643 C   0  0  0  0  0  0  0  0  0  0  0  0
  1  2  1  0
  2  3  1  0
  2  4  1  0
  4  5  2  0
  5  6  1  0
  6  7  2  0
  7  8  1  0
  8  9  2  0
  8 10  1  0
 10 11  1  0
 10 12  1  0
 10 13  1  0
 13 14  1  0
 14 15  1  0
 15 16  1  1
 15 17  1  0
 17 18  1  1
 18 19  1  0
 19 20  1  0
 20 21  2  0
 21 22  1  0
 22 23  2  0
 23 24  1  0
 24 25  1  0
 25 26  1  0
 26 27  1  0
 27 28  1  0
 28 29  1  0
 29 30  1  0
 30 31  2  0
 31 32  1  0
 32 33  2  0
 33 34  1  0
 33 35  1  0
 31 36  1  0
 36 37  2  0
 36 38  1  0
 23 39  1  0
  9  4  1  0
 35 29  2  0
 38 17  1  0
 39 19  2  0
M  END
$$$$
