
     RDKit          3D

 39 42  0  0  0  0  0  0  0  0999 V2000
  -14.8620  -41.3084  -14.0144 C   0  0  0  0  0  0  0  0  0  0  0  0
  -13.4281  -41.3128  -13.4701 C   0  0  0  0  0  0  0  0  0  0  0  0
  -12.6065  -40.4061  -14.3381 C   0  0  0  0  0  0  0  0  0  0  0  0
  -13.4133  -40.8780  -12.0455 C   0  0  0  0  0  0  0  0  0  0  0  0
  -12.9040  -41.7165  -11.0888 C   0  0  0  0  0  0  0  0  0  0  0  0
  -12.8790  -41.3381   -9.7675 C   0  0  0  0  0  0  0  0  0  0  0  0
  -13.3705  -40.1068   -9.4087 C   0  0  0  0  0  0  0  0  0  0  0  0
  -13.8908  -39.2372  -10.3465 C   0  0  0  0  0  0  0  0  0  0  0  0
  -13.9036  -39.6402  -11.6587 C   0  0  0  0  0  0  0  0  0  0  0  0
  -14.4249  -37.8837   -9.9062 C   0  0  0  0  0  0  0  0  0  0  0  0
  -15.6382  -37.6285  -10.7756 C   0  0  0  0  0  0  0  0  0  0  0  0
  -13.3881  -36.8879  -10.3114 C   0  0  0  0  0  0  0  0  0  0  0  0
  -14.7631  -38.0041   -8.5869 N   0  0  0  0  0  0  0  0  0  0  0  0
  -15.2505  -39.0724   -7.8750 C   0  0  0  0  0  0  0  0  0  0  0  0
  -16.6898  -39.1777   -7.4971 C   0  0  1  0  0  0  0  0  0  0  0  0
  -17.0383  -38.0280   -6.8343 O   0  0  0  0  0  0  0  0  0  0  0  0
  -17.6276  -39.3736   -8.6744 C   0  0  2  0  0  0  0  0  0  0  0  0
  -18.9359  -38.7013   -8.5850 C   0  0  0  0  0  0  0  0  0  0  0  0
  -20.0387  -39.1239   -7.7435 C   0  0  0  0  0  0  0  0  0  0  0  0
  -20.0193  -38.4679   -6.4941 C   0  0  0  0  0  0  0  0  0  0  0  0
  -20.9357  -38.6895   -5.4951 C   0  0  0  0  0  0  0  0  0  0  0  0
  -21.9225  -39.5947   -5.7213 C   0  0  0  0  0  0  0  0  0  0  0  0
  -22.0627  -40.3331   -6.9458 C   0  0  0  0  0  0  0  0  0  0  0  0
  -23.2402  -41.2253   -6.8075 C   0  0  0  0  0  0  0  0  0  0  0  0
  -24.0837  -41.7132   -7.9496 C   0  0  0  0  0  0  0  0  0  0  0  0
  -24.2730  -43.2230   -7.9232 C   0  0  0  0  0  0  0  0  0  0  0  0
  -23.5873  -43.9697   -9.0071 C   0  0  0  0  0  0  0  0  0  0  0  0
  -22.2956  -44.3163   -8.9379 O   0  0  0  0  0  0  0  0  0  0  0  0
  -21.0511  -43.9659   -8.3957 C   0  0  0  0  0  0  0  0  0  0  0  0
  -20.0793  -43.1391   -8.9528 C   0  0  0  0  0  0  0  0  0  0  0  0
  -18.8768  -42.8434   -8.3571 C   0  0  0  0  0  0  0  0  0  0  0  0
  -18.6685  -43.4380   -7.1145 C   0  0  0  0  0  0  0  0  0  0  0  0
  -19.6032  -44.2550   -6.5394 C   0  0  0  0  0  0  0  0  0  0  0  0
  -19.3289  -44.8826   -5.1773 C   0  0  0  0  0  0  0  0  0  0  0  0
  -20.7159  -44.4672   -7.1988 N   0  0  0  0  0  0  0  0  0  0  0  0
  -17.7240  -41.9922   -8.8147 C   0  0  0  0  0  0  0  0  0  0  0  0
  -16.6120  -42.7065   -8.7184 O   0  0  0  0  0  0  0  0  0  0  0  0
  -17.5794  -40.6795   -9.2944 N   0  0  0  0  0  0  0  0  0  0  0  0
  -21.1078  -40.0527   -7.8890 C   0  0  0  0  0  0  0  0  0  0  0  0
  1  2  1  0
  2  3  1  0
  2  4  1  0
  4  5  2  0
  5  6  1  0
  6  7  2  0
  7  8  1  0
  8  9  2  0
  8 10  1  0
 10 11  1  0
 10 12  1  0
 10 13  1  0
 13 14  1  0
 14 15  1  0
 15 16  1  6
 15 17  1  0
 17 18  1  1
 18 19  1  0
 19 20  1  0
 20 21  2  0
 21 22  1  0
 22 23  2  0
 23 24  1  0
 24 25  1  0
 25 26  1  0
 26 27  1  0
 27 28  1  0
 28 29  1  0
 29 30  1  0
 30 31  2  0
 31 32  1  0
 32 33  2  0
 33 34  1  0
 33 35  1  0
 31 36  1  0
 36 37  2  0
 36 38  1  0
 23 39  1  0
  9  4  1  0
 35 29  2  0
 38 17  1  0
 39 19  2  0
M  END
$$$$
