
     RDKit          3D

 39 42  0  0  0  0  0  0  0  0999 V2000
  -11.6594  -34.8162  -12.5107 C   0  0  0  0  0  0  0  0  0  0  0  0
  -10.6824  -35.9932  -12.3992 C   0  0  0  0  0  0  0  0  0  0  0  0
   -9.7705  -35.7226  -11.2391 C   0  0  0  0  0  0  0  0  0  0  0  0
  -11.4283  -37.2715  -12.2301 C   0  0  0  0  0  0  0  0  0  0  0  0
  -10.8026  -38.4596  -12.5032 C   0  0  0  0  0  0  0  0  0  0  0  0
  -11.4695  -39.6525  -12.3547 C   0  0  0  0  0  0  0  0  0  0  0  0
  -12.7751  -39.6473  -11.9283 C   0  0  0  0  0  0  0  0  0  0  0  0
  -13.4358  -38.4687  -11.6443 C   0  0  0  0  0  0  0  0  0  0  0  0
  -12.7464  -37.2920  -11.8011 C   0  0  0  0  0  0  0  0  0  0  0  0
  -14.8814  -38.5081  -11.1752 C   0  0  0  0  0  0  0  0  0  0  0  0
  -15.3961  -39.8751  -11.5748 C   0  0  0  0  0  0  0  0  0  0  0  0
  -15.6079  -37.5116  -12.0177 C   0  0  0  0  0  0  0  0  0  0  0  0
  -14.8589  -38.3523   -9.8171 N   0  0  0  0  0  0  0  0  0  0  0  0
  -15.3434  -39.1500   -8.8098 C   0  0  0  0  0  0  0  0  0  0  0  0
  -16.7215  -38.9815   -8.2639 C   0  0  1  0  0  0  0  0  0  0  0  0
  -16.7461  -37.8241   -7.5274 O   0  0  0  0  0  0  0  0  0  0  0  0
  -17.8052  -38.9160   -9.3247 C   0  0  2  0  0  0  0  0  0  0  0  0
  -19.0220  -38.1649   -8.9685 C   0  0  0  0  0  0  0  0  0  0  0  0
  -20.0547  -38.6256   -8.0608 C   0  0  0  0  0  0  0  0  0  0  0  0
  -19.8253  -38.1769   -6.7426 C   0  0  0  0  0  0  0  0  0  0  0  0
  -20.6357  -38.4791   -5.6755 C   0  0  0  0  0  0  0  0  0  0  0  0
  -21.7260  -39.2569   -5.9002 C   0  0  0  0  0  0  0  0  0  0  0  0
  -22.0801  -39.7812   -7.1903 C   0  0  0  0  0  0  0  0  0  0  0  0
  -23.3149  -40.5882   -7.0308 C   0  0  0  0  0  0  0  0  0  0  0  0
  -24.3299  -40.8231   -8.1118 C   0  0  0  0  0  0  0  0  0  0  0  0
  -24.6616  -42.2988   -8.2808 C   0  0  0  0  0  0  0  0  0  0  0  0
  -24.1838  -42.9184   -9.5419 C   0  0  0  0  0  0  0  0  0  0  0  0
  -22.9330  -43.3724   -9.6931 O   0  0  0  0  0  0  0  0  0  0  0  0
  -21.6054  -43.2106   -9.2727 C   0  0  0  0  0  0  0  0  0  0  0  0
  -20.6293  -42.3861   -9.8256 C   0  0  0  0  0  0  0  0  0  0  0  0
  -19.3422  -42.2832   -9.3553 C   0  0  0  0  0  0  0  0  0  0  0  0
  -19.0491  -43.0795   -8.2503 C   0  0  0  0  0  0  0  0  0  0  0  0
  -19.9855  -43.9001   -7.6832 C   0  0  0  0  0  0  0  0  0  0  0  0
  -19.6166  -44.7529   -6.4745 C   0  0  0  0  0  0  0  0  0  0  0  0
  -21.1832  -43.9179   -8.2155 N   0  0  0  0  0  0  0  0  0  0  0  0
  -18.1731  -41.4645   -9.8306 C   0  0  0  0  0  0  0  0  0  0  0  0
  -17.1328  -42.2706   -9.9852 O   0  0  0  0  0  0  0  0  0  0  0  0
  -17.9578  -40.1084  -10.1291 N   0  0  0  0  0  0  0  0  0  0  0  0
  -21.2193  -39.4329   -8.1991 C   0  0  0  0  0  0  0  0  0  0  0  0
  1  2  1  0
  2  3  1  0
  2  4  1  0
  4  5  2  0
  5  6  1  0
  6  7  2  0
  7  8  1  0
  8  9  2  0
  8 10  1  0
 10 11  1  0
 10 12  1  0
 10 13  1  0
 13 14  1  0
 14 15  1  0
 15 16  1  6
 15 17  1  0
 17 18  1  1
 18 19  1  0
 19 20  1  0
 20 21  2  0
 21 22  1  0
 22 23  2  0
 23 24  1  0
 24 25  1  0
 25 26  1  0
 26 27  1  0
 27 28  1  0
 28 29  1  0
 29 30  1  0
 30 31  2  0
 31 32  1  0
 32 33  2  0
 33 34  1  0
 33 35  1  0
 31 36  1  0
 36 37  2  0
 36 38  1  0
 23 39  1  0
  9  4  1  0
 35 29  2  0
 38 17  1  0
 39 19  2  0
M  END
$$$$
