
     RDKit          3D

 39 42  0  0  0  0  0  0  0  0999 V2000
  -13.7376  -37.4253  -15.0798 C   0  0  0  0  0  0  0  0  0  0  0  0
  -12.8909  -38.5962  -14.5652 C   0  0  0  0  0  0  0  0  0  0  0  0
  -11.4890  -38.0976  -14.3738 C   0  0  0  0  0  0  0  0  0  0  0  0
  -13.4646  -39.1336  -13.2999 C   0  0  0  0  0  0  0  0  0  0  0  0
  -13.8314  -40.4521  -13.2314 C   0  0  0  0  0  0  0  0  0  0  0  0
  -14.3629  -40.9718  -12.0750 C   0  0  0  0  0  0  0  0  0  0  0  0
  -14.5254  -40.1571  -10.9813 C   0  0  0  0  0  0  0  0  0  0  0  0
  -14.1666  -38.8243  -11.0156 C   0  0  0  0  0  0  0  0  0  0  0  0
  -13.6383  -38.3313  -12.1828 C   0  0  0  0  0  0  0  0  0  0  0  0
  -14.3638  -37.9577   -9.7822 C   0  0  0  0  0  0  0  0  0  0  0  0
  -14.6131  -36.5600  -10.3091 C   0  0  0  0  0  0  0  0  0  0  0  0
  -13.0395  -37.9276   -9.0924 C   0  0  0  0  0  0  0  0  0  0  0  0
  -15.4547  -38.4529   -9.1235 N   0  0  0  0  0  0  0  0  0  0  0  0
  -15.5863  -38.9684   -7.8575 C   0  0  0  0  0  0  0  0  0  0  0  0
  -16.9202  -39.1504   -7.2147 C   0  0  1  0  0  0  0  0  0  0  0  0
  -17.0379  -38.2195   -6.2136 O   0  0  0  0  0  0  0  0  0  0  0  0
  -18.0930  -39.0036   -8.1671 C   0  0  2  0  0  0  0  0  0  0  0  0
  -19.3218  -38.4174   -7.6031 C   0  0  0  0  0  0  0  0  0  0  0  0
  -20.2399  -39.0969   -6.7097 C   0  0  0  0  0  0  0  0  0  0  0  0
  -19.9283  -38.8463   -5.3563 C   0  0  0  0  0  0  0  0  0  0  0  0
  -20.6224  -39.3774   -4.2965 C   0  0  0  0  0  0  0  0  0  0  0  0
  -21.6740  -40.1938   -4.5649 C   0  0  0  0  0  0  0  0  0  0  0  0
  -22.1019  -40.5331   -5.8939 C   0  0  0  0  0  0  0  0  0  0  0  0
  -23.2623  -41.4505   -5.7785 C   0  0  0  0  0  0  0  0  0  0  0  0
  -24.3485  -41.5907   -6.8053 C   0  0  0  0  0  0  0  0  0  0  0  0
  -24.5949  -43.0424   -7.1899 C   0  0  0  0  0  0  0  0  0  0  0  0
  -24.1872  -43.4142   -8.5677 C   0  0  0  0  0  0  0  0  0  0  0  0
  -22.9266  -43.7377   -8.8836 O   0  0  0  0  0  0  0  0  0  0  0  0
  -21.5814  -43.5398   -8.5417 C   0  0  0  0  0  0  0  0  0  0  0  0
  -20.7133  -42.5632   -9.0221 C   0  0  0  0  0  0  0  0  0  0  0  0
  -19.4002  -42.4344   -8.6377 C   0  0  0  0  0  0  0  0  0  0  0  0
  -18.9612  -43.3702   -7.7037 C   0  0  0  0  0  0  0  0  0  0  0  0
  -19.7889  -44.3422   -7.2117 C   0  0  0  0  0  0  0  0  0  0  0  0
  -19.2618  -45.3440   -6.1905 C   0  0  0  0  0  0  0  0  0  0  0  0
  -21.0241  -44.3702   -7.6496 N   0  0  0  0  0  0  0  0  0  0  0  0
  -18.3331  -41.4605   -9.0570 C   0  0  0  0  0  0  0  0  0  0  0  0
  -17.2587  -42.1467   -9.4187 O   0  0  0  0  0  0  0  0  0  0  0  0
  -18.2347  -40.0615   -9.1433 N   0  0  0  0  0  0  0  0  0  0  0  0
  -21.3559  -39.9618   -6.8925 C   0  0  0  0  0  0  0  0  0  0  0  0
  1  2  1  0
  2  3  1  0
  2  4  1  0
  4  5  2  0
  5  6  1  0
  6  7  2  0
  7  8  1  0
  8  9  2  0
  8 10  1  0
 10 11  1  0
 10 12  1  0
 10 13  1  0
 13 14  1  0
 14 15  1  0
 15 16  1  1
 15 17  1  0
 17 18  1  1
 18 19  1  0
 19 20  1  0
 20 21  2  0
 21 22  1  0
 22 23  2  0
 23 24  1  0
 24 25  1  0
 25 26  1  0
 26 27  1  0
 27 28  1  0
 28 29  1  0
 29 30  1  0
 30 31  2  0
 31 32  1  0
 32 33  2  0
 33 34  1  0
 33 35  1  0
 31 36  1  0
 36 37  2  0
 36 38  1  0
 23 39  1  0
  9  4  1  0
 35 29  2  0
 38 17  1  0
 39 19  2  0
M  END
$$$$
