
     RDKit          3D

 39 42  0  0  0  0  0  0  0  0999 V2000
  -21.3292  -43.1493   -3.6574 C   0  0  0  0  0  0  0  0  0  0  0  0
  -21.8824  -41.7235   -3.7737 C   0  0  0  0  0  0  0  0  0  0  0  0
  -21.0677  -40.8419   -2.8740 C   0  0  0  0  0  0  0  0  0  0  0  0
  -21.8352  -41.2635   -5.1898 C   0  0  0  0  0  0  0  0  0  0  0  0
  -22.4317  -42.0186   -6.1653 C   0  0  0  0  0  0  0  0  0  0  0  0
  -22.4019  -41.6153   -7.4791 C   0  0  0  0  0  0  0  0  0  0  0  0
  -21.7669  -40.4436   -7.8112 C   0  0  0  0  0  0  0  0  0  0  0  0
  -21.1557  -39.6586   -6.8539 C   0  0  0  0  0  0  0  0  0  0  0  0
  -21.2004  -40.0847   -5.5497 C   0  0  0  0  0  0  0  0  0  0  0  0
  -20.4635  -38.3689   -7.2649 C   0  0  0  0  0  0  0  0  0  0  0  0
  -20.9104  -37.3336   -6.2542 C   0  0  0  0  0  0  0  0  0  0  0  0
  -21.0705  -37.9828   -8.5737 C   0  0  0  0  0  0  0  0  0  0  0  0
  -19.1185  -38.6029   -7.1897 N   0  0  0  0  0  0  0  0  0  0  0  0
  -18.0455  -37.7786   -7.4240 C   0  0  0  0  0  0  0  0  0  0  0  0
  -16.8269  -38.2548   -8.1408 C   0  0  1  0  0  0  0  0  0  0  0  0
  -16.0272  -37.1669   -8.3844 O   0  0  0  0  0  0  0  0  0  0  0  0
  -16.0268  -39.2964   -7.3798 C   0  0  2  0  0  0  0  0  0  0  0  0
  -14.5680  -39.2783   -7.5877 C   0  0  0  0  0  0  0  0  0  0  0  0
  -13.8863  -39.7462   -8.7790 C   0  0  0  0  0  0  0  0  0  0  0  0
  -13.6688  -38.6978   -9.6983 C   0  0  0  0  0  0  0  0  0  0  0  0
  -13.0599  -38.8595  -10.9189 C   0  0  0  0  0  0  0  0  0  0  0  0
  -12.6398  -40.1038  -11.2646 C   0  0  0  0  0  0  0  0  0  0  0  0
  -12.7956  -41.2602  -10.4262 C   0  0  0  0  0  0  0  0  0  0  0  0
  -12.2308  -42.4264  -11.1491 C   0  0  0  0  0  0  0  0  0  0  0  0
  -11.6600  -43.6483  -10.4896 C   0  0  0  0  0  0  0  0  0  0  0  0
  -12.2485  -44.9348  -11.0506 C   0  0  0  0  0  0  0  0  0  0  0  0
  -13.1328  -45.6867  -10.1258 C   0  0  0  0  0  0  0  0  0  0  0  0
  -14.4271  -45.3846   -9.9612 O   0  0  0  0  0  0  0  0  0  0  0  0
  -15.3689  -44.3474  -10.0144 C   0  0  0  0  0  0  0  0  0  0  0  0
  -15.7574  -43.4935   -8.9857 C   0  0  0  0  0  0  0  0  0  0  0  0
  -16.6941  -42.4965   -9.1161 C   0  0  0  0  0  0  0  0  0  0  0  0
  -17.2609  -42.3773  -10.3832 C   0  0  0  0  0  0  0  0  0  0  0  0
  -16.9009  -43.2002  -11.4153 C   0  0  0  0  0  0  0  0  0  0  0  0
  -17.5500  -43.0305  -12.7844 C   0  0  0  0  0  0  0  0  0  0  0  0
  -15.9957  -44.1175  -11.1765 N   0  0  0  0  0  0  0  0  0  0  0  0
  -17.2343  -41.5046   -8.1225 C   0  0  0  0  0  0  0  0  0  0  0  0
  -18.5579  -41.5645   -8.1485 O   0  0  0  0  0  0  0  0  0  0  0  0
  -16.6719  -40.5816   -7.2247 N   0  0  0  0  0  0  0  0  0  0  0  0
  -13.4127  -41.0117   -9.2273 C   0  0  0  0  0  0  0  0  0  0  0  0
  1  2  1  0
  2  3  1  0
  2  4  1  0
  4  5  2  0
  5  6  1  0
  6  7  2  0
  7  8  1  0
  8  9  2  0
  8 10  1  0
 10 11  1  0
 10 12  1  0
 10 13  1  0
 13 14  1  0
 14 15  1  0
 15 16  1  1
 15 17  1  0
 17 18  1  6
 18 19  1  0
 19 20  1  0
 20 21  2  0
 21 22  1  0
 22 23  2  0
 23 24  1  0
 24 25  1  0
 25 26  1  0
 26 27  1  0
 27 28  1  0
 28 29  1  0
 29 30  1  0
 30 31  2  0
 31 32  1  0
 32 33  2  0
 33 34  1  0
 33 35  1  0
 31 36  1  0
 36 37  2  0
 36 38  1  0
 23 39  1  0
  9  4  1  0
 35 29  2  0
 38 17  1  0
 39 19  2  0
M  END
$$$$
