
     RDKit          3D

 39 42  0  0  0  0  0  0  0  0999 V2000
  -18.4796  -36.4079  -12.8357 C   0  0  0  0  0  0  0  0  0  0  0  0
  -19.0002  -37.3656  -11.7566 C   0  0  0  0  0  0  0  0  0  0  0  0
  -20.2353  -38.0287  -12.2908 C   0  0  0  0  0  0  0  0  0  0  0  0
  -17.9508  -38.3593  -11.3958 C   0  0  0  0  0  0  0  0  0  0  0  0
  -18.1003  -39.6673  -11.7758 C   0  0  0  0  0  0  0  0  0  0  0  0
  -17.1457  -40.6031  -11.4551 C   0  0  0  0  0  0  0  0  0  0  0  0
  -16.0338  -40.2176  -10.7469 C   0  0  0  0  0  0  0  0  0  0  0  0
  -15.8513  -38.9084  -10.3482 C   0  0  0  0  0  0  0  0  0  0  0  0
  -16.8198  -37.9945  -10.6817 C   0  0  0  0  0  0  0  0  0  0  0  0
  -14.6059  -38.5245   -9.5654 C   0  0  0  0  0  0  0  0  0  0  0  0
  -14.1720  -37.1884  -10.1310 C   0  0  0  0  0  0  0  0  0  0  0  0
  -13.5603  -39.5170   -9.9557 C   0  0  0  0  0  0  0  0  0  0  0  0
  -14.9808  -38.4222   -8.2546 N   0  0  0  0  0  0  0  0  0  0  0  0
  -15.6684  -39.2906   -7.4430 C   0  0  0  0  0  0  0  0  0  0  0  0
  -17.0958  -39.0628   -7.0741 C   0  0  1  0  0  0  0  0  0  0  0  0
  -17.2329  -37.7484   -6.7052 O   0  0  0  0  0  0  0  0  0  0  0  0
  -18.0808  -39.3696   -8.1875 C   0  0  2  0  0  0  0  0  0  0  0  0
  -19.3823  -38.6821   -8.1146 C   0  0  0  0  0  0  0  0  0  0  0  0
  -20.4517  -39.0096   -7.1916 C   0  0  0  0  0  0  0  0  0  0  0  0
  -20.3800  -38.2313   -6.0167 C   0  0  0  0  0  0  0  0  0  0  0  0
  -21.2562  -38.3443   -4.9649 C   0  0  0  0  0  0  0  0  0  0  0  0
  -22.2543  -39.2604   -5.0591 C   0  0  0  0  0  0  0  0  0  0  0  0
  -22.4459  -40.1175   -6.1962 C   0  0  0  0  0  0  0  0  0  0  0  0
  -23.6199  -40.9825   -5.9220 C   0  0  0  0  0  0  0  0  0  0  0  0
  -24.5102  -41.5769   -6.9746 C   0  0  0  0  0  0  0  0  0  0  0  0
  -24.7032  -43.0749   -6.7883 C   0  0  0  0  0  0  0  0  0  0  0  0
  -24.0641  -43.9321   -7.8176 C   0  0  0  0  0  0  0  0  0  0  0  0
  -22.7718  -44.2794   -7.7651 O   0  0  0  0  0  0  0  0  0  0  0  0
  -21.5054  -43.8853   -7.3108 C   0  0  0  0  0  0  0  0  0  0  0  0
  -20.5541  -43.1260   -7.9867 C   0  0  0  0  0  0  0  0  0  0  0  0
  -19.3277  -42.7805   -7.4720 C   0  0  0  0  0  0  0  0  0  0  0  0
  -19.0715  -43.2483   -6.1850 C   0  0  0  0  0  0  0  0  0  0  0  0
  -19.9849  -43.9964   -5.4937 C   0  0  0  0  0  0  0  0  0  0  0  0
  -19.6582  -44.4855   -4.0871 C   0  0  0  0  0  0  0  0  0  0  0  0
  -21.1240  -44.2657   -6.0836 N   0  0  0  0  0  0  0  0  0  0  0  0
  -18.1914  -41.9882   -8.0586 C   0  0  0  0  0  0  0  0  0  0  0  0
  -17.0788  -42.6973   -7.9348 O   0  0  0  0  0  0  0  0  0  0  0  0
  -18.0618  -40.7316   -8.6739 N   0  0  0  0  0  0  0  0  0  0  0  0
  -21.5288  -39.9406   -7.2001 C   0  0  0  0  0  0  0  0  0  0  0  0
  1  2  1  0
  2  3  1  0
  2  4  1  0
  4  5  2  0
  5  6  1  0
  6  7  2  0
  7  8  1  0
  8  9  2  0
  8 10  1  0
 10 11  1  0
 10 12  1  0
 10 13  1  0
 13 14  1  0
 14 15  1  0
 15 16  1  6
 15 17  1  0
 17 18  1  1
 18 19  1  0
 19 20  1  0
 20 21  2  0
 21 22  1  0
 22 23  2  0
 23 24  1  0
 24 25  1  0
 25 26  1  0
 26 27  1  0
 27 28  1  0
 28 29  1  0
 29 30  1  0
 30 31  2  0
 31 32  1  0
 32 33  2  0
 33 34  1  0
 33 35  1  0
 31 36  1  0
 36 37  2  0
 36 38  1  0
 23 39  1  0
  9  4  1  0
 35 29  2  0
 38 17  1  0
 39 19  2  0
M  END
$$$$
