
     RDKit          3D

 39 42  0  0  0  0  0  0  0  0999 V2000
  -18.3843  -40.0384  -13.6512 C   0  0  0  0  0  0  0  0  0  0  0  0
  -18.8486  -38.6052  -13.3631 C   0  0  0  0  0  0  0  0  0  0  0  0
  -20.3003  -38.6611  -12.9890 C   0  0  0  0  0  0  0  0  0  0  0  0
  -18.0215  -38.0002  -12.2819 C   0  0  0  0  0  0  0  0  0  0  0  0
  -18.3613  -36.7715  -11.7793 C   0  0  0  0  0  0  0  0  0  0  0  0
  -17.6141  -36.1923  -10.7814 C   0  0  0  0  0  0  0  0  0  0  0  0
  -16.5179  -36.8560  -10.2873 C   0  0  0  0  0  0  0  0  0  0  0  0
  -16.1471  -38.0950  -10.7706 C   0  0  0  0  0  0  0  0  0  0  0  0
  -16.9107  -38.6505  -11.7670 C   0  0  0  0  0  0  0  0  0  0  0  0
  -14.9261  -38.7949  -10.1956 C   0  0  0  0  0  0  0  0  0  0  0  0
  -13.7351  -38.1269  -10.8500 C   0  0  0  0  0  0  0  0  0  0  0  0
  -14.9767  -40.1928  -10.7189 C   0  0  0  0  0  0  0  0  0  0  0  0
  -14.9489  -38.5804   -8.8455 N   0  0  0  0  0  0  0  0  0  0  0  0
  -15.0816  -39.4555   -7.7956 C   0  0  0  0  0  0  0  0  0  0  0  0
  -16.3993  -39.7129   -7.1452 C   0  0  1  0  0  0  0  0  0  0  0  0
  -16.4368  -39.0047   -5.9706 O   0  0  0  0  0  0  0  0  0  0  0  0
  -17.5964  -39.3261   -7.9945 C   0  0  2  0  0  0  0  0  0  0  0  0
  -18.6875  -38.6194   -7.3003 C   0  0  0  0  0  0  0  0  0  0  0  0
  -19.6362  -39.2319   -6.3906 C   0  0  0  0  0  0  0  0  0  0  0  0
  -19.2054  -39.1372   -5.0501 C   0  0  0  0  0  0  0  0  0  0  0  0
  -19.9005  -39.6482   -3.9812 C   0  0  0  0  0  0  0  0  0  0  0  0
  -21.0753  -40.2838   -4.2267 C   0  0  0  0  0  0  0  0  0  0  0  0
  -21.6324  -40.4515   -5.5404 C   0  0  0  0  0  0  0  0  0  0  0  0
  -22.9049  -41.2022   -5.4031 C   0  0  0  0  0  0  0  0  0  0  0  0
  -24.0634  -41.1049   -6.3531 C   0  0  0  0  0  0  0  0  0  0  0  0
  -24.5438  -42.4717   -6.8190 C   0  0  0  0  0  0  0  0  0  0  0  0
  -24.2839  -42.7855   -8.2461 C   0  0  0  0  0  0  0  0  0  0  0  0
  -23.1071  -43.2574   -8.6774 O   0  0  0  0  0  0  0  0  0  0  0  0
  -21.7284  -43.2795   -8.4242 C   0  0  0  0  0  0  0  0  0  0  0  0
  -20.7590  -42.3999   -8.8985 C   0  0  0  0  0  0  0  0  0  0  0  0
  -19.4194  -42.4890   -8.6054 C   0  0  0  0  0  0  0  0  0  0  0  0
  -19.0633  -43.5493   -7.7748 C   0  0  0  0  0  0  0  0  0  0  0  0
  -19.9913  -44.4310   -7.2916 C   0  0  0  0  0  0  0  0  0  0  0  0
  -19.5524  -45.5758   -6.3855 C   0  0  0  0  0  0  0  0  0  0  0  0
  -21.2427  -44.2491   -7.6367 N   0  0  0  0  0  0  0  0  0  0  0  0
  -18.2502  -41.6451   -9.0340 C   0  0  0  0  0  0  0  0  0  0  0  0
  -17.3133  -42.4449   -9.5224 O   0  0  0  0  0  0  0  0  0  0  0  0
  -17.9537  -40.2716   -9.0290 N   0  0  0  0  0  0  0  0  0  0  0  0
  -20.8762  -39.9131   -6.5495 C   0  0  0  0  0  0  0  0  0  0  0  0
  1  2  1  0
  2  3  1  0
  2  4  1  0
  4  5  2  0
  5  6  1  0
  6  7  2  0
  7  8  1  0
  8  9  2  0
  8 10  1  0
 10 11  1  0
 10 12  1  0
 10 13  1  0
 13 14  1  0
 14 15  1  0
 15 16  1  1
 15 17  1  0
 17 18  1  1
 18 19  1  0
 19 20  1  0
 20 21  2  0
 21 22  1  0
 22 23  2  0
 23 24  1  0
 24 25  1  0
 25 26  1  0
 26 27  1  0
 27 28  1  0
 28 29  1  0
 29 30  1  0
 30 31  2  0
 31 32  1  0
 32 33  2  0
 33 34  1  0
 33 35  1  0
 31 36  1  0
 36 37  2  0
 36 38  1  0
 23 39  1  0
  9  4  1  0
 35 29  2  0
 38 17  1  0
 39 19  2  0
M  END
$$$$
