
     RDKit          3D

 39 42  0  0  0  0  0  0  0  0999 V2000
  -22.1587  -38.2493   -3.4591 C   0  0  0  0  0  0  0  0  0  0  0  0
  -22.9668  -38.9816   -4.5375 C   0  0  0  0  0  0  0  0  0  0  0  0
  -24.4209  -38.7229   -4.2743 C   0  0  0  0  0  0  0  0  0  0  0  0
  -22.5592  -38.5194   -5.8937 C   0  0  0  0  0  0  0  0  0  0  0  0
  -23.4723  -37.8825   -6.6927 C   0  0  0  0  0  0  0  0  0  0  0  0
  -23.1205  -37.4464   -7.9479 C   0  0  0  0  0  0  0  0  0  0  0  0
  -21.8403  -37.6537   -8.4002 C   0  0  0  0  0  0  0  0  0  0  0  0
  -20.8953  -38.2918   -7.6217 C   0  0  0  0  0  0  0  0  0  0  0  0
  -21.2733  -38.7170   -6.3724 C   0  0  0  0  0  0  0  0  0  0  0  0
  -19.4895  -38.5012   -8.1613 C   0  0  0  0  0  0  0  0  0  0  0  0
  -18.5957  -37.6323   -7.3015 C   0  0  0  0  0  0  0  0  0  0  0  0
  -19.4870  -37.9005   -9.5287 C   0  0  0  0  0  0  0  0  0  0  0  0
  -19.2032  -39.8294   -8.0091 N   0  0  0  0  0  0  0  0  0  0  0  0
  -18.0191  -40.4718   -7.7428 C   0  0  0  0  0  0  0  0  0  0  0  0
  -16.6995  -39.8707   -8.0934 C   0  0  1  0  0  0  0  0  0  0  0  0
  -16.6459  -38.6161   -7.5408 O   0  0  0  0  0  0  0  0  0  0  0  0
  -15.5046  -40.6743   -7.6133 C   0  0  2  0  0  0  0  0  0  0  0  0
  -14.2544  -40.5020   -8.3742 C   0  0  0  0  0  0  0  0  0  0  0  0
  -13.9917  -41.0540   -9.6891 C   0  0  0  0  0  0  0  0  0  0  0  0
  -14.3185  -40.1379  -10.7116 C   0  0  0  0  0  0  0  0  0  0  0  0
  -14.1869  -40.4036  -12.0528 C   0  0  0  0  0  0  0  0  0  0  0  0
  -13.7129  -41.6220  -12.4203 C   0  0  0  0  0  0  0  0  0  0  0  0
  -13.3409  -42.6484  -11.4862 C   0  0  0  0  0  0  0  0  0  0  0  0
  -12.8884  -43.8289  -12.2629 C   0  0  0  0  0  0  0  0  0  0  0  0
  -11.9084  -44.8539  -11.7700 C   0  0  0  0  0  0  0  0  0  0  0  0
  -12.4266  -46.2750  -11.9378 C   0  0  0  0  0  0  0  0  0  0  0  0
  -12.7582  -46.9848  -10.6773 C   0  0  0  0  0  0  0  0  0  0  0  0
  -13.9308  -46.8288  -10.0494 O   0  0  0  0  0  0  0  0  0  0  0  0
  -14.9919  -45.9404   -9.8252 C   0  0  0  0  0  0  0  0  0  0  0  0
  -15.1154  -44.9972   -8.8086 C   0  0  0  0  0  0  0  0  0  0  0  0
  -16.1934  -44.1592   -8.6536 C   0  0  0  0  0  0  0  0  0  0  0  0
  -17.2007  -44.3066   -9.6046 C   0  0  0  0  0  0  0  0  0  0  0  0
  -17.1101  -45.2236  -10.6160 C   0  0  0  0  0  0  0  0  0  0  0  0
  -18.2391  -45.3474  -11.6330 C   0  0  0  0  0  0  0  0  0  0  0  0
  -16.0345  -45.9711  -10.6667 N   0  0  0  0  0  0  0  0  0  0  0  0
  -16.4925  -43.1054   -7.6226 C   0  0  0  0  0  0  0  0  0  0  0  0
  -17.6987  -43.3369   -7.1250 O   0  0  0  0  0  0  0  0  0  0  0  0
  -15.8093  -41.9930   -7.1029 N   0  0  0  0  0  0  0  0  0  0  0  0
  -13.5031  -42.3020  -10.1695 C   0  0  0  0  0  0  0  0  0  0  0  0
  1  2  1  0
  2  3  1  0
  2  4  1  0
  4  5  2  0
  5  6  1  0
  6  7  2  0
  7  8  1  0
  8  9  2  0
  8 10  1  0
 10 11  1  0
 10 12  1  0
 10 13  1  0
 13 14  1  0
 14 15  1  0
 15 16  1  1
 15 17  1  0
 17 18  1  6
 18 19  1  0
 19 20  1  0
 20 21  2  0
 21 22  1  0
 22 23  2  0
 23 24  1  0
 24 25  1  0
 25 26  1  0
 26 27  1  0
 27 28  1  0
 28 29  1  0
 29 30  1  0
 30 31  2  0
 31 32  1  0
 32 33  2  0
 33 34  1  0
 33 35  1  0
 31 36  1  0
 36 37  2  0
 36 38  1  0
 23 39  1  0
  9  4  1  0
 35 29  2  0
 38 17  1  0
 39 19  2  0
M  END
$$$$
