
     RDKit          3D

 39 42  0  0  0  0  0  0  0  0999 V2000
  -21.0413  -40.4495   -1.7610 C   0  0  0  0  0  0  0  0  0  0  0  0
  -21.5711  -39.8045   -3.0476 C   0  0  0  0  0  0  0  0  0  0  0  0
  -20.9303  -38.4545   -3.1801 C   0  0  0  0  0  0  0  0  0  0  0  0
  -21.2782  -40.6735   -4.2215 C   0  0  0  0  0  0  0  0  0  0  0  0
  -21.2055  -42.0317   -4.0547 C   0  0  0  0  0  0  0  0  0  0  0  0
  -20.9368  -42.8549   -5.1223 C   0  0  0  0  0  0  0  0  0  0  0  0
  -20.7403  -42.3052   -6.3656 C   0  0  0  0  0  0  0  0  0  0  0  0
  -20.8065  -40.9412   -6.5693 C   0  0  0  0  0  0  0  0  0  0  0  0
  -21.0763  -40.1424   -5.4861 C   0  0  0  0  0  0  0  0  0  0  0  0
  -20.5823  -40.3745   -7.9621 C   0  0  0  0  0  0  0  0  0  0  0  0
  -21.4918  -39.1673   -8.0556 C   0  0  0  0  0  0  0  0  0  0  0  0
  -21.1245  -41.3960   -8.9072 C   0  0  0  0  0  0  0  0  0  0  0  0
  -19.2633  -40.0221   -8.0361 N   0  0  0  0  0  0  0  0  0  0  0  0
  -18.6567  -38.9019   -8.5488 C   0  0  0  0  0  0  0  0  0  0  0  0
  -17.2039  -38.6295   -8.3471 C   0  0  1  0  0  0  0  0  0  0  0  0
  -17.0857  -37.6442   -7.3996 O   0  0  0  0  0  0  0  0  0  0  0  0
  -16.4013  -39.8397   -7.9051 C   0  0  2  0  0  0  0  0  0  0  0  0
  -14.9955  -39.5919   -7.5393 C   0  0  0  0  0  0  0  0  0  0  0  0
  -13.9209  -39.3257   -8.4760 C   0  0  0  0  0  0  0  0  0  0  0  0
  -13.7379  -37.9408   -8.6762 C   0  0  0  0  0  0  0  0  0  0  0  0
  -12.8013  -37.4039   -9.5255 C   0  0  0  0  0  0  0  0  0  0  0  0
  -12.0003  -38.2561  -10.2158 C   0  0  0  0  0  0  0  0  0  0  0  0
  -12.0766  -39.6868  -10.1080 C   0  0  0  0  0  0  0  0  0  0  0  0
  -11.0593  -40.2672  -11.0188 C   0  0  0  0  0  0  0  0  0  0  0  0
  -10.3960  -41.5999  -10.8237 C   0  0  0  0  0  0  0  0  0  0  0  0
  -10.4623  -42.4657  -12.0736 C   0  0  0  0  0  0  0  0  0  0  0  0
  -11.3415  -43.6574  -11.9766 C   0  0  0  0  0  0  0  0  0  0  0  0
  -12.6646  -43.5949  -12.1743 O   0  0  0  0  0  0  0  0  0  0  0  0
  -13.7892  -42.7618  -12.0915 C   0  0  0  0  0  0  0  0  0  0  0  0
  -14.6460  -42.5893  -11.0078 C   0  0  0  0  0  0  0  0  0  0  0  0
  -15.7345  -41.7506  -11.0043 C   0  0  0  0  0  0  0  0  0  0  0  0
  -15.9484  -41.0515  -12.1902 C   0  0  0  0  0  0  0  0  0  0  0  0
  -15.1251  -41.1981  -13.2731 C   0  0  0  0  0  0  0  0  0  0  0  0
  -15.4006  -40.4109  -14.5494 C   0  0  0  0  0  0  0  0  0  0  0  0
  -14.1153  -42.0266  -13.1636 N   0  0  0  0  0  0  0  0  0  0  0  0
  -16.7579  -41.4553   -9.9420 C   0  0  0  0  0  0  0  0  0  0  0  0
  -17.9642  -41.6079  -10.4688 O   0  0  0  0  0  0  0  0  0  0  0  0
  -16.7141  -41.0746   -8.5901 N   0  0  0  0  0  0  0  0  0  0  0  0
  -13.0371  -40.1391   -9.2403 C   0  0  0  0  0  0  0  0  0  0  0  0
  1  2  1  0
  2  3  1  0
  2  4  1  0
  4  5  2  0
  5  6  1  0
  6  7  2  0
  7  8  1  0
  8  9  2  0
  8 10  1  0
 10 11  1  0
 10 12  1  0
 10 13  1  0
 13 14  1  0
 14 15  1  0
 15 16  1  1
 15 17  1  0
 17 18  1  6
 18 19  1  0
 19 20  1  0
 20 21  2  0
 21 22  1  0
 22 23  2  0
 23 24  1  0
 24 25  1  0
 25 26  1  0
 26 27  1  0
 27 28  1  0
 28 29  1  0
 29 30  1  0
 30 31  2  0
 31 32  1  0
 32 33  2  0
 33 34  1  0
 33 35  1  0
 31 36  1  0
 36 37  2  0
 36 38  1  0
 23 39  1  0
  9  4  1  0
 35 29  2  0
 38 17  1  0
 39 19  2  0
M  END
$$$$
