
     RDKit          3D

 39 42  0  0  0  0  0  0  0  0999 V2000
  -11.6267  -43.6015  -11.4121 C   0  0  0  0  0  0  0  0  0  0  0  0
  -12.8435  -43.2565  -12.2797 C   0  0  0  0  0  0  0  0  0  0  0  0
  -14.0164  -44.0275  -11.7501 C   0  0  0  0  0  0  0  0  0  0  0  0
  -13.0930  -41.7880  -12.2619 C   0  0  0  0  0  0  0  0  0  0  0  0
  -12.9887  -41.0712  -13.4251 C   0  0  0  0  0  0  0  0  0  0  0  0
  -13.2143  -39.7152  -13.4345 C   0  0  0  0  0  0  0  0  0  0  0  0
  -13.5471  -39.0783  -12.2640 C   0  0  0  0  0  0  0  0  0  0  0  0
  -13.6607  -39.7696  -11.0743 C   0  0  0  0  0  0  0  0  0  0  0  0
  -13.4302  -41.1228  -11.0932 C   0  0  0  0  0  0  0  0  0  0  0  0
  -14.0309  -39.0254   -9.8014 C   0  0  0  0  0  0  0  0  0  0  0  0
  -14.8911  -37.8632  -10.2514 C   0  0  0  0  0  0  0  0  0  0  0  0
  -12.7553  -38.4428   -9.2874 C   0  0  0  0  0  0  0  0  0  0  0  0
  -14.7321  -39.9030   -9.0220 N   0  0  0  0  0  0  0  0  0  0  0  0
  -15.2114  -39.7867   -7.7404 C   0  0  0  0  0  0  0  0  0  0  0  0
  -16.6260  -39.4059   -7.4589 C   0  0  1  0  0  0  0  0  0  0  0  0
  -16.6152  -38.2244   -6.7614 O   0  0  0  0  0  0  0  0  0  0  0  0
  -17.4826  -39.2394   -8.7009 C   0  0  2  0  0  0  0  0  0  0  0  0
  -18.6618  -38.3657   -8.5676 C   0  0  0  0  0  0  0  0  0  0  0  0
  -19.8859  -38.7117   -7.8714 C   0  0  0  0  0  0  0  0  0  0  0  0
  -19.8599  -38.2780   -6.5287 C   0  0  0  0  0  0  0  0  0  0  0  0
  -20.8801  -38.4876   -5.6331 C   0  0  0  0  0  0  0  0  0  0  0  0
  -21.9831  -39.1525   -6.0638 C   0  0  0  0  0  0  0  0  0  0  0  0
  -22.1437  -39.6487   -7.4027 C   0  0  0  0  0  0  0  0  0  0  0  0
  -23.4620  -40.3248   -7.4829 C   0  0  0  0  0  0  0  0  0  0  0  0
  -24.2780  -40.4643   -8.7353 C   0  0  0  0  0  0  0  0  0  0  0  0
  -24.7205  -41.8999   -8.9786 C   0  0  0  0  0  0  0  0  0  0  0  0
  -24.0830  -42.5751  -10.1364 C   0  0  0  0  0  0  0  0  0  0  0  0
  -22.8783  -43.1550  -10.0587 O   0  0  0  0  0  0  0  0  0  0  0  0
  -21.6418  -43.1254   -9.3985 C   0  0  0  0  0  0  0  0  0  0  0  0
  -20.5019  -42.4088   -9.7526 C   0  0  0  0  0  0  0  0  0  0  0  0
  -19.3204  -42.4332   -9.0514 C   0  0  0  0  0  0  0  0  0  0  0  0
  -19.3188  -43.2461   -7.9200 C   0  0  0  0  0  0  0  0  0  0  0  0
  -20.4222  -43.9628   -7.5446 C   0  0  0  0  0  0  0  0  0  0  0  0
  -20.3714  -44.8388   -6.2977 C   0  0  0  0  0  0  0  0  0  0  0  0
  -21.4963  -43.8633   -8.2892 N   0  0  0  0  0  0  0  0  0  0  0  0
  -18.0067  -41.7413   -9.2936 C   0  0  0  0  0  0  0  0  0  0  0  0
  -17.0428  -42.6502   -9.2620 O   0  0  0  0  0  0  0  0  0  0  0  0
  -17.6038  -40.4166   -9.5324 N   0  0  0  0  0  0  0  0  0  0  0  0
  -21.0804  -39.3977   -8.2312 C   0  0  0  0  0  0  0  0  0  0  0  0
  1  2  1  0
  2  3  1  0
  2  4  1  0
  4  5  2  0
  5  6  1  0
  6  7  2  0
  7  8  1  0
  8  9  2  0
  8 10  1  0
 10 11  1  0
 10 12  1  0
 10 13  1  0
 13 14  1  0
 14 15  1  0
 15 16  1  6
 15 17  1  0
 17 18  1  1
 18 19  1  0
 19 20  1  0
 20 21  2  0
 21 22  1  0
 22 23  2  0
 23 24  1  0
 24 25  1  0
 25 26  1  0
 26 27  1  0
 27 28  1  0
 28 29  1  0
 29 30  1  0
 30 31  2  0
 31 32  1  0
 32 33  2  0
 33 34  1  0
 33 35  1  0
 31 36  1  0
 36 37  2  0
 36 38  1  0
 23 39  1  0
  9  4  1  0
 35 29  2  0
 38 17  1  0
 39 19  2  0
M  END
$$$$
