
     RDKit          3D

 39 42  0  0  0  0  0  0  0  0999 V2000
  -11.6646  -35.4679  -13.6664 C   0  0  0  0  0  0  0  0  0  0  0  0
  -12.2425  -35.4510  -12.2458 C   0  0  0  0  0  0  0  0  0  0  0  0
  -13.4370  -34.5433  -12.2486 C   0  0  0  0  0  0  0  0  0  0  0  0
  -12.5979  -36.8319  -11.8146 C   0  0  0  0  0  0  0  0  0  0  0  0
  -11.6356  -37.8074  -11.8129 C   0  0  0  0  0  0  0  0  0  0  0  0
  -11.9386  -39.0891  -11.4192 C   0  0  0  0  0  0  0  0  0  0  0  0
  -13.2197  -39.3889  -11.0248 C   0  0  0  0  0  0  0  0  0  0  0  0
  -14.2135  -38.4305  -11.0144 C   0  0  0  0  0  0  0  0  0  0  0  0
  -13.8836  -37.1588  -11.4123 C   0  0  0  0  0  0  0  0  0  0  0  0
  -15.6185  -38.8052  -10.5708 C   0  0  0  0  0  0  0  0  0  0  0  0
  -16.3039  -39.3350  -11.8129 C   0  0  0  0  0  0  0  0  0  0  0  0
  -16.2909  -37.5174  -10.2244 C   0  0  0  0  0  0  0  0  0  0  0  0
  -15.4844  -39.7730   -9.6143 N   0  0  0  0  0  0  0  0  0  0  0  0
  -15.8134  -39.7748   -8.2811 C   0  0  0  0  0  0  0  0  0  0  0  0
  -17.1138  -39.2342   -7.7889 C   0  0  1  0  0  0  0  0  0  0  0  0
  -16.9559  -37.8895   -7.5665 O   0  0  0  0  0  0  0  0  0  0  0  0
  -18.2745  -39.4447   -8.7441 C   0  0  2  0  0  0  0  0  0  0  0  0
  -19.5417  -38.7828   -8.3866 C   0  0  0  0  0  0  0  0  0  0  0  0
  -20.4409  -39.2097   -7.3320 C   0  0  0  0  0  0  0  0  0  0  0  0
  -20.1676  -38.5465   -6.1167 C   0  0  0  0  0  0  0  0  0  0  0  0
  -20.8536  -38.7699   -4.9478 C   0  0  0  0  0  0  0  0  0  0  0  0
  -21.8574  -39.6846   -4.9597 C   0  0  0  0  0  0  0  0  0  0  0  0
  -22.2427  -40.4312   -6.1252 C   0  0  0  0  0  0  0  0  0  0  0  0
  -23.3572  -41.3323   -5.7410 C   0  0  0  0  0  0  0  0  0  0  0  0
  -24.4156  -41.8338   -6.6803 C   0  0  0  0  0  0  0  0  0  0  0  0
  -24.5811  -43.3450   -6.6091 C   0  0  0  0  0  0  0  0  0  0  0  0
  -24.1294  -44.0922   -7.8092 C   0  0  0  0  0  0  0  0  0  0  0  0
  -22.8484  -44.4276   -8.0095 O   0  0  0  0  0  0  0  0  0  0  0  0
  -21.5216  -44.0638   -7.7400 C   0  0  0  0  0  0  0  0  0  0  0  0
  -20.6951  -43.2321   -8.4907 C   0  0  0  0  0  0  0  0  0  0  0  0
  -19.3977  -42.9230   -8.1599 C   0  0  0  0  0  0  0  0  0  0  0  0
  -18.9294  -43.5086   -6.9857 C   0  0  0  0  0  0  0  0  0  0  0  0
  -19.7159  -44.3301   -6.2252 C   0  0  0  0  0  0  0  0  0  0  0  0
  -19.1580  -44.9475   -4.9478 C   0  0  0  0  0  0  0  0  0  0  0  0
  -20.9397  -44.5553   -6.6373 N   0  0  0  0  0  0  0  0  0  0  0  0
  -18.3735  -42.0648   -8.8510 C   0  0  0  0  0  0  0  0  0  0  0  0
  -17.2593  -42.7692   -8.9859 O   0  0  0  0  0  0  0  0  0  0  0  0
  -18.3444  -40.7537   -9.3555 N   0  0  0  0  0  0  0  0  0  0  0  0
  -21.5081  -40.1483   -7.2478 C   0  0  0  0  0  0  0  0  0  0  0  0
  1  2  1  0
  2  3  1  0
  2  4  1  0
  4  5  2  0
  5  6  1  0
  6  7  2  0
  7  8  1  0
  8  9  2  0
  8 10  1  0
 10 11  1  0
 10 12  1  0
 10 13  1  0
 13 14  1  0
 14 15  1  0
 15 16  1  6
 15 17  1  0
 17 18  1  1
 18 19  1  0
 19 20  1  0
 20 21  2  0
 21 22  1  0
 22 23  2  0
 23 24  1  0
 24 25  1  0
 25 26  1  0
 26 27  1  0
 27 28  1  0
 28 29  1  0
 29 30  1  0
 30 31  2  0
 31 32  1  0
 32 33  2  0
 33 34  1  0
 33 35  1  0
 31 36  1  0
 36 37  2  0
 36 38  1  0
 23 39  1  0
  9  4  1  0
 35 29  2  0
 38 17  1  0
 39 19  2  0
M  END
$$$$
