
     RDKit          3D

 37 40  0  0  0  0  0  0  0  0999 V2000
  -21.7043  -37.6613   -6.3209 C   0  0  0  0  0  0  0  0  0  0  0  0
  -20.4794  -38.4837   -6.0933 C   0  0  0  0  0  0  0  0  0  0  0  0
  -20.5098  -38.9254   -4.6474 C   0  0  0  0  0  0  0  0  0  0  0  0
  -19.3102  -37.9433   -6.5529 N   0  0  0  0  0  0  0  0  0  0  0  0
  -17.9998  -38.3490   -6.4782 C   0  0  0  0  0  0  0  0  0  0  0  0
  -17.2652  -38.6135   -7.7171 C   0  0  1  0  0  0  0  0  0  0  0  0
  -16.0136  -38.0634   -7.8982 O   0  0  0  0  0  0  0  0  0  0  0  0
  -17.2250  -40.0949   -8.1342 C   0  0  2  0  0  0  0  0  0  0  0  0
  -17.0444  -40.1994   -9.5966 C   0  0  0  0  0  0  0  0  0  0  0  0
  -15.8190  -40.8622  -10.1158 C   0  0  0  0  0  0  0  0  0  0  0  0
  -15.3941  -40.1916  -11.3066 C   0  0  0  0  0  0  0  0  0  0  0  0
  -14.3471  -40.5818  -12.0752 C   0  0  0  0  0  0  0  0  0  0  0  0
  -13.6803  -41.7053  -11.6406 C   0  0  0  0  0  0  0  0  0  0  0  0
  -14.0460  -42.4109  -10.4809 C   0  0  0  0  0  0  0  0  0  0  0  0
  -15.1291  -41.9695   -9.7177 C   0  0  0  0  0  0  0  0  0  0  0  0
  -13.2239  -43.4905  -10.2841 O   0  0  0  0  0  0  0  0  0  0  0  0
  -13.2085  -44.8415  -10.1585 C   0  0  0  0  0  0  0  0  0  0  0  0
  -14.5644  -45.4268   -9.9165 C   0  0  0  0  0  0  0  0  0  0  0  0
  -15.1305  -46.1760  -11.1122 C   0  0  0  0  0  0  0  0  0  0  0  0
  -16.1453  -45.3442  -11.8133 C   0  0  0  0  0  0  0  0  0  0  0  0
  -17.4301  -45.3155  -11.3082 O   0  0  0  0  0  0  0  0  0  0  0  0
  -18.2885  -44.3402  -10.7980 C   0  0  0  0  0  0  0  0  0  0  0  0
  -19.4020  -44.1529  -11.6269 C   0  0  0  0  0  0  0  0  0  0  0  0
  -20.3624  -43.2625  -11.3547 N   0  0  0  0  0  0  0  0  0  0  0  0
  -20.2036  -42.5550  -10.2423 C   0  0  0  0  0  0  0  0  0  0  0  0
  -19.1088  -42.6817   -9.3465 C   0  0  0  0  0  0  0  0  0  0  0  0
  -18.1342  -43.6024   -9.6376 C   0  0  0  0  0  0  0  0  0  0  0  0
  -19.2317  -41.7096   -8.2540 C   0  0  0  0  0  0  0  0  0  0  0  0
  -20.4333  -41.5618   -7.7814 O   0  0  0  0  0  0  0  0  0  0  0  0
  -18.2967  -40.8804   -7.5929 N   0  0  0  0  0  0  0  0  0  0  0  0
  -20.6687  -39.7750   -6.8814 C   0  0  0  0  0  0  0  0  0  0  0  0
  -20.4359  -39.8022   -8.2334 C   0  0  0  0  0  0  0  0  0  0  0  0
  -20.6500  -41.0007   -8.8873 C   0  0  0  0  0  0  0  0  0  0  0  0
  -21.0812  -42.1274   -8.2124 C   0  0  0  0  0  0  0  0  0  0  0  0
  -21.3131  -42.0914   -6.8558 C   0  0  0  0  0  0  0  0  0  0  0  0
  -21.9076  -43.6147   -5.8819 Br  0  0  0  0  0  0  0  0  0  0  0  0
  -21.0954  -40.8815   -6.2050 C   0  0  0  0  0  0  0  0  0  0  0  0
  1  2  1  0
  2  3  1  0
  2  4  1  0
  4  5  1  0
  5  6  1  0
  6  7  1  1
  6  8  1  0
  8  9  1  6
  9 10  1  0
 10 11  2  0
 11 12  1  0
 12 13  2  0
 13 14  1  0
 14 15  2  0
 14 16  1  0
 16 17  1  0
 17 18  1  0
 18 19  1  0
 19 20  1  0
 20 21  1  0
 21 22  1  0
 22 23  2  0
 23 24  1  0
 24 25  2  0
 25 26  1  0
 26 27  2  0
 26 28  1  0
 28 29  2  0
 28 30  1  0
  2 31  1  0
 31 32  2  0
 32 33  1  0
 33 34  2  0
 34 35  1  0
 35 36  1  0
 35 37  2  0
 15 10  1  0
 27 22  1  0
 30  8  1  0
 37 31  1  0
M  END
$$$$
