
     RDKit          3D

 37 40  0  0  0  0  0  0  0  0999 V2000
  -12.2831  -39.7159   -9.2628 C   0  0  0  0  0  0  0  0  0  0  0  0
  -13.4813  -39.4392  -10.1089 C   0  0  0  0  0  0  0  0  0  0  0  0
  -13.1118  -38.3019  -11.0345 C   0  0  0  0  0  0  0  0  0  0  0  0
  -14.6679  -39.3325   -9.4375 N   0  0  0  0  0  0  0  0  0  0  0  0
  -15.5324  -38.2857   -9.2272 C   0  0  0  0  0  0  0  0  0  0  0  0
  -16.5462  -38.4002   -8.1766 C   0  0  1  0  0  0  0  0  0  0  0  0
  -17.0362  -37.2601   -7.5751 O   0  0  0  0  0  0  0  0  0  0  0  0
  -17.7243  -39.3290   -8.5218 C   0  0  2  0  0  0  0  0  0  0  0  0
  -18.3935  -39.7722   -7.2817 C   0  0  0  0  0  0  0  0  0  0  0  0
  -19.8148  -39.3927   -7.0663 C   0  0  0  0  0  0  0  0  0  0  0  0
  -20.0224  -39.1299   -5.6749 C   0  0  0  0  0  0  0  0  0  0  0  0
  -21.2228  -38.8256   -5.1220 C   0  0  0  0  0  0  0  0  0  0  0  0
  -22.2835  -38.7798   -5.9987 C   0  0  0  0  0  0  0  0  0  0  0  0
  -22.1485  -39.0278   -7.3759 C   0  0  0  0  0  0  0  0  0  0  0  0
  -20.8914  -39.3335   -7.9017 C   0  0  0  0  0  0  0  0  0  0  0  0
  -23.3581  -38.9255   -8.0134 O   0  0  0  0  0  0  0  0  0  0  0  0
  -24.2527  -39.6078   -8.7720 C   0  0  0  0  0  0  0  0  0  0  0  0
  -23.6929  -40.8678   -9.3539 C   0  0  0  0  0  0  0  0  0  0  0  0
  -24.2310  -42.1336   -8.7059 C   0  0  0  0  0  0  0  0  0  0  0  0
  -23.2314  -42.6977   -7.7592 C   0  0  0  0  0  0  0  0  0  0  0  0
  -22.2106  -43.4740   -8.2711 O   0  0  0  0  0  0  0  0  0  0  0  0
  -20.8168  -43.4081   -8.3043 C   0  0  0  0  0  0  0  0  0  0  0  0
  -20.2367  -44.4449   -7.5623 C   0  0  0  0  0  0  0  0  0  0  0  0
  -18.9128  -44.5878   -7.4349 N   0  0  0  0  0  0  0  0  0  0  0  0
  -18.1661  -43.6830   -8.0569 C   0  0  0  0  0  0  0  0  0  0  0  0
  -18.6704  -42.6032   -8.8294 C   0  0  0  0  0  0  0  0  0  0  0  0
  -20.0305  -42.4729   -8.9539 C   0  0  0  0  0  0  0  0  0  0  0  0
  -17.5657  -41.7740   -9.3250 C   0  0  0  0  0  0  0  0  0  0  0  0
  -16.5281  -42.4338   -9.7458 O   0  0  0  0  0  0  0  0  0  0  0  0
  -17.3882  -40.3763   -9.4429 N   0  0  0  0  0  0  0  0  0  0  0  0
  -13.6453  -40.6371  -11.0376 C   0  0  0  0  0  0  0  0  0  0  0  0
  -14.4396  -40.5460  -12.1527 C   0  0  0  0  0  0  0  0  0  0  0  0
  -14.5607  -41.6778  -12.9363 C   0  0  0  0  0  0  0  0  0  0  0  0
  -13.9114  -42.8549  -12.6144 C   0  0  0  0  0  0  0  0  0  0  0  0
  -13.1167  -42.9382  -11.4931 C   0  0  0  0  0  0  0  0  0  0  0  0
  -12.2029  -44.5354  -11.0070 Br  0  0  0  0  0  0  0  0  0  0  0  0
  -13.0001  -41.7949  -10.7097 C   0  0  0  0  0  0  0  0  0  0  0  0
  1  2  1  0
  2  3  1  0
  2  4  1  0
  4  5  1  0
  5  6  1  0
  6  7  1  6
  6  8  1  0
  8  9  1  1
  9 10  1  0
 10 11  2  0
 11 12  1  0
 12 13  2  0
 13 14  1  0
 14 15  2  0
 14 16  1  0
 16 17  1  0
 17 18  1  0
 18 19  1  0
 19 20  1  0
 20 21  1  0
 21 22  1  0
 22 23  2  0
 23 24  1  0
 24 25  2  0
 25 26  1  0
 26 27  2  0
 26 28  1  0
 28 29  2  0
 28 30  1  0
  2 31  1  0
 31 32  2  0
 32 33  1  0
 33 34  2  0
 34 35  1  0
 35 36  1  0
 35 37  2  0
 15 10  1  0
 27 22  1  0
 30  8  1  0
 37 31  1  0
M  END
$$$$
