
     RDKit          3D

 37 40  0  0  0  0  0  0  0  0999 V2000
  -13.4205  -37.2370   -9.5077 C   0  0  0  0  0  0  0  0  0  0  0  0
  -14.3761  -38.3303   -9.8540 C   0  0  0  0  0  0  0  0  0  0  0  0
  -15.0153  -37.9535  -11.1716 C   0  0  0  0  0  0  0  0  0  0  0  0
  -15.2142  -38.7242   -8.8477 N   0  0  0  0  0  0  0  0  0  0  0  0
  -15.6019  -38.1344   -7.6690 C   0  0  0  0  0  0  0  0  0  0  0  0
  -16.6374  -38.7783   -6.8582 C   0  0  1  0  0  0  0  0  0  0  0  0
  -17.2044  -38.0911   -5.8055 O   0  0  0  0  0  0  0  0  0  0  0  0
  -17.7542  -39.4604   -7.6691 C   0  0  2  0  0  0  0  0  0  0  0  0
  -18.6326  -40.2297   -6.7643 C   0  0  0  0  0  0  0  0  0  0  0  0
  -20.0634  -39.8393   -6.6609 C   0  0  0  0  0  0  0  0  0  0  0  0
  -20.5015  -40.0235   -5.3109 C   0  0  0  0  0  0  0  0  0  0  0  0
  -21.7736  -39.8282   -4.8834 C   0  0  0  0  0  0  0  0  0  0  0  0
  -22.6680  -39.4276   -5.8506 C   0  0  0  0  0  0  0  0  0  0  0  0
  -22.3036  -39.2288   -7.1938 C   0  0  0  0  0  0  0  0  0  0  0  0
  -20.9802  -39.4381   -7.5877 C   0  0  0  0  0  0  0  0  0  0  0  0
  -23.3846  -38.8411   -7.9428 O   0  0  0  0  0  0  0  0  0  0  0  0
  -24.1474  -39.1777   -9.0134 C   0  0  0  0  0  0  0  0  0  0  0  0
  -23.5169  -40.2205   -9.8822 C   0  0  0  0  0  0  0  0  0  0  0  0
  -24.1782  -41.5855   -9.7789 C   0  0  0  0  0  0  0  0  0  0  0  0
  -23.3645  -42.4937   -8.9266 C   0  0  0  0  0  0  0  0  0  0  0  0
  -22.2840  -43.1350   -9.4991 O   0  0  0  0  0  0  0  0  0  0  0  0
  -20.9041  -43.1615   -9.2907 C   0  0  0  0  0  0  0  0  0  0  0  0
  -20.4762  -44.4204   -8.8499 C   0  0  0  0  0  0  0  0  0  0  0  0
  -19.1961  -44.6906   -8.5715 N   0  0  0  0  0  0  0  0  0  0  0  0
  -18.3394  -43.6896   -8.7366 C   0  0  0  0  0  0  0  0  0  0  0  0
  -18.6867  -42.3857   -9.1799 C   0  0  0  0  0  0  0  0  0  0  0  0
  -20.0033  -42.1257   -9.4654 C   0  0  0  0  0  0  0  0  0  0  0  0
  -17.5003  -41.5223   -9.1963 C   0  0  0  0  0  0  0  0  0  0  0  0
  -16.4168  -42.0841   -9.6431 O   0  0  0  0  0  0  0  0  0  0  0  0
  -17.2826  -40.1773   -8.8189 N   0  0  0  0  0  0  0  0  0  0  0  0
  -13.5336  -39.5568  -10.1858 C   0  0  0  0  0  0  0  0  0  0  0  0
  -13.1435  -39.8007  -11.4785 C   0  0  0  0  0  0  0  0  0  0  0  0
  -12.4013  -40.9432  -11.7097 C   0  0  0  0  0  0  0  0  0  0  0  0
  -12.0638  -41.8076  -10.6852 C   0  0  0  0  0  0  0  0  0  0  0  0
  -12.4599  -41.5560   -9.3908 C   0  0  0  0  0  0  0  0  0  0  0  0
  -12.0212  -42.7152   -7.9464 Br  0  0  0  0  0  0  0  0  0  0  0  0
  -13.2066  -40.4042   -9.1664 C   0  0  0  0  0  0  0  0  0  0  0  0
  1  2  1  0
  2  3  1  0
  2  4  1  0
  4  5  1  0
  5  6  1  0
  6  7  1  1
  6  8  1  0
  8  9  1  1
  9 10  1  0
 10 11  2  0
 11 12  1  0
 12 13  2  0
 13 14  1  0
 14 15  2  0
 14 16  1  0
 16 17  1  0
 17 18  1  0
 18 19  1  0
 19 20  1  0
 20 21  1  0
 21 22  1  0
 22 23  2  0
 23 24  1  0
 24 25  2  0
 25 26  1  0
 26 27  2  0
 26 28  1  0
 28 29  2  0
 28 30  1  0
  2 31  1  0
 31 32  2  0
 32 33  1  0
 33 34  2  0
 34 35  1  0
 35 36  1  0
 35 37  2  0
 15 10  1  0
 27 22  1  0
 30  8  1  0
 37 31  1  0
M  END
$$$$
