
     RDKit          3D

 37 40  0  0  0  0  0  0  0  0999 V2000
  -12.7179  -38.5178   -9.7899 C   0  0  0  0  0  0  0  0  0  0  0  0
  -14.1206  -38.9351  -10.0839 C   0  0  0  0  0  0  0  0  0  0  0  0
  -14.5647  -38.1550  -11.3008 C   0  0  0  0  0  0  0  0  0  0  0  0
  -14.9702  -38.9504   -9.0123 N   0  0  0  0  0  0  0  0  0  0  0  0
  -15.9264  -38.0713   -8.5647 C   0  0  0  0  0  0  0  0  0  0  0  0
  -16.7065  -38.4144   -7.3738 C   0  0  1  0  0  0  0  0  0  0  0  0
  -17.1411  -37.4126   -6.5316 O   0  0  0  0  0  0  0  0  0  0  0  0
  -17.8681  -39.3920   -7.6286 C   0  0  2  0  0  0  0  0  0  0  0  0
  -18.5954  -39.6461   -6.3682 C   0  0  0  0  0  0  0  0  0  0  0  0
  -20.0249  -39.2469   -6.2795 C   0  0  0  0  0  0  0  0  0  0  0  0
  -20.2975  -38.7774   -4.9554 C   0  0  0  0  0  0  0  0  0  0  0  0
  -21.5223  -38.4000   -4.5118 C   0  0  0  0  0  0  0  0  0  0  0  0
  -22.5404  -38.4942   -5.4339 C   0  0  0  0  0  0  0  0  0  0  0  0
  -22.3410  -38.9475   -6.7497 C   0  0  0  0  0  0  0  0  0  0  0  0
  -21.0608  -39.3218   -7.1637 C   0  0  0  0  0  0  0  0  0  0  0  0
  -23.5191  -38.9504   -7.4511 O   0  0  0  0  0  0  0  0  0  0  0  0
  -24.3778  -39.7454   -8.1383 C   0  0  0  0  0  0  0  0  0  0  0  0
  -23.7925  -41.0756   -8.4953 C   0  0  0  0  0  0  0  0  0  0  0  0
  -24.3619  -42.2317   -7.6885 C   0  0  0  0  0  0  0  0  0  0  0  0
  -23.4086  -42.6395   -6.6215 C   0  0  0  0  0  0  0  0  0  0  0  0
  -22.3657  -43.4783   -6.9613 O   0  0  0  0  0  0  0  0  0  0  0  0
  -20.9718  -43.4097   -6.9390 C   0  0  0  0  0  0  0  0  0  0  0  0
  -20.4284  -44.3184   -6.0219 C   0  0  0  0  0  0  0  0  0  0  0  0
  -19.1121  -44.4322   -5.8126 N   0  0  0  0  0  0  0  0  0  0  0  0
  -18.3359  -43.6277   -6.5292 C   0  0  0  0  0  0  0  0  0  0  0  0
  -18.8021  -42.6807   -7.4794 C   0  0  0  0  0  0  0  0  0  0  0  0
  -20.1548  -42.5791   -7.6856 C   0  0  0  0  0  0  0  0  0  0  0  0
  -17.6744  -41.9296   -8.0430 C   0  0  0  0  0  0  0  0  0  0  0  0
  -16.6188  -42.6393   -8.3097 O   0  0  0  0  0  0  0  0  0  0  0  0
  -17.4901  -40.5649   -8.3633 N   0  0  0  0  0  0  0  0  0  0  0  0
  -14.0532  -40.3784  -10.5706 C   0  0  0  0  0  0  0  0  0  0  0  0
  -14.8072  -40.7842  -11.6427 C   0  0  0  0  0  0  0  0  0  0  0  0
  -14.7139  -42.1119  -12.0144 C   0  0  0  0  0  0  0  0  0  0  0  0
  -13.8971  -42.9981  -11.3374 C   0  0  0  0  0  0  0  0  0  0  0  0
  -13.1443  -42.5830  -10.2620 C   0  0  0  0  0  0  0  0  0  0  0  0
  -12.0056  -43.7642   -9.2974 Br  0  0  0  0  0  0  0  0  0  0  0  0
  -13.2438  -41.2453   -9.8942 C   0  0  0  0  0  0  0  0  0  0  0  0
  1  2  1  0
  2  3  1  0
  2  4  1  0
  4  5  1  0
  5  6  1  0
  6  7  1  6
  6  8  1  0
  8  9  1  1
  9 10  1  0
 10 11  2  0
 11 12  1  0
 12 13  2  0
 13 14  1  0
 14 15  2  0
 14 16  1  0
 16 17  1  0
 17 18  1  0
 18 19  1  0
 19 20  1  0
 20 21  1  0
 21 22  1  0
 22 23  2  0
 23 24  1  0
 24 25  2  0
 25 26  1  0
 26 27  2  0
 26 28  1  0
 28 29  2  0
 28 30  1  0
  2 31  1  0
 31 32  2  0
 32 33  1  0
 33 34  2  0
 34 35  1  0
 35 36  1  0
 35 37  2  0
 15 10  1  0
 27 22  1  0
 30  8  1  0
 37 31  1  0
M  END
$$$$
