
     RDKit          3D

 37 40  0  0  0  0  0  0  0  0999 V2000
  -21.0091  -37.6589   -7.7461 C   0  0  0  0  0  0  0  0  0  0  0  0
  -20.1576  -38.8577   -7.4889 C   0  0  0  0  0  0  0  0  0  0  0  0
  -20.8384  -39.6536   -6.3981 C   0  0  0  0  0  0  0  0  0  0  0  0
  -18.8210  -38.6122   -7.3361 N   0  0  0  0  0  0  0  0  0  0  0  0
  -17.9111  -37.8972   -8.0765 C   0  0  0  0  0  0  0  0  0  0  0  0
  -16.4972  -37.9365   -7.6971 C   0  0  1  0  0  0  0  0  0  0  0  0
  -16.1513  -38.0632   -6.3681 O   0  0  0  0  0  0  0  0  0  0  0  0
  -15.6366  -38.9023   -8.5317 C   0  0  2  0  0  0  0  0  0  0  0  0
  -15.5573  -38.4248   -9.9274 C   0  0  0  0  0  0  0  0  0  0  0  0
  -14.2265  -38.0552  -10.4777 C   0  0  0  0  0  0  0  0  0  0  0  0
  -14.3787  -36.9353  -11.3557 C   0  0  0  0  0  0  0  0  0  0  0  0
  -13.3728  -36.3862  -12.0808 C   0  0  0  0  0  0  0  0  0  0  0  0
  -12.1409  -36.9822  -11.9298 C   0  0  0  0  0  0  0  0  0  0  0  0
  -11.9231  -38.0846  -11.0849 C   0  0  0  0  0  0  0  0  0  0  0  0
  -12.9885  -38.6142  -10.3537 C   0  0  0  0  0  0  0  0  0  0  0  0
  -10.6122  -38.4841  -11.1281 O   0  0  0  0  0  0  0  0  0  0  0  0
   -9.8002  -39.5335  -11.4126 C   0  0  0  0  0  0  0  0  0  0  0  0
  -10.5322  -40.8349  -11.5141 C   0  0  0  0  0  0  0  0  0  0  0  0
  -10.6561  -41.3586  -12.9360 C   0  0  0  0  0  0  0  0  0  0  0  0
  -12.0221  -41.1018  -13.4668 C   0  0  0  0  0  0  0  0  0  0  0  0
  -13.0320  -41.9800  -13.1269 O   0  0  0  0  0  0  0  0  0  0  0  0
  -14.2497  -41.8986  -12.4494 C   0  0  0  0  0  0  0  0  0  0  0  0
  -15.3303  -42.1458  -13.3058 C   0  0  0  0  0  0  0  0  0  0  0  0
  -16.6016  -42.1140  -12.8909 N   0  0  0  0  0  0  0  0  0  0  0  0
  -16.7892  -41.8318  -11.6070 C   0  0  0  0  0  0  0  0  0  0  0  0
  -15.7533  -41.5704  -10.6712 C   0  0  0  0  0  0  0  0  0  0  0  0
  -14.4545  -41.6109  -11.1115 C   0  0  0  0  0  0  0  0  0  0  0  0
  -16.3246  -41.2454   -9.3591 C   0  0  0  0  0  0  0  0  0  0  0  0
  -17.3397  -41.9755   -9.0047 O   0  0  0  0  0  0  0  0  0  0  0  0
  -15.9961  -40.2826   -8.3774 N   0  0  0  0  0  0  0  0  0  0  0  0
  -20.2701  -39.7453   -8.7233 C   0  0  0  0  0  0  0  0  0  0  0  0
  -19.7446  -41.0128   -8.7158 C   0  0  0  0  0  0  0  0  0  0  0  0
  -19.8626  -41.7525   -9.8771 C   0  0  0  0  0  0  0  0  0  0  0  0
  -20.4824  -41.2414  -11.0020 C   0  0  0  0  0  0  0  0  0  0  0  0
  -21.0064  -39.9682  -11.0015 C   0  0  0  0  0  0  0  0  0  0  0  0
  -21.8682  -39.2194  -12.5242 Br  0  0  0  0  0  0  0  0  0  0  0  0
  -20.8836  -39.2301   -9.8289 C   0  0  0  0  0  0  0  0  0  0  0  0
  1  2  1  0
  2  3  1  0
  2  4  1  0
  4  5  1  0
  5  6  1  0
  6  7  1  1
  6  8  1  0
  8  9  1  6
  9 10  1  0
 10 11  2  0
 11 12  1  0
 12 13  2  0
 13 14  1  0
 14 15  2  0
 14 16  1  0
 16 17  1  0
 17 18  1  0
 18 19  1  0
 19 20  1  0
 20 21  1  0
 21 22  1  0
 22 23  2  0
 23 24  1  0
 24 25  2  0
 25 26  1  0
 26 27  2  0
 26 28  1  0
 28 29  2  0
 28 30  1  0
  2 31  1  0
 31 32  2  0
 32 33  1  0
 33 34  2  0
 34 35  1  0
 35 36  1  0
 35 37  2  0
 15 10  1  0
 27 22  1  0
 30  8  1  0
 37 31  1  0
M  END
$$$$
