
     RDKit          3D

 37 40  0  0  0  0  0  0  0  0999 V2000
  -13.4973  -37.6894   -9.1652 C   0  0  0  0  0  0  0  0  0  0  0  0
  -14.6923  -38.5040   -9.5349 C   0  0  0  0  0  0  0  0  0  0  0  0
  -15.4062  -37.7591  -10.6405 C   0  0  0  0  0  0  0  0  0  0  0  0
  -15.4558  -38.9429   -8.4887 N   0  0  0  0  0  0  0  0  0  0  0  0
  -15.6788  -38.4541   -7.2242 C   0  0  0  0  0  0  0  0  0  0  0  0
  -16.6424  -39.1359   -6.3576 C   0  0  1  0  0  0  0  0  0  0  0  0
  -17.1368  -38.4876   -5.2453 O   0  0  0  0  0  0  0  0  0  0  0  0
  -17.8088  -39.8102   -7.1025 C   0  0  2  0  0  0  0  0  0  0  0  0
  -18.7694  -40.3688   -6.1292 C   0  0  0  0  0  0  0  0  0  0  0  0
  -20.1571  -39.8355   -6.1140 C   0  0  0  0  0  0  0  0  0  0  0  0
  -20.6291  -39.7997   -4.7634 C   0  0  0  0  0  0  0  0  0  0  0  0
  -21.8821  -39.4315   -4.3978 C   0  0  0  0  0  0  0  0  0  0  0  0
  -22.7205  -39.0786   -5.4313 C   0  0  0  0  0  0  0  0  0  0  0  0
  -22.3207  -39.0923   -6.7791 C   0  0  0  0  0  0  0  0  0  0  0  0
  -21.0184  -39.4747   -7.1083 C   0  0  0  0  0  0  0  0  0  0  0  0
  -23.3490  -38.7060   -7.5996 O   0  0  0  0  0  0  0  0  0  0  0  0
  -24.1262  -39.1067   -8.6373 C   0  0  0  0  0  0  0  0  0  0  0  0
  -23.5876  -40.3086   -9.3478 C   0  0  0  0  0  0  0  0  0  0  0  0
  -24.3789  -41.5803   -9.0866 C   0  0  0  0  0  0  0  0  0  0  0  0
  -23.6681  -42.4415   -8.1035 C   0  0  0  0  0  0  0  0  0  0  0  0
  -22.6469  -43.2509   -8.5605 O   0  0  0  0  0  0  0  0  0  0  0  0
  -21.2790  -43.3793   -8.3147 C   0  0  0  0  0  0  0  0  0  0  0  0
  -20.9805  -44.6043   -7.7044 C   0  0  0  0  0  0  0  0  0  0  0  0
  -19.7364  -44.9549   -7.3604 N   0  0  0  0  0  0  0  0  0  0  0  0
  -18.7849  -44.0689   -7.6309 C   0  0  0  0  0  0  0  0  0  0  0  0
  -18.9988  -42.8074   -8.2473 C   0  0  0  0  0  0  0  0  0  0  0  0
  -20.2801  -42.4645   -8.5980 C   0  0  0  0  0  0  0  0  0  0  0  0
  -17.7345  -42.0688   -8.3442 C   0  0  0  0  0  0  0  0  0  0  0  0
  -16.7044  -42.7835   -8.6866 O   0  0  0  0  0  0  0  0  0  0  0  0
  -17.3931  -40.7125   -8.1377 N   0  0  0  0  0  0  0  0  0  0  0  0
  -14.1679  -39.7646  -10.2133 C   0  0  0  0  0  0  0  0  0  0  0  0
  -12.8397  -40.0976  -10.1253 C   0  0  0  0  0  0  0  0  0  0  0  0
  -12.4301  -41.2412  -10.7841 C   0  0  0  0  0  0  0  0  0  0  0  0
  -13.3171  -42.0201  -11.5034 C   0  0  0  0  0  0  0  0  0  0  0  0
  -14.6482  -41.6785  -11.5873 C   0  0  0  0  0  0  0  0  0  0  0  0
  -15.9081  -42.7173  -12.5651 Br  0  0  0  0  0  0  0  0  0  0  0  0
  -15.0525  -40.5261  -10.9217 C   0  0  0  0  0  0  0  0  0  0  0  0
  1  2  1  0
  2  3  1  0
  2  4  1  0
  4  5  1  0
  5  6  1  0
  6  7  1  1
  6  8  1  0
  8  9  1  1
  9 10  1  0
 10 11  2  0
 11 12  1  0
 12 13  2  0
 13 14  1  0
 14 15  2  0
 14 16  1  0
 16 17  1  0
 17 18  1  0
 18 19  1  0
 19 20  1  0
 20 21  1  0
 21 22  1  0
 22 23  2  0
 23 24  1  0
 24 25  2  0
 25 26  1  0
 26 27  2  0
 26 28  1  0
 28 29  2  0
 28 30  1  0
  2 31  1  0
 31 32  2  0
 32 33  1  0
 33 34  2  0
 34 35  1  0
 35 36  1  0
 35 37  2  0
 15 10  1  0
 27 22  1  0
 30  8  1  0
 37 31  1  0
M  END
$$$$
