
     RDKit          3D

 37 40  0  0  0  0  0  0  0  0999 V2000
  -13.5202  -41.1019  -10.8083 C   0  0  0  0  0  0  0  0  0  0  0  0
  -13.8532  -39.7508  -10.2679 C   0  0  0  0  0  0  0  0  0  0  0  0
  -12.8034  -39.4224   -9.2302 C   0  0  0  0  0  0  0  0  0  0  0  0
  -15.1596  -39.5621   -9.9105 N   0  0  0  0  0  0  0  0  0  0  0  0
  -15.8106  -38.5509   -9.2462 C   0  0  0  0  0  0  0  0  0  0  0  0
  -16.5355  -38.8615   -8.0123 C   0  0  1  0  0  0  0  0  0  0  0  0
  -16.8053  -37.8554   -7.1085 O   0  0  0  0  0  0  0  0  0  0  0  0
  -17.8057  -39.7082   -8.2114 C   0  0  2  0  0  0  0  0  0  0  0  0
  -18.5280  -39.8379   -6.9294 C   0  0  0  0  0  0  0  0  0  0  0  0
  -19.9008  -39.2762   -6.8270 C   0  0  0  0  0  0  0  0  0  0  0  0
  -20.0882  -38.7370   -5.5146 C   0  0  0  0  0  0  0  0  0  0  0  0
  -21.2520  -38.2090   -5.0608 C   0  0  0  0  0  0  0  0  0  0  0  0
  -22.2951  -38.2159   -5.9594 C   0  0  0  0  0  0  0  0  0  0  0  0
  -22.1784  -38.7303   -7.2626 C   0  0  0  0  0  0  0  0  0  0  0  0
  -20.9585  -39.2606   -7.6880 C   0  0  0  0  0  0  0  0  0  0  0  0
  -23.3650  -38.6214   -7.9408 O   0  0  0  0  0  0  0  0  0  0  0  0
  -24.3235  -39.3349   -8.5839 C   0  0  0  0  0  0  0  0  0  0  0  0
  -23.9007  -40.7337   -8.9066 C   0  0  0  0  0  0  0  0  0  0  0  0
  -24.5784  -41.7914   -8.0502 C   0  0  0  0  0  0  0  0  0  0  0  0
  -23.6532  -42.2710   -6.9884 C   0  0  0  0  0  0  0  0  0  0  0  0
  -22.7199  -43.2333   -7.3194 O   0  0  0  0  0  0  0  0  0  0  0  0
  -21.3270  -43.3230   -7.3262 C   0  0  0  0  0  0  0  0  0  0  0  0
  -20.8689  -44.2582   -6.3893 C   0  0  0  0  0  0  0  0  0  0  0  0
  -19.5695  -44.5143   -6.2015 N   0  0  0  0  0  0  0  0  0  0  0  0
  -18.7240  -43.8263   -6.9597 C   0  0  0  0  0  0  0  0  0  0  0  0
  -19.1018  -42.8629   -7.9325 C   0  0  0  0  0  0  0  0  0  0  0  0
  -20.4386  -42.6147   -8.1161 C   0  0  0  0  0  0  0  0  0  0  0  0
  -17.9096  -42.2632   -8.5428 C   0  0  0  0  0  0  0  0  0  0  0  0
  -16.9474  -43.0964   -8.8055 O   0  0  0  0  0  0  0  0  0  0  0  0
  -17.5796  -40.9392   -8.9129 N   0  0  0  0  0  0  0  0  0  0  0  0
  -13.5905  -38.7548  -11.3918 C   0  0  0  0  0  0  0  0  0  0  0  0
  -14.2787  -38.8479  -12.5752 C   0  0  0  0  0  0  0  0  0  0  0  0
  -13.9728  -37.9260  -13.5581 C   0  0  0  0  0  0  0  0  0  0  0  0
  -13.0141  -36.9495  -13.3626 C   0  0  0  0  0  0  0  0  0  0  0  0
  -12.3275  -36.8634  -12.1724 C   0  0  0  0  0  0  0  0  0  0  0  0
  -10.9989  -35.5382  -11.8548 Br  0  0  0  0  0  0  0  0  0  0  0  0
  -12.6411  -37.7950  -11.1882 C   0  0  0  0  0  0  0  0  0  0  0  0
  1  2  1  0
  2  3  1  0
  2  4  1  0
  4  5  1  0
  5  6  1  0
  6  7  1  6
  6  8  1  0
  8  9  1  1
  9 10  1  0
 10 11  2  0
 11 12  1  0
 12 13  2  0
 13 14  1  0
 14 15  2  0
 14 16  1  0
 16 17  1  0
 17 18  1  0
 18 19  1  0
 19 20  1  0
 20 21  1  0
 21 22  1  0
 22 23  2  0
 23 24  1  0
 24 25  2  0
 25 26  1  0
 26 27  2  0
 26 28  1  0
 28 29  2  0
 28 30  1  0
  2 31  1  0
 31 32  2  0
 32 33  1  0
 33 34  2  0
 34 35  1  0
 35 36  1  0
 35 37  2  0
 15 10  1  0
 27 22  1  0
 30  8  1  0
 37 31  1  0
M  END
$$$$
