
     RDKit          3D

 37 40  0  0  0  0  0  0  0  0999 V2000
  -20.5352  -37.4916   -8.9547 C   0  0  0  0  0  0  0  0  0  0  0  0
  -19.8359  -37.7969   -7.6717 C   0  0  0  0  0  0  0  0  0  0  0  0
  -20.3103  -36.7779   -6.6601 C   0  0  0  0  0  0  0  0  0  0  0  0
  -18.4862  -37.9957   -7.7663 N   0  0  0  0  0  0  0  0  0  0  0  0
  -17.5940  -38.7261   -7.0194 C   0  0  0  0  0  0  0  0  0  0  0  0
  -16.6836  -39.6490   -7.7006 C   0  0  1  0  0  0  0  0  0  0  0  0
  -15.3303  -39.5859   -7.4428 O   0  0  0  0  0  0  0  0  0  0  0  0
  -17.1288  -41.1225   -7.6766 C   0  0  2  0  0  0  0  0  0  0  0  0
  -17.4369  -41.5757   -9.0484 C   0  0  0  0  0  0  0  0  0  0  0  0
  -16.6262  -42.6768   -9.6321 C   0  0  0  0  0  0  0  0  0  0  0  0
  -16.4405  -42.4301  -11.0295 C   0  0  0  0  0  0  0  0  0  0  0  0
  -15.8056  -43.2743  -11.8802 C   0  0  0  0  0  0  0  0  0  0  0  0
  -15.3263  -44.4345  -11.3146 C   0  0  0  0  0  0  0  0  0  0  0  0
  -15.4753  -44.7383   -9.9501 C   0  0  0  0  0  0  0  0  0  0  0  0
  -16.1329  -43.8366   -9.1105 C   0  0  0  0  0  0  0  0  0  0  0  0
  -14.9156  -45.9546   -9.6546 O   0  0  0  0  0  0  0  0  0  0  0  0
  -15.1857  -47.1881   -9.1576 C   0  0  0  0  0  0  0  0  0  0  0  0
  -16.5001  -47.2623   -8.4459 C   0  0  0  0  0  0  0  0  0  0  0  0
  -17.5680  -48.0283   -9.2102 C   0  0  0  0  0  0  0  0  0  0  0  0
  -18.5195  -47.0860   -9.8583 C   0  0  0  0  0  0  0  0  0  0  0  0
  -19.5409  -46.5580   -9.0936 O   0  0  0  0  0  0  0  0  0  0  0  0
  -19.9416  -45.2822   -8.6938 C   0  0  0  0  0  0  0  0  0  0  0  0
  -21.1773  -44.9339   -9.2542 C   0  0  0  0  0  0  0  0  0  0  0  0
  -21.7655  -43.7541   -9.0274 N   0  0  0  0  0  0  0  0  0  0  0  0
  -21.1082  -42.9180   -8.2323 C   0  0  0  0  0  0  0  0  0  0  0  0
  -19.8548  -43.1904   -7.6226 C   0  0  0  0  0  0  0  0  0  0  0  0
  -19.2665  -44.4066   -7.8618 C   0  0  0  0  0  0  0  0  0  0  0  0
  -19.3999  -42.0254   -6.8548 C   0  0  0  0  0  0  0  0  0  0  0  0
  -20.3261  -41.4193   -6.1737 O   0  0  0  0  0  0  0  0  0  0  0  0
  -18.1373  -41.4090   -6.6972 N   0  0  0  0  0  0  0  0  0  0  0  0
  -20.4075  -39.1171   -7.1669 C   0  0  0  0  0  0  0  0  0  0  0  0
  -20.3375  -40.2452   -7.9448 C   0  0  0  0  0  0  0  0  0  0  0  0
  -20.8967  -41.4009   -7.4335 C   0  0  0  0  0  0  0  0  0  0  0  0
  -21.5028  -41.4245   -6.1914 C   0  0  0  0  0  0  0  0  0  0  0  0
  -21.5695  -40.2878   -5.4174 C   0  0  0  0  0  0  0  0  0  0  0  0
  -22.3934  -40.2690   -3.7018 Br  0  0  0  0  0  0  0  0  0  0  0  0
  -21.0045  -39.1288   -5.9391 C   0  0  0  0  0  0  0  0  0  0  0  0
  1  2  1  0
  2  3  1  0
  2  4  1  0
  4  5  1  0
  5  6  1  0
  6  7  1  1
  6  8  1  0
  8  9  1  6
  9 10  1  0
 10 11  2  0
 11 12  1  0
 12 13  2  0
 13 14  1  0
 14 15  2  0
 14 16  1  0
 16 17  1  0
 17 18  1  0
 18 19  1  0
 19 20  1  0
 20 21  1  0
 21 22  1  0
 22 23  2  0
 23 24  1  0
 24 25  2  0
 25 26  1  0
 26 27  2  0
 26 28  1  0
 28 29  2  0
 28 30  1  0
  2 31  1  0
 31 32  2  0
 32 33  1  0
 33 34  2  0
 34 35  1  0
 35 36  1  0
 35 37  2  0
 15 10  1  0
 27 22  1  0
 30  8  1  0
 37 31  1  0
M  END
$$$$
