
     RDKit          3D

 37 40  0  0  0  0  0  0  0  0999 V2000
  -20.9977  -39.0599   -6.9802 C   0  0  0  0  0  0  0  0  0  0  0  0
  -20.8410  -39.6644   -5.6244 C   0  0  0  0  0  0  0  0  0  0  0  0
  -22.0400  -39.2329   -4.8103 C   0  0  0  0  0  0  0  0  0  0  0  0
  -19.6108  -39.5112   -5.0469 N   0  0  0  0  0  0  0  0  0  0  0  0
  -18.3310  -39.5718   -5.5428 C   0  0  0  0  0  0  0  0  0  0  0  0
  -17.8341  -38.4678   -6.3666 C   0  0  1  0  0  0  0  0  0  0  0  0
  -16.9274  -37.5750   -5.8350 O   0  0  0  0  0  0  0  0  0  0  0  0
  -17.3640  -38.8795   -7.7735 C   0  0  2  0  0  0  0  0  0  0  0  0
  -17.6548  -37.7973   -8.7361 C   0  0  0  0  0  0  0  0  0  0  0  0
  -16.5172  -37.1425   -9.4343 C   0  0  0  0  0  0  0  0  0  0  0  0
  -16.8082  -35.7508   -9.5978 C   0  0  0  0  0  0  0  0  0  0  0  0
  -16.0127  -34.8727  -10.2576 C   0  0  0  0  0  0  0  0  0  0  0  0
  -14.8592  -35.4037  -10.7898 C   0  0  0  0  0  0  0  0  0  0  0  0
  -14.5140  -36.7609  -10.6660 C   0  0  0  0  0  0  0  0  0  0  0  0
  -15.3623  -37.6279   -9.9738 C   0  0  0  0  0  0  0  0  0  0  0  0
  -13.3233  -37.0232  -11.2931 O   0  0  0  0  0  0  0  0  0  0  0  0
  -12.7443  -37.7703  -12.2668 C   0  0  0  0  0  0  0  0  0  0  0  0
  -13.6024  -38.9069  -12.7267 C   0  0  0  0  0  0  0  0  0  0  0  0
  -14.1963  -38.7046  -14.1116 C   0  0  0  0  0  0  0  0  0  0  0  0
  -15.6245  -38.3005  -14.0102 C   0  0  0  0  0  0  0  0  0  0  0  0
  -16.5720  -39.2870  -13.8215 O   0  0  0  0  0  0  0  0  0  0  0  0
  -17.5183  -39.5987  -12.8439 C   0  0  0  0  0  0  0  0  0  0  0  0
  -18.8239  -39.4698  -13.3346 C   0  0  0  0  0  0  0  0  0  0  0  0
  -19.9042  -39.7043  -12.5814 N   0  0  0  0  0  0  0  0  0  0  0  0
  -19.6718  -40.0707  -11.3264 C   0  0  0  0  0  0  0  0  0  0  0  0
  -18.3836  -40.2268  -10.7492 C   0  0  0  0  0  0  0  0  0  0  0  0
  -17.2856  -39.9866  -11.5361 C   0  0  0  0  0  0  0  0  0  0  0  0
  -18.5026  -40.5890   -9.3321 C   0  0  0  0  0  0  0  0  0  0  0  0
  -19.4356  -41.4523   -9.0612 O   0  0  0  0  0  0  0  0  0  0  0  0
  -17.8005  -40.1865   -8.1729 N   0  0  0  0  0  0  0  0  0  0  0  0
  -21.0270  -41.1682   -5.7933 C   0  0  0  0  0  0  0  0  0  0  0  0
  -20.0833  -41.9133   -6.4543 C   0  0  0  0  0  0  0  0  0  0  0  0
  -20.3285  -43.2665   -6.5903 C   0  0  0  0  0  0  0  0  0  0  0  0
  -21.4750  -43.8496   -6.0842 C   0  0  0  0  0  0  0  0  0  0  0  0
  -22.4174  -43.0946   -5.4228 C   0  0  0  0  0  0  0  0  0  0  0  0
  -24.0116  -43.8501   -4.7086 Br  0  0  0  0  0  0  0  0  0  0  0  0
  -22.1634  -41.7335   -5.2901 C   0  0  0  0  0  0  0  0  0  0  0  0
  1  2  1  0
  2  3  1  0
  2  4  1  0
  4  5  1  0
  5  6  1  0
  6  7  1  1
  6  8  1  0
  8  9  1  6
  9 10  1  0
 10 11  2  0
 11 12  1  0
 12 13  2  0
 13 14  1  0
 14 15  2  0
 14 16  1  0
 16 17  1  0
 17 18  1  0
 18 19  1  0
 19 20  1  0
 20 21  1  0
 21 22  1  0
 22 23  2  0
 23 24  1  0
 24 25  2  0
 25 26  1  0
 26 27  2  0
 26 28  1  0
 28 29  2  0
 28 30  1  0
  2 31  1  0
 31 32  2  0
 32 33  1  0
 33 34  2  0
 34 35  1  0
 35 36  1  0
 35 37  2  0
 15 10  1  0
 27 22  1  0
 30  8  1  0
 37 31  1  0
M  END
$$$$
