
     RDKit          3D

 37 40  0  0  0  0  0  0  0  0999 V2000
  -21.4299  -38.0651   -6.6997 C   0  0  0  0  0  0  0  0  0  0  0  0
  -20.5382  -39.1683   -7.1646 C   0  0  0  0  0  0  0  0  0  0  0  0
  -20.8607  -40.3794   -6.3185 C   0  0  0  0  0  0  0  0  0  0  0  0
  -19.2173  -38.8425   -7.3040 N   0  0  0  0  0  0  0  0  0  0  0  0
  -18.1253  -38.9944   -6.4843 C   0  0  0  0  0  0  0  0  0  0  0  0
  -16.7900  -38.7223   -7.0204 C   0  0  1  0  0  0  0  0  0  0  0  0
  -15.8366  -38.1397   -6.2120 O   0  0  0  0  0  0  0  0  0  0  0  0
  -16.1510  -39.9009   -7.7771 C   0  0  2  0  0  0  0  0  0  0  0  0
  -15.9571  -39.5396   -9.1963 C   0  0  0  0  0  0  0  0  0  0  0  0
  -14.5727  -39.5005   -9.7370 C   0  0  0  0  0  0  0  0  0  0  0  0
  -14.4705  -38.4310  -10.6825 C   0  0  0  0  0  0  0  0  0  0  0  0
  -13.3627  -38.1579  -11.4156 C   0  0  0  0  0  0  0  0  0  0  0  0
  -12.2905  -38.9948  -11.2019 C   0  0  0  0  0  0  0  0  0  0  0  0
  -12.3246  -40.0634  -10.2890 C   0  0  0  0  0  0  0  0  0  0  0  0
  -13.4863  -40.3044   -9.5523 C   0  0  0  0  0  0  0  0  0  0  0  0
  -11.1309  -40.7379  -10.2789 O   0  0  0  0  0  0  0  0  0  0  0  0
  -10.5628  -41.9533  -10.4827 C   0  0  0  0  0  0  0  0  0  0  0  0
  -11.5581  -43.0701  -10.5241 C   0  0  0  0  0  0  0  0  0  0  0  0
  -11.7791  -43.6423  -11.9153 C   0  0  0  0  0  0  0  0  0  0  0  0
  -13.0520  -43.1308  -12.4911 C   0  0  0  0  0  0  0  0  0  0  0  0
  -14.2313  -43.7477  -12.1231 O   0  0  0  0  0  0  0  0  0  0  0  0
  -15.4088  -43.3637  -11.4795 C   0  0  0  0  0  0  0  0  0  0  0  0
  -16.5092  -43.4250  -12.3441 C   0  0  0  0  0  0  0  0  0  0  0  0
  -17.7473  -43.0942  -11.9608 N   0  0  0  0  0  0  0  0  0  0  0  0
  -17.8815  -42.6989  -10.7003 C   0  0  0  0  0  0  0  0  0  0  0  0
  -16.8225  -42.6090   -9.7582 C   0  0  0  0  0  0  0  0  0  0  0  0
  -15.5592  -42.9559  -10.1657 C   0  0  0  0  0  0  0  0  0  0  0  0
  -17.3222  -42.0875   -8.4808 C   0  0  0  0  0  0  0  0  0  0  0  0
  -18.4746  -42.5582   -8.1072 O   0  0  0  0  0  0  0  0  0  0  0  0
  -16.8023  -41.1589   -7.5501 N   0  0  0  0  0  0  0  0  0  0  0  0
  -21.0123  -39.5528   -8.5617 C   0  0  0  0  0  0  0  0  0  0  0  0
  -21.9582  -40.5329   -8.7273 C   0  0  0  0  0  0  0  0  0  0  0  0
  -22.3236  -40.8457  -10.0227 C   0  0  0  0  0  0  0  0  0  0  0  0
  -21.7624  -40.2018  -11.1095 C   0  0  0  0  0  0  0  0  0  0  0  0
  -20.8132  -39.2199  -10.9347 C   0  0  0  0  0  0  0  0  0  0  0  0
  -20.0108  -38.3048  -12.3980 Br  0  0  0  0  0  0  0  0  0  0  0  0
  -20.4508  -38.9109   -9.6279 C   0  0  0  0  0  0  0  0  0  0  0  0
  1  2  1  0
  2  3  1  0
  2  4  1  0
  4  5  1  0
  5  6  1  0
  6  7  1  1
  6  8  1  0
  8  9  1  6
  9 10  1  0
 10 11  2  0
 11 12  1  0
 12 13  2  0
 13 14  1  0
 14 15  2  0
 14 16  1  0
 16 17  1  0
 17 18  1  0
 18 19  1  0
 19 20  1  0
 20 21  1  0
 21 22  1  0
 22 23  2  0
 23 24  1  0
 24 25  2  0
 25 26  1  0
 26 27  2  0
 26 28  1  0
 28 29  2  0
 28 30  1  0
  2 31  1  0
 31 32  2  0
 32 33  1  0
 33 34  2  0
 34 35  1  0
 35 36  1  0
 35 37  2  0
 15 10  1  0
 27 22  1  0
 30  8  1  0
 37 31  1  0
M  END
$$$$
