
     RDKit          3D

 37 40  0  0  0  0  0  0  0  0999 V2000
  -16.5008  -40.9048  -11.1055 C   0  0  0  0  0  0  0  0  0  0  0  0
  -15.1743  -40.6829  -10.4577 C   0  0  0  0  0  0  0  0  0  0  0  0
  -14.4663  -42.0190  -10.4388 C   0  0  0  0  0  0  0  0  0  0  0  0
  -15.1984  -39.9766   -9.2869 N   0  0  0  0  0  0  0  0  0  0  0  0
  -15.7207  -38.7531   -8.9437 C   0  0  0  0  0  0  0  0  0  0  0  0
  -16.7154  -38.6797   -7.8715 C   0  0  1  0  0  0  0  0  0  0  0  0
  -17.1899  -37.4503   -7.4648 O   0  0  0  0  0  0  0  0  0  0  0  0
  -17.9034  -39.6455   -8.0325 C   0  0  2  0  0  0  0  0  0  0  0  0
  -18.9095  -39.3822   -6.9834 C   0  0  0  0  0  0  0  0  0  0  0  0
  -20.2664  -38.9361   -7.3959 C   0  0  0  0  0  0  0  0  0  0  0  0
  -20.7591  -37.9930   -6.4388 C   0  0  0  0  0  0  0  0  0  0  0  0
  -21.9965  -37.4391   -6.4739 C   0  0  0  0  0  0  0  0  0  0  0  0
  -22.7966  -37.8439   -7.5187 C   0  0  0  0  0  0  0  0  0  0  0  0
  -22.3748  -38.7666   -8.4919 C   0  0  0  0  0  0  0  0  0  0  0  0
  -21.0897  -39.3081   -8.4178 C   0  0  0  0  0  0  0  0  0  0  0  0
  -23.3665  -38.9988   -9.4099 O   0  0  0  0  0  0  0  0  0  0  0  0
  -24.1461  -39.9681   -9.9522 C   0  0  0  0  0  0  0  0  0  0  0  0
  -23.6610  -41.3517   -9.6523 C   0  0  0  0  0  0  0  0  0  0  0  0
  -24.5242  -42.0993   -8.6486 C   0  0  0  0  0  0  0  0  0  0  0  0
  -23.8781  -42.1023   -7.3085 C   0  0  0  0  0  0  0  0  0  0  0  0
  -22.8943  -43.0385   -7.0583 O   0  0  0  0  0  0  0  0  0  0  0  0
  -21.5398  -43.0087   -6.7229 C   0  0  0  0  0  0  0  0  0  0  0  0
  -21.3186  -43.5195   -5.4375 C   0  0  0  0  0  0  0  0  0  0  0  0
  -20.1013  -43.5855   -4.8870 N   0  0  0  0  0  0  0  0  0  0  0  0
  -19.0988  -43.1353   -5.6324 C   0  0  0  0  0  0  0  0  0  0  0  0
  -19.2336  -42.6040   -6.9426 C   0  0  0  0  0  0  0  0  0  0  0  0
  -20.4882  -42.5470   -7.4948 C   0  0  0  0  0  0  0  0  0  0  0  0
  -17.9297  -42.1560   -7.4454 C   0  0  0  0  0  0  0  0  0  0  0  0
  -16.9339  -42.9455   -7.1728 O   0  0  0  0  0  0  0  0  0  0  0  0
  -17.5192  -41.0199   -8.1800 N   0  0  0  0  0  0  0  0  0  0  0  0
  -14.3522  -39.8392  -11.4254 C   0  0  0  0  0  0  0  0  0  0  0  0
  -13.3973  -40.4256  -12.2173 C   0  0  0  0  0  0  0  0  0  0  0  0
  -12.6741  -39.5967  -13.0538 C   0  0  0  0  0  0  0  0  0  0  0  0
  -12.8990  -38.2334  -13.0944 C   0  0  0  0  0  0  0  0  0  0  0  0
  -13.8587  -37.6528  -12.2959 C   0  0  0  0  0  0  0  0  0  0  0  0
  -14.2055  -35.7815  -12.3148 Br  0  0  0  0  0  0  0  0  0  0  0  0
  -14.5821  -38.4937  -11.4568 C   0  0  0  0  0  0  0  0  0  0  0  0
  1  2  1  0
  2  3  1  0
  2  4  1  0
  4  5  1  0
  5  6  1  0
  6  7  1  6
  6  8  1  0
  8  9  1  1
  9 10  1  0
 10 11  2  0
 11 12  1  0
 12 13  2  0
 13 14  1  0
 14 15  2  0
 14 16  1  0
 16 17  1  0
 17 18  1  0
 18 19  1  0
 19 20  1  0
 20 21  1  0
 21 22  1  0
 22 23  2  0
 23 24  1  0
 24 25  2  0
 25 26  1  0
 26 27  2  0
 26 28  1  0
 28 29  2  0
 28 30  1  0
  2 31  1  0
 31 32  2  0
 32 33  1  0
 33 34  2  0
 34 35  1  0
 35 36  1  0
 35 37  2  0
 15 10  1  0
 27 22  1  0
 30  8  1  0
 37 31  1  0
M  END
$$$$
