
     RDKit          3D

 37 40  0  0  0  0  0  0  0  0999 V2000
  -12.6567  -37.5506  -10.0667 C   0  0  0  0  0  0  0  0  0  0  0  0
  -14.0429  -38.0897  -10.1933 C   0  0  0  0  0  0  0  0  0  0  0  0
  -14.7606  -37.2223  -11.2029 C   0  0  0  0  0  0  0  0  0  0  0  0
  -14.6914  -38.3367   -9.0149 N   0  0  0  0  0  0  0  0  0  0  0  0
  -15.8573  -37.8552   -8.4705 C   0  0  0  0  0  0  0  0  0  0  0  0
  -16.4817  -38.5862   -7.3657 C   0  0  1  0  0  0  0  0  0  0  0  0
  -16.7691  -37.9274   -6.1887 O   0  0  0  0  0  0  0  0  0  0  0  0
  -17.6963  -39.4417   -7.7691 C   0  0  2  0  0  0  0  0  0  0  0  0
  -18.4187  -39.8883   -6.5604 C   0  0  0  0  0  0  0  0  0  0  0  0
  -19.8239  -39.4429   -6.3670 C   0  0  0  0  0  0  0  0  0  0  0  0
  -20.0535  -39.2133   -4.9731 C   0  0  0  0  0  0  0  0  0  0  0  0
  -21.2506  -38.8648   -4.4397 C   0  0  0  0  0  0  0  0  0  0  0  0
  -22.2848  -38.7370   -5.3396 C   0  0  0  0  0  0  0  0  0  0  0  0
  -22.1274  -38.9486   -6.7205 C   0  0  0  0  0  0  0  0  0  0  0  0
  -20.8743  -39.3022   -7.2256 C   0  0  0  0  0  0  0  0  0  0  0  0
  -23.3135  -38.7642   -7.3832 O   0  0  0  0  0  0  0  0  0  0  0  0
  -24.2219  -39.3754   -8.1848 C   0  0  0  0  0  0  0  0  0  0  0  0
  -23.7120  -40.6439   -8.7936 C   0  0  0  0  0  0  0  0  0  0  0  0
  -24.3301  -41.8998   -8.2002 C   0  0  0  0  0  0  0  0  0  0  0  0
  -23.3851  -42.5439   -7.2486 C   0  0  0  0  0  0  0  0  0  0  0  0
  -22.3923  -43.3556   -7.7608 O   0  0  0  0  0  0  0  0  0  0  0  0
  -20.9965  -43.3606   -7.7584 C   0  0  0  0  0  0  0  0  0  0  0  0
  -20.4891  -44.4487   -7.0367 C   0  0  0  0  0  0  0  0  0  0  0  0
  -19.1779  -44.6636   -6.8823 N   0  0  0  0  0  0  0  0  0  0  0  0
  -18.3704  -43.7795   -7.4564 C   0  0  0  0  0  0  0  0  0  0  0  0
  -18.7993  -42.6516   -8.2054 C   0  0  0  0  0  0  0  0  0  0  0  0
  -20.1474  -42.4475   -8.3582 C   0  0  0  0  0  0  0  0  0  0  0  0
  -17.6415  -41.8654   -8.6472 C   0  0  0  0  0  0  0  0  0  0  0  0
  -16.6283  -42.5645   -9.0641 O   0  0  0  0  0  0  0  0  0  0  0  0
  -17.3903  -40.4758   -8.7154 N   0  0  0  0  0  0  0  0  0  0  0  0
  -13.9229  -39.4436  -10.8837 C   0  0  0  0  0  0  0  0  0  0  0  0
  -12.9481  -39.6575  -11.8254 C   0  0  0  0  0  0  0  0  0  0  0  0
  -12.9128  -40.9010  -12.4271 C   0  0  0  0  0  0  0  0  0  0  0  0
  -13.8196  -41.8911  -12.0981 C   0  0  0  0  0  0  0  0  0  0  0  0
  -14.7951  -41.6682  -11.1525 C   0  0  0  0  0  0  0  0  0  0  0  0
  -16.0663  -42.9983  -10.6653 Br  0  0  0  0  0  0  0  0  0  0  0  0
  -14.8240  -40.4141  -10.5516 C   0  0  0  0  0  0  0  0  0  0  0  0
  1  2  1  0
  2  3  1  0
  2  4  1  0
  4  5  1  0
  5  6  1  0
  6  7  1  1
  6  8  1  0
  8  9  1  1
  9 10  1  0
 10 11  2  0
 11 12  1  0
 12 13  2  0
 13 14  1  0
 14 15  2  0
 14 16  1  0
 16 17  1  0
 17 18  1  0
 18 19  1  0
 19 20  1  0
 20 21  1  0
 21 22  1  0
 22 23  2  0
 23 24  1  0
 24 25  2  0
 25 26  1  0
 26 27  2  0
 26 28  1  0
 28 29  2  0
 28 30  1  0
  2 31  1  0
 31 32  2  0
 32 33  1  0
 33 34  2  0
 34 35  1  0
 35 36  1  0
 35 37  2  0
 15 10  1  0
 27 22  1  0
 30  8  1  0
 37 31  1  0
M  END
$$$$
