
     RDKit          3D

 37 40  0  0  0  0  0  0  0  0999 V2000
  -13.7226  -42.0044   -9.2698 C   0  0  0  0  0  0  0  0  0  0  0  0
  -13.6798  -40.5124   -9.2923 C   0  0  0  0  0  0  0  0  0  0  0  0
  -12.2421  -40.1184   -9.5462 C   0  0  0  0  0  0  0  0  0  0  0  0
  -14.3218  -39.8865   -8.2597 N   0  0  0  0  0  0  0  0  0  0  0  0
  -15.3625  -38.9908   -8.2114 C   0  0  0  0  0  0  0  0  0  0  0  0
  -16.3865  -39.1452   -7.1760 C   0  0  1  0  0  0  0  0  0  0  0  0
  -16.6628  -38.0931   -6.3283 O   0  0  0  0  0  0  0  0  0  0  0  0
  -17.7129  -39.7491   -7.6719 C   0  0  2  0  0  0  0  0  0  0  0  0
  -18.6378  -39.9302   -6.5343 C   0  0  0  0  0  0  0  0  0  0  0  0
  -19.9205  -39.1786   -6.5345 C   0  0  0  0  0  0  0  0  0  0  0  0
  -20.2360  -38.7927   -5.1930 C   0  0  0  0  0  0  0  0  0  0  0  0
  -21.3739  -38.1526   -4.8259 C   0  0  0  0  0  0  0  0  0  0  0  0
  -22.2548  -37.8786   -5.8480 C   0  0  0  0  0  0  0  0  0  0  0  0
  -22.0065  -38.2304   -7.1864 C   0  0  0  0  0  0  0  0  0  0  0  0
  -20.8185  -38.8852   -7.5184 C   0  0  0  0  0  0  0  0  0  0  0  0
  -23.0465  -37.8493   -7.9945 O   0  0  0  0  0  0  0  0  0  0  0  0
  -23.9805  -38.3136   -8.8626 C   0  0  0  0  0  0  0  0  0  0  0  0
  -23.7062  -39.7071   -9.3342 C   0  0  0  0  0  0  0  0  0  0  0  0
  -24.6468  -40.7482   -8.7486 C   0  0  0  0  0  0  0  0  0  0  0  0
  -23.9729  -41.5013   -7.6568 C   0  0  0  0  0  0  0  0  0  0  0  0
  -23.1386  -42.5464   -8.0009 O   0  0  0  0  0  0  0  0  0  0  0  0
  -21.7870  -42.8516   -7.8325 C   0  0  0  0  0  0  0  0  0  0  0  0
  -21.6124  -43.9613   -6.9956 C   0  0  0  0  0  0  0  0  0  0  0  0
  -20.4054  -44.4401   -6.6748 N   0  0  0  0  0  0  0  0  0  0  0  0
  -19.3661  -43.8001   -7.1978 C   0  0  0  0  0  0  0  0  0  0  0  0
  -19.4528  -42.6708   -8.0547 C   0  0  0  0  0  0  0  0  0  0  0  0
  -20.6982  -42.1943   -8.3777 C   0  0  0  0  0  0  0  0  0  0  0  0
  -18.1096  -42.1907   -8.3994 C   0  0  0  0  0  0  0  0  0  0  0  0
  -17.2402  -43.1230   -8.6531 O   0  0  0  0  0  0  0  0  0  0  0  0
  -17.5491  -40.8980   -8.5154 N   0  0  0  0  0  0  0  0  0  0  0  0
  -14.4147  -40.0742  -10.5541 C   0  0  0  0  0  0  0  0  0  0  0  0
  -14.9395  -41.0090  -11.4106 C   0  0  0  0  0  0  0  0  0  0  0  0
  -15.5720  -40.5406  -12.5464 C   0  0  0  0  0  0  0  0  0  0  0  0
  -15.6738  -39.1882  -12.8136 C   0  0  0  0  0  0  0  0  0  0  0  0
  -15.1438  -38.2566  -11.9494 C   0  0  0  0  0  0  0  0  0  0  0  0
  -15.2575  -36.3845  -12.2727 Br  0  0  0  0  0  0  0  0  0  0  0  0
  -14.5087  -38.7360  -10.8085 C   0  0  0  0  0  0  0  0  0  0  0  0
  1  2  1  0
  2  3  1  0
  2  4  1  0
  4  5  1  0
  5  6  1  0
  6  7  1  6
  6  8  1  0
  8  9  1  1
  9 10  1  0
 10 11  2  0
 11 12  1  0
 12 13  2  0
 13 14  1  0
 14 15  2  0
 14 16  1  0
 16 17  1  0
 17 18  1  0
 18 19  1  0
 19 20  1  0
 20 21  1  0
 21 22  1  0
 22 23  2  0
 23 24  1  0
 24 25  2  0
 25 26  1  0
 26 27  2  0
 26 28  1  0
 28 29  2  0
 28 30  1  0
  2 31  1  0
 31 32  2  0
 32 33  1  0
 33 34  2  0
 34 35  1  0
 35 36  1  0
 35 37  2  0
 15 10  1  0
 27 22  1  0
 30  8  1  0
 37 31  1  0
M  END
$$$$
