
     RDKit          3D

 37 40  0  0  0  0  0  0  0  0999 V2000
  -20.1959  -42.0048   -7.1174 C   0  0  0  0  0  0  0  0  0  0  0  0
  -20.2869  -40.7609   -7.9375 C   0  0  0  0  0  0  0  0  0  0  0  0
  -20.8702  -41.1586   -9.2748 C   0  0  0  0  0  0  0  0  0  0  0  0
  -19.1630  -39.9820   -7.9575 N   0  0  0  0  0  0  0  0  0  0  0  0
  -18.4425  -39.3546   -6.9702 C   0  0  0  0  0  0  0  0  0  0  0  0
  -17.5532  -38.2488   -7.3318 C   0  0  1  0  0  0  0  0  0  0  0  0
  -17.1581  -37.3477   -6.3654 O   0  0  0  0  0  0  0  0  0  0  0  0
  -16.3248  -38.6603   -8.1635 C   0  0  2  0  0  0  0  0  0  0  0  0
  -16.5861  -38.4187   -9.5972 C   0  0  0  0  0  0  0  0  0  0  0  0
  -15.7320  -37.4398  -10.3202 C   0  0  0  0  0  0  0  0  0  0  0  0
  -16.5332  -36.7364  -11.2749 C   0  0  0  0  0  0  0  0  0  0  0  0
  -16.0542  -35.8198  -12.1522 C   0  0  0  0  0  0  0  0  0  0  0  0
  -14.6993  -35.5854  -12.0822 C   0  0  0  0  0  0  0  0  0  0  0  0
  -13.8558  -36.2419  -11.1689 C   0  0  0  0  0  0  0  0  0  0  0  0
  -14.3944  -37.1757  -10.2811 C   0  0  0  0  0  0  0  0  0  0  0  0
  -12.5566  -35.8298  -11.3178 O   0  0  0  0  0  0  0  0  0  0  0  0
  -11.2997  -36.2614  -11.5919 C   0  0  0  0  0  0  0  0  0  0  0  0
  -11.1520  -37.7474  -11.4941 C   0  0  0  0  0  0  0  0  0  0  0  0
  -11.0038  -38.4381  -12.8404 C   0  0  0  0  0  0  0  0  0  0  0  0
  -12.2868  -39.0761  -13.2408 C   0  0  0  0  0  0  0  0  0  0  0  0
  -12.5938  -40.3153  -12.7145 O   0  0  0  0  0  0  0  0  0  0  0  0
  -13.6104  -40.8462  -11.9190 C   0  0  0  0  0  0  0  0  0  0  0  0
  -14.3821  -41.7766  -12.6267 C   0  0  0  0  0  0  0  0  0  0  0  0
  -15.4236  -42.4142  -12.0808 N   0  0  0  0  0  0  0  0  0  0  0  0
  -15.6923  -42.1152  -10.8152 C   0  0  0  0  0  0  0  0  0  0  0  0
  -14.9625  -41.1876  -10.0253 C   0  0  0  0  0  0  0  0  0  0  0  0
  -13.8943  -40.5451  -10.5986 C   0  0  0  0  0  0  0  0  0  0  0  0
  -15.5681  -41.0674   -8.6940 C   0  0  0  0  0  0  0  0  0  0  0  0
  -15.9640  -42.1872   -8.1663 O   0  0  0  0  0  0  0  0  0  0  0  0
  -15.8181  -39.9644   -7.8457 N   0  0  0  0  0  0  0  0  0  0  0  0
  -21.3697  -39.8970   -7.3007 C   0  0  0  0  0  0  0  0  0  0  0  0
  -21.9403  -38.8684   -8.0071 C   0  0  0  0  0  0  0  0  0  0  0  0
  -22.8987  -38.1124   -7.3593 C   0  0  0  0  0  0  0  0  0  0  0  0
  -23.2699  -38.3768   -6.0543 C   0  0  0  0  0  0  0  0  0  0  0  0
  -22.6919  -39.4105   -5.3522 C   0  0  0  0  0  0  0  0  0  0  0  0
  -23.1682  -39.8142   -3.5542 Br  0  0  0  0  0  0  0  0  0  0  0  0
  -21.7282  -40.1666   -6.0111 C   0  0  0  0  0  0  0  0  0  0  0  0
  1  2  1  0
  2  3  1  0
  2  4  1  0
  4  5  1  0
  5  6  1  0
  6  7  1  1
  6  8  1  0
  8  9  1  6
  9 10  1  0
 10 11  2  0
 11 12  1  0
 12 13  2  0
 13 14  1  0
 14 15  2  0
 14 16  1  0
 16 17  1  0
 17 18  1  0
 18 19  1  0
 19 20  1  0
 20 21  1  0
 21 22  1  0
 22 23  2  0
 23 24  1  0
 24 25  2  0
 25 26  1  0
 26 27  2  0
 26 28  1  0
 28 29  2  0
 28 30  1  0
  2 31  1  0
 31 32  2  0
 32 33  1  0
 33 34  2  0
 34 35  1  0
 35 36  1  0
 35 37  2  0
 15 10  1  0
 27 22  1  0
 30  8  1  0
 37 31  1  0
M  END
$$$$
