
     RDKit          3D

 37 40  0  0  0  0  0  0  0  0999 V2000
  -12.6863  -39.2181  -11.0254 C   0  0  0  0  0  0  0  0  0  0  0  0
  -14.0370  -39.7856  -10.7394 C   0  0  0  0  0  0  0  0  0  0  0  0
  -14.8623  -39.6079  -11.9940 C   0  0  0  0  0  0  0  0  0  0  0  0
  -14.6069  -39.3912   -9.5605 N   0  0  0  0  0  0  0  0  0  0  0  0
  -15.5503  -38.4421   -9.2494 C   0  0  0  0  0  0  0  0  0  0  0  0
  -16.3205  -38.5833   -8.0119 C   0  0  1  0  0  0  0  0  0  0  0  0
  -16.6109  -37.4654   -7.2584 O   0  0  0  0  0  0  0  0  0  0  0  0
  -17.5917  -39.4417   -8.1430 C   0  0  2  0  0  0  0  0  0  0  0  0
  -18.3648  -39.3882   -6.8853 C   0  0  0  0  0  0  0  0  0  0  0  0
  -19.7338  -38.8093   -6.9165 C   0  0  0  0  0  0  0  0  0  0  0  0
  -19.9658  -38.0926   -5.6997 C   0  0  0  0  0  0  0  0  0  0  0  0
  -21.1402  -37.4996   -5.3701 C   0  0  0  0  0  0  0  0  0  0  0  0
  -22.1476  -37.6245   -6.3003 C   0  0  0  0  0  0  0  0  0  0  0  0
  -21.9864  -38.3150   -7.5142 C   0  0  0  0  0  0  0  0  0  0  0  0
  -20.7571  -38.9066   -7.8132 C   0  0  0  0  0  0  0  0  0  0  0  0
  -23.1444  -38.2938   -8.2480 O   0  0  0  0  0  0  0  0  0  0  0  0
  -24.0854  -39.0835   -8.8243 C   0  0  0  0  0  0  0  0  0  0  0  0
  -23.6667  -40.5161   -8.9336 C   0  0  0  0  0  0  0  0  0  0  0  0
  -24.3894  -41.4409   -7.9672 C   0  0  0  0  0  0  0  0  0  0  0  0
  -23.5117  -41.7746   -6.8132 C   0  0  0  0  0  0  0  0  0  0  0  0
  -22.5775  -42.7792   -6.9705 O   0  0  0  0  0  0  0  0  0  0  0  0
  -21.1865  -42.8775   -6.9090 C   0  0  0  0  0  0  0  0  0  0  0  0
  -20.7761  -43.6768   -5.8343 C   0  0  0  0  0  0  0  0  0  0  0  0
  -19.4880  -43.9123   -5.5611 N   0  0  0  0  0  0  0  0  0  0  0  0
  -18.6057  -43.3411   -6.3725 C   0  0  0  0  0  0  0  0  0  0  0  0
  -18.9343  -42.5194   -7.4833 C   0  0  0  0  0  0  0  0  0  0  0  0
  -20.2600  -42.2908   -7.7528 C   0  0  0  0  0  0  0  0  0  0  0  0
  -17.7124  -42.0172   -8.1224 C   0  0  0  0  0  0  0  0  0  0  0  0
  -16.7505  -42.8847   -8.2287 O   0  0  0  0  0  0  0  0  0  0  0  0
  -17.3529  -40.7592   -8.6581 N   0  0  0  0  0  0  0  0  0  0  0  0
  -13.8595  -41.2952  -10.6208 C   0  0  0  0  0  0  0  0  0  0  0  0
  -14.1738  -42.1149  -11.6753 C   0  0  0  0  0  0  0  0  0  0  0  0
  -14.0101  -43.4744  -11.4893 C   0  0  0  0  0  0  0  0  0  0  0  0
  -13.5500  -43.9919  -10.2929 C   0  0  0  0  0  0  0  0  0  0  0  0
  -13.2376  -43.1624   -9.2394 C   0  0  0  0  0  0  0  0  0  0  0  0
  -12.6013  -43.8259   -7.5728 Br  0  0  0  0  0  0  0  0  0  0  0  0
  -13.4051  -41.7955   -9.4345 C   0  0  0  0  0  0  0  0  0  0  0  0
  1  2  1  0
  2  3  1  0
  2  4  1  0
  4  5  1  0
  5  6  1  0
  6  7  1  6
  6  8  1  0
  8  9  1  1
  9 10  1  0
 10 11  2  0
 11 12  1  0
 12 13  2  0
 13 14  1  0
 14 15  2  0
 14 16  1  0
 16 17  1  0
 17 18  1  0
 18 19  1  0
 19 20  1  0
 20 21  1  0
 21 22  1  0
 22 23  2  0
 23 24  1  0
 24 25  2  0
 25 26  1  0
 26 27  2  0
 26 28  1  0
 28 29  2  0
 28 30  1  0
  2 31  1  0
 31 32  2  0
 32 33  1  0
 33 34  2  0
 34 35  1  0
 35 36  1  0
 35 37  2  0
 15 10  1  0
 27 22  1  0
 30  8  1  0
 37 31  1  0
M  END
$$$$
