
     RDKit          3D

 37 40  0  0  0  0  0  0  0  0999 V2000
  -17.1814  -35.7983   -9.1157 C   0  0  0  0  0  0  0  0  0  0  0  0
  -17.2717  -36.9467  -10.0650 C   0  0  0  0  0  0  0  0  0  0  0  0
  -18.6798  -36.9506  -10.6162 C   0  0  0  0  0  0  0  0  0  0  0  0
  -16.7831  -38.1370   -9.6018 N   0  0  0  0  0  0  0  0  0  0  0  0
  -16.2592  -38.5256   -8.3926 C   0  0  0  0  0  0  0  0  0  0  0  0
  -16.0942  -39.9540   -8.1148 C   0  0  1  0  0  0  0  0  0  0  0  0
  -15.0960  -40.3712   -7.2597 O   0  0  0  0  0  0  0  0  0  0  0  0
  -17.3976  -40.6922   -7.7594 C   0  0  2  0  0  0  0  0  0  0  0  0
  -17.8929  -41.4312   -8.9387 C   0  0  0  0  0  0  0  0  0  0  0  0
  -17.9896  -42.9127   -8.8600 C   0  0  0  0  0  0  0  0  0  0  0  0
  -17.6525  -43.4712  -10.1339 C   0  0  0  0  0  0  0  0  0  0  0  0
  -17.7064  -44.7933  -10.4308 C   0  0  0  0  0  0  0  0  0  0  0  0
  -18.1205  -45.6137   -9.4055 C   0  0  0  0  0  0  0  0  0  0  0  0
  -18.4666  -45.1302   -8.1316 C   0  0  0  0  0  0  0  0  0  0  0  0
  -18.3918  -43.7604   -7.8700 C   0  0  0  0  0  0  0  0  0  0  0  0
  -18.8502  -46.1552   -7.3057 O   0  0  0  0  0  0  0  0  0  0  0  0
  -19.8758  -46.6213   -6.5492 C   0  0  0  0  0  0  0  0  0  0  0  0
  -20.9336  -45.5942   -6.2926 C   0  0  0  0  0  0  0  0  0  0  0  0
  -22.2224  -45.8370   -7.0616 C   0  0  0  0  0  0  0  0  0  0  0  0
  -22.3052  -44.9283   -8.2366 C   0  0  0  0  0  0  0  0  0  0  0  0
  -22.7482  -43.6361   -8.0347 O   0  0  0  0  0  0  0  0  0  0  0  0
  -22.2231  -42.3545   -8.2078 C   0  0  0  0  0  0  0  0  0  0  0  0
  -22.9123  -41.6480   -9.2018 C   0  0  0  0  0  0  0  0  0  0  0  0
  -22.5873  -40.4000   -9.5568 N   0  0  0  0  0  0  0  0  0  0  0  0
  -21.5629  -39.8574   -8.9093 C   0  0  0  0  0  0  0  0  0  0  0  0
  -20.8117  -40.5004   -7.8897 C   0  0  0  0  0  0  0  0  0  0  0  0
  -21.1603  -41.7789   -7.5341 C   0  0  0  0  0  0  0  0  0  0  0  0
  -19.7234  -39.6278   -7.4340 C   0  0  0  0  0  0  0  0  0  0  0  0
  -20.0412  -38.3744   -7.3026 O   0  0  0  0  0  0  0  0  0  0  0  0
  -18.3708  -39.8690   -7.1008 N   0  0  0  0  0  0  0  0  0  0  0  0
  -16.4026  -36.5893  -11.2656 C   0  0  0  0  0  0  0  0  0  0  0  0
  -16.6128  -37.1957  -12.4783 C   0  0  0  0  0  0  0  0  0  0  0  0
  -15.7725  -36.8404  -13.5163 C   0  0  0  0  0  0  0  0  0  0  0  0
  -14.7609  -35.9141  -13.3451 C   0  0  0  0  0  0  0  0  0  0  0  0
  -14.5562  -35.3107  -12.1246 C   0  0  0  0  0  0  0  0  0  0  0  0
  -13.1775  -34.0304  -11.8382 Br  0  0  0  0  0  0  0  0  0  0  0  0
  -15.4060  -35.6737  -11.0850 C   0  0  0  0  0  0  0  0  0  0  0  0
  1  2  1  0
  2  3  1  0
  2  4  1  0
  4  5  1  0
  5  6  1  0
  6  7  1  1
  6  8  1  0
  8  9  1  6
  9 10  1  0
 10 11  2  0
 11 12  1  0
 12 13  2  0
 13 14  1  0
 14 15  2  0
 14 16  1  0
 16 17  1  0
 17 18  1  0
 18 19  1  0
 19 20  1  0
 20 21  1  0
 21 22  1  0
 22 23  2  0
 23 24  1  0
 24 25  2  0
 25 26  1  0
 26 27  2  0
 26 28  1  0
 28 29  2  0
 28 30  1  0
  2 31  1  0
 31 32  2  0
 32 33  1  0
 33 34  2  0
 34 35  1  0
 35 36  1  0
 35 37  2  0
 15 10  1  0
 27 22  1  0
 30  8  1  0
 37 31  1  0
M  END
$$$$
