
     RDKit          3D

 37 40  0  0  0  0  0  0  0  0999 V2000
  -13.1917  -40.4324  -10.0482 C   0  0  0  0  0  0  0  0  0  0  0  0
  -13.9341  -39.1916   -9.6774 C   0  0  0  0  0  0  0  0  0  0  0  0
  -13.3273  -38.6860   -8.3879 C   0  0  0  0  0  0  0  0  0  0  0  0
  -15.2977  -39.2804   -9.7288 N   0  0  0  0  0  0  0  0  0  0  0  0
  -16.1547  -40.2356  -10.2194 C   0  0  0  0  0  0  0  0  0  0  0  0
  -17.5849  -39.9324  -10.3042 C   0  0  1  0  0  0  0  0  0  0  0  0
  -18.2584  -40.1481  -11.4881 O   0  0  0  0  0  0  0  0  0  0  0  0
  -18.4274  -40.4876   -9.1415 C   0  0  2  0  0  0  0  0  0  0  0  0
  -19.7353  -39.8022   -9.0981 C   0  0  0  0  0  0  0  0  0  0  0  0
  -20.9675  -40.6085   -9.3030 C   0  0  0  0  0  0  0  0  0  0  0  0
  -21.9198  -39.8290  -10.0335 C   0  0  0  0  0  0  0  0  0  0  0  0
  -23.1785  -40.2366  -10.3313 C   0  0  0  0  0  0  0  0  0  0  0  0
  -23.5170  -41.4917   -9.8773 C   0  0  0  0  0  0  0  0  0  0  0  0
  -22.6301  -42.3083   -9.1541 C   0  0  0  0  0  0  0  0  0  0  0  0
  -21.3415  -41.8482   -8.8742 C   0  0  0  0  0  0  0  0  0  0  0  0
  -23.2224  -43.4984   -8.8184 O   0  0  0  0  0  0  0  0  0  0  0  0
  -23.5702  -44.2864   -7.7699 C   0  0  0  0  0  0  0  0  0  0  0  0
  -22.9081  -43.8887   -6.4881 C   0  0  0  0  0  0  0  0  0  0  0  0
  -23.8487  -43.2304   -5.4914 C   0  0  0  0  0  0  0  0  0  0  0  0
  -23.6531  -41.7556   -5.4887 C   0  0  0  0  0  0  0  0  0  0  0  0
  -22.6111  -41.2349   -4.7472 O   0  0  0  0  0  0  0  0  0  0  0  0
  -21.4619  -40.4887   -5.0133 C   0  0  0  0  0  0  0  0  0  0  0  0
  -21.5330  -39.2143   -4.4362 C   0  0  0  0  0  0  0  0  0  0  0  0
  -20.5552  -38.3102   -4.5610 N   0  0  0  0  0  0  0  0  0  0  0  0
  -19.4984  -38.6882   -5.2706 C   0  0  0  0  0  0  0  0  0  0  0  0
  -19.3440  -39.9582   -5.8873 C   0  0  0  0  0  0  0  0  0  0  0  0
  -20.3541  -40.8760   -5.7464 C   0  0  0  0  0  0  0  0  0  0  0  0
  -18.0803  -40.0110   -6.6314 C   0  0  0  0  0  0  0  0  0  0  0  0
  -17.0659  -39.4611   -6.0331 O   0  0  0  0  0  0  0  0  0  0  0  0
  -17.7260  -40.5457   -7.8913 N   0  0  0  0  0  0  0  0  0  0  0  0
  -13.5558  -38.1330  -10.7073 C   0  0  0  0  0  0  0  0  0  0  0  0
  -12.9924  -38.4998  -11.9034 C   0  0  0  0  0  0  0  0  0  0  0  0
  -12.6536  -37.4862  -12.7794 C   0  0  0  0  0  0  0  0  0  0  0  0
  -12.8704  -36.1569  -12.4683 C   0  0  0  0  0  0  0  0  0  0  0  0
  -13.4356  -35.7972  -11.2655 C   0  0  0  0  0  0  0  0  0  0  0  0
  -13.7539  -33.9819  -10.7904 Br  0  0  0  0  0  0  0  0  0  0  0  0
  -13.7738  -36.8232  -10.3893 C   0  0  0  0  0  0  0  0  0  0  0  0
  1  2  1  0
  2  3  1  0
  2  4  1  0
  4  5  1  0
  5  6  1  0
  6  7  1  6
  6  8  1  0
  8  9  1  1
  9 10  1  0
 10 11  2  0
 11 12  1  0
 12 13  2  0
 13 14  1  0
 14 15  2  0
 14 16  1  0
 16 17  1  0
 17 18  1  0
 18 19  1  0
 19 20  1  0
 20 21  1  0
 21 22  1  0
 22 23  2  0
 23 24  1  0
 24 25  2  0
 25 26  1  0
 26 27  2  0
 26 28  1  0
 28 29  2  0
 28 30  1  0
  2 31  1  0
 31 32  2  0
 32 33  1  0
 33 34  2  0
 34 35  1  0
 35 36  1  0
 35 37  2  0
 15 10  1  0
 27 22  1  0
 30  8  1  0
 37 31  1  0
M  END
$$$$
