
     RDKit          3D

 37 40  0  0  0  0  0  0  0  0999 V2000
  -13.4948  -37.7495   -9.8353 C   0  0  0  0  0  0  0  0  0  0  0  0
  -14.6537  -38.6348  -10.1540 C   0  0  0  0  0  0  0  0  0  0  0  0
  -15.2128  -38.1660  -11.4786 C   0  0  0  0  0  0  0  0  0  0  0  0
  -15.5470  -38.8290   -9.1370 N   0  0  0  0  0  0  0  0  0  0  0  0
  -16.5537  -38.0527   -8.6158 C   0  0  0  0  0  0  0  0  0  0  0  0
  -17.3044  -38.5442   -7.4584 C   0  0  1  0  0  0  0  0  0  0  0  0
  -17.7614  -37.6505   -6.5128 O   0  0  0  0  0  0  0  0  0  0  0  0
  -18.4349  -39.5315   -7.8005 C   0  0  2  0  0  0  0  0  0  0  0  0
  -18.9699  -40.1304   -6.5606 C   0  0  0  0  0  0  0  0  0  0  0  0
  -20.3937  -39.8853   -6.2097 C   0  0  0  0  0  0  0  0  0  0  0  0
  -20.5096  -39.7590   -4.7888 C   0  0  0  0  0  0  0  0  0  0  0  0
  -21.6816  -39.5995   -4.1255 C   0  0  0  0  0  0  0  0  0  0  0  0
  -22.8087  -39.5643   -4.9156 C   0  0  0  0  0  0  0  0  0  0  0  0
  -22.7650  -39.6831   -6.3157 C   0  0  0  0  0  0  0  0  0  0  0  0
  -21.5343  -39.8417   -6.9564 C   0  0  0  0  0  0  0  0  0  0  0  0
  -24.0254  -39.6240   -6.8524 O   0  0  0  0  0  0  0  0  0  0  0  0
  -24.9247  -40.3087   -7.6031 C   0  0  0  0  0  0  0  0  0  0  0  0
  -24.3218  -41.4661   -8.3357 C   0  0  0  0  0  0  0  0  0  0  0  0
  -24.7129  -42.8212   -7.7680 C   0  0  0  0  0  0  0  0  0  0  0  0
  -23.6032  -43.3819   -6.9510 C   0  0  0  0  0  0  0  0  0  0  0  0
  -22.5719  -44.0280   -7.6034 O   0  0  0  0  0  0  0  0  0  0  0  0
  -21.1936  -43.8483   -7.7310 C   0  0  0  0  0  0  0  0  0  0  0  0
  -20.4824  -44.8947   -7.1299 C   0  0  0  0  0  0  0  0  0  0  0  0
  -19.1457  -44.9417   -7.1119 N   0  0  0  0  0  0  0  0  0  0  0  0
  -18.5186  -43.9306   -7.7015 C   0  0  0  0  0  0  0  0  0  0  0  0
  -19.1600  -42.8329   -8.3345 C   0  0  0  0  0  0  0  0  0  0  0  0
  -20.5316  -42.8016   -8.3482 C   0  0  0  0  0  0  0  0  0  0  0  0
  -18.1616  -41.8791   -8.8313 C   0  0  0  0  0  0  0  0  0  0  0  0
  -17.1149  -42.4158   -9.3840 O   0  0  0  0  0  0  0  0  0  0  0  0
  -18.0968  -40.4668   -8.8346 N   0  0  0  0  0  0  0  0  0  0  0  0
  -14.0783  -40.0132  -10.4593 C   0  0  0  0  0  0  0  0  0  0  0  0
  -14.5546  -40.7441  -11.5184 C   0  0  0  0  0  0  0  0  0  0  0  0
  -14.0030  -41.9947  -11.7219 C   0  0  0  0  0  0  0  0  0  0  0  0
  -13.0133  -42.4933  -10.8958 C   0  0  0  0  0  0  0  0  0  0  0  0
  -12.5414  -41.7538   -9.8346 C   0  0  0  0  0  0  0  0  0  0  0  0
  -11.1811  -42.3960   -8.6687 Br  0  0  0  0  0  0  0  0  0  0  0  0
  -13.1016  -40.4962   -9.6364 C   0  0  0  0  0  0  0  0  0  0  0  0
  1  2  1  0
  2  3  1  0
  2  4  1  0
  4  5  1  0
  5  6  1  0
  6  7  1  6
  6  8  1  0
  8  9  1  1
  9 10  1  0
 10 11  2  0
 11 12  1  0
 12 13  2  0
 13 14  1  0
 14 15  2  0
 14 16  1  0
 16 17  1  0
 17 18  1  0
 18 19  1  0
 19 20  1  0
 20 21  1  0
 21 22  1  0
 22 23  2  0
 23 24  1  0
 24 25  2  0
 25 26  1  0
 26 27  2  0
 26 28  1  0
 28 29  2  0
 28 30  1  0
  2 31  1  0
 31 32  2  0
 32 33  1  0
 33 34  2  0
 34 35  1  0
 35 36  1  0
 35 37  2  0
 15 10  1  0
 27 22  1  0
 30  8  1  0
 37 31  1  0
M  END
$$$$
