
     RDKit          3D

 37 40  0  0  0  0  0  0  0  0999 V2000
  -12.5326  -41.0890   -8.5486 C   0  0  0  0  0  0  0  0  0  0  0  0
  -13.4377  -40.0936   -9.1954 C   0  0  0  0  0  0  0  0  0  0  0  0
  -12.5990  -38.8737   -9.5042 C   0  0  0  0  0  0  0  0  0  0  0  0
  -14.6320  -39.8820   -8.5638 N   0  0  0  0  0  0  0  0  0  0  0  0
  -15.5277  -38.8403   -8.5819 C   0  0  0  0  0  0  0  0  0  0  0  0
  -16.5608  -38.7722   -7.5463 C   0  0  1  0  0  0  0  0  0  0  0  0
  -16.9979  -37.5429   -7.0994 O   0  0  0  0  0  0  0  0  0  0  0  0
  -17.7817  -39.6752   -7.7990 C   0  0  2  0  0  0  0  0  0  0  0  0
  -18.6769  -39.6484   -6.6243 C   0  0  0  0  0  0  0  0  0  0  0  0
  -20.0557  -39.1185   -6.7933 C   0  0  0  0  0  0  0  0  0  0  0  0
  -20.4323  -38.4097   -5.6084 C   0  0  0  0  0  0  0  0  0  0  0  0
  -21.6537  -37.8587   -5.3991 C   0  0  0  0  0  0  0  0  0  0  0  0
  -22.5589  -38.0198   -6.4239 C   0  0  0  0  0  0  0  0  0  0  0  0
  -22.2540  -38.7049   -7.6131 C   0  0  0  0  0  0  0  0  0  0  0  0
  -20.9811  -39.2527   -7.7864 C   0  0  0  0  0  0  0  0  0  0  0  0
  -23.3336  -38.7252   -8.4580 O   0  0  0  0  0  0  0  0  0  0  0  0
  -24.1845  -39.5482   -9.1214 C   0  0  0  0  0  0  0  0  0  0  0  0
  -23.7067  -40.9651   -9.1827 C   0  0  0  0  0  0  0  0  0  0  0  0
  -24.4885  -41.9144   -8.2888 C   0  0  0  0  0  0  0  0  0  0  0  0
  -23.7183  -42.2161   -7.0522 C   0  0  0  0  0  0  0  0  0  0  0  0
  -22.7382  -43.1869   -7.1121 O   0  0  0  0  0  0  0  0  0  0  0  0
  -21.3576  -43.2357   -6.9128 C   0  0  0  0  0  0  0  0  0  0  0  0
  -21.0277  -44.0192   -5.7995 C   0  0  0  0  0  0  0  0  0  0  0  0
  -19.7656  -44.2088   -5.3991 N   0  0  0  0  0  0  0  0  0  0  0  0
  -18.8279  -43.6071   -6.1216 C   0  0  0  0  0  0  0  0  0  0  0  0
  -19.0736  -42.7982   -7.2628 C   0  0  0  0  0  0  0  0  0  0  0  0
  -20.3733  -42.6170   -7.6632 C   0  0  0  0  0  0  0  0  0  0  0  0
  -17.8129  -42.2533   -7.7798 C   0  0  0  0  0  0  0  0  0  0  0  0
  -16.8151  -43.0862   -7.7868 O   0  0  0  0  0  0  0  0  0  0  0  0
  -17.4467  -40.9837   -8.2826 N   0  0  0  0  0  0  0  0  0  0  0  0
  -13.7960  -40.6563  -10.5662 C   0  0  0  0  0  0  0  0  0  0  0  0
  -13.1842  -40.1730  -11.6953 C   0  0  0  0  0  0  0  0  0  0  0  0
  -13.5748  -40.7130  -12.9059 C   0  0  0  0  0  0  0  0  0  0  0  0
  -14.5412  -41.6984  -12.9816 C   0  0  0  0  0  0  0  0  0  0  0  0
  -15.1508  -42.1774  -11.8439 C   0  0  0  0  0  0  0  0  0  0  0  0
  -16.4865  -43.5322  -11.8957 Br  0  0  0  0  0  0  0  0  0  0  0  0
  -14.7523  -41.6287  -10.6295 C   0  0  0  0  0  0  0  0  0  0  0  0
  1  2  1  0
  2  3  1  0
  2  4  1  0
  4  5  1  0
  5  6  1  0
  6  7  1  6
  6  8  1  0
  8  9  1  1
  9 10  1  0
 10 11  2  0
 11 12  1  0
 12 13  2  0
 13 14  1  0
 14 15  2  0
 14 16  1  0
 16 17  1  0
 17 18  1  0
 18 19  1  0
 19 20  1  0
 20 21  1  0
 21 22  1  0
 22 23  2  0
 23 24  1  0
 24 25  2  0
 25 26  1  0
 26 27  2  0
 26 28  1  0
 28 29  2  0
 28 30  1  0
  2 31  1  0
 31 32  2  0
 32 33  1  0
 33 34  2  0
 34 35  1  0
 35 36  1  0
 35 37  2  0
 15 10  1  0
 27 22  1  0
 30  8  1  0
 37 31  1  0
M  END
$$$$
