
     RDKit          3D

 37 40  0  0  0  0  0  0  0  0999 V2000
  -13.7692  -40.6903  -10.7641 C   0  0  0  0  0  0  0  0  0  0  0  0
  -13.3715  -39.3598  -10.2164 C   0  0  0  0  0  0  0  0  0  0  0  0
  -11.8841  -39.4216   -9.9506 C   0  0  0  0  0  0  0  0  0  0  0  0
  -14.1618  -38.8732   -9.2121 N   0  0  0  0  0  0  0  0  0  0  0  0
  -15.4532  -38.4053   -9.1819 C   0  0  0  0  0  0  0  0  0  0  0  0
  -16.2713  -38.6508   -7.9924 C   0  0  1  0  0  0  0  0  0  0  0  0
  -16.6826  -37.5874   -7.2166 O   0  0  0  0  0  0  0  0  0  0  0  0
  -17.4658  -39.5948   -8.2201 C   0  0  2  0  0  0  0  0  0  0  0  0
  -18.1704  -39.8291   -6.9430 C   0  0  0  0  0  0  0  0  0  0  0  0
  -19.5854  -39.3896   -6.8208 C   0  0  0  0  0  0  0  0  0  0  0  0
  -19.8136  -38.9136   -5.4906 C   0  0  0  0  0  0  0  0  0  0  0  0
  -21.0164  -38.5020   -5.0185 C   0  0  0  0  0  0  0  0  0  0  0  0
  -22.0581  -38.5665   -5.9164 C   0  0  0  0  0  0  0  0  0  0  0  0
  -21.9026  -39.0242   -7.2366 C   0  0  0  0  0  0  0  0  0  0  0  0
  -20.6435  -39.4343   -7.6805 C   0  0  0  0  0  0  0  0  0  0  0  0
  -23.0964  -38.9932   -7.9102 O   0  0  0  0  0  0  0  0  0  0  0  0
  -23.9931  -39.7629   -8.5772 C   0  0  0  0  0  0  0  0  0  0  0  0
  -23.4544  -41.1089   -8.9480 C   0  0  0  0  0  0  0  0  0  0  0  0
  -24.0372  -42.2490   -8.1282 C   0  0  0  0  0  0  0  0  0  0  0  0
  -23.0712  -42.6846   -7.0839 C   0  0  0  0  0  0  0  0  0  0  0  0
  -22.0608  -43.5523   -7.4481 O   0  0  0  0  0  0  0  0  0  0  0  0
  -20.6653  -43.5233   -7.4585 C   0  0  0  0  0  0  0  0  0  0  0  0
  -20.1266  -44.4479   -6.5545 C   0  0  0  0  0  0  0  0  0  0  0  0
  -18.8096  -44.5991   -6.3761 N   0  0  0  0  0  0  0  0  0  0  0  0
  -18.0279  -43.8164   -7.1105 C   0  0  0  0  0  0  0  0  0  0  0  0
  -18.4891  -42.8558   -8.0494 C   0  0  0  0  0  0  0  0  0  0  0  0
  -19.8428  -42.7157   -8.2239 C   0  0  0  0  0  0  0  0  0  0  0  0
  -17.3541  -42.1365   -8.6392 C   0  0  0  0  0  0  0  0  0  0  0  0
  -16.3256  -42.8757   -8.9307 O   0  0  0  0  0  0  0  0  0  0  0  0
  -17.1386  -40.7774   -8.9636 N   0  0  0  0  0  0  0  0  0  0  0  0
  -13.5044  -38.3602  -11.3598 C   0  0  0  0  0  0  0  0  0  0  0  0
  -13.7783  -38.7948  -12.6321 C   0  0  0  0  0  0  0  0  0  0  0  0
  -13.8619  -37.8355  -13.6232 C   0  0  0  0  0  0  0  0  0  0  0  0
  -13.6775  -36.4931  -13.3497 C   0  0  0  0  0  0  0  0  0  0  0  0
  -13.4022  -36.0653  -12.0704 C   0  0  0  0  0  0  0  0  0  0  0  0
  -13.1398  -34.2293  -11.6432 Br  0  0  0  0  0  0  0  0  0  0  0  0
  -13.3197  -37.0369  -11.0785 C   0  0  0  0  0  0  0  0  0  0  0  0
  1  2  1  0
  2  3  1  0
  2  4  1  0
  4  5  1  0
  5  6  1  0
  6  7  1  6
  6  8  1  0
  8  9  1  1
  9 10  1  0
 10 11  2  0
 11 12  1  0
 12 13  2  0
 13 14  1  0
 14 15  2  0
 14 16  1  0
 16 17  1  0
 17 18  1  0
 18 19  1  0
 19 20  1  0
 20 21  1  0
 21 22  1  0
 22 23  2  0
 23 24  1  0
 24 25  2  0
 25 26  1  0
 26 27  2  0
 26 28  1  0
 28 29  2  0
 28 30  1  0
  2 31  1  0
 31 32  2  0
 32 33  1  0
 33 34  2  0
 34 35  1  0
 35 36  1  0
 35 37  2  0
 15 10  1  0
 27 22  1  0
 30  8  1  0
 37 31  1  0
M  END
$$$$
