
     RDKit          3D

 37 40  0  0  0  0  0  0  0  0999 V2000
  -14.1344  -38.8396  -10.3626 C   0  0  0  0  0  0  0  0  0  0  0  0
  -15.2731  -37.9843   -9.9154 C   0  0  0  0  0  0  0  0  0  0  0  0
  -14.8576  -36.5478  -10.1399 C   0  0  0  0  0  0  0  0  0  0  0  0
  -15.8008  -38.2939   -8.6923 N   0  0  0  0  0  0  0  0  0  0  0  0
  -16.9460  -37.9026   -8.0419 C   0  0  0  0  0  0  0  0  0  0  0  0
  -17.4054  -38.6731   -6.8844 C   0  0  1  0  0  0  0  0  0  0  0  0
  -17.5947  -38.0386   -5.6747 O   0  0  0  0  0  0  0  0  0  0  0  0
  -18.6111  -39.5891   -7.1623 C   0  0  2  0  0  0  0  0  0  0  0  0
  -18.7509  -40.5780   -6.0739 C   0  0  0  0  0  0  0  0  0  0  0  0
  -19.9894  -40.5595   -5.2515 C   0  0  0  0  0  0  0  0  0  0  0  0
  -19.6563  -40.8847   -3.8981 C   0  0  0  0  0  0  0  0  0  0  0  0
  -20.5609  -41.0245   -2.8974 C   0  0  0  0  0  0  0  0  0  0  0  0
  -21.8759  -40.8326   -3.2574 C   0  0  0  0  0  0  0  0  0  0  0  0
  -22.2710  -40.5120   -4.5680 C   0  0  0  0  0  0  0  0  0  0  0  0
  -21.3036  -40.3738   -5.5657 C   0  0  0  0  0  0  0  0  0  0  0  0
  -23.6337  -40.3852   -4.6522 O   0  0  0  0  0  0  0  0  0  0  0  0
  -24.7384  -40.8713   -5.2723 C   0  0  0  0  0  0  0  0  0  0  0  0
  -24.4217  -41.6994   -6.4779 C   0  0  0  0  0  0  0  0  0  0  0  0
  -24.6522  -43.1885   -6.2760 C   0  0  0  0  0  0  0  0  0  0  0  0
  -23.3587  -43.8886   -6.0522 C   0  0  0  0  0  0  0  0  0  0  0  0
  -22.5969  -44.2242   -7.1539 O   0  0  0  0  0  0  0  0  0  0  0  0
  -21.3218  -43.9118   -7.6278 C   0  0  0  0  0  0  0  0  0  0  0  0
  -20.4863  -45.0361   -7.6310 C   0  0  0  0  0  0  0  0  0  0  0  0
  -19.2114  -44.9864   -8.0327 N   0  0  0  0  0  0  0  0  0  0  0  0
  -18.7721  -43.7993   -8.4339 C   0  0  0  0  0  0  0  0  0  0  0  0
  -19.5498  -42.6113   -8.4642 C   0  0  0  0  0  0  0  0  0  0  0  0
  -20.8569  -42.6798   -8.0530 C   0  0  0  0  0  0  0  0  0  0  0  0
  -18.7303  -41.4793   -8.9120 C   0  0  0  0  0  0  0  0  0  0  0  0
  -17.9202  -41.7407   -9.8941 O   0  0  0  0  0  0  0  0  0  0  0  0
  -18.6337  -40.1336   -8.4895 N   0  0  0  0  0  0  0  0  0  0  0  0
  -16.4033  -38.2058  -10.9144 C   0  0  0  0  0  0  0  0  0  0  0  0
  -16.4153  -39.3230  -11.7108 C   0  0  0  0  0  0  0  0  0  0  0  0
  -17.4577  -39.4470  -12.6095 C   0  0  0  0  0  0  0  0  0  0  0  0
  -18.4489  -38.4884  -12.7064 C   0  0  0  0  0  0  0  0  0  0  0  0
  -18.4290  -37.3698  -11.9040 C   0  0  0  0  0  0  0  0  0  0  0  0
  -19.7695  -36.0220  -11.9997 Br  0  0  0  0  0  0  0  0  0  0  0  0
  -17.3766  -37.2523  -11.0022 C   0  0  0  0  0  0  0  0  0  0  0  0
  1  2  1  0
  2  3  1  0
  2  4  1  0
  4  5  1  0
  5  6  1  0
  6  7  1  1
  6  8  1  0
  8  9  1  1
  9 10  1  0
 10 11  2  0
 11 12  1  0
 12 13  2  0
 13 14  1  0
 14 15  2  0
 14 16  1  0
 16 17  1  0
 17 18  1  0
 18 19  1  0
 19 20  1  0
 20 21  1  0
 21 22  1  0
 22 23  2  0
 23 24  1  0
 24 25  2  0
 25 26  1  0
 26 27  2  0
 26 28  1  0
 28 29  2  0
 28 30  1  0
  2 31  1  0
 31 32  2  0
 32 33  1  0
 33 34  2  0
 34 35  1  0
 35 36  1  0
 35 37  2  0
 15 10  1  0
 27 22  1  0
 30  8  1  0
 37 31  1  0
M  END
$$$$
