
     RDKit          3D

 34 35  0  0  0  0  0  0  0  0999 V2000
  -13.7789  -34.0983  -13.1538 C   0  0  0  0  0  0  0  0  0  0  0  0
  -13.5821  -35.5053  -13.5949 C   0  0  0  0  0  0  0  0  0  0  0  0
  -12.7217  -36.3294  -12.7080 C   0  0  0  0  0  0  0  0  0  0  0  0
  -13.3726  -37.4926  -12.0527 C   0  0  0  0  0  0  0  0  0  0  0  0
  -13.5213  -37.3644  -10.6388 N   0  0  0  0  0  0  0  0  0  0  0  0
  -14.1171  -38.4065   -9.8456 C   0  0  0  0  0  0  0  0  0  0  0  0
  -13.6337  -39.5561   -9.9473 O   0  0  0  0  0  0  0  0  0  0  0  0
  -15.2478  -38.0442   -8.9769 C   0  0  2  0  0  0  0  0  0  0  0  0
  -14.8734  -38.0277   -7.5006 C   0  0  0  0  0  0  0  0  0  0  0  0
  -16.4988  -38.8608   -9.2120 C   0  0  0  0  0  0  0  0  0  0  0  0
  -16.8562  -39.6493   -7.9930 C   0  0  2  0  0  0  0  0  0  0  0  0
  -15.7978  -40.5658   -7.7464 O   0  0  0  0  0  0  0  0  0  0  0  0
  -18.1364  -40.4210   -8.1038 C   0  0  2  0  0  0  0  0  0  0  0  0
  -19.3293  -39.6076   -8.4918 C   0  0  0  0  0  0  0  0  0  0  0  0
  -20.6163  -39.8270   -7.7803 C   0  0  0  0  0  0  0  0  0  0  0  0
  -21.0582  -38.6525   -7.1396 C   0  0  0  0  0  0  0  0  0  0  0  0
  -22.2103  -38.5438   -6.4038 C   0  0  0  0  0  0  0  0  0  0  0  0
  -22.9421  -39.7044   -6.3256 C   0  0  0  0  0  0  0  0  0  0  0  0
  -22.5575  -40.9075   -6.9417 C   0  0  0  0  0  0  0  0  0  0  0  0
  -21.3843  -40.9547   -7.6703 C   0  0  0  0  0  0  0  0  0  0  0  0
  -23.4786  -41.9005   -6.6932 O   0  0  0  0  0  0  0  0  0  0  0  0
  -24.2191  -42.8326   -7.3685 C   0  0  0  0  0  0  0  0  0  0  0  0
  -23.6032  -43.2248   -8.6607 C   0  0  0  0  0  0  0  0  0  0  0  0
  -22.6168  -44.3379   -8.6214 C   0  0  0  0  0  0  0  0  0  0  0  0
  -21.9332  -44.5790   -7.3232 C   0  0  0  0  0  0  0  0  0  0  0  0
  -20.3175  -45.2792   -7.4516 S   0  0  0  0  0  6  0  0  0  0  0  0
  -19.8208  -45.4931   -6.0335 O   0  0  0  0  0  0  0  0  0  0  0  0
  -20.4917  -46.6692   -8.0515 O   0  0  0  0  0  0  0  0  0  0  0  0
  -19.1914  -44.3557   -8.4229 C   0  0  0  0  0  0  0  0  0  0  0  0
  -18.0792  -43.7304   -7.5936 C   0  0  1  0  0  0  0  0  0  0  0  0
  -16.8879  -43.4952   -8.4384 C   0  0  0  0  0  0  0  0  0  0  0  0
  -18.5963  -42.6006   -6.8489 C   0  0  0  0  0  0  0  0  0  0  0  0
  -19.4591  -42.9031   -5.9410 O   0  0  0  0  0  0  0  0  0  0  0  0
  -18.3172  -41.2320   -6.9468 N   0  0  0  0  0  0  0  0  0  0  0  0
  1  2  1  0
  2  3  1  0
  3  4  1  0
  4  5  1  0
  5  6  1  0
  6  7  2  0
  6  8  1  0
  8  9  1  1
  8 10  1  0
 10 11  1  0
 11 12  1  6
 11 13  1  0
 13 14  1  1
 14 15  1  0
 15 16  2  0
 16 17  1  0
 17 18  2  0
 18 19  1  0
 19 20  2  0
 19 21  1  0
 21 22  1  0
 22 23  1  0
 23 24  1  0
 24 25  1  0
 25 26  1  0
 26 27  2  0
 26 28  2  0
 26 29  1  0
 29 30  1  0
 30 31  1  6
 30 32  1  0
 32 33  2  0
 32 34  1  0
 20 15  1  0
 34 13  1  0
M  END
$$$$
