
     RDKit          3D

 34 35  0  0  0  0  0  0  0  0999 V2000
  -14.5110  -34.3954  -12.2082 C   0  0  0  0  0  0  0  0  0  0  0  0
  -13.3304  -35.2734  -11.9881 C   0  0  0  0  0  0  0  0  0  0  0  0
  -13.4948  -36.6769  -12.4454 C   0  0  0  0  0  0  0  0  0  0  0  0
  -12.3257  -37.5734  -12.2566 C   0  0  0  0  0  0  0  0  0  0  0  0
  -12.3663  -38.3492  -11.0589 N   0  0  0  0  0  0  0  0  0  0  0  0
  -13.2734  -39.4558  -10.9075 C   0  0  0  0  0  0  0  0  0  0  0  0
  -13.3439  -40.2761  -11.8497 O   0  0  0  0  0  0  0  0  0  0  0  0
  -14.0489  -39.5397   -9.6602 C   0  0  2  0  0  0  0  0  0  0  0  0
  -13.3135  -40.2941   -8.5603 C   0  0  0  0  0  0  0  0  0  0  0  0
  -15.4546  -40.0687   -9.8367 C   0  0  0  0  0  0  0  0  0  0  0  0
  -16.3678  -39.5113   -8.7924 C   0  0  2  0  0  0  0  0  0  0  0  0
  -15.7786  -39.7656   -7.5238 O   0  0  0  0  0  0  0  0  0  0  0  0
  -17.7496  -40.0920   -8.7992 C   0  0  2  0  0  0  0  0  0  0  0  0
  -18.8129  -39.1787   -9.3192 C   0  0  0  0  0  0  0  0  0  0  0  0
  -20.1098  -39.0940   -8.5972 C   0  0  0  0  0  0  0  0  0  0  0  0
  -20.3649  -37.7834   -8.1470 C   0  0  0  0  0  0  0  0  0  0  0  0
  -21.4794  -37.3945   -7.4491 C   0  0  0  0  0  0  0  0  0  0  0  0
  -22.3746  -38.4080   -7.2040 C   0  0  0  0  0  0  0  0  0  0  0  0
  -22.1801  -39.7343   -7.6262 C   0  0  0  0  0  0  0  0  0  0  0  0
  -21.0354  -40.0652   -8.3261 C   0  0  0  0  0  0  0  0  0  0  0  0
  -23.2356  -40.5301   -7.2403 O   0  0  0  0  0  0  0  0  0  0  0  0
  -24.1141  -41.4333   -7.7748 C   0  0  0  0  0  0  0  0  0  0  0  0
  -23.5784  -42.1040   -8.9856 C   0  0  0  0  0  0  0  0  0  0  0  0
  -22.7678  -43.3324   -8.7670 C   0  0  0  0  0  0  0  0  0  0  0  0
  -22.1127  -43.4727   -7.4396 C   0  0  0  0  0  0  0  0  0  0  0  0
  -20.6205  -44.4165   -7.4423 S   0  0  0  0  0  6  0  0  0  0  0  0
  -20.1447  -44.4844   -6.0027 O   0  0  0  0  0  0  0  0  0  0  0  0
  -21.0062  -45.8398   -7.8264 O   0  0  0  0  0  0  0  0  0  0  0  0
  -19.3810  -43.8286   -8.5298 C   0  0  0  0  0  0  0  0  0  0  0  0
  -18.1787  -43.2571   -7.7924 C   0  0  1  0  0  0  0  0  0  0  0  0
  -16.9756  -43.3324   -8.6497 C   0  0  0  0  0  0  0  0  0  0  0  0
  -18.5135  -41.9633   -7.2335 C   0  0  0  0  0  0  0  0  0  0  0  0
  -19.4012  -41.9931   -6.2999 O   0  0  0  0  0  0  0  0  0  0  0  0
  -18.0354  -40.6822   -7.5347 N   0  0  0  0  0  0  0  0  0  0  0  0
  1  2  1  0
  2  3  1  0
  3  4  1  0
  4  5  1  0
  5  6  1  0
  6  7  2  0
  6  8  1  0
  8  9  1  1
  8 10  1  0
 10 11  1  0
 11 12  1  1
 11 13  1  0
 13 14  1  1
 14 15  1  0
 15 16  2  0
 16 17  1  0
 17 18  2  0
 18 19  1  0
 19 20  2  0
 19 21  1  0
 21 22  1  0
 22 23  1  0
 23 24  1  0
 24 25  1  0
 25 26  1  0
 26 27  2  0
 26 28  2  0
 26 29  1  0
 29 30  1  0
 30 31  1  6
 30 32  1  0
 32 33  2  0
 32 34  1  0
 20 15  1  0
 34 13  1  0
M  END
$$$$
