
     RDKit          3D

 34 35  0  0  0  0  0  0  0  0999 V2000
  -13.4112  -33.8750  -12.1702 C   0  0  0  0  0  0  0  0  0  0  0  0
  -12.5409  -34.9956  -11.7234 C   0  0  0  0  0  0  0  0  0  0  0  0
  -13.0599  -36.3547  -12.0227 C   0  0  0  0  0  0  0  0  0  0  0  0
  -12.1668  -37.4916  -11.6820 C   0  0  0  0  0  0  0  0  0  0  0  0
  -12.5657  -38.2272  -10.5255 N   0  0  0  0  0  0  0  0  0  0  0  0
  -13.6179  -39.2071  -10.5809 C   0  0  0  0  0  0  0  0  0  0  0  0
  -14.1282  -39.4422  -11.6989 O   0  0  0  0  0  0  0  0  0  0  0  0
  -14.0149  -39.8574   -9.3224 C   0  0  2  0  0  0  0  0  0  0  0  0
  -12.9614  -40.8276   -8.8040 C   0  0  0  0  0  0  0  0  0  0  0  0
  -15.3802  -40.5066   -9.3619 C   0  0  0  0  0  0  0  0  0  0  0  0
  -16.4303  -39.5679   -8.8606 C   0  0  2  0  0  0  0  0  0  0  0  0
  -16.0040  -39.0796   -7.5953 O   0  0  0  0  0  0  0  0  0  0  0  0
  -17.7884  -40.1813   -8.6998 C   0  0  2  0  0  0  0  0  0  0  0  0
  -18.9289  -39.2205   -8.8060 C   0  0  0  0  0  0  0  0  0  0  0  0
  -20.0494  -39.3181   -7.8337 C   0  0  0  0  0  0  0  0  0  0  0  0
  -20.1968  -38.1271   -7.0953 C   0  0  0  0  0  0  0  0  0  0  0  0
  -21.1415  -37.9157   -6.1241 C   0  0  0  0  0  0  0  0  0  0  0  0
  -21.9750  -38.9861   -5.9042 C   0  0  0  0  0  0  0  0  0  0  0  0
  -21.8812  -40.1998   -6.6065 C   0  0  0  0  0  0  0  0  0  0  0  0
  -20.9070  -40.3529   -7.5745 C   0  0  0  0  0  0  0  0  0  0  0  0
  -22.8411  -41.0887   -6.1768 O   0  0  0  0  0  0  0  0  0  0  0  0
  -23.8173  -41.9010   -6.6871 C   0  0  0  0  0  0  0  0  0  0  0  0
  -23.5464  -42.3094   -8.0881 C   0  0  0  0  0  0  0  0  0  0  0  0
  -22.7176  -43.5298   -8.2812 C   0  0  0  0  0  0  0  0  0  0  0  0
  -21.8051  -43.9004   -7.1672 C   0  0  0  0  0  0  0  0  0  0  0  0
  -20.3523  -44.7770   -7.6556 S   0  0  0  0  0  6  0  0  0  0  0  0
  -19.5918  -45.1040   -6.3835 O   0  0  0  0  0  0  0  0  0  0  0  0
  -20.8193  -46.1122   -8.2226 O   0  0  0  0  0  0  0  0  0  0  0  0
  -19.3580  -43.9515   -8.8364 C   0  0  0  0  0  0  0  0  0  0  0  0
  -18.0257  -43.4930   -8.2614 C   0  0  1  0  0  0  0  0  0  0  0  0
  -17.0247  -43.3632   -9.3427 C   0  0  0  0  0  0  0  0  0  0  0  0
  -18.2290  -42.3419   -7.4058 C   0  0  0  0  0  0  0  0  0  0  0  0
  -18.9064  -42.5790   -6.3356 O   0  0  0  0  0  0  0  0  0  0  0  0
  -17.8132  -41.0119   -7.5429 N   0  0  0  0  0  0  0  0  0  0  0  0
  1  2  1  0
  2  3  1  0
  3  4  1  0
  4  5  1  0
  5  6  1  0
  6  7  2  0
  6  8  1  0
  8  9  1  6
  8 10  1  0
 10 11  1  0
 11 12  1  1
 11 13  1  0
 13 14  1  1
 14 15  1  0
 15 16  2  0
 16 17  1  0
 17 18  2  0
 18 19  1  0
 19 20  2  0
 19 21  1  0
 21 22  1  0
 22 23  1  0
 23 24  1  0
 24 25  1  0
 25 26  1  0
 26 27  2  0
 26 28  2  0
 26 29  1  0
 29 30  1  0
 30 31  1  6
 30 32  1  0
 32 33  2  0
 32 34  1  0
 20 15  1  0
 34 13  1  0
M  END
$$$$
