
     RDKit          3D

 34 35  0  0  0  0  0  0  0  0999 V2000
  -12.1617  -34.6592  -12.1071 C   0  0  0  0  0  0  0  0  0  0  0  0
  -11.1329  -35.6947  -11.8204 C   0  0  0  0  0  0  0  0  0  0  0  0
  -11.4172  -36.5571  -10.6450 C   0  0  0  0  0  0  0  0  0  0  0  0
  -12.4662  -37.5931  -10.8253 C   0  0  0  0  0  0  0  0  0  0  0  0
  -12.7199  -38.3823   -9.6632 N   0  0  0  0  0  0  0  0  0  0  0  0
  -13.6374  -39.4904   -9.6896 C   0  0  0  0  0  0  0  0  0  0  0  0
  -14.4360  -39.5545  -10.6507 O   0  0  0  0  0  0  0  0  0  0  0  0
  -13.5691  -40.4623   -8.5873 C   0  0  2  0  0  0  0  0  0  0  0  0
  -12.5946  -41.5993   -8.8655 C   0  0  0  0  0  0  0  0  0  0  0  0
  -14.9134  -40.9940   -8.1433 C   0  0  0  0  0  0  0  0  0  0  0  0
  -15.9651  -39.9367   -8.2495 C   0  0  2  0  0  0  0  0  0  0  0  0
  -15.9505  -39.1905   -7.0396 O   0  0  0  0  0  0  0  0  0  0  0  0
  -17.3530  -40.4587   -8.4687 C   0  0  2  0  0  0  0  0  0  0  0  0
  -18.3378  -39.4429   -8.9519 C   0  0  0  0  0  0  0  0  0  0  0  0
  -19.6972  -39.4107   -8.3505 C   0  0  0  0  0  0  0  0  0  0  0  0
  -19.9641  -38.1667   -7.7451 C   0  0  0  0  0  0  0  0  0  0  0  0
  -21.1323  -37.8369   -7.1073 C   0  0  0  0  0  0  0  0  0  0  0  0
  -22.0712  -38.8404   -7.0938 C   0  0  0  0  0  0  0  0  0  0  0  0
  -21.8677  -40.1016   -7.6795 C   0  0  0  0  0  0  0  0  0  0  0  0
  -20.6679  -40.3748   -8.3083 C   0  0  0  0  0  0  0  0  0  0  0  0
  -22.9748  -40.9031   -7.5115 O   0  0  0  0  0  0  0  0  0  0  0  0
  -23.8176  -41.6899   -8.2490 C   0  0  0  0  0  0  0  0  0  0  0  0
  -23.1813  -42.2056   -9.4867 C   0  0  0  0  0  0  0  0  0  0  0  0
  -22.4258  -43.4819   -9.3691 C   0  0  0  0  0  0  0  0  0  0  0  0
  -21.9081  -43.8296   -8.0193 C   0  0  0  0  0  0  0  0  0  0  0  0
  -20.4458  -44.8191   -8.0152 S   0  0  0  0  0  6  0  0  0  0  0  0
  -20.1160  -45.1039   -6.5614 O   0  0  0  0  0  0  0  0  0  0  0  0
  -20.8256  -46.1599   -8.6318 O   0  0  0  0  0  0  0  0  0  0  0  0
  -19.0916  -44.1328   -8.8867 C   0  0  0  0  0  0  0  0  0  0  0  0
  -17.9545  -43.7146   -7.9659 C   0  0  1  0  0  0  0  0  0  0  0  0
  -16.6750  -43.7151   -8.7080 C   0  0  0  0  0  0  0  0  0  0  0  0
  -18.3119  -42.4993   -7.2632 C   0  0  0  0  0  0  0  0  0  0  0  0
  -19.2876  -42.6251   -6.4311 O   0  0  0  0  0  0  0  0  0  0  0  0
  -17.7760  -41.2076   -7.3333 N   0  0  0  0  0  0  0  0  0  0  0  0
  1  2  1  0
  2  3  1  0
  3  4  1  0
  4  5  1  0
  5  6  1  0
  6  7  2  0
  6  8  1  0
  8  9  1  6
  8 10  1  0
 10 11  1  0
 11 12  1  1
 11 13  1  0
 13 14  1  1
 14 15  1  0
 15 16  2  0
 16 17  1  0
 17 18  2  0
 18 19  1  0
 19 20  2  0
 19 21  1  0
 21 22  1  0
 22 23  1  0
 23 24  1  0
 24 25  1  0
 25 26  1  0
 26 27  2  0
 26 28  2  0
 26 29  1  0
 29 30  1  0
 30 31  1  6
 30 32  1  0
 32 33  2  0
 32 34  1  0
 20 15  1  0
 34 13  1  0
M  END
$$$$
