
     RDKit          3D

 34 35  0  0  0  0  0  0  0  0999 V2000
  -16.8430  -31.8405  -10.7250 C   0  0  0  0  0  0  0  0  0  0  0  0
  -15.7538  -32.5768  -10.0290 C   0  0  0  0  0  0  0  0  0  0  0  0
  -15.4789  -33.9390  -10.5531 C   0  0  0  0  0  0  0  0  0  0  0  0
  -16.6569  -34.7204  -11.0093 C   0  0  0  0  0  0  0  0  0  0  0  0
  -16.5111  -36.1345  -10.8799 N   0  0  0  0  0  0  0  0  0  0  0  0
  -17.6214  -36.9777  -10.5243 C   0  0  0  0  0  0  0  0  0  0  0  0
  -18.7716  -36.5484  -10.7658 O   0  0  0  0  0  0  0  0  0  0  0  0
  -17.3226  -38.2779   -9.9041 C   0  0  2  0  0  0  0  0  0  0  0  0
  -17.8727  -39.4513  -10.7043 C   0  0  0  0  0  0  0  0  0  0  0  0
  -17.7199  -38.3780   -8.4483 C   0  0  0  0  0  0  0  0  0  0  0  0
  -16.6567  -39.0652   -7.6528 C   0  0  2  0  0  0  0  0  0  0  0  0
  -15.4223  -38.8821   -8.3337 O   0  0  0  0  0  0  0  0  0  0  0  0
  -16.8775  -40.5347   -7.4568 C   0  0  2  0  0  0  0  0  0  0  0  0
  -15.6346  -41.3312   -7.2202 C   0  0  0  0  0  0  0  0  0  0  0  0
  -15.4658  -42.6325   -7.9192 C   0  0  0  0  0  0  0  0  0  0  0  0
  -14.3182  -42.6338   -8.7368 C   0  0  0  0  0  0  0  0  0  0  0  0
  -13.9015  -43.6901   -9.5055 C   0  0  0  0  0  0  0  0  0  0  0  0
  -14.7089  -44.7994   -9.4266 C   0  0  0  0  0  0  0  0  0  0  0  0
  -15.8653  -44.8626   -8.6304 C   0  0  0  0  0  0  0  0  0  0  0  0
  -16.2343  -43.7644   -7.8773 C   0  0  0  0  0  0  0  0  0  0  0  0
  -16.4738  -46.0922   -8.7488 O   0  0  0  0  0  0  0  0  0  0  0  0
  -16.9582  -47.0995   -7.9589 C   0  0  0  0  0  0  0  0  0  0  0  0
  -17.3564  -46.6265   -6.6096 C   0  0  0  0  0  0  0  0  0  0  0  0
  -18.7476  -46.1200   -6.4615 C   0  0  0  0  0  0  0  0  0  0  0  0
  -19.4103  -45.6182   -7.6943 C   0  0  0  0  0  0  0  0  0  0  0  0
  -20.6297  -44.3693   -7.4280 S   0  0  0  0  0  6  0  0  0  0  0  0
  -21.2162  -44.0354   -8.7874 O   0  0  0  0  0  0  0  0  0  0  0  0
  -21.7541  -45.0212   -6.6323 O   0  0  0  0  0  0  0  0  0  0  0  0
  -20.0547  -42.9498   -6.5801 C   0  0  0  0  0  0  0  0  0  0  0  0
  -20.0116  -41.7151   -7.4685 C   0  0  1  0  0  0  0  0  0  0  0  0
  -20.1110  -40.4923   -6.6421 C   0  0  0  0  0  0  0  0  0  0  0  0
  -18.8925  -41.8063   -8.3839 C   0  0  0  0  0  0  0  0  0  0  0  0
  -18.9850  -42.7508   -9.2555 O   0  0  0  0  0  0  0  0  0  0  0  0
  -17.7244  -41.0407   -8.4842 N   0  0  0  0  0  0  0  0  0  0  0  0
  1  2  1  0
  2  3  1  0
  3  4  1  0
  4  5  1  0
  5  6  1  0
  6  7  2  0
  6  8  1  0
  8  9  1  6
  8 10  1  0
 10 11  1  0
 11 12  1  6
 11 13  1  0
 13 14  1  6
 14 15  1  0
 15 16  2  0
 16 17  1  0
 17 18  2  0
 18 19  1  0
 19 20  2  0
 19 21  1  0
 21 22  1  0
 22 23  1  0
 23 24  1  0
 24 25  1  0
 25 26  1  0
 26 27  2  0
 26 28  2  0
 26 29  1  0
 29 30  1  0
 30 31  1  1
 30 32  1  0
 32 33  2  0
 32 34  1  0
 20 15  1  0
 34 13  1  0
M  END
$$$$
