
     RDKit          3D

 34 35  0  0  0  0  0  0  0  0999 V2000
  -23.9151  -41.9165   -4.1823 C   0  0  0  0  0  0  0  0  0  0  0  0
  -22.9299  -41.0655   -3.4625 C   0  0  0  0  0  0  0  0  0  0  0  0
  -21.5753  -41.0182   -4.0699 C   0  0  0  0  0  0  0  0  0  0  0  0
  -21.5118  -41.1272   -5.5499 C   0  0  0  0  0  0  0  0  0  0  0  0
  -20.8407  -40.0430   -6.1915 N   0  0  0  0  0  0  0  0  0  0  0  0
  -19.7778  -40.2665   -7.1353 C   0  0  0  0  0  0  0  0  0  0  0  0
  -19.5066  -41.4525   -7.4275 O   0  0  0  0  0  0  0  0  0  0  0  0
  -19.0903  -39.0873   -7.6841 C   0  0  2  0  0  0  0  0  0  0  0  0
  -20.0527  -38.0761   -8.2932 C   0  0  0  0  0  0  0  0  0  0  0  0
  -17.9657  -39.4131   -8.6413 C   0  0  0  0  0  0  0  0  0  0  0  0
  -16.6892  -39.6520   -7.9006 C   0  0  2  0  0  0  0  0  0  0  0  0
  -16.3565  -38.4515   -7.2157 O   0  0  0  0  0  0  0  0  0  0  0  0
  -15.5298  -40.0411   -8.7672 C   0  0  2  0  0  0  0  0  0  0  0  0
  -14.3032  -39.2051   -8.5890 C   0  0  0  0  0  0  0  0  0  0  0  0
  -13.5528  -38.7569   -9.7918 C   0  0  0  0  0  0  0  0  0  0  0  0
  -13.4936  -37.3512   -9.8686 C   0  0  0  0  0  0  0  0  0  0  0  0
  -12.8714  -36.6435  -10.8648 C   0  0  0  0  0  0  0  0  0  0  0  0
  -12.2812  -37.4251  -11.8289 C   0  0  0  0  0  0  0  0  0  0  0  0
  -12.3034  -38.8302  -11.8099 C   0  0  0  0  0  0  0  0  0  0  0  0
  -12.9474  -39.4870  -10.7787 C   0  0  0  0  0  0  0  0  0  0  0  0
  -11.6357  -39.3446  -12.8988 O   0  0  0  0  0  0  0  0  0  0  0  0
  -10.6568  -40.2557  -13.1904 C   0  0  0  0  0  0  0  0  0  0  0  0
  -10.5356  -41.3146  -12.1575 C   0  0  0  0  0  0  0  0  0  0  0  0
  -11.4082  -42.5089  -12.3178 C   0  0  0  0  0  0  0  0  0  0  0  0
  -12.6546  -42.3242  -13.1071 C   0  0  0  0  0  0  0  0  0  0  0  0
  -13.9849  -43.3953  -12.6591 S   0  0  0  0  0  6  0  0  0  0  0  0
  -15.1306  -43.0874  -13.6057 O   0  0  0  0  0  0  0  0  0  0  0  0
  -13.5334  -44.8125  -12.9906 O   0  0  0  0  0  0  0  0  0  0  0  0
  -14.4640  -43.3083  -10.9776 C   0  0  0  0  0  0  0  0  0  0  0  0
  -15.8420  -42.6894  -10.7932 C   0  0  1  0  0  0  0  0  0  0  0  0
  -16.4424  -43.1578   -9.5251 C   0  0  0  0  0  0  0  0  0  0  0  0
  -15.7706  -41.2579  -11.0029 C   0  0  0  0  0  0  0  0  0  0  0  0
  -15.4856  -40.9035  -12.2085 O   0  0  0  0  0  0  0  0  0  0  0  0
  -15.9598  -40.1902  -10.1170 N   0  0  0  0  0  0  0  0  0  0  0  0
  1  2  1  0
  2  3  1  0
  3  4  1  0
  4  5  1  0
  5  6  1  0
  6  7  2  0
  6  8  1  0
  8  9  1  6
  8 10  1  0
 10 11  1  0
 11 12  1  6
 11 13  1  0
 13 14  1  6
 14 15  1  0
 15 16  2  0
 16 17  1  0
 17 18  2  0
 18 19  1  0
 19 20  2  0
 19 21  1  0
 21 22  1  0
 22 23  1  0
 23 24  1  0
 24 25  1  0
 25 26  1  0
 26 27  2  0
 26 28  2  0
 26 29  1  0
 29 30  1  0
 30 31  1  1
 30 32  1  0
 32 33  2  0
 32 34  1  0
 20 15  1  0
 34 13  1  0
M  END
$$$$
