
     RDKit          3D

 34 35  0  0  0  0  0  0  0  0999 V2000
  -11.2074  -35.4374  -13.8759 C   0  0  0  0  0  0  0  0  0  0  0  0
  -11.2632  -35.9910  -12.4963 C   0  0  0  0  0  0  0  0  0  0  0  0
  -12.5900  -35.9021  -11.8347 C   0  0  0  0  0  0  0  0  0  0  0  0
  -13.4385  -37.1200  -11.8918 C   0  0  0  0  0  0  0  0  0  0  0  0
  -13.4086  -37.9141  -10.7059 N   0  0  0  0  0  0  0  0  0  0  0  0
  -14.1359  -39.1518  -10.6085 C   0  0  0  0  0  0  0  0  0  0  0  0
  -14.8985  -39.4481  -11.5553 O   0  0  0  0  0  0  0  0  0  0  0  0
  -13.9301  -39.9741   -9.4061 C   0  0  2  0  0  0  0  0  0  0  0  0
  -12.7424  -40.9187   -9.5359 C   0  0  0  0  0  0  0  0  0  0  0  0
  -15.1645  -40.7128   -8.9396 C   0  0  0  0  0  0  0  0  0  0  0  0
  -16.2951  -39.7635   -8.7034 C   0  0  2  0  0  0  0  0  0  0  0  0
  -16.0031  -39.0306   -7.5208 O   0  0  0  0  0  0  0  0  0  0  0  0
  -17.6335  -40.4178   -8.5381 C   0  0  2  0  0  0  0  0  0  0  0  0
  -18.8039  -39.4964   -8.6661 C   0  0  0  0  0  0  0  0  0  0  0  0
  -19.9255  -39.6137   -7.6972 C   0  0  0  0  0  0  0  0  0  0  0  0
  -20.1152  -38.4157   -6.9801 C   0  0  0  0  0  0  0  0  0  0  0  0
  -21.0710  -38.2185   -6.0169 C   0  0  0  0  0  0  0  0  0  0  0  0
  -21.8706  -39.3114   -5.7824 C   0  0  0  0  0  0  0  0  0  0  0  0
  -21.7340  -40.5333   -6.4632 C   0  0  0  0  0  0  0  0  0  0  0  0
  -20.7505  -40.6712   -7.4241 C   0  0  0  0  0  0  0  0  0  0  0  0
  -22.6668  -41.4454   -6.0225 O   0  0  0  0  0  0  0  0  0  0  0  0
  -23.6136  -42.2975   -6.5232 C   0  0  0  0  0  0  0  0  0  0  0  0
  -23.3226  -42.7208   -7.9157 C   0  0  0  0  0  0  0  0  0  0  0  0
  -22.4537  -43.9167   -8.0840 C   0  0  0  0  0  0  0  0  0  0  0  0
  -21.5354  -44.2385   -6.9597 C   0  0  0  0  0  0  0  0  0  0  0  0
  -20.0526  -45.0757   -7.4264 S   0  0  0  0  0  6  0  0  0  0  0  0
  -19.2883  -45.3561   -6.1454 O   0  0  0  0  0  0  0  0  0  0  0  0
  -20.4732  -46.4348   -7.9723 O   0  0  0  0  0  0  0  0  0  0  0  0
  -19.0795  -44.2387   -8.6168 C   0  0  0  0  0  0  0  0  0  0  0  0
  -17.7657  -43.7275   -8.0438 C   0  0  1  0  0  0  0  0  0  0  0  0
  -16.7640  -43.5838   -9.1227 C   0  0  0  0  0  0  0  0  0  0  0  0
  -18.0104  -42.5691   -7.2091 C   0  0  0  0  0  0  0  0  0  0  0  0
  -18.6852  -42.8097   -6.1380 O   0  0  0  0  0  0  0  0  0  0  0  0
  -17.6372  -41.2289   -7.3672 N   0  0  0  0  0  0  0  0  0  0  0  0
  1  2  1  0
  2  3  1  0
  3  4  1  0
  4  5  1  0
  5  6  1  0
  6  7  2  0
  6  8  1  0
  8  9  1  6
  8 10  1  0
 10 11  1  0
 11 12  1  1
 11 13  1  0
 13 14  1  1
 14 15  1  0
 15 16  2  0
 16 17  1  0
 17 18  2  0
 18 19  1  0
 19 20  2  0
 19 21  1  0
 21 22  1  0
 22 23  1  0
 23 24  1  0
 24 25  1  0
 25 26  1  0
 26 27  2  0
 26 28  2  0
 26 29  1  0
 29 30  1  0
 30 31  1  6
 30 32  1  0
 32 33  2  0
 32 34  1  0
 20 15  1  0
 34 13  1  0
M  END
$$$$
