
     RDKit          3D

 34 35  0  0  0  0  0  0  0  0999 V2000
  -11.2881  -35.5573  -12.2606 C   0  0  0  0  0  0  0  0  0  0  0  0
  -11.6451  -36.7373  -13.0932 C   0  0  0  0  0  0  0  0  0  0  0  0
  -12.0955  -37.9316  -12.3337 C   0  0  0  0  0  0  0  0  0  0  0  0
  -13.3450  -37.7793  -11.5452 C   0  0  0  0  0  0  0  0  0  0  0  0
  -13.3704  -38.5306  -10.3317 N   0  0  0  0  0  0  0  0  0  0  0  0
  -14.0745  -39.7815  -10.2337 C   0  0  0  0  0  0  0  0  0  0  0  0
  -14.6668  -40.1912  -11.2570 O   0  0  0  0  0  0  0  0  0  0  0  0
  -14.0467  -40.4835   -8.9411 C   0  0  2  0  0  0  0  0  0  0  0  0
  -12.9313  -41.5173   -8.8574 C   0  0  0  0  0  0  0  0  0  0  0  0
  -15.3738  -41.0802   -8.5291 C   0  0  0  0  0  0  0  0  0  0  0  0
  -16.4154  -40.0165   -8.3913 C   0  0  2  0  0  0  0  0  0  0  0  0
  -16.1441  -39.2995   -7.1941 O   0  0  0  0  0  0  0  0  0  0  0  0
  -17.8231  -40.5277   -8.3300 C   0  0  2  0  0  0  0  0  0  0  0  0
  -18.8686  -39.5418   -8.7425 C   0  0  0  0  0  0  0  0  0  0  0  0
  -20.1107  -39.4243   -7.9338 C   0  0  0  0  0  0  0  0  0  0  0  0
  -20.2682  -38.1232   -7.4164 C   0  0  0  0  0  0  0  0  0  0  0  0
  -21.3142  -37.7101   -6.6319 C   0  0  0  0  0  0  0  0  0  0  0  0
  -22.2434  -38.6879   -6.3686 C   0  0  0  0  0  0  0  0  0  0  0  0
  -22.1453  -40.0029   -6.8546 C   0  0  0  0  0  0  0  0  0  0  0  0
  -21.0663  -40.3595   -7.6409 C   0  0  0  0  0  0  0  0  0  0  0  0
  -23.2139  -40.7615   -6.4318 O   0  0  0  0  0  0  0  0  0  0  0  0
  -24.1704  -41.5967   -6.9425 C   0  0  0  0  0  0  0  0  0  0  0  0
  -23.7485  -42.2405   -8.2115 C   0  0  0  0  0  0  0  0  0  0  0  0
  -22.9905  -43.5155   -8.0954 C   0  0  0  0  0  0  0  0  0  0  0  0
  -22.2602  -43.7446   -6.8206 C   0  0  0  0  0  0  0  0  0  0  0  0
  -20.8222  -44.7597   -6.9588 S   0  0  0  0  0  6  0  0  0  0  0  0
  -20.2597  -44.9124   -5.5574 O   0  0  0  0  0  0  0  0  0  0  0  0
  -21.3049  -46.1446   -7.3726 O   0  0  0  0  0  0  0  0  0  0  0  0
  -19.6258  -44.1876   -8.1015 C   0  0  0  0  0  0  0  0  0  0  0  0
  -18.3509  -43.7080   -7.4230 C   0  0  1  0  0  0  0  0  0  0  0  0
  -17.2104  -43.8057   -8.3600 C   0  0  0  0  0  0  0  0  0  0  0  0
  -18.5818  -42.4244   -6.7926 C   0  0  0  0  0  0  0  0  0  0  0  0
  -19.4084  -42.4503   -5.8045 O   0  0  0  0  0  0  0  0  0  0  0  0
  -18.0580  -41.1567   -7.0738 N   0  0  0  0  0  0  0  0  0  0  0  0
  1  2  1  0
  2  3  1  0
  3  4  1  0
  4  5  1  0
  5  6  1  0
  6  7  2  0
  6  8  1  0
  8  9  1  6
  8 10  1  0
 10 11  1  0
 11 12  1  1
 11 13  1  0
 13 14  1  1
 14 15  1  0
 15 16  2  0
 16 17  1  0
 17 18  2  0
 18 19  1  0
 19 20  2  0
 19 21  1  0
 21 22  1  0
 22 23  1  0
 23 24  1  0
 24 25  1  0
 25 26  1  0
 26 27  2  0
 26 28  2  0
 26 29  1  0
 29 30  1  0
 30 31  1  6
 30 32  1  0
 32 33  2  0
 32 34  1  0
 20 15  1  0
 34 13  1  0
M  END
$$$$
