
     RDKit          3D

 34 35  0  0  0  0  0  0  0  0999 V2000
  -13.8482  -35.5775  -14.2536 C   0  0  0  0  0  0  0  0  0  0  0  0
  -12.6138  -35.4963  -13.4275 C   0  0  0  0  0  0  0  0  0  0  0  0
  -12.3157  -36.7061  -12.6190 C   0  0  0  0  0  0  0  0  0  0  0  0
  -13.4759  -37.5604  -12.2579 C   0  0  0  0  0  0  0  0  0  0  0  0
  -13.1539  -38.6622  -11.4094 N   0  0  0  0  0  0  0  0  0  0  0  0
  -14.1634  -39.5754  -10.9433 C   0  0  0  0  0  0  0  0  0  0  0  0
  -14.9034  -40.1040  -11.8028 O   0  0  0  0  0  0  0  0  0  0  0  0
  -14.2508  -39.8184   -9.4950 C   0  0  2  0  0  0  0  0  0  0  0  0
  -13.0478  -40.5790   -8.9527 C   0  0  0  0  0  0  0  0  0  0  0  0
  -15.5460  -40.4595   -9.0494 C   0  0  0  0  0  0  0  0  0  0  0  0
  -16.6759  -39.4833   -9.1238 C   0  0  2  0  0  0  0  0  0  0  0  0
  -16.3908  -38.4236   -8.2201 O   0  0  0  0  0  0  0  0  0  0  0  0
  -18.0171  -40.0555   -8.7766 C   0  0  2  0  0  0  0  0  0  0  0  0
  -19.1494  -39.0806   -8.8293 C   0  0  0  0  0  0  0  0  0  0  0  0
  -20.1603  -39.0871   -7.7391 C   0  0  0  0  0  0  0  0  0  0  0  0
  -20.2116  -37.8450   -7.0758 C   0  0  0  0  0  0  0  0  0  0  0  0
  -21.0436  -37.5470   -6.0274 C   0  0  0  0  0  0  0  0  0  0  0  0
  -21.8630  -38.5819   -5.6448 C   0  0  0  0  0  0  0  0  0  0  0  0
  -21.8615  -39.8431   -6.2649 C   0  0  0  0  0  0  0  0  0  0  0  0
  -20.9989  -40.0833   -7.3174 C   0  0  0  0  0  0  0  0  0  0  0  0
  -22.7815  -40.6798   -5.6736 O   0  0  0  0  0  0  0  0  0  0  0  0
  -23.8177  -41.5048   -6.0184 C   0  0  0  0  0  0  0  0  0  0  0  0
  -23.7043  -42.0149   -7.4076 C   0  0  0  0  0  0  0  0  0  0  0  0
  -22.9174  -43.2629   -7.6002 C   0  0  0  0  0  0  0  0  0  0  0  0
  -21.8957  -43.5745   -6.5658 C   0  0  0  0  0  0  0  0  0  0  0  0
  -20.5156  -44.5131   -7.1420 S   0  0  0  0  0  6  0  0  0  0  0  0
  -19.6275  -44.7669   -5.9377 O   0  0  0  0  0  0  0  0  0  0  0  0
  -21.0587  -45.8742   -7.5598 O   0  0  0  0  0  0  0  0  0  0  0  0
  -19.6428  -43.7924   -8.4773 C   0  0  0  0  0  0  0  0  0  0  0  0
  -18.2504  -43.3232   -8.0810 C   0  0  1  0  0  0  0  0  0  0  0  0
  -17.3696  -43.2897   -9.2689 C   0  0  0  0  0  0  0  0  0  0  0  0
  -18.3452  -42.1115   -7.2927 C   0  0  0  0  0  0  0  0  0  0  0  0
  -18.9070  -42.2596   -6.1426 O   0  0  0  0  0  0  0  0  0  0  0  0
  -17.9287  -40.8032   -7.5675 N   0  0  0  0  0  0  0  0  0  0  0  0
  1  2  1  0
  2  3  1  0
  3  4  1  0
  4  5  1  0
  5  6  1  0
  6  7  2  0
  6  8  1  0
  8  9  1  6
  8 10  1  0
 10 11  1  0
 11 12  1  1
 11 13  1  0
 13 14  1  1
 14 15  1  0
 15 16  2  0
 16 17  1  0
 17 18  2  0
 18 19  1  0
 19 20  2  0
 19 21  1  0
 21 22  1  0
 22 23  1  0
 23 24  1  0
 24 25  1  0
 25 26  1  0
 26 27  2  0
 26 28  2  0
 26 29  1  0
 29 30  1  0
 30 31  1  6
 30 32  1  0
 32 33  2  0
 32 34  1  0
 20 15  1  0
 34 13  1  0
M  END
$$$$
