
     RDKit          3D

 34 35  0  0  0  0  0  0  0  0999 V2000
  -13.4629  -35.6511  -13.7390 C   0  0  0  0  0  0  0  0  0  0  0  0
  -12.9670  -36.9868  -13.3112 C   0  0  0  0  0  0  0  0  0  0  0  0
  -12.3624  -37.0299  -11.9553 C   0  0  0  0  0  0  0  0  0  0  0  0
  -11.8548  -38.3499  -11.5011 C   0  0  0  0  0  0  0  0  0  0  0  0
  -12.4343  -38.8158  -10.2826 N   0  0  0  0  0  0  0  0  0  0  0  0
  -13.5957  -39.6652  -10.2762 C   0  0  0  0  0  0  0  0  0  0  0  0
  -14.1916  -39.8349  -11.3633 O   0  0  0  0  0  0  0  0  0  0  0  0
  -13.9955  -40.2687   -8.9955 C   0  0  2  0  0  0  0  0  0  0  0  0
  -12.9620  -41.2512   -8.4604 C   0  0  0  0  0  0  0  0  0  0  0  0
  -15.3776  -40.8826   -9.0023 C   0  0  0  0  0  0  0  0  0  0  0  0
  -16.4285  -39.8258   -9.1207 C   0  0  2  0  0  0  0  0  0  0  0  0
  -16.1606  -38.8384   -8.1336 O   0  0  0  0  0  0  0  0  0  0  0  0
  -17.8313  -40.3186   -8.9308 C   0  0  2  0  0  0  0  0  0  0  0  0
  -18.8878  -39.2667   -9.0431 C   0  0  0  0  0  0  0  0  0  0  0  0
  -19.9990  -39.2498   -8.0554 C   0  0  0  0  0  0  0  0  0  0  0  0
  -20.0350  -38.0364   -7.3401 C   0  0  0  0  0  0  0  0  0  0  0  0
  -20.9449  -37.7267   -6.3621 C   0  0  0  0  0  0  0  0  0  0  0  0
  -21.8628  -38.7180   -6.1101 C   0  0  0  0  0  0  0  0  0  0  0  0
  -21.8817  -39.9488   -6.7882 C   0  0  0  0  0  0  0  0  0  0  0  0
  -20.9374  -40.2029   -7.7646 C   0  0  0  0  0  0  0  0  0  0  0  0
  -22.9073  -40.7446   -6.3286 O   0  0  0  0  0  0  0  0  0  0  0  0
  -23.9556  -41.4809   -6.8102 C   0  0  0  0  0  0  0  0  0  0  0  0
  -23.7396  -41.9381   -8.2056 C   0  0  0  0  0  0  0  0  0  0  0  0
  -23.0197  -43.2280   -8.3834 C   0  0  0  0  0  0  0  0  0  0  0  0
  -22.1266  -43.6528   -7.2732 C   0  0  0  0  0  0  0  0  0  0  0  0
  -20.7600  -44.6589   -7.7608 S   0  0  0  0  0  6  0  0  0  0  0  0
  -20.0124  -45.0242   -6.4916 O   0  0  0  0  0  0  0  0  0  0  0  0
  -21.3460  -45.9605   -8.2944 O   0  0  0  0  0  0  0  0  0  0  0  0
  -19.7158  -43.9439   -8.9704 C   0  0  0  0  0  0  0  0  0  0  0  0
  -18.3417  -43.5890   -8.4212 C   0  0  1  0  0  0  0  0  0  0  0  0
  -17.3483  -43.5658   -9.5170 C   0  0  0  0  0  0  0  0  0  0  0  0
  -18.4351  -42.4082   -7.5871 C   0  0  0  0  0  0  0  0  0  0  0  0
  -19.1153  -42.5660   -6.5042 O   0  0  0  0  0  0  0  0  0  0  0  0
  -17.9102  -41.1212   -7.7568 N   0  0  0  0  0  0  0  0  0  0  0  0
  1  2  1  0
  2  3  1  0
  3  4  1  0
  4  5  1  0
  5  6  1  0
  6  7  2  0
  6  8  1  0
  8  9  1  6
  8 10  1  0
 10 11  1  0
 11 12  1  1
 11 13  1  0
 13 14  1  1
 14 15  1  0
 15 16  2  0
 16 17  1  0
 17 18  2  0
 18 19  1  0
 19 20  2  0
 19 21  1  0
 21 22  1  0
 22 23  1  0
 23 24  1  0
 24 25  1  0
 25 26  1  0
 26 27  2  0
 26 28  2  0
 26 29  1  0
 29 30  1  0
 30 31  1  6
 30 32  1  0
 32 33  2  0
 32 34  1  0
 20 15  1  0
 34 13  1  0
M  END
$$$$
