
     RDKit          3D

 34 35  0  0  0  0  0  0  0  0999 V2000
  -12.0530  -33.9681  -12.6856 C   0  0  0  0  0  0  0  0  0  0  0  0
  -13.1831  -34.9197  -12.5113 C   0  0  0  0  0  0  0  0  0  0  0  0
  -12.7878  -36.3345  -12.2926 C   0  0  0  0  0  0  0  0  0  0  0  0
  -13.8950  -37.3112  -12.1301 C   0  0  0  0  0  0  0  0  0  0  0  0
  -13.9455  -37.9356  -10.8474 N   0  0  0  0  0  0  0  0  0  0  0  0
  -14.4114  -39.2871  -10.6843 C   0  0  0  0  0  0  0  0  0  0  0  0
  -14.9000  -39.8533  -11.6875 O   0  0  0  0  0  0  0  0  0  0  0  0
  -14.2799  -39.9008   -9.3538 C   0  0  2  0  0  0  0  0  0  0  0  0
  -13.1014  -40.8614   -9.2632 C   0  0  0  0  0  0  0  0  0  0  0  0
  -15.5475  -40.5445   -8.8381 C   0  0  0  0  0  0  0  0  0  0  0  0
  -16.7027  -39.6009   -8.9399 C   0  0  2  0  0  0  0  0  0  0  0  0
  -16.4795  -38.5443   -8.0154 O   0  0  0  0  0  0  0  0  0  0  0  0
  -18.0372  -40.2161   -8.6446 C   0  0  2  0  0  0  0  0  0  0  0  0
  -19.2105  -39.3250   -8.8986 C   0  0  0  0  0  0  0  0  0  0  0  0
  -20.3131  -39.2799   -7.9022 C   0  0  0  0  0  0  0  0  0  0  0  0
  -20.4896  -37.9805   -7.3866 C   0  0  0  0  0  0  0  0  0  0  0  0
  -21.4268  -37.6265   -6.4504 C   0  0  0  0  0  0  0  0  0  0  0  0
  -22.2210  -38.6646   -6.0255 C   0  0  0  0  0  0  0  0  0  0  0  0
  -22.0968  -39.9814   -6.5004 C   0  0  0  0  0  0  0  0  0  0  0  0
  -21.1320  -40.2767   -7.4446 C   0  0  0  0  0  0  0  0  0  0  0  0
  -23.0203  -40.8072   -5.8991 O   0  0  0  0  0  0  0  0  0  0  0  0
  -23.9761  -41.7271   -6.2358 C   0  0  0  0  0  0  0  0  0  0  0  0
  -23.7118  -42.3725   -7.5460 C   0  0  0  0  0  0  0  0  0  0  0  0
  -22.8456  -43.5821   -7.5336 C   0  0  0  0  0  0  0  0  0  0  0  0
  -21.9055  -43.7185   -6.3898 C   0  0  0  0  0  0  0  0  0  0  0  0
  -20.4314  -44.6244   -6.7420 S   0  0  0  0  0  6  0  0  0  0  0  0
  -19.6423  -44.6940   -5.4473 O   0  0  0  0  0  0  0  0  0  0  0  0
  -20.8617  -46.0532   -7.0508 O   0  0  0  0  0  0  0  0  0  0  0  0
  -19.4820  -43.9950   -8.0714 C   0  0  0  0  0  0  0  0  0  0  0  0
  -18.1577  -43.4006   -7.6147 C   0  0  1  0  0  0  0  0  0  0  0  0
  -17.1771  -43.4372   -8.7216 C   0  0  0  0  0  0  0  0  0  0  0  0
  -18.3870  -42.1210   -6.9755 C   0  0  0  0  0  0  0  0  0  0  0  0
  -19.0408  -42.1820   -5.8668 O   0  0  0  0  0  0  0  0  0  0  0  0
  -18.0178  -40.8254   -7.3572 N   0  0  0  0  0  0  0  0  0  0  0  0
  1  2  1  0
  2  3  1  0
  3  4  1  0
  4  5  1  0
  5  6  1  0
  6  7  2  0
  6  8  1  0
  8  9  1  6
  8 10  1  0
 10 11  1  0
 11 12  1  1
 11 13  1  0
 13 14  1  1
 14 15  1  0
 15 16  2  0
 16 17  1  0
 17 18  2  0
 18 19  1  0
 19 20  2  0
 19 21  1  0
 21 22  1  0
 22 23  1  0
 23 24  1  0
 24 25  1  0
 25 26  1  0
 26 27  2  0
 26 28  2  0
 26 29  1  0
 29 30  1  0
 30 31  1  6
 30 32  1  0
 32 33  2  0
 32 34  1  0
 20 15  1  0
 34 13  1  0
M  END
$$$$
