
     RDKit          3D

 34 35  0  0  0  0  0  0  0  0999 V2000
  -12.5681  -35.7337  -14.7295 C   0  0  0  0  0  0  0  0  0  0  0  0
  -11.8824  -36.5873  -13.7224 C   0  0  0  0  0  0  0  0  0  0  0  0
  -12.7514  -37.5816  -13.0426 C   0  0  0  0  0  0  0  0  0  0  0  0
  -12.1194  -38.3798  -11.9610 C   0  0  0  0  0  0  0  0  0  0  0  0
  -12.9812  -39.3488  -11.3644 N   0  0  0  0  0  0  0  0  0  0  0  0
  -14.0084  -38.9712  -10.4303 C   0  0  0  0  0  0  0  0  0  0  0  0
  -14.9579  -38.2820  -10.8655 O   0  0  0  0  0  0  0  0  0  0  0  0
  -13.8661  -39.4213   -9.0370 C   0  0  2  0  0  0  0  0  0  0  0  0
  -12.6253  -40.2775   -8.8195 C   0  0  0  0  0  0  0  0  0  0  0  0
  -15.0973  -40.0941   -8.4723 C   0  0  0  0  0  0  0  0  0  0  0  0
  -16.2939  -39.2070   -8.5998 C   0  0  2  0  0  0  0  0  0  0  0  0
  -16.2444  -38.2607   -7.5401 O   0  0  0  0  0  0  0  0  0  0  0  0
  -17.6093  -39.9227   -8.5361 C   0  0  2  0  0  0  0  0  0  0  0  0
  -18.7990  -39.0833   -8.8757 C   0  0  0  0  0  0  0  0  0  0  0  0
  -20.0219  -39.1895   -8.0367 C   0  0  0  0  0  0  0  0  0  0  0  0
  -20.3537  -37.9522   -7.4498 C   0  0  0  0  0  0  0  0  0  0  0  0
  -21.4267  -37.7362   -6.6237 C   0  0  0  0  0  0  0  0  0  0  0  0
  -22.1949  -38.8520   -6.3922 C   0  0  0  0  0  0  0  0  0  0  0  0
  -21.9189  -40.1133   -6.9473 C   0  0  0  0  0  0  0  0  0  0  0  0
  -20.8217  -40.2685   -7.7729 C   0  0  0  0  0  0  0  0  0  0  0  0
  -22.8527  -41.0407   -6.5423 O   0  0  0  0  0  0  0  0  0  0  0  0
  -23.6904  -41.9825   -7.0757 C   0  0  0  0  0  0  0  0  0  0  0  0
  -23.2143  -42.4954   -8.3846 C   0  0  0  0  0  0  0  0  0  0  0  0
  -22.2749  -43.6486   -8.3499 C   0  0  0  0  0  0  0  0  0  0  0  0
  -21.4837  -43.8282   -7.1039 C   0  0  0  0  0  0  0  0  0  0  0  0
  -19.9169  -44.6120   -7.3238 S   0  0  0  0  0  6  0  0  0  0  0  0
  -19.2993  -44.7471   -5.9440 O   0  0  0  0  0  0  0  0  0  0  0  0
  -20.2030  -46.0316   -7.7984 O   0  0  0  0  0  0  0  0  0  0  0  0
  -18.8495  -43.8153   -8.4597 C   0  0  0  0  0  0  0  0  0  0  0  0
  -17.6402  -43.1859   -7.7837 C   0  0  1  0  0  0  0  0  0  0  0  0
  -16.5243  -43.0690   -8.7476 C   0  0  0  0  0  0  0  0  0  0  0  0
  -18.0389  -41.9822   -7.0833 C   0  0  0  0  0  0  0  0  0  0  0  0
  -18.8249  -42.1773   -6.0811 O   0  0  0  0  0  0  0  0  0  0  0  0
  -17.7145  -40.6390   -7.3094 N   0  0  0  0  0  0  0  0  0  0  0  0
  1  2  1  0
  2  3  1  0
  3  4  1  0
  4  5  1  0
  5  6  1  0
  6  7  2  0
  6  8  1  0
  8  9  1  6
  8 10  1  0
 10 11  1  0
 11 12  1  1
 11 13  1  0
 13 14  1  1
 14 15  1  0
 15 16  2  0
 16 17  1  0
 17 18  2  0
 18 19  1  0
 19 20  2  0
 19 21  1  0
 21 22  1  0
 22 23  1  0
 23 24  1  0
 24 25  1  0
 25 26  1  0
 26 27  2  0
 26 28  2  0
 26 29  1  0
 29 30  1  0
 30 31  1  6
 30 32  1  0
 32 33  2  0
 32 34  1  0
 20 15  1  0
 34 13  1  0
M  END
$$$$
