
     RDKit          3D

 34 35  0  0  0  0  0  0  0  0999 V2000
  -14.2890  -34.4501  -13.2310 C   0  0  0  0  0  0  0  0  0  0  0  0
  -15.0320  -35.7362  -13.3135 C   0  0  0  0  0  0  0  0  0  0  0  0
  -14.8458  -36.6471  -12.1552 C   0  0  0  0  0  0  0  0  0  0  0  0
  -13.6106  -37.4721  -12.1568 C   0  0  0  0  0  0  0  0  0  0  0  0
  -13.4289  -38.2617  -10.9816 N   0  0  0  0  0  0  0  0  0  0  0  0
  -14.3569  -39.3000  -10.6195 C   0  0  0  0  0  0  0  0  0  0  0  0
  -15.2558  -39.5823  -11.4429 O   0  0  0  0  0  0  0  0  0  0  0  0
  -14.1810  -39.9499   -9.3115 C   0  0  2  0  0  0  0  0  0  0  0  0
  -12.9002  -40.7700   -9.2299 C   0  0  0  0  0  0  0  0  0  0  0  0
  -15.3746  -40.7579   -8.8534 C   0  0  0  0  0  0  0  0  0  0  0  0
  -16.5150  -39.8623   -8.4890 C   0  0  2  0  0  0  0  0  0  0  0  0
  -16.2654  -39.3549   -7.1847 O   0  0  0  0  0  0  0  0  0  0  0  0
  -17.8565  -40.5308   -8.4898 C   0  0  2  0  0  0  0  0  0  0  0  0
  -18.9938  -39.6576   -8.9134 C   0  0  0  0  0  0  0  0  0  0  0  0
  -20.2663  -39.7048   -8.1458 C   0  0  0  0  0  0  0  0  0  0  0  0
  -20.5872  -38.4455   -7.6013 C   0  0  0  0  0  0  0  0  0  0  0  0
  -21.6979  -38.1762   -6.8436 C   0  0  0  0  0  0  0  0  0  0  0  0
  -22.5176  -39.2599   -6.6377 C   0  0  0  0  0  0  0  0  0  0  0  0
  -22.2550  -40.5407   -7.1533 C   0  0  0  0  0  0  0  0  0  0  0  0
  -21.1180  -40.7501   -7.9102 C   0  0  0  0  0  0  0  0  0  0  0  0
  -23.2432  -41.4271   -6.7873 O   0  0  0  0  0  0  0  0  0  0  0  0
  -24.0817  -42.3498   -7.3521 C   0  0  0  0  0  0  0  0  0  0  0  0
  -23.5491  -42.9046   -8.6215 C   0  0  0  0  0  0  0  0  0  0  0  0
  -22.6549  -44.0887   -8.5114 C   0  0  0  0  0  0  0  0  0  0  0  0
  -21.9442  -44.2708   -7.2182 C   0  0  0  0  0  0  0  0  0  0  0  0
  -20.3963  -45.1126   -7.3318 S   0  0  0  0  0  6  0  0  0  0  0  0
  -19.8649  -45.2416   -5.9160 O   0  0  0  0  0  0  0  0  0  0  0  0
  -20.7048  -46.5305   -7.7972 O   0  0  0  0  0  0  0  0  0  0  0  0
  -19.2371  -44.3759   -8.4172 C   0  0  0  0  0  0  0  0  0  0  0  0
  -18.0473  -43.7755   -7.6827 C   0  0  1  0  0  0  0  0  0  0  0  0
  -16.8740  -43.7163   -8.5815 C   0  0  0  0  0  0  0  0  0  0  0  0
  -18.4428  -42.5450   -7.0284 C   0  0  0  0  0  0  0  0  0  0  0  0
  -19.2921  -42.6930   -6.0707 O   0  0  0  0  0  0  0  0  0  0  0  0
  -18.0581  -41.2186   -7.2589 N   0  0  0  0  0  0  0  0  0  0  0  0
  1  2  1  0
  2  3  1  0
  3  4  1  0
  4  5  1  0
  5  6  1  0
  6  7  2  0
  6  8  1  0
  8  9  1  6
  8 10  1  0
 10 11  1  0
 11 12  1  1
 11 13  1  0
 13 14  1  1
 14 15  1  0
 15 16  2  0
 16 17  1  0
 17 18  2  0
 18 19  1  0
 19 20  2  0
 19 21  1  0
 21 22  1  0
 22 23  1  0
 23 24  1  0
 24 25  1  0
 25 26  1  0
 26 27  2  0
 26 28  2  0
 26 29  1  0
 29 30  1  0
 30 31  1  6
 30 32  1  0
 32 33  2  0
 32 34  1  0
 20 15  1  0
 34 13  1  0
M  END
$$$$
