
     RDKit          3D

 34 35  0  0  0  0  0  0  0  0999 V2000
  -12.0366  -35.8759  -14.6179 C   0  0  0  0  0  0  0  0  0  0  0  0
  -13.0627  -36.9217  -14.3605 C   0  0  0  0  0  0  0  0  0  0  0  0
  -12.8045  -37.7800  -13.1761 C   0  0  0  0  0  0  0  0  0  0  0  0
  -13.0659  -37.1678  -11.8483 C   0  0  0  0  0  0  0  0  0  0  0  0
  -12.7525  -38.0108  -10.7397 N   0  0  0  0  0  0  0  0  0  0  0  0
  -13.6662  -39.0227  -10.2797 C   0  0  0  0  0  0  0  0  0  0  0  0
  -13.7493  -40.0735  -10.9540 O   0  0  0  0  0  0  0  0  0  0  0  0
  -14.4332  -38.7471   -9.0550 C   0  0  2  0  0  0  0  0  0  0  0  0
  -13.5425  -38.4015   -7.8687 C   0  0  0  0  0  0  0  0  0  0  0  0
  -15.4308  -39.8238   -8.6909 C   0  0  0  0  0  0  0  0  0  0  0  0
  -16.4627  -39.2955   -7.7467 C   0  0  2  0  0  0  0  0  0  0  0  0
  -15.9574  -39.4471   -6.4266 O   0  0  0  0  0  0  0  0  0  0  0  0
  -17.7918  -39.9836   -7.8283 C   0  0  2  0  0  0  0  0  0  0  0  0
  -18.9432  -39.0896   -8.1606 C   0  0  0  0  0  0  0  0  0  0  0  0
  -20.2175  -39.2430   -7.4101 C   0  0  0  0  0  0  0  0  0  0  0  0
  -20.5635  -38.0565   -6.7333 C   0  0  0  0  0  0  0  0  0  0  0  0
  -21.6818  -37.8914   -5.9571 C   0  0  0  0  0  0  0  0  0  0  0  0
  -22.4824  -39.0055   -5.8756 C   0  0  0  0  0  0  0  0  0  0  0  0
  -22.1945  -40.2174   -6.5264 C   0  0  0  0  0  0  0  0  0  0  0  0
  -21.0510  -40.3227   -7.2950 C   0  0  0  0  0  0  0  0  0  0  0  0
  -23.1678  -41.1559   -6.2652 O   0  0  0  0  0  0  0  0  0  0  0  0
  -23.9870  -42.0260   -6.9321 C   0  0  0  0  0  0  0  0  0  0  0  0
  -23.4396  -42.4293   -8.2514 C   0  0  0  0  0  0  0  0  0  0  0  0
  -22.5244  -43.6023   -8.2661 C   0  0  0  0  0  0  0  0  0  0  0  0
  -21.8154  -43.9120   -6.9964 C   0  0  0  0  0  0  0  0  0  0  0  0
  -20.2520  -44.7088   -7.1922 S   0  0  0  0  0  6  0  0  0  0  0  0
  -19.7238  -44.9823   -5.7959 O   0  0  0  0  0  0  0  0  0  0  0  0
  -20.5328  -46.0726   -7.8114 O   0  0  0  0  0  0  0  0  0  0  0  0
  -19.1023  -43.8375   -8.1840 C   0  0  0  0  0  0  0  0  0  0  0  0
  -17.9264  -43.2999   -7.3814 C   0  0  1  0  0  0  0  0  0  0  0  0
  -16.7509  -43.1221   -8.2615 C   0  0  0  0  0  0  0  0  0  0  0  0
  -18.3468  -42.1555   -6.5989 C   0  0  0  0  0  0  0  0  0  0  0  0
  -19.1969  -42.4222   -5.6681 O   0  0  0  0  0  0  0  0  0  0  0  0
  -17.9855  -40.8052   -6.6810 N   0  0  0  0  0  0  0  0  0  0  0  0
  1  2  1  0
  2  3  1  0
  3  4  1  0
  4  5  1  0
  5  6  1  0
  6  7  2  0
  6  8  1  0
  8  9  1  1
  8 10  1  0
 10 11  1  0
 11 12  1  1
 11 13  1  0
 13 14  1  1
 14 15  1  0
 15 16  2  0
 16 17  1  0
 17 18  2  0
 18 19  1  0
 19 20  2  0
 19 21  1  0
 21 22  1  0
 22 23  1  0
 23 24  1  0
 24 25  1  0
 25 26  1  0
 26 27  2  0
 26 28  2  0
 26 29  1  0
 29 30  1  0
 30 31  1  6
 30 32  1  0
 32 33  2  0
 32 34  1  0
 20 15  1  0
 34 13  1  0
M  END
$$$$
