
     RDKit          3D

 34 35  0  0  0  0  0  0  0  0999 V2000
  -14.8111  -34.6907  -13.8121 C   0  0  0  0  0  0  0  0  0  0  0  0
  -15.5345  -35.6626  -12.9489 C   0  0  0  0  0  0  0  0  0  0  0  0
  -14.9755  -37.0386  -12.9434 C   0  0  0  0  0  0  0  0  0  0  0  0
  -13.7913  -37.2660  -12.0760 C   0  0  0  0  0  0  0  0  0  0  0  0
  -14.0845  -37.9127  -10.8376 N   0  0  0  0  0  0  0  0  0  0  0  0
  -14.5645  -39.2682  -10.7898 C   0  0  0  0  0  0  0  0  0  0  0  0
  -15.3516  -39.6330  -11.6915 O   0  0  0  0  0  0  0  0  0  0  0  0
  -14.0962  -40.1219   -9.6869 C   0  0  2  0  0  0  0  0  0  0  0  0
  -13.1140  -41.1911  -10.1473 C   0  0  0  0  0  0  0  0  0  0  0  0
  -15.2049  -40.7242   -8.8532 C   0  0  0  0  0  0  0  0  0  0  0  0
  -16.2955  -39.7285   -8.6193 C   0  0  2  0  0  0  0  0  0  0  0  0
  -15.9312  -38.9473   -7.4889 O   0  0  0  0  0  0  0  0  0  0  0  0
  -17.6444  -40.3307   -8.3656 C   0  0  2  0  0  0  0  0  0  0  0  0
  -18.7965  -39.3993   -8.5664 C   0  0  0  0  0  0  0  0  0  0  0  0
  -19.9014  -39.3911   -7.5716 C   0  0  0  0  0  0  0  0  0  0  0  0
  -20.0507  -38.1225   -6.9768 C   0  0  0  0  0  0  0  0  0  0  0  0
  -20.9831  -37.8060   -6.0224 C   0  0  0  0  0  0  0  0  0  0  0  0
  -21.8017  -38.8503   -5.6645 C   0  0  0  0  0  0  0  0  0  0  0  0
  -21.7054  -40.1377   -6.2198 C   0  0  0  0  0  0  0  0  0  0  0  0
  -20.7441  -40.3956   -7.1784 C   0  0  0  0  0  0  0  0  0  0  0  0
  -22.6493  -40.9780   -5.6728 O   0  0  0  0  0  0  0  0  0  0  0  0
  -23.6242  -41.8535   -6.0680 C   0  0  0  0  0  0  0  0  0  0  0  0
  -23.3697  -42.4223   -7.4151 C   0  0  0  0  0  0  0  0  0  0  0  0
  -22.5308  -43.6496   -7.4758 C   0  0  0  0  0  0  0  0  0  0  0  0
  -21.5981  -43.8778   -6.3406 C   0  0  0  0  0  0  0  0  0  0  0  0
  -20.1434  -44.7931   -6.7451 S   0  0  0  0  0  6  0  0  0  0  0  0
  -19.3607  -44.9605   -5.4555 O   0  0  0  0  0  0  0  0  0  0  0  0
  -20.6044  -46.1900   -7.1428 O   0  0  0  0  0  0  0  0  0  0  0  0
  -19.1755  -44.1043   -8.0308 C   0  0  0  0  0  0  0  0  0  0  0  0
  -17.8398  -43.5692   -7.5353 C   0  0  1  0  0  0  0  0  0  0  0  0
  -16.8564  -43.5594   -8.6402 C   0  0  0  0  0  0  0  0  0  0  0  0
  -18.0427  -42.3268   -6.8185 C   0  0  0  0  0  0  0  0  0  0  0  0
  -18.7017  -42.4416   -5.7172 O   0  0  0  0  0  0  0  0  0  0  0  0
  -17.6432  -41.0187   -7.1184 N   0  0  0  0  0  0  0  0  0  0  0  0
  1  2  1  0
  2  3  1  0
  3  4  1  0
  4  5  1  0
  5  6  1  0
  6  7  2  0
  6  8  1  0
  8  9  1  6
  8 10  1  0
 10 11  1  0
 11 12  1  1
 11 13  1  0
 13 14  1  1
 14 15  1  0
 15 16  2  0
 16 17  1  0
 17 18  2  0
 18 19  1  0
 19 20  2  0
 19 21  1  0
 21 22  1  0
 22 23  1  0
 23 24  1  0
 24 25  1  0
 25 26  1  0
 26 27  2  0
 26 28  2  0
 26 29  1  0
 29 30  1  0
 30 31  1  6
 30 32  1  0
 32 33  2  0
 32 34  1  0
 20 15  1  0
 34 13  1  0
M  END
$$$$
