
     RDKit          3D

 34 35  0  0  0  0  0  0  0  0999 V2000
  -14.2279  -33.9012  -11.7396 C   0  0  0  0  0  0  0  0  0  0  0  0
  -14.1607  -35.3749  -11.5481 C   0  0  0  0  0  0  0  0  0  0  0  0
  -12.9918  -36.0397  -12.1789 C   0  0  0  0  0  0  0  0  0  0  0  0
  -12.9684  -37.5239  -12.1243 C   0  0  0  0  0  0  0  0  0  0  0  0
  -13.0834  -38.0663  -10.8089 N   0  0  0  0  0  0  0  0  0  0  0  0
  -14.1225  -39.0008  -10.4666 C   0  0  0  0  0  0  0  0  0  0  0  0
  -14.9652  -39.2747  -11.3501 O   0  0  0  0  0  0  0  0  0  0  0  0
  -14.1175  -39.5626   -9.1070 C   0  0  2  0  0  0  0  0  0  0  0  0
  -12.8857  -40.4135   -8.8268 C   0  0  0  0  0  0  0  0  0  0  0  0
  -15.3843  -40.2998   -8.7344 C   0  0  0  0  0  0  0  0  0  0  0  0
  -16.5853  -39.4356   -8.9489 C   0  0  2  0  0  0  0  0  0  0  0  0
  -16.4373  -38.2809   -8.1329 O   0  0  0  0  0  0  0  0  0  0  0  0
  -17.8913  -40.0900   -8.6131 C   0  0  2  0  0  0  0  0  0  0  0  0
  -19.0868  -39.1983   -8.7179 C   0  0  0  0  0  0  0  0  0  0  0  0
  -20.1194  -39.2449   -7.6493 C   0  0  0  0  0  0  0  0  0  0  0  0
  -20.2715  -37.9914   -7.0239 C   0  0  0  0  0  0  0  0  0  0  0  0
  -21.1459  -37.7232   -6.0022 C   0  0  0  0  0  0  0  0  0  0  0  0
  -21.9003  -38.8016   -5.6066 C   0  0  0  0  0  0  0  0  0  0  0  0
  -21.7975  -40.0764   -6.1893 C   0  0  0  0  0  0  0  0  0  0  0  0
  -20.8967  -40.2850   -7.2162 C   0  0  0  0  0  0  0  0  0  0  0  0
  -22.6709  -40.9584   -5.5931 O   0  0  0  0  0  0  0  0  0  0  0  0
  -23.6395  -41.8629   -5.9351 C   0  0  0  0  0  0  0  0  0  0  0  0
  -23.4594  -42.4022   -7.3061 C   0  0  0  0  0  0  0  0  0  0  0  0
  -22.5840  -43.5972   -7.4456 C   0  0  0  0  0  0  0  0  0  0  0  0
  -21.5671  -43.8080   -6.3815 C   0  0  0  0  0  0  0  0  0  0  0  0
  -20.1127  -44.6637   -6.9010 S   0  0  0  0  0  6  0  0  0  0  0  0
  -19.2369  -44.8216   -5.6716 O   0  0  0  0  0  0  0  0  0  0  0  0
  -20.5508  -46.0705   -7.2900 O   0  0  0  0  0  0  0  0  0  0  0  0
  -19.2614  -43.9213   -8.2384 C   0  0  0  0  0  0  0  0  0  0  0  0
  -17.9143  -43.3454   -7.8271 C   0  0  1  0  0  0  0  0  0  0  0  0
  -17.0110  -43.2836   -8.9969 C   0  0  0  0  0  0  0  0  0  0  0  0
  -18.1105  -42.1219   -7.0768 C   0  0  0  0  0  0  0  0  0  0  0  0
  -18.6868  -42.2768   -5.9348 O   0  0  0  0  0  0  0  0  0  0  0  0
  -17.7792  -40.7959   -7.3810 N   0  0  0  0  0  0  0  0  0  0  0  0
  1  2  1  0
  2  3  1  0
  3  4  1  0
  4  5  1  0
  5  6  1  0
  6  7  2  0
  6  8  1  0
  8  9  1  6
  8 10  1  0
 10 11  1  0
 11 12  1  1
 11 13  1  0
 13 14  1  1
 14 15  1  0
 15 16  2  0
 16 17  1  0
 17 18  2  0
 18 19  1  0
 19 20  2  0
 19 21  1  0
 21 22  1  0
 22 23  1  0
 23 24  1  0
 24 25  1  0
 25 26  1  0
 26 27  2  0
 26 28  2  0
 26 29  1  0
 29 30  1  0
 30 31  1  6
 30 32  1  0
 32 33  2  0
 32 34  1  0
 20 15  1  0
 34 13  1  0
M  END
$$$$
