
     RDKit          3D

 34 35  0  0  0  0  0  0  0  0999 V2000
  -11.2858  -35.4594  -14.4029 C   0  0  0  0  0  0  0  0  0  0  0  0
  -12.6409  -35.9332  -14.0131 C   0  0  0  0  0  0  0  0  0  0  0  0
  -12.7091  -36.6467  -12.7122 C   0  0  0  0  0  0  0  0  0  0  0  0
  -14.0643  -37.0310  -12.2409 C   0  0  0  0  0  0  0  0  0  0  0  0
  -14.0914  -37.6104  -10.9365 N   0  0  0  0  0  0  0  0  0  0  0  0
  -14.5915  -38.9408  -10.7125 C   0  0  0  0  0  0  0  0  0  0  0  0
  -15.1510  -39.5155  -11.6729 O   0  0  0  0  0  0  0  0  0  0  0  0
  -14.4092  -39.5245   -9.3744 C   0  0  2  0  0  0  0  0  0  0  0  0
  -13.1393  -40.3582   -9.2647 C   0  0  0  0  0  0  0  0  0  0  0  0
  -15.6085  -40.2897   -8.8614 C   0  0  0  0  0  0  0  0  0  0  0  0
  -16.8370  -39.4383   -8.8955 C   0  0  2  0  0  0  0  0  0  0  0  0
  -16.6398  -38.3599   -7.9904 O   0  0  0  0  0  0  0  0  0  0  0  0
  -18.0997  -40.1515   -8.5162 C   0  0  2  0  0  0  0  0  0  0  0  0
  -19.3344  -39.3096   -8.5589 C   0  0  0  0  0  0  0  0  0  0  0  0
  -20.3190  -39.4137   -7.4497 C   0  0  0  0  0  0  0  0  0  0  0  0
  -20.4970  -38.1760   -6.8002 C   0  0  0  0  0  0  0  0  0  0  0  0
  -21.3386  -37.9582   -5.7397 C   0  0  0  0  0  0  0  0  0  0  0  0
  -22.0305  -39.0726   -5.3295 C   0  0  0  0  0  0  0  0  0  0  0  0
  -21.8991  -40.3341   -5.9348 C   0  0  0  0  0  0  0  0  0  0  0  0
  -21.0337  -40.4912   -7.0006 C   0  0  0  0  0  0  0  0  0  0  0  0
  -22.7095  -41.2599   -5.3164 O   0  0  0  0  0  0  0  0  0  0  0  0
  -23.6530  -42.1999   -5.6318 C   0  0  0  0  0  0  0  0  0  0  0  0
  -23.5077  -42.7132   -7.0169 C   0  0  0  0  0  0  0  0  0  0  0  0
  -22.5900  -43.8682   -7.2097 C   0  0  0  0  0  0  0  0  0  0  0  0
  -21.5219  -44.0499   -6.1914 C   0  0  0  0  0  0  0  0  0  0  0  0
  -20.0560  -44.8367   -6.7825 S   0  0  0  0  0  6  0  0  0  0  0  0
  -19.1241  -44.9735   -5.5925 O   0  0  0  0  0  0  0  0  0  0  0  0
  -20.4510  -46.2555   -7.1740 O   0  0  0  0  0  0  0  0  0  0  0  0
  -19.2926  -44.0417   -8.1425 C   0  0  0  0  0  0  0  0  0  0  0  0
  -17.9546  -43.4149   -7.7782 C   0  0  1  0  0  0  0  0  0  0  0  0
  -17.1040  -43.2998   -8.9829 C   0  0  0  0  0  0  0  0  0  0  0  0
  -18.1702  -42.2107   -7.0025 C   0  0  0  0  0  0  0  0  0  0  0  0
  -18.6917  -42.4046   -5.8402 O   0  0  0  0  0  0  0  0  0  0  0  0
  -17.9072  -40.8680   -7.3003 N   0  0  0  0  0  0  0  0  0  0  0  0
  1  2  1  0
  2  3  1  0
  3  4  1  0
  4  5  1  0
  5  6  1  0
  6  7  2  0
  6  8  1  0
  8  9  1  6
  8 10  1  0
 10 11  1  0
 11 12  1  1
 11 13  1  0
 13 14  1  1
 14 15  1  0
 15 16  2  0
 16 17  1  0
 17 18  2  0
 18 19  1  0
 19 20  2  0
 19 21  1  0
 21 22  1  0
 22 23  1  0
 23 24  1  0
 24 25  1  0
 25 26  1  0
 26 27  2  0
 26 28  2  0
 26 29  1  0
 29 30  1  0
 30 31  1  6
 30 32  1  0
 32 33  2  0
 32 34  1  0
 20 15  1  0
 34 13  1  0
M  END
$$$$
