
     RDKit          3D

 34 35  0  0  0  0  0  0  0  0999 V2000
  -13.1642  -34.4422  -13.5806 C   0  0  0  0  0  0  0  0  0  0  0  0
  -12.4756  -35.4568  -12.7384 C   0  0  0  0  0  0  0  0  0  0  0  0
  -13.3700  -36.2777  -11.8827 C   0  0  0  0  0  0  0  0  0  0  0  0
  -13.1107  -37.7402  -11.8697 C   0  0  0  0  0  0  0  0  0  0  0  0
  -13.1511  -38.3335  -10.5720 N   0  0  0  0  0  0  0  0  0  0  0  0
  -14.0893  -39.3751  -10.2478 C   0  0  0  0  0  0  0  0  0  0  0  0
  -14.8890  -39.7293  -11.1426 O   0  0  0  0  0  0  0  0  0  0  0  0
  -14.0393  -39.9440   -8.8920 C   0  0  2  0  0  0  0  0  0  0  0  0
  -12.8540  -40.8790   -8.6901 C   0  0  0  0  0  0  0  0  0  0  0  0
  -15.3284  -40.5949   -8.4431 C   0  0  0  0  0  0  0  0  0  0  0  0
  -16.4695  -39.6330   -8.5333 C   0  0  2  0  0  0  0  0  0  0  0  0
  -16.3078  -38.6735   -7.4969 O   0  0  0  0  0  0  0  0  0  0  0  0
  -17.8242  -40.2591   -8.3936 C   0  0  2  0  0  0  0  0  0  0  0  0
  -18.9726  -39.3355   -8.6453 C   0  0  0  0  0  0  0  0  0  0  0  0
  -20.1441  -39.3727   -7.7305 C   0  0  0  0  0  0  0  0  0  0  0  0
  -20.3523  -38.1258   -7.1082 C   0  0  0  0  0  0  0  0  0  0  0  0
  -21.3532  -37.8514   -6.2120 C   0  0  0  0  0  0  0  0  0  0  0  0
  -22.1799  -38.9164   -5.9451 C   0  0  0  0  0  0  0  0  0  0  0  0
  -22.0270  -40.1840   -6.5324 C   0  0  0  0  0  0  0  0  0  0  0  0
  -20.9977  -40.3993   -7.4289 C   0  0  0  0  0  0  0  0  0  0  0  0
  -22.9946  -41.0527   -6.0795 O   0  0  0  0  0  0  0  0  0  0  0  0
  -23.9271  -41.9266   -6.5692 C   0  0  0  0  0  0  0  0  0  0  0  0
  -23.5715  -42.4486   -7.9123 C   0  0  0  0  0  0  0  0  0  0  0  0
  -22.7131  -43.6632   -7.9526 C   0  0  0  0  0  0  0  0  0  0  0  0
  -21.8585  -43.9167   -6.7626 C   0  0  0  0  0  0  0  0  0  0  0  0
  -20.3663  -44.8010   -7.0927 S   0  0  0  0  0  6  0  0  0  0  0  0
  -19.6730  -45.0006   -5.7574 O   0  0  0  0  0  0  0  0  0  0  0  0
  -20.7788  -46.1898   -7.5653 O   0  0  0  0  0  0  0  0  0  0  0  0
  -19.3211  -44.0596   -8.2853 C   0  0  0  0  0  0  0  0  0  0  0  0
  -18.0310  -43.5248   -7.6810 C   0  0  1  0  0  0  0  0  0  0  0  0
  -16.9732  -43.4677   -8.7134 C   0  0  0  0  0  0  0  0  0  0  0  0
  -18.3008  -42.3088   -6.9416 C   0  0  0  0  0  0  0  0  0  0  0  0
  -19.0331  -42.4669   -5.8932 O   0  0  0  0  0  0  0  0  0  0  0  0
  -17.9000  -40.9870   -7.1716 N   0  0  0  0  0  0  0  0  0  0  0  0
  1  2  1  0
  2  3  1  0
  3  4  1  0
  4  5  1  0
  5  6  1  0
  6  7  2  0
  6  8  1  0
  8  9  1  6
  8 10  1  0
 10 11  1  0
 11 12  1  1
 11 13  1  0
 13 14  1  1
 14 15  1  0
 15 16  2  0
 16 17  1  0
 17 18  2  0
 18 19  1  0
 19 20  2  0
 19 21  1  0
 21 22  1  0
 22 23  1  0
 23 24  1  0
 24 25  1  0
 25 26  1  0
 26 27  2  0
 26 28  2  0
 26 29  1  0
 29 30  1  0
 30 31  1  6
 30 32  1  0
 32 33  2  0
 32 34  1  0
 20 15  1  0
 34 13  1  0
M  END
$$$$
