
     RDKit          3D

 37 40  0  0  0  0  0  0  0  0999 V2000
  -11.3775  -40.0500  -13.2717 C   0  0  0  0  0  0  0  0  0  0  0  0
  -11.6162  -38.7361  -14.0259 C   0  0  0  0  0  0  0  0  0  0  0  0
  -10.3477  -37.9098  -14.0556 C   0  0  0  0  0  0  0  0  0  0  0  0
  -12.7133  -38.0469  -13.3225 C   0  0  0  0  0  0  0  0  0  0  0  0
  -13.6158  -37.3178  -14.0683 C   0  0  0  0  0  0  0  0  0  0  0  0
  -14.6673  -36.6433  -13.4773 C   0  0  0  0  0  0  0  0  0  0  0  0
  -14.7867  -36.7233  -12.1032 C   0  0  0  0  0  0  0  0  0  0  0  0
  -13.9074  -37.4397  -11.3265 C   0  0  0  0  0  0  0  0  0  0  0  0
  -14.0107  -37.5402   -9.8525 C   0  0  0  0  0  0  0  0  0  0  0  0
  -14.1222  -38.8660   -9.3565 N   0  0  0  0  0  0  0  0  0  0  0  0
  -15.4386  -39.4660   -9.4575 C   0  0  0  0  0  0  0  0  0  0  0  0
  -16.3902  -38.6207   -8.7560 C   0  0  1  0  0  0  0  0  0  0  0  0
  -16.7265  -37.5232   -9.5795 O   0  0  0  0  0  0  0  0  0  0  0  0
  -17.7161  -39.2608   -8.3436 C   0  0  2  0  0  0  0  0  0  0  0  0
  -18.4468  -38.2059   -7.5609 C   0  0  0  0  0  0  0  0  0  0  0  0
  -19.8050  -38.5814   -7.1153 C   0  0  0  0  0  0  0  0  0  0  0  0
  -20.6007  -38.7309   -8.2899 C   0  0  0  0  0  0  0  0  0  0  0  0
  -21.9085  -39.0864   -8.2855 C   0  0  0  0  0  0  0  0  0  0  0  0
  -22.4310  -39.2994   -7.0312 C   0  0  0  0  0  0  0  0  0  0  0  0
  -21.7148  -39.1729   -5.8270 C   0  0  0  0  0  0  0  0  0  0  0  0
  -22.5707  -39.4861   -4.6754 C   0  0  0  0  0  0  0  0  0  0  0  0
  -22.3632  -40.8727   -4.0526 C   0  0  0  0  0  0  0  0  0  0  0  0
  -23.1792  -41.9077   -4.7103 C   0  0  0  0  0  0  0  0  0  0  0  0
  -22.5257  -43.2122   -5.0451 C   0  0  0  0  0  0  0  0  0  0  0  0
  -22.2604  -43.4497   -6.4737 C   0  0  0  0  0  0  0  0  0  0  0  0
  -20.8451  -43.3065   -6.9711 C   0  0  0  0  0  0  0  0  0  0  0  0
  -19.9023  -42.3556   -6.6973 C   0  0  0  0  0  0  0  0  0  0  0  0
  -18.6866  -42.4698   -7.3721 C   0  0  0  0  0  0  0  0  0  0  0  0
  -18.5014  -43.5415   -8.2794 C   0  0  0  0  0  0  0  0  0  0  0  0
  -19.4633  -44.4885   -8.5392 C   0  0  0  0  0  0  0  0  0  0  0  0
  -19.2273  -45.6011   -9.5048 C   0  0  0  0  0  0  0  0  0  0  0  0
  -20.5948  -44.3348   -7.8771 N   0  0  0  0  0  0  0  0  0  0  0  0
  -17.4878  -41.6335   -7.3471 C   0  0  0  0  0  0  0  0  0  0  0  0
  -16.3586  -42.3009   -7.3188 O   0  0  0  0  0  0  0  0  0  0  0  0
  -17.2913  -40.2366   -7.3489 N   0  0  0  0  0  0  0  0  0  0  0  0
  -20.3634  -38.8020   -5.8945 C   0  0  0  0  0  0  0  0  0  0  0  0
  -12.8571  -38.1111  -11.9374 C   0  0  0  0  0  0  0  0  0  0  0  0
  1  2  1  0
  2  3  1  0
  2  4  1  0
  4  5  2  0
  5  6  1  0
  6  7  2  0
  7  8  1  0
  8  9  1  0
  9 10  1  0
 10 11  1  0
 11 12  1  0
 12 13  1  6
 12 14  1  0
 14 15  1  1
 15 16  1  0
 16 17  1  0
 17 18  2  0
 18 19  1  0
 19 20  2  0
 20 21  1  0
 21 22  1  0
 22 23  1  0
 23 24  1  0
 24 25  1  0
 25 26  1  0
 26 27  1  0
 27 28  2  0
 28 29  1  0
 29 30  2  0
 30 31  1  0
 30 32  1  0
 28 33  1  0
 33 34  2  0
 33 35  1  0
 20 36  1  0
  8 37  2  0
 32 26  2  0
 35 14  1  0
 36 16  2  0
 37  4  1  0
M  END
$$$$
