
     RDKit          3D

 37 40  0  0  0  0  0  0  0  0999 V2000
  -18.0986  -35.0213  -11.8482 C   0  0  0  0  0  0  0  0  0  0  0  0
  -18.2108  -36.2155  -10.8926 C   0  0  0  0  0  0  0  0  0  0  0  0
  -18.5825  -35.7429   -9.5029 C   0  0  0  0  0  0  0  0  0  0  0  0
  -16.9016  -36.8928  -10.9187 C   0  0  0  0  0  0  0  0  0  0  0  0
  -16.1639  -36.8513  -12.0834 C   0  0  0  0  0  0  0  0  0  0  0  0
  -14.9301  -37.4658  -12.1825 C   0  0  0  0  0  0  0  0  0  0  0  0
  -14.4547  -38.1291  -11.0676 C   0  0  0  0  0  0  0  0  0  0  0  0
  -15.1606  -38.1922   -9.8897 C   0  0  0  0  0  0  0  0  0  0  0  0
  -14.6758  -38.8979   -8.6811 C   0  0  0  0  0  0  0  0  0  0  0  0
  -14.2838  -40.2448   -8.9003 N   0  0  0  0  0  0  0  0  0  0  0  0
  -15.3221  -41.2397   -8.7130 C   0  0  0  0  0  0  0  0  0  0  0  0
  -16.4580  -40.8899   -9.5494 C   0  0  1  0  0  0  0  0  0  0  0  0
  -16.4198  -41.6680  -10.7279 O   0  0  0  0  0  0  0  0  0  0  0  0
  -17.8503  -41.0962   -8.9523 C   0  0  2  0  0  0  0  0  0  0  0  0
  -18.3718  -39.7171   -8.6597 C   0  0  0  0  0  0  0  0  0  0  0  0
  -19.7528  -39.6652   -8.1358 C   0  0  0  0  0  0  0  0  0  0  0  0
  -20.6099  -40.1275   -9.1782 C   0  0  0  0  0  0  0  0  0  0  0  0
  -21.9562  -40.2367   -9.0671 C   0  0  0  0  0  0  0  0  0  0  0  0
  -22.4536  -39.8589   -7.8417 C   0  0  0  0  0  0  0  0  0  0  0  0
  -21.6773  -39.3932   -6.7649 C   0  0  0  0  0  0  0  0  0  0  0  0
  -22.5237  -39.0922   -5.6031 C   0  0  0  0  0  0  0  0  0  0  0  0
  -22.5129  -40.1426   -4.4849 C   0  0  0  0  0  0  0  0  0  0  0  0
  -23.5090  -41.2047   -4.7072 C   0  0  0  0  0  0  0  0  0  0  0  0
  -23.0847  -42.6240   -4.4921 C   0  0  0  0  0  0  0  0  0  0  0  0
  -22.9195  -43.4364   -5.7088 C   0  0  0  0  0  0  0  0  0  0  0  0
  -21.5212  -43.7285   -6.1887 C   0  0  0  0  0  0  0  0  0  0  0  0
  -20.4292  -42.9121   -6.2840 C   0  0  0  0  0  0  0  0  0  0  0  0
  -19.2758  -43.4743   -6.8319 C   0  0  0  0  0  0  0  0  0  0  0  0
  -19.3002  -44.8285   -7.2458 C   0  0  0  0  0  0  0  0  0  0  0  0
  -20.4098  -45.6329   -7.1394 C   0  0  0  0  0  0  0  0  0  0  0  0
  -20.3932  -47.0551   -7.5899 C   0  0  0  0  0  0  0  0  0  0  0  0
  -21.4744  -45.0535   -6.6166 N   0  0  0  0  0  0  0  0  0  0  0  0
  -17.9597  -42.8997   -7.1057 C   0  0  0  0  0  0  0  0  0  0  0  0
  -16.9503  -43.6771   -6.7928 O   0  0  0  0  0  0  0  0  0  0  0  0
  -17.5448  -41.6647   -7.6463 N   0  0  0  0  0  0  0  0  0  0  0  0
  -20.2882  -39.3015   -6.9391 C   0  0  0  0  0  0  0  0  0  0  0  0
  -16.3983  -37.5689   -9.8084 C   0  0  0  0  0  0  0  0  0  0  0  0
  1  2  1  0
  2  3  1  0
  2  4  1  0
  4  5  2  0
  5  6  1  0
  6  7  2  0
  7  8  1  0
  8  9  1  0
  9 10  1  0
 10 11  1  0
 11 12  1  0
 12 13  1  6
 12 14  1  0
 14 15  1  1
 15 16  1  0
 16 17  1  0
 17 18  2  0
 18 19  1  0
 19 20  2  0
 20 21  1  0
 21 22  1  0
 22 23  1  0
 23 24  1  0
 24 25  1  0
 25 26  1  0
 26 27  1  0
 27 28  2  0
 28 29  1  0
 29 30  2  0
 30 31  1  0
 30 32  1  0
 28 33  1  0
 33 34  2  0
 33 35  1  0
 20 36  1  0
  8 37  2  0
 32 26  2  0
 35 14  1  0
 36 16  2  0
 37  4  1  0
M  END
$$$$
