
     RDKit          3D

 37 40  0  0  0  0  0  0  0  0999 V2000
  -10.5240  -36.0014  -11.4785 C   0  0  0  0  0  0  0  0  0  0  0  0
  -10.5512  -37.2248  -12.4029 C   0  0  0  0  0  0  0  0  0  0  0  0
  -10.5232  -36.7883  -13.8526 C   0  0  0  0  0  0  0  0  0  0  0  0
  -11.7787  -37.9702  -12.0694 C   0  0  0  0  0  0  0  0  0  0  0  0
  -12.0294  -39.1531  -12.7329 C   0  0  0  0  0  0  0  0  0  0  0  0
  -13.1608  -39.9035  -12.4748 C   0  0  0  0  0  0  0  0  0  0  0  0
  -14.0408  -39.4266  -11.5224 C   0  0  0  0  0  0  0  0  0  0  0  0
  -13.8253  -38.2525  -10.8406 C   0  0  0  0  0  0  0  0  0  0  0  0
  -14.7528  -37.7176   -9.8173 C   0  0  0  0  0  0  0  0  0  0  0  0
  -15.9622  -37.1847  -10.3362 N   0  0  0  0  0  0  0  0  0  0  0  0
  -17.1313  -38.0320  -10.2006 C   0  0  0  0  0  0  0  0  0  0  0  0
  -17.4719  -38.1330   -8.7913 C   0  0  1  0  0  0  0  0  0  0  0  0
  -17.9419  -36.8796   -8.3397 O   0  0  0  0  0  0  0  0  0  0  0  0
  -18.5468  -39.1502   -8.4073 C   0  0  2  0  0  0  0  0  0  0  0  0
  -19.4955  -38.4126   -7.5043 C   0  0  0  0  0  0  0  0  0  0  0  0
  -20.6724  -39.1886   -7.0603 C   0  0  0  0  0  0  0  0  0  0  0  0
  -21.4588  -39.4508   -8.2212 C   0  0  0  0  0  0  0  0  0  0  0  0
  -22.6166  -40.1553   -8.2155 C   0  0  0  0  0  0  0  0  0  0  0  0
  -22.9920  -40.6136   -6.9743 C   0  0  0  0  0  0  0  0  0  0  0  0
  -22.2739  -40.3980   -5.7838 C   0  0  0  0  0  0  0  0  0  0  0  0
  -22.9474  -41.0359   -4.6454 C   0  0  0  0  0  0  0  0  0  0  0  0
  -22.3340  -42.3587   -4.1683 C   0  0  0  0  0  0  0  0  0  0  0  0
  -22.8689  -43.5187   -4.9018 C   0  0  0  0  0  0  0  0  0  0  0  0
  -21.9016  -44.5554   -5.3816 C   0  0  0  0  0  0  0  0  0  0  0  0
  -21.6589  -44.5845   -6.8335 C   0  0  0  0  0  0  0  0  0  0  0  0
  -20.3664  -44.0103   -7.3536 C   0  0  0  0  0  0  0  0  0  0  0  0
  -19.7073  -42.8622   -7.0137 C   0  0  0  0  0  0  0  0  0  0  0  0
  -18.5453  -42.5743   -7.7301 C   0  0  0  0  0  0  0  0  0  0  0  0
  -18.1224  -43.4689   -8.7434 C   0  0  0  0  0  0  0  0  0  0  0  0
  -18.8000  -44.6199   -9.0684 C   0  0  0  0  0  0  0  0  0  0  0  0
  -18.3204  -45.5345  -10.1452 C   0  0  0  0  0  0  0  0  0  0  0  0
  -19.8928  -44.8454   -8.3631 N   0  0  0  0  0  0  0  0  0  0  0  0
  -17.6225  -41.4429   -7.6562 C   0  0  0  0  0  0  0  0  0  0  0  0
  -16.3538  -41.7694   -7.7253 O   0  0  0  0  0  0  0  0  0  0  0  0
  -17.8174  -40.0519   -7.5258 N   0  0  0  0  0  0  0  0  0  0  0  0
  -21.0820  -39.6612   -5.8521 C   0  0  0  0  0  0  0  0  0  0  0  0
  -12.6832  -37.5119  -11.1129 C   0  0  0  0  0  0  0  0  0  0  0  0
  1  2  1  0
  2  3  1  0
  2  4  1  0
  4  5  2  0
  5  6  1  0
  6  7  2  0
  7  8  1  0
  8  9  1  0
  9 10  1  0
 10 11  1  0
 11 12  1  0
 12 13  1  6
 12 14  1  0
 14 15  1  1
 15 16  1  0
 16 17  1  0
 17 18  2  0
 18 19  1  0
 19 20  2  0
 20 21  1  0
 21 22  1  0
 22 23  1  0
 23 24  1  0
 24 25  1  0
 25 26  1  0
 26 27  1  0
 27 28  2  0
 28 29  1  0
 29 30  2  0
 30 31  1  0
 30 32  1  0
 28 33  1  0
 33 34  2  0
 33 35  1  0
 20 36  1  0
  8 37  2  0
 32 26  2  0
 35 14  1  0
 36 16  2  0
 37  4  1  0
M  END
$$$$
