
     RDKit          3D

 37 40  0  0  0  0  0  0  0  0999 V2000
   -9.6137  -41.5717  -10.8144 C   0  0  0  0  0  0  0  0  0  0  0  0
  -10.7755  -42.5451  -11.0484 C   0  0  0  0  0  0  0  0  0  0  0  0
  -10.5563  -43.3267  -12.3267 C   0  0  0  0  0  0  0  0  0  0  0  0
  -11.9999  -41.7256  -11.1000 C   0  0  0  0  0  0  0  0  0  0  0  0
  -12.9354  -42.0032  -12.0748 C   0  0  0  0  0  0  0  0  0  0  0  0
  -14.1049  -41.2754  -12.1857 C   0  0  0  0  0  0  0  0  0  0  0  0
  -14.3090  -40.2514  -11.2808 C   0  0  0  0  0  0  0  0  0  0  0  0
  -13.4003  -39.9449  -10.2959 C   0  0  0  0  0  0  0  0  0  0  0  0
  -13.5929  -38.8519   -9.3152 C   0  0  0  0  0  0  0  0  0  0  0  0
  -14.7632  -38.0742   -9.5189 N   0  0  0  0  0  0  0  0  0  0  0  0
  -16.0142  -38.8075   -9.5106 C   0  0  0  0  0  0  0  0  0  0  0  0
  -16.7597  -38.4424   -8.3176 C   0  0  1  0  0  0  0  0  0  0  0  0
  -17.2618  -37.1309   -8.4711 O   0  0  0  0  0  0  0  0  0  0  0  0
  -17.9620  -39.3149   -7.9553 C   0  0  2  0  0  0  0  0  0  0  0  0
  -18.6806  -38.5764   -6.8609 C   0  0  0  0  0  0  0  0  0  0  0  0
  -19.9343  -39.2060   -6.3957 C   0  0  0  0  0  0  0  0  0  0  0  0
  -20.8532  -39.1561   -7.4857 C   0  0  0  0  0  0  0  0  0  0  0  0
  -22.1135  -39.6528   -7.4446 C   0  0  0  0  0  0  0  0  0  0  0  0
  -22.4552  -40.2256   -6.2418 C   0  0  0  0  0  0  0  0  0  0  0  0
  -21.6091  -40.3142   -5.1214 C   0  0  0  0  0  0  0  0  0  0  0  0
  -22.2841  -40.9974   -4.0104 C   0  0  0  0  0  0  0  0  0  0  0  0
  -21.8784  -42.4600   -3.7868 C   0  0  0  0  0  0  0  0  0  0  0  0
  -22.6746  -43.3912   -4.6045 C   0  0  0  0  0  0  0  0  0  0  0  0
  -21.9544  -44.4884   -5.3245 C   0  0  0  0  0  0  0  0  0  0  0  0
  -21.8485  -44.3367   -6.7851 C   0  0  0  0  0  0  0  0  0  0  0  0
  -20.5243  -43.9114   -7.3653 C   0  0  0  0  0  0  0  0  0  0  0  0
  -19.6430  -42.9525   -6.9506 C   0  0  0  0  0  0  0  0  0  0  0  0
  -18.5152  -42.7549   -7.7478 C   0  0  0  0  0  0  0  0  0  0  0  0
  -18.3496  -43.5431   -8.9128 C   0  0  0  0  0  0  0  0  0  0  0  0
  -19.2483  -44.5039   -9.3111 C   0  0  0  0  0  0  0  0  0  0  0  0
  -19.0362  -45.3112  -10.5477 C   0  0  0  0  0  0  0  0  0  0  0  0
  -20.2980  -44.6505   -8.5243 N   0  0  0  0  0  0  0  0  0  0  0  0
  -17.4017  -41.8155   -7.6268 C   0  0  0  0  0  0  0  0  0  0  0  0
  -16.2230  -42.3323   -7.8809 O   0  0  0  0  0  0  0  0  0  0  0  0
  -17.3319  -40.4474   -7.2901 N   0  0  0  0  0  0  0  0  0  0  0  0
  -20.3149  -39.7821   -5.2235 C   0  0  0  0  0  0  0  0  0  0  0  0
  -12.2310  -40.6869  -10.1995 C   0  0  0  0  0  0  0  0  0  0  0  0
  1  2  1  0
  2  3  1  0
  2  4  1  0
  4  5  2  0
  5  6  1  0
  6  7  2  0
  7  8  1  0
  8  9  1  0
  9 10  1  0
 10 11  1  0
 11 12  1  0
 12 13  1  6
 12 14  1  0
 14 15  1  1
 15 16  1  0
 16 17  1  0
 17 18  2  0
 18 19  1  0
 19 20  2  0
 20 21  1  0
 21 22  1  0
 22 23  1  0
 23 24  1  0
 24 25  1  0
 25 26  1  0
 26 27  1  0
 27 28  2  0
 28 29  1  0
 29 30  2  0
 30 31  1  0
 30 32  1  0
 28 33  1  0
 33 34  2  0
 33 35  1  0
 20 36  1  0
  8 37  2  0
 32 26  2  0
 35 14  1  0
 36 16  2  0
 37  4  1  0
M  END
$$$$
