
     RDKit          3D

 37 40  0  0  0  0  0  0  0  0999 V2000
  -12.4648  -37.2839  -13.5065 C   0  0  0  0  0  0  0  0  0  0  0  0
  -13.3620  -36.1042  -13.1122 C   0  0  0  0  0  0  0  0  0  0  0  0
  -12.5219  -34.8754  -12.8348 C   0  0  0  0  0  0  0  0  0  0  0  0
  -14.1218  -36.5387  -11.9258 C   0  0  0  0  0  0  0  0  0  0  0  0
  -15.3558  -35.9691  -11.6915 C   0  0  0  0  0  0  0  0  0  0  0  0
  -16.1228  -36.3248  -10.5983 C   0  0  0  0  0  0  0  0  0  0  0  0
  -15.6093  -37.2778   -9.7398 C   0  0  0  0  0  0  0  0  0  0  0  0
  -14.3839  -37.8677   -9.9400 C   0  0  0  0  0  0  0  0  0  0  0  0
  -13.8090  -38.8894   -9.0348 C   0  0  0  0  0  0  0  0  0  0  0  0
  -14.5526  -39.1115   -7.8458 N   0  0  0  0  0  0  0  0  0  0  0  0
  -15.3497  -40.3227   -7.8203 C   0  0  0  0  0  0  0  0  0  0  0  0
  -16.3251  -40.2606   -8.8959 C   0  0  1  0  0  0  0  0  0  0  0  0
  -16.0824  -41.3188   -9.7999 O   0  0  0  0  0  0  0  0  0  0  0  0
  -17.7991  -40.3694   -8.5045 C   0  0  2  0  0  0  0  0  0  0  0  0
  -18.5544  -39.6193   -9.5658 C   0  0  0  0  0  0  0  0  0  0  0  0
  -20.0259  -39.6516   -9.4319 C   0  0  0  0  0  0  0  0  0  0  0  0
  -20.4313  -41.0045   -9.6326 C   0  0  0  0  0  0  0  0  0  0  0  0
  -21.7156  -41.4333   -9.5720 C   0  0  0  0  0  0  0  0  0  0  0  0
  -22.6286  -40.4426   -9.2951 C   0  0  0  0  0  0  0  0  0  0  0  0
  -22.3105  -39.0884   -9.0850 C   0  0  0  0  0  0  0  0  0  0  0  0
  -23.5202  -38.3066   -8.7988 C   0  0  0  0  0  0  0  0  0  0  0  0
  -23.7448  -37.9485   -7.3240 C   0  0  0  0  0  0  0  0  0  0  0  0
  -24.4738  -39.0029   -6.5984 C   0  0  0  0  0  0  0  0  0  0  0  0
  -23.9704  -39.4047   -5.2472 C   0  0  0  0  0  0  0  0  0  0  0  0
  -23.3176  -40.7221   -5.1706 C   0  0  0  0  0  0  0  0  0  0  0  0
  -21.8144  -40.7704   -5.0755 C   0  0  0  0  0  0  0  0  0  0  0  0
  -20.8613  -40.0588   -5.7488 C   0  0  0  0  0  0  0  0  0  0  0  0
  -19.5320  -40.3815   -5.4746 C   0  0  0  0  0  0  0  0  0  0  0  0
  -19.2517  -41.4022   -4.5336 C   0  0  0  0  0  0  0  0  0  0  0  0
  -20.2264  -42.1050   -3.8661 C   0  0  0  0  0  0  0  0  0  0  0  0
  -19.8873  -43.1749   -2.8832 C   0  0  0  0  0  0  0  0  0  0  0  0
  -21.4665  -41.7631   -4.1620 N   0  0  0  0  0  0  0  0  0  0  0  0
  -18.2807  -39.8566   -6.0186 C   0  0  0  0  0  0  0  0  0  0  0  0
  -17.3405  -39.6559   -5.1259 O   0  0  0  0  0  0  0  0  0  0  0  0
  -17.8686  -39.5180   -7.3245 N   0  0  0  0  0  0  0  0  0  0  0  0
  -20.9634  -38.7038   -9.1604 C   0  0  0  0  0  0  0  0  0  0  0  0
  -13.6273  -37.4982  -11.0437 C   0  0  0  0  0  0  0  0  0  0  0  0
  1  2  1  0
  2  3  1  0
  2  4  1  0
  4  5  2  0
  5  6  1  0
  6  7  2  0
  7  8  1  0
  8  9  1  0
  9 10  1  0
 10 11  1  0
 11 12  1  0
 12 13  1  6
 12 14  1  0
 14 15  1  6
 15 16  1  0
 16 17  1  0
 17 18  2  0
 18 19  1  0
 19 20  2  0
 20 21  1  0
 21 22  1  0
 22 23  1  0
 23 24  1  0
 24 25  1  0
 25 26  1  0
 26 27  1  0
 27 28  2  0
 28 29  1  0
 29 30  2  0
 30 31  1  0
 30 32  1  0
 28 33  1  0
 33 34  2  0
 33 35  1  0
 20 36  1  0
  8 37  2  0
 32 26  2  0
 35 14  1  0
 36 16  2  0
 37  4  1  0
M  END
$$$$
