
     RDKit          3D

 37 40  0  0  0  0  0  0  0  0999 V2000
  -10.4751  -40.9062  -12.9489 C   0  0  0  0  0  0  0  0  0  0  0  0
  -11.8873  -41.2307  -12.4465 C   0  0  0  0  0  0  0  0  0  0  0  0
  -12.6888  -41.9114  -13.5361 C   0  0  0  0  0  0  0  0  0  0  0  0
  -12.4861  -39.9484  -12.0334 C   0  0  0  0  0  0  0  0  0  0  0  0
  -13.1142  -39.1785  -12.9900 C   0  0  0  0  0  0  0  0  0  0  0  0
  -13.6950  -37.9643  -12.6769 C   0  0  0  0  0  0  0  0  0  0  0  0
  -13.6257  -37.5423  -11.3631 C   0  0  0  0  0  0  0  0  0  0  0  0
  -13.0086  -38.2815  -10.3821 C   0  0  0  0  0  0  0  0  0  0  0  0
  -12.9181  -37.8519   -8.9676 C   0  0  0  0  0  0  0  0  0  0  0  0
  -14.0822  -38.1081   -8.1962 N   0  0  0  0  0  0  0  0  0  0  0  0
  -14.5949  -39.4629   -8.2634 C   0  0  0  0  0  0  0  0  0  0  0  0
  -15.2682  -39.7683   -7.0121 C   0  0  1  0  0  0  0  0  0  0  0  0
  -14.9527  -38.7701   -6.0634 O   0  0  0  0  0  0  0  0  0  0  0  0
  -16.7945  -39.8507   -7.0464 C   0  0  2  0  0  0  0  0  0  0  0  0
  -17.1633  -40.9129   -6.0487 C   0  0  0  0  0  0  0  0  0  0  0  0
  -18.6142  -41.1182   -5.8562 C   0  0  0  0  0  0  0  0  0  0  0  0
  -19.1285  -39.9232   -5.2709 C   0  0  0  0  0  0  0  0  0  0  0  0
  -20.4324  -39.7266   -4.9582 C   0  0  0  0  0  0  0  0  0  0  0  0
  -21.2503  -40.7922   -5.2535 C   0  0  0  0  0  0  0  0  0  0  0  0
  -20.8221  -42.0022   -5.8295 C   0  0  0  0  0  0  0  0  0  0  0  0
  -21.9542  -42.9174   -6.0231 C   0  0  0  0  0  0  0  0  0  0  0  0
  -22.4860  -43.0200   -7.4585 C   0  0  0  0  0  0  0  0  0  0  0  0
  -23.5001  -41.9930   -7.7527 C   0  0  0  0  0  0  0  0  0  0  0  0
  -23.3997  -41.2563   -9.0519 C   0  0  0  0  0  0  0  0  0  0  0  0
  -22.9607  -39.8538   -8.9627 C   0  0  0  0  0  0  0  0  0  0  0  0
  -21.5459  -39.5212   -9.3611 C   0  0  0  0  0  0  0  0  0  0  0  0
  -20.3733  -40.1674   -9.0859 C   0  0  0  0  0  0  0  0  0  0  0  0
  -19.2049  -39.5665   -9.5549 C   0  0  0  0  0  0  0  0  0  0  0  0
  -19.2978  -38.3510  -10.2758 C   0  0  0  0  0  0  0  0  0  0  0  0
  -20.4885  -37.7182  -10.5429 C   0  0  0  0  0  0  0  0  0  0  0  0
  -20.5415  -36.4366  -11.3049 C   0  0  0  0  0  0  0  0  0  0  0  0
  -21.5634  -38.3259  -10.0765 N   0  0  0  0  0  0  0  0  0  0  0  0
  -17.8015  -39.9546   -9.4233 C   0  0  0  0  0  0  0  0  0  0  0  0
  -17.0915  -39.8095  -10.5169 O   0  0  0  0  0  0  0  0  0  0  0  0
  -17.0415  -40.4584   -8.3471 N   0  0  0  0  0  0  0  0  0  0  0  0
  -19.4598  -42.1479   -6.1315 C   0  0  0  0  0  0  0  0  0  0  0  0
  -12.4307  -39.4990  -10.7150 C   0  0  0  0  0  0  0  0  0  0  0  0
  1  2  1  0
  2  3  1  0
  2  4  1  0
  4  5  2  0
  5  6  1  0
  6  7  2  0
  7  8  1  0
  8  9  1  0
  9 10  1  0
 10 11  1  0
 11 12  1  0
 12 13  1  1
 12 14  1  0
 14 15  1  1
 15 16  1  0
 16 17  1  0
 17 18  2  0
 18 19  1  0
 19 20  2  0
 20 21  1  0
 21 22  1  0
 22 23  1  0
 23 24  1  0
 24 25  1  0
 25 26  1  0
 26 27  1  0
 27 28  2  0
 28 29  1  0
 29 30  2  0
 30 31  1  0
 30 32  1  0
 28 33  1  0
 33 34  2  0
 33 35  1  0
 20 36  1  0
  8 37  2  0
 32 26  2  0
 35 14  1  0
 36 16  2  0
 37  4  1  0
M  END
$$$$
