
     RDKit          3D

 37 40  0  0  0  0  0  0  0  0999 V2000
  -12.9891  -43.7713  -10.9050 C   0  0  0  0  0  0  0  0  0  0  0  0
  -12.2377  -42.6342  -11.6083 C   0  0  0  0  0  0  0  0  0  0  0  0
  -10.9161  -42.3721  -10.9174 C   0  0  0  0  0  0  0  0  0  0  0  0
  -13.1291  -41.4606  -11.5687 C   0  0  0  0  0  0  0  0  0  0  0  0
  -14.2058  -41.4244  -12.4300 C   0  0  0  0  0  0  0  0  0  0  0  0
  -15.0817  -40.3558  -12.4512 C   0  0  0  0  0  0  0  0  0  0  0  0
  -14.8423  -39.3153  -11.5743 C   0  0  0  0  0  0  0  0  0  0  0  0
  -13.7802  -39.3153  -10.7015 C   0  0  0  0  0  0  0  0  0  0  0  0
  -13.4993  -38.2128   -9.7533 C   0  0  0  0  0  0  0  0  0  0  0  0
  -14.5737  -37.8948   -8.8812 N   0  0  0  0  0  0  0  0  0  0  0  0
  -15.6065  -38.9057   -8.7620 C   0  0  0  0  0  0  0  0  0  0  0  0
  -16.7579  -38.3185   -8.0972 C   0  0  1  0  0  0  0  0  0  0  0  0
  -17.1765  -37.1795   -8.8205 O   0  0  0  0  0  0  0  0  0  0  0  0
  -17.9972  -39.2009   -7.9450 C   0  0  2  0  0  0  0  0  0  0  0  0
  -18.9793  -38.3832   -7.1536 C   0  0  0  0  0  0  0  0  0  0  0  0
  -20.2984  -39.0157   -6.9429 C   0  0  0  0  0  0  0  0  0  0  0  0
  -20.9163  -39.1240   -8.2241 C   0  0  0  0  0  0  0  0  0  0  0  0
  -22.1381  -39.6700   -8.4384 C   0  0  0  0  0  0  0  0  0  0  0  0
  -22.7597  -40.1262   -7.2994 C   0  0  0  0  0  0  0  0  0  0  0  0
  -22.2193  -40.0564   -6.0025 C   0  0  0  0  0  0  0  0  0  0  0  0
  -23.1387  -40.6471   -5.0215 C   0  0  0  0  0  0  0  0  0  0  0  0
  -22.7766  -42.0577   -4.5388 C   0  0  0  0  0  0  0  0  0  0  0  0
  -23.3268  -43.1059   -5.4154 C   0  0  0  0  0  0  0  0  0  0  0  0
  -22.4306  -44.2398   -5.8050 C   0  0  0  0  0  0  0  0  0  0  0  0
  -21.9655  -44.2401   -7.2018 C   0  0  0  0  0  0  0  0  0  0  0  0
  -20.5459  -43.8196   -7.4824 C   0  0  0  0  0  0  0  0  0  0  0  0
  -19.8129  -42.7830   -6.9759 C   0  0  0  0  0  0  0  0  0  0  0  0
  -18.5253  -42.6207   -7.4877 C   0  0  0  0  0  0  0  0  0  0  0  0
  -18.0599  -43.5202   -8.4778 C   0  0  0  0  0  0  0  0  0  0  0  0
  -18.8138  -44.5578   -8.9726 C   0  0  0  0  0  0  0  0  0  0  0  0
  -18.2853  -45.4819  -10.0179 C   0  0  0  0  0  0  0  0  0  0  0  0
  -20.0242  -44.6670   -8.4574 N   0  0  0  0  0  0  0  0  0  0  0  0
  -17.4938  -41.6242   -7.2044 C   0  0  0  0  0  0  0  0  0  0  0  0
  -16.2802  -42.1114   -7.0991 O   0  0  0  0  0  0  0  0  0  0  0  0
  -17.5341  -40.2264   -7.0198 N   0  0  0  0  0  0  0  0  0  0  0  0
  -20.9500  -39.4803   -5.8426 C   0  0  0  0  0  0  0  0  0  0  0  0
  -12.9107  -40.3974  -10.6940 C   0  0  0  0  0  0  0  0  0  0  0  0
  1  2  1  0
  2  3  1  0
  2  4  1  0
  4  5  2  0
  5  6  1  0
  6  7  2  0
  7  8  1  0
  8  9  1  0
  9 10  1  0
 10 11  1  0
 11 12  1  0
 12 13  1  6
 12 14  1  0
 14 15  1  1
 15 16  1  0
 16 17  1  0
 17 18  2  0
 18 19  1  0
 19 20  2  0
 20 21  1  0
 21 22  1  0
 22 23  1  0
 23 24  1  0
 24 25  1  0
 25 26  1  0
 26 27  1  0
 27 28  2  0
 28 29  1  0
 29 30  2  0
 30 31  1  0
 30 32  1  0
 28 33  1  0
 33 34  2  0
 33 35  1  0
 20 36  1  0
  8 37  2  0
 32 26  2  0
 35 14  1  0
 36 16  2  0
 37  4  1  0
M  END
$$$$
