
     RDKit          3D

 37 40  0  0  0  0  0  0  0  0999 V2000
  -12.5252  -39.2950  -14.7145 C   0  0  0  0  0  0  0  0  0  0  0  0
  -13.5250  -38.3557  -14.0290 C   0  0  0  0  0  0  0  0  0  0  0  0
  -13.7176  -37.1009  -14.8544 C   0  0  0  0  0  0  0  0  0  0  0  0
  -12.9726  -38.0643  -12.6935 C   0  0  0  0  0  0  0  0  0  0  0  0
  -12.3966  -36.8301  -12.4762 C   0  0  0  0  0  0  0  0  0  0  0  0
  -11.8558  -36.4879  -11.2513 C   0  0  0  0  0  0  0  0  0  0  0  0
  -11.9111  -37.4301  -10.2423 C   0  0  0  0  0  0  0  0  0  0  0  0
  -12.4769  -38.6701  -10.4207 C   0  0  0  0  0  0  0  0  0  0  0  0
  -12.5473  -39.6989   -9.3576 C   0  0  0  0  0  0  0  0  0  0  0  0
  -13.5365  -39.4594   -8.3676 N   0  0  0  0  0  0  0  0  0  0  0  0
  -14.8883  -39.8449   -8.7240 C   0  0  0  0  0  0  0  0  0  0  0  0
  -15.8205  -39.0228   -7.9706 C   0  0  1  0  0  0  0  0  0  0  0  0
  -15.8969  -37.7456   -8.5696 O   0  0  0  0  0  0  0  0  0  0  0  0
  -17.2605  -39.5254   -7.8632 C   0  0  2  0  0  0  0  0  0  0  0  0
  -18.0263  -38.4154   -7.1993 C   0  0  0  0  0  0  0  0  0  0  0  0
  -19.4780  -38.6522   -7.0544 C   0  0  0  0  0  0  0  0  0  0  0  0
  -20.0260  -38.6894   -8.3709 C   0  0  0  0  0  0  0  0  0  0  0  0
  -21.3358  -38.9022   -8.6466 C   0  0  0  0  0  0  0  0  0  0  0  0
  -22.1238  -39.0852   -7.5344 C   0  0  0  0  0  0  0  0  0  0  0  0
  -21.6616  -39.0629   -6.2058 C   0  0  0  0  0  0  0  0  0  0  0  0
  -22.7632  -39.3073   -5.2659 C   0  0  0  0  0  0  0  0  0  0  0  0
  -22.8292  -40.7216   -4.6748 C   0  0  0  0  0  0  0  0  0  0  0  0
  -23.5926  -41.6481   -5.5284 C   0  0  0  0  0  0  0  0  0  0  0  0
  -23.0191  -43.0077   -5.7805 C   0  0  0  0  0  0  0  0  0  0  0  0
  -22.4909  -43.2409   -7.1348 C   0  0  0  0  0  0  0  0  0  0  0  0
  -20.9966  -43.2400   -7.3290 C   0  0  0  0  0  0  0  0  0  0  0  0
  -20.0392  -42.4023   -6.8291 C   0  0  0  0  0  0  0  0  0  0  0  0
  -18.7286  -42.6319   -7.2484 C   0  0  0  0  0  0  0  0  0  0  0  0
  -18.4697  -43.6971   -8.1452 C   0  0  0  0  0  0  0  0  0  0  0  0
  -19.4481  -44.5292   -8.6351 C   0  0  0  0  0  0  0  0  0  0  0  0
  -19.1320  -45.6393   -9.5805 C   0  0  0  0  0  0  0  0  0  0  0  0
  -20.6702  -44.2692   -8.2095 N   0  0  0  0  0  0  0  0  0  0  0  0
  -17.4825  -41.9301   -6.9451 C   0  0  0  0  0  0  0  0  0  0  0  0
  -16.4565  -42.7156   -6.7181 O   0  0  0  0  0  0  0  0  0  0  0  0
  -17.1500  -40.5628   -6.8464 N   0  0  0  0  0  0  0  0  0  0  0  0
  -20.2949  -38.8382   -5.9825 C   0  0  0  0  0  0  0  0  0  0  0  0
  -13.0154  -38.9964  -11.6579 C   0  0  0  0  0  0  0  0  0  0  0  0
  1  2  1  0
  2  3  1  0
  2  4  1  0
  4  5  2  0
  5  6  1  0
  6  7  2  0
  7  8  1  0
  8  9  1  0
  9 10  1  0
 10 11  1  0
 11 12  1  0
 12 13  1  6
 12 14  1  0
 14 15  1  1
 15 16  1  0
 16 17  1  0
 17 18  2  0
 18 19  1  0
 19 20  2  0
 20 21  1  0
 21 22  1  0
 22 23  1  0
 23 24  1  0
 24 25  1  0
 25 26  1  0
 26 27  1  0
 27 28  2  0
 28 29  1  0
 29 30  2  0
 30 31  1  0
 30 32  1  0
 28 33  1  0
 33 34  2  0
 33 35  1  0
 20 36  1  0
  8 37  2  0
 32 26  2  0
 35 14  1  0
 36 16  2  0
 37  4  1  0
M  END
$$$$
