
     RDKit          3D

 37 40  0  0  0  0  0  0  0  0999 V2000
  -10.8404  -34.6410  -11.1622 C   0  0  0  0  0  0  0  0  0  0  0  0
  -11.1871  -35.6810  -12.2347 C   0  0  0  0  0  0  0  0  0  0  0  0
  -11.4706  -34.9981  -13.5561 C   0  0  0  0  0  0  0  0  0  0  0  0
  -12.3561  -36.4242  -11.7299 C   0  0  0  0  0  0  0  0  0  0  0  0
  -13.5015  -36.4468  -12.4980 C   0  0  0  0  0  0  0  0  0  0  0  0
  -14.6364  -37.1202  -12.0877 C   0  0  0  0  0  0  0  0  0  0  0  0
  -14.5867  -37.7758  -10.8725 C   0  0  0  0  0  0  0  0  0  0  0  0
  -13.4638  -37.7759  -10.0795 C   0  0  0  0  0  0  0  0  0  0  0  0
  -13.3842  -38.4681   -8.7725 C   0  0  0  0  0  0  0  0  0  0  0  0
  -14.1023  -39.6912   -8.7065 N   0  0  0  0  0  0  0  0  0  0  0  0
  -15.4530  -39.6560   -9.2333 C   0  0  0  0  0  0  0  0  0  0  0  0
  -16.3098  -38.9820   -8.2721 C   0  0  1  0  0  0  0  0  0  0  0  0
  -16.5453  -37.6603   -8.7119 O   0  0  0  0  0  0  0  0  0  0  0  0
  -17.6878  -39.5948   -8.0201 C   0  0  2  0  0  0  0  0  0  0  0  0
  -18.4793  -38.5299   -7.3138 C   0  0  0  0  0  0  0  0  0  0  0  0
  -19.8874  -38.8777   -7.0295 C   0  0  0  0  0  0  0  0  0  0  0  0
  -20.5474  -38.9988   -8.2883 C   0  0  0  0  0  0  0  0  0  0  0  0
  -21.8547  -39.3241   -8.4364 C   0  0  0  0  0  0  0  0  0  0  0  0
  -22.5211  -39.5355   -7.2519 C   0  0  0  0  0  0  0  0  0  0  0  0
  -21.9439  -39.4358   -5.9728 C   0  0  0  0  0  0  0  0  0  0  0  0
  -22.9319  -39.7387   -4.9294 C   0  0  0  0  0  0  0  0  0  0  0  0
  -22.8271  -41.1350   -4.3023 C   0  0  0  0  0  0  0  0  0  0  0  0
  -23.5856  -42.1453   -5.0598 C   0  0  0  0  0  0  0  0  0  0  0  0
  -22.9271  -43.4616   -5.3326 C   0  0  0  0  0  0  0  0  0  0  0  0
  -22.5063  -43.6931   -6.7243 C   0  0  0  0  0  0  0  0  0  0  0  0
  -21.0409  -43.5785   -7.0563 C   0  0  0  0  0  0  0  0  0  0  0  0
  -20.1146  -42.6520   -6.6667 C   0  0  0  0  0  0  0  0  0  0  0  0
  -18.8328  -42.7886   -7.2004 C   0  0  0  0  0  0  0  0  0  0  0  0
  -18.5692  -43.8566   -8.0925 C   0  0  0  0  0  0  0  0  0  0  0  0
  -19.5159  -44.7789   -8.4702 C   0  0  0  0  0  0  0  0  0  0  0  0
  -19.1962  -45.8884   -9.4150 C   0  0  0  0  0  0  0  0  0  0  0  0
  -20.7117  -44.6047   -7.9392 N   0  0  0  0  0  0  0  0  0  0  0  0
  -17.6265  -41.9804   -7.0302 C   0  0  0  0  0  0  0  0  0  0  0  0
  -16.5229  -42.6739   -6.8812 O   0  0  0  0  0  0  0  0  0  0  0  0
  -17.4005  -40.5885   -6.9943 N   0  0  0  0  0  0  0  0  0  0  0  0
  -20.5858  -39.0956   -5.8824 C   0  0  0  0  0  0  0  0  0  0  0  0
  -12.3329  -37.0943  -10.5079 C   0  0  0  0  0  0  0  0  0  0  0  0
  1  2  1  0
  2  3  1  0
  2  4  1  0
  4  5  2  0
  5  6  1  0
  6  7  2  0
  7  8  1  0
  8  9  1  0
  9 10  1  0
 10 11  1  0
 11 12  1  0
 12 13  1  6
 12 14  1  0
 14 15  1  1
 15 16  1  0
 16 17  1  0
 17 18  2  0
 18 19  1  0
 19 20  2  0
 20 21  1  0
 21 22  1  0
 22 23  1  0
 23 24  1  0
 24 25  1  0
 25 26  1  0
 26 27  1  0
 27 28  2  0
 28 29  1  0
 29 30  2  0
 30 31  1  0
 30 32  1  0
 28 33  1  0
 33 34  2  0
 33 35  1  0
 20 36  1  0
  8 37  2  0
 32 26  2  0
 35 14  1  0
 36 16  2  0
 37  4  1  0
M  END
$$$$
