
     RDKit          3D

 37 40  0  0  0  0  0  0  0  0999 V2000
   -9.8550  -41.1812   -9.2006 C   0  0  0  0  0  0  0  0  0  0  0  0
  -11.2409  -41.6798   -8.7733 C   0  0  0  0  0  0  0  0  0  0  0  0
  -11.2688  -43.1935   -8.7455 C   0  0  0  0  0  0  0  0  0  0  0  0
  -12.2002  -41.1231   -9.7447 C   0  0  0  0  0  0  0  0  0  0  0  0
  -12.6707  -41.9447  -10.7476 C   0  0  0  0  0  0  0  0  0  0  0  0
  -13.5689  -41.4912  -11.6949 C   0  0  0  0  0  0  0  0  0  0  0  0
  -13.9843  -40.1765  -11.6044 C   0  0  0  0  0  0  0  0  0  0  0  0
  -13.5378  -39.3277  -10.6196 C   0  0  0  0  0  0  0  0  0  0  0  0
  -13.9648  -37.9145  -10.5009 C   0  0  0  0  0  0  0  0  0  0  0  0
  -15.3679  -37.7121  -10.5797 N   0  0  0  0  0  0  0  0  0  0  0  0
  -16.1885  -38.8463  -10.2012 C   0  0  0  0  0  0  0  0  0  0  0  0
  -16.6969  -38.6250   -8.8577 C   0  0  1  0  0  0  0  0  0  0  0  0
  -17.0049  -37.2552   -8.7012 O   0  0  0  0  0  0  0  0  0  0  0  0
  -17.9589  -39.3899   -8.4576 C   0  0  2  0  0  0  0  0  0  0  0  0
  -18.7580  -38.4359   -7.6144 C   0  0  0  0  0  0  0  0  0  0  0  0
  -20.0731  -38.9414   -7.1679 C   0  0  0  0  0  0  0  0  0  0  0  0
  -20.8755  -39.1001   -8.3366 C   0  0  0  0  0  0  0  0  0  0  0  0
  -22.1500  -39.5609   -8.3305 C   0  0  0  0  0  0  0  0  0  0  0  0
  -22.6304  -39.8744   -7.0805 C   0  0  0  0  0  0  0  0  0  0  0  0
  -21.9048  -39.7466   -5.8820 C   0  0  0  0  0  0  0  0  0  0  0  0
  -22.7113  -40.1822   -4.7347 C   0  0  0  0  0  0  0  0  0  0  0  0
  -22.3811  -41.5750   -4.1825 C   0  0  0  0  0  0  0  0  0  0  0  0
  -23.1227  -42.6411   -4.8775 C   0  0  0  0  0  0  0  0  0  0  0  0
  -22.3722  -43.8708   -5.2843 C   0  0  0  0  0  0  0  0  0  0  0  0
  -22.1148  -44.0185   -6.7263 C   0  0  0  0  0  0  0  0  0  0  0  0
  -20.7251  -43.7372   -7.2367 C   0  0  0  0  0  0  0  0  0  0  0  0
  -19.8573  -42.7265   -6.9310 C   0  0  0  0  0  0  0  0  0  0  0  0
  -18.6490  -42.7093   -7.6281 C   0  0  0  0  0  0  0  0  0  0  0  0
  -18.3944  -43.7186   -8.5886 C   0  0  0  0  0  0  0  0  0  0  0  0
  -19.2813  -44.7276   -8.8798 C   0  0  0  0  0  0  0  0  0  0  0  0
  -18.9740  -45.7708   -9.9013 C   0  0  0  0  0  0  0  0  0  0  0  0
  -20.4092  -44.6980   -8.1948 N   0  0  0  0  0  0  0  0  0  0  0  0
  -17.5214  -41.7801   -7.5801 C   0  0  0  0  0  0  0  0  0  0  0  0
  -16.3417  -42.3537   -7.6004 O   0  0  0  0  0  0  0  0  0  0  0  0
  -17.4385  -40.3733   -7.5173 N   0  0  0  0  0  0  0  0  0  0  0  0
  -20.5893  -39.2639   -5.9511 C   0  0  0  0  0  0  0  0  0  0  0  0
  -12.6358  -39.8007   -9.6764 C   0  0  0  0  0  0  0  0  0  0  0  0
  1  2  1  0
  2  3  1  0
  2  4  1  0
  4  5  2  0
  5  6  1  0
  6  7  2  0
  7  8  1  0
  8  9  1  0
  9 10  1  0
 10 11  1  0
 11 12  1  0
 12 13  1  6
 12 14  1  0
 14 15  1  1
 15 16  1  0
 16 17  1  0
 17 18  2  0
 18 19  1  0
 19 20  2  0
 20 21  1  0
 21 22  1  0
 22 23  1  0
 23 24  1  0
 24 25  1  0
 25 26  1  0
 26 27  1  0
 27 28  2  0
 28 29  1  0
 29 30  2  0
 30 31  1  0
 30 32  1  0
 28 33  1  0
 33 34  2  0
 33 35  1  0
 20 36  1  0
  8 37  2  0
 32 26  2  0
 35 14  1  0
 36 16  2  0
 37  4  1  0
M  END
$$$$
