
     RDKit          3D

 37 40  0  0  0  0  0  0  0  0999 V2000
  -12.5203  -39.6839  -14.3647 C   0  0  0  0  0  0  0  0  0  0  0  0
  -13.6928  -40.6476  -14.1444 C   0  0  0  0  0  0  0  0  0  0  0  0
  -15.0071  -39.9461  -14.4153 C   0  0  0  0  0  0  0  0  0  0  0  0
  -13.5888  -41.1164  -12.7505 C   0  0  0  0  0  0  0  0  0  0  0  0
  -13.6436  -42.4731  -12.5082 C   0  0  0  0  0  0  0  0  0  0  0  0
  -13.5557  -42.9850  -11.2276 C   0  0  0  0  0  0  0  0  0  0  0  0
  -13.4100  -42.0863  -10.1883 C   0  0  0  0  0  0  0  0  0  0  0  0
  -13.3515  -40.7278  -10.3902 C   0  0  0  0  0  0  0  0  0  0  0  0
  -13.1982  -39.7429   -9.2948 C   0  0  0  0  0  0  0  0  0  0  0  0
  -14.3536  -39.5716   -8.4876 N   0  0  0  0  0  0  0  0  0  0  0  0
  -15.4532  -38.8580   -9.1079 C   0  0  0  0  0  0  0  0  0  0  0  0
  -16.3868  -38.4501   -8.0714 C   0  0  1  0  0  0  0  0  0  0  0  0
  -16.7518  -37.1021   -8.2843 O   0  0  0  0  0  0  0  0  0  0  0  0
  -17.6972  -39.2313   -7.9699 C   0  0  2  0  0  0  0  0  0  0  0  0
  -18.6197  -38.3669   -7.1566 C   0  0  0  0  0  0  0  0  0  0  0  0
  -19.9897  -38.8950   -6.9873 C   0  0  0  0  0  0  0  0  0  0  0  0
  -20.5954  -38.8997   -8.2788 C   0  0  0  0  0  0  0  0  0  0  0  0
  -21.8550  -39.3327   -8.5293 C   0  0  0  0  0  0  0  0  0  0  0  0
  -22.5291  -39.7807   -7.4174 C   0  0  0  0  0  0  0  0  0  0  0  0
  -22.0040  -39.8086   -6.1126 C   0  0  0  0  0  0  0  0  0  0  0  0
  -22.9837  -40.3593   -5.1674 C   0  0  0  0  0  0  0  0  0  0  0  0
  -22.7472  -41.8135   -4.7392 C   0  0  0  0  0  0  0  0  0  0  0  0
  -23.3694  -42.7760   -5.6645 C   0  0  0  0  0  0  0  0  0  0  0  0
  -22.5647  -43.9642   -6.0904 C   0  0  0  0  0  0  0  0  0  0  0  0
  -22.0806  -43.9472   -7.4807 C   0  0  0  0  0  0  0  0  0  0  0  0
  -20.6270  -43.6358   -7.7275 C   0  0  0  0  0  0  0  0  0  0  0  0
  -19.8182  -42.6853   -7.1703 C   0  0  0  0  0  0  0  0  0  0  0  0
  -18.5140  -42.6107   -7.6603 C   0  0  0  0  0  0  0  0  0  0  0  0
  -18.1104  -43.5054   -8.6813 C   0  0  0  0  0  0  0  0  0  0  0  0
  -18.9403  -44.4556   -9.2270 C   0  0  0  0  0  0  0  0  0  0  0  0
  -18.4749  -45.3778  -10.3035 C   0  0  0  0  0  0  0  0  0  0  0  0
  -20.1631  -44.4839   -8.7306 N   0  0  0  0  0  0  0  0  0  0  0  0
  -17.4077  -41.7160   -7.3243 C   0  0  0  0  0  0  0  0  0  0  0  0
  -16.2404  -42.3067   -7.2254 O   0  0  0  0  0  0  0  0  0  0  0  0
  -17.3345  -40.3282   -7.0826 N   0  0  0  0  0  0  0  0  0  0  0  0
  -20.6938  -39.3473   -5.9146 C   0  0  0  0  0  0  0  0  0  0  0  0
  -13.4412  -40.2315  -11.6836 C   0  0  0  0  0  0  0  0  0  0  0  0
  1  2  1  0
  2  3  1  0
  2  4  1  0
  4  5  2  0
  5  6  1  0
  6  7  2  0
  7  8  1  0
  8  9  1  0
  9 10  1  0
 10 11  1  0
 11 12  1  0
 12 13  1  6
 12 14  1  0
 14 15  1  1
 15 16  1  0
 16 17  1  0
 17 18  2  0
 18 19  1  0
 19 20  2  0
 20 21  1  0
 21 22  1  0
 22 23  1  0
 23 24  1  0
 24 25  1  0
 25 26  1  0
 26 27  1  0
 27 28  2  0
 28 29  1  0
 29 30  2  0
 30 31  1  0
 30 32  1  0
 28 33  1  0
 33 34  2  0
 33 35  1  0
 20 36  1  0
  8 37  2  0
 32 26  2  0
 35 14  1  0
 36 16  2  0
 37  4  1  0
M  END
$$$$
