
     RDKit          3D

 37 40  0  0  0  0  0  0  0  0999 V2000
  -12.8652  -39.0073  -14.1878 C   0  0  0  0  0  0  0  0  0  0  0  0
  -12.5016  -37.5216  -14.0751 C   0  0  0  0  0  0  0  0  0  0  0  0
  -10.9996  -37.3421  -14.1411 C   0  0  0  0  0  0  0  0  0  0  0  0
  -13.0626  -37.0528  -12.7948 C   0  0  0  0  0  0  0  0  0  0  0  0
  -13.5771  -35.7746  -12.7321 C   0  0  0  0  0  0  0  0  0  0  0  0
  -14.1163  -35.2665  -11.5655 C   0  0  0  0  0  0  0  0  0  0  0  0
  -14.1236  -36.0871  -10.4540 C   0  0  0  0  0  0  0  0  0  0  0  0
  -13.6202  -37.3660  -10.4776 C   0  0  0  0  0  0  0  0  0  0  0  0
  -13.6135  -38.2654   -9.3009 C   0  0  0  0  0  0  0  0  0  0  0  0
  -14.8686  -38.8583   -9.0026 N   0  0  0  0  0  0  0  0  0  0  0  0
  -15.8827  -38.7340  -10.0318 C   0  0  0  0  0  0  0  0  0  0  0  0
  -17.0323  -38.0436   -9.4714 C   0  0  1  0  0  0  0  0  0  0  0  0
  -17.6041  -37.2185  -10.4654 O   0  0  0  0  0  0  0  0  0  0  0  0
  -18.1715  -38.9118   -8.9366 C   0  0  2  0  0  0  0  0  0  0  0  0
  -19.0683  -37.9760   -8.1754 C   0  0  0  0  0  0  0  0  0  0  0  0
  -20.2933  -38.5903   -7.6218 C   0  0  0  0  0  0  0  0  0  0  0  0
  -21.0968  -38.9870   -8.7318 C   0  0  0  0  0  0  0  0  0  0  0  0
  -22.2986  -39.6038   -8.6221 C   0  0  0  0  0  0  0  0  0  0  0  0
  -22.7018  -39.8273   -7.3263 C   0  0  0  0  0  0  0  0  0  0  0  0
  -21.9696  -39.4673   -6.1803 C   0  0  0  0  0  0  0  0  0  0  0  0
  -22.6822  -39.8649   -4.9594 C   0  0  0  0  0  0  0  0  0  0  0  0
  -22.1569  -41.1291   -4.2668 C   0  0  0  0  0  0  0  0  0  0  0  0
  -22.7682  -42.3559   -4.8061 C   0  0  0  0  0  0  0  0  0  0  0  0
  -21.8721  -43.5182   -5.1009 C   0  0  0  0  0  0  0  0  0  0  0  0
  -21.6337  -43.8002   -6.5261 C   0  0  0  0  0  0  0  0  0  0  0  0
  -20.3067  -43.4046   -7.1206 C   0  0  0  0  0  0  0  0  0  0  0  0
  -19.5728  -42.2619   -6.9666 C   0  0  0  0  0  0  0  0  0  0  0  0
  -18.3953  -42.1717   -7.7093 C   0  0  0  0  0  0  0  0  0  0  0  0
  -18.0337  -43.2457   -8.5588 C   0  0  0  0  0  0  0  0  0  0  0  0
  -18.7863  -44.3876   -8.6978 C   0  0  0  0  0  0  0  0  0  0  0  0
  -18.3695  -45.4954   -9.6061 C   0  0  0  0  0  0  0  0  0  0  0  0
  -19.8906  -44.4228   -7.9756 N   0  0  0  0  0  0  0  0  0  0  0  0
  -17.3997  -41.1061   -7.8123 C   0  0  0  0  0  0  0  0  0  0  0  0
  -16.1554  -41.5218   -7.8150 O   0  0  0  0  0  0  0  0  0  0  0  0
  -17.5021  -39.7028   -7.9128 N   0  0  0  0  0  0  0  0  0  0  0  0
  -20.7316  -38.8310   -6.3566 C   0  0  0  0  0  0  0  0  0  0  0  0
  -13.0826  -37.8599  -11.6584 C   0  0  0  0  0  0  0  0  0  0  0  0
  1  2  1  0
  2  3  1  0
  2  4  1  0
  4  5  2  0
  5  6  1  0
  6  7  2  0
  7  8  1  0
  8  9  1  0
  9 10  1  0
 10 11  1  0
 11 12  1  0
 12 13  1  6
 12 14  1  0
 14 15  1  1
 15 16  1  0
 16 17  1  0
 17 18  2  0
 18 19  1  0
 19 20  2  0
 20 21  1  0
 21 22  1  0
 22 23  1  0
 23 24  1  0
 24 25  1  0
 25 26  1  0
 26 27  1  0
 27 28  2  0
 28 29  1  0
 29 30  2  0
 30 31  1  0
 30 32  1  0
 28 33  1  0
 33 34  2  0
 33 35  1  0
 20 36  1  0
  8 37  2  0
 32 26  2  0
 35 14  1  0
 36 16  2  0
 37  4  1  0
M  END
$$$$
