
     RDKit          3D

 37 40  0  0  0  0  0  0  0  0999 V2000
  -12.0602  -42.4154   -8.6854 C   0  0  0  0  0  0  0  0  0  0  0  0
  -12.1277  -42.5392  -10.2126 C   0  0  0  0  0  0  0  0  0  0  0  0
  -10.7414  -42.7488  -10.7843 C   0  0  0  0  0  0  0  0  0  0  0  0
  -12.7500  -41.2958  -10.7029 C   0  0  0  0  0  0  0  0  0  0  0  0
  -13.2085  -41.2594  -12.0032 C   0  0  0  0  0  0  0  0  0  0  0  0
  -13.7998  -40.1278  -12.5321 C   0  0  0  0  0  0  0  0  0  0  0  0
  -13.9179  -39.0241  -11.7094 C   0  0  0  0  0  0  0  0  0  0  0  0
  -13.4731  -39.0223  -10.4086 C   0  0  0  0  0  0  0  0  0  0  0  0
  -13.5851  -37.8531   -9.5064 C   0  0  0  0  0  0  0  0  0  0  0  0
  -14.8836  -37.2829   -9.4359 N   0  0  0  0  0  0  0  0  0  0  0  0
  -15.9870  -38.2184   -9.5380 C   0  0  0  0  0  0  0  0  0  0  0  0
  -16.8789  -38.0108   -8.4094 C   0  0  1  0  0  0  0  0  0  0  0  0
  -17.4731  -36.7339   -8.5203 O   0  0  0  0  0  0  0  0  0  0  0  0
  -18.0326  -39.0004   -8.2443 C   0  0  2  0  0  0  0  0  0  0  0  0
  -18.9299  -38.4022   -7.1971 C   0  0  0  0  0  0  0  0  0  0  0  0
  -20.1673  -39.1619   -6.9209 C   0  0  0  0  0  0  0  0  0  0  0  0
  -20.9607  -39.1077   -8.1052 C   0  0  0  0  0  0  0  0  0  0  0  0
  -22.1695  -39.7054   -8.2419 C   0  0  0  0  0  0  0  0  0  0  0  0
  -22.5905  -40.3885   -7.1249 C   0  0  0  0  0  0  0  0  0  0  0  0
  -21.8691  -40.4891   -5.9213 C   0  0  0  0  0  0  0  0  0  0  0  0
  -22.6003  -41.3021   -4.9410 C   0  0  0  0  0  0  0  0  0  0  0  0
  -22.0952  -42.7398   -4.7631 C   0  0  0  0  0  0  0  0  0  0  0  0
  -22.7113  -43.6707   -5.7241 C   0  0  0  0  0  0  0  0  0  0  0  0
  -21.8224  -44.6522   -6.4222 C   0  0  0  0  0  0  0  0  0  0  0  0
  -21.5692  -44.3882   -7.8483 C   0  0  0  0  0  0  0  0  0  0  0  0
  -20.2315  -43.8178   -8.2430 C   0  0  0  0  0  0  0  0  0  0  0  0
  -19.4889  -42.8236   -7.6699 C   0  0  0  0  0  0  0  0  0  0  0  0
  -18.3016  -42.4797   -8.3167 C   0  0  0  0  0  0  0  0  0  0  0  0
  -17.9396  -43.1664   -9.5013 C   0  0  0  0  0  0  0  0  0  0  0  0
  -18.7010  -44.1651  -10.0603 C   0  0  0  0  0  0  0  0  0  0  0  0
  -18.2834  -44.8621  -11.3116 C   0  0  0  0  0  0  0  0  0  0  0  0
  -19.8144  -44.4513   -9.4115 N   0  0  0  0  0  0  0  0  0  0  0  0
  -17.2950  -41.4652   -8.0089 C   0  0  0  0  0  0  0  0  0  0  0  0
  -16.0546  -41.8665   -8.1558 O   0  0  0  0  0  0  0  0  0  0  0  0
  -17.3832  -40.1236   -7.5820 N   0  0  0  0  0  0  0  0  0  0  0  0
  -20.6232  -39.8492   -5.8390 C   0  0  0  0  0  0  0  0  0  0  0  0
  -12.8819  -40.1680   -9.8942 C   0  0  0  0  0  0  0  0  0  0  0  0
  1  2  1  0
  2  3  1  0
  2  4  1  0
  4  5  2  0
  5  6  1  0
  6  7  2  0
  7  8  1  0
  8  9  1  0
  9 10  1  0
 10 11  1  0
 11 12  1  0
 12 13  1  6
 12 14  1  0
 14 15  1  1
 15 16  1  0
 16 17  1  0
 17 18  2  0
 18 19  1  0
 19 20  2  0
 20 21  1  0
 21 22  1  0
 22 23  1  0
 23 24  1  0
 24 25  1  0
 25 26  1  0
 26 27  1  0
 27 28  2  0
 28 29  1  0
 29 30  2  0
 30 31  1  0
 30 32  1  0
 28 33  1  0
 33 34  2  0
 33 35  1  0
 20 36  1  0
  8 37  2  0
 32 26  2  0
 35 14  1  0
 36 16  2  0
 37  4  1  0
M  END
$$$$
