
     RDKit          3D

 37 40  0  0  0  0  0  0  0  0999 V2000
  -10.5521  -37.5912  -13.1662 C   0  0  0  0  0  0  0  0  0  0  0  0
  -11.6407  -36.5590  -13.4848 C   0  0  0  0  0  0  0  0  0  0  0  0
  -11.0196  -35.2010  -13.7353 C   0  0  0  0  0  0  0  0  0  0  0  0
  -12.5544  -36.5485  -12.3278 C   0  0  0  0  0  0  0  0  0  0  0  0
  -13.4408  -35.4994  -12.2006 C   0  0  0  0  0  0  0  0  0  0  0  0
  -14.3245  -35.4213  -11.1410 C   0  0  0  0  0  0  0  0  0  0  0  0
  -14.2914  -36.4367  -10.2046 C   0  0  0  0  0  0  0  0  0  0  0  0
  -13.4226  -37.4980  -10.2973 C   0  0  0  0  0  0  0  0  0  0  0  0
  -13.3646  -38.5978   -9.3071 C   0  0  0  0  0  0  0  0  0  0  0  0
  -14.1540  -39.7314   -9.6355 N   0  0  0  0  0  0  0  0  0  0  0  0
  -15.2784  -39.9899   -8.7570 C   0  0  0  0  0  0  0  0  0  0  0  0
  -16.4467  -39.3031   -9.2822 C   0  0  1  0  0  0  0  0  0  0  0  0
  -16.5219  -39.5214  -10.6760 O   0  0  0  0  0  0  0  0  0  0  0  0
  -17.8067  -39.7135   -8.7167 C   0  0  2  0  0  0  0  0  0  0  0  0
  -18.5527  -38.4285   -8.4889 C   0  0  0  0  0  0  0  0  0  0  0  0
  -19.9407  -38.5846   -8.0056 C   0  0  0  0  0  0  0  0  0  0  0  0
  -20.6772  -39.2122   -9.0538 C   0  0  0  0  0  0  0  0  0  0  0  0
  -21.9913  -39.5345   -8.9761 C   0  0  0  0  0  0  0  0  0  0  0  0
  -22.5833  -39.2040   -7.7794 C   0  0  0  0  0  0  0  0  0  0  0  0
  -21.9283  -38.5850   -6.6992 C   0  0  0  0  0  0  0  0  0  0  0  0
  -22.8500  -38.3888   -5.5730 C   0  0  0  0  0  0  0  0  0  0  0  0
  -22.7074  -39.3878   -4.4174 C   0  0  0  0  0  0  0  0  0  0  0  0
  -23.5116  -40.6038   -4.6284 C   0  0  0  0  0  0  0  0  0  0  0  0
  -22.8717  -41.9281   -4.3502 C   0  0  0  0  0  0  0  0  0  0  0  0
  -22.5377  -42.7409   -5.5315 C   0  0  0  0  0  0  0  0  0  0  0  0
  -21.0954  -42.8175   -5.9616 C   0  0  0  0  0  0  0  0  0  0  0  0
  -20.1465  -41.8384   -6.0564 C   0  0  0  0  0  0  0  0  0  0  0  0
  -18.9002  -42.2232   -6.5514 C   0  0  0  0  0  0  0  0  0  0  0  0
  -18.6926  -43.5758   -6.9162 C   0  0  0  0  0  0  0  0  0  0  0  0
  -19.6611  -44.5456   -6.8114 C   0  0  0  0  0  0  0  0  0  0  0  0
  -19.4008  -45.9598   -7.2092 C   0  0  0  0  0  0  0  0  0  0  0  0
  -20.8218  -44.1302   -6.3397 N   0  0  0  0  0  0  0  0  0  0  0  0
  -17.6854  -41.4519   -6.8094 C   0  0  0  0  0  0  0  0  0  0  0  0
  -16.5749  -42.0453   -6.4407 O   0  0  0  0  0  0  0  0  0  0  0  0
  -17.4570  -40.1836   -7.3830 N   0  0  0  0  0  0  0  0  0  0  0  0
  -20.5670  -38.2750   -6.8382 C   0  0  0  0  0  0  0  0  0  0  0  0
  -12.5421  -37.5600  -11.3687 C   0  0  0  0  0  0  0  0  0  0  0  0
  1  2  1  0
  2  3  1  0
  2  4  1  0
  4  5  2  0
  5  6  1  0
  6  7  2  0
  7  8  1  0
  8  9  1  0
  9 10  1  0
 10 11  1  0
 11 12  1  0
 12 13  1  6
 12 14  1  0
 14 15  1  1
 15 16  1  0
 16 17  1  0
 17 18  2  0
 18 19  1  0
 19 20  2  0
 20 21  1  0
 21 22  1  0
 22 23  1  0
 23 24  1  0
 24 25  1  0
 25 26  1  0
 26 27  1  0
 27 28  2  0
 28 29  1  0
 29 30  2  0
 30 31  1  0
 30 32  1  0
 28 33  1  0
 33 34  2  0
 33 35  1  0
 20 36  1  0
  8 37  2  0
 32 26  2  0
 35 14  1  0
 36 16  2  0
 37  4  1  0
M  END
$$$$
