
     RDKit          3D

 37 40  0  0  0  0  0  0  0  0999 V2000
  -10.9273  -42.7499   -9.9335 C   0  0  0  0  0  0  0  0  0  0  0  0
  -11.0290  -42.4275  -11.4294 C   0  0  0  0  0  0  0  0  0  0  0  0
   -9.7487  -41.7817  -11.9157 C   0  0  0  0  0  0  0  0  0  0  0  0
  -12.1948  -41.5384  -11.5843 C   0  0  0  0  0  0  0  0  0  0  0  0
  -13.1584  -41.8747  -12.5121 C   0  0  0  0  0  0  0  0  0  0  0  0
  -14.2764  -41.0879  -12.7140 C   0  0  0  0  0  0  0  0  0  0  0  0
  -14.3991  -39.9432  -11.9501 C   0  0  0  0  0  0  0  0  0  0  0  0
  -13.4600  -39.5752  -11.0161 C   0  0  0  0  0  0  0  0  0  0  0  0
  -13.5657  -38.3531  -10.1860 C   0  0  0  0  0  0  0  0  0  0  0  0
  -14.8948  -37.9652   -9.8712 N   0  0  0  0  0  0  0  0  0  0  0  0
  -15.5596  -38.7641   -8.8599 C   0  0  0  0  0  0  0  0  0  0  0  0
  -16.7930  -38.0975   -8.4769 C   0  0  1  0  0  0  0  0  0  0  0  0
  -17.1738  -37.2065   -9.5050 O   0  0  0  0  0  0  0  0  0  0  0  0
  -18.0102  -38.9849   -8.2150 C   0  0  2  0  0  0  0  0  0  0  0  0
  -18.9851  -38.1207   -7.4651 C   0  0  0  0  0  0  0  0  0  0  0  0
  -20.2852  -38.7557   -7.1633 C   0  0  0  0  0  0  0  0  0  0  0  0
  -20.9370  -38.9810   -8.4121 C   0  0  0  0  0  0  0  0  0  0  0  0
  -22.1536  -39.5636   -8.5437 C   0  0  0  0  0  0  0  0  0  0  0  0
  -22.7337  -39.9335   -7.3528 C   0  0  0  0  0  0  0  0  0  0  0  0
  -22.1581  -39.7466   -6.0828 C   0  0  0  0  0  0  0  0  0  0  0  0
  -23.0376  -40.2689   -5.0292 C   0  0  0  0  0  0  0  0  0  0  0  0
  -22.6348  -41.6279   -4.4422 C   0  0  0  0  0  0  0  0  0  0  0  0
  -23.1893  -42.7547   -5.2120 C   0  0  0  0  0  0  0  0  0  0  0  0
  -22.2827  -43.9019   -5.5329 C   0  0  0  0  0  0  0  0  0  0  0  0
  -21.8575  -44.0109   -6.9382 C   0  0  0  0  0  0  0  0  0  0  0  0
  -20.4548  -43.5913   -7.2950 C   0  0  0  0  0  0  0  0  0  0  0  0
  -19.7280  -42.5038   -6.8984 C   0  0  0  0  0  0  0  0  0  0  0  0
  -18.4588  -42.3631   -7.4601 C   0  0  0  0  0  0  0  0  0  0  0  0
  -18.0045  -43.3341   -8.3857 C   0  0  0  0  0  0  0  0  0  0  0  0
  -18.7518  -44.4219   -8.7699 C   0  0  0  0  0  0  0  0  0  0  0  0
  -18.2354  -45.4210   -9.7503 C   0  0  0  0  0  0  0  0  0  0  0  0
  -19.9448  -44.5082   -8.2115 N   0  0  0  0  0  0  0  0  0  0  0  0
  -17.4391  -41.3291   -7.2914 C   0  0  0  0  0  0  0  0  0  0  0  0
  -16.2139  -41.7851   -7.1824 O   0  0  0  0  0  0  0  0  0  0  0  0
  -17.5012  -39.9216   -7.2222 N   0  0  0  0  0  0  0  0  0  0  0  0
  -20.8962  -39.1377   -6.0094 C   0  0  0  0  0  0  0  0  0  0  0  0
  -12.3435  -40.3779  -10.8266 C   0  0  0  0  0  0  0  0  0  0  0  0
  1  2  1  0
  2  3  1  0
  2  4  1  0
  4  5  2  0
  5  6  1  0
  6  7  2  0
  7  8  1  0
  8  9  1  0
  9 10  1  0
 10 11  1  0
 11 12  1  0
 12 13  1  6
 12 14  1  0
 14 15  1  1
 15 16  1  0
 16 17  1  0
 17 18  2  0
 18 19  1  0
 19 20  2  0
 20 21  1  0
 21 22  1  0
 22 23  1  0
 23 24  1  0
 24 25  1  0
 25 26  1  0
 26 27  1  0
 27 28  2  0
 28 29  1  0
 29 30  2  0
 30 31  1  0
 30 32  1  0
 28 33  1  0
 33 34  2  0
 33 35  1  0
 20 36  1  0
  8 37  2  0
 32 26  2  0
 35 14  1  0
 36 16  2  0
 37  4  1  0
M  END
$$$$
