
     RDKit          3D

 37 40  0  0  0  0  0  0  0  0999 V2000
  -13.8422  -35.4752  -13.2866 C   0  0  0  0  0  0  0  0  0  0  0  0
  -14.2864  -35.6770  -11.8326 C   0  0  0  0  0  0  0  0  0  0  0  0
  -14.0993  -34.3980  -11.0440 C   0  0  0  0  0  0  0  0  0  0  0  0
  -13.4717  -36.7841  -11.2994 C   0  0  0  0  0  0  0  0  0  0  0  0
  -12.0980  -36.6661  -11.3376 C   0  0  0  0  0  0  0  0  0  0  0  0
  -11.2710  -37.6644  -10.8589 C   0  0  0  0  0  0  0  0  0  0  0  0
  -11.8694  -38.7947  -10.3362 C   0  0  0  0  0  0  0  0  0  0  0  0
  -13.2344  -38.9485  -10.2810 C   0  0  0  0  0  0  0  0  0  0  0  0
  -13.9015  -40.1498   -9.7283 C   0  0  0  0  0  0  0  0  0  0  0  0
  -15.1090  -39.8866   -9.0292 N   0  0  0  0  0  0  0  0  0  0  0  0
  -15.7034  -38.5858   -9.2696 C   0  0  0  0  0  0  0  0  0  0  0  0
  -16.5759  -38.2597   -8.1539 C   0  0  1  0  0  0  0  0  0  0  0  0
  -17.0745  -36.9492   -8.3264 O   0  0  0  0  0  0  0  0  0  0  0  0
  -17.7993  -39.1526   -7.9444 C   0  0  2  0  0  0  0  0  0  0  0  0
  -18.7474  -38.3460   -7.1018 C   0  0  0  0  0  0  0  0  0  0  0  0
  -20.0494  -38.9899   -6.8288 C   0  0  0  0  0  0  0  0  0  0  0  0
  -20.7291  -39.0981   -8.0783 C   0  0  0  0  0  0  0  0  0  0  0  0
  -21.9557  -39.6531   -8.2342 C   0  0  0  0  0  0  0  0  0  0  0  0
  -22.5166  -40.1187   -7.0680 C   0  0  0  0  0  0  0  0  0  0  0  0
  -21.9131  -40.0498   -5.7990 C   0  0  0  0  0  0  0  0  0  0  0  0
  -22.7782  -40.6517   -4.7764 C   0  0  0  0  0  0  0  0  0  0  0  0
  -22.3816  -42.0612   -4.3183 C   0  0  0  0  0  0  0  0  0  0  0  0
  -22.9663  -43.1103   -5.1711 C   0  0  0  0  0  0  0  0  0  0  0  0
  -22.0816  -44.2355   -5.6096 C   0  0  0  0  0  0  0  0  0  0  0  0
  -21.6863  -44.2265   -7.0277 C   0  0  0  0  0  0  0  0  0  0  0  0
  -20.2856  -43.7934   -7.3764 C   0  0  0  0  0  0  0  0  0  0  0  0
  -19.5367  -42.7530   -6.9023 C   0  0  0  0  0  0  0  0  0  0  0  0
  -18.2772  -42.5783   -7.4764 C   0  0  0  0  0  0  0  0  0  0  0  0
  -17.8545  -43.4702   -8.4922 C   0  0  0  0  0  0  0  0  0  0  0  0
  -18.6238  -44.5117   -8.9536 C   0  0  0  0  0  0  0  0  0  0  0  0
  -18.1404  -45.4274  -10.0278 C   0  0  0  0  0  0  0  0  0  0  0  0
  -19.8062  -44.6327   -8.3797 N   0  0  0  0  0  0  0  0  0  0  0  0
  -17.2408  -41.5747   -7.2401 C   0  0  0  0  0  0  0  0  0  0  0  0
  -16.0197  -42.0525   -7.1972 O   0  0  0  0  0  0  0  0  0  0  0  0
  -17.2829  -40.1780   -7.0477 N   0  0  0  0  0  0  0  0  0  0  0  0
  -20.6421  -39.4640   -5.6997 C   0  0  0  0  0  0  0  0  0  0  0  0
  -14.0496  -37.9352  -10.7664 C   0  0  0  0  0  0  0  0  0  0  0  0
  1  2  1  0
  2  3  1  0
  2  4  1  0
  4  5  2  0
  5  6  1  0
  6  7  2  0
  7  8  1  0
  8  9  1  0
  9 10  1  0
 10 11  1  0
 11 12  1  0
 12 13  1  6
 12 14  1  0
 14 15  1  1
 15 16  1  0
 16 17  1  0
 17 18  2  0
 18 19  1  0
 19 20  2  0
 20 21  1  0
 21 22  1  0
 22 23  1  0
 23 24  1  0
 24 25  1  0
 25 26  1  0
 26 27  1  0
 27 28  2  0
 28 29  1  0
 29 30  2  0
 30 31  1  0
 30 32  1  0
 28 33  1  0
 33 34  2  0
 33 35  1  0
 20 36  1  0
  8 37  2  0
 32 26  2  0
 35 14  1  0
 36 16  2  0
 37  4  1  0
M  END
$$$$
