
     RDKit          3D

 37 40  0  0  0  0  0  0  0  0999 V2000
  -13.0178  -35.9321  -13.7770 C   0  0  0  0  0  0  0  0  0  0  0  0
  -14.0552  -34.9090  -13.2981 C   0  0  0  0  0  0  0  0  0  0  0  0
  -13.3666  -33.7293  -12.6449 C   0  0  0  0  0  0  0  0  0  0  0  0
  -14.9422  -35.6240  -12.3623 C   0  0  0  0  0  0  0  0  0  0  0  0
  -16.2330  -35.9000  -12.7621 C   0  0  0  0  0  0  0  0  0  0  0  0
  -17.1213  -36.5638  -11.9374 C   0  0  0  0  0  0  0  0  0  0  0  0
  -16.6710  -36.9455  -10.6882 C   0  0  0  0  0  0  0  0  0  0  0  0
  -15.3921  -36.6882  -10.2544 C   0  0  0  0  0  0  0  0  0  0  0  0
  -14.8846  -37.0839   -8.9204 C   0  0  0  0  0  0  0  0  0  0  0  0
  -15.8948  -37.3661   -7.9634 N   0  0  0  0  0  0  0  0  0  0  0  0
  -16.0004  -38.7526   -7.5516 C   0  0  0  0  0  0  0  0  0  0  0  0
  -16.7431  -39.4835   -8.5648 C   0  0  1  0  0  0  0  0  0  0  0  0
  -15.9855  -40.6038   -8.9732 O   0  0  0  0  0  0  0  0  0  0  0  0
  -18.1157  -40.0253   -8.1646 C   0  0  2  0  0  0  0  0  0  0  0  0
  -18.8996  -38.8312   -7.6967 C   0  0  0  0  0  0  0  0  0  0  0  0
  -20.3025  -39.1073   -7.3226 C   0  0  0  0  0  0  0  0  0  0  0  0
  -20.9804  -39.5003   -8.5147 C   0  0  0  0  0  0  0  0  0  0  0  0
  -22.2889  -39.8490   -8.5688 C   0  0  0  0  0  0  0  0  0  0  0  0
  -22.9375  -39.7958   -7.3571 C   0  0  0  0  0  0  0  0  0  0  0  0
  -22.3421  -39.4193   -6.1394 C   0  0  0  0  0  0  0  0  0  0  0  0
  -23.3141  -39.4860   -5.0406 C   0  0  0  0  0  0  0  0  0  0  0  0
  -23.1968  -40.7115   -4.1250 C   0  0  0  0  0  0  0  0  0  0  0  0
  -23.9637  -41.8624   -4.6320 C   0  0  0  0  0  0  0  0  0  0  0  0
  -23.3059  -43.2070   -4.6201 C   0  0  0  0  0  0  0  0  0  0  0  0
  -22.9048  -43.7375   -5.9335 C   0  0  0  0  0  0  0  0  0  0  0  0
  -21.4446  -43.6994   -6.3040 C   0  0  0  0  0  0  0  0  0  0  0  0
  -20.5150  -42.7108   -6.1400 C   0  0  0  0  0  0  0  0  0  0  0  0
  -19.2408  -42.9617   -6.6497 C   0  0  0  0  0  0  0  0  0  0  0  0
  -18.9875  -44.1991   -7.2905 C   0  0  0  0  0  0  0  0  0  0  0  0
  -19.9373  -45.1810   -7.4435 C   0  0  0  0  0  0  0  0  0  0  0  0
  -19.6286  -46.4705   -8.1274 C   0  0  0  0  0  0  0  0  0  0  0  0
  -21.1257  -44.8940   -6.9459 N   0  0  0  0  0  0  0  0  0  0  0  0
  -18.0342  -42.1368   -6.6781 C   0  0  0  0  0  0  0  0  0  0  0  0
  -16.9268  -42.7818   -6.3973 O   0  0  0  0  0  0  0  0  0  0  0  0
  -17.8111  -40.7709   -6.9507 N   0  0  0  0  0  0  0  0  0  0  0  0
  -20.9836  -39.0686   -6.1455 C   0  0  0  0  0  0  0  0  0  0  0  0
  -14.5135  -36.0205  -11.0965 C   0  0  0  0  0  0  0  0  0  0  0  0
  1  2  1  0
  2  3  1  0
  2  4  1  0
  4  5  2  0
  5  6  1  0
  6  7  2  0
  7  8  1  0
  8  9  1  0
  9 10  1  0
 10 11  1  0
 11 12  1  0
 12 13  1  1
 12 14  1  0
 14 15  1  1
 15 16  1  0
 16 17  1  0
 17 18  2  0
 18 19  1  0
 19 20  2  0
 20 21  1  0
 21 22  1  0
 22 23  1  0
 23 24  1  0
 24 25  1  0
 25 26  1  0
 26 27  1  0
 27 28  2  0
 28 29  1  0
 29 30  2  0
 30 31  1  0
 30 32  1  0
 28 33  1  0
 33 34  2  0
 33 35  1  0
 20 36  1  0
  8 37  2  0
 32 26  2  0
 35 14  1  0
 36 16  2  0
 37  4  1  0
M  END
$$$$
