
     RDKit          3D

 37 40  0  0  0  0  0  0  0  0999 V2000
   -9.3655  -36.0277  -12.2518 C   0  0  0  0  0  0  0  0  0  0  0  0
  -10.7002  -35.8178  -12.9775 C   0  0  0  0  0  0  0  0  0  0  0  0
  -11.2758  -34.4596  -12.6357 C   0  0  0  0  0  0  0  0  0  0  0  0
  -11.5823  -36.9196  -12.5516 C   0  0  0  0  0  0  0  0  0  0  0  0
  -11.8588  -37.9256  -13.4537 C   0  0  0  0  0  0  0  0  0  0  0  0
  -12.6793  -38.9881  -13.1258 C   0  0  0  0  0  0  0  0  0  0  0  0
  -13.2188  -39.0108  -11.8540 C   0  0  0  0  0  0  0  0  0  0  0  0
  -12.9664  -38.0268  -10.9278 C   0  0  0  0  0  0  0  0  0  0  0  0
  -13.5331  -38.0253   -9.5594 C   0  0  0  0  0  0  0  0  0  0  0  0
  -13.9297  -39.3024   -9.0824 N   0  0  0  0  0  0  0  0  0  0  0  0
  -15.2744  -39.7152   -9.4354 C   0  0  0  0  0  0  0  0  0  0  0  0
  -16.2203  -38.9406   -8.6495 C   0  0  1  0  0  0  0  0  0  0  0  0
  -16.5882  -37.7868   -9.3770 O   0  0  0  0  0  0  0  0  0  0  0  0
  -17.5287  -39.6293   -8.2604 C   0  0  2  0  0  0  0  0  0  0  0  0
  -18.3295  -38.5890   -7.5282 C   0  0  0  0  0  0  0  0  0  0  0  0
  -19.6831  -39.0140   -7.1139 C   0  0  0  0  0  0  0  0  0  0  0  0
  -20.4342  -39.2287   -8.3075 C   0  0  0  0  0  0  0  0  0  0  0  0
  -21.7245  -39.6427   -8.3330 C   0  0  0  0  0  0  0  0  0  0  0  0
  -22.2760  -39.8474   -7.0898 C   0  0  0  0  0  0  0  0  0  0  0  0
  -21.6041  -39.6585   -5.8683 C   0  0  0  0  0  0  0  0  0  0  0  0
  -22.4807  -39.9808   -4.7352 C   0  0  0  0  0  0  0  0  0  0  0  0
  -22.2316  -41.3406   -4.0698 C   0  0  0  0  0  0  0  0  0  0  0  0
  -22.9801  -42.4276   -4.7241 C   0  0  0  0  0  0  0  0  0  0  0  0
  -22.2593  -43.7093   -5.0044 C   0  0  0  0  0  0  0  0  0  0  0  0
  -21.9392  -43.9704   -6.4175 C   0  0  0  0  0  0  0  0  0  0  0  0
  -20.5168  -43.7761   -6.8758 C   0  0  0  0  0  0  0  0  0  0  0  0
  -19.6260  -42.7771   -6.5990 C   0  0  0  0  0  0  0  0  0  0  0  0
  -18.3860  -42.8533   -7.2337 C   0  0  0  0  0  0  0  0  0  0  0  0
  -18.1252  -43.9380   -8.1063 C   0  0  0  0  0  0  0  0  0  0  0  0
  -19.0356  -44.9336   -8.3697 C   0  0  0  0  0  0  0  0  0  0  0  0
  -18.7206  -46.0584   -9.2979 C   0  0  0  0  0  0  0  0  0  0  0  0
  -20.1930  -44.8145   -7.7462 N   0  0  0  0  0  0  0  0  0  0  0  0
  -17.2268  -41.9634   -7.1948 C   0  0  0  0  0  0  0  0  0  0  0  0
  -16.0706  -42.5783   -7.1149 O   0  0  0  0  0  0  0  0  0  0  0  0
  -17.0924  -40.5596   -7.2278 N   0  0  0  0  0  0  0  0  0  0  0  0
  -20.2690  -39.2288   -5.9050 C   0  0  0  0  0  0  0  0  0  0  0  0
  -12.1396  -36.9671  -11.2747 C   0  0  0  0  0  0  0  0  0  0  0  0
  1  2  1  0
  2  3  1  0
  2  4  1  0
  4  5  2  0
  5  6  1  0
  6  7  2  0
  7  8  1  0
  8  9  1  0
  9 10  1  0
 10 11  1  0
 11 12  1  0
 12 13  1  6
 12 14  1  0
 14 15  1  1
 15 16  1  0
 16 17  1  0
 17 18  2  0
 18 19  1  0
 19 20  2  0
 20 21  1  0
 21 22  1  0
 22 23  1  0
 23 24  1  0
 24 25  1  0
 25 26  1  0
 26 27  1  0
 27 28  2  0
 28 29  1  0
 29 30  2  0
 30 31  1  0
 30 32  1  0
 28 33  1  0
 33 34  2  0
 33 35  1  0
 20 36  1  0
  8 37  2  0
 32 26  2  0
 35 14  1  0
 36 16  2  0
 37  4  1  0
M  END
$$$$
