
     RDKit          3D

 37 40  0  0  0  0  0  0  0  0999 V2000
  -13.4137  -34.6120  -11.5553 C   0  0  0  0  0  0  0  0  0  0  0  0
  -13.6557  -35.5189  -12.7682 C   0  0  0  0  0  0  0  0  0  0  0  0
  -15.1406  -35.6666  -13.0255 C   0  0  0  0  0  0  0  0  0  0  0  0
  -13.0135  -36.8089  -12.4569 C   0  0  0  0  0  0  0  0  0  0  0  0
  -11.8028  -37.0998  -13.0500 C   0  0  0  0  0  0  0  0  0  0  0  0
  -11.1442  -38.2903  -12.8077 C   0  0  0  0  0  0  0  0  0  0  0  0
  -11.7426  -39.1880  -11.9446 C   0  0  0  0  0  0  0  0  0  0  0  0
  -12.9481  -38.9337  -11.3347 C   0  0  0  0  0  0  0  0  0  0  0  0
  -13.6124  -39.8787  -10.4078 C   0  0  0  0  0  0  0  0  0  0  0  0
  -14.3919  -39.2626   -9.3935 N   0  0  0  0  0  0  0  0  0  0  0  0
  -15.7515  -38.9219   -9.7657 C   0  0  0  0  0  0  0  0  0  0  0  0
  -16.4664  -38.4938   -8.5749 C   0  0  1  0  0  0  0  0  0  0  0  0
  -16.8787  -37.1529   -8.7419 O   0  0  0  0  0  0  0  0  0  0  0  0
  -17.7239  -39.2785   -8.1997 C   0  0  2  0  0  0  0  0  0  0  0  0
  -18.5025  -38.3773   -7.2824 C   0  0  0  0  0  0  0  0  0  0  0  0
  -19.8111  -38.9060   -6.8435 C   0  0  0  0  0  0  0  0  0  0  0  0
  -20.6363  -38.9876   -8.0042 C   0  0  0  0  0  0  0  0  0  0  0  0
  -21.9125  -39.4438   -8.0026 C   0  0  0  0  0  0  0  0  0  0  0  0
  -22.3704  -39.8344   -6.7659 C   0  0  0  0  0  0  0  0  0  0  0  0
  -21.6215  -39.7852   -5.5761 C   0  0  0  0  0  0  0  0  0  0  0  0
  -22.4078  -40.2901   -4.4432 C   0  0  0  0  0  0  0  0  0  0  0  0
  -22.0733  -41.7162   -3.9869 C   0  0  0  0  0  0  0  0  0  0  0  0
  -22.8328  -42.7337   -4.7336 C   0  0  0  0  0  0  0  0  0  0  0  0
  -22.0956  -43.9375   -5.2319 C   0  0  0  0  0  0  0  0  0  0  0  0
  -21.8665  -43.9943   -6.6851 C   0  0  0  0  0  0  0  0  0  0  0  0
  -20.4855  -43.6856   -7.2034 C   0  0  0  0  0  0  0  0  0  0  0  0
  -19.6076  -42.6991   -6.8511 C   0  0  0  0  0  0  0  0  0  0  0  0
  -18.4127  -42.6416   -7.5690 C   0  0  0  0  0  0  0  0  0  0  0  0
  -18.1810  -43.5887   -8.5962 C   0  0  0  0  0  0  0  0  0  0  0  0
  -19.0777  -44.5745   -8.9336 C   0  0  0  0  0  0  0  0  0  0  0  0
  -18.7946  -45.5517  -10.0248 C   0  0  0  0  0  0  0  0  0  0  0  0
  -20.1922  -44.5847   -8.2263 N   0  0  0  0  0  0  0  0  0  0  0  0
  -17.2803  -41.7209   -7.4840 C   0  0  0  0  0  0  0  0  0  0  0  0
  -16.1038  -42.2959   -7.5634 O   0  0  0  0  0  0  0  0  0  0  0  0
  -17.1900  -40.3212   -7.3339 N   0  0  0  0  0  0  0  0  0  0  0  0
  -20.3054  -39.3033   -5.6399 C   0  0  0  0  0  0  0  0  0  0  0  0
  -13.5953  -37.7324  -11.5898 C   0  0  0  0  0  0  0  0  0  0  0  0
  1  2  1  0
  2  3  1  0
  2  4  1  0
  4  5  2  0
  5  6  1  0
  6  7  2  0
  7  8  1  0
  8  9  1  0
  9 10  1  0
 10 11  1  0
 11 12  1  0
 12 13  1  6
 12 14  1  0
 14 15  1  1
 15 16  1  0
 16 17  1  0
 17 18  2  0
 18 19  1  0
 19 20  2  0
 20 21  1  0
 21 22  1  0
 22 23  1  0
 23 24  1  0
 24 25  1  0
 25 26  1  0
 26 27  1  0
 27 28  2  0
 28 29  1  0
 29 30  2  0
 30 31  1  0
 30 32  1  0
 28 33  1  0
 33 34  2  0
 33 35  1  0
 20 36  1  0
  8 37  2  0
 32 26  2  0
 35 14  1  0
 36 16  2  0
 37  4  1  0
M  END
$$$$
