
     RDKit          3D

 37 40  0  0  0  0  0  0  0  0999 V2000
  -11.9855  -34.8516  -10.5048 C   0  0  0  0  0  0  0  0  0  0  0  0
  -11.8464  -36.3310  -10.8845 C   0  0  0  0  0  0  0  0  0  0  0  0
  -10.5224  -36.5727  -11.5783 C   0  0  0  0  0  0  0  0  0  0  0  0
  -12.9955  -36.6469  -11.7524 C   0  0  0  0  0  0  0  0  0  0  0  0
  -12.9008  -36.3595  -13.0980 C   0  0  0  0  0  0  0  0  0  0  0  0
  -13.9386  -36.6251  -13.9710 C   0  0  0  0  0  0  0  0  0  0  0  0
  -15.0846  -37.1927  -13.4481 C   0  0  0  0  0  0  0  0  0  0  0  0
  -15.2163  -37.4933  -12.1131 C   0  0  0  0  0  0  0  0  0  0  0  0
  -16.4335  -38.0995  -11.5263 C   0  0  0  0  0  0  0  0  0  0  0  0
  -16.1984  -38.9128  -10.3865 N   0  0  0  0  0  0  0  0  0  0  0  0
  -15.6800  -38.2249   -9.2199 C   0  0  0  0  0  0  0  0  0  0  0  0
  -16.7987  -37.7959   -8.3973 C   0  0  1  0  0  0  0  0  0  0  0  0
  -17.4396  -36.7039   -9.0239 O   0  0  0  0  0  0  0  0  0  0  0  0
  -17.8940  -38.8265   -8.1216 C   0  0  2  0  0  0  0  0  0  0  0  0
  -18.8536  -38.1531   -7.1808 C   0  0  0  0  0  0  0  0  0  0  0  0
  -20.0492  -38.9469   -6.8275 C   0  0  0  0  0  0  0  0  0  0  0  0
  -20.8128  -39.1015   -8.0225 C   0  0  0  0  0  0  0  0  0  0  0  0
  -21.9787  -39.7881   -8.0995 C   0  0  0  0  0  0  0  0  0  0  0  0
  -22.3869  -40.3421   -6.9087 C   0  0  0  0  0  0  0  0  0  0  0  0
  -21.6929  -40.2356   -5.6897 C   0  0  0  0  0  0  0  0  0  0  0  0
  -22.3989  -40.9560   -4.6225 C   0  0  0  0  0  0  0  0  0  0  0  0
  -21.8120  -42.3220   -4.2438 C   0  0  0  0  0  0  0  0  0  0  0  0
  -22.3444  -43.4100   -5.0821 C   0  0  0  0  0  0  0  0  0  0  0  0
  -21.3791  -44.4167   -5.6257 C   0  0  0  0  0  0  0  0  0  0  0  0
  -21.1048  -44.3290   -7.0696 C   0  0  0  0  0  0  0  0  0  0  0  0
  -19.7943  -43.7317   -7.5130 C   0  0  0  0  0  0  0  0  0  0  0  0
  -19.1292  -42.6247   -7.0653 C   0  0  0  0  0  0  0  0  0  0  0  0
  -17.9483  -42.2946   -7.7308 C   0  0  0  0  0  0  0  0  0  0  0  0
  -17.5138  -43.1082   -8.8056 C   0  0  0  0  0  0  0  0  0  0  0  0
  -18.1978  -44.2189   -9.2391 C   0  0  0  0  0  0  0  0  0  0  0  0
  -17.7055  -45.0479  -10.3776 C   0  0  0  0  0  0  0  0  0  0  0  0
  -19.3085  -44.4869   -8.5781 N   0  0  0  0  0  0  0  0  0  0  0  0
  -17.0140  -41.1859   -7.5439 C   0  0  0  0  0  0  0  0  0  0  0  0
  -15.7480  -41.5230   -7.6131 O   0  0  0  0  0  0  0  0  0  0  0  0
  -17.1951  -39.8079   -7.3027 N   0  0  0  0  0  0  0  0  0  0  0  0
  -20.4909  -39.5120   -5.6715 C   0  0  0  0  0  0  0  0  0  0  0  0
  -14.1633  -37.2197  -11.2509 C   0  0  0  0  0  0  0  0  0  0  0  0
  1  2  1  0
  2  3  1  0
  2  4  1  0
  4  5  2  0
  5  6  1  0
  6  7  2  0
  7  8  1  0
  8  9  1  0
  9 10  1  0
 10 11  1  0
 11 12  1  0
 12 13  1  6
 12 14  1  0
 14 15  1  1
 15 16  1  0
 16 17  1  0
 17 18  2  0
 18 19  1  0
 19 20  2  0
 20 21  1  0
 21 22  1  0
 22 23  1  0
 23 24  1  0
 24 25  1  0
 25 26  1  0
 26 27  1  0
 27 28  2  0
 28 29  1  0
 29 30  2  0
 30 31  1  0
 30 32  1  0
 28 33  1  0
 33 34  2  0
 33 35  1  0
 20 36  1  0
  8 37  2  0
 32 26  2  0
 35 14  1  0
 36 16  2  0
 37  4  1  0
M  END
$$$$
