
     RDKit          3D

 37 40  0  0  0  0  0  0  0  0999 V2000
  -11.5385  -36.3144  -11.8866 C   0  0  0  0  0  0  0  0  0  0  0  0
  -12.7307  -36.5769  -12.8150 C   0  0  0  0  0  0  0  0  0  0  0  0
  -13.9171  -35.7338  -12.3972 C   0  0  0  0  0  0  0  0  0  0  0  0
  -13.0153  -38.0208  -12.7273 C   0  0  0  0  0  0  0  0  0  0  0  0
  -12.7264  -38.8144  -13.8178 C   0  0  0  0  0  0  0  0  0  0  0  0
  -12.9689  -40.1749  -13.8090 C   0  0  0  0  0  0  0  0  0  0  0  0
  -13.5151  -40.7196  -12.6628 C   0  0  0  0  0  0  0  0  0  0  0  0
  -13.8165  -39.9613  -11.5565 C   0  0  0  0  0  0  0  0  0  0  0  0
  -14.4042  -40.5189  -10.3166 C   0  0  0  0  0  0  0  0  0  0  0  0
  -14.4956  -39.5983   -9.2396 N   0  0  0  0  0  0  0  0  0  0  0  0
  -15.4323  -38.5067   -9.4238 C   0  0  0  0  0  0  0  0  0  0  0  0
  -16.1491  -38.2934   -8.1776 C   0  0  1  0  0  0  0  0  0  0  0  0
  -16.4079  -36.9129   -8.0251 O   0  0  0  0  0  0  0  0  0  0  0  0
  -17.4986  -38.9953   -8.0232 C   0  0  2  0  0  0  0  0  0  0  0  0
  -18.3488  -38.0598   -7.2099 C   0  0  0  0  0  0  0  0  0  0  0  0
  -19.7416  -38.5041   -6.9928 C   0  0  0  0  0  0  0  0  0  0  0  0
  -20.3804  -38.5057   -8.2683 C   0  0  0  0  0  0  0  0  0  0  0  0
  -21.6688  -38.8717   -8.4760 C   0  0  0  0  0  0  0  0  0  0  0  0
  -22.3377  -39.2530   -7.3364 C   0  0  0  0  0  0  0  0  0  0  0  0
  -21.7807  -39.2790   -6.0448 C   0  0  0  0  0  0  0  0  0  0  0  0
  -22.7648  -39.7493   -5.0615 C   0  0  0  0  0  0  0  0  0  0  0  0
  -22.5999  -41.2038   -4.6018 C   0  0  0  0  0  0  0  0  0  0  0  0
  -23.2999  -42.1513   -5.4860 C   0  0  0  0  0  0  0  0  0  0  0  0
  -22.5755  -43.3938   -5.9009 C   0  0  0  0  0  0  0  0  0  0  0  0
  -22.1280  -43.4387   -7.3028 C   0  0  0  0  0  0  0  0  0  0  0  0
  -20.6661  -43.2173   -7.5937 C   0  0  0  0  0  0  0  0  0  0  0  0
  -19.7902  -42.3014   -7.0817 C   0  0  0  0  0  0  0  0  0  0  0  0
  -18.4973  -42.3137   -7.6058 C   0  0  0  0  0  0  0  0  0  0  0  0
  -18.1721  -43.2548   -8.6130 C   0  0  0  0  0  0  0  0  0  0  0  0
  -19.0687  -44.1689   -9.1130 C   0  0  0  0  0  0  0  0  0  0  0  0
  -18.6850  -45.1424  -10.1765 C   0  0  0  0  0  0  0  0  0  0  0  0
  -20.2776  -44.1149   -8.5857 N   0  0  0  0  0  0  0  0  0  0  0  0
  -17.3335  -41.4761   -7.3208 C   0  0  0  0  0  0  0  0  0  0  0  0
  -16.1994  -42.1301   -7.2358 O   0  0  0  0  0  0  0  0  0  0  0  0
  -17.1754  -40.0892   -7.1171 N   0  0  0  0  0  0  0  0  0  0  0  0
  -20.4417  -38.8890   -5.8916 C   0  0  0  0  0  0  0  0  0  0  0  0
  -13.5659  -38.5962  -11.5832 C   0  0  0  0  0  0  0  0  0  0  0  0
  1  2  1  0
  2  3  1  0
  2  4  1  0
  4  5  2  0
  5  6  1  0
  6  7  2  0
  7  8  1  0
  8  9  1  0
  9 10  1  0
 10 11  1  0
 11 12  1  0
 12 13  1  6
 12 14  1  0
 14 15  1  1
 15 16  1  0
 16 17  1  0
 17 18  2  0
 18 19  1  0
 19 20  2  0
 20 21  1  0
 21 22  1  0
 22 23  1  0
 23 24  1  0
 24 25  1  0
 25 26  1  0
 26 27  1  0
 27 28  2  0
 28 29  1  0
 29 30  2  0
 30 31  1  0
 30 32  1  0
 28 33  1  0
 33 34  2  0
 33 35  1  0
 20 36  1  0
  8 37  2  0
 32 26  2  0
 35 14  1  0
 36 16  2  0
 37  4  1  0
M  END
$$$$
