
     RDKit          3D

 37 40  0  0  0  0  0  0  0  0999 V2000
  -12.1926  -35.6264  -11.7632 C   0  0  0  0  0  0  0  0  0  0  0  0
  -13.2922  -36.1612  -12.6888 C   0  0  0  0  0  0  0  0  0  0  0  0
  -14.6206  -35.5167  -12.3531 C   0  0  0  0  0  0  0  0  0  0  0  0
  -13.3192  -37.6232  -12.5001 C   0  0  0  0  0  0  0  0  0  0  0  0
  -13.1786  -38.4311  -13.6091 C   0  0  0  0  0  0  0  0  0  0  0  0
  -13.1971  -39.8093  -13.5092 C   0  0  0  0  0  0  0  0  0  0  0  0
  -13.3625  -40.3570  -12.2515 C   0  0  0  0  0  0  0  0  0  0  0  0
  -13.5058  -39.5847  -11.1233 C   0  0  0  0  0  0  0  0  0  0  0  0
  -13.6867  -40.1455   -9.7645 C   0  0  0  0  0  0  0  0  0  0  0  0
  -14.1498  -39.2147   -8.7976 N   0  0  0  0  0  0  0  0  0  0  0  0
  -15.3827  -38.5263   -9.1281 C   0  0  0  0  0  0  0  0  0  0  0  0
  -16.1488  -38.3325   -7.9083 C   0  0  1  0  0  0  0  0  0  0  0  0
  -16.5561  -36.9820   -7.8295 O   0  0  0  0  0  0  0  0  0  0  0  0
  -17.4197  -39.1668   -7.7460 C   0  0  2  0  0  0  0  0  0  0  0  0
  -18.3349  -38.3435   -6.8833 C   0  0  0  0  0  0  0  0  0  0  0  0
  -19.6721  -38.9276   -6.6489 C   0  0  0  0  0  0  0  0  0  0  0  0
  -20.3408  -38.9529   -7.9088 C   0  0  0  0  0  0  0  0  0  0  0  0
  -21.5926  -39.4362   -8.0987 C   0  0  0  0  0  0  0  0  0  0  0  0
  -22.1917  -39.9150   -6.9570 C   0  0  0  0  0  0  0  0  0  0  0  0
  -21.6015  -39.9255   -5.6801 C   0  0  0  0  0  0  0  0  0  0  0  0
  -22.5097  -40.5189   -4.6903 C   0  0  0  0  0  0  0  0  0  0  0  0
  -22.1932  -41.9635   -4.2820 C   0  0  0  0  0  0  0  0  0  0  0  0
  -22.8212  -42.9476   -5.1803 C   0  0  0  0  0  0  0  0  0  0  0  0
  -21.9911  -44.1006   -5.6519 C   0  0  0  0  0  0  0  0  0  0  0  0
  -21.5780  -44.0594   -7.0644 C   0  0  0  0  0  0  0  0  0  0  0  0
  -20.1524  -43.6881   -7.3814 C   0  0  0  0  0  0  0  0  0  0  0  0
  -19.3560  -42.7071   -6.8601 C   0  0  0  0  0  0  0  0  0  0  0  0
  -18.0820  -42.5777   -7.4138 C   0  0  0  0  0  0  0  0  0  0  0  0
  -17.6938  -43.4519   -8.4583 C   0  0  0  0  0  0  0  0  0  0  0  0
  -18.5106  -44.4335   -8.9671 C   0  0  0  0  0  0  0  0  0  0  0  0
  -18.0623  -45.3325  -10.0702 C   0  0  0  0  0  0  0  0  0  0  0  0
  -19.7049  -44.5133   -8.4108 N   0  0  0  0  0  0  0  0  0  0  0  0
  -16.9976  -41.6398   -7.1285 C   0  0  0  0  0  0  0  0  0  0  0  0
  -15.8038  -42.1825   -7.0909 O   0  0  0  0  0  0  0  0  0  0  0  0
  -16.9690  -40.2509   -6.8835 N   0  0  0  0  0  0  0  0  0  0  0  0
  -20.3030  -39.4118   -5.5450 C   0  0  0  0  0  0  0  0  0  0  0  0
  -13.4845  -38.2019  -11.2428 C   0  0  0  0  0  0  0  0  0  0  0  0
  1  2  1  0
  2  3  1  0
  2  4  1  0
  4  5  2  0
  5  6  1  0
  6  7  2  0
  7  8  1  0
  8  9  1  0
  9 10  1  0
 10 11  1  0
 11 12  1  0
 12 13  1  6
 12 14  1  0
 14 15  1  1
 15 16  1  0
 16 17  1  0
 17 18  2  0
 18 19  1  0
 19 20  2  0
 20 21  1  0
 21 22  1  0
 22 23  1  0
 23 24  1  0
 24 25  1  0
 25 26  1  0
 26 27  1  0
 27 28  2  0
 28 29  1  0
 29 30  2  0
 30 31  1  0
 30 32  1  0
 28 33  1  0
 33 34  2  0
 33 35  1  0
 20 36  1  0
  8 37  2  0
 32 26  2  0
 35 14  1  0
 36 16  2  0
 37  4  1  0
M  END
$$$$
