
     RDKit          3D

 37 40  0  0  0  0  0  0  0  0999 V2000
  -10.1004  -36.7122  -11.4186 C   0  0  0  0  0  0  0  0  0  0  0  0
  -11.4846  -36.6208  -12.0725 C   0  0  0  0  0  0  0  0  0  0  0  0
  -12.2792  -35.4848  -11.4635 C   0  0  0  0  0  0  0  0  0  0  0  0
  -12.1312  -37.9287  -11.8606 C   0  0  0  0  0  0  0  0  0  0  0  0
  -12.4245  -38.7027  -12.9639 C   0  0  0  0  0  0  0  0  0  0  0  0
  -13.0326  -39.9377  -12.8423 C   0  0  0  0  0  0  0  0  0  0  0  0
  -13.3403  -40.3763  -11.5687 C   0  0  0  0  0  0  0  0  0  0  0  0
  -13.0636  -39.6335  -10.4455 C   0  0  0  0  0  0  0  0  0  0  0  0
  -13.3846  -40.0785   -9.0698 C   0  0  0  0  0  0  0  0  0  0  0  0
  -14.7715  -40.1108   -8.7673 N   0  0  0  0  0  0  0  0  0  0  0  0
  -15.5937  -39.1568   -9.4860 C   0  0  0  0  0  0  0  0  0  0  0  0
  -16.4757  -38.4959   -8.5385 C   0  0  1  0  0  0  0  0  0  0  0  0
  -16.8788  -37.2523   -9.0740 O   0  0  0  0  0  0  0  0  0  0  0  0
  -17.7626  -39.2292   -8.1591 C   0  0  2  0  0  0  0  0  0  0  0  0
  -18.5640  -38.2458   -7.3526 C   0  0  0  0  0  0  0  0  0  0  0  0
  -19.8999  -38.7181   -6.9324 C   0  0  0  0  0  0  0  0  0  0  0  0
  -20.6749  -38.8806   -8.1189 C   0  0  0  0  0  0  0  0  0  0  0  0
  -21.9581  -39.3164   -8.1386 C   0  0  0  0  0  0  0  0  0  0  0  0
  -22.4768  -39.5995   -6.8966 C   0  0  0  0  0  0  0  0  0  0  0  0
  -21.7799  -39.4657   -5.6819 C   0  0  0  0  0  0  0  0  0  0  0  0
  -22.6242  -39.8662   -4.5491 C   0  0  0  0  0  0  0  0  0  0  0  0
  -22.3361  -41.2557   -3.9659 C   0  0  0  0  0  0  0  0  0  0  0  0
  -23.0807  -42.3187   -4.6626 C   0  0  0  0  0  0  0  0  0  0  0  0
  -22.3446  -43.5694   -5.0296 C   0  0  0  0  0  0  0  0  0  0  0  0
  -22.0531  -43.7463   -6.4619 C   0  0  0  0  0  0  0  0  0  0  0  0
  -20.6454  -43.5007   -6.9403 C   0  0  0  0  0  0  0  0  0  0  0  0
  -19.7658  -42.5021   -6.6285 C   0  0  0  0  0  0  0  0  0  0  0  0
  -18.5398  -42.5202   -7.2940 C   0  0  0  0  0  0  0  0  0  0  0  0
  -18.2807  -43.5502   -8.2310 C   0  0  0  0  0  0  0  0  0  0  0  0
  -19.1797  -44.5465   -8.5288 C   0  0  0  0  0  0  0  0  0  0  0  0
  -18.8670  -45.6124   -9.5249 C   0  0  0  0  0  0  0  0  0  0  0  0
  -20.3241  -44.4834   -7.8740 N   0  0  0  0  0  0  0  0  0  0  0  0
  -17.3956  -41.6125   -7.2317 C   0  0  0  0  0  0  0  0  0  0  0  0
  -16.2274  -42.2092   -7.2118 O   0  0  0  0  0  0  0  0  0  0  0  0
  -17.2863  -40.2067   -7.1897 N   0  0  0  0  0  0  0  0  0  0  0  0
  -20.4537  -39.0100   -5.7245 C   0  0  0  0  0  0  0  0  0  0  0  0
  -12.4522  -38.3953  -10.5868 C   0  0  0  0  0  0  0  0  0  0  0  0
  1  2  1  0
  2  3  1  0
  2  4  1  0
  4  5  2  0
  5  6  1  0
  6  7  2  0
  7  8  1  0
  8  9  1  0
  9 10  1  0
 10 11  1  0
 11 12  1  0
 12 13  1  6
 12 14  1  0
 14 15  1  1
 15 16  1  0
 16 17  1  0
 17 18  2  0
 18 19  1  0
 19 20  2  0
 20 21  1  0
 21 22  1  0
 22 23  1  0
 23 24  1  0
 24 25  1  0
 25 26  1  0
 26 27  1  0
 27 28  2  0
 28 29  1  0
 29 30  2  0
 30 31  1  0
 30 32  1  0
 28 33  1  0
 33 34  2  0
 33 35  1  0
 20 36  1  0
  8 37  2  0
 32 26  2  0
 35 14  1  0
 36 16  2  0
 37  4  1  0
M  END
$$$$
