
     RDKit          3D

 37 40  0  0  0  0  0  0  0  0999 V2000
  -21.7150  -38.3814   -8.6314 C   0  0  0  0  0  0  0  0  0  0  0  0
  -22.7448  -38.7115   -7.5439 C   0  0  0  0  0  0  0  0  0  0  0  0
  -23.2869  -37.4379   -6.9301 C   0  0  0  0  0  0  0  0  0  0  0  0
  -22.0483  -39.5538   -6.5545 C   0  0  0  0  0  0  0  0  0  0  0  0
  -22.4515  -40.8646   -6.4081 C   0  0  0  0  0  0  0  0  0  0  0  0
  -21.8473  -41.7119   -5.4988 C   0  0  0  0  0  0  0  0  0  0  0  0
  -20.8170  -41.1993   -4.7340 C   0  0  0  0  0  0  0  0  0  0  0  0
  -20.3873  -39.8988   -4.8514 C   0  0  0  0  0  0  0  0  0  0  0  0
  -19.2877  -39.3235   -4.0431 C   0  0  0  0  0  0  0  0  0  0  0  0
  -18.1396  -38.9475   -4.7892 N   0  0  0  0  0  0  0  0  0  0  0  0
  -17.4693  -40.0224   -5.4950 C   0  0  0  0  0  0  0  0  0  0  0  0
  -16.8830  -39.4855   -6.7118 C   0  0  1  0  0  0  0  0  0  0  0  0
  -15.4786  -39.6238   -6.6467 O   0  0  0  0  0  0  0  0  0  0  0  0
  -17.3099  -40.1290   -8.0314 C   0  0  2  0  0  0  0  0  0  0  0  0
  -17.5049  -38.9888   -8.9913 C   0  0  0  0  0  0  0  0  0  0  0  0
  -17.8545  -39.3824  -10.3723 C   0  0  0  0  0  0  0  0  0  0  0  0
  -16.7259  -40.0729  -10.9055 C   0  0  0  0  0  0  0  0  0  0  0  0
  -16.6739  -40.6016  -12.1524 C   0  0  0  0  0  0  0  0  0  0  0  0
  -17.8203  -40.4200  -12.8903 C   0  0  0  0  0  0  0  0  0  0  0  0
  -18.9731  -39.7521  -12.4385 C   0  0  0  0  0  0  0  0  0  0  0  0
  -20.0153  -39.7520  -13.4731 C   0  0  0  0  0  0  0  0  0  0  0  0
  -21.1502  -40.7645  -13.2711 C   0  0  0  0  0  0  0  0  0  0  0  0
  -20.8320  -42.0819  -13.8480 C   0  0  0  0  0  0  0  0  0  0  0  0
  -21.1298  -43.2994  -13.0296 C   0  0  0  0  0  0  0  0  0  0  0  0
  -19.9614  -43.9981  -12.4691 C   0  0  0  0  0  0  0  0  0  0  0  0
  -19.6630  -43.8279  -11.0018 C   0  0  0  0  0  0  0  0  0  0  0  0
  -19.6834  -42.7081  -10.2182 C   0  0  0  0  0  0  0  0  0  0  0  0
  -19.2937  -42.8700   -8.8884 C   0  0  0  0  0  0  0  0  0  0  0  0
  -18.9111  -44.1561   -8.4353 C   0  0  0  0  0  0  0  0  0  0  0  0
  -18.8992  -45.2701   -9.2406 C   0  0  0  0  0  0  0  0  0  0  0  0
  -18.4868  -46.6072   -8.7229 C   0  0  0  0  0  0  0  0  0  0  0  0
  -19.2744  -45.0635  -10.4891 N   0  0  0  0  0  0  0  0  0  0  0  0
  -19.1700  -41.9064   -7.7960 C   0  0  0  0  0  0  0  0  0  0  0  0
  -19.6217  -42.3324   -6.6403 O   0  0  0  0  0  0  0  0  0  0  0  0
  -18.6561  -40.5946   -7.7263 N   0  0  0  0  0  0  0  0  0  0  0  0
  -18.9681  -39.2256  -11.1381 C   0  0  0  0  0  0  0  0  0  0  0  0
  -21.0060  -39.0621   -5.7702 C   0  0  0  0  0  0  0  0  0  0  0  0
  1  2  1  0
  2  3  1  0
  2  4  1  0
  4  5  2  0
  5  6  1  0
  6  7  2  0
  7  8  1  0
  8  9  1  0
  9 10  1  0
 10 11  1  0
 11 12  1  0
 12 13  1  1
 12 14  1  0
 14 15  1  6
 15 16  1  0
 16 17  1  0
 17 18  2  0
 18 19  1  0
 19 20  2  0
 20 21  1  0
 21 22  1  0
 22 23  1  0
 23 24  1  0
 24 25  1  0
 25 26  1  0
 26 27  1  0
 27 28  2  0
 28 29  1  0
 29 30  2  0
 30 31  1  0
 30 32  1  0
 28 33  1  0
 33 34  2  0
 33 35  1  0
 20 36  1  0
  8 37  2  0
 32 26  2  0
 35 14  1  0
 36 16  2  0
 37  4  1  0
M  END
$$$$
