
     RDKit          3D

 37 40  0  0  0  0  0  0  0  0999 V2000
  -14.5540  -34.3392  -13.4647 C   0  0  0  0  0  0  0  0  0  0  0  0
  -14.4485  -34.7352  -11.9868 C   0  0  0  0  0  0  0  0  0  0  0  0
  -13.8096  -33.6185  -11.1883 C   0  0  0  0  0  0  0  0  0  0  0  0
  -13.6525  -35.9755  -11.9451 C   0  0  0  0  0  0  0  0  0  0  0  0
  -12.8981  -36.3091  -13.0505 C   0  0  0  0  0  0  0  0  0  0  0  0
  -12.1299  -37.4574  -13.0843 C   0  0  0  0  0  0  0  0  0  0  0  0
  -12.1420  -38.2679  -11.9655 C   0  0  0  0  0  0  0  0  0  0  0  0
  -12.8808  -37.9689  -10.8455 C   0  0  0  0  0  0  0  0  0  0  0  0
  -12.9135  -38.8207   -9.6344 C   0  0  0  0  0  0  0  0  0  0  0  0
  -13.9368  -38.4910   -8.7070 N   0  0  0  0  0  0  0  0  0  0  0  0
  -15.1643  -39.2536   -8.8283 C   0  0  0  0  0  0  0  0  0  0  0  0
  -16.2018  -38.5913   -8.0554 C   0  0  1  0  0  0  0  0  0  0  0  0
  -16.5684  -37.3929   -8.7075 O   0  0  0  0  0  0  0  0  0  0  0  0
  -17.5017  -39.3644   -7.8312 C   0  0  2  0  0  0  0  0  0  0  0  0
  -18.3873  -38.4429   -7.0399 C   0  0  0  0  0  0  0  0  0  0  0  0
  -19.7446  -38.9587   -6.7640 C   0  0  0  0  0  0  0  0  0  0  0  0
  -20.4132  -39.0607   -8.0200 C   0  0  0  0  0  0  0  0  0  0  0  0
  -21.6814  -39.5129   -8.1748 C   0  0  0  0  0  0  0  0  0  0  0  0
  -22.2977  -39.8775   -7.0006 C   0  0  0  0  0  0  0  0  0  0  0  0
  -21.7087  -39.8071   -5.7249 C   0  0  0  0  0  0  0  0  0  0  0  0
  -22.6379  -40.2870   -4.6939 C   0  0  0  0  0  0  0  0  0  0  0  0
  -22.3732  -41.7048   -4.1708 C   0  0  0  0  0  0  0  0  0  0  0  0
  -23.0355  -42.7345   -4.9898 C   0  0  0  0  0  0  0  0  0  0  0  0
  -22.2468  -43.9502   -5.3653 C   0  0  0  0  0  0  0  0  0  0  0  0
  -21.8319  -44.0365   -6.7752 C   0  0  0  0  0  0  0  0  0  0  0  0
  -20.3938  -43.7424   -7.1162 C   0  0  0  0  0  0  0  0  0  0  0  0
  -19.5633  -42.7518   -6.6722 C   0  0  0  0  0  0  0  0  0  0  0  0
  -18.2852  -42.7123   -7.2304 C   0  0  0  0  0  0  0  0  0  0  0  0
  -17.9279  -43.6803   -8.2006 C   0  0  0  0  0  0  0  0  0  0  0  0
  -18.7790  -44.6697   -8.6322 C   0  0  0  0  0  0  0  0  0  0  0  0
  -18.3626  -45.6692   -9.6586 C   0  0  0  0  0  0  0  0  0  0  0  0
  -19.9756  -44.6625   -8.0751 N   0  0  0  0  0  0  0  0  0  0  0  0
  -17.1682  -41.7936   -7.0172 C   0  0  0  0  0  0  0  0  0  0  0  0
  -15.9945  -42.3737   -6.9325 O   0  0  0  0  0  0  0  0  0  0  0  0
  -17.0902  -40.3915   -6.8836 N   0  0  0  0  0  0  0  0  0  0  0  0
  -20.3927  -39.3306   -5.6271 C   0  0  0  0  0  0  0  0  0  0  0  0
  -13.6464  -36.8110  -10.8293 C   0  0  0  0  0  0  0  0  0  0  0  0
  1  2  1  0
  2  3  1  0
  2  4  1  0
  4  5  2  0
  5  6  1  0
  6  7  2  0
  7  8  1  0
  8  9  1  0
  9 10  1  0
 10 11  1  0
 11 12  1  0
 12 13  1  6
 12 14  1  0
 14 15  1  1
 15 16  1  0
 16 17  1  0
 17 18  2  0
 18 19  1  0
 19 20  2  0
 20 21  1  0
 21 22  1  0
 22 23  1  0
 23 24  1  0
 24 25  1  0
 25 26  1  0
 26 27  1  0
 27 28  2  0
 28 29  1  0
 29 30  2  0
 30 31  1  0
 30 32  1  0
 28 33  1  0
 33 34  2  0
 33 35  1  0
 20 36  1  0
  8 37  2  0
 32 26  2  0
 35 14  1  0
 36 16  2  0
 37  4  1  0
M  END
$$$$
