
     RDKit          3D

 37 40  0  0  0  0  0  0  0  0999 V2000
  -19.4777  -36.1826  -13.2100 C   0  0  0  0  0  0  0  0  0  0  0  0
  -19.0903  -36.7836  -11.8533 C   0  0  0  0  0  0  0  0  0  0  0  0
  -19.7369  -36.0023  -10.7290 C   0  0  0  0  0  0  0  0  0  0  0  0
  -17.6181  -36.7416  -11.7856 C   0  0  0  0  0  0  0  0  0  0  0  0
  -16.9629  -35.6880  -12.3880 C   0  0  0  0  0  0  0  0  0  0  0  0
  -15.5850  -35.5842  -12.3677 C   0  0  0  0  0  0  0  0  0  0  0  0
  -14.8783  -36.5785  -11.7189 C   0  0  0  0  0  0  0  0  0  0  0  0
  -15.4957  -37.6435  -11.1072 C   0  0  0  0  0  0  0  0  0  0  0  0
  -14.7627  -38.7236  -10.4073 C   0  0  0  0  0  0  0  0  0  0  0  0
  -15.3960  -39.2010   -9.2296 N   0  0  0  0  0  0  0  0  0  0  0  0
  -15.7377  -38.1911   -8.2465 C   0  0  0  0  0  0  0  0  0  0  0  0
  -16.0954  -38.8540   -7.0035 C   0  0  1  0  0  0  0  0  0  0  0  0
  -16.1815  -37.8895   -5.9749 O   0  0  0  0  0  0  0  0  0  0  0  0
  -17.4203  -39.6167   -6.9791 C   0  0  2  0  0  0  0  0  0  0  0  0
  -18.3279  -38.8193   -6.0847 C   0  0  0  0  0  0  0  0  0  0  0  0
  -19.7078  -39.3357   -5.9679 C   0  0  0  0  0  0  0  0  0  0  0  0
  -20.3113  -39.2023   -7.2536 C   0  0  0  0  0  0  0  0  0  0  0  0
  -21.5783  -39.5850   -7.5453 C   0  0  0  0  0  0  0  0  0  0  0  0
  -22.2625  -40.1273   -6.4827 C   0  0  0  0  0  0  0  0  0  0  0  0
  -21.7403  -40.2930   -5.1869 C   0  0  0  0  0  0  0  0  0  0  0  0
  -22.7317  -40.9155   -4.3003 C   0  0  0  0  0  0  0  0  0  0  0  0
  -22.5230  -42.4088   -4.0170 C   0  0  0  0  0  0  0  0  0  0  0  0
  -23.1615  -43.2640   -5.0323 C   0  0  0  0  0  0  0  0  0  0  0  0
  -22.3783  -44.4195   -5.5729 C   0  0  0  0  0  0  0  0  0  0  0  0
  -21.8916  -44.2751   -6.9548 C   0  0  0  0  0  0  0  0  0  0  0  0
  -20.4320  -43.9682   -7.1700 C   0  0  0  0  0  0  0  0  0  0  0  0
  -19.6065  -43.0923   -6.5223 C   0  0  0  0  0  0  0  0  0  0  0  0
  -18.3004  -42.9943   -7.0027 C   0  0  0  0  0  0  0  0  0  0  0  0
  -17.9117  -43.7918   -8.1067 C   0  0  0  0  0  0  0  0  0  0  0  0
  -18.7583  -44.6682   -8.7430 C   0  0  0  0  0  0  0  0  0  0  0  0
  -18.3083  -45.4889   -9.9049 C   0  0  0  0  0  0  0  0  0  0  0  0
  -19.9822  -44.7223   -8.2516 N   0  0  0  0  0  0  0  0  0  0  0  0
  -17.1782  -42.1579   -6.5806 C   0  0  0  0  0  0  0  0  0  0  0  0
  -16.0223  -42.7771   -6.5403 O   0  0  0  0  0  0  0  0  0  0  0  0
  -17.0796  -40.8021   -6.2038 N   0  0  0  0  0  0  0  0  0  0  0  0
  -20.4221  -39.8780   -4.9448 C   0  0  0  0  0  0  0  0  0  0  0  0
  -16.8808  -37.7313  -11.1376 C   0  0  0  0  0  0  0  0  0  0  0  0
  1  2  1  0
  2  3  1  0
  2  4  1  0
  4  5  2  0
  5  6  1  0
  6  7  2  0
  7  8  1  0
  8  9  1  0
  9 10  1  0
 10 11  1  0
 11 12  1  0
 12 13  1  1
 12 14  1  0
 14 15  1  1
 15 16  1  0
 16 17  1  0
 17 18  2  0
 18 19  1  0
 19 20  2  0
 20 21  1  0
 21 22  1  0
 22 23  1  0
 23 24  1  0
 24 25  1  0
 25 26  1  0
 26 27  1  0
 27 28  2  0
 28 29  1  0
 29 30  2  0
 30 31  1  0
 30 32  1  0
 28 33  1  0
 33 34  2  0
 33 35  1  0
 20 36  1  0
  8 37  2  0
 32 26  2  0
 35 14  1  0
 36 16  2  0
 37  4  1  0
M  END
$$$$
