
     RDKit          3D

 36 38  0  0  0  0  0  0  0  0999 V2000
  -22.1212  -40.9980   -1.7748 C   0  0  0  0  0  0  0  0  0  0  0  0
  -20.8190  -41.3449   -2.4965 C   0  0  0  0  0  0  0  0  0  0  0  0
  -20.3373  -42.7059   -2.0305 C   0  0  0  0  0  0  0  0  0  0  0  0
  -21.1301  -41.3378   -3.9401 C   0  0  0  0  0  0  0  0  0  0  0  0
  -21.9085  -42.3012   -4.5089 C   0  0  0  0  0  0  0  0  0  0  0  0
  -22.1734  -42.2615   -5.8782 C   0  0  0  0  0  0  0  0  0  0  0  0
  -21.6328  -41.2282   -6.6463 C   0  0  0  0  0  0  0  0  0  0  0  0
  -20.8457  -40.2517   -6.0768 C   0  0  0  0  0  0  0  0  0  0  0  0
  -20.2735  -39.1631   -6.8894 C   0  0  0  0  0  0  0  0  0  0  0  0
  -19.4052  -38.2687   -6.1830 N   0  0  0  0  0  0  0  0  0  0  0  0
  -18.0262  -38.5934   -6.5329 C   0  0  0  0  0  0  0  0  0  0  0  0
  -17.7387  -38.3267   -7.9751 C   0  0  1  0  0  0  0  0  0  0  0  0
  -18.4459  -37.2314   -8.4663 O   0  0  0  0  0  0  0  0  0  0  0  0
  -16.2637  -38.2698   -8.2472 C   0  0  2  0  0  0  0  0  0  0  0  0
  -15.9233  -37.9649   -9.6617 C   0  0  0  0  0  0  0  0  0  0  0  0
  -14.4715  -37.5529   -9.8253 C   0  0  2  0  0  0  0  0  0  0  0  0
  -14.2632  -36.3683   -8.8684 C   0  0  0  0  0  0  0  0  0  0  0  0
  -14.1791  -37.0890  -11.2266 C   0  0  0  0  0  0  0  0  0  0  0  0
  -12.7942  -37.5555  -11.6379 C   0  0  0  0  0  0  0  0  0  0  0  0
  -12.5703  -37.5947  -13.1089 C   0  0  0  0  0  0  0  0  0  0  0  0
  -12.4139  -39.0133  -13.6800 C   0  0  0  0  0  0  0  0  0  0  0  0
  -13.1048  -40.0032  -12.7459 C   0  0  0  0  0  0  0  0  0  0  0  0
  -13.5009  -41.2193  -13.5345 C   0  0  0  0  0  0  0  0  0  0  0  0
  -14.5903  -41.9553  -12.9403 N   0  0  0  0  0  0  0  0  0  0  0  0
  -15.1367  -42.8938  -13.9826 C   0  0  0  0  0  0  0  0  0  0  0  0
  -15.1851  -41.9148  -11.6365 C   0  0  0  0  0  0  0  0  0  0  0  0
  -14.8895  -41.2152  -10.4903 C   0  0  0  0  0  0  0  0  0  0  0  0
  -15.7243  -41.3790   -9.4071 C   0  0  0  0  0  0  0  0  0  0  0  0
  -16.8389  -42.2557   -9.5103 C   0  0  0  0  0  0  0  0  0  0  0  0
  -17.1308  -42.9546  -10.6533 C   0  0  0  0  0  0  0  0  0  0  0  0
  -18.2988  -43.8792  -10.7415 C   0  0  0  0  0  0  0  0  0  0  0  0
  -16.2913  -42.7447  -11.6468 N   0  0  0  0  0  0  0  0  0  0  0  0
  -15.7293  -40.7665   -8.0729 C   0  0  0  0  0  0  0  0  0  0  0  0
  -15.9129  -41.5186   -7.0057 O   0  0  0  0  0  0  0  0  0  0  0  0
  -15.5626  -39.4038   -7.6749 N   0  0  0  0  0  0  0  0  0  0  0  0
  -20.6131  -40.3336   -4.7266 C   0  0  0  0  0  0  0  0  0  0  0  0
  1  2  1  0
  2  3  1  0
  2  4  1  0
  4  5  2  0
  5  6  1  0
  6  7  2  0
  7  8  1  0
  8  9  1  0
  9 10  1  0
 10 11  1  0
 11 12  1  0
 12 13  1  1
 12 14  1  0
 14 15  1  6
 15 16  1  0
 16 17  1  1
 16 18  1  0
 18 19  1  0
 19 20  1  0
 20 21  1  0
 21 22  1  0
 22 23  1  0
 23 24  1  0
 24 25  1  0
 24 26  1  0
 26 27  1  0
 27 28  2  0
 28 29  1  0
 29 30  2  0
 30 31  1  0
 30 32  1  0
 28 33  1  0
 33 34  2  0
 33 35  1  0
  8 36  2  0
 32 26  2  0
 35 14  1  0
 36  4  1  0
M  END
$$$$
