
     RDKit          3D

 36 38  0  0  0  0  0  0  0  0999 V2000
  -13.8911  -34.0112  -11.3184 C   0  0  0  0  0  0  0  0  0  0  0  0
  -13.0339  -34.7990  -12.3092 C   0  0  0  0  0  0  0  0  0  0  0  0
  -11.5918  -34.7912  -11.8379 C   0  0  0  0  0  0  0  0  0  0  0  0
  -13.5918  -36.1657  -12.3455 C   0  0  0  0  0  0  0  0  0  0  0  0
  -14.1764  -36.6702  -13.4685 C   0  0  0  0  0  0  0  0  0  0  0  0
  -14.6971  -37.9646  -13.4590 C   0  0  0  0  0  0  0  0  0  0  0  0
  -14.6090  -38.7252  -12.2911 C   0  0  0  0  0  0  0  0  0  0  0  0
  -14.0189  -38.2206  -11.1533 C   0  0  0  0  0  0  0  0  0  0  0  0
  -13.9290  -39.0236   -9.9205 C   0  0  0  0  0  0  0  0  0  0  0  0
  -14.9459  -40.0216   -9.7694 N   0  0  0  0  0  0  0  0  0  0  0  0
  -16.2338  -39.3496   -9.6319 C   0  0  0  0  0  0  0  0  0  0  0  0
  -16.8512  -39.5948   -8.2931 C   0  0  1  0  0  0  0  0  0  0  0  0
  -16.2484  -38.8484   -7.2829 O   0  0  0  0  0  0  0  0  0  0  0  0
  -18.3458  -39.4633   -8.3369 C   0  0  2  0  0  0  0  0  0  0  0  0
  -19.0135  -39.7415   -7.0383 C   0  0  0  0  0  0  0  0  0  0  0  0
  -20.4490  -39.2488   -7.0153 C   0  0  2  0  0  0  0  0  0  0  0  0
  -20.3836  -37.7550   -7.3712 C   0  0  0  0  0  0  0  0  0  0  0  0
  -21.0625  -39.3852   -5.6481 C   0  0  0  0  0  0  0  0  0  0  0  0
  -22.5184  -39.7937   -5.7827 C   0  0  0  0  0  0  0  0  0  0  0  0
  -23.0967  -40.4199   -4.5624 C   0  0  0  0  0  0  0  0  0  0  0  0
  -23.4277  -41.9125   -4.7224 C   0  0  0  0  0  0  0  0  0  0  0  0
  -22.5570  -42.4978   -5.8311 C   0  0  0  0  0  0  0  0  0  0  0  0
  -22.4001  -43.9736   -5.5970 C   0  0  0  0  0  0  0  0  0  0  0  0
  -21.2194  -44.5273   -6.2141 N   0  0  0  0  0  0  0  0  0  0  0  0
  -20.9712  -45.8811   -5.6049 C   0  0  0  0  0  0  0  0  0  0  0  0
  -20.3226  -44.0197   -7.2108 C   0  0  0  0  0  0  0  0  0  0  0  0
  -20.3090  -42.8695   -7.9641 C   0  0  0  0  0  0  0  0  0  0  0  0
  -19.2393  -42.6700   -8.8086 C   0  0  0  0  0  0  0  0  0  0  0  0
  -18.2088  -43.6475   -8.8737 C   0  0  0  0  0  0  0  0  0  0  0  0
  -18.2252  -44.7952   -8.1237 C   0  0  0  0  0  0  0  0  0  0  0  0
  -17.1406  -45.8163   -8.2120 C   0  0  0  0  0  0  0  0  0  0  0  0
  -19.2762  -44.9149   -7.3381 N   0  0  0  0  0  0  0  0  0  0  0  0
  -18.8907  -41.5584   -9.7019 C   0  0  0  0  0  0  0  0  0  0  0  0
  -18.4725  -41.8070  -10.9272 O   0  0  0  0  0  0  0  0  0  0  0  0
  -18.9168  -40.1461   -9.4827 N   0  0  0  0  0  0  0  0  0  0  0  0
  -13.5219  -36.9425  -11.2114 C   0  0  0  0  0  0  0  0  0  0  0  0
  1  2  1  0
  2  3  1  0
  2  4  1  0
  4  5  2  0
  5  6  1  0
  6  7  2  0
  7  8  1  0
  8  9  1  0
  9 10  1  0
 10 11  1  0
 11 12  1  0
 12 13  1  1
 12 14  1  0
 14 15  1  1
 15 16  1  0
 16 17  1  1
 16 18  1  0
 18 19  1  0
 19 20  1  0
 20 21  1  0
 21 22  1  0
 22 23  1  0
 23 24  1  0
 24 25  1  0
 24 26  1  0
 26 27  1  0
 27 28  2  0
 28 29  1  0
 29 30  2  0
 30 31  1  0
 30 32  1  0
 28 33  1  0
 33 34  2  0
 33 35  1  0
  8 36  2  0
 32 26  2  0
 35 14  1  0
 36  4  1  0
M  END
$$$$
