
     RDKit          3D

 36 38  0  0  0  0  0  0  0  0999 V2000
  -14.1344  -35.5142  -11.8386 C   0  0  0  0  0  0  0  0  0  0  0  0
  -12.8219  -36.0137  -12.4425 C   0  0  0  0  0  0  0  0  0  0  0  0
  -11.6591  -35.4220  -11.6682 C   0  0  0  0  0  0  0  0  0  0  0  0
  -12.8538  -37.4868  -12.3436 C   0  0  0  0  0  0  0  0  0  0  0  0
  -12.7723  -38.2799  -13.4490 C   0  0  0  0  0  0  0  0  0  0  0  0
  -12.8125  -39.6679  -13.3125 C   0  0  0  0  0  0  0  0  0  0  0  0
  -12.9360  -40.2232  -12.0372 C   0  0  0  0  0  0  0  0  0  0  0  0
  -13.0183  -39.4264  -10.9165 C   0  0  0  0  0  0  0  0  0  0  0  0
  -13.1513  -40.0140   -9.5712 C   0  0  0  0  0  0  0  0  0  0  0  0
  -14.3373  -40.7900   -9.3611 N   0  0  0  0  0  0  0  0  0  0  0  0
  -15.4948  -39.9191   -9.5374 C   0  0  0  0  0  0  0  0  0  0  0  0
  -16.2895  -39.7852   -8.2787 C   0  0  1  0  0  0  0  0  0  0  0  0
  -15.6834  -38.9392   -7.3526 O   0  0  0  0  0  0  0  0  0  0  0  0
  -17.7252  -39.4499   -8.5601 C   0  0  2  0  0  0  0  0  0  0  0  0
  -18.5955  -39.4678   -7.3551 C   0  0  0  0  0  0  0  0  0  0  0  0
  -19.9253  -38.7777   -7.5988 C   0  0  2  0  0  0  0  0  0  0  0  0
  -19.5781  -37.3640   -8.0918 C   0  0  0  0  0  0  0  0  0  0  0  0
  -20.7292  -38.6555   -6.3327 C   0  0  0  0  0  0  0  0  0  0  0  0
  -22.2003  -38.8672   -6.6422 C   0  0  0  0  0  0  0  0  0  0  0  0
  -23.0275  -39.2492   -5.4651 C   0  0  0  0  0  0  0  0  0  0  0  0
  -23.5656  -40.6881   -5.5195 C   0  0  0  0  0  0  0  0  0  0  0  0
  -22.6584  -41.5235   -6.4188 C   0  0  0  0  0  0  0  0  0  0  0  0
  -22.7690  -42.9662   -6.0140 C   0  0  0  0  0  0  0  0  0  0  0  0
  -21.6190  -43.7537   -6.3865 N   0  0  0  0  0  0  0  0  0  0  0  0
  -21.6710  -45.0430   -5.6116 C   0  0  0  0  0  0  0  0  0  0  0  0
  -20.5287  -43.5056   -7.2837 C   0  0  0  0  0  0  0  0  0  0  0  0
  -20.2334  -42.4712   -8.1401 C   0  0  0  0  0  0  0  0  0  0  0  0
  -19.0428  -42.5313   -8.8300 C   0  0  0  0  0  0  0  0  0  0  0  0
  -18.1802  -43.6453   -8.6390 C   0  0  0  0  0  0  0  0  0  0  0  0
  -18.4773  -44.6772   -7.7865 C   0  0  0  0  0  0  0  0  0  0  0  0
  -17.5655  -45.8446   -7.6057 C   0  0  0  0  0  0  0  0  0  0  0  0
  -19.6292  -44.5487   -7.1599 N   0  0  0  0  0  0  0  0  0  0  0  0
  -18.4072  -41.5995   -9.7698 C   0  0  0  0  0  0  0  0  0  0  0  0
  -17.8741  -42.0548  -10.8863 O   0  0  0  0  0  0  0  0  0  0  0  0
  -18.2391  -40.1817   -9.7027 N   0  0  0  0  0  0  0  0  0  0  0  0
  -12.9750  -38.0671  -11.1015 C   0  0  0  0  0  0  0  0  0  0  0  0
  1  2  1  0
  2  3  1  0
  2  4  1  0
  4  5  2  0
  5  6  1  0
  6  7  2  0
  7  8  1  0
  8  9  1  0
  9 10  1  0
 10 11  1  0
 11 12  1  0
 12 13  1  1
 12 14  1  0
 14 15  1  1
 15 16  1  0
 16 17  1  1
 16 18  1  0
 18 19  1  0
 19 20  1  0
 20 21  1  0
 21 22  1  0
 22 23  1  0
 23 24  1  0
 24 25  1  0
 24 26  1  0
 26 27  1  0
 27 28  2  0
 28 29  1  0
 29 30  2  0
 30 31  1  0
 30 32  1  0
 28 33  1  0
 33 34  2  0
 33 35  1  0
  8 36  2  0
 32 26  2  0
 35 14  1  0
 36  4  1  0
M  END
$$$$
