
     RDKit          3D

 36 38  0  0  0  0  0  0  0  0999 V2000
  -14.9818  -33.5099   -9.8171 C   0  0  0  0  0  0  0  0  0  0  0  0
  -16.1536  -34.4579  -10.0729 C   0  0  0  0  0  0  0  0  0  0  0  0
  -17.2400  -33.7159  -10.8284 C   0  0  0  0  0  0  0  0  0  0  0  0
  -15.6116  -35.5851  -10.8579 C   0  0  0  0  0  0  0  0  0  0  0  0
  -15.6050  -35.5701  -12.2207 C   0  0  0  0  0  0  0  0  0  0  0  0
  -15.0892  -36.6586  -12.9249 C   0  0  0  0  0  0  0  0  0  0  0  0
  -14.5854  -37.7511  -12.2159 C   0  0  0  0  0  0  0  0  0  0  0  0
  -14.5892  -37.7715  -10.8385 C   0  0  0  0  0  0  0  0  0  0  0  0
  -14.0594  -38.9265  -10.0915 C   0  0  0  0  0  0  0  0  0  0  0  0
  -13.9577  -38.7396   -8.6746 N   0  0  0  0  0  0  0  0  0  0  0  0
  -15.2788  -38.3949   -8.1596 C   0  0  0  0  0  0  0  0  0  0  0  0
  -16.1229  -39.6071   -7.9319 C   0  0  1  0  0  0  0  0  0  0  0  0
  -15.9011  -40.1847   -6.6836 O   0  0  0  0  0  0  0  0  0  0  0  0
  -17.5697  -39.3421   -8.2308 C   0  0  2  0  0  0  0  0  0  0  0  0
  -18.4501  -39.3857   -7.0339 C   0  0  0  0  0  0  0  0  0  0  0  0
  -19.8080  -38.7609   -7.2988 C   0  0  2  0  0  0  0  0  0  0  0  0
  -19.5215  -37.3387   -7.8062 C   0  0  0  0  0  0  0  0  0  0  0  0
  -20.6292  -38.6608   -6.0419 C   0  0  0  0  0  0  0  0  0  0  0  0
  -22.0858  -38.9442   -6.3625 C   0  0  0  0  0  0  0  0  0  0  0  0
  -22.9061  -39.3498   -5.1885 C   0  0  0  0  0  0  0  0  0  0  0  0
  -23.3766  -40.8126   -5.2299 C   0  0  0  0  0  0  0  0  0  0  0  0
  -22.4229  -41.6159   -6.1102 C   0  0  0  0  0  0  0  0  0  0  0  0
  -22.4708  -43.0572   -5.6884 C   0  0  0  0  0  0  0  0  0  0  0  0
  -21.2820  -43.7950   -6.0402 N   0  0  0  0  0  0  0  0  0  0  0  0
  -21.2820  -45.0759   -5.2497 C   0  0  0  0  0  0  0  0  0  0  0  0
  -20.1954  -43.5075   -6.9301 C   0  0  0  0  0  0  0  0  0  0  0  0
  -19.9397  -42.4710   -7.7966 C   0  0  0  0  0  0  0  0  0  0  0  0
  -18.7407  -42.4842   -8.4745 C   0  0  0  0  0  0  0  0  0  0  0  0
  -17.8295  -43.5546   -8.2615 C   0  0  0  0  0  0  0  0  0  0  0  0
  -18.0871  -44.5889   -7.3990 C   0  0  0  0  0  0  0  0  0  0  0  0
  -17.1242  -45.7105   -7.1950 C   0  0  0  0  0  0  0  0  0  0  0  0
  -19.2499  -44.5063   -6.7848 N   0  0  0  0  0  0  0  0  0  0  0  0
  -18.1396  -41.5354   -9.4198 C   0  0  0  0  0  0  0  0  0  0  0  0
  -17.5749  -41.9789  -10.5256 O   0  0  0  0  0  0  0  0  0  0  0  0
  -18.0378  -40.1106   -9.3690 N   0  0  0  0  0  0  0  0  0  0  0  0
  -15.1073  -36.6781  -10.1906 C   0  0  0  0  0  0  0  0  0  0  0  0
  1  2  1  0
  2  3  1  0
  2  4  1  0
  4  5  2  0
  5  6  1  0
  6  7  2  0
  7  8  1  0
  8  9  1  0
  9 10  1  0
 10 11  1  0
 11 12  1  0
 12 13  1  1
 12 14  1  0
 14 15  1  1
 15 16  1  0
 16 17  1  1
 16 18  1  0
 18 19  1  0
 19 20  1  0
 20 21  1  0
 21 22  1  0
 22 23  1  0
 23 24  1  0
 24 25  1  0
 24 26  1  0
 26 27  1  0
 27 28  2  0
 28 29  1  0
 29 30  2  0
 30 31  1  0
 30 32  1  0
 28 33  1  0
 33 34  2  0
 33 35  1  0
  8 36  2  0
 32 26  2  0
 35 14  1  0
 36  4  1  0
M  END
$$$$
