
     RDKit          3D

 36 38  0  0  0  0  0  0  0  0999 V2000
  -22.1282  -33.6196   -6.9976 C   0  0  0  0  0  0  0  0  0  0  0  0
  -21.2567  -34.8096   -6.5960 C   0  0  0  0  0  0  0  0  0  0  0  0
  -22.0950  -35.7990   -5.8085 C   0  0  0  0  0  0  0  0  0  0  0  0
  -20.7517  -35.3971   -7.8532 C   0  0  0  0  0  0  0  0  0  0  0  0
  -21.5877  -35.7105   -8.8829 C   0  0  0  0  0  0  0  0  0  0  0  0
  -21.0707  -36.2700  -10.0518 C   0  0  0  0  0  0  0  0  0  0  0  0
  -19.6966  -36.5001  -10.1463 C   0  0  0  0  0  0  0  0  0  0  0  0
  -18.8469  -36.1850   -9.1088 C   0  0  0  0  0  0  0  0  0  0  0  0
  -17.3970  -36.4311   -9.2090 C   0  0  0  0  0  0  0  0  0  0  0  0
  -17.0306  -37.7689   -9.5679 N   0  0  0  0  0  0  0  0  0  0  0  0
  -17.5811  -38.6805   -8.5702 C   0  0  0  0  0  0  0  0  0  0  0  0
  -16.7946  -39.9480   -8.4779 C   0  0  1  0  0  0  0  0  0  0  0  0
  -16.4233  -40.2514   -7.1699 O   0  0  0  0  0  0  0  0  0  0  0  0
  -17.4742  -41.0781   -9.1947 C   0  0  2  0  0  0  0  0  0  0  0  0
  -17.3773  -42.3835   -8.4903 C   0  0  0  0  0  0  0  0  0  0  0  0
  -18.3651  -43.4011   -9.0315 C   0  0  2  0  0  0  0  0  0  0  0  0
  -19.7481  -42.7392   -8.9230 C   0  0  0  0  0  0  0  0  0  0  0  0
  -18.3748  -44.6602   -8.2076 C   0  0  0  0  0  0  0  0  0  0  0  0
  -18.5461  -45.8624   -9.1187 C   0  0  0  0  0  0  0  0  0  0  0  0
  -18.0990  -47.1522   -8.5252 C   0  0  0  0  0  0  0  0  0  0  0  0
  -16.8504  -47.7489   -9.1944 C   0  0  0  0  0  0  0  0  0  0  0  0
  -16.0595  -46.6259   -9.8600 C   0  0  0  0  0  0  0  0  0  0  0  0
  -14.6188  -47.0403   -9.9604 C   0  0  0  0  0  0  0  0  0  0  0  0
  -13.7090  -45.9247  -10.0563 N   0  0  0  0  0  0  0  0  0  0  0  0
  -12.3222  -46.4331   -9.7665 C   0  0  0  0  0  0  0  0  0  0  0  0
  -13.9130  -44.5342  -10.3394 C   0  0  0  0  0  0  0  0  0  0  0  0
  -15.0237  -43.7973  -10.6769 C   0  0  0  0  0  0  0  0  0  0  0  0
  -14.8679  -42.4370  -10.8271 C   0  0  0  0  0  0  0  0  0  0  0  0
  -13.5845  -41.8555  -10.6369 C   0  0  0  0  0  0  0  0  0  0  0  0
  -12.4773  -42.5922  -10.3028 C   0  0  0  0  0  0  0  0  0  0  0  0
  -11.1349  -41.9674  -10.1173 C   0  0  0  0  0  0  0  0  0  0  0  0
  -12.7040  -43.8837  -10.1732 N   0  0  0  0  0  0  0  0  0  0  0  0
  -15.8279  -41.3690  -11.1324 C   0  0  0  0  0  0  0  0  0  0  0  0
  -15.5246  -40.4495  -12.0271 O   0  0  0  0  0  0  0  0  0  0  0  0
  -17.1307  -41.1110  -10.6040 N   0  0  0  0  0  0  0  0  0  0  0  0
  -19.4024  -35.6373   -7.9796 C   0  0  0  0  0  0  0  0  0  0  0  0
  1  2  1  0
  2  3  1  0
  2  4  1  0
  4  5  2  0
  5  6  1  0
  6  7  2  0
  7  8  1  0
  8  9  1  0
  9 10  1  0
 10 11  1  0
 11 12  1  0
 12 13  1  1
 12 14  1  0
 14 15  1  1
 15 16  1  0
 16 17  1  1
 16 18  1  0
 18 19  1  0
 19 20  1  0
 20 21  1  0
 21 22  1  0
 22 23  1  0
 23 24  1  0
 24 25  1  0
 24 26  1  0
 26 27  1  0
 27 28  2  0
 28 29  1  0
 29 30  2  0
 30 31  1  0
 30 32  1  0
 28 33  1  0
 33 34  2  0
 33 35  1  0
  8 36  2  0
 32 26  2  0
 35 14  1  0
 36  4  1  0
M  END
$$$$
