
     RDKit          3D

 36 38  0  0  0  0  0  0  0  0999 V2000
  -15.3473  -35.5432  -11.9111 C   0  0  0  0  0  0  0  0  0  0  0  0
  -13.8422  -35.7894  -11.8063 C   0  0  0  0  0  0  0  0  0  0  0  0
  -13.2969  -35.0428  -10.6034 C   0  0  0  0  0  0  0  0  0  0  0  0
  -13.6691  -37.2496  -11.6703 C   0  0  0  0  0  0  0  0  0  0  0  0
  -13.8706  -38.0947  -12.7204 C   0  0  0  0  0  0  0  0  0  0  0  0
  -13.7025  -39.4691  -12.5482 C   0  0  0  0  0  0  0  0  0  0  0  0
  -13.3279  -39.9571  -11.2946 C   0  0  0  0  0  0  0  0  0  0  0  0
  -13.1225  -39.1076  -10.2298 C   0  0  0  0  0  0  0  0  0  0  0  0
  -12.7298  -39.6245   -8.9065 C   0  0  0  0  0  0  0  0  0  0  0  0
  -13.8064  -40.1284   -8.1064 N   0  0  0  0  0  0  0  0  0  0  0  0
  -15.0615  -39.6209   -8.6511 C   0  0  0  0  0  0  0  0  0  0  0  0
  -16.1725  -39.6935   -7.6542 C   0  0  1  0  0  0  0  0  0  0  0  0
  -15.9436  -38.8879   -6.5408 O   0  0  0  0  0  0  0  0  0  0  0  0
  -17.5117  -39.4769   -8.2965 C   0  0  2  0  0  0  0  0  0  0  0  0
  -18.6275  -39.3232   -7.3264 C   0  0  0  0  0  0  0  0  0  0  0  0
  -19.8735  -38.7463   -7.9735 C   0  0  2  0  0  0  0  0  0  0  0  0
  -19.4325  -37.4261   -8.6254 C   0  0  0  0  0  0  0  0  0  0  0  0
  -20.9389  -38.4412   -6.9555 C   0  0  0  0  0  0  0  0  0  0  0  0
  -22.3036  -38.7692   -7.5341 C   0  0  0  0  0  0  0  0  0  0  0  0
  -23.3694  -38.9767   -6.5159 C   0  0  0  0  0  0  0  0  0  0  0  0
  -23.8749  -40.4255   -6.4261 C   0  0  0  0  0  0  0  0  0  0  0  0
  -22.7867  -41.3636   -6.9414 C   0  0  0  0  0  0  0  0  0  0  0  0
  -22.9772  -42.7171   -6.3175 C   0  0  0  0  0  0  0  0  0  0  0  0
  -21.7693  -43.5053   -6.2832 N   0  0  0  0  0  0  0  0  0  0  0  0
  -21.9855  -44.6407   -5.3190 C   0  0  0  0  0  0  0  0  0  0  0  0
  -20.5083  -43.3690   -6.9515 C   0  0  0  0  0  0  0  0  0  0  0  0
  -20.0356  -42.4876   -7.8951 C   0  0  0  0  0  0  0  0  0  0  0  0
  -18.7212  -42.6139   -8.2874 C   0  0  0  0  0  0  0  0  0  0  0  0
  -17.9170  -43.6378   -7.7162 C   0  0  0  0  0  0  0  0  0  0  0  0
  -18.3907  -44.5175   -6.7772 C   0  0  0  0  0  0  0  0  0  0  0  0
  -17.5359  -45.5935   -6.1955 C   0  0  0  0  0  0  0  0  0  0  0  0
  -19.6535  -44.3333   -6.4496 N   0  0  0  0  0  0  0  0  0  0  0  0
  -17.8977  -41.8328   -9.2184 C   0  0  0  0  0  0  0  0  0  0  0  0
  -17.1278  -42.4515  -10.0918 O   0  0  0  0  0  0  0  0  0  0  0  0
  -17.7556  -40.4189   -9.3727 N   0  0  0  0  0  0  0  0  0  0  0  0
  -13.3006  -37.7643  -10.4482 C   0  0  0  0  0  0  0  0  0  0  0  0
  1  2  1  0
  2  3  1  0
  2  4  1  0
  4  5  2  0
  5  6  1  0
  6  7  2  0
  7  8  1  0
  8  9  1  0
  9 10  1  0
 10 11  1  0
 11 12  1  0
 12 13  1  1
 12 14  1  0
 14 15  1  1
 15 16  1  0
 16 17  1  1
 16 18  1  0
 18 19  1  0
 19 20  1  0
 20 21  1  0
 21 22  1  0
 22 23  1  0
 23 24  1  0
 24 25  1  0
 24 26  1  0
 26 27  1  0
 27 28  2  0
 28 29  1  0
 29 30  2  0
 30 31  1  0
 30 32  1  0
 28 33  1  0
 33 34  2  0
 33 35  1  0
  8 36  2  0
 32 26  2  0
 35 14  1  0
 36  4  1  0
M  END
$$$$
