
     RDKit          3D

 36 38  0  0  0  0  0  0  0  0999 V2000
  -13.9160  -36.0188  -11.0475 C   0  0  0  0  0  0  0  0  0  0  0  0
  -12.5780  -36.3562  -11.7055 C   0  0  0  0  0  0  0  0  0  0  0  0
  -11.5165  -36.5030  -10.6316 C   0  0  0  0  0  0  0  0  0  0  0  0
  -12.7863  -37.6163  -12.4468 C   0  0  0  0  0  0  0  0  0  0  0  0
  -12.2611  -37.8106  -13.6893 C   0  0  0  0  0  0  0  0  0  0  0  0
  -12.4868  -39.0139  -14.3585 C   0  0  0  0  0  0  0  0  0  0  0  0
  -13.2517  -40.0043  -13.7387 C   0  0  0  0  0  0  0  0  0  0  0  0
  -13.7846  -39.8136  -12.4829 C   0  0  0  0  0  0  0  0  0  0  0  0
  -14.5940  -40.8590  -11.8311 C   0  0  0  0  0  0  0  0  0  0  0  0
  -14.9037  -40.6175  -10.4532 N   0  0  0  0  0  0  0  0  0  0  0  0
  -15.7332  -39.4198  -10.3707 C   0  0  0  0  0  0  0  0  0  0  0  0
  -16.3538  -39.2625   -9.0203 C   0  0  1  0  0  0  0  0  0  0  0  0
  -15.6975  -38.3142   -8.2387 O   0  0  0  0  0  0  0  0  0  0  0  0
  -17.8376  -39.0544   -9.1105 C   0  0  2  0  0  0  0  0  0  0  0  0
  -18.5405  -39.1534   -7.8045 C   0  0  0  0  0  0  0  0  0  0  0  0
  -19.9457  -38.5827   -7.8657 C   0  0  2  0  0  0  0  0  0  0  0  0
  -19.7895  -37.1421   -8.3780 C   0  0  0  0  0  0  0  0  0  0  0  0
  -20.5874  -38.5365   -6.5054 C   0  0  0  0  0  0  0  0  0  0  0  0
  -22.0620  -38.8764   -6.6272 C   0  0  0  0  0  0  0  0  0  0  0  0
  -22.6942  -39.3342   -5.3598 C   0  0  0  0  0  0  0  0  0  0  0  0
  -23.1073  -40.8148   -5.3662 C   0  0  0  0  0  0  0  0  0  0  0  0
  -22.2541  -41.5636   -6.3866 C   0  0  0  0  0  0  0  0  0  0  0  0
  -22.1854  -43.0118   -5.9925 C   0  0  0  0  0  0  0  0  0  0  0  0
  -21.0287  -43.6932   -6.5208 N   0  0  0  0  0  0  0  0  0  0  0  0
  -20.8678  -44.9848   -5.7649 C   0  0  0  0  0  0  0  0  0  0  0  0
  -20.0888  -43.3465   -7.5464 C   0  0  0  0  0  0  0  0  0  0  0  0
  -19.9977  -42.2870   -8.4180 C   0  0  0  0  0  0  0  0  0  0  0  0
  -18.9052  -42.2392   -9.2555 C   0  0  0  0  0  0  0  0  0  0  0  0
  -17.9313  -43.2732   -9.1931 C   0  0  0  0  0  0  0  0  0  0  0  0
  -18.0250  -44.3305   -8.3250 C   0  0  0  0  0  0  0  0  0  0  0  0
  -16.9992  -45.4133   -8.2798 C   0  0  0  0  0  0  0  0  0  0  0  0
  -19.0934  -44.3065   -7.5543 N   0  0  0  0  0  0  0  0  0  0  0  0
  -18.4797  -41.2516  -10.2549 C   0  0  0  0  0  0  0  0  0  0  0  0
  -18.0571  -41.6539  -11.4371 O   0  0  0  0  0  0  0  0  0  0  0  0
  -18.4285  -39.8247  -10.1888 N   0  0  0  0  0  0  0  0  0  0  0  0
  -13.5357  -38.6136  -11.8651 C   0  0  0  0  0  0  0  0  0  0  0  0
  1  2  1  0
  2  3  1  0
  2  4  1  0
  4  5  2  0
  5  6  1  0
  6  7  2  0
  7  8  1  0
  8  9  1  0
  9 10  1  0
 10 11  1  0
 11 12  1  0
 12 13  1  6
 12 14  1  0
 14 15  1  1
 15 16  1  0
 16 17  1  1
 16 18  1  0
 18 19  1  0
 19 20  1  0
 20 21  1  0
 21 22  1  0
 22 23  1  0
 23 24  1  0
 24 25  1  0
 24 26  1  0
 26 27  1  0
 27 28  2  0
 28 29  1  0
 29 30  2  0
 30 31  1  0
 30 32  1  0
 28 33  1  0
 33 34  2  0
 33 35  1  0
  8 36  2  0
 32 26  2  0
 35 14  1  0
 36  4  1  0
M  END
$$$$
