
     RDKit          3D

 36 38  0  0  0  0  0  0  0  0999 V2000
  -24.7865  -40.0304   -5.2406 C   0  0  0  0  0  0  0  0  0  0  0  0
  -24.1651  -40.7854   -6.4158 C   0  0  0  0  0  0  0  0  0  0  0  0
  -24.4280  -40.0174   -7.6975 C   0  0  0  0  0  0  0  0  0  0  0  0
  -22.7211  -40.8896   -6.1251 C   0  0  0  0  0  0  0  0  0  0  0  0
  -22.2394  -41.7637   -5.1969 C   0  0  0  0  0  0  0  0  0  0  0  0
  -20.8681  -41.8265   -4.9477 C   0  0  0  0  0  0  0  0  0  0  0  0
  -20.0079  -40.9870   -5.6587 C   0  0  0  0  0  0  0  0  0  0  0  0
  -20.4891  -40.1019   -6.5981 C   0  0  0  0  0  0  0  0  0  0  0  0
  -19.5801  -39.2146   -7.3459 C   0  0  0  0  0  0  0  0  0  0  0  0
  -18.4442  -39.8620   -7.9321 N   0  0  0  0  0  0  0  0  0  0  0  0
  -17.4181  -40.0104   -6.9053 C   0  0  0  0  0  0  0  0  0  0  0  0
  -16.2019  -39.1970   -7.2099 C   0  0  1  0  0  0  0  0  0  0  0  0
  -15.5604  -38.7450   -6.0587 O   0  0  0  0  0  0  0  0  0  0  0  0
  -15.2926  -39.8964   -8.1778 C   0  0  2  0  0  0  0  0  0  0  0  0
  -14.0667  -39.1270   -8.5167 C   0  0  0  0  0  0  0  0  0  0  0  0
  -13.0135  -39.9926   -9.1843 C   0  0  2  0  0  0  0  0  0  0  0  0
  -12.7637  -41.1639   -8.2211 C   0  0  0  0  0  0  0  0  0  0  0  0
  -11.7194  -39.2483   -9.3733 C   0  0  0  0  0  0  0  0  0  0  0  0
  -11.0945  -39.6438  -10.6991 C   0  0  0  0  0  0  0  0  0  0  0  0
  -10.1047  -38.6661  -11.2282 C   0  0  0  0  0  0  0  0  0  0  0  0
  -10.5642  -37.9380  -12.5016 C   0  0  0  0  0  0  0  0  0  0  0  0
  -12.0896  -37.9464  -12.5549 C   0  0  0  0  0  0  0  0  0  0  0  0
  -12.5528  -36.7793  -13.3801 C   0  0  0  0  0  0  0  0  0  0  0  0
  -13.9005  -36.3640  -13.0760 N   0  0  0  0  0  0  0  0  0  0  0  0
  -14.1057  -34.9938  -13.6642 C   0  0  0  0  0  0  0  0  0  0  0  0
  -14.9640  -36.9936  -12.3494 C   0  0  0  0  0  0  0  0  0  0  0  0
  -15.0922  -38.2243  -11.7498 C   0  0  0  0  0  0  0  0  0  0  0  0
  -16.2622  -38.4875  -11.0723 C   0  0  0  0  0  0  0  0  0  0  0  0
  -17.2799  -37.4957  -11.0240 C   0  0  0  0  0  0  0  0  0  0  0  0
  -17.1514  -36.2698  -11.6247 C   0  0  0  0  0  0  0  0  0  0  0  0
  -18.2338  -35.2439  -11.5735 C   0  0  0  0  0  0  0  0  0  0  0  0
  -16.0057  -36.0894  -12.2498 N   0  0  0  0  0  0  0  0  0  0  0  0
  -16.7047  -39.6539  -10.2983 C   0  0  0  0  0  0  0  0  0  0  0  0
  -17.9208  -40.1332  -10.4703 O   0  0  0  0  0  0  0  0  0  0  0  0
  -16.0188  -40.4313   -9.3143 N   0  0  0  0  0  0  0  0  0  0  0  0
  -21.8452  -40.0764   -6.8078 C   0  0  0  0  0  0  0  0  0  0  0  0
  1  2  1  0
  2  3  1  0
  2  4  1  0
  4  5  2  0
  5  6  1  0
  6  7  2  0
  7  8  1  0
  8  9  1  0
  9 10  1  0
 10 11  1  0
 11 12  1  0
 12 13  1  1
 12 14  1  0
 14 15  1  6
 15 16  1  0
 16 17  1  1
 16 18  1  0
 18 19  1  0
 19 20  1  0
 20 21  1  0
 21 22  1  0
 22 23  1  0
 23 24  1  0
 24 25  1  0
 24 26  1  0
 26 27  1  0
 27 28  2  0
 28 29  1  0
 29 30  2  0
 30 31  1  0
 30 32  1  0
 28 33  1  0
 33 34  2  0
 33 35  1  0
  8 36  2  0
 32 26  2  0
 35 14  1  0
 36  4  1  0
M  END
$$$$
