
     RDKit          3D

 36 38  0  0  0  0  0  0  0  0999 V2000
  -21.3857  -39.4235   -9.4423 C   0  0  0  0  0  0  0  0  0  0  0  0
  -21.8833  -40.0357   -8.1330 C   0  0  0  0  0  0  0  0  0  0  0  0
  -21.6137  -41.5286   -8.1458 C   0  0  0  0  0  0  0  0  0  0  0  0
  -21.1462  -39.3545   -7.0498 C   0  0  0  0  0  0  0  0  0  0  0  0
  -21.7692  -38.9421   -5.9099 C   0  0  0  0  0  0  0  0  0  0  0  0
  -21.0372  -38.2962   -4.9130 C   0  0  0  0  0  0  0  0  0  0  0  0
  -19.6703  -38.0827   -5.1023 C   0  0  0  0  0  0  0  0  0  0  0  0
  -19.0354  -38.4977   -6.2522 C   0  0  0  0  0  0  0  0  0  0  0  0
  -17.5929  -38.2692   -6.4518 C   0  0  0  0  0  0  0  0  0  0  0  0
  -17.1462  -38.3528   -7.8106 N   0  0  0  0  0  0  0  0  0  0  0  0
  -17.3912  -39.7079   -8.2933 C   0  0  0  0  0  0  0  0  0  0  0  0
  -17.0088  -39.8665   -9.7294 C   0  0  1  0  0  0  0  0  0  0  0  0
  -15.7014  -40.3215   -9.8862 O   0  0  0  0  0  0  0  0  0  0  0  0
  -18.0260  -40.6653  -10.4912 C   0  0  2  0  0  0  0  0  0  0  0  0
  -19.4274  -40.4286  -10.0555 C   0  0  0  0  0  0  0  0  0  0  0  0
  -20.4361  -40.9485  -11.0637 C   0  0  2  0  0  0  0  0  0  0  0  0
  -20.0792  -40.2736  -12.3976 C   0  0  0  0  0  0  0  0  0  0  0  0
  -21.8422  -40.5595  -10.6954 C   0  0  0  0  0  0  0  0  0  0  0  0
  -22.7890  -41.6976  -11.0315 C   0  0  0  0  0  0  0  0  0  0  0  0
  -24.0855  -41.6548  -10.3014 C   0  0  0  0  0  0  0  0  0  0  0  0
  -24.2640  -42.7869   -9.2771 C   0  0  0  0  0  0  0  0  0  0  0  0
  -22.8881  -43.2867   -8.8450 C   0  0  0  0  0  0  0  0  0  0  0  0
  -23.0012  -43.8979   -7.4771 C   0  0  0  0  0  0  0  0  0  0  0  0
  -21.7537  -43.9110   -6.7525 N   0  0  0  0  0  0  0  0  0  0  0  0
  -22.0634  -44.1776   -5.3038 C   0  0  0  0  0  0  0  0  0  0  0  0
  -20.3957  -43.7075   -7.1646 C   0  0  0  0  0  0  0  0  0  0  0  0
  -19.8074  -43.4941   -8.3890 C   0  0  0  0  0  0  0  0  0  0  0  0
  -18.4475  -43.2772   -8.4166 C   0  0  0  0  0  0  0  0  0  0  0  0
  -17.7134  -43.2877   -7.1990 C   0  0  0  0  0  0  0  0  0  0  0  0
  -18.3013  -43.5032   -5.9791 C   0  0  0  0  0  0  0  0  0  0  0  0
  -17.5144  -43.5217   -4.7113 C   0  0  0  0  0  0  0  0  0  0  0  0
  -19.6031  -43.6993   -6.0314 N   0  0  0  0  0  0  0  0  0  0  0  0
  -17.5254  -42.9792   -9.5194 C   0  0  0  0  0  0  0  0  0  0  0  0
  -16.3725  -43.6135   -9.6009 O   0  0  0  0  0  0  0  0  0  0  0  0
  -17.6436  -42.0600  -10.6077 N   0  0  0  0  0  0  0  0  0  0  0  0
  -19.7974  -39.1279   -7.2040 C   0  0  0  0  0  0  0  0  0  0  0  0
  1  2  1  0
  2  3  1  0
  2  4  1  0
  4  5  2  0
  5  6  1  0
  6  7  2  0
  7  8  1  0
  8  9  1  0
  9 10  1  0
 10 11  1  0
 11 12  1  0
 12 13  1  1
 12 14  1  0
 14 15  1  1
 15 16  1  0
 16 17  1  6
 16 18  1  0
 18 19  1  0
 19 20  1  0
 20 21  1  0
 21 22  1  0
 22 23  1  0
 23 24  1  0
 24 25  1  0
 24 26  1  0
 26 27  1  0
 27 28  2  0
 28 29  1  0
 29 30  2  0
 30 31  1  0
 30 32  1  0
 28 33  1  0
 33 34  2  0
 33 35  1  0
  8 36  2  0
 32 26  2  0
 35 14  1  0
 36  4  1  0
M  END
$$$$
