
     RDKit          3D

 36 38  0  0  0  0  0  0  0  0999 V2000
  -12.3230  -34.5539  -13.6424 C   0  0  0  0  0  0  0  0  0  0  0  0
  -12.0606  -36.0038  -13.2352 C   0  0  0  0  0  0  0  0  0  0  0  0
  -10.8137  -36.0623  -12.3731 C   0  0  0  0  0  0  0  0  0  0  0  0
  -13.2591  -36.4509  -12.4974 C   0  0  0  0  0  0  0  0  0  0  0  0
  -14.2973  -35.6063  -12.2401 C   0  0  0  0  0  0  0  0  0  0  0  0
  -15.4090  -36.0670  -11.5340 C   0  0  0  0  0  0  0  0  0  0  0  0
  -15.4382  -37.3943  -11.1010 C   0  0  0  0  0  0  0  0  0  0  0  0
  -14.3919  -38.2525  -11.3586 C   0  0  0  0  0  0  0  0  0  0  0  0
  -14.4230  -39.6526  -10.8986 C   0  0  0  0  0  0  0  0  0  0  0  0
  -15.6056  -40.0317  -10.1839 N   0  0  0  0  0  0  0  0  0  0  0  0
  -15.9304  -38.9712   -9.2356 C   0  0  0  0  0  0  0  0  0  0  0  0
  -16.7382  -39.4792   -8.0853 C   0  0  1  0  0  0  0  0  0  0  0  0
  -16.3637  -38.9015   -6.8741 O   0  0  0  0  0  0  0  0  0  0  0  0
  -18.2112  -39.4058   -8.3642 C   0  0  2  0  0  0  0  0  0  0  0  0
  -19.0629  -39.6140   -7.1639 C   0  0  0  0  0  0  0  0  0  0  0  0
  -20.4969  -39.1735   -7.3958 C   0  0  2  0  0  0  0  0  0  0  0  0
  -20.4151  -37.7078   -7.8512 C   0  0  0  0  0  0  0  0  0  0  0  0
  -21.3091  -39.2335   -6.1305 C   0  0  0  0  0  0  0  0  0  0  0  0
  -22.7164  -39.7034   -6.4516 C   0  0  0  0  0  0  0  0  0  0  0  0
  -23.4590  -40.2609   -5.2882 C   0  0  0  0  0  0  0  0  0  0  0  0
  -23.7240  -41.7722   -5.3814 C   0  0  0  0  0  0  0  0  0  0  0  0
  -22.6793  -42.4036   -6.2978 C   0  0  0  0  0  0  0  0  0  0  0  0
  -22.5232  -43.8520   -5.9302 C   0  0  0  0  0  0  0  0  0  0  0  0
  -21.2484  -44.4053   -6.3176 N   0  0  0  0  0  0  0  0  0  0  0  0
  -21.0626  -45.7018   -5.5759 C   0  0  0  0  0  0  0  0  0  0  0  0
  -20.2224  -43.9384   -7.2035 C   0  0  0  0  0  0  0  0  0  0  0  0
  -20.1223  -42.8456   -8.0320 C   0  0  0  0  0  0  0  0  0  0  0  0
  -18.9411  -42.6685   -8.7181 C   0  0  0  0  0  0  0  0  0  0  0  0
  -17.8887  -43.6099   -8.5517 C   0  0  0  0  0  0  0  0  0  0  0  0
  -17.9910  -44.7005   -7.7270 C   0  0  0  0  0  0  0  0  0  0  0  0
  -16.8805  -45.6851   -7.5720 C   0  0  0  0  0  0  0  0  0  0  0  0
  -19.1468  -44.8016   -7.1023 N   0  0  0  0  0  0  0  0  0  0  0  0
  -18.4877  -41.6121   -9.6311 C   0  0  0  0  0  0  0  0  0  0  0  0
  -17.8805  -41.9329  -10.7566 O   0  0  0  0  0  0  0  0  0  0  0  0
  -18.5825  -40.1896   -9.5273 N   0  0  0  0  0  0  0  0  0  0  0  0
  -13.3204  -37.7531  -12.0559 C   0  0  0  0  0  0  0  0  0  0  0  0
  1  2  1  0
  2  3  1  0
  2  4  1  0
  4  5  2  0
  5  6  1  0
  6  7  2  0
  7  8  1  0
  8  9  1  0
  9 10  1  0
 10 11  1  0
 11 12  1  0
 12 13  1  1
 12 14  1  0
 14 15  1  1
 15 16  1  0
 16 17  1  1
 16 18  1  0
 18 19  1  0
 19 20  1  0
 20 21  1  0
 21 22  1  0
 22 23  1  0
 23 24  1  0
 24 25  1  0
 24 26  1  0
 26 27  1  0
 27 28  2  0
 28 29  1  0
 29 30  2  0
 30 31  1  0
 30 32  1  0
 28 33  1  0
 33 34  2  0
 33 35  1  0
  8 36  2  0
 32 26  2  0
 35 14  1  0
 36  4  1  0
M  END
$$$$
