
     RDKit          3D

 36 38  0  0  0  0  0  0  0  0999 V2000
  -13.6359  -35.2862  -13.9051 C   0  0  0  0  0  0  0  0  0  0  0  0
  -13.4617  -35.0091  -12.4119 C   0  0  0  0  0  0  0  0  0  0  0  0
  -14.8170  -34.7128  -11.7978 C   0  0  0  0  0  0  0  0  0  0  0  0
  -12.8508  -36.2226  -11.8332 C   0  0  0  0  0  0  0  0  0  0  0  0
  -11.5055  -36.3236  -11.6397 C   0  0  0  0  0  0  0  0  0  0  0  0
  -10.9676  -37.4905  -11.0958 C   0  0  0  0  0  0  0  0  0  0  0  0
  -11.8231  -38.5408  -10.7569 C   0  0  0  0  0  0  0  0  0  0  0  0
  -13.1836  -38.4440  -10.9498 C   0  0  0  0  0  0  0  0  0  0  0  0
  -14.0852  -39.5546  -10.5940 C   0  0  0  0  0  0  0  0  0  0  0  0
  -15.4707  -39.2042  -10.4916 N   0  0  0  0  0  0  0  0  0  0  0  0
  -16.1216  -40.1563   -9.5977 C   0  0  0  0  0  0  0  0  0  0  0  0
  -16.6310  -39.4981   -8.3563 C   0  0  1  0  0  0  0  0  0  0  0  0
  -16.0522  -38.2496   -8.1386 O   0  0  0  0  0  0  0  0  0  0  0  0
  -18.1311  -39.4898   -8.3062 C   0  0  2  0  0  0  0  0  0  0  0  0
  -18.6929  -39.9273   -7.0014 C   0  0  0  0  0  0  0  0  0  0  0  0
  -20.1588  -39.5607   -6.8571 C   0  0  2  0  0  0  0  0  0  0  0  0
  -20.2342  -38.0429   -7.0868 C   0  0  0  0  0  0  0  0  0  0  0  0
  -20.6736  -39.8584   -5.4748 C   0  0  0  0  0  0  0  0  0  0  0  0
  -22.0980  -40.3759   -5.5634 C   0  0  0  0  0  0  0  0  0  0  0  0
  -22.5480  -41.1452   -4.3712 C   0  0  0  0  0  0  0  0  0  0  0  0
  -22.7688  -42.6425   -4.6399 C   0  0  0  0  0  0  0  0  0  0  0  0
  -21.9249  -43.0608   -5.8410 C   0  0  0  0  0  0  0  0  0  0  0  0
  -21.6372  -44.5322   -5.7432 C   0  0  0  0  0  0  0  0  0  0  0  0
  -20.4568  -44.9329   -6.4697 N   0  0  0  0  0  0  0  0  0  0  0  0
  -20.0647  -46.3057   -5.9933 C   0  0  0  0  0  0  0  0  0  0  0  0
  -19.6667  -44.2726   -7.4672 C   0  0  0  0  0  0  0  0  0  0  0  0
  -19.7911  -43.0682   -8.1188 C   0  0  0  0  0  0  0  0  0  0  0  0
  -18.7950  -42.7117   -9.0008 C   0  0  0  0  0  0  0  0  0  0  0  0
  -17.6962  -43.5904   -9.2061 C   0  0  0  0  0  0  0  0  0  0  0  0
  -17.5750  -44.7923   -8.5574 C   0  0  0  0  0  0  0  0  0  0  0  0
  -16.4203  -45.7079   -8.7926 C   0  0  0  0  0  0  0  0  0  0  0  0
  -18.5625  -45.0632   -7.7283 N   0  0  0  0  0  0  0  0  0  0  0  0
  -18.5917  -41.5061   -9.8135 C   0  0  0  0  0  0  0  0  0  0  0  0
  -18.2319  -41.6188  -11.0768 O   0  0  0  0  0  0  0  0  0  0  0  0
  -18.7161  -40.1234   -9.4730 N   0  0  0  0  0  0  0  0  0  0  0  0
  -13.6653  -37.2770  -11.4881 C   0  0  0  0  0  0  0  0  0  0  0  0
  1  2  1  0
  2  3  1  0
  2  4  1  0
  4  5  2  0
  5  6  1  0
  6  7  2  0
  7  8  1  0
  8  9  1  0
  9 10  1  0
 10 11  1  0
 11 12  1  0
 12 13  1  6
 12 14  1  0
 14 15  1  1
 15 16  1  0
 16 17  1  1
 16 18  1  0
 18 19  1  0
 19 20  1  0
 20 21  1  0
 21 22  1  0
 22 23  1  0
 23 24  1  0
 24 25  1  0
 24 26  1  0
 26 27  1  0
 27 28  2  0
 28 29  1  0
 29 30  2  0
 30 31  1  0
 30 32  1  0
 28 33  1  0
 33 34  2  0
 33 35  1  0
  8 36  2  0
 32 26  2  0
 35 14  1  0
 36  4  1  0
M  END
$$$$
