
     RDKit          3D

 36 38  0  0  0  0  0  0  0  0999 V2000
  -12.8968  -35.3816  -12.9905 C   0  0  0  0  0  0  0  0  0  0  0  0
  -12.0367  -35.8490  -11.8163 C   0  0  0  0  0  0  0  0  0  0  0  0
  -12.3760  -35.0236  -10.5894 C   0  0  0  0  0  0  0  0  0  0  0  0
  -12.3468  -37.2791  -11.6182 C   0  0  0  0  0  0  0  0  0  0  0  0
  -12.4696  -38.1369  -12.6702 C   0  0  0  0  0  0  0  0  0  0  0  0
  -12.7697  -39.4799  -12.4400 C   0  0  0  0  0  0  0  0  0  0  0  0
  -12.9396  -39.9240  -11.1270 C   0  0  0  0  0  0  0  0  0  0  0  0
  -12.8162  -39.0617  -10.0600 C   0  0  0  0  0  0  0  0  0  0  0  0
  -12.9985  -39.5314   -8.6748 C   0  0  0  0  0  0  0  0  0  0  0  0
  -14.2458  -40.1867   -8.4140 N   0  0  0  0  0  0  0  0  0  0  0  0
  -14.8933  -39.5147   -7.2922 C   0  0  0  0  0  0  0  0  0  0  0  0
  -16.1080  -40.2505   -6.8265 C   0  0  1  0  0  0  0  0  0  0  0  0
  -16.1923  -40.3156   -5.4374 O   0  0  0  0  0  0  0  0  0  0  0  0
  -17.3551  -39.7409   -7.4882 C   0  0  2  0  0  0  0  0  0  0  0  0
  -18.5557  -39.7665   -6.6120 C   0  0  0  0  0  0  0  0  0  0  0  0
  -19.6872  -38.9199   -7.1661 C   0  0  2  0  0  0  0  0  0  0  0  0
  -19.0973  -37.5152   -7.3685 C   0  0  0  0  0  0  0  0  0  0  0  0
  -20.8333  -38.8190   -6.1962 C   0  0  0  0  0  0  0  0  0  0  0  0
  -22.1468  -38.8452   -6.9570 C   0  0  0  0  0  0  0  0  0  0  0  0
  -23.3255  -39.2338   -6.1353 C   0  0  0  0  0  0  0  0  0  0  0  0
  -23.9279  -40.5971   -6.5115 C   0  0  0  0  0  0  0  0  0  0  0  0
  -22.8524  -41.4465   -7.1834 C   0  0  0  0  0  0  0  0  0  0  0  0
  -23.1929  -42.8979   -6.9963 C   0  0  0  0  0  0  0  0  0  0  0  0
  -22.0474  -43.7699   -7.0909 N   0  0  0  0  0  0  0  0  0  0  0  0
  -22.4358  -45.1067   -6.5184 C   0  0  0  0  0  0  0  0  0  0  0  0
  -20.7166  -43.5657   -7.5833 C   0  0  0  0  0  0  0  0  0  0  0  0
  -20.0919  -42.5006   -8.1883 C   0  0  0  0  0  0  0  0  0  0  0  0
  -18.7539  -42.6298   -8.4890 C   0  0  0  0  0  0  0  0  0  0  0  0
  -18.0808  -43.8418   -8.1736 C   0  0  0  0  0  0  0  0  0  0  0  0
  -18.7059  -44.9040   -7.5726 C   0  0  0  0  0  0  0  0  0  0  0  0
  -17.9872  -46.1733   -7.2581 C   0  0  0  0  0  0  0  0  0  0  0  0
  -19.9823  -44.7058   -7.3124 N   0  0  0  0  0  0  0  0  0  0  0  0
  -17.7886  -41.6959   -9.0817 C   0  0  0  0  0  0  0  0  0  0  0  0
  -16.9709  -42.1103  -10.0293 O   0  0  0  0  0  0  0  0  0  0  0  0
  -17.5423  -40.3149   -8.8075 N   0  0  0  0  0  0  0  0  0  0  0  0
  -12.5208  -37.7502  -10.3368 C   0  0  0  0  0  0  0  0  0  0  0  0
  1  2  1  0
  2  3  1  0
  2  4  1  0
  4  5  2  0
  5  6  1  0
  6  7  2  0
  7  8  1  0
  8  9  1  0
  9 10  1  0
 10 11  1  0
 11 12  1  0
 12 13  1  1
 12 14  1  0
 14 15  1  1
 15 16  1  0
 16 17  1  1
 16 18  1  0
 18 19  1  0
 19 20  1  0
 20 21  1  0
 21 22  1  0
 22 23  1  0
 23 24  1  0
 24 25  1  0
 24 26  1  0
 26 27  1  0
 27 28  2  0
 28 29  1  0
 29 30  2  0
 30 31  1  0
 30 32  1  0
 28 33  1  0
 33 34  2  0
 33 35  1  0
  8 36  2  0
 32 26  2  0
 35 14  1  0
 36  4  1  0
M  END
$$$$
