
     RDKit          3D

 36 38  0  0  0  0  0  0  0  0999 V2000
  -21.7869  -37.3134   -5.3910 C   0  0  0  0  0  0  0  0  0  0  0  0
  -22.0244  -37.9708   -6.7505 C   0  0  0  0  0  0  0  0  0  0  0  0
  -21.2088  -37.2461   -7.8046 C   0  0  0  0  0  0  0  0  0  0  0  0
  -21.6081  -39.3805   -6.6082 C   0  0  0  0  0  0  0  0  0  0  0  0
  -22.4894  -40.3530   -6.2407 C   0  0  0  0  0  0  0  0  0  0  0  0
  -22.0539  -41.6723   -6.1115 C   0  0  0  0  0  0  0  0  0  0  0  0
  -20.7139  -41.9744   -6.3629 C   0  0  0  0  0  0  0  0  0  0  0  0
  -19.8189  -40.9956   -6.7349 C   0  0  0  0  0  0  0  0  0  0  0  0
  -18.4042  -41.3157   -6.9973 C   0  0  0  0  0  0  0  0  0  0  0  0
  -17.4820  -40.2493   -6.7419 N   0  0  0  0  0  0  0  0  0  0  0  0
  -17.7568  -39.1677   -7.6821 C   0  0  0  0  0  0  0  0  0  0  0  0
  -17.1724  -39.4384   -9.0307 C   0  0  1  0  0  0  0  0  0  0  0  0
  -18.0655  -39.1637  -10.0640 O   0  0  0  0  0  0  0  0  0  0  0  0
  -15.8308  -38.7861   -9.1970 C   0  0  2  0  0  0  0  0  0  0  0  0
  -15.4381  -38.5685  -10.6141 C   0  0  0  0  0  0  0  0  0  0  0  0
  -14.2809  -37.5949  -10.7446 C   0  0  2  0  0  0  0  0  0  0  0  0
  -14.7288  -36.3145  -10.0219 C   0  0  0  0  0  0  0  0  0  0  0  0
  -13.9992  -37.2549  -12.1831 C   0  0  0  0  0  0  0  0  0  0  0  0
  -12.5008  -37.1270  -12.3912 C   0  0  0  0  0  0  0  0  0  0  0  0
  -12.0617  -37.2742  -13.8058 C   0  0  0  0  0  0  0  0  0  0  0  0
  -11.2478  -38.5493  -14.0784 C   0  0  0  0  0  0  0  0  0  0  0  0
  -11.5989  -39.5968  -13.0253 C   0  0  0  0  0  0  0  0  0  0  0  0
  -11.3321  -40.9628  -13.5914 C   0  0  0  0  0  0  0  0  0  0  0  0
  -12.0948  -42.0059  -12.9498 N   0  0  0  0  0  0  0  0  0  0  0  0
  -12.0395  -43.2263  -13.8290 C   0  0  0  0  0  0  0  0  0  0  0  0
  -12.8421  -42.0425  -11.7269 C   0  0  0  0  0  0  0  0  0  0  0  0
  -13.0393  -41.1286  -10.7187 C   0  0  0  0  0  0  0  0  0  0  0  0
  -13.8842  -41.4826   -9.6901 C   0  0  0  0  0  0  0  0  0  0  0  0
  -14.5062  -42.7611   -9.7054 C   0  0  0  0  0  0  0  0  0  0  0  0
  -14.3064  -43.6723  -10.7103 C   0  0  0  0  0  0  0  0  0  0  0  0
  -14.9588  -45.0144  -10.7057 C   0  0  0  0  0  0  0  0  0  0  0  0
  -13.4899  -43.2625  -11.6598 N   0  0  0  0  0  0  0  0  0  0  0  0
  -14.3436  -40.7500   -8.5037 C   0  0  0  0  0  0  0  0  0  0  0  0
  -14.3579  -41.3467   -7.3282 O   0  0  0  0  0  0  0  0  0  0  0  0
  -14.8182  -39.4088   -8.3652 N   0  0  0  0  0  0  0  0  0  0  0  0
  -20.2943  -39.7130   -6.8482 C   0  0  0  0  0  0  0  0  0  0  0  0
  1  2  1  0
  2  3  1  0
  2  4  1  0
  4  5  2  0
  5  6  1  0
  6  7  2  0
  7  8  1  0
  8  9  1  0
  9 10  1  0
 10 11  1  0
 11 12  1  0
 12 13  1  6
 12 14  1  0
 14 15  1  6
 15 16  1  0
 16 17  1  1
 16 18  1  0
 18 19  1  0
 19 20  1  0
 20 21  1  0
 21 22  1  0
 22 23  1  0
 23 24  1  0
 24 25  1  0
 24 26  1  0
 26 27  1  0
 27 28  2  0
 28 29  1  0
 29 30  2  0
 30 31  1  0
 30 32  1  0
 28 33  1  0
 33 34  2  0
 33 35  1  0
  8 36  2  0
 32 26  2  0
 35 14  1  0
 36  4  1  0
M  END
$$$$
