
     RDKit          3D

 36 38  0  0  0  0  0  0  0  0999 V2000
  -15.8356  -35.1787  -11.8556 C   0  0  0  0  0  0  0  0  0  0  0  0
  -14.4830  -35.5144  -12.4838 C   0  0  0  0  0  0  0  0  0  0  0  0
  -13.4086  -34.6552  -11.8443 C   0  0  0  0  0  0  0  0  0  0  0  0
  -14.2556  -36.9522  -12.2355 C   0  0  0  0  0  0  0  0  0  0  0  0
  -14.4509  -37.8860  -13.2089 C   0  0  0  0  0  0  0  0  0  0  0  0
  -14.2307  -39.2355  -12.9312 C   0  0  0  0  0  0  0  0  0  0  0  0
  -13.8110  -39.6075  -11.6524 C   0  0  0  0  0  0  0  0  0  0  0  0
  -13.6117  -38.6681  -10.6648 C   0  0  0  0  0  0  0  0  0  0  0  0
  -13.1713  -39.0626   -9.3146 C   0  0  0  0  0  0  0  0  0  0  0  0
  -14.0965  -39.8804   -8.5879 N   0  0  0  0  0  0  0  0  0  0  0  0
  -15.4072  -39.2401   -8.6282 C   0  0  0  0  0  0  0  0  0  0  0  0
  -16.2670  -39.6557   -7.4786 C   0  0  1  0  0  0  0  0  0  0  0  0
  -15.8264  -39.1306   -6.2657 O   0  0  0  0  0  0  0  0  0  0  0  0
  -17.7219  -39.4104   -7.7546 C   0  0  2  0  0  0  0  0  0  0  0  0
  -18.6224  -39.8121   -6.6422 C   0  0  0  0  0  0  0  0  0  0  0  0
  -20.0135  -39.2232   -6.7904 C   0  0  2  0  0  0  0  0  0  0  0  0
  -19.8135  -37.7038   -6.9083 C   0  0  0  0  0  0  0  0  0  0  0  0
  -20.8660  -39.4980   -5.5813 C   0  0  0  0  0  0  0  0  0  0  0  0
  -22.2929  -39.7769   -6.0181 C   0  0  0  0  0  0  0  0  0  0  0  0
  -23.1084  -40.5184   -5.0176 C   0  0  0  0  0  0  0  0  0  0  0  0
  -23.4777  -41.9473   -5.4473 C   0  0  0  0  0  0  0  0  0  0  0  0
  -22.4534  -42.4394   -6.4663 C   0  0  0  0  0  0  0  0  0  0  0  0
  -22.4123  -43.9408   -6.4270 C   0  0  0  0  0  0  0  0  0  0  0  0
  -21.1690  -44.4910   -6.9098 N   0  0  0  0  0  0  0  0  0  0  0  0
  -21.0989  -45.9292   -6.4716 C   0  0  0  0  0  0  0  0  0  0  0  0
  -20.0859  -43.9202   -7.6558 C   0  0  0  0  0  0  0  0  0  0  0  0
  -19.8830  -42.6828   -8.2199 C   0  0  0  0  0  0  0  0  0  0  0  0
  -18.6719  -42.4498   -8.8333 C   0  0  0  0  0  0  0  0  0  0  0  0
  -17.6949  -43.4822   -8.8653 C   0  0  0  0  0  0  0  0  0  0  0  0
  -17.8998  -44.7165   -8.3045 C   0  0  0  0  0  0  0  0  0  0  0  0
  -16.8676  -45.7929   -8.3563 C   0  0  0  0  0  0  0  0  0  0  0  0
  -19.0782  -44.8641   -7.7338 N   0  0  0  0  0  0  0  0  0  0  0  0
  -18.1167  -41.2561   -9.4829 C   0  0  0  0  0  0  0  0  0  0  0  0
  -17.5000  -41.3667  -10.6430 O   0  0  0  0  0  0  0  0  0  0  0  0
  -18.1127  -39.8884   -9.0676 N   0  0  0  0  0  0  0  0  0  0  0  0
  -13.8418  -37.3536  -10.9857 C   0  0  0  0  0  0  0  0  0  0  0  0
  1  2  1  0
  2  3  1  0
  2  4  1  0
  4  5  2  0
  5  6  1  0
  6  7  2  0
  7  8  1  0
  8  9  1  0
  9 10  1  0
 10 11  1  0
 11 12  1  0
 12 13  1  1
 12 14  1  0
 14 15  1  1
 15 16  1  0
 16 17  1  1
 16 18  1  0
 18 19  1  0
 19 20  1  0
 20 21  1  0
 21 22  1  0
 22 23  1  0
 23 24  1  0
 24 25  1  0
 24 26  1  0
 26 27  1  0
 27 28  2  0
 28 29  1  0
 29 30  2  0
 30 31  1  0
 30 32  1  0
 28 33  1  0
 33 34  2  0
 33 35  1  0
  8 36  2  0
 32 26  2  0
 35 14  1  0
 36  4  1  0
M  END
$$$$
