
     RDKit          3D

 36 38  0  0  0  0  0  0  0  0999 V2000
  -13.7547  -35.2831  -11.4811 C   0  0  0  0  0  0  0  0  0  0  0  0
  -13.2641  -35.7118  -12.8640 C   0  0  0  0  0  0  0  0  0  0  0  0
  -11.8514  -35.1998  -13.0733 C   0  0  0  0  0  0  0  0  0  0  0  0
  -13.3217  -37.1873  -12.8857 C   0  0  0  0  0  0  0  0  0  0  0  0
  -13.2873  -37.8874  -14.0545 C   0  0  0  0  0  0  0  0  0  0  0  0
  -13.3504  -39.2810  -14.0315 C   0  0  0  0  0  0  0  0  0  0  0  0
  -13.4479  -39.9378  -12.8031 C   0  0  0  0  0  0  0  0  0  0  0  0
  -13.4827  -39.2353  -11.6187 C   0  0  0  0  0  0  0  0  0  0  0  0
  -13.5884  -39.9299  -10.3228 C   0  0  0  0  0  0  0  0  0  0  0  0
  -14.9260  -40.1752   -9.8717 N   0  0  0  0  0  0  0  0  0  0  0  0
  -15.3388  -39.0596   -9.0266 C   0  0  0  0  0  0  0  0  0  0  0  0
  -16.1311  -39.5177   -7.8450 C   0  0  1  0  0  0  0  0  0  0  0  0
  -15.6123  -39.0481   -6.6404 O   0  0  0  0  0  0  0  0  0  0  0  0
  -17.5976  -39.2504   -8.0208 C   0  0  2  0  0  0  0  0  0  0  0  0
  -18.3995  -39.4539   -6.7858 C   0  0  0  0  0  0  0  0  0  0  0  0
  -19.7801  -38.8317   -6.8904 C   0  0  2  0  0  0  0  0  0  0  0  0
  -19.5465  -37.3536   -7.2414 C   0  0  0  0  0  0  0  0  0  0  0  0
  -20.5211  -38.8982   -5.5824 C   0  0  0  0  0  0  0  0  0  0  0  0
  -21.9910  -39.1731   -5.8444 C   0  0  0  0  0  0  0  0  0  0  0  0
  -22.7292  -39.7321   -4.6789 C   0  0  0  0  0  0  0  0  0  0  0  0
  -23.1807  -41.1895   -4.8653 C   0  0  0  0  0  0  0  0  0  0  0  0
  -22.2737  -41.8626   -5.8919 C   0  0  0  0  0  0  0  0  0  0  0  0
  -22.2744  -43.3443   -5.6427 C   0  0  0  0  0  0  0  0  0  0  0  0
  -21.1000  -44.0097   -6.1523 N   0  0  0  0  0  0  0  0  0  0  0  0
  -21.0318  -45.3746   -5.5215 C   0  0  0  0  0  0  0  0  0  0  0  0
  -20.0764  -43.5958   -7.0667 C   0  0  0  0  0  0  0  0  0  0  0  0
  -19.8910  -42.4590   -7.8176 C   0  0  0  0  0  0  0  0  0  0  0  0
  -18.7375  -42.3663   -8.5647 C   0  0  0  0  0  0  0  0  0  0  0  0
  -17.7995  -43.4345   -8.5371 C   0  0  0  0  0  0  0  0  0  0  0  0
  -17.9872  -44.5687   -7.7897 C   0  0  0  0  0  0  0  0  0  0  0  0
  -16.9975  -45.6855   -7.7804 C   0  0  0  0  0  0  0  0  0  0  0  0
  -19.1096  -44.5841   -7.0998 N   0  0  0  0  0  0  0  0  0  0  0  0
  -18.2110  -41.2999   -9.4254 C   0  0  0  0  0  0  0  0  0  0  0  0
  -17.7116  -41.5975  -10.6087 O   0  0  0  0  0  0  0  0  0  0  0  0
  -18.1263  -39.8891   -9.2115 N   0  0  0  0  0  0  0  0  0  0  0  0
  -13.4184  -37.8663  -11.6925 C   0  0  0  0  0  0  0  0  0  0  0  0
  1  2  1  0
  2  3  1  0
  2  4  1  0
  4  5  2  0
  5  6  1  0
  6  7  2  0
  7  8  1  0
  8  9  1  0
  9 10  1  0
 10 11  1  0
 11 12  1  0
 12 13  1  1
 12 14  1  0
 14 15  1  1
 15 16  1  0
 16 17  1  1
 16 18  1  0
 18 19  1  0
 19 20  1  0
 20 21  1  0
 21 22  1  0
 22 23  1  0
 23 24  1  0
 24 25  1  0
 24 26  1  0
 26 27  1  0
 27 28  2  0
 28 29  1  0
 29 30  2  0
 30 31  1  0
 30 32  1  0
 28 33  1  0
 33 34  2  0
 33 35  1  0
  8 36  2  0
 32 26  2  0
 35 14  1  0
 36  4  1  0
M  END
$$$$
