
     RDKit          3D

 36 38  0  0  0  0  0  0  0  0999 V2000
  -10.7885  -36.6010  -12.0163 C   0  0  0  0  0  0  0  0  0  0  0  0
  -12.1545  -36.6559  -11.3321 C   0  0  0  0  0  0  0  0  0  0  0  0
  -13.0463  -35.5735  -11.9107 C   0  0  0  0  0  0  0  0  0  0  0  0
  -12.6935  -38.0064  -11.5894 C   0  0  0  0  0  0  0  0  0  0  0  0
  -12.9275  -38.4541  -12.8553 C   0  0  0  0  0  0  0  0  0  0  0  0
  -13.4435  -39.7349  -13.0548 C   0  0  0  0  0  0  0  0  0  0  0  0
  -13.7125  -40.5406  -11.9464 C   0  0  0  0  0  0  0  0  0  0  0  0
  -13.4777  -40.0935  -10.6649 C   0  0  0  0  0  0  0  0  0  0  0  0
  -13.7648  -40.9442   -9.4958 C   0  0  0  0  0  0  0  0  0  0  0  0
  -14.3074  -40.2565   -8.3619 N   0  0  0  0  0  0  0  0  0  0  0  0
  -15.6888  -39.8939   -8.6610 C   0  0  0  0  0  0  0  0  0  0  0  0
  -16.2607  -38.9758   -7.6297 C   0  0  1  0  0  0  0  0  0  0  0  0
  -15.5939  -37.7538   -7.5748 O   0  0  0  0  0  0  0  0  0  0  0  0
  -17.7506  -38.8501   -7.7613 C   0  0  2  0  0  0  0  0  0  0  0  0
  -18.5052  -39.3759   -6.5934 C   0  0  0  0  0  0  0  0  0  0  0  0
  -19.9491  -38.9078   -6.5867 C   0  0  2  0  0  0  0  0  0  0  0  0
  -19.8909  -37.3731   -6.6472 C   0  0  0  0  0  0  0  0  0  0  0  0
  -20.6578  -39.3071   -5.3207 C   0  0  0  0  0  0  0  0  0  0  0  0
  -22.0905  -39.6939   -5.6406 C   0  0  0  0  0  0  0  0  0  0  0  0
  -22.7424  -40.5456   -4.6085 C   0  0  0  0  0  0  0  0  0  0  0  0
  -23.0277  -41.9829   -5.0730 C   0  0  0  0  0  0  0  0  0  0  0  0
  -22.0655  -42.3393   -6.2030 C   0  0  0  0  0  0  0  0  0  0  0  0
  -21.8935  -43.8315   -6.2415 C   0  0  0  0  0  0  0  0  0  0  0  0
  -20.6589  -44.2482   -6.8607 N   0  0  0  0  0  0  0  0  0  0  0  0
  -20.4259  -45.6913   -6.5019 C   0  0  0  0  0  0  0  0  0  0  0  0
  -19.7031  -43.5530   -7.6721 C   0  0  0  0  0  0  0  0  0  0  0  0
  -19.6599  -42.2802   -8.1907 C   0  0  0  0  0  0  0  0  0  0  0  0
  -18.5360  -41.9151   -8.8983 C   0  0  0  0  0  0  0  0  0  0  0  0
  -17.4821  -42.8541   -9.0689 C   0  0  0  0  0  0  0  0  0  0  0  0
  -17.5278  -44.1238   -8.5533 C   0  0  0  0  0  0  0  0  0  0  0  0
  -16.4173  -45.1008   -8.7507 C   0  0  0  0  0  0  0  0  0  0  0  0
  -18.6306  -44.3992   -7.8868 N   0  0  0  0  0  0  0  0  0  0  0  0
  -18.1477  -40.6509   -9.5357 C   0  0  0  0  0  0  0  0  0  0  0  0
  -17.6356  -40.6582  -10.7506 O   0  0  0  0  0  0  0  0  0  0  0  0
  -18.2210  -39.3065   -9.0557 N   0  0  0  0  0  0  0  0  0  0  0  0
  -12.9702  -38.8266  -10.5194 C   0  0  0  0  0  0  0  0  0  0  0  0
  1  2  1  0
  2  3  1  0
  2  4  1  0
  4  5  2  0
  5  6  1  0
  6  7  2  0
  7  8  1  0
  8  9  1  0
  9 10  1  0
 10 11  1  0
 11 12  1  0
 12 13  1  6
 12 14  1  0
 14 15  1  1
 15 16  1  0
 16 17  1  1
 16 18  1  0
 18 19  1  0
 19 20  1  0
 20 21  1  0
 21 22  1  0
 22 23  1  0
 23 24  1  0
 24 25  1  0
 24 26  1  0
 26 27  1  0
 27 28  2  0
 28 29  1  0
 29 30  2  0
 30 31  1  0
 30 32  1  0
 28 33  1  0
 33 34  2  0
 33 35  1  0
  8 36  2  0
 32 26  2  0
 35 14  1  0
 36  4  1  0
M  END
$$$$
