
     RDKit          3D

 36 38  0  0  0  0  0  0  0  0999 V2000
  -13.2731  -35.6096  -10.5581 C   0  0  0  0  0  0  0  0  0  0  0  0
  -13.5726  -35.9500  -12.0181 C   0  0  0  0  0  0  0  0  0  0  0  0
  -12.4290  -35.4641  -12.8886 C   0  0  0  0  0  0  0  0  0  0  0  0
  -13.7233  -37.4177  -12.0794 C   0  0  0  0  0  0  0  0  0  0  0  0
  -14.0698  -38.0536  -13.2340 C   0  0  0  0  0  0  0  0  0  0  0  0
  -14.2080  -39.4420  -13.2479 C   0  0  0  0  0  0  0  0  0  0  0  0
  -13.9871  -40.1597  -12.0705 C   0  0  0  0  0  0  0  0  0  0  0  0
  -13.6365  -39.5223  -10.9008 C   0  0  0  0  0  0  0  0  0  0  0  0
  -13.4063  -40.2811   -9.6582 C   0  0  0  0  0  0  0  0  0  0  0  0
  -14.1023  -39.7881   -8.5069 N   0  0  0  0  0  0  0  0  0  0  0  0
  -15.4208  -40.4118   -8.4639 C   0  0  0  0  0  0  0  0  0  0  0  0
  -16.1844  -40.0192   -7.2405 C   0  0  1  0  0  0  0  0  0  0  0  0
  -15.4932  -39.1021   -6.4518 O   0  0  0  0  0  0  0  0  0  0  0  0
  -17.5877  -39.6013   -7.5706 C   0  0  2  0  0  0  0  0  0  0  0  0
  -18.5635  -39.8503   -6.4772 C   0  0  0  0  0  0  0  0  0  0  0  0
  -19.8637  -39.0957   -6.6872 C   0  0  2  0  0  0  0  0  0  0  0  0
  -19.4689  -37.6183   -6.8412 C   0  0  0  0  0  0  0  0  0  0  0  0
  -20.7786  -39.2219   -5.4992 C   0  0  0  0  0  0  0  0  0  0  0  0
  -22.2162  -39.3324   -5.9742 C   0  0  0  0  0  0  0  0  0  0  0  0
  -23.1477  -39.9327   -4.9804 C   0  0  0  0  0  0  0  0  0  0  0  0
  -23.6831  -41.3166   -5.3816 C   0  0  0  0  0  0  0  0  0  0  0  0
  -22.7008  -41.9664   -6.3525 C   0  0  0  0  0  0  0  0  0  0  0  0
  -22.8521  -43.4589   -6.2696 C   0  0  0  0  0  0  0  0  0  0  0  0
  -21.6754  -44.1767   -6.6961 N   0  0  0  0  0  0  0  0  0  0  0  0
  -21.8013  -45.5975   -6.2155 C   0  0  0  0  0  0  0  0  0  0  0  0
  -20.5076  -43.7714   -7.4221 C   0  0  0  0  0  0  0  0  0  0  0  0
  -20.1329  -42.5881   -8.0139 C   0  0  0  0  0  0  0  0  0  0  0  0
  -18.8848  -42.5295   -8.5937 C   0  0  0  0  0  0  0  0  0  0  0  0
  -18.0464  -43.6775   -8.5649 C   0  0  0  0  0  0  0  0  0  0  0  0
  -18.4227  -44.8574   -7.9765 C   0  0  0  0  0  0  0  0  0  0  0  0
  -17.5346  -46.0566   -7.9644 C   0  0  0  0  0  0  0  0  0  0  0  0
  -19.6262  -44.8368   -7.4406 N   0  0  0  0  0  0  0  0  0  0  0  0
  -18.1640  -41.4368   -9.2583 C   0  0  0  0  0  0  0  0  0  0  0  0
  -17.5333  -41.6614  -10.3941 O   0  0  0  0  0  0  0  0  0  0  0  0
  -17.9982  -40.0679   -8.8816 N   0  0  0  0  0  0  0  0  0  0  0  0
  -13.5132  -38.1558  -10.9369 C   0  0  0  0  0  0  0  0  0  0  0  0
  1  2  1  0
  2  3  1  0
  2  4  1  0
  4  5  2  0
  5  6  1  0
  6  7  2  0
  7  8  1  0
  8  9  1  0
  9 10  1  0
 10 11  1  0
 11 12  1  0
 12 13  1  6
 12 14  1  0
 14 15  1  1
 15 16  1  0
 16 17  1  1
 16 18  1  0
 18 19  1  0
 19 20  1  0
 20 21  1  0
 21 22  1  0
 22 23  1  0
 23 24  1  0
 24 25  1  0
 24 26  1  0
 26 27  1  0
 27 28  2  0
 28 29  1  0
 29 30  2  0
 30 31  1  0
 30 32  1  0
 28 33  1  0
 33 34  2  0
 33 35  1  0
  8 36  2  0
 32 26  2  0
 35 14  1  0
 36  4  1  0
M  END
$$$$
