
     RDKit          3D

 36 38  0  0  0  0  0  0  0  0999 V2000
  -22.9544  -39.8955  -11.0429 C   0  0  0  0  0  0  0  0  0  0  0  0
  -21.5428  -39.3907  -10.7435 C   0  0  0  0  0  0  0  0  0  0  0  0
  -21.3081  -38.0919  -11.4914 C   0  0  0  0  0  0  0  0  0  0  0  0
  -21.4712  -39.2020   -9.2806 C   0  0  0  0  0  0  0  0  0  0  0  0
  -22.3748  -38.4296   -8.6139 C   0  0  0  0  0  0  0  0  0  0  0  0
  -22.2680  -38.2720   -7.2317 C   0  0  0  0  0  0  0  0  0  0  0  0
  -21.2303  -38.9131   -6.5517 C   0  0  0  0  0  0  0  0  0  0  0  0
  -20.3145  -39.6952   -7.2204 C   0  0  0  0  0  0  0  0  0  0  0  0
  -19.2182  -40.3691   -6.5016 C   0  0  0  0  0  0  0  0  0  0  0  0
  -17.9675  -39.6701   -6.5068 N   0  0  0  0  0  0  0  0  0  0  0  0
  -17.2367  -40.0429   -7.7136 C   0  0  0  0  0  0  0  0  0  0  0  0
  -15.8043  -39.6209   -7.6516 C   0  0  1  0  0  0  0  0  0  0  0  0
  -15.2350  -39.8481   -6.4005 O   0  0  0  0  0  0  0  0  0  0  0  0
  -15.0084  -40.1835   -8.7930 C   0  0  2  0  0  0  0  0  0  0  0  0
  -13.8041  -39.3841   -9.1397 C   0  0  0  0  0  0  0  0  0  0  0  0
  -12.8398  -40.1549  -10.0228 C   0  0  2  0  0  0  0  0  0  0  0  0
  -12.5244  -41.4532   -9.2630 C   0  0  0  0  0  0  0  0  0  0  0  0
  -11.5537  -39.4023  -10.2322 C   0  0  0  0  0  0  0  0  0  0  0  0
  -11.0686  -39.6109  -11.6554 C   0  0  0  0  0  0  0  0  0  0  0  0
  -10.1128  -38.5763  -12.1371 C   0  0  0  0  0  0  0  0  0  0  0  0
  -10.6767  -37.6711  -13.2441 C   0  0  0  0  0  0  0  0  0  0  0  0
  -12.1999  -37.6590  -13.1474 C   0  0  0  0  0  0  0  0  0  0  0  0
  -12.7145  -36.3828  -13.7508 C   0  0  0  0  0  0  0  0  0  0  0  0
  -14.0170  -36.0035  -13.2599 N   0  0  0  0  0  0  0  0  0  0  0  0
  -14.2475  -34.5621  -13.6268 C   0  0  0  0  0  0  0  0  0  0  0  0
  -15.0192  -36.7209  -12.5276 C   0  0  0  0  0  0  0  0  0  0  0  0
  -15.1163  -38.0232  -12.0971 C   0  0  0  0  0  0  0  0  0  0  0  0
  -16.2212  -38.3701  -11.3512 C   0  0  0  0  0  0  0  0  0  0  0  0
  -17.2071  -37.3867  -11.0640 C   0  0  0  0  0  0  0  0  0  0  0  0
  -17.1099  -36.0891  -11.4963 C   0  0  0  0  0  0  0  0  0  0  0  0
  -18.1592  -35.0718  -11.1951 C   0  0  0  0  0  0  0  0  0  0  0  0
  -16.0260  -35.8314  -12.1998 N   0  0  0  0  0  0  0  0  0  0  0  0
  -16.6127  -39.6307  -10.7087 C   0  0  0  0  0  0  0  0  0  0  0  0
  -17.8501  -40.0706  -10.8255 O   0  0  0  0  0  0  0  0  0  0  0  0
  -15.8526  -40.5456   -9.9161 N   0  0  0  0  0  0  0  0  0  0  0  0
  -20.4607  -39.8195   -8.5794 C   0  0  0  0  0  0  0  0  0  0  0  0
  1  2  1  0
  2  3  1  0
  2  4  1  0
  4  5  2  0
  5  6  1  0
  6  7  2  0
  7  8  1  0
  8  9  1  0
  9 10  1  0
 10 11  1  0
 11 12  1  0
 12 13  1  1
 12 14  1  0
 14 15  1  6
 15 16  1  0
 16 17  1  1
 16 18  1  0
 18 19  1  0
 19 20  1  0
 20 21  1  0
 21 22  1  0
 22 23  1  0
 23 24  1  0
 24 25  1  0
 24 26  1  0
 26 27  1  0
 27 28  2  0
 28 29  1  0
 29 30  2  0
 30 31  1  0
 30 32  1  0
 28 33  1  0
 33 34  2  0
 33 35  1  0
  8 36  2  0
 32 26  2  0
 35 14  1  0
 36  4  1  0
M  END
$$$$
