
     RDKit          3D

 36 38  0  0  0  0  0  0  0  0999 V2000
  -13.8962  -34.3574  -11.3905 C   0  0  0  0  0  0  0  0  0  0  0  0
  -12.8190  -35.0551  -12.2210 C   0  0  0  0  0  0  0  0  0  0  0  0
  -11.5799  -35.2512  -11.3679 C   0  0  0  0  0  0  0  0  0  0  0  0
  -13.3974  -36.3435  -12.6526 C   0  0  0  0  0  0  0  0  0  0  0  0
  -13.0603  -36.9162  -13.8426 C   0  0  0  0  0  0  0  0  0  0  0  0
  -13.6347  -38.1317  -14.2159 C   0  0  0  0  0  0  0  0  0  0  0  0
  -14.5505  -38.7439  -13.3576 C   0  0  0  0  0  0  0  0  0  0  0  0
  -14.8945  -38.1698  -12.1536 C   0  0  0  0  0  0  0  0  0  0  0  0
  -15.8634  -38.8159  -11.2499 C   0  0  0  0  0  0  0  0  0  0  0  0
  -15.2932  -39.7080  -10.2844 N   0  0  0  0  0  0  0  0  0  0  0  0
  -15.4261  -39.1026   -8.9633 C   0  0  0  0  0  0  0  0  0  0  0  0
  -16.2950  -39.9176   -8.0608 C   0  0  1  0  0  0  0  0  0  0  0  0
  -15.8606  -39.8932   -6.7373 O   0  0  0  0  0  0  0  0  0  0  0  0
  -17.7471  -39.5780   -8.2304 C   0  0  2  0  0  0  0  0  0  0  0  0
  -18.5533  -39.7432   -6.9925 C   0  0  0  0  0  0  0  0  0  0  0  0
  -19.9018  -39.0533   -7.0909 C   0  0  2  0  0  0  0  0  0  0  0  0
  -19.5968  -37.5882   -7.4411 C   0  0  0  0  0  0  0  0  0  0  0  0
  -20.6401  -39.0850   -5.7801 C   0  0  0  0  0  0  0  0  0  0  0  0
  -22.1228  -39.2865   -6.0366 C   0  0  0  0  0  0  0  0  0  0  0  0
  -22.8832  -39.8098   -4.8689 C   0  0  0  0  0  0  0  0  0  0  0  0
  -23.4070  -41.2430   -5.0551 C   0  0  0  0  0  0  0  0  0  0  0  0
  -22.5383  -41.9587   -6.0861 C   0  0  0  0  0  0  0  0  0  0  0  0
  -22.6113  -43.4389   -5.8386 C   0  0  0  0  0  0  0  0  0  0  0  0
  -21.4733  -44.1608   -6.3536 N   0  0  0  0  0  0  0  0  0  0  0  0
  -21.4701  -45.5282   -5.7247 C   0  0  0  0  0  0  0  0  0  0  0  0
  -20.4339  -43.7968   -7.2716 C   0  0  0  0  0  0  0  0  0  0  0  0
  -20.1955  -42.6695   -8.0219 C   0  0  0  0  0  0  0  0  0  0  0  0
  -19.0417  -42.6329   -8.7734 C   0  0  0  0  0  0  0  0  0  0  0  0
  -18.1577  -43.7463   -8.7507 C   0  0  0  0  0  0  0  0  0  0  0  0
  -18.3982  -44.8707   -8.0040 C   0  0  0  0  0  0  0  0  0  0  0  0
  -17.4650  -46.0351   -7.9998 C   0  0  0  0  0  0  0  0  0  0  0  0
  -19.5174  -44.8316   -7.3097 N   0  0  0  0  0  0  0  0  0  0  0  0
  -18.4666  -41.5927   -9.6349 C   0  0  0  0  0  0  0  0  0  0  0  0
  -17.9870  -41.9130  -10.8205 O   0  0  0  0  0  0  0  0  0  0  0  0
  -18.3113  -40.1881   -9.4198 N   0  0  0  0  0  0  0  0  0  0  0  0
  -14.3036  -36.9739  -11.8306 C   0  0  0  0  0  0  0  0  0  0  0  0
  1  2  1  0
  2  3  1  0
  2  4  1  0
  4  5  2  0
  5  6  1  0
  6  7  2  0
  7  8  1  0
  8  9  1  0
  9 10  1  0
 10 11  1  0
 11 12  1  0
 12 13  1  1
 12 14  1  0
 14 15  1  1
 15 16  1  0
 16 17  1  1
 16 18  1  0
 18 19  1  0
 19 20  1  0
 20 21  1  0
 21 22  1  0
 22 23  1  0
 23 24  1  0
 24 25  1  0
 24 26  1  0
 26 27  1  0
 27 28  2  0
 28 29  1  0
 29 30  2  0
 30 31  1  0
 30 32  1  0
 28 33  1  0
 33 34  2  0
 33 35  1  0
  8 36  2  0
 32 26  2  0
 35 14  1  0
 36  4  1  0
M  END
$$$$
