
     RDKit          3D

 36 38  0  0  0  0  0  0  0  0999 V2000
  -13.2842  -34.5319  -12.1176 C   0  0  0  0  0  0  0  0  0  0  0  0
  -12.2241  -35.4529  -12.7218 C   0  0  0  0  0  0  0  0  0  0  0  0
  -10.8586  -35.0567  -12.1929 C   0  0  0  0  0  0  0  0  0  0  0  0
  -12.5904  -36.8262  -12.3208 C   0  0  0  0  0  0  0  0  0  0  0  0
  -12.5376  -37.8663  -13.2000 C   0  0  0  0  0  0  0  0  0  0  0  0
  -12.8982  -39.1478  -12.7824 C   0  0  0  0  0  0  0  0  0  0  0  0
  -13.3092  -39.3430  -11.4622 C   0  0  0  0  0  0  0  0  0  0  0  0
  -13.3641  -38.2956  -10.5692 C   0  0  0  0  0  0  0  0  0  0  0  0
  -13.8007  -38.5027   -9.1766 C   0  0  0  0  0  0  0  0  0  0  0  0
  -14.2324  -39.8332   -8.8662 N   0  0  0  0  0  0  0  0  0  0  0  0
  -15.6609  -39.9313   -9.1476 C   0  0  0  0  0  0  0  0  0  0  0  0
  -16.4467  -38.8924   -8.4148 C   0  0  1  0  0  0  0  0  0  0  0  0
  -15.8803  -37.6238   -8.5179 O   0  0  0  0  0  0  0  0  0  0  0  0
  -17.9031  -38.9392   -8.7751 C   0  0  2  0  0  0  0  0  0  0  0  0
  -18.8050  -39.1510   -7.6127 C   0  0  0  0  0  0  0  0  0  0  0  0
  -20.2507  -38.8271   -7.9430 C   0  0  2  0  0  0  0  0  0  0  0  0
  -20.2454  -37.3827   -8.4684 C   0  0  0  0  0  0  0  0  0  0  0  0
  -21.1272  -38.8853   -6.7213 C   0  0  0  0  0  0  0  0  0  0  0  0
  -22.4779  -39.4706   -7.0923 C   0  0  0  0  0  0  0  0  0  0  0  0
  -23.2447  -40.0243   -5.9429 C   0  0  0  0  0  0  0  0  0  0  0  0
  -23.3982  -41.5535   -5.9720 C   0  0  0  0  0  0  0  0  0  0  0  0
  -22.2617  -42.1506   -6.7977 C   0  0  0  0  0  0  0  0  0  0  0  0
  -22.0262  -43.5648   -6.3481 C   0  0  0  0  0  0  0  0  0  0  0  0
  -20.6960  -44.0422   -6.6381 N   0  0  0  0  0  0  0  0  0  0  0  0
  -20.4628  -45.2850   -5.8217 C   0  0  0  0  0  0  0  0  0  0  0  0
  -19.6564  -43.5450   -7.4909 C   0  0  0  0  0  0  0  0  0  0  0  0
  -19.5858  -42.4886   -8.3682 C   0  0  0  0  0  0  0  0  0  0  0  0
  -18.3828  -42.2593   -8.9987 C   0  0  0  0  0  0  0  0  0  0  0  0
  -17.2785  -43.1131   -8.7282 C   0  0  0  0  0  0  0  0  0  0  0  0
  -17.3513  -44.1677   -7.8550 C   0  0  0  0  0  0  0  0  0  0  0  0
  -16.1855  -45.0608   -7.5905 C   0  0  0  0  0  0  0  0  0  0  0  0
  -18.5308  -44.3223   -7.2883 N   0  0  0  0  0  0  0  0  0  0  0  0
  -17.9529  -41.2176   -9.9395 C   0  0  0  0  0  0  0  0  0  0  0  0
  -17.2620  -41.5468  -11.0130 O   0  0  0  0  0  0  0  0  0  0  0  0
  -18.1523  -39.8024   -9.9144 N   0  0  0  0  0  0  0  0  0  0  0  0
  -13.0002  -37.0538  -11.0268 C   0  0  0  0  0  0  0  0  0  0  0  0
  1  2  1  0
  2  3  1  0
  2  4  1  0
  4  5  2  0
  5  6  1  0
  6  7  2  0
  7  8  1  0
  8  9  1  0
  9 10  1  0
 10 11  1  0
 11 12  1  0
 12 13  1  6
 12 14  1  0
 14 15  1  1
 15 16  1  0
 16 17  1  1
 16 18  1  0
 18 19  1  0
 19 20  1  0
 20 21  1  0
 21 22  1  0
 22 23  1  0
 23 24  1  0
 24 25  1  0
 24 26  1  0
 26 27  1  0
 27 28  2  0
 28 29  1  0
 29 30  2  0
 30 31  1  0
 30 32  1  0
 28 33  1  0
 33 34  2  0
 33 35  1  0
  8 36  2  0
 32 26  2  0
 35 14  1  0
 36  4  1  0
M  END
$$$$
