
     RDKit          3D

 36 38  0  0  0  0  0  0  0  0999 V2000
  -21.8623  -40.6473   -2.8571 C   0  0  0  0  0  0  0  0  0  0  0  0
  -22.6437  -41.0021   -4.1222 C   0  0  0  0  0  0  0  0  0  0  0  0
  -23.0989  -39.7248   -4.8024 C   0  0  0  0  0  0  0  0  0  0  0  0
  -21.7220  -41.7793   -4.9749 C   0  0  0  0  0  0  0  0  0  0  0  0
  -21.9055  -43.1111   -5.1984 C   0  0  0  0  0  0  0  0  0  0  0  0
  -21.0077  -43.8102   -6.0058 C   0  0  0  0  0  0  0  0  0  0  0  0
  -19.9301  -43.1280   -6.5744 C   0  0  0  0  0  0  0  0  0  0  0  0
  -19.7399  -41.7819   -6.3523 C   0  0  0  0  0  0  0  0  0  0  0  0
  -18.6004  -41.0637   -6.9511 C   0  0  0  0  0  0  0  0  0  0  0  0
  -17.3232  -41.6855   -6.7634 N   0  0  0  0  0  0  0  0  0  0  0  0
  -16.3326  -40.6405   -6.5269 C   0  0  0  0  0  0  0  0  0  0  0  0
  -16.7088  -39.3546   -7.1891 C   0  0  1  0  0  0  0  0  0  0  0  0
  -16.8630  -38.3111   -6.2790 O   0  0  0  0  0  0  0  0  0  0  0  0
  -15.7960  -39.0312   -8.3359 C   0  0  2  0  0  0  0  0  0  0  0  0
  -16.0796  -37.7226   -8.9814 C   0  0  0  0  0  0  0  0  0  0  0  0
  -14.9375  -37.2623   -9.8690 C   0  0  2  0  0  0  0  0  0  0  0  0
  -13.6892  -37.2537   -8.9725 C   0  0  0  0  0  0  0  0  0  0  0  0
  -15.1615  -35.8668  -10.3855 C   0  0  0  0  0  0  0  0  0  0  0  0
  -14.6619  -35.7678  -11.8156 C   0  0  0  0  0  0  0  0  0  0  0  0
  -15.2398  -34.6368  -12.5918 C   0  0  0  0  0  0  0  0  0  0  0  0
  -16.1784  -35.0734  -13.7283 C   0  0  0  0  0  0  0  0  0  0  0  0
  -16.7394  -36.4556  -13.4052 C   0  0  0  0  0  0  0  0  0  0  0  0
  -18.0526  -36.6246  -14.1154 C   0  0  0  0  0  0  0  0  0  0  0  0
  -18.9137  -37.6039  -13.4984 N   0  0  0  0  0  0  0  0  0  0  0  0
  -20.3020  -37.4095  -14.0465 C   0  0  0  0  0  0  0  0  0  0  0  0
  -18.6708  -38.6232  -12.5199 C   0  0  0  0  0  0  0  0  0  0  0  0
  -17.5343  -39.0611  -11.8817 C   0  0  0  0  0  0  0  0  0  0  0  0
  -17.6737  -40.0493  -10.9323 C   0  0  0  0  0  0  0  0  0  0  0  0
  -18.9653  -40.5757  -10.6563 C   0  0  0  0  0  0  0  0  0  0  0  0
  -20.0973  -40.1397  -11.2954 C   0  0  0  0  0  0  0  0  0  0  0  0
  -21.4443  -40.7105  -11.0013 C   0  0  0  0  0  0  0  0  0  0  0  0
  -19.8863  -39.1921  -12.1864 N   0  0  0  0  0  0  0  0  0  0  0  0
  -16.7003  -40.7034  -10.0492 C   0  0  0  0  0  0  0  0  0  0  0  0
  -16.7194  -42.0140   -9.9073 O   0  0  0  0  0  0  0  0  0  0  0  0
  -15.6536  -40.1507   -9.2479 N   0  0  0  0  0  0  0  0  0  0  0  0
  -20.6491  -41.1378   -5.5508 C   0  0  0  0  0  0  0  0  0  0  0  0
  1  2  1  0
  2  3  1  0
  2  4  1  0
  4  5  2  0
  5  6  1  0
  6  7  2  0
  7  8  1  0
  8  9  1  0
  9 10  1  0
 10 11  1  0
 11 12  1  0
 12 13  1  1
 12 14  1  0
 14 15  1  6
 15 16  1  0
 16 17  1  1
 16 18  1  0
 18 19  1  0
 19 20  1  0
 20 21  1  0
 21 22  1  0
 22 23  1  0
 23 24  1  0
 24 25  1  0
 24 26  1  0
 26 27  1  0
 27 28  2  0
 28 29  1  0
 29 30  2  0
 30 31  1  0
 30 32  1  0
 28 33  1  0
 33 34  2  0
 33 35  1  0
  8 36  2  0
 32 26  2  0
 35 14  1  0
 36  4  1  0
M  END
$$$$
