
     RDKit          3D

 36 38  0  0  0  0  0  0  0  0999 V2000
  -13.9145  -33.9382  -10.5873 C   0  0  0  0  0  0  0  0  0  0  0  0
  -13.0733  -34.6988  -11.6124 C   0  0  0  0  0  0  0  0  0  0  0  0
  -11.6494  -34.8153  -11.1018 C   0  0  0  0  0  0  0  0  0  0  0  0
  -13.7091  -36.0222  -11.7710 C   0  0  0  0  0  0  0  0  0  0  0  0
  -14.5736  -36.2828  -12.7918 C   0  0  0  0  0  0  0  0  0  0  0  0
  -15.1579  -37.5450  -12.9022 C   0  0  0  0  0  0  0  0  0  0  0  0
  -14.8439  -38.5252  -11.9585 C   0  0  0  0  0  0  0  0  0  0  0  0
  -13.9706  -38.2676  -10.9249 C   0  0  0  0  0  0  0  0  0  0  0  0
  -13.6423  -39.3025   -9.9279 C   0  0  0  0  0  0  0  0  0  0  0  0
  -14.3649  -39.2093   -8.6942 N   0  0  0  0  0  0  0  0  0  0  0  0
  -15.7153  -39.7177   -8.9119 C   0  0  0  0  0  0  0  0  0  0  0  0
  -16.5225  -39.7143   -7.6541 C   0  0  1  0  0  0  0  0  0  0  0  0
  -16.0361  -38.8121   -6.7105 O   0  0  0  0  0  0  0  0  0  0  0  0
  -17.9897  -39.5686   -7.9348 C   0  0  2  0  0  0  0  0  0  0  0  0
  -18.8649  -40.0698   -6.8427 C   0  0  0  0  0  0  0  0  0  0  0  0
  -20.2948  -39.5808   -6.9847 C   0  0  2  0  0  0  0  0  0  0  0  0
  -20.2070  -38.0479   -7.0547 C   0  0  0  0  0  0  0  0  0  0  0  0
  -21.1321  -39.9550   -5.7917 C   0  0  0  0  0  0  0  0  0  0  0  0
  -22.5317  -40.3247   -6.2488 C   0  0  0  0  0  0  0  0  0  0  0  0
  -23.2963  -41.1549   -5.2782 C   0  0  0  0  0  0  0  0  0  0  0  0
  -23.5562  -42.5932   -5.7542 C   0  0  0  0  0  0  0  0  0  0  0  0
  -22.4921  -42.9766   -6.7791 C   0  0  0  0  0  0  0  0  0  0  0  0
  -22.3403  -44.4715   -6.7850 C   0  0  0  0  0  0  0  0  0  0  0  0
  -21.0568  -44.9132   -7.2739 N   0  0  0  0  0  0  0  0  0  0  0  0
  -20.8832  -46.3552   -6.8790 C   0  0  0  0  0  0  0  0  0  0  0  0
  -20.0143  -44.2414   -7.9930 C   0  0  0  0  0  0  0  0  0  0  0  0
  -19.9000  -42.9755   -8.5175 C   0  0  0  0  0  0  0  0  0  0  0  0
  -18.7056  -42.6349   -9.1133 C   0  0  0  0  0  0  0  0  0  0  0  0
  -17.6547  -43.5911   -9.1684 C   0  0  0  0  0  0  0  0  0  0  0  0
  -17.7713  -44.8539   -8.6471 C   0  0  0  0  0  0  0  0  0  0  0  0
  -16.6620  -45.8491   -8.7229 C   0  0  0  0  0  0  0  0  0  0  0  0
  -18.9391  -45.1055   -8.0911 N   0  0  0  0  0  0  0  0  0  0  0  0
  -18.2362  -41.3840   -9.7216 C   0  0  0  0  0  0  0  0  0  0  0  0
  -17.6060  -41.4129  -10.8793 O   0  0  0  0  0  0  0  0  0  0  0  0
  -18.3360  -40.0333   -9.2649 N   0  0  0  0  0  0  0  0  0  0  0  0
  -13.4219  -37.0113  -10.8580 C   0  0  0  0  0  0  0  0  0  0  0  0
  1  2  1  0
  2  3  1  0
  2  4  1  0
  4  5  2  0
  5  6  1  0
  6  7  2  0
  7  8  1  0
  8  9  1  0
  9 10  1  0
 10 11  1  0
 11 12  1  0
 12 13  1  1
 12 14  1  0
 14 15  1  1
 15 16  1  0
 16 17  1  1
 16 18  1  0
 18 19  1  0
 19 20  1  0
 20 21  1  0
 21 22  1  0
 22 23  1  0
 23 24  1  0
 24 25  1  0
 24 26  1  0
 26 27  1  0
 27 28  2  0
 28 29  1  0
 29 30  2  0
 30 31  1  0
 30 32  1  0
 28 33  1  0
 33 34  2  0
 33 35  1  0
  8 36  2  0
 32 26  2  0
 35 14  1  0
 36  4  1  0
M  END
$$$$
