
     RDKit          3D

 36 38  0  0  0  0  0  0  0  0999 V2000
  -14.5563  -34.7675  -11.7737 C   0  0  0  0  0  0  0  0  0  0  0  0
  -13.2864  -35.3330  -12.4098 C   0  0  0  0  0  0  0  0  0  0  0  0
  -12.1023  -35.0366  -11.5089 C   0  0  0  0  0  0  0  0  0  0  0  0
  -13.5098  -36.7848  -12.5622 C   0  0  0  0  0  0  0  0  0  0  0  0
  -13.7104  -37.3533  -13.7845 C   0  0  0  0  0  0  0  0  0  0  0  0
  -13.9241  -38.7284  -13.8844 C   0  0  0  0  0  0  0  0  0  0  0  0
  -13.9285  -39.5027  -12.7224 C   0  0  0  0  0  0  0  0  0  0  0  0
  -13.7260  -38.9336  -11.4844 C   0  0  0  0  0  0  0  0  0  0  0  0
  -13.7336  -39.7519  -10.2584 C   0  0  0  0  0  0  0  0  0  0  0  0
  -15.0336  -40.0559   -9.7382 N   0  0  0  0  0  0  0  0  0  0  0  0
  -15.2468  -39.2569   -8.5358 C   0  0  0  0  0  0  0  0  0  0  0  0
  -16.1944  -39.9174   -7.5875 C   0  0  1  0  0  0  0  0  0  0  0  0
  -15.8820  -39.6590   -6.2546 O   0  0  0  0  0  0  0  0  0  0  0  0
  -17.6250  -39.6340   -7.9426 C   0  0  2  0  0  0  0  0  0  0  0  0
  -18.5676  -39.7708   -6.8013 C   0  0  0  0  0  0  0  0  0  0  0  0
  -19.9135  -39.1312   -7.0903 C   0  0  2  0  0  0  0  0  0  0  0  0
  -19.6098  -37.6737   -7.4722 C   0  0  0  0  0  0  0  0  0  0  0  0
  -20.8012  -39.1291   -5.8753 C   0  0  0  0  0  0  0  0  0  0  0  0
  -22.2367  -39.3910   -6.2941 C   0  0  0  0  0  0  0  0  0  0  0  0
  -23.1156  -39.8869   -5.1999 C   0  0  0  0  0  0  0  0  0  0  0  0
  -23.5736  -41.3435   -5.3774 C   0  0  0  0  0  0  0  0  0  0  0  0
  -22.5691  -42.0750   -6.2637 C   0  0  0  0  0  0  0  0  0  0  0  0
  -22.6299  -43.5443   -5.9557 C   0  0  0  0  0  0  0  0  0  0  0  0
  -21.4192  -44.2502   -6.2983 N   0  0  0  0  0  0  0  0  0  0  0  0
  -21.4529  -45.5875   -5.6084 C   0  0  0  0  0  0  0  0  0  0  0  0
  -20.2887  -43.8931   -7.1043 C   0  0  0  0  0  0  0  0  0  0  0  0
  -19.9941  -42.7929   -7.8747 C   0  0  0  0  0  0  0  0  0  0  0  0
  -18.7607  -42.7514   -8.4864 C   0  0  0  0  0  0  0  0  0  0  0  0
  -17.8550  -43.8326   -8.3068 C   0  0  0  0  0  0  0  0  0  0  0  0
  -18.1514  -44.9302   -7.5403 C   0  0  0  0  0  0  0  0  0  0  0  0
  -17.1933  -46.0617   -7.3707 C   0  0  0  0  0  0  0  0  0  0  0  0
  -19.3457  -44.8976   -6.9848 N   0  0  0  0  0  0  0  0  0  0  0  0
  -18.1163  -41.7319   -9.3235 C   0  0  0  0  0  0  0  0  0  0  0  0
  -17.4907  -42.0885  -10.4278 O   0  0  0  0  0  0  0  0  0  0  0  0
  -18.0268  -40.3148   -9.1592 N   0  0  0  0  0  0  0  0  0  0  0  0
  -13.5206  -37.5774  -11.4370 C   0  0  0  0  0  0  0  0  0  0  0  0
  1  2  1  0
  2  3  1  0
  2  4  1  0
  4  5  2  0
  5  6  1  0
  6  7  2  0
  7  8  1  0
  8  9  1  0
  9 10  1  0
 10 11  1  0
 11 12  1  0
 12 13  1  1
 12 14  1  0
 14 15  1  1
 15 16  1  0
 16 17  1  1
 16 18  1  0
 18 19  1  0
 19 20  1  0
 20 21  1  0
 21 22  1  0
 22 23  1  0
 23 24  1  0
 24 25  1  0
 24 26  1  0
 26 27  1  0
 27 28  2  0
 28 29  1  0
 29 30  2  0
 30 31  1  0
 30 32  1  0
 28 33  1  0
 33 34  2  0
 33 35  1  0
  8 36  2  0
 32 26  2  0
 35 14  1  0
 36  4  1  0
M  END
$$$$
