
     RDKit          3D

 36 38  0  0  0  0  0  0  0  0999 V2000
  -12.4480  -34.0686  -10.4407 C   0  0  0  0  0  0  0  0  0  0  0  0
  -13.7049  -34.6889  -11.0509 C   0  0  0  0  0  0  0  0  0  0  0  0
  -14.1819  -33.8215  -12.2006 C   0  0  0  0  0  0  0  0  0  0  0  0
  -13.3218  -36.0405  -11.5057 C   0  0  0  0  0  0  0  0  0  0  0  0
  -12.2809  -36.2386  -12.3630 C   0  0  0  0  0  0  0  0  0  0  0  0
  -11.9554  -37.5318  -12.7734 C   0  0  0  0  0  0  0  0  0  0  0  0
  -12.7069  -38.6071  -12.2949 C   0  0  0  0  0  0  0  0  0  0  0  0
  -13.7597  -38.4129  -11.4281 C   0  0  0  0  0  0  0  0  0  0  0  0
  -14.5538  -39.5488  -10.9261 C   0  0  0  0  0  0  0  0  0  0  0  0
  -14.6714  -39.6255   -9.5002 N   0  0  0  0  0  0  0  0  0  0  0  0
  -15.7489  -40.5548   -9.1764 C   0  0  0  0  0  0  0  0  0  0  0  0
  -16.4627  -40.1666   -7.9220 C   0  0  1  0  0  0  0  0  0  0  0  0
  -15.7583  -39.2228   -7.1777 O   0  0  0  0  0  0  0  0  0  0  0  0
  -17.8905  -39.7882   -8.1885 C   0  0  2  0  0  0  0  0  0  0  0  0
  -18.7738  -39.8920   -6.9974 C   0  0  0  0  0  0  0  0  0  0  0  0
  -20.0913  -39.1648   -7.1963 C   0  0  2  0  0  0  0  0  0  0  0  0
  -19.7192  -37.7207   -7.5681 C   0  0  0  0  0  0  0  0  0  0  0  0
  -20.9069  -39.1350   -5.9321 C   0  0  0  0  0  0  0  0  0  0  0  0
  -22.3774  -39.2991   -6.2720 C   0  0  0  0  0  0  0  0  0  0  0  0
  -23.2224  -39.7641   -5.1382 C   0  0  0  0  0  0  0  0  0  0  0  0
  -23.7798  -41.1856   -5.3158 C   0  0  0  0  0  0  0  0  0  0  0  0
  -22.8747  -41.9577   -6.2720 C   0  0  0  0  0  0  0  0  0  0  0  0
  -23.0097  -43.4269   -5.9882 C   0  0  0  0  0  0  0  0  0  0  0  0
  -21.8668  -44.1980   -6.4132 N   0  0  0  0  0  0  0  0  0  0  0  0
  -21.9450  -45.5456   -5.7474 C   0  0  0  0  0  0  0  0  0  0  0  0
  -20.7635  -43.8932   -7.2765 C   0  0  0  0  0  0  0  0  0  0  0  0
  -20.4448  -42.7965   -8.0422 C   0  0  0  0  0  0  0  0  0  0  0  0
  -19.2478  -42.8173   -8.7233 C   0  0  0  0  0  0  0  0  0  0  0  0
  -18.4028  -43.9558   -8.6163 C   0  0  0  0  0  0  0  0  0  0  0  0
  -18.7233  -45.0497   -7.8544 C   0  0  0  0  0  0  0  0  0  0  0  0
  -17.8298  -46.2413   -7.7614 C   0  0  0  0  0  0  0  0  0  0  0  0
  -19.8800  -44.9561   -7.2303 N   0  0  0  0  0  0  0  0  0  0  0  0
  -18.5893  -41.8211   -9.5772 C   0  0  0  0  0  0  0  0  0  0  0  0
  -18.0506  -42.1909  -10.7223 O   0  0  0  0  0  0  0  0  0  0  0  0
  -18.4022  -40.4161   -9.3922 N   0  0  0  0  0  0  0  0  0  0  0  0
  -14.0418  -37.1229  -11.0536 C   0  0  0  0  0  0  0  0  0  0  0  0
  1  2  1  0
  2  3  1  0
  2  4  1  0
  4  5  2  0
  5  6  1  0
  6  7  2  0
  7  8  1  0
  8  9  1  0
  9 10  1  0
 10 11  1  0
 11 12  1  0
 12 13  1  6
 12 14  1  0
 14 15  1  1
 15 16  1  0
 16 17  1  1
 16 18  1  0
 18 19  1  0
 19 20  1  0
 20 21  1  0
 21 22  1  0
 22 23  1  0
 23 24  1  0
 24 25  1  0
 24 26  1  0
 26 27  1  0
 27 28  2  0
 28 29  1  0
 29 30  2  0
 30 31  1  0
 30 32  1  0
 28 33  1  0
 33 34  2  0
 33 35  1  0
  8 36  2  0
 32 26  2  0
 35 14  1  0
 36  4  1  0
M  END
$$$$
