
     RDKit          3D

 36 38  0  0  0  0  0  0  0  0999 V2000
  -22.6412  -38.1984   -8.1915 C   0  0  0  0  0  0  0  0  0  0  0  0
  -23.4412  -38.7261   -7.0005 C   0  0  0  0  0  0  0  0  0  0  0  0
  -24.6911  -39.4209   -7.5072 C   0  0  0  0  0  0  0  0  0  0  0  0
  -22.5491  -39.6576   -6.2814 C   0  0  0  0  0  0  0  0  0  0  0  0
  -22.8696  -40.1490   -5.0512 C   0  0  0  0  0  0  0  0  0  0  0  0
  -21.9957  -41.0222   -4.4028 C   0  0  0  0  0  0  0  0  0  0  0  0
  -20.8004  -41.3795   -5.0302 C   0  0  0  0  0  0  0  0  0  0  0  0
  -20.4715  -40.8862   -6.2736 C   0  0  0  0  0  0  0  0  0  0  0  0
  -19.2082  -41.2622   -6.9335 C   0  0  0  0  0  0  0  0  0  0  0  0
  -18.7947  -40.3934   -7.9952 N   0  0  0  0  0  0  0  0  0  0  0  0
  -17.5430  -39.7528   -7.6048 C   0  0  0  0  0  0  0  0  0  0  0  0
  -17.0268  -38.8407   -8.6703 C   0  0  1  0  0  0  0  0  0  0  0  0
  -17.6948  -37.6183   -8.6957 O   0  0  0  0  0  0  0  0  0  0  0  0
  -15.5319  -38.7158   -8.6197 C   0  0  2  0  0  0  0  0  0  0  0  0
  -14.9445  -38.0276   -9.7991 C   0  0  0  0  0  0  0  0  0  0  0  0
  -13.5113  -37.5921   -9.5531 C   0  0  2  0  0  0  0  0  0  0  0  0
  -13.5504  -36.7245   -8.2850 C   0  0  0  0  0  0  0  0  0  0  0  0
  -12.9818  -36.7549  -10.6857 C   0  0  0  0  0  0  0  0  0  0  0  0
  -11.5217  -37.0929  -10.9282 C   0  0  0  0  0  0  0  0  0  0  0  0
  -11.0201  -36.7187  -12.2787 C   0  0  0  0  0  0  0  0  0  0  0  0
  -10.6849  -37.9207  -13.1764 C   0  0  0  0  0  0  0  0  0  0  0  0
  -11.4891  -39.1301  -12.7070 C   0  0  0  0  0  0  0  0  0  0  0  0
  -11.6647  -40.0744  -13.8624 C   0  0  0  0  0  0  0  0  0  0  0  0
  -12.8079  -40.9431  -13.7214 N   0  0  0  0  0  0  0  0  0  0  0  0
  -13.0968  -41.5492  -15.0685 C   0  0  0  0  0  0  0  0  0  0  0  0
  -13.6414  -41.2677  -12.6010 C   0  0  0  0  0  0  0  0  0  0  0  0
  -13.6058  -40.9190  -11.2714 C   0  0  0  0  0  0  0  0  0  0  0  0
  -14.6221  -41.3768  -10.4622 C   0  0  0  0  0  0  0  0  0  0  0  0
  -15.6500  -42.1848  -11.0210 C   0  0  0  0  0  0  0  0  0  0  0  0
  -15.6825  -42.5337  -12.3466 C   0  0  0  0  0  0  0  0  0  0  0  0
  -16.7632  -43.3916  -12.9149 C   0  0  0  0  0  0  0  0  0  0  0  0
  -14.6811  -42.0568  -13.0578 N   0  0  0  0  0  0  0  0  0  0  0  0
  -14.9126  -41.1632   -9.0391 C   0  0  0  0  0  0  0  0  0  0  0  0
  -15.2571  -42.1838   -8.2788 O   0  0  0  0  0  0  0  0  0  0  0  0
  -14.8952  -39.9677   -8.2558 N   0  0  0  0  0  0  0  0  0  0  0  0
  -21.3627  -40.0303   -6.8712 C   0  0  0  0  0  0  0  0  0  0  0  0
  1  2  1  0
  2  3  1  0
  2  4  1  0
  4  5  2  0
  5  6  1  0
  6  7  2  0
  7  8  1  0
  8  9  1  0
  9 10  1  0
 10 11  1  0
 11 12  1  0
 12 13  1  1
 12 14  1  0
 14 15  1  6
 15 16  1  0
 16 17  1  1
 16 18  1  0
 18 19  1  0
 19 20  1  0
 20 21  1  0
 21 22  1  0
 22 23  1  0
 23 24  1  0
 24 25  1  0
 24 26  1  0
 26 27  1  0
 27 28  2  0
 28 29  1  0
 29 30  2  0
 30 31  1  0
 30 32  1  0
 28 33  1  0
 33 34  2  0
 33 35  1  0
  8 36  2  0
 32 26  2  0
 35 14  1  0
 36  4  1  0
M  END
$$$$
