
     RDKit          3D

 36 38  0  0  0  0  0  0  0  0999 V2000
  -14.4395  -34.5507  -11.8640 C   0  0  0  0  0  0  0  0  0  0  0  0
  -13.7358  -35.4750  -12.8577 C   0  0  0  0  0  0  0  0  0  0  0  0
  -12.6327  -34.7057  -13.5599 C   0  0  0  0  0  0  0  0  0  0  0  0
  -13.2013  -36.6029  -12.0685 C   0  0  0  0  0  0  0  0  0  0  0  0
  -11.9086  -36.6252  -11.6373 C   0  0  0  0  0  0  0  0  0  0  0  0
  -11.4412  -37.7131  -10.8993 C   0  0  0  0  0  0  0  0  0  0  0  0
  -12.3123  -38.7664  -10.6135 C   0  0  0  0  0  0  0  0  0  0  0  0
  -13.6199  -38.7490  -11.0463 C   0  0  0  0  0  0  0  0  0  0  0  0
  -14.5375  -39.8628  -10.7462 C   0  0  0  0  0  0  0  0  0  0  0  0
  -15.7726  -39.4832  -10.1269 N   0  0  0  0  0  0  0  0  0  0  0  0
  -15.4775  -38.9451   -8.8030 C   0  0  0  0  0  0  0  0  0  0  0  0
  -16.2878  -39.6093   -7.7372 C   0  0  1  0  0  0  0  0  0  0  0  0
  -15.8105  -39.3376   -6.4569 O   0  0  0  0  0  0  0  0  0  0  0  0
  -17.7555  -39.3449   -7.9078 C   0  0  2  0  0  0  0  0  0  0  0  0
  -18.5591  -39.5943   -6.6824 C   0  0  0  0  0  0  0  0  0  0  0  0
  -19.9431  -38.9769   -6.7696 C   0  0  2  0  0  0  0  0  0  0  0  0
  -19.7174  -37.4866   -7.0703 C   0  0  0  0  0  0  0  0  0  0  0  0
  -20.6869  -39.0916   -5.4666 C   0  0  0  0  0  0  0  0  0  0  0  0
  -22.1544  -39.3661   -5.7415 C   0  0  0  0  0  0  0  0  0  0  0  0
  -22.8922  -39.9681   -4.5974 C   0  0  0  0  0  0  0  0  0  0  0  0
  -23.3347  -41.4211   -4.8337 C   0  0  0  0  0  0  0  0  0  0  0  0
  -22.4212  -42.0541   -5.8799 C   0  0  0  0  0  0  0  0  0  0  0  0
  -22.4137  -43.5433   -5.6804 C   0  0  0  0  0  0  0  0  0  0  0  0
  -21.2343  -44.1844   -6.2090 N   0  0  0  0  0  0  0  0  0  0  0  0
  -21.1595  -45.5692   -5.6241 C   0  0  0  0  0  0  0  0  0  0  0  0
  -20.2108  -43.7342   -7.1063 C   0  0  0  0  0  0  0  0  0  0  0  0
  -20.0303  -42.5717   -7.8182 C   0  0  0  0  0  0  0  0  0  0  0  0
  -18.8756  -42.4473   -8.5587 C   0  0  0  0  0  0  0  0  0  0  0  0
  -17.9314  -43.5104   -8.5645 C   0  0  0  0  0  0  0  0  0  0  0  0
  -18.1142  -44.6700   -7.8561 C   0  0  0  0  0  0  0  0  0  0  0  0
  -17.1180  -45.7808   -7.8816 C   0  0  0  0  0  0  0  0  0  0  0  0
  -19.2382  -44.7152   -7.1700 N   0  0  0  0  0  0  0  0  0  0  0  0
  -18.3534  -41.3496   -9.3818 C   0  0  0  0  0  0  0  0  0  0  0  0
  -17.8493  -41.6045  -10.5731 O   0  0  0  0  0  0  0  0  0  0  0  0
  -18.2774  -39.9464   -9.1206 N   0  0  0  0  0  0  0  0  0  0  0  0
  -14.0330  -37.6578  -11.7692 C   0  0  0  0  0  0  0  0  0  0  0  0
  1  2  1  0
  2  3  1  0
  2  4  1  0
  4  5  2  0
  5  6  1  0
  6  7  2  0
  7  8  1  0
  8  9  1  0
  9 10  1  0
 10 11  1  0
 11 12  1  0
 12 13  1  1
 12 14  1  0
 14 15  1  1
 15 16  1  0
 16 17  1  1
 16 18  1  0
 18 19  1  0
 19 20  1  0
 20 21  1  0
 21 22  1  0
 22 23  1  0
 23 24  1  0
 24 25  1  0
 24 26  1  0
 26 27  1  0
 27 28  2  0
 28 29  1  0
 29 30  2  0
 30 31  1  0
 30 32  1  0
 28 33  1  0
 33 34  2  0
 33 35  1  0
  8 36  2  0
 32 26  2  0
 35 14  1  0
 36  4  1  0
M  END
$$$$
