
     RDKit          3D

 38 41  0  0  0  0  0  0  0  0999 V2000
  -15.7520  -34.9707  -10.0082 C   0  0  0  0  0  0  0  0  0  0  0  0
  -15.1770  -35.3908  -11.3481 C   0  0  0  0  0  0  0  0  0  0  0  0
  -16.2820  -35.9318  -12.2239 C   0  0  0  0  0  0  0  0  0  0  0  0
  -14.1872  -36.4691  -11.1316 C   0  0  0  0  0  0  0  0  0  0  0  0
  -13.0209  -36.5588  -11.8784 C   0  0  0  0  0  0  0  0  0  0  0  0
  -12.1391  -37.5901  -11.6193 C   0  0  0  0  0  0  0  0  0  0  0  0
  -12.3912  -38.4990  -10.6641 N   0  0  0  0  0  0  0  0  0  0  0  0
  -13.5130  -38.4413   -9.9217 C   0  0  0  0  0  0  0  0  0  0  0  0
  -13.8146  -39.4279   -8.8535 C   0  0  0  0  0  0  0  0  0  0  0  0
  -15.1470  -39.9763   -9.0096 N   0  0  0  0  0  0  0  0  0  0  0  0
  -15.9991  -39.3313   -8.0269 C   0  0  0  0  0  0  0  0  0  0  0  0
  -17.4458  -39.6799   -8.2153 C   0  0  1  0  0  0  0  0  0  0  0  0
  -18.1764  -39.2853   -7.1383 O   0  0  0  0  0  0  0  0  0  0  0  0
  -18.0103  -39.4584   -9.5692 C   0  0  2  0  0  0  0  0  0  0  0  0
  -19.2323  -38.6279   -9.6988 C   0  0  0  0  0  0  0  0  0  0  0  0
  -20.1853  -38.6080   -8.5402 C   0  0  0  0  0  0  0  0  0  0  0  0
  -20.3273  -37.2848   -8.0545 C   0  0  0  0  0  0  0  0  0  0  0  0
  -21.1387  -36.9319   -7.0098 C   0  0  0  0  0  0  0  0  0  0  0  0
  -21.8305  -37.9685   -6.4411 C   0  0  0  0  0  0  0  0  0  0  0  0
  -21.7199  -39.3069   -6.8952 C   0  0  0  0  0  0  0  0  0  0  0  0
  -20.8877  -39.6309   -7.9549 C   0  0  0  0  0  0  0  0  0  0  0  0
  -22.5306  -40.1403   -6.1385 O   0  0  0  0  0  0  0  0  0  0  0  0
  -23.5241  -41.0709   -6.3794 C   0  0  0  0  0  0  0  0  0  0  0  0
  -23.4063  -42.3080   -5.5133 C   0  0  0  0  0  0  0  0  0  0  0  0
  -22.0964  -43.0022   -5.6959 C   0  0  0  0  0  0  0  0  0  0  0  0
  -22.2066  -44.2264   -6.5765 C   0  0  0  0  0  0  0  0  0  0  0  0
  -21.0318  -44.6903   -7.1100 O   0  0  0  0  0  0  0  0  0  0  0  0
  -19.8283  -44.2135   -7.5782 C   0  0  0  0  0  0  0  0  0  0  0  0
  -18.7428  -44.7665   -6.8942 C   0  0  0  0  0  0  0  0  0  0  0  0
  -17.4285  -44.4540   -7.1692 C   0  0  0  0  0  0  0  0  0  0  0  0
  -17.2500  -43.5499   -8.1745 C   0  0  0  0  0  0  0  0  0  0  0  0
  -18.2883  -42.9369   -8.9243 C   0  0  0  0  0  0  0  0  0  0  0  0
  -19.5705  -43.3005   -8.5917 C   0  0  0  0  0  0  0  0  0  0  0  0
  -17.7494  -42.0095   -9.9275 C   0  0  0  0  0  0  0  0  0  0  0  0
  -16.7367  -42.4989  -10.6322 O   0  0  0  0  0  0  0  0  0  0  0  0
  -18.0448  -40.6971  -10.3378 N   0  0  0  0  0  0  0  0  0  0  0  0
  -18.4494  -40.5005  -11.7442 C   0  0  0  0  0  0  0  0  0  0  0  0
  -14.3999  -37.4205  -10.1693 C   0  0  0  0  0  0  0  0  0  0  0  0
  1  2  1  0
  2  3  1  0
  2  4  1  0
  4  5  2  0
  5  6  1  0
  6  7  2  0
  7  8  1  0
  8  9  1  0
  9 10  1  0
 10 11  1  0
 11 12  1  0
 12 13  1  1
 12 14  1  0
 14 15  1  1
 15 16  1  0
 16 17  2  0
 17 18  1  0
 18 19  2  0
 19 20  1  0
 20 21  2  0
 20 22  1  0
 22 23  1  0
 23 24  1  0
 24 25  1  0
 25 26  1  0
 26 27  1  0
 27 28  1  0
 28 29  2  0
 29 30  1  0
 30 31  2  0
 31 32  1  0
 32 33  2  0
 32 34  1  0
 34 35  2  0
 34 36  1  0
 36 37  1  0
  8 38  2  0
 21 16  1  0
 33 28  1  0
 36 14  1  0
 38  4  1  0
M  END
$$$$
