
     RDKit          3D

 38 41  0  0  0  0  0  0  0  0999 V2000
  -17.1158  -38.1055  -12.2304 C   0  0  0  0  0  0  0  0  0  0  0  0
  -17.3682  -38.6893  -10.8527 C   0  0  0  0  0  0  0  0  0  0  0  0
  -16.2942  -39.7003  -10.5288 C   0  0  0  0  0  0  0  0  0  0  0  0
  -18.6741  -39.3850  -10.8555 C   0  0  0  0  0  0  0  0  0  0  0  0
  -19.8581  -38.7273  -11.1575 C   0  0  0  0  0  0  0  0  0  0  0  0
  -21.0410  -39.4407  -11.1450 C   0  0  0  0  0  0  0  0  0  0  0  0
  -21.0621  -40.7496  -10.8477 N   0  0  0  0  0  0  0  0  0  0  0  0
  -19.9318  -41.4180  -10.5499 C   0  0  0  0  0  0  0  0  0  0  0  0
  -19.9237  -42.8670  -10.2247 C   0  0  0  0  0  0  0  0  0  0  0  0
  -21.2465  -43.4416  -10.3663 N   0  0  0  0  0  0  0  0  0  0  0  0
  -21.5971  -44.0420   -9.0917 C   0  0  0  0  0  0  0  0  0  0  0  0
  -21.3567  -43.1102   -7.9412 C   0  0  1  0  0  0  0  0  0  0  0  0
  -22.4946  -42.4348   -7.6276 O   0  0  0  0  0  0  0  0  0  0  0  0
  -20.5164  -43.6274   -6.8334 C   0  0  2  0  0  0  0  0  0  0  0  0
  -20.8432  -43.2162   -5.4464 C   0  0  0  0  0  0  0  0  0  0  0  0
  -21.4960  -41.8793   -5.2533 C   0  0  0  0  0  0  0  0  0  0  0  0
  -22.7574  -42.0435   -4.6298 C   0  0  0  0  0  0  0  0  0  0  0  0
  -23.5950  -41.0104   -4.3048 C   0  0  0  0  0  0  0  0  0  0  0  0
  -23.1265  -39.7645   -4.6281 C   0  0  0  0  0  0  0  0  0  0  0  0
  -21.8707  -39.5535   -5.2512 C   0  0  0  0  0  0  0  0  0  0  0  0
  -21.0469  -40.6218   -5.5686 C   0  0  0  0  0  0  0  0  0  0  0  0
  -21.6578  -38.1985   -5.4583 O   0  0  0  0  0  0  0  0  0  0  0  0
  -20.6731  -37.2754   -5.1594 C   0  0  0  0  0  0  0  0  0  0  0  0
  -20.3833  -36.3210   -6.2995 C   0  0  0  0  0  0  0  0  0  0  0  0
  -19.9574  -37.0362   -7.5397 C   0  0  0  0  0  0  0  0  0  0  0  0
  -18.4624  -36.9773   -7.7586 C   0  0  0  0  0  0  0  0  0  0  0  0
  -17.9451  -37.9063   -8.6242 O   0  0  0  0  0  0  0  0  0  0  0  0
  -18.1551  -39.2083   -9.0187 C   0  0  0  0  0  0  0  0  0  0  0  0
  -18.3824  -39.3101  -10.3934 C   0  0  0  0  0  0  0  0  0  0  0  0
  -18.6210  -40.5035  -11.0409 C   0  0  0  0  0  0  0  0  0  0  0  0
  -18.6213  -41.6048  -10.2366 C   0  0  0  0  0  0  0  0  0  0  0  0
  -18.3999  -41.5998   -8.8340 C   0  0  0  0  0  0  0  0  0  0  0  0
  -18.1682  -40.3725   -8.2625 C   0  0  0  0  0  0  0  0  0  0  0  0
  -18.4730  -42.9560   -8.2750 C   0  0  0  0  0  0  0  0  0  0  0  0
  -17.7971  -43.8660   -8.9653 O   0  0  0  0  0  0  0  0  0  0  0  0
  -19.0981  -43.5473   -7.1625 N   0  0  0  0  0  0  0  0  0  0  0  0
  -18.2286  -44.1950   -6.1602 C   0  0  0  0  0  0  0  0  0  0  0  0
  -18.7473  -40.7201  -10.5579 C   0  0  0  0  0  0  0  0  0  0  0  0
  1  2  1  0
  2  3  1  0
  2  4  1  0
  4  5  2  0
  5  6  1  0
  6  7  2  0
  7  8  1  0
  8  9  1  0
  9 10  1  0
 10 11  1  0
 11 12  1  0
 12 13  1  1
 12 14  1  0
 14 15  1  1
 15 16  1  0
 16 17  2  0
 17 18  1  0
 18 19  2  0
 19 20  1  0
 20 21  2  0
 20 22  1  0
 22 23  1  0
 23 24  1  0
 24 25  1  0
 25 26  1  0
 26 27  1  0
 27 28  1  0
 28 29  2  0
 29 30  1  0
 30 31  2  0
 31 32  1  0
 32 33  2  0
 32 34  1  0
 34 35  2  0
 34 36  1  0
 36 37  1  0
  8 38  2  0
 21 16  1  0
 33 28  1  0
 36 14  1  0
 38  4  1  0
M  END
$$$$
