
     RDKit          3D

 38 41  0  0  0  0  0  0  0  0999 V2000
  -23.3788  -42.5906   -5.5190 C   0  0  0  0  0  0  0  0  0  0  0  0
  -22.6563  -41.9632   -6.6967 C   0  0  0  0  0  0  0  0  0  0  0  0
  -21.6842  -42.9602   -7.2812 C   0  0  0  0  0  0  0  0  0  0  0  0
  -21.8887  -40.7904   -6.2226 C   0  0  0  0  0  0  0  0  0  0  0  0
  -22.4521  -39.5247   -6.1437 C   0  0  0  0  0  0  0  0  0  0  0  0
  -21.6776  -38.4755   -5.6879 C   0  0  0  0  0  0  0  0  0  0  0  0
  -20.3990  -38.6606   -5.3231 N   0  0  0  0  0  0  0  0  0  0  0  0
  -19.8216  -39.8754   -5.3875 C   0  0  0  0  0  0  0  0  0  0  0  0
  -18.4121  -40.1113   -4.9836 C   0  0  0  0  0  0  0  0  0  0  0  0
  -17.5770  -40.3844   -6.1360 N   0  0  0  0  0  0  0  0  0  0  0  0
  -16.6175  -39.3000   -6.2428 C   0  0  0  0  0  0  0  0  0  0  0  0
  -16.1384  -39.1038   -7.6506 C   0  0  1  0  0  0  0  0  0  0  0  0
  -15.2882  -38.0449   -7.7226 O   0  0  0  0  0  0  0  0  0  0  0  0
  -15.8019  -40.3307   -8.4136 C   0  0  2  0  0  0  0  0  0  0  0  0
  -14.5937  -40.3197   -9.2737 C   0  0  0  0  0  0  0  0  0  0  0  0
  -14.1666  -39.0044   -9.8554 C   0  0  0  0  0  0  0  0  0  0  0  0
  -12.8573  -38.6854   -9.4183 C   0  0  0  0  0  0  0  0  0  0  0  0
  -12.1779  -37.5550   -9.7856 C   0  0  0  0  0  0  0  0  0  0  0  0
  -12.8607  -36.7206  -10.6304 C   0  0  0  0  0  0  0  0  0  0  0  0
  -14.1710  -37.0003  -11.0937 C   0  0  0  0  0  0  0  0  0  0  0  0
  -14.8319  -38.1535  -10.7014 C   0  0  0  0  0  0  0  0  0  0  0  0
  -14.6115  -35.9871  -11.9325 O   0  0  0  0  0  0  0  0  0  0  0  0
  -15.1307  -35.8900  -13.2100 C   0  0  0  0  0  0  0  0  0  0  0  0
  -16.2771  -34.9056  -13.3155 C   0  0  0  0  0  0  0  0  0  0  0  0
  -17.4075  -35.2559  -12.4041 C   0  0  0  0  0  0  0  0  0  0  0  0
  -18.5549  -35.9194  -13.1317 C   0  0  0  0  0  0  0  0  0  0  0  0
  -19.4412  -36.6136  -12.3492 O   0  0  0  0  0  0  0  0  0  0  0  0
  -19.4591  -37.3789  -11.2050 C   0  0  0  0  0  0  0  0  0  0  0  0
  -20.3294  -36.8626  -10.2417 C   0  0  0  0  0  0  0  0  0  0  0  0
  -20.5297  -37.4409   -9.0064 C   0  0  0  0  0  0  0  0  0  0  0  0
  -19.8081  -38.5753   -8.7780 C   0  0  0  0  0  0  0  0  0  0  0  0
  -18.9026  -39.1734   -9.6938 C   0  0  0  0  0  0  0  0  0  0  0  0
  -18.7583  -38.5388  -10.9035 C   0  0  0  0  0  0  0  0  0  0  0  0
  -18.2898  -40.3828   -9.1293 C   0  0  0  0  0  0  0  0  0  0  0  0
  -19.1505  -41.2062   -8.5438 O   0  0  0  0  0  0  0  0  0  0  0  0
  -16.9840  -40.8994   -9.0504 N   0  0  0  0  0  0  0  0  0  0  0  0
  -16.7316  -42.2065   -9.6890 C   0  0  0  0  0  0  0  0  0  0  0  0
  -20.5807  -40.9284   -5.8400 C   0  0  0  0  0  0  0  0  0  0  0  0
  1  2  1  0
  2  3  1  0
  2  4  1  0
  4  5  2  0
  5  6  1  0
  6  7  2  0
  7  8  1  0
  8  9  1  0
  9 10  1  0
 10 11  1  0
 11 12  1  0
 12 13  1  1
 12 14  1  0
 14 15  1  6
 15 16  1  0
 16 17  2  0
 17 18  1  0
 18 19  2  0
 19 20  1  0
 20 21  2  0
 20 22  1  0
 22 23  1  0
 23 24  1  0
 24 25  1  0
 25 26  1  0
 26 27  1  0
 27 28  1  0
 28 29  2  0
 29 30  1  0
 30 31  2  0
 31 32  1  0
 32 33  2  0
 32 34  1  0
 34 35  2  0
 34 36  1  0
 36 37  1  0
  8 38  2  0
 21 16  1  0
 33 28  1  0
 36 14  1  0
 38  4  1  0
M  END
$$$$
