
     RDKit          3D

 38 41  0  0  0  0  0  0  0  0999 V2000
  -19.4544  -37.0057  -11.2647 C   0  0  0  0  0  0  0  0  0  0  0  0
  -18.9633  -36.3526   -9.9861 C   0  0  0  0  0  0  0  0  0  0  0  0
  -17.4605  -36.4758   -9.9017 C   0  0  0  0  0  0  0  0  0  0  0  0
  -19.5522  -37.0587   -8.8267 C   0  0  0  0  0  0  0  0  0  0  0  0
  -19.0306  -36.9349   -7.5467 C   0  0  0  0  0  0  0  0  0  0  0  0
  -19.6339  -37.6202   -6.5100 C   0  0  0  0  0  0  0  0  0  0  0  0
  -20.7082  -38.3973   -6.7205 N   0  0  0  0  0  0  0  0  0  0  0  0
  -21.2392  -38.5395   -7.9497 C   0  0  0  0  0  0  0  0  0  0  0  0
  -22.4311  -39.3858   -8.2110 C   0  0  0  0  0  0  0  0  0  0  0  0
  -22.2454  -40.1982   -9.3966 N   0  0  0  0  0  0  0  0  0  0  0  0
  -21.8153  -41.5137   -8.9578 C   0  0  0  0  0  0  0  0  0  0  0  0
  -22.6589  -42.0404   -7.8350 C   0  0  1  0  0  0  0  0  0  0  0  0
  -23.9752  -41.7909   -8.0688 O   0  0  0  0  0  0  0  0  0  0  0  0
  -22.2796  -43.3651   -7.2856 C   0  0  2  0  0  0  0  0  0  0  0  0
  -21.8012  -43.4388   -5.8837 C   0  0  0  0  0  0  0  0  0  0  0  0
  -21.1085  -42.2328   -5.3213 C   0  0  0  0  0  0  0  0  0  0  0  0
  -21.8160  -41.7523   -4.1919 C   0  0  0  0  0  0  0  0  0  0  0  0
  -21.4314  -40.6703   -3.4465 C   0  0  0  0  0  0  0  0  0  0  0  0
  -20.2820  -40.0572   -3.8701 C   0  0  0  0  0  0  0  0  0  0  0  0
  -19.5418  -40.5042   -4.9935 C   0  0  0  0  0  0  0  0  0  0  0  0
  -19.9596  -41.6026   -5.7280 C   0  0  0  0  0  0  0  0  0  0  0  0
  -18.4290  -39.6991   -5.1879 O   0  0  0  0  0  0  0  0  0  0  0  0
  -17.0654  -39.8799   -5.3257 C   0  0  0  0  0  0  0  0  0  0  0  0
  -16.4537  -39.0099   -6.4043 C   0  0  0  0  0  0  0  0  0  0  0  0
  -17.0697  -39.2537   -7.7430 C   0  0  0  0  0  0  0  0  0  0  0  0
  -16.2025  -40.1163   -8.6320 C   0  0  0  0  0  0  0  0  0  0  0  0
  -16.8334  -40.7056   -9.6972 O   0  0  0  0  0  0  0  0  0  0  0  0
  -18.0575  -41.2398  -10.0309 C   0  0  0  0  0  0  0  0  0  0  0  0
  -18.6204  -40.6080  -11.1425 C   0  0  0  0  0  0  0  0  0  0  0  0
  -19.8426  -40.9534  -11.6786 C   0  0  0  0  0  0  0  0  0  0  0  0
  -20.4830  -41.9747  -11.0410 C   0  0  0  0  0  0  0  0  0  0  0  0
  -19.9908  -42.6753   -9.9082 C   0  0  0  0  0  0  0  0  0  0  0  0
  -18.7660  -42.2735   -9.4336 C   0  0  0  0  0  0  0  0  0  0  0  0
  -20.9323  -43.7134   -9.4692 C   0  0  0  0  0  0  0  0  0  0  0  0
  -21.4107  -44.4651  -10.4529 O   0  0  0  0  0  0  0  0  0  0  0  0
  -21.4692  -44.1197   -8.2344 N   0  0  0  0  0  0  0  0  0  0  0  0
  -21.1999  -45.5050   -7.8001 C   0  0  0  0  0  0  0  0  0  0  0  0
  -20.6482  -37.8637   -8.9909 C   0  0  0  0  0  0  0  0  0  0  0  0
  1  2  1  0
  2  3  1  0
  2  4  1  0
  4  5  2  0
  5  6  1  0
  6  7  2  0
  7  8  1  0
  8  9  1  0
  9 10  1  0
 10 11  1  0
 11 12  1  0
 12 13  1  6
 12 14  1  0
 14 15  1  1
 15 16  1  0
 16 17  2  0
 17 18  1  0
 18 19  2  0
 19 20  1  0
 20 21  2  0
 20 22  1  0
 22 23  1  0
 23 24  1  0
 24 25  1  0
 25 26  1  0
 26 27  1  0
 27 28  1  0
 28 29  2  0
 29 30  1  0
 30 31  2  0
 31 32  1  0
 32 33  2  0
 32 34  1  0
 34 35  2  0
 34 36  1  0
 36 37  1  0
  8 38  2  0
 21 16  1  0
 33 28  1  0
 36 14  1  0
 38  4  1  0
M  END
$$$$
