
     RDKit          3D

 38 41  0  0  0  0  0  0  0  0999 V2000
  -10.8657  -37.2236  -11.9789 C   0  0  0  0  0  0  0  0  0  0  0  0
  -12.2709  -37.0375  -11.4375 C   0  0  0  0  0  0  0  0  0  0  0  0
  -12.2106  -36.3025  -10.1197 C   0  0  0  0  0  0  0  0  0  0  0  0
  -12.8761  -38.3667  -11.1997 C   0  0  0  0  0  0  0  0  0  0  0  0
  -13.1967  -39.2266  -12.2406 C   0  0  0  0  0  0  0  0  0  0  0  0
  -13.7559  -40.4547  -11.9449 C   0  0  0  0  0  0  0  0  0  0  0  0
  -13.9917  -40.8256  -10.6764 N   0  0  0  0  0  0  0  0  0  0  0  0
  -13.6928  -40.0154   -9.6432 C   0  0  0  0  0  0  0  0  0  0  0  0
  -13.9352  -40.4020   -8.2300 C   0  0  0  0  0  0  0  0  0  0  0  0
  -15.3454  -40.3312   -7.9034 N   0  0  0  0  0  0  0  0  0  0  0  0
  -16.0310  -39.7815   -9.0592 C   0  0  0  0  0  0  0  0  0  0  0  0
  -17.4825  -39.5203   -8.7859 C   0  0  1  0  0  0  0  0  0  0  0  0
  -17.6247  -38.6559   -7.7457 O   0  0  0  0  0  0  0  0  0  0  0  0
  -18.3597  -39.3485   -9.9698 C   0  0  2  0  0  0  0  0  0  0  0  0
  -19.6116  -38.5683   -9.8152 C   0  0  0  0  0  0  0  0  0  0  0  0
  -20.2638  -38.5613   -8.4642 C   0  0  0  0  0  0  0  0  0  0  0  0
  -20.3427  -37.2348   -7.9730 C   0  0  0  0  0  0  0  0  0  0  0  0
  -20.8985  -36.8920   -6.7697 C   0  0  0  0  0  0  0  0  0  0  0  0
  -21.3920  -37.9424   -6.0422 C   0  0  0  0  0  0  0  0  0  0  0  0
  -21.3356  -39.2847   -6.4950 C   0  0  0  0  0  0  0  0  0  0  0  0
  -20.7644  -39.5981   -7.7180 C   0  0  0  0  0  0  0  0  0  0  0  0
  -21.9087  -40.1329   -5.5588 O   0  0  0  0  0  0  0  0  0  0  0  0
  -22.8908  -41.1056   -5.5475 C   0  0  0  0  0  0  0  0  0  0  0  0
  -22.5198  -42.3193   -4.7206 C   0  0  0  0  0  0  0  0  0  0  0  0
  -21.2620  -42.9663   -5.2007 C   0  0  0  0  0  0  0  0  0  0  0  0
  -21.5254  -44.2117   -6.0167 C   0  0  0  0  0  0  0  0  0  0  0  0
  -20.4915  -44.6410   -6.8083 O   0  0  0  0  0  0  0  0  0  0  0  0
  -19.4538  -44.1280   -7.5534 C   0  0  0  0  0  0  0  0  0  0  0  0
  -18.2152  -44.6248   -7.1401 C   0  0  0  0  0  0  0  0  0  0  0  0
  -17.0174  -44.2678   -7.7220 C   0  0  0  0  0  0  0  0  0  0  0  0
  -17.1197  -43.3784   -8.7506 C   0  0  0  0  0  0  0  0  0  0  0  0
  -18.3306  -42.8211   -9.2398 C   0  0  0  0  0  0  0  0  0  0  0  0
  -19.4814  -43.2267   -8.6089 C   0  0  0  0  0  0  0  0  0  0  0  0
  -18.0835  -41.8945  -10.3521 C   0  0  0  0  0  0  0  0  0  0  0  0
  -17.2462  -42.3590  -11.2712 O   0  0  0  0  0  0  0  0  0  0  0  0
  -18.5226  -40.6031  -10.6949 N   0  0  0  0  0  0  0  0  0  0  0  0
  -19.2558  -40.4510  -11.9675 C   0  0  0  0  0  0  0  0  0  0  0  0
  -13.1364  -38.7898   -9.9231 C   0  0  0  0  0  0  0  0  0  0  0  0
  1  2  1  0
  2  3  1  0
  2  4  1  0
  4  5  2  0
  5  6  1  0
  6  7  2  0
  7  8  1  0
  8  9  1  0
  9 10  1  0
 10 11  1  0
 11 12  1  0
 12 13  1  1
 12 14  1  0
 14 15  1  1
 15 16  1  0
 16 17  2  0
 17 18  1  0
 18 19  2  0
 19 20  1  0
 20 21  2  0
 20 22  1  0
 22 23  1  0
 23 24  1  0
 24 25  1  0
 25 26  1  0
 26 27  1  0
 27 28  1  0
 28 29  2  0
 29 30  1  0
 30 31  2  0
 31 32  1  0
 32 33  2  0
 32 34  1  0
 34 35  2  0
 34 36  1  0
 36 37  1  0
  8 38  2  0
 21 16  1  0
 33 28  1  0
 36 14  1  0
 38  4  1  0
M  END
$$$$
