
     RDKit          3D

 38 41  0  0  0  0  0  0  0  0999 V2000
  -10.3664  -38.0582  -10.8728 C   0  0  0  0  0  0  0  0  0  0  0  0
  -11.3780  -37.3226  -10.0138 C   0  0  0  0  0  0  0  0  0  0  0  0
  -11.6158  -38.0972   -8.7395 C   0  0  0  0  0  0  0  0  0  0  0  0
  -12.6596  -37.2327  -10.7478 C   0  0  0  0  0  0  0  0  0  0  0  0
  -12.9495  -36.1734  -11.5961 C   0  0  0  0  0  0  0  0  0  0  0  0
  -14.1647  -36.1563  -12.2528 C   0  0  0  0  0  0  0  0  0  0  0  0
  -15.0617  -37.1408  -12.0842 N   0  0  0  0  0  0  0  0  0  0  0  0
  -14.8123  -38.1827  -11.2685 C   0  0  0  0  0  0  0  0  0  0  0  0
  -15.7821  -39.2895  -11.0685 C   0  0  0  0  0  0  0  0  0  0  0  0
  -17.0738  -38.7831  -10.6499 N   0  0  0  0  0  0  0  0  0  0  0  0
  -17.0611  -38.7085   -9.2000 C   0  0  0  0  0  0  0  0  0  0  0  0
  -18.4010  -39.0246   -8.6045 C   0  0  1  0  0  0  0  0  0  0  0  0
  -18.3881  -38.8145   -7.2609 O   0  0  0  0  0  0  0  0  0  0  0  0
  -19.5896  -38.5842   -9.3751 C   0  0  2  0  0  0  0  0  0  0  0  0
  -20.7322  -37.9935   -8.6367 C   0  0  0  0  0  0  0  0  0  0  0  0
  -20.9523  -38.4421   -7.2221 C   0  0  0  0  0  0  0  0  0  0  0  0
  -20.8704  -37.3323   -6.3454 C   0  0  0  0  0  0  0  0  0  0  0  0
  -21.0397  -37.4096   -4.9890 C   0  0  0  0  0  0  0  0  0  0  0  0
  -21.3026  -38.6662   -4.5113 C   0  0  0  0  0  0  0  0  0  0  0  0
  -21.3945  -39.8042   -5.3517 C   0  0  0  0  0  0  0  0  0  0  0  0
  -21.2163  -39.6918   -6.7213 C   0  0  0  0  0  0  0  0  0  0  0  0
  -21.6696  -40.9369   -4.5996 O   0  0  0  0  0  0  0  0  0  0  0  0
  -22.6117  -41.9486   -4.6081 C   0  0  0  0  0  0  0  0  0  0  0  0
  -22.0210  -43.3169   -4.3377 C   0  0  0  0  0  0  0  0  0  0  0  0
  -20.9688  -43.6841   -5.3322 C   0  0  0  0  0  0  0  0  0  0  0  0
  -21.4735  -44.6493   -6.3809 C   0  0  0  0  0  0  0  0  0  0  0  0
  -20.7259  -44.7359   -7.5270 O   0  0  0  0  0  0  0  0  0  0  0  0
  -19.9532  -43.9396   -8.3417 C   0  0  0  0  0  0  0  0  0  0  0  0
  -18.6517  -44.4302   -8.4738 C   0  0  0  0  0  0  0  0  0  0  0  0
  -17.6789  -43.8171   -9.2342 C   0  0  0  0  0  0  0  0  0  0  0  0
  -18.0757  -42.6748   -9.8644 C   0  0  0  0  0  0  0  0  0  0  0  0
  -19.3728  -42.1018   -9.7905 C   0  0  0  0  0  0  0  0  0  0  0  0
  -20.2867  -42.7717   -9.0141 C   0  0  0  0  0  0  0  0  0  0  0  0
  -19.4607  -40.8698  -10.5851 C   0  0  0  0  0  0  0  0  0  0  0  0
  -18.9391  -40.9687  -11.8016 O   0  0  0  0  0  0  0  0  0  0  0  0
  -19.9714  -39.5767  -10.3730 N   0  0  0  0  0  0  0  0  0  0  0  0
  -21.0492  -39.1168  -11.2713 C   0  0  0  0  0  0  0  0  0  0  0  0
  -13.6070  -38.2121  -10.6080 C   0  0  0  0  0  0  0  0  0  0  0  0
  1  2  1  0
  2  3  1  0
  2  4  1  0
  4  5  2  0
  5  6  1  0
  6  7  2  0
  7  8  1  0
  8  9  1  0
  9 10  1  0
 10 11  1  0
 11 12  1  0
 12 13  1  1
 12 14  1  0
 14 15  1  1
 15 16  1  0
 16 17  2  0
 17 18  1  0
 18 19  2  0
 19 20  1  0
 20 21  2  0
 20 22  1  0
 22 23  1  0
 23 24  1  0
 24 25  1  0
 25 26  1  0
 26 27  1  0
 27 28  1  0
 28 29  2  0
 29 30  1  0
 30 31  2  0
 31 32  1  0
 32 33  2  0
 32 34  1  0
 34 35  2  0
 34 36  1  0
 36 37  1  0
  8 38  2  0
 21 16  1  0
 33 28  1  0
 36 14  1  0
 38  4  1  0
M  END
$$$$
