
     RDKit          3D

 38 41  0  0  0  0  0  0  0  0999 V2000
  -21.7119  -38.9817   -4.9723 C   0  0  0  0  0  0  0  0  0  0  0  0
  -22.6527  -40.1296   -4.6562 C   0  0  0  0  0  0  0  0  0  0  0  0
  -22.6894  -40.3553   -3.1635 C   0  0  0  0  0  0  0  0  0  0  0  0
  -22.1439  -41.3614   -5.2990 C   0  0  0  0  0  0  0  0  0  0  0  0
  -22.6561  -42.6151   -4.9967 C   0  0  0  0  0  0  0  0  0  0  0  0
  -22.1358  -43.7223   -5.6385 C   0  0  0  0  0  0  0  0  0  0  0  0
  -21.1506  -43.6044   -6.5427 N   0  0  0  0  0  0  0  0  0  0  0  0
  -20.6310  -42.4031   -6.8591 C   0  0  0  0  0  0  0  0  0  0  0  0
  -19.5464  -42.2415   -7.8606 C   0  0  0  0  0  0  0  0  0  0  0  0
  -19.8492  -41.1723   -8.7908 N   0  0  0  0  0  0  0  0  0  0  0  0
  -19.5792  -39.9176   -8.1118 C   0  0  0  0  0  0  0  0  0  0  0  0
  -18.2891  -39.2971   -8.5594 C   0  0  1  0  0  0  0  0  0  0  0  0
  -18.4826  -38.5461   -9.6765 O   0  0  0  0  0  0  0  0  0  0  0  0
  -17.4063  -38.7614   -7.4944 C   0  0  2  0  0  0  0  0  0  0  0  0
  -17.0642  -37.3185   -7.5186 C   0  0  0  0  0  0  0  0  0  0  0  0
  -17.0316  -36.6341   -8.8533 C   0  0  0  0  0  0  0  0  0  0  0  0
  -17.9707  -35.5737   -8.8752 C   0  0  0  0  0  0  0  0  0  0  0  0
  -18.1727  -34.7473   -9.9480 C   0  0  0  0  0  0  0  0  0  0  0  0
  -17.3863  -35.0138  -11.0374 C   0  0  0  0  0  0  0  0  0  0  0  0
  -16.4335  -36.0633  -11.0592 C   0  0  0  0  0  0  0  0  0  0  0  0
  -16.2547  -36.8832   -9.9564 C   0  0  0  0  0  0  0  0  0  0  0  0
  -15.7845  -36.0988  -12.2847 O   0  0  0  0  0  0  0  0  0  0  0  0
  -14.4772  -36.0888  -12.7340 C   0  0  0  0  0  0  0  0  0  0  0  0
  -14.2299  -37.0561  -13.8731 C   0  0  0  0  0  0  0  0  0  0  0  0
  -14.5583  -38.4644  -13.4991 C   0  0  0  0  0  0  0  0  0  0  0  0
  -13.3266  -39.2833  -13.1850 C   0  0  0  0  0  0  0  0  0  0  0  0
  -13.5371  -40.4354  -12.4720 O   0  0  0  0  0  0  0  0  0  0  0  0
  -14.3620  -40.9261  -11.4852 C   0  0  0  0  0  0  0  0  0  0  0  0
  -15.0525  -42.0682  -11.8980 C   0  0  0  0  0  0  0  0  0  0  0  0
  -15.9429  -42.7522  -11.0980 C   0  0  0  0  0  0  0  0  0  0  0  0
  -16.1115  -42.2319   -9.8488 C   0  0  0  0  0  0  0  0  0  0  0  0
  -15.4550  -41.0795   -9.3416 C   0  0  0  0  0  0  0  0  0  0  0  0
  -14.5823  -40.4541  -10.1983 C   0  0  0  0  0  0  0  0  0  0  0  0
  -15.8679  -40.7910   -7.9620 C   0  0  0  0  0  0  0  0  0  0  0  0
  -15.8770  -41.8515   -7.1639 O   0  0  0  0  0  0  0  0  0  0  0  0
  -16.2684  -39.6419   -7.2569 N   0  0  0  0  0  0  0  0  0  0  0  0
  -15.4470  -39.2351   -6.0993 C   0  0  0  0  0  0  0  0  0  0  0  0
  -21.1389  -41.2928   -6.2273 C   0  0  0  0  0  0  0  0  0  0  0  0
  1  2  1  0
  2  3  1  0
  2  4  1  0
  4  5  2  0
  5  6  1  0
  6  7  2  0
  7  8  1  0
  8  9  1  0
  9 10  1  0
 10 11  1  0
 11 12  1  0
 12 13  1  6
 12 14  1  0
 14 15  1  6
 15 16  1  0
 16 17  2  0
 17 18  1  0
 18 19  2  0
 19 20  1  0
 20 21  2  0
 20 22  1  0
 22 23  1  0
 23 24  1  0
 24 25  1  0
 25 26  1  0
 26 27  1  0
 27 28  1  0
 28 29  2  0
 29 30  1  0
 30 31  2  0
 31 32  1  0
 32 33  2  0
 32 34  1  0
 34 35  2  0
 34 36  1  0
 36 37  1  0
  8 38  2  0
 21 16  1  0
 33 28  1  0
 36 14  1  0
 38  4  1  0
M  END
$$$$
