
     RDKit          3D

 38 41  0  0  0  0  0  0  0  0999 V2000
  -23.6942  -42.0339   -6.7513 C   0  0  0  0  0  0  0  0  0  0  0  0
  -22.8631  -43.2934   -6.5918 C   0  0  0  0  0  0  0  0  0  0  0  0
  -22.8576  -43.7138   -5.1414 C   0  0  0  0  0  0  0  0  0  0  0  0
  -21.4691  -43.0059   -6.9964 C   0  0  0  0  0  0  0  0  0  0  0  0
  -20.7515  -43.8590   -7.8229 C   0  0  0  0  0  0  0  0  0  0  0  0
  -19.4550  -43.5255   -8.1636 C   0  0  0  0  0  0  0  0  0  0  0  0
  -18.8837  -42.3981   -7.7111 N   0  0  0  0  0  0  0  0  0  0  0  0
  -19.5517  -41.5488   -6.9076 C   0  0  0  0  0  0  0  0  0  0  0  0
  -18.9482  -40.2911   -6.3983 C   0  0  0  0  0  0  0  0  0  0  0  0
  -18.5375  -39.4295   -7.4888 N   0  0  0  0  0  0  0  0  0  0  0  0
  -17.3387  -38.7308   -7.0615 C   0  0  0  0  0  0  0  0  0  0  0  0
  -16.2945  -38.6867   -8.1374 C   0  0  1  0  0  0  0  0  0  0  0  0
  -15.0976  -38.2931   -7.6256 O   0  0  0  0  0  0  0  0  0  0  0  0
  -16.3093  -39.7966   -9.1216 C   0  0  2  0  0  0  0  0  0  0  0  0
  -15.0453  -40.1430   -9.8159 C   0  0  0  0  0  0  0  0  0  0  0  0
  -14.0443  -39.0455  -10.0260 C   0  0  0  0  0  0  0  0  0  0  0  0
  -12.8250  -39.3746   -9.3842 C   0  0  0  0  0  0  0  0  0  0  0  0
  -11.7084  -38.5826   -9.4018 C   0  0  0  0  0  0  0  0  0  0  0  0
  -11.8422  -37.4123  -10.1009 C   0  0  0  0  0  0  0  0  0  0  0  0
  -13.0424  -37.0433  -10.7590 C   0  0  0  0  0  0  0  0  0  0  0  0
  -14.1559  -37.8674  -10.7204 C   0  0  0  0  0  0  0  0  0  0  0  0
  -12.8903  -35.8142  -11.3839 O   0  0  0  0  0  0  0  0  0  0  0  0
  -13.0730  -35.2993  -12.6538 C   0  0  0  0  0  0  0  0  0  0  0  0
  -13.7129  -33.9264  -12.6551 C   0  0  0  0  0  0  0  0  0  0  0  0
  -15.0459  -33.9243  -11.9810 C   0  0  0  0  0  0  0  0  0  0  0  0
  -16.1935  -33.9221  -12.9654 C   0  0  0  0  0  0  0  0  0  0  0  0
  -17.4119  -34.3073  -12.4685 O   0  0  0  0  0  0  0  0  0  0  0  0
  -17.9433  -35.1758  -11.5420 C   0  0  0  0  0  0  0  0  0  0  0  0
  -18.7210  -34.5146  -10.5882 C   0  0  0  0  0  0  0  0  0  0  0  0
  -19.3637  -35.1555   -9.5505 C   0  0  0  0  0  0  0  0  0  0  0  0
  -19.1888  -36.5074   -9.5124 C   0  0  0  0  0  0  0  0  0  0  0  0
  -18.4198  -37.2643  -10.4353 C   0  0  0  0  0  0  0  0  0  0  0  0
  -17.8112  -36.5541  -11.4414 C   0  0  0  0  0  0  0  0  0  0  0  0
  -18.4374  -38.6945  -10.1018 C   0  0  0  0  0  0  0  0  0  0  0  0
  -19.6434  -39.1731   -9.8224 O   0  0  0  0  0  0  0  0  0  0  0  0
  -17.4699  -39.7102  -10.0001 N   0  0  0  0  0  0  0  0  0  0  0  0
  -17.6154  -40.8779  -10.8920 C   0  0  0  0  0  0  0  0  0  0  0  0
  -20.8427  -41.8686   -6.5600 C   0  0  0  0  0  0  0  0  0  0  0  0
  1  2  1  0
  2  3  1  0
  2  4  1  0
  4  5  2  0
  5  6  1  0
  6  7  2  0
  7  8  1  0
  8  9  1  0
  9 10  1  0
 10 11  1  0
 11 12  1  0
 12 13  1  1
 12 14  1  0
 14 15  1  6
 15 16  1  0
 16 17  2  0
 17 18  1  0
 18 19  2  0
 19 20  1  0
 20 21  2  0
 20 22  1  0
 22 23  1  0
 23 24  1  0
 24 25  1  0
 25 26  1  0
 26 27  1  0
 27 28  1  0
 28 29  2  0
 29 30  1  0
 30 31  2  0
 31 32  1  0
 32 33  2  0
 32 34  1  0
 34 35  2  0
 34 36  1  0
 36 37  1  0
  8 38  2  0
 21 16  1  0
 33 28  1  0
 36 14  1  0
 38  4  1  0
M  END
$$$$
