
     RDKit          3D

 38 41  0  0  0  0  0  0  0  0999 V2000
  -15.1700  -35.8735  -12.6402 C   0  0  0  0  0  0  0  0  0  0  0  0
  -14.7171  -36.0853  -11.2076 C   0  0  0  0  0  0  0  0  0  0  0  0
  -13.3610  -35.4515  -11.0083 C   0  0  0  0  0  0  0  0  0  0  0  0
  -14.5926  -37.5372  -10.9506 C   0  0  0  0  0  0  0  0  0  0  0  0
  -14.1644  -38.4239  -11.9284 C   0  0  0  0  0  0  0  0  0  0  0  0
  -14.0677  -39.7664  -11.6173 C   0  0  0  0  0  0  0  0  0  0  0  0
  -14.3790  -40.2221  -10.3936 N   0  0  0  0  0  0  0  0  0  0  0  0
  -14.7977  -39.3890   -9.4220 C   0  0  0  0  0  0  0  0  0  0  0  0
  -15.1414  -39.8635   -8.0574 C   0  0  0  0  0  0  0  0  0  0  0  0
  -16.0570  -38.9510   -7.4022 N   0  0  0  0  0  0  0  0  0  0  0  0
  -17.3052  -39.6633   -7.1956 C   0  0  0  0  0  0  0  0  0  0  0  0
  -18.2488  -39.4996   -8.3500 C   0  0  1  0  0  0  0  0  0  0  0  0
  -18.3333  -38.1926   -8.7162 O   0  0  0  0  0  0  0  0  0  0  0  0
  -18.1753  -40.5271   -9.4174 C   0  0  2  0  0  0  0  0  0  0  0  0
  -18.9986  -40.3403  -10.6369 C   0  0  0  0  0  0  0  0  0  0  0  0
  -20.2831  -39.5777  -10.4983 C   0  0  0  0  0  0  0  0  0  0  0  0
  -20.2572  -38.4327  -11.3322 C   0  0  0  0  0  0  0  0  0  0  0  0
  -21.2875  -37.5378  -11.4420 C   0  0  0  0  0  0  0  0  0  0  0  0
  -22.3840  -37.8234  -10.6723 C   0  0  0  0  0  0  0  0  0  0  0  0
  -22.4538  -38.9578   -9.8249 C   0  0  0  0  0  0  0  0  0  0  0  0
  -21.3920  -39.8438   -9.7355 C   0  0  0  0  0  0  0  0  0  0  0  0
  -23.6760  -38.9947   -9.1697 O   0  0  0  0  0  0  0  0  0  0  0  0
  -24.7034  -39.9044   -9.0028 C   0  0  0  0  0  0  0  0  0  0  0  0
  -25.2462  -39.9394   -7.5891 C   0  0  0  0  0  0  0  0  0  0  0  0
  -24.1905  -40.2758   -6.5873 C   0  0  0  0  0  0  0  0  0  0  0  0
  -24.2639  -41.7147   -6.1285 C   0  0  0  0  0  0  0  0  0  0  0  0
  -23.1351  -42.2127   -5.5304 O   0  0  0  0  0  0  0  0  0  0  0  0
  -21.7656  -42.0950   -5.6054 C   0  0  0  0  0  0  0  0  0  0  0  0
  -21.2048  -41.7038   -4.3871 C   0  0  0  0  0  0  0  0  0  0  0  0
  -19.8529  -41.5134   -4.1957 C   0  0  0  0  0  0  0  0  0  0  0  0
  -19.0787  -41.7361   -5.2960 C   0  0  0  0  0  0  0  0  0  0  0  0
  -19.5570  -42.1355   -6.5720 C   0  0  0  0  0  0  0  0  0  0  0  0
  -20.9156  -42.3055   -6.6827 C   0  0  0  0  0  0  0  0  0  0  0  0
  -18.4577  -42.2821   -7.5347 C   0  0  0  0  0  0  0  0  0  0  0  0
  -17.4138  -42.9571   -7.0697 O   0  0  0  0  0  0  0  0  0  0  0  0
  -18.2279  -41.8738   -8.8608 N   0  0  0  0  0  0  0  0  0  0  0  0
  -17.9985  -42.9306   -9.8663 C   0  0  0  0  0  0  0  0  0  0  0  0
  -14.8993  -38.0504   -9.7182 C   0  0  0  0  0  0  0  0  0  0  0  0
  1  2  1  0
  2  3  1  0
  2  4  1  0
  4  5  2  0
  5  6  1  0
  6  7  2  0
  7  8  1  0
  8  9  1  0
  9 10  1  0
 10 11  1  0
 11 12  1  0
 12 13  1  6
 12 14  1  0
 14 15  1  6
 15 16  1  0
 16 17  2  0
 17 18  1  0
 18 19  2  0
 19 20  1  0
 20 21  2  0
 20 22  1  0
 22 23  1  0
 23 24  1  0
 24 25  1  0
 25 26  1  0
 26 27  1  0
 27 28  1  0
 28 29  2  0
 29 30  1  0
 30 31  2  0
 31 32  1  0
 32 33  2  0
 32 34  1  0
 34 35  2  0
 34 36  1  0
 36 37  1  0
  8 38  2  0
 21 16  1  0
 33 28  1  0
 36 14  1  0
 38  4  1  0
M  END
$$$$
