
     RDKit          3D

 38 41  0  0  0  0  0  0  0  0999 V2000
  -21.5216  -40.4601   -0.9362 C   0  0  0  0  0  0  0  0  0  0  0  0
  -20.5315  -40.7407   -2.0513 C   0  0  0  0  0  0  0  0  0  0  0  0
  -19.9831  -39.4363   -2.5790 C   0  0  0  0  0  0  0  0  0  0  0  0
  -21.2328  -41.4299   -3.1570 C   0  0  0  0  0  0  0  0  0  0  0  0
  -21.8265  -42.6731   -2.9909 C   0  0  0  0  0  0  0  0  0  0  0  0
  -22.4682  -43.2564   -4.0662 C   0  0  0  0  0  0  0  0  0  0  0  0
  -22.5258  -42.6438   -5.2592 N   0  0  0  0  0  0  0  0  0  0  0  0
  -21.9603  -41.4374   -5.4545 C   0  0  0  0  0  0  0  0  0  0  0  0
  -22.0148  -40.7327   -6.7606 C   0  0  0  0  0  0  0  0  0  0  0  0
  -20.8632  -39.8709   -6.9378 N   0  0  0  0  0  0  0  0  0  0  0  0
  -19.8675  -40.6247   -7.6785 C   0  0  0  0  0  0  0  0  0  0  0  0
  -18.5605  -39.8953   -7.7748 C   0  0  1  0  0  0  0  0  0  0  0  0
  -18.5056  -38.8906   -6.8598 O   0  0  0  0  0  0  0  0  0  0  0  0
  -17.3501  -40.7278   -7.9804 C   0  0  2  0  0  0  0  0  0  0  0  0
  -16.0379  -40.0486   -8.1088 C   0  0  0  0  0  0  0  0  0  0  0  0
  -16.0266  -38.6598   -8.6761 C   0  0  0  0  0  0  0  0  0  0  0  0
  -15.4799  -37.7567   -7.7313 C   0  0  0  0  0  0  0  0  0  0  0  0
  -15.3202  -36.4151   -7.9529 C   0  0  0  0  0  0  0  0  0  0  0  0
  -15.7336  -35.9807   -9.1844 C   0  0  0  0  0  0  0  0  0  0  0  0
  -16.2850  -36.8486  -10.1603 C   0  0  0  0  0  0  0  0  0  0  0  0
  -16.4346  -38.2022   -9.9035 C   0  0  0  0  0  0  0  0  0  0  0  0
  -16.6120  -36.1386  -11.3062 O   0  0  0  0  0  0  0  0  0  0  0  0
  -16.3392  -36.2258  -12.6586 C   0  0  0  0  0  0  0  0  0  0  0  0
  -17.5464  -35.9483  -13.5305 C   0  0  0  0  0  0  0  0  0  0  0  0
  -18.6753  -36.8840  -13.2458 C   0  0  0  0  0  0  0  0  0  0  0  0
  -18.7935  -37.9815  -14.2790 C   0  0  0  0  0  0  0  0  0  0  0  0
  -19.5227  -39.0812  -13.9065 O   0  0  0  0  0  0  0  0  0  0  0  0
  -19.7979  -39.8304  -12.7848 C   0  0  0  0  0  0  0  0  0  0  0  0
  -21.1679  -39.8928  -12.5184 C   0  0  0  0  0  0  0  0  0  0  0  0
  -21.7071  -40.5793  -11.4514 C   0  0  0  0  0  0  0  0  0  0  0  0
  -20.7980  -41.2087  -10.6532 C   0  0  0  0  0  0  0  0  0  0  0  0
  -19.3910  -41.2024  -10.8443 C   0  0  0  0  0  0  0  0  0  0  0  0
  -18.9311  -40.4974  -11.9298 C   0  0  0  0  0  0  0  0  0  0  0  0
  -18.7048  -41.9750   -9.8007 C   0  0  0  0  0  0  0  0  0  0  0  0
  -19.2508  -43.1591   -9.5528 O   0  0  0  0  0  0  0  0  0  0  0  0
  -17.5851  -41.7676   -8.9753 N   0  0  0  0  0  0  0  0  0  0  0  0
  -16.4641  -42.7205   -9.1001 C   0  0  0  0  0  0  0  0  0  0  0  0
  -21.3176  -40.8456   -4.3931 C   0  0  0  0  0  0  0  0  0  0  0  0
  1  2  1  0
  2  3  1  0
  2  4  1  0
  4  5  2  0
  5  6  1  0
  6  7  2  0
  7  8  1  0
  8  9  1  0
  9 10  1  0
 10 11  1  0
 11 12  1  0
 12 13  1  1
 12 14  1  0
 14 15  1  6
 15 16  1  0
 16 17  2  0
 17 18  1  0
 18 19  2  0
 19 20  1  0
 20 21  2  0
 20 22  1  0
 22 23  1  0
 23 24  1  0
 24 25  1  0
 25 26  1  0
 26 27  1  0
 27 28  1  0
 28 29  2  0
 29 30  1  0
 30 31  2  0
 31 32  1  0
 32 33  2  0
 32 34  1  0
 34 35  2  0
 34 36  1  0
 36 37  1  0
  8 38  2  0
 21 16  1  0
 33 28  1  0
 36 14  1  0
 38  4  1  0
M  END
$$$$
