
     RDKit          3D

 38 41  0  0  0  0  0  0  0  0999 V2000
  -17.9086  -35.5283  -10.1099 C   0  0  0  0  0  0  0  0  0  0  0  0
  -18.2088  -36.3649  -11.3397 C   0  0  0  0  0  0  0  0  0  0  0  0
  -19.5577  -35.9769  -11.8969 C   0  0  0  0  0  0  0  0  0  0  0  0
  -18.2605  -37.7918  -10.9515 C   0  0  0  0  0  0  0  0  0  0  0  0
  -19.3714  -38.5840  -11.2048 C   0  0  0  0  0  0  0  0  0  0  0  0
  -19.3490  -39.9100  -10.8182 C   0  0  0  0  0  0  0  0  0  0  0  0
  -18.2777  -40.4393  -10.2064 N   0  0  0  0  0  0  0  0  0  0  0  0
  -17.1837  -39.6988   -9.9456 C   0  0  0  0  0  0  0  0  0  0  0  0
  -15.9816  -40.2591   -9.2774 C   0  0  0  0  0  0  0  0  0  0  0  0
  -16.3316  -41.3757   -8.4226 N   0  0  0  0  0  0  0  0  0  0  0  0
  -16.5285  -40.8511   -7.0831 C   0  0  0  0  0  0  0  0  0  0  0  0
  -17.9406  -40.4013   -6.8525 C   0  0  1  0  0  0  0  0  0  0  0  0
  -18.1788  -40.2375   -5.5237 O   0  0  0  0  0  0  0  0  0  0  0  0
  -18.4759  -39.3879   -7.7944 C   0  0  2  0  0  0  0  0  0  0  0  0
  -19.7773  -38.7491   -7.4815 C   0  0  0  0  0  0  0  0  0  0  0  0
  -20.7688  -39.5451   -6.6852 C   0  0  0  0  0  0  0  0  0  0  0  0
  -21.0755  -38.8672   -5.4797 C   0  0  0  0  0  0  0  0  0  0  0  0
  -21.9594  -39.3285   -4.5414 C   0  0  0  0  0  0  0  0  0  0  0  0
  -22.5517  -40.5254   -4.8461 C   0  0  0  0  0  0  0  0  0  0  0  0
  -22.2756  -41.2373   -6.0406 C   0  0  0  0  0  0  0  0  0  0  0  0
  -21.3738  -40.7432   -6.9696 C   0  0  0  0  0  0  0  0  0  0  0  0
  -23.0156  -42.4099   -6.0839 O   0  0  0  0  0  0  0  0  0  0  0  0
  -23.8894  -43.0187   -6.9654 C   0  0  0  0  0  0  0  0  0  0  0  0
  -23.6664  -44.5115   -7.0919 C   0  0  0  0  0  0  0  0  0  0  0  0
  -22.2813  -44.8389   -7.5453 C   0  0  0  0  0  0  0  0  0  0  0  0
  -22.2215  -45.2005   -9.0122 C   0  0  0  0  0  0  0  0  0  0  0  0
  -20.9834  -45.1335   -9.5974 O   0  0  0  0  0  0  0  0  0  0  0  0
  -19.8241  -44.3947   -9.5249 C   0  0  0  0  0  0  0  0  0  0  0  0
  -18.7097  -45.1920   -9.2523 C   0  0  0  0  0  0  0  0  0  0  0  0
  -17.4293  -44.6964   -9.1278 C   0  0  0  0  0  0  0  0  0  0  0  0
  -17.3157  -43.3473   -9.2913 C   0  0  0  0  0  0  0  0  0  0  0  0
  -18.3875  -42.4588   -9.5705 C   0  0  0  0  0  0  0  0  0  0  0  0
  -19.6325  -43.0286   -9.6809 C   0  0  0  0  0  0  0  0  0  0  0  0
  -17.9187  -41.0714   -9.6812 C   0  0  0  0  0  0  0  0  0  0  0  0
  -16.8323  -40.9223  -10.4290 O   0  0  0  0  0  0  0  0  0  0  0  0
  -18.3435  -39.8286   -9.1781 N   0  0  0  0  0  0  0  0  0  0  0  0
  -18.7151  -38.7902  -10.1598 C   0  0  0  0  0  0  0  0  0  0  0  0
  -17.1927  -38.3772  -10.3243 C   0  0  0  0  0  0  0  0  0  0  0  0
  1  2  1  0
  2  3  1  0
  2  4  1  0
  4  5  2  0
  5  6  1  0
  6  7  2  0
  7  8  1  0
  8  9  1  0
  9 10  1  0
 10 11  1  0
 11 12  1  0
 12 13  1  1
 12 14  1  0
 14 15  1  1
 15 16  1  0
 16 17  2  0
 17 18  1  0
 18 19  2  0
 19 20  1  0
 20 21  2  0
 20 22  1  0
 22 23  1  0
 23 24  1  0
 24 25  1  0
 25 26  1  0
 26 27  1  0
 27 28  1  0
 28 29  2  0
 29 30  1  0
 30 31  2  0
 31 32  1  0
 32 33  2  0
 32 34  1  0
 34 35  2  0
 34 36  1  0
 36 37  1  0
  8 38  2  0
 21 16  1  0
 33 28  1  0
 36 14  1  0
 38  4  1  0
M  END
$$$$
