
     RDKit          3D

 38 41  0  0  0  0  0  0  0  0999 V2000
  -14.3900  -34.2953  -13.2460 C   0  0  0  0  0  0  0  0  0  0  0  0
  -14.2235  -34.8544  -11.8452 C   0  0  0  0  0  0  0  0  0  0  0  0
  -12.9538  -34.3123  -11.2333 C   0  0  0  0  0  0  0  0  0  0  0  0
  -14.1079  -36.3274  -11.9243 C   0  0  0  0  0  0  0  0  0  0  0  0
  -13.6261  -36.9684  -13.0569 C   0  0  0  0  0  0  0  0  0  0  0  0
  -13.5414  -38.3473  -13.0595 C   0  0  0  0  0  0  0  0  0  0  0  0
  -13.9150  -39.0702  -11.9919 N   0  0  0  0  0  0  0  0  0  0  0  0
  -14.3869  -38.4801  -10.8773 C   0  0  0  0  0  0  0  0  0  0  0  0
  -14.8003  -39.2535   -9.6788 C   0  0  0  0  0  0  0  0  0  0  0  0
  -15.8099  -38.5422   -8.9205 N   0  0  0  0  0  0  0  0  0  0  0  0
  -16.3232  -39.4573   -7.9171 C   0  0  0  0  0  0  0  0  0  0  0  0
  -17.8027  -39.6680   -8.0461 C   0  0  1  0  0  0  0  0  0  0  0  0
  -18.4418  -39.2747   -6.9120 O   0  0  0  0  0  0  0  0  0  0  0  0
  -18.4104  -39.3203   -9.3540 C   0  0  2  0  0  0  0  0  0  0  0  0
  -19.6717  -38.5403   -9.3628 C   0  0  0  0  0  0  0  0  0  0  0  0
  -20.5954  -38.6990   -8.1913 C   0  0  0  0  0  0  0  0  0  0  0  0
  -20.7854  -37.4485   -7.5532 C   0  0  0  0  0  0  0  0  0  0  0  0
  -21.5857  -37.2570   -6.4591 C   0  0  0  0  0  0  0  0  0  0  0  0
  -22.2151  -38.3840   -6.0006 C   0  0  0  0  0  0  0  0  0  0  0  0
  -22.0550  -39.6547   -6.6083 C   0  0  0  0  0  0  0  0  0  0  0  0
  -21.2357  -39.8148   -7.7144 C   0  0  0  0  0  0  0  0  0  0  0  0
  -22.8077  -40.6073   -5.9373 O   0  0  0  0  0  0  0  0  0  0  0  0
  -23.7635  -41.5509   -6.2647 C   0  0  0  0  0  0  0  0  0  0  0  0
  -23.5679  -42.8720   -5.5498 C   0  0  0  0  0  0  0  0  0  0  0  0
  -22.2327  -43.4768   -5.8370 C   0  0  0  0  0  0  0  0  0  0  0  0
  -22.3090  -44.5960   -6.8507 C   0  0  0  0  0  0  0  0  0  0  0  0
  -21.1281  -44.9387   -7.4572 O   0  0  0  0  0  0  0  0  0  0  0  0
  -19.9595  -44.3541   -7.8906 C   0  0  0  0  0  0  0  0  0  0  0  0
  -18.8332  -44.9288   -7.2965 C   0  0  0  0  0  0  0  0  0  0  0  0
  -17.5419  -44.5240   -7.5592 C   0  0  0  0  0  0  0  0  0  0  0  0
  -17.4298  -43.5033   -8.4565 C   0  0  0  0  0  0  0  0  0  0  0  0
  -18.5134  -42.8591   -9.1101 C   0  0  0  0  0  0  0  0  0  0  0  0
  -19.7690  -43.3196   -8.7966 C   0  0  0  0  0  0  0  0  0  0  0  0
  -18.0425  -41.7981  -10.0097 C   0  0  0  0  0  0  0  0  0  0  0  0
  -17.0265  -42.1542  -10.7859 O   0  0  0  0  0  0  0  0  0  0  0  0
  -18.4076  -40.4631  -10.2598 N   0  0  0  0  0  0  0  0  0  0  0  0
  -18.8557  -40.1264  -11.6258 C   0  0  0  0  0  0  0  0  0  0  0  0
  -14.4772  -37.1084  -10.8613 C   0  0  0  0  0  0  0  0  0  0  0  0
  1  2  1  0
  2  3  1  0
  2  4  1  0
  4  5  2  0
  5  6  1  0
  6  7  2  0
  7  8  1  0
  8  9  1  0
  9 10  1  0
 10 11  1  0
 11 12  1  0
 12 13  1  1
 12 14  1  0
 14 15  1  1
 15 16  1  0
 16 17  2  0
 17 18  1  0
 18 19  2  0
 19 20  1  0
 20 21  2  0
 20 22  1  0
 22 23  1  0
 23 24  1  0
 24 25  1  0
 25 26  1  0
 26 27  1  0
 27 28  1  0
 28 29  2  0
 29 30  1  0
 30 31  2  0
 31 32  1  0
 32 33  2  0
 32 34  1  0
 34 35  2  0
 34 36  1  0
 36 37  1  0
  8 38  2  0
 21 16  1  0
 33 28  1  0
 36 14  1  0
 38  4  1  0
M  END
$$$$
