
     RDKit          3D

 38 41  0  0  0  0  0  0  0  0999 V2000
  -12.1050  -35.8263  -11.5152 C   0  0  0  0  0  0  0  0  0  0  0  0
  -11.6490  -36.9786  -12.3909 C   0  0  0  0  0  0  0  0  0  0  0  0
  -12.4458  -36.9834  -13.6737 C   0  0  0  0  0  0  0  0  0  0  0  0
  -11.9029  -38.2527  -11.6826 C   0  0  0  0  0  0  0  0  0  0  0  0
  -11.2637  -39.4322  -12.0371 C   0  0  0  0  0  0  0  0  0  0  0  0
  -11.5461  -40.5844  -11.3292 C   0  0  0  0  0  0  0  0  0  0  0  0
  -12.4220  -40.5800  -10.3119 N   0  0  0  0  0  0  0  0  0  0  0  0
  -13.0596  -39.4530   -9.9422 C   0  0  0  0  0  0  0  0  0  0  0  0
  -14.0275  -39.4166   -8.8165 C   0  0  0  0  0  0  0  0  0  0  0  0
  -15.3601  -39.7722   -9.2614 N   0  0  0  0  0  0  0  0  0  0  0  0
  -16.1095  -40.1939   -8.0915 C   0  0  0  0  0  0  0  0  0  0  0  0
  -17.5873  -40.0068   -8.2675 C   0  0  1  0  0  0  0  0  0  0  0  0
  -18.1291  -39.4214   -7.1660 O   0  0  0  0  0  0  0  0  0  0  0  0
  -18.0437  -39.5519   -9.6037 C   0  0  2  0  0  0  0  0  0  0  0  0
  -19.2348  -38.6717   -9.6825 C   0  0  0  0  0  0  0  0  0  0  0  0
  -20.2716  -38.8072   -8.6066 C   0  0  0  0  0  0  0  0  0  0  0  0
  -20.4220  -37.5755   -7.9231 C   0  0  0  0  0  0  0  0  0  0  0  0
  -21.3022  -37.3689   -6.8950 C   0  0  0  0  0  0  0  0  0  0  0  0
  -22.0563  -38.4602   -6.5533 C   0  0  0  0  0  0  0  0  0  0  0  0
  -21.9399  -39.7110   -7.2103 C   0  0  0  0  0  0  0  0  0  0  0  0
  -21.0373  -39.8874   -8.2470 C   0  0  0  0  0  0  0  0  0  0  0  0
  -22.8224  -40.6283   -6.6589 O   0  0  0  0  0  0  0  0  0  0  0  0
  -23.8142  -41.4748   -7.1180 C   0  0  0  0  0  0  0  0  0  0  0  0
  -23.7878  -42.8384   -6.4589 C   0  0  0  0  0  0  0  0  0  0  0  0
  -22.4827  -43.5368   -6.6589 C   0  0  0  0  0  0  0  0  0  0  0  0
  -22.5519  -44.5990   -7.7327 C   0  0  0  0  0  0  0  0  0  0  0  0
  -21.3504  -45.0093   -8.2501 O   0  0  0  0  0  0  0  0  0  0  0  0
  -20.1053  -44.5031   -8.5479 C   0  0  0  0  0  0  0  0  0  0  0  0
  -19.0861  -45.1943   -7.8880 C   0  0  0  0  0  0  0  0  0  0  0  0
  -17.7487  -44.8850   -8.0146 C   0  0  0  0  0  0  0  0  0  0  0  0
  -17.4761  -43.8373   -8.8439 C   0  0  0  0  0  0  0  0  0  0  0  0
  -18.4421  -43.0778   -9.5555 C   0  0  0  0  0  0  0  0  0  0  0  0
  -19.7529  -43.4479   -9.3782 C   0  0  0  0  0  0  0  0  0  0  0  0
  -17.8099  -42.0192  -10.3535 C   0  0  0  0  0  0  0  0  0  0  0  0
  -16.7575  -42.4218  -11.0550 O   0  0  0  0  0  0  0  0  0  0  0  0
  -18.0461  -40.6489  -10.5644 N   0  0  0  0  0  0  0  0  0  0  0  0
  -18.3395  -40.2154  -11.9450 C   0  0  0  0  0  0  0  0  0  0  0  0
  -12.7886  -38.2992  -10.6387 C   0  0  0  0  0  0  0  0  0  0  0  0
  1  2  1  0
  2  3  1  0
  2  4  1  0
  4  5  2  0
  5  6  1  0
  6  7  2  0
  7  8  1  0
  8  9  1  0
  9 10  1  0
 10 11  1  0
 11 12  1  0
 12 13  1  1
 12 14  1  0
 14 15  1  1
 15 16  1  0
 16 17  2  0
 17 18  1  0
 18 19  2  0
 19 20  1  0
 20 21  2  0
 20 22  1  0
 22 23  1  0
 23 24  1  0
 24 25  1  0
 25 26  1  0
 26 27  1  0
 27 28  1  0
 28 29  2  0
 29 30  1  0
 30 31  2  0
 31 32  1  0
 32 33  2  0
 32 34  1  0
 34 35  2  0
 34 36  1  0
 36 37  1  0
  8 38  2  0
 21 16  1  0
 33 28  1  0
 36 14  1  0
 38  4  1  0
M  END
$$$$
