
     RDKit          3D

 38 41  0  0  0  0  0  0  0  0999 V2000
  -20.2001  -38.2337   -4.6686 C   0  0  0  0  0  0  0  0  0  0  0  0
  -20.7662  -38.5492   -6.0407 C   0  0  0  0  0  0  0  0  0  0  0  0
  -21.1334  -37.2636   -6.7427 C   0  0  0  0  0  0  0  0  0  0  0  0
  -21.9952  -39.3577   -5.8812 C   0  0  0  0  0  0  0  0  0  0  0  0
  -23.2617  -38.7989   -5.9772 C   0  0  0  0  0  0  0  0  0  0  0  0
  -24.3657  -39.6145   -5.8214 C   0  0  0  0  0  0  0  0  0  0  0  0
  -24.2328  -40.9285   -5.5807 N   0  0  0  0  0  0  0  0  0  0  0  0
  -23.0188  -41.5026   -5.4815 C   0  0  0  0  0  0  0  0  0  0  0  0
  -22.8412  -42.9543   -5.2237 C   0  0  0  0  0  0  0  0  0  0  0  0
  -21.6069  -43.4413   -5.8063 N   0  0  0  0  0  0  0  0  0  0  0  0
  -21.5374  -42.9310   -7.1638 C   0  0  0  0  0  0  0  0  0  0  0  0
  -20.2173  -43.2246   -7.8126 C   0  0  1  0  0  0  0  0  0  0  0  0
  -20.2649  -42.9412   -9.1419 O   0  0  0  0  0  0  0  0  0  0  0  0
  -19.0040  -42.8365   -7.0524 C   0  0  2  0  0  0  0  0  0  0  0  0
  -17.9156  -42.1295   -7.7703 C   0  0  0  0  0  0  0  0  0  0  0  0
  -17.7542  -42.4076   -9.2357 C   0  0  0  0  0  0  0  0  0  0  0  0
  -17.9091  -41.2088   -9.9746 C   0  0  0  0  0  0  0  0  0  0  0  0
  -17.8054  -41.1264  -11.3372 C   0  0  0  0  0  0  0  0  0  0  0  0
  -17.5332  -42.3117  -11.9677 C   0  0  0  0  0  0  0  0  0  0  0  0
  -17.3694  -43.5340  -11.2686 C   0  0  0  0  0  0  0  0  0  0  0  0
  -17.4823  -43.5834   -9.8883 C   0  0  0  0  0  0  0  0  0  0  0  0
  -17.1019  -44.5648  -12.1576 O   0  0  0  0  0  0  0  0  0  0  0  0
  -16.1340  -45.5401  -12.3088 C   0  0  0  0  0  0  0  0  0  0  0  0
  -16.7008  -46.8873  -12.7069 C   0  0  0  0  0  0  0  0  0  0  0  0
  -17.6922  -47.3984  -11.7134 C   0  0  0  0  0  0  0  0  0  0  0  0
  -17.1104  -48.4595  -10.8069 C   0  0  0  0  0  0  0  0  0  0  0  0
  -17.7976  -48.6994   -9.6449 O   0  0  0  0  0  0  0  0  0  0  0  0
  -18.5499  -48.0258   -8.7093 C   0  0  0  0  0  0  0  0  0  0  0  0
  -19.8296  -48.5697   -8.5743 C   0  0  0  0  0  0  0  0  0  0  0  0
  -20.7795  -48.0783   -7.7043 C   0  0  0  0  0  0  0  0  0  0  0  0
  -20.3824  -47.0026   -6.9662 C   0  0  0  0  0  0  0  0  0  0  0  0
  -19.1063  -46.3836   -7.0338 C   0  0  0  0  0  0  0  0  0  0  0  0
  -18.2146  -46.9315   -7.9235 C   0  0  0  0  0  0  0  0  0  0  0  0
  -19.0118  -45.2474   -6.1080 C   0  0  0  0  0  0  0  0  0  0  0  0
  -19.4695  -45.5003   -4.8881 O   0  0  0  0  0  0  0  0  0  0  0  0
  -18.5468  -43.9228   -6.1938 N   0  0  0  0  0  0  0  0  0  0  0  0
  -17.4384  -43.5334   -5.2996 C   0  0  0  0  0  0  0  0  0  0  0  0
  -21.9113  -40.7024   -5.6337 C   0  0  0  0  0  0  0  0  0  0  0  0
  1  2  1  0
  2  3  1  0
  2  4  1  0
  4  5  2  0
  5  6  1  0
  6  7  2  0
  7  8  1  0
  8  9  1  0
  9 10  1  0
 10 11  1  0
 11 12  1  0
 12 13  1  6
 12 14  1  0
 14 15  1  6
 15 16  1  0
 16 17  2  0
 17 18  1  0
 18 19  2  0
 19 20  1  0
 20 21  2  0
 20 22  1  0
 22 23  1  0
 23 24  1  0
 24 25  1  0
 25 26  1  0
 26 27  1  0
 27 28  1  0
 28 29  2  0
 29 30  1  0
 30 31  2  0
 31 32  1  0
 32 33  2  0
 32 34  1  0
 34 35  2  0
 34 36  1  0
 36 37  1  0
  8 38  2  0
 21 16  1  0
 33 28  1  0
 36 14  1  0
 38  4  1  0
M  END
$$$$
