
     RDKit          3D

 38 41  0  0  0  0  0  0  0  0999 V2000
  -13.6249  -35.7441  -10.5840 C   0  0  0  0  0  0  0  0  0  0  0  0
  -14.5482  -36.6919  -11.3268 C   0  0  0  0  0  0  0  0  0  0  0  0
  -15.9713  -36.4684  -10.8735 C   0  0  0  0  0  0  0  0  0  0  0  0
  -14.1717  -38.0856  -11.0020 C   0  0  0  0  0  0  0  0  0  0  0  0
  -13.6802  -38.9583  -11.9625 C   0  0  0  0  0  0  0  0  0  0  0  0
  -13.3448  -40.2448  -11.5875 C   0  0  0  0  0  0  0  0  0  0  0  0
  -13.4858  -40.6599  -10.3186 N   0  0  0  0  0  0  0  0  0  0  0  0
  -13.9598  -39.8389   -9.3623 C   0  0  0  0  0  0  0  0  0  0  0  0
  -14.1193  -40.2679   -7.9495 C   0  0  0  0  0  0  0  0  0  0  0  0
  -14.8475  -39.2778   -7.1818 N   0  0  0  0  0  0  0  0  0  0  0  0
  -16.1266  -39.8630   -6.8219 C   0  0  0  0  0  0  0  0  0  0  0  0
  -17.2397  -39.3774   -7.7022 C   0  0  1  0  0  0  0  0  0  0  0  0
  -17.3851  -38.0300   -7.5890 O   0  0  0  0  0  0  0  0  0  0  0  0
  -17.3303  -39.9848   -9.0526 C   0  0  2  0  0  0  0  0  0  0  0  0
  -18.2117  -39.3441  -10.0587 C   0  0  0  0  0  0  0  0  0  0  0  0
  -19.4097  -38.5938   -9.5560 C   0  0  0  0  0  0  0  0  0  0  0  0
  -19.3349  -37.2380   -9.9602 C   0  0  0  0  0  0  0  0  0  0  0  0
  -20.2846  -36.2955   -9.6702 C   0  0  0  0  0  0  0  0  0  0  0  0
  -21.3494  -36.7549   -8.9413 C   0  0  0  0  0  0  0  0  0  0  0  0
  -21.4660  -38.1025   -8.5168 C   0  0  0  0  0  0  0  0  0  0  0  0
  -20.4855  -39.0318   -8.8259 C   0  0  0  0  0  0  0  0  0  0  0  0
  -22.6407  -38.2817   -7.8010 O   0  0  0  0  0  0  0  0  0  0  0  0
  -23.7332  -39.1271   -7.8518 C   0  0  0  0  0  0  0  0  0  0  0  0
  -24.1827  -39.6047   -6.4864 C   0  0  0  0  0  0  0  0  0  0  0  0
  -23.0983  -40.3269   -5.7558 C   0  0  0  0  0  0  0  0  0  0  0  0
  -23.2717  -41.8284   -5.7970 C   0  0  0  0  0  0  0  0  0  0  0  0
  -22.1559  -42.5701   -5.5058 O   0  0  0  0  0  0  0  0  0  0  0  0
  -20.7893  -42.5210   -5.6640 C   0  0  0  0  0  0  0  0  0  0  0  0
  -20.1163  -42.6022   -4.4424 C   0  0  0  0  0  0  0  0  0  0  0  0
  -18.7430  -42.5741   -4.3246 C   0  0  0  0  0  0  0  0  0  0  0  0
  -18.0665  -42.4592   -5.5031 C   0  0  0  0  0  0  0  0  0  0  0  0
  -18.6621  -42.3714   -6.7891 C   0  0  0  0  0  0  0  0  0  0  0  0
  -20.0348  -42.4074   -6.8237 C   0  0  0  0  0  0  0  0  0  0  0  0
  -17.6464  -42.2524   -7.8432 C   0  0  0  0  0  0  0  0  0  0  0  0
  -16.6398  -43.1097   -7.7280 O   0  0  0  0  0  0  0  0  0  0  0  0
  -17.4683  -41.4343   -8.9733 N   0  0  0  0  0  0  0  0  0  0  0  0
  -17.4026  -42.1000  -10.2896 C   0  0  0  0  0  0  0  0  0  0  0  0
  -14.2983  -38.5559   -9.7218 C   0  0  0  0  0  0  0  0  0  0  0  0
  1  2  1  0
  2  3  1  0
  2  4  1  0
  4  5  2  0
  5  6  1  0
  6  7  2  0
  7  8  1  0
  8  9  1  0
  9 10  1  0
 10 11  1  0
 11 12  1  0
 12 13  1  6
 12 14  1  0
 14 15  1  1
 15 16  1  0
 16 17  2  0
 17 18  1  0
 18 19  2  0
 19 20  1  0
 20 21  2  0
 20 22  1  0
 22 23  1  0
 23 24  1  0
 24 25  1  0
 25 26  1  0
 26 27  1  0
 27 28  1  0
 28 29  2  0
 29 30  1  0
 30 31  2  0
 31 32  1  0
 32 33  2  0
 32 34  1  0
 34 35  2  0
 34 36  1  0
 36 37  1  0
  8 38  2  0
 21 16  1  0
 33 28  1  0
 36 14  1  0
 38  4  1  0
M  END
$$$$
