
     RDKit          3D

 38 41  0  0  0  0  0  0  0  0999 V2000
  -23.9942  -40.2902   -6.3231 C   0  0  0  0  0  0  0  0  0  0  0  0
  -22.8672  -41.3062   -6.3062 C   0  0  0  0  0  0  0  0  0  0  0  0
  -23.2637  -42.4852   -5.4499 C   0  0  0  0  0  0  0  0  0  0  0  0
  -21.6650  -40.6832   -5.7094 C   0  0  0  0  0  0  0  0  0  0  0  0
  -21.7497  -39.7611   -4.6758 C   0  0  0  0  0  0  0  0  0  0  0  0
  -20.5853  -39.2224   -4.1636 C   0  0  0  0  0  0  0  0  0  0  0  0
  -19.3833  -39.5747   -4.6466 N   0  0  0  0  0  0  0  0  0  0  0  0
  -19.2656  -40.4662   -5.6488 C   0  0  0  0  0  0  0  0  0  0  0  0
  -17.9494  -40.8805   -6.1977 C   0  0  0  0  0  0  0  0  0  0  0  0
  -17.6245  -40.1334   -7.3963 N   0  0  0  0  0  0  0  0  0  0  0  0
  -16.5065  -39.2644   -7.0757 C   0  0  0  0  0  0  0  0  0  0  0  0
  -15.7858  -38.7919   -8.3034 C   0  0  1  0  0  0  0  0  0  0  0  0
  -15.0662  -37.6701   -8.0329 O   0  0  0  0  0  0  0  0  0  0  0  0
  -15.1663  -39.8386   -9.1527 C   0  0  2  0  0  0  0  0  0  0  0  0
  -13.9238  -39.5064   -9.8913 C   0  0  0  0  0  0  0  0  0  0  0  0
  -13.7160  -38.0762  -10.2941 C   0  0  0  0  0  0  0  0  0  0  0  0
  -12.5271  -37.5772   -9.7071 C   0  0  0  0  0  0  0  0  0  0  0  0
  -12.0523  -36.3065   -9.8928 C   0  0  0  0  0  0  0  0  0  0  0  0
  -12.8197  -35.5174  -10.7081 C   0  0  0  0  0  0  0  0  0  0  0  0
  -14.0153  -35.9753  -11.3170 C   0  0  0  0  0  0  0  0  0  0  0  0
  -14.4694  -37.2677  -11.1072 C   0  0  0  0  0  0  0  0  0  0  0  0
  -14.5802  -34.9681  -12.0857 O   0  0  0  0  0  0  0  0  0  0  0  0
  -15.0150  -34.8182  -13.3893 C   0  0  0  0  0  0  0  0  0  0  0  0
  -16.3182  -34.0541  -13.5001 C   0  0  0  0  0  0  0  0  0  0  0  0
  -17.4231  -34.7093  -12.7379 C   0  0  0  0  0  0  0  0  0  0  0  0
  -18.3666  -35.4811  -13.6326 C   0  0  0  0  0  0  0  0  0  0  0  0
  -19.1575  -36.4123  -13.0104 O   0  0  0  0  0  0  0  0  0  0  0  0
  -19.1107  -37.2970  -11.9567 C   0  0  0  0  0  0  0  0  0  0  0  0
  -20.1309  -37.0649  -11.0308 C   0  0  0  0  0  0  0  0  0  0  0  0
  -20.3051  -37.8110   -9.8847 C   0  0  0  0  0  0  0  0  0  0  0  0
  -19.3979  -38.8135   -9.7070 C   0  0  0  0  0  0  0  0  0  0  0  0
  -18.3310  -39.1245  -10.5908 C   0  0  0  0  0  0  0  0  0  0  0  0
  -18.2242  -38.3367  -11.7110 C   0  0  0  0  0  0  0  0  0  0  0  0
  -17.5400  -40.2595  -10.0979 C   0  0  0  0  0  0  0  0  0  0  0  0
  -18.2668  -41.2891   -9.6816 O   0  0  0  0  0  0  0  0  0  0  0  0
  -16.1685  -40.5347   -9.9511 N   0  0  0  0  0  0  0  0  0  0  0  0
  -15.6248  -41.6897  -10.6931 C   0  0  0  0  0  0  0  0  0  0  0  0
  -20.4165  -41.0098   -6.1685 C   0  0  0  0  0  0  0  0  0  0  0  0
  1  2  1  0
  2  3  1  0
  2  4  1  0
  4  5  2  0
  5  6  1  0
  6  7  2  0
  7  8  1  0
  8  9  1  0
  9 10  1  0
 10 11  1  0
 11 12  1  0
 12 13  1  1
 12 14  1  0
 14 15  1  6
 15 16  1  0
 16 17  2  0
 17 18  1  0
 18 19  2  0
 19 20  1  0
 20 21  2  0
 20 22  1  0
 22 23  1  0
 23 24  1  0
 24 25  1  0
 25 26  1  0
 26 27  1  0
 27 28  1  0
 28 29  2  0
 29 30  1  0
 30 31  2  0
 31 32  1  0
 32 33  2  0
 32 34  1  0
 34 35  2  0
 34 36  1  0
 36 37  1  0
  8 38  2  0
 21 16  1  0
 33 28  1  0
 36 14  1  0
 38  4  1  0
M  END
$$$$
