
     RDKit          3D

 38 41  0  0  0  0  0  0  0  0999 V2000
  -11.8206  -35.6019  -11.3155 C   0  0  0  0  0  0  0  0  0  0  0  0
  -12.6358  -36.7208  -11.9367 C   0  0  0  0  0  0  0  0  0  0  0  0
  -14.0913  -36.3206  -11.9798 C   0  0  0  0  0  0  0  0  0  0  0  0
  -12.5126  -37.9318  -11.0955 C   0  0  0  0  0  0  0  0  0  0  0  0
  -11.3432  -38.2395  -10.4146 C   0  0  0  0  0  0  0  0  0  0  0  0
  -11.3003  -39.3851   -9.6438 C   0  0  0  0  0  0  0  0  0  0  0  0
  -12.3638  -40.1982   -9.5444 N   0  0  0  0  0  0  0  0  0  0  0  0
  -13.5134  -39.9293  -10.1920 C   0  0  0  0  0  0  0  0  0  0  0  0
  -14.7080  -40.8061  -10.0945 C   0  0  0  0  0  0  0  0  0  0  0  0
  -15.1755  -40.9021   -8.7262 N   0  0  0  0  0  0  0  0  0  0  0  0
  -15.7601  -39.6198   -8.3768 C   0  0  0  0  0  0  0  0  0  0  0  0
  -17.2560  -39.6302   -8.4867 C   0  0  1  0  0  0  0  0  0  0  0  0
  -17.8195  -39.0573   -7.3896 O   0  0  0  0  0  0  0  0  0  0  0  0
  -17.8252  -39.3113   -9.8190 C   0  0  2  0  0  0  0  0  0  0  0  0
  -18.8571  -38.2500   -9.9116 C   0  0  0  0  0  0  0  0  0  0  0  0
  -19.7317  -38.0245   -8.7137 C   0  0  0  0  0  0  0  0  0  0  0  0
  -19.5788  -36.6954   -8.2476 C   0  0  0  0  0  0  0  0  0  0  0  0
  -20.2525  -36.1740   -7.1758 C   0  0  0  0  0  0  0  0  0  0  0  0
  -21.1139  -37.0417   -6.5584 C   0  0  0  0  0  0  0  0  0  0  0  0
  -21.2993  -38.3789   -6.9913 C   0  0  0  0  0  0  0  0  0  0  0  0
  -20.6001  -38.8765   -8.0794 C   0  0  0  0  0  0  0  0  0  0  0  0
  -22.2270  -39.0217   -6.1847 O   0  0  0  0  0  0  0  0  0  0  0  0
  -23.3992  -39.7319   -6.3650 C   0  0  0  0  0  0  0  0  0  0  0  0
  -23.4961  -40.9585   -5.4815 C   0  0  0  0  0  0  0  0  0  0  0  0
  -22.3649  -41.9074   -5.7070 C   0  0  0  0  0  0  0  0  0  0  0  0
  -22.7625  -43.0919   -6.5586 C   0  0  0  0  0  0  0  0  0  0  0  0
  -21.7327  -43.7912   -7.1333 O   0  0  0  0  0  0  0  0  0  0  0  0
  -20.4800  -43.5750   -7.6617 C   0  0  0  0  0  0  0  0  0  0  0  0
  -19.4997  -44.3313   -7.0148 C   0  0  0  0  0  0  0  0  0  0  0  0
  -18.1633  -44.2966   -7.3519 C   0  0  0  0  0  0  0  0  0  0  0  0
  -17.8508  -43.4580   -8.3809 C   0  0  0  0  0  0  0  0  0  0  0  0
  -18.7759  -42.6532   -9.0969 C   0  0  0  0  0  0  0  0  0  0  0  0
  -20.0886  -42.7438   -8.7025 C   0  0  0  0  0  0  0  0  0  0  0  0
  -18.1061  -41.8653  -10.1397 C   0  0  0  0  0  0  0  0  0  0  0  0
  -17.2477  -42.5582  -10.8779 O   0  0  0  0  0  0  0  0  0  0  0  0
  -18.1466  -40.5243  -10.5618 N   0  0  0  0  0  0  0  0  0  0  0  0
  -18.5669  -40.2630  -11.9529 C   0  0  0  0  0  0  0  0  0  0  0  0
  -13.5698  -38.7927  -10.9633 C   0  0  0  0  0  0  0  0  0  0  0  0
  1  2  1  0
  2  3  1  0
  2  4  1  0
  4  5  2  0
  5  6  1  0
  6  7  2  0
  7  8  1  0
  8  9  1  0
  9 10  1  0
 10 11  1  0
 11 12  1  0
 12 13  1  1
 12 14  1  0
 14 15  1  1
 15 16  1  0
 16 17  2  0
 17 18  1  0
 18 19  2  0
 19 20  1  0
 20 21  2  0
 20 22  1  0
 22 23  1  0
 23 24  1  0
 24 25  1  0
 25 26  1  0
 26 27  1  0
 27 28  1  0
 28 29  2  0
 29 30  1  0
 30 31  2  0
 31 32  1  0
 32 33  2  0
 32 34  1  0
 34 35  2  0
 34 36  1  0
 36 37  1  0
  8 38  2  0
 21 16  1  0
 33 28  1  0
 36 14  1  0
 38  4  1  0
M  END
$$$$
