
     RDKit          3D

 38 41  0  0  0  0  0  0  0  0999 V2000
  -22.7497  -41.6926  -15.7892 C   0  0  0  0  0  0  0  0  0  0  0  0
  -23.5119  -40.6989  -14.9325 C   0  0  0  0  0  0  0  0  0  0  0  0
  -22.5891  -39.5773  -14.5190 C   0  0  0  0  0  0  0  0  0  0  0  0
  -23.9883  -41.3821  -13.7094 C   0  0  0  0  0  0  0  0  0  0  0  0
  -24.7716  -42.5264  -13.7629 C   0  0  0  0  0  0  0  0  0  0  0  0
  -25.1774  -43.1144  -12.5806 C   0  0  0  0  0  0  0  0  0  0  0  0
  -24.8283  -42.5999  -11.3909 N   0  0  0  0  0  0  0  0  0  0  0  0
  -24.0695  -41.4910  -11.3033 C   0  0  0  0  0  0  0  0  0  0  0  0
  -23.6615  -40.9040  -10.0016 C   0  0  0  0  0  0  0  0  0  0  0  0
  -22.2249  -40.7249   -9.9365 N   0  0  0  0  0  0  0  0  0  0  0  0
  -21.6556  -41.9649   -9.4402 C   0  0  0  0  0  0  0  0  0  0  0  0
  -21.5204  -41.9685   -7.9464 C   0  0  1  0  0  0  0  0  0  0  0  0
  -22.5945  -41.3673   -7.3681 O   0  0  0  0  0  0  0  0  0  0  0  0
  -20.9927  -43.2110   -7.3313 C   0  0  2  0  0  0  0  0  0  0  0  0
  -20.8089  -43.2491   -5.8601 C   0  0  0  0  0  0  0  0  0  0  0  0
  -20.5163  -41.9537   -5.1623 C   0  0  0  0  0  0  0  0  0  0  0  0
  -21.5262  -41.6809   -4.2070 C   0  0  0  0  0  0  0  0  0  0  0  0
  -21.5397  -40.5782   -3.3956 C   0  0  0  0  0  0  0  0  0  0  0  0
  -20.4828  -39.7237   -3.5661 C   0  0  0  0  0  0  0  0  0  0  0  0
  -19.4499  -39.9574   -4.5085 C   0  0  0  0  0  0  0  0  0  0  0  0
  -19.4669  -41.0833   -5.3164 C   0  0  0  0  0  0  0  0  0  0  0  0
  -18.5156  -38.9330   -4.4625 O   0  0  0  0  0  0  0  0  0  0  0  0
  -17.1460  -38.8237   -4.3096 C   0  0  0  0  0  0  0  0  0  0  0  0
  -16.5220  -37.7983   -5.2334 C   0  0  0  0  0  0  0  0  0  0  0  0
  -16.7836  -38.1017   -6.6724 C   0  0  0  0  0  0  0  0  0  0  0  0
  -15.5903  -38.7263   -7.3595 C   0  0  0  0  0  0  0  0  0  0  0  0
  -15.8498  -39.3831   -8.5348 O   0  0  0  0  0  0  0  0  0  0  0  0
  -16.8386  -40.1412   -9.1202 C   0  0  0  0  0  0  0  0  0  0  0  0
  -17.2804  -39.5880  -10.3246 C   0  0  0  0  0  0  0  0  0  0  0  0
  -18.2653  -40.1519  -11.1072 C   0  0  0  0  0  0  0  0  0  0  0  0
  -18.7940  -41.3110  -10.6207 C   0  0  0  0  0  0  0  0  0  0  0  0
  -18.4098  -41.9469   -9.4106 C   0  0  0  0  0  0  0  0  0  0  0  0
  -17.4216  -41.3245   -8.6875 C   0  0  0  0  0  0  0  0  0  0  0  0
  -19.1819  -43.1751   -9.1818 C   0  0  0  0  0  0  0  0  0  0  0  0
  -19.2784  -43.9630  -10.2455 O   0  0  0  0  0  0  0  0  0  0  0  0
  -19.8641  -43.7390   -8.0888 N   0  0  0  0  0  0  0  0  0  0  0  0
  -19.4050  -45.0580   -7.6095 C   0  0  0  0  0  0  0  0  0  0  0  0
  -23.6591  -40.8950  -12.4722 C   0  0  0  0  0  0  0  0  0  0  0  0
  1  2  1  0
  2  3  1  0
  2  4  1  0
  4  5  2  0
  5  6  1  0
  6  7  2  0
  7  8  1  0
  8  9  1  0
  9 10  1  0
 10 11  1  0
 11 12  1  0
 12 13  1  1
 12 14  1  0
 14 15  1  1
 15 16  1  0
 16 17  2  0
 17 18  1  0
 18 19  2  0
 19 20  1  0
 20 21  2  0
 20 22  1  0
 22 23  1  0
 23 24  1  0
 24 25  1  0
 25 26  1  0
 26 27  1  0
 27 28  1  0
 28 29  2  0
 29 30  1  0
 30 31  2  0
 31 32  1  0
 32 33  2  0
 32 34  1  0
 34 35  2  0
 34 36  1  0
 36 37  1  0
  8 38  2  0
 21 16  1  0
 33 28  1  0
 36 14  1  0
 38  4  1  0
M  END
$$$$
