
     RDKit          3D

 38 41  0  0  0  0  0  0  0  0999 V2000
  -21.0600  -36.6373  -13.7927 C   0  0  0  0  0  0  0  0  0  0  0  0
  -20.3062  -37.1000  -12.5597 C   0  0  0  0  0  0  0  0  0  0  0  0
  -19.0592  -36.2658  -12.3883 C   0  0  0  0  0  0  0  0  0  0  0  0
  -19.8988  -38.5104  -12.7444 C   0  0  0  0  0  0  0  0  0  0  0  0
  -20.2733  -39.2448  -13.8607 C   0  0  0  0  0  0  0  0  0  0  0  0
  -19.8533  -40.5563  -13.9697 C   0  0  0  0  0  0  0  0  0  0  0  0
  -19.0946  -41.1261  -13.0200 N   0  0  0  0  0  0  0  0  0  0  0  0
  -18.7137  -40.4420  -11.9245 C   0  0  0  0  0  0  0  0  0  0  0  0
  -17.8685  -41.0436  -10.8619 C   0  0  0  0  0  0  0  0  0  0  0  0
  -18.1959  -42.4413  -10.6625 N   0  0  0  0  0  0  0  0  0  0  0  0
  -19.6306  -42.5796  -10.8369 C   0  0  0  0  0  0  0  0  0  0  0  0
  -20.4002  -41.9834   -9.6958 C   0  0  1  0  0  0  0  0  0  0  0  0
  -20.8455  -40.7395  -10.0182 O   0  0  0  0  0  0  0  0  0  0  0  0
  -21.3179  -42.8934   -8.9676 C   0  0  2  0  0  0  0  0  0  0  0  0
  -22.4168  -42.2989   -8.1685 C   0  0  0  0  0  0  0  0  0  0  0  0
  -22.1952  -40.9323   -7.5904 C   0  0  0  0  0  0  0  0  0  0  0  0
  -23.1710  -40.0337   -8.0875 C   0  0  0  0  0  0  0  0  0  0  0  0
  -23.2481  -38.7120   -7.7387 C   0  0  0  0  0  0  0  0  0  0  0  0
  -22.2939  -38.2935   -6.8495 C   0  0  0  0  0  0  0  0  0  0  0  0
  -21.2998  -39.1579   -6.3257 C   0  0  0  0  0  0  0  0  0  0  0  0
  -21.2485  -40.4910   -6.7007 C   0  0  0  0  0  0  0  0  0  0  0  0
  -20.4730  -38.4669   -5.4521 O   0  0  0  0  0  0  0  0  0  0  0  0
  -20.0351  -38.6141   -4.1491 C   0  0  0  0  0  0  0  0  0  0  0  0
  -18.5653  -38.2928   -3.9732 C   0  0  0  0  0  0  0  0  0  0  0  0
  -17.6936  -39.1492   -4.8322 C   0  0  0  0  0  0  0  0  0  0  0  0
  -17.0384  -40.2705   -4.0578 C   0  0  0  0  0  0  0  0  0  0  0  0
  -16.5512  -41.3117   -4.8050 O   0  0  0  0  0  0  0  0  0  0  0  0
  -16.8422  -42.0063   -5.9574 C   0  0  0  0  0  0  0  0  0  0  0  0
  -15.7839  -41.9775   -6.8690 C   0  0  0  0  0  0  0  0  0  0  0  0
  -15.8212  -42.5955   -8.1008 C   0  0  0  0  0  0  0  0  0  0  0  0
  -16.9831  -43.2523   -8.3804 C   0  0  0  0  0  0  0  0  0  0  0  0
  -18.1088  -43.3368   -7.5191 C   0  0  0  0  0  0  0  0  0  0  0  0
  -17.9943  -42.6963   -6.3094 C   0  0  0  0  0  0  0  0  0  0  0  0
  -19.1940  -44.1152   -8.1301 C   0  0  0  0  0  0  0  0  0  0  0  0
  -18.8007  -45.2556   -8.6835 O   0  0  0  0  0  0  0  0  0  0  0  0
  -20.5825  -43.9489   -8.2808 N   0  0  0  0  0  0  0  0  0  0  0  0
  -21.4583  -44.9709   -7.6738 C   0  0  0  0  0  0  0  0  0  0  0  0
  -19.1253  -39.1360  -11.8028 C   0  0  0  0  0  0  0  0  0  0  0  0
  1  2  1  0
  2  3  1  0
  2  4  1  0
  4  5  2  0
  5  6  1  0
  6  7  2  0
  7  8  1  0
  8  9  1  0
  9 10  1  0
 10 11  1  0
 11 12  1  0
 12 13  1  6
 12 14  1  0
 14 15  1  1
 15 16  1  0
 16 17  2  0
 17 18  1  0
 18 19  2  0
 19 20  1  0
 20 21  2  0
 20 22  1  0
 22 23  1  0
 23 24  1  0
 24 25  1  0
 25 26  1  0
 26 27  1  0
 27 28  1  0
 28 29  2  0
 29 30  1  0
 30 31  2  0
 31 32  1  0
 32 33  2  0
 32 34  1  0
 34 35  2  0
 34 36  1  0
 36 37  1  0
  8 38  2  0
 21 16  1  0
 33 28  1  0
 36 14  1  0
 38  4  1  0
M  END
$$$$
