
     RDKit          3D

 38 41  0  0  0  0  0  0  0  0999 V2000
  -12.8336  -40.3104  -13.3248 C   0  0  0  0  0  0  0  0  0  0  0  0
  -12.2854  -38.9086  -13.1321 C   0  0  0  0  0  0  0  0  0  0  0  0
  -10.7773  -38.9605  -13.0732 C   0  0  0  0  0  0  0  0  0  0  0  0
  -12.7813  -38.3692  -11.8466 C   0  0  0  0  0  0  0  0  0  0  0  0
  -12.8129  -37.0071  -11.5829 C   0  0  0  0  0  0  0  0  0  0  0  0
  -13.2927  -36.5736  -10.3622 C   0  0  0  0  0  0  0  0  0  0  0  0
  -13.7253  -37.4428   -9.4351 N   0  0  0  0  0  0  0  0  0  0  0  0
  -13.7082  -38.7706   -9.6586 C   0  0  0  0  0  0  0  0  0  0  0  0
  -14.1874  -39.7548   -8.6551 C   0  0  0  0  0  0  0  0  0  0  0  0
  -15.5472  -40.1690   -8.9373 N   0  0  0  0  0  0  0  0  0  0  0  0
  -16.3322  -38.9657   -9.1468 C   0  0  0  0  0  0  0  0  0  0  0  0
  -17.7644  -39.1452   -8.7391 C   0  0  1  0  0  0  0  0  0  0  0  0
  -17.9365  -38.8011   -7.4347 O   0  0  0  0  0  0  0  0  0  0  0  0
  -18.7917  -38.7202   -9.7213 C   0  0  2  0  0  0  0  0  0  0  0  0
  -19.9795  -37.9819   -9.2278 C   0  0  0  0  0  0  0  0  0  0  0  0
  -20.4355  -38.2568   -7.8252 C   0  0  0  0  0  0  0  0  0  0  0  0
  -20.3952  -37.0641   -7.0618 C   0  0  0  0  0  0  0  0  0  0  0  0
  -20.7639  -36.9803   -5.7460 C   0  0  0  0  0  0  0  0  0  0  0  0
  -21.1896  -38.1576   -5.1902 C   0  0  0  0  0  0  0  0  0  0  0  0
  -21.2473  -39.3737   -5.9165 C   0  0  0  0  0  0  0  0  0  0  0  0
  -20.8651  -39.4248   -7.2475 C   0  0  0  0  0  0  0  0  0  0  0  0
  -21.7150  -40.3971   -5.1051 O   0  0  0  0  0  0  0  0  0  0  0  0
  -22.7216  -41.3433   -5.1551 C   0  0  0  0  0  0  0  0  0  0  0  0
  -22.2841  -42.7073   -4.6624 C   0  0  0  0  0  0  0  0  0  0  0  0
  -21.1310  -43.2465   -5.4439 C   0  0  0  0  0  0  0  0  0  0  0  0
  -21.5525  -44.2887   -6.4550 C   0  0  0  0  0  0  0  0  0  0  0  0
  -20.6564  -44.5477   -7.4599 O   0  0  0  0  0  0  0  0  0  0  0  0
  -19.7147  -43.8956   -8.2236 C   0  0  0  0  0  0  0  0  0  0  0  0
  -18.4499  -44.4773   -8.1069 C   0  0  0  0  0  0  0  0  0  0  0  0
  -17.3329  -44.0134   -8.7685 C   0  0  0  0  0  0  0  0  0  0  0  0
  -17.5448  -42.9255   -9.5629 C   0  0  0  0  0  0  0  0  0  0  0  0
  -18.7906  -42.2688   -9.7444 C   0  0  0  0  0  0  0  0  0  0  0  0
  -19.8561  -42.7909   -9.0524 C   0  0  0  0  0  0  0  0  0  0  0  0
  -18.6672  -41.1292  -10.6626 C   0  0  0  0  0  0  0  0  0  0  0  0
  -17.9848  -41.3941  -11.7697 O   0  0  0  0  0  0  0  0  0  0  0  0
  -19.1013  -39.7914  -10.6610 N   0  0  0  0  0  0  0  0  0  0  0  0
  -19.9993  -39.3680  -11.7540 C   0  0  0  0  0  0  0  0  0  0  0  0
  -13.2325  -39.2160  -10.8691 C   0  0  0  0  0  0  0  0  0  0  0  0
  1  2  1  0
  2  3  1  0
  2  4  1  0
  4  5  2  0
  5  6  1  0
  6  7  2  0
  7  8  1  0
  8  9  1  0
  9 10  1  0
 10 11  1  0
 11 12  1  0
 12 13  1  1
 12 14  1  0
 14 15  1  1
 15 16  1  0
 16 17  2  0
 17 18  1  0
 18 19  2  0
 19 20  1  0
 20 21  2  0
 20 22  1  0
 22 23  1  0
 23 24  1  0
 24 25  1  0
 25 26  1  0
 26 27  1  0
 27 28  1  0
 28 29  2  0
 29 30  1  0
 30 31  2  0
 31 32  1  0
 32 33  2  0
 32 34  1  0
 34 35  2  0
 34 36  1  0
 36 37  1  0
  8 38  2  0
 21 16  1  0
 33 28  1  0
 36 14  1  0
 38  4  1  0
M  END
$$$$
