
     RDKit          3D

 38 41  0  0  0  0  0  0  0  0999 V2000
  -15.4318  -36.0411  -13.1475 C   0  0  0  0  0  0  0  0  0  0  0  0
  -14.4953  -36.0728  -11.9540 C   0  0  0  0  0  0  0  0  0  0  0  0
  -13.0695  -35.9185  -12.4272 C   0  0  0  0  0  0  0  0  0  0  0  0
  -14.6200  -37.3829  -11.2775 C   0  0  0  0  0  0  0  0  0  0  0  0
  -14.9277  -38.5440  -11.9724 C   0  0  0  0  0  0  0  0  0  0  0  0
  -15.0244  -39.7335  -11.2767 C   0  0  0  0  0  0  0  0  0  0  0  0
  -14.8266  -39.7827   -9.9499 N   0  0  0  0  0  0  0  0  0  0  0  0
  -14.5267  -38.6750   -9.2454 C   0  0  0  0  0  0  0  0  0  0  0  0
  -14.2951  -38.7005   -7.7787 C   0  0  0  0  0  0  0  0  0  0  0  0
  -14.8162  -39.9172   -7.1885 N   0  0  0  0  0  0  0  0  0  0  0  0
  -15.9092  -39.5396   -6.3105 C   0  0  0  0  0  0  0  0  0  0  0  0
  -17.2453  -39.6750   -6.9784 C   0  0  1  0  0  0  0  0  0  0  0  0
  -18.1940  -40.0472   -6.0779 O   0  0  0  0  0  0  0  0  0  0  0  0
  -17.5936  -38.6385   -7.9809 C   0  0  2  0  0  0  0  0  0  0  0  0
  -18.6492  -37.6532   -7.6422 C   0  0  0  0  0  0  0  0  0  0  0  0
  -19.7271  -38.0880   -6.6936 C   0  0  0  0  0  0  0  0  0  0  0  0
  -19.7273  -37.2544   -5.5481 C   0  0  0  0  0  0  0  0  0  0  0  0
  -20.6017  -37.3842   -4.5027 C   0  0  0  0  0  0  0  0  0  0  0  0
  -21.5090  -38.4022   -4.6326 C   0  0  0  0  0  0  0  0  0  0  0  0
  -21.5460  -39.2593   -5.7612 C   0  0  0  0  0  0  0  0  0  0  0  0
  -20.6450  -39.1019   -6.8023 C   0  0  0  0  0  0  0  0  0  0  0  0
  -22.5629  -40.1928   -5.6235 O   0  0  0  0  0  0  0  0  0  0  0  0
  -23.6473  -40.6194   -6.3672 C   0  0  0  0  0  0  0  0  0  0  0  0
  -23.8291  -42.1231   -6.3495 C   0  0  0  0  0  0  0  0  0  0  0  0
  -22.6271  -42.8431   -6.8670 C   0  0  0  0  0  0  0  0  0  0  0  0
  -22.8091  -43.3292   -8.2871 C   0  0  0  0  0  0  0  0  0  0  0  0
  -21.6602  -43.6426   -8.9667 O   0  0  0  0  0  0  0  0  0  0  0  0
  -20.3488  -43.2346   -9.0602 C   0  0  0  0  0  0  0  0  0  0  0  0
  -19.4552  -44.2733   -8.7876 C   0  0  0  0  0  0  0  0  0  0  0  0
  -18.0846  -44.1268   -8.8125 C   0  0  0  0  0  0  0  0  0  0  0  0
  -17.6452  -42.8748   -9.1275 C   0  0  0  0  0  0  0  0  0  0  0  0
  -18.4751  -41.7603   -9.4197 C   0  0  0  0  0  0  0  0  0  0  0  0
  -19.8292  -41.9864   -9.3754 C   0  0  0  0  0  0  0  0  0  0  0  0
  -17.6790  -40.5614   -9.7128 C   0  0  0  0  0  0  0  0  0  0  0  0
  -16.6712  -40.7692  -10.5511 O   0  0  0  0  0  0  0  0  0  0  0  0
  -17.7178  -39.2128   -9.3155 N   0  0  0  0  0  0  0  0  0  0  0  0
  -17.9063  -38.1990  -10.3723 C   0  0  0  0  0  0  0  0  0  0  0  0
  -14.4281  -37.4841   -9.9250 C   0  0  0  0  0  0  0  0  0  0  0  0
  1  2  1  0
  2  3  1  0
  2  4  1  0
  4  5  2  0
  5  6  1  0
  6  7  2  0
  7  8  1  0
  8  9  1  0
  9 10  1  0
 10 11  1  0
 11 12  1  0
 12 13  1  1
 12 14  1  0
 14 15  1  1
 15 16  1  0
 16 17  2  0
 17 18  1  0
 18 19  2  0
 19 20  1  0
 20 21  2  0
 20 22  1  0
 22 23  1  0
 23 24  1  0
 24 25  1  0
 25 26  1  0
 26 27  1  0
 27 28  1  0
 28 29  2  0
 29 30  1  0
 30 31  2  0
 31 32  1  0
 32 33  2  0
 32 34  1  0
 34 35  2  0
 34 36  1  0
 36 37  1  0
  8 38  2  0
 21 16  1  0
 33 28  1  0
 36 14  1  0
 38  4  1  0
M  END
$$$$
