
     RDKit          3D

 38 41  0  0  0  0  0  0  0  0999 V2000
  -14.4542  -36.7697  -13.7774 C   0  0  0  0  0  0  0  0  0  0  0  0
  -14.5382  -36.3279  -12.3282 C   0  0  0  0  0  0  0  0  0  0  0  0
  -13.4891  -35.2752  -12.0601 C   0  0  0  0  0  0  0  0  0  0  0  0
  -14.2640  -37.4891  -11.4531 C   0  0  0  0  0  0  0  0  0  0  0  0
  -14.0105  -38.7536  -11.9655 C   0  0  0  0  0  0  0  0  0  0  0  0
  -13.7583  -39.7915  -11.0896 C   0  0  0  0  0  0  0  0  0  0  0  0
  -13.7548  -39.5970   -9.7613 N   0  0  0  0  0  0  0  0  0  0  0  0
  -13.9970  -38.3831   -9.2311 C   0  0  0  0  0  0  0  0  0  0  0  0
  -13.9920  -38.1366   -7.7666 C   0  0  0  0  0  0  0  0  0  0  0  0
  -15.1695  -38.7008   -7.1378 N   0  0  0  0  0  0  0  0  0  0  0  0
  -15.6803  -39.7334   -8.0214 C   0  0  0  0  0  0  0  0  0  0  0  0
  -17.1791  -39.7412   -8.0769 C   0  0  1  0  0  0  0  0  0  0  0  0
  -17.7040  -39.5179   -6.8424 O   0  0  0  0  0  0  0  0  0  0  0  0
  -17.8031  -39.0652   -9.2407 C   0  0  2  0  0  0  0  0  0  0  0  0
  -18.9850  -38.2004   -9.0062 C   0  0  0  0  0  0  0  0  0  0  0  0
  -19.8720  -38.5357   -7.8436 C   0  0  0  0  0  0  0  0  0  0  0  0
  -19.9180  -37.4448   -6.9410 C   0  0  0  0  0  0  0  0  0  0  0  0
  -20.6526  -37.4330   -5.7857 C   0  0  0  0  0  0  0  0  0  0  0  0
  -21.3663  -38.5770   -5.5442 C   0  0  0  0  0  0  0  0  0  0  0  0
  -21.3507  -39.6917   -6.4200 C   0  0  0  0  0  0  0  0  0  0  0  0
  -20.5948  -39.6720   -7.5813 C   0  0  0  0  0  0  0  0  0  0  0  0
  -22.1623  -40.7027   -5.9265 O   0  0  0  0  0  0  0  0  0  0  0  0
  -23.2148  -41.4685   -6.3921 C   0  0  0  0  0  0  0  0  0  0  0  0
  -23.1158  -42.9260   -5.9917 C   0  0  0  0  0  0  0  0  0  0  0  0
  -21.8559  -43.5616   -6.4813 C   0  0  0  0  0  0  0  0  0  0  0  0
  -22.0774  -44.4201   -7.7061 C   0  0  0  0  0  0  0  0  0  0  0  0
  -20.9590  -44.7178   -8.4412 O   0  0  0  0  0  0  0  0  0  0  0  0
  -19.7589  -44.1512   -8.8071 C   0  0  0  0  0  0  0  0  0  0  0  0
  -18.6688  -44.9340   -8.4188 C   0  0  0  0  0  0  0  0  0  0  0  0
  -17.3566  -44.5899   -8.6644 C   0  0  0  0  0  0  0  0  0  0  0  0
  -17.1850  -43.4097   -9.3257 C   0  0  0  0  0  0  0  0  0  0  0  0
  -18.2285  -42.5499   -9.7595 C   0  0  0  0  0  0  0  0  0  0  0  0
  -19.5083  -42.9623   -9.4786 C   0  0  0  0  0  0  0  0  0  0  0  0
  -17.6962  -41.3598  -10.4357 C   0  0  0  0  0  0  0  0  0  0  0  0
  -16.7499  -41.6196  -11.3294 O   0  0  0  0  0  0  0  0  0  0  0  0
  -17.9439  -39.9769  -10.3700 N   0  0  0  0  0  0  0  0  0  0  0  0
  -18.4125  -39.3120  -11.6023 C   0  0  0  0  0  0  0  0  0  0  0  0
  -14.2503  -37.3412  -10.0914 C   0  0  0  0  0  0  0  0  0  0  0  0
  1  2  1  0
  2  3  1  0
  2  4  1  0
  4  5  2  0
  5  6  1  0
  6  7  2  0
  7  8  1  0
  8  9  1  0
  9 10  1  0
 10 11  1  0
 11 12  1  0
 12 13  1  1
 12 14  1  0
 14 15  1  1
 15 16  1  0
 16 17  2  0
 17 18  1  0
 18 19  2  0
 19 20  1  0
 20 21  2  0
 20 22  1  0
 22 23  1  0
 23 24  1  0
 24 25  1  0
 25 26  1  0
 26 27  1  0
 27 28  1  0
 28 29  2  0
 29 30  1  0
 30 31  2  0
 31 32  1  0
 32 33  2  0
 32 34  1  0
 34 35  2  0
 34 36  1  0
 36 37  1  0
  8 38  2  0
 21 16  1  0
 33 28  1  0
 36 14  1  0
 38  4  1  0
M  END
$$$$
