
     RDKit          3D

 38 41  0  0  0  0  0  0  0  0999 V2000
  -22.5123  -40.1093   -3.9010 C   0  0  0  0  0  0  0  0  0  0  0  0
  -22.3412  -39.2041   -5.1068 C   0  0  0  0  0  0  0  0  0  0  0  0
  -23.2890  -38.0336   -4.9973 C   0  0  0  0  0  0  0  0  0  0  0  0
  -22.6805  -39.9625   -6.3312 C   0  0  0  0  0  0  0  0  0  0  0  0
  -23.9841  -40.0663   -6.7954 C   0  0  0  0  0  0  0  0  0  0  0  0
  -24.2276  -40.7873   -7.9484 C   0  0  0  0  0  0  0  0  0  0  0  0
  -23.2304  -41.3837   -8.6208 N   0  0  0  0  0  0  0  0  0  0  0  0
  -21.9546  -41.3029   -8.1978 C   0  0  0  0  0  0  0  0  0  0  0  0
  -20.8306  -41.9457   -8.9251 C   0  0  0  0  0  0  0  0  0  0  0  0
  -19.5565  -41.3926   -8.5117 N   0  0  0  0  0  0  0  0  0  0  0  0
  -19.1518  -40.4329   -9.5233 C   0  0  0  0  0  0  0  0  0  0  0  0
  -17.7943  -39.8576   -9.2478 C   0  0  1  0  0  0  0  0  0  0  0  0
  -17.8762  -38.5150   -9.0472 O   0  0  0  0  0  0  0  0  0  0  0  0
  -16.9058  -40.6494   -8.3621 C   0  0  2  0  0  0  0  0  0  0  0  0
  -15.9435  -39.9259   -7.4960 C   0  0  0  0  0  0  0  0  0  0  0  0
  -15.4352  -38.5994   -7.9784 C   0  0  0  0  0  0  0  0  0  0  0  0
  -15.7765  -37.5850   -7.0502 C   0  0  0  0  0  0  0  0  0  0  0  0
  -15.4431  -36.2651   -7.1962 C   0  0  0  0  0  0  0  0  0  0  0  0
  -14.7350  -35.9713   -8.3313 C   0  0  0  0  0  0  0  0  0  0  0  0
  -14.3711  -36.9540   -9.2861 C   0  0  0  0  0  0  0  0  0  0  0  0
  -14.7258  -38.2819   -9.1090 C   0  0  0  0  0  0  0  0  0  0  0  0
  -13.6617  -36.3738  -10.3275 O   0  0  0  0  0  0  0  0  0  0  0  0
  -12.4489  -36.5786  -10.9584 C   0  0  0  0  0  0  0  0  0  0  0  0
  -12.5289  -36.4426  -12.4649 C   0  0  0  0  0  0  0  0  0  0  0  0
  -13.5074  -37.3975  -13.0666 C   0  0  0  0  0  0  0  0  0  0  0  0
  -12.8349  -38.5941  -13.7009 C   0  0  0  0  0  0  0  0  0  0  0  0
  -13.6350  -39.6851  -13.9229 O   0  0  0  0  0  0  0  0  0  0  0  0
  -14.7094  -40.3343  -13.3578 C   0  0  0  0  0  0  0  0  0  0  0  0
  -15.7868  -40.4337  -14.2417 C   0  0  0  0  0  0  0  0  0  0  0  0
  -16.9835  -41.0381  -13.9206 C   0  0  0  0  0  0  0  0  0  0  0  0
  -17.0516  -41.5448  -12.6564 C   0  0  0  0  0  0  0  0  0  0  0  0
  -16.0115  -41.4921  -11.6912 C   0  0  0  0  0  0  0  0  0  0  0  0
  -14.8499  -40.8749  -12.0869 C   0  0  0  0  0  0  0  0  0  0  0  0
  -16.4169  -42.1278  -10.4309 C   0  0  0  0  0  0  0  0  0  0  0  0
  -17.0085  -43.3063  -10.5818 O   0  0  0  0  0  0  0  0  0  0  0  0
  -16.3344  -41.7902   -9.0681 N   0  0  0  0  0  0  0  0  0  0  0  0
  -15.5704  -42.6979   -8.1891 C   0  0  0  0  0  0  0  0  0  0  0  0
  -21.6980  -40.5891   -7.0513 C   0  0  0  0  0  0  0  0  0  0  0  0
  1  2  1  0
  2  3  1  0
  2  4  1  0
  4  5  2  0
  5  6  1  0
  6  7  2  0
  7  8  1  0
  8  9  1  0
  9 10  1  0
 10 11  1  0
 11 12  1  0
 12 13  1  1
 12 14  1  0
 14 15  1  6
 15 16  1  0
 16 17  2  0
 17 18  1  0
 18 19  2  0
 19 20  1  0
 20 21  2  0
 20 22  1  0
 22 23  1  0
 23 24  1  0
 24 25  1  0
 25 26  1  0
 26 27  1  0
 27 28  1  0
 28 29  2  0
 29 30  1  0
 30 31  2  0
 31 32  1  0
 32 33  2  0
 32 34  1  0
 34 35  2  0
 34 36  1  0
 36 37  1  0
  8 38  2  0
 21 16  1  0
 33 28  1  0
 36 14  1  0
 38  4  1  0
M  END
$$$$
