
     RDKit          3D

 40 43  0  0  0  0  0  0  0  0999 V2000
  -22.8707  -40.1139   -3.1668 C   0  0  0  0  0  0  0  0  0  0  0  0
  -22.4506  -41.5137   -3.5122 C   0  0  0  0  0  0  0  0  0  0  0  0
  -21.4180  -42.0383   -2.5044 C   0  0  0  0  0  0  0  0  0  0  0  0
  -21.9200  -41.6577   -4.8768 C   0  0  0  0  0  0  0  0  0  0  0  0
  -21.0839  -40.7358   -5.4685 C   0  0  0  0  0  0  0  0  0  0  0  0
  -20.5934  -40.8999   -6.7540 C   0  0  0  0  0  0  0  0  0  0  0  0
  -19.7110  -39.9098   -7.3727 C   0  0  0  0  0  0  0  0  0  0  0  0
  -18.3647  -39.8550   -7.1225 N   0  0  0  0  0  0  0  0  0  0  0  0
  -17.3720  -39.1457   -7.7496 C   0  0  0  0  0  0  0  0  0  0  0  0
  -16.0339  -38.9380   -7.1943 C   0  0  1  0  0  0  0  0  0  0  0  0
  -15.7855  -39.6316   -6.0423 O   0  0  0  0  0  0  0  0  0  0  0  0
  -14.9001  -39.2588   -8.1557 C   0  0  2  0  0  0  0  0  0  0  0  0
  -14.1670  -38.0224   -8.5939 C   0  0  0  0  0  0  0  0  0  0  0  0
  -12.7720  -38.4669   -9.0377 C   0  0  2  0  0  0  0  0  0  0  0  0
  -11.9286  -38.8649   -7.8553 C   0  0  0  0  0  0  0  0  0  0  0  0
  -12.1520  -37.2937   -9.7720 C   0  0  0  0  0  0  0  0  0  0  0  0
  -10.7942  -37.6230  -10.3049 C   0  0  0  0  0  0  0  0  0  0  0  0
  -10.7773  -37.8269  -11.7848 C   0  0  0  0  0  0  0  0  0  0  0  0
  -11.2290  -36.5847  -12.4842 C   0  0  0  0  0  0  0  0  0  0  0  0
  -10.8466  -36.7070  -13.9481 C   0  0  0  0  0  0  0  0  0  0  0  0
  -11.9928  -36.1774  -14.7742 C   0  0  0  0  0  0  0  0  0  0  0  0
  -13.1218  -37.1929  -14.8470 C   0  0  0  0  0  0  0  0  0  0  0  0
  -14.0910  -36.8343  -13.9406 O   0  0  0  0  0  0  0  0  0  0  0  0
  -15.0100  -37.4493  -13.1139 C   0  0  0  0  0  0  0  0  0  0  0  0
  -14.8086  -38.4128  -12.1308 C   0  0  0  0  0  0  0  0  0  0  0  0
  -15.9025  -38.8657  -11.4451 C   0  0  0  0  0  0  0  0  0  0  0  0
  -17.1943  -38.3474  -11.7510 C   0  0  0  0  0  0  0  0  0  0  0  0
  -17.4205  -37.4004  -12.7092 C   0  0  0  0  0  0  0  0  0  0  0  0
  -16.3135  -36.9628  -13.3809 C   0  0  0  0  0  0  0  0  0  0  0  0
  -18.7676  -36.8922  -12.9910 C   0  0  0  0  0  0  0  0  0  0  0  0
  -19.2348  -36.7576  -14.2436 N   0  0  0  0  0  0  0  0  0  0  0  0
  -20.4664  -36.2808  -14.1579 C   0  0  0  0  0  0  0  0  0  0  0  0
  -20.7228  -36.1338  -12.8130 C   0  0  0  0  0  0  0  0  0  0  0  0
  -19.6740  -36.5123  -12.1328 O   0  0  0  0  0  0  0  0  0  0  0  0
  -16.0402  -39.8685  -10.3727 C   0  0  0  0  0  0  0  0  0  0  0  0
  -17.0537  -40.7195  -10.4410 O   0  0  0  0  0  0  0  0  0  0  0  0
  -15.2807  -40.1374   -9.2129 N   0  0  0  0  0  0  0  0  0  0  0  0
  -20.9727  -42.0327   -7.4374 C   0  0  0  0  0  0  0  0  0  0  0  0
  -21.8069  -42.9823   -6.8870 C   0  0  0  0  0  0  0  0  0  0  0  0
  -22.2626  -42.7704   -5.6136 C   0  0  0  0  0  0  0  0  0  0  0  0
  1  2  1  0
  2  3  1  0
  2  4  1  0
  4  5  2  0
  5  6  1  0
  6  7  1  0
  7  8  1  0
  8  9  1  0
  9 10  1  0
 10 11  1  1
 10 12  1  0
 12 13  1  6
 13 14  1  0
 14 15  1  1
 14 16  1  0
 16 17  1  0
 17 18  1  0
 18 19  1  0
 19 20  1  0
 20 21  1  0
 21 22  1  0
 22 23  1  0
 23 24  1  0
 24 25  2  0
 25 26  1  0
 26 27  2  0
 27 28  1  0
 28 29  2  0
 28 30  1  0
 30 31  2  0
 31 32  1  0
 32 33  2  0
 33 34  1  0
 26 35  1  0
 35 36  2  0
 35 37  1  0
  6 38  2  0
 38 39  1  0
 39 40  2  0
 29 24  1  0
 34 30  1  0
 37 12  1  0
 40  4  1  0
M  END
$$$$
