
     RDKit          3D

 40 43  0  0  0  0  0  0  0  0999 V2000
  -12.3408  -36.8107  -14.4193 C   0  0  0  0  0  0  0  0  0  0  0  0
  -13.3118  -36.7659  -13.2746 C   0  0  0  0  0  0  0  0  0  0  0  0
  -12.9191  -35.6753  -12.2680 C   0  0  0  0  0  0  0  0  0  0  0  0
  -13.4646  -38.0492  -12.5715 C   0  0  0  0  0  0  0  0  0  0  0  0
  -13.3758  -38.1812  -11.2026 C   0  0  0  0  0  0  0  0  0  0  0  0
  -13.5303  -39.4020  -10.5656 C   0  0  0  0  0  0  0  0  0  0  0  0
  -13.4274  -39.5291   -9.1113 C   0  0  0  0  0  0  0  0  0  0  0  0
  -14.4680  -39.2472   -8.2653 N   0  0  0  0  0  0  0  0  0  0  0  0
  -14.8087  -39.8037   -7.0587 C   0  0  0  0  0  0  0  0  0  0  0  0
  -15.9976  -40.6288   -6.8405 C   0  0  1  0  0  0  0  0  0  0  0  0
  -16.3351  -40.7985   -5.5263 O   0  0  0  0  0  0  0  0  0  0  0  0
  -17.2445  -40.1319   -7.5555 C   0  0  2  0  0  0  0  0  0  0  0  0
  -18.4677  -40.2311   -6.6882 C   0  0  0  0  0  0  0  0  0  0  0  0
  -19.4792  -39.2189   -7.2291 C   0  0  2  0  0  0  0  0  0  0  0  0
  -19.0530  -37.8083   -6.9186 C   0  0  0  0  0  0  0  0  0  0  0  0
  -20.8095  -39.5369   -6.5741 C   0  0  0  0  0  0  0  0  0  0  0  0
  -21.9017  -38.6409   -7.0644 C   0  0  0  0  0  0  0  0  0  0  0  0
  -22.8449  -39.3225   -8.0012 C   0  0  0  0  0  0  0  0  0  0  0  0
  -23.5046  -40.4796   -7.3215 C   0  0  0  0  0  0  0  0  0  0  0  0
  -24.6970  -40.8981   -8.1625 C   0  0  0  0  0  0  0  0  0  0  0  0
  -24.7396  -42.4061   -8.1915 C   0  0  0  0  0  0  0  0  0  0  0  0
  -23.6993  -42.9584   -9.1527 C   0  0  0  0  0  0  0  0  0  0  0  0
  -22.6075  -43.3693   -8.4258 O   0  0  0  0  0  0  0  0  0  0  0  0
  -21.2359  -43.4349   -8.5703 C   0  0  0  0  0  0  0  0  0  0  0  0
  -20.3303  -42.4245   -8.8775 C   0  0  0  0  0  0  0  0  0  0  0  0
  -19.0060  -42.7570   -8.9646 C   0  0  0  0  0  0  0  0  0  0  0  0
  -18.5982  -44.1043   -8.7421 C   0  0  0  0  0  0  0  0  0  0  0  0
  -19.4651  -45.1151   -8.4374 C   0  0  0  0  0  0  0  0  0  0  0  0
  -20.7823  -44.7598   -8.3555 C   0  0  0  0  0  0  0  0  0  0  0  0
  -19.0024  -46.4893   -8.2139 C   0  0  0  0  0  0  0  0  0  0  0  0
  -19.7665  -47.5574   -8.4976 N   0  0  0  0  0  0  0  0  0  0  0  0
  -19.0685  -48.6377   -8.1859 C   0  0  0  0  0  0  0  0  0  0  0  0
  -17.8607  -48.1829   -7.7060 C   0  0  0  0  0  0  0  0  0  0  0  0
  -17.8521  -46.8771   -7.7355 O   0  0  0  0  0  0  0  0  0  0  0  0
  -17.8118  -41.9498   -9.2760 C   0  0  0  0  0  0  0  0  0  0  0  0
  -16.9027  -42.4687  -10.0886 O   0  0  0  0  0  0  0  0  0  0  0  0
  -17.3968  -40.6622   -8.8707 N   0  0  0  0  0  0  0  0  0  0  0  0
  -13.7798  -40.5016  -11.3547 C   0  0  0  0  0  0  0  0  0  0  0  0
  -13.8771  -40.4185  -12.7274 C   0  0  0  0  0  0  0  0  0  0  0  0
  -13.7161  -39.1879  -13.3052 C   0  0  0  0  0  0  0  0  0  0  0  0
  1  2  1  0
  2  3  1  0
  2  4  1  0
  4  5  2  0
  5  6  1  0
  6  7  1  0
  7  8  1  0
  8  9  1  0
  9 10  1  0
 10 11  1  1
 10 12  1  0
 12 13  1  1
 13 14  1  0
 14 15  1  1
 14 16  1  0
 16 17  1  0
 17 18  1  0
 18 19  1  0
 19 20  1  0
 20 21  1  0
 21 22  1  0
 22 23  1  0
 23 24  1  0
 24 25  2  0
 25 26  1  0
 26 27  2  0
 27 28  1  0
 28 29  2  0
 28 30  1  0
 30 31  2  0
 31 32  1  0
 32 33  2  0
 33 34  1  0
 26 35  1  0
 35 36  2  0
 35 37  1  0
  6 38  2  0
 38 39  1  0
 39 40  2  0
 29 24  1  0
 34 30  1  0
 37 12  1  0
 40  4  1  0
M  END
$$$$
