
     RDKit          3D

 40 43  0  0  0  0  0  0  0  0999 V2000
  -23.4278  -38.4332   -4.7255 C   0  0  0  0  0  0  0  0  0  0  0  0
  -23.2991  -39.4182   -5.8517 C   0  0  0  0  0  0  0  0  0  0  0  0
  -22.7812  -40.7694   -5.3389 C   0  0  0  0  0  0  0  0  0  0  0  0
  -22.4449  -38.9535   -6.9558 C   0  0  0  0  0  0  0  0  0  0  0  0
  -21.0733  -38.8545   -6.8660 C   0  0  0  0  0  0  0  0  0  0  0  0
  -20.2921  -38.4195   -7.9245 C   0  0  0  0  0  0  0  0  0  0  0  0
  -18.8368  -38.3132   -7.8135 C   0  0  0  0  0  0  0  0  0  0  0  0
  -18.0841  -39.1756   -7.0600 N   0  0  0  0  0  0  0  0  0  0  0  0
  -16.7358  -39.4279   -7.0785 C   0  0  0  0  0  0  0  0  0  0  0  0
  -15.9505  -39.6103   -8.2999 C   0  0  1  0  0  0  0  0  0  0  0  0
  -14.9738  -38.6723   -8.4899 O   0  0  0  0  0  0  0  0  0  0  0  0
  -15.2835  -40.9719   -8.4182 C   0  0  2  0  0  0  0  0  0  0  0  0
  -15.6974  -41.6946   -9.6690 C   0  0  0  0  0  0  0  0  0  0  0  0
  -14.5939  -42.7065   -9.9833 C   0  0  2  0  0  0  0  0  0  0  0  0
  -13.3513  -42.0159  -10.4802 C   0  0  0  0  0  0  0  0  0  0  0  0
  -15.1480  -43.6446  -11.0382 C   0  0  0  0  0  0  0  0  0  0  0  0
  -14.1732  -44.7205  -11.3962 C   0  0  0  0  0  0  0  0  0  0  0  0
  -14.5373  -46.0549  -10.8316 C   0  0  0  0  0  0  0  0  0  0  0  0
  -15.8722  -46.4891  -11.3472 C   0  0  0  0  0  0  0  0  0  0  0  0
  -16.0265  -47.9708  -11.0560 C   0  0  0  0  0  0  0  0  0  0  0  0
  -17.4422  -48.2086  -10.5913 C   0  0  0  0  0  0  0  0  0  0  0  0
  -17.6180  -47.7708   -9.1461 C   0  0  0  0  0  0  0  0  0  0  0  0
  -18.2123  -46.5314   -9.1344 O   0  0  0  0  0  0  0  0  0  0  0  0
  -18.1866  -45.3810   -8.3714 C   0  0  0  0  0  0  0  0  0  0  0  0
  -17.1053  -44.5832   -8.0114 C   0  0  0  0  0  0  0  0  0  0  0  0
  -17.3518  -43.4830   -7.2365 C   0  0  0  0  0  0  0  0  0  0  0  0
  -18.6850  -43.1897   -6.8271 C   0  0  0  0  0  0  0  0  0  0  0  0
  -19.7648  -43.9542   -7.1673 C   0  0  0  0  0  0  0  0  0  0  0  0
  -19.4948  -45.0475   -7.9416 C   0  0  0  0  0  0  0  0  0  0  0  0
  -21.1221  -43.6148   -6.7256 C   0  0  0  0  0  0  0  0  0  0  0  0
  -22.1371  -43.4516   -7.5908 N   0  0  0  0  0  0  0  0  0  0  0  0
  -23.2161  -43.1551   -6.8843 C   0  0  0  0  0  0  0  0  0  0  0  0
  -22.8153  -43.1458   -5.5669 C   0  0  0  0  0  0  0  0  0  0  0  0
  -21.5415  -43.4277   -5.5044 O   0  0  0  0  0  0  0  0  0  0  0  0
  -16.4525  -42.4551   -6.6803 C   0  0  0  0  0  0  0  0  0  0  0  0
  -16.6493  -42.0650   -5.4292 O   0  0  0  0  0  0  0  0  0  0  0  0
  -15.3574  -41.7484   -7.2240 N   0  0  0  0  0  0  0  0  0  0  0  0
  -20.9379  -38.0819   -9.0921 C   0  0  0  0  0  0  0  0  0  0  0  0
  -22.3072  -38.1645   -9.2289 C   0  0  0  0  0  0  0  0  0  0  0  0
  -23.0310  -38.6005   -8.1518 C   0  0  0  0  0  0  0  0  0  0  0  0
  1  2  1  0
  2  3  1  0
  2  4  1  0
  4  5  2  0
  5  6  1  0
  6  7  1  0
  7  8  1  0
  8  9  1  0
  9 10  1  0
 10 11  1  1
 10 12  1  0
 12 13  1  6
 13 14  1  0
 14 15  1  6
 14 16  1  0
 16 17  1  0
 17 18  1  0
 18 19  1  0
 19 20  1  0
 20 21  1  0
 21 22  1  0
 22 23  1  0
 23 24  1  0
 24 25  2  0
 25 26  1  0
 26 27  2  0
 27 28  1  0
 28 29  2  0
 28 30  1  0
 30 31  2  0
 31 32  1  0
 32 33  2  0
 33 34  1  0
 26 35  1  0
 35 36  2  0
 35 37  1  0
  6 38  2  0
 38 39  1  0
 39 40  2  0
 29 24  1  0
 34 30  1  0
 37 12  1  0
 40  4  1  0
M  END
$$$$
