
     RDKit          3D

 40 43  0  0  0  0  0  0  0  0999 V2000
  -23.2274  -41.7526   -3.8687 C   0  0  0  0  0  0  0  0  0  0  0  0
  -21.9155  -41.0341   -4.0020 C   0  0  0  0  0  0  0  0  0  0  0  0
  -21.6518  -40.1470   -2.7770 C   0  0  0  0  0  0  0  0  0  0  0  0
  -21.7998  -40.2258   -5.2259 C   0  0  0  0  0  0  0  0  0  0  0  0
  -20.6949  -39.4601   -5.5295 C   0  0  0  0  0  0  0  0  0  0  0  0
  -20.6099  -38.7129   -6.6933 C   0  0  0  0  0  0  0  0  0  0  0  0
  -19.4331  -37.8991   -7.0005 C   0  0  0  0  0  0  0  0  0  0  0  0
  -18.1661  -38.4179   -7.0611 N   0  0  0  0  0  0  0  0  0  0  0  0
  -16.9796  -37.8277   -7.4158 C   0  0  0  0  0  0  0  0  0  0  0  0
  -16.2398  -38.1400   -8.6393 C   0  0  1  0  0  0  0  0  0  0  0  0
  -15.3529  -37.1738   -9.0264 O   0  0  0  0  0  0  0  0  0  0  0  0
  -15.4700  -39.4506   -8.5884 C   0  0  2  0  0  0  0  0  0  0  0  0
  -15.1094  -39.9451   -9.9609 C   0  0  0  0  0  0  0  0  0  0  0  0
  -13.9029  -40.8712   -9.7967 C   0  0  2  0  0  0  0  0  0  0  0  0
  -12.6597  -40.0880   -9.4667 C   0  0  0  0  0  0  0  0  0  0  0  0
  -13.7399  -41.6142  -11.1087 C   0  0  0  0  0  0  0  0  0  0  0  0
  -12.6143  -42.5973  -11.0576 C   0  0  0  0  0  0  0  0  0  0  0  0
  -13.0761  -44.0151  -10.9660 C   0  0  0  0  0  0  0  0  0  0  0  0
  -13.9069  -44.3676  -12.1584 C   0  0  0  0  0  0  0  0  0  0  0  0
  -14.0348  -45.8793  -12.2088 C   0  0  0  0  0  0  0  0  0  0  0  0
  -15.4559  -46.2134  -12.5904 C   0  0  0  0  0  0  0  0  0  0  0  0
  -16.3897  -46.0412  -11.4032 C   0  0  0  0  0  0  0  0  0  0  0  0
  -17.0304  -44.8311  -11.5235 O   0  0  0  0  0  0  0  0  0  0  0  0
  -17.5170  -43.8341  -10.7016 C   0  0  0  0  0  0  0  0  0  0  0  0
  -16.8605  -43.0993   -9.7196 C   0  0  0  0  0  0  0  0  0  0  0  0
  -17.5803  -42.1571   -9.0369 C   0  0  0  0  0  0  0  0  0  0  0  0
  -18.9574  -41.9578   -9.3450 C   0  0  0  0  0  0  0  0  0  0  0  0
  -19.6261  -42.6632  -10.3048 C   0  0  0  0  0  0  0  0  0  0  0  0
  -18.8873  -43.5985  -10.9737 C   0  0  0  0  0  0  0  0  0  0  0  0
  -21.0450  -42.4247  -10.5917 C   0  0  0  0  0  0  0  0  0  0  0  0
  -21.9447  -43.4218  -10.6345 N   0  0  0  0  0  0  0  0  0  0  0  0
  -23.1206  -42.8826  -10.9135 C   0  0  0  0  0  0  0  0  0  0  0  0
  -22.8971  -41.5294  -11.0367 C   0  0  0  0  0  0  0  0  0  0  0  0
  -21.6299  -41.2843  -10.8364 O   0  0  0  0  0  0  0  0  0  0  0  0
  -17.2030  -41.2331   -7.9513 C   0  0  0  0  0  0  0  0  0  0  0  0
  -18.0507  -41.0736   -6.9452 O   0  0  0  0  0  0  0  0  0  0  0  0
  -16.0635  -40.4274   -7.7353 N   0  0  0  0  0  0  0  0  0  0  0  0
  -21.6820  -38.7578   -7.5551 C   0  0  0  0  0  0  0  0  0  0  0  0
  -22.8082  -39.5089   -7.2940 C   0  0  0  0  0  0  0  0  0  0  0  0
  -22.8397  -40.2282   -6.1297 C   0  0  0  0  0  0  0  0  0  0  0  0
  1  2  1  0
  2  3  1  0
  2  4  1  0
  4  5  2  0
  5  6  1  0
  6  7  1  0
  7  8  1  0
  8  9  1  0
  9 10  1  0
 10 11  1  1
 10 12  1  0
 12 13  1  6
 13 14  1  0
 14 15  1  6
 14 16  1  0
 16 17  1  0
 17 18  1  0
 18 19  1  0
 19 20  1  0
 20 21  1  0
 21 22  1  0
 22 23  1  0
 23 24  1  0
 24 25  2  0
 25 26  1  0
 26 27  2  0
 27 28  1  0
 28 29  2  0
 28 30  1  0
 30 31  2  0
 31 32  1  0
 32 33  2  0
 33 34  1  0
 26 35  1  0
 35 36  2  0
 35 37  1  0
  6 38  2  0
 38 39  1  0
 39 40  2  0
 29 24  1  0
 34 30  1  0
 37 12  1  0
 40  4  1  0
M  END
$$$$
