
     RDKit          3D

 40 43  0  0  0  0  0  0  0  0999 V2000
  -11.1089  -35.3220  -12.8653 C   0  0  0  0  0  0  0  0  0  0  0  0
  -12.5386  -35.3264  -12.4058 C   0  0  0  0  0  0  0  0  0  0  0  0
  -12.6953  -34.5320  -11.1014 C   0  0  0  0  0  0  0  0  0  0  0  0
  -13.1045  -36.6730  -12.2300 C   0  0  0  0  0  0  0  0  0  0  0  0
  -13.3095  -37.2566  -10.9986 C   0  0  0  0  0  0  0  0  0  0  0  0
  -13.8505  -38.5249  -10.8619 C   0  0  0  0  0  0  0  0  0  0  0  0
  -14.0572  -39.1354   -9.5481 C   0  0  0  0  0  0  0  0  0  0  0  0
  -14.4567  -38.4189   -8.4504 N   0  0  0  0  0  0  0  0  0  0  0  0
  -15.2054  -38.7982   -7.3653 C   0  0  0  0  0  0  0  0  0  0  0  0
  -16.0783  -39.9727   -7.3390 C   0  0  1  0  0  0  0  0  0  0  0  0
  -16.0686  -40.6585   -6.1560 O   0  0  0  0  0  0  0  0  0  0  0  0
  -17.5340  -39.6785   -7.6665 C   0  0  2  0  0  0  0  0  0  0  0  0
  -18.4280  -39.8653   -6.4732 C   0  0  0  0  0  0  0  0  0  0  0  0
  -19.6796  -39.0206   -6.7193 C   0  0  2  0  0  0  0  0  0  0  0  0
  -19.3756  -37.5513   -6.5901 C   0  0  0  0  0  0  0  0  0  0  0  0
  -20.7073  -39.4513   -5.6906 C   0  0  0  0  0  0  0  0  0  0  0  0
  -22.0050  -38.7280   -5.8609 C   0  0  0  0  0  0  0  0  0  0  0  0
  -23.0786  -39.5796   -6.4560 C   0  0  0  0  0  0  0  0  0  0  0  0
  -23.3508  -40.7591   -5.5781 C   0  0  0  0  0  0  0  0  0  0  0  0
  -24.6681  -41.3735   -6.0155 C   0  0  0  0  0  0  0  0  0  0  0  0
  -24.5138  -42.8742   -5.9868 C   0  0  0  0  0  0  0  0  0  0  0  0
  -23.7326  -43.3611   -7.1966 C   0  0  0  0  0  0  0  0  0  0  0  0
  -22.4319  -43.5879   -6.8143 O   0  0  0  0  0  0  0  0  0  0  0  0
  -21.1654  -43.4978   -7.3568 C   0  0  0  0  0  0  0  0  0  0  0  0
  -20.5325  -42.4090   -7.9477 C   0  0  0  0  0  0  0  0  0  0  0  0
  -19.2582  -42.5852   -8.4136 C   0  0  0  0  0  0  0  0  0  0  0  0
  -18.6259  -43.8556   -8.2830 C   0  0  0  0  0  0  0  0  0  0  0  0
  -19.2228  -44.9404   -7.7058 C   0  0  0  0  0  0  0  0  0  0  0  0
  -20.4949  -44.7411   -7.2476 C   0  0  0  0  0  0  0  0  0  0  0  0
  -18.5345  -46.2308   -7.5897 C   0  0  0  0  0  0  0  0  0  0  0  0
  -18.3308  -46.8298   -6.4043 N   0  0  0  0  0  0  0  0  0  0  0  0
  -17.6913  -47.9645   -6.6386 C   0  0  0  0  0  0  0  0  0  0  0  0
  -17.5180  -48.0267   -8.0032 C   0  0  0  0  0  0  0  0  0  0  0  0
  -18.0395  -46.9616   -8.5505 O   0  0  0  0  0  0  0  0  0  0  0  0
  -18.3257  -41.6631   -9.0881 C   0  0  0  0  0  0  0  0  0  0  0  0
  -17.6301  -42.1227  -10.1182 O   0  0  0  0  0  0  0  0  0  0  0  0
  -17.9883  -40.3107   -8.8616 N   0  0  0  0  0  0  0  0  0  0  0  0
  -14.1841  -39.1993  -12.0144 C   0  0  0  0  0  0  0  0  0  0  0  0
  -13.9974  -38.6564  -13.2678 C   0  0  0  0  0  0  0  0  0  0  0  0
  -13.4593  -37.4000  -13.3453 C   0  0  0  0  0  0  0  0  0  0  0  0
  1  2  1  0
  2  3  1  0
  2  4  1  0
  4  5  2  0
  5  6  1  0
  6  7  1  0
  7  8  1  0
  8  9  1  0
  9 10  1  0
 10 11  1  1
 10 12  1  0
 12 13  1  1
 13 14  1  0
 14 15  1  1
 14 16  1  0
 16 17  1  0
 17 18  1  0
 18 19  1  0
 19 20  1  0
 20 21  1  0
 21 22  1  0
 22 23  1  0
 23 24  1  0
 24 25  2  0
 25 26  1  0
 26 27  2  0
 27 28  1  0
 28 29  2  0
 28 30  1  0
 30 31  2  0
 31 32  1  0
 32 33  2  0
 33 34  1  0
 26 35  1  0
 35 36  2  0
 35 37  1  0
  6 38  2  0
 38 39  1  0
 39 40  2  0
 29 24  1  0
 34 30  1  0
 37 12  1  0
 40  4  1  0
M  END
$$$$
