
     RDKit          3D

 40 43  0  0  0  0  0  0  0  0999 V2000
  -20.4123  -36.9265  -13.4871 C   0  0  0  0  0  0  0  0  0  0  0  0
  -19.3796  -35.8419  -13.5979 C   0  0  0  0  0  0  0  0  0  0  0  0
  -18.5368  -36.0183  -14.8690 C   0  0  0  0  0  0  0  0  0  0  0  0
  -18.4900  -35.7438  -12.4303 C   0  0  0  0  0  0  0  0  0  0  0  0
  -18.6092  -36.5438  -11.3145 C   0  0  0  0  0  0  0  0  0  0  0  0
  -17.7528  -36.4340  -10.2307 C   0  0  0  0  0  0  0  0  0  0  0  0
  -17.8945  -37.2859   -9.0493 C   0  0  0  0  0  0  0  0  0  0  0  0
  -17.4302  -38.5745   -9.0023 N   0  0  0  0  0  0  0  0  0  0  0  0
  -16.4302  -39.1323   -8.2469 C   0  0  0  0  0  0  0  0  0  0  0  0
  -15.6764  -40.3256   -8.6335 C   0  0  1  0  0  0  0  0  0  0  0  0
  -14.3179  -40.1791   -8.5784 O   0  0  0  0  0  0  0  0  0  0  0  0
  -16.0188  -41.5704   -7.8298 C   0  0  2  0  0  0  0  0  0  0  0  0
  -16.1236  -42.7910   -8.7001 C   0  0  0  0  0  0  0  0  0  0  0  0
  -15.8826  -44.0023   -7.7973 C   0  0  2  0  0  0  0  0  0  0  0  0
  -14.4356  -44.0955   -7.3907 C   0  0  0  0  0  0  0  0  0  0  0  0
  -16.3006  -45.2272   -8.5879 C   0  0  0  0  0  0  0  0  0  0  0  0
  -16.1596  -46.4829   -7.7882 C   0  0  0  0  0  0  0  0  0  0  0  0
  -17.4685  -47.0351   -7.3257 C   0  0  0  0  0  0  0  0  0  0  0  0
  -18.3364  -47.3623   -8.4987 C   0  0  0  0  0  0  0  0  0  0  0  0
  -19.4703  -48.2449   -8.0096 C   0  0  0  0  0  0  0  0  0  0  0  0
  -20.7383  -47.7941   -8.6919 C   0  0  0  0  0  0  0  0  0  0  0  0
  -21.2745  -46.5234   -8.0524 C   0  0  0  0  0  0  0  0  0  0  0  0
  -20.9089  -45.4534   -8.8339 O   0  0  0  0  0  0  0  0  0  0  0  0
  -20.5602  -44.1274   -8.6714 C   0  0  0  0  0  0  0  0  0  0  0  0
  -19.5596  -43.5668   -7.8841 C   0  0  0  0  0  0  0  0  0  0  0  0
  -19.4204  -42.2058   -7.8995 C   0  0  0  0  0  0  0  0  0  0  0  0
  -20.2881  -41.4144   -8.7069 C   0  0  0  0  0  0  0  0  0  0  0  0
  -21.2769  -41.9382   -9.4904 C   0  0  0  0  0  0  0  0  0  0  0  0
  -21.3972  -43.2993   -9.4595 C   0  0  0  0  0  0  0  0  0  0  0  0
  -22.1474  -41.0868  -10.3088 C   0  0  0  0  0  0  0  0  0  0  0  0
  -22.3645  -39.7934  -10.0163 N   0  0  0  0  0  0  0  0  0  0  0  0
  -23.1854  -39.3118  -10.9358 C   0  0  0  0  0  0  0  0  0  0  0  0
  -23.4537  -40.3584  -11.7895 C   0  0  0  0  0  0  0  0  0  0  0  0
  -22.8102  -41.4195  -11.3822 O   0  0  0  0  0  0  0  0  0  0  0  0
  -18.4902  -41.3082   -7.1897 C   0  0  0  0  0  0  0  0  0  0  0  0
  -18.9761  -40.1893   -6.6720 O   0  0  0  0  0  0  0  0  0  0  0  0
  -17.1052  -41.3835   -6.9247 N   0  0  0  0  0  0  0  0  0  0  0  0
  -16.7596  -35.4839  -10.3013 C   0  0  0  0  0  0  0  0  0  0  0  0
  -16.6014  -34.6612  -11.3961 C   0  0  0  0  0  0  0  0  0  0  0  0
  -17.4751  -34.8120  -12.4392 C   0  0  0  0  0  0  0  0  0  0  0  0
  1  2  1  0
  2  3  1  0
  2  4  1  0
  4  5  2  0
  5  6  1  0
  6  7  1  0
  7  8  1  0
  8  9  1  0
  9 10  1  0
 10 11  1  1
 10 12  1  0
 12 13  1  6
 13 14  1  0
 14 15  1  6
 14 16  1  0
 16 17  1  0
 17 18  1  0
 18 19  1  0
 19 20  1  0
 20 21  1  0
 21 22  1  0
 22 23  1  0
 23 24  1  0
 24 25  2  0
 25 26  1  0
 26 27  2  0
 27 28  1  0
 28 29  2  0
 28 30  1  0
 30 31  2  0
 31 32  1  0
 32 33  2  0
 33 34  1  0
 26 35  1  0
 35 36  2  0
 35 37  1  0
  6 38  2  0
 38 39  1  0
 39 40  2  0
 29 24  1  0
 34 30  1  0
 37 12  1  0
 40  4  1  0
M  END
$$$$
