
     RDKit          3D

 40 43  0  0  0  0  0  0  0  0999 V2000
  -12.4526  -37.6389  -11.7404 C   0  0  0  0  0  0  0  0  0  0  0  0
  -12.9473  -36.2240  -11.8312 C   0  0  0  0  0  0  0  0  0  0  0  0
  -12.3290  -35.3573  -10.7250 C   0  0  0  0  0  0  0  0  0  0  0  0
  -14.4127  -36.1005  -11.7884 C   0  0  0  0  0  0  0  0  0  0  0  0
  -15.2225  -36.9172  -11.0292 C   0  0  0  0  0  0  0  0  0  0  0  0
  -16.6005  -36.7745  -11.0027 C   0  0  0  0  0  0  0  0  0  0  0  0
  -17.4493  -37.6528  -10.1967 C   0  0  0  0  0  0  0  0  0  0  0  0
  -17.4670  -37.6166   -8.8268 N   0  0  0  0  0  0  0  0  0  0  0  0
  -17.1494  -38.5841   -7.9077 C   0  0  0  0  0  0  0  0  0  0  0  0
  -15.8353  -39.2198   -7.8043 C   0  0  1  0  0  0  0  0  0  0  0  0
  -15.1098  -38.8442   -6.7077 O   0  0  0  0  0  0  0  0  0  0  0  0
  -15.8729  -40.7401   -7.8087 C   0  0  2  0  0  0  0  0  0  0  0  0
  -16.7351  -41.2785   -8.9154 C   0  0  0  0  0  0  0  0  0  0  0  0
  -16.2575  -42.7043   -9.1972 C   0  0  2  0  0  0  0  0  0  0  0  0
  -14.9190  -42.7008   -9.8874 C   0  0  0  0  0  0  0  0  0  0  0  0
  -17.3130  -43.3548  -10.0704 C   0  0  0  0  0  0  0  0  0  0  0  0
  -16.9838  -44.7812  -10.3756 C   0  0  0  0  0  0  0  0  0  0  0  0
  -17.8256  -45.7540   -9.6160 C   0  0  0  0  0  0  0  0  0  0  0  0
  -19.2703  -45.5606   -9.9501 C   0  0  0  0  0  0  0  0  0  0  0  0
  -20.0307  -46.7798   -9.4608 C   0  0  0  0  0  0  0  0  0  0  0  0
  -21.3234  -46.3053   -8.8441 C   0  0  0  0  0  0  0  0  0  0  0  0
  -21.0830  -45.7337   -7.4561 C   0  0  0  0  0  0  0  0  0  0  0  0
  -21.0506  -44.3626   -7.5481 O   0  0  0  0  0  0  0  0  0  0  0  0
  -20.4069  -43.3019   -6.9423 C   0  0  0  0  0  0  0  0  0  0  0  0
  -19.0446  -43.0680   -6.7852 C   0  0  0  0  0  0  0  0  0  0  0  0
  -18.6622  -41.9255   -6.1369 C   0  0  0  0  0  0  0  0  0  0  0  0
  -19.6516  -41.0230   -5.6495 C   0  0  0  0  0  0  0  0  0  0  0  0
  -20.9949  -41.2267   -5.7914 C   0  0  0  0  0  0  0  0  0  0  0  0
  -21.3535  -42.3739   -6.4422 C   0  0  0  0  0  0  0  0  0  0  0  0
  -21.9806  -40.2701   -5.2759 C   0  0  0  0  0  0  0  0  0  0  0  0
  -23.2452  -40.2308   -5.7282 N   0  0  0  0  0  0  0  0  0  0  0  0
  -23.8719  -39.2695   -5.0691 C   0  0  0  0  0  0  0  0  0  0  0  0
  -22.9420  -38.7332   -4.2067 C   0  0  0  0  0  0  0  0  0  0  0  0
  -21.8064  -39.3609   -4.3564 O   0  0  0  0  0  0  0  0  0  0  0  0
  -17.3303  -41.3902   -5.7987 C   0  0  0  0  0  0  0  0  0  0  0  0
  -17.1566  -40.8649   -4.5945 O   0  0  0  0  0  0  0  0  0  0  0  0
  -16.1214  -41.3078   -6.5240 N   0  0  0  0  0  0  0  0  0  0  0  0
  -17.1490  -35.7737  -11.7719 C   0  0  0  0  0  0  0  0  0  0  0  0
  -16.3795  -34.9326  -12.5472 C   0  0  0  0  0  0  0  0  0  0  0  0
  -15.0231  -35.1176  -12.5365 C   0  0  0  0  0  0  0  0  0  0  0  0
  1  2  1  0
  2  3  1  0
  2  4  1  0
  4  5  2  0
  5  6  1  0
  6  7  1  0
  7  8  1  0
  8  9  1  0
  9 10  1  0
 10 11  1  1
 10 12  1  0
 12 13  1  6
 13 14  1  0
 14 15  1  6
 14 16  1  0
 16 17  1  0
 17 18  1  0
 18 19  1  0
 19 20  1  0
 20 21  1  0
 21 22  1  0
 22 23  1  0
 23 24  1  0
 24 25  2  0
 25 26  1  0
 26 27  2  0
 27 28  1  0
 28 29  2  0
 28 30  1  0
 30 31  2  0
 31 32  1  0
 32 33  2  0
 33 34  1  0
 26 35  1  0
 35 36  2  0
 35 37  1  0
  6 38  2  0
 38 39  1  0
 39 40  2  0
 29 24  1  0
 34 30  1  0
 37 12  1  0
 40  4  1  0
M  END
$$$$
