
     RDKit          3D

 40 43  0  0  0  0  0  0  0  0999 V2000
  -18.5042  -35.4020  -11.3238 C   0  0  0  0  0  0  0  0  0  0  0  0
  -17.7308  -36.2265  -12.3124 C   0  0  0  0  0  0  0  0  0  0  0  0
  -18.5479  -37.4451  -12.7647 C   0  0  0  0  0  0  0  0  0  0  0  0
  -16.4183  -36.6725  -11.8198 C   0  0  0  0  0  0  0  0  0  0  0  0
  -16.1617  -37.9592  -11.3981 C   0  0  0  0  0  0  0  0  0  0  0  0
  -14.9133  -38.3539  -10.9445 C   0  0  0  0  0  0  0  0  0  0  0  0
  -14.6562  -39.7222  -10.4937 C   0  0  0  0  0  0  0  0  0  0  0  0
  -14.5654  -40.0636   -9.1696 N   0  0  0  0  0  0  0  0  0  0  0  0
  -15.5471  -40.3618   -8.2590 C   0  0  0  0  0  0  0  0  0  0  0  0
  -16.2034  -39.3717   -7.4041 C   0  0  1  0  0  0  0  0  0  0  0  0
  -15.6646  -38.1169   -7.4752 O   0  0  0  0  0  0  0  0  0  0  0  0
  -17.6972  -39.2249   -7.6488 C   0  0  2  0  0  0  0  0  0  0  0  0
  -18.5074  -39.6537   -6.4580 C   0  0  0  0  0  0  0  0  0  0  0  0
  -19.8606  -38.9480   -6.5638 C   0  0  2  0  0  0  0  0  0  0  0  0
  -19.7283  -37.4764   -6.2729 C   0  0  0  0  0  0  0  0  0  0  0  0
  -20.7816  -39.6154   -5.5608 C   0  0  0  0  0  0  0  0  0  0  0  0
  -22.1627  -39.0436   -5.6042 C   0  0  0  0  0  0  0  0  0  0  0  0
  -23.1532  -39.9489   -6.2608 C   0  0  0  0  0  0  0  0  0  0  0  0
  -23.2425  -41.2443   -5.5190 C   0  0  0  0  0  0  0  0  0  0  0  0
  -24.4958  -41.9637   -5.9836 C   0  0  0  0  0  0  0  0  0  0  0  0
  -24.1626  -43.4274   -6.1359 C   0  0  0  0  0  0  0  0  0  0  0  0
  -23.3849  -43.6748   -7.4185 C   0  0  0  0  0  0  0  0  0  0  0  0
  -22.0504  -43.7806   -7.1065 O   0  0  0  0  0  0  0  0  0  0  0  0
  -20.8298  -43.4742   -7.6744 C   0  0  0  0  0  0  0  0  0  0  0  0
  -20.3587  -42.2560   -8.1533 C   0  0  0  0  0  0  0  0  0  0  0  0
  -19.0950  -42.2197   -8.6766 C   0  0  0  0  0  0  0  0  0  0  0  0
  -18.3105  -43.4089   -8.7158 C   0  0  0  0  0  0  0  0  0  0  0  0
  -18.7470  -44.6170   -8.2512 C   0  0  0  0  0  0  0  0  0  0  0  0
  -20.0116  -44.6294   -7.7330 C   0  0  0  0  0  0  0  0  0  0  0  0
  -17.9053  -45.8173   -8.3089 C   0  0  0  0  0  0  0  0  0  0  0  0
  -17.2879  -46.2057   -9.4373 N   0  0  0  0  0  0  0  0  0  0  0  0
  -16.6151  -47.3111   -9.1604 C   0  0  0  0  0  0  0  0  0  0  0  0
  -16.8489  -47.5733   -7.8289 C   0  0  0  0  0  0  0  0  0  0  0  0
  -17.6343  -46.6503   -7.3419 O   0  0  0  0  0  0  0  0  0  0  0  0
  -18.3108  -41.1195   -9.2675 C   0  0  0  0  0  0  0  0  0  0  0  0
  -17.6131  -41.3707  -10.3658 O   0  0  0  0  0  0  0  0  0  0  0  0
  -18.1269  -39.7699   -8.8948 N   0  0  0  0  0  0  0  0  0  0  0  0
  -13.9164  -37.4052  -10.9264 C   0  0  0  0  0  0  0  0  0  0  0  0
  -14.1257  -36.1063  -11.3381 C   0  0  0  0  0  0  0  0  0  0  0  0
  -15.3781  -35.7700  -11.7770 C   0  0  0  0  0  0  0  0  0  0  0  0
  1  2  1  0
  2  3  1  0
  2  4  1  0
  4  5  2  0
  5  6  1  0
  6  7  1  0
  7  8  1  0
  8  9  1  0
  9 10  1  0
 10 11  1  6
 10 12  1  0
 12 13  1  1
 13 14  1  0
 14 15  1  1
 14 16  1  0
 16 17  1  0
 17 18  1  0
 18 19  1  0
 19 20  1  0
 20 21  1  0
 21 22  1  0
 22 23  1  0
 23 24  1  0
 24 25  2  0
 25 26  1  0
 26 27  2  0
 27 28  1  0
 28 29  2  0
 28 30  1  0
 30 31  2  0
 31 32  1  0
 32 33  2  0
 33 34  1  0
 26 35  1  0
 35 36  2  0
 35 37  1  0
  6 38  2  0
 38 39  1  0
 39 40  2  0
 29 24  1  0
 34 30  1  0
 37 12  1  0
 40  4  1  0
M  END
$$$$
