
     RDKit          3D

 40 43  0  0  0  0  0  0  0  0999 V2000
   -9.7091  -36.8260  -13.2253 C   0  0  0  0  0  0  0  0  0  0  0  0
  -11.1973  -36.7007  -13.3823 C   0  0  0  0  0  0  0  0  0  0  0  0
  -11.7180  -35.4457  -12.6674 C   0  0  0  0  0  0  0  0  0  0  0  0
  -11.9475  -37.8769  -12.9154 C   0  0  0  0  0  0  0  0  0  0  0  0
  -12.1168  -38.1915  -11.5844 C   0  0  0  0  0  0  0  0  0  0  0  0
  -12.8342  -39.3030  -11.1724 C   0  0  0  0  0  0  0  0  0  0  0  0
  -13.0009  -39.6289   -9.7555 C   0  0  0  0  0  0  0  0  0  0  0  0
  -14.1262  -40.2338   -9.2596 N   0  0  0  0  0  0  0  0  0  0  0  0
  -15.3952  -39.7433   -9.0837 C   0  0  0  0  0  0  0  0  0  0  0  0
  -16.2317  -40.0272   -7.9169 C   0  0  1  0  0  0  0  0  0  0  0  0
  -15.9221  -39.2917   -6.8064 O   0  0  0  0  0  0  0  0  0  0  0  0
  -17.7232  -39.8547   -8.1585 C   0  0  2  0  0  0  0  0  0  0  0  0
  -18.5139  -39.9450   -6.8839 C   0  0  0  0  0  0  0  0  0  0  0  0
  -19.8315  -39.2059   -7.1252 C   0  0  2  0  0  0  0  0  0  0  0  0
  -19.6132  -37.7173   -7.1917 C   0  0  0  0  0  0  0  0  0  0  0  0
  -20.7517  -39.5651   -5.9745 C   0  0  0  0  0  0  0  0  0  0  0  0
  -22.1019  -38.9396   -6.1230 C   0  0  0  0  0  0  0  0  0  0  0  0
  -23.1596  -39.9141   -6.5275 C   0  0  0  0  0  0  0  0  0  0  0  0
  -23.2911  -40.9924   -5.4999 C   0  0  0  0  0  0  0  0  0  0  0  0
  -24.5949  -41.7261   -5.7562 C   0  0  0  0  0  0  0  0  0  0  0  0
  -24.3436  -43.2017   -5.5663 C   0  0  0  0  0  0  0  0  0  0  0  0
  -23.6234  -43.7873   -6.7703 C   0  0  0  0  0  0  0  0  0  0  0  0
  -22.2864  -43.8949   -6.4697 O   0  0  0  0  0  0  0  0  0  0  0  0
  -21.0713  -43.8017   -7.1186 C   0  0  0  0  0  0  0  0  0  0  0  0
  -20.5539  -42.7590   -7.8805 C   0  0  0  0  0  0  0  0  0  0  0  0
  -19.3085  -42.9200   -8.4234 C   0  0  0  0  0  0  0  0  0  0  0  0
  -18.5886  -44.1291   -8.1975 C   0  0  0  0  0  0  0  0  0  0  0  0
  -19.0713  -45.1674   -7.4527 C   0  0  0  0  0  0  0  0  0  0  0  0
  -20.3167  -44.9843   -6.9202 C   0  0  0  0  0  0  0  0  0  0  0  0
  -18.2955  -46.3949   -7.2433 C   0  0  0  0  0  0  0  0  0  0  0  0
  -17.4328  -46.8624   -8.1613 N   0  0  0  0  0  0  0  0  0  0  0  0
  -16.9000  -47.9720   -7.6753 C   0  0  0  0  0  0  0  0  0  0  0  0
  -17.4711  -48.1550   -6.4357 C   0  0  0  0  0  0  0  0  0  0  0  0
  -18.3121  -47.1830   -6.2036 O   0  0  0  0  0  0  0  0  0  0  0  0
  -18.4884  -42.0364   -9.2727 C   0  0  0  0  0  0  0  0  0  0  0  0
  -17.8421  -42.5779  -10.2950 O   0  0  0  0  0  0  0  0  0  0  0  0
  -18.2223  -40.6501   -9.2321 N   0  0  0  0  0  0  0  0  0  0  0  0
  -13.3841  -40.1005  -12.1500 C   0  0  0  0  0  0  0  0  0  0  0  0
  -13.2415  -39.8262  -13.4935 C   0  0  0  0  0  0  0  0  0  0  0  0
  -12.5229  -38.7153  -13.8451 C   0  0  0  0  0  0  0  0  0  0  0  0
  1  2  1  0
  2  3  1  0
  2  4  1  0
  4  5  2  0
  5  6  1  0
  6  7  1  0
  7  8  1  0
  8  9  1  0
  9 10  1  0
 10 11  1  1
 10 12  1  0
 12 13  1  1
 13 14  1  0
 14 15  1  1
 14 16  1  0
 16 17  1  0
 17 18  1  0
 18 19  1  0
 19 20  1  0
 20 21  1  0
 21 22  1  0
 22 23  1  0
 23 24  1  0
 24 25  2  0
 25 26  1  0
 26 27  2  0
 27 28  1  0
 28 29  2  0
 28 30  1  0
 30 31  2  0
 31 32  1  0
 32 33  2  0
 33 34  1  0
 26 35  1  0
 35 36  2  0
 35 37  1  0
  6 38  2  0
 38 39  1  0
 39 40  2  0
 29 24  1  0
 34 30  1  0
 37 12  1  0
 40  4  1  0
M  END
$$$$
