
     RDKit          3D

 40 43  0  0  0  0  0  0  0  0999 V2000
  -10.2233  -37.1894  -12.8695 C   0  0  0  0  0  0  0  0  0  0  0  0
  -11.2653  -38.0819  -13.4802 C   0  0  0  0  0  0  0  0  0  0  0  0
  -11.9079  -37.4131  -14.7037 C   0  0  0  0  0  0  0  0  0  0  0  0
  -12.3180  -38.4992  -12.5410 C   0  0  0  0  0  0  0  0  0  0  0  0
  -12.0683  -39.2055  -11.3843 C   0  0  0  0  0  0  0  0  0  0  0  0
  -13.0790  -39.5805  -10.5137 C   0  0  0  0  0  0  0  0  0  0  0  0
  -12.8005  -40.3359   -9.2917 C   0  0  0  0  0  0  0  0  0  0  0  0
  -13.6935  -40.4298   -8.2564 N   0  0  0  0  0  0  0  0  0  0  0  0
  -15.0494  -40.6376   -8.2679 C   0  0  0  0  0  0  0  0  0  0  0  0
  -15.9930  -39.9558   -7.3809 C   0  0  1  0  0  0  0  0  0  0  0  0
  -15.5309  -38.7784   -6.8609 O   0  0  0  0  0  0  0  0  0  0  0  0
  -17.3440  -39.6589   -8.0128 C   0  0  2  0  0  0  0  0  0  0  0  0
  -18.4566  -39.6904   -7.0032 C   0  0  0  0  0  0  0  0  0  0  0  0
  -19.5966  -38.8432   -7.5718 C   0  0  2  0  0  0  0  0  0  0  0  0
  -19.2526  -37.3775   -7.5353 C   0  0  0  0  0  0  0  0  0  0  0  0
  -20.8206  -39.1313   -6.7241 C   0  0  0  0  0  0  0  0  0  0  0  0
  -22.0260  -38.3953   -7.2155 C   0  0  0  0  0  0  0  0  0  0  0  0
  -23.0064  -39.2764   -7.9185 C   0  0  0  0  0  0  0  0  0  0  0  0
  -23.4968  -40.3459   -6.9954 C   0  0  0  0  0  0  0  0  0  0  0  0
  -24.7348  -40.9675   -7.6159 C   0  0  0  0  0  0  0  0  0  0  0  0
  -24.6610  -42.4599   -7.4062 C   0  0  0  0  0  0  0  0  0  0  0  0
  -23.6882  -43.0965   -8.3857 C   0  0  0  0  0  0  0  0  0  0  0  0
  -22.4964  -43.3162   -7.7371 O   0  0  0  0  0  0  0  0  0  0  0  0
  -21.1470  -43.3205   -8.0296 C   0  0  0  0  0  0  0  0  0  0  0  0
  -20.3617  -42.3201   -8.5934 C   0  0  0  0  0  0  0  0  0  0  0  0
  -19.0320  -42.5808   -8.7827 C   0  0  0  0  0  0  0  0  0  0  0  0
  -18.4978  -43.8465   -8.4040 C   0  0  0  0  0  0  0  0  0  0  0  0
  -19.2449  -44.8454   -7.8471 C   0  0  0  0  0  0  0  0  0  0  0  0
  -20.5699  -44.5627   -7.6672 C   0  0  0  0  0  0  0  0  0  0  0  0
  -18.6539  -46.1341   -7.4696 C   0  0  0  0  0  0  0  0  0  0  0  0
  -17.3626  -46.2545   -7.1182 N   0  0  0  0  0  0  0  0  0  0  0  0
  -17.1455  -47.5296   -6.8385 C   0  0  0  0  0  0  0  0  0  0  0  0
  -18.3486  -48.1703   -7.0335 C   0  0  0  0  0  0  0  0  0  0  0  0
  -19.2420  -47.2976   -7.4157 O   0  0  0  0  0  0  0  0  0  0  0  0
  -17.9451  -41.7634   -9.3530 C   0  0  0  0  0  0  0  0  0  0  0  0
  -17.0892  -42.3510  -10.1766 O   0  0  0  0  0  0  0  0  0  0  0  0
  -17.5925  -40.4042   -9.2032 N   0  0  0  0  0  0  0  0  0  0  0  0
  -14.3657  -39.2204  -10.8437 C   0  0  0  0  0  0  0  0  0  0  0  0
  -14.6640  -38.5142  -11.9895 C   0  0  0  0  0  0  0  0  0  0  0  0
  -13.6274  -38.1692  -12.8144 C   0  0  0  0  0  0  0  0  0  0  0  0
  1  2  1  0
  2  3  1  0
  2  4  1  0
  4  5  2  0
  5  6  1  0
  6  7  1  0
  7  8  1  0
  8  9  1  0
  9 10  1  0
 10 11  1  6
 10 12  1  0
 12 13  1  1
 13 14  1  0
 14 15  1  1
 14 16  1  0
 16 17  1  0
 17 18  1  0
 18 19  1  0
 19 20  1  0
 20 21  1  0
 21 22  1  0
 22 23  1  0
 23 24  1  0
 24 25  2  0
 25 26  1  0
 26 27  2  0
 27 28  1  0
 28 29  2  0
 28 30  1  0
 30 31  2  0
 31 32  1  0
 32 33  2  0
 33 34  1  0
 26 35  1  0
 35 36  2  0
 35 37  1  0
  6 38  2  0
 38 39  1  0
 39 40  2  0
 29 24  1  0
 34 30  1  0
 37 12  1  0
 40  4  1  0
M  END
$$$$
