
     RDKit          3D

 40 43  0  0  0  0  0  0  0  0999 V2000
  -22.3679  -39.2631   -3.2388 C   0  0  0  0  0  0  0  0  0  0  0  0
  -22.7022  -39.9875   -4.5111 C   0  0  0  0  0  0  0  0  0  0  0  0
  -22.2884  -41.4634   -4.4240 C   0  0  0  0  0  0  0  0  0  0  0  0
  -22.1102  -39.3831   -5.7147 C   0  0  0  0  0  0  0  0  0  0  0  0
  -20.9127  -38.7011   -5.7125 C   0  0  0  0  0  0  0  0  0  0  0  0
  -20.3749  -38.1470   -6.8630 C   0  0  0  0  0  0  0  0  0  0  0  0
  -19.1050  -37.4198   -6.8453 C   0  0  0  0  0  0  0  0  0  0  0  0
  -17.9181  -38.0056   -6.4903 N   0  0  0  0  0  0  0  0  0  0  0  0
  -16.8475  -38.3831   -7.2605 C   0  0  0  0  0  0  0  0  0  0  0  0
  -16.9572  -39.1587   -8.4967 C   0  0  1  0  0  0  0  0  0  0  0  0
  -16.6674  -38.4557   -9.6332 O   0  0  0  0  0  0  0  0  0  0  0  0
  -16.1016  -40.4157   -8.5254 C   0  0  2  0  0  0  0  0  0  0  0  0
  -16.3499  -41.2374   -9.7588 C   0  0  0  0  0  0  0  0  0  0  0  0
  -15.1020  -42.0941   -9.9805 C   0  0  2  0  0  0  0  0  0  0  0  0
  -13.9455  -41.2543  -10.4550 C   0  0  0  0  0  0  0  0  0  0  0  0
  -15.4682  -43.1412  -11.0147 C   0  0  0  0  0  0  0  0  0  0  0  0
  -14.3366  -44.0813  -11.2825 C   0  0  0  0  0  0  0  0  0  0  0  0
  -14.5375  -45.4311  -10.6744 C   0  0  0  0  0  0  0  0  0  0  0  0
  -15.7723  -46.0693  -11.2259 C   0  0  0  0  0  0  0  0  0  0  0  0
  -15.7320  -47.5456  -10.8752 C   0  0  0  0  0  0  0  0  0  0  0  0
  -17.1213  -47.9634  -10.4605 C   0  0  0  0  0  0  0  0  0  0  0  0
  -17.4259  -47.4995   -9.0451 C   0  0  0  0  0  0  0  0  0  0  0  0
  -18.1873  -46.3573   -9.1143 O   0  0  0  0  0  0  0  0  0  0  0  0
  -18.3593  -45.1863   -8.4032 C   0  0  0  0  0  0  0  0  0  0  0  0
  -17.4186  -44.2301   -8.0341 C   0  0  0  0  0  0  0  0  0  0  0  0
  -17.8534  -43.1468   -7.3205 C   0  0  0  0  0  0  0  0  0  0  0  0
  -19.2327  -43.0297   -6.9814 C   0  0  0  0  0  0  0  0  0  0  0  0
  -20.1775  -43.9518   -7.3321 C   0  0  0  0  0  0  0  0  0  0  0  0
  -19.7204  -45.0250   -8.0445 C   0  0  0  0  0  0  0  0  0  0  0  0
  -21.5885  -43.7913   -6.9639 C   0  0  0  0  0  0  0  0  0  0  0  0
  -22.2154  -44.6473   -6.1394 N   0  0  0  0  0  0  0  0  0  0  0  0
  -23.4644  -44.2294   -6.0099 C   0  0  0  0  0  0  0  0  0  0  0  0
  -23.5664  -43.0948   -6.7835 C   0  0  0  0  0  0  0  0  0  0  0  0
  -22.4132  -42.8563   -7.3485 O   0  0  0  0  0  0  0  0  0  0  0  0
  -17.1343  -41.9814   -6.7735 C   0  0  0  0  0  0  0  0  0  0  0  0
  -17.4437  -41.5752   -5.5507 O   0  0  0  0  0  0  0  0  0  0  0  0
  -16.1238  -41.1482   -7.3017 N   0  0  0  0  0  0  0  0  0  0  0  0
  -21.0849  -38.2999   -8.0320 C   0  0  0  0  0  0  0  0  0  0  0  0
  -22.2866  -38.9736   -8.0832 C   0  0  0  0  0  0  0  0  0  0  0  0
  -22.7724  -39.5014   -6.9172 C   0  0  0  0  0  0  0  0  0  0  0  0
  1  2  1  0
  2  3  1  0
  2  4  1  0
  4  5  2  0
  5  6  1  0
  6  7  1  0
  7  8  1  0
  8  9  1  0
  9 10  1  0
 10 11  1  6
 10 12  1  0
 12 13  1  6
 13 14  1  0
 14 15  1  6
 14 16  1  0
 16 17  1  0
 17 18  1  0
 18 19  1  0
 19 20  1  0
 20 21  1  0
 21 22  1  0
 22 23  1  0
 23 24  1  0
 24 25  2  0
 25 26  1  0
 26 27  2  0
 27 28  1  0
 28 29  2  0
 28 30  1  0
 30 31  2  0
 31 32  1  0
 32 33  2  0
 33 34  1  0
 26 35  1  0
 35 36  2  0
 35 37  1  0
  6 38  2  0
 38 39  1  0
 39 40  2  0
 29 24  1  0
 34 30  1  0
 37 12  1  0
 40  4  1  0
M  END
$$$$
