
     RDKit          3D

 40 43  0  0  0  0  0  0  0  0999 V2000
  -13.4519  -44.4946  -12.9047 C   0  0  0  0  0  0  0  0  0  0  0  0
  -12.4687  -43.3846  -12.6673 C   0  0  0  0  0  0  0  0  0  0  0  0
  -11.2847  -43.8755  -11.8220 C   0  0  0  0  0  0  0  0  0  0  0  0
  -13.0568  -42.1909  -12.0398 C   0  0  0  0  0  0  0  0  0  0  0  0
  -13.0649  -41.9734  -10.6790 C   0  0  0  0  0  0  0  0  0  0  0  0
  -13.6205  -40.8362  -10.1149 C   0  0  0  0  0  0  0  0  0  0  0  0
  -13.6279  -40.6207   -8.6675 C   0  0  0  0  0  0  0  0  0  0  0  0
  -14.0296  -39.4428   -8.0937 N   0  0  0  0  0  0  0  0  0  0  0  0
  -15.2635  -38.8441   -8.0630 C   0  0  0  0  0  0  0  0  0  0  0  0
  -16.4036  -39.3499   -7.2972 C   0  0  1  0  0  0  0  0  0  0  0  0
  -16.5396  -38.7976   -6.0537 O   0  0  0  0  0  0  0  0  0  0  0  0
  -17.7452  -39.1972   -7.9969 C   0  0  2  0  0  0  0  0  0  0  0  0
  -18.8978  -39.3996   -7.0541 C   0  0  0  0  0  0  0  0  0  0  0  0
  -20.1015  -38.6777   -7.6626 C   0  0  2  0  0  0  0  0  0  0  0  0
  -19.9434  -37.1833   -7.5644 C   0  0  0  0  0  0  0  0  0  0  0  0
  -21.3242  -39.1423   -6.8951 C   0  0  0  0  0  0  0  0  0  0  0  0
  -22.5832  -38.5414   -7.4335 C   0  0  0  0  0  0  0  0  0  0  0  0
  -23.4084  -39.5097   -8.2166 C   0  0  0  0  0  0  0  0  0  0  0  0
  -23.8118  -40.6629   -7.3543 C   0  0  0  0  0  0  0  0  0  0  0  0
  -24.9287  -41.4081   -8.0623 C   0  0  0  0  0  0  0  0  0  0  0  0
  -24.6825  -42.8869   -7.8915 C   0  0  0  0  0  0  0  0  0  0  0  0
  -23.5877  -43.3653   -8.8315 C   0  0  0  0  0  0  0  0  0  0  0  0
  -22.4143  -43.4614   -8.1222 O   0  0  0  0  0  0  0  0  0  0  0  0
  -21.0610  -43.2912   -8.3368 C   0  0  0  0  0  0  0  0  0  0  0  0
  -20.3762  -42.1833   -8.8257 C   0  0  0  0  0  0  0  0  0  0  0  0
  -19.0163  -42.2735   -8.9458 C   0  0  0  0  0  0  0  0  0  0  0  0
  -18.3509  -43.4775   -8.5735 C   0  0  0  0  0  0  0  0  0  0  0  0
  -18.9978  -44.5790   -8.0892 C   0  0  0  0  0  0  0  0  0  0  0  0
  -20.3552  -44.4660   -7.9776 C   0  0  0  0  0  0  0  0  0  0  0  0
  -18.2734  -45.7988   -7.7155 C   0  0  0  0  0  0  0  0  0  0  0  0
  -17.3878  -45.8249   -6.7053 N   0  0  0  0  0  0  0  0  0  0  0  0
  -16.9143  -47.0581   -6.6254 C   0  0  0  0  0  0  0  0  0  0  0  0
  -17.5447  -47.7710   -7.6207 C   0  0  0  0  0  0  0  0  0  0  0  0
  -18.3614  -46.9798   -8.2632 O   0  0  0  0  0  0  0  0  0  0  0  0
  -18.0096  -41.3103   -9.4292 C   0  0  0  0  0  0  0  0  0  0  0  0
  -17.0450  -41.7599  -10.2188 O   0  0  0  0  0  0  0  0  0  0  0  0
  -17.8359  -39.9245   -9.2205 N   0  0  0  0  0  0  0  0  0  0  0  0
  -14.1755  -39.9112  -10.9696 C   0  0  0  0  0  0  0  0  0  0  0  0
  -14.1909  -40.0853  -12.3370 C   0  0  0  0  0  0  0  0  0  0  0  0
  -13.6283  -41.2269  -12.8413 C   0  0  0  0  0  0  0  0  0  0  0  0
  1  2  1  0
  2  3  1  0
  2  4  1  0
  4  5  2  0
  5  6  1  0
  6  7  1  0
  7  8  1  0
  8  9  1  0
  9 10  1  0
 10 11  1  1
 10 12  1  0
 12 13  1  1
 13 14  1  0
 14 15  1  1
 14 16  1  0
 16 17  1  0
 17 18  1  0
 18 19  1  0
 19 20  1  0
 20 21  1  0
 21 22  1  0
 22 23  1  0
 23 24  1  0
 24 25  2  0
 25 26  1  0
 26 27  2  0
 27 28  1  0
 28 29  2  0
 28 30  1  0
 30 31  2  0
 31 32  1  0
 32 33  2  0
 33 34  1  0
 26 35  1  0
 35 36  2  0
 35 37  1  0
  6 38  2  0
 38 39  1  0
 39 40  2  0
 29 24  1  0
 34 30  1  0
 37 12  1  0
 40  4  1  0
M  END
$$$$
