
     RDKit          3D

 40 43  0  0  0  0  0  0  0  0999 V2000
   -9.1750  -42.7110  -11.6792 C   0  0  0  0  0  0  0  0  0  0  0  0
   -9.5667  -41.6501  -10.6912 C   0  0  0  0  0  0  0  0  0  0  0  0
   -8.6078  -41.6399   -9.4922 C   0  0  0  0  0  0  0  0  0  0  0  0
  -10.9519  -41.7659  -10.2094 C   0  0  0  0  0  0  0  0  0  0  0  0
  -11.9106  -40.7968  -10.4116 C   0  0  0  0  0  0  0  0  0  0  0  0
  -13.2105  -40.9349   -9.9520 C   0  0  0  0  0  0  0  0  0  0  0  0
  -14.2172  -39.8950  -10.1683 C   0  0  0  0  0  0  0  0  0  0  0  0
  -14.7720  -39.1733   -9.1438 N   0  0  0  0  0  0  0  0  0  0  0  0
  -14.9267  -39.4869   -7.8173 C   0  0  0  0  0  0  0  0  0  0  0  0
  -16.1723  -39.3079   -7.0703 C   0  0  1  0  0  0  0  0  0  0  0  0
  -16.1552  -38.2677   -6.1827 O   0  0  0  0  0  0  0  0  0  0  0  0
  -17.4046  -39.1234   -7.9422 C   0  0  2  0  0  0  0  0  0  0  0  0
  -18.5263  -38.4562   -7.1974 C   0  0  0  0  0  0  0  0  0  0  0  0
  -19.4329  -37.8091   -8.2461 C   0  0  2  0  0  0  0  0  0  0  0  0
  -18.7743  -36.6026   -8.8613 C   0  0  0  0  0  0  0  0  0  0  0  0
  -20.7151  -37.4202   -7.5358 C   0  0  0  0  0  0  0  0  0  0  0  0
  -21.7125  -36.8183   -8.4735 C   0  0  0  0  0  0  0  0  0  0  0  0
  -22.8421  -37.7396   -8.8005 C   0  0  0  0  0  0  0  0  0  0  0  0
  -23.5845  -38.1112   -7.5567 C   0  0  0  0  0  0  0  0  0  0  0  0
  -24.9102  -38.7247   -7.9691 C   0  0  0  0  0  0  0  0  0  0  0  0
  -25.1749  -39.9077   -7.0707 C   0  0  0  0  0  0  0  0  0  0  0  0
  -24.3382  -41.1050   -7.4922 C   0  0  0  0  0  0  0  0  0  0  0  0
  -23.2446  -41.1870   -6.6636 O   0  0  0  0  0  0  0  0  0  0  0  0
  -21.9215  -41.5752   -6.7353 C   0  0  0  0  0  0  0  0  0  0  0  0
  -20.9178  -41.1389   -7.5940 C   0  0  0  0  0  0  0  0  0  0  0  0
  -19.6737  -41.6916   -7.4573 C   0  0  0  0  0  0  0  0  0  0  0  0
  -19.4445  -42.6807   -6.4572 C   0  0  0  0  0  0  0  0  0  0  0  0
  -20.4105  -43.1259   -5.6000 C   0  0  0  0  0  0  0  0  0  0  0  0
  -21.6448  -42.5598   -5.7548 C   0  0  0  0  0  0  0  0  0  0  0  0
  -20.1310  -44.1452   -4.5825 C   0  0  0  0  0  0  0  0  0  0  0  0
  -19.1693  -43.9889   -3.6573 N   0  0  0  0  0  0  0  0  0  0  0  0
  -19.1711  -45.0723   -2.8973 C   0  0  0  0  0  0  0  0  0  0  0  0
  -20.1653  -45.8837   -3.3967 C   0  0  0  0  0  0  0  0  0  0  0  0
  -20.7276  -45.2938   -4.4173 O   0  0  0  0  0  0  0  0  0  0  0  0
  -18.4163  -41.4685   -8.1947 C   0  0  0  0  0  0  0  0  0  0  0  0
  -17.6874  -42.5266   -8.5192 O   0  0  0  0  0  0  0  0  0  0  0  0
  -17.7762  -40.2988   -8.6597 N   0  0  0  0  0  0  0  0  0  0  0  0
  -13.5236  -42.0908   -9.2738 C   0  0  0  0  0  0  0  0  0  0  0  0
  -12.5986  -43.0876   -9.0475 C   0  0  0  0  0  0  0  0  0  0  0  0
  -11.3287  -42.8997   -9.5232 C   0  0  0  0  0  0  0  0  0  0  0  0
  1  2  1  0
  2  3  1  0
  2  4  1  0
  4  5  2  0
  5  6  1  0
  6  7  1  0
  7  8  1  0
  8  9  1  0
  9 10  1  0
 10 11  1  1
 10 12  1  0
 12 13  1  1
 13 14  1  0
 14 15  1  1
 14 16  1  0
 16 17  1  0
 17 18  1  0
 18 19  1  0
 19 20  1  0
 20 21  1  0
 21 22  1  0
 22 23  1  0
 23 24  1  0
 24 25  2  0
 25 26  1  0
 26 27  2  0
 27 28  1  0
 28 29  2  0
 28 30  1  0
 30 31  2  0
 31 32  1  0
 32 33  2  0
 33 34  1  0
 26 35  1  0
 35 36  2  0
 35 37  1  0
  6 38  2  0
 38 39  1  0
 39 40  2  0
 29 24  1  0
 34 30  1  0
 37 12  1  0
 40  4  1  0
M  END
$$$$
