
     RDKit          3D

 40 43  0  0  0  0  0  0  0  0999 V2000
  -16.1285  -35.6049  -14.6836 C   0  0  0  0  0  0  0  0  0  0  0  0
  -16.9787  -36.2569  -13.6315 C   0  0  0  0  0  0  0  0  0  0  0  0
  -18.4386  -35.7956  -13.7460 C   0  0  0  0  0  0  0  0  0  0  0  0
  -16.5016  -36.0356  -12.2575 C   0  0  0  0  0  0  0  0  0  0  0  0
  -15.5945  -36.8587  -11.6259 C   0  0  0  0  0  0  0  0  0  0  0  0
  -15.1573  -36.6229  -10.3324 C   0  0  0  0  0  0  0  0  0  0  0  0
  -14.1982  -37.5087   -9.6713 C   0  0  0  0  0  0  0  0  0  0  0  0
  -14.5661  -38.4263   -8.7222 N   0  0  0  0  0  0  0  0  0  0  0  0
  -15.7995  -38.7152   -8.1959 C   0  0  0  0  0  0  0  0  0  0  0  0
  -16.0985  -39.9150   -7.4129 C   0  0  1  0  0  0  0  0  0  0  0  0
  -15.1719  -40.2082   -6.4509 O   0  0  0  0  0  0  0  0  0  0  0  0
  -17.4553  -39.8929   -6.7264 C   0  0  2  0  0  0  0  0  0  0  0  0
  -18.2666  -41.1173   -7.0438 C   0  0  0  0  0  0  0  0  0  0  0  0
  -19.2815  -41.2837   -5.9113 C   0  0  2  0  0  0  0  0  0  0  0  0
  -18.6084  -41.7384   -4.6432 C   0  0  0  0  0  0  0  0  0  0  0  0
  -20.2966  -42.3081   -6.3804 C   0  0  0  0  0  0  0  0  0  0  0  0
  -21.3802  -42.5226   -5.3725 C   0  0  0  0  0  0  0  0  0  0  0  0
  -22.6785  -41.8949   -5.7630 C   0  0  0  0  0  0  0  0  0  0  0  0
  -23.1655  -42.4718   -7.0539 C   0  0  0  0  0  0  0  0  0  0  0  0
  -24.6262  -42.0915   -7.2144 C   0  0  0  0  0  0  0  0  0  0  0  0
  -24.8523  -41.7118   -8.6571 C   0  0  0  0  0  0  0  0  0  0  0  0
  -24.3204  -40.3158   -8.9389 C   0  0  0  0  0  0  0  0  0  0  0  0
  -23.0917  -40.4306   -9.5443 O   0  0  0  0  0  0  0  0  0  0  0  0
  -21.8921  -39.7480   -9.5836 C   0  0  0  0  0  0  0  0  0  0  0  0
  -21.0565  -39.3687   -8.5380 C   0  0  0  0  0  0  0  0  0  0  0  0
  -19.9100  -38.6900   -8.8493 C   0  0  0  0  0  0  0  0  0  0  0  0
  -19.6088  -38.3959  -10.2108 C   0  0  0  0  0  0  0  0  0  0  0  0
  -20.4098  -38.7577  -11.2565 C   0  0  0  0  0  0  0  0  0  0  0  0
  -21.5491  -39.4347  -10.9220 C   0  0  0  0  0  0  0  0  0  0  0  0
  -20.0609  -38.4364  -12.6448 C   0  0  0  0  0  0  0  0  0  0  0  0
  -20.5542  -39.1280  -13.6858 N   0  0  0  0  0  0  0  0  0  0  0  0
  -20.0526  -38.5954  -14.7886 C   0  0  0  0  0  0  0  0  0  0  0  0
  -19.2423  -37.5616  -14.3753 C   0  0  0  0  0  0  0  0  0  0  0  0
  -19.2685  -37.4916  -13.0713 O   0  0  0  0  0  0  0  0  0  0  0  0
  -18.8342  -38.1438   -8.0013 C   0  0  0  0  0  0  0  0  0  0  0  0
  -18.3634  -36.9391   -8.2899 O   0  0  0  0  0  0  0  0  0  0  0  0
  -18.1503  -38.6566   -6.8773 N   0  0  0  0  0  0  0  0  0  0  0  0
  -15.6649  -35.5209   -9.6827 C   0  0  0  0  0  0  0  0  0  0  0  0
  -16.5740  -34.6693  -10.2735 C   0  0  0  0  0  0  0  0  0  0  0  0
  -16.9722  -34.9490  -11.5530 C   0  0  0  0  0  0  0  0  0  0  0  0
  1  2  1  0
  2  3  1  0
  2  4  1  0
  4  5  2  0
  5  6  1  0
  6  7  1  0
  7  8  1  0
  8  9  1  0
  9 10  1  0
 10 11  1  1
 10 12  1  0
 12 13  1  6
 13 14  1  0
 14 15  1  1
 14 16  1  0
 16 17  1  0
 17 18  1  0
 18 19  1  0
 19 20  1  0
 20 21  1  0
 21 22  1  0
 22 23  1  0
 23 24  1  0
 24 25  2  0
 25 26  1  0
 26 27  2  0
 27 28  1  0
 28 29  2  0
 28 30  1  0
 30 31  2  0
 31 32  1  0
 32 33  2  0
 33 34  1  0
 26 35  1  0
 35 36  2  0
 35 37  1  0
  6 38  2  0
 38 39  1  0
 39 40  2  0
 29 24  1  0
 34 30  1  0
 37 12  1  0
 40  4  1  0
M  END
$$$$
