
     RDKit          3D

 40 43  0  0  0  0  0  0  0  0999 V2000
  -12.8212  -41.0532  -14.2623 C   0  0  0  0  0  0  0  0  0  0  0  0
  -12.7700  -41.3682  -12.7949 C   0  0  0  0  0  0  0  0  0  0  0  0
  -13.9317  -42.2881  -12.3931 C   0  0  0  0  0  0  0  0  0  0  0  0
  -12.7654  -40.1786  -11.9293 C   0  0  0  0  0  0  0  0  0  0  0  0
  -12.8615  -40.2375  -10.5558 C   0  0  0  0  0  0  0  0  0  0  0  0
  -12.8482  -39.1006   -9.7638 C   0  0  0  0  0  0  0  0  0  0  0  0
  -12.9574  -39.1772   -8.3065 C   0  0  0  0  0  0  0  0  0  0  0  0
  -13.7801  -40.0685   -7.6688 N   0  0  0  0  0  0  0  0  0  0  0  0
  -15.1430  -40.2152   -7.7215 C   0  0  0  0  0  0  0  0  0  0  0  0
  -16.0972  -39.1655   -7.3617 C   0  0  1  0  0  0  0  0  0  0  0  0
  -15.5782  -37.9004   -7.3752 O   0  0  0  0  0  0  0  0  0  0  0  0
  -17.3510  -39.1371   -8.2217 C   0  0  2  0  0  0  0  0  0  0  0  0
  -18.4794  -38.4085   -7.5478 C   0  0  0  0  0  0  0  0  0  0  0  0
  -19.4262  -37.9363   -8.6528 C   0  0  2  0  0  0  0  0  0  0  0  0
  -18.8186  -36.8052   -9.4399 C   0  0  0  0  0  0  0  0  0  0  0  0
  -20.7066  -37.4928   -7.9719 C   0  0  0  0  0  0  0  0  0  0  0  0
  -21.7404  -37.0529   -8.9587 C   0  0  0  0  0  0  0  0  0  0  0  0
  -22.8458  -38.0429   -9.1325 C   0  0  0  0  0  0  0  0  0  0  0  0
  -23.5520  -38.2645   -7.8331 C   0  0  0  0  0  0  0  0  0  0  0  0
  -24.8648  -38.9669   -8.1283 C   0  0  0  0  0  0  0  0  0  0  0  0
  -25.0740  -40.0248   -7.0730 C   0  0  0  0  0  0  0  0  0  0  0  0
  -24.2073  -41.2429   -7.3486 C   0  0  0  0  0  0  0  0  0  0  0  0
  -23.0961  -41.1798   -6.5421 O   0  0  0  0  0  0  0  0  0  0  0  0
  -21.7627  -41.5350   -6.5914 C   0  0  0  0  0  0  0  0  0  0  0  0
  -20.7900  -41.1895   -7.5241 C   0  0  0  0  0  0  0  0  0  0  0  0
  -19.5264  -41.6818   -7.3430 C   0  0  0  0  0  0  0  0  0  0  0  0
  -19.2464  -42.5192   -6.2244 C   0  0  0  0  0  0  0  0  0  0  0  0
  -20.1811  -42.8726   -5.2930 C   0  0  0  0  0  0  0  0  0  0  0  0
  -21.4358  -42.3693   -5.4940 C   0  0  0  0  0  0  0  0  0  0  0  0
  -19.8496  -43.7362   -4.1542 C   0  0  0  0  0  0  0  0  0  0  0  0
  -20.2931  -43.4842   -2.9112 N   0  0  0  0  0  0  0  0  0  0  0  0
  -19.8242  -44.4378   -2.1224 C   0  0  0  0  0  0  0  0  0  0  0  0
  -19.0849  -45.2701   -2.9328 C   0  0  0  0  0  0  0  0  0  0  0  0
  -19.1197  -44.8177   -4.1576 O   0  0  0  0  0  0  0  0  0  0  0  0
  -18.2910  -41.5235   -8.1326 C   0  0  0  0  0  0  0  0  0  0  0  0
  -17.5346  -42.5939   -8.3285 O   0  0  0  0  0  0  0  0  0  0  0  0
  -17.6980  -40.4092   -8.7656 N   0  0  0  0  0  0  0  0  0  0  0  0
  -12.7341  -37.8859  -10.4007 C   0  0  0  0  0  0  0  0  0  0  0  0
  -12.6354  -37.7773  -11.7714 C   0  0  0  0  0  0  0  0  0  0  0  0
  -12.6536  -38.9323  -12.5060 C   0  0  0  0  0  0  0  0  0  0  0  0
  1  2  1  0
  2  3  1  0
  2  4  1  0
  4  5  2  0
  5  6  1  0
  6  7  1  0
  7  8  1  0
  8  9  1  0
  9 10  1  0
 10 11  1  6
 10 12  1  0
 12 13  1  1
 13 14  1  0
 14 15  1  1
 14 16  1  0
 16 17  1  0
 17 18  1  0
 18 19  1  0
 19 20  1  0
 20 21  1  0
 21 22  1  0
 22 23  1  0
 23 24  1  0
 24 25  2  0
 25 26  1  0
 26 27  2  0
 27 28  1  0
 28 29  2  0
 28 30  1  0
 30 31  2  0
 31 32  1  0
 32 33  2  0
 33 34  1  0
 26 35  1  0
 35 36  2  0
 35 37  1  0
  6 38  2  0
 38 39  1  0
 39 40  2  0
 29 24  1  0
 34 30  1  0
 37 12  1  0
 40  4  1  0
M  END
$$$$
