
     RDKit          3D

 40 43  0  0  0  0  0  0  0  0999 V2000
  -22.7573  -40.1277   -3.7147 C   0  0  0  0  0  0  0  0  0  0  0  0
  -22.6932  -40.9643   -4.9601 C   0  0  0  0  0  0  0  0  0  0  0  0
  -21.6083  -42.0437   -4.8375 C   0  0  0  0  0  0  0  0  0  0  0  0
  -22.4742  -40.1874   -6.1901 C   0  0  0  0  0  0  0  0  0  0  0  0
  -21.4183  -39.3188   -6.3627 C   0  0  0  0  0  0  0  0  0  0  0  0
  -21.2326  -38.6039   -7.5350 C   0  0  0  0  0  0  0  0  0  0  0  0
  -20.1101  -37.6800   -7.7027 C   0  0  0  0  0  0  0  0  0  0  0  0
  -19.0552  -37.6261   -6.8295 N   0  0  0  0  0  0  0  0  0  0  0  0
  -17.8837  -38.3395   -6.8055 C   0  0  0  0  0  0  0  0  0  0  0  0
  -17.1310  -38.7241   -8.0002 C   0  0  1  0  0  0  0  0  0  0  0  0
  -16.2200  -37.7941   -8.4187 O   0  0  0  0  0  0  0  0  0  0  0  0
  -16.3870  -40.0444   -7.8735 C   0  0  2  0  0  0  0  0  0  0  0  0
  -15.8615  -40.5235   -9.1973 C   0  0  0  0  0  0  0  0  0  0  0  0
  -14.6947  -41.4664   -8.8973 C   0  0  2  0  0  0  0  0  0  0  0  0
  -13.4950  -40.7029   -8.4013 C   0  0  0  0  0  0  0  0  0  0  0  0
  -14.3753  -42.1924  -10.1899 C   0  0  0  0  0  0  0  0  0  0  0  0
  -13.2751  -43.1896  -10.0131 C   0  0  0  0  0  0  0  0  0  0  0  0
  -13.7591  -44.6029  -10.0026 C   0  0  0  0  0  0  0  0  0  0  0  0
  -14.4367  -44.9283  -11.2953 C   0  0  0  0  0  0  0  0  0  0  0  0
  -14.5726  -46.4375  -11.3852 C   0  0  0  0  0  0  0  0  0  0  0  0
  -15.9375  -46.7491  -11.9476 C   0  0  0  0  0  0  0  0  0  0  0  0
  -17.0116  -46.5826  -10.8846 C   0  0  0  0  0  0  0  0  0  0  0  0
  -17.6198  -45.3633  -11.0655 O   0  0  0  0  0  0  0  0  0  0  0  0
  -18.1959  -44.3723  -10.2958 C   0  0  0  0  0  0  0  0  0  0  0  0
  -17.6608  -43.6596   -9.2276 C   0  0  0  0  0  0  0  0  0  0  0  0
  -18.4513  -42.7187   -8.6261 C   0  0  0  0  0  0  0  0  0  0  0  0
  -19.7766  -42.4985   -9.1018 C   0  0  0  0  0  0  0  0  0  0  0  0
  -20.3263  -43.1821  -10.1490 C   0  0  0  0  0  0  0  0  0  0  0  0
  -19.5186  -44.1164  -10.7343 C   0  0  0  0  0  0  0  0  0  0  0  0
  -21.6952  -42.9224  -10.6083 C   0  0  0  0  0  0  0  0  0  0  0  0
  -22.6638  -43.8508  -10.5342 N   0  0  0  0  0  0  0  0  0  0  0  0
  -23.7684  -43.3105  -11.0233 C   0  0  0  0  0  0  0  0  0  0  0  0
  -23.4311  -42.0277  -11.3932 C   0  0  0  0  0  0  0  0  0  0  0  0
  -22.1683  -41.8236  -11.1291 O   0  0  0  0  0  0  0  0  0  0  0  0
  -18.2044  -41.8149   -7.4874 C   0  0  0  0  0  0  0  0  0  0  0  0
  -19.1703  -41.6597   -6.5935 O   0  0  0  0  0  0  0  0  0  0  0  0
  -17.0930  -41.0262   -7.1172 N   0  0  0  0  0  0  0  0  0  0  0  0
  -22.1512  -38.7894   -8.5429 C   0  0  0  0  0  0  0  0  0  0  0  0
  -23.2231  -39.6471   -8.4162 C   0  0  0  0  0  0  0  0  0  0  0  0
  -23.3591  -40.3286   -7.2367 C   0  0  0  0  0  0  0  0  0  0  0  0
  1  2  1  0
  2  3  1  0
  2  4  1  0
  4  5  2  0
  5  6  1  0
  6  7  1  0
  7  8  1  0
  8  9  1  0
  9 10  1  0
 10 11  1  1
 10 12  1  0
 12 13  1  6
 13 14  1  0
 14 15  1  6
 14 16  1  0
 16 17  1  0
 17 18  1  0
 18 19  1  0
 19 20  1  0
 20 21  1  0
 21 22  1  0
 22 23  1  0
 23 24  1  0
 24 25  2  0
 25 26  1  0
 26 27  2  0
 27 28  1  0
 28 29  2  0
 28 30  1  0
 30 31  2  0
 31 32  1  0
 32 33  2  0
 33 34  1  0
 26 35  1  0
 35 36  2  0
 35 37  1  0
  6 38  2  0
 38 39  1  0
 39 40  2  0
 29 24  1  0
 34 30  1  0
 37 12  1  0
 40  4  1  0
M  END
$$$$
