
     RDKit          3D

 40 43  0  0  0  0  0  0  0  0999 V2000
  -21.1441  -34.3915  -11.2849 C   0  0  0  0  0  0  0  0  0  0  0  0
  -20.0300  -34.7829  -10.3570 C   0  0  0  0  0  0  0  0  0  0  0  0
  -18.6847  -34.8014  -11.0965 C   0  0  0  0  0  0  0  0  0  0  0  0
  -20.2383  -36.0759   -9.6869 C   0  0  0  0  0  0  0  0  0  0  0  0
  -19.5686  -36.4565   -8.5441 C   0  0  0  0  0  0  0  0  0  0  0  0
  -19.7892  -37.6787   -7.9298 C   0  0  0  0  0  0  0  0  0  0  0  0
  -19.0665  -38.0728   -6.7199 C   0  0  0  0  0  0  0  0  0  0  0  0
  -18.4198  -39.2750   -6.5990 N   0  0  0  0  0  0  0  0  0  0  0  0
  -17.1161  -39.5549   -6.2767 C   0  0  0  0  0  0  0  0  0  0  0  0
  -15.9775  -39.2958   -7.1589 C   0  0  1  0  0  0  0  0  0  0  0  0
  -15.1510  -38.2919   -6.7358 O   0  0  0  0  0  0  0  0  0  0  0  0
  -15.0993  -40.5094   -7.4210 C   0  0  2  0  0  0  0  0  0  0  0  0
  -14.7498  -40.6474   -8.8760 C   0  0  0  0  0  0  0  0  0  0  0  0
  -13.4647  -41.4743   -8.9476 C   0  0  2  0  0  0  0  0  0  0  0  0
  -12.2800  -40.6769   -8.4694 C   0  0  0  0  0  0  0  0  0  0  0  0
  -13.2888  -41.8849  -10.3969 C   0  0  0  0  0  0  0  0  0  0  0  0
  -12.0837  -42.7488  -10.5903 C   0  0  0  0  0  0  0  0  0  0  0  0
  -12.4215  -44.1865  -10.8160 C   0  0  0  0  0  0  0  0  0  0  0  0
  -13.2635  -44.3346  -12.0429 C   0  0  0  0  0  0  0  0  0  0  0  0
  -13.2662  -45.8013  -12.4339 C   0  0  0  0  0  0  0  0  0  0  0  0
  -14.6674  -46.1674  -12.8571 C   0  0  0  0  0  0  0  0  0  0  0  0
  -15.5676  -46.3518  -11.6460 C   0  0  0  0  0  0  0  0  0  0  0  0
  -16.3115  -45.2084  -11.4767 O   0  0  0  0  0  0  0  0  0  0  0  0
  -16.8490  -44.4701  -10.4412 C   0  0  0  0  0  0  0  0  0  0  0  0
  -16.2203  -43.9194   -9.3291 C   0  0  0  0  0  0  0  0  0  0  0  0
  -16.9907  -43.2239   -8.4376 C   0  0  0  0  0  0  0  0  0  0  0  0
  -18.3901  -43.0851   -8.6686 C   0  0  0  0  0  0  0  0  0  0  0  0
  -19.0326  -43.6135   -9.7521 C   0  0  0  0  0  0  0  0  0  0  0  0
  -18.2434  -44.3036  -10.6290 C   0  0  0  0  0  0  0  0  0  0  0  0
  -20.4762  -43.4451   -9.9528 C   0  0  0  0  0  0  0  0  0  0  0  0
  -21.1695  -42.4530   -9.3694 N   0  0  0  0  0  0  0  0  0  0  0  0
  -22.4318  -42.5766   -9.7471 C   0  0  0  0  0  0  0  0  0  0  0  0
  -22.4732  -43.6753  -10.5762 C   0  0  0  0  0  0  0  0  0  0  0  0
  -21.2726  -44.1791  -10.6803 O   0  0  0  0  0  0  0  0  0  0  0  0
  -16.6521  -42.5381   -7.1768 C   0  0  0  0  0  0  0  0  0  0  0  0
  -17.4722  -42.6863   -6.1464 O   0  0  0  0  0  0  0  0  0  0  0  0
  -15.5768  -41.7026   -6.8026 N   0  0  0  0  0  0  0  0  0  0  0  0
  -20.7148  -38.5193   -8.5049 C   0  0  0  0  0  0  0  0  0  0  0  0
  -21.4089  -38.1822   -9.6474 C   0  0  0  0  0  0  0  0  0  0  0  0
  -21.1523  -36.9624  -10.2134 C   0  0  0  0  0  0  0  0  0  0  0  0
  1  2  1  0
  2  3  1  0
  2  4  1  0
  4  5  2  0
  5  6  1  0
  6  7  1  0
  7  8  1  0
  8  9  1  0
  9 10  1  0
 10 11  1  1
 10 12  1  0
 12 13  1  6
 13 14  1  0
 14 15  1  6
 14 16  1  0
 16 17  1  0
 17 18  1  0
 18 19  1  0
 19 20  1  0
 20 21  1  0
 21 22  1  0
 22 23  1  0
 23 24  1  0
 24 25  2  0
 25 26  1  0
 26 27  2  0
 27 28  1  0
 28 29  2  0
 28 30  1  0
 30 31  2  0
 31 32  1  0
 32 33  2  0
 33 34  1  0
 26 35  1  0
 35 36  2  0
 35 37  1  0
  6 38  2  0
 38 39  1  0
 39 40  2  0
 29 24  1  0
 34 30  1  0
 37 12  1  0
 40  4  1  0
M  END
$$$$
