
     RDKit          3D

 40 43  0  0  0  0  0  0  0  0999 V2000
  -10.9378  -38.2594  -13.8982 C   0  0  0  0  0  0  0  0  0  0  0  0
  -11.7497  -37.0462  -13.5459 C   0  0  0  0  0  0  0  0  0  0  0  0
  -10.8532  -35.9335  -12.9846 C   0  0  0  0  0  0  0  0  0  0  0  0
  -12.8454  -37.3153  -12.6016 C   0  0  0  0  0  0  0  0  0  0  0  0
  -12.6559  -37.8760  -11.3571 C   0  0  0  0  0  0  0  0  0  0  0  0
  -13.7060  -38.1128  -10.4847 C   0  0  0  0  0  0  0  0  0  0  0  0
  -13.4914  -38.7147   -9.1682 C   0  0  0  0  0  0  0  0  0  0  0  0
  -14.1381  -39.8504   -8.7560 N   0  0  0  0  0  0  0  0  0  0  0  0
  -15.4787  -40.1256   -8.6616 C   0  0  0  0  0  0  0  0  0  0  0  0
  -16.2656  -39.9697   -7.4375 C   0  0  1  0  0  0  0  0  0  0  0  0
  -15.8224  -38.9820   -6.6020 O   0  0  0  0  0  0  0  0  0  0  0  0
  -17.7466  -39.7168   -7.6728 C   0  0  2  0  0  0  0  0  0  0  0  0
  -18.5434  -39.8174   -6.4028 C   0  0  0  0  0  0  0  0  0  0  0  0
  -19.8235  -39.0073   -6.6161 C   0  0  2  0  0  0  0  0  0  0  0  0
  -19.5341  -37.5294   -6.6261 C   0  0  0  0  0  0  0  0  0  0  0  0
  -20.7623  -39.3653   -5.4802 C   0  0  0  0  0  0  0  0  0  0  0  0
  -22.0807  -38.6707   -5.6052 C   0  0  0  0  0  0  0  0  0  0  0  0
  -23.1830  -39.5772   -6.0467 C   0  0  0  0  0  0  0  0  0  0  0  0
  -23.3682  -40.6862   -5.0608 C   0  0  0  0  0  0  0  0  0  0  0  0
  -24.7051  -41.3463   -5.3452 C   0  0  0  0  0  0  0  0  0  0  0  0
  -24.5251  -42.8384   -5.2113 C   0  0  0  0  0  0  0  0  0  0  0  0
  -23.8313  -43.4118   -6.4365 C   0  0  0  0  0  0  0  0  0  0  0  0
  -22.5017  -43.5947   -6.1398 O   0  0  0  0  0  0  0  0  0  0  0  0
  -21.2821  -43.5354   -6.7844 C   0  0  0  0  0  0  0  0  0  0  0  0
  -20.7138  -42.4905   -7.5060 C   0  0  0  0  0  0  0  0  0  0  0  0
  -19.4763  -42.6904   -8.0543 C   0  0  0  0  0  0  0  0  0  0  0  0
  -18.8157  -43.9402   -7.8743 C   0  0  0  0  0  0  0  0  0  0  0  0
  -19.3491  -44.9817   -7.1695 C   0  0  0  0  0  0  0  0  0  0  0  0
  -20.5854  -44.7594   -6.6308 C   0  0  0  0  0  0  0  0  0  0  0  0
  -18.6334  -46.2520   -7.0067 C   0  0  0  0  0  0  0  0  0  0  0  0
  -19.1265  -47.2628   -6.2713 N   0  0  0  0  0  0  0  0  0  0  0  0
  -18.2519  -48.2546   -6.3245 C   0  0  0  0  0  0  0  0  0  0  0  0
  -17.2180  -47.8059   -7.1157 C   0  0  0  0  0  0  0  0  0  0  0  0
  -17.4792  -46.5894   -7.5130 O   0  0  0  0  0  0  0  0  0  0  0  0
  -18.6132  -41.8155   -8.8692 C   0  0  0  0  0  0  0  0  0  0  0  0
  -17.9914  -42.3482   -9.9112 O   0  0  0  0  0  0  0  0  0  0  0  0
  -18.2810  -40.4461   -8.7760 N   0  0  0  0  0  0  0  0  0  0  0  0
  -14.9697  -37.7653  -10.9049 C   0  0  0  0  0  0  0  0  0  0  0  0
  -15.2081  -37.2022  -12.1404 C   0  0  0  0  0  0  0  0  0  0  0  0
  -14.1345  -36.9899  -12.9629 C   0  0  0  0  0  0  0  0  0  0  0  0
  1  2  1  0
  2  3  1  0
  2  4  1  0
  4  5  2  0
  5  6  1  0
  6  7  1  0
  7  8  1  0
  8  9  1  0
  9 10  1  0
 10 11  1  6
 10 12  1  0
 12 13  1  1
 13 14  1  0
 14 15  1  1
 14 16  1  0
 16 17  1  0
 17 18  1  0
 18 19  1  0
 19 20  1  0
 20 21  1  0
 21 22  1  0
 22 23  1  0
 23 24  1  0
 24 25  2  0
 25 26  1  0
 26 27  2  0
 27 28  1  0
 28 29  2  0
 28 30  1  0
 30 31  2  0
 31 32  1  0
 32 33  2  0
 33 34  1  0
 26 35  1  0
 35 36  2  0
 35 37  1  0
  6 38  2  0
 38 39  1  0
 39 40  2  0
 29 24  1  0
 34 30  1  0
 37 12  1  0
 40  4  1  0
M  END
$$$$
