
     RDKit          3D

 40 43  0  0  0  0  0  0  0  0999 V2000
  -11.6860  -34.8949  -10.9600 C   0  0  0  0  0  0  0  0  0  0  0  0
  -12.9280  -35.4601  -11.5870 C   0  0  0  0  0  0  0  0  0  0  0  0
  -14.1857  -34.8337  -10.9681 C   0  0  0  0  0  0  0  0  0  0  0  0
  -13.0217  -36.9262  -11.5084 C   0  0  0  0  0  0  0  0  0  0  0  0
  -12.9520  -37.6301  -10.3257 C   0  0  0  0  0  0  0  0  0  0  0  0
  -13.0497  -39.0115  -10.2801 C   0  0  0  0  0  0  0  0  0  0  0  0
  -12.9677  -39.7470   -9.0176 C   0  0  0  0  0  0  0  0  0  0  0  0
  -13.9855  -40.5369   -8.5504 N   0  0  0  0  0  0  0  0  0  0  0  0
  -15.3445  -40.3548   -8.5950 C   0  0  0  0  0  0  0  0  0  0  0  0
  -16.1476  -39.8807   -7.4672 C   0  0  1  0  0  0  0  0  0  0  0  0
  -15.6500  -38.7686   -6.8462 O   0  0  0  0  0  0  0  0  0  0  0  0
  -17.5979  -39.5810   -7.8132 C   0  0  2  0  0  0  0  0  0  0  0  0
  -18.5255  -39.8996   -6.6747 C   0  0  0  0  0  0  0  0  0  0  0  0
  -19.7857  -39.0566   -6.8791 C   0  0  2  0  0  0  0  0  0  0  0  0
  -19.5161  -37.6021   -6.5967 C   0  0  0  0  0  0  0  0  0  0  0  0
  -20.8365  -39.6041   -5.9326 C   0  0  0  0  0  0  0  0  0  0  0  0
  -22.1427  -38.8901   -6.0751 C   0  0  0  0  0  0  0  0  0  0  0  0
  -23.1792  -39.6975   -6.7863 C   0  0  0  0  0  0  0  0  0  0  0  0
  -23.4548  -40.9622   -6.0376 C   0  0  0  0  0  0  0  0  0  0  0  0
  -24.7447  -41.5533   -6.5770 C   0  0  0  0  0  0  0  0  0  0  0  0
  -24.5606  -43.0466   -6.6899 C   0  0  0  0  0  0  0  0  0  0  0  0
  -23.7314  -43.3986   -7.9146 C   0  0  0  0  0  0  0  0  0  0  0  0
  -22.4392  -43.6394   -7.5126 O   0  0  0  0  0  0  0  0  0  0  0  0
  -21.1582  -43.4745   -8.0007 C   0  0  0  0  0  0  0  0  0  0  0  0
  -20.5293  -42.3221   -8.4607 C   0  0  0  0  0  0  0  0  0  0  0  0
  -19.2374  -42.4295   -8.8984 C   0  0  0  0  0  0  0  0  0  0  0  0
  -18.5837  -43.6955   -8.8713 C   0  0  0  0  0  0  0  0  0  0  0  0
  -19.1763  -44.8419   -8.4234 C   0  0  0  0  0  0  0  0  0  0  0  0
  -20.4662  -44.7107   -7.9910 C   0  0  0  0  0  0  0  0  0  0  0  0
  -18.4657  -46.1254   -8.4108 C   0  0  0  0  0  0  0  0  0  0  0  0
  -18.5125  -46.9597   -7.3585 N   0  0  0  0  0  0  0  0  0  0  0  0
  -17.7758  -48.0173   -7.6586 C   0  0  0  0  0  0  0  0  0  0  0  0
  -17.2855  -47.7904   -8.9252 C   0  0  0  0  0  0  0  0  0  0  0  0
  -17.7213  -46.6358   -9.3530 O   0  0  0  0  0  0  0  0  0  0  0  0
  -18.3030  -41.4296   -9.4478 C   0  0  0  0  0  0  0  0  0  0  0  0
  -17.5658  -41.7735  -10.4939 O   0  0  0  0  0  0  0  0  0  0  0  0
  -18.0008  -40.1003   -9.0790 N   0  0  0  0  0  0  0  0  0  0  0  0
  -13.2216  -39.6745  -11.4738 C   0  0  0  0  0  0  0  0  0  0  0  0
  -13.2970  -39.0135  -12.6813 C   0  0  0  0  0  0  0  0  0  0  0  0
  -13.1946  -37.6484  -12.6690 C   0  0  0  0  0  0  0  0  0  0  0  0
  1  2  1  0
  2  3  1  0
  2  4  1  0
  4  5  2  0
  5  6  1  0
  6  7  1  0
  7  8  1  0
  8  9  1  0
  9 10  1  0
 10 11  1  6
 10 12  1  0
 12 13  1  1
 13 14  1  0
 14 15  1  1
 14 16  1  0
 16 17  1  0
 17 18  1  0
 18 19  1  0
 19 20  1  0
 20 21  1  0
 21 22  1  0
 22 23  1  0
 23 24  1  0
 24 25  2  0
 25 26  1  0
 26 27  2  0
 27 28  1  0
 28 29  2  0
 28 30  1  0
 30 31  2  0
 31 32  1  0
 32 33  2  0
 33 34  1  0
 26 35  1  0
 35 36  2  0
 35 37  1  0
  6 38  2  0
 38 39  1  0
 39 40  2  0
 29 24  1  0
 34 30  1  0
 37 12  1  0
 40  4  1  0
M  END
$$$$
