
     RDKit          3D

 40 43  0  0  0  0  0  0  0  0999 V2000
  -24.8819  -42.1446   -5.2842 C   0  0  0  0  0  0  0  0  0  0  0  0
  -23.9869  -41.2031   -4.5308 C   0  0  0  0  0  0  0  0  0  0  0  0
  -24.8109  -40.2575   -3.6454 C   0  0  0  0  0  0  0  0  0  0  0  0
  -23.0927  -40.4131   -5.3915 C   0  0  0  0  0  0  0  0  0  0  0  0
  -21.7330  -40.3161   -5.1892 C   0  0  0  0  0  0  0  0  0  0  0  0
  -20.9129  -39.5694   -6.0198 C   0  0  0  0  0  0  0  0  0  0  0  0
  -19.4711  -39.4699   -5.7899 C   0  0  0  0  0  0  0  0  0  0  0  0
  -18.5456  -39.6581   -6.7829 N   0  0  0  0  0  0  0  0  0  0  0  0
  -17.4955  -38.8700   -7.1805 C   0  0  0  0  0  0  0  0  0  0  0  0
  -17.1873  -38.5541   -8.5759 C   0  0  1  0  0  0  0  0  0  0  0  0
  -17.7799  -37.4133   -9.0420 O   0  0  0  0  0  0  0  0  0  0  0  0
  -15.7016  -38.4343   -8.8775 C   0  0  2  0  0  0  0  0  0  0  0  0
  -15.4414  -38.1940  -10.3379 C   0  0  0  0  0  0  0  0  0  0  0  0
  -14.0683  -37.5273  -10.4407 C   0  0  2  0  0  0  0  0  0  0  0  0
  -14.1183  -36.1053   -9.9473 C   0  0  0  0  0  0  0  0  0  0  0  0
  -13.6660  -37.5772  -11.9021 C   0  0  0  0  0  0  0  0  0  0  0  0
  -12.3063  -36.9969  -12.1272 C   0  0  0  0  0  0  0  0  0  0  0  0
  -11.2620  -38.0321  -12.3914 C   0  0  0  0  0  0  0  0  0  0  0  0
  -11.6079  -38.8162  -13.6168 C   0  0  0  0  0  0  0  0  0  0  0  0
  -10.3688  -39.5788  -14.0492 C   0  0  0  0  0  0  0  0  0  0  0  0
  -10.7981  -40.9615  -14.4741 C   0  0  0  0  0  0  0  0  0  0  0  0
  -11.0768  -41.8375  -13.2633 C   0  0  0  0  0  0  0  0  0  0  0  0
  -12.4352  -41.8783  -13.0571 O   0  0  0  0  0  0  0  0  0  0  0  0
  -13.3169  -41.9624  -11.9979 C   0  0  0  0  0  0  0  0  0  0  0  0
  -13.4287  -41.1495  -10.8745 C   0  0  0  0  0  0  0  0  0  0  0  0
  -14.3991  -41.4532   -9.9590 C   0  0  0  0  0  0  0  0  0  0  0  0
  -15.2530  -42.5731  -10.1775 C   0  0  0  0  0  0  0  0  0  0  0  0
  -15.1666  -43.3864  -11.2717 C   0  0  0  0  0  0  0  0  0  0  0  0
  -14.1906  -43.0639  -12.1725 C   0  0  0  0  0  0  0  0  0  0  0  0
  -16.0679  -44.5288  -11.4588 C   0  0  0  0  0  0  0  0  0  0  0  0
  -16.4772  -45.2937  -10.4328 N   0  0  0  0  0  0  0  0  0  0  0  0
  -17.2725  -46.2283  -10.9282 C   0  0  0  0  0  0  0  0  0  0  0  0
  -17.3270  -45.9991  -12.2849 C   0  0  0  0  0  0  0  0  0  0  0  0
  -16.5864  -44.9630  -12.5746 O   0  0  0  0  0  0  0  0  0  0  0  0
  -14.7733  -40.8190   -8.6814 C   0  0  0  0  0  0  0  0  0  0  0  0
  -15.0461  -41.6060   -7.6507 O   0  0  0  0  0  0  0  0  0  0  0  0
  -14.9155  -39.4695   -8.2902 N   0  0  0  0  0  0  0  0  0  0  0  0
  -21.5068  -38.9137   -7.0741 C   0  0  0  0  0  0  0  0  0  0  0  0
  -22.8624  -38.9810   -7.3162 C   0  0  0  0  0  0  0  0  0  0  0  0
  -23.6261  -39.7329   -6.4645 C   0  0  0  0  0  0  0  0  0  0  0  0
  1  2  1  0
  2  3  1  0
  2  4  1  0
  4  5  2  0
  5  6  1  0
  6  7  1  0
  7  8  1  0
  8  9  1  0
  9 10  1  0
 10 11  1  1
 10 12  1  0
 12 13  1  6
 13 14  1  0
 14 15  1  6
 14 16  1  0
 16 17  1  0
 17 18  1  0
 18 19  1  0
 19 20  1  0
 20 21  1  0
 21 22  1  0
 22 23  1  0
 23 24  1  0
 24 25  2  0
 25 26  1  0
 26 27  2  0
 27 28  1  0
 28 29  2  0
 28 30  1  0
 30 31  2  0
 31 32  1  0
 32 33  2  0
 33 34  1  0
 26 35  1  0
 35 36  2  0
 35 37  1  0
  6 38  2  0
 38 39  1  0
 39 40  2  0
 29 24  1  0
 34 30  1  0
 37 12  1  0
 40  4  1  0
M  END
$$$$
