
     RDKit          3D

 40 43  0  0  0  0  0  0  0  0999 V2000
  -14.2121  -34.0514  -12.3384 C   0  0  0  0  0  0  0  0  0  0  0  0
  -13.2431  -35.0722  -11.8148 C   0  0  0  0  0  0  0  0  0  0  0  0
  -11.8236  -34.7911  -12.3277 C   0  0  0  0  0  0  0  0  0  0  0  0
  -13.6116  -36.4611  -12.1300 C   0  0  0  0  0  0  0  0  0  0  0  0
  -13.4311  -37.5123  -11.2573 C   0  0  0  0  0  0  0  0  0  0  0  0
  -13.7934  -38.8107  -11.5780 C   0  0  0  0  0  0  0  0  0  0  0  0
  -13.5904  -39.9188  -10.6440 C   0  0  0  0  0  0  0  0  0  0  0  0
  -14.4665  -40.2058   -9.6300 N   0  0  0  0  0  0  0  0  0  0  0  0
  -15.2465  -39.3745   -8.8669 C   0  0  0  0  0  0  0  0  0  0  0  0
  -16.1676  -39.8365   -7.8277 C   0  0  1  0  0  0  0  0  0  0  0  0
  -15.9595  -39.2765   -6.5976 O   0  0  0  0  0  0  0  0  0  0  0  0
  -17.6381  -39.6368   -8.1602 C   0  0  2  0  0  0  0  0  0  0  0  0
  -18.5078  -39.7188   -6.9374 C   0  0  0  0  0  0  0  0  0  0  0  0
  -19.7949  -38.9556   -7.2556 C   0  0  2  0  0  0  0  0  0  0  0  0
  -19.5473  -37.4708   -7.3004 C   0  0  0  0  0  0  0  0  0  0  0  0
  -20.7906  -39.3037   -6.1661 C   0  0  0  0  0  0  0  0  0  0  0  0
  -22.1180  -38.6540   -6.3944 C   0  0  0  0  0  0  0  0  0  0  0  0
  -23.1653  -39.6079   -6.8688 C   0  0  0  0  0  0  0  0  0  0  0  0
  -23.3788  -40.6884   -5.8572 C   0  0  0  0  0  0  0  0  0  0  0  0
  -24.6767  -41.3979   -6.1977 C   0  0  0  0  0  0  0  0  0  0  0  0
  -24.4631  -42.8785   -6.0007 C   0  0  0  0  0  0  0  0  0  0  0  0
  -23.6798  -43.4713   -7.1611 C   0  0  0  0  0  0  0  0  0  0  0  0
  -22.3661  -43.6037   -6.7789 O   0  0  0  0  0  0  0  0  0  0  0  0
  -21.1117  -43.5290   -7.3509 C   0  0  0  0  0  0  0  0  0  0  0  0
  -20.5303  -42.4922   -8.0736 C   0  0  0  0  0  0  0  0  0  0  0  0
  -19.2566  -42.6726   -8.5394 C   0  0  0  0  0  0  0  0  0  0  0  0
  -18.5730  -43.8951   -8.2760 C   0  0  0  0  0  0  0  0  0  0  0  0
  -19.1187  -44.9281   -7.5681 C   0  0  0  0  0  0  0  0  0  0  0  0
  -20.3913  -44.7255   -7.1127 C   0  0  0  0  0  0  0  0  0  0  0  0
  -18.3786  -46.1699   -7.3179 C   0  0  0  0  0  0  0  0  0  0  0  0
  -17.0994  -46.1708   -6.9069 N   0  0  0  0  0  0  0  0  0  0  0  0
  -16.7269  -47.4338   -6.7744 C   0  0  0  0  0  0  0  0  0  0  0  0
  -17.8244  -48.1905   -7.1194 C   0  0  0  0  0  0  0  0  0  0  0  0
  -18.8084  -47.3953   -7.4439 O   0  0  0  0  0  0  0  0  0  0  0  0
  -18.3704  -41.7997   -9.3315 C   0  0  0  0  0  0  0  0  0  0  0  0
  -17.6714  -42.3480  -10.3148 O   0  0  0  0  0  0  0  0  0  0  0  0
  -18.0834  -40.4185   -9.2669 N   0  0  0  0  0  0  0  0  0  0  0  0
  -14.3499  -39.0254  -12.8183 C   0  0  0  0  0  0  0  0  0  0  0  0
  -14.5498  -38.0058  -13.7244 C   0  0  0  0  0  0  0  0  0  0  0  0
  -14.1737  -36.7421  -13.3562 C   0  0  0  0  0  0  0  0  0  0  0  0
  1  2  1  0
  2  3  1  0
  2  4  1  0
  4  5  2  0
  5  6  1  0
  6  7  1  0
  7  8  1  0
  8  9  1  0
  9 10  1  0
 10 11  1  1
 10 12  1  0
 12 13  1  1
 13 14  1  0
 14 15  1  1
 14 16  1  0
 16 17  1  0
 17 18  1  0
 18 19  1  0
 19 20  1  0
 20 21  1  0
 21 22  1  0
 22 23  1  0
 23 24  1  0
 24 25  2  0
 25 26  1  0
 26 27  2  0
 27 28  1  0
 28 29  2  0
 28 30  1  0
 30 31  2  0
 31 32  1  0
 32 33  2  0
 33 34  1  0
 26 35  1  0
 35 36  2  0
 35 37  1  0
  6 38  2  0
 38 39  1  0
 39 40  2  0
 29 24  1  0
 34 30  1  0
 37 12  1  0
 40  4  1  0
M  END
$$$$
