
     RDKit          3D

 40 43  0  0  0  0  0  0  0  0999 V2000
  -18.4971  -35.7683  -13.2648 C   0  0  0  0  0  0  0  0  0  0  0  0
  -18.1343  -36.5053  -12.0077 C   0  0  0  0  0  0  0  0  0  0  0  0
  -18.7360  -35.8134  -10.7763 C   0  0  0  0  0  0  0  0  0  0  0  0
  -16.6861  -36.6773  -11.8140 C   0  0  0  0  0  0  0  0  0  0  0  0
  -16.1259  -37.7816  -11.2092 C   0  0  0  0  0  0  0  0  0  0  0  0
  -14.7570  -37.9207  -11.0453 C   0  0  0  0  0  0  0  0  0  0  0  0
  -14.1757  -39.0960  -10.3956 C   0  0  0  0  0  0  0  0  0  0  0  0
  -14.9144  -40.1999  -10.0580 N   0  0  0  0  0  0  0  0  0  0  0  0
  -15.0151  -40.8719   -8.8663 C   0  0  0  0  0  0  0  0  0  0  0  0
  -15.7592  -40.3804   -7.7059 C   0  0  1  0  0  0  0  0  0  0  0  0
  -15.2131  -39.2779   -7.1092 O   0  0  0  0  0  0  0  0  0  0  0  0
  -17.2167  -40.0521   -7.9897 C   0  0  2  0  0  0  0  0  0  0  0  0
  -18.0428  -40.0275   -6.7346 C   0  0  0  0  0  0  0  0  0  0  0  0
  -19.2655  -39.1549   -7.0245 C   0  0  2  0  0  0  0  0  0  0  0  0
  -18.8842  -37.7008   -7.1143 C   0  0  0  0  0  0  0  0  0  0  0  0
  -20.2466  -39.3863   -5.8915 C   0  0  0  0  0  0  0  0  0  0  0  0
  -21.5164  -38.6211   -6.0873 C   0  0  0  0  0  0  0  0  0  0  0  0
  -22.6644  -39.4834   -6.5003 C   0  0  0  0  0  0  0  0  0  0  0  0
  -22.9374  -40.5180   -5.4556 C   0  0  0  0  0  0  0  0  0  0  0  0
  -24.3072  -41.1110   -5.7316 C   0  0  0  0  0  0  0  0  0  0  0  0
  -24.2232  -42.6006   -5.5065 C   0  0  0  0  0  0  0  0  0  0  0  0
  -23.5429  -43.2876   -6.6797 C   0  0  0  0  0  0  0  0  0  0  0  0
  -22.2333  -43.5333   -6.3422 O   0  0  0  0  0  0  0  0  0  0  0  0
  -21.0001  -43.5873   -6.9609 C   0  0  0  0  0  0  0  0  0  0  0  0
  -20.3539  -42.6243   -7.7292 C   0  0  0  0  0  0  0  0  0  0  0  0
  -19.1209  -42.9318   -8.2362 C   0  0  0  0  0  0  0  0  0  0  0  0
  -18.5430  -44.2067   -7.9681 C   0  0  0  0  0  0  0  0  0  0  0  0
  -19.1540  -45.1696   -7.2160 C   0  0  0  0  0  0  0  0  0  0  0  0
  -20.3842  -44.8403   -6.7199 C   0  0  0  0  0  0  0  0  0  0  0  0
  -18.5222  -46.4692   -6.9626 C   0  0  0  0  0  0  0  0  0  0  0  0
  -17.4028  -46.5907   -6.2295 N   0  0  0  0  0  0  0  0  0  0  0  0
  -17.0930  -47.8767   -6.1896 C   0  0  0  0  0  0  0  0  0  0  0  0
  -18.0631  -48.5228   -6.9227 C   0  0  0  0  0  0  0  0  0  0  0  0
  -18.9140  -47.6425   -7.3778 O   0  0  0  0  0  0  0  0  0  0  0  0
  -18.1892  -42.1617   -9.0808 C   0  0  0  0  0  0  0  0  0  0  0  0
  -17.5817  -42.7928  -10.0752 O   0  0  0  0  0  0  0  0  0  0  0  0
  -17.7741  -40.8120   -9.0603 N   0  0  0  0  0  0  0  0  0  0  0  0
  -13.9561  -36.9038  -11.5131 C   0  0  0  0  0  0  0  0  0  0  0  0
  -14.4708  -35.7805  -12.1245 C   0  0  0  0  0  0  0  0  0  0  0  0
  -15.8302  -35.6942  -12.2606 C   0  0  0  0  0  0  0  0  0  0  0  0
  1  2  1  0
  2  3  1  0
  2  4  1  0
  4  5  2  0
  5  6  1  0
  6  7  1  0
  7  8  1  0
  8  9  1  0
  9 10  1  0
 10 11  1  6
 10 12  1  0
 12 13  1  1
 13 14  1  0
 14 15  1  1
 14 16  1  0
 16 17  1  0
 17 18  1  0
 18 19  1  0
 19 20  1  0
 20 21  1  0
 21 22  1  0
 22 23  1  0
 23 24  1  0
 24 25  2  0
 25 26  1  0
 26 27  2  0
 27 28  1  0
 28 29  2  0
 28 30  1  0
 30 31  2  0
 31 32  1  0
 32 33  2  0
 33 34  1  0
 26 35  1  0
 35 36  2  0
 35 37  1  0
  6 38  2  0
 38 39  1  0
 39 40  2  0
 29 24  1  0
 34 30  1  0
 37 12  1  0
 40  4  1  0
M  END
$$$$
