
     RDKit          3D

 40 43  0  0  0  0  0  0  0  0999 V2000
  -13.0277  -35.1475  -11.6675 C   0  0  0  0  0  0  0  0  0  0  0  0
  -14.2018  -35.8957  -12.2303 C   0  0  0  0  0  0  0  0  0  0  0  0
  -15.5028  -35.4753  -11.5320 C   0  0  0  0  0  0  0  0  0  0  0  0
  -14.0627  -37.3590  -12.1668 C   0  0  0  0  0  0  0  0  0  0  0  0
  -13.7407  -38.0426  -11.0144 C   0  0  0  0  0  0  0  0  0  0  0  0
  -13.6223  -39.4228  -10.9816 C   0  0  0  0  0  0  0  0  0  0  0  0
  -13.2736  -40.1358   -9.7521 C   0  0  0  0  0  0  0  0  0  0  0  0
  -14.0766  -40.1385   -8.6415 N   0  0  0  0  0  0  0  0  0  0  0  0
  -15.4049  -40.4530   -8.5056 C   0  0  0  0  0  0  0  0  0  0  0  0
  -16.2099  -40.1287   -7.3271 C   0  0  1  0  0  0  0  0  0  0  0  0
  -15.7355  -39.0797   -6.5892 O   0  0  0  0  0  0  0  0  0  0  0  0
  -17.6704  -39.8311   -7.6288 C   0  0  2  0  0  0  0  0  0  0  0  0
  -18.5508  -40.0649   -6.4336 C   0  0  0  0  0  0  0  0  0  0  0  0
  -19.8092  -39.2189   -6.6366 C   0  0  2  0  0  0  0  0  0  0  0  0
  -19.5114  -37.7535   -6.4584 C   0  0  0  0  0  0  0  0  0  0  0  0
  -20.8238  -39.6914   -5.6132 C   0  0  0  0  0  0  0  0  0  0  0  0
  -22.1269  -38.9696   -5.7442 C   0  0  0  0  0  0  0  0  0  0  0  0
  -23.2024  -39.8054   -6.3580 C   0  0  0  0  0  0  0  0  0  0  0  0
  -23.4592  -41.0168   -5.5196 C   0  0  0  0  0  0  0  0  0  0  0  0
  -24.7779  -41.6225   -5.9648 C   0  0  0  0  0  0  0  0  0  0  0  0
  -24.6157  -43.1223   -5.9910 C   0  0  0  0  0  0  0  0  0  0  0  0
  -23.8449  -43.5618   -7.2254 C   0  0  0  0  0  0  0  0  0  0  0  0
  -22.5391  -43.7949   -6.8649 O   0  0  0  0  0  0  0  0  0  0  0  0
  -21.2789  -43.6788   -7.4170 C   0  0  0  0  0  0  0  0  0  0  0  0
  -20.6578  -42.5663   -7.9755 C   0  0  0  0  0  0  0  0  0  0  0  0
  -19.3876  -42.7188   -8.4606 C   0  0  0  0  0  0  0  0  0  0  0  0
  -18.7475  -43.9897   -8.3817 C   0  0  0  0  0  0  0  0  0  0  0  0
  -19.3328  -45.0974   -7.8372 C   0  0  0  0  0  0  0  0  0  0  0  0
  -20.6010  -44.9215   -7.3590 C   0  0  0  0  0  0  0  0  0  0  0  0
  -18.6367  -46.3874   -7.7741 C   0  0  0  0  0  0  0  0  0  0  0  0
  -19.2813  -47.5570   -7.9215 N   0  0  0  0  0  0  0  0  0  0  0  0
  -18.3816  -48.5215   -7.8135 C   0  0  0  0  0  0  0  0  0  0  0  0
  -17.1761  -47.8923   -7.5966 C   0  0  0  0  0  0  0  0  0  0  0  0
  -17.3644  -46.5999   -7.5778 O   0  0  0  0  0  0  0  0  0  0  0  0
  -18.4670  -41.7684   -9.1116 C   0  0  0  0  0  0  0  0  0  0  0  0
  -17.7801  -42.1873  -10.1646 O   0  0  0  0  0  0  0  0  0  0  0  0
  -18.1341  -40.4230   -8.8408 N   0  0  0  0  0  0  0  0  0  0  0  0
  -13.8396  -40.1057  -12.1566 C   0  0  0  0  0  0  0  0  0  0  0  0
  -14.1637  -39.4653  -13.3336 C   0  0  0  0  0  0  0  0  0  0  0  0
  -14.2678  -38.1005  -13.3098 C   0  0  0  0  0  0  0  0  0  0  0  0
  1  2  1  0
  2  3  1  0
  2  4  1  0
  4  5  2  0
  5  6  1  0
  6  7  1  0
  7  8  1  0
  8  9  1  0
  9 10  1  0
 10 11  1  6
 10 12  1  0
 12 13  1  1
 13 14  1  0
 14 15  1  1
 14 16  1  0
 16 17  1  0
 17 18  1  0
 18 19  1  0
 19 20  1  0
 20 21  1  0
 21 22  1  0
 22 23  1  0
 23 24  1  0
 24 25  2  0
 25 26  1  0
 26 27  2  0
 27 28  1  0
 28 29  2  0
 28 30  1  0
 30 31  2  0
 31 32  1  0
 32 33  2  0
 33 34  1  0
 26 35  1  0
 35 36  2  0
 35 37  1  0
  6 38  2  0
 38 39  1  0
 39 40  2  0
 29 24  1  0
 34 30  1  0
 37 12  1  0
 40  4  1  0
M  END
$$$$
