
     RDKit          3D

 40 43  0  0  0  0  0  0  0  0999 V2000
  -13.7558  -35.7986  -13.0065 C   0  0  0  0  0  0  0  0  0  0  0  0
  -15.0064  -34.9712  -12.9267 C   0  0  0  0  0  0  0  0  0  0  0  0
  -14.6929  -33.5547  -12.4243 C   0  0  0  0  0  0  0  0  0  0  0  0
  -16.0620  -35.5647  -12.0912 C   0  0  0  0  0  0  0  0  0  0  0  0
  -15.8545  -36.0015  -10.8007 C   0  0  0  0  0  0  0  0  0  0  0  0
  -16.8691  -36.5511  -10.0336 C   0  0  0  0  0  0  0  0  0  0  0  0
  -16.6334  -37.0168   -8.6664 C   0  0  0  0  0  0  0  0  0  0  0  0
  -16.1840  -38.2789   -8.3784 N   0  0  0  0  0  0  0  0  0  0  0  0
  -16.7531  -39.5028   -8.6233 C   0  0  0  0  0  0  0  0  0  0  0  0
  -15.9937  -40.7400   -8.8094 C   0  0  1  0  0  0  0  0  0  0  0  0
  -14.6537  -40.6238   -8.5624 O   0  0  0  0  0  0  0  0  0  0  0  0
  -16.4948  -41.9131   -7.9815 C   0  0  2  0  0  0  0  0  0  0  0  0
  -17.3456  -42.8505   -8.7912 C   0  0  0  0  0  0  0  0  0  0  0  0
  -17.2987  -44.2100   -8.0910 C   0  0  2  0  0  0  0  0  0  0  0  0
  -15.9529  -44.8629   -8.2652 C   0  0  0  0  0  0  0  0  0  0  0  0
  -18.3937  -45.0582   -8.7086 C   0  0  0  0  0  0  0  0  0  0  0  0
  -18.4845  -46.4061   -8.0676 C   0  0  0  0  0  0  0  0  0  0  0  0
  -19.6664  -46.5491   -7.1650 C   0  0  0  0  0  0  0  0  0  0  0  0
  -20.9330  -46.3476   -7.9339 C   0  0  0  0  0  0  0  0  0  0  0  0
  -22.0821  -46.8601   -7.0847 C   0  0  0  0  0  0  0  0  0  0  0  0
  -23.2296  -45.8899   -7.2202 C   0  0  0  0  0  0  0  0  0  0  0  0
  -22.9887  -44.6460   -6.3800 C   0  0  0  0  0  0  0  0  0  0  0  0
  -22.5271  -43.6461   -7.2024 O   0  0  0  0  0  0  0  0  0  0  0  0
  -21.6643  -42.5702   -7.1359 C   0  0  0  0  0  0  0  0  0  0  0  0
  -20.3239  -42.5339   -6.7655 C   0  0  0  0  0  0  0  0  0  0  0  0
  -19.6877  -41.3228   -6.7831 C   0  0  0  0  0  0  0  0  0  0  0  0
  -20.4025  -40.1533   -7.1734 C   0  0  0  0  0  0  0  0  0  0  0  0
  -21.7175  -40.1603   -7.5434 C   0  0  0  0  0  0  0  0  0  0  0  0
  -22.3322  -41.3807   -7.5185 C   0  0  0  0  0  0  0  0  0  0  0  0
  -22.4154  -38.9324   -7.9405 C   0  0  0  0  0  0  0  0  0  0  0  0
  -22.6563  -38.6297   -9.2273 N   0  0  0  0  0  0  0  0  0  0  0  0
  -23.2947  -37.4707   -9.2486 C   0  0  0  0  0  0  0  0  0  0  0  0
  -23.4290  -37.0879   -7.9327 C   0  0  0  0  0  0  0  0  0  0  0  0
  -22.8858  -37.9944   -7.1652 O   0  0  0  0  0  0  0  0  0  0  0  0
  -18.3048  -40.9377   -6.4456 C   0  0  0  0  0  0  0  0  0  0  0  0
  -18.1198  -39.8298   -5.7425 O   0  0  0  0  0  0  0  0  0  0  0  0
  -17.0531  -41.5280   -6.7268 N   0  0  0  0  0  0  0  0  0  0  0  0
  -18.1155  -36.6508  -10.6087 C   0  0  0  0  0  0  0  0  0  0  0  0
  -18.3708  -36.2276  -11.8956 C   0  0  0  0  0  0  0  0  0  0  0  0
  -17.3323  -35.6922  -12.6091 C   0  0  0  0  0  0  0  0  0  0  0  0
  1  2  1  0
  2  3  1  0
  2  4  1  0
  4  5  2  0
  5  6  1  0
  6  7  1  0
  7  8  1  0
  8  9  1  0
  9 10  1  0
 10 11  1  1
 10 12  1  0
 12 13  1  6
 13 14  1  0
 14 15  1  6
 14 16  1  0
 16 17  1  0
 17 18  1  0
 18 19  1  0
 19 20  1  0
 20 21  1  0
 21 22  1  0
 22 23  1  0
 23 24  1  0
 24 25  2  0
 25 26  1  0
 26 27  2  0
 27 28  1  0
 28 29  2  0
 28 30  1  0
 30 31  2  0
 31 32  1  0
 32 33  2  0
 33 34  1  0
 26 35  1  0
 35 36  2  0
 35 37  1  0
  6 38  2  0
 38 39  1  0
 39 40  2  0
 29 24  1  0
 34 30  1  0
 37 12  1  0
 40  4  1  0
M  END
$$$$
