
     RDKit          3D

 40 43  0  0  0  0  0  0  0  0999 V2000
  -11.6224  -39.9025  -12.0224 C   0  0  0  0  0  0  0  0  0  0  0  0
  -11.5201  -38.4201  -12.2393 C   0  0  0  0  0  0  0  0  0  0  0  0
  -10.3809  -37.8229  -11.4011 C   0  0  0  0  0  0  0  0  0  0  0  0
  -12.7667  -37.6893  -11.9626 C   0  0  0  0  0  0  0  0  0  0  0  0
  -13.2279  -37.4273  -10.6907 C   0  0  0  0  0  0  0  0  0  0  0  0
  -14.4030  -36.7307  -10.4588 C   0  0  0  0  0  0  0  0  0  0  0  0
  -14.8846  -36.4647   -9.1027 C   0  0  0  0  0  0  0  0  0  0  0  0
  -15.8049  -37.2602   -8.4716 N   0  0  0  0  0  0  0  0  0  0  0  0
  -16.9115  -37.9033   -8.9653 C   0  0  0  0  0  0  0  0  0  0  0  0
  -18.0019  -38.4172   -8.1354 C   0  0  1  0  0  0  0  0  0  0  0  0
  -18.7159  -37.4533   -7.4789 O   0  0  0  0  0  0  0  0  0  0  0  0
  -19.0075  -39.2775   -8.8848 C   0  0  2  0  0  0  0  0  0  0  0  0
  -20.4246  -38.8809   -8.5805 C   0  0  0  0  0  0  0  0  0  0  0  0
  -21.2811  -39.3564   -9.7556 C   0  0  2  0  0  0  0  0  0  0  0  0
  -21.0329  -38.5174  -10.9813 C   0  0  0  0  0  0  0  0  0  0  0  0
  -22.7279  -39.2506   -9.3134 C   0  0  0  0  0  0  0  0  0  0  0  0
  -23.6707  -39.7395  -10.3661 C   0  0  0  0  0  0  0  0  0  0  0  0
  -24.2645  -41.0734  -10.0496 C   0  0  0  0  0  0  0  0  0  0  0  0
  -25.0376  -41.0063   -8.7713 C   0  0  0  0  0  0  0  0  0  0  0  0
  -25.9101  -42.2456   -8.6869 C   0  0  0  0  0  0  0  0  0  0  0  0
  -25.8696  -42.7470   -7.2644 C   0  0  0  0  0  0  0  0  0  0  0  0
  -24.5682  -43.4822   -6.9867 C   0  0  0  0  0  0  0  0  0  0  0  0
  -23.7184  -42.6302   -6.3225 O   0  0  0  0  0  0  0  0  0  0  0  0
  -22.3631  -42.3794   -6.2412 C   0  0  0  0  0  0  0  0  0  0  0  0
  -21.4570  -42.0822   -7.2542 C   0  0  0  0  0  0  0  0  0  0  0  0
  -20.1508  -41.8752   -6.9038 C   0  0  0  0  0  0  0  0  0  0  0  0
  -19.7615  -41.9677   -5.5360 C   0  0  0  0  0  0  0  0  0  0  0  0
  -20.6298  -42.2559   -4.5216 C   0  0  0  0  0  0  0  0  0  0  0  0
  -21.9289  -42.4585   -4.8949 C   0  0  0  0  0  0  0  0  0  0  0  0
  -20.1871  -42.3396   -3.1254 C   0  0  0  0  0  0  0  0  0  0  0  0
  -19.0677  -41.7363   -2.6915 N   0  0  0  0  0  0  0  0  0  0  0  0
  -18.9502  -42.0007   -1.4002 C   0  0  0  0  0  0  0  0  0  0  0  0
  -20.0358  -42.7824   -1.0734 C   0  0  0  0  0  0  0  0  0  0  0  0
  -20.7656  -42.9698   -2.1402 O   0  0  0  0  0  0  0  0  0  0  0  0
  -18.9581  -41.5595   -7.7116 C   0  0  0  0  0  0  0  0  0  0  0  0
  -17.8271  -42.1883   -7.4261 O   0  0  0  0  0  0  0  0  0  0  0  0
  -18.7424  -40.6758   -8.7918 N   0  0  0  0  0  0  0  0  0  0  0  0
  -15.1113  -36.2992  -11.5571 C   0  0  0  0  0  0  0  0  0  0  0  0
  -14.6897  -36.5376  -12.8478 C   0  0  0  0  0  0  0  0  0  0  0  0
  -13.5217  -37.2305  -13.0199 C   0  0  0  0  0  0  0  0  0  0  0  0
  1  2  1  0
  2  3  1  0
  2  4  1  0
  4  5  2  0
  5  6  1  0
  6  7  1  0
  7  8  1  0
  8  9  1  0
  9 10  1  0
 10 11  1  6
 10 12  1  0
 12 13  1  1
 13 14  1  0
 14 15  1  6
 14 16  1  0
 16 17  1  0
 17 18  1  0
 18 19  1  0
 19 20  1  0
 20 21  1  0
 21 22  1  0
 22 23  1  0
 23 24  1  0
 24 25  2  0
 25 26  1  0
 26 27  2  0
 27 28  1  0
 28 29  2  0
 28 30  1  0
 30 31  2  0
 31 32  1  0
 32 33  2  0
 33 34  1  0
 26 35  1  0
 35 36  2  0
 35 37  1  0
  6 38  2  0
 38 39  1  0
 39 40  2  0
 29 24  1  0
 34 30  1  0
 37 12  1  0
 40  4  1  0
M  END
$$$$
