
     RDKit          3D

 40 43  0  0  0  0  0  0  0  0999 V2000
  -15.8127  -36.1546  -13.1165 C   0  0  0  0  0  0  0  0  0  0  0  0
  -16.5501  -35.1882  -12.2350 C   0  0  0  0  0  0  0  0  0  0  0  0
  -15.5819  -34.1793  -11.6010 C   0  0  0  0  0  0  0  0  0  0  0  0
  -17.3468  -35.8323  -11.1791 C   0  0  0  0  0  0  0  0  0  0  0  0
  -16.8738  -36.0670   -9.9061 C   0  0  0  0  0  0  0  0  0  0  0  0
  -17.6487  -36.6702   -8.9286 C   0  0  0  0  0  0  0  0  0  0  0  0
  -17.1317  -36.9191   -7.5823 C   0  0  0  0  0  0  0  0  0  0  0  0
  -16.0597  -37.7370   -7.3375 N   0  0  0  0  0  0  0  0  0  0  0  0
  -15.9970  -39.0987   -7.1840 C   0  0  0  0  0  0  0  0  0  0  0  0
  -16.2332  -40.0591   -8.2628 C   0  0  1  0  0  0  0  0  0  0  0  0
  -15.3166  -40.0084   -9.2763 O   0  0  0  0  0  0  0  0  0  0  0  0
  -16.3066  -41.5080   -7.8065 C   0  0  2  0  0  0  0  0  0  0  0  0
  -17.0811  -42.3628   -8.7697 C   0  0  0  0  0  0  0  0  0  0  0  0
  -16.6148  -43.8044   -8.5584 C   0  0  2  0  0  0  0  0  0  0  0  0
  -15.2213  -44.0068   -9.0925 C   0  0  0  0  0  0  0  0  0  0  0  0
  -17.6050  -44.6952   -9.2836 C   0  0  0  0  0  0  0  0  0  0  0  0
  -17.2845  -46.1453   -9.1078 C   0  0  0  0  0  0  0  0  0  0  0  0
  -18.2125  -46.8424   -8.1672 C   0  0  0  0  0  0  0  0  0  0  0  0
  -19.6174  -46.7664   -8.6740 C   0  0  0  0  0  0  0  0  0  0  0  0
  -20.4466  -47.7805   -7.9072 C   0  0  0  0  0  0  0  0  0  0  0  0
  -21.7766  -47.1455   -7.5845 C   0  0  0  0  0  0  0  0  0  0  0  0
  -21.6451  -46.1755   -6.4213 C   0  0  0  0  0  0  0  0  0  0  0  0
  -21.5722  -44.8982   -6.9239 O   0  0  0  0  0  0  0  0  0  0  0  0
  -20.9589  -43.7004   -6.6148 C   0  0  0  0  0  0  0  0  0  0  0  0
  -19.6103  -43.4240   -6.4138 C   0  0  0  0  0  0  0  0  0  0  0  0
  -19.2590  -42.1364   -6.1130 C   0  0  0  0  0  0  0  0  0  0  0  0
  -20.2656  -41.1321   -6.0161 C   0  0  0  0  0  0  0  0  0  0  0  0
  -21.5957  -41.3750   -6.2103 C   0  0  0  0  0  0  0  0  0  0  0  0
  -21.9232  -42.6677   -6.5097 C   0  0  0  0  0  0  0  0  0  0  0  0
  -22.5997  -40.3106   -6.1028 C   0  0  0  0  0  0  0  0  0  0  0  0
  -23.5089  -40.0836   -7.0658 N   0  0  0  0  0  0  0  0  0  0  0  0
  -24.2599  -39.0684   -6.6700 C   0  0  0  0  0  0  0  0  0  0  0  0
  -23.7716  -38.6937   -5.4382 C   0  0  0  0  0  0  0  0  0  0  0  0
  -22.7660  -39.4653   -5.1230 O   0  0  0  0  0  0  0  0  0  0  0  0
  -17.9496  -41.5178   -5.8349 C   0  0  0  0  0  0  0  0  0  0  0  0
  -17.8695  -40.6486   -4.8379 O   0  0  0  0  0  0  0  0  0  0  0  0
  -16.6802  -41.6563   -6.4380 N   0  0  0  0  0  0  0  0  0  0  0  0
  -18.9302  -37.0362   -9.2718 C   0  0  0  0  0  0  0  0  0  0  0  0
  -19.4468  -36.8220  -10.5319 C   0  0  0  0  0  0  0  0  0  0  0  0
  -18.6382  -36.2223  -11.4596 C   0  0  0  0  0  0  0  0  0  0  0  0
  1  2  1  0
  2  3  1  0
  2  4  1  0
  4  5  2  0
  5  6  1  0
  6  7  1  0
  7  8  1  0
  8  9  1  0
  9 10  1  0
 10 11  1  6
 10 12  1  0
 12 13  1  6
 13 14  1  0
 14 15  1  6
 14 16  1  0
 16 17  1  0
 17 18  1  0
 18 19  1  0
 19 20  1  0
 20 21  1  0
 21 22  1  0
 22 23  1  0
 23 24  1  0
 24 25  2  0
 25 26  1  0
 26 27  2  0
 27 28  1  0
 28 29  2  0
 28 30  1  0
 30 31  2  0
 31 32  1  0
 32 33  2  0
 33 34  1  0
 26 35  1  0
 35 36  2  0
 35 37  1  0
  6 38  2  0
 38 39  1  0
 39 40  2  0
 29 24  1  0
 34 30  1  0
 37 12  1  0
 40  4  1  0
M  END
$$$$
