
     RDKit          3D

 40 43  0  0  0  0  0  0  0  0999 V2000
  -21.7139  -39.8832   -1.8990 C   0  0  0  0  0  0  0  0  0  0  0  0
  -22.0638  -41.2776   -2.3329 C   0  0  0  0  0  0  0  0  0  0  0  0
  -21.1619  -42.3080   -1.6386 C   0  0  0  0  0  0  0  0  0  0  0  0
  -22.0085  -41.4807   -3.7890 C   0  0  0  0  0  0  0  0  0  0  0  0
  -20.8381  -41.4551   -4.5162 C   0  0  0  0  0  0  0  0  0  0  0  0
  -20.8144  -41.6560   -5.8869 C   0  0  0  0  0  0  0  0  0  0  0  0
  -19.5650  -41.6200   -6.6480 C   0  0  0  0  0  0  0  0  0  0  0  0
  -18.6739  -40.5821   -6.5647 N   0  0  0  0  0  0  0  0  0  0  0  0
  -17.3156  -40.5897   -6.3723 C   0  0  0  0  0  0  0  0  0  0  0  0
  -16.4661  -39.4015   -6.4627 C   0  0  1  0  0  0  0  0  0  0  0  0
  -15.4706  -39.3452   -5.5268 O   0  0  0  0  0  0  0  0  0  0  0  0
  -15.8078  -39.2039   -7.8193 C   0  0  2  0  0  0  0  0  0  0  0  0
  -16.1451  -37.8681   -8.4193 C   0  0  0  0  0  0  0  0  0  0  0  0
  -15.0343  -37.5362   -9.4175 C   0  0  2  0  0  0  0  0  0  0  0  0
  -13.7536  -37.1868   -8.7063 C   0  0  0  0  0  0  0  0  0  0  0  0
  -15.5269  -36.3662  -10.2472 C   0  0  0  0  0  0  0  0  0  0  0  0
  -14.5423  -35.9766  -11.3031 C   0  0  0  0  0  0  0  0  0  0  0  0
  -14.9581  -36.3924  -12.6765 C   0  0  0  0  0  0  0  0  0  0  0  0
  -16.2602  -35.7529  -13.0395 C   0  0  0  0  0  0  0  0  0  0  0  0
  -16.4501  -35.8973  -14.5385 C   0  0  0  0  0  0  0  0  0  0  0  0
  -17.8963  -36.2445  -14.7930 C   0  0  0  0  0  0  0  0  0  0  0  0
  -18.1636  -37.7089  -14.4841 C   0  0  0  0  0  0  0  0  0  0  0  0
  -18.7436  -37.7942  -13.2408 O   0  0  0  0  0  0  0  0  0  0  0  0
  -18.7563  -38.6587  -12.1644 C   0  0  0  0  0  0  0  0  0  0  0  0
  -17.6927  -39.1600  -11.4209 C   0  0  0  0  0  0  0  0  0  0  0  0
  -17.9783  -40.0139  -10.3908 C   0  0  0  0  0  0  0  0  0  0  0  0
  -19.3326  -40.3599  -10.1128 C   0  0  0  0  0  0  0  0  0  0  0  0
  -20.3956  -39.8814  -10.8249 C   0  0  0  0  0  0  0  0  0  0  0  0
  -20.0865  -39.0302  -11.8486 C   0  0  0  0  0  0  0  0  0  0  0  0
  -21.7756  -40.2620  -10.5036 C   0  0  0  0  0  0  0  0  0  0  0  0
  -22.6871  -40.5222  -11.4559 N   0  0  0  0  0  0  0  0  0  0  0  0
  -23.8198  -40.8321  -10.8458 C   0  0  0  0  0  0  0  0  0  0  0  0
  -23.5582  -40.7494   -9.4964 C   0  0  0  0  0  0  0  0  0  0  0  0
  -22.3114  -40.4016   -9.3221 O   0  0  0  0  0  0  0  0  0  0  0  0
  -17.1069  -40.7192   -9.4327 C   0  0  0  0  0  0  0  0  0  0  0  0
  -17.3827  -41.9849   -9.1535 O   0  0  0  0  0  0  0  0  0  0  0  0
  -15.9701  -40.3151   -8.6988 N   0  0  0  0  0  0  0  0  0  0  0  0
  -22.0173  -41.8865   -6.5147 C   0  0  0  0  0  0  0  0  0  0  0  0
  -23.2130  -41.9212   -5.8294 C   0  0  0  0  0  0  0  0  0  0  0  0
  -23.1792  -41.7163   -4.4763 C   0  0  0  0  0  0  0  0  0  0  0  0
  1  2  1  0
  2  3  1  0
  2  4  1  0
  4  5  2  0
  5  6  1  0
  6  7  1  0
  7  8  1  0
  8  9  1  0
  9 10  1  0
 10 11  1  1
 10 12  1  0
 12 13  1  6
 13 14  1  0
 14 15  1  1
 14 16  1  0
 16 17  1  0
 17 18  1  0
 18 19  1  0
 19 20  1  0
 20 21  1  0
 21 22  1  0
 22 23  1  0
 23 24  1  0
 24 25  2  0
 25 26  1  0
 26 27  2  0
 27 28  1  0
 28 29  2  0
 28 30  1  0
 30 31  2  0
 31 32  1  0
 32 33  2  0
 33 34  1  0
 26 35  1  0
 35 36  2  0
 35 37  1  0
  6 38  2  0
 38 39  1  0
 39 40  2  0
 29 24  1  0
 34 30  1  0
 37 12  1  0
 40  4  1  0
M  END
$$$$
