
     RDKit          3D

 40 43  0  0  0  0  0  0  0  0999 V2000
  -11.2730  -35.8237  -11.5708 C   0  0  0  0  0  0  0  0  0  0  0  0
  -12.5998  -36.2672  -12.1167 C   0  0  0  0  0  0  0  0  0  0  0  0
  -13.7511  -35.5247  -11.4236 C   0  0  0  0  0  0  0  0  0  0  0  0
  -12.8275  -37.7178  -12.0257 C   0  0  0  0  0  0  0  0  0  0  0  0
  -12.9219  -38.3991  -10.8315 C   0  0  0  0  0  0  0  0  0  0  0  0
  -13.1432  -39.7657  -10.7749 C   0  0  0  0  0  0  0  0  0  0  0  0
  -13.2351  -40.4778   -9.4997 C   0  0  0  0  0  0  0  0  0  0  0  0
  -14.4158  -40.6415   -8.8235 N   0  0  0  0  0  0  0  0  0  0  0  0
  -15.3305  -39.7137   -8.3940 C   0  0  0  0  0  0  0  0  0  0  0  0
  -16.3083  -39.9542   -7.3320 C   0  0  1  0  0  0  0  0  0  0  0  0
  -16.1155  -39.2040   -6.2050 O   0  0  0  0  0  0  0  0  0  0  0  0
  -17.7549  -39.7512   -7.7549 C   0  0  2  0  0  0  0  0  0  0  0  0
  -18.7092  -39.9552   -6.6121 C   0  0  0  0  0  0  0  0  0  0  0  0
  -19.9873  -39.1892   -6.9584 C   0  0  2  0  0  0  0  0  0  0  0  0
  -19.7722  -37.7022   -6.8562 C   0  0  0  0  0  0  0  0  0  0  0  0
  -21.0514  -39.6487   -5.9804 C   0  0  0  0  0  0  0  0  0  0  0  0
  -22.3736  -39.0042   -6.2502 C   0  0  0  0  0  0  0  0  0  0  0  0
  -23.3607  -39.9306   -6.8821 C   0  0  0  0  0  0  0  0  0  0  0  0
  -23.6218  -41.0992   -5.9864 C   0  0  0  0  0  0  0  0  0  0  0  0
  -24.8743  -41.7982   -6.4829 C   0  0  0  0  0  0  0  0  0  0  0  0
  -24.6408  -43.2865   -6.3991 C   0  0  0  0  0  0  0  0  0  0  0  0
  -23.7614  -43.7616   -7.5446 C   0  0  0  0  0  0  0  0  0  0  0  0
  -22.4763  -43.9045   -7.0783 O   0  0  0  0  0  0  0  0  0  0  0  0
  -21.1856  -43.7584   -7.5465 C   0  0  0  0  0  0  0  0  0  0  0  0
  -20.5776  -42.6523   -8.1315 C   0  0  0  0  0  0  0  0  0  0  0  0
  -19.2694  -42.7692   -8.5146 C   0  0  0  0  0  0  0  0  0  0  0  0
  -18.5782  -43.9982   -8.3075 C   0  0  0  0  0  0  0  0  0  0  0  0
  -19.1497  -45.0986   -7.7343 C   0  0  0  0  0  0  0  0  0  0  0  0
  -20.4565  -44.9587   -7.3594 C   0  0  0  0  0  0  0  0  0  0  0  0
  -18.4007  -46.3448   -7.5377 C   0  0  0  0  0  0  0  0  0  0  0  0
  -18.3388  -46.9629   -6.3463 N   0  0  0  0  0  0  0  0  0  0  0  0
  -17.5954  -48.0468   -6.5006 C   0  0  0  0  0  0  0  0  0  0  0  0
  -17.2134  -48.0589   -7.8235 C   0  0  0  0  0  0  0  0  0  0  0  0
  -17.7171  -47.0145   -8.4246 O   0  0  0  0  0  0  0  0  0  0  0  0
  -18.3487  -41.8151   -9.1600 C   0  0  0  0  0  0  0  0  0  0  0  0
  -17.5672  -42.2627  -10.1321 O   0  0  0  0  0  0  0  0  0  0  0  0
  -18.0999  -40.4402   -8.9551 N   0  0  0  0  0  0  0  0  0  0  0  0
  -13.2686  -40.4375  -11.9696 C   0  0  0  0  0  0  0  0  0  0  0  0
  -13.1814  -39.7990  -13.1883 C   0  0  0  0  0  0  0  0  0  0  0  0
  -12.9618  -38.4478  -13.1865 C   0  0  0  0  0  0  0  0  0  0  0  0
  1  2  1  0
  2  3  1  0
  2  4  1  0
  4  5  2  0
  5  6  1  0
  6  7  1  0
  7  8  1  0
  8  9  1  0
  9 10  1  0
 10 11  1  1
 10 12  1  0
 12 13  1  1
 13 14  1  0
 14 15  1  1
 14 16  1  0
 16 17  1  0
 17 18  1  0
 18 19  1  0
 19 20  1  0
 20 21  1  0
 21 22  1  0
 22 23  1  0
 23 24  1  0
 24 25  2  0
 25 26  1  0
 26 27  2  0
 27 28  1  0
 28 29  2  0
 28 30  1  0
 30 31  2  0
 31 32  1  0
 32 33  2  0
 33 34  1  0
 26 35  1  0
 35 36  2  0
 35 37  1  0
  6 38  2  0
 38 39  1  0
 39 40  2  0
 29 24  1  0
 34 30  1  0
 37 12  1  0
 40  4  1  0
M  END
$$$$
