
     RDKit          3D

 40 43  0  0  0  0  0  0  0  0999 V2000
  -14.0379  -43.8989   -8.0364 C   0  0  0  0  0  0  0  0  0  0  0  0
  -14.2288  -43.7332   -9.3906 O   0  0  0  0  0  0  0  0  0  0  0  0
  -15.0567  -44.7202   -9.9390 C   0  0  0  0  0  0  0  0  0  0  0  0
  -16.4569  -44.3809   -9.5715 C   0  0  0  0  0  0  0  0  0  0  0  0
  -17.1877  -45.1042   -8.6799 C   0  0  0  0  0  0  0  0  0  0  0  0
  -18.5318  -44.7969   -8.3140 C   0  0  0  0  0  0  0  0  0  0  0  0
  -19.1467  -43.6995   -8.8903 C   0  0  0  0  0  0  0  0  0  0  0  0
  -18.4280  -42.9399   -9.8019 C   0  0  0  0  0  0  0  0  0  0  0  0
  -17.0907  -43.3016  -10.1242 C   0  0  0  0  0  0  0  0  0  0  0  0
  -18.7818  -41.7181  -10.5559 C   0  0  0  0  0  0  0  0  0  0  0  0
  -18.4301  -41.7391  -11.8235 O   0  0  0  0  0  0  0  0  0  0  0  0
  -19.4390  -40.5240  -10.1268 N   0  0  0  0  0  0  0  0  0  0  0  0
  -19.2937  -39.8959   -8.8527 C   0  0  1  0  0  0  0  0  0  0  0  0
  -20.0101  -40.6694   -7.7411 C   0  0  0  0  0  0  0  0  0  0  0  0
  -20.5898  -39.8093   -6.7092 C   0  0  0  0  0  0  0  0  0  0  0  0
  -20.9602  -38.3971   -7.0049 C   0  0  0  0  0  0  0  0  0  0  0  0
  -20.7840  -40.3133   -5.5045 C   0  0  0  0  0  0  0  0  0  0  0  0
  -20.4899  -41.6626   -5.0382 C   0  0  0  0  0  0  0  0  0  0  0  0
  -21.6210  -42.4590   -4.8560 O   0  0  0  0  0  0  0  0  0  0  0  0
  -21.2472  -43.8009   -4.6120 C   0  0  0  0  0  0  0  0  0  0  0  0
  -20.8227  -44.4262   -5.9226 C   0  0  0  0  0  0  0  0  0  0  0  0
  -21.0110  -45.9011   -6.0096 C   0  0  0  0  0  0  0  0  0  0  0  0
  -20.2274  -46.4460   -7.1657 C   0  0  0  0  0  0  0  0  0  0  0  0
  -18.9701  -45.7471   -7.3459 N   0  0  0  0  0  0  0  0  0  0  0  0
  -17.8584  -39.7232   -8.4097 C   0  0  2  0  0  0  0  0  0  0  0  0
  -17.7480  -39.0419   -7.2220 O   0  0  0  0  0  0  0  0  0  0  0  0
  -17.1066  -38.9687   -9.4944 C   0  0  0  0  0  0  0  0  0  0  0  0
  -16.1192  -38.1299   -8.8907 N   0  0  0  0  0  0  0  0  0  0  0  0
  -15.4401  -37.2780   -9.8473 C   0  0  0  0  0  0  0  0  0  0  0  0
  -14.4298  -38.0683  -10.7376 C   0  0  0  0  0  0  0  0  0  0  0  0
  -13.9935  -37.0469   -9.7299 C   0  0  0  0  0  0  0  0  0  0  0  0
  -16.3149  -36.3802  -10.6411 C   0  0  0  0  0  0  0  0  0  0  0  0
  -15.8736  -35.1555  -11.0776 C   0  0  0  0  0  0  0  0  0  0  0  0
  -16.6704  -34.3009  -11.8217 C   0  0  0  0  0  0  0  0  0  0  0  0
  -17.9469  -34.7250  -12.1172 C   0  0  0  0  0  0  0  0  0  0  0  0
  -18.4325  -35.9463  -11.6998 C   0  0  0  0  0  0  0  0  0  0  0  0
  -17.5962  -36.7802  -10.9506 C   0  0  0  0  0  0  0  0  0  0  0  0
  -16.2136  -32.9727  -12.3039 C   0  0  0  0  0  0  0  0  0  0  0  0
  -17.1558  -31.8856  -11.7885 C   0  0  0  0  0  0  0  0  0  0  0  0
  -16.2694  -32.9225  -13.8188 C   0  0  0  0  0  0  0  0  0  0  0  0
  1  2  1  0
  2  3  1  0
  3  4  1  0
  4  5  2  0
  5  6  1  0
  6  7  2  0
  7  8  1  0
  8  9  2  0
  8 10  1  0
 10 11  2  0
 10 12  1  0
 12 13  1  0
 13 14  1  1
 14 15  1  0
 15 16  1  0
 15 17  2  0
 17 18  1  0
 18 19  1  0
 19 20  1  0
 20 21  1  0
 21 22  1  0
 22 23  1  0
 23 24  1  0
 13 25  1  0
 25 26  1  1
 25 27  1  0
 27 28  1  0
 28 29  1  0
 29 30  1  0
 30 31  1  0
 29 32  1  0
 32 33  2  0
 33 34  1  0
 34 35  2  0
 35 36  1  0
 36 37  2  0
 34 38  1  0
 38 39  1  0
 38 40  1  0
  9  4  1  0
 24  6  1  0
 31 29  1  0
 37 32  1  0
M  END
$$$$
