
     RDKit          3D

 40 43  0  0  0  0  0  0  0  0999 V2000
  -20.2142  -37.5819  -13.1923 C   0  0  0  0  0  0  0  0  0  0  0  0
  -20.3934  -38.5403  -12.2192 O   0  0  0  0  0  0  0  0  0  0  0  0
  -20.2275  -39.8404  -12.7117 C   0  0  0  0  0  0  0  0  0  0  0  0
  -18.8589  -40.2860  -12.3388 C   0  0  0  0  0  0  0  0  0  0  0  0
  -17.7773  -40.1228  -13.1486 C   0  0  0  0  0  0  0  0  0  0  0  0
  -16.4567  -40.5434  -12.8111 C   0  0  0  0  0  0  0  0  0  0  0  0
  -16.2429  -41.1567  -11.5893 C   0  0  0  0  0  0  0  0  0  0  0  0
  -17.3247  -41.3363  -10.7396 C   0  0  0  0  0  0  0  0  0  0  0  0
  -18.6168  -40.8946  -11.1376 C   0  0  0  0  0  0  0  0  0  0  0  0
  -17.4214  -41.9197   -9.3843 C   0  0  0  0  0  0  0  0  0  0  0  0
  -18.4391  -42.7359   -9.2138 O   0  0  0  0  0  0  0  0  0  0  0  0
  -16.5905  -41.7355   -8.2363 N   0  0  0  0  0  0  0  0  0  0  0  0
  -15.9512  -40.5193   -7.8478 C   0  0  1  0  0  0  0  0  0  0  0  0
  -14.7568  -40.1810   -8.7455 C   0  0  0  0  0  0  0  0  0  0  0  0
  -13.6555  -39.5311   -8.0345 C   0  0  0  0  0  0  0  0  0  0  0  0
  -13.4674  -39.7228   -6.5694 C   0  0  0  0  0  0  0  0  0  0  0  0
  -12.8233  -38.7705   -8.7216 C   0  0  0  0  0  0  0  0  0  0  0  0
  -12.8483  -38.4746  -10.1487 C   0  0  0  0  0  0  0  0  0  0  0  0
  -11.8510  -39.1209  -10.8796 O   0  0  0  0  0  0  0  0  0  0  0  0
  -12.0688  -38.9557  -12.2671 C   0  0  0  0  0  0  0  0  0  0  0  0
  -13.1945  -39.8747  -12.6884 C   0  0  0  0  0  0  0  0  0  0  0  0
  -13.1489  -40.3200  -14.1090 C   0  0  0  0  0  0  0  0  0  0  0  0
  -14.4758  -40.8952  -14.5039 C   0  0  0  0  0  0  0  0  0  0  0  0
  -15.5790  -40.1928  -13.8782 N   0  0  0  0  0  0  0  0  0  0  0  0
  -16.8618  -39.3123   -7.8587 C   0  0  2  0  0  0  0  0  0  0  0  0
  -16.5263  -38.3859   -6.9016 O   0  0  0  0  0  0  0  0  0  0  0  0
  -18.2885  -39.7827   -7.6256 C   0  0  0  0  0  0  0  0  0  0  0  0
  -18.4126  -40.2757   -6.2897 N   0  0  0  0  0  0  0  0  0  0  0  0
  -19.6970  -40.8977   -6.0340 C   0  0  0  0  0  0  0  0  0  0  0  0
  -20.3307  -40.4254   -4.6874 C   0  0  0  0  0  0  0  0  0  0  0  0
  -19.8523  -41.8295   -4.9081 C   0  0  0  0  0  0  0  0  0  0  0  0
  -20.6629  -40.8614   -7.1597 C   0  0  0  0  0  0  0  0  0  0  0  0
  -21.6065  -39.8691   -7.2596 C   0  0  0  0  0  0  0  0  0  0  0  0
  -22.5173  -39.8124   -8.3018 C   0  0  0  0  0  0  0  0  0  0  0  0
  -22.4472  -40.8030   -9.2561 C   0  0  0  0  0  0  0  0  0  0  0  0
  -21.5166  -41.8189   -9.1962 C   0  0  0  0  0  0  0  0  0  0  0  0
  -20.6144  -41.8402   -8.1278 C   0  0  0  0  0  0  0  0  0  0  0  0
  -23.5456  -38.7487   -8.4296 C   0  0  0  0  0  0  0  0  0  0  0  0
  -22.9423  -37.3996   -8.0410 C   0  0  0  0  0  0  0  0  0  0  0  0
  -24.6892  -39.0133   -7.4690 C   0  0  0  0  0  0  0  0  0  0  0  0
  1  2  1  0
  2  3  1  0
  3  4  1  0
  4  5  2  0
  5  6  1  0
  6  7  2  0
  7  8  1  0
  8  9  2  0
  8 10  1  0
 10 11  2  0
 10 12  1  0
 12 13  1  0
 13 14  1  6
 14 15  1  0
 15 16  1  0
 15 17  2  0
 17 18  1  0
 18 19  1  0
 19 20  1  0
 20 21  1  0
 21 22  1  0
 22 23  1  0
 23 24  1  0
 13 25  1  0
 25 26  1  1
 25 27  1  0
 27 28  1  0
 28 29  1  0
 29 30  1  0
 30 31  1  0
 29 32  1  0
 32 33  2  0
 33 34  1  0
 34 35  2  0
 35 36  1  0
 36 37  2  0
 34 38  1  0
 38 39  1  0
 38 40  1  0
  9  4  1  0
 24  6  1  0
 31 29  1  0
 37 32  1  0
M  END
$$$$
