
     RDKit          3D

 40 43  0  0  0  0  0  0  0  0999 V2000
  -16.9602  -32.5562   -9.7678 C   0  0  0  0  0  0  0  0  0  0  0  0
  -17.2976  -33.8915   -9.7423 O   0  0  0  0  0  0  0  0  0  0  0  0
  -17.6074  -34.3895  -11.0137 C   0  0  0  0  0  0  0  0  0  0  0  0
  -16.6727  -35.5119  -11.2917 C   0  0  0  0  0  0  0  0  0  0  0  0
  -15.4012  -35.3268  -11.7403 C   0  0  0  0  0  0  0  0  0  0  0  0
  -14.4889  -36.3888  -12.0140 C   0  0  0  0  0  0  0  0  0  0  0  0
  -14.9044  -37.6938  -11.8169 C   0  0  0  0  0  0  0  0  0  0  0  0
  -16.1946  -37.9163  -11.3581 C   0  0  0  0  0  0  0  0  0  0  0  0
  -17.0550  -36.8123  -11.1055 C   0  0  0  0  0  0  0  0  0  0  0  0
  -16.9169  -39.1636  -11.0280 C   0  0  0  0  0  0  0  0  0  0  0  0
  -18.1495  -39.2167  -11.4850 O   0  0  0  0  0  0  0  0  0  0  0  0
  -16.4910  -40.3125  -10.2926 N   0  0  0  0  0  0  0  0  0  0  0  0
  -15.6356  -40.3091   -9.1493 C   0  0  1  0  0  0  0  0  0  0  0  0
  -14.1761  -40.0259   -9.5193 C   0  0  0  0  0  0  0  0  0  0  0  0
  -13.2111  -40.7486   -8.6905 C   0  0  0  0  0  0  0  0  0  0  0  0
  -13.5834  -42.0197   -8.0089 C   0  0  0  0  0  0  0  0  0  0  0  0
  -11.9946  -40.2520   -8.5611 C   0  0  0  0  0  0  0  0  0  0  0  0
  -11.4550  -39.0340   -9.1527 C   0  0  0  0  0  0  0  0  0  0  0  0
  -10.5606  -39.2598  -10.1995 O   0  0  0  0  0  0  0  0  0  0  0  0
  -10.2486  -38.0456  -10.8542 C   0  0  0  0  0  0  0  0  0  0  0  0
  -11.4208  -37.6575  -11.7285 C   0  0  0  0  0  0  0  0  0  0  0  0
  -11.0749  -36.8346  -12.9208 C   0  0  0  0  0  0  0  0  0  0  0  0
  -12.3155  -36.2077  -13.4826 C   0  0  0  0  0  0  0  0  0  0  0  0
  -13.2500  -35.8278  -12.4415 N   0  0  0  0  0  0  0  0  0  0  0  0
  -16.0221  -39.2996   -8.0920 C   0  0  2  0  0  0  0  0  0  0  0  0
  -15.3714  -39.5044   -6.8998 O   0  0  0  0  0  0  0  0  0  0  0  0
  -17.5231  -39.3873   -7.8677 C   0  0  0  0  0  0  0  0  0  0  0  0
  -17.9586  -38.2466   -7.1246 N   0  0  0  0  0  0  0  0  0  0  0  0
  -19.1501  -38.5046   -6.3399 C   0  0  0  0  0  0  0  0  0  0  0  0
  -19.5621  -37.2811   -5.4617 C   0  0  0  0  0  0  0  0  0  0  0  0
  -19.0663  -38.5688   -4.8741 C   0  0  0  0  0  0  0  0  0  0  0  0
  -20.2966  -39.0806   -7.0850 C   0  0  0  0  0  0  0  0  0  0  0  0
  -21.0453  -40.1061   -6.5627 C   0  0  0  0  0  0  0  0  0  0  0  0
  -22.1213  -40.6588   -7.2377 C   0  0  0  0  0  0  0  0  0  0  0  0
  -22.4247  -40.1380   -8.4760 C   0  0  0  0  0  0  0  0  0  0  0  0
  -21.7006  -39.1087   -9.0398 C   0  0  0  0  0  0  0  0  0  0  0  0
  -20.6215  -38.5780   -8.3257 C   0  0  0  0  0  0  0  0  0  0  0  0
  -22.9444  -41.7677   -6.6917 C   0  0  0  0  0  0  0  0  0  0  0  0
  -23.4764  -41.3833   -5.3118 C   0  0  0  0  0  0  0  0  0  0  0  0
  -22.0894  -43.0065   -6.5053 C   0  0  0  0  0  0  0  0  0  0  0  0
  1  2  1  0
  2  3  1  0
  3  4  1  0
  4  5  2  0
  5  6  1  0
  6  7  2  0
  7  8  1  0
  8  9  2  0
  8 10  1  0
 10 11  2  0
 10 12  1  0
 12 13  1  0
 13 14  1  6
 14 15  1  0
 15 16  1  0
 15 17  2  0
 17 18  1  0
 18 19  1  0
 19 20  1  0
 20 21  1  0
 21 22  1  0
 22 23  1  0
 23 24  1  0
 13 25  1  0
 25 26  1  1
 25 27  1  0
 27 28  1  0
 28 29  1  0
 29 30  1  0
 30 31  1  0
 29 32  1  0
 32 33  2  0
 33 34  1  0
 34 35  2  0
 35 36  1  0
 36 37  2  0
 34 38  1  0
 38 39  1  0
 38 40  1  0
  9  4  1  0
 24  6  1  0
 31 29  1  0
 37 32  1  0
M  END
$$$$
