
     RDKit          3D

 40 43  0  0  0  0  0  0  0  0999 V2000
  -19.4360  -35.5232  -13.8967 C   0  0  0  0  0  0  0  0  0  0  0  0
  -19.8231  -36.8360  -13.7406 O   0  0  0  0  0  0  0  0  0  0  0  0
  -19.5698  -37.3189  -12.4510 C   0  0  0  0  0  0  0  0  0  0  0  0
  -18.1672  -37.8118  -12.4281 C   0  0  0  0  0  0  0  0  0  0  0  0
  -17.1382  -37.1545  -13.0292 C   0  0  0  0  0  0  0  0  0  0  0  0
  -15.7864  -37.6100  -13.0202 C   0  0  0  0  0  0  0  0  0  0  0  0
  -15.4836  -38.7904  -12.3647 C   0  0  0  0  0  0  0  0  0  0  0  0
  -16.5101  -39.4836  -11.7400 C   0  0  0  0  0  0  0  0  0  0  0  0
  -17.8376  -38.9750  -11.7876 C   0  0  0  0  0  0  0  0  0  0  0  0
  -16.5111  -40.7336  -10.9501 C   0  0  0  0  0  0  0  0  0  0  0  0
  -17.4868  -41.5648  -11.2468 O   0  0  0  0  0  0  0  0  0  0  0  0
  -15.6264  -41.1774   -9.9193 N   0  0  0  0  0  0  0  0  0  0  0  0
  -15.0128  -40.3548   -8.9265 C   0  0  1  0  0  0  0  0  0  0  0  0
  -13.8824  -39.4968   -9.5038 C   0  0  0  0  0  0  0  0  0  0  0  0
  -12.7691  -39.2940   -8.5764 C   0  0  0  0  0  0  0  0  0  0  0  0
  -12.4945  -40.2657   -7.4813 C   0  0  0  0  0  0  0  0  0  0  0  0
  -12.0045  -38.2290   -8.7326 C   0  0  0  0  0  0  0  0  0  0  0  0
  -12.1182  -37.1829   -9.7413 C   0  0  0  0  0  0  0  0  0  0  0  0
  -11.1387  -37.2424  -10.7331 O   0  0  0  0  0  0  0  0  0  0  0  0
  -11.4377  -36.3381  -11.7785 C   0  0  0  0  0  0  0  0  0  0  0  0
  -12.5496  -36.9272  -12.6186 C   0  0  0  0  0  0  0  0  0  0  0  0
  -12.5648  -36.4912  -14.0427 C   0  0  0  0  0  0  0  0  0  0  0  0
  -13.8888  -36.8244  -14.6619 C   0  0  0  0  0  0  0  0  0  0  0  0
  -14.9817  -36.6660  -13.7226 N   0  0  0  0  0  0  0  0  0  0  0  0
  -15.9671  -39.4102   -8.2314 C   0  0  2  0  0  0  0  0  0  0  0  0
  -15.3519  -38.2639   -7.7906 O   0  0  0  0  0  0  0  0  0  0  0  0
  -16.5869  -40.1357   -7.0480 C   0  0  0  0  0  0  0  0  0  0  0  0
  -17.3568  -41.2430   -7.5214 N   0  0  0  0  0  0  0  0  0  0  0  0
  -18.7816  -41.0687   -7.3182 C   0  0  0  0  0  0  0  0  0  0  0  0
  -19.1346  -40.7195   -5.8379 C   0  0  0  0  0  0  0  0  0  0  0  0
  -19.5269  -42.0173   -6.4788 C   0  0  0  0  0  0  0  0  0  0  0  0
  -19.4640  -40.1787   -8.2897 C   0  0  0  0  0  0  0  0  0  0  0  0
  -20.5620  -39.4370   -7.9301 C   0  0  0  0  0  0  0  0  0  0  0  0
  -21.2146  -38.5977   -8.8180 C   0  0  0  0  0  0  0  0  0  0  0  0
  -20.7189  -38.5276  -10.1011 C   0  0  0  0  0  0  0  0  0  0  0  0
  -19.6194  -39.2544  -10.5066 C   0  0  0  0  0  0  0  0  0  0  0  0
  -18.9885  -40.0902   -9.5796 C   0  0  0  0  0  0  0  0  0  0  0  0
  -22.4032  -37.7867   -8.4506 C   0  0  0  0  0  0  0  0  0  0  0  0
  -22.0115  -36.7430   -7.4055 C   0  0  0  0  0  0  0  0  0  0  0  0
  -23.4597  -38.6709   -7.8163 C   0  0  0  0  0  0  0  0  0  0  0  0
  1  2  1  0
  2  3  1  0
  3  4  1  0
  4  5  2  0
  5  6  1  0
  6  7  2  0
  7  8  1  0
  8  9  2  0
  8 10  1  0
 10 11  2  0
 10 12  1  0
 12 13  1  0
 13 14  1  6
 14 15  1  0
 15 16  1  0
 15 17  2  0
 17 18  1  0
 18 19  1  0
 19 20  1  0
 20 21  1  0
 21 22  1  0
 22 23  1  0
 23 24  1  0
 13 25  1  0
 25 26  1  1
 25 27  1  0
 27 28  1  0
 28 29  1  0
 29 30  1  0
 30 31  1  0
 29 32  1  0
 32 33  2  0
 33 34  1  0
 34 35  2  0
 35 36  1  0
 36 37  2  0
 34 38  1  0
 38 39  1  0
 38 40  1  0
  9  4  1  0
 24  6  1  0
 31 29  1  0
 37 32  1  0
M  END
$$$$
