
     RDKit          3D

 40 43  0  0  0  0  0  0  0  0999 V2000
  -18.9717  -41.3108  -14.7370 C   0  0  0  0  0  0  0  0  0  0  0  0
  -18.9284  -41.7036  -13.4174 O   0  0  0  0  0  0  0  0  0  0  0  0
  -18.1276  -42.8354  -13.2220 C   0  0  0  0  0  0  0  0  0  0  0  0
  -16.9300  -42.4056  -12.4528 C   0  0  0  0  0  0  0  0  0  0  0  0
  -15.8111  -41.9001  -13.0400 C   0  0  0  0  0  0  0  0  0  0  0  0
  -14.6516  -41.4829  -12.3214 C   0  0  0  0  0  0  0  0  0  0  0  0
  -14.6459  -41.5908  -10.9420 C   0  0  0  0  0  0  0  0  0  0  0  0
  -15.7722  -42.1005  -10.3125 C   0  0  0  0  0  0  0  0  0  0  0  0
  -16.8955  -42.4998  -11.0883 C   0  0  0  0  0  0  0  0  0  0  0  0
  -16.0853  -42.3136   -8.8831 C   0  0  0  0  0  0  0  0  0  0  0  0
  -16.6475  -43.4726   -8.6154 O   0  0  0  0  0  0  0  0  0  0  0  0
  -15.8776  -41.4631   -7.7537 N   0  0  0  0  0  0  0  0  0  0  0  0
  -15.9985  -40.0404   -7.7393 C   0  0  1  0  0  0  0  0  0  0  0  0
  -14.8286  -39.3530   -8.4507 C   0  0  0  0  0  0  0  0  0  0  0  0
  -14.4384  -38.0814   -7.8413 C   0  0  0  0  0  0  0  0  0  0  0  0
  -14.7193  -37.7990   -6.4059 C   0  0  0  0  0  0  0  0  0  0  0  0
  -13.8242  -37.1851   -8.5913 C   0  0  0  0  0  0  0  0  0  0  0  0
  -13.4653  -37.2883  -10.0003 C   0  0  0  0  0  0  0  0  0  0  0  0
  -12.1010  -37.4741  -10.2259 O   0  0  0  0  0  0  0  0  0  0  0  0
  -11.8611  -37.7756  -11.5867 C   0  0  0  0  0  0  0  0  0  0  0  0
  -12.2602  -39.2134  -11.8366 C   0  0  0  0  0  0  0  0  0  0  0  0
  -11.5301  -39.8884  -12.9456 C   0  0  0  0  0  0  0  0  0  0  0  0
  -12.2520  -41.1416  -13.3405 C   0  0  0  0  0  0  0  0  0  0  0  0
  -13.6909  -40.9891  -13.2517 N   0  0  0  0  0  0  0  0  0  0  0  0
  -17.2656  -39.5219   -8.3809 C   0  0  2  0  0  0  0  0  0  0  0  0
  -17.2515  -38.1599   -8.5585 O   0  0  0  0  0  0  0  0  0  0  0  0
  -18.4434  -39.9022   -7.4982 C   0  0  0  0  0  0  0  0  0  0  0  0
  -18.6851  -41.3065   -7.6097 N   0  0  0  0  0  0  0  0  0  0  0  0
  -19.9859  -41.6980   -7.1031 C   0  0  0  0  0  0  0  0  0  0  0  0
  -19.8841  -42.6101   -5.8399 C   0  0  0  0  0  0  0  0  0  0  0  0
  -20.4033  -43.1061   -7.1565 C   0  0  0  0  0  0  0  0  0  0  0  0
  -20.9652  -40.5968   -6.9308 C   0  0  0  0  0  0  0  0  0  0  0  0
  -21.9445  -40.6553   -5.9702 C   0  0  0  0  0  0  0  0  0  0  0  0
  -22.8685  -39.6394   -5.7886 C   0  0  0  0  0  0  0  0  0  0  0  0
  -22.7742  -38.5444   -6.6186 C   0  0  0  0  0  0  0  0  0  0  0  0
  -21.8077  -38.4427   -7.5969 C   0  0  0  0  0  0  0  0  0  0  0  0
  -20.8932  -39.4901   -7.7479 C   0  0  0  0  0  0  0  0  0  0  0  0
  -23.9352  -39.6819   -4.7564 C   0  0  0  0  0  0  0  0  0  0  0  0
  -25.1748  -38.9479   -5.2661 C   0  0  0  0  0  0  0  0  0  0  0  0
  -23.4770  -38.9571   -3.5053 C   0  0  0  0  0  0  0  0  0  0  0  0
  1  2  1  0
  2  3  1  0
  3  4  1  0
  4  5  2  0
  5  6  1  0
  6  7  2  0
  7  8  1  0
  8  9  2  0
  8 10  1  0
 10 11  2  0
 10 12  1  0
 12 13  1  0
 13 14  1  6
 14 15  1  0
 15 16  1  0
 15 17  2  0
 17 18  1  0
 18 19  1  0
 19 20  1  0
 20 21  1  0
 21 22  1  0
 22 23  1  0
 23 24  1  0
 13 25  1  0
 25 26  1  1
 25 27  1  0
 27 28  1  0
 28 29  1  0
 29 30  1  0
 30 31  1  0
 29 32  1  0
 32 33  2  0
 33 34  1  0
 34 35  2  0
 35 36  1  0
 36 37  2  0
 34 38  1  0
 38 39  1  0
 38 40  1  0
  9  4  1  0
 24  6  1  0
 31 29  1  0
 37 32  1  0
M  END
$$$$
