
     RDKit          3D

 40 43  0  0  0  0  0  0  0  0999 V2000
  -21.9689  -34.9001   -9.1356 C   0  0  0  0  0  0  0  0  0  0  0  0
  -21.1257  -35.9146   -9.5322 O   0  0  0  0  0  0  0  0  0  0  0  0
  -19.9508  -35.9618   -8.7721 C   0  0  0  0  0  0  0  0  0  0  0  0
  -18.9599  -36.7666   -9.5343 C   0  0  0  0  0  0  0  0  0  0  0  0
  -17.9379  -36.2121  -10.2417 C   0  0  0  0  0  0  0  0  0  0  0  0
  -16.9775  -36.9651  -10.9801 C   0  0  0  0  0  0  0  0  0  0  0  0
  -17.0746  -38.3454  -10.9892 C   0  0  0  0  0  0  0  0  0  0  0  0
  -18.1042  -38.9419  -10.2762 C   0  0  0  0  0  0  0  0  0  0  0  0
  -19.0300  -38.1327   -9.5612 C   0  0  0  0  0  0  0  0  0  0  0  0
  -18.4587  -40.3623  -10.0677 C   0  0  0  0  0  0  0  0  0  0  0  0
  -19.7417  -40.6271  -10.1892 O   0  0  0  0  0  0  0  0  0  0  0  0
  -17.6329  -41.4855   -9.7539 N   0  0  0  0  0  0  0  0  0  0  0  0
  -16.4867  -41.4744   -8.9025 C   0  0  1  0  0  0  0  0  0  0  0  0
  -15.2824  -40.7948   -9.5622 C   0  0  0  0  0  0  0  0  0  0  0  0
  -13.9994  -41.3987   -9.2019 C   0  0  0  0  0  0  0  0  0  0  0  0
  -13.9156  -42.8188   -8.7601 C   0  0  0  0  0  0  0  0  0  0  0  0
  -12.9096  -40.6576   -9.2810 C   0  0  0  0  0  0  0  0  0  0  0  0
  -12.8001  -39.2640   -9.6941 C   0  0  0  0  0  0  0  0  0  0  0  0
  -12.2391  -39.0898  -10.9596 O   0  0  0  0  0  0  0  0  0  0  0  0
  -12.3612  -37.7432  -11.3738 C   0  0  0  0  0  0  0  0  0  0  0  0
  -13.7924  -37.5007  -11.8003 C   0  0  0  0  0  0  0  0  0  0  0  0
  -13.9757  -36.4286  -12.8179 C   0  0  0  0  0  0  0  0  0  0  0  0
  -15.4188  -36.0271  -12.8785 C   0  0  0  0  0  0  0  0  0  0  0  0
  -16.0466  -36.0623  -11.5722 N   0  0  0  0  0  0  0  0  0  0  0  0
  -16.7085  -40.7804   -7.5776 C   0  0  2  0  0  0  0  0  0  0  0  0
  -15.5441  -40.3024   -7.0276 O   0  0  0  0  0  0  0  0  0  0  0  0
  -17.3500  -41.7688   -6.6172 C   0  0  0  0  0  0  0  0  0  0  0  0
  -18.7267  -41.9390   -6.9619 N   0  0  0  0  0  0  0  0  0  0  0  0
  -19.6256  -41.6314   -5.8669 C   0  0  0  0  0  0  0  0  0  0  0  0
  -18.9207  -40.8379   -4.7216 C   0  0  0  0  0  0  0  0  0  0  0  0
  -19.4146  -42.2432   -4.5474 C   0  0  0  0  0  0  0  0  0  0  0  0
  -20.9273  -41.0336   -6.2540 C   0  0  0  0  0  0  0  0  0  0  0  0
  -21.1730  -40.6304   -7.5432 C   0  0  0  0  0  0  0  0  0  0  0  0
  -22.3804  -40.0719   -7.9294 C   0  0  0  0  0  0  0  0  0  0  0  0
  -23.3488  -39.9294   -6.9605 C   0  0  0  0  0  0  0  0  0  0  0  0
  -23.1461  -40.3198   -5.6535 C   0  0  0  0  0  0  0  0  0  0  0  0
  -21.9131  -40.8798   -5.3041 C   0  0  0  0  0  0  0  0  0  0  0  0
  -22.6676  -39.6293   -9.3175 C   0  0  0  0  0  0  0  0  0  0  0  0
  -21.4825  -39.9667  -10.2214 C   0  0  0  0  0  0  0  0  0  0  0  0
  -22.8380  -38.1227   -9.3578 C   0  0  0  0  0  0  0  0  0  0  0  0
  1  2  1  0
  2  3  1  0
  3  4  1  0
  4  5  2  0
  5  6  1  0
  6  7  2  0
  7  8  1  0
  8  9  2  0
  8 10  1  0
 10 11  2  0
 10 12  1  0
 12 13  1  0
 13 14  1  6
 14 15  1  0
 15 16  1  0
 15 17  2  0
 17 18  1  0
 18 19  1  0
 19 20  1  0
 20 21  1  0
 21 22  1  0
 22 23  1  0
 23 24  1  0
 13 25  1  0
 25 26  1  1
 25 27  1  0
 27 28  1  0
 28 29  1  0
 29 30  1  0
 30 31  1  0
 29 32  1  0
 32 33  2  0
 33 34  1  0
 34 35  2  0
 35 36  1  0
 36 37  2  0
 34 38  1  0
 38 39  1  0
 38 40  1  0
  9  4  1  0
 24  6  1  0
 31 29  1  0
 37 32  1  0
M  END
$$$$
