
     RDKit          3D

 40 43  0  0  0  0  0  0  0  0999 V2000
  -19.1557  -33.4136  -12.1311 C   0  0  0  0  0  0  0  0  0  0  0  0
  -19.4125  -34.4952  -11.3177 O   0  0  0  0  0  0  0  0  0  0  0  0
  -18.3959  -34.7128  -10.3799 C   0  0  0  0  0  0  0  0  0  0  0  0
  -17.5676  -35.8435  -10.8760 C   0  0  0  0  0  0  0  0  0  0  0  0
  -16.4393  -35.6697  -11.6169 C   0  0  0  0  0  0  0  0  0  0  0  0
  -15.6312  -36.7398  -12.1033 C   0  0  0  0  0  0  0  0  0  0  0  0
  -16.0012  -38.0412  -11.8139 C   0  0  0  0  0  0  0  0  0  0  0  0
  -17.1457  -38.2525  -11.0588 C   0  0  0  0  0  0  0  0  0  0  0  0
  -17.9081  -37.1407  -10.6052 C   0  0  0  0  0  0  0  0  0  0  0  0
  -17.7810  -39.4936  -10.5665 C   0  0  0  0  0  0  0  0  0  0  0  0
  -19.0878  -39.5322  -10.7139 O   0  0  0  0  0  0  0  0  0  0  0  0
  -17.2033  -40.6497   -9.9567 N   0  0  0  0  0  0  0  0  0  0  0  0
  -16.0982  -40.6596   -9.0525 C   0  0  1  0  0  0  0  0  0  0  0  0
  -14.7675  -40.3898   -9.7622 C   0  0  0  0  0  0  0  0  0  0  0  0
  -13.6394  -41.1257   -9.1906 C   0  0  0  0  0  0  0  0  0  0  0  0
  -13.8509  -42.3956   -8.4413 C   0  0  0  0  0  0  0  0  0  0  0  0
  -12.4222  -40.6421   -9.3568 C   0  0  0  0  0  0  0  0  0  0  0  0
  -12.0274  -39.4273  -10.0590 C   0  0  0  0  0  0  0  0  0  0  0  0
  -11.4133  -39.6580  -11.2904 O   0  0  0  0  0  0  0  0  0  0  0  0
  -11.2547  -38.4445  -11.9992 C   0  0  0  0  0  0  0  0  0  0  0  0
  -12.5984  -38.0410  -12.5655 C   0  0  0  0  0  0  0  0  0  0  0  0
  -12.5403  -37.2169  -13.8048 C   0  0  0  0  0  0  0  0  0  0  0  0
  -13.8726  -36.5751  -14.0511 C   0  0  0  0  0  0  0  0  0  0  0  0
  -14.5253  -36.1898  -12.8153 N   0  0  0  0  0  0  0  0  0  0  0  0
  -16.2083  -39.6504   -7.9320 C   0  0  2  0  0  0  0  0  0  0  0  0
  -15.4231  -39.9700   -6.8511 O   0  0  0  0  0  0  0  0  0  0  0  0
  -17.6618  -39.5740   -7.4931 C   0  0  0  0  0  0  0  0  0  0  0  0
  -17.8734  -38.3633   -6.7635 N   0  0  0  0  0  0  0  0  0  0  0  0
  -19.1773  -38.3046   -6.1322 C   0  0  0  0  0  0  0  0  0  0  0  0
  -19.6514  -36.8387   -5.8784 C   0  0  0  0  0  0  0  0  0  0  0  0
  -19.3100  -37.7832   -4.7646 C   0  0  0  0  0  0  0  0  0  0  0  0
  -20.2308  -39.1419   -6.7570 C   0  0  0  0  0  0  0  0  0  0  0  0
  -21.2428  -39.6921   -6.0097 C   0  0  0  0  0  0  0  0  0  0  0  0
  -22.2386  -40.4752   -6.5701 C   0  0  0  0  0  0  0  0  0  0  0  0
  -22.1825  -40.6908   -7.9292 C   0  0  0  0  0  0  0  0  0  0  0  0
  -21.1850  -40.1587   -8.7189 C   0  0  0  0  0  0  0  0  0  0  0  0
  -20.1981  -39.3733   -8.1146 C   0  0  0  0  0  0  0  0  0  0  0  0
  -23.3420  -41.0797   -5.7811 C   0  0  0  0  0  0  0  0  0  0  0  0
  -24.0775  -39.9886   -5.0041 C   0  0  0  0  0  0  0  0  0  0  0  0
  -22.7794  -42.0471   -4.7573 C   0  0  0  0  0  0  0  0  0  0  0  0
  1  2  1  0
  2  3  1  0
  3  4  1  0
  4  5  2  0
  5  6  1  0
  6  7  2  0
  7  8  1  0
  8  9  2  0
  8 10  1  0
 10 11  2  0
 10 12  1  0
 12 13  1  0
 13 14  1  6
 14 15  1  0
 15 16  1  0
 15 17  2  0
 17 18  1  0
 18 19  1  0
 19 20  1  0
 20 21  1  0
 21 22  1  0
 22 23  1  0
 23 24  1  0
 13 25  1  0
 25 26  1  1
 25 27  1  0
 27 28  1  0
 28 29  1  0
 29 30  1  0
 30 31  1  0
 29 32  1  0
 32 33  2  0
 33 34  1  0
 34 35  2  0
 35 36  1  0
 36 37  2  0
 34 38  1  0
 38 39  1  0
 38 40  1  0
  9  4  1  0
 24  6  1  0
 31 29  1  0
 37 32  1  0
M  END
$$$$
