
     RDKit          3D

 40 43  0  0  0  0  0  0  0  0999 V2000
  -13.8889  -45.6691   -7.2517 C   0  0  0  0  0  0  0  0  0  0  0  0
  -13.4893  -45.2268   -8.4936 O   0  0  0  0  0  0  0  0  0  0  0  0
  -14.4631  -44.4396   -9.1202 C   0  0  0  0  0  0  0  0  0  0  0  0
  -13.9080  -43.0666   -9.2520 C   0  0  0  0  0  0  0  0  0  0  0  0
  -12.9037  -42.7502  -10.1143 C   0  0  0  0  0  0  0  0  0  0  0  0
  -12.3562  -41.4406  -10.2558 C   0  0  0  0  0  0  0  0  0  0  0  0
  -12.8649  -40.4162   -9.4772 C   0  0  0  0  0  0  0  0  0  0  0  0
  -13.8909  -40.7054   -8.5894 C   0  0  0  0  0  0  0  0  0  0  0  0
  -14.3912  -42.0336   -8.4961 C   0  0  0  0  0  0  0  0  0  0  0  0
  -14.6525  -39.8470   -7.6569 C   0  0  0  0  0  0  0  0  0  0  0  0
  -14.8281  -40.3643   -6.4600 O   0  0  0  0  0  0  0  0  0  0  0  0
  -15.2272  -38.5530   -7.8504 N   0  0  0  0  0  0  0  0  0  0  0  0
  -15.8354  -38.0743   -9.0503 C   0  0  1  0  0  0  0  0  0  0  0  0
  -14.8023  -37.7593  -10.1369 C   0  0  0  0  0  0  0  0  0  0  0  0
  -15.1626  -36.6139  -10.9730 C   0  0  0  0  0  0  0  0  0  0  0  0
  -16.0735  -35.5495  -10.4670 C   0  0  0  0  0  0  0  0  0  0  0  0
  -14.6579  -36.5388  -12.1907 C   0  0  0  0  0  0  0  0  0  0  0  0
  -13.7544  -37.4757  -12.8469 C   0  0  0  0  0  0  0  0  0  0  0  0
  -12.4439  -37.0115  -12.9654 O   0  0  0  0  0  0  0  0  0  0  0  0
  -11.5909  -38.0469  -13.4130 C   0  0  0  0  0  0  0  0  0  0  0  0
  -11.3233  -38.9820  -12.2541 C   0  0  0  0  0  0  0  0  0  0  0  0
  -10.0247  -39.7087  -12.3152 C   0  0  0  0  0  0  0  0  0  0  0  0
  -10.0374  -40.8540  -11.3478 C   0  0  0  0  0  0  0  0  0  0  0  0
  -11.3445  -41.4747  -11.2597 N   0  0  0  0  0  0  0  0  0  0  0  0
  -16.8338  -39.0317   -9.6609 C   0  0  2  0  0  0  0  0  0  0  0  0
  -16.9774  -38.8557  -11.0156 O   0  0  0  0  0  0  0  0  0  0  0  0
  -18.1777  -38.8249   -8.9813 C   0  0  0  0  0  0  0  0  0  0  0  0
  -17.9694  -38.5399   -7.5962 N   0  0  0  0  0  0  0  0  0  0  0  0
  -19.1831  -38.6412   -6.8097 C   0  0  0  0  0  0  0  0  0  0  0  0
  -19.1708  -37.6927   -5.5694 C   0  0  0  0  0  0  0  0  0  0  0  0
  -19.1329  -39.1869   -5.4460 C   0  0  0  0  0  0  0  0  0  0  0  0
  -20.4519  -38.5594   -7.5744 C   0  0  0  0  0  0  0  0  0  0  0  0
  -21.4507  -39.4857   -7.4024 C   0  0  0  0  0  0  0  0  0  0  0  0
  -22.6445  -39.4294   -8.1027 C   0  0  0  0  0  0  0  0  0  0  0  0
  -22.8037  -38.3941   -8.9970 C   0  0  0  0  0  0  0  0  0  0  0  0
  -21.8279  -37.4417   -9.2025 C   0  0  0  0  0  0  0  0  0  0  0  0
  -20.6368  -37.5338   -8.4754 C   0  0  0  0  0  0  0  0  0  0  0  0
  -23.7377  -40.4199   -7.9323 C   0  0  0  0  0  0  0  0  0  0  0  0
  -24.2857  -40.3424   -6.5079 C   0  0  0  0  0  0  0  0  0  0  0  0
  -23.1999  -41.8253   -8.1219 C   0  0  0  0  0  0  0  0  0  0  0  0
  1  2  1  0
  2  3  1  0
  3  4  1  0
  4  5  2  0
  5  6  1  0
  6  7  2  0
  7  8  1  0
  8  9  2  0
  8 10  1  0
 10 11  2  0
 10 12  1  0
 12 13  1  0
 13 14  1  6
 14 15  1  0
 15 16  1  0
 15 17  2  0
 17 18  1  0
 18 19  1  0
 19 20  1  0
 20 21  1  0
 21 22  1  0
 22 23  1  0
 23 24  1  0
 13 25  1  0
 25 26  1  6
 25 27  1  0
 27 28  1  0
 28 29  1  0
 29 30  1  0
 30 31  1  0
 29 32  1  0
 32 33  2  0
 33 34  1  0
 34 35  2  0
 35 36  1  0
 36 37  2  0
 34 38  1  0
 38 39  1  0
 38 40  1  0
  9  4  1  0
 24  6  1  0
 31 29  1  0
 37 32  1  0
M  END
$$$$
