
     RDKit          3D

 40 43  0  0  0  0  0  0  0  0999 V2000
  -14.3170  -46.5707  -10.4257 C   0  0  0  0  0  0  0  0  0  0  0  0
  -15.3491  -46.8199   -9.5481 O   0  0  0  0  0  0  0  0  0  0  0  0
  -15.4215  -45.8687   -8.5233 C   0  0  0  0  0  0  0  0  0  0  0  0
  -16.7319  -45.1776   -8.6496 C   0  0  0  0  0  0  0  0  0  0  0  0
  -17.8722  -45.6326   -8.0623 C   0  0  0  0  0  0  0  0  0  0  0  0
  -19.1390  -44.9860   -8.1714 C   0  0  0  0  0  0  0  0  0  0  0  0
  -19.2337  -43.8234   -8.9157 C   0  0  0  0  0  0  0  0  0  0  0  0
  -18.0887  -43.3321   -9.5258 C   0  0  0  0  0  0  0  0  0  0  0  0
  -16.8561  -44.0262   -9.3783 C   0  0  0  0  0  0  0  0  0  0  0  0
  -17.8561  -42.1254  -10.3481 C   0  0  0  0  0  0  0  0  0  0  0  0
  -17.1239  -42.3306  -11.4218 O   0  0  0  0  0  0  0  0  0  0  0  0
  -18.2958  -40.7788  -10.1602 N   0  0  0  0  0  0  0  0  0  0  0  0
  -18.4252  -40.1037   -8.9086 C   0  0  1  0  0  0  0  0  0  0  0  0
  -19.6373  -40.5931   -8.1097 C   0  0  0  0  0  0  0  0  0  0  0  0
  -20.2887  -39.5401   -7.3302 C   0  0  0  0  0  0  0  0  0  0  0  0
  -20.1741  -38.1087   -7.7259 C   0  0  0  0  0  0  0  0  0  0  0  0
  -20.9886  -39.8856   -6.2653 C   0  0  0  0  0  0  0  0  0  0  0  0
  -21.2130  -41.2245   -5.7346 C   0  0  0  0  0  0  0  0  0  0  0  0
  -22.5025  -41.7116   -5.9507 O   0  0  0  0  0  0  0  0  0  0  0  0
  -22.5793  -43.0799   -5.6020 C   0  0  0  0  0  0  0  0  0  0  0  0
  -21.9185  -43.8909   -6.6951 C   0  0  0  0  0  0  0  0  0  0  0  0
  -22.4315  -45.2807   -6.8489 C   0  0  0  0  0  0  0  0  0  0  0  0
  -21.4745  -46.0870   -7.6745 C   0  0  0  0  0  0  0  0  0  0  0  0
  -20.0952  -45.7241   -7.4143 N   0  0  0  0  0  0  0  0  0  0  0  0
  -17.2210  -40.2427   -8.0048 C   0  0  2  0  0  0  0  0  0  0  0  0
  -17.5266  -40.0472   -6.6800 O   0  0  0  0  0  0  0  0  0  0  0  0
  -16.1753  -39.2268   -8.4353 C   0  0  0  0  0  0  0  0  0  0  0  0
  -15.8681  -39.4199   -9.8178 N   0  0  0  0  0  0  0  0  0  0  0  0
  -14.7205  -38.6490  -10.2547 C   0  0  0  0  0  0  0  0  0  0  0  0
  -13.9819  -39.3105  -11.4608 C   0  0  0  0  0  0  0  0  0  0  0  0
  -13.3648  -39.1946  -10.0989 C   0  0  0  0  0  0  0  0  0  0  0  0
  -14.9626  -37.2000  -10.4626 C   0  0  0  0  0  0  0  0  0  0  0  0
  -13.9444  -36.3490  -10.8150 C   0  0  0  0  0  0  0  0  0  0  0  0
  -14.1457  -34.9934  -11.0169 C   0  0  0  0  0  0  0  0  0  0  0  0
  -15.4257  -34.5134  -10.8497 C   0  0  0  0  0  0  0  0  0  0  0  0
  -16.4786  -35.3308  -10.4961 C   0  0  0  0  0  0  0  0  0  0  0  0
  -16.2337  -36.6940  -10.3018 C   0  0  0  0  0  0  0  0  0  0  0  0
  -13.0596  -34.0553  -11.3984 C   0  0  0  0  0  0  0  0  0  0  0  0
  -13.3347  -33.4872  -12.7901 C   0  0  0  0  0  0  0  0  0  0  0  0
  -11.7379  -34.7951  -11.4776 C   0  0  0  0  0  0  0  0  0  0  0  0
  1  2  1  0
  2  3  1  0
  3  4  1  0
  4  5  2  0
  5  6  1  0
  6  7  2  0
  7  8  1  0
  8  9  2  0
  8 10  1  0
 10 11  2  0
 10 12  1  0
 12 13  1  0
 13 14  1  1
 14 15  1  0
 15 16  1  0
 15 17  2  0
 17 18  1  0
 18 19  1  0
 19 20  1  0
 20 21  1  0
 21 22  1  0
 22 23  1  0
 23 24  1  0
 13 25  1  0
 25 26  1  1
 25 27  1  0
 27 28  1  0
 28 29  1  0
 29 30  1  0
 30 31  1  0
 29 32  1  0
 32 33  2  0
 33 34  1  0
 34 35  2  0
 35 36  1  0
 36 37  2  0
 34 38  1  0
 38 39  1  0
 38 40  1  0
  9  4  1  0
 24  6  1  0
 31 29  1  0
 37 32  1  0
M  END
$$$$
