
     RDKit          3D

 40 43  0  0  0  0  0  0  0  0999 V2000
  -21.4353  -43.6991  -12.4801 C   0  0  0  0  0  0  0  0  0  0  0  0
  -21.2728  -42.6834  -11.5638 O   0  0  0  0  0  0  0  0  0  0  0  0
  -20.4499  -41.6570  -12.0430 C   0  0  0  0  0  0  0  0  0  0  0  0
  -19.0850  -41.8921  -11.5023 C   0  0  0  0  0  0  0  0  0  0  0  0
  -18.0016  -42.1232  -12.2929 C   0  0  0  0  0  0  0  0  0  0  0  0
  -16.6845  -42.3519  -11.7952 C   0  0  0  0  0  0  0  0  0  0  0  0
  -16.4762  -42.3416  -10.4273 C   0  0  0  0  0  0  0  0  0  0  0  0
  -17.5599  -42.1069   -9.5937 C   0  0  0  0  0  0  0  0  0  0  0  0
  -18.8484  -41.8871  -10.1547 C   0  0  0  0  0  0  0  0  0  0  0  0
  -17.6620  -42.0070   -8.1219 C   0  0  0  0  0  0  0  0  0  0  0  0
  -18.6860  -42.6490   -7.6020 O   0  0  0  0  0  0  0  0  0  0  0  0
  -16.8307  -41.3247   -7.1810 N   0  0  0  0  0  0  0  0  0  0  0  0
  -16.1825  -40.0693   -7.3874 C   0  0  1  0  0  0  0  0  0  0  0  0
  -14.9848  -40.1854   -8.3358 C   0  0  0  0  0  0  0  0  0  0  0  0
  -13.8792  -39.2898   -7.9951 C   0  0  0  0  0  0  0  0  0  0  0  0
  -13.6937  -38.7932   -6.6030 C   0  0  0  0  0  0  0  0  0  0  0  0
  -13.0408  -38.9318   -8.9501 C   0  0  0  0  0  0  0  0  0  0  0  0
  -13.0625  -39.3194  -10.3550 C   0  0  0  0  0  0  0  0  0  0  0  0
  -12.0696  -40.2343  -10.7065 O   0  0  0  0  0  0  0  0  0  0  0  0
  -12.2851  -40.7190  -12.0175 C   0  0  0  0  0  0  0  0  0  0  0  0
  -13.4174  -41.7217  -11.9777 C   0  0  0  0  0  0  0  0  0  0  0  0
  -13.3741  -42.7664  -13.0384 C   0  0  0  0  0  0  0  0  0  0  0  0
  -14.7050  -43.4499  -13.1329 C   0  0  0  0  0  0  0  0  0  0  0  0
  -15.8033  -42.5324  -12.9012 N   0  0  0  0  0  0  0  0  0  0  0  0
  -17.0839  -38.9945   -7.9516 C   0  0  2  0  0  0  0  0  0  0  0  0
  -16.4102  -37.8312   -8.2339 O   0  0  0  0  0  0  0  0  0  0  0  0
  -18.1824  -38.7071   -6.9408 C   0  0  0  0  0  0  0  0  0  0  0  0
  -19.2073  -37.9290   -7.5630 N   0  0  0  0  0  0  0  0  0  0  0  0
  -20.5430  -38.3829   -7.2286 C   0  0  0  0  0  0  0  0  0  0  0  0
  -21.4476  -38.5545   -8.4897 C   0  0  0  0  0  0  0  0  0  0  0  0
  -21.6974  -37.5011   -7.4519 C   0  0  0  0  0  0  0  0  0  0  0  0
  -20.6141  -39.5503   -6.3157 C   0  0  0  0  0  0  0  0  0  0  0  0
  -21.6924  -39.7458   -5.4886 C   0  0  0  0  0  0  0  0  0  0  0  0
  -21.7829  -40.8286   -4.6294 C   0  0  0  0  0  0  0  0  0  0  0  0
  -20.7358  -41.7234   -4.6290 C   0  0  0  0  0  0  0  0  0  0  0  0
  -19.6330  -41.5671   -5.4421 C   0  0  0  0  0  0  0  0  0  0  0  0
  -19.5802  -40.4604   -6.2955 C   0  0  0  0  0  0  0  0  0  0  0  0
  -22.9393  -41.0595   -3.7269 C   0  0  0  0  0  0  0  0  0  0  0  0
  -24.0236  -41.8404   -4.4684 C   0  0  0  0  0  0  0  0  0  0  0  0
  -23.5523  -39.7338   -3.3181 C   0  0  0  0  0  0  0  0  0  0  0  0
  1  2  1  0
  2  3  1  0
  3  4  1  0
  4  5  2  0
  5  6  1  0
  6  7  2  0
  7  8  1  0
  8  9  2  0
  8 10  1  0
 10 11  2  0
 10 12  1  0
 12 13  1  0
 13 14  1  6
 14 15  1  0
 15 16  1  0
 15 17  2  0
 17 18  1  0
 18 19  1  0
 19 20  1  0
 20 21  1  0
 21 22  1  0
 22 23  1  0
 23 24  1  0
 13 25  1  0
 25 26  1  1
 25 27  1  0
 27 28  1  0
 28 29  1  0
 29 30  1  0
 30 31  1  0
 29 32  1  0
 32 33  2  0
 33 34  1  0
 34 35  2  0
 35 36  1  0
 36 37  2  0
 34 38  1  0
 38 39  1  0
 38 40  1  0
  9  4  1  0
 24  6  1  0
 31 29  1  0
 37 32  1  0
M  END
$$$$
