
     RDKit          3D

 40 43  0  0  0  0  0  0  0  0999 V2000
  -12.0515  -42.2180   -7.6465 C   0  0  0  0  0  0  0  0  0  0  0  0
  -13.2542  -42.7325   -8.0782 O   0  0  0  0  0  0  0  0  0  0  0  0
  -13.1077  -43.9662   -8.7238 C   0  0  0  0  0  0  0  0  0  0  0  0
  -14.4699  -44.4534   -9.0667 C   0  0  0  0  0  0  0  0  0  0  0  0
  -14.9982  -45.6012   -8.5611 C   0  0  0  0  0  0  0  0  0  0  0  0
  -16.3016  -46.0869   -8.8773 C   0  0  0  0  0  0  0  0  0  0  0  0
  -17.0920  -45.3597   -9.7496 C   0  0  0  0  0  0  0  0  0  0  0  0
  -16.5834  -44.1836  -10.2812 C   0  0  0  0  0  0  0  0  0  0  0  0
  -15.2744  -43.7555   -9.9256 C   0  0  0  0  0  0  0  0  0  0  0  0
  -17.1734  -43.1864  -11.1998 C   0  0  0  0  0  0  0  0  0  0  0  0
  -16.3670  -42.7845  -12.1585 O   0  0  0  0  0  0  0  0  0  0  0  0
  -18.4727  -42.5914  -11.2086 N   0  0  0  0  0  0  0  0  0  0  0  0
  -19.2409  -42.2329  -10.0597 C   0  0  1  0  0  0  0  0  0  0  0  0
  -19.8253  -43.4580   -9.3490 C   0  0  0  0  0  0  0  0  0  0  0  0
  -21.1455  -43.2213   -8.7644 C   0  0  0  0  0  0  0  0  0  0  0  0
  -22.0434  -42.1597   -9.2988 C   0  0  0  0  0  0  0  0  0  0  0  0
  -21.5303  -43.9748   -7.7509 C   0  0  0  0  0  0  0  0  0  0  0  0
  -20.7941  -45.0545   -7.1051 C   0  0  0  0  0  0  0  0  0  0  0  0
  -21.2760  -46.3289   -7.4061 O   0  0  0  0  0  0  0  0  0  0  0  0
  -20.3911  -47.3196   -6.9209 C   0  0  0  0  0  0  0  0  0  0  0  0
  -19.1914  -47.3827   -7.8406 C   0  0  0  0  0  0  0  0  0  0  0  0
  -18.5071  -48.7044   -7.8972 C   0  0  0  0  0  0  0  0  0  0  0  0
  -17.1527  -48.5490   -8.5208 C   0  0  0  0  0  0  0  0  0  0  0  0
  -16.5274  -47.2939   -8.1530 N   0  0  0  0  0  0  0  0  0  0  0  0
  -18.4693  -41.4516   -9.0203 C   0  0  2  0  0  0  0  0  0  0  0  0
  -18.7063  -41.8923   -7.7411 O   0  0  0  0  0  0  0  0  0  0  0  0
  -18.8617  -39.9869   -9.1288 C   0  0  0  0  0  0  0  0  0  0  0  0
  -17.7642  -39.2403   -9.6589 N   0  0  0  0  0  0  0  0  0  0  0  0
  -17.7127  -37.8800   -9.1600 C   0  0  0  0  0  0  0  0  0  0  0  0
  -16.5351  -37.0623   -9.7785 C   0  0  0  0  0  0  0  0  0  0  0  0
  -16.5822  -37.4433   -8.3287 C   0  0  0  0  0  0  0  0  0  0  0  0
  -18.9967  -37.1371   -9.1890 C   0  0  0  0  0  0  0  0  0  0  0  0
  -19.2611  -36.2052  -10.1621 C   0  0  0  0  0  0  0  0  0  0  0  0
  -20.4527  -35.5006  -10.2116 C   0  0  0  0  0  0  0  0  0  0  0  0
  -21.3853  -35.7679   -9.2340 C   0  0  0  0  0  0  0  0  0  0  0  0
  -21.1629  -36.6948   -8.2375 C   0  0  0  0  0  0  0  0  0  0  0  0
  -19.9468  -37.3854   -8.2229 C   0  0  0  0  0  0  0  0  0  0  0  0
  -20.7595  -34.4890  -11.2545 C   0  0  0  0  0  0  0  0  0  0  0  0
  -20.3477  -35.0221  -12.6262 C   0  0  0  0  0  0  0  0  0  0  0  0
  -19.9510  -33.2291  -11.0103 C   0  0  0  0  0  0  0  0  0  0  0  0
  1  2  1  0
  2  3  1  0
  3  4  1  0
  4  5  2  0
  5  6  1  0
  6  7  2  0
  7  8  1  0
  8  9  2  0
  8 10  1  0
 10 11  2  0
 10 12  1  0
 12 13  1  0
 13 14  1  1
 14 15  1  0
 15 16  1  0
 15 17  2  0
 17 18  1  0
 18 19  1  0
 19 20  1  0
 20 21  1  0
 21 22  1  0
 22 23  1  0
 23 24  1  0
 13 25  1  0
 25 26  1  1
 25 27  1  0
 27 28  1  0
 28 29  1  0
 29 30  1  0
 30 31  1  0
 29 32  1  0
 32 33  2  0
 33 34  1  0
 34 35  2  0
 35 36  1  0
 36 37  2  0
 34 38  1  0
 38 39  1  0
 38 40  1  0
  9  4  1  0
 24  6  1  0
 31 29  1  0
 37 32  1  0
M  END
$$$$
