
     RDKit          3D

 40 43  0  0  0  0  0  0  0  0999 V2000
  -21.1181  -38.5177  -12.8264 C   0  0  0  0  0  0  0  0  0  0  0  0
  -20.1750  -37.5235  -12.6869 O   0  0  0  0  0  0  0  0  0  0  0  0
  -19.6414  -37.4698  -11.3935 C   0  0  0  0  0  0  0  0  0  0  0  0
  -18.1693  -37.6416  -11.5121 C   0  0  0  0  0  0  0  0  0  0  0  0
  -17.3247  -36.6219  -11.8271 C   0  0  0  0  0  0  0  0  0  0  0  0
  -15.9105  -36.7651  -11.9469 C   0  0  0  0  0  0  0  0  0  0  0  0
  -15.3445  -38.0095  -11.7330 C   0  0  0  0  0  0  0  0  0  0  0  0
  -16.1782  -39.0696  -11.4082 C   0  0  0  0  0  0  0  0  0  0  0  0
  -17.5812  -38.8596  -11.3057 C   0  0  0  0  0  0  0  0  0  0  0  0
  -15.8886  -40.4863  -11.0987 C   0  0  0  0  0  0  0  0  0  0  0  0
  -16.6923  -41.3473  -11.6850 O   0  0  0  0  0  0  0  0  0  0  0  0
  -14.8815  -41.0642  -10.2658 N   0  0  0  0  0  0  0  0  0  0  0  0
  -14.3947  -40.5236   -9.0372 C   0  0  1  0  0  0  0  0  0  0  0  0
  -13.4899  -39.3072   -9.2583 C   0  0  0  0  0  0  0  0  0  0  0  0
  -12.3936  -39.2099   -8.2943 C   0  0  0  0  0  0  0  0  0  0  0  0
  -11.8745  -40.4192   -7.5964 C   0  0  0  0  0  0  0  0  0  0  0  0
  -11.8665  -38.0230   -8.0567 C   0  0  0  0  0  0  0  0  0  0  0  0
  -12.2387  -36.7420   -8.6443 C   0  0  0  0  0  0  0  0  0  0  0  0
  -11.3193  -36.2560   -9.5744 O   0  0  0  0  0  0  0  0  0  0  0  0
  -11.8463  -35.1306  -10.2494 C   0  0  0  0  0  0  0  0  0  0  0  0
  -12.8594  -35.6117  -11.2649 C   0  0  0  0  0  0  0  0  0  0  0  0
  -13.0344  -34.7278  -12.4508 C   0  0  0  0  0  0  0  0  0  0  0  0
  -14.2950  -35.0933  -13.1753 C   0  0  0  0  0  0  0  0  0  0  0  0
  -15.3479  -35.4938  -12.2627 N   0  0  0  0  0  0  0  0  0  0  0  0
  -15.4818  -40.0912   -8.0793 C   0  0  2  0  0  0  0  0  0  0  0  0
  -15.0842  -40.1467   -6.7656 O   0  0  0  0  0  0  0  0  0  0  0  0
  -16.6876  -40.9952   -8.2788 C   0  0  0  0  0  0  0  0  0  0  0  0
  -17.8827  -40.2149   -8.2019 N   0  0  0  0  0  0  0  0  0  0  0  0
  -19.0871  -41.0126   -8.3240 C   0  0  0  0  0  0  0  0  0  0  0  0
  -19.1174  -42.2050   -7.3163 C   0  0  0  0  0  0  0  0  0  0  0  0
  -19.0054  -42.4010   -8.7989 C   0  0  0  0  0  0  0  0  0  0  0  0
  -20.3610  -40.2522   -8.3422 C   0  0  0  0  0  0  0  0  0  0  0  0
  -20.3734  -38.8796   -8.3735 C   0  0  0  0  0  0  0  0  0  0  0  0
  -21.5492  -38.1476   -8.3932 C   0  0  0  0  0  0  0  0  0  0  0  0
  -22.7322  -38.8528   -8.3799 C   0  0  0  0  0  0  0  0  0  0  0  0
  -22.7679  -40.2310   -8.3483 C   0  0  0  0  0  0  0  0  0  0  0  0
  -21.5585  -40.9331   -8.3294 C   0  0  0  0  0  0  0  0  0  0  0  0
  -21.5858  -36.6635   -8.4273 C   0  0  0  0  0  0  0  0  0  0  0  0
  -21.6113  -36.1159   -7.0009 C   0  0  0  0  0  0  0  0  0  0  0  0
  -22.8581  -36.1904   -9.1040 C   0  0  0  0  0  0  0  0  0  0  0  0
  1  2  1  0
  2  3  1  0
  3  4  1  0
  4  5  2  0
  5  6  1  0
  6  7  2  0
  7  8  1  0
  8  9  2  0
  8 10  1  0
 10 11  2  0
 10 12  1  0
 12 13  1  0
 13 14  1  6
 14 15  1  0
 15 16  1  0
 15 17  2  0
 17 18  1  0
 18 19  1  0
 19 20  1  0
 20 21  1  0
 21 22  1  0
 22 23  1  0
 23 24  1  0
 13 25  1  0
 25 26  1  1
 25 27  1  0
 27 28  1  0
 28 29  1  0
 29 30  1  0
 30 31  1  0
 29 32  1  0
 32 33  2  0
 33 34  1  0
 34 35  2  0
 35 36  1  0
 36 37  2  0
 34 38  1  0
 38 39  1  0
 38 40  1  0
  9  4  1  0
 24  6  1  0
 31 29  1  0
 37 32  1  0
M  END
$$$$
