
     RDKit          3D

 40 43  0  0  0  0  0  0  0  0999 V2000
  -22.0642  -38.5895  -13.0596 C   0  0  0  0  0  0  0  0  0  0  0  0
  -20.7877  -39.0339  -12.7941 O   0  0  0  0  0  0  0  0  0  0  0  0
  -19.9263  -37.9951  -12.4209 C   0  0  0  0  0  0  0  0  0  0  0  0
  -18.5784  -38.5876  -12.2140 C   0  0  0  0  0  0  0  0  0  0  0  0
  -17.4945  -38.2498  -12.9644 C   0  0  0  0  0  0  0  0  0  0  0  0
  -16.1936  -38.8063  -12.7835 C   0  0  0  0  0  0  0  0  0  0  0  0
  -16.0027  -39.7487  -11.7885 C   0  0  0  0  0  0  0  0  0  0  0  0
  -17.0875  -40.1136  -11.0044 C   0  0  0  0  0  0  0  0  0  0  0  0
  -18.3592  -39.5210  -11.2379 C   0  0  0  0  0  0  0  0  0  0  0  0
  -17.2047  -41.0515   -9.8673 C   0  0  0  0  0  0  0  0  0  0  0  0
  -18.2590  -41.8370   -9.9155 O   0  0  0  0  0  0  0  0  0  0  0  0
  -16.3602  -41.2361   -8.7294 N   0  0  0  0  0  0  0  0  0  0  0  0
  -15.6621  -40.2087   -8.0252 C   0  0  1  0  0  0  0  0  0  0  0  0
  -14.4576  -39.6831   -8.8127 C   0  0  0  0  0  0  0  0  0  0  0  0
  -13.3231  -39.3099   -7.9674 C   0  0  0  0  0  0  0  0  0  0  0  0
  -13.1369  -39.9161   -6.6196 C   0  0  0  0  0  0  0  0  0  0  0  0
  -12.4594  -38.4233   -8.4270 C   0  0  0  0  0  0  0  0  0  0  0  0
  -12.4778  -37.7352   -9.7119 C   0  0  0  0  0  0  0  0  0  0  0  0
  -11.5159  -38.1917  -10.6136 O   0  0  0  0  0  0  0  0  0  0  0  0
  -11.7327  -37.6316  -11.8939 C   0  0  0  0  0  0  0  0  0  0  0  0
  -12.9028  -38.3435  -12.5367 C   0  0  0  0  0  0  0  0  0  0  0  0
  -12.8856  -38.3706  -14.0258 C   0  0  0  0  0  0  0  0  0  0  0  0
  -14.2402  -38.7518  -14.5427 C   0  0  0  0  0  0  0  0  0  0  0  0
  -15.3057  -38.2072  -13.7242 N   0  0  0  0  0  0  0  0  0  0  0  0
  -16.5146  -39.0091   -7.6784 C   0  0  2  0  0  0  0  0  0  0  0  0
  -15.7964  -38.0030   -7.0794 O   0  0  0  0  0  0  0  0  0  0  0  0
  -17.6246  -39.4607   -6.7430 C   0  0  0  0  0  0  0  0  0  0  0  0
  -18.7128  -39.9763   -7.5131 N   0  0  0  0  0  0  0  0  0  0  0  0
  -19.9617  -39.2850   -7.2599 C   0  0  0  0  0  0  0  0  0  0  0  0
  -20.4396  -38.4479   -8.4883 C   0  0  0  0  0  0  0  0  0  0  0  0
  -19.9920  -37.8167   -7.2036 C   0  0  0  0  0  0  0  0  0  0  0  0
  -21.0476  -40.1136   -6.6805 C   0  0  0  0  0  0  0  0  0  0  0  0
  -20.8095  -40.9775   -5.6402 C   0  0  0  0  0  0  0  0  0  0  0  0
  -21.8067  -41.7595   -5.0811 C   0  0  0  0  0  0  0  0  0  0  0  0
  -23.0725  -41.6429   -5.6113 C   0  0  0  0  0  0  0  0  0  0  0  0
  -23.3577  -40.7889   -6.6558 C   0  0  0  0  0  0  0  0  0  0  0  0
  -22.3228  -40.0161   -7.1923 C   0  0  0  0  0  0  0  0  0  0  0  0
  -21.5716  -42.6999   -3.9560 C   0  0  0  0  0  0  0  0  0  0  0  0
  -22.6586  -43.7739   -3.9466 C   0  0  0  0  0  0  0  0  0  0  0  0
  -21.6685  -41.9630   -2.6339 C   0  0  0  0  0  0  0  0  0  0  0  0
  1  2  1  0
  2  3  1  0
  3  4  1  0
  4  5  2  0
  5  6  1  0
  6  7  2  0
  7  8  1  0
  8  9  2  0
  8 10  1  0
 10 11  2  0
 10 12  1  0
 12 13  1  0
 13 14  1  6
 14 15  1  0
 15 16  1  0
 15 17  2  0
 17 18  1  0
 18 19  1  0
 19 20  1  0
 20 21  1  0
 21 22  1  0
 22 23  1  0
 23 24  1  0
 13 25  1  0
 25 26  1  1
 25 27  1  0
 27 28  1  0
 28 29  1  0
 29 30  1  0
 30 31  1  0
 29 32  1  0
 32 33  2  0
 33 34  1  0
 34 35  2  0
 35 36  1  0
 36 37  2  0
 34 38  1  0
 38 39  1  0
 38 40  1  0
  9  4  1  0
 24  6  1  0
 31 29  1  0
 37 32  1  0
M  END
$$$$
