
     RDKit          3D

 40 43  0  0  0  0  0  0  0  0999 V2000
  -24.9509  -42.1292   -8.9873 C   0  0  0  0  0  0  0  0  0  0  0  0
  -24.0369  -43.0486   -9.4529 O   0  0  0  0  0  0  0  0  0  0  0  0
  -22.9144  -42.4422  -10.0299 C   0  0  0  0  0  0  0  0  0  0  0  0
  -21.7099  -43.0913   -9.4481 C   0  0  0  0  0  0  0  0  0  0  0  0
  -21.1800  -44.2468   -9.9342 C   0  0  0  0  0  0  0  0  0  0  0  0
  -20.0264  -44.8864   -9.3909 C   0  0  0  0  0  0  0  0  0  0  0  0
  -19.3939  -44.3112   -8.3030 C   0  0  0  0  0  0  0  0  0  0  0  0
  -19.9081  -43.1315   -7.7848 C   0  0  0  0  0  0  0  0  0  0  0  0
  -21.0630  -42.5456   -8.3731 C   0  0  0  0  0  0  0  0  0  0  0  0
  -19.4577  -42.2713   -6.6697 C   0  0  0  0  0  0  0  0  0  0  0  0
  -20.4221  -41.8607   -5.8745 O   0  0  0  0  0  0  0  0  0  0  0  0
  -18.1483  -41.8157   -6.3232 N   0  0  0  0  0  0  0  0  0  0  0  0
  -17.1144  -41.4541   -7.2391 C   0  0  1  0  0  0  0  0  0  0  0  0
  -16.4905  -42.6768   -7.9196 C   0  0  0  0  0  0  0  0  0  0  0  0
  -15.0576  -42.5348   -8.1792 C   0  0  0  0  0  0  0  0  0  0  0  0
  -14.2167  -41.6139   -7.3646 C   0  0  0  0  0  0  0  0  0  0  0  0
  -14.5197  -43.2467   -9.1524 C   0  0  0  0  0  0  0  0  0  0  0  0
  -15.1802  -44.1939  -10.0419 C   0  0  0  0  0  0  0  0  0  0  0  0
  -14.8872  -45.5300   -9.7664 O   0  0  0  0  0  0  0  0  0  0  0  0
  -15.7206  -46.3855  -10.5236 C   0  0  0  0  0  0  0  0  0  0  0  0
  -17.0972  -46.3927   -9.8958 C   0  0  0  0  0  0  0  0  0  0  0  0
  -17.8853  -47.6374  -10.1147 C   0  0  0  0  0  0  0  0  0  0  0  0
  -19.3272  -47.3899   -9.7872 C   0  0  0  0  0  0  0  0  0  0  0  0
  -19.7461  -46.0531  -10.1606 N   0  0  0  0  0  0  0  0  0  0  0  0
  -17.5644  -40.5225   -8.3417 C   0  0  2  0  0  0  0  0  0  0  0  0
  -16.5128  -39.9400   -9.0063 O   0  0  0  0  0  0  0  0  0  0  0  0
  -18.4363  -39.4377   -7.7303 C   0  0  0  0  0  0  0  0  0  0  0  0
  -18.9587  -38.6076   -8.7700 N   0  0  0  0  0  0  0  0  0  0  0  0
  -20.2350  -38.0104   -8.4288 C   0  0  0  0  0  0  0  0  0  0  0  0
  -20.9047  -37.2983   -9.6463 C   0  0  0  0  0  0  0  0  0  0  0  0
  -20.3936  -36.5495   -8.4517 C   0  0  0  0  0  0  0  0  0  0  0  0
  -21.1789  -38.8893   -7.6954 C   0  0  0  0  0  0  0  0  0  0  0  0
  -20.9193  -39.3037   -6.4124 C   0  0  0  0  0  0  0  0  0  0  0  0
  -21.7857  -40.1221   -5.7065 C   0  0  0  0  0  0  0  0  0  0  0  0
  -22.9411  -40.5171   -6.3437 C   0  0  0  0  0  0  0  0  0  0  0  0
  -23.2430  -40.1258   -7.6311 C   0  0  0  0  0  0  0  0  0  0  0  0
  -22.3420  -39.2989   -8.3096 C   0  0  0  0  0  0  0  0  0  0  0  0
  -21.5250  -40.5819   -4.3188 C   0  0  0  0  0  0  0  0  0  0  0  0
  -21.8374  -42.0733   -4.2030 C   0  0  0  0  0  0  0  0  0  0  0  0
  -22.4451  -39.8623   -3.3514 C   0  0  0  0  0  0  0  0  0  0  0  0
  1  2  1  0
  2  3  1  0
  3  4  1  0
  4  5  2  0
  5  6  1  0
  6  7  2  0
  7  8  1  0
  8  9  2  0
  8 10  1  0
 10 11  2  0
 10 12  1  0
 12 13  1  0
 13 14  1  6
 14 15  1  0
 15 16  1  0
 15 17  2  0
 17 18  1  0
 18 19  1  0
 19 20  1  0
 20 21  1  0
 21 22  1  0
 22 23  1  0
 23 24  1  0
 13 25  1  0
 25 26  1  1
 25 27  1  0
 27 28  1  0
 28 29  1  0
 29 30  1  0
 30 31  1  0
 29 32  1  0
 32 33  2  0
 33 34  1  0
 34 35  2  0
 35 36  1  0
 36 37  2  0
 34 38  1  0
 38 39  1  0
 38 40  1  0
  9  4  1  0
 24  6  1  0
 31 29  1  0
 37 32  1  0
M  END
$$$$
