
     RDKit          3D

 40 43  0  0  0  0  0  0  0  0999 V2000
  -11.6465  -33.7258  -11.6305 C   0  0  0  0  0  0  0  0  0  0  0  0
  -12.2351  -34.9618  -11.7835 O   0  0  0  0  0  0  0  0  0  0  0  0
  -12.3589  -35.6494  -10.5702 C   0  0  0  0  0  0  0  0  0  0  0  0
  -12.7262  -37.0541  -10.8904 C   0  0  0  0  0  0  0  0  0  0  0  0
  -11.8082  -38.0485  -11.0344 C   0  0  0  0  0  0  0  0  0  0  0  0
  -12.1388  -39.4015  -11.3422 C   0  0  0  0  0  0  0  0  0  0  0  0
  -13.4694  -39.7430  -11.5078 C   0  0  0  0  0  0  0  0  0  0  0  0
  -14.4303  -38.7526  -11.3656 C   0  0  0  0  0  0  0  0  0  0  0  0
  -14.0333  -37.4216  -11.0591 C   0  0  0  0  0  0  0  0  0  0  0  0
  -15.9058  -38.7977  -11.4513 C   0  0  0  0  0  0  0  0  0  0  0  0
  -16.4420  -37.8131  -12.1399 O   0  0  0  0  0  0  0  0  0  0  0  0
  -16.8361  -39.7348  -10.9050 N   0  0  0  0  0  0  0  0  0  0  0  0
  -16.7235  -40.3923   -9.6425 C   0  0  1  0  0  0  0  0  0  0  0  0
  -15.6526  -41.4879   -9.6541 C   0  0  0  0  0  0  0  0  0  0  0  0
  -15.9894  -42.6447   -8.8239 C   0  0  0  0  0  0  0  0  0  0  0  0
  -17.4068  -42.9785   -8.5099 C   0  0  0  0  0  0  0  0  0  0  0  0
  -15.0071  -43.3946   -8.3594 C   0  0  0  0  0  0  0  0  0  0  0  0
  -13.5742  -43.2252   -8.5659 C   0  0  0  0  0  0  0  0  0  0  0  0
  -13.0136  -44.1547   -9.4425 O   0  0  0  0  0  0  0  0  0  0  0  0
  -11.6808  -43.7993   -9.7545 C   0  0  0  0  0  0  0  0  0  0  0  0
  -11.7089  -42.6504  -10.7386 C   0  0  0  0  0  0  0  0  0  0  0  0
  -10.5274  -42.5623  -11.6413 C   0  0  0  0  0  0  0  0  0  0  0  0
  -10.4828  -41.2110  -12.2891 C   0  0  0  0  0  0  0  0  0  0  0  0
  -10.9361  -40.1652  -11.3934 N   0  0  0  0  0  0  0  0  0  0  0  0
  -16.3910  -39.4684   -8.4927 C   0  0  2  0  0  0  0  0  0  0  0  0
  -15.5696  -40.0551   -7.5611 O   0  0  0  0  0  0  0  0  0  0  0  0
  -17.6888  -39.0449   -7.8238 C   0  0  0  0  0  0  0  0  0  0  0  0
  -18.4217  -38.1937   -8.7078 N   0  0  0  0  0  0  0  0  0  0  0  0
  -19.8364  -38.1388   -8.3956 C   0  0  0  0  0  0  0  0  0  0  0  0
  -20.6922  -37.6226   -9.5953 C   0  0  0  0  0  0  0  0  0  0  0  0
  -20.5248  -36.8422   -8.3256 C   0  0  0  0  0  0  0  0  0  0  0  0
  -20.4049  -39.3618   -7.7773 C   0  0  0  0  0  0  0  0  0  0  0  0
  -21.6706  -39.7958   -8.0852 C   0  0  0  0  0  0  0  0  0  0  0  0
  -22.2224  -40.9353   -7.5231 C   0  0  0  0  0  0  0  0  0  0  0  0
  -21.4469  -41.6357   -6.6259 C   0  0  0  0  0  0  0  0  0  0  0  0
  -20.1711  -41.2371   -6.2867 C   0  0  0  0  0  0  0  0  0  0  0  0
  -19.6503  -40.0810   -6.8767 C   0  0  0  0  0  0  0  0  0  0  0  0
  -23.5884  -41.4227   -7.8418 C   0  0  0  0  0  0  0  0  0  0  0  0
  -24.5605  -40.9830   -6.7478 C   0  0  0  0  0  0  0  0  0  0  0  0
  -23.6070  -42.9392   -7.8646 C   0  0  0  0  0  0  0  0  0  0  0  0
  1  2  1  0
  2  3  1  0
  3  4  1  0
  4  5  2  0
  5  6  1  0
  6  7  2  0
  7  8  1  0
  8  9  2  0
  8 10  1  0
 10 11  2  0
 10 12  1  0
 12 13  1  0
 13 14  1  6
 14 15  1  0
 15 16  1  0
 15 17  2  0
 17 18  1  0
 18 19  1  0
 19 20  1  0
 20 21  1  0
 21 22  1  0
 22 23  1  0
 23 24  1  0
 13 25  1  0
 25 26  1  1
 25 27  1  0
 27 28  1  0
 28 29  1  0
 29 30  1  0
 30 31  1  0
 29 32  1  0
 32 33  2  0
 33 34  1  0
 34 35  2  0
 35 36  1  0
 36 37  2  0
 34 38  1  0
 38 39  1  0
 38 40  1  0
  9  4  1  0
 24  6  1  0
 31 29  1  0
 37 32  1  0
M  END
$$$$
