
     RDKit          3D

 40 43  0  0  0  0  0  0  0  0999 V2000
  -20.6116  -36.2456  -13.7713 C   0  0  0  0  0  0  0  0  0  0  0  0
  -20.4021  -36.8723  -12.5627 O   0  0  0  0  0  0  0  0  0  0  0  0
  -19.4900  -36.1836  -11.7538 C   0  0  0  0  0  0  0  0  0  0  0  0
  -18.1795  -36.8758  -11.8722 C   0  0  0  0  0  0  0  0  0  0  0  0
  -17.0889  -36.3085  -12.4563 C   0  0  0  0  0  0  0  0  0  0  0  0
  -15.8235  -36.9548  -12.5811 C   0  0  0  0  0  0  0  0  0  0  0  0
  -15.6765  -38.2375  -12.0833 C   0  0  0  0  0  0  0  0  0  0  0  0
  -16.7690  -38.8433  -11.4800 C   0  0  0  0  0  0  0  0  0  0  0  0
  -18.0040  -38.1437  -11.3889 C   0  0  0  0  0  0  0  0  0  0  0  0
  -16.9268  -40.1662  -10.8383 C   0  0  0  0  0  0  0  0  0  0  0  0
  -18.0298  -40.8033  -11.1675 O   0  0  0  0  0  0  0  0  0  0  0  0
  -16.0767  -40.8564   -9.9201 N   0  0  0  0  0  0  0  0  0  0  0  0
  -15.3026  -40.2591   -8.8796 C   0  0  1  0  0  0  0  0  0  0  0  0
  -14.0804  -39.5124   -9.4235 C   0  0  0  0  0  0  0  0  0  0  0  0
  -12.9103  -39.5889   -8.5484 C   0  0  0  0  0  0  0  0  0  0  0  0
  -12.7405  -40.7159   -7.5893 C   0  0  0  0  0  0  0  0  0  0  0  0
  -11.9995  -38.6365   -8.6291 C   0  0  0  0  0  0  0  0  0  0  0  0
  -11.9955  -37.4705   -9.5038 C   0  0  0  0  0  0  0  0  0  0  0  0
  -11.0801  -37.5522  -10.5536 O   0  0  0  0  0  0  0  0  0  0  0  0
  -11.2822  -36.4939  -11.4697 C   0  0  0  0  0  0  0  0  0  0  0  0
  -12.5061  -36.8075  -12.3020 C   0  0  0  0  0  0  0  0  0  0  0  0
  -12.5158  -36.2046  -13.6639 C   0  0  0  0  0  0  0  0  0  0  0  0
  -13.9006  -36.2626  -14.2354 C   0  0  0  0  0  0  0  0  0  0  0  0
  -14.9150  -36.0608  -13.2196 N   0  0  0  0  0  0  0  0  0  0  0  0
  -16.0707  -39.2761   -8.0252 C   0  0  2  0  0  0  0  0  0  0  0  0
  -15.2589  -38.3376   -7.4363 O   0  0  0  0  0  0  0  0  0  0  0  0
  -16.8099  -40.0505   -6.9459 C   0  0  0  0  0  0  0  0  0  0  0  0
  -18.0763  -40.4777   -7.4525 N   0  0  0  0  0  0  0  0  0  0  0  0
  -19.1106  -39.4717   -7.3098 C   0  0  0  0  0  0  0  0  0  0  0  0
  -18.8753  -38.2388   -8.2386 C   0  0  0  0  0  0  0  0  0  0  0  0
  -18.7838  -38.1553   -6.7440 C   0  0  0  0  0  0  0  0  0  0  0  0
  -20.5057  -39.9725   -7.3735 C   0  0  0  0  0  0  0  0  0  0  0  0
  -21.4170  -39.6752   -6.3905 C   0  0  0  0  0  0  0  0  0  0  0  0
  -22.7253  -40.1289   -6.4286 C   0  0  0  0  0  0  0  0  0  0  0  0
  -23.0934  -40.9047   -7.5054 C   0  0  0  0  0  0  0  0  0  0  0  0
  -22.2121  -41.2286   -8.5154 C   0  0  0  0  0  0  0  0  0  0  0  0
  -20.8999  -40.7505   -8.4397 C   0  0  0  0  0  0  0  0  0  0  0  0
  -23.7270  -39.8194   -5.3769 C   0  0  0  0  0  0  0  0  0  0  0  0
  -24.7427  -40.9572   -5.2821 C   0  0  0  0  0  0  0  0  0  0  0  0
  -24.5000  -38.5681   -5.7476 C   0  0  0  0  0  0  0  0  0  0  0  0
  1  2  1  0
  2  3  1  0
  3  4  1  0
  4  5  2  0
  5  6  1  0
  6  7  2  0
  7  8  1  0
  8  9  2  0
  8 10  1  0
 10 11  2  0
 10 12  1  0
 12 13  1  0
 13 14  1  6
 14 15  1  0
 15 16  1  0
 15 17  2  0
 17 18  1  0
 18 19  1  0
 19 20  1  0
 20 21  1  0
 21 22  1  0
 22 23  1  0
 23 24  1  0
 13 25  1  0
 25 26  1  1
 25 27  1  0
 27 28  1  0
 28 29  1  0
 29 30  1  0
 30 31  1  0
 29 32  1  0
 32 33  2  0
 33 34  1  0
 34 35  2  0
 35 36  1  0
 36 37  2  0
 34 38  1  0
 38 39  1  0
 38 40  1  0
  9  4  1  0
 24  6  1  0
 31 29  1  0
 37 32  1  0
M  END
$$$$
