
     RDKit          3D

 40 43  0  0  0  0  0  0  0  0999 V2000
  -20.4922  -36.0747  -12.5680 C   0  0  0  0  0  0  0  0  0  0  0  0
  -19.6101  -35.1050  -12.1450 O   0  0  0  0  0  0  0  0  0  0  0  0
  -19.0149  -35.4215  -10.9178 C   0  0  0  0  0  0  0  0  0  0  0  0
  -17.9203  -36.3899  -11.1910 C   0  0  0  0  0  0  0  0  0  0  0  0
  -16.7705  -36.0502  -11.8352 C   0  0  0  0  0  0  0  0  0  0  0  0
  -15.7089  -36.9631  -12.1081 C   0  0  0  0  0  0  0  0  0  0  0  0
  -15.8380  -38.2789  -11.7000 C   0  0  0  0  0  0  0  0  0  0  0  0
  -16.9975  -38.6570  -11.0388 C   0  0  0  0  0  0  0  0  0  0  0  0
  -18.0192  -37.6970  -10.7990 C   0  0  0  0  0  0  0  0  0  0  0  0
  -17.4209  -39.9516  -10.4632 C   0  0  0  0  0  0  0  0  0  0  0  0
  -18.6651  -40.2856  -10.7302 O   0  0  0  0  0  0  0  0  0  0  0  0
  -16.6971  -40.8901   -9.6649 N   0  0  0  0  0  0  0  0  0  0  0  0
  -15.7297  -40.5725   -8.6639 C   0  0  1  0  0  0  0  0  0  0  0  0
  -14.4066  -40.0928   -9.2693 C   0  0  0  0  0  0  0  0  0  0  0  0
  -13.2291  -40.5081   -8.5066 C   0  0  0  0  0  0  0  0  0  0  0  0
  -13.2656  -41.7139   -7.6328 C   0  0  0  0  0  0  0  0  0  0  0  0
  -12.1250  -39.7919   -8.6120 C   0  0  0  0  0  0  0  0  0  0  0  0
  -11.9048  -38.5954   -9.4149 C   0  0  0  0  0  0  0  0  0  0  0  0
  -11.1135  -38.8079  -10.5443 O   0  0  0  0  0  0  0  0  0  0  0  0
  -11.1216  -37.6643  -11.3763 C   0  0  0  0  0  0  0  0  0  0  0  0
  -12.4416  -37.6179  -12.1143 C   0  0  0  0  0  0  0  0  0  0  0  0
  -12.4045  -36.9264  -13.4330 C   0  0  0  0  0  0  0  0  0  0  0  0
  -13.8003  -36.6147  -13.8826 C   0  0  0  0  0  0  0  0  0  0  0  0
  -14.6612  -36.2599  -12.7714 N   0  0  0  0  0  0  0  0  0  0  0  0
  -16.1767  -39.5059   -7.6898 C   0  0  2  0  0  0  0  0  0  0  0  0
  -15.5557  -39.6086   -6.4688 O   0  0  0  0  0  0  0  0  0  0  0  0
  -17.6804  -39.6248   -7.5013 C   0  0  0  0  0  0  0  0  0  0  0  0
  -18.2379  -38.3233   -7.3058 N   0  0  0  0  0  0  0  0  0  0  0  0
  -19.6169  -38.3604   -6.8597 C   0  0  0  0  0  0  0  0  0  0  0  0
  -20.2852  -36.9493   -6.8703 C   0  0  0  0  0  0  0  0  0  0  0  0
  -20.0022  -37.7011   -5.6039 C   0  0  0  0  0  0  0  0  0  0  0  0
  -20.4685  -39.3968   -7.4937 C   0  0  0  0  0  0  0  0  0  0  0  0
  -21.0068  -40.4255   -6.7608 C   0  0  0  0  0  0  0  0  0  0  0  0
  -21.8065  -41.4034   -7.3293 C   0  0  0  0  0  0  0  0  0  0  0  0
  -22.0510  -41.3117   -8.6815 C   0  0  0  0  0  0  0  0  0  0  0  0
  -21.5314  -40.2965   -9.4569 C   0  0  0  0  0  0  0  0  0  0  0  0
  -20.7288  -39.3285   -8.8447 C   0  0  0  0  0  0  0  0  0  0  0  0
  -22.3988  -42.5242   -6.5558 C   0  0  0  0  0  0  0  0  0  0  0  0
  -22.0925  -42.3430   -5.0697 C   0  0  0  0  0  0  0  0  0  0  0  0
  -21.7691  -43.8375   -6.9789 C   0  0  0  0  0  0  0  0  0  0  0  0
  1  2  1  0
  2  3  1  0
  3  4  1  0
  4  5  2  0
  5  6  1  0
  6  7  2  0
  7  8  1  0
  8  9  2  0
  8 10  1  0
 10 11  2  0
 10 12  1  0
 12 13  1  0
 13 14  1  6
 14 15  1  0
 15 16  1  0
 15 17  2  0
 17 18  1  0
 18 19  1  0
 19 20  1  0
 20 21  1  0
 21 22  1  0
 22 23  1  0
 23 24  1  0
 13 25  1  0
 25 26  1  1
 25 27  1  0
 27 28  1  0
 28 29  1  0
 29 30  1  0
 30 31  1  0
 29 32  1  0
 32 33  2  0
 33 34  1  0
 34 35  2  0
 35 36  1  0
 36 37  2  0
 34 38  1  0
 38 39  1  0
 38 40  1  0
  9  4  1  0
 24  6  1  0
 31 29  1  0
 37 32  1  0
M  END
$$$$
