
     RDKit          3D

 40 43  0  0  0  0  0  0  0  0999 V2000
  -20.9555  -46.7284   -7.9974 C   0  0  0  0  0  0  0  0  0  0  0  0
  -20.0826  -45.7341   -7.6142 O   0  0  0  0  0  0  0  0  0  0  0  0
  -19.8823  -44.7809   -8.6200 C   0  0  0  0  0  0  0  0  0  0  0  0
  -18.4660  -44.3362   -8.5358 C   0  0  0  0  0  0  0  0  0  0  0  0
  -17.4785  -44.8464   -9.3212 C   0  0  0  0  0  0  0  0  0  0  0  0
  -16.1142  -44.4350   -9.2561 C   0  0  0  0  0  0  0  0  0  0  0  0
  -15.7538  -43.4581   -8.3449 C   0  0  0  0  0  0  0  0  0  0  0  0
  -16.7376  -42.9160   -7.5307 C   0  0  0  0  0  0  0  0  0  0  0  0
  -18.0801  -43.3719   -7.6453 C   0  0  0  0  0  0  0  0  0  0  0  0
  -16.6837  -41.8600   -6.4970 C   0  0  0  0  0  0  0  0  0  0  0  0
  -17.3421  -42.1434   -5.3938 O   0  0  0  0  0  0  0  0  0  0  0  0
  -16.0357  -40.5864   -6.5085 N   0  0  0  0  0  0  0  0  0  0  0  0
  -15.9030  -39.7209   -7.6363 C   0  0  1  0  0  0  0  0  0  0  0  0
  -14.8698  -40.2367   -8.6431 C   0  0  0  0  0  0  0  0  0  0  0  0
  -14.1175  -39.1721   -9.3076 C   0  0  0  0  0  0  0  0  0  0  0  0
  -13.9468  -37.8376   -8.6681 C   0  0  0  0  0  0  0  0  0  0  0  0
  -13.5854  -39.4198  -10.4902 C   0  0  0  0  0  0  0  0  0  0  0  0
  -13.6444  -40.6566  -11.2594 C   0  0  0  0  0  0  0  0  0  0  0  0
  -12.4448  -41.3688  -11.2813 O   0  0  0  0  0  0  0  0  0  0  0  0
  -12.6375  -42.6448  -11.8597 C   0  0  0  0  0  0  0  0  0  0  0  0
  -13.3292  -43.5308  -10.8469 C   0  0  0  0  0  0  0  0  0  0  0  0
  -13.0532  -44.9875  -10.9885 C   0  0  0  0  0  0  0  0  0  0  0  0
  -14.0583  -45.7739  -10.2018 C   0  0  0  0  0  0  0  0  0  0  0  0
  -15.3714  -45.1602  -10.2332 N   0  0  0  0  0  0  0  0  0  0  0  0
  -17.1884  -39.5032   -8.4022 C   0  0  2  0  0  0  0  0  0  0  0  0
  -17.0122  -38.7346   -9.5269 O   0  0  0  0  0  0  0  0  0  0  0  0
  -18.1894  -38.8249   -7.4808 C   0  0  0  0  0  0  0  0  0  0  0  0
  -19.2169  -39.7548   -7.1307 N   0  0  0  0  0  0  0  0  0  0  0  0
  -20.5500  -39.2007   -7.2641 C   0  0  0  0  0  0  0  0  0  0  0  0
  -20.9317  -38.9172   -8.7514 C   0  0  0  0  0  0  0  0  0  0  0  0
  -20.7299  -37.8237   -7.7451 C   0  0  0  0  0  0  0  0  0  0  0  0
  -21.6202  -39.9203   -6.5305 C   0  0  0  0  0  0  0  0  0  0  0  0
  -22.9131  -39.4584   -6.5188 C   0  0  0  0  0  0  0  0  0  0  0  0
  -23.9298  -40.1135   -5.8434 C   0  0  0  0  0  0  0  0  0  0  0  0
  -23.5982  -41.2673   -5.1684 C   0  0  0  0  0  0  0  0  0  0  0  0
  -22.3133  -41.7679   -5.1524 C   0  0  0  0  0  0  0  0  0  0  0  0
  -21.3154  -41.0769   -5.8472 C   0  0  0  0  0  0  0  0  0  0  0  0
  -25.3344  -39.6321   -5.8176 C   0  0  0  0  0  0  0  0  0  0  0  0
  -25.6116  -38.9229   -4.4927 C   0  0  0  0  0  0  0  0  0  0  0  0
  -26.2885  -40.8085   -5.8961 C   0  0  0  0  0  0  0  0  0  0  0  0
  1  2  1  0
  2  3  1  0
  3  4  1  0
  4  5  2  0
  5  6  1  0
  6  7  2  0
  7  8  1  0
  8  9  2  0
  8 10  1  0
 10 11  2  0
 10 12  1  0
 12 13  1  0
 13 14  1  6
 14 15  1  0
 15 16  1  0
 15 17  2  0
 17 18  1  0
 18 19  1  0
 19 20  1  0
 20 21  1  0
 21 22  1  0
 22 23  1  0
 23 24  1  0
 13 25  1  0
 25 26  1  6
 25 27  1  0
 27 28  1  0
 28 29  1  0
 29 30  1  0
 30 31  1  0
 29 32  1  0
 32 33  2  0
 33 34  1  0
 34 35  2  0
 35 36  1  0
 36 37  2  0
 34 38  1  0
 38 39  1  0
 38 40  1  0
  9  4  1  0
 24  6  1  0
 31 29  1  0
 37 32  1  0
M  END
$$$$
