
     RDKit          3D

 40 43  0  0  0  0  0  0  0  0999 V2000
  -17.3568  -48.2193   -8.8120 C   0  0  0  0  0  0  0  0  0  0  0  0
  -17.0917  -46.9435   -9.2588 O   0  0  0  0  0  0  0  0  0  0  0  0
  -16.8857  -46.0407   -8.2085 C   0  0  0  0  0  0  0  0  0  0  0  0
  -18.0395  -45.1031   -8.1951 C   0  0  0  0  0  0  0  0  0  0  0  0
  -19.1128  -45.2565   -7.3724 C   0  0  0  0  0  0  0  0  0  0  0  0
  -20.2299  -44.3699   -7.3441 C   0  0  0  0  0  0  0  0  0  0  0  0
  -20.2405  -43.2813   -8.1980 C   0  0  0  0  0  0  0  0  0  0  0  0
  -19.1601  -43.0954   -9.0482 C   0  0  0  0  0  0  0  0  0  0  0  0
  -18.0777  -44.0179   -9.0274 C   0  0  0  0  0  0  0  0  0  0  0  0
  -18.8619  -42.0392  -10.0392 C   0  0  0  0  0  0  0  0  0  0  0  0
  -18.4004  -42.4846  -11.1879 O   0  0  0  0  0  0  0  0  0  0  0  0
  -18.9923  -40.6192   -9.9456 N   0  0  0  0  0  0  0  0  0  0  0  0
  -18.7498  -39.8277   -8.7822 C   0  0  1  0  0  0  0  0  0  0  0  0
  -19.8586  -39.9815   -7.7362 C   0  0  0  0  0  0  0  0  0  0  0  0
  -20.1364  -38.7525   -6.9924 C   0  0  0  0  0  0  0  0  0  0  0  0
  -19.8278  -37.4162   -7.5737 C   0  0  0  0  0  0  0  0  0  0  0  0
  -20.6737  -38.8510   -5.7905 C   0  0  0  0  0  0  0  0  0  0  0  0
  -21.0447  -40.0625   -5.0699 C   0  0  0  0  0  0  0  0  0  0  0  0
  -22.4206  -40.2844   -5.0038 O   0  0  0  0  0  0  0  0  0  0  0  0
  -22.6897  -41.5712   -4.4827 C   0  0  0  0  0  0  0  0  0  0  0  0
  -22.4163  -42.5933   -5.5643 C   0  0  0  0  0  0  0  0  0  0  0  0
  -23.2051  -43.8522   -5.4583 C   0  0  0  0  0  0  0  0  0  0  0  0
  -22.5947  -44.9090   -6.3289 C   0  0  0  0  0  0  0  0  0  0  0  0
  -21.1477  -44.8232   -6.3518 N   0  0  0  0  0  0  0  0  0  0  0  0
  -17.4449  -40.1390   -8.0848 C   0  0  2  0  0  0  0  0  0  0  0  0
  -17.4645  -39.8105   -6.7511 O   0  0  0  0  0  0  0  0  0  0  0  0
  -16.3325  -39.3677   -8.7767 C   0  0  0  0  0  0  0  0  0  0  0  0
  -15.7217  -40.2009   -9.7644 N   0  0  0  0  0  0  0  0  0  0  0  0
  -14.7106  -39.5095  -10.5401 C   0  0  0  0  0  0  0  0  0  0  0  0
  -13.8034  -40.4911  -11.3472 C   0  0  0  0  0  0  0  0  0  0  0  0
  -13.2887  -39.6683  -10.2039 C   0  0  0  0  0  0  0  0  0  0  0  0
  -15.1985  -38.3778  -11.3663 C   0  0  0  0  0  0  0  0  0  0  0  0
  -15.2619  -37.1016  -10.8639 C   0  0  0  0  0  0  0  0  0  0  0  0
  -15.7115  -36.0287  -11.6160 C   0  0  0  0  0  0  0  0  0  0  0  0
  -16.1020  -36.2854  -12.9116 C   0  0  0  0  0  0  0  0  0  0  0  0
  -16.0556  -37.5508  -13.4579 C   0  0  0  0  0  0  0  0  0  0  0  0
  -15.5952  -38.6072  -12.6654 C   0  0  0  0  0  0  0  0  0  0  0  0
  -15.7882  -34.6410  -11.0930 C   0  0  0  0  0  0  0  0  0  0  0  0
  -16.3396  -33.7127  -12.1744 C   0  0  0  0  0  0  0  0  0  0  0  0
  -14.3996  -34.1386  -10.7468 C   0  0  0  0  0  0  0  0  0  0  0  0
  1  2  1  0
  2  3  1  0
  3  4  1  0
  4  5  2  0
  5  6  1  0
  6  7  2  0
  7  8  1  0
  8  9  2  0
  8 10  1  0
 10 11  2  0
 10 12  1  0
 12 13  1  0
 13 14  1  1
 14 15  1  0
 15 16  1  0
 15 17  2  0
 17 18  1  0
 18 19  1  0
 19 20  1  0
 20 21  1  0
 21 22  1  0
 22 23  1  0
 23 24  1  0
 13 25  1  0
 25 26  1  1
 25 27  1  0
 27 28  1  0
 28 29  1  0
 29 30  1  0
 30 31  1  0
 29 32  1  0
 32 33  2  0
 33 34  1  0
 34 35  2  0
 35 36  1  0
 36 37  2  0
 34 38  1  0
 38 39  1  0
 38 40  1  0
  9  4  1  0
 24  6  1  0
 31 29  1  0
 37 32  1  0
M  END
$$$$
