
     RDKit          3D

 40 43  0  0  0  0  0  0  0  0999 V2000
  -20.7456  -35.5975  -10.0478 C   0  0  0  0  0  0  0  0  0  0  0  0
  -19.7925  -35.5547  -11.0414 O   0  0  0  0  0  0  0  0  0  0  0  0
  -19.8574  -36.6640  -11.8932 C   0  0  0  0  0  0  0  0  0  0  0  0
  -18.5486  -37.3648  -11.8116 C   0  0  0  0  0  0  0  0  0  0  0  0
  -17.4514  -36.9754  -12.5164 C   0  0  0  0  0  0  0  0  0  0  0  0
  -16.1874  -37.6336  -12.4534 C   0  0  0  0  0  0  0  0  0  0  0  0
  -16.0493  -38.7373  -11.6305 C   0  0  0  0  0  0  0  0  0  0  0  0
  -17.1487  -39.1587  -10.8969 C   0  0  0  0  0  0  0  0  0  0  0  0
  -18.3818  -38.4582  -11.0062 C   0  0  0  0  0  0  0  0  0  0  0  0
  -17.3166  -40.2623   -9.9272 C   0  0  0  0  0  0  0  0  0  0  0  0
  -18.4194  -40.9624  -10.0841 O   0  0  0  0  0  0  0  0  0  0  0  0
  -16.4764  -40.6841   -8.8510 N   0  0  0  0  0  0  0  0  0  0  0  0
  -15.7082  -39.8322   -8.0007 C   0  0  1  0  0  0  0  0  0  0  0  0
  -14.4789  -39.2594   -8.7135 C   0  0  0  0  0  0  0  0  0  0  0  0
  -13.3160  -39.1017   -7.8397 C   0  0  0  0  0  0  0  0  0  0  0  0
  -13.1581  -39.9324   -6.6134 C   0  0  0  0  0  0  0  0  0  0  0  0
  -12.4011  -38.2066   -8.1634 C   0  0  0  0  0  0  0  0  0  0  0  0
  -12.3857  -37.3161   -9.3173 C   0  0  0  0  0  0  0  0  0  0  0  0
  -11.4624  -37.6761  -10.2995 O   0  0  0  0  0  0  0  0  0  0  0  0
  -11.6534  -36.9000  -11.4662 C   0  0  0  0  0  0  0  0  0  0  0  0
  -12.8718  -37.4223  -12.1953 C   0  0  0  0  0  0  0  0  0  0  0  0
  -12.8685  -37.2043  -13.6686 C   0  0  0  0  0  0  0  0  0  0  0  0
  -14.2490  -37.4104  -14.2158 C   0  0  0  0  0  0  0  0  0  0  0  0
  -15.2706  -36.9435  -13.2993 N   0  0  0  0  0  0  0  0  0  0  0  0
  -16.4792  -38.6559   -7.4459 C   0  0  2  0  0  0  0  0  0  0  0  0
  -15.7608  -37.9398   -6.5196 O   0  0  0  0  0  0  0  0  0  0  0  0
  -17.7541  -39.1759   -6.8015 C   0  0  0  0  0  0  0  0  0  0  0  0
  -18.8103  -38.2369   -7.0154 N   0  0  0  0  0  0  0  0  0  0  0  0
  -19.9942  -38.5299   -6.2316 C   0  0  0  0  0  0  0  0  0  0  0  0
  -20.5809  -37.2591   -5.5396 C   0  0  0  0  0  0  0  0  0  0  0  0
  -19.9627  -38.3875   -4.7692 C   0  0  0  0  0  0  0  0  0  0  0  0
  -21.0351  -39.3342   -6.9180 C   0  0  0  0  0  0  0  0  0  0  0  0
  -21.4512  -40.5424   -6.4157 C   0  0  0  0  0  0  0  0  0  0  0  0
  -22.4224  -41.3102   -7.0368 C   0  0  0  0  0  0  0  0  0  0  0  0
  -22.9707  -40.8154   -8.1993 C   0  0  0  0  0  0  0  0  0  0  0  0
  -22.5835  -39.6075   -8.7404 C   0  0  0  0  0  0  0  0  0  0  0  0
  -21.5998  -38.8622   -8.0824 C   0  0  0  0  0  0  0  0  0  0  0  0
  -22.8873  -42.6190   -6.5112 C   0  0  0  0  0  0  0  0  0  0  0  0
  -22.6896  -42.6654   -4.9966 C   0  0  0  0  0  0  0  0  0  0  0  0
  -22.0534  -43.7411   -7.0993 C   0  0  0  0  0  0  0  0  0  0  0  0
  1  2  1  0
  2  3  1  0
  3  4  1  0
  4  5  2  0
  5  6  1  0
  6  7  2  0
  7  8  1  0
  8  9  2  0
  8 10  1  0
 10 11  2  0
 10 12  1  0
 12 13  1  0
 13 14  1  6
 14 15  1  0
 15 16  1  0
 15 17  2  0
 17 18  1  0
 18 19  1  0
 19 20  1  0
 20 21  1  0
 21 22  1  0
 22 23  1  0
 23 24  1  0
 13 25  1  0
 25 26  1  1
 25 27  1  0
 27 28  1  0
 28 29  1  0
 29 30  1  0
 30 31  1  0
 29 32  1  0
 32 33  2  0
 33 34  1  0
 34 35  2  0
 35 36  1  0
 36 37  2  0
 34 38  1  0
 38 39  1  0
 38 40  1  0
  9  4  1  0
 24  6  1  0
 31 29  1  0
 37 32  1  0
M  END
$$$$
