
     RDKit          3D

 40 43  0  0  0  0  0  0  0  0999 V2000
  -20.7303  -37.3846  -14.5855 C   0  0  0  0  0  0  0  0  0  0  0  0
  -20.3838  -37.0613  -13.2921 O   0  0  0  0  0  0  0  0  0  0  0  0
  -19.2897  -36.1896  -13.2331 C   0  0  0  0  0  0  0  0  0  0  0  0
  -18.0978  -36.9963  -12.8602 C   0  0  0  0  0  0  0  0  0  0  0  0
  -16.8361  -36.6920  -13.2699 C   0  0  0  0  0  0  0  0  0  0  0  0
  -15.6797  -37.4525  -12.9247 C   0  0  0  0  0  0  0  0  0  0  0  0
  -15.8302  -38.5713  -12.1247 C   0  0  0  0  0  0  0  0  0  0  0  0
  -17.1035  -38.9076  -11.6885 C   0  0  0  0  0  0  0  0  0  0  0  0
  -18.2156  -38.1071  -12.0701 C   0  0  0  0  0  0  0  0  0  0  0  0
  -17.5855  -40.0025  -10.8194 C   0  0  0  0  0  0  0  0  0  0  0  0
  -18.6688  -40.6081  -11.2562 O   0  0  0  0  0  0  0  0  0  0  0  0
  -17.0652  -40.5018   -9.5857 N   0  0  0  0  0  0  0  0  0  0  0  0
  -16.4611  -39.7238   -8.5520 C   0  0  1  0  0  0  0  0  0  0  0  0
  -15.0555  -39.2475   -8.9325 C   0  0  0  0  0  0  0  0  0  0  0  0
  -14.1292  -39.1939   -7.8012 C   0  0  0  0  0  0  0  0  0  0  0  0
  -14.3367  -40.0460   -6.5972 C   0  0  0  0  0  0  0  0  0  0  0  0
  -13.0965  -38.3742   -7.8704 C   0  0  0  0  0  0  0  0  0  0  0  0
  -12.7342  -37.4774   -8.9609 C   0  0  0  0  0  0  0  0  0  0  0  0
  -11.6320  -37.9031   -9.7030 O   0  0  0  0  0  0  0  0  0  0  0  0
  -11.4749  -37.1033  -10.8586 C   0  0  0  0  0  0  0  0  0  0  0  0
  -12.5182  -37.5170  -11.8733 C   0  0  0  0  0  0  0  0  0  0  0  0
  -12.1426  -37.2865  -13.2960 C   0  0  0  0  0  0  0  0  0  0  0  0
  -13.3620  -37.3733  -14.1639 C   0  0  0  0  0  0  0  0  0  0  0  0
  -14.5352  -36.8324  -13.5060 N   0  0  0  0  0  0  0  0  0  0  0  0
  -17.2495  -38.4931   -8.1647 C   0  0  2  0  0  0  0  0  0  0  0  0
  -16.5478  -37.6528   -7.3350 O   0  0  0  0  0  0  0  0  0  0  0  0
  -18.5257  -38.9376   -7.4684 C   0  0  0  0  0  0  0  0  0  0  0  0
  -19.3426  -39.6600   -8.3923 N   0  0  0  0  0  0  0  0  0  0  0  0
  -20.7437  -39.6704   -8.0195 C   0  0  0  0  0  0  0  0  0  0  0  0
  -21.5848  -40.6573   -8.8893 C   0  0  0  0  0  0  0  0  0  0  0  0
  -21.7584  -39.1693   -8.9571 C   0  0  0  0  0  0  0  0  0  0  0  0
  -21.0205  -39.8145   -6.5690 C   0  0  0  0  0  0  0  0  0  0  0  0
  -21.6143  -40.9447   -6.0638 C   0  0  0  0  0  0  0  0  0  0  0  0
  -21.8809  -41.1035   -4.7138 C   0  0  0  0  0  0  0  0  0  0  0  0
  -21.5253  -40.0712   -3.8743 C   0  0  0  0  0  0  0  0  0  0  0  0
  -20.9273  -38.9180   -4.3372 C   0  0  0  0  0  0  0  0  0  0  0  0
  -20.6748  -38.7967   -5.7074 C   0  0  0  0  0  0  0  0  0  0  0  0
  -22.5217  -42.3168   -4.1460 C   0  0  0  0  0  0  0  0  0  0  0  0
  -21.5378  -43.4853   -4.1852 C   0  0  0  0  0  0  0  0  0  0  0  0
  -23.7159  -42.7175   -4.9909 C   0  0  0  0  0  0  0  0  0  0  0  0
  1  2  1  0
  2  3  1  0
  3  4  1  0
  4  5  2  0
  5  6  1  0
  6  7  2  0
  7  8  1  0
  8  9  2  0
  8 10  1  0
 10 11  2  0
 10 12  1  0
 12 13  1  0
 13 14  1  6
 14 15  1  0
 15 16  1  0
 15 17  2  0
 17 18  1  0
 18 19  1  0
 19 20  1  0
 20 21  1  0
 21 22  1  0
 22 23  1  0
 23 24  1  0
 13 25  1  0
 25 26  1  1
 25 27  1  0
 27 28  1  0
 28 29  1  0
 29 30  1  0
 30 31  1  0
 29 32  1  0
 32 33  2  0
 33 34  1  0
 34 35  2  0
 35 36  1  0
 36 37  2  0
 34 38  1  0
 38 39  1  0
 38 40  1  0
  9  4  1  0
 24  6  1  0
 31 29  1  0
 37 32  1  0
M  END
$$$$
