
     RDKit          3D

 40 43  0  0  0  0  0  0  0  0999 V2000
  -20.5822  -40.1295  -14.4304 C   0  0  0  0  0  0  0  0  0  0  0  0
  -19.8908  -40.0103  -13.2450 O   0  0  0  0  0  0  0  0  0  0  0  0
  -20.0639  -41.1213  -12.4105 C   0  0  0  0  0  0  0  0  0  0  0  0
  -18.7356  -41.4537  -11.8312 C   0  0  0  0  0  0  0  0  0  0  0  0
  -17.6289  -41.6801  -12.5903 C   0  0  0  0  0  0  0  0  0  0  0  0
  -16.3461  -42.0011  -12.0553 C   0  0  0  0  0  0  0  0  0  0  0  0
  -16.1985  -42.0919  -10.6825 C   0  0  0  0  0  0  0  0  0  0  0  0
  -17.3074  -41.8648   -9.8804 C   0  0  0  0  0  0  0  0  0  0  0  0
  -18.5591  -41.5498  -10.4778 C   0  0  0  0  0  0  0  0  0  0  0  0
  -17.4705  -41.8593   -8.4107 C   0  0  0  0  0  0  0  0  0  0  0  0
  -18.5428  -42.4877   -7.9792 O   0  0  0  0  0  0  0  0  0  0  0  0
  -16.6536  -41.2799   -7.3913 N   0  0  0  0  0  0  0  0  0  0  0  0
  -15.9443  -40.0442   -7.4837 C   0  0  1  0  0  0  0  0  0  0  0  0
  -14.7117  -40.1506   -8.3873 C   0  0  0  0  0  0  0  0  0  0  0  0
  -13.5853  -39.3308   -7.9401 C   0  0  0  0  0  0  0  0  0  0  0  0
  -13.4410  -38.9375   -6.5106 C   0  0  0  0  0  0  0  0  0  0  0  0
  -12.6909  -38.9479   -8.8325 C   0  0  0  0  0  0  0  0  0  0  0  0
  -12.6665  -39.2390  -10.2606 C   0  0  0  0  0  0  0  0  0  0  0  0
  -11.6986  -40.1724  -10.6328 O   0  0  0  0  0  0  0  0  0  0  0  0
  -11.8759  -40.5579  -11.9818 C   0  0  0  0  0  0  0  0  0  0  0  0
  -13.0503  -41.5087  -12.0583 C   0  0  0  0  0  0  0  0  0  0  0  0
  -13.0042  -42.4808  -13.1858 C   0  0  0  0  0  0  0  0  0  0  0  0
  -14.3574  -43.0955  -13.3823 C   0  0  0  0  0  0  0  0  0  0  0  0
  -15.4250  -42.1468  -13.1336 N   0  0  0  0  0  0  0  0  0  0  0  0
  -16.7735  -38.8942   -8.0093 C   0  0  2  0  0  0  0  0  0  0  0  0
  -16.2151  -37.6692   -7.7363 O   0  0  0  0  0  0  0  0  0  0  0  0
  -18.1552  -38.9690   -7.3799 C   0  0  0  0  0  0  0  0  0  0  0  0
  -19.1223  -39.2557   -8.3925 N   0  0  0  0  0  0  0  0  0  0  0  0
  -20.4786  -38.9500   -7.9814 C   0  0  0  0  0  0  0  0  0  0  0  0
  -21.5462  -39.6047   -8.9139 C   0  0  0  0  0  0  0  0  0  0  0  0
  -21.3383  -38.1214   -8.8384 C   0  0  0  0  0  0  0  0  0  0  0  0
  -20.7757  -39.1600   -6.5430 C   0  0  0  0  0  0  0  0  0  0  0  0
  -21.5713  -40.1967   -6.1218 C   0  0  0  0  0  0  0  0  0  0  0  0
  -21.8612  -40.4147   -4.7849 C   0  0  0  0  0  0  0  0  0  0  0  0
  -21.3162  -39.5413   -3.8701 C   0  0  0  0  0  0  0  0  0  0  0  0
  -20.5121  -38.4864   -4.2473 C   0  0  0  0  0  0  0  0  0  0  0  0
  -20.2431  -38.3008   -5.6072 C   0  0  0  0  0  0  0  0  0  0  0  0
  -22.7187  -41.5292   -4.3074 C   0  0  0  0  0  0  0  0  0  0  0  0
  -21.8729  -42.7891   -4.1271 C   0  0  0  0  0  0  0  0  0  0  0  0
  -23.7762  -41.8528   -5.3453 C   0  0  0  0  0  0  0  0  0  0  0  0
  1  2  1  0
  2  3  1  0
  3  4  1  0
  4  5  2  0
  5  6  1  0
  6  7  2  0
  7  8  1  0
  8  9  2  0
  8 10  1  0
 10 11  2  0
 10 12  1  0
 12 13  1  0
 13 14  1  6
 14 15  1  0
 15 16  1  0
 15 17  2  0
 17 18  1  0
 18 19  1  0
 19 20  1  0
 20 21  1  0
 21 22  1  0
 22 23  1  0
 23 24  1  0
 13 25  1  0
 25 26  1  1
 25 27  1  0
 27 28  1  0
 28 29  1  0
 29 30  1  0
 30 31  1  0
 29 32  1  0
 32 33  2  0
 33 34  1  0
 34 35  2  0
 35 36  1  0
 36 37  2  0
 34 38  1  0
 38 39  1  0
 38 40  1  0
  9  4  1  0
 24  6  1  0
 31 29  1  0
 37 32  1  0
M  END
$$$$
