
     RDKit          3D

 40 43  0  0  0  0  0  0  0  0999 V2000
  -20.5428  -44.6567  -12.4209 C   0  0  0  0  0  0  0  0  0  0  0  0
  -19.2952  -44.0944  -12.5785 O   0  0  0  0  0  0  0  0  0  0  0  0
  -18.2725  -44.9149  -12.0876 C   0  0  0  0  0  0  0  0  0  0  0  0
  -17.3986  -44.0715  -11.2299 C   0  0  0  0  0  0  0  0  0  0  0  0
  -16.1386  -43.7020  -11.5880 C   0  0  0  0  0  0  0  0  0  0  0  0
  -15.2836  -42.8948  -10.7805 C   0  0  0  0  0  0  0  0  0  0  0  0
  -15.7466  -42.4504   -9.5546 C   0  0  0  0  0  0  0  0  0  0  0  0
  -17.0279  -42.8081   -9.1609 C   0  0  0  0  0  0  0  0  0  0  0  0
  -17.8292  -43.6170  -10.0134 C   0  0  0  0  0  0  0  0  0  0  0  0
  -17.8096  -42.4797   -7.9494 C   0  0  0  0  0  0  0  0  0  0  0  0
  -18.4487  -43.5006   -7.4200 O   0  0  0  0  0  0  0  0  0  0  0  0
  -17.9818  -41.2351   -7.2686 N   0  0  0  0  0  0  0  0  0  0  0  0
  -18.0763  -39.9484   -7.8804 C   0  0  1  0  0  0  0  0  0  0  0  0
  -16.7234  -39.4556   -8.4037 C   0  0  0  0  0  0  0  0  0  0  0  0
  -16.5408  -38.0089   -8.2835 C   0  0  0  0  0  0  0  0  0  0  0  0
  -17.2858  -37.2227   -7.2609 C   0  0  0  0  0  0  0  0  0  0  0  0
  -15.6941  -37.4103   -9.1008 C   0  0  0  0  0  0  0  0  0  0  0  0
  -14.8815  -38.0132  -10.1501 C   0  0  0  0  0  0  0  0  0  0  0  0
  -13.5247  -38.1007   -9.8370 O   0  0  0  0  0  0  0  0  0  0  0  0
  -12.8439  -38.8801  -10.8009 C   0  0  0  0  0  0  0  0  0  0  0  0
  -13.1591  -40.3381  -10.5480 C   0  0  0  0  0  0  0  0  0  0  0  0
  -12.1085  -41.2976  -10.9884 C   0  0  0  0  0  0  0  0  0  0  0  0
  -12.6753  -42.6846  -11.0371 C   0  0  0  0  0  0  0  0  0  0  0  0
  -14.0567  -42.6905  -11.4770 N   0  0  0  0  0  0  0  0  0  0  0  0
  -19.0428  -39.8864   -9.0415 C   0  0  2  0  0  0  0  0  0  0  0  0
  -18.6098  -39.0587  -10.0486 O   0  0  0  0  0  0  0  0  0  0  0  0
  -20.3847  -39.3921   -8.5259 C   0  0  0  0  0  0  0  0  0  0  0  0
  -21.4111  -39.7549   -9.4521 N   0  0  0  0  0  0  0  0  0  0  0  0
  -22.6294  -40.1957   -8.8015 C   0  0  0  0  0  0  0  0  0  0  0  0
  -23.1590  -41.5461   -9.3795 C   0  0  0  0  0  0  0  0  0  0  0  0
  -23.8893  -40.2482   -9.5564 C   0  0  0  0  0  0  0  0  0  0  0  0
  -22.6050  -40.1837   -7.3181 C   0  0  0  0  0  0  0  0  0  0  0  0
  -21.5395  -39.6642   -6.6253 C   0  0  0  0  0  0  0  0  0  0  0  0
  -21.4944  -39.6396   -5.2410 C   0  0  0  0  0  0  0  0  0  0  0  0
  -22.5737  -40.1635   -4.5648 C   0  0  0  0  0  0  0  0  0  0  0  0
  -23.6650  -40.6957   -5.2187 C   0  0  0  0  0  0  0  0  0  0  0  0
  -23.6719  -40.7015   -6.6172 C   0  0  0  0  0  0  0  0  0  0  0  0
  -20.3527  -39.0828   -4.4718 C   0  0  0  0  0  0  0  0  0  0  0  0
  -19.2911  -40.1634   -4.2706 C   0  0  0  0  0  0  0  0  0  0  0  0
  -20.8147  -38.6563   -3.0915 C   0  0  0  0  0  0  0  0  0  0  0  0
  1  2  1  0
  2  3  1  0
  3  4  1  0
  4  5  2  0
  5  6  1  0
  6  7  2  0
  7  8  1  0
  8  9  2  0
  8 10  1  0
 10 11  2  0
 10 12  1  0
 12 13  1  0
 13 14  1  6
 14 15  1  0
 15 16  1  0
 15 17  2  0
 17 18  1  0
 18 19  1  0
 19 20  1  0
 20 21  1  0
 21 22  1  0
 22 23  1  0
 23 24  1  0
 13 25  1  0
 25 26  1  6
 25 27  1  0
 27 28  1  0
 28 29  1  0
 29 30  1  0
 30 31  1  0
 29 32  1  0
 32 33  2  0
 33 34  1  0
 34 35  2  0
 35 36  1  0
 36 37  2  0
 34 38  1  0
 38 39  1  0
 38 40  1  0
  9  4  1  0
 24  6  1  0
 31 29  1  0
 37 32  1  0
M  END
$$$$
