
     RDKit          3D

 40 43  0  0  0  0  0  0  0  0999 V2000
  -24.8503  -42.3456   -5.5507 C   0  0  0  0  0  0  0  0  0  0  0  0
  -23.4766  -42.2577   -5.4974 O   0  0  0  0  0  0  0  0  0  0  0  0
  -22.9118  -41.9439   -6.7395 C   0  0  0  0  0  0  0  0  0  0  0  0
  -21.5668  -42.5756   -6.7890 C   0  0  0  0  0  0  0  0  0  0  0  0
  -21.3682  -43.8752   -7.1412 C   0  0  0  0  0  0  0  0  0  0  0  0
  -20.0874  -44.5009   -7.1942 C   0  0  0  0  0  0  0  0  0  0  0  0
  -18.9665  -43.7567   -6.8714 C   0  0  0  0  0  0  0  0  0  0  0  0
  -19.1348  -42.4279   -6.5100 C   0  0  0  0  0  0  0  0  0  0  0  0
  -20.4404  -41.8648   -6.4759 C   0  0  0  0  0  0  0  0  0  0  0  0
  -18.1584  -41.3798   -6.1430 C   0  0  0  0  0  0  0  0  0  0  0  0
  -18.4997  -40.6599   -5.0959 O   0  0  0  0  0  0  0  0  0  0  0  0
  -16.9114  -41.0255   -6.7443 N   0  0  0  0  0  0  0  0  0  0  0  0
  -16.6164  -41.0446   -8.1413 C   0  0  1  0  0  0  0  0  0  0  0  0
  -16.4512  -42.4698   -8.6784 C   0  0  0  0  0  0  0  0  0  0  0  0
  -15.4418  -42.5854   -9.7312 C   0  0  0  0  0  0  0  0  0  0  0  0
  -14.3245  -41.6058   -9.8353 C   0  0  0  0  0  0  0  0  0  0  0  0
  -15.5380  -43.5838  -10.5899 C   0  0  0  0  0  0  0  0  0  0  0  0
  -16.5507  -44.6309  -10.6387 C   0  0  0  0  0  0  0  0  0  0  0  0
  -16.0957  -45.8803  -10.2159 O   0  0  0  0  0  0  0  0  0  0  0  0
  -17.1764  -46.7837  -10.0900 C   0  0  0  0  0  0  0  0  0  0  0  0
  -17.9323  -46.4531   -8.8218 C   0  0  0  0  0  0  0  0  0  0  0  0
  -18.6476  -47.5995   -8.1952 C   0  0  0  0  0  0  0  0  0  0  0  0
  -19.6416  -47.0922   -7.1941 C   0  0  0  0  0  0  0  0  0  0  0  0
  -20.2558  -45.8505   -7.6215 N   0  0  0  0  0  0  0  0  0  0  0  0
  -17.6614  -40.3716   -9.0022 C   0  0  2  0  0  0  0  0  0  0  0  0
  -17.4590  -40.5821  -10.3444 O   0  0  0  0  0  0  0  0  0  0  0  0
  -17.6324  -38.8786   -8.7169 C   0  0  0  0  0  0  0  0  0  0  0  0
  -18.2060  -38.6306   -7.4315 N   0  0  0  0  0  0  0  0  0  0  0  0
  -19.2518  -37.6270   -7.4635 C   0  0  0  0  0  0  0  0  0  0  0  0
  -19.1955  -36.6675   -6.2330 C   0  0  0  0  0  0  0  0  0  0  0  0
  -20.3160  -37.6404   -6.4500 C   0  0  0  0  0  0  0  0  0  0  0  0
  -19.4012  -36.8968   -8.7465 C   0  0  0  0  0  0  0  0  0  0  0  0
  -18.3073  -36.5233   -9.4875 C   0  0  0  0  0  0  0  0  0  0  0  0
  -18.4211  -35.8432  -10.6889 C   0  0  0  0  0  0  0  0  0  0  0  0
  -19.6921  -35.5456  -11.1280 C   0  0  0  0  0  0  0  0  0  0  0  0
  -20.8190  -35.9006  -10.4170 C   0  0  0  0  0  0  0  0  0  0  0  0
  -20.6614  -36.5868   -9.2085 C   0  0  0  0  0  0  0  0  0  0  0  0
  -17.2521  -35.4300  -11.5062 C   0  0  0  0  0  0  0  0  0  0  0  0
  -16.5895  -36.6635  -12.1182 C   0  0  0  0  0  0  0  0  0  0  0  0
  -16.2128  -34.7620  -10.6263 C   0  0  0  0  0  0  0  0  0  0  0  0
  1  2  1  0
  2  3  1  0
  3  4  1  0
  4  5  2  0
  5  6  1  0
  6  7  2  0
  7  8  1  0
  8  9  2  0
  8 10  1  0
 10 11  2  0
 10 12  1  0
 12 13  1  0
 13 14  1  6
 14 15  1  0
 15 16  1  0
 15 17  2  0
 17 18  1  0
 18 19  1  0
 19 20  1  0
 20 21  1  0
 21 22  1  0
 22 23  1  0
 23 24  1  0
 13 25  1  0
 25 26  1  6
 25 27  1  0
 27 28  1  0
 28 29  1  0
 29 30  1  0
 30 31  1  0
 29 32  1  0
 32 33  2  0
 33 34  1  0
 34 35  2  0
 35 36  1  0
 36 37  2  0
 34 38  1  0
 38 39  1  0
 38 40  1  0
  9  4  1  0
 24  6  1  0
 31 29  1  0
 37 32  1  0
M  END
$$$$
