
     RDKit          3D

 40 43  0  0  0  0  0  0  0  0999 V2000
  -16.8592  -32.5840   -9.2147 C   0  0  0  0  0  0  0  0  0  0  0  0
  -17.4747  -33.6004   -9.9114 O   0  0  0  0  0  0  0  0  0  0  0  0
  -17.1891  -33.5595  -11.2815 C   0  0  0  0  0  0  0  0  0  0  0  0
  -16.3662  -34.7561  -11.6003 C   0  0  0  0  0  0  0  0  0  0  0  0
  -15.0888  -34.6782  -12.0633 C   0  0  0  0  0  0  0  0  0  0  0  0
  -14.2826  -35.8127  -12.3760 C   0  0  0  0  0  0  0  0  0  0  0  0
  -14.8148  -37.0782  -12.2039 C   0  0  0  0  0  0  0  0  0  0  0  0
  -16.1141  -37.1920  -11.7313 C   0  0  0  0  0  0  0  0  0  0  0  0
  -16.8651  -36.0199  -11.4395 C   0  0  0  0  0  0  0  0  0  0  0  0
  -16.9448  -38.3751  -11.4203 C   0  0  0  0  0  0  0  0  0  0  0  0
  -18.1828  -38.3024  -11.8599 O   0  0  0  0  0  0  0  0  0  0  0  0
  -16.6181  -39.5766  -10.7191 N   0  0  0  0  0  0  0  0  0  0  0  0
  -15.7516  -39.6811   -9.5890 C   0  0  1  0  0  0  0  0  0  0  0  0
  -14.2769  -39.5248   -9.9740 C   0  0  0  0  0  0  0  0  0  0  0  0
  -13.3727  -40.3543   -9.1772 C   0  0  0  0  0  0  0  0  0  0  0  0
  -13.8527  -41.6023   -8.5207 C   0  0  0  0  0  0  0  0  0  0  0  0
  -12.1138  -39.9758   -9.0543 C   0  0  0  0  0  0  0  0  0  0  0  0
  -11.4711  -38.7984   -9.6246 C   0  0  0  0  0  0  0  0  0  0  0  0
  -10.6149  -39.0794  -10.6898 O   0  0  0  0  0  0  0  0  0  0  0  0
  -10.1999  -37.8832  -11.3198 C   0  0  0  0  0  0  0  0  0  0  0  0
  -11.3421  -37.3665  -12.1669 C   0  0  0  0  0  0  0  0  0  0  0  0
  -10.9365  -36.5493  -13.3442 C   0  0  0  0  0  0  0  0  0  0  0  0
  -12.1205  -35.7964  -13.8723 C   0  0  0  0  0  0  0  0  0  0  0  0
  -13.0025  -35.3580  -12.8084 N   0  0  0  0  0  0  0  0  0  0  0  0
  -16.0293  -38.6672   -8.5022 C   0  0  2  0  0  0  0  0  0  0  0  0
  -15.3439  -38.9322   -7.3417 O   0  0  0  0  0  0  0  0  0  0  0  0
  -17.5222  -38.6645   -8.2156 C   0  0  0  0  0  0  0  0  0  0  0  0
  -17.8900  -39.9039   -7.6061 N   0  0  0  0  0  0  0  0  0  0  0  0
  -19.2200  -40.3442   -7.9790 C   0  0  0  0  0  0  0  0  0  0  0  0
  -19.3459  -41.9003   -8.0108 C   0  0  0  0  0  0  0  0  0  0  0  0
  -19.4310  -41.0561   -9.2474 C   0  0  0  0  0  0  0  0  0  0  0  0
  -20.3380  -39.6989   -7.2476 C   0  0  0  0  0  0  0  0  0  0  0  0
  -21.1317  -40.4114   -6.3830 C   0  0  0  0  0  0  0  0  0  0  0  0
  -22.1796  -39.8311   -5.6873 C   0  0  0  0  0  0  0  0  0  0  0  0
  -22.4073  -38.4885   -5.8930 C   0  0  0  0  0  0  0  0  0  0  0  0
  -21.6362  -37.7337   -6.7517 C   0  0  0  0  0  0  0  0  0  0  0  0
  -20.5874  -38.3572   -7.4352 C   0  0  0  0  0  0  0  0  0  0  0  0
  -23.0502  -40.5824   -4.7476 C   0  0  0  0  0  0  0  0  0  0  0  0
  -24.0467  -41.4315   -5.5356 C   0  0  0  0  0  0  0  0  0  0  0  0
  -23.8623  -39.6165   -3.9064 C   0  0  0  0  0  0  0  0  0  0  0  0
  1  2  1  0
  2  3  1  0
  3  4  1  0
  4  5  2  0
  5  6  1  0
  6  7  2  0
  7  8  1  0
  8  9  2  0
  8 10  1  0
 10 11  2  0
 10 12  1  0
 12 13  1  0
 13 14  1  6
 14 15  1  0
 15 16  1  0
 15 17  2  0
 17 18  1  0
 18 19  1  0
 19 20  1  0
 20 21  1  0
 21 22  1  0
 22 23  1  0
 23 24  1  0
 13 25  1  0
 25 26  1  1
 25 27  1  0
 27 28  1  0
 28 29  1  0
 29 30  1  0
 30 31  1  0
 29 32  1  0
 32 33  2  0
 33 34  1  0
 34 35  2  0
 35 36  1  0
 36 37  2  0
 34 38  1  0
 38 39  1  0
 38 40  1  0
  9  4  1  0
 24  6  1  0
 31 29  1  0
 37 32  1  0
M  END
$$$$
