
     RDKit          3D

 34 35  0  0  0  0  0  0  0  0999 V2000
  -23.3378  -41.2681   -8.4761 C   0  0  0  0  0  0  0  0  0  0  0  0
  -23.2691  -40.1010   -7.5486 C   0  0  0  0  0  0  0  0  0  0  0  0
  -22.6492  -38.8797   -8.1947 C   0  0  0  0  0  0  0  0  0  0  0  0
  -22.5009  -40.4941   -6.3229 C   0  0  0  0  0  0  0  0  0  0  0  0
  -23.1735  -40.6881   -5.1352 C   0  0  0  0  0  0  0  0  0  0  0  0
  -22.4678  -41.0452   -4.0104 C   0  0  0  0  0  0  0  0  0  0  0  0
  -21.0842  -41.2123   -4.0587 C   0  0  0  0  0  0  0  0  0  0  0  0
  -20.4020  -41.0224   -5.2336 C   0  0  0  0  0  0  0  0  0  0  0  0
  -18.9199  -41.1831   -5.3285 C   0  0  0  0  0  0  0  0  0  0  0  0
  -18.3986  -40.8762   -6.6242 N   0  0  0  0  0  0  0  0  0  0  0  0
  -17.9768  -39.5356   -6.8532 C   0  0  0  0  0  0  0  0  0  0  0  0
  -16.5927  -39.2053   -6.4171 C   0  0  1  0  0  0  0  0  0  0  0  0
  -16.1180  -39.9005   -5.3468 O   0  0  0  0  0  0  0  0  0  0  0  0
  -15.5738  -39.2299   -7.5884 C   0  0  2  0  0  0  0  0  0  0  0  0
  -16.1326  -38.3633   -8.6309 C   0  0  0  0  0  0  0  0  0  0  0  0
  -15.2054  -37.3955   -9.2986 C   0  0  2  0  0  0  0  0  0  0  0  0
  -14.4264  -36.5045   -8.3953 C   0  0  0  0  0  0  0  0  0  0  0  0
  -16.0358  -36.5960  -10.2987 C   0  0  0  0  0  0  0  0  0  0  0  0
  -16.2640  -37.5049  -11.4957 C   0  0  0  0  0  0  0  0  0  0  0  0
  -15.7950  -36.8485  -12.7715 C   0  0  0  0  0  0  0  0  0  0  0  0
  -14.6412  -37.6607  -13.3182 C   0  0  0  0  0  0  0  0  0  0  0  0
  -15.2072  -38.9975  -13.7787 C   0  0  0  0  0  0  0  0  0  0  0  0
  -14.1779  -39.8935  -13.8939 O   0  0  0  0  0  0  0  0  0  0  0  0
  -14.4388  -41.1710  -13.4099 C   0  0  0  0  0  0  0  0  0  0  0  0
  -15.7238  -41.3386  -12.7503 C   0  0  0  0  0  0  0  0  0  0  0  0
  -16.7381  -41.5290  -13.5324 O   0  0  0  0  0  0  0  0  0  0  0  0
  -15.9510  -41.3119  -11.3465 N   0  0  0  0  0  0  0  0  0  0  0  0
  -17.3662  -41.1335  -10.9851 C   0  0  0  0  0  0  0  0  0  0  0  0
  -14.9673  -41.4574  -10.3207 C   0  0  1  0  0  0  0  0  0  0  0  0
  -13.7329  -40.6233  -10.4443 C   0  0  0  0  0  0  0  0  0  0  0  0
  -15.5164  -41.4612   -8.9371 C   0  0  0  0  0  0  0  0  0  0  0  0
  -16.3211  -42.4545   -8.7334 O   0  0  0  0  0  0  0  0  0  0  0  0
  -15.3023  -40.6049   -7.8814 N   0  0  0  0  0  0  0  0  0  0  0  0
  -21.1360  -40.6610   -6.3625 C   0  0  0  0  0  0  0  0  0  0  0  0
  1  2  1  0
  2  3  1  0
  2  4  1  0
  4  5  2  0
  5  6  1  0
  6  7  2  0
  7  8  1  0
  8  9  1  0
  9 10  1  0
 10 11  1  0
 11 12  1  0
 12 13  1  1
 12 14  1  0
 14 15  1  6
 15 16  1  0
 16 17  1  1
 16 18  1  0
 18 19  1  0
 19 20  1  0
 20 21  1  0
 21 22  1  0
 22 23  1  0
 23 24  1  0
 24 25  1  0
 25 26  2  0
 25 27  1  0
 27 28  1  0
 27 29  1  0
 29 30  1  1
 29 31  1  0
 31 32  2  0
 31 33  1  0
  8 34  2  0
 33 14  1  0
 34  4  1  0
M  END
$$$$
