
     RDKit          3D

 34 35  0  0  0  0  0  0  0  0999 V2000
  -12.5956  -34.6188  -11.8702 C   0  0  0  0  0  0  0  0  0  0  0  0
  -13.9165  -35.1008  -12.3702 C   0  0  0  0  0  0  0  0  0  0  0  0
  -15.0814  -34.4818  -11.6266 C   0  0  0  0  0  0  0  0  0  0  0  0
  -13.9628  -36.5957  -12.2685 C   0  0  0  0  0  0  0  0  0  0  0  0
  -14.3252  -37.3387  -13.3717 C   0  0  0  0  0  0  0  0  0  0  0  0
  -14.3709  -38.7097  -13.2768 C   0  0  0  0  0  0  0  0  0  0  0  0
  -14.0557  -39.3534  -12.0806 C   0  0  0  0  0  0  0  0  0  0  0  0
  -13.6936  -38.6268  -10.9750 C   0  0  0  0  0  0  0  0  0  0  0  0
  -13.3556  -39.2747   -9.6721 C   0  0  0  0  0  0  0  0  0  0  0  0
  -14.4749  -39.9087   -9.0474 N   0  0  0  0  0  0  0  0  0  0  0  0
  -15.6088  -39.0944   -8.7670 C   0  0  0  0  0  0  0  0  0  0  0  0
  -16.4962  -39.5697   -7.6707 C   0  0  1  0  0  0  0  0  0  0  0  0
  -16.7405  -38.6817   -6.6678 O   0  0  0  0  0  0  0  0  0  0  0  0
  -17.8199  -40.1874   -8.1970 C   0  0  2  0  0  0  0  0  0  0  0  0
  -18.7951  -40.0433   -7.1114 C   0  0  0  0  0  0  0  0  0  0  0  0
  -20.1654  -39.5579   -7.4702 C   0  0  2  0  0  0  0  0  0  0  0  0
  -20.2287  -38.2926   -8.2523 C   0  0  0  0  0  0  0  0  0  0  0  0
  -20.9599  -39.4571   -6.1713 C   0  0  0  0  0  0  0  0  0  0  0  0
  -21.3491  -40.8766   -5.7910 C   0  0  0  0  0  0  0  0  0  0  0  0
  -22.8426  -40.9984   -5.6087 C   0  0  0  0  0  0  0  0  0  0  0  0
  -23.3688  -41.9351   -6.6743 C   0  0  0  0  0  0  0  0  0  0  0  0
  -22.8438  -43.3278   -6.3515 C   0  0  0  0  0  0  0  0  0  0  0  0
  -22.9453  -44.1059   -7.4739 O   0  0  0  0  0  0  0  0  0  0  0  0
  -21.8533  -44.9269   -7.7343 C   0  0  0  0  0  0  0  0  0  0  0  0
  -20.7176  -44.7572   -6.8423 C   0  0  0  0  0  0  0  0  0  0  0  0
  -20.7944  -45.3768   -5.7078 O   0  0  0  0  0  0  0  0  0  0  0  0
  -19.5545  -43.9835   -7.1101 N   0  0  0  0  0  0  0  0  0  0  0  0
  -18.7570  -43.6889   -5.9091 C   0  0  0  0  0  0  0  0  0  0  0  0
  -19.1173  -43.5154   -8.3872 C   0  0  1  0  0  0  0  0  0  0  0  0
  -20.1372  -42.8370   -9.2442 C   0  0  0  0  0  0  0  0  0  0  0  0
  -17.8177  -42.7899   -8.3652 C   0  0  0  0  0  0  0  0  0  0  0  0
  -16.8441  -43.5432   -7.9649 O   0  0  0  0  0  0  0  0  0  0  0  0
  -17.5060  -41.4915   -8.6979 N   0  0  0  0  0  0  0  0  0  0  0  0
  -13.6532  -37.2381  -11.0921 C   0  0  0  0  0  0  0  0  0  0  0  0
  1  2  1  0
  2  3  1  0
  2  4  1  0
  4  5  2  0
  5  6  1  0
  6  7  2  0
  7  8  1  0
  8  9  1  0
  9 10  1  0
 10 11  1  0
 11 12  1  0
 12 13  1  1
 12 14  1  0
 14 15  1  1
 15 16  1  0
 16 17  1  1
 16 18  1  0
 18 19  1  0
 19 20  1  0
 20 21  1  0
 21 22  1  0
 22 23  1  0
 23 24  1  0
 24 25  1  0
 25 26  2  0
 25 27  1  0
 27 28  1  0
 27 29  1  0
 29 30  1  1
 29 31  1  0
 31 32  2  0
 31 33  1  0
  8 34  2  0
 33 14  1  0
 34  4  1  0
M  END
$$$$
