
     RDKit          3D

 34 35  0  0  0  0  0  0  0  0999 V2000
  -23.6802  -40.2406   -4.7708 C   0  0  0  0  0  0  0  0  0  0  0  0
  -23.3085  -40.9307   -6.0406 C   0  0  0  0  0  0  0  0  0  0  0  0
  -22.6016  -42.2483   -5.8017 C   0  0  0  0  0  0  0  0  0  0  0  0
  -22.4513  -40.0159   -6.8624 C   0  0  0  0  0  0  0  0  0  0  0  0
  -22.7206  -39.8603   -8.2055 C   0  0  0  0  0  0  0  0  0  0  0  0
  -21.9317  -39.0237   -8.9596 C   0  0  0  0  0  0  0  0  0  0  0  0
  -20.8664  -38.3340   -8.3817 C   0  0  0  0  0  0  0  0  0  0  0  0
  -20.5869  -38.4794   -7.0467 C   0  0  0  0  0  0  0  0  0  0  0  0
  -19.4513  -37.7660   -6.3888 C   0  0  0  0  0  0  0  0  0  0  0  0
  -18.2714  -37.7141   -7.1951 N   0  0  0  0  0  0  0  0  0  0  0  0
  -17.3864  -38.8273   -7.1227 C   0  0  0  0  0  0  0  0  0  0  0  0
  -16.2586  -38.8262   -8.0939 C   0  0  1  0  0  0  0  0  0  0  0  0
  -15.3673  -37.8033   -7.9785 O   0  0  0  0  0  0  0  0  0  0  0  0
  -15.5256  -40.1933   -8.1619 C   0  0  2  0  0  0  0  0  0  0  0  0
  -15.1061  -40.3602   -9.5570 C   0  0  0  0  0  0  0  0  0  0  0  0
  -13.7123  -40.8461   -9.8085 C   0  0  2  0  0  0  0  0  0  0  0  0
  -12.6220  -40.0855   -9.1381 C   0  0  0  0  0  0  0  0  0  0  0  0
  -13.5191  -40.8909  -11.3216 C   0  0  0  0  0  0  0  0  0  0  0  0
  -14.2495  -42.1298  -11.8143 C   0  0  0  0  0  0  0  0  0  0  0  0
  -13.3252  -43.0260  -12.6024 C   0  0  0  0  0  0  0  0  0  0  0  0
  -13.1764  -44.3269  -11.8439 C   0  0  0  0  0  0  0  0  0  0  0  0
  -14.5202  -45.0411  -11.9029 C   0  0  0  0  0  0  0  0  0  0  0  0
  -14.5557  -45.9912  -10.9172 O   0  0  0  0  0  0  0  0  0  0  0  0
  -15.7532  -46.0819  -10.2157 C   0  0  0  0  0  0  0  0  0  0  0  0
  -16.7524  -45.0810  -10.5536 C   0  0  0  0  0  0  0  0  0  0  0  0
  -17.4605  -45.3257  -11.6097 O   0  0  0  0  0  0  0  0  0  0  0  0
  -17.0094  -43.8820   -9.8329 N   0  0  0  0  0  0  0  0  0  0  0  0
  -17.7941  -42.8972  -10.5942 C   0  0  0  0  0  0  0  0  0  0  0  0
  -16.6035  -43.5877   -8.4951 C   0  0  1  0  0  0  0  0  0  0  0  0
  -15.1726  -43.8487   -8.1497 C   0  0  0  0  0  0  0  0  0  0  0  0
  -17.0841  -42.2764   -7.9801 C   0  0  0  0  0  0  0  0  0  0  0  0
  -18.3761  -42.2152   -7.9291 O   0  0  0  0  0  0  0  0  0  0  0  0
  -16.3897  -41.1645   -7.5616 N   0  0  0  0  0  0  0  0  0  0  0  0
  -21.3987  -39.3320   -6.2998 C   0  0  0  0  0  0  0  0  0  0  0  0
  1  2  1  0
  2  3  1  0
  2  4  1  0
  4  5  2  0
  5  6  1  0
  6  7  2  0
  7  8  1  0
  8  9  1  0
  9 10  1  0
 10 11  1  0
 11 12  1  0
 12 13  1  1
 12 14  1  0
 14 15  1  6
 15 16  1  0
 16 17  1  1
 16 18  1  0
 18 19  1  0
 19 20  1  0
 20 21  1  0
 21 22  1  0
 22 23  1  0
 23 24  1  0
 24 25  1  0
 25 26  2  0
 25 27  1  0
 27 28  1  0
 27 29  1  0
 29 30  1  6
 29 31  1  0
 31 32  2  0
 31 33  1  0
  8 34  2  0
 33 14  1  0
 34  4  1  0
M  END
$$$$
