
     RDKit          3D

 34 35  0  0  0  0  0  0  0  0999 V2000
  -13.4761  -35.2258  -12.8713 C   0  0  0  0  0  0  0  0  0  0  0  0
  -12.6267  -35.8185  -11.7970 C   0  0  0  0  0  0  0  0  0  0  0  0
  -11.1658  -35.4459  -11.9379 C   0  0  0  0  0  0  0  0  0  0  0  0
  -12.7925  -37.3084  -11.8079 C   0  0  0  0  0  0  0  0  0  0  0  0
  -12.9390  -37.9649  -13.0112 C   0  0  0  0  0  0  0  0  0  0  0  0
  -13.0945  -39.3311  -13.0202 C   0  0  0  0  0  0  0  0  0  0  0  0
  -13.1056  -40.0562  -11.8292 C   0  0  0  0  0  0  0  0  0  0  0  0
  -12.9610  -39.4161  -10.6246 C   0  0  0  0  0  0  0  0  0  0  0  0
  -12.9747  -40.1526   -9.3251 C   0  0  0  0  0  0  0  0  0  0  0  0
  -14.0179  -39.7277   -8.4441 N   0  0  0  0  0  0  0  0  0  0  0  0
  -15.3456  -40.1248   -8.7713 C   0  0  0  0  0  0  0  0  0  0  0  0
  -16.4036  -39.7147   -7.8081 C   0  0  1  0  0  0  0  0  0  0  0  0
  -16.3958  -38.4073   -7.4278 O   0  0  0  0  0  0  0  0  0  0  0  0
  -17.8243  -40.1514   -8.2574 C   0  0  2  0  0  0  0  0  0  0  0  0
  -18.7074  -39.8981   -7.1146 C   0  0  0  0  0  0  0  0  0  0  0  0
  -20.0228  -39.2370   -7.3880 C   0  0  2  0  0  0  0  0  0  0  0  0
  -19.9692  -37.9639   -8.1580 C   0  0  0  0  0  0  0  0  0  0  0  0
  -20.7201  -39.0524   -6.0432 C   0  0  0  0  0  0  0  0  0  0  0  0
  -21.2651  -40.4154   -5.6479 C   0  0  0  0  0  0  0  0  0  0  0  0
  -22.7485  -40.3478   -5.3770 C   0  0  0  0  0  0  0  0  0  0  0  0
  -23.4522  -41.1958   -6.4141 C   0  0  0  0  0  0  0  0  0  0  0  0
  -23.0922  -42.6482   -6.1308 C   0  0  0  0  0  0  0  0  0  0  0  0
  -23.3584  -43.3923   -7.2493 O   0  0  0  0  0  0  0  0  0  0  0  0
  -22.3979  -44.3426   -7.5791 C   0  0  0  0  0  0  0  0  0  0  0  0
  -21.1994  -44.3309   -6.7560 C   0  0  0  0  0  0  0  0  0  0  0  0
  -21.2882  -44.9503   -5.6223 O   0  0  0  0  0  0  0  0  0  0  0  0
  -19.9645  -43.7086   -7.0889 N   0  0  0  0  0  0  0  0  0  0  0  0
  -19.0666  -43.5340   -5.9363 C   0  0  0  0  0  0  0  0  0  0  0  0
  -19.5467  -43.2836   -8.3873 C   0  0  1  0  0  0  0  0  0  0  0  0
  -20.5197  -42.4695   -9.1780 C   0  0  0  0  0  0  0  0  0  0  0  0
  -18.1657  -42.7304   -8.4395 C   0  0  0  0  0  0  0  0  0  0  0  0
  -17.2750  -43.6070   -8.1023 O   0  0  0  0  0  0  0  0  0  0  0  0
  -17.7102  -41.4783   -8.7833 N   0  0  0  0  0  0  0  0  0  0  0  0
  -12.8043  -38.0308  -10.6372 C   0  0  0  0  0  0  0  0  0  0  0  0
  1  2  1  0
  2  3  1  0
  2  4  1  0
  4  5  2  0
  5  6  1  0
  6  7  2  0
  7  8  1  0
  8  9  1  0
  9 10  1  0
 10 11  1  0
 11 12  1  0
 12 13  1  6
 12 14  1  0
 14 15  1  1
 15 16  1  0
 16 17  1  1
 16 18  1  0
 18 19  1  0
 19 20  1  0
 20 21  1  0
 21 22  1  0
 22 23  1  0
 23 24  1  0
 24 25  1  0
 25 26  2  0
 25 27  1  0
 27 28  1  0
 27 29  1  0
 29 30  1  1
 29 31  1  0
 31 32  2  0
 31 33  1  0
  8 34  2  0
 33 14  1  0
 34  4  1  0
M  END
$$$$
