
     RDKit          3D

 34 35  0  0  0  0  0  0  0  0999 V2000
  -10.2927  -37.4909  -12.0031 C   0  0  0  0  0  0  0  0  0  0  0  0
  -11.1679  -38.2589  -12.9365 C   0  0  0  0  0  0  0  0  0  0  0  0
  -11.3331  -37.5732  -14.2765 C   0  0  0  0  0  0  0  0  0  0  0  0
  -12.5024  -38.4763  -12.2893 C   0  0  0  0  0  0  0  0  0  0  0  0
  -13.4077  -39.3350  -12.8756 C   0  0  0  0  0  0  0  0  0  0  0  0
  -14.6330  -39.5312  -12.2833 C   0  0  0  0  0  0  0  0  0  0  0  0
  -14.9679  -38.8729  -11.1004 C   0  0  0  0  0  0  0  0  0  0  0  0
  -14.0770  -38.0156  -10.5062 C   0  0  0  0  0  0  0  0  0  0  0  0
  -14.3972  -37.2842   -9.2437 C   0  0  0  0  0  0  0  0  0  0  0  0
  -15.6859  -37.6056   -8.7139 N   0  0  0  0  0  0  0  0  0  0  0  0
  -15.8570  -38.9104   -8.1699 C   0  0  0  0  0  0  0  0  0  0  0  0
  -16.9310  -39.0544   -7.1496 C   0  0  1  0  0  0  0  0  0  0  0  0
  -17.2728  -37.9232   -6.4733 O   0  0  0  0  0  0  0  0  0  0  0  0
  -18.1926  -39.7691   -7.7050 C   0  0  2  0  0  0  0  0  0  0  0  0
  -19.1809  -39.7485   -6.6219 C   0  0  0  0  0  0  0  0  0  0  0  0
  -20.5875  -39.3747   -6.9739 C   0  0  2  0  0  0  0  0  0  0  0  0
  -20.7599  -38.0946   -7.7142 C   0  0  0  0  0  0  0  0  0  0  0  0
  -21.3928  -39.3882   -5.6777 C   0  0  0  0  0  0  0  0  0  0  0  0
  -21.6558  -40.8485   -5.3471 C   0  0  0  0  0  0  0  0  0  0  0  0
  -23.1332  -41.1083   -5.1790 C   0  0  0  0  0  0  0  0  0  0  0  0
  -23.5700  -42.0519   -6.2785 C   0  0  0  0  0  0  0  0  0  0  0  0
  -22.9246  -43.4026   -5.9981 C   0  0  0  0  0  0  0  0  0  0  0  0
  -22.9523  -44.1487   -7.1463 O   0  0  0  0  0  0  0  0  0  0  0  0
  -21.7906  -44.8604   -7.4261 C   0  0  0  0  0  0  0  0  0  0  0  0
  -20.6779  -44.6206   -6.5214 C   0  0  0  0  0  0  0  0  0  0  0  0
  -20.7037  -45.2821   -5.4085 O   0  0  0  0  0  0  0  0  0  0  0  0
  -19.5872  -43.7382   -6.7556 N   0  0  0  0  0  0  0  0  0  0  0  0
  -18.8237  -43.4145   -5.5402 C   0  0  0  0  0  0  0  0  0  0  0  0
  -19.1884  -43.1908   -8.0136 C   0  0  1  0  0  0  0  0  0  0  0  0
  -20.2612  -42.5773   -8.8547 C   0  0  0  0  0  0  0  0  0  0  0  0
  -17.9585  -42.3540   -7.9589 C   0  0  0  0  0  0  0  0  0  0  0  0
  -16.9234  -43.0310   -7.5770 O   0  0  0  0  0  0  0  0  0  0  0  0
  -17.7621  -41.0228   -8.2465 N   0  0  0  0  0  0  0  0  0  0  0  0
  -12.8401  -37.8307  -11.1224 C   0  0  0  0  0  0  0  0  0  0  0  0
  1  2  1  0
  2  3  1  0
  2  4  1  0
  4  5  2  0
  5  6  1  0
  6  7  2  0
  7  8  1  0
  8  9  1  0
  9 10  1  0
 10 11  1  0
 11 12  1  0
 12 13  1  6
 12 14  1  0
 14 15  1  1
 15 16  1  0
 16 17  1  1
 16 18  1  0
 18 19  1  0
 19 20  1  0
 20 21  1  0
 21 22  1  0
 22 23  1  0
 23 24  1  0
 24 25  1  0
 25 26  2  0
 25 27  1  0
 27 28  1  0
 27 29  1  0
 29 30  1  1
 29 31  1  0
 31 32  2  0
 31 33  1  0
  8 34  2  0
 33 14  1  0
 34  4  1  0
M  END
$$$$
