
     RDKit          3D

 34 35  0  0  0  0  0  0  0  0999 V2000
  -23.8069  -36.8536   -8.7877 C   0  0  0  0  0  0  0  0  0  0  0  0
  -23.7757  -37.7879   -7.6244 C   0  0  0  0  0  0  0  0  0  0  0  0
  -24.1609  -37.1125   -6.3250 C   0  0  0  0  0  0  0  0  0  0  0  0
  -22.4077  -38.3914   -7.5176 C   0  0  0  0  0  0  0  0  0  0  0  0
  -22.2798  -39.7297   -7.2123 C   0  0  0  0  0  0  0  0  0  0  0  0
  -21.0246  -40.2819   -7.1110 C   0  0  0  0  0  0  0  0  0  0  0  0
  -19.8844  -39.5050   -7.3130 C   0  0  0  0  0  0  0  0  0  0  0  0
  -19.9967  -38.1722   -7.6173 C   0  0  0  0  0  0  0  0  0  0  0  0
  -18.8023  -37.3016   -7.8339 C   0  0  0  0  0  0  0  0  0  0  0  0
  -17.6205  -37.7919   -7.1953 N   0  0  0  0  0  0  0  0  0  0  0  0
  -17.1110  -39.0431   -7.6455 C   0  0  0  0  0  0  0  0  0  0  0  0
  -15.6758  -39.0576   -8.0394 C   0  0  1  0  0  0  0  0  0  0  0  0
  -14.8777  -38.1343   -7.4356 O   0  0  0  0  0  0  0  0  0  0  0  0
  -15.0455  -40.4740   -7.9534 C   0  0  2  0  0  0  0  0  0  0  0  0
  -14.5756  -40.7922   -9.3054 C   0  0  0  0  0  0  0  0  0  0  0  0
  -13.2122  -41.3960   -9.4414 C   0  0  2  0  0  0  0  0  0  0  0  0
  -12.0999  -40.6589   -8.7809 C   0  0  0  0  0  0  0  0  0  0  0  0
  -12.9530  -41.5872  -10.9331 C   0  0  0  0  0  0  0  0  0  0  0  0
  -13.7510  -42.8095  -11.3575 C   0  0  0  0  0  0  0  0  0  0  0  0
  -12.8613  -43.8348  -12.0176 C   0  0  0  0  0  0  0  0  0  0  0  0
  -12.8462  -45.0714  -11.1455 C   0  0  0  0  0  0  0  0  0  0  0  0
  -14.2359  -45.6907  -11.2149 C   0  0  0  0  0  0  0  0  0  0  0  0
  -14.3885  -46.5456  -10.1559 O   0  0  0  0  0  0  0  0  0  0  0  0
  -15.6207  -46.4890   -9.5133 C   0  0  0  0  0  0  0  0  0  0  0  0
  -16.5248  -45.4533   -9.9864 C   0  0  0  0  0  0  0  0  0  0  0  0
  -17.1997  -45.7388  -11.0541 O   0  0  0  0  0  0  0  0  0  0  0  0
  -16.7239  -44.1804   -9.3838 N   0  0  0  0  0  0  0  0  0  0  0  0
  -17.3961  -43.2130  -10.2655 C   0  0  0  0  0  0  0  0  0  0  0  0
  -16.3594  -43.7994   -8.0559 C   0  0  1  0  0  0  0  0  0  0  0  0
  -14.9698  -44.1300   -7.6149 C   0  0  0  0  0  0  0  0  0  0  0  0
  -16.7632  -42.4170   -7.6792 C   0  0  0  0  0  0  0  0  0  0  0  0
  -18.0480  -42.2599   -7.7016 O   0  0  0  0  0  0  0  0  0  0  0  0
  -16.0072  -41.3249   -7.3198 N   0  0  0  0  0  0  0  0  0  0  0  0
  -21.2781  -37.6317   -7.7156 C   0  0  0  0  0  0  0  0  0  0  0  0
  1  2  1  0
  2  3  1  0
  2  4  1  0
  4  5  2  0
  5  6  1  0
  6  7  2  0
  7  8  1  0
  8  9  1  0
  9 10  1  0
 10 11  1  0
 11 12  1  0
 12 13  1  1
 12 14  1  0
 14 15  1  6
 15 16  1  0
 16 17  1  6
 16 18  1  0
 18 19  1  0
 19 20  1  0
 20 21  1  0
 21 22  1  0
 22 23  1  0
 23 24  1  0
 24 25  1  0
 25 26  2  0
 25 27  1  0
 27 28  1  0
 27 29  1  0
 29 30  1  6
 29 31  1  0
 31 32  2  0
 31 33  1  0
  8 34  2  0
 33 14  1  0
 34  4  1  0
M  END
$$$$
