
     RDKit          3D

 34 35  0  0  0  0  0  0  0  0999 V2000
  -23.7114  -39.4739   -3.8450 C   0  0  0  0  0  0  0  0  0  0  0  0
  -23.3714  -40.6709   -4.6687 C   0  0  0  0  0  0  0  0  0  0  0  0
  -22.5493  -41.6882   -3.9056 C   0  0  0  0  0  0  0  0  0  0  0  0
  -22.6445  -40.2263   -5.9020 C   0  0  0  0  0  0  0  0  0  0  0  0
  -23.1663  -40.5287   -7.1418 C   0  0  0  0  0  0  0  0  0  0  0  0
  -22.4972  -40.1236   -8.2727 C   0  0  0  0  0  0  0  0  0  0  0  0
  -21.3010  -39.4131   -8.1786 C   0  0  0  0  0  0  0  0  0  0  0  0
  -20.7702  -39.1055   -6.9517 C   0  0  0  0  0  0  0  0  0  0  0  0
  -19.4880  -38.3533   -6.8049 C   0  0  0  0  0  0  0  0  0  0  0  0
  -18.4751  -38.7758   -7.7216 N   0  0  0  0  0  0  0  0  0  0  0  0
  -17.1374  -38.8199   -7.2355 C   0  0  0  0  0  0  0  0  0  0  0  0
  -16.0917  -38.3029   -8.1598 C   0  0  1  0  0  0  0  0  0  0  0  0
  -15.6099  -37.0591   -7.8864 O   0  0  0  0  0  0  0  0  0  0  0  0
  -14.9304  -39.3110   -8.3742 C   0  0  2  0  0  0  0  0  0  0  0  0
  -14.1364  -38.7848   -9.4889 C   0  0  0  0  0  0  0  0  0  0  0  0
  -12.6463  -38.7888   -9.3415 C   0  0  2  0  0  0  0  0  0  0  0  0
  -12.1075  -38.1457   -8.1115 C   0  0  0  0  0  0  0  0  0  0  0  0
  -12.0688  -38.1582  -10.6054 C   0  0  0  0  0  0  0  0  0  0  0  0
  -12.1599  -39.2135  -11.6958 C   0  0  0  0  0  0  0  0  0  0  0  0
  -10.8089  -39.4650  -12.3205 C   0  0  0  0  0  0  0  0  0  0  0  0
  -10.4082  -40.8907  -12.0096 C   0  0  0  0  0  0  0  0  0  0  0  0
  -11.3481  -41.8040  -12.7854 C   0  0  0  0  0  0  0  0  0  0  0  0
  -11.2959  -43.0569  -12.2349 O   0  0  0  0  0  0  0  0  0  0  0  0
  -12.5203  -43.7019  -12.0966 C   0  0  0  0  0  0  0  0  0  0  0  0
  -13.6870  -42.9097  -12.4507 C   0  0  0  0  0  0  0  0  0  0  0  0
  -13.9663  -42.8510  -13.7138 O   0  0  0  0  0  0  0  0  0  0  0  0
  -14.5281  -42.2104  -11.5415 N   0  0  0  0  0  0  0  0  0  0  0  0
  -15.3878  -41.2080  -12.1906 C   0  0  0  0  0  0  0  0  0  0  0  0
  -14.6104  -42.4113  -10.1294 C   0  0  1  0  0  0  0  0  0  0  0  0
  -13.3198  -42.4556   -9.3763 C   0  0  0  0  0  0  0  0  0  0  0  0
  -15.6396  -41.5792   -9.4480 C   0  0  0  0  0  0  0  0  0  0  0  0
  -16.8362  -41.8430   -9.8656 O   0  0  0  0  0  0  0  0  0  0  0  0
  -15.5168  -40.6133   -8.4757 N   0  0  0  0  0  0  0  0  0  0  0  0
  -21.4641  -39.5250   -5.8175 C   0  0  0  0  0  0  0  0  0  0  0  0
  1  2  1  0
  2  3  1  0
  2  4  1  0
  4  5  2  0
  5  6  1  0
  6  7  2  0
  7  8  1  0
  8  9  1  0
  9 10  1  0
 10 11  1  0
 11 12  1  0
 12 13  1  1
 12 14  1  0
 14 15  1  6
 15 16  1  0
 16 17  1  1
 16 18  1  0
 18 19  1  0
 19 20  1  0
 20 21  1  0
 21 22  1  0
 22 23  1  0
 23 24  1  0
 24 25  1  0
 25 26  2  0
 25 27  1  0
 27 28  1  0
 27 29  1  0
 29 30  1  1
 29 31  1  0
 31 32  2  0
 31 33  1  0
  8 34  2  0
 33 14  1  0
 34  4  1  0
M  END
$$$$
