
     RDKit          3D

 34 35  0  0  0  0  0  0  0  0999 V2000
  -17.1530  -35.4198  -10.9331 C   0  0  0  0  0  0  0  0  0  0  0  0
  -15.6759  -35.2608  -10.7916 C   0  0  0  0  0  0  0  0  0  0  0  0
  -15.1537  -34.0247  -11.4932 C   0  0  0  0  0  0  0  0  0  0  0  0
  -14.9984  -36.4899  -11.3185 C   0  0  0  0  0  0  0  0  0  0  0  0
  -14.8880  -36.6712  -12.6807 C   0  0  0  0  0  0  0  0  0  0  0  0
  -14.2695  -37.8005  -13.1633 C   0  0  0  0  0  0  0  0  0  0  0  0
  -13.7551  -38.7603  -12.2923 C   0  0  0  0  0  0  0  0  0  0  0  0
  -13.8581  -38.5931  -10.9348 C   0  0  0  0  0  0  0  0  0  0  0  0
  -13.3282  -39.5993   -9.9662 C   0  0  0  0  0  0  0  0  0  0  0  0
  -14.1954  -39.8241   -8.8515 N   0  0  0  0  0  0  0  0  0  0  0  0
  -15.4096  -39.0813   -8.8137 C   0  0  0  0  0  0  0  0  0  0  0  0
  -16.3583  -39.4399   -7.7244 C   0  0  1  0  0  0  0  0  0  0  0  0
  -16.5873  -38.4796   -6.7868 O   0  0  0  0  0  0  0  0  0  0  0  0
  -17.6953  -40.0186   -8.2612 C   0  0  2  0  0  0  0  0  0  0  0  0
  -18.6840  -39.8097   -7.1987 C   0  0  0  0  0  0  0  0  0  0  0  0
  -20.0272  -39.2804   -7.5958 C   0  0  2  0  0  0  0  0  0  0  0  0
  -20.0262  -38.0335   -8.4093 C   0  0  0  0  0  0  0  0  0  0  0  0
  -20.8411  -39.1163   -6.3153 C   0  0  0  0  0  0  0  0  0  0  0  0
  -21.2928  -40.5096   -5.9084 C   0  0  0  0  0  0  0  0  0  0  0  0
  -22.7930  -40.5687   -5.7523 C   0  0  0  0  0  0  0  0  0  0  0  0
  -23.3359  -41.5106   -6.8049 C   0  0  0  0  0  0  0  0  0  0  0  0
  -22.8722  -42.9141   -6.4382 C   0  0  0  0  0  0  0  0  0  0  0  0
  -22.9835  -43.7155   -7.5432 O   0  0  0  0  0  0  0  0  0  0  0  0
  -21.9200  -44.5846   -7.7623 C   0  0  0  0  0  0  0  0  0  0  0  0
  -20.7952  -44.4370   -6.8528 C   0  0  0  0  0  0  0  0  0  0  0  0
  -20.9173  -45.0245   -5.7053 O   0  0  0  0  0  0  0  0  0  0  0  0
  -19.5979  -43.7160   -7.1166 N   0  0  0  0  0  0  0  0  0  0  0  0
  -18.8117  -43.4228   -5.9078 C   0  0  0  0  0  0  0  0  0  0  0  0
  -19.1190  -43.2973   -8.3959 C   0  0  1  0  0  0  0  0  0  0  0  0
  -20.0954  -42.6014   -9.2888 C   0  0  0  0  0  0  0  0  0  0  0  0
  -17.7925  -42.6226   -8.3663 C   0  0  0  0  0  0  0  0  0  0  0  0
  -16.8569  -43.4030   -7.9289 O   0  0  0  0  0  0  0  0  0  0  0  0
  -17.4238  -41.3461   -8.7242 N   0  0  0  0  0  0  0  0  0  0  0  0
  -14.4883  -37.4412  -10.4658 C   0  0  0  0  0  0  0  0  0  0  0  0
  1  2  1  0
  2  3  1  0
  2  4  1  0
  4  5  2  0
  5  6  1  0
  6  7  2  0
  7  8  1  0
  8  9  1  0
  9 10  1  0
 10 11  1  0
 11 12  1  0
 12 13  1  6
 12 14  1  0
 14 15  1  1
 15 16  1  0
 16 17  1  1
 16 18  1  0
 18 19  1  0
 19 20  1  0
 20 21  1  0
 21 22  1  0
 22 23  1  0
 23 24  1  0
 24 25  1  0
 25 26  2  0
 25 27  1  0
 27 28  1  0
 27 29  1  0
 29 30  1  1
 29 31  1  0
 31 32  2  0
 31 33  1  0
  8 34  2  0
 33 14  1  0
 34  4  1  0
M  END
$$$$
