
     RDKit          3D

 34 35  0  0  0  0  0  0  0  0999 V2000
  -11.5071  -38.4558  -13.3714 C   0  0  0  0  0  0  0  0  0  0  0  0
  -11.9555  -37.0335  -13.4238 C   0  0  0  0  0  0  0  0  0  0  0  0
  -10.7994  -36.0566  -13.3778 C   0  0  0  0  0  0  0  0  0  0  0  0
  -12.9053  -36.7774  -12.2927 C   0  0  0  0  0  0  0  0  0  0  0  0
  -13.7706  -35.7065  -12.3641 C   0  0  0  0  0  0  0  0  0  0  0  0
  -14.6391  -35.4701  -11.3246 C   0  0  0  0  0  0  0  0  0  0  0  0
  -14.6533  -36.2991  -10.2035 C   0  0  0  0  0  0  0  0  0  0  0  0
  -13.7979  -37.3681  -10.1189 C   0  0  0  0  0  0  0  0  0  0  0  0
  -13.7740  -38.2768   -8.9336 C   0  0  0  0  0  0  0  0  0  0  0  0
  -14.8745  -39.1892   -8.8968 N   0  0  0  0  0  0  0  0  0  0  0  0
  -15.3782  -39.5472   -7.6139 C   0  0  0  0  0  0  0  0  0  0  0  0
  -16.6641  -38.9104   -7.2187 C   0  0  1  0  0  0  0  0  0  0  0  0
  -16.7378  -37.5595   -7.3726 O   0  0  0  0  0  0  0  0  0  0  0  0
  -17.8975  -39.6074   -7.8540 C   0  0  2  0  0  0  0  0  0  0  0  0
  -18.9642  -39.5392   -6.8502 C   0  0  0  0  0  0  0  0  0  0  0  0
  -20.3302  -39.1403   -7.3160 C   0  0  2  0  0  0  0  0  0  0  0  0
  -20.4138  -37.8733   -8.0934 C   0  0  0  0  0  0  0  0  0  0  0  0
  -21.2316  -39.1058   -6.0851 C   0  0  0  0  0  0  0  0  0  0  0  0
  -21.5556  -40.5517   -5.7456 C   0  0  0  0  0  0  0  0  0  0  0  0
  -23.0476  -40.7727   -5.6855 C   0  0  0  0  0  0  0  0  0  0  0  0
  -23.4235  -41.7301   -6.7954 C   0  0  0  0  0  0  0  0  0  0  0  0
  -22.8355  -43.0891   -6.4390 C   0  0  0  0  0  0  0  0  0  0  0  0
  -22.7948  -43.8598   -7.5703 O   0  0  0  0  0  0  0  0  0  0  0  0
  -21.6336  -44.6049   -7.7460 C   0  0  0  0  0  0  0  0  0  0  0  0
  -20.5870  -44.3712   -6.7641 C   0  0  0  0  0  0  0  0  0  0  0  0
  -20.7138  -45.0067   -5.6431 O   0  0  0  0  0  0  0  0  0  0  0  0
  -19.4598  -43.5202   -6.9325 N   0  0  0  0  0  0  0  0  0  0  0  0
  -18.7826  -43.1874   -5.6692 C   0  0  0  0  0  0  0  0  0  0  0  0
  -18.9531  -43.0107   -8.1673 C   0  0  1  0  0  0  0  0  0  0  0  0
  -19.9433  -42.3910   -9.1003 C   0  0  0  0  0  0  0  0  0  0  0  0
  -17.7102  -42.2021   -8.0361 C   0  0  0  0  0  0  0  0  0  0  0  0
  -16.7244  -42.8947   -7.5625 O   0  0  0  0  0  0  0  0  0  0  0  0
  -17.4590  -40.8827   -8.3352 N   0  0  0  0  0  0  0  0  0  0  0  0
  -12.9254  -37.5907  -11.1834 C   0  0  0  0  0  0  0  0  0  0  0  0
  1  2  1  0
  2  3  1  0
  2  4  1  0
  4  5  2  0
  5  6  1  0
  6  7  2  0
  7  8  1  0
  8  9  1  0
  9 10  1  0
 10 11  1  0
 11 12  1  0
 12 13  1  6
 12 14  1  0
 14 15  1  1
 15 16  1  0
 16 17  1  1
 16 18  1  0
 18 19  1  0
 19 20  1  0
 20 21  1  0
 21 22  1  0
 22 23  1  0
 23 24  1  0
 24 25  1  0
 25 26  2  0
 25 27  1  0
 27 28  1  0
 27 29  1  0
 29 30  1  1
 29 31  1  0
 31 32  2  0
 31 33  1  0
  8 34  2  0
 33 14  1  0
 34  4  1  0
M  END
$$$$
