
     RDKit          3D

 34 35  0  0  0  0  0  0  0  0999 V2000
  -13.5112  -34.0407  -10.5866 C   0  0  0  0  0  0  0  0  0  0  0  0
  -14.5212  -34.6002  -11.5320 C   0  0  0  0  0  0  0  0  0  0  0  0
  -15.9421  -34.4145  -11.0427 C   0  0  0  0  0  0  0  0  0  0  0  0
  -14.2287  -36.0531  -11.7576 C   0  0  0  0  0  0  0  0  0  0  0  0
  -13.9613  -36.4999  -13.0341 C   0  0  0  0  0  0  0  0  0  0  0  0
  -13.6967  -37.8332  -13.2409 C   0  0  0  0  0  0  0  0  0  0  0  0
  -13.6961  -38.7344  -12.1767 C   0  0  0  0  0  0  0  0  0  0  0  0
  -13.9606  -38.3039  -10.9015 C   0  0  0  0  0  0  0  0  0  0  0  0
  -13.9780  -39.2357   -9.7341 C   0  0  0  0  0  0  0  0  0  0  0  0
  -14.1450  -38.5696   -8.4798 N   0  0  0  0  0  0  0  0  0  0  0  0
  -15.4785  -38.3820   -8.0170 C   0  0  0  0  0  0  0  0  0  0  0  0
  -16.0736  -39.5219   -7.2675 C   0  0  1  0  0  0  0  0  0  0  0  0
  -16.1738  -39.3669   -5.9184 O   0  0  0  0  0  0  0  0  0  0  0  0
  -17.4230  -39.9964   -7.8713 C   0  0  2  0  0  0  0  0  0  0  0  0
  -18.4438  -39.7123   -6.8577 C   0  0  0  0  0  0  0  0  0  0  0  0
  -19.7214  -39.0817   -7.3182 C   0  0  2  0  0  0  0  0  0  0  0  0
  -19.5850  -37.8385   -8.1260 C   0  0  0  0  0  0  0  0  0  0  0  0
  -20.5823  -38.8556   -6.0786 C   0  0  0  0  0  0  0  0  0  0  0  0
  -21.1588  -40.2102   -5.6995 C   0  0  0  0  0  0  0  0  0  0  0  0
  -22.6650  -40.1541   -5.6173 C   0  0  0  0  0  0  0  0  0  0  0  0
  -23.2259  -41.0516   -6.6988 C   0  0  0  0  0  0  0  0  0  0  0  0
  -22.8896  -42.4866   -6.3151 C   0  0  0  0  0  0  0  0  0  0  0  0
  -23.0075  -43.2772   -7.4272 O   0  0  0  0  0  0  0  0  0  0  0  0
  -22.0042  -44.2252   -7.5972 C   0  0  0  0  0  0  0  0  0  0  0  0
  -20.9174  -44.1642   -6.6331 C   0  0  0  0  0  0  0  0  0  0  0  0
  -21.1404  -44.7406   -5.4952 O   0  0  0  0  0  0  0  0  0  0  0  0
  -19.6569  -43.5371   -6.8352 N   0  0  0  0  0  0  0  0  0  0  0  0
  -18.9110  -43.3050   -5.5882 C   0  0  0  0  0  0  0  0  0  0  0  0
  -19.0851  -43.1564   -8.0879 C   0  0  1  0  0  0  0  0  0  0  0  0
  -19.9602  -42.3877   -9.0249 C   0  0  0  0  0  0  0  0  0  0  0  0
  -17.7139  -42.5853   -7.9907 C   0  0  0  0  0  0  0  0  0  0  0  0
  -16.8634  -43.4351   -7.5110 O   0  0  0  0  0  0  0  0  0  0  0  0
  -17.2314  -41.3408   -8.3254 N   0  0  0  0  0  0  0  0  0  0  0  0
  -14.2262  -36.9482  -10.7131 C   0  0  0  0  0  0  0  0  0  0  0  0
  1  2  1  0
  2  3  1  0
  2  4  1  0
  4  5  2  0
  5  6  1  0
  6  7  2  0
  7  8  1  0
  8  9  1  0
  9 10  1  0
 10 11  1  0
 11 12  1  0
 12 13  1  1
 12 14  1  0
 14 15  1  1
 15 16  1  0
 16 17  1  1
 16 18  1  0
 18 19  1  0
 19 20  1  0
 20 21  1  0
 21 22  1  0
 22 23  1  0
 23 24  1  0
 24 25  1  0
 25 26  2  0
 25 27  1  0
 27 28  1  0
 27 29  1  0
 29 30  1  1
 29 31  1  0
 31 32  2  0
 31 33  1  0
  8 34  2  0
 33 14  1  0
 34  4  1  0
M  END
$$$$
