
     RDKit          3D

 34 35  0  0  0  0  0  0  0  0999 V2000
  -22.3486  -41.9808   -4.2559 C   0  0  0  0  0  0  0  0  0  0  0  0
  -22.5109  -40.4979   -4.2160 C   0  0  0  0  0  0  0  0  0  0  0  0
  -23.8221  -40.0725   -3.5891 C   0  0  0  0  0  0  0  0  0  0  0  0
  -22.3934  -39.9548   -5.6082 C   0  0  0  0  0  0  0  0  0  0  0  0
  -23.5362  -39.7241   -6.3440 C   0  0  0  0  0  0  0  0  0  0  0  0
  -23.4275  -39.2293   -7.6223 C   0  0  0  0  0  0  0  0  0  0  0  0
  -22.1781  -38.9596   -8.1797 C   0  0  0  0  0  0  0  0  0  0  0  0
  -21.0327  -39.1844   -7.4592 C   0  0  0  0  0  0  0  0  0  0  0  0
  -19.6741  -38.9170   -8.0197 C   0  0  0  0  0  0  0  0  0  0  0  0
  -18.6296  -39.6049   -7.3264 N   0  0  0  0  0  0  0  0  0  0  0  0
  -17.4526  -38.8626   -7.0245 C   0  0  0  0  0  0  0  0  0  0  0  0
  -16.6903  -38.3472   -8.1943 C   0  0  1  0  0  0  0  0  0  0  0  0
  -16.5817  -36.9934   -8.2916 O   0  0  0  0  0  0  0  0  0  0  0  0
  -15.3025  -39.0258   -8.3507 C   0  0  2  0  0  0  0  0  0  0  0  0
  -14.9348  -38.8776   -9.7624 C   0  0  0  0  0  0  0  0  0  0  0  0
  -13.5337  -38.4503  -10.0728 C   0  0  2  0  0  0  0  0  0  0  0  0
  -13.0589  -37.2148   -9.3910 C   0  0  0  0  0  0  0  0  0  0  0  0
  -13.4266  -38.3321  -11.5905 C   0  0  0  0  0  0  0  0  0  0  0  0
  -13.3218  -39.7500  -12.1284 C   0  0  0  0  0  0  0  0  0  0  0  0
  -12.0893  -39.9151  -12.9841 C   0  0  0  0  0  0  0  0  0  0  0  0
  -11.1726  -40.9041  -12.2976 C   0  0  0  0  0  0  0  0  0  0  0  0
  -11.8494  -42.2670  -12.3605 C   0  0  0  0  0  0  0  0  0  0  0  0
  -11.2753  -43.0855  -11.4245 O   0  0  0  0  0  0  0  0  0  0  0  0
  -12.1587  -43.8781  -10.6994 C   0  0  0  0  0  0  0  0  0  0  0  0
  -13.5693  -43.6409  -10.9606 C   0  0  0  0  0  0  0  0  0  0  0  0
  -14.0540  -44.2240  -12.0103 O   0  0  0  0  0  0  0  0  0  0  0  0
  -14.4403  -42.8385  -10.1729 N   0  0  0  0  0  0  0  0  0  0  0  0
  -15.6888  -42.4774  -10.8629 C   0  0  0  0  0  0  0  0  0  0  0  0
  -14.2156  -42.3995   -8.8321 C   0  0  1  0  0  0  0  0  0  0  0  0
  -12.8855  -41.7846   -8.5358 C   0  0  0  0  0  0  0  0  0  0  0  0
  -15.3438  -41.6310   -8.2384 C   0  0  0  0  0  0  0  0  0  0  0  0
  -16.4249  -42.3377   -8.1526 O   0  0  0  0  0  0  0  0  0  0  0  0
  -15.4074  -40.3350   -7.7803 N   0  0  0  0  0  0  0  0  0  0  0  0
  -21.1645  -39.6861   -6.1650 C   0  0  0  0  0  0  0  0  0  0  0  0
  1  2  1  0
  2  3  1  0
  2  4  1  0
  4  5  2  0
  5  6  1  0
  6  7  2  0
  7  8  1  0
  8  9  1  0
  9 10  1  0
 10 11  1  0
 11 12  1  0
 12 13  1  1
 12 14  1  0
 14 15  1  6
 15 16  1  0
 16 17  1  1
 16 18  1  0
 18 19  1  0
 19 20  1  0
 20 21  1  0
 21 22  1  0
 22 23  1  0
 23 24  1  0
 24 25  1  0
 25 26  2  0
 25 27  1  0
 27 28  1  0
 27 29  1  0
 29 30  1  6
 29 31  1  0
 31 32  2  0
 31 33  1  0
  8 34  2  0
 33 14  1  0
 34  4  1  0
M  END
$$$$
