
     RDKit          3D

 34 35  0  0  0  0  0  0  0  0999 V2000
  -14.9165  -32.5610  -11.4410 C   0  0  0  0  0  0  0  0  0  0  0  0
  -14.7884  -34.0460  -11.5143 C   0  0  0  0  0  0  0  0  0  0  0  0
  -14.1471  -34.5119  -12.8045 C   0  0  0  0  0  0  0  0  0  0  0  0
  -16.1444  -34.6632  -11.3486 C   0  0  0  0  0  0  0  0  0  0  0  0
  -17.0868  -34.5046  -12.3423 C   0  0  0  0  0  0  0  0  0  0  0  0
  -18.3315  -35.0680  -12.1881 C   0  0  0  0  0  0  0  0  0  0  0  0
  -18.6490  -35.7953  -11.0414 C   0  0  0  0  0  0  0  0  0  0  0  0
  -17.7212  -35.9610  -10.0448 C   0  0  0  0  0  0  0  0  0  0  0  0
  -18.0212  -36.7255   -8.7969 C   0  0  0  0  0  0  0  0  0  0  0  0
  -18.2180  -38.1238   -9.0225 N   0  0  0  0  0  0  0  0  0  0  0  0
  -17.6983  -39.0185   -8.0443 C   0  0  0  0  0  0  0  0  0  0  0  0
  -16.7562  -40.0556   -8.5460 C   0  0  1  0  0  0  0  0  0  0  0  0
  -15.4495  -39.6847   -8.6415 O   0  0  0  0  0  0  0  0  0  0  0  0
  -16.8941  -41.4054   -7.7911 C   0  0  2  0  0  0  0  0  0  0  0  0
  -16.8199  -42.4527   -8.8148 C   0  0  0  0  0  0  0  0  0  0  0  0
  -15.9569  -43.6423   -8.5284 C   0  0  2  0  0  0  0  0  0  0  0  0
  -14.5513  -43.3523   -8.1323 C   0  0  0  0  0  0  0  0  0  0  0  0
  -16.0205  -44.5483   -9.7547 C   0  0  0  0  0  0  0  0  0  0  0  0
  -17.3616  -45.2616   -9.6963 C   0  0  0  0  0  0  0  0  0  0  0  0
  -17.1814  -46.7593   -9.7500 C   0  0  0  0  0  0  0  0  0  0  0  0
  -17.6599  -47.3351   -8.4349 C   0  0  0  0  0  0  0  0  0  0  0  0
  -19.1704  -47.1479   -8.3822 C   0  0  0  0  0  0  0  0  0  0  0  0
  -19.5826  -47.2720   -7.0820 O   0  0  0  0  0  0  0  0  0  0  0  0
  -20.5343  -46.3476   -6.6647 C   0  0  0  0  0  0  0  0  0  0  0  0
  -20.8691  -45.3155   -7.6327 C   0  0  0  0  0  0  0  0  0  0  0  0
  -21.7294  -45.6517   -8.5402 O   0  0  0  0  0  0  0  0  0  0  0  0
  -20.3400  -43.9956   -7.6617 N   0  0  0  0  0  0  0  0  0  0  0  0
  -20.5613  -43.3034   -8.9413 C   0  0  0  0  0  0  0  0  0  0  0  0
  -19.6669  -43.3232   -6.5959 C   0  0  1  0  0  0  0  0  0  0  0  0
  -18.5727  -44.0736   -5.9071 C   0  0  0  0  0  0  0  0  0  0  0  0
  -19.2903  -41.9148   -6.8968 C   0  0  0  0  0  0  0  0  0  0  0  0
  -20.3245  -41.1703   -7.1244 O   0  0  0  0  0  0  0  0  0  0  0  0
  -18.0574  -41.3071   -6.9621 N   0  0  0  0  0  0  0  0  0  0  0  0
  -16.4651  -35.3821  -10.2205 C   0  0  0  0  0  0  0  0  0  0  0  0
  1  2  1  0
  2  3  1  0
  2  4  1  0
  4  5  2  0
  5  6  1  0
  6  7  2  0
  7  8  1  0
  8  9  1  0
  9 10  1  0
 10 11  1  0
 11 12  1  0
 12 13  1  1
 12 14  1  0
 14 15  1  6
 15 16  1  0
 16 17  1  6
 16 18  1  0
 18 19  1  0
 19 20  1  0
 20 21  1  0
 21 22  1  0
 22 23  1  0
 23 24  1  0
 24 25  1  0
 25 26  2  0
 25 27  1  0
 27 28  1  0
 27 29  1  0
 29 30  1  6
 29 31  1  0
 31 32  2  0
 31 33  1  0
  8 34  2  0
 33 14  1  0
 34  4  1  0
M  END
$$$$
