
     RDKit          3D

 34 35  0  0  0  0  0  0  0  0999 V2000
  -10.9329  -36.8084  -13.8427 C   0  0  0  0  0  0  0  0  0  0  0  0
  -11.4980  -35.5473  -13.2795 C   0  0  0  0  0  0  0  0  0  0  0  0
  -10.6529  -34.9806  -12.1580 C   0  0  0  0  0  0  0  0  0  0  0  0
  -12.8961  -35.8063  -12.8047 C   0  0  0  0  0  0  0  0  0  0  0  0
  -13.9604  -35.3291  -13.5397 C   0  0  0  0  0  0  0  0  0  0  0  0
  -15.2424  -35.5640  -13.1017 C   0  0  0  0  0  0  0  0  0  0  0  0
  -15.4760  -36.2770  -11.9263 C   0  0  0  0  0  0  0  0  0  0  0  0
  -14.4266  -36.7575  -11.1850 C   0  0  0  0  0  0  0  0  0  0  0  0
  -14.6310  -37.5192   -9.9163 C   0  0  0  0  0  0  0  0  0  0  0  0
  -15.8944  -38.1861   -9.8530 N   0  0  0  0  0  0  0  0  0  0  0  0
  -15.9552  -39.3906   -9.0959 C   0  0  0  0  0  0  0  0  0  0  0  0
  -16.8937  -39.3863   -7.9407 C   0  0  1  0  0  0  0  0  0  0  0  0
  -17.1088  -38.1806   -7.3457 O   0  0  0  0  0  0  0  0  0  0  0  0
  -18.2388  -40.0934   -8.2595 C   0  0  2  0  0  0  0  0  0  0  0  0
  -19.0156  -40.0680   -7.0160 C   0  0  0  0  0  0  0  0  0  0  0  0
  -20.4604  -39.6860   -7.1088 C   0  0  2  0  0  0  0  0  0  0  0  0
  -20.7562  -38.4043   -7.8062 C   0  0  0  0  0  0  0  0  0  0  0  0
  -21.0191  -39.6959   -5.6887 C   0  0  0  0  0  0  0  0  0  0  0  0
  -21.2265  -41.1550   -5.3158 C   0  0  0  0  0  0  0  0  0  0  0  0
  -22.6509  -41.4065   -4.8841 C   0  0  0  0  0  0  0  0  0  0  0  0
  -23.2841  -42.3467   -5.8866 C   0  0  0  0  0  0  0  0  0  0  0  0
  -22.6065  -43.7012   -5.7269 C   0  0  0  0  0  0  0  0  0  0  0  0
  -22.8450  -44.4463   -6.8510 O   0  0  0  0  0  0  0  0  0  0  0  0
  -21.7568  -45.1644   -7.3355 C   0  0  0  0  0  0  0  0  0  0  0  0
  -20.4980  -44.9316   -6.6461 C   0  0  0  0  0  0  0  0  0  0  0  0
  -20.3266  -45.5938   -5.5466 O   0  0  0  0  0  0  0  0  0  0  0  0
  -19.4623  -44.0553   -7.0733 N   0  0  0  0  0  0  0  0  0  0  0  0
  -18.4903  -43.7368   -6.0154 C   0  0  0  0  0  0  0  0  0  0  0  0
  -19.2936  -43.5091   -8.3827 C   0  0  1  0  0  0  0  0  0  0  0  0
  -20.4969  -42.8888   -9.0168 C   0  0  0  0  0  0  0  0  0  0  0  0
  -18.0692  -42.6794   -8.5507 C   0  0  0  0  0  0  0  0  0  0  0  0
  -16.9861  -43.3626   -8.3615 O   0  0  0  0  0  0  0  0  0  0  0  0
  -17.9202  -41.3491   -8.8694 N   0  0  0  0  0  0  0  0  0  0  0  0
  -13.1347  -36.5089  -11.6463 C   0  0  0  0  0  0  0  0  0  0  0  0
  1  2  1  0
  2  3  1  0
  2  4  1  0
  4  5  2  0
  5  6  1  0
  6  7  2  0
  7  8  1  0
  8  9  1  0
  9 10  1  0
 10 11  1  0
 11 12  1  0
 12 13  1  6
 12 14  1  0
 14 15  1  1
 15 16  1  0
 16 17  1  1
 16 18  1  0
 18 19  1  0
 19 20  1  0
 20 21  1  0
 21 22  1  0
 22 23  1  0
 23 24  1  0
 24 25  1  0
 25 26  2  0
 25 27  1  0
 27 28  1  0
 27 29  1  0
 29 30  1  1
 29 31  1  0
 31 32  2  0
 31 33  1  0
  8 34  2  0
 33 14  1  0
 34  4  1  0
M  END
$$$$
