
     RDKit          3D

 34 35  0  0  0  0  0  0  0  0999 V2000
  -12.6626  -34.6320  -11.6189 C   0  0  0  0  0  0  0  0  0  0  0  0
  -13.7668  -35.2708  -12.3932 C   0  0  0  0  0  0  0  0  0  0  0  0
  -15.1361  -34.7963  -11.9538 C   0  0  0  0  0  0  0  0  0  0  0  0
  -13.6595  -36.7602  -12.2612 C   0  0  0  0  0  0  0  0  0  0  0  0
  -13.6051  -37.5387  -13.3977 C   0  0  0  0  0  0  0  0  0  0  0  0
  -13.5101  -38.9050  -13.2760 C   0  0  0  0  0  0  0  0  0  0  0  0
  -13.4687  -39.5087  -12.0197 C   0  0  0  0  0  0  0  0  0  0  0  0
  -13.5221  -38.7465  -10.8805 C   0  0  0  0  0  0  0  0  0  0  0  0
  -13.4884  -39.3520   -9.5153 C   0  0  0  0  0  0  0  0  0  0  0  0
  -14.4843  -38.8228   -8.6361 N   0  0  0  0  0  0  0  0  0  0  0  0
  -15.8395  -39.1624   -8.9112 C   0  0  0  0  0  0  0  0  0  0  0  0
  -16.6506  -39.6009   -7.7428 C   0  0  1  0  0  0  0  0  0  0  0  0
  -16.8221  -38.6829   -6.7519 O   0  0  0  0  0  0  0  0  0  0  0  0
  -18.0097  -40.2264   -8.1583 C   0  0  2  0  0  0  0  0  0  0  0  0
  -18.8499  -40.2069   -6.9567 C   0  0  0  0  0  0  0  0  0  0  0  0
  -20.2672  -39.7487   -7.1091 C   0  0  2  0  0  0  0  0  0  0  0  0
  -20.4620  -38.4289   -7.7702 C   0  0  0  0  0  0  0  0  0  0  0  0
  -20.9012  -39.7821   -5.7214 C   0  0  0  0  0  0  0  0  0  0  0  0
  -21.1995  -41.2413   -5.4172 C   0  0  0  0  0  0  0  0  0  0  0  0
  -22.6556  -41.4355   -5.0700 C   0  0  0  0  0  0  0  0  0  0  0  0
  -23.2793  -42.3050   -6.1401 C   0  0  0  0  0  0  0  0  0  0  0  0
  -22.6784  -43.6972   -5.9986 C   0  0  0  0  0  0  0  0  0  0  0  0
  -22.8923  -44.3876   -7.1620 O   0  0  0  0  0  0  0  0  0  0  0  0
  -21.8161  -45.1420   -7.6172 C   0  0  0  0  0  0  0  0  0  0  0  0
  -20.5862  -44.9990   -6.8550 C   0  0  0  0  0  0  0  0  0  0  0  0
  -20.5067  -45.7088   -5.7748 O   0  0  0  0  0  0  0  0  0  0  0  0
  -19.4875  -44.1615   -7.1933 N   0  0  0  0  0  0  0  0  0  0  0  0
  -18.5593  -43.9319   -6.0748 C   0  0  0  0  0  0  0  0  0  0  0  0
  -19.2222  -43.5772   -8.4697 C   0  0  1  0  0  0  0  0  0  0  0  0
  -20.3579  -42.8736   -9.1405 C   0  0  0  0  0  0  0  0  0  0  0  0
  -17.9514  -42.8053   -8.5415 C   0  0  0  0  0  0  0  0  0  0  0  0
  -16.9147  -43.5493   -8.3233 O   0  0  0  0  0  0  0  0  0  0  0  0
  -17.7205  -41.4736   -8.7996 N   0  0  0  0  0  0  0  0  0  0  0  0
  -13.6179  -37.3632  -11.0255 C   0  0  0  0  0  0  0  0  0  0  0  0
  1  2  1  0
  2  3  1  0
  2  4  1  0
  4  5  2  0
  5  6  1  0
  6  7  2  0
  7  8  1  0
  8  9  1  0
  9 10  1  0
 10 11  1  0
 11 12  1  0
 12 13  1  1
 12 14  1  0
 14 15  1  1
 15 16  1  0
 16 17  1  1
 16 18  1  0
 18 19  1  0
 19 20  1  0
 20 21  1  0
 21 22  1  0
 22 23  1  0
 23 24  1  0
 24 25  1  0
 25 26  2  0
 25 27  1  0
 27 28  1  0
 27 29  1  0
 29 30  1  1
 29 31  1  0
 31 32  2  0
 31 33  1  0
  8 34  2  0
 33 14  1  0
 34  4  1  0
M  END
$$$$
