
     RDKit          3D

 34 35  0  0  0  0  0  0  0  0999 V2000
  -11.8283  -34.3100  -12.7991 C   0  0  0  0  0  0  0  0  0  0  0  0
  -12.3942  -35.6633  -13.0735 C   0  0  0  0  0  0  0  0  0  0  0  0
  -13.1036  -35.7377  -14.4093 C   0  0  0  0  0  0  0  0  0  0  0  0
  -13.3268  -36.0389  -11.9616 C   0  0  0  0  0  0  0  0  0  0  0  0
  -14.5174  -35.3590  -11.8174 C   0  0  0  0  0  0  0  0  0  0  0  0
  -15.3708  -35.7016  -10.7951 C   0  0  0  0  0  0  0  0  0  0  0  0
  -15.0453  -36.7256   -9.9063 C   0  0  0  0  0  0  0  0  0  0  0  0
  -13.8640  -37.4103  -10.0377 C   0  0  0  0  0  0  0  0  0  0  0  0
  -13.4721  -38.5083   -9.1037 C   0  0  0  0  0  0  0  0  0  0  0  0
  -14.4281  -38.7370   -8.0651 N   0  0  0  0  0  0  0  0  0  0  0  0
  -15.5736  -39.5150   -8.3972 C   0  0  0  0  0  0  0  0  0  0  0  0
  -16.6190  -39.6170   -7.3427 C   0  0  1  0  0  0  0  0  0  0  0  0
  -16.7869  -38.5192   -6.5549 O   0  0  0  0  0  0  0  0  0  0  0  0
  -17.9818  -40.1137   -7.8967 C   0  0  2  0  0  0  0  0  0  0  0  0
  -18.9122  -40.0942   -6.7635 C   0  0  0  0  0  0  0  0  0  0  0  0
  -20.2760  -39.5215   -6.9960 C   0  0  2  0  0  0  0  0  0  0  0  0
  -20.3215  -38.1573   -7.5906 C   0  0  0  0  0  0  0  0  0  0  0  0
  -21.0201  -39.5803   -5.6649 C   0  0  0  0  0  0  0  0  0  0  0  0
  -21.4462  -41.0266   -5.4712 C   0  0  0  0  0  0  0  0  0  0  0  0
  -22.9357  -41.1272   -5.2480 C   0  0  0  0  0  0  0  0  0  0  0  0
  -23.5324  -41.8880   -6.4120 C   0  0  0  0  0  0  0  0  0  0  0  0
  -23.0467  -43.3277   -6.3079 C   0  0  0  0  0  0  0  0  0  0  0  0
  -23.2156  -43.9366   -7.5229 O   0  0  0  0  0  0  0  0  0  0  0  0
  -22.1636  -44.7457   -7.9388 C   0  0  0  0  0  0  0  0  0  0  0  0
  -20.9918  -44.7381   -7.0780 C   0  0  0  0  0  0  0  0  0  0  0  0
  -21.0506  -45.5085   -6.0389 O   0  0  0  0  0  0  0  0  0  0  0  0
  -19.8119  -43.9702   -7.2816 N   0  0  0  0  0  0  0  0  0  0  0  0
  -18.9625  -43.8722   -6.0841 C   0  0  0  0  0  0  0  0  0  0  0  0
  -19.4036  -43.3406   -8.4973 C   0  0  1  0  0  0  0  0  0  0  0  0
  -20.4281  -42.5174   -9.2098 C   0  0  0  0  0  0  0  0  0  0  0  0
  -18.0788  -42.6654   -8.4263 C   0  0  0  0  0  0  0  0  0  0  0  0
  -17.1194  -43.4970   -8.1743 O   0  0  0  0  0  0  0  0  0  0  0  0
  -17.7327  -41.3433   -8.5868 N   0  0  0  0  0  0  0  0  0  0  0  0
  -13.0129  -37.0478  -11.0808 C   0  0  0  0  0  0  0  0  0  0  0  0
  1  2  1  0
  2  3  1  0
  2  4  1  0
  4  5  2  0
  5  6  1  0
  6  7  2  0
  7  8  1  0
  8  9  1  0
  9 10  1  0
 10 11  1  0
 11 12  1  0
 12 13  1  6
 12 14  1  0
 14 15  1  1
 15 16  1  0
 16 17  1  1
 16 18  1  0
 18 19  1  0
 19 20  1  0
 20 21  1  0
 21 22  1  0
 22 23  1  0
 23 24  1  0
 24 25  1  0
 25 26  2  0
 25 27  1  0
 27 28  1  0
 27 29  1  0
 29 30  1  1
 29 31  1  0
 31 32  2  0
 31 33  1  0
  8 34  2  0
 33 14  1  0
 34  4  1  0
M  END
$$$$
