
     RDKit          3D

 34 35  0  0  0  0  0  0  0  0999 V2000
  -12.6119  -38.7900  -12.8337 C   0  0  0  0  0  0  0  0  0  0  0  0
  -12.3500  -37.3233  -12.7494 C   0  0  0  0  0  0  0  0  0  0  0  0
  -11.2700  -36.9818  -11.7443 C   0  0  0  0  0  0  0  0  0  0  0  0
  -13.6273  -36.6165  -12.4088 C   0  0  0  0  0  0  0  0  0  0  0  0
  -14.2301  -35.8139  -13.3538 C   0  0  0  0  0  0  0  0  0  0  0  0
  -15.3998  -35.1631  -13.0396 C   0  0  0  0  0  0  0  0  0  0  0  0
  -15.9802  -35.3060  -11.7797 C   0  0  0  0  0  0  0  0  0  0  0  0
  -15.3914  -36.1012  -10.8297 C   0  0  0  0  0  0  0  0  0  0  0  0
  -15.9743  -36.2764   -9.4655 C   0  0  0  0  0  0  0  0  0  0  0  0
  -15.3946  -37.3616   -8.7367 N   0  0  0  0  0  0  0  0  0  0  0  0
  -15.7940  -38.6777   -9.1054 C   0  0  0  0  0  0  0  0  0  0  0  0
  -16.9710  -39.2280   -8.3794 C   0  0  1  0  0  0  0  0  0  0  0  0
  -17.9065  -38.3235   -7.9787 O   0  0  0  0  0  0  0  0  0  0  0  0
  -17.6348  -40.4154   -9.1280 C   0  0  2  0  0  0  0  0  0  0  0  0
  -18.7883  -40.8140   -8.3152 C   0  0  0  0  0  0  0  0  0  0  0  0
  -20.0794  -41.0782   -9.0261 C   0  0  2  0  0  0  0  0  0  0  0  0
  -20.5641  -39.9974   -9.9281 C   0  0  0  0  0  0  0  0  0  0  0  0
  -21.1144  -41.4287   -7.9609 C   0  0  0  0  0  0  0  0  0  0  0  0
  -20.8295  -42.8600   -7.5355 C   0  0  0  0  0  0  0  0  0  0  0  0
  -22.0571  -43.7250   -7.6881 C   0  0  0  0  0  0  0  0  0  0  0  0
  -21.7648  -44.7695   -8.7433 C   0  0  0  0  0  0  0  0  0  0  0  0
  -20.7183  -45.7141   -8.1670 C   0  0  0  0  0  0  0  0  0  0  0  0
  -20.1371  -46.4055   -9.1965 O   0  0  0  0  0  0  0  0  0  0  0  0
  -18.7567  -46.5543   -9.1140 C   0  0  0  0  0  0  0  0  0  0  0  0
  -18.1185  -45.8584   -8.0082 C   0  0  0  0  0  0  0  0  0  0  0  0
  -18.1583  -46.4628   -6.8637 O   0  0  0  0  0  0  0  0  0  0  0  0
  -17.4676  -44.5959   -8.0812 N   0  0  0  0  0  0  0  0  0  0  0  0
  -17.2497  -43.9719   -6.7665 C   0  0  0  0  0  0  0  0  0  0  0  0
  -17.0173  -43.9360   -9.2656 C   0  0  1  0  0  0  0  0  0  0  0  0
  -17.9882  -43.8429  -10.3985 C   0  0  0  0  0  0  0  0  0  0  0  0
  -16.3011  -42.6539   -9.0219 C   0  0  0  0  0  0  0  0  0  0  0  0
  -15.2177  -42.8225   -8.3339 O   0  0  0  0  0  0  0  0  0  0  0  0
  -16.6023  -41.3675   -9.4065 N   0  0  0  0  0  0  0  0  0  0  0  0
  -14.2060  -36.7525  -11.1682 C   0  0  0  0  0  0  0  0  0  0  0  0
  1  2  1  0
  2  3  1  0
  2  4  1  0
  4  5  2  0
  5  6  1  0
  6  7  2  0
  7  8  1  0
  8  9  1  0
  9 10  1  0
 10 11  1  0
 11 12  1  0
 12 13  1  6
 12 14  1  0
 14 15  1  1
 15 16  1  0
 16 17  1  1
 16 18  1  0
 18 19  1  0
 19 20  1  0
 20 21  1  0
 21 22  1  0
 22 23  1  0
 23 24  1  0
 24 25  1  0
 25 26  2  0
 25 27  1  0
 27 28  1  0
 27 29  1  0
 29 30  1  6
 29 31  1  0
 31 32  2  0
 31 33  1  0
  8 34  2  0
 33 14  1  0
 34  4  1  0
M  END
$$$$
