
     RDKit          3D

 34 35  0  0  0  0  0  0  0  0999 V2000
  -14.8582  -34.0963  -12.9530 C   0  0  0  0  0  0  0  0  0  0  0  0
  -14.8624  -34.6992  -11.5879 C   0  0  0  0  0  0  0  0  0  0  0  0
  -13.8656  -34.0404  -10.6576 C   0  0  0  0  0  0  0  0  0  0  0  0
  -14.5850  -36.1681  -11.7003 C   0  0  0  0  0  0  0  0  0  0  0  0
  -14.6176  -36.7706  -12.9399 C   0  0  0  0  0  0  0  0  0  0  0  0
  -14.3666  -38.1186  -13.0419 C   0  0  0  0  0  0  0  0  0  0  0  0
  -14.0807  -38.8794  -11.9088 C   0  0  0  0  0  0  0  0  0  0  0  0
  -14.0451  -38.2932  -10.6691 C   0  0  0  0  0  0  0  0  0  0  0  0
  -13.7508  -39.0715   -9.4286 C   0  0  0  0  0  0  0  0  0  0  0  0
  -14.7010  -38.8514   -8.3828 N   0  0  0  0  0  0  0  0  0  0  0  0
  -15.0081  -39.9583   -7.5414 C   0  0  0  0  0  0  0  0  0  0  0  0
  -16.1980  -39.7969   -6.6620 C   0  0  1  0  0  0  0  0  0  0  0  0
  -16.3266  -38.5924   -6.0402 O   0  0  0  0  0  0  0  0  0  0  0  0
  -17.5220  -40.1998   -7.3660 C   0  0  2  0  0  0  0  0  0  0  0  0
  -18.5844  -40.0069   -6.3740 C   0  0  0  0  0  0  0  0  0  0  0  0
  -19.8385  -39.3244   -6.8250 C   0  0  2  0  0  0  0  0  0  0  0  0
  -19.6625  -38.0100   -7.5019 C   0  0  0  0  0  0  0  0  0  0  0  0
  -20.7512  -39.2124   -5.6071 C   0  0  0  0  0  0  0  0  0  0  0  0
  -21.3488  -40.5926   -5.3862 C   0  0  0  0  0  0  0  0  0  0  0  0
  -22.8569  -40.5326   -5.3631 C   0  0  0  0  0  0  0  0  0  0  0  0
  -23.3742  -41.3166   -6.5495 C   0  0  0  0  0  0  0  0  0  0  0  0
  -23.0604  -42.7847   -6.2929 C   0  0  0  0  0  0  0  0  0  0  0  0
  -23.1333  -43.4629   -7.4805 O   0  0  0  0  0  0  0  0  0  0  0  0
  -22.1272  -44.3981   -7.6988 C   0  0  0  0  0  0  0  0  0  0  0  0
  -21.0829  -44.4395   -6.6880 C   0  0  0  0  0  0  0  0  0  0  0  0
  -21.3570  -45.1215   -5.6219 O   0  0  0  0  0  0  0  0  0  0  0  0
  -19.8124  -43.8060   -6.7744 N   0  0  0  0  0  0  0  0  0  0  0  0
  -19.1201  -43.7017   -5.4801 C   0  0  0  0  0  0  0  0  0  0  0  0
  -19.1855  -43.3104   -7.9587 C   0  0  1  0  0  0  0  0  0  0  0  0
  -20.0164  -42.4476   -8.8532 C   0  0  0  0  0  0  0  0  0  0  0  0
  -17.8176  -42.7625   -7.7483 C   0  0  0  0  0  0  0  0  0  0  0  0
  -16.9919  -43.6616   -7.3176 O   0  0  0  0  0  0  0  0  0  0  0  0
  -17.3162  -41.4954   -7.9398 N   0  0  0  0  0  0  0  0  0  0  0  0
  -14.3022  -36.9253  -10.5872 C   0  0  0  0  0  0  0  0  0  0  0  0
  1  2  1  0
  2  3  1  0
  2  4  1  0
  4  5  2  0
  5  6  1  0
  6  7  2  0
  7  8  1  0
  8  9  1  0
  9 10  1  0
 10 11  1  0
 11 12  1  0
 12 13  1  6
 12 14  1  0
 14 15  1  1
 15 16  1  0
 16 17  1  1
 16 18  1  0
 18 19  1  0
 19 20  1  0
 20 21  1  0
 21 22  1  0
 22 23  1  0
 23 24  1  0
 24 25  1  0
 25 26  2  0
 25 27  1  0
 27 28  1  0
 27 29  1  0
 29 30  1  1
 29 31  1  0
 31 32  2  0
 31 33  1  0
  8 34  2  0
 33 14  1  0
 34  4  1  0
M  END
$$$$
