
     RDKit          3D

 34 35  0  0  0  0  0  0  0  0999 V2000
  -22.5999  -42.7472   -5.2127 C   0  0  0  0  0  0  0  0  0  0  0  0
  -23.1223  -41.3500   -5.2561 C   0  0  0  0  0  0  0  0  0  0  0  0
  -24.6290  -41.2962   -5.3983 C   0  0  0  0  0  0  0  0  0  0  0  0
  -22.4616  -40.6149   -6.3832 C   0  0  0  0  0  0  0  0  0  0  0  0
  -23.0169  -40.6673   -7.6439 C   0  0  0  0  0  0  0  0  0  0  0  0
  -22.4084  -39.9958   -8.6780 C   0  0  0  0  0  0  0  0  0  0  0  0
  -21.2398  -39.2653   -8.4652 C   0  0  0  0  0  0  0  0  0  0  0  0
  -20.6761  -39.2045   -7.2161 C   0  0  0  0  0  0  0  0  0  0  0  0
  -19.4214  -38.4406   -6.9452 C   0  0  0  0  0  0  0  0  0  0  0  0
  -18.2473  -39.2569   -6.9569 N   0  0  0  0  0  0  0  0  0  0  0  0
  -16.9982  -38.5999   -6.7679 C   0  0  0  0  0  0  0  0  0  0  0  0
  -16.3653  -38.0402   -7.9932 C   0  0  1  0  0  0  0  0  0  0  0  0
  -16.2612  -36.6837   -8.0496 O   0  0  0  0  0  0  0  0  0  0  0  0
  -15.0063  -38.7134   -8.3262 C   0  0  2  0  0  0  0  0  0  0  0  0
  -14.7513  -38.4345   -9.7429 C   0  0  0  0  0  0  0  0  0  0  0  0
  -13.3728  -37.9922  -10.1253 C   0  0  2  0  0  0  0  0  0  0  0  0
  -12.8238  -36.8318   -9.3712 C   0  0  0  0  0  0  0  0  0  0  0  0
  -13.3865  -37.7307  -11.6288 C   0  0  0  0  0  0  0  0  0  0  0  0
  -13.3494  -39.0917  -12.3048 C   0  0  0  0  0  0  0  0  0  0  0  0
  -12.1929  -39.1856  -13.2704 C   0  0  0  0  0  0  0  0  0  0  0  0
  -11.2406  -40.2439  -12.7578 C   0  0  0  0  0  0  0  0  0  0  0  0
  -11.9432  -41.5884  -12.8933 C   0  0  0  0  0  0  0  0  0  0  0  0
  -11.3092  -42.4976  -12.0889 O   0  0  0  0  0  0  0  0  0  0  0  0
  -12.1445  -43.3478  -11.3720 C   0  0  0  0  0  0  0  0  0  0  0  0
  -13.5673  -43.0739  -11.4932 C   0  0  0  0  0  0  0  0  0  0  0  0
  -14.1449  -43.5497  -12.5499 O   0  0  0  0  0  0  0  0  0  0  0  0
  -14.3583  -42.3424  -10.5646 N   0  0  0  0  0  0  0  0  0  0  0  0
  -15.6521  -41.9057  -11.1128 C   0  0  0  0  0  0  0  0  0  0  0  0
  -14.0187  -42.0355   -9.2112 C   0  0  1  0  0  0  0  0  0  0  0  0
  -12.6590  -41.4637   -8.9682 C   0  0  0  0  0  0  0  0  0  0  0  0
  -15.0822  -41.3169   -8.4573 C   0  0  0  0  0  0  0  0  0  0  0  0
  -16.1647  -42.0187   -8.3503 O   0  0  0  0  0  0  0  0  0  0  0  0
  -15.0869  -40.0700   -7.8752 N   0  0  0  0  0  0  0  0  0  0  0  0
  -21.3087  -39.8921   -6.1812 C   0  0  0  0  0  0  0  0  0  0  0  0
  1  2  1  0
  2  3  1  0
  2  4  1  0
  4  5  2  0
  5  6  1  0
  6  7  2  0
  7  8  1  0
  8  9  1  0
  9 10  1  0
 10 11  1  0
 11 12  1  0
 12 13  1  1
 12 14  1  0
 14 15  1  6
 15 16  1  0
 16 17  1  1
 16 18  1  0
 18 19  1  0
 19 20  1  0
 20 21  1  0
 21 22  1  0
 22 23  1  0
 23 24  1  0
 24 25  1  0
 25 26  2  0
 25 27  1  0
 27 28  1  0
 27 29  1  0
 29 30  1  6
 29 31  1  0
 31 32  2  0
 31 33  1  0
  8 34  2  0
 33 14  1  0
 34  4  1  0
M  END
$$$$
