
     RDKit          3D

 34 35  0  0  0  0  0  0  0  0999 V2000
  -23.9441  -39.9265   -9.9601 C   0  0  0  0  0  0  0  0  0  0  0  0
  -24.2636  -39.9453   -8.5025 C   0  0  0  0  0  0  0  0  0  0  0  0
  -25.2737  -38.8861   -8.1143 C   0  0  0  0  0  0  0  0  0  0  0  0
  -22.9958  -39.7740   -7.7211 C   0  0  0  0  0  0  0  0  0  0  0  0
  -22.8550  -40.4165   -6.5095 C   0  0  0  0  0  0  0  0  0  0  0  0
  -21.6933  -40.2562   -5.7915 C   0  0  0  0  0  0  0  0  0  0  0  0
  -20.6605  -39.4534   -6.2745 C   0  0  0  0  0  0  0  0  0  0  0  0
  -20.7870  -38.8081   -7.4783 C   0  0  0  0  0  0  0  0  0  0  0  0
  -19.7093  -37.9327   -8.0295 C   0  0  0  0  0  0  0  0  0  0  0  0
  -18.6305  -37.7185   -7.1157 N   0  0  0  0  0  0  0  0  0  0  0  0
  -17.5490  -38.6437   -7.1599 C   0  0  0  0  0  0  0  0  0  0  0  0
  -16.6707  -38.5614   -8.3587 C   0  0  1  0  0  0  0  0  0  0  0  0
  -16.1386  -37.3379   -8.6307 O   0  0  0  0  0  0  0  0  0  0  0  0
  -15.5715  -39.6578   -8.3721 C   0  0  2  0  0  0  0  0  0  0  0  0
  -15.2561  -39.8995   -9.7835 C   0  0  0  0  0  0  0  0  0  0  0  0
  -13.8113  -39.9994  -10.1639 C   0  0  2  0  0  0  0  0  0  0  0  0
  -12.9407  -38.8708   -9.7340 C   0  0  0  0  0  0  0  0  0  0  0  0
  -13.7586  -40.2071  -11.6748 C   0  0  0  0  0  0  0  0  0  0  0  0
  -14.1272  -41.6605  -11.9248 C   0  0  0  0  0  0  0  0  0  0  0  0
  -13.0561  -42.3610  -12.7251 C   0  0  0  0  0  0  0  0  0  0  0  0
  -12.4524  -43.4409  -11.8538 C   0  0  0  0  0  0  0  0  0  0  0  0
  -13.5194  -44.5089  -11.6528 C   0  0  0  0  0  0  0  0  0  0  0  0
  -13.1743  -45.2758  -10.5718 O   0  0  0  0  0  0  0  0  0  0  0  0
  -14.2169  -45.6007   -9.7106 C   0  0  0  0  0  0  0  0  0  0  0  0
  -15.4977  -44.9861  -10.0207 C   0  0  0  0  0  0  0  0  0  0  0  0
  -16.1971  -45.5733  -10.9388 O   0  0  0  0  0  0  0  0  0  0  0  0
  -16.0326  -43.8185   -9.4096 N   0  0  0  0  0  0  0  0  0  0  0  0
  -17.1454  -43.2197  -10.1636 C   0  0  0  0  0  0  0  0  0  0  0  0
  -15.6082  -43.2294   -8.1792 C   0  0  1  0  0  0  0  0  0  0  0  0
  -14.1388  -43.0189   -8.0016 C   0  0  0  0  0  0  0  0  0  0  0  0
  -16.4086  -42.0489   -7.7532 C   0  0  0  0  0  0  0  0  0  0  0  0
  -17.6485  -42.3515   -7.5368 O   0  0  0  0  0  0  0  0  0  0  0  0
  -16.0432  -40.7368   -7.5574 N   0  0  0  0  0  0  0  0  0  0  0  0
  -21.9724  -38.9839   -8.1909 C   0  0  0  0  0  0  0  0  0  0  0  0
  1  2  1  0
  2  3  1  0
  2  4  1  0
  4  5  2  0
  5  6  1  0
  6  7  2  0
  7  8  1  0
  8  9  1  0
  9 10  1  0
 10 11  1  0
 11 12  1  0
 12 13  1  1
 12 14  1  0
 14 15  1  6
 15 16  1  0
 16 17  1  6
 16 18  1  0
 18 19  1  0
 19 20  1  0
 20 21  1  0
 21 22  1  0
 22 23  1  0
 23 24  1  0
 24 25  1  0
 25 26  2  0
 25 27  1  0
 27 28  1  0
 27 29  1  0
 29 30  1  6
 29 31  1  0
 31 32  2  0
 31 33  1  0
  8 34  2  0
 33 14  1  0
 34  4  1  0
M  END
$$$$
