
     RDKit          3D

 34 35  0  0  0  0  0  0  0  0999 V2000
  -19.8604  -41.6026   -1.5958 C   0  0  0  0  0  0  0  0  0  0  0  0
  -19.7582  -41.1280   -3.0069 C   0  0  0  0  0  0  0  0  0  0  0  0
  -18.9559  -39.8500   -3.1344 C   0  0  0  0  0  0  0  0  0  0  0  0
  -21.1381  -40.9398   -3.5614 C   0  0  0  0  0  0  0  0  0  0  0  0
  -22.2089  -40.8511   -2.6977 C   0  0  0  0  0  0  0  0  0  0  0  0
  -23.4748  -40.6820   -3.2071 C   0  0  0  0  0  0  0  0  0  0  0  0
  -23.6856  -40.5998   -4.5831 C   0  0  0  0  0  0  0  0  0  0  0  0
  -22.6295  -40.6866   -5.4542 C   0  0  0  0  0  0  0  0  0  0  0  0
  -22.8107  -40.6113   -6.9350 C   0  0  0  0  0  0  0  0  0  0  0  0
  -21.5762  -40.5888   -7.6565 N   0  0  0  0  0  0  0  0  0  0  0  0
  -20.7874  -39.4076   -7.5562 C   0  0  0  0  0  0  0  0  0  0  0  0
  -20.0945  -38.9800   -8.8022 C   0  0  1  0  0  0  0  0  0  0  0  0
  -20.6596  -37.9416   -9.4778 O   0  0  0  0  0  0  0  0  0  0  0  0
  -18.5751  -38.7404   -8.5904 C   0  0  2  0  0  0  0  0  0  0  0  0
  -18.0649  -38.2198   -9.8626 C   0  0  0  0  0  0  0  0  0  0  0  0
  -17.1366  -37.0461   -9.8091 C   0  0  2  0  0  0  0  0  0  0  0  0
  -17.6182  -35.8638   -9.0430 C   0  0  0  0  0  0  0  0  0  0  0  0
  -16.7920  -36.6807  -11.2502 C   0  0  0  0  0  0  0  0  0  0  0  0
  -15.7790  -37.7091  -11.7267 C   0  0  0  0  0  0  0  0  0  0  0  0
  -14.5261  -37.0394  -12.2366 C   0  0  0  0  0  0  0  0  0  0  0  0
  -13.3825  -37.4326  -11.3269 C   0  0  0  0  0  0  0  0  0  0  0  0
  -13.1211  -38.9171  -11.5449 C   0  0  0  0  0  0  0  0  0  0  0  0
  -12.3999  -39.3959  -10.4836 O   0  0  0  0  0  0  0  0  0  0  0  0
  -12.7992  -40.6372   -9.9995 C   0  0  0  0  0  0  0  0  0  0  0  0
  -13.9930  -41.1933  -10.6157 C   0  0  0  0  0  0  0  0  0  0  0  0
  -13.8143  -41.7964  -11.7476 O   0  0  0  0  0  0  0  0  0  0  0  0
  -15.3117  -41.1304  -10.0866 N   0  0  0  0  0  0  0  0  0  0  0  0
  -16.3561  -41.4357  -11.0772 C   0  0  0  0  0  0  0  0  0  0  0  0
  -15.6759  -40.8303   -8.7381 C   0  0  1  0  0  0  0  0  0  0  0  0
  -15.0425  -39.6262   -8.1186 C   0  0  0  0  0  0  0  0  0  0  0  0
  -17.1364  -40.9117   -8.4619 C   0  0  0  0  0  0  0  0  0  0  0  0
  -17.6030  -42.1049   -8.6473 O   0  0  0  0  0  0  0  0  0  0  0  0
  -18.0296  -39.9493   -8.0505 N   0  0  0  0  0  0  0  0  0  0  0  0
  -21.3541  -40.8577   -4.9175 C   0  0  0  0  0  0  0  0  0  0  0  0
  1  2  1  0
  2  3  1  0
  2  4  1  0
  4  5  2  0
  5  6  1  0
  6  7  2  0
  7  8  1  0
  8  9  1  0
  9 10  1  0
 10 11  1  0
 11 12  1  0
 12 13  1  1
 12 14  1  0
 14 15  1  6
 15 16  1  0
 16 17  1  6
 16 18  1  0
 18 19  1  0
 19 20  1  0
 20 21  1  0
 21 22  1  0
 22 23  1  0
 23 24  1  0
 24 25  1  0
 25 26  2  0
 25 27  1  0
 27 28  1  0
 27 29  1  0
 29 30  1  6
 29 31  1  0
 31 32  2  0
 31 33  1  0
  8 34  2  0
 33 14  1  0
 34  4  1  0
M  END
$$$$
