
     RDKit          3D

 34 35  0  0  0  0  0  0  0  0999 V2000
  -23.3913  -37.9389   -5.6694 C   0  0  0  0  0  0  0  0  0  0  0  0
  -23.7745  -39.0669   -6.5683 C   0  0  0  0  0  0  0  0  0  0  0  0
  -24.2812  -40.2728   -5.8054 C   0  0  0  0  0  0  0  0  0  0  0  0
  -22.5960  -39.4389   -7.4168 C   0  0  0  0  0  0  0  0  0  0  0  0
  -22.7026  -39.3743   -8.7898 C   0  0  0  0  0  0  0  0  0  0  0  0
  -21.6224  -39.7192   -9.5676 C   0  0  0  0  0  0  0  0  0  0  0  0
  -20.4251  -40.1319   -8.9840 C   0  0  0  0  0  0  0  0  0  0  0  0
  -20.3049  -40.2010   -7.6193 C   0  0  0  0  0  0  0  0  0  0  0  0
  -19.0440  -40.6450   -6.9526 C   0  0  0  0  0  0  0  0  0  0  0  0
  -18.0912  -39.5922   -6.7839 N   0  0  0  0  0  0  0  0  0  0  0  0
  -17.0117  -39.5391   -7.7110 C   0  0  0  0  0  0  0  0  0  0  0  0
  -15.8216  -38.7562   -7.2799 C   0  0  1  0  0  0  0  0  0  0  0  0
  -15.5330  -38.7852   -5.9495 O   0  0  0  0  0  0  0  0  0  0  0  0
  -14.5588  -39.0713   -8.1266 C   0  0  2  0  0  0  0  0  0  0  0  0
  -14.6477  -38.2232   -9.3195 C   0  0  0  0  0  0  0  0  0  0  0  0
  -13.4087  -37.5018   -9.7513 C   0  0  2  0  0  0  0  0  0  0  0  0
  -12.7323  -36.6799   -8.7103 C   0  0  0  0  0  0  0  0  0  0  0  0
  -13.7785  -36.6676  -10.9745 C   0  0  0  0  0  0  0  0  0  0  0  0
  -13.8614  -37.6320  -12.1467 C   0  0  0  0  0  0  0  0  0  0  0  0
  -12.9587  -37.1930  -13.2740 C   0  0  0  0  0  0  0  0  0  0  0  0
  -11.8840  -38.2440  -13.4487 C   0  0  0  0  0  0  0  0  0  0  0  0
  -12.5609  -39.4980  -13.9861 C   0  0  0  0  0  0  0  0  0  0  0  0
  -11.7323  -40.5680  -13.7762 O   0  0  0  0  0  0  0  0  0  0  0  0
  -12.3540  -41.7276  -13.3255 C   0  0  0  0  0  0  0  0  0  0  0  0
  -13.7732  -41.6028  -13.0347 C   0  0  0  0  0  0  0  0  0  0  0  0
  -14.5669  -41.6852  -14.0545 O   0  0  0  0  0  0  0  0  0  0  0  0
  -14.3471  -41.4028  -11.7487 N   0  0  0  0  0  0  0  0  0  0  0  0
  -15.7445  -40.9444  -11.7952 C   0  0  0  0  0  0  0  0  0  0  0  0
  -13.7112  -41.6208  -10.4880 C   0  0  1  0  0  0  0  0  0  0  0  0
  -12.3487  -41.0327  -10.3073 C   0  0  0  0  0  0  0  0  0  0  0  0
  -14.5902  -41.3960   -9.3079 C   0  0  0  0  0  0  0  0  0  0  0  0
  -15.5980  -42.2081   -9.2875 O   0  0  0  0  0  0  0  0  0  0  0  0
  -14.4944  -40.4942   -8.2731 N   0  0  0  0  0  0  0  0  0  0  0  0
  -21.4115  -39.8469   -6.8486 C   0  0  0  0  0  0  0  0  0  0  0  0
  1  2  1  0
  2  3  1  0
  2  4  1  0
  4  5  2  0
  5  6  1  0
  6  7  2  0
  7  8  1  0
  8  9  1  0
  9 10  1  0
 10 11  1  0
 11 12  1  0
 12 13  1  1
 12 14  1  0
 14 15  1  6
 15 16  1  0
 16 17  1  1
 16 18  1  0
 18 19  1  0
 19 20  1  0
 20 21  1  0
 21 22  1  0
 22 23  1  0
 23 24  1  0
 24 25  1  0
 25 26  2  0
 25 27  1  0
 27 28  1  0
 27 29  1  0
 29 30  1  1
 29 31  1  0
 31 32  2  0
 31 33  1  0
  8 34  2  0
 33 14  1  0
 34  4  1  0
M  END
$$$$
