
     RDKit          3D

 34 35  0  0  0  0  0  0  0  0999 V2000
  -16.0347  -33.9080  -10.7774 C   0  0  0  0  0  0  0  0  0  0  0  0
  -14.6364  -34.1555  -11.2364 C   0  0  0  0  0  0  0  0  0  0  0  0
  -14.2234  -33.2361  -12.3665 C   0  0  0  0  0  0  0  0  0  0  0  0
  -14.5037  -35.5900  -11.6508 C   0  0  0  0  0  0  0  0  0  0  0  0
  -14.6952  -35.9339  -12.9720 C   0  0  0  0  0  0  0  0  0  0  0  0
  -14.5768  -37.2504  -13.3508 C   0  0  0  0  0  0  0  0  0  0  0  0
  -14.2664  -38.2372  -12.4158 C   0  0  0  0  0  0  0  0  0  0  0  0
  -14.0734  -37.9095  -11.0978 C   0  0  0  0  0  0  0  0  0  0  0  0
  -13.7472  -38.9352  -10.0620 C   0  0  0  0  0  0  0  0  0  0  0  0
  -14.6148  -38.8893   -8.9262 N   0  0  0  0  0  0  0  0  0  0  0  0
  -15.9716  -39.2705   -9.1302 C   0  0  0  0  0  0  0  0  0  0  0  0
  -16.7761  -39.4969   -7.8987 C   0  0  1  0  0  0  0  0  0  0  0  0
  -16.8939  -38.4352   -7.0543 O   0  0  0  0  0  0  0  0  0  0  0  0
  -18.1654  -40.1224   -8.1976 C   0  0  2  0  0  0  0  0  0  0  0  0
  -18.8888  -40.1334   -6.9222 C   0  0  0  0  0  0  0  0  0  0  0  0
  -20.3162  -39.6813   -6.9307 C   0  0  2  0  0  0  0  0  0  0  0  0
  -20.5783  -38.3493   -7.5420 C   0  0  0  0  0  0  0  0  0  0  0  0
  -20.8164  -39.7477   -5.4905 C   0  0  0  0  0  0  0  0  0  0  0  0
  -21.0781  -41.2149   -5.1908 C   0  0  0  0  0  0  0  0  0  0  0  0
  -22.4942  -41.4258   -4.7124 C   0  0  0  0  0  0  0  0  0  0  0  0
  -23.2120  -42.2767   -5.7373 C   0  0  0  0  0  0  0  0  0  0  0  0
  -22.5942  -43.6677   -5.6829 C   0  0  0  0  0  0  0  0  0  0  0  0
  -22.9137  -44.3349   -6.8355 O   0  0  0  0  0  0  0  0  0  0  0  0
  -21.8819  -45.0727   -7.4060 C   0  0  0  0  0  0  0  0  0  0  0  0
  -20.5863  -44.9377   -6.7600 C   0  0  0  0  0  0  0  0  0  0  0  0
  -20.4022  -45.6694   -5.7076 O   0  0  0  0  0  0  0  0  0  0  0  0
  -19.5281  -44.0863   -7.1823 N   0  0  0  0  0  0  0  0  0  0  0  0
  -18.4997  -43.8740   -6.1515 C   0  0  0  0  0  0  0  0  0  0  0  0
  -19.3869  -43.4737   -8.4652 C   0  0  1  0  0  0  0  0  0  0  0  0
  -20.5839  -42.7637   -9.0109 C   0  0  0  0  0  0  0  0  0  0  0  0
  -18.1320  -42.6923   -8.6397 C   0  0  0  0  0  0  0  0  0  0  0  0
  -17.0761  -43.4339   -8.5361 O   0  0  0  0  0  0  0  0  0  0  0  0
  -17.9325  -41.3540   -8.8899 N   0  0  0  0  0  0  0  0  0  0  0  0
  -14.1977  -36.5693  -10.7343 C   0  0  0  0  0  0  0  0  0  0  0  0
  1  2  1  0
  2  3  1  0
  2  4  1  0
  4  5  2  0
  5  6  1  0
  6  7  2  0
  7  8  1  0
  8  9  1  0
  9 10  1  0
 10 11  1  0
 11 12  1  0
 12 13  1  6
 12 14  1  0
 14 15  1  1
 15 16  1  0
 16 17  1  1
 16 18  1  0
 18 19  1  0
 19 20  1  0
 20 21  1  0
 21 22  1  0
 22 23  1  0
 23 24  1  0
 24 25  1  0
 25 26  2  0
 25 27  1  0
 27 28  1  0
 27 29  1  0
 29 30  1  1
 29 31  1  0
 31 32  2  0
 31 33  1  0
  8 34  2  0
 33 14  1  0
 34  4  1  0
M  END
$$$$
