
     RDKit          3D

 34 35  0  0  0  0  0  0  0  0999 V2000
  -11.9613  -34.3574  -10.9403 C   0  0  0  0  0  0  0  0  0  0  0  0
  -13.0035  -34.4558  -12.0039 C   0  0  0  0  0  0  0  0  0  0  0  0
  -13.9402  -33.2660  -12.0128 C   0  0  0  0  0  0  0  0  0  0  0  0
  -13.7729  -35.7290  -11.8193 C   0  0  0  0  0  0  0  0  0  0  0  0
  -14.6650  -36.1283  -12.7916 C   0  0  0  0  0  0  0  0  0  0  0  0
  -15.3730  -37.2945  -12.6201 C   0  0  0  0  0  0  0  0  0  0  0  0
  -15.1985  -38.0741  -11.4771 C   0  0  0  0  0  0  0  0  0  0  0  0
  -14.3144  -37.6890  -10.5016 C   0  0  0  0  0  0  0  0  0  0  0  0
  -14.1022  -38.4895   -9.2585 C   0  0  0  0  0  0  0  0  0  0  0  0
  -14.8976  -38.0458   -8.1561 N   0  0  0  0  0  0  0  0  0  0  0  0
  -16.2679  -38.4330   -8.1471 C   0  0  0  0  0  0  0  0  0  0  0  0
  -16.5530  -39.8054   -7.6466 C   0  0  1  0  0  0  0  0  0  0  0  0
  -16.4317  -39.9923   -6.3033 O   0  0  0  0  0  0  0  0  0  0  0  0
  -17.9080  -40.3613   -8.1621 C   0  0  2  0  0  0  0  0  0  0  0  0
  -18.9057  -40.0030   -7.1490 C   0  0  0  0  0  0  0  0  0  0  0  0
  -20.2098  -39.4440   -7.6275 C   0  0  2  0  0  0  0  0  0  0  0  0
  -20.1244  -38.2801   -8.5520 C   0  0  0  0  0  0  0  0  0  0  0  0
  -21.0400  -39.1191   -6.3889 C   0  0  0  0  0  0  0  0  0  0  0  0
  -21.5749  -40.4430   -5.8673 C   0  0  0  0  0  0  0  0  0  0  0  0
  -23.0790  -40.4091   -5.7450 C   0  0  0  0  0  0  0  0  0  0  0  0
  -23.6501  -41.4155   -6.7201 C   0  0  0  0  0  0  0  0  0  0  0  0
  -23.2709  -42.8010   -6.2141 C   0  0  0  0  0  0  0  0  0  0  0  0
  -23.4025  -43.6951   -7.2432 O   0  0  0  0  0  0  0  0  0  0  0  0
  -22.3832  -44.6350   -7.3540 C   0  0  0  0  0  0  0  0  0  0  0  0
  -21.2712  -44.4619   -6.4333 C   0  0  0  0  0  0  0  0  0  0  0  0
  -21.4488  -44.9327   -5.2402 O   0  0  0  0  0  0  0  0  0  0  0  0
  -20.0314  -43.8319   -6.7315 N   0  0  0  0  0  0  0  0  0  0  0  0
  -19.2558  -43.4685   -5.5349 C   0  0  0  0  0  0  0  0  0  0  0  0
  -19.5041  -43.5598   -8.0311 C   0  0  1  0  0  0  0  0  0  0  0  0
  -20.4226  -42.9003   -9.0090 C   0  0  0  0  0  0  0  0  0  0  0  0
  -18.1439  -42.9551   -8.0296 C   0  0  0  0  0  0  0  0  0  0  0  0
  -17.2612  -43.7390   -7.4984 O   0  0  0  0  0  0  0  0  0  0  0  0
  -17.6992  -41.7385   -8.4939 N   0  0  0  0  0  0  0  0  0  0  0  0
  -13.6062  -36.5036  -10.6948 C   0  0  0  0  0  0  0  0  0  0  0  0
  1  2  1  0
  2  3  1  0
  2  4  1  0
  4  5  2  0
  5  6  1  0
  6  7  2  0
  7  8  1  0
  8  9  1  0
  9 10  1  0
 10 11  1  0
 11 12  1  0
 12 13  1  1
 12 14  1  0
 14 15  1  1
 15 16  1  0
 16 17  1  1
 16 18  1  0
 18 19  1  0
 19 20  1  0
 20 21  1  0
 21 22  1  0
 22 23  1  0
 23 24  1  0
 24 25  1  0
 25 26  2  0
 25 27  1  0
 27 28  1  0
 27 29  1  0
 29 30  1  1
 29 31  1  0
 31 32  2  0
 31 33  1  0
  8 34  2  0
 33 14  1  0
 34  4  1  0
M  END
$$$$
