
     RDKit          3D

 34 35  0  0  0  0  0  0  0  0999 V2000
  -11.7894  -37.1171   -9.8622 C   0  0  0  0  0  0  0  0  0  0  0  0
  -11.0922  -37.5555  -11.1066 C   0  0  0  0  0  0  0  0  0  0  0  0
  -10.2799  -36.4458  -11.7405 C   0  0  0  0  0  0  0  0  0  0  0  0
  -12.1063  -38.0839  -12.0759 C   0  0  0  0  0  0  0  0  0  0  0  0
  -11.7139  -38.4090  -13.3569 C   0  0  0  0  0  0  0  0  0  0  0  0
  -12.6453  -38.8903  -14.2466 C   0  0  0  0  0  0  0  0  0  0  0  0
  -13.9775  -39.0521  -13.8677 C   0  0  0  0  0  0  0  0  0  0  0  0
  -14.3821  -38.7326  -12.5965 C   0  0  0  0  0  0  0  0  0  0  0  0
  -15.7999  -38.8829  -12.1509 C   0  0  0  0  0  0  0  0  0  0  0  0
  -15.9266  -39.4639  -10.8504 N   0  0  0  0  0  0  0  0  0  0  0  0
  -16.2259  -38.5831   -9.7724 C   0  0  0  0  0  0  0  0  0  0  0  0
  -16.6417  -39.2311   -8.4987 C   0  0  1  0  0  0  0  0  0  0  0  0
  -16.6211  -38.4427   -7.3888 O   0  0  0  0  0  0  0  0  0  0  0  0
  -17.9976  -39.9777   -8.6215 C   0  0  2  0  0  0  0  0  0  0  0  0
  -18.7566  -39.6427   -7.4125 C   0  0  0  0  0  0  0  0  0  0  0  0
  -20.1990  -39.2767   -7.5785 C   0  0  2  0  0  0  0  0  0  0  0  0
  -20.4927  -38.1983   -8.5621 C   0  0  0  0  0  0  0  0  0  0  0  0
  -20.7378  -38.9359   -6.1920 C   0  0  0  0  0  0  0  0  0  0  0  0
  -20.9534  -40.2587   -5.4746 C   0  0  0  0  0  0  0  0  0  0  0  0
  -22.3738  -40.3808   -4.9787 C   0  0  0  0  0  0  0  0  0  0  0  0
  -23.0296  -41.5277   -5.7165 C   0  0  0  0  0  0  0  0  0  0  0  0
  -22.3623  -42.8116   -5.2413 C   0  0  0  0  0  0  0  0  0  0  0  0
  -22.6233  -43.8035   -6.1489 O   0  0  0  0  0  0  0  0  0  0  0  0
  -21.5487  -44.6308   -6.4574 C   0  0  0  0  0  0  0  0  0  0  0  0
  -20.2782  -44.2537   -5.8593 C   0  0  0  0  0  0  0  0  0  0  0  0
  -20.0975  -44.6322   -4.6342 O   0  0  0  0  0  0  0  0  0  0  0  0
  -19.2406  -43.5195   -6.4977 N   0  0  0  0  0  0  0  0  0  0  0  0
  -18.2510  -42.9666   -5.5595 C   0  0  0  0  0  0  0  0  0  0  0  0
  -19.0852  -43.3085   -7.9021 C   0  0  1  0  0  0  0  0  0  0  0  0
  -20.2916  -42.8454   -8.6539 C   0  0  0  0  0  0  0  0  0  0  0  0
  -17.8557  -42.5592   -8.2800 C   0  0  0  0  0  0  0  0  0  0  0  0
  -16.7764  -43.1896   -7.9433 O   0  0  0  0  0  0  0  0  0  0  0  0
  -17.6990  -41.3475   -8.9129 N   0  0  0  0  0  0  0  0  0  0  0  0
  -13.4223  -38.2465  -11.7097 C   0  0  0  0  0  0  0  0  0  0  0  0
  1  2  1  0
  2  3  1  0
  2  4  1  0
  4  5  2  0
  5  6  1  0
  6  7  2  0
  7  8  1  0
  8  9  1  0
  9 10  1  0
 10 11  1  0
 11 12  1  0
 12 13  1  1
 12 14  1  0
 14 15  1  1
 15 16  1  0
 16 17  1  6
 16 18  1  0
 18 19  1  0
 19 20  1  0
 20 21  1  0
 21 22  1  0
 22 23  1  0
 23 24  1  0
 24 25  1  0
 25 26  2  0
 25 27  1  0
 27 28  1  0
 27 29  1  0
 29 30  1  1
 29 31  1  0
 31 32  2  0
 31 33  1  0
  8 34  2  0
 33 14  1  0
 34  4  1  0
M  END
$$$$
