
     RDKit          3D

 34 35  0  0  0  0  0  0  0  0999 V2000
  -14.7453  -35.1673  -13.5016 C   0  0  0  0  0  0  0  0  0  0  0  0
  -13.8359  -34.9176  -12.3451 C   0  0  0  0  0  0  0  0  0  0  0  0
  -12.8088  -33.8430  -12.6336 C   0  0  0  0  0  0  0  0  0  0  0  0
  -13.1610  -36.2016  -11.9668 C   0  0  0  0  0  0  0  0  0  0  0  0
  -11.8217  -36.3709  -12.2465 C   0  0  0  0  0  0  0  0  0  0  0  0
  -11.2042  -37.5503  -11.9024 C   0  0  0  0  0  0  0  0  0  0  0  0
  -11.9161  -38.5727  -11.2760 C   0  0  0  0  0  0  0  0  0  0  0  0
  -13.2491  -38.4181  -10.9918 C   0  0  0  0  0  0  0  0  0  0  0  0
  -14.0514  -39.4899  -10.3293 C   0  0  0  0  0  0  0  0  0  0  0  0
  -15.1080  -38.9823   -9.5102 N   0  0  0  0  0  0  0  0  0  0  0  0
  -15.3667  -39.6651   -8.2877 C   0  0  0  0  0  0  0  0  0  0  0  0
  -16.4756  -39.1184   -7.4591 C   0  0  1  0  0  0  0  0  0  0  0  0
  -16.4928  -37.7669   -7.2946 O   0  0  0  0  0  0  0  0  0  0  0  0
  -17.8689  -39.6390   -7.9046 C   0  0  2  0  0  0  0  0  0  0  0  0
  -18.6942  -39.6781   -6.6932 C   0  0  0  0  0  0  0  0  0  0  0  0
  -20.0880  -39.1391   -6.7862 C   0  0  2  0  0  0  0  0  0  0  0  0
  -20.2228  -37.7608   -7.3328 C   0  0  0  0  0  0  0  0  0  0  0  0
  -20.7080  -39.2566   -5.3967 C   0  0  0  0  0  0  0  0  0  0  0  0
  -21.0765  -40.7195   -5.2097 C   0  0  0  0  0  0  0  0  0  0  0  0
  -22.5368  -40.8696   -4.8583 C   0  0  0  0  0  0  0  0  0  0  0  0
  -23.2151  -41.6148   -5.9872 C   0  0  0  0  0  0  0  0  0  0  0  0
  -22.6839  -43.0421   -5.9703 C   0  0  0  0  0  0  0  0  0  0  0  0
  -22.9449  -43.6216   -7.1835 O   0  0  0  0  0  0  0  0  0  0  0  0
  -21.9133  -44.3879   -7.7154 C   0  0  0  0  0  0  0  0  0  0  0  0
  -20.6696  -44.3700   -6.9623 C   0  0  0  0  0  0  0  0  0  0  0  0
  -20.6147  -45.1704   -5.9459 O   0  0  0  0  0  0  0  0  0  0  0  0
  -19.5336  -43.5628   -7.2465 N   0  0  0  0  0  0  0  0  0  0  0  0
  -18.5831  -43.4734   -6.1268 C   0  0  0  0  0  0  0  0  0  0  0  0
  -19.2527  -42.8879   -8.4740 C   0  0  1  0  0  0  0  0  0  0  0  0
  -20.3584  -42.0755   -9.0675 C   0  0  0  0  0  0  0  0  0  0  0  0
  -17.9453  -42.1767   -8.5006 C   0  0  0  0  0  0  0  0  0  0  0  0
  -16.9454  -42.9867   -8.3601 O   0  0  0  0  0  0  0  0  0  0  0  0
  -17.6501  -40.8412   -8.6511 N   0  0  0  0  0  0  0  0  0  0  0  0
  -13.8564  -37.2149  -11.3486 C   0  0  0  0  0  0  0  0  0  0  0  0
  1  2  1  0
  2  3  1  0
  2  4  1  0
  4  5  2  0
  5  6  1  0
  6  7  2  0
  7  8  1  0
  8  9  1  0
  9 10  1  0
 10 11  1  0
 11 12  1  0
 12 13  1  6
 12 14  1  0
 14 15  1  1
 15 16  1  0
 16 17  1  1
 16 18  1  0
 18 19  1  0
 19 20  1  0
 20 21  1  0
 21 22  1  0
 22 23  1  0
 23 24  1  0
 24 25  1  0
 25 26  2  0
 25 27  1  0
 27 28  1  0
 27 29  1  0
 29 30  1  1
 29 31  1  0
 31 32  2  0
 31 33  1  0
  8 34  2  0
 33 14  1  0
 34  4  1  0
M  END
$$$$
