
     RDKit          3D

 34 35  0  0  0  0  0  0  0  0999 V2000
  -12.1651  -34.9164  -11.6640 C   0  0  0  0  0  0  0  0  0  0  0  0
  -13.5119  -35.4676  -11.9945 C   0  0  0  0  0  0  0  0  0  0  0  0
  -14.6076  -34.8881  -11.1247 C   0  0  0  0  0  0  0  0  0  0  0  0
  -13.4745  -36.9608  -11.8675 C   0  0  0  0  0  0  0  0  0  0  0  0
  -13.5512  -37.7394  -13.0026 C   0  0  0  0  0  0  0  0  0  0  0  0
  -13.5204  -39.1090  -12.8851 C   0  0  0  0  0  0  0  0  0  0  0  0
  -13.4131  -39.7160  -11.6342 C   0  0  0  0  0  0  0  0  0  0  0  0
  -13.3361  -38.9538  -10.4964 C   0  0  0  0  0  0  0  0  0  0  0  0
  -13.2281  -39.5622   -9.1364 C   0  0  0  0  0  0  0  0  0  0  0  0
  -14.3070  -39.2050   -8.2685 N   0  0  0  0  0  0  0  0  0  0  0  0
  -15.5218  -39.9344   -8.4092 C   0  0  0  0  0  0  0  0  0  0  0  0
  -16.6620  -39.4669   -7.5746 C   0  0  1  0  0  0  0  0  0  0  0  0
  -16.7733  -38.1198   -7.4098 O   0  0  0  0  0  0  0  0  0  0  0  0
  -18.0176  -40.0841   -8.0129 C   0  0  2  0  0  0  0  0  0  0  0  0
  -18.9439  -39.8631   -6.8979 C   0  0  0  0  0  0  0  0  0  0  0  0
  -20.3188  -39.3693   -7.2262 C   0  0  2  0  0  0  0  0  0  0  0  0
  -20.3915  -38.1458   -8.0716 C   0  0  0  0  0  0  0  0  0  0  0  0
  -21.0566  -39.1839   -5.9033 C   0  0  0  0  0  0  0  0  0  0  0  0
  -21.4555  -40.5730   -5.4322 C   0  0  0  0  0  0  0  0  0  0  0  0
  -22.9421  -40.6544   -5.1830 C   0  0  0  0  0  0  0  0  0  0  0  0
  -23.5293  -41.6350   -6.1748 C   0  0  0  0  0  0  0  0  0  0  0  0
  -23.0169  -43.0193   -5.7995 C   0  0  0  0  0  0  0  0  0  0  0  0
  -23.1794  -43.8532   -6.8736 O   0  0  0  0  0  0  0  0  0  0  0  0
  -22.1143  -44.7090   -7.1339 C   0  0  0  0  0  0  0  0  0  0  0  0
  -20.9396  -44.5158   -6.2992 C   0  0  0  0  0  0  0  0  0  0  0  0
  -20.9804  -45.0730   -5.1310 O   0  0  0  0  0  0  0  0  0  0  0  0
  -19.7747  -43.7813   -6.6550 N   0  0  0  0  0  0  0  0  0  0  0  0
  -18.9226  -43.4403   -5.5048 C   0  0  0  0  0  0  0  0  0  0  0  0
  -19.3826  -43.3902   -7.9720 C   0  0  1  0  0  0  0  0  0  0  0  0
  -20.4247  -42.7371   -8.8219 C   0  0  0  0  0  0  0  0  0  0  0  0
  -18.0701  -42.6913   -8.0417 C   0  0  0  0  0  0  0  0  0  0  0  0
  -17.0947  -43.4424   -7.6415 O   0  0  0  0  0  0  0  0  0  0  0  0
  -17.7488  -41.4190   -8.4557 N   0  0  0  0  0  0  0  0  0  0  0  0
  -13.3687  -37.5671  -10.6372 C   0  0  0  0  0  0  0  0  0  0  0  0
  1  2  1  0
  2  3  1  0
  2  4  1  0
  4  5  2  0
  5  6  1  0
  6  7  2  0
  7  8  1  0
  8  9  1  0
  9 10  1  0
 10 11  1  0
 11 12  1  0
 12 13  1  6
 12 14  1  0
 14 15  1  1
 15 16  1  0
 16 17  1  1
 16 18  1  0
 18 19  1  0
 19 20  1  0
 20 21  1  0
 21 22  1  0
 22 23  1  0
 23 24  1  0
 24 25  1  0
 25 26  2  0
 25 27  1  0
 27 28  1  0
 27 29  1  0
 29 30  1  1
 29 31  1  0
 31 32  2  0
 31 33  1  0
  8 34  2  0
 33 14  1  0
 34  4  1  0
M  END
$$$$
