
     RDKit          3D

 34 35  0  0  0  0  0  0  0  0999 V2000
  -22.3168  -38.4159   -8.3101 C   0  0  0  0  0  0  0  0  0  0  0  0
  -21.2877  -37.5947   -7.6076 C   0  0  0  0  0  0  0  0  0  0  0  0
  -21.8690  -36.3451   -6.9803 C   0  0  0  0  0  0  0  0  0  0  0  0
  -20.2000  -37.2394   -8.5761 C   0  0  0  0  0  0  0  0  0  0  0  0
  -20.4855  -37.1804   -9.9235 C   0  0  0  0  0  0  0  0  0  0  0  0
  -19.4865  -36.8579  -10.8116 C   0  0  0  0  0  0  0  0  0  0  0  0
  -18.1928  -36.5911  -10.3649 C   0  0  0  0  0  0  0  0  0  0  0  0
  -17.8944  -36.6463   -9.0272 C   0  0  0  0  0  0  0  0  0  0  0  0
  -16.5209  -36.3756   -8.5060 C   0  0  0  0  0  0  0  0  0  0  0  0
  -15.9792  -37.4595   -7.7466 N   0  0  0  0  0  0  0  0  0  0  0  0
  -15.4777  -38.5755   -8.4750 C   0  0  0  0  0  0  0  0  0  0  0  0
  -15.9084  -39.9154   -7.9911 C   0  0  1  0  0  0  0  0  0  0  0  0
  -16.9104  -39.9277   -7.0691 O   0  0  0  0  0  0  0  0  0  0  0  0
  -16.2122  -40.9018   -9.1510 C   0  0  2  0  0  0  0  0  0  0  0  0
  -16.5661  -42.1763   -8.5181 C   0  0  0  0  0  0  0  0  0  0  0  0
  -17.7586  -42.9079   -9.0517 C   0  0  2  0  0  0  0  0  0  0  0  0
  -19.0224  -42.1258   -9.1391 C   0  0  0  0  0  0  0  0  0  0  0  0
  -17.9315  -44.1638   -8.2021 C   0  0  0  0  0  0  0  0  0  0  0  0
  -16.8728  -45.1502   -8.6679 C   0  0  0  0  0  0  0  0  0  0  0  0
  -17.4972  -46.4630   -9.0745 C   0  0  0  0  0  0  0  0  0  0  0  0
  -17.2607  -46.6539  -10.5569 C   0  0  0  0  0  0  0  0  0  0  0  0
  -15.7673  -46.8809  -10.7511 C   0  0  0  0  0  0  0  0  0  0  0  0
  -15.4563  -46.6536  -12.0653 O   0  0  0  0  0  0  0  0  0  0  0  0
  -14.2836  -45.9398  -12.2885 C   0  0  0  0  0  0  0  0  0  0  0  0
  -13.6190  -45.4417  -11.0951 C   0  0  0  0  0  0  0  0  0  0  0  0
  -12.8710  -46.2936  -10.4693 O   0  0  0  0  0  0  0  0  0  0  0  0
  -13.7212  -44.1230  -10.5720 N   0  0  0  0  0  0  0  0  0  0  0  0
  -13.2573  -44.0068   -9.1804 C   0  0  0  0  0  0  0  0  0  0  0  0
  -14.1941  -42.9657  -11.2635 C   0  0  1  0  0  0  0  0  0  0  0  0
  -15.4870  -43.1004  -12.0018 C   0  0  0  0  0  0  0  0  0  0  0  0
  -14.1152  -41.7038  -10.4779 C   0  0  0  0  0  0  0  0  0  0  0  0
  -12.8968  -41.3979  -10.1656 O   0  0  0  0  0  0  0  0  0  0  0  0
  -15.1026  -40.8441  -10.0542 N   0  0  0  0  0  0  0  0  0  0  0  0
  -18.9213  -36.9748   -8.1432 C   0  0  0  0  0  0  0  0  0  0  0  0
  1  2  1  0
  2  3  1  0
  2  4  1  0
  4  5  2  0
  5  6  1  0
  6  7  2  0
  7  8  1  0
  8  9  1  0
  9 10  1  0
 10 11  1  0
 11 12  1  0
 12 13  1  6
 12 14  1  0
 14 15  1  1
 15 16  1  0
 16 17  1  1
 16 18  1  0
 18 19  1  0
 19 20  1  0
 20 21  1  0
 21 22  1  0
 22 23  1  0
 23 24  1  0
 24 25  1  0
 25 26  2  0
 25 27  1  0
 27 28  1  0
 27 29  1  0
 29 30  1  1
 29 31  1  0
 31 32  2  0
 31 33  1  0
  8 34  2  0
 33 14  1  0
 34  4  1  0
M  END
$$$$
