
     RDKit          3D

 34 35  0  0  0  0  0  0  0  0999 V2000
  -14.9116  -41.1480  -14.0217 C   0  0  0  0  0  0  0  0  0  0  0  0
  -13.5185  -40.6635  -13.7945 C   0  0  0  0  0  0  0  0  0  0  0  0
  -12.5803  -41.7709  -13.3626 C   0  0  0  0  0  0  0  0  0  0  0  0
  -13.5420  -39.5665  -12.7732 C   0  0  0  0  0  0  0  0  0  0  0  0
  -13.8544  -38.2823  -13.1655 C   0  0  0  0  0  0  0  0  0  0  0  0
  -13.8723  -37.2759  -12.2289 C   0  0  0  0  0  0  0  0  0  0  0  0
  -13.5786  -37.5399  -10.8915 C   0  0  0  0  0  0  0  0  0  0  0  0
  -13.2659  -38.8128  -10.4870 C   0  0  0  0  0  0  0  0  0  0  0  0
  -12.9374  -39.1387   -9.0667 C   0  0  0  0  0  0  0  0  0  0  0  0
  -14.0420  -38.9645   -8.1753 N   0  0  0  0  0  0  0  0  0  0  0  0
  -15.2138  -39.7300   -8.4367 C   0  0  0  0  0  0  0  0  0  0  0  0
  -16.3309  -39.5613   -7.4677 C   0  0  1  0  0  0  0  0  0  0  0  0
  -16.5168  -38.3044   -6.9780 O   0  0  0  0  0  0  0  0  0  0  0  0
  -17.6682  -40.1561   -7.9861 C   0  0  2  0  0  0  0  0  0  0  0  0
  -18.6913  -39.7657   -7.0110 C   0  0  0  0  0  0  0  0  0  0  0  0
  -19.9912  -39.2445   -7.5409 C   0  0  2  0  0  0  0  0  0  0  0  0
  -19.8993  -38.1217   -8.5143 C   0  0  0  0  0  0  0  0  0  0  0  0
  -20.8513  -38.8755   -6.3356 C   0  0  0  0  0  0  0  0  0  0  0  0
  -21.3821  -40.1815   -5.7668 C   0  0  0  0  0  0  0  0  0  0  0  0
  -22.8887  -40.1608   -5.6775 C   0  0  0  0  0  0  0  0  0  0  0  0
  -23.4274  -41.2163   -6.6185 C   0  0  0  0  0  0  0  0  0  0  0  0
  -23.0433  -42.5733   -6.0436 C   0  0  0  0  0  0  0  0  0  0  0  0
  -23.1426  -43.5135   -7.0344 O   0  0  0  0  0  0  0  0  0  0  0  0
  -22.1106  -44.4447   -7.0821 C   0  0  0  0  0  0  0  0  0  0  0  0
  -21.0206  -44.2174   -6.1470 C   0  0  0  0  0  0  0  0  0  0  0  0
  -21.2182  -44.6371   -4.9381 O   0  0  0  0  0  0  0  0  0  0  0  0
  -19.7819  -43.5859   -6.4470 N   0  0  0  0  0  0  0  0  0  0  0  0
  -19.0362  -43.1605   -5.2520 C   0  0  0  0  0  0  0  0  0  0  0  0
  -19.2301  -43.3651   -7.7462 C   0  0  1  0  0  0  0  0  0  0  0  0
  -20.1350  -42.7609   -8.7714 C   0  0  0  0  0  0  0  0  0  0  0  0
  -17.8772  -42.7442   -7.7433 C   0  0  0  0  0  0  0  0  0  0  0  0
  -16.9972  -43.4929   -7.1595 O   0  0  0  0  0  0  0  0  0  0  0  0
  -17.4366  -41.5439   -8.2518 N   0  0  0  0  0  0  0  0  0  0  0  0
  -13.2536  -39.8190  -11.4520 C   0  0  0  0  0  0  0  0  0  0  0  0
  1  2  1  0
  2  3  1  0
  2  4  1  0
  4  5  2  0
  5  6  1  0
  6  7  2  0
  7  8  1  0
  8  9  1  0
  9 10  1  0
 10 11  1  0
 11 12  1  0
 12 13  1  6
 12 14  1  0
 14 15  1  1
 15 16  1  0
 16 17  1  6
 16 18  1  0
 18 19  1  0
 19 20  1  0
 20 21  1  0
 21 22  1  0
 22 23  1  0
 23 24  1  0
 24 25  1  0
 25 26  2  0
 25 27  1  0
 27 28  1  0
 27 29  1  0
 29 30  1  6
 29 31  1  0
 31 32  2  0
 31 33  1  0
  8 34  2  0
 33 14  1  0
 34  4  1  0
M  END
$$$$
