
     RDKit          3D

 34 35  0  0  0  0  0  0  0  0999 V2000
  -10.5618  -37.0301  -12.0773 C   0  0  0  0  0  0  0  0  0  0  0  0
  -11.5030  -36.3289  -12.9989 C   0  0  0  0  0  0  0  0  0  0  0  0
  -11.2006  -34.8506  -13.1256 C   0  0  0  0  0  0  0  0  0  0  0  0
  -12.9071  -36.5388  -12.5176 C   0  0  0  0  0  0  0  0  0  0  0  0
  -13.8724  -36.9595  -13.4074 C   0  0  0  0  0  0  0  0  0  0  0  0
  -15.1609  -37.1484  -12.9661 C   0  0  0  0  0  0  0  0  0  0  0  0
  -15.4996  -36.9195  -11.6329 C   0  0  0  0  0  0  0  0  0  0  0  0
  -14.5495  -36.5006  -10.7366 C   0  0  0  0  0  0  0  0  0  0  0  0
  -14.8702  -36.2362   -9.3018 C   0  0  0  0  0  0  0  0  0  0  0  0
  -15.1162  -37.4259   -8.5476 N   0  0  0  0  0  0  0  0  0  0  0  0
  -16.4527  -37.9168   -8.5275 C   0  0  0  0  0  0  0  0  0  0  0  0
  -16.6952  -39.1090   -7.6702 C   0  0  1  0  0  0  0  0  0  0  0  0
  -16.7437  -38.8842   -6.3281 O   0  0  0  0  0  0  0  0  0  0  0  0
  -17.9199  -39.9422   -8.1357 C   0  0  2  0  0  0  0  0  0  0  0  0
  -18.8344  -39.9947   -6.9907 C   0  0  0  0  0  0  0  0  0  0  0  0
  -20.2887  -39.7541   -7.2532 C   0  0  2  0  0  0  0  0  0  0  0  0
  -20.6237  -38.5055   -7.9918 C   0  0  0  0  0  0  0  0  0  0  0  0
  -21.0046  -39.8211   -5.9072 C   0  0  0  0  0  0  0  0  0  0  0  0
  -21.1124  -41.2941   -5.5475 C   0  0  0  0  0  0  0  0  0  0  0  0
  -22.5463  -41.6832   -5.2810 C   0  0  0  0  0  0  0  0  0  0  0  0
  -22.9655  -42.6781   -6.3414 C   0  0  0  0  0  0  0  0  0  0  0  0
  -22.1837  -43.9611   -6.0921 C   0  0  0  0  0  0  0  0  0  0  0  0
  -22.2173  -44.7232   -7.2294 O   0  0  0  0  0  0  0  0  0  0  0  0
  -21.0163  -45.3317   -7.5784 C   0  0  0  0  0  0  0  0  0  0  0  0
  -19.8741  -44.9797   -6.7503 C   0  0  0  0  0  0  0  0  0  0  0  0
  -19.7683  -45.6246   -5.6324 O   0  0  0  0  0  0  0  0  0  0  0  0
  -18.8852  -44.0064   -7.0629 N   0  0  0  0  0  0  0  0  0  0  0  0
  -18.0776  -43.5977   -5.9028 C   0  0  0  0  0  0  0  0  0  0  0  0
  -18.6193  -43.4437   -8.3489 C   0  0  1  0  0  0  0  0  0  0  0  0
  -19.7951  -42.9413   -9.1235 C   0  0  0  0  0  0  0  0  0  0  0  0
  -17.4693  -42.4991   -8.3819 C   0  0  0  0  0  0  0  0  0  0  0  0
  -16.3547  -43.0747   -8.0626 O   0  0  0  0  0  0  0  0  0  0  0  0
  -17.4133  -41.1599   -8.6933 N   0  0  0  0  0  0  0  0  0  0  0  0
  -13.2491  -36.3152  -11.2041 C   0  0  0  0  0  0  0  0  0  0  0  0
  1  2  1  0
  2  3  1  0
  2  4  1  0
  4  5  2  0
  5  6  1  0
  6  7  2  0
  7  8  1  0
  8  9  1  0
  9 10  1  0
 10 11  1  0
 11 12  1  0
 12 13  1  1
 12 14  1  0
 14 15  1  1
 15 16  1  0
 16 17  1  1
 16 18  1  0
 18 19  1  0
 19 20  1  0
 20 21  1  0
 21 22  1  0
 22 23  1  0
 23 24  1  0
 24 25  1  0
 25 26  2  0
 25 27  1  0
 27 28  1  0
 27 29  1  0
 29 30  1  1
 29 31  1  0
 31 32  2  0
 31 33  1  0
  8 34  2  0
 33 14  1  0
 34  4  1  0
M  END
$$$$
