
     RDKit          3D

 34 35  0  0  0  0  0  0  0  0999 V2000
  -22.7333  -42.7422   -6.1244 C   0  0  0  0  0  0  0  0  0  0  0  0
  -22.6038  -41.3921   -5.5019 C   0  0  0  0  0  0  0  0  0  0  0  0
  -23.9152  -40.8801   -4.9443 C   0  0  0  0  0  0  0  0  0  0  0  0
  -22.0552  -40.4354   -6.5172 C   0  0  0  0  0  0  0  0  0  0  0  0
  -22.5295  -40.4751   -7.8111 C   0  0  0  0  0  0  0  0  0  0  0  0
  -22.0233  -39.5996   -8.7427 C   0  0  0  0  0  0  0  0  0  0  0  0
  -21.0389  -38.6758   -8.3934 C   0  0  0  0  0  0  0  0  0  0  0  0
  -20.5577  -38.6251   -7.1099 C   0  0  0  0  0  0  0  0  0  0  0  0
  -19.4985  -37.6571   -6.6945 C   0  0  0  0  0  0  0  0  0  0  0  0
  -18.3171  -37.7311   -7.4968 N   0  0  0  0  0  0  0  0  0  0  0  0
  -17.2637  -38.5653   -7.0256 C   0  0  0  0  0  0  0  0  0  0  0  0
  -16.1011  -38.7251   -7.9409 C   0  0  1  0  0  0  0  0  0  0  0  0
  -15.1369  -37.7671   -7.8604 O   0  0  0  0  0  0  0  0  0  0  0  0
  -15.4766  -40.1451   -7.8735 C   0  0  2  0  0  0  0  0  0  0  0  0
  -14.7945  -40.3501   -9.1552 C   0  0  0  0  0  0  0  0  0  0  0  0
  -13.4201  -40.9433   -9.1221 C   0  0  2  0  0  0  0  0  0  0  0  0
  -12.4351  -40.2664   -8.2343 C   0  0  0  0  0  0  0  0  0  0  0  0
  -12.9254  -41.0097  -10.5642 C   0  0  0  0  0  0  0  0  0  0  0  0
  -13.6321  -42.1905  -11.2100 C   0  0  0  0  0  0  0  0  0  0  0  0
  -12.6375  -43.1589  -11.8029 C   0  0  0  0  0  0  0  0  0  0  0  0
  -12.7472  -44.4641  -11.0451 C   0  0  0  0  0  0  0  0  0  0  0  0
  -14.1011  -45.0725  -11.3858 C   0  0  0  0  0  0  0  0  0  0  0  0
  -14.4103  -46.0126  -10.4391 O   0  0  0  0  0  0  0  0  0  0  0  0
  -15.7294  -46.0074   -9.9983 C   0  0  0  0  0  0  0  0  0  0  0  0
  -16.5586  -44.9337  -10.5217 C   0  0  0  0  0  0  0  0  0  0  0  0
  -17.0522  -45.1275  -11.7030 O   0  0  0  0  0  0  0  0  0  0  0  0
  -16.8651  -43.7153   -9.8549 N   0  0  0  0  0  0  0  0  0  0  0  0
  -17.3996  -42.6761  -10.7491 C   0  0  0  0  0  0  0  0  0  0  0  0
  -16.7202  -43.4474   -8.4591 C   0  0  1  0  0  0  0  0  0  0  0  0
  -15.4146  -43.8168   -7.8316 C   0  0  0  0  0  0  0  0  0  0  0  0
  -17.1942  -42.1006   -8.0381 C   0  0  0  0  0  0  0  0  0  0  0  0
  -18.4608  -41.9394   -8.2515 O   0  0  0  0  0  0  0  0  0  0  0  0
  -16.5171  -41.0439   -7.4737 N   0  0  0  0  0  0  0  0  0  0  0  0
  -21.0841  -39.5210   -6.1804 C   0  0  0  0  0  0  0  0  0  0  0  0
  1  2  1  0
  2  3  1  0
  2  4  1  0
  4  5  2  0
  5  6  1  0
  6  7  2  0
  7  8  1  0
  8  9  1  0
  9 10  1  0
 10 11  1  0
 11 12  1  0
 12 13  1  1
 12 14  1  0
 14 15  1  6
 15 16  1  0
 16 17  1  1
 16 18  1  0
 18 19  1  0
 19 20  1  0
 20 21  1  0
 21 22  1  0
 22 23  1  0
 23 24  1  0
 24 25  1  0
 25 26  2  0
 25 27  1  0
 27 28  1  0
 27 29  1  0
 29 30  1  6
 29 31  1  0
 31 32  2  0
 31 33  1  0
  8 34  2  0
 33 14  1  0
 34  4  1  0
M  END
$$$$
