
     RDKit          3D

 38 41  0  0  0  0  0  0  0  0999 V2000
  -14.2725  -35.5220  -13.0813 C   0  0  0  0  0  0  0  0  0  0  0  0
  -13.5190  -35.9888  -11.8446 C   0  0  0  0  0  0  0  0  0  0  0  0
  -12.1872  -35.2790  -11.7395 C   0  0  0  0  0  0  0  0  0  0  0  0
  -13.3491  -37.4486  -11.7989 C   0  0  0  0  0  0  0  0  0  0  0  0
  -13.4816  -38.2045  -10.6468 C   0  0  0  0  0  0  0  0  0  0  0  0
  -13.3160  -39.5576  -10.6385 C   0  0  0  0  0  0  0  0  0  0  0  0
  -13.0135  -40.1790  -11.7900 N   0  0  0  0  0  0  0  0  0  0  0  0
  -12.8725  -39.4816  -12.9493 C   0  0  0  0  0  0  0  0  0  0  0  0
  -13.0364  -38.1152  -12.9745 C   0  0  0  0  0  0  0  0  0  0  0  0
  -13.4433  -40.3805   -9.4101 C   0  0  0  0  0  0  0  0  0  0  0  0
  -13.6958  -41.8594   -9.7570 C   0  0  0  0  0  0  0  0  0  0  0  0
  -12.4151  -41.3673   -9.0975 C   0  0  0  0  0  0  0  0  0  0  0  0
  -14.3550  -39.8103   -8.4274 N   0  0  0  0  0  0  0  0  0  0  0  0
  -15.4951  -39.1777   -9.0700 C   0  0  0  0  0  0  0  0  0  0  0  0
  -16.6009  -38.9698   -8.0814 C   0  0  1  0  0  0  0  0  0  0  0  0
  -16.7501  -37.6875   -7.6084 O   0  0  0  0  0  0  0  0  0  0  0  0
  -17.9038  -39.6385   -8.4132 C   0  0  2  0  0  0  0  0  0  0  0  0
  -19.0634  -39.3473   -7.5213 C   0  0  0  0  0  0  0  0  0  0  0  0
  -19.5121  -37.9659   -7.3461 C   0  0  2  0  0  0  0  0  0  0  0  0
  -19.0227  -37.3298   -6.0327 C   0  0  0  0  0  0  0  0  0  0  0  0
  -21.0098  -37.7606   -7.3474 C   0  0  0  0  0  0  0  0  0  0  0  0
  -21.7965  -38.6818   -8.1930 C   0  0  0  0  0  0  0  0  0  0  0  0
  -22.3667  -39.8495   -7.4316 C   0  0  0  0  0  0  0  0  0  0  0  0
  -23.7854  -39.6894   -6.9845 C   0  0  0  0  0  0  0  0  0  0  0  0
  -23.9126  -40.4473   -5.6707 C   0  0  0  0  0  0  0  0  0  0  0  0
  -24.6203  -41.7423   -5.7763 C   0  0  0  0  0  0  0  0  0  0  0  0
  -24.0040  -42.7998   -6.6016 C   0  0  0  0  0  0  0  0  0  0  0  0
  -22.8070  -43.2907   -6.1785 O   0  0  0  0  0  0  0  0  0  0  0  0
  -21.4858  -42.9543   -6.0977 C   0  0  0  0  0  0  0  0  0  0  0  0
  -20.5274  -42.6667   -7.0630 C   0  0  0  0  0  0  0  0  0  0  0  0
  -19.2488  -42.3555   -6.6316 C   0  0  0  0  0  0  0  0  0  0  0  0
  -18.9926  -42.3512   -5.2302 C   0  0  0  0  0  0  0  0  0  0  0  0
  -19.9532  -42.6390   -4.2931 C   0  0  0  0  0  0  0  0  0  0  0  0
  -19.5430  -42.6085   -2.5729 Cl  0  0  0  0  0  0  0  0  0  0  0  0
  -21.1281  -42.9208   -4.7466 N   0  0  0  0  0  0  0  0  0  0  0  0
  -18.0185  -41.9866   -7.3463 C   0  0  0  0  0  0  0  0  0  0  0  0
  -16.9460  -42.6117   -6.9026 O   0  0  0  0  0  0  0  0  0  0  0  0
  -17.7369  -41.1134   -8.3972 N   0  0  0  0  0  0  0  0  0  0  0  0
  1  2  1  0
  2  3  1  0
  2  4  1  0
  4  5  2  0
  5  6  1  0
  6  7  2  0
  7  8  1  0
  8  9  2  0
  6 10  1  0
 10 11  1  0
 11 12  1  0
 10 13  1  0
 13 14  1  0
 14 15  1  0
 15 16  1  6
 15 17  1  0
 17 18  1  1
 18 19  1  0
 19 20  1  1
 19 21  1  0
 21 22  1  0
 22 23  1  0
 23 24  1  0
 24 25  1  0
 25 26  1  0
 26 27  1  0
 27 28  1  0
 28 29  1  0
 29 30  2  0
 30 31  1  0
 31 32  2  0
 32 33  1  0
 33 34  1  0
 33 35  2  0
 31 36  1  0
 36 37  2  0
 36 38  1  0
  9  4  1  0
 12 10  1  0
 35 29  1  0
 38 17  1  0
M  END
$$$$
