
     RDKit          3D

 38 41  0  0  0  0  0  0  0  0999 V2000
  -22.1899  -41.7354  -11.0207 C   0  0  0  0  0  0  0  0  0  0  0  0
  -21.8820  -41.8896   -9.5387 C   0  0  0  0  0  0  0  0  0  0  0  0
  -22.7856  -42.9324   -8.9183 C   0  0  0  0  0  0  0  0  0  0  0  0
  -21.9570  -40.6169   -8.8063 C   0  0  0  0  0  0  0  0  0  0  0  0
  -20.8943  -40.0615   -8.1146 C   0  0  0  0  0  0  0  0  0  0  0  0
  -20.9976  -38.8792   -7.4440 C   0  0  0  0  0  0  0  0  0  0  0  0
  -22.1733  -38.2302   -7.4554 N   0  0  0  0  0  0  0  0  0  0  0  0
  -23.2480  -38.7336   -8.1202 C   0  0  0  0  0  0  0  0  0  0  0  0
  -23.1599  -39.9261   -8.8020 C   0  0  0  0  0  0  0  0  0  0  0  0
  -19.8713  -38.2767   -6.6886 C   0  0  0  0  0  0  0  0  0  0  0  0
  -20.3468  -37.0789   -5.8455 C   0  0  0  0  0  0  0  0  0  0  0  0
  -19.8464  -38.3798   -5.2335 C   0  0  0  0  0  0  0  0  0  0  0  0
  -18.6949  -38.0274   -7.5108 N   0  0  0  0  0  0  0  0  0  0  0  0
  -17.5020  -38.6049   -6.9139 C   0  0  0  0  0  0  0  0  0  0  0  0
  -16.4209  -38.7443   -7.9412 C   0  0  1  0  0  0  0  0  0  0  0  0
  -15.6445  -37.6292   -8.1507 O   0  0  0  0  0  0  0  0  0  0  0  0
  -15.6302  -40.0195   -7.8838 C   0  0  2  0  0  0  0  0  0  0  0  0
  -15.0684  -40.5289   -9.1683 C   0  0  0  0  0  0  0  0  0  0  0  0
  -14.1569  -39.6870   -9.9434 C   0  0  2  0  0  0  0  0  0  0  0  0
  -14.8387  -38.9880  -11.1332 C   0  0  0  0  0  0  0  0  0  0  0  0
  -12.9601  -40.3944  -10.5371 C   0  0  0  0  0  0  0  0  0  0  0  0
  -12.4227  -41.5334   -9.7646 C   0  0  0  0  0  0  0  0  0  0  0  0
  -12.9342  -42.8686  -10.2376 C   0  0  0  0  0  0  0  0  0  0  0  0
  -12.0324  -43.6010  -11.1802 C   0  0  0  0  0  0  0  0  0  0  0  0
  -12.9358  -44.3889  -12.1182 C   0  0  0  0  0  0  0  0  0  0  0  0
  -12.9919  -45.8407  -11.8389 C   0  0  0  0  0  0  0  0  0  0  0  0
  -13.5578  -46.2731  -10.5458 C   0  0  0  0  0  0  0  0  0  0  0  0
  -14.8746  -46.0043  -10.3303 O   0  0  0  0  0  0  0  0  0  0  0  0
  -15.7187  -44.9678  -10.0501 C   0  0  0  0  0  0  0  0  0  0  0  0
  -15.8185  -44.1021   -8.9667 C   0  0  0  0  0  0  0  0  0  0  0  0
  -16.8118  -43.1378   -8.9994 C   0  0  0  0  0  0  0  0  0  0  0  0
  -17.6702  -43.0925  -10.1356 C   0  0  0  0  0  0  0  0  0  0  0  0
  -17.5553  -43.9575  -11.1950 C   0  0  0  0  0  0  0  0  0  0  0  0
  -18.6668  -43.8257  -12.5646 Cl  0  0  0  0  0  0  0  0  0  0  0  0
  -16.6130  -44.8359  -11.1165 N   0  0  0  0  0  0  0  0  0  0  0  0
  -17.1919  -42.0671   -8.0669 C   0  0  0  0  0  0  0  0  0  0  0  0
  -18.4922  -41.9811   -7.8680 O   0  0  0  0  0  0  0  0  0  0  0  0
  -16.4721  -41.1161   -7.3433 N   0  0  0  0  0  0  0  0  0  0  0  0
  1  2  1  0
  2  3  1  0
  2  4  1  0
  4  5  2  0
  5  6  1  0
  6  7  2  0
  7  8  1  0
  8  9  2  0
  6 10  1  0
 10 11  1  0
 11 12  1  0
 10 13  1  0
 13 14  1  0
 14 15  1  0
 15 16  1  1
 15 17  1  0
 17 18  1  6
 18 19  1  0
 19 20  1  6
 19 21  1  0
 21 22  1  0
 22 23  1  0
 23 24  1  0
 24 25  1  0
 25 26  1  0
 26 27  1  0
 27 28  1  0
 28 29  1  0
 29 30  2  0
 30 31  1  0
 31 32  2  0
 32 33  1  0
 33 34  1  0
 33 35  2  0
 31 36  1  0
 36 37  2  0
 36 38  1  0
  9  4  1  0
 12 10  1  0
 35 29  1  0
 38 17  1  0
M  END
$$$$
