
     RDKit          3D

 38 41  0  0  0  0  0  0  0  0999 V2000
  -11.6660  -36.0644  -14.3154 C   0  0  0  0  0  0  0  0  0  0  0  0
  -12.9904  -36.3857  -13.6389 C   0  0  0  0  0  0  0  0  0  0  0  0
  -13.9206  -35.1946  -13.7086 C   0  0  0  0  0  0  0  0  0  0  0  0
  -12.8241  -36.8508  -12.2540 C   0  0  0  0  0  0  0  0  0  0  0  0
  -13.5102  -37.9247  -11.7136 C   0  0  0  0  0  0  0  0  0  0  0  0
  -13.3335  -38.3296  -10.4240 C   0  0  0  0  0  0  0  0  0  0  0  0
  -12.4621  -37.6619   -9.6504 N   0  0  0  0  0  0  0  0  0  0  0  0
  -11.7631  -36.5999  -10.1338 C   0  0  0  0  0  0  0  0  0  0  0  0
  -11.9300  -36.1787  -11.4335 C   0  0  0  0  0  0  0  0  0  0  0  0
  -14.0696  -39.4714   -9.8267 C   0  0  0  0  0  0  0  0  0  0  0  0
  -15.2095  -39.9403  -10.7498 C   0  0  0  0  0  0  0  0  0  0  0  0
  -13.9808  -40.7876  -10.4501 C   0  0  0  0  0  0  0  0  0  0  0  0
  -14.4490  -39.2484   -8.4381 N   0  0  0  0  0  0  0  0  0  0  0  0
  -15.2897  -40.3252   -7.9414 C   0  0  0  0  0  0  0  0  0  0  0  0
  -16.5922  -39.7805   -7.4409 C   0  0  1  0  0  0  0  0  0  0  0  0
  -16.5763  -38.4679   -7.0320 O   0  0  0  0  0  0  0  0  0  0  0  0
  -17.8020  -40.1368   -8.2557 C   0  0  2  0  0  0  0  0  0  0  0  0
  -19.0779  -40.3594   -7.5158 C   0  0  0  0  0  0  0  0  0  0  0  0
  -19.6263  -39.2898   -6.6818 C   0  0  2  0  0  0  0  0  0  0  0  0
  -19.3413  -39.4821   -5.1815 C   0  0  0  0  0  0  0  0  0  0  0  0
  -21.1220  -39.0909   -6.7747 C   0  0  0  0  0  0  0  0  0  0  0  0
  -21.7422  -39.3875   -8.0824 C   0  0  0  0  0  0  0  0  0  0  0  0
  -22.3313  -40.7713   -8.1625 C   0  0  0  0  0  0  0  0  0  0  0  0
  -23.8012  -40.8563   -7.8976 C   0  0  0  0  0  0  0  0  0  0  0  0
  -24.0440  -42.2060   -7.2373 C   0  0  0  0  0  0  0  0  0  0  0  0
  -24.6548  -43.2210   -8.1237 C   0  0  0  0  0  0  0  0  0  0  0  0
  -23.8796  -43.6674   -9.2980 C   0  0  0  0  0  0  0  0  0  0  0  0
  -22.7167  -44.3305   -9.0512 O   0  0  0  0  0  0  0  0  0  0  0  0
  -21.4379  -44.1157   -8.6223 C   0  0  0  0  0  0  0  0  0  0  0  0
  -20.3867  -43.3648   -9.1362 C   0  0  0  0  0  0  0  0  0  0  0  0
  -19.1919  -43.3618   -8.4362 C   0  0  0  0  0  0  0  0  0  0  0  0
  -19.1110  -44.1274   -7.2375 C   0  0  0  0  0  0  0  0  0  0  0  0
  -20.1610  -44.8632   -6.7474 C   0  0  0  0  0  0  0  0  0  0  0  0
  -19.9684  -45.7836   -5.2493 Cl  0  0  0  0  0  0  0  0  0  0  0  0
  -21.2522  -44.8313   -7.4357 N   0  0  0  0  0  0  0  0  0  0  0  0
  -17.9071  -42.6843   -8.6614 C   0  0  0  0  0  0  0  0  0  0  0  0
  -16.8621  -43.4689   -8.4872 O   0  0  0  0  0  0  0  0  0  0  0  0
  -17.5507  -41.3842   -9.0203 N   0  0  0  0  0  0  0  0  0  0  0  0
  1  2  1  0
  2  3  1  0
  2  4  1  0
  4  5  2  0
  5  6  1  0
  6  7  2  0
  7  8  1  0
  8  9  2  0
  6 10  1  0
 10 11  1  0
 11 12  1  0
 10 13  1  0
 13 14  1  0
 14 15  1  0
 15 16  1  6
 15 17  1  0
 17 18  1  1
 18 19  1  0
 19 20  1  1
 19 21  1  0
 21 22  1  0
 22 23  1  0
 23 24  1  0
 24 25  1  0
 25 26  1  0
 26 27  1  0
 27 28  1  0
 28 29  1  0
 29 30  2  0
 30 31  1  0
 31 32  2  0
 32 33  1  0
 33 34  1  0
 33 35  2  0
 31 36  1  0
 36 37  2  0
 36 38  1  0
  9  4  1  0
 12 10  1  0
 35 29  1  0
 38 17  1  0
M  END
$$$$
