
     RDKit          3D

 38 41  0  0  0  0  0  0  0  0999 V2000
  -22.5523  -37.8448   -7.1031 C   0  0  0  0  0  0  0  0  0  0  0  0
  -21.2211  -37.5409   -7.7743 C   0  0  0  0  0  0  0  0  0  0  0  0
  -21.0614  -38.3716   -9.0286 C   0  0  0  0  0  0  0  0  0  0  0  0
  -20.0748  -37.7162   -6.8703 C   0  0  0  0  0  0  0  0  0  0  0  0
  -18.7723  -37.8963   -7.3028 C   0  0  0  0  0  0  0  0  0  0  0  0
  -17.7314  -38.0575   -6.4374 C   0  0  0  0  0  0  0  0  0  0  0  0
  -17.9795  -38.0408   -5.1176 N   0  0  0  0  0  0  0  0  0  0  0  0
  -19.2417  -37.8670   -4.6416 C   0  0  0  0  0  0  0  0  0  0  0  0
  -20.3034  -37.7029   -5.5022 C   0  0  0  0  0  0  0  0  0  0  0  0
  -16.3316  -38.2630   -6.8853 C   0  0  0  0  0  0  0  0  0  0  0  0
  -15.4506  -37.0526   -6.5244 C   0  0  0  0  0  0  0  0  0  0  0  0
  -15.2765  -38.4258   -5.8908 C   0  0  0  0  0  0  0  0  0  0  0  0
  -16.2296  -38.7135   -8.2668 N   0  0  0  0  0  0  0  0  0  0  0  0
  -17.4387  -39.4018   -8.6879 C   0  0  0  0  0  0  0  0  0  0  0  0
  -17.0990  -40.5396   -9.6009 C   0  0  1  0  0  0  0  0  0  0  0  0
  -16.1424  -40.2797  -10.5535 O   0  0  0  0  0  0  0  0  0  0  0  0
  -16.9338  -41.8772   -8.9391 C   0  0  2  0  0  0  0  0  0  0  0  0
  -17.5655  -43.0500   -9.6102 C   0  0  0  0  0  0  0  0  0  0  0  0
  -17.1897  -43.3862  -10.9836 C   0  0  2  0  0  0  0  0  0  0  0  0
  -18.2146  -42.9092  -12.0283 C   0  0  0  0  0  0  0  0  0  0  0  0
  -16.9975  -44.8587  -11.2663 C   0  0  0  0  0  0  0  0  0  0  0  0
  -16.4876  -45.6792  -10.1485 C   0  0  0  0  0  0  0  0  0  0  0  0
  -17.5755  -46.3847   -9.3823 C   0  0  0  0  0  0  0  0  0  0  0  0
  -17.8220  -47.8046   -9.7838 C   0  0  0  0  0  0  0  0  0  0  0  0
  -19.3076  -48.0613   -9.5742 C   0  0  0  0  0  0  0  0  0  0  0  0
  -19.6267  -48.8718   -8.3783 C   0  0  0  0  0  0  0  0  0  0  0  0
  -19.2942  -48.3089   -7.0547 C   0  0  0  0  0  0  0  0  0  0  0  0
  -19.9586  -47.1809   -6.6817 O   0  0  0  0  0  0  0  0  0  0  0  0
  -20.0133  -45.8412   -6.9417 C   0  0  0  0  0  0  0  0  0  0  0  0
  -19.0871  -44.8152   -6.7924 C   0  0  0  0  0  0  0  0  0  0  0  0
  -19.4731  -43.5374   -7.1611 C   0  0  0  0  0  0  0  0  0  0  0  0
  -20.7918  -43.3512   -7.6669 C   0  0  0  0  0  0  0  0  0  0  0  0
  -21.6919  -44.3781   -7.8057 C   0  0  0  0  0  0  0  0  0  0  0  0
  -23.3089  -44.0522   -8.4439 Cl  0  0  0  0  0  0  0  0  0  0  0  0
  -21.2826  -45.5492   -7.4496 N   0  0  0  0  0  0  0  0  0  0  0  0
  -18.7708  -42.2462   -7.1630 C   0  0  0  0  0  0  0  0  0  0  0  0
  -19.4937  -41.2547   -6.6809 O   0  0  0  0  0  0  0  0  0  0  0  0
  -17.4992  -41.8390   -7.5670 N   0  0  0  0  0  0  0  0  0  0  0  0
  1  2  1  0
  2  3  1  0
  2  4  1  0
  4  5  2  0
  5  6  1  0
  6  7  2  0
  7  8  1  0
  8  9  2  0
  6 10  1  0
 10 11  1  0
 11 12  1  0
 10 13  1  0
 13 14  1  0
 14 15  1  0
 15 16  1  1
 15 17  1  0
 17 18  1  6
 18 19  1  0
 19 20  1  6
 19 21  1  0
 21 22  1  0
 22 23  1  0
 23 24  1  0
 24 25  1  0
 25 26  1  0
 26 27  1  0
 27 28  1  0
 28 29  1  0
 29 30  2  0
 30 31  1  0
 31 32  2  0
 32 33  1  0
 33 34  1  0
 33 35  2  0
 31 36  1  0
 36 37  2  0
 36 38  1  0
  9  4  1  0
 12 10  1  0
 35 29  1  0
 38 17  1  0
M  END
$$$$
