
     RDKit          3D

 38 41  0  0  0  0  0  0  0  0999 V2000
  -14.1797  -35.5061  -10.9846 C   0  0  0  0  0  0  0  0  0  0  0  0
  -14.6211  -36.4530  -12.0907 C   0  0  0  0  0  0  0  0  0  0  0  0
  -16.1296  -36.5634  -12.1194 C   0  0  0  0  0  0  0  0  0  0  0  0
  -13.9923  -37.7783  -11.9898 C   0  0  0  0  0  0  0  0  0  0  0  0
  -13.9652  -38.5326  -10.8294 C   0  0  0  0  0  0  0  0  0  0  0  0
  -13.3720  -39.7584  -10.7692 C   0  0  0  0  0  0  0  0  0  0  0  0
  -12.7933  -40.2516  -11.8762 N   0  0  0  0  0  0  0  0  0  0  0  0
  -12.7928  -39.5501  -13.0415 C   0  0  0  0  0  0  0  0  0  0  0  0
  -13.3873  -38.3110  -13.1187 C   0  0  0  0  0  0  0  0  0  0  0  0
  -13.3246  -40.5741   -9.5303 C   0  0  0  0  0  0  0  0  0  0  0  0
  -13.2513  -42.0769   -9.8582 C   0  0  0  0  0  0  0  0  0  0  0  0
  -12.1094  -41.3123   -9.2032 C   0  0  0  0  0  0  0  0  0  0  0  0
  -14.3419  -40.2013   -8.5566 N   0  0  0  0  0  0  0  0  0  0  0  0
  -15.1800  -39.1235   -9.0555 C   0  0  0  0  0  0  0  0  0  0  0  0
  -16.3697  -38.9342   -8.1653 C   0  0  1  0  0  0  0  0  0  0  0  0
  -16.5616  -37.6612   -7.6827 O   0  0  0  0  0  0  0  0  0  0  0  0
  -17.6371  -39.5954   -8.6246 C   0  0  2  0  0  0  0  0  0  0  0  0
  -18.8397  -39.4360   -7.7567 C   0  0  0  0  0  0  0  0  0  0  0  0
  -19.3372  -38.0949   -7.4496 C   0  0  2  0  0  0  0  0  0  0  0  0
  -18.9203  -37.5967   -6.0541 C   0  0  0  0  0  0  0  0  0  0  0  0
  -20.8393  -37.9298   -7.4925 C   0  0  0  0  0  0  0  0  0  0  0  0
  -21.5630  -38.7712   -8.4678 C   0  0  0  0  0  0  0  0  0  0  0  0
  -22.1270  -40.0310   -7.8652 C   0  0  0  0  0  0  0  0  0  0  0  0
  -23.5666  -39.9588   -7.4646 C   0  0  0  0  0  0  0  0  0  0  0  0
  -23.7228  -40.8617   -6.2492 C   0  0  0  0  0  0  0  0  0  0  0  0
  -24.3855  -42.1548   -6.5275 C   0  0  0  0  0  0  0  0  0  0  0  0
  -23.7047  -43.0972   -7.4371 C   0  0  0  0  0  0  0  0  0  0  0  0
  -22.5110  -43.6009   -7.0197 O   0  0  0  0  0  0  0  0  0  0  0  0
  -21.2050  -43.2411   -6.8456 C   0  0  0  0  0  0  0  0  0  0  0  0
  -20.2182  -42.8227   -7.7311 C   0  0  0  0  0  0  0  0  0  0  0  0
  -18.9680  -42.5284   -7.2134 C   0  0  0  0  0  0  0  0  0  0  0  0
  -18.7680  -42.6738   -5.8104 C   0  0  0  0  0  0  0  0  0  0  0  0
  -19.7560  -43.0894   -4.9530 C   0  0  0  0  0  0  0  0  0  0  0  0
  -19.4157  -43.2403   -3.2239 Cl  0  0  0  0  0  0  0  0  0  0  0  0
  -20.9027  -43.3494   -5.4849 N   0  0  0  0  0  0  0  0  0  0  0  0
  -17.7221  -42.0501   -7.8295 C   0  0  0  0  0  0  0  0  0  0  0  0
  -16.6494  -42.6926   -7.4117 O   0  0  0  0  0  0  0  0  0  0  0  0
  -17.4258  -41.0580   -8.7645 N   0  0  0  0  0  0  0  0  0  0  0  0
  1  2  1  0
  2  3  1  0
  2  4  1  0
  4  5  2  0
  5  6  1  0
  6  7  2  0
  7  8  1  0
  8  9  2  0
  6 10  1  0
 10 11  1  0
 11 12  1  0
 10 13  1  0
 13 14  1  0
 14 15  1  0
 15 16  1  6
 15 17  1  0
 17 18  1  1
 18 19  1  0
 19 20  1  1
 19 21  1  0
 21 22  1  0
 22 23  1  0
 23 24  1  0
 24 25  1  0
 25 26  1  0
 26 27  1  0
 27 28  1  0
 28 29  1  0
 29 30  2  0
 30 31  1  0
 31 32  2  0
 32 33  1  0
 33 34  1  0
 33 35  2  0
 31 36  1  0
 36 37  2  0
 36 38  1  0
  9  4  1  0
 12 10  1  0
 35 29  1  0
 38 17  1  0
M  END
$$$$
