
     RDKit          3D

 38 41  0  0  0  0  0  0  0  0999 V2000
  -17.7497  -44.0095  -12.3540 C   0  0  0  0  0  0  0  0  0  0  0  0
  -16.7175  -44.9030  -11.6822 C   0  0  0  0  0  0  0  0  0  0  0  0
  -17.3255  -45.6054  -10.4882 C   0  0  0  0  0  0  0  0  0  0  0  0
  -15.4947  -44.1776  -11.3073 C   0  0  0  0  0  0  0  0  0  0  0  0
  -15.4782  -42.8574  -10.8916 C   0  0  0  0  0  0  0  0  0  0  0  0
  -14.3258  -42.2132  -10.5521 C   0  0  0  0  0  0  0  0  0  0  0  0
  -13.1648  -42.8846  -10.6236 N   0  0  0  0  0  0  0  0  0  0  0  0
  -13.1273  -44.1833  -11.0260 C   0  0  0  0  0  0  0  0  0  0  0  0
  -14.2819  -44.8478  -11.3722 C   0  0  0  0  0  0  0  0  0  0  0  0
  -14.2902  -40.7953  -10.1156 C   0  0  0  0  0  0  0  0  0  0  0  0
  -12.8413  -40.2858  -10.0035 C   0  0  0  0  0  0  0  0  0  0  0  0
  -13.8256  -39.7701  -11.0440 C   0  0  0  0  0  0  0  0  0  0  0  0
  -15.1321  -40.5283   -8.9573 N   0  0  0  0  0  0  0  0  0  0  0  0
  -15.5409  -39.1341   -8.9122 C   0  0  0  0  0  0  0  0  0  0  0  0
  -16.7104  -38.9638   -7.9920 C   0  0  1  0  0  0  0  0  0  0  0  0
  -16.9086  -37.6947   -7.5019 O   0  0  0  0  0  0  0  0  0  0  0  0
  -17.9792  -39.6426   -8.4206 C   0  0  2  0  0  0  0  0  0  0  0  0
  -19.1471  -39.5453   -7.4979 C   0  0  0  0  0  0  0  0  0  0  0  0
  -19.6648  -38.2293   -7.1229 C   0  0  2  0  0  0  0  0  0  0  0  0
  -19.2010  -37.7682   -5.7295 C   0  0  0  0  0  0  0  0  0  0  0  0
  -21.1710  -38.1032   -7.0968 C   0  0  0  0  0  0  0  0  0  0  0  0
  -21.9144  -38.9298   -8.0698 C   0  0  0  0  0  0  0  0  0  0  0  0
  -22.4199  -40.2241   -7.4890 C   0  0  0  0  0  0  0  0  0  0  0  0
  -23.8423  -40.2043   -7.0258 C   0  0  0  0  0  0  0  0  0  0  0  0
  -23.9232  -41.1521   -5.8376 C   0  0  0  0  0  0  0  0  0  0  0  0
  -24.5644  -42.4522   -6.1333 C   0  0  0  0  0  0  0  0  0  0  0  0
  -23.8996  -43.3444   -7.1035 C   0  0  0  0  0  0  0  0  0  0  0  0
  -22.6767  -43.8298   -6.7547 O   0  0  0  0  0  0  0  0  0  0  0  0
  -21.3740  -43.4414   -6.6231 C   0  0  0  0  0  0  0  0  0  0  0  0
  -20.4370  -42.9667   -7.5340 C   0  0  0  0  0  0  0  0  0  0  0  0
  -19.1736  -42.6568   -7.0592 C   0  0  0  0  0  0  0  0  0  0  0  0
  -18.9099  -42.8447   -5.6719 C   0  0  0  0  0  0  0  0  0  0  0  0
  -19.8493  -43.3157   -4.7889 C   0  0  0  0  0  0  0  0  0  0  0  0
  -19.4314  -43.5166   -3.0820 Cl  0  0  0  0  0  0  0  0  0  0  0  0
  -21.0108  -43.5880   -5.2810 N   0  0  0  0  0  0  0  0  0  0  0  0
  -17.9678  -42.1245   -7.7098 C   0  0  0  0  0  0  0  0  0  0  0  0
  -16.8623  -42.7520   -7.3605 O   0  0  0  0  0  0  0  0  0  0  0  0
  -17.7372  -41.0935   -8.6208 N   0  0  0  0  0  0  0  0  0  0  0  0
  1  2  1  0
  2  3  1  0
  2  4  1  0
  4  5  2  0
  5  6  1  0
  6  7  2  0
  7  8  1  0
  8  9  2  0
  6 10  1  0
 10 11  1  0
 11 12  1  0
 10 13  1  0
 13 14  1  0
 14 15  1  0
 15 16  1  6
 15 17  1  0
 17 18  1  1
 18 19  1  0
 19 20  1  1
 19 21  1  0
 21 22  1  0
 22 23  1  0
 23 24  1  0
 24 25  1  0
 25 26  1  0
 26 27  1  0
 27 28  1  0
 28 29  1  0
 29 30  2  0
 30 31  1  0
 31 32  2  0
 32 33  1  0
 33 34  1  0
 33 35  2  0
 31 36  1  0
 36 37  2  0
 36 38  1  0
  9  4  1  0
 12 10  1  0
 35 29  1  0
 38 17  1  0
M  END
$$$$
