
     RDKit          3D

 38 41  0  0  0  0  0  0  0  0999 V2000
  -15.2321  -34.6509   -9.9098 C   0  0  0  0  0  0  0  0  0  0  0  0
  -14.0254  -34.5091  -10.8257 C   0  0  0  0  0  0  0  0  0  0  0  0
  -14.2201  -33.3501  -11.7784 C   0  0  0  0  0  0  0  0  0  0  0  0
  -13.7136  -35.7487  -11.5522 C   0  0  0  0  0  0  0  0  0  0  0  0
  -13.8198  -37.0136  -11.0001 C   0  0  0  0  0  0  0  0  0  0  0  0
  -13.5212  -38.1438  -11.7014 C   0  0  0  0  0  0  0  0  0  0  0  0
  -13.1092  -38.0249  -12.9741 N   0  0  0  0  0  0  0  0  0  0  0  0
  -12.9883  -36.8047  -13.5629 C   0  0  0  0  0  0  0  0  0  0  0  0
  -13.2858  -35.6542  -12.8684 C   0  0  0  0  0  0  0  0  0  0  0  0
  -13.6190  -39.5058  -11.1203 C   0  0  0  0  0  0  0  0  0  0  0  0
  -12.3475  -40.3249  -11.4099 C   0  0  0  0  0  0  0  0  0  0  0  0
  -12.7472  -39.8771  -10.0109 C   0  0  0  0  0  0  0  0  0  0  0  0
  -14.8731  -40.1769  -11.4346 N   0  0  0  0  0  0  0  0  0  0  0  0
  -15.7719  -40.1775  -10.2922 C   0  0  0  0  0  0  0  0  0  0  0  0
  -17.0763  -40.8175  -10.6562 C   0  0  1  0  0  0  0  0  0  0  0  0
  -17.1243  -41.4229  -11.8896 O   0  0  0  0  0  0  0  0  0  0  0  0
  -17.7307  -41.6226   -9.5707 C   0  0  2  0  0  0  0  0  0  0  0  0
  -19.1976  -41.4350   -9.3761 C   0  0  0  0  0  0  0  0  0  0  0  0
  -20.1136  -41.6947  -10.4869 C   0  0  2  0  0  0  0  0  0  0  0  0
  -20.5824  -40.4139  -11.2003 C   0  0  0  0  0  0  0  0  0  0  0  0
  -21.3840  -42.4309  -10.1274 C   0  0  0  0  0  0  0  0  0  0  0  0
  -21.2863  -43.4033   -9.0194 C   0  0  0  0  0  0  0  0  0  0  0  0
  -21.7200  -42.8397   -7.6918 C   0  0  0  0  0  0  0  0  0  0  0  0
  -23.1317  -43.1421   -7.2997 C   0  0  0  0  0  0  0  0  0  0  0  0
  -23.6208  -41.9487   -6.4914 C   0  0  0  0  0  0  0  0  0  0  0  0
  -23.6958  -42.1856   -5.0330 C   0  0  0  0  0  0  0  0  0  0  0  0
  -22.4365  -42.4597   -4.3130 C   0  0  0  0  0  0  0  0  0  0  0  0
  -21.5172  -41.4565   -4.2783 O   0  0  0  0  0  0  0  0  0  0  0  0
  -20.6117  -40.8129   -5.0729 C   0  0  0  0  0  0  0  0  0  0  0  0
  -19.4671  -41.2433   -5.7344 C   0  0  0  0  0  0  0  0  0  0  0  0
  -18.7594  -40.3110   -6.4745 C   0  0  0  0  0  0  0  0  0  0  0  0
  -19.2433  -38.9716   -6.5114 C   0  0  0  0  0  0  0  0  0  0  0  0
  -20.3759  -38.5668   -5.8500 C   0  0  0  0  0  0  0  0  0  0  0  0
  -20.9018  -36.8812   -5.9539 Cl  0  0  0  0  0  0  0  0  0  0  0  0
  -20.9996  -39.4738   -5.1763 N   0  0  0  0  0  0  0  0  0  0  0  0
  -17.5474  -40.4071   -7.3005 C   0  0  0  0  0  0  0  0  0  0  0  0
  -16.6924  -39.4250   -7.0945 O   0  0  0  0  0  0  0  0  0  0  0  0
  -17.1028  -41.3157   -8.2611 N   0  0  0  0  0  0  0  0  0  0  0  0
  1  2  1  0
  2  3  1  0
  2  4  1  0
  4  5  2  0
  5  6  1  0
  6  7  2  0
  7  8  1  0
  8  9  2  0
  6 10  1  0
 10 11  1  0
 11 12  1  0
 10 13  1  0
 13 14  1  0
 14 15  1  0
 15 16  1  6
 15 17  1  0
 17 18  1  1
 18 19  1  0
 19 20  1  1
 19 21  1  0
 21 22  1  0
 22 23  1  0
 23 24  1  0
 24 25  1  0
 25 26  1  0
 26 27  1  0
 27 28  1  0
 28 29  1  0
 29 30  2  0
 30 31  1  0
 31 32  2  0
 32 33  1  0
 33 34  1  0
 33 35  2  0
 31 36  1  0
 36 37  2  0
 36 38  1  0
  9  4  1  0
 12 10  1  0
 35 29  1  0
 38 17  1  0
M  END
$$$$
