
     RDKit          3D

 38 41  0  0  0  0  0  0  0  0999 V2000
  -16.3781  -35.3216  -12.4457 C   0  0  0  0  0  0  0  0  0  0  0  0
  -15.0939  -35.4652  -11.6426 C   0  0  0  0  0  0  0  0  0  0  0  0
  -14.1999  -34.2640  -11.8586 C   0  0  0  0  0  0  0  0  0  0  0  0
  -14.3802  -36.7183  -11.9296 C   0  0  0  0  0  0  0  0  0  0  0  0
  -14.4043  -37.8266  -11.1006 C   0  0  0  0  0  0  0  0  0  0  0  0
  -13.7296  -38.9737  -11.3957 C   0  0  0  0  0  0  0  0  0  0  0  0
  -13.0160  -39.0299  -12.5320 N   0  0  0  0  0  0  0  0  0  0  0  0
  -12.9601  -37.9682  -13.3804 C   0  0  0  0  0  0  0  0  0  0  0  0
  -13.6356  -36.8029  -13.0969 C   0  0  0  0  0  0  0  0  0  0  0  0
  -13.7362  -40.1660  -10.5121 C   0  0  0  0  0  0  0  0  0  0  0  0
  -13.1783  -41.4012  -11.2432 C   0  0  0  0  0  0  0  0  0  0  0  0
  -12.4691  -40.7389  -10.0703 C   0  0  0  0  0  0  0  0  0  0  0  0
  -15.0076  -40.3708   -9.8314 N   0  0  0  0  0  0  0  0  0  0  0  0
  -15.5696  -39.1111   -9.3730 C   0  0  0  0  0  0  0  0  0  0  0  0
  -16.5573  -39.3512   -8.2728 C   0  0  1  0  0  0  0  0  0  0  0  0
  -16.6189  -38.3821   -7.2995 O   0  0  0  0  0  0  0  0  0  0  0  0
  -17.9064  -39.8470   -8.7070 C   0  0  2  0  0  0  0  0  0  0  0  0
  -18.8787  -40.2001   -7.6324 C   0  0  0  0  0  0  0  0  0  0  0  0
  -19.2719  -39.1880   -6.6518 C   0  0  2  0  0  0  0  0  0  0  0  0
  -18.5420  -39.3315   -5.3042 C   0  0  0  0  0  0  0  0  0  0  0  0
  -20.7418  -39.1555   -6.3003 C   0  0  0  0  0  0  0  0  0  0  0  0
  -21.6811  -39.5326   -7.3766 C   0  0  0  0  0  0  0  0  0  0  0  0
  -22.1147  -40.9734   -7.3115 C   0  0  0  0  0  0  0  0  0  0  0  0
  -23.4249  -41.2163   -6.6315 C   0  0  0  0  0  0  0  0  0  0  0  0
  -23.3168  -42.5772   -5.9585 C   0  0  0  0  0  0  0  0  0  0  0  0
  -24.0464  -43.6627   -6.6501 C   0  0  0  0  0  0  0  0  0  0  0  0
  -23.6046  -44.0342   -8.0088 C   0  0  0  0  0  0  0  0  0  0  0  0
  -22.3557  -44.5629   -8.1261 O   0  0  0  0  0  0  0  0  0  0  0  0
  -21.0385  -44.2045   -8.0841 C   0  0  0  0  0  0  0  0  0  0  0  0
  -20.2709  -43.3484   -8.8656 C   0  0  0  0  0  0  0  0  0  0  0  0
  -18.9314  -43.2068   -8.5444 C   0  0  0  0  0  0  0  0  0  0  0  0
  -18.4216  -43.9457   -7.4382 C   0  0  0  0  0  0  0  0  0  0  0  0
  -19.1966  -44.7868   -6.6794 C   0  0  0  0  0  0  0  0  0  0  0  0
  -18.4766  -45.6641   -5.3228 Cl  0  0  0  0  0  0  0  0  0  0  0  0
  -20.4380  -44.8823   -7.0189 N   0  0  0  0  0  0  0  0  0  0  0  0
  -17.8495  -42.3948   -9.1196 C   0  0  0  0  0  0  0  0  0  0  0  0
  -16.7208  -43.0581   -9.2746 O   0  0  0  0  0  0  0  0  0  0  0  0
  -17.7562  -41.0675   -9.5385 N   0  0  0  0  0  0  0  0  0  0  0  0
  1  2  1  0
  2  3  1  0
  2  4  1  0
  4  5  2  0
  5  6  1  0
  6  7  2  0
  7  8  1  0
  8  9  2  0
  6 10  1  0
 10 11  1  0
 11 12  1  0
 10 13  1  0
 13 14  1  0
 14 15  1  0
 15 16  1  6
 15 17  1  0
 17 18  1  1
 18 19  1  0
 19 20  1  1
 19 21  1  0
 21 22  1  0
 22 23  1  0
 23 24  1  0
 24 25  1  0
 25 26  1  0
 26 27  1  0
 27 28  1  0
 28 29  1  0
 29 30  2  0
 30 31  1  0
 31 32  2  0
 32 33  1  0
 33 34  1  0
 33 35  2  0
 31 36  1  0
 36 37  2  0
 36 38  1  0
  9  4  1  0
 12 10  1  0
 35 29  1  0
 38 17  1  0
M  END
$$$$
