
     RDKit          3D

 38 41  0  0  0  0  0  0  0  0999 V2000
  -12.4410  -34.6263  -10.8937 C   0  0  0  0  0  0  0  0  0  0  0  0
  -13.5988  -35.5171  -11.3190 C   0  0  0  0  0  0  0  0  0  0  0  0
  -14.7868  -35.3094  -10.4056 C   0  0  0  0  0  0  0  0  0  0  0  0
  -13.2265  -36.9376  -11.3932 C   0  0  0  0  0  0  0  0  0  0  0  0
  -13.3923  -37.8336  -10.3512 C   0  0  0  0  0  0  0  0  0  0  0  0
  -13.0349  -39.1452  -10.4524 C   0  0  0  0  0  0  0  0  0  0  0  0
  -12.5029  -39.5832  -11.6051 N   0  0  0  0  0  0  0  0  0  0  0  0
  -12.3193  -38.7429  -12.6589 C   0  0  0  0  0  0  0  0  0  0  0  0
  -12.6749  -37.4160  -12.5727 C   0  0  0  0  0  0  0  0  0  0  0  0
  -13.1956  -40.1154   -9.3410 C   0  0  0  0  0  0  0  0  0  0  0  0
  -12.1395  -41.2331   -9.4234 C   0  0  0  0  0  0  0  0  0  0  0  0
  -12.1696  -40.1987   -8.3070 C   0  0  0  0  0  0  0  0  0  0  0  0
  -14.5683  -40.5716   -9.1692 N   0  0  0  0  0  0  0  0  0  0  0  0
  -15.5175  -39.5808   -9.6493 C   0  0  0  0  0  0  0  0  0  0  0  0
  -16.5711  -39.3253   -8.6157 C   0  0  1  0  0  0  0  0  0  0  0  0
  -16.6215  -38.0465   -8.1135 O   0  0  0  0  0  0  0  0  0  0  0  0
  -17.9248  -39.9042   -8.9103 C   0  0  2  0  0  0  0  0  0  0  0  0
  -19.0393  -39.5269   -7.9936 C   0  0  0  0  0  0  0  0  0  0  0  0
  -19.3868  -38.1164   -7.8200 C   0  0  2  0  0  0  0  0  0  0  0  0
  -18.8226  -37.5063   -6.5244 C   0  0  0  0  0  0  0  0  0  0  0  0
  -20.8663  -37.8075   -7.7873 C   0  0  0  0  0  0  0  0  0  0  0  0
  -21.7354  -38.6780   -8.6057 C   0  0  0  0  0  0  0  0  0  0  0  0
  -22.3663  -39.7978   -7.8206 C   0  0  0  0  0  0  0  0  0  0  0  0
  -23.7591  -39.5363   -7.3411 C   0  0  0  0  0  0  0  0  0  0  0  0
  -23.9064  -40.2740   -6.0180 C   0  0  0  0  0  0  0  0  0  0  0  0
  -24.7044  -41.5175   -6.0952 C   0  0  0  0  0  0  0  0  0  0  0  0
  -24.1832  -42.6212   -6.9255 C   0  0  0  0  0  0  0  0  0  0  0  0
  -23.0130  -43.1910   -6.5268 O   0  0  0  0  0  0  0  0  0  0  0  0
  -21.6701  -42.9465   -6.4806 C   0  0  0  0  0  0  0  0  0  0  0  0
  -20.7180  -42.7331   -7.4710 C   0  0  0  0  0  0  0  0  0  0  0  0
  -19.4108  -42.5084   -7.0731 C   0  0  0  0  0  0  0  0  0  0  0  0
  -19.1207  -42.5118   -5.6783 C   0  0  0  0  0  0  0  0  0  0  0  0
  -20.0758  -42.7254   -4.7160 C   0  0  0  0  0  0  0  0  0  0  0  0
  -19.6225  -42.7111   -3.0064 Cl  0  0  0  0  0  0  0  0  0  0  0  0
  -21.2781  -42.9282   -5.1388 N   0  0  0  0  0  0  0  0  0  0  0  0
  -18.1757  -42.2310   -7.8202 C   0  0  0  0  0  0  0  0  0  0  0  0
  -17.1386  -42.9259   -7.3967 O   0  0  0  0  0  0  0  0  0  0  0  0
  -17.8601  -41.3871   -8.8853 N   0  0  0  0  0  0  0  0  0  0  0  0
  1  2  1  0
  2  3  1  0
  2  4  1  0
  4  5  2  0
  5  6  1  0
  6  7  2  0
  7  8  1  0
  8  9  2  0
  6 10  1  0
 10 11  1  0
 11 12  1  0
 10 13  1  0
 13 14  1  0
 14 15  1  0
 15 16  1  6
 15 17  1  0
 17 18  1  1
 18 19  1  0
 19 20  1  1
 19 21  1  0
 21 22  1  0
 22 23  1  0
 23 24  1  0
 24 25  1  0
 25 26  1  0
 26 27  1  0
 27 28  1  0
 28 29  1  0
 29 30  2  0
 30 31  1  0
 31 32  2  0
 32 33  1  0
 33 34  1  0
 33 35  2  0
 31 36  1  0
 36 37  2  0
 36 38  1  0
  9  4  1  0
 12 10  1  0
 35 29  1  0
 38 17  1  0
M  END
$$$$
