
     RDKit          3D

 38 41  0  0  0  0  0  0  0  0999 V2000
  -10.5230  -37.5488  -15.1522 C   0  0  0  0  0  0  0  0  0  0  0  0
  -11.6078  -38.5191  -14.7086 C   0  0  0  0  0  0  0  0  0  0  0  0
  -12.4272  -38.9728  -15.8966 C   0  0  0  0  0  0  0  0  0  0  0  0
  -12.4658  -37.9681  -13.6494 C   0  0  0  0  0  0  0  0  0  0  0  0
  -12.6455  -38.5656  -12.4137 C   0  0  0  0  0  0  0  0  0  0  0  0
  -13.4502  -38.0286  -11.4533 C   0  0  0  0  0  0  0  0  0  0  0  0
  -14.0913  -36.8782  -11.7161 N   0  0  0  0  0  0  0  0  0  0  0  0
  -13.9482  -36.2514  -12.9147 C   0  0  0  0  0  0  0  0  0  0  0  0
  -13.1396  -36.7806  -13.8949 C   0  0  0  0  0  0  0  0  0  0  0  0
  -13.6621  -38.6626  -10.1284 C   0  0  0  0  0  0  0  0  0  0  0  0
  -13.2682  -40.1511  -10.1565 C   0  0  0  0  0  0  0  0  0  0  0  0
  -12.5089  -39.1054   -9.3519 C   0  0  0  0  0  0  0  0  0  0  0  0
  -14.9720  -38.3791   -9.5576 N   0  0  0  0  0  0  0  0  0  0  0  0
  -14.8976  -38.2322   -8.1133 C   0  0  0  0  0  0  0  0  0  0  0  0
  -16.0479  -38.9334   -7.4586 C   0  0  1  0  0  0  0  0  0  0  0  0
  -16.3349  -38.5431   -6.1719 O   0  0  0  0  0  0  0  0  0  0  0  0
  -17.2690  -39.1165   -8.3128 C   0  0  2  0  0  0  0  0  0  0  0  0
  -18.5172  -39.5607   -7.6275 C   0  0  0  0  0  0  0  0  0  0  0  0
  -19.0727  -38.7529   -6.5416 C   0  0  2  0  0  0  0  0  0  0  0  0
  -18.7411  -39.3039   -5.1432 C   0  0  0  0  0  0  0  0  0  0  0  0
  -20.5755  -38.5888   -6.5525 C   0  0  0  0  0  0  0  0  0  0  0  0
  -21.2228  -38.5706   -7.8804 C   0  0  0  0  0  0  0  0  0  0  0  0
  -21.7741  -39.9100   -8.2931 C   0  0  0  0  0  0  0  0  0  0  0  0
  -23.2332  -40.1093   -8.0292 C   0  0  0  0  0  0  0  0  0  0  0  0
  -23.4190  -41.5887   -7.7235 C   0  0  0  0  0  0  0  0  0  0  0  0
  -24.0248  -42.3705   -8.8238 C   0  0  0  0  0  0  0  0  0  0  0  0
  -23.2699  -42.4825  -10.0874 C   0  0  0  0  0  0  0  0  0  0  0  0
  -22.0822  -43.1456  -10.0374 O   0  0  0  0  0  0  0  0  0  0  0  0
  -20.7987  -43.0007   -9.5935 C   0  0  0  0  0  0  0  0  0  0  0  0
  -19.7840  -42.1094   -9.9233 C   0  0  0  0  0  0  0  0  0  0  0  0
  -18.5709  -42.2402   -9.2683 C   0  0  0  0  0  0  0  0  0  0  0  0
  -18.4351  -43.2776   -8.3015 C   0  0  0  0  0  0  0  0  0  0  0  0
  -19.4498  -44.1483   -7.9909 C   0  0  0  0  0  0  0  0  0  0  0  0
  -19.1898  -45.4065   -6.7752 Cl  0  0  0  0  0  0  0  0  0  0  0  0
  -20.5600  -43.9831   -8.6278 N   0  0  0  0  0  0  0  0  0  0  0  0
  -17.3126  -41.4839   -9.3417 C   0  0  0  0  0  0  0  0  0  0  0  0
  -16.2413  -42.2506   -9.3901 O   0  0  0  0  0  0  0  0  0  0  0  0
  -17.0035  -40.1238   -9.3703 N   0  0  0  0  0  0  0  0  0  0  0  0
  1  2  1  0
  2  3  1  0
  2  4  1  0
  4  5  2  0
  5  6  1  0
  6  7  2  0
  7  8  1  0
  8  9  2  0
  6 10  1  0
 10 11  1  0
 11 12  1  0
 10 13  1  0
 13 14  1  0
 14 15  1  0
 15 16  1  1
 15 17  1  0
 17 18  1  1
 18 19  1  0
 19 20  1  1
 19 21  1  0
 21 22  1  0
 22 23  1  0
 23 24  1  0
 24 25  1  0
 25 26  1  0
 26 27  1  0
 27 28  1  0
 28 29  1  0
 29 30  2  0
 30 31  1  0
 31 32  2  0
 32 33  1  0
 33 34  1  0
 33 35  2  0
 31 36  1  0
 36 37  2  0
 36 38  1  0
  9  4  1  0
 12 10  1  0
 35 29  1  0
 38 17  1  0
M  END
$$$$
