
     RDKit          3D

 38 41  0  0  0  0  0  0  0  0999 V2000
   -9.9707  -37.1913  -10.0433 C   0  0  0  0  0  0  0  0  0  0  0  0
  -10.5840  -36.7787  -11.3732 C   0  0  0  0  0  0  0  0  0  0  0  0
  -10.9075  -35.3008  -11.3686 C   0  0  0  0  0  0  0  0  0  0  0  0
  -11.7638  -37.5807  -11.7291 C   0  0  0  0  0  0  0  0  0  0  0  0
  -13.0463  -37.3032  -11.2883 C   0  0  0  0  0  0  0  0  0  0  0  0
  -14.1194  -38.0685  -11.6360 C   0  0  0  0  0  0  0  0  0  0  0  0
  -13.9245  -39.1300  -12.4353 N   0  0  0  0  0  0  0  0  0  0  0  0
  -12.6840  -39.4454  -12.8954 C   0  0  0  0  0  0  0  0  0  0  0  0
  -11.5903  -38.6827  -12.5535 C   0  0  0  0  0  0  0  0  0  0  0  0
  -15.4983  -37.7909  -11.1627 C   0  0  0  0  0  0  0  0  0  0  0  0
  -16.0990  -36.5728  -11.8884 C   0  0  0  0  0  0  0  0  0  0  0  0
  -16.6226  -37.9905  -12.0708 C   0  0  0  0  0  0  0  0  0  0  0  0
  -15.6143  -37.7664   -9.7108 N   0  0  0  0  0  0  0  0  0  0  0  0
  -16.8346  -37.0978   -9.2903 C   0  0  0  0  0  0  0  0  0  0  0  0
  -17.5042  -37.8743   -8.1985 C   0  0  1  0  0  0  0  0  0  0  0  0
  -17.7211  -37.1935   -7.0239 O   0  0  0  0  0  0  0  0  0  0  0  0
  -18.6710  -38.7187   -8.6227 C   0  0  2  0  0  0  0  0  0  0  0  0
  -19.6574  -39.0934   -7.5685 C   0  0  0  0  0  0  0  0  0  0  0  0
  -20.3488  -38.0442   -6.8191 C   0  0  2  0  0  0  0  0  0  0  0  0
  -19.7495  -37.7991   -5.4227 C   0  0  0  0  0  0  0  0  0  0  0  0
  -21.8229  -38.2769   -6.5781 C   0  0  0  0  0  0  0  0  0  0  0  0
  -22.5481  -39.0236   -7.6266 C   0  0  0  0  0  0  0  0  0  0  0  0
  -22.6830  -40.4933   -7.3264 C   0  0  0  0  0  0  0  0  0  0  0  0
  -23.9798  -40.9015   -6.7019 C   0  0  0  0  0  0  0  0  0  0  0  0
  -23.6671  -42.0750   -5.7843 C   0  0  0  0  0  0  0  0  0  0  0  0
  -24.0838  -43.3931   -6.3114 C   0  0  0  0  0  0  0  0  0  0  0  0
  -23.4363  -43.8783   -7.5461 C   0  0  0  0  0  0  0  0  0  0  0  0
  -22.1006  -44.1324   -7.4809 O   0  0  0  0  0  0  0  0  0  0  0  0
  -20.8959  -43.4921   -7.4181 C   0  0  0  0  0  0  0  0  0  0  0  0
  -20.2419  -42.6300   -8.2912 C   0  0  0  0  0  0  0  0  0  0  0  0
  -19.0004  -42.1470   -7.9132 C   0  0  0  0  0  0  0  0  0  0  0  0
  -18.4686  -42.5627   -6.6586 C   0  0  0  0  0  0  0  0  0  0  0  0
  -19.1306  -43.4157   -5.8112 C   0  0  0  0  0  0  0  0  0  0  0  0
  -18.3920  -43.8769   -4.2715 Cl  0  0  0  0  0  0  0  0  0  0  0  0
  -20.2841  -43.8359   -6.2090 N   0  0  0  0  0  0  0  0  0  0  0  0
  -18.0529  -41.2243   -8.5547 C   0  0  0  0  0  0  0  0  0  0  0  0
  -16.8027  -41.6404   -8.5098 O   0  0  0  0  0  0  0  0  0  0  0  0
  -18.1892  -39.9969   -9.2036 N   0  0  0  0  0  0  0  0  0  0  0  0
  1  2  1  0
  2  3  1  0
  2  4  1  0
  4  5  2  0
  5  6  1  0
  6  7  2  0
  7  8  1  0
  8  9  2  0
  6 10  1  0
 10 11  1  0
 11 12  1  0
 10 13  1  0
 13 14  1  0
 14 15  1  0
 15 16  1  1
 15 17  1  0
 17 18  1  1
 18 19  1  0
 19 20  1  1
 19 21  1  0
 21 22  1  0
 22 23  1  0
 23 24  1  0
 24 25  1  0
 25 26  1  0
 26 27  1  0
 27 28  1  0
 28 29  1  0
 29 30  2  0
 30 31  1  0
 31 32  2  0
 32 33  1  0
 33 34  1  0
 33 35  2  0
 31 36  1  0
 36 37  2  0
 36 38  1  0
  9  4  1  0
 12 10  1  0
 35 29  1  0
 38 17  1  0
M  END
$$$$
