
     RDKit          3D

 38 41  0  0  0  0  0  0  0  0999 V2000
  -11.5070  -35.2650   -9.6392 C   0  0  0  0  0  0  0  0  0  0  0  0
  -12.5398  -36.3768   -9.5283 C   0  0  0  0  0  0  0  0  0  0  0  0
  -11.8582  -37.7266   -9.4807 C   0  0  0  0  0  0  0  0  0  0  0  0
  -13.5472  -36.3267  -10.5981 C   0  0  0  0  0  0  0  0  0  0  0  0
  -14.8530  -36.7611  -10.4486 C   0  0  0  0  0  0  0  0  0  0  0  0
  -15.7626  -36.7019  -11.4622 C   0  0  0  0  0  0  0  0  0  0  0  0
  -15.3772  -36.2039  -12.6485 N   0  0  0  0  0  0  0  0  0  0  0  0
  -14.1055  -35.7638  -12.8466 C   0  0  0  0  0  0  0  0  0  0  0  0
  -13.1753  -35.8167  -11.8334 C   0  0  0  0  0  0  0  0  0  0  0  0
  -17.1624  -37.1740  -11.3213 C   0  0  0  0  0  0  0  0  0  0  0  0
  -18.1450  -36.2094  -12.0110 C   0  0  0  0  0  0  0  0  0  0  0  0
  -17.8893  -37.6274  -12.5024 C   0  0  0  0  0  0  0  0  0  0  0  0
  -17.5111  -37.5417   -9.9556 N   0  0  0  0  0  0  0  0  0  0  0  0
  -16.3617  -38.0748   -9.2430 C   0  0  0  0  0  0  0  0  0  0  0  0
  -16.8095  -38.8990   -8.0752 C   0  0  1  0  0  0  0  0  0  0  0  0
  -16.0201  -38.8270   -6.9519 O   0  0  0  0  0  0  0  0  0  0  0  0
  -18.2799  -38.8559   -7.7747 C   0  0  2  0  0  0  0  0  0  0  0  0
  -18.8719  -40.0500   -7.1050 C   0  0  0  0  0  0  0  0  0  0  0  0
  -18.3498  -40.4856   -5.8096 C   0  0  2  0  0  0  0  0  0  0  0  0
  -17.3870  -41.6820   -5.9134 C   0  0  0  0  0  0  0  0  0  0  0  0
  -19.3885  -40.9049   -4.7943 C   0  0  0  0  0  0  0  0  0  0  0  0
  -20.6880  -40.2050   -4.8595 C   0  0  0  0  0  0  0  0  0  0  0  0
  -21.7334  -40.9606   -5.6370 C   0  0  0  0  0  0  0  0  0  0  0  0
  -22.6723  -41.7835   -4.8127 C   0  0  0  0  0  0  0  0  0  0  0  0
  -23.0415  -42.9944   -5.6576 C   0  0  0  0  0  0  0  0  0  0  0  0
  -24.3992  -42.9423   -6.2431 C   0  0  0  0  0  0  0  0  0  0  0  0
  -24.6886  -41.8742   -7.2201 C   0  0  0  0  0  0  0  0  0  0  0  0
  -23.9963  -41.9084   -8.3916 O   0  0  0  0  0  0  0  0  0  0  0  0
  -22.7516  -41.6705   -8.9011 C   0  0  0  0  0  0  0  0  0  0  0  0
  -21.9729  -40.5217   -8.9845 C   0  0  0  0  0  0  0  0  0  0  0  0
  -20.7253  -40.6284   -9.5758 C   0  0  0  0  0  0  0  0  0  0  0  0
  -20.3172  -41.9031  -10.0637 C   0  0  0  0  0  0  0  0  0  0  0  0
  -21.1020  -43.0255   -9.9722 C   0  0  0  0  0  0  0  0  0  0  0  0
  -20.5113  -44.5676  -10.6058 Cl  0  0  0  0  0  0  0  0  0  0  0  0
  -22.2543  -42.8733   -9.4115 N   0  0  0  0  0  0  0  0  0  0  0  0
  -19.6485  -39.6561   -9.8123 C   0  0  0  0  0  0  0  0  0  0  0  0
  -19.1320  -39.7288  -11.0230 O   0  0  0  0  0  0  0  0  0  0  0  0
  -19.0502  -38.6683   -9.0297 N   0  0  0  0  0  0  0  0  0  0  0  0
  1  2  1  0
  2  3  1  0
  2  4  1  0
  4  5  2  0
  5  6  1  0
  6  7  2  0
  7  8  1  0
  8  9  2  0
  6 10  1  0
 10 11  1  0
 11 12  1  0
 10 13  1  0
 13 14  1  0
 14 15  1  0
 15 16  1  1
 15 17  1  0
 17 18  1  6
 18 19  1  0
 19 20  1  6
 19 21  1  0
 21 22  1  0
 22 23  1  0
 23 24  1  0
 24 25  1  0
 25 26  1  0
 26 27  1  0
 27 28  1  0
 28 29  1  0
 29 30  2  0
 30 31  1  0
 31 32  2  0
 32 33  1  0
 33 34  1  0
 33 35  2  0
 31 36  1  0
 36 37  2  0
 36 38  1  0
  9  4  1  0
 12 10  1  0
 35 29  1  0
 38 17  1  0
M  END
$$$$
