
     RDKit          3D

 38 41  0  0  0  0  0  0  0  0999 V2000
  -10.6040  -36.7806  -13.1092 C   0  0  0  0  0  0  0  0  0  0  0  0
  -11.9077  -37.2244  -13.7560 C   0  0  0  0  0  0  0  0  0  0  0  0
  -12.3004  -36.2681  -14.8606 C   0  0  0  0  0  0  0  0  0  0  0  0
  -12.9978  -37.3906  -12.7834 C   0  0  0  0  0  0  0  0  0  0  0  0
  -13.5386  -38.6158  -12.4333 C   0  0  0  0  0  0  0  0  0  0  0  0
  -14.5508  -38.7352  -11.5281 C   0  0  0  0  0  0  0  0  0  0  0  0
  -15.0405  -37.6234  -10.9556 N   0  0  0  0  0  0  0  0  0  0  0  0
  -14.5437  -36.3957  -11.2654 C   0  0  0  0  0  0  0  0  0  0  0  0
  -13.5219  -36.2583  -12.1774 C   0  0  0  0  0  0  0  0  0  0  0  0
  -15.1488  -40.0399  -11.1507 C   0  0  0  0  0  0  0  0  0  0  0  0
  -15.4918  -40.8744  -12.3987 C   0  0  0  0  0  0  0  0  0  0  0  0
  -14.4072  -41.2701  -11.4065 C   0  0  0  0  0  0  0  0  0  0  0  0
  -16.2208  -39.9201  -10.1718 N   0  0  0  0  0  0  0  0  0  0  0  0
  -15.8711  -38.9812   -9.1186 C   0  0  0  0  0  0  0  0  0  0  0  0
  -17.0441  -38.7501   -8.2163 C   0  0  1  0  0  0  0  0  0  0  0  0
  -17.3378  -37.4361   -7.9383 O   0  0  0  0  0  0  0  0  0  0  0  0
  -18.2587  -39.5851   -8.5023 C   0  0  2  0  0  0  0  0  0  0  0  0
  -19.3150  -39.6307   -7.4502 C   0  0  0  0  0  0  0  0  0  0  0  0
  -19.9468  -38.3883   -7.0054 C   0  0  2  0  0  0  0  0  0  0  0  0
  -19.3867  -37.8656   -5.6704 C   0  0  0  0  0  0  0  0  0  0  0  0
  -21.4438  -38.4523   -6.8046 C   0  0  0  0  0  0  0  0  0  0  0  0
  -22.1851  -39.3707   -7.6933 C   0  0  0  0  0  0  0  0  0  0  0  0
  -22.4538  -40.7154   -7.0705 C   0  0  0  0  0  0  0  0  0  0  0  0
  -23.8043  -40.8721   -6.4463 C   0  0  0  0  0  0  0  0  0  0  0  0
  -23.6279  -41.8165   -5.2658 C   0  0  0  0  0  0  0  0  0  0  0  0
  -24.1308  -43.1884   -5.4980 C   0  0  0  0  0  0  0  0  0  0  0  0
  -23.4760  -43.9949   -6.5469 C   0  0  0  0  0  0  0  0  0  0  0  0
  -22.1698  -44.3210   -6.3461 O   0  0  0  0  0  0  0  0  0  0  0  0
  -20.9197  -43.7713   -6.3618 C   0  0  0  0  0  0  0  0  0  0  0  0
  -20.1612  -43.1872   -7.3701 C   0  0  0  0  0  0  0  0  0  0  0  0
  -18.9003  -42.7186   -7.0412 C   0  0  0  0  0  0  0  0  0  0  0  0
  -18.4566  -42.8649   -5.6954 C   0  0  0  0  0  0  0  0  0  0  0  0
  -19.2211  -43.4458   -4.7146 C   0  0  0  0  0  0  0  0  0  0  0  0
  -18.5868  -43.5840   -3.0692 Cl  0  0  0  0  0  0  0  0  0  0  0  0
  -20.3884  -43.8643   -5.0720 N   0  0  0  0  0  0  0  0  0  0  0  0
  -17.8541  -42.0423   -7.8214 C   0  0  0  0  0  0  0  0  0  0  0  0
  -16.6457  -42.5241   -7.6079 O   0  0  0  0  0  0  0  0  0  0  0  0
  -17.8615  -40.9950   -8.7430 N   0  0  0  0  0  0  0  0  0  0  0  0
  1  2  1  0
  2  3  1  0
  2  4  1  0
  4  5  2  0
  5  6  1  0
  6  7  2  0
  7  8  1  0
  8  9  2  0
  6 10  1  0
 10 11  1  0
 11 12  1  0
 10 13  1  0
 13 14  1  0
 14 15  1  0
 15 16  1  6
 15 17  1  0
 17 18  1  1
 18 19  1  0
 19 20  1  1
 19 21  1  0
 21 22  1  0
 22 23  1  0
 23 24  1  0
 24 25  1  0
 25 26  1  0
 26 27  1  0
 27 28  1  0
 28 29  1  0
 29 30  2  0
 30 31  1  0
 31 32  2  0
 32 33  1  0
 33 34  1  0
 33 35  2  0
 31 36  1  0
 36 37  2  0
 36 38  1  0
  9  4  1  0
 12 10  1  0
 35 29  1  0
 38 17  1  0
M  END
$$$$
