
     RDKit          3D

 38 41  0  0  0  0  0  0  0  0999 V2000
  -11.0071  -36.2973  -10.2123 C   0  0  0  0  0  0  0  0  0  0  0  0
  -10.5919  -37.2104  -11.3564 C   0  0  0  0  0  0  0  0  0  0  0  0
  -10.7212  -36.4891  -12.6799 C   0  0  0  0  0  0  0  0  0  0  0  0
  -11.3320  -38.4808  -11.3680 C   0  0  0  0  0  0  0  0  0  0  0  0
  -12.4778  -38.7124  -10.6266 C   0  0  0  0  0  0  0  0  0  0  0  0
  -13.1400  -39.9035  -10.6591 C   0  0  0  0  0  0  0  0  0  0  0  0
  -12.6629  -40.8874  -11.4389 N   0  0  0  0  0  0  0  0  0  0  0  0
  -11.5407  -40.7102  -12.1868 C   0  0  0  0  0  0  0  0  0  0  0  0
  -10.8607  -39.5136  -12.1651 C   0  0  0  0  0  0  0  0  0  0  0  0
  -14.3627  -40.1712   -9.8617 C   0  0  0  0  0  0  0  0  0  0  0  0
  -15.4651  -40.8025  -10.7321 C   0  0  0  0  0  0  0  0  0  0  0  0
  -14.7650  -41.5501   -9.6059 C   0  0  0  0  0  0  0  0  0  0  0  0
  -14.7849  -39.0334   -9.0561 N   0  0  0  0  0  0  0  0  0  0  0  0
  -15.8455  -39.4045   -8.1339 C   0  0  0  0  0  0  0  0  0  0  0  0
  -17.1246  -38.7214   -8.5094 C   0  0  1  0  0  0  0  0  0  0  0  0
  -17.0129  -37.6956   -9.4179 O   0  0  0  0  0  0  0  0  0  0  0  0
  -18.2923  -39.6276   -8.7736 C   0  0  2  0  0  0  0  0  0  0  0  0
  -19.5660  -39.3200   -8.0609 C   0  0  0  0  0  0  0  0  0  0  0  0
  -20.1988  -38.0134   -8.2422 C   0  0  2  0  0  0  0  0  0  0  0  0
  -19.9323  -37.0422   -7.0781 C   0  0  0  0  0  0  0  0  0  0  0  0
  -21.7019  -38.0322   -8.4013 C   0  0  0  0  0  0  0  0  0  0  0  0
  -22.2752  -39.2196   -9.0678 C   0  0  0  0  0  0  0  0  0  0  0  0
  -22.7724  -40.2631   -8.1022 C   0  0  0  0  0  0  0  0  0  0  0  0
  -24.2389  -40.2163   -7.8100 C   0  0  0  0  0  0  0  0  0  0  0  0
  -24.4076  -40.6798   -6.3701 C   0  0  0  0  0  0  0  0  0  0  0  0
  -24.9339  -42.0550   -6.2266 C   0  0  0  0  0  0  0  0  0  0  0  0
  -24.1080  -43.1665   -6.7383 C   0  0  0  0  0  0  0  0  0  0  0  0
  -22.9101  -43.3748   -6.1263 O   0  0  0  0  0  0  0  0  0  0  0  0
  -21.6567  -42.8413   -6.0279 C   0  0  0  0  0  0  0  0  0  0  0  0
  -20.6458  -42.6355   -6.9599 C   0  0  0  0  0  0  0  0  0  0  0  0
  -19.4681  -42.0561   -6.5186 C   0  0  0  0  0  0  0  0  0  0  0  0
  -19.3624  -41.7093   -5.1409 C   0  0  0  0  0  0  0  0  0  0  0  0
  -20.3725  -41.9218   -4.2362 C   0  0  0  0  0  0  0  0  0  0  0  0
  -20.1515  -41.4579   -2.5438 Cl  0  0  0  0  0  0  0  0  0  0  0  0
  -21.4494  -42.4626   -4.6981 N   0  0  0  0  0  0  0  0  0  0  0  0
  -18.2252  -41.6779   -7.2061 C   0  0  0  0  0  0  0  0  0  0  0  0
  -17.1357  -42.0293   -6.5524 O   0  0  0  0  0  0  0  0  0  0  0  0
  -17.9460  -41.0236   -8.4061 N   0  0  0  0  0  0  0  0  0  0  0  0
  1  2  1  0
  2  3  1  0
  2  4  1  0
  4  5  2  0
  5  6  1  0
  6  7  2  0
  7  8  1  0
  8  9  2  0
  6 10  1  0
 10 11  1  0
 11 12  1  0
 10 13  1  0
 13 14  1  0
 14 15  1  0
 15 16  1  6
 15 17  1  0
 17 18  1  1
 18 19  1  0
 19 20  1  1
 19 21  1  0
 21 22  1  0
 22 23  1  0
 23 24  1  0
 24 25  1  0
 25 26  1  0
 26 27  1  0
 27 28  1  0
 28 29  1  0
 29 30  2  0
 30 31  1  0
 31 32  2  0
 32 33  1  0
 33 34  1  0
 33 35  2  0
 31 36  1  0
 36 37  2  0
 36 38  1  0
  9  4  1  0
 12 10  1  0
 35 29  1  0
 38 17  1  0
M  END
$$$$
