
     RDKit          3D

 38 41  0  0  0  0  0  0  0  0999 V2000
  -22.4186  -40.9818   -7.6180 C   0  0  0  0  0  0  0  0  0  0  0  0
  -23.1131  -40.0779   -6.6102 C   0  0  0  0  0  0  0  0  0  0  0  0
  -23.3152  -38.6964   -7.1928 C   0  0  0  0  0  0  0  0  0  0  0  0
  -22.4075  -40.0141   -5.3218 C   0  0  0  0  0  0  0  0  0  0  0  0
  -21.1505  -39.4581   -5.1578 C   0  0  0  0  0  0  0  0  0  0  0  0
  -20.5229  -39.4162   -3.9484 C   0  0  0  0  0  0  0  0  0  0  0  0
  -21.1474  -39.9332   -2.8777 N   0  0  0  0  0  0  0  0  0  0  0  0
  -22.3834  -40.4908   -2.9860 C   0  0  0  0  0  0  0  0  0  0  0  0
  -23.0303  -40.5409   -4.1999 C   0  0  0  0  0  0  0  0  0  0  0  0
  -19.1711  -38.8341   -3.7584 C   0  0  0  0  0  0  0  0  0  0  0  0
  -19.2013  -37.6842   -2.7346 C   0  0  0  0  0  0  0  0  0  0  0  0
  -18.4891  -39.0054   -2.4800 C   0  0  0  0  0  0  0  0  0  0  0  0
  -18.4941  -38.5299   -5.0119 N   0  0  0  0  0  0  0  0  0  0  0  0
  -18.0931  -39.7441   -5.7031 C   0  0  0  0  0  0  0  0  0  0  0  0
  -17.5102  -39.4125   -7.0425 C   0  0  1  0  0  0  0  0  0  0  0  0
  -16.6194  -38.3655   -7.0668 O   0  0  0  0  0  0  0  0  0  0  0  0
  -17.0734  -40.5866   -7.8701 C   0  0  2  0  0  0  0  0  0  0  0  0
  -17.9601  -40.9887   -9.0002 C   0  0  0  0  0  0  0  0  0  0  0  0
  -18.2711  -40.0231  -10.0543 C   0  0  2  0  0  0  0  0  0  0  0  0
  -19.6581  -39.3750   -9.8950 C   0  0  0  0  0  0  0  0  0  0  0  0
  -18.2519  -40.5670  -11.4647 C   0  0  0  0  0  0  0  0  0  0  0  0
  -17.2910  -41.6566  -11.7334 C   0  0  0  0  0  0  0  0  0  0  0  0
  -17.9064  -43.0285  -11.6476 C   0  0  0  0  0  0  0  0  0  0  0  0
  -18.3300  -43.6217  -12.9541 C   0  0  0  0  0  0  0  0  0  0  0  0
  -19.5504  -44.4831  -12.6622 C   0  0  0  0  0  0  0  0  0  0  0  0
  -19.2868  -45.9389  -12.6602 C   0  0  0  0  0  0  0  0  0  0  0  0
  -18.3691  -46.4724  -11.6343 C   0  0  0  0  0  0  0  0  0  0  0  0
  -18.7688  -46.3670  -10.3373 O   0  0  0  0  0  0  0  0  0  0  0  0
  -18.9207  -45.4458   -9.3405 C   0  0  0  0  0  0  0  0  0  0  0  0
  -18.0182  -44.6298   -8.6679 C   0  0  0  0  0  0  0  0  0  0  0  0
  -18.5147  -43.7888   -7.6862 C   0  0  0  0  0  0  0  0  0  0  0  0
  -19.9148  -43.8119   -7.4236 C   0  0  0  0  0  0  0  0  0  0  0  0
  -20.7893  -44.6262   -8.0990 C   0  0  0  0  0  0  0  0  0  0  0  0
  -22.5132  -44.5865   -7.7051 Cl  0  0  0  0  0  0  0  0  0  0  0  0
  -20.2767  -45.3893   -9.0048 N   0  0  0  0  0  0  0  0  0  0  0  0
  -17.8773  -42.7979   -6.8074 C   0  0  0  0  0  0  0  0  0  0  0  0
  -18.2796  -42.8716   -5.5542 O   0  0  0  0  0  0  0  0  0  0  0  0
  -16.9346  -41.7901   -7.0122 N   0  0  0  0  0  0  0  0  0  0  0  0
  1  2  1  0
  2  3  1  0
  2  4  1  0
  4  5  2  0
  5  6  1  0
  6  7  2  0
  7  8  1  0
  8  9  2  0
  6 10  1  0
 10 11  1  0
 11 12  1  0
 10 13  1  0
 13 14  1  0
 14 15  1  0
 15 16  1  1
 15 17  1  0
 17 18  1  6
 18 19  1  0
 19 20  1  1
 19 21  1  0
 21 22  1  0
 22 23  1  0
 23 24  1  0
 24 25  1  0
 25 26  1  0
 26 27  1  0
 27 28  1  0
 28 29  1  0
 29 30  2  0
 30 31  1  0
 31 32  2  0
 32 33  1  0
 33 34  1  0
 33 35  2  0
 31 36  1  0
 36 37  2  0
 36 38  1  0
  9  4  1  0
 12 10  1  0
 35 29  1  0
 38 17  1  0
M  END
$$$$
