
     RDKit          3D

 38 41  0  0  0  0  0  0  0  0999 V2000
  -11.8870  -34.1906  -11.6607 C   0  0  0  0  0  0  0  0  0  0  0  0
  -11.9243  -35.6194  -12.1824 C   0  0  0  0  0  0  0  0  0  0  0  0
  -11.9302  -35.6283  -13.6952 C   0  0  0  0  0  0  0  0  0  0  0  0
  -13.0510  -36.3937  -11.6412 C   0  0  0  0  0  0  0  0  0  0  0  0
  -12.9065  -37.4564  -10.7660 C   0  0  0  0  0  0  0  0  0  0  0  0
  -13.9730  -38.1550  -10.2835 C   0  0  0  0  0  0  0  0  0  0  0  0
  -15.2083  -37.7986  -10.6718 N   0  0  0  0  0  0  0  0  0  0  0  0
  -15.4039  -36.7617  -11.5301 C   0  0  0  0  0  0  0  0  0  0  0  0
  -14.3376  -36.0464  -12.0261 C   0  0  0  0  0  0  0  0  0  0  0  0
  -13.8341  -39.3034   -9.3540 C   0  0  0  0  0  0  0  0  0  0  0  0
  -13.7820  -40.6364  -10.1232 C   0  0  0  0  0  0  0  0  0  0  0  0
  -12.5970  -40.0768   -9.3486 C   0  0  0  0  0  0  0  0  0  0  0  0
  -14.7786  -39.2642   -8.2456 N   0  0  0  0  0  0  0  0  0  0  0  0
  -15.9842  -38.5361   -8.6053 C   0  0  0  0  0  0  0  0  0  0  0  0
  -17.0642  -38.7874   -7.5984 C   0  0  1  0  0  0  0  0  0  0  0  0
  -17.4563  -37.6996   -6.8547 O   0  0  0  0  0  0  0  0  0  0  0  0
  -18.2124  -39.6304   -8.0733 C   0  0  2  0  0  0  0  0  0  0  0  0
  -19.4852  -39.5424   -7.3005 C   0  0  0  0  0  0  0  0  0  0  0  0
  -20.1515  -38.2487   -7.1494 C   0  0  2  0  0  0  0  0  0  0  0  0
  -19.8958  -37.5893   -5.7823 C   0  0  0  0  0  0  0  0  0  0  0  0
  -21.6555  -38.2671   -7.3010 C   0  0  0  0  0  0  0  0  0  0  0  0
  -22.2072  -39.2671   -8.2382 C   0  0  0  0  0  0  0  0  0  0  0  0
  -22.6680  -40.5299   -7.5589 C   0  0  0  0  0  0  0  0  0  0  0  0
  -24.1319  -40.5955   -7.2573 C   0  0  0  0  0  0  0  0  0  0  0  0
  -24.2732  -41.4053   -5.9763 C   0  0  0  0  0  0  0  0  0  0  0  0
  -24.7643  -42.7866   -6.1755 C   0  0  0  0  0  0  0  0  0  0  0  0
  -23.9174  -43.7147   -6.9506 C   0  0  0  0  0  0  0  0  0  0  0  0
  -22.7080  -44.0365   -6.4150 O   0  0  0  0  0  0  0  0  0  0  0  0
  -21.4670  -43.5111   -6.1934 C   0  0  0  0  0  0  0  0  0  0  0  0
  -20.4718  -43.0545   -7.0503 C   0  0  0  0  0  0  0  0  0  0  0  0
  -19.3037  -42.5716   -6.4848 C   0  0  0  0  0  0  0  0  0  0  0  0
  -19.1910  -42.5740   -5.0646 C   0  0  0  0  0  0  0  0  0  0  0  0
  -20.1856  -43.0303   -4.2360 C   0  0  0  0  0  0  0  0  0  0  0  0
  -19.9570  -42.9942   -2.4824 Cl  0  0  0  0  0  0  0  0  0  0  0  0
  -21.2541  -43.4681   -4.8124 N   0  0  0  0  0  0  0  0  0  0  0  0
  -18.0781  -42.0024   -7.0631 C   0  0  0  0  0  0  0  0  0  0  0  0
  -16.9731  -42.4759   -6.5220 O   0  0  0  0  0  0  0  0  0  0  0  0
  -17.8282  -41.0642   -8.0649 N   0  0  0  0  0  0  0  0  0  0  0  0
  1  2  1  0
  2  3  1  0
  2  4  1  0
  4  5  2  0
  5  6  1  0
  6  7  2  0
  7  8  1  0
  8  9  2  0
  6 10  1  0
 10 11  1  0
 11 12  1  0
 10 13  1  0
 13 14  1  0
 14 15  1  0
 15 16  1  6
 15 17  1  0
 17 18  1  1
 18 19  1  0
 19 20  1  1
 19 21  1  0
 21 22  1  0
 22 23  1  0
 23 24  1  0
 24 25  1  0
 25 26  1  0
 26 27  1  0
 27 28  1  0
 28 29  1  0
 29 30  2  0
 30 31  1  0
 31 32  2  0
 32 33  1  0
 33 34  1  0
 33 35  2  0
 31 36  1  0
 36 37  2  0
 36 38  1  0
  9  4  1  0
 12 10  1  0
 35 29  1  0
 38 17  1  0
M  END
$$$$
