
     RDKit          3D

 38 41  0  0  0  0  0  0  0  0999 V2000
  -23.2897  -40.6178   -3.2345 C   0  0  0  0  0  0  0  0  0  0  0  0
  -22.5701  -39.5275   -4.0145 C   0  0  0  0  0  0  0  0  0  0  0  0
  -23.4440  -38.2980   -4.1303 C   0  0  0  0  0  0  0  0  0  0  0  0
  -22.1119  -39.9811   -5.3360 C   0  0  0  0  0  0  0  0  0  0  0  0
  -20.7808  -40.0442   -5.7106 C   0  0  0  0  0  0  0  0  0  0  0  0
  -20.3893  -40.4686   -6.9455 C   0  0  0  0  0  0  0  0  0  0  0  0
  -21.3296  -40.8386   -7.8301 N   0  0  0  0  0  0  0  0  0  0  0  0
  -22.6512  -40.7951   -7.5110 C   0  0  0  0  0  0  0  0  0  0  0  0
  -23.0627  -40.3690   -6.2685 C   0  0  0  0  0  0  0  0  0  0  0  0
  -18.9675  -40.5312   -7.3661 C   0  0  0  0  0  0  0  0  0  0  0  0
  -18.6341  -41.8979   -7.9925 C   0  0  0  0  0  0  0  0  0  0  0  0
  -18.6416  -40.5992   -8.7866 C   0  0  0  0  0  0  0  0  0  0  0  0
  -18.0421  -40.0797   -6.3357 N   0  0  0  0  0  0  0  0  0  0  0  0
  -17.8843  -38.6350   -6.3646 C   0  0  0  0  0  0  0  0  0  0  0  0
  -16.7013  -38.2570   -7.2020 C   0  0  1  0  0  0  0  0  0  0  0  0
  -15.7745  -37.4407   -6.5978 O   0  0  0  0  0  0  0  0  0  0  0  0
  -16.0857  -39.3713   -7.9981 C   0  0  2  0  0  0  0  0  0  0  0  0
  -15.7634  -39.0881   -9.4267 C   0  0  0  0  0  0  0  0  0  0  0  0
  -14.8539  -37.9915   -9.7593 C   0  0  2  0  0  0  0  0  0  0  0  0
  -15.5821  -36.7173  -10.2233 C   0  0  0  0  0  0  0  0  0  0  0  0
  -13.8463  -38.2858  -10.8471 C   0  0  0  0  0  0  0  0  0  0  0  0
  -13.3711  -39.6816  -10.9396 C   0  0  0  0  0  0  0  0  0  0  0  0
  -14.1108  -40.4961  -11.9681 C   0  0  0  0  0  0  0  0  0  0  0  0
  -13.4406  -40.6026  -13.3014 C   0  0  0  0  0  0  0  0  0  0  0  0
  -14.5518  -40.6882  -14.3380 C   0  0  0  0  0  0  0  0  0  0  0  0
  -14.7640  -42.0409  -14.8986 C   0  0  0  0  0  0  0  0  0  0  0  0
  -15.2140  -43.1054  -13.9802 C   0  0  0  0  0  0  0  0  0  0  0  0
  -16.4456  -42.9547  -13.4206 O   0  0  0  0  0  0  0  0  0  0  0  0
  -17.1026  -42.2257  -12.4708 C   0  0  0  0  0  0  0  0  0  0  0  0
  -16.9489  -42.1194  -11.0931 C   0  0  0  0  0  0  0  0  0  0  0  0
  -17.8017  -41.2676  -10.4115 C   0  0  0  0  0  0  0  0  0  0  0  0
  -18.7833  -40.5559  -11.1596 C   0  0  0  0  0  0  0  0  0  0  0  0
  -18.9191  -40.6757  -12.5201 C   0  0  0  0  0  0  0  0  0  0  0  0
  -20.1676  -39.7512  -13.3657 Cl  0  0  0  0  0  0  0  0  0  0  0  0
  -18.0993  -41.4806  -13.1079 N   0  0  0  0  0  0  0  0  0  0  0  0
  -17.9154  -40.8963   -8.9938 C   0  0  0  0  0  0  0  0  0  0  0  0
  -19.1572  -40.8875   -8.5513 O   0  0  0  0  0  0  0  0  0  0  0  0
  -16.9902  -40.5482   -8.0095 N   0  0  0  0  0  0  0  0  0  0  0  0
  1  2  1  0
  2  3  1  0
  2  4  1  0
  4  5  2  0
  5  6  1  0
  6  7  2  0
  7  8  1  0
  8  9  2  0
  6 10  1  0
 10 11  1  0
 11 12  1  0
 10 13  1  0
 13 14  1  0
 14 15  1  0
 15 16  1  1
 15 17  1  0
 17 18  1  6
 18 19  1  0
 19 20  1  6
 19 21  1  0
 21 22  1  0
 22 23  1  0
 23 24  1  0
 24 25  1  0
 25 26  1  0
 26 27  1  0
 27 28  1  0
 28 29  1  0
 29 30  2  0
 30 31  1  0
 31 32  2  0
 32 33  1  0
 33 34  1  0
 33 35  2  0
 31 36  1  0
 36 37  2  0
 36 38  1  0
  9  4  1  0
 12 10  1  0
 35 29  1  0
 38 17  1  0
M  END
$$$$
