
     RDKit          3D

 38 41  0  0  0  0  0  0  0  0999 V2000
  -14.4809  -34.7823  -12.9681 C   0  0  0  0  0  0  0  0  0  0  0  0
  -13.8335  -35.1636  -11.6451 C   0  0  0  0  0  0  0  0  0  0  0  0
  -12.7756  -34.1511  -11.2648 C   0  0  0  0  0  0  0  0  0  0  0  0
  -13.2863  -36.5282  -11.6516 C   0  0  0  0  0  0  0  0  0  0  0  0
  -13.4900  -37.4455  -10.6351 C   0  0  0  0  0  0  0  0  0  0  0  0
  -12.9667  -38.7038  -10.6715 C   0  0  0  0  0  0  0  0  0  0  0  0
  -12.2269  -39.0658  -11.7323 N   0  0  0  0  0  0  0  0  0  0  0  0
  -11.9972  -38.2015  -12.7572 C   0  0  0  0  0  0  0  0  0  0  0  0
  -12.5185  -36.9278  -12.7356 C   0  0  0  0  0  0  0  0  0  0  0  0
  -13.1665  -39.6946   -9.5849 C   0  0  0  0  0  0  0  0  0  0  0  0
  -13.2407  -41.1264  -10.1467 C   0  0  0  0  0  0  0  0  0  0  0  0
  -12.0986  -40.6367   -9.2675 C   0  0  0  0  0  0  0  0  0  0  0  0
  -14.2377  -39.3332   -8.6663 N   0  0  0  0  0  0  0  0  0  0  0  0
  -15.5064  -39.9072   -9.0834 C   0  0  0  0  0  0  0  0  0  0  0  0
  -16.6322  -39.3093   -8.2968 C   0  0  1  0  0  0  0  0  0  0  0  0
  -16.6117  -37.9409   -8.1648 O   0  0  0  0  0  0  0  0  0  0  0  0
  -17.9972  -39.8594   -8.5943 C   0  0  2  0  0  0  0  0  0  0  0  0
  -19.0747  -39.5766   -7.6024 C   0  0  0  0  0  0  0  0  0  0  0  0
  -19.4131  -38.1909   -7.2775 C   0  0  2  0  0  0  0  0  0  0  0  0
  -18.7980  -37.7100   -5.9509 C   0  0  0  0  0  0  0  0  0  0  0  0
  -20.8896  -37.8900   -7.1572 C   0  0  0  0  0  0  0  0  0  0  0  0
  -21.7912  -38.6777   -8.0229 C   0  0  0  0  0  0  0  0  0  0  0  0
  -22.3929  -39.8707   -7.3280 C   0  0  0  0  0  0  0  0  0  0  0  0
  -23.7657  -39.6608   -6.7715 C   0  0  0  0  0  0  0  0  0  0  0  0
  -23.8627  -40.5255   -5.5227 C   0  0  0  0  0  0  0  0  0  0  0  0
  -24.6650  -41.7571   -5.6909 C   0  0  0  0  0  0  0  0  0  0  0  0
  -24.1782  -42.7726   -6.6454 C   0  0  0  0  0  0  0  0  0  0  0  0
  -22.9943  -43.3762   -6.3503 O   0  0  0  0  0  0  0  0  0  0  0  0
  -21.6503  -43.1345   -6.3324 C   0  0  0  0  0  0  0  0  0  0  0  0
  -20.7369  -42.8225   -7.3332 C   0  0  0  0  0  0  0  0  0  0  0  0
  -19.4149  -42.6351   -6.9661 C   0  0  0  0  0  0  0  0  0  0  0  0
  -19.0709  -42.7751   -5.5907 C   0  0  0  0  0  0  0  0  0  0  0  0
  -19.9883  -43.0845   -4.6178 C   0  0  0  0  0  0  0  0  0  0  0  0
  -19.4690  -43.2375   -2.9339 Cl  0  0  0  0  0  0  0  0  0  0  0  0
  -21.2065  -43.2474   -5.0115 N   0  0  0  0  0  0  0  0  0  0  0  0
  -18.2094  -42.2827   -7.7296 C   0  0  0  0  0  0  0  0  0  0  0  0
  -17.1576  -43.0136   -7.4170 O   0  0  0  0  0  0  0  0  0  0  0  0
  -17.9340  -41.3374   -8.7178 N   0  0  0  0  0  0  0  0  0  0  0  0
  1  2  1  0
  2  3  1  0
  2  4  1  0
  4  5  2  0
  5  6  1  0
  6  7  2  0
  7  8  1  0
  8  9  2  0
  6 10  1  0
 10 11  1  0
 11 12  1  0
 10 13  1  0
 13 14  1  0
 14 15  1  0
 15 16  1  6
 15 17  1  0
 17 18  1  1
 18 19  1  0
 19 20  1  1
 19 21  1  0
 21 22  1  0
 22 23  1  0
 23 24  1  0
 24 25  1  0
 25 26  1  0
 26 27  1  0
 27 28  1  0
 28 29  1  0
 29 30  2  0
 30 31  1  0
 31 32  2  0
 32 33  1  0
 33 34  1  0
 33 35  2  0
 31 36  1  0
 36 37  2  0
 36 38  1  0
  9  4  1  0
 12 10  1  0
 35 29  1  0
 38 17  1  0
M  END
$$$$
