
     RDKit          3D

 38 41  0  0  0  0  0  0  0  0999 V2000
  -14.3437  -34.2173  -12.0066 C   0  0  0  0  0  0  0  0  0  0  0  0
  -13.9447  -35.4920  -12.7353 C   0  0  0  0  0  0  0  0  0  0  0  0
  -15.1573  -36.1394  -13.3672 C   0  0  0  0  0  0  0  0  0  0  0  0
  -13.2247  -36.4396  -11.8718 C   0  0  0  0  0  0  0  0  0  0  0  0
  -13.8437  -37.4334  -11.1334 C   0  0  0  0  0  0  0  0  0  0  0  0
  -13.1463  -38.2956  -10.3407 C   0  0  0  0  0  0  0  0  0  0  0  0
  -11.8103  -38.1759  -10.2743 N   0  0  0  0  0  0  0  0  0  0  0  0
  -11.1544  -37.2160  -10.9804 C   0  0  0  0  0  0  0  0  0  0  0  0
  -11.8440  -36.3378  -11.7852 C   0  0  0  0  0  0  0  0  0  0  0  0
  -13.7960  -39.3587   -9.5344 C   0  0  0  0  0  0  0  0  0  0  0  0
  -13.7844  -40.7058  -10.2804 C   0  0  0  0  0  0  0  0  0  0  0  0
  -12.9890  -40.4539   -9.0071 C   0  0  0  0  0  0  0  0  0  0  0  0
  -15.0887  -38.9614   -8.9931 N   0  0  0  0  0  0  0  0  0  0  0  0
  -15.0662  -38.9338   -7.5399 C   0  0  0  0  0  0  0  0  0  0  0  0
  -16.1538  -39.8018   -6.9856 C   0  0  1  0  0  0  0  0  0  0  0  0
  -16.4898  -39.5774   -5.6715 O   0  0  0  0  0  0  0  0  0  0  0  0
  -17.3433  -40.0038   -7.8793 C   0  0  2  0  0  0  0  0  0  0  0  0
  -18.6516  -40.2779   -7.2174 C   0  0  0  0  0  0  0  0  0  0  0  0
  -19.1973  -39.3102   -6.2654 C   0  0  2  0  0  0  0  0  0  0  0  0
  -18.9733  -39.7104   -4.7961 C   0  0  0  0  0  0  0  0  0  0  0  0
  -20.6818  -39.0483   -6.3788 C   0  0  0  0  0  0  0  0  0  0  0  0
  -21.2626  -39.1463   -7.7337 C   0  0  0  0  0  0  0  0  0  0  0  0
  -21.8903  -40.4856   -8.0177 C   0  0  0  0  0  0  0  0  0  0  0  0
  -23.3708  -40.5534   -7.8139 C   0  0  0  0  0  0  0  0  0  0  0  0
  -23.6786  -41.9697   -7.3489 C   0  0  0  0  0  0  0  0  0  0  0  0
  -24.2873  -42.8355   -8.3826 C   0  0  0  0  0  0  0  0  0  0  0  0
  -23.4837  -43.1487   -9.5807 C   0  0  0  0  0  0  0  0  0  0  0  0
  -22.3514  -43.8791   -9.3879 O   0  0  0  0  0  0  0  0  0  0  0  0
  -21.0832  -43.7684   -8.8932 C   0  0  0  0  0  0  0  0  0  0  0  0
  -19.9915  -42.9931   -9.2677 C   0  0  0  0  0  0  0  0  0  0  0  0
  -18.8236  -43.1253   -8.5356 C   0  0  0  0  0  0  0  0  0  0  0  0
  -18.8099  -44.0460   -7.4485 C   0  0  0  0  0  0  0  0  0  0  0  0
  -19.8990  -44.8031   -7.0956 C   0  0  0  0  0  0  0  0  0  0  0  0
  -19.7894  -45.9208   -5.7291 Cl  0  0  0  0  0  0  0  0  0  0  0  0
  -20.9628  -44.6415   -7.8081 N   0  0  0  0  0  0  0  0  0  0  0  0
  -17.5113  -42.4693   -8.6264 C   0  0  0  0  0  0  0  0  0  0  0  0
  -16.4978  -43.3064   -8.5256 O   0  0  0  0  0  0  0  0  0  0  0  0
  -17.1025  -41.1464   -8.7959 N   0  0  0  0  0  0  0  0  0  0  0  0
  1  2  1  0
  2  3  1  0
  2  4  1  0
  4  5  2  0
  5  6  1  0
  6  7  2  0
  7  8  1  0
  8  9  2  0
  6 10  1  0
 10 11  1  0
 11 12  1  0
 10 13  1  0
 13 14  1  0
 14 15  1  0
 15 16  1  1
 15 17  1  0
 17 18  1  1
 18 19  1  0
 19 20  1  1
 19 21  1  0
 21 22  1  0
 22 23  1  0
 23 24  1  0
 24 25  1  0
 25 26  1  0
 26 27  1  0
 27 28  1  0
 28 29  1  0
 29 30  2  0
 30 31  1  0
 31 32  2  0
 32 33  1  0
 33 34  1  0
 33 35  2  0
 31 36  1  0
 36 37  2  0
 36 38  1  0
  9  4  1  0
 12 10  1  0
 35 29  1  0
 38 17  1  0
M  END
$$$$
