
     RDKit          3D

 38 41  0  0  0  0  0  0  0  0999 V2000
  -10.7185  -36.2136  -12.5250 C   0  0  0  0  0  0  0  0  0  0  0  0
  -12.0827  -35.6401  -12.1712 C   0  0  0  0  0  0  0  0  0  0  0  0
  -11.9759  -34.7302  -10.9673 C   0  0  0  0  0  0  0  0  0  0  0  0
  -13.1009  -36.6803  -11.9636 C   0  0  0  0  0  0  0  0  0  0  0  0
  -12.9505  -37.7428  -11.0891 C   0  0  0  0  0  0  0  0  0  0  0  0
  -13.9144  -38.6919  -10.9210 C   0  0  0  0  0  0  0  0  0  0  0  0
  -15.0509  -38.5918  -11.6296 N   0  0  0  0  0  0  0  0  0  0  0  0
  -15.2476  -37.5668  -12.5018 C   0  0  0  0  0  0  0  0  0  0  0  0
  -14.2842  -36.6005  -12.6830 C   0  0  0  0  0  0  0  0  0  0  0  0
  -13.7637  -39.8429   -9.9964 C   0  0  0  0  0  0  0  0  0  0  0  0
  -13.0969  -41.0379  -10.7025 C   0  0  0  0  0  0  0  0  0  0  0  0
  -12.4288  -40.2580   -9.5789 C   0  0  0  0  0  0  0  0  0  0  0  0
  -14.9837  -40.1574   -9.2652 N   0  0  0  0  0  0  0  0  0  0  0  0
  -15.7005  -38.9495   -8.8906 C   0  0  0  0  0  0  0  0  0  0  0  0
  -16.7488  -39.2622   -7.8675 C   0  0  1  0  0  0  0  0  0  0  0  0
  -16.9712  -38.2912   -6.9199 O   0  0  0  0  0  0  0  0  0  0  0  0
  -18.0112  -39.8787   -8.3975 C   0  0  2  0  0  0  0  0  0  0  0  0
  -19.2029  -39.8643   -7.5005 C   0  0  0  0  0  0  0  0  0  0  0  0
  -19.7195  -38.5885   -7.0046 C   0  0  2  0  0  0  0  0  0  0  0  0
  -19.2900  -38.2795   -5.5592 C   0  0  0  0  0  0  0  0  0  0  0  0
  -21.2247  -38.4488   -7.0051 C   0  0  0  0  0  0  0  0  0  0  0  0
  -21.9483  -39.1617   -8.0779 C   0  0  0  0  0  0  0  0  0  0  0  0
  -22.4804  -40.5035   -7.6481 C   0  0  0  0  0  0  0  0  0  0  0  0
  -23.9147  -40.5158   -7.2229 C   0  0  0  0  0  0  0  0  0  0  0  0
  -24.0360  -41.5806   -6.1421 C   0  0  0  0  0  0  0  0  0  0  0  0
  -24.6799  -42.8358   -6.5880 C   0  0  0  0  0  0  0  0  0  0  0  0
  -23.9965  -43.6301   -7.6278 C   0  0  0  0  0  0  0  0  0  0  0  0
  -22.7876  -44.1628   -7.2993 O   0  0  0  0  0  0  0  0  0  0  0  0
  -21.4857  -43.8048   -7.0939 C   0  0  0  0  0  0  0  0  0  0  0  0
  -20.5203  -43.2488   -7.9257 C   0  0  0  0  0  0  0  0  0  0  0  0
  -19.2677  -43.0040   -7.3883 C   0  0  0  0  0  0  0  0  0  0  0  0
  -19.0436  -43.3376   -6.0215 C   0  0  0  0  0  0  0  0  0  0  0  0
  -20.0106  -43.8870   -5.2172 C   0  0  0  0  0  0  0  0  0  0  0  0
  -19.6412  -44.2683   -3.5300 Cl  0  0  0  0  0  0  0  0  0  0  0  0
  -21.1606  -44.0937   -5.7652 N   0  0  0  0  0  0  0  0  0  0  0  0
  -18.0402  -42.4208   -7.9482 C   0  0  0  0  0  0  0  0  0  0  0  0
  -16.9499  -43.0935   -7.6371 O   0  0  0  0  0  0  0  0  0  0  0  0
  -17.7761  -41.3036   -8.7408 N   0  0  0  0  0  0  0  0  0  0  0  0
  1  2  1  0
  2  3  1  0
  2  4  1  0
  4  5  2  0
  5  6  1  0
  6  7  2  0
  7  8  1  0
  8  9  2  0
  6 10  1  0
 10 11  1  0
 11 12  1  0
 10 13  1  0
 13 14  1  0
 14 15  1  0
 15 16  1  6
 15 17  1  0
 17 18  1  1
 18 19  1  0
 19 20  1  1
 19 21  1  0
 21 22  1  0
 22 23  1  0
 23 24  1  0
 24 25  1  0
 25 26  1  0
 26 27  1  0
 27 28  1  0
 28 29  1  0
 29 30  2  0
 30 31  1  0
 31 32  2  0
 32 33  1  0
 33 34  1  0
 33 35  2  0
 31 36  1  0
 36 37  2  0
 36 38  1  0
  9  4  1  0
 12 10  1  0
 35 29  1  0
 38 17  1  0
M  END
$$$$
