
     RDKit          3D

 38 41  0  0  0  0  0  0  0  0999 V2000
  -13.3840  -35.9262  -14.8579 C   0  0  0  0  0  0  0  0  0  0  0  0
  -14.2243  -36.3887  -13.6769 C   0  0  0  0  0  0  0  0  0  0  0  0
  -14.9235  -35.2111  -13.0342 C   0  0  0  0  0  0  0  0  0  0  0  0
  -13.4465  -37.1501  -12.6884 C   0  0  0  0  0  0  0  0  0  0  0  0
  -13.9238  -38.2689  -12.0276 C   0  0  0  0  0  0  0  0  0  0  0  0
  -13.1765  -38.9518  -11.1147 C   0  0  0  0  0  0  0  0  0  0  0  0
  -11.9322  -38.5231  -10.8473 N   0  0  0  0  0  0  0  0  0  0  0  0
  -11.4165  -37.4291  -11.4696 C   0  0  0  0  0  0  0  0  0  0  0  0
  -12.1582  -36.7286  -12.3937 C   0  0  0  0  0  0  0  0  0  0  0  0
  -13.6778  -40.1458  -10.3898 C   0  0  0  0  0  0  0  0  0  0  0  0
  -13.4997  -41.4219  -11.2331 C   0  0  0  0  0  0  0  0  0  0  0  0
  -12.7327  -41.1638   -9.9437 C   0  0  0  0  0  0  0  0  0  0  0  0
  -15.0063  -39.9587   -9.8222 N   0  0  0  0  0  0  0  0  0  0  0  0
  -15.0069  -38.9107   -8.8149 C   0  0  0  0  0  0  0  0  0  0  0  0
  -16.0438  -39.1922   -7.7713 C   0  0  1  0  0  0  0  0  0  0  0  0
  -16.0831  -38.3159   -6.7126 O   0  0  0  0  0  0  0  0  0  0  0  0
  -17.4034  -39.5634   -8.2891 C   0  0  2  0  0  0  0  0  0  0  0  0
  -18.5309  -39.5443   -7.3127 C   0  0  0  0  0  0  0  0  0  0  0  0
  -18.8484  -38.3074   -6.5988 C   0  0  2  0  0  0  0  0  0  0  0  0
  -18.3019  -38.2785   -5.1602 C   0  0  0  0  0  0  0  0  0  0  0  0
  -20.3203  -37.9894   -6.4659 C   0  0  0  0  0  0  0  0  0  0  0  0
  -21.1896  -38.4364   -7.5737 C   0  0  0  0  0  0  0  0  0  0  0  0
  -21.8668  -39.7546   -7.3053 C   0  0  0  0  0  0  0  0  0  0  0  0
  -23.2643  -39.6597   -6.7799 C   0  0  0  0  0  0  0  0  0  0  0  0
  -23.4622  -40.8559   -5.8598 C   0  0  0  0  0  0  0  0  0  0  0  0
  -24.2880  -41.9409   -6.4342 C   0  0  0  0  0  0  0  0  0  0  0  0
  -23.7732  -42.6419   -7.6270 C   0  0  0  0  0  0  0  0  0  0  0  0
  -22.6274  -43.3602   -7.4714 O   0  0  0  0  0  0  0  0  0  0  0  0
  -21.2806  -43.1971   -7.3144 C   0  0  0  0  0  0  0  0  0  0  0  0
  -20.2992  -42.6398   -8.1264 C   0  0  0  0  0  0  0  0  0  0  0  0
  -18.9973  -42.6330   -7.6547 C   0  0  0  0  0  0  0  0  0  0  0  0
  -18.7421  -43.1976   -6.3718 C   0  0  0  0  0  0  0  0  0  0  0  0
  -19.7257  -43.7440   -5.5858 C   0  0  0  0  0  0  0  0  0  0  0  0
  -19.3148  -44.4223   -4.0048 Cl  0  0  0  0  0  0  0  0  0  0  0  0
  -20.9217  -43.7242   -6.0702 N   0  0  0  0  0  0  0  0  0  0  0  0
  -17.7377  -42.1223   -8.2142 C   0  0  0  0  0  0  0  0  0  0  0  0
  -16.7285  -42.9609   -8.0872 O   0  0  0  0  0  0  0  0  0  0  0  0
  -17.3753  -40.9362   -8.8531 N   0  0  0  0  0  0  0  0  0  0  0  0
  1  2  1  0
  2  3  1  0
  2  4  1  0
  4  5  2  0
  5  6  1  0
  6  7  2  0
  7  8  1  0
  8  9  2  0
  6 10  1  0
 10 11  1  0
 11 12  1  0
 10 13  1  0
 13 14  1  0
 14 15  1  0
 15 16  1  6
 15 17  1  0
 17 18  1  1
 18 19  1  0
 19 20  1  1
 19 21  1  0
 21 22  1  0
 22 23  1  0
 23 24  1  0
 24 25  1  0
 25 26  1  0
 26 27  1  0
 27 28  1  0
 28 29  1  0
 29 30  2  0
 30 31  1  0
 31 32  2  0
 32 33  1  0
 33 34  1  0
 33 35  2  0
 31 36  1  0
 36 37  2  0
 36 38  1  0
  9  4  1  0
 12 10  1  0
 35 29  1  0
 38 17  1  0
M  END
$$$$
