
     RDKit          3D

 38 41  0  0  0  0  0  0  0  0999 V2000
  -13.1897  -34.6635  -11.0591 C   0  0  0  0  0  0  0  0  0  0  0  0
  -13.8241  -35.6525  -12.0257 C   0  0  0  0  0  0  0  0  0  0  0  0
  -15.3328  -35.5687  -11.9511 C   0  0  0  0  0  0  0  0  0  0  0  0
  -13.3568  -37.0310  -11.8180 C   0  0  0  0  0  0  0  0  0  0  0  0
  -13.5583  -37.7457  -10.6497 C   0  0  0  0  0  0  0  0  0  0  0  0
  -13.1103  -39.0230  -10.4888 C   0  0  0  0  0  0  0  0  0  0  0  0
  -12.4497  -39.6087  -11.5008 N   0  0  0  0  0  0  0  0  0  0  0  0
  -12.2258  -38.9494  -12.6693 C   0  0  0  0  0  0  0  0  0  0  0  0
  -12.6716  -37.6594  -12.8475 C   0  0  0  0  0  0  0  0  0  0  0  0
  -13.3084  -39.7982   -9.2389 C   0  0  0  0  0  0  0  0  0  0  0  0
  -13.0955  -41.3041   -9.4807 C   0  0  0  0  0  0  0  0  0  0  0  0
  -12.1671  -40.4615   -8.6173 C   0  0  0  0  0  0  0  0  0  0  0  0
  -14.5354  -39.4512   -8.5348 N   0  0  0  0  0  0  0  0  0  0  0  0
  -15.6916  -39.5476   -9.4106 C   0  0  0  0  0  0  0  0  0  0  0  0
  -16.9380  -39.1687   -8.6714 C   0  0  1  0  0  0  0  0  0  0  0  0
  -17.1032  -37.8268   -8.4219 O   0  0  0  0  0  0  0  0  0  0  0  0
  -18.1962  -39.8502   -9.1261 C   0  0  2  0  0  0  0  0  0  0  0  0
  -19.3463  -39.8574   -8.1763 C   0  0  0  0  0  0  0  0  0  0  0  0
  -19.8924  -38.5894   -7.6923 C   0  0  2  0  0  0  0  0  0  0  0  0
  -19.4121  -38.2214   -6.2770 C   0  0  0  0  0  0  0  0  0  0  0  0
  -21.4007  -38.5100   -7.6277 C   0  0  0  0  0  0  0  0  0  0  0  0
  -22.1414  -39.2822   -8.6465 C   0  0  0  0  0  0  0  0  0  0  0  0
  -22.5980  -40.6311   -8.1564 C   0  0  0  0  0  0  0  0  0  0  0  0
  -24.0102  -40.6883   -7.6658 C   0  0  0  0  0  0  0  0  0  0  0  0
  -24.0392  -41.7252   -6.5520 C   0  0  0  0  0  0  0  0  0  0  0  0
  -24.6500  -43.0176   -6.9334 C   0  0  0  0  0  0  0  0  0  0  0  0
  -23.9814  -43.8139   -7.9814 C   0  0  0  0  0  0  0  0  0  0  0  0
  -22.7382  -44.2880   -7.6941 O   0  0  0  0  0  0  0  0  0  0  0  0
  -21.4443  -43.8725   -7.5583 C   0  0  0  0  0  0  0  0  0  0  0  0
  -20.5407  -43.3028   -8.4482 C   0  0  0  0  0  0  0  0  0  0  0  0
  -19.2766  -42.9926   -7.9756 C   0  0  0  0  0  0  0  0  0  0  0  0
  -18.9781  -43.2770   -6.6119 C   0  0  0  0  0  0  0  0  0  0  0  0
  -19.8849  -43.8409   -5.7495 C   0  0  0  0  0  0  0  0  0  0  0  0
  -19.4252  -44.1579   -4.0712 Cl  0  0  0  0  0  0  0  0  0  0  0  0
  -21.0487  -44.1093   -6.2385 N   0  0  0  0  0  0  0  0  0  0  0  0
  -18.1003  -42.3773   -8.6068 C   0  0  0  0  0  0  0  0  0  0  0  0
  -16.9704  -42.9966   -8.3275 O   0  0  0  0  0  0  0  0  0  0  0  0
  -17.9181  -41.2740   -9.4408 N   0  0  0  0  0  0  0  0  0  0  0  0
  1  2  1  0
  2  3  1  0
  2  4  1  0
  4  5  2  0
  5  6  1  0
  6  7  2  0
  7  8  1  0
  8  9  2  0
  6 10  1  0
 10 11  1  0
 11 12  1  0
 10 13  1  0
 13 14  1  0
 14 15  1  0
 15 16  1  6
 15 17  1  0
 17 18  1  1
 18 19  1  0
 19 20  1  1
 19 21  1  0
 21 22  1  0
 22 23  1  0
 23 24  1  0
 24 25  1  0
 25 26  1  0
 26 27  1  0
 27 28  1  0
 28 29  1  0
 29 30  2  0
 30 31  1  0
 31 32  2  0
 32 33  1  0
 33 34  1  0
 33 35  2  0
 31 36  1  0
 36 37  2  0
 36 38  1  0
  9  4  1  0
 12 10  1  0
 35 29  1  0
 38 17  1  0
M  END
$$$$
