
     RDKit          3D

 38 41  0  0  0  0  0  0  0  0999 V2000
  -12.8095  -35.1829  -12.5485 C   0  0  0  0  0  0  0  0  0  0  0  0
  -13.5156  -36.1931  -13.4407 C   0  0  0  0  0  0  0  0  0  0  0  0
  -15.0037  -35.9222  -13.4686 C   0  0  0  0  0  0  0  0  0  0  0  0
  -13.2350  -37.5847  -13.0579 C   0  0  0  0  0  0  0  0  0  0  0  0
  -13.8688  -38.2407  -12.0166 C   0  0  0  0  0  0  0  0  0  0  0  0
  -13.5839  -39.5322  -11.6864 C   0  0  0  0  0  0  0  0  0  0  0  0
  -12.6548  -40.1914  -12.3976 N   0  0  0  0  0  0  0  0  0  0  0  0
  -12.0034  -39.5918  -13.4302 C   0  0  0  0  0  0  0  0  0  0  0  0
  -12.2795  -38.2884  -13.7762 C   0  0  0  0  0  0  0  0  0  0  0  0
  -14.2462  -40.2455  -10.5662 C   0  0  0  0  0  0  0  0  0  0  0  0
  -15.0001  -41.4903  -11.0698 C   0  0  0  0  0  0  0  0  0  0  0  0
  -13.7701  -41.5684  -10.1764 C   0  0  0  0  0  0  0  0  0  0  0  0
  -15.0153  -39.3647   -9.6976 N   0  0  0  0  0  0  0  0  0  0  0  0
  -15.2010  -39.9524   -8.3811 C   0  0  0  0  0  0  0  0  0  0  0  0
  -16.3845  -39.3381   -7.6988 C   0  0  1  0  0  0  0  0  0  0  0  0
  -16.3305  -37.9770   -7.5131 O   0  0  0  0  0  0  0  0  0  0  0  0
  -17.7271  -39.8240   -8.1631 C   0  0  2  0  0  0  0  0  0  0  0  0
  -18.8716  -39.6619   -7.2203 C   0  0  0  0  0  0  0  0  0  0  0  0
  -19.2261  -38.3277   -6.7359 C   0  0  2  0  0  0  0  0  0  0  0  0
  -18.7054  -38.0381   -5.3166 C   0  0  0  0  0  0  0  0  0  0  0  0
  -20.7061  -38.0249   -6.6802 C   0  0  0  0  0  0  0  0  0  0  0  0
  -21.5469  -38.6763   -7.7056 C   0  0  0  0  0  0  0  0  0  0  0  0
  -22.2023  -39.9433   -7.2222 C   0  0  0  0  0  0  0  0  0  0  0  0
  -23.6104  -39.7907   -6.7404 C   0  0  0  0  0  0  0  0  0  0  0  0
  -23.8004  -40.8139   -5.6297 C   0  0  0  0  0  0  0  0  0  0  0  0
  -24.5942  -42.0003   -6.0187 C   0  0  0  0  0  0  0  0  0  0  0  0
  -24.0448  -42.8851   -7.0649 C   0  0  0  0  0  0  0  0  0  0  0  0
  -22.8879  -43.5395   -6.7715 O   0  0  0  0  0  0  0  0  0  0  0  0
  -21.5475  -43.3213   -6.6267 C   0  0  0  0  0  0  0  0  0  0  0  0
  -20.5634  -42.8907   -7.5095 C   0  0  0  0  0  0  0  0  0  0  0  0
  -19.2703  -42.7730   -7.0283 C   0  0  0  0  0  0  0  0  0  0  0  0
  -19.0262  -43.1013   -5.6637 C   0  0  0  0  0  0  0  0  0  0  0  0
  -20.0123  -43.5257   -4.8084 C   0  0  0  0  0  0  0  0  0  0  0  0
  -19.6156  -43.9109   -3.1283 Cl  0  0  0  0  0  0  0  0  0  0  0  0
  -21.1999  -43.6170   -5.3052 N   0  0  0  0  0  0  0  0  0  0  0  0
  -18.0116  -42.3383   -7.6506 C   0  0  0  0  0  0  0  0  0  0  0  0
  -16.9882  -43.1193   -7.3664 O   0  0  0  0  0  0  0  0  0  0  0  0
  -17.6619  -41.2727   -8.4803 N   0  0  0  0  0  0  0  0  0  0  0  0
  1  2  1  0
  2  3  1  0
  2  4  1  0
  4  5  2  0
  5  6  1  0
  6  7  2  0
  7  8  1  0
  8  9  2  0
  6 10  1  0
 10 11  1  0
 11 12  1  0
 10 13  1  0
 13 14  1  0
 14 15  1  0
 15 16  1  6
 15 17  1  0
 17 18  1  1
 18 19  1  0
 19 20  1  1
 19 21  1  0
 21 22  1  0
 22 23  1  0
 23 24  1  0
 24 25  1  0
 25 26  1  0
 26 27  1  0
 27 28  1  0
 28 29  1  0
 29 30  2  0
 30 31  1  0
 31 32  2  0
 32 33  1  0
 33 34  1  0
 33 35  2  0
 31 36  1  0
 36 37  2  0
 36 38  1  0
  9  4  1  0
 12 10  1  0
 35 29  1  0
 38 17  1  0
M  END
$$$$
