
     RDKit          3D

 37 39  0  0  0  0  0  0  0  0999 V2000
  -12.9736  -42.8890  -13.5188 C   0  0  0  0  0  0  0  0  0  0  0  0
  -13.1295  -42.5053  -12.0461 C   0  0  0  0  0  0  0  0  0  0  0  0
  -12.1427  -41.4071  -11.7780 C   0  0  0  0  0  0  0  0  0  0  0  0
  -12.3287  -40.8632  -10.3974 C   0  0  0  0  0  0  0  0  0  0  0  0
  -12.6947  -39.5568  -10.1828 C   0  0  0  0  0  0  0  0  0  0  0  0
  -12.7734  -39.4003   -8.8212 C   0  0  0  0  0  0  0  0  0  0  0  0
  -13.1275  -38.1957   -8.0273 C   0  0  0  0  0  0  0  0  0  0  0  0
  -14.1517  -38.4392   -7.0735 N   0  0  0  0  0  0  0  0  0  0  0  0
  -14.4220  -39.8055   -6.7492 C   0  0  0  0  0  0  0  0  0  0  0  0
  -15.2776  -40.5565   -7.6908 C   0  0  1  0  0  0  0  0  0  0  0  0
  -15.5060  -41.8811   -7.3634 O   0  0  0  0  0  0  0  0  0  0  0  0
  -16.5124  -39.8051   -8.1387 C   0  0  2  0  0  0  0  0  0  0  0  0
  -17.5409  -39.5260   -7.1537 C   0  0  0  0  0  0  0  0  0  0  0  0
  -18.5996  -40.4442   -6.7518 C   0  0  2  0  0  0  0  0  0  0  0  0
  -18.2572  -41.3604   -5.5657 C   0  0  0  0  0  0  0  0  0  0  0  0
  -19.3213  -41.1993   -7.8285 C   0  0  0  0  0  0  0  0  0  0  0  0
  -20.8021  -41.3827   -7.5355 C   0  0  0  0  0  0  0  0  0  0  0  0
  -21.5570  -40.0933   -7.6424 C   0  0  0  0  0  0  0  0  0  0  0  0
  -22.1963  -39.8983   -9.0199 C   0  0  0  0  0  0  0  0  0  0  0  0
  -22.9460  -38.6171   -9.0854 C   0  0  0  0  0  0  0  0  0  0  0  0
  -22.4863  -37.6332  -10.0873 C   0  0  0  0  0  0  0  0  0  0  0  0
  -22.1887  -36.2654   -9.5935 C   0  0  0  0  0  0  0  0  0  0  0  0
  -20.8238  -35.8715   -9.8719 N   0  0  0  0  0  0  0  0  0  0  0  0
  -19.6954  -36.6003  -10.3547 C   0  0  0  0  0  0  0  0  0  0  0  0
  -19.0365  -35.8339  -11.3506 C   0  0  0  0  0  0  0  0  0  0  0  0
  -17.9189  -36.2452  -12.0200 C   0  0  0  0  0  0  0  0  0  0  0  0
  -17.2514  -35.4164  -13.0597 C   0  0  0  0  0  0  0  0  0  0  0  0
  -16.1218  -34.7874  -12.5293 O   0  0  0  0  0  0  0  0  0  0  0  0
  -15.2925  -34.4216  -13.6077 C   0  0  0  0  0  0  0  0  0  0  0  0
  -17.4585  -37.4800  -11.6598 C   0  0  0  0  0  0  0  0  0  0  0  0
  -18.0607  -38.3030  -10.6741 C   0  0  0  0  0  0  0  0  0  0  0  0
  -19.1812  -37.8322  -10.0381 C   0  0  0  0  0  0  0  0  0  0  0  0
  -17.3068  -39.5582  -10.5546 C   0  0  0  0  0  0  0  0  0  0  0  0
  -16.8835  -40.1336  -11.6749 O   0  0  0  0  0  0  0  0  0  0  0  0
  -16.9114  -40.3268   -9.4250 N   0  0  0  0  0  0  0  0  0  0  0  0
  -12.4597  -40.5870   -8.2992 N   0  0  0  0  0  0  0  0  0  0  0  0
  -12.2004  -41.4368   -9.2442 O   0  0  0  0  0  0  0  0  0  0  0  0
  1  2  1  0
  2  3  1  0
  3  4  1  0
  4  5  2  0
  5  6  1  0
  6  7  1  0
  7  8  1  0
  8  9  1  0
  9 10  1  0
 10 11  1  1
 10 12  1  0
 12 13  1  1
 13 14  1  0
 14 15  1  1
 14 16  1  0
 16 17  1  0
 17 18  1  0
 18 19  1  0
 19 20  1  0
 20 21  1  0
 21 22  1  0
 22 23  1  0
 23 24  1  0
 24 25  2  0
 25 26  1  0
 26 27  1  0
 27 28  1  0
 28 29  1  0
 26 30  2  0
 30 31  1  0
 31 32  2  0
 31 33  1  0
 33 34  2  0
 33 35  1  0
  6 36  2  0
 36 37  1  0
 32 24  1  0
 35 12  1  0
 37  4  1  0
M  END
$$$$
