
     RDKit          3D

 37 39  0  0  0  0  0  0  0  0999 V2000
  -12.7173  -35.2292  -12.5802 C   0  0  0  0  0  0  0  0  0  0  0  0
  -11.5416  -36.1906  -12.3958 C   0  0  0  0  0  0  0  0  0  0  0  0
  -11.5599  -36.6264  -10.9600 C   0  0  0  0  0  0  0  0  0  0  0  0
  -12.2758  -37.9319  -10.8194 C   0  0  0  0  0  0  0  0  0  0  0  0
  -12.2933  -38.6175   -9.6293 C   0  0  0  0  0  0  0  0  0  0  0  0
  -13.0286  -39.7549   -9.8539 C   0  0  0  0  0  0  0  0  0  0  0  0
  -13.3727  -40.8575   -8.9199 C   0  0  0  0  0  0  0  0  0  0  0  0
  -14.3198  -40.4752   -7.9325 N   0  0  0  0  0  0  0  0  0  0  0  0
  -15.5938  -40.0233   -8.3989 C   0  0  0  0  0  0  0  0  0  0  0  0
  -16.6497  -39.8433   -7.3814 C   0  0  1  0  0  0  0  0  0  0  0  0
  -16.8522  -38.5429   -6.9548 O   0  0  0  0  0  0  0  0  0  0  0  0
  -17.9232  -40.6085   -7.6692 C   0  0  2  0  0  0  0  0  0  0  0  0
  -19.0372  -39.8896   -8.2589 C   0  0  0  0  0  0  0  0  0  0  0  0
  -20.0201  -39.1018   -7.5249 C   0  0  2  0  0  0  0  0  0  0  0  0
  -19.6640  -37.6178   -7.3393 C   0  0  0  0  0  0  0  0  0  0  0  0
  -20.5881  -39.6840   -6.2645 C   0  0  0  0  0  0  0  0  0  0  0  0
  -22.0582  -39.3504   -6.0654 C   0  0  0  0  0  0  0  0  0  0  0  0
  -22.9330  -40.0739   -7.0426 C   0  0  0  0  0  0  0  0  0  0  0  0
  -23.4972  -41.3786   -6.4737 C   0  0  0  0  0  0  0  0  0  0  0  0
  -24.3687  -42.0618   -7.4644 C   0  0  0  0  0  0  0  0  0  0  0  0
  -23.9477  -43.4112   -7.8949 C   0  0  0  0  0  0  0  0  0  0  0  0
  -23.8253  -43.6388   -9.3565 C   0  0  0  0  0  0  0  0  0  0  0  0
  -22.4928  -44.0625   -9.7314 N   0  0  0  0  0  0  0  0  0  0  0  0
  -21.2662  -44.1235   -9.0039 C   0  0  0  0  0  0  0  0  0  0  0  0
  -20.6257  -45.3607   -9.2725 C   0  0  0  0  0  0  0  0  0  0  0  0
  -19.4301  -45.7387   -8.7301 C   0  0  0  0  0  0  0  0  0  0  0  0
  -18.7845  -47.0444   -9.0329 C   0  0  0  0  0  0  0  0  0  0  0  0
  -18.9916  -47.9445   -7.9842 O   0  0  0  0  0  0  0  0  0  0  0  0
  -17.8575  -48.7763   -7.9068 C   0  0  0  0  0  0  0  0  0  0  0  0
  -18.8699  -44.8222   -7.8858 C   0  0  0  0  0  0  0  0  0  0  0  0
  -19.4477  -43.5661   -7.5700 C   0  0  0  0  0  0  0  0  0  0  0  0
  -20.6501  -43.2461   -8.1478 C   0  0  0  0  0  0  0  0  0  0  0  0
  -18.5783  -42.8482   -6.6284 C   0  0  0  0  0  0  0  0  0  0  0  0
  -18.0255  -43.5466   -5.6426 O   0  0  0  0  0  0  0  0  0  0  0  0
  -18.1810  -41.4846   -6.5504 N   0  0  0  0  0  0  0  0  0  0  0  0
  -13.4060  -39.6984  -11.1320 N   0  0  0  0  0  0  0  0  0  0  0  0
  -12.9525  -38.6163  -11.6848 O   0  0  0  0  0  0  0  0  0  0  0  0
  1  2  1  0
  2  3  1  0
  3  4  1  0
  4  5  2  0
  5  6  1  0
  6  7  1  0
  7  8  1  0
  8  9  1  0
  9 10  1  0
 10 11  1  6
 10 12  1  0
 12 13  1  1
 13 14  1  0
 14 15  1  1
 14 16  1  0
 16 17  1  0
 17 18  1  0
 18 19  1  0
 19 20  1  0
 20 21  1  0
 21 22  1  0
 22 23  1  0
 23 24  1  0
 24 25  2  0
 25 26  1  0
 26 27  1  0
 27 28  1  0
 28 29  1  0
 26 30  2  0
 30 31  1  0
 31 32  2  0
 31 33  1  0
 33 34  2  0
 33 35  1  0
  6 36  2  0
 36 37  1  0
 32 24  1  0
 35 12  1  0
 37  4  1  0
M  END
$$$$
