
     RDKit          3D

 37 39  0  0  0  0  0  0  0  0999 V2000
  -10.7860  -43.2056  -14.0753 C   0  0  0  0  0  0  0  0  0  0  0  0
  -12.0498  -42.6271  -13.4361 C   0  0  0  0  0  0  0  0  0  0  0  0
  -11.6095  -41.8592  -12.2243 C   0  0  0  0  0  0  0  0  0  0  0  0
  -12.7786  -41.1850  -11.5798 C   0  0  0  0  0  0  0  0  0  0  0  0
  -12.6165  -40.3090  -10.5344 C   0  0  0  0  0  0  0  0  0  0  0  0
  -13.8763  -39.8838  -10.1928 C   0  0  0  0  0  0  0  0  0  0  0  0
  -14.2975  -38.9323   -9.1327 C   0  0  0  0  0  0  0  0  0  0  0  0
  -14.3501  -39.5244   -7.8424 N   0  0  0  0  0  0  0  0  0  0  0  0
  -15.5519  -40.2187   -7.4980 C   0  0  0  0  0  0  0  0  0  0  0  0
  -16.8261  -39.5407   -7.8132 C   0  0  1  0  0  0  0  0  0  0  0  0
  -16.7775  -38.6339   -8.8570 O   0  0  0  0  0  0  0  0  0  0  0  0
  -18.0258  -40.4625   -7.8460 C   0  0  2  0  0  0  0  0  0  0  0  0
  -19.2517  -39.9721   -8.4482 C   0  0  0  0  0  0  0  0  0  0  0  0
  -20.2589  -39.1598   -7.7764 C   0  0  2  0  0  0  0  0  0  0  0  0
  -20.0545  -37.6400   -7.8856 C   0  0  0  0  0  0  0  0  0  0  0  0
  -20.6668  -39.5528   -6.3874 C   0  0  0  0  0  0  0  0  0  0  0  0
  -22.1462  -39.3289   -6.1165 C   0  0  0  0  0  0  0  0  0  0  0  0
  -23.0054  -40.2982   -6.8689 C   0  0  0  0  0  0  0  0  0  0  0  0
  -23.3807  -41.5243   -6.0322 C   0  0  0  0  0  0  0  0  0  0  0  0
  -24.2419  -42.4563   -6.8050 C   0  0  0  0  0  0  0  0  0  0  0  0
  -23.7083  -43.8158   -7.0300 C   0  0  0  0  0  0  0  0  0  0  0  0
  -23.6683  -44.2942   -8.4346 C   0  0  0  0  0  0  0  0  0  0  0  0
  -22.3283  -44.6514   -8.8496 N   0  0  0  0  0  0  0  0  0  0  0  0
  -21.0527  -44.4621   -8.2374 C   0  0  0  0  0  0  0  0  0  0  0  0
  -20.3020  -45.6615   -8.3432 C   0  0  0  0  0  0  0  0  0  0  0  0
  -19.0361  -45.8192   -7.8543 C   0  0  0  0  0  0  0  0  0  0  0  0
  -18.2754  -47.0914   -7.9823 C   0  0  0  0  0  0  0  0  0  0  0  0
  -18.0834  -47.6720   -6.7258 O   0  0  0  0  0  0  0  0  0  0  0  0
  -18.5704  -48.9924   -6.7881 C   0  0  0  0  0  0  0  0  0  0  0  0
  -18.5196  -44.7151   -7.2374 C   0  0  0  0  0  0  0  0  0  0  0  0
  -19.2068  -43.4827   -7.0942 C   0  0  0  0  0  0  0  0  0  0  0  0
  -20.4757  -43.3889   -7.6070 C   0  0  0  0  0  0  0  0  0  0  0  0
  -18.3549  -42.5258   -6.3753 C   0  0  0  0  0  0  0  0  0  0  0  0
  -17.6590  -42.9769   -5.3373 O   0  0  0  0  0  0  0  0  0  0  0  0
  -18.1045  -41.1396   -6.5728 N   0  0  0  0  0  0  0  0  0  0  0  0
  -14.7100  -40.5077  -11.0263 N   0  0  0  0  0  0  0  0  0  0  0  0
  -14.0443  -41.2707  -11.8368 O   0  0  0  0  0  0  0  0  0  0  0  0
  1  2  1  0
  2  3  1  0
  3  4  1  0
  4  5  2  0
  5  6  1  0
  6  7  1  0
  7  8  1  0
  8  9  1  0
  9 10  1  0
 10 11  1  6
 10 12  1  0
 12 13  1  1
 13 14  1  0
 14 15  1  1
 14 16  1  0
 16 17  1  0
 17 18  1  0
 18 19  1  0
 19 20  1  0
 20 21  1  0
 21 22  1  0
 22 23  1  0
 23 24  1  0
 24 25  2  0
 25 26  1  0
 26 27  1  0
 27 28  1  0
 28 29  1  0
 26 30  2  0
 30 31  1  0
 31 32  2  0
 31 33  1  0
 33 34  2  0
 33 35  1  0
  6 36  2  0
 36 37  1  0
 32 24  1  0
 35 12  1  0
 37  4  1  0
M  END
$$$$
