
     RDKit          3D

 37 39  0  0  0  0  0  0  0  0999 V2000
  -13.8367  -46.6314  -13.5046 C   0  0  0  0  0  0  0  0  0  0  0  0
  -13.9108  -45.9111  -12.1569 C   0  0  0  0  0  0  0  0  0  0  0  0
  -13.7061  -44.4507  -12.4348 C   0  0  0  0  0  0  0  0  0  0  0  0
  -14.2056  -43.6263  -11.2914 C   0  0  0  0  0  0  0  0  0  0  0  0
  -14.0835  -42.2582  -11.2844 C   0  0  0  0  0  0  0  0  0  0  0  0
  -14.6385  -41.8308  -10.1036 C   0  0  0  0  0  0  0  0  0  0  0  0
  -14.7808  -40.4514   -9.5712 C   0  0  0  0  0  0  0  0  0  0  0  0
  -15.7121  -39.6661  -10.3021 N   0  0  0  0  0  0  0  0  0  0  0  0
  -16.7161  -38.9834   -9.5465 C   0  0  0  0  0  0  0  0  0  0  0  0
  -16.9412  -39.4508   -8.1633 C   0  0  1  0  0  0  0  0  0  0  0  0
  -16.8449  -38.4803   -7.1820 O   0  0  0  0  0  0  0  0  0  0  0  0
  -18.1289  -40.3757   -8.0083 C   0  0  2  0  0  0  0  0  0  0  0  0
  -19.4581  -39.7937   -8.0216 C   0  0  0  0  0  0  0  0  0  0  0  0
  -20.1357  -39.2041   -6.8731 C   0  0  2  0  0  0  0  0  0  0  0  0
  -19.8998  -37.6979   -6.6752 C   0  0  0  0  0  0  0  0  0  0  0  0
  -20.0722  -39.9383   -5.5665 C   0  0  0  0  0  0  0  0  0  0  0  0
  -21.3598  -39.8364   -4.7642 C   0  0  0  0  0  0  0  0  0  0  0  0
  -22.4723  -40.6201   -5.3905 C   0  0  0  0  0  0  0  0  0  0  0  0
  -22.6083  -42.0253   -4.7980 C   0  0  0  0  0  0  0  0  0  0  0  0
  -23.7276  -42.7678   -5.4333 C   0  0  0  0  0  0  0  0  0  0  0  0
  -23.3739  -44.0125   -6.1468 C   0  0  0  0  0  0  0  0  0  0  0  0
  -23.8346  -44.1311   -7.5527 C   0  0  0  0  0  0  0  0  0  0  0  0
  -22.7335  -44.3315   -8.4709 N   0  0  0  0  0  0  0  0  0  0  0  0
  -21.3182  -44.2557   -8.3015 C   0  0  0  0  0  0  0  0  0  0  0  0
  -20.7117  -45.3673   -8.9417 C   0  0  0  0  0  0  0  0  0  0  0  0
  -19.3654  -45.5979   -8.9648 C   0  0  0  0  0  0  0  0  0  0  0  0
  -18.7607  -46.7742   -9.6460 C   0  0  0  0  0  0  0  0  0  0  0  0
  -18.7345  -46.5752  -11.0290 O   0  0  0  0  0  0  0  0  0  0  0  0
  -17.4221  -46.8325  -11.4714 C   0  0  0  0  0  0  0  0  0  0  0  0
  -18.6135  -44.6619   -8.3128 C   0  0  0  0  0  0  0  0  0  0  0  0
  -19.1460  -43.5253   -7.6523 C   0  0  0  0  0  0  0  0  0  0  0  0
  -20.5066  -43.3508   -7.6653 C   0  0  0  0  0  0  0  0  0  0  0  0
  -18.0523  -42.7459   -7.0570 C   0  0  0  0  0  0  0  0  0  0  0  0
  -17.0724  -43.4139   -6.4581 O   0  0  0  0  0  0  0  0  0  0  0  0
  -17.8100  -41.3460   -6.9872 N   0  0  0  0  0  0  0  0  0  0  0  0
  -15.0549  -42.9321   -9.4769 N   0  0  0  0  0  0  0  0  0  0  0  0
  -14.7909  -43.9810  -10.1927 O   0  0  0  0  0  0  0  0  0  0  0  0
  1  2  1  0
  2  3  1  0
  3  4  1  0
  4  5  2  0
  5  6  1  0
  6  7  1  0
  7  8  1  0
  8  9  1  0
  9 10  1  0
 10 11  1  1
 10 12  1  0
 12 13  1  1
 13 14  1  0
 14 15  1  1
 14 16  1  0
 16 17  1  0
 17 18  1  0
 18 19  1  0
 19 20  1  0
 20 21  1  0
 21 22  1  0
 22 23  1  0
 23 24  1  0
 24 25  2  0
 25 26  1  0
 26 27  1  0
 27 28  1  0
 28 29  1  0
 26 30  2  0
 30 31  1  0
 31 32  2  0
 31 33  1  0
 33 34  2  0
 33 35  1  0
  6 36  2  0
 36 37  1  0
 32 24  1  0
 35 12  1  0
 37  4  1  0
M  END
$$$$
