
     RDKit          3D

 37 39  0  0  0  0  0  0  0  0999 V2000
  -19.6112  -35.5921  -15.4426 C   0  0  0  0  0  0  0  0  0  0  0  0
  -20.1641  -36.3989  -14.2662 C   0  0  0  0  0  0  0  0  0  0  0  0
  -19.0804  -37.3473  -13.8444 C   0  0  0  0  0  0  0  0  0  0  0  0
  -18.9647  -37.3786  -12.3536 C   0  0  0  0  0  0  0  0  0  0  0  0
  -17.8148  -36.9852  -11.7136 C   0  0  0  0  0  0  0  0  0  0  0  0
  -18.0527  -37.1398  -10.3704 C   0  0  0  0  0  0  0  0  0  0  0  0
  -17.1601  -36.8661   -9.2150 C   0  0  0  0  0  0  0  0  0  0  0  0
  -16.8783  -38.0247   -8.4428 N   0  0  0  0  0  0  0  0  0  0  0  0
  -15.9679  -38.9723   -9.0070 C   0  0  0  0  0  0  0  0  0  0  0  0
  -15.5719  -40.1076   -8.1486 C   0  0  1  0  0  0  0  0  0  0  0  0
  -14.6987  -39.8020   -7.1199 O   0  0  0  0  0  0  0  0  0  0  0  0
  -16.7197  -41.0066   -7.7433 C   0  0  2  0  0  0  0  0  0  0  0  0
  -16.4110  -42.2421   -7.0475 C   0  0  0  0  0  0  0  0  0  0  0  0
  -16.0317  -43.4988   -7.6816 C   0  0  2  0  0  0  0  0  0  0  0  0
  -14.5221  -43.6957   -7.8953 C   0  0  0  0  0  0  0  0  0  0  0  0
  -16.8111  -43.9426   -8.8841 C   0  0  0  0  0  0  0  0  0  0  0  0
  -17.0099  -45.4490   -8.9409 C   0  0  0  0  0  0  0  0  0  0  0  0
  -17.9609  -45.9276   -7.8871 C   0  0  0  0  0  0  0  0  0  0  0  0
  -19.3964  -46.0554   -8.4041 C   0  0  0  0  0  0  0  0  0  0  0  0
  -20.3080  -46.5436   -7.3372 C   0  0  0  0  0  0  0  0  0  0  0  0
  -21.4166  -45.6451   -6.9535 C   0  0  0  0  0  0  0  0  0  0  0  0
  -21.5446  -45.3197   -5.5110 C   0  0  0  0  0  0  0  0  0  0  0  0
  -21.4725  -43.8947   -5.2664 N   0  0  0  0  0  0  0  0  0  0  0  0
  -21.1291  -42.7939   -6.1078 C   0  0  0  0  0  0  0  0  0  0  0  0
  -22.0618  -41.7438   -5.9058 C   0  0  0  0  0  0  0  0  0  0  0  0
  -22.0211  -40.5458   -6.5611 C   0  0  0  0  0  0  0  0  0  0  0  0
  -23.0153  -39.4643   -6.3257 C   0  0  0  0  0  0  0  0  0  0  0  0
  -24.2986  -39.9005   -6.6657 O   0  0  0  0  0  0  0  0  0  0  0  0
  -24.6174  -39.3480   -7.9217 C   0  0  0  0  0  0  0  0  0  0  0  0
  -20.9934  -40.4157   -7.4519 C   0  0  0  0  0  0  0  0  0  0  0  0
  -20.0228  -41.4180   -7.7067 C   0  0  0  0  0  0  0  0  0  0  0  0
  -20.1192  -42.5991   -7.0158 C   0  0  0  0  0  0  0  0  0  0  0  0
  -19.0779  -40.9393   -8.7245 C   0  0  0  0  0  0  0  0  0  0  0  0
  -19.5724  -40.2711   -9.7610 O   0  0  0  0  0  0  0  0  0  0  0  0
  -17.6639  -41.0464   -8.8354 N   0  0  0  0  0  0  0  0  0  0  0  0
  -19.2987  -37.6054  -10.2722 N   0  0  0  0  0  0  0  0  0  0  0  0
  -19.8203  -37.7398  -11.4521 O   0  0  0  0  0  0  0  0  0  0  0  0
  1  2  1  0
  2  3  1  0
  3  4  1  0
  4  5  2  0
  5  6  1  0
  6  7  1  0
  7  8  1  0
  8  9  1  0
  9 10  1  0
 10 11  1  1
 10 12  1  0
 12 13  1  6
 13 14  1  0
 14 15  1  6
 14 16  1  0
 16 17  1  0
 17 18  1  0
 18 19  1  0
 19 20  1  0
 20 21  1  0
 21 22  1  0
 22 23  1  0
 23 24  1  0
 24 25  2  0
 25 26  1  0
 26 27  1  0
 27 28  1  0
 28 29  1  0
 26 30  2  0
 30 31  1  0
 31 32  2  0
 31 33  1  0
 33 34  2  0
 33 35  1  0
  6 36  2  0
 36 37  1  0
 32 24  1  0
 35 12  1  0
 37  4  1  0
M  END
$$$$
