
     RDKit          3D

 37 39  0  0  0  0  0  0  0  0999 V2000
  -12.8240  -34.7674  -12.3924 C   0  0  0  0  0  0  0  0  0  0  0  0
  -12.1933  -35.9794  -13.0807 C   0  0  0  0  0  0  0  0  0  0  0  0
  -13.2497  -37.0437  -13.1369 C   0  0  0  0  0  0  0  0  0  0  0  0
  -13.0773  -38.0109  -12.0092 C   0  0  0  0  0  0  0  0  0  0  0  0
  -14.0162  -38.9770  -11.7411 C   0  0  0  0  0  0  0  0  0  0  0  0
  -13.5458  -39.6772  -10.6580 C   0  0  0  0  0  0  0  0  0  0  0  0
  -14.1512  -40.8296   -9.9424 C   0  0  0  0  0  0  0  0  0  0  0  0
  -14.8637  -40.4472   -8.7743 N   0  0  0  0  0  0  0  0  0  0  0  0
  -16.1630  -39.8814   -8.9655 C   0  0  0  0  0  0  0  0  0  0  0  0
  -17.0086  -39.7344   -7.7630 C   0  0  1  0  0  0  0  0  0  0  0  0
  -17.2638  -38.4333   -7.3680 O   0  0  0  0  0  0  0  0  0  0  0  0
  -18.2220  -40.6386   -7.7456 C   0  0  2  0  0  0  0  0  0  0  0  0
  -19.4532  -40.1462   -8.3350 C   0  0  0  0  0  0  0  0  0  0  0  0
  -20.4339  -39.3010   -7.6646 C   0  0  2  0  0  0  0  0  0  0  0  0
  -20.2100  -37.7879   -7.8192 C   0  0  0  0  0  0  0  0  0  0  0  0
  -20.8177  -39.6505   -6.2572 C   0  0  0  0  0  0  0  0  0  0  0  0
  -22.2876  -39.3971   -5.9616 C   0  0  0  0  0  0  0  0  0  0  0  0
  -23.1766  -40.3732   -6.6692 C   0  0  0  0  0  0  0  0  0  0  0  0
  -23.5517  -41.5707   -5.7918 C   0  0  0  0  0  0  0  0  0  0  0  0
  -24.4426  -42.5100   -6.5209 C   0  0  0  0  0  0  0  0  0  0  0  0
  -23.9337  -43.8829   -6.7201 C   0  0  0  0  0  0  0  0  0  0  0  0
  -23.9306  -44.3993   -8.1117 C   0  0  0  0  0  0  0  0  0  0  0  0
  -22.6050  -44.7877   -8.5449 N   0  0  0  0  0  0  0  0  0  0  0  0
  -21.3141  -44.6013   -7.9649 C   0  0  0  0  0  0  0  0  0  0  0  0
  -20.5833  -45.8142   -8.0538 C   0  0  0  0  0  0  0  0  0  0  0  0
  -19.3097  -45.9778   -7.5875 C   0  0  0  0  0  0  0  0  0  0  0  0
  -18.5703  -47.2642   -7.6969 C   0  0  0  0  0  0  0  0  0  0  0  0
  -19.3078  -48.3001   -7.1173 O   0  0  0  0  0  0  0  0  0  0  0  0
  -18.7247  -49.5166   -7.5229 C   0  0  0  0  0  0  0  0  0  0  0  0
  -18.7641  -44.8654   -7.0117 C   0  0  0  0  0  0  0  0  0  0  0  0
  -19.4302  -43.6194   -6.8877 C   0  0  0  0  0  0  0  0  0  0  0  0
  -20.7083  -43.5203   -7.3761 C   0  0  0  0  0  0  0  0  0  0  0  0
  -18.5494  -42.6566   -6.2130 C   0  0  0  0  0  0  0  0  0  0  0  0
  -17.8381  -43.0901   -5.1779 O   0  0  0  0  0  0  0  0  0  0  0  0
  -18.2832  -41.2801   -6.4532 N   0  0  0  0  0  0  0  0  0  0  0  0
  -12.3803  -39.1133  -10.3376 N   0  0  0  0  0  0  0  0  0  0  0  0
  -12.1209  -38.1324  -11.1456 O   0  0  0  0  0  0  0  0  0  0  0  0
  1  2  1  0
  2  3  1  0
  3  4  1  0
  4  5  2  0
  5  6  1  0
  6  7  1  0
  7  8  1  0
  8  9  1  0
  9 10  1  0
 10 11  1  6
 10 12  1  0
 12 13  1  1
 13 14  1  0
 14 15  1  1
 14 16  1  0
 16 17  1  0
 17 18  1  0
 18 19  1  0
 19 20  1  0
 20 21  1  0
 21 22  1  0
 22 23  1  0
 23 24  1  0
 24 25  2  0
 25 26  1  0
 26 27  1  0
 27 28  1  0
 28 29  1  0
 26 30  2  0
 30 31  1  0
 31 32  2  0
 31 33  1  0
 33 34  2  0
 33 35  1  0
  6 36  2  0
 36 37  1  0
 32 24  1  0
 35 12  1  0
 37  4  1  0
M  END
$$$$
