
     RDKit          3D

 37 39  0  0  0  0  0  0  0  0999 V2000
   -9.3993  -40.4428  -15.6888 C   0  0  0  0  0  0  0  0  0  0  0  0
   -9.8915  -39.4313  -14.6519 C   0  0  0  0  0  0  0  0  0  0  0  0
  -10.6991  -40.1995  -13.6472 C   0  0  0  0  0  0  0  0  0  0  0  0
  -11.3103  -39.2701  -12.6475 C   0  0  0  0  0  0  0  0  0  0  0  0
  -12.1583  -39.7253  -11.6675 C   0  0  0  0  0  0  0  0  0  0  0  0
  -12.5269  -38.6222  -10.9380 C   0  0  0  0  0  0  0  0  0  0  0  0
  -13.4273  -38.5257   -9.7605 C   0  0  0  0  0  0  0  0  0  0  0  0
  -14.7898  -38.3372  -10.1159 N   0  0  0  0  0  0  0  0  0  0  0  0
  -15.6597  -37.8335   -9.0989 C   0  0  0  0  0  0  0  0  0  0  0  0
  -16.0566  -38.7780   -8.0345 C   0  0  1  0  0  0  0  0  0  0  0  0
  -15.5308  -38.5202   -6.7810 O   0  0  0  0  0  0  0  0  0  0  0  0
  -17.5301  -39.1232   -8.0315 C   0  0  2  0  0  0  0  0  0  0  0  0
  -18.1951  -39.2813   -6.7514 C   0  0  0  0  0  0  0  0  0  0  0  0
  -18.2055  -40.4974   -5.9473 C   0  0  2  0  0  0  0  0  0  0  0  0
  -17.0600  -40.6197   -4.9292 C   0  0  0  0  0  0  0  0  0  0  0  0
  -18.4486  -41.8013   -6.6480 C   0  0  0  0  0  0  0  0  0  0  0  0
  -19.2775  -42.7736   -5.8237 C   0  0  0  0  0  0  0  0  0  0  0  0
  -20.7037  -42.3313   -5.7046 C   0  0  0  0  0  0  0  0  0  0  0  0
  -21.6092  -42.9744   -6.7585 C   0  0  0  0  0  0  0  0  0  0  0  0
  -23.0162  -42.5230   -6.6025 C   0  0  0  0  0  0  0  0  0  0  0  0
  -23.6089  -41.8005   -7.7471 C   0  0  0  0  0  0  0  0  0  0  0  0
  -24.2163  -40.4770   -7.4600 C   0  0  0  0  0  0  0  0  0  0  0  0
  -23.6074  -39.4188   -8.2380 N   0  0  0  0  0  0  0  0  0  0  0  0
  -22.4463  -39.3855   -9.0676 C   0  0  0  0  0  0  0  0  0  0  0  0
  -22.7517  -38.6964  -10.2698 C   0  0  0  0  0  0  0  0  0  0  0  0
  -21.8591  -38.4905  -11.2833 C   0  0  0  0  0  0  0  0  0  0  0  0
  -22.2114  -37.7627  -12.5321 C   0  0  0  0  0  0  0  0  0  0  0  0
  -21.1482  -37.8076  -13.4379 O   0  0  0  0  0  0  0  0  0  0  0  0
  -20.6541  -36.4960  -13.5798 C   0  0  0  0  0  0  0  0  0  0  0  0
  -20.6130  -39.0049  -11.0613 C   0  0  0  0  0  0  0  0  0  0  0  0
  -20.2324  -39.7030   -9.8869 C   0  0  0  0  0  0  0  0  0  0  0  0
  -21.1755  -39.8767   -8.9060 C   0  0  0  0  0  0  0  0  0  0  0  0
  -18.8272  -40.1175   -9.9954 C   0  0  0  0  0  0  0  0  0  0  0  0
  -18.4113  -40.5904  -11.1653 O   0  0  0  0  0  0  0  0  0  0  0  0
  -17.7592  -40.1149   -9.0560 N   0  0  0  0  0  0  0  0  0  0  0  0
  -11.8998  -37.5876  -11.4998 N   0  0  0  0  0  0  0  0  0  0  0  0
  -11.1873  -37.9894  -12.5064 O   0  0  0  0  0  0  0  0  0  0  0  0
  1  2  1  0
  2  3  1  0
  3  4  1  0
  4  5  2  0
  5  6  1  0
  6  7  1  0
  7  8  1  0
  8  9  1  0
  9 10  1  0
 10 11  1  1
 10 12  1  0
 12 13  1  1
 13 14  1  0
 14 15  1  6
 14 16  1  0
 16 17  1  0
 17 18  1  0
 18 19  1  0
 19 20  1  0
 20 21  1  0
 21 22  1  0
 22 23  1  0
 23 24  1  0
 24 25  2  0
 25 26  1  0
 26 27  1  0
 27 28  1  0
 28 29  1  0
 26 30  2  0
 30 31  1  0
 31 32  2  0
 31 33  1  0
 33 34  2  0
 33 35  1  0
  6 36  2  0
 36 37  1  0
 32 24  1  0
 35 12  1  0
 37  4  1  0
M  END
$$$$
