
     RDKit          3D

 37 39  0  0  0  0  0  0  0  0999 V2000
  -24.5918  -35.8274   -9.0141 C   0  0  0  0  0  0  0  0  0  0  0  0
  -23.5263  -34.8136   -8.5929 C   0  0  0  0  0  0  0  0  0  0  0  0
  -22.2029  -35.3693   -9.0307 C   0  0  0  0  0  0  0  0  0  0  0  0
  -21.8083  -36.5228   -8.1644 C   0  0  0  0  0  0  0  0  0  0  0  0
  -20.5629  -37.0952   -8.2531 C   0  0  0  0  0  0  0  0  0  0  0  0
  -20.5418  -38.1104   -7.3291 C   0  0  0  0  0  0  0  0  0  0  0  0
  -19.4501  -39.0601   -6.9933 C   0  0  0  0  0  0  0  0  0  0  0  0
  -18.2998  -38.8971   -7.8108 N   0  0  0  0  0  0  0  0  0  0  0  0
  -17.0325  -38.8799   -7.1483 C   0  0  0  0  0  0  0  0  0  0  0  0
  -15.9322  -39.6224   -7.7968 C   0  0  1  0  0  0  0  0  0  0  0  0
  -14.6705  -39.3946   -7.2768 O   0  0  0  0  0  0  0  0  0  0  0  0
  -16.2413  -41.0798   -8.0623 C   0  0  2  0  0  0  0  0  0  0  0  0
  -15.2774  -42.0752   -7.6313 C   0  0  0  0  0  0  0  0  0  0  0  0
  -14.0965  -42.4897   -8.3791 C   0  0  2  0  0  0  0  0  0  0  0  0
  -12.8187  -41.6875   -8.0836 C   0  0  0  0  0  0  0  0  0  0  0  0
  -14.2490  -42.7426   -9.8498 C   0  0  0  0  0  0  0  0  0  0  0  0
  -13.3996  -43.9027  -10.3447 C   0  0  0  0  0  0  0  0  0  0  0  0
  -13.9121  -45.2211   -9.8517 C   0  0  0  0  0  0  0  0  0  0  0  0
  -14.8384  -45.9066  -10.8597 C   0  0  0  0  0  0  0  0  0  0  0  0
  -15.3168  -47.2150  -10.3432 C   0  0  0  0  0  0  0  0  0  0  0  0
  -16.7767  -47.3627  -10.1692 C   0  0  0  0  0  0  0  0  0  0  0  0
  -17.2492  -47.8069   -8.8340 C   0  0  0  0  0  0  0  0  0  0  0  0
  -18.1606  -46.8548   -8.2351 N   0  0  0  0  0  0  0  0  0  0  0  0
  -18.5339  -45.5260   -8.5988 C   0  0  0  0  0  0  0  0  0  0  0  0
  -19.9420  -45.3904   -8.4885 C   0  0  0  0  0  0  0  0  0  0  0  0
  -20.6257  -44.2411   -8.7679 C   0  0  0  0  0  0  0  0  0  0  0  0
  -22.1041  -44.1318   -8.6416 C   0  0  0  0  0  0  0  0  0  0  0  0
  -22.6982  -44.0828   -9.9055 O   0  0  0  0  0  0  0  0  0  0  0  0
  -23.0375  -45.4011  -10.2679 C   0  0  0  0  0  0  0  0  0  0  0  0
  -19.8453  -43.1954   -9.1730 C   0  0  0  0  0  0  0  0  0  0  0  0
  -18.4345  -43.2535   -9.3057 C   0  0  0  0  0  0  0  0  0  0  0  0
  -17.8074  -44.4372   -9.0098 C   0  0  0  0  0  0  0  0  0  0  0  0
  -17.9306  -41.9535   -9.7685 C   0  0  0  0  0  0  0  0  0  0  0  0
  -18.6212  -41.3241  -10.7130 O   0  0  0  0  0  0  0  0  0  0  0  0
  -16.7947  -41.1846   -9.3921 N   0  0  0  0  0  0  0  0  0  0  0  0
  -21.7419  -38.0983   -6.7470 N   0  0  0  0  0  0  0  0  0  0  0  0
  -22.4748  -37.1553   -7.2528 O   0  0  0  0  0  0  0  0  0  0  0  0
  1  2  1  0
  2  3  1  0
  3  4  1  0
  4  5  2  0
  5  6  1  0
  6  7  1  0
  7  8  1  0
  8  9  1  0
  9 10  1  0
 10 11  1  1
 10 12  1  0
 12 13  1  6
 13 14  1  0
 14 15  1  6
 14 16  1  0
 16 17  1  0
 17 18  1  0
 18 19  1  0
 19 20  1  0
 20 21  1  0
 21 22  1  0
 22 23  1  0
 23 24  1  0
 24 25  2  0
 25 26  1  0
 26 27  1  0
 27 28  1  0
 28 29  1  0
 26 30  2  0
 30 31  1  0
 31 32  2  0
 31 33  1  0
 33 34  2  0
 33 35  1  0
  6 36  2  0
 36 37  1  0
 32 24  1  0
 35 12  1  0
 37  4  1  0
M  END
$$$$
