
     RDKit          3D

 37 39  0  0  0  0  0  0  0  0999 V2000
  -13.3936  -35.1181  -13.3985 C   0  0  0  0  0  0  0  0  0  0  0  0
  -12.5776  -36.2504  -14.0250 C   0  0  0  0  0  0  0  0  0  0  0  0
  -12.0368  -37.0724  -12.8920 C   0  0  0  0  0  0  0  0  0  0  0  0
  -12.9044  -38.2669  -12.6527 C   0  0  0  0  0  0  0  0  0  0  0  0
  -12.8091  -39.0046  -11.4980 C   0  0  0  0  0  0  0  0  0  0  0  0
  -13.7365  -40.0108  -11.6094 C   0  0  0  0  0  0  0  0  0  0  0  0
  -14.0680  -41.1001  -10.6555 C   0  0  0  0  0  0  0  0  0  0  0  0
  -14.6545  -40.6261   -9.4515 N   0  0  0  0  0  0  0  0  0  0  0  0
  -15.9663  -40.0650   -9.5482 C   0  0  0  0  0  0  0  0  0  0  0  0
  -16.6739  -39.8038   -8.2779 C   0  0  1  0  0  0  0  0  0  0  0  0
  -16.8548  -38.4699   -7.9586 O   0  0  0  0  0  0  0  0  0  0  0  0
  -17.8991  -40.6659   -8.0636 C   0  0  2  0  0  0  0  0  0  0  0  0
  -19.1867  -40.1449   -8.4836 C   0  0  0  0  0  0  0  0  0  0  0  0
  -20.0347  -39.2529   -7.7022 C   0  0  2  0  0  0  0  0  0  0  0  0
  -19.7896  -37.7519   -7.9267 C   0  0  0  0  0  0  0  0  0  0  0  0
  -20.2227  -39.5588   -6.2456 C   0  0  0  0  0  0  0  0  0  0  0  0
  -21.6264  -39.2496   -5.7496 C   0  0  0  0  0  0  0  0  0  0  0  0
  -22.6371  -40.2102   -6.2971 C   0  0  0  0  0  0  0  0  0  0  0  0
  -22.9184  -41.3751   -5.3441 C   0  0  0  0  0  0  0  0  0  0  0  0
  -23.9330  -42.2992   -5.9135 C   0  0  0  0  0  0  0  0  0  0  0  0
  -23.4999  -43.6925   -6.1475 C   0  0  0  0  0  0  0  0  0  0  0  0
  -23.7126  -44.2385   -7.5112 C   0  0  0  0  0  0  0  0  0  0  0  0
  -22.4754  -44.6807   -8.1191 N   0  0  0  0  0  0  0  0  0  0  0  0
  -21.1095  -44.5256   -7.7348 C   0  0  0  0  0  0  0  0  0  0  0  0
  -20.4362  -45.7642   -7.8956 C   0  0  0  0  0  0  0  0  0  0  0  0
  -19.1144  -45.9607   -7.6120 C   0  0  0  0  0  0  0  0  0  0  0  0
  -18.4378  -47.2734   -7.7923 C   0  0  0  0  0  0  0  0  0  0  0  0
  -18.0128  -47.4242   -9.1150 O   0  0  0  0  0  0  0  0  0  0  0  0
  -16.6586  -47.8109   -9.0857 C   0  0  0  0  0  0  0  0  0  0  0  0
  -18.4582  -44.8552   -7.1494 C   0  0  0  0  0  0  0  0  0  0  0  0
  -19.0614  -43.5850   -6.9640 C   0  0  0  0  0  0  0  0  0  0  0  0
  -20.3928  -43.4533   -7.2671 C   0  0  0  0  0  0  0  0  0  0  0  0
  -18.0639  -42.6382   -6.4476 C   0  0  0  0  0  0  0  0  0  0  0  0
  -17.2247  -43.0731   -5.5139 O   0  0  0  0  0  0  0  0  0  0  0  0
  -17.7934  -41.2770   -6.7593 N   0  0  0  0  0  0  0  0  0  0  0  0
  -14.3267  -39.8332  -12.7923 N   0  0  0  0  0  0  0  0  0  0  0  0
  -13.8227  -38.8000  -13.3929 O   0  0  0  0  0  0  0  0  0  0  0  0
  1  2  1  0
  2  3  1  0
  3  4  1  0
  4  5  2  0
  5  6  1  0
  6  7  1  0
  7  8  1  0
  8  9  1  0
  9 10  1  0
 10 11  1  6
 10 12  1  0
 12 13  1  1
 13 14  1  0
 14 15  1  1
 14 16  1  0
 16 17  1  0
 17 18  1  0
 18 19  1  0
 19 20  1  0
 20 21  1  0
 21 22  1  0
 22 23  1  0
 23 24  1  0
 24 25  2  0
 25 26  1  0
 26 27  1  0
 27 28  1  0
 28 29  1  0
 26 30  2  0
 30 31  1  0
 31 32  2  0
 31 33  1  0
 33 34  2  0
 33 35  1  0
  6 36  2  0
 36 37  1  0
 32 24  1  0
 35 12  1  0
 37  4  1  0
M  END
$$$$
