
     RDKit          3D

 37 39  0  0  0  0  0  0  0  0999 V2000
  -11.2192  -35.6919  -13.0506 C   0  0  0  0  0  0  0  0  0  0  0  0
  -11.0998  -37.2056  -13.2381 C   0  0  0  0  0  0  0  0  0  0  0  0
  -12.4389  -37.7909  -12.8972 C   0  0  0  0  0  0  0  0  0  0  0  0
  -12.4898  -38.1723  -11.4520 C   0  0  0  0  0  0  0  0  0  0  0  0
  -12.8743  -39.4293  -11.0536 C   0  0  0  0  0  0  0  0  0  0  0  0
  -12.8072  -39.4331   -9.6824 C   0  0  0  0  0  0  0  0  0  0  0  0
  -13.1104  -40.5271   -8.7245 C   0  0  0  0  0  0  0  0  0  0  0  0
  -14.0723  -40.1592   -7.7458 N   0  0  0  0  0  0  0  0  0  0  0  0
  -15.0015  -39.1336   -8.1058 C   0  0  0  0  0  0  0  0  0  0  0  0
  -16.3082  -39.1475   -7.4166 C   0  0  1  0  0  0  0  0  0  0  0  0
  -16.7413  -37.9255   -6.9334 O   0  0  0  0  0  0  0  0  0  0  0  0
  -17.3760  -39.9472   -8.1310 C   0  0  2  0  0  0  0  0  0  0  0  0
  -18.6044  -39.2713   -8.5051 C   0  0  0  0  0  0  0  0  0  0  0  0
  -19.7543  -39.0613   -7.6338 C   0  0  2  0  0  0  0  0  0  0  0  0
  -19.7357  -37.7521   -6.8282 C   0  0  0  0  0  0  0  0  0  0  0  0
  -20.2142  -40.2113   -6.7874 C   0  0  0  0  0  0  0  0  0  0  0  0
  -21.7263  -40.2738   -6.6403 C   0  0  0  0  0  0  0  0  0  0  0  0
  -22.3964  -40.6741   -7.9188 C   0  0  0  0  0  0  0  0  0  0  0  0
  -22.6767  -42.1776   -7.9906 C   0  0  0  0  0  0  0  0  0  0  0  0
  -23.3520  -42.5358   -9.2647 C   0  0  0  0  0  0  0  0  0  0  0  0
  -22.6356  -43.4773  -10.1500 C   0  0  0  0  0  0  0  0  0  0  0  0
  -22.4285  -43.0473  -11.5555 C   0  0  0  0  0  0  0  0  0  0  0  0
  -21.0263  -43.0175  -11.9142 N   0  0  0  0  0  0  0  0  0  0  0  0
  -19.8354  -43.1446  -11.1377 C   0  0  0  0  0  0  0  0  0  0  0  0
  -18.9334  -44.0127  -11.8058 C   0  0  0  0  0  0  0  0  0  0  0  0
  -17.6988  -44.3503  -11.3284 C   0  0  0  0  0  0  0  0  0  0  0  0
  -16.7761  -45.2640  -12.0545 C   0  0  0  0  0  0  0  0  0  0  0  0
  -17.2812  -45.5575  -13.3240 O   0  0  0  0  0  0  0  0  0  0  0  0
  -16.5419  -44.8080  -14.2601 C   0  0  0  0  0  0  0  0  0  0  0  0
  -17.3742  -43.7821  -10.1290 C   0  0  0  0  0  0  0  0  0  0  0  0
  -18.2203  -42.9052   -9.4034 C   0  0  0  0  0  0  0  0  0  0  0  0
  -19.4481  -42.6056   -9.9370 C   0  0  0  0  0  0  0  0  0  0  0  0
  -17.5534  -42.4960   -8.1601 C   0  0  0  0  0  0  0  0  0  0  0  0
  -16.8873  -43.4243   -7.4820 O   0  0  0  0  0  0  0  0  0  0  0  0
  -17.4655  -41.2412   -7.4959 N   0  0  0  0  0  0  0  0  0  0  0  0
  -12.3972  -38.2125   -9.3341 N   0  0  0  0  0  0  0  0  0  0  0  0
  -12.2153  -37.4833  -10.3913 O   0  0  0  0  0  0  0  0  0  0  0  0
  1  2  1  0
  2  3  1  0
  3  4  1  0
  4  5  2  0
  5  6  1  0
  6  7  1  0
  7  8  1  0
  8  9  1  0
  9 10  1  0
 10 11  1  6
 10 12  1  0
 12 13  1  1
 13 14  1  0
 14 15  1  1
 14 16  1  0
 16 17  1  0
 17 18  1  0
 18 19  1  0
 19 20  1  0
 20 21  1  0
 21 22  1  0
 22 23  1  0
 23 24  1  0
 24 25  2  0
 25 26  1  0
 26 27  1  0
 27 28  1  0
 28 29  1  0
 26 30  2  0
 30 31  1  0
 31 32  2  0
 31 33  1  0
 33 34  2  0
 33 35  1  0
  6 36  2  0
 36 37  1  0
 32 24  1  0
 35 12  1  0
 37  4  1  0
M  END
$$$$
