
     RDKit          3D

 37 39  0  0  0  0  0  0  0  0999 V2000
  -12.1557  -39.7380  -16.6518 C   0  0  0  0  0  0  0  0  0  0  0  0
  -13.2006  -40.1483  -15.6125 C   0  0  0  0  0  0  0  0  0  0  0  0
  -12.4969  -41.0156  -14.6103 C   0  0  0  0  0  0  0  0  0  0  0  0
  -13.3970  -41.3130  -13.4535 C   0  0  0  0  0  0  0  0  0  0  0  0
  -12.9333  -41.3016  -12.1606 C   0  0  0  0  0  0  0  0  0  0  0  0
  -14.0087  -41.6126  -11.3659 C   0  0  0  0  0  0  0  0  0  0  0  0
  -14.0859  -41.7406   -9.8880 C   0  0  0  0  0  0  0  0  0  0  0  0
  -14.1704  -40.4872   -9.2246 N   0  0  0  0  0  0  0  0  0  0  0  0
  -15.4270  -39.8072   -9.2844 C   0  0  0  0  0  0  0  0  0  0  0  0
  -16.2388  -39.7988   -8.0500 C   0  0  1  0  0  0  0  0  0  0  0  0
  -16.2560  -38.6027   -7.3550 O   0  0  0  0  0  0  0  0  0  0  0  0
  -17.5961  -40.4515   -8.1977 C   0  0  2  0  0  0  0  0  0  0  0  0
  -18.6496  -39.7024   -8.8570 C   0  0  0  0  0  0  0  0  0  0  0  0
  -19.5148  -38.7176   -8.2190 C   0  0  2  0  0  0  0  0  0  0  0  0
  -18.9969  -37.2705   -8.2525 C   0  0  0  0  0  0  0  0  0  0  0  0
  -20.0927  -39.0548   -6.8763 C   0  0  0  0  0  0  0  0  0  0  0  0
  -21.5106  -38.5373   -6.6924 C   0  0  0  0  0  0  0  0  0  0  0  0
  -22.4937  -39.2876   -7.5375 C   0  0  0  0  0  0  0  0  0  0  0  0
  -23.1705  -40.4315   -6.7776 C   0  0  0  0  0  0  0  0  0  0  0  0
  -24.1466  -41.1444   -7.6417 C   0  0  0  0  0  0  0  0  0  0  0  0
  -23.8874  -42.5783   -7.8873 C   0  0  0  0  0  0  0  0  0  0  0  0
  -23.8458  -43.0169   -9.3047 C   0  0  0  0  0  0  0  0  0  0  0  0
  -22.5808  -43.6322   -9.6468 N   0  0  0  0  0  0  0  0  0  0  0  0
  -21.3407  -43.7271   -8.9465 C   0  0  0  0  0  0  0  0  0  0  0  0
  -20.8453  -45.0525   -9.0526 C   0  0  0  0  0  0  0  0  0  0  0  0
  -19.6766  -45.4815   -8.4901 C   0  0  0  0  0  0  0  0  0  0  0  0
  -19.1848  -46.8795   -8.6207 C   0  0  0  0  0  0  0  0  0  0  0  0
  -18.0102  -46.9134   -9.3769 O   0  0  0  0  0  0  0  0  0  0  0  0
  -18.2783  -47.6504  -10.5471 C   0  0  0  0  0  0  0  0  0  0  0  0
  -18.9908  -44.5249   -7.7965 C   0  0  0  0  0  0  0  0  0  0  0  0
  -19.4200  -43.1813   -7.6477 C   0  0  0  0  0  0  0  0  0  0  0  0
  -20.6030  -42.8135   -8.2369 C   0  0  0  0  0  0  0  0  0  0  0  0
  -18.4442  -42.4408   -6.8369 C   0  0  0  0  0  0  0  0  0  0  0  0
  -17.9312  -43.0535   -5.7755 O   0  0  0  0  0  0  0  0  0  0  0  0
  -17.9023  -41.1315   -6.9610 N   0  0  0  0  0  0  0  0  0  0  0  0
  -15.0367  -41.7907  -12.1970 N   0  0  0  0  0  0  0  0  0  0  0  0
  -14.6565  -41.6098  -13.4238 O   0  0  0  0  0  0  0  0  0  0  0  0
  1  2  1  0
  2  3  1  0
  3  4  1  0
  4  5  2  0
  5  6  1  0
  6  7  1  0
  7  8  1  0
  8  9  1  0
  9 10  1  0
 10 11  1  6
 10 12  1  0
 12 13  1  1
 13 14  1  0
 14 15  1  1
 14 16  1  0
 16 17  1  0
 17 18  1  0
 18 19  1  0
 19 20  1  0
 20 21  1  0
 21 22  1  0
 22 23  1  0
 23 24  1  0
 24 25  2  0
 25 26  1  0
 26 27  1  0
 27 28  1  0
 28 29  1  0
 26 30  2  0
 30 31  1  0
 31 32  2  0
 31 33  1  0
 33 34  2  0
 33 35  1  0
  6 36  2  0
 36 37  1  0
 32 24  1  0
 35 12  1  0
 37  4  1  0
M  END
$$$$
