
     RDKit          3D

 37 39  0  0  0  0  0  0  0  0999 V2000
  -11.9292  -35.7370  -14.6033 C   0  0  0  0  0  0  0  0  0  0  0  0
  -12.4543  -37.1315  -14.2568 C   0  0  0  0  0  0  0  0  0  0  0  0
  -12.8843  -37.0875  -12.8198 C   0  0  0  0  0  0  0  0  0  0  0  0
  -13.5403  -38.3741  -12.4311 C   0  0  0  0  0  0  0  0  0  0  0  0
  -13.3236  -38.9488  -11.2025 C   0  0  0  0  0  0  0  0  0  0  0  0
  -14.0698  -40.1010  -11.1823 C   0  0  0  0  0  0  0  0  0  0  0  0
  -14.2152  -41.1139  -10.1056 C   0  0  0  0  0  0  0  0  0  0  0  0
  -15.4786  -41.0603   -9.4581 N   0  0  0  0  0  0  0  0  0  0  0  0
  -15.5626  -40.2712   -8.2684 C   0  0  0  0  0  0  0  0  0  0  0  0
  -16.8297  -39.5475   -8.0377 C   0  0  1  0  0  0  0  0  0  0  0  0
  -17.0111  -38.4048   -8.7962 O   0  0  0  0  0  0  0  0  0  0  0  0
  -18.0479  -40.4420   -7.9602 C   0  0  2  0  0  0  0  0  0  0  0  0
  -19.2660  -40.0005   -8.6138 C   0  0  0  0  0  0  0  0  0  0  0  0
  -20.2539  -39.0946   -8.0404 C   0  0  2  0  0  0  0  0  0  0  0  0
  -20.0194  -37.6025   -8.3274 C   0  0  0  0  0  0  0  0  0  0  0  0
  -20.6642  -39.3136   -6.6142 C   0  0  0  0  0  0  0  0  0  0  0  0
  -22.1376  -39.0291   -6.3691 C   0  0  0  0  0  0  0  0  0  0  0  0
  -23.0192  -40.0622   -7.0012 C   0  0  0  0  0  0  0  0  0  0  0  0
  -23.4158  -41.1737   -6.0258 C   0  0  0  0  0  0  0  0  0  0  0  0
  -24.2988  -42.1721   -6.6827 C   0  0  0  0  0  0  0  0  0  0  0  0
  -23.7936  -43.5592   -6.7476 C   0  0  0  0  0  0  0  0  0  0  0  0
  -23.7689  -44.1997   -8.0864 C   0  0  0  0  0  0  0  0  0  0  0  0
  -22.4380  -44.6305   -8.4587 N   0  0  0  0  0  0  0  0  0  0  0  0
  -21.1565  -44.3970   -7.8750 C   0  0  0  0  0  0  0  0  0  0  0  0
  -20.4305  -45.6156   -7.8406 C   0  0  0  0  0  0  0  0  0  0  0  0
  -19.1661  -45.7409   -7.3386 C   0  0  0  0  0  0  0  0  0  0  0  0
  -18.4317  -47.0346   -7.3177 C   0  0  0  0  0  0  0  0  0  0  0  0
  -18.3622  -47.5336   -6.0143 O   0  0  0  0  0  0  0  0  0  0  0  0
  -19.2812  -48.5967   -5.9158 C   0  0  0  0  0  0  0  0  0  0  0  0
  -18.6249  -44.5828   -6.8562 C   0  0  0  0  0  0  0  0  0  0  0  0
  -19.2866  -43.3283   -6.8575 C   0  0  0  0  0  0  0  0  0  0  0  0
  -20.5553  -43.2693   -7.3758 C   0  0  0  0  0  0  0  0  0  0  0  0
  -18.4127  -42.3115   -6.2572 C   0  0  0  0  0  0  0  0  0  0  0  0
  -17.7219  -42.6519   -5.1745 O   0  0  0  0  0  0  0  0  0  0  0  0
  -18.1352  -40.9634   -6.6163 N   0  0  0  0  0  0  0  0  0  0  0  0
  -14.6809  -40.1603  -12.3665 N   0  0  0  0  0  0  0  0  0  0  0  0
  -14.3562  -39.1333  -13.0892 O   0  0  0  0  0  0  0  0  0  0  0  0
  1  2  1  0
  2  3  1  0
  3  4  1  0
  4  5  2  0
  5  6  1  0
  6  7  1  0
  7  8  1  0
  8  9  1  0
  9 10  1  0
 10 11  1  6
 10 12  1  0
 12 13  1  1
 13 14  1  0
 14 15  1  1
 14 16  1  0
 16 17  1  0
 17 18  1  0
 18 19  1  0
 19 20  1  0
 20 21  1  0
 21 22  1  0
 22 23  1  0
 23 24  1  0
 24 25  2  0
 25 26  1  0
 26 27  1  0
 27 28  1  0
 28 29  1  0
 26 30  2  0
 30 31  1  0
 31 32  2  0
 31 33  1  0
 33 34  2  0
 33 35  1  0
  6 36  2  0
 36 37  1  0
 32 24  1  0
 35 12  1  0
 37  4  1  0
M  END
$$$$
