
     RDKit          3D

 37 39  0  0  0  0  0  0  0  0999 V2000
  -11.9913  -34.7492  -13.4852 C   0  0  0  0  0  0  0  0  0  0  0  0
  -11.6577  -36.2387  -13.5886 C   0  0  0  0  0  0  0  0  0  0  0  0
  -12.8798  -36.9878  -13.1448 C   0  0  0  0  0  0  0  0  0  0  0  0
  -13.0120  -36.9366  -11.6560 C   0  0  0  0  0  0  0  0  0  0  0  0
  -13.4340  -38.0262  -10.9340 C   0  0  0  0  0  0  0  0  0  0  0  0
  -13.4394  -37.6344   -9.6183 C   0  0  0  0  0  0  0  0  0  0  0  0
  -13.8075  -38.4066   -8.4039 C   0  0  0  0  0  0  0  0  0  0  0  0
  -14.1526  -39.7556   -8.6856 N   0  0  0  0  0  0  0  0  0  0  0  0
  -15.5330  -40.0309   -8.9381 C   0  0  0  0  0  0  0  0  0  0  0  0
  -16.5201  -39.2320   -8.1832 C   0  0  1  0  0  0  0  0  0  0  0  0
  -16.3719  -37.8594   -8.2737 O   0  0  0  0  0  0  0  0  0  0  0  0
  -17.9472  -39.7140   -8.3284 C   0  0  2  0  0  0  0  0  0  0  0  0
  -18.9855  -39.0158   -7.5932 C   0  0  0  0  0  0  0  0  0  0  0  0
  -19.3502  -39.2621   -6.2033 C   0  0  2  0  0  0  0  0  0  0  0  0
  -18.5894  -38.4192   -5.1669 C   0  0  0  0  0  0  0  0  0  0  0  0
  -19.4797  -40.6870   -5.7525 C   0  0  0  0  0  0  0  0  0  0  0  0
  -20.6046  -40.8936   -4.7505 C   0  0  0  0  0  0  0  0  0  0  0  0
  -21.9532  -40.7523   -5.3870 C   0  0  0  0  0  0  0  0  0  0  0  0
  -22.5431  -42.0971   -5.8203 C   0  0  0  0  0  0  0  0  0  0  0  0
  -23.8842  -41.9200   -6.4351 C   0  0  0  0  0  0  0  0  0  0  0  0
  -24.0294  -42.3541   -7.8400 C   0  0  0  0  0  0  0  0  0  0  0  0
  -24.5765  -41.3576   -8.7944 C   0  0  0  0  0  0  0  0  0  0  0  0
  -23.6667  -41.0972   -9.8900 N   0  0  0  0  0  0  0  0  0  0  0  0
  -22.3084  -41.4721  -10.1177 C   0  0  0  0  0  0  0  0  0  0  0  0
  -22.1666  -41.9211  -11.4562 C   0  0  0  0  0  0  0  0  0  0  0  0
  -20.9907  -42.3570  -11.9980 C   0  0  0  0  0  0  0  0  0  0  0  0
  -20.8756  -42.8215  -13.4068 C   0  0  0  0  0  0  0  0  0  0  0  0
  -21.3227  -41.8299  -14.2841 O   0  0  0  0  0  0  0  0  0  0  0  0
  -20.1878  -41.1698  -14.7946 C   0  0  0  0  0  0  0  0  0  0  0  0
  -19.9240  -42.3330  -11.1447 C   0  0  0  0  0  0  0  0  0  0  0  0
  -19.9868  -41.8971   -9.7965 C   0  0  0  0  0  0  0  0  0  0  0  0
  -21.1977  -41.4715   -9.3123 C   0  0  0  0  0  0  0  0  0  0  0  0
  -18.6589  -42.0156   -9.1796 C   0  0  0  0  0  0  0  0  0  0  0  0
  -17.9462  -43.1035   -9.4515 O   0  0  0  0  0  0  0  0  0  0  0  0
  -17.9362  -41.1579   -8.3047 N   0  0  0  0  0  0  0  0  0  0  0  0
  -13.0320  -36.3643   -9.6145 N   0  0  0  0  0  0  0  0  0  0  0  0
  -12.7848  -35.9704  -10.8253 O   0  0  0  0  0  0  0  0  0  0  0  0
  1  2  1  0
  2  3  1  0
  3  4  1  0
  4  5  2  0
  5  6  1  0
  6  7  1  0
  7  8  1  0
  8  9  1  0
  9 10  1  0
 10 11  1  6
 10 12  1  0
 12 13  1  1
 13 14  1  0
 14 15  1  1
 14 16  1  0
 16 17  1  0
 17 18  1  0
 18 19  1  0
 19 20  1  0
 20 21  1  0
 21 22  1  0
 22 23  1  0
 23 24  1  0
 24 25  2  0
 25 26  1  0
 26 27  1  0
 27 28  1  0
 28 29  1  0
 26 30  2  0
 30 31  1  0
 31 32  2  0
 31 33  1  0
 33 34  2  0
 33 35  1  0
  6 36  2  0
 36 37  1  0
 32 24  1  0
 35 12  1  0
 37  4  1  0
M  END
$$$$
