
     RDKit          3D

 37 39  0  0  0  0  0  0  0  0999 V2000
  -20.1577  -41.8653    0.4614 C   0  0  0  0  0  0  0  0  0  0  0  0
  -20.5193  -41.2570   -0.8950 C   0  0  0  0  0  0  0  0  0  0  0  0
  -20.0515  -42.2249   -1.9420 C   0  0  0  0  0  0  0  0  0  0  0  0
  -20.4429  -41.7496   -3.3050 C   0  0  0  0  0  0  0  0  0  0  0  0
  -20.2841  -40.4384   -3.6820 C   0  0  0  0  0  0  0  0  0  0  0  0
  -20.7382  -40.3545   -4.9749 C   0  0  0  0  0  0  0  0  0  0  0  0
  -20.8020  -39.1781   -5.8796 C   0  0  0  0  0  0  0  0  0  0  0  0
  -19.5384  -38.5602   -6.0788 N   0  0  0  0  0  0  0  0  0  0  0  0
  -18.6942  -39.1242   -7.0859 C   0  0  0  0  0  0  0  0  0  0  0  0
  -17.4545  -38.3867   -7.4050 C   0  0  1  0  0  0  0  0  0  0  0  0
  -16.5575  -38.2468   -6.3611 O   0  0  0  0  0  0  0  0  0  0  0  0
  -16.8202  -38.7829   -8.7207 C   0  0  2  0  0  0  0  0  0  0  0  0
  -15.3749  -38.7177   -8.8327 C   0  0  0  0  0  0  0  0  0  0  0  0
  -14.6036  -37.5228   -9.1531 C   0  0  2  0  0  0  0  0  0  0  0  0
  -14.1596  -36.6851   -7.9429 C   0  0  0  0  0  0  0  0  0  0  0  0
  -15.0954  -36.6465  -10.2669 C   0  0  0  0  0  0  0  0  0  0  0  0
  -13.9686  -36.0433  -11.0907 C   0  0  0  0  0  0  0  0  0  0  0  0
  -13.2737  -37.0738  -11.9268 C   0  0  0  0  0  0  0  0  0  0  0  0
  -13.8272  -37.1457  -13.3525 C   0  0  0  0  0  0  0  0  0  0  0  0
  -13.1072  -38.1679  -14.1552 C   0  0  0  0  0  0  0  0  0  0  0  0
  -13.9176  -39.2862  -14.6807 C   0  0  0  0  0  0  0  0  0  0  0  0
  -13.4429  -40.6583  -14.3724 C   0  0  0  0  0  0  0  0  0  0  0  0
  -14.4377  -41.4303  -13.6582 N   0  0  0  0  0  0  0  0  0  0  0  0
  -15.6799  -41.0690  -13.0549 C   0  0  0  0  0  0  0  0  0  0  0  0
  -16.6625  -42.0340  -13.3964 C   0  0  0  0  0  0  0  0  0  0  0  0
  -17.9636  -41.9827  -12.9832 C   0  0  0  0  0  0  0  0  0  0  0  0
  -18.9699  -43.0120  -13.3592 C   0  0  0  0  0  0  0  0  0  0  0  0
  -19.8403  -42.5095  -14.3301 O   0  0  0  0  0  0  0  0  0  0  0  0
  -19.2229  -42.6801  -15.5847 C   0  0  0  0  0  0  0  0  0  0  0  0
  -18.2712  -40.9105  -12.1943 C   0  0  0  0  0  0  0  0  0  0  0  0
  -17.3453  -39.9075  -11.8095 C   0  0  0  0  0  0  0  0  0  0  0  0
  -16.0534  -40.0166  -12.2579 C   0  0  0  0  0  0  0  0  0  0  0  0
  -18.0226  -38.9089  -10.9716 C   0  0  0  0  0  0  0  0  0  0  0  0
  -19.2434  -38.5269  -11.3308 O   0  0  0  0  0  0  0  0  0  0  0  0
  -17.6212  -38.2303   -9.7877 N   0  0  0  0  0  0  0  0  0  0  0  0
  -21.1365  -41.5848   -5.3018 N   0  0  0  0  0  0  0  0  0  0  0  0
  -20.9546  -42.3937   -4.3043 O   0  0  0  0  0  0  0  0  0  0  0  0
  1  2  1  0
  2  3  1  0
  3  4  1  0
  4  5  2  0
  5  6  1  0
  6  7  1  0
  7  8  1  0
  8  9  1  0
  9 10  1  0
 10 11  1  1
 10 12  1  0
 12 13  1  1
 13 14  1  0
 14 15  1  1
 14 16  1  0
 16 17  1  0
 17 18  1  0
 18 19  1  0
 19 20  1  0
 20 21  1  0
 21 22  1  0
 22 23  1  0
 23 24  1  0
 24 25  2  0
 25 26  1  0
 26 27  1  0
 27 28  1  0
 28 29  1  0
 26 30  2  0
 30 31  1  0
 31 32  2  0
 31 33  1  0
 33 34  2  0
 33 35  1  0
  6 36  2  0
 36 37  1  0
 32 24  1  0
 35 12  1  0
 37  4  1  0
M  END
$$$$
