
     RDKit          3D

 37 39  0  0  0  0  0  0  0  0999 V2000
  -20.5295  -41.6928   -0.0867 C   0  0  0  0  0  0  0  0  0  0  0  0
  -20.9020  -41.3918   -1.5397 C   0  0  0  0  0  0  0  0  0  0  0  0
  -20.7943  -42.6861   -2.2912 C   0  0  0  0  0  0  0  0  0  0  0  0
  -21.1057  -42.4770   -3.7390 C   0  0  0  0  0  0  0  0  0  0  0  0
  -20.3624  -43.0744   -4.7276 C   0  0  0  0  0  0  0  0  0  0  0  0
  -20.9158  -42.6724   -5.9180 C   0  0  0  0  0  0  0  0  0  0  0  0
  -20.5175  -43.0129   -7.3079 C   0  0  0  0  0  0  0  0  0  0  0  0
  -19.6839  -42.0294   -7.9046 N   0  0  0  0  0  0  0  0  0  0  0  0
  -19.6392  -40.7483   -7.2706 C   0  0  0  0  0  0  0  0  0  0  0  0
  -19.4920  -39.5732   -8.1538 C   0  0  1  0  0  0  0  0  0  0  0  0
  -20.0450  -38.3971   -7.6797 O   0  0  0  0  0  0  0  0  0  0  0  0
  -18.1089  -39.4148   -8.7474 C   0  0  2  0  0  0  0  0  0  0  0  0
  -17.3651  -38.2070   -8.4412 C   0  0  0  0  0  0  0  0  0  0  0  0
  -17.4941  -36.9335   -9.1389 C   0  0  2  0  0  0  0  0  0  0  0  0
  -18.5425  -35.9710   -8.5575 C   0  0  0  0  0  0  0  0  0  0  0  0
  -17.5519  -36.9559  -10.6377 C   0  0  0  0  0  0  0  0  0  0  0  0
  -16.8340  -35.7783  -11.2780 C   0  0  0  0  0  0  0  0  0  0  0  0
  -15.3474  -35.8792  -11.1246 C   0  0  0  0  0  0  0  0  0  0  0  0
  -14.6726  -36.5207  -12.3401 C   0  0  0  0  0  0  0  0  0  0  0  0
  -13.1997  -36.5929  -12.1584 C   0  0  0  0  0  0  0  0  0  0  0  0
  -12.5989  -37.9429  -12.1640 C   0  0  0  0  0  0  0  0  0  0  0  0
  -11.7430  -38.2986  -11.0046 C   0  0  0  0  0  0  0  0  0  0  0  0
  -12.2259  -39.4750  -10.3127 N   0  0  0  0  0  0  0  0  0  0  0  0
  -13.4355  -40.2244  -10.4255 C   0  0  0  0  0  0  0  0  0  0  0  0
  -13.1275  -41.6094  -10.4287 C   0  0  0  0  0  0  0  0  0  0  0  0
  -14.0609  -42.6021  -10.5277 C   0  0  0  0  0  0  0  0  0  0  0  0
  -13.7044  -44.0465  -10.5278 C   0  0  0  0  0  0  0  0  0  0  0  0
  -12.8664  -44.3408  -11.6066 O   0  0  0  0  0  0  0  0  0  0  0  0
  -11.5389  -44.3058  -11.1365 C   0  0  0  0  0  0  0  0  0  0  0  0
  -15.3518  -42.1656  -10.6261 C   0  0  0  0  0  0  0  0  0  0  0  0
  -15.7377  -40.8008  -10.6282 C   0  0  0  0  0  0  0  0  0  0  0  0
  -14.7522  -39.8521  -10.5259 C   0  0  0  0  0  0  0  0  0  0  0  0
  -17.1978  -40.7034  -10.7568 C   0  0  0  0  0  0  0  0  0  0  0  0
  -17.7987  -41.5235  -11.6122 O   0  0  0  0  0  0  0  0  0  0  0  0
  -18.1557  -39.8684  -10.1177 N   0  0  0  0  0  0  0  0  0  0  0  0
  -21.9356  -41.8756   -5.5951 N   0  0  0  0  0  0  0  0  0  0  0  0
  -22.0318  -41.7724   -4.3058 O   0  0  0  0  0  0  0  0  0  0  0  0
  1  2  1  0
  2  3  1  0
  3  4  1  0
  4  5  2  0
  5  6  1  0
  6  7  1  0
  7  8  1  0
  8  9  1  0
  9 10  1  0
 10 11  1  1
 10 12  1  0
 12 13  1  6
 13 14  1  0
 14 15  1  1
 14 16  1  0
 16 17  1  0
 17 18  1  0
 18 19  1  0
 19 20  1  0
 20 21  1  0
 21 22  1  0
 22 23  1  0
 23 24  1  0
 24 25  2  0
 25 26  1  0
 26 27  1  0
 27 28  1  0
 28 29  1  0
 26 30  2  0
 30 31  1  0
 31 32  2  0
 31 33  1  0
 33 34  2  0
 33 35  1  0
  6 36  2  0
 36 37  1  0
 32 24  1  0
 35 12  1  0
 37  4  1  0
M  END
$$$$
