
     RDKit          3D

 37 39  0  0  0  0  0  0  0  0999 V2000
  -20.3262  -42.3181   -1.1856 C   0  0  0  0  0  0  0  0  0  0  0  0
  -21.0616  -42.2312   -2.5243 C   0  0  0  0  0  0  0  0  0  0  0  0
  -21.1381  -40.7760   -2.8826 C   0  0  0  0  0  0  0  0  0  0  0  0
  -21.6413  -40.6080   -4.2809 C   0  0  0  0  0  0  0  0  0  0  0  0
  -20.9609  -39.8515   -5.2036 C   0  0  0  0  0  0  0  0  0  0  0  0
  -21.6931  -39.9131   -6.3633 C   0  0  0  0  0  0  0  0  0  0  0  0
  -21.4281  -39.2841   -7.6826 C   0  0  0  0  0  0  0  0  0  0  0  0
  -20.1669  -38.6333   -7.7456 N   0  0  0  0  0  0  0  0  0  0  0  0
  -19.0422  -39.4365   -8.1130 C   0  0  0  0  0  0  0  0  0  0  0  0
  -17.7418  -38.7459   -8.2333 C   0  0  1  0  0  0  0  0  0  0  0  0
  -17.3057  -38.0918   -7.0948 O   0  0  0  0  0  0  0  0  0  0  0  0
  -16.6726  -39.5574   -8.9320 C   0  0  2  0  0  0  0  0  0  0  0  0
  -15.2998  -39.0931   -8.8567 C   0  0  0  0  0  0  0  0  0  0  0  0
  -14.6967  -38.0895   -9.7255 C   0  0  2  0  0  0  0  0  0  0  0  0
  -14.8062  -36.6395   -9.2264 C   0  0  0  0  0  0  0  0  0  0  0  0
  -14.9716  -38.1776  -11.1976 C   0  0  0  0  0  0  0  0  0  0  0  0
  -13.7745  -37.7878  -12.0502 C   0  0  0  0  0  0  0  0  0  0  0  0
  -12.6816  -38.8099  -11.9801 C   0  0  0  0  0  0  0  0  0  0  0  0
  -12.7466  -39.8206  -13.1284 C   0  0  0  0  0  0  0  0  0  0  0  0
  -11.6421  -40.8099  -13.0337 C   0  0  0  0  0  0  0  0  0  0  0  0
  -12.0350  -42.2258  -12.8784 C   0  0  0  0  0  0  0  0  0  0  0  0
  -11.4385  -42.9637  -11.7369 C   0  0  0  0  0  0  0  0  0  0  0  0
  -12.4480  -43.5000  -10.8487 N   0  0  0  0  0  0  0  0  0  0  0  0
  -13.8594  -43.3014  -10.7707 C   0  0  0  0  0  0  0  0  0  0  0  0
  -14.4975  -44.5556  -10.5888 C   0  0  0  0  0  0  0  0  0  0  0  0
  -15.8494  -44.7192  -10.4792 C   0  0  0  0  0  0  0  0  0  0  0  0
  -16.4874  -46.0496  -10.2885 C   0  0  0  0  0  0  0  0  0  0  0  0
  -16.7425  -46.6486  -11.5250 O   0  0  0  0  0  0  0  0  0  0  0  0
  -15.8472  -47.7267  -11.6686 C   0  0  0  0  0  0  0  0  0  0  0  0
  -16.5736  -43.5633  -10.5573 C   0  0  0  0  0  0  0  0  0  0  0  0
  -16.0085  -42.2748  -10.7364 C   0  0  0  0  0  0  0  0  0  0  0  0
  -14.6440  -42.1781  -10.8397 C   0  0  0  0  0  0  0  0  0  0  0  0
  -17.0798  -41.2708  -10.7833 C   0  0  0  0  0  0  0  0  0  0  0  0
  -18.1785  -41.5712  -11.4671 O   0  0  0  0  0  0  0  0  0  0  0  0
  -17.1921  -39.9720  -10.2141 N   0  0  0  0  0  0  0  0  0  0  0  0
  -22.7478  -40.6819   -6.0881 N   0  0  0  0  0  0  0  0  0  0  0  0
  -22.6999  -41.0822   -4.8552 O   0  0  0  0  0  0  0  0  0  0  0  0
  1  2  1  0
  2  3  1  0
  3  4  1  0
  4  5  2  0
  5  6  1  0
  6  7  1  0
  7  8  1  0
  8  9  1  0
  9 10  1  0
 10 11  1  1
 10 12  1  0
 12 13  1  6
 13 14  1  0
 14 15  1  1
 14 16  1  0
 16 17  1  0
 17 18  1  0
 18 19  1  0
 19 20  1  0
 20 21  1  0
 21 22  1  0
 22 23  1  0
 23 24  1  0
 24 25  2  0
 25 26  1  0
 26 27  1  0
 27 28  1  0
 28 29  1  0
 26 30  2  0
 30 31  1  0
 31 32  2  0
 31 33  1  0
 33 34  2  0
 33 35  1  0
  6 36  2  0
 36 37  1  0
 32 24  1  0
 35 12  1  0
 37  4  1  0
M  END
$$$$
