
     RDKit          3D

 37 39  0  0  0  0  0  0  0  0999 V2000
  -10.9585  -35.9696  -14.6862 C   0  0  0  0  0  0  0  0  0  0  0  0
  -12.0318  -35.6304  -13.6501 C   0  0  0  0  0  0  0  0  0  0  0  0
  -12.1573  -36.8246  -12.7501 C   0  0  0  0  0  0  0  0  0  0  0  0
  -13.4084  -36.7356  -11.9355 C   0  0  0  0  0  0  0  0  0  0  0  0
  -14.0588  -37.8612  -11.4921 C   0  0  0  0  0  0  0  0  0  0  0  0
  -15.1508  -37.4192  -10.7871 C   0  0  0  0  0  0  0  0  0  0  0  0
  -16.2026  -38.1998  -10.0865 C   0  0  0  0  0  0  0  0  0  0  0  0
  -15.9291  -38.3875   -8.7052 N   0  0  0  0  0  0  0  0  0  0  0  0
  -15.3952  -39.6564   -8.3180 C   0  0  0  0  0  0  0  0  0  0  0  0
  -16.1930  -40.8493   -8.6688 C   0  0  1  0  0  0  0  0  0  0  0  0
  -15.5446  -42.0634   -8.5288 O   0  0  0  0  0  0  0  0  0  0  0  0
  -17.6045  -40.8319   -8.1232 C   0  0  2  0  0  0  0  0  0  0  0  0
  -17.8756  -41.5611   -6.8982 C   0  0  0  0  0  0  0  0  0  0  0  0
  -18.1685  -42.9865   -6.8087 C   0  0  2  0  0  0  0  0  0  0  0  0
  -16.9438  -43.8968   -6.6218 C   0  0  0  0  0  0  0  0  0  0  0  0
  -19.1305  -43.5700   -7.8009 C   0  0  0  0  0  0  0  0  0  0  0  0
  -20.0179  -44.6507   -7.2037 C   0  0  0  0  0  0  0  0  0  0  0  0
  -21.0220  -44.0844   -6.2473 C   0  0  0  0  0  0  0  0  0  0  0  0
  -22.3748  -43.8087   -6.9092 C   0  0  0  0  0  0  0  0  0  0  0  0
  -23.3481  -43.2603   -5.9296 C   0  0  0  0  0  0  0  0  0  0  0  0
  -23.8800  -41.9109   -6.2116 C   0  0  0  0  0  0  0  0  0  0  0  0
  -23.7594  -40.9047   -5.1270 C   0  0  0  0  0  0  0  0  0  0  0  0
  -23.0114  -39.7388   -5.5474 N   0  0  0  0  0  0  0  0  0  0  0  0
  -22.2376  -39.4663   -6.7155 C   0  0  0  0  0  0  0  0  0  0  0  0
  -22.5533  -38.1675   -7.1916 C   0  0  0  0  0  0  0  0  0  0  0  0
  -21.9898  -37.5988   -8.2987 C   0  0  0  0  0  0  0  0  0  0  0  0
  -22.3429  -36.2331   -8.7715 C   0  0  0  0  0  0  0  0  0  0  0  0
  -21.5020  -35.2829   -8.1860 O   0  0  0  0  0  0  0  0  0  0  0  0
  -20.4365  -35.0502   -9.0776 C   0  0  0  0  0  0  0  0  0  0  0  0
  -21.0731  -38.3826   -8.9405 C   0  0  0  0  0  0  0  0  0  0  0  0
  -20.7045  -39.6876   -8.5250 C   0  0  0  0  0  0  0  0  0  0  0  0
  -21.3071  -40.2018   -7.4051 C   0  0  0  0  0  0  0  0  0  0  0  0
  -19.7036  -40.2337   -9.4513 C   0  0  0  0  0  0  0  0  0  0  0  0
  -19.8820  -40.0190  -10.7503 O   0  0  0  0  0  0  0  0  0  0  0  0
  -18.5151  -40.9842   -9.2336 N   0  0  0  0  0  0  0  0  0  0  0  0
  -15.1041  -36.0872  -10.8402 N   0  0  0  0  0  0  0  0  0  0  0  0
  -14.0696  -35.7027  -11.5217 O   0  0  0  0  0  0  0  0  0  0  0  0
  1  2  1  0
  2  3  1  0
  3  4  1  0
  4  5  2  0
  5  6  1  0
  6  7  1  0
  7  8  1  0
  8  9  1  0
  9 10  1  0
 10 11  1  1
 10 12  1  0
 12 13  1  1
 13 14  1  0
 14 15  1  6
 14 16  1  0
 16 17  1  0
 17 18  1  0
 18 19  1  0
 19 20  1  0
 20 21  1  0
 21 22  1  0
 22 23  1  0
 23 24  1  0
 24 25  2  0
 25 26  1  0
 26 27  1  0
 27 28  1  0
 28 29  1  0
 26 30  2  0
 30 31  1  0
 31 32  2  0
 31 33  1  0
 33 34  2  0
 33 35  1  0
  6 36  2  0
 36 37  1  0
 32 24  1  0
 35 12  1  0
 37  4  1  0
M  END
$$$$
