
     RDKit          3D

 37 39  0  0  0  0  0  0  0  0999 V2000
  -14.7114  -34.4080  -12.4221 C   0  0  0  0  0  0  0  0  0  0  0  0
  -13.2415  -34.8263  -12.4911 C   0  0  0  0  0  0  0  0  0  0  0  0
  -13.2204  -36.2647  -12.9184 C   0  0  0  0  0  0  0  0  0  0  0  0
  -13.0357  -37.1589  -11.7339 C   0  0  0  0  0  0  0  0  0  0  0  0
  -13.5669  -38.4251  -11.6996 C   0  0  0  0  0  0  0  0  0  0  0  0
  -13.2106  -38.9565  -10.4849 C   0  0  0  0  0  0  0  0  0  0  0  0
  -13.5123  -40.2940   -9.9135 C   0  0  0  0  0  0  0  0  0  0  0  0
  -14.3776  -40.2361   -8.7883 N   0  0  0  0  0  0  0  0  0  0  0  0
  -15.7718  -40.0594   -9.0530 C   0  0  0  0  0  0  0  0  0  0  0  0
  -16.6167  -39.6367   -7.9172 C   0  0  1  0  0  0  0  0  0  0  0  0
  -16.7845  -38.2709   -7.7738 O   0  0  0  0  0  0  0  0  0  0  0  0
  -17.8902  -40.4392   -7.7610 C   0  0  2  0  0  0  0  0  0  0  0  0
  -19.1487  -39.8022   -8.1020 C   0  0  0  0  0  0  0  0  0  0  0  0
  -19.9274  -38.9402   -7.2210 C   0  0  2  0  0  0  0  0  0  0  0  0
  -19.5918  -37.4423   -7.3056 C   0  0  0  0  0  0  0  0  0  0  0  0
  -20.1124  -39.3741   -5.7970 C   0  0  0  0  0  0  0  0  0  0  0  0
  -21.4864  -39.0294   -5.2443 C   0  0  0  0  0  0  0  0  0  0  0  0
  -22.5634  -39.8688   -5.8602 C   0  0  0  0  0  0  0  0  0  0  0  0
  -22.9030  -41.1014   -5.0178 C   0  0  0  0  0  0  0  0  0  0  0  0
  -23.9820  -41.9023   -5.6519 C   0  0  0  0  0  0  0  0  0  0  0  0
  -23.6407  -43.2900   -6.0275 C   0  0  0  0  0  0  0  0  0  0  0  0
  -23.9076  -43.6871   -7.4327 C   0  0  0  0  0  0  0  0  0  0  0  0
  -22.7098  -44.1428   -8.1059 N   0  0  0  0  0  0  0  0  0  0  0  0
  -21.3313  -44.1094   -7.7371 C   0  0  0  0  0  0  0  0  0  0  0  0
  -20.7395  -45.3653   -8.0301 C   0  0  0  0  0  0  0  0  0  0  0  0
  -19.4285  -45.6686   -7.7944 C   0  0  0  0  0  0  0  0  0  0  0  0
  -18.8384  -46.9965   -8.1140 C   0  0  0  0  0  0  0  0  0  0  0  0
  -17.7944  -46.8567   -9.0323 O   0  0  0  0  0  0  0  0  0  0  0  0
  -17.0204  -48.0325   -8.9793 C   0  0  0  0  0  0  0  0  0  0  0  0
  -18.6974  -44.6554   -7.2417 C   0  0  0  0  0  0  0  0  0  0  0  0
  -19.2168  -43.3749   -6.9227 C   0  0  0  0  0  0  0  0  0  0  0  0
  -20.5417  -43.1333   -7.1838 C   0  0  0  0  0  0  0  0  0  0  0  0
  -18.1544  -42.5453   -6.3387 C   0  0  0  0  0  0  0  0  0  0  0  0
  -17.3303  -43.1192   -5.4688 O   0  0  0  0  0  0  0  0  0  0  0  0
  -17.8036  -41.1793   -6.5239 N   0  0  0  0  0  0  0  0  0  0  0  0
  -12.5028  -38.0100   -9.8666 N   0  0  0  0  0  0  0  0  0  0  0  0
  -12.4105  -36.9574  -10.6187 O   0  0  0  0  0  0  0  0  0  0  0  0
  1  2  1  0
  2  3  1  0
  3  4  1  0
  4  5  2  0
  5  6  1  0
  6  7  1  0
  7  8  1  0
  8  9  1  0
  9 10  1  0
 10 11  1  6
 10 12  1  0
 12 13  1  1
 13 14  1  0
 14 15  1  1
 14 16  1  0
 16 17  1  0
 17 18  1  0
 18 19  1  0
 19 20  1  0
 20 21  1  0
 21 22  1  0
 22 23  1  0
 23 24  1  0
 24 25  2  0
 25 26  1  0
 26 27  1  0
 27 28  1  0
 28 29  1  0
 26 30  2  0
 30 31  1  0
 31 32  2  0
 31 33  1  0
 33 34  2  0
 33 35  1  0
  6 36  2  0
 36 37  1  0
 32 24  1  0
 35 12  1  0
 37  4  1  0
M  END
$$$$
