
     RDKit          3D

 37 39  0  0  0  0  0  0  0  0999 V2000
  -11.2149  -44.6069  -12.9513 C   0  0  0  0  0  0  0  0  0  0  0  0
  -11.4215  -43.8297  -11.6498 C   0  0  0  0  0  0  0  0  0  0  0  0
  -11.3617  -42.3722  -12.0019 C   0  0  0  0  0  0  0  0  0  0  0  0
  -11.6799  -41.5325  -10.8059 C   0  0  0  0  0  0  0  0  0  0  0  0
  -12.4893  -40.4266  -10.8990 C   0  0  0  0  0  0  0  0  0  0  0  0
  -12.5670  -39.9018   -9.6328 C   0  0  0  0  0  0  0  0  0  0  0  0
  -13.3055  -38.7075   -9.1485 C   0  0  0  0  0  0  0  0  0  0  0  0
  -14.5722  -39.0254   -8.5895 N   0  0  0  0  0  0  0  0  0  0  0  0
  -14.6866  -38.9561   -7.1657 C   0  0  0  0  0  0  0  0  0  0  0  0
  -16.0235  -39.2136   -6.5919 C   0  0  1  0  0  0  0  0  0  0  0  0
  -16.3600  -38.4433   -5.4931 O   0  0  0  0  0  0  0  0  0  0  0  0
  -17.1246  -39.3415   -7.6221 C   0  0  2  0  0  0  0  0  0  0  0  0
  -18.3293  -38.5532   -7.4402 C   0  0  0  0  0  0  0  0  0  0  0  0
  -19.4652  -38.9234   -6.6046 C   0  0  2  0  0  0  0  0  0  0  0  0
  -19.3929  -38.4379   -5.1477 C   0  0  0  0  0  0  0  0  0  0  0  0
  -19.9623  -40.3367   -6.6802 C   0  0  0  0  0  0  0  0  0  0  0  0
  -21.4748  -40.4419   -6.5642 C   0  0  0  0  0  0  0  0  0  0  0  0
  -22.1672  -39.9114   -7.7820 C   0  0  0  0  0  0  0  0  0  0  0  0
  -22.5037  -41.0105   -8.7934 C   0  0  0  0  0  0  0  0  0  0  0  0
  -23.1997  -40.4504   -9.9806 C   0  0  0  0  0  0  0  0  0  0  0  0
  -22.5242  -40.6211  -11.2838 C   0  0  0  0  0  0  0  0  0  0  0  0
  -22.3100  -39.3943  -12.0914 C   0  0  0  0  0  0  0  0  0  0  0  0
  -20.9099  -39.1756  -12.3874 N   0  0  0  0  0  0  0  0  0  0  0  0
  -19.7197  -39.8008  -11.9077 C   0  0  0  0  0  0  0  0  0  0  0  0
  -18.8549  -40.0593  -13.0025 C   0  0  0  0  0  0  0  0  0  0  0  0
  -17.6307  -40.6548  -12.8884 C   0  0  0  0  0  0  0  0  0  0  0  0
  -16.7471  -40.9115  -14.0575 C   0  0  0  0  0  0  0  0  0  0  0  0
  -15.7620  -41.8459  -13.7271 O   0  0  0  0  0  0  0  0  0  0  0  0
  -15.7837  -42.8535  -14.7113 C   0  0  0  0  0  0  0  0  0  0  0  0
  -17.2779  -40.9974  -11.6137 C   0  0  0  0  0  0  0  0  0  0  0  0
  -18.0863  -40.7705  -10.4707 C   0  0  0  0  0  0  0  0  0  0  0  0
  -19.3053  -40.1682  -10.6525 C   0  0  0  0  0  0  0  0  0  0  0  0
  -17.3969  -41.2716   -9.2741 C   0  0  0  0  0  0  0  0  0  0  0  0
  -16.7617  -42.4347   -9.3687 O   0  0  0  0  0  0  0  0  0  0  0  0
  -17.2583  -40.7386   -7.9626 N   0  0  0  0  0  0  0  0  0  0  0  0
  -11.8214  -40.6958   -8.8628 N   0  0  0  0  0  0  0  0  0  0  0  0
  -11.3064  -41.6517   -9.5724 O   0  0  0  0  0  0  0  0  0  0  0  0
  1  2  1  0
  2  3  1  0
  3  4  1  0
  4  5  2  0
  5  6  1  0
  6  7  1  0
  7  8  1  0
  8  9  1  0
  9 10  1  0
 10 11  1  1
 10 12  1  0
 12 13  1  1
 13 14  1  0
 14 15  1  1
 14 16  1  0
 16 17  1  0
 17 18  1  0
 18 19  1  0
 19 20  1  0
 20 21  1  0
 21 22  1  0
 22 23  1  0
 23 24  1  0
 24 25  2  0
 25 26  1  0
 26 27  1  0
 27 28  1  0
 28 29  1  0
 26 30  2  0
 30 31  1  0
 31 32  2  0
 31 33  1  0
 33 34  2  0
 33 35  1  0
  6 36  2  0
 36 37  1  0
 32 24  1  0
 35 12  1  0
 37  4  1  0
M  END
$$$$
