
     RDKit          3D

 37 39  0  0  0  0  0  0  0  0999 V2000
  -10.0922  -34.2587  -12.4349 C   0  0  0  0  0  0  0  0  0  0  0  0
  -11.5528  -34.7081  -12.3623 C   0  0  0  0  0  0  0  0  0  0  0  0
  -11.5838  -35.9434  -11.5109 C   0  0  0  0  0  0  0  0  0  0  0  0
  -12.9757  -36.4837  -11.4247 C   0  0  0  0  0  0  0  0  0  0  0  0
  -13.2188  -37.8325  -11.3345 C   0  0  0  0  0  0  0  0  0  0  0  0
  -14.5832  -37.9720  -11.2733 C   0  0  0  0  0  0  0  0  0  0  0  0
  -15.4031  -39.2061  -11.1667 C   0  0  0  0  0  0  0  0  0  0  0  0
  -15.7010  -39.5619   -9.8240 N   0  0  0  0  0  0  0  0  0  0  0  0
  -16.9357  -39.0809   -9.2861 C   0  0  0  0  0  0  0  0  0  0  0  0
  -17.2854  -39.5255   -7.9213 C   0  0  1  0  0  0  0  0  0  0  0  0
  -17.3693  -38.5242   -6.9703 O   0  0  0  0  0  0  0  0  0  0  0  0
  -18.4167  -40.5293   -7.8685 C   0  0  2  0  0  0  0  0  0  0  0  0
  -19.7216  -40.1185   -8.3525 C   0  0  0  0  0  0  0  0  0  0  0  0
  -20.7197  -39.3887   -7.5801 C   0  0  2  0  0  0  0  0  0  0  0  0
  -20.6315  -37.8569   -7.6764 C   0  0  0  0  0  0  0  0  0  0  0  0
  -20.9761  -39.8286   -6.1691 C   0  0  0  0  0  0  0  0  0  0  0  0
  -22.4380  -39.7136   -5.7669 C   0  0  0  0  0  0  0  0  0  0  0  0
  -23.2907  -40.7308   -6.4612 C   0  0  0  0  0  0  0  0  0  0  0  0
  -23.5054  -41.9917   -5.6197 C   0  0  0  0  0  0  0  0  0  0  0  0
  -24.3645  -42.9716   -6.3335 C   0  0  0  0  0  0  0  0  0  0  0  0
  -23.7600  -44.2867   -6.6308 C   0  0  0  0  0  0  0  0  0  0  0  0
  -23.8103  -44.7416   -8.0428 C   0  0  0  0  0  0  0  0  0  0  0  0
  -22.4902  -44.9975   -8.5791 N   0  0  0  0  0  0  0  0  0  0  0  0
  -21.1821  -44.7271   -8.0759 C   0  0  0  0  0  0  0  0  0  0  0  0
  -20.3624  -45.8688   -8.2701 C   0  0  0  0  0  0  0  0  0  0  0  0
  -19.0506  -45.9434   -7.8958 C   0  0  0  0  0  0  0  0  0  0  0  0
  -18.2178  -47.1567   -8.1144 C   0  0  0  0  0  0  0  0  0  0  0  0
  -17.8425  -47.7163   -6.8901 O   0  0  0  0  0  0  0  0  0  0  0  0
  -17.7381  -49.1091   -7.0728 C   0  0  0  0  0  0  0  0  0  0  0  0
  -18.5596  -44.8141   -7.3040 C   0  0  0  0  0  0  0  0  0  0  0  0
  -19.3153  -43.6354   -7.0775 C   0  0  0  0  0  0  0  0  0  0  0  0
  -20.6277  -43.6244   -7.4767 C   0  0  0  0  0  0  0  0  0  0  0  0
  -18.4719  -42.6307   -6.4162 C   0  0  0  0  0  0  0  0  0  0  0  0
  -17.6582  -43.0457   -5.4514 O   0  0  0  0  0  0  0  0  0  0  0  0
  -18.3363  -41.2277   -6.6070 N   0  0  0  0  0  0  0  0  0  0  0  0
  -15.0789  -36.7349  -11.3282 N   0  0  0  0  0  0  0  0  0  0  0  0
  -14.1157  -35.8707  -11.4174 O   0  0  0  0  0  0  0  0  0  0  0  0
  1  2  1  0
  2  3  1  0
  3  4  1  0
  4  5  2  0
  5  6  1  0
  6  7  1  0
  7  8  1  0
  8  9  1  0
  9 10  1  0
 10 11  1  1
 10 12  1  0
 12 13  1  1
 13 14  1  0
 14 15  1  1
 14 16  1  0
 16 17  1  0
 17 18  1  0
 18 19  1  0
 19 20  1  0
 20 21  1  0
 21 22  1  0
 22 23  1  0
 23 24  1  0
 24 25  2  0
 25 26  1  0
 26 27  1  0
 27 28  1  0
 28 29  1  0
 26 30  2  0
 30 31  1  0
 31 32  2  0
 31 33  1  0
 33 34  2  0
 33 35  1  0
  6 36  2  0
 36 37  1  0
 32 24  1  0
 35 12  1  0
 37  4  1  0
M  END
$$$$
