
     RDKit          3D

 37 39  0  0  0  0  0  0  0  0999 V2000
  -24.5758  -40.4696   -3.3382 C   0  0  0  0  0  0  0  0  0  0  0  0
  -23.1185  -40.8126   -3.6532 C   0  0  0  0  0  0  0  0  0  0  0  0
  -23.1312  -42.1182   -4.3928 C   0  0  0  0  0  0  0  0  0  0  0  0
  -21.7419  -42.5111   -4.7830 C   0  0  0  0  0  0  0  0  0  0  0  0
  -21.4288  -42.8570   -6.0749 C   0  0  0  0  0  0  0  0  0  0  0  0
  -20.0889  -43.1558   -6.0768 C   0  0  0  0  0  0  0  0  0  0  0  0
  -19.2188  -43.5887   -7.2002 C   0  0  0  0  0  0  0  0  0  0  0  0
  -19.0097  -42.5689   -8.1670 N   0  0  0  0  0  0  0  0  0  0  0  0
  -17.7267  -41.9374   -8.1737 C   0  0  0  0  0  0  0  0  0  0  0  0
  -17.7002  -40.4811   -7.9265 C   0  0  1  0  0  0  0  0  0  0  0  0
  -17.7962  -40.0989   -6.6003 O   0  0  0  0  0  0  0  0  0  0  0  0
  -16.6405  -39.7394   -8.7120 C   0  0  2  0  0  0  0  0  0  0  0  0
  -16.5801  -38.2948   -8.5883 C   0  0  0  0  0  0  0  0  0  0  0  0
  -17.3904  -37.3459   -9.3424 C   0  0  2  0  0  0  0  0  0  0  0  0
  -18.7258  -36.9582   -8.6867 C   0  0  0  0  0  0  0  0  0  0  0  0
  -17.5578  -37.5791  -10.8148 C   0  0  0  0  0  0  0  0  0  0  0  0
  -17.5860  -36.2904  -11.6214 C   0  0  0  0  0  0  0  0  0  0  0  0
  -16.2427  -35.6292  -11.6659 C   0  0  0  0  0  0  0  0  0  0  0  0
  -15.4446  -36.0018  -12.9182 C   0  0  0  0  0  0  0  0  0  0  0  0
  -14.1250  -35.3190  -12.9347 C   0  0  0  0  0  0  0  0  0  0  0  0
  -12.9309  -36.1893  -12.9354 C   0  0  0  0  0  0  0  0  0  0  0  0
  -11.9161  -35.9327  -11.8830 C   0  0  0  0  0  0  0  0  0  0  0  0
  -11.6817  -37.0986  -11.0575 N   0  0  0  0  0  0  0  0  0  0  0  0
  -12.3564  -38.3524  -10.9558 C   0  0  0  0  0  0  0  0  0  0  0  0
  -11.3964  -39.3964  -10.9120 C   0  0  0  0  0  0  0  0  0  0  0  0
  -11.7100  -40.7228  -10.8188 C   0  0  0  0  0  0  0  0  0  0  0  0
  -10.6783  -41.7937  -10.7745 C   0  0  0  0  0  0  0  0  0  0  0  0
  -10.2313  -42.0924  -12.0644 O   0  0  0  0  0  0  0  0  0  0  0  0
   -9.1375  -41.2492  -12.3419 C   0  0  0  0  0  0  0  0  0  0  0  0
  -13.0486  -40.9918  -10.7682 C   0  0  0  0  0  0  0  0  0  0  0  0
  -14.0659  -40.0043  -10.8054 C   0  0  0  0  0  0  0  0  0  0  0  0
  -13.6850  -38.6898  -10.8996 C   0  0  0  0  0  0  0  0  0  0  0  0
  -15.3824  -40.6526  -10.7398 C   0  0  0  0  0  0  0  0  0  0  0  0
  -15.5616  -41.7605  -11.4508 O   0  0  0  0  0  0  0  0  0  0  0  0
  -16.5709  -40.3232  -10.0311 N   0  0  0  0  0  0  0  0  0  0  0  0
  -19.6744  -42.9798   -4.8212 N   0  0  0  0  0  0  0  0  0  0  0  0
  -20.6633  -42.5997   -4.0729 O   0  0  0  0  0  0  0  0  0  0  0  0
  1  2  1  0
  2  3  1  0
  3  4  1  0
  4  5  2  0
  5  6  1  0
  6  7  1  0
  7  8  1  0
  8  9  1  0
  9 10  1  0
 10 11  1  1
 10 12  1  0
 12 13  1  6
 13 14  1  0
 14 15  1  1
 14 16  1  0
 16 17  1  0
 17 18  1  0
 18 19  1  0
 19 20  1  0
 20 21  1  0
 21 22  1  0
 22 23  1  0
 23 24  1  0
 24 25  2  0
 25 26  1  0
 26 27  1  0
 27 28  1  0
 28 29  1  0
 26 30  2  0
 30 31  1  0
 31 32  2  0
 31 33  1  0
 33 34  2  0
 33 35  1  0
  6 36  2  0
 36 37  1  0
 32 24  1  0
 35 12  1  0
 37  4  1  0
M  END
$$$$
