
     RDKit          3D

 37 39  0  0  0  0  0  0  0  0999 V2000
  -23.3042  -44.3024   -3.9319 C   0  0  0  0  0  0  0  0  0  0  0  0
  -22.4418  -43.1175   -4.3710 C   0  0  0  0  0  0  0  0  0  0  0  0
  -22.7931  -41.9693   -3.4709 C   0  0  0  0  0  0  0  0  0  0  0  0
  -21.8276  -40.8429   -3.6600 C   0  0  0  0  0  0  0  0  0  0  0  0
  -20.5031  -40.9666   -3.3180 C   0  0  0  0  0  0  0  0  0  0  0  0
  -19.9160  -39.7629   -3.6201 C   0  0  0  0  0  0  0  0  0  0  0  0
  -18.5032  -39.3336   -3.4586 C   0  0  0  0  0  0  0  0  0  0  0  0
  -17.9266  -38.8521   -4.6644 N   0  0  0  0  0  0  0  0  0  0  0  0
  -18.1666  -39.6188   -5.8474 C   0  0  0  0  0  0  0  0  0  0  0  0
  -17.2020  -39.4546   -6.9543 C   0  0  1  0  0  0  0  0  0  0  0  0
  -16.0574  -40.2269   -6.8682 O   0  0  0  0  0  0  0  0  0  0  0  0
  -17.8352  -39.4327   -8.3286 C   0  0  2  0  0  0  0  0  0  0  0  0
  -16.9625  -39.4809   -9.4870 C   0  0  0  0  0  0  0  0  0  0  0  0
  -16.2967  -38.3346  -10.0937 C   0  0  2  0  0  0  0  0  0  0  0  0
  -14.8987  -38.0186   -9.5376 C   0  0  0  0  0  0  0  0  0  0  0  0
  -17.0966  -37.0810  -10.2918 C   0  0  0  0  0  0  0  0  0  0  0  0
  -16.7449  -36.3483  -11.5770 C   0  0  0  0  0  0  0  0  0  0  0  0
  -17.2151  -37.0903  -12.7903 C   0  0  0  0  0  0  0  0  0  0  0  0
  -18.5816  -36.6064  -13.2831 C   0  0  0  0  0  0  0  0  0  0  0  0
  -19.0099  -37.3548  -14.4931 C   0  0  0  0  0  0  0  0  0  0  0  0
  -20.2613  -38.1323  -14.3804 C   0  0  0  0  0  0  0  0  0  0  0  0
  -20.1928  -39.5671  -14.7543 C   0  0  0  0  0  0  0  0  0  0  0  0
  -20.5908  -40.4328  -13.6644 N   0  0  0  0  0  0  0  0  0  0  0  0
  -20.8530  -40.1781  -12.2846 C   0  0  0  0  0  0  0  0  0  0  0  0
  -22.0374  -40.8589  -11.9014 C   0  0  0  0  0  0  0  0  0  0  0  0
  -22.5707  -40.8213  -10.6442 C   0  0  0  0  0  0  0  0  0  0  0  0
  -23.8154  -41.5476  -10.2746 C   0  0  0  0  0  0  0  0  0  0  0  0
  -23.5145  -42.6512   -9.4719 O   0  0  0  0  0  0  0  0  0  0  0  0
  -24.4249  -42.6567   -8.3969 C   0  0  0  0  0  0  0  0  0  0  0  0
  -21.8706  -40.0636   -9.7484 C   0  0  0  0  0  0  0  0  0  0  0  0
  -20.6801  -39.3566  -10.0555 C   0  0  0  0  0  0  0  0  0  0  0  0
  -20.1961  -39.4349  -11.3366 C   0  0  0  0  0  0  0  0  0  0  0  0
  -20.2078  -38.6468   -8.8592 C   0  0  0  0  0  0  0  0  0  0  0  0
  -21.1158  -38.0412   -8.1015 O   0  0  0  0  0  0  0  0  0  0  0  0
  -18.9076  -38.4655   -8.3116 N   0  0  0  0  0  0  0  0  0  0  0  0
  -20.8893  -38.9968   -4.1150 N   0  0  0  0  0  0  0  0  0  0  0  0
  -22.0092  -39.6509   -4.1305 O   0  0  0  0  0  0  0  0  0  0  0  0
  1  2  1  0
  2  3  1  0
  3  4  1  0
  4  5  2  0
  5  6  1  0
  6  7  1  0
  7  8  1  0
  8  9  1  0
  9 10  1  0
 10 11  1  6
 10 12  1  0
 12 13  1  6
 13 14  1  0
 14 15  1  1
 14 16  1  0
 16 17  1  0
 17 18  1  0
 18 19  1  0
 19 20  1  0
 20 21  1  0
 21 22  1  0
 22 23  1  0
 23 24  1  0
 24 25  2  0
 25 26  1  0
 26 27  1  0
 27 28  1  0
 28 29  1  0
 26 30  2  0
 30 31  1  0
 31 32  2  0
 31 33  1  0
 33 34  2  0
 33 35  1  0
  6 36  2  0
 36 37  1  0
 32 24  1  0
 35 12  1  0
 37  4  1  0
M  END
$$$$
