
     RDKit          3D

 37 39  0  0  0  0  0  0  0  0999 V2000
  -14.8945  -34.3267  -12.8154 C   0  0  0  0  0  0  0  0  0  0  0  0
  -14.4448  -35.4298  -11.8556 C   0  0  0  0  0  0  0  0  0  0  0  0
  -14.0729  -36.6133  -12.7000 C   0  0  0  0  0  0  0  0  0  0  0  0
  -13.6732  -37.7666  -11.8359 C   0  0  0  0  0  0  0  0  0  0  0  0
  -14.4343  -38.9077  -11.7630 C   0  0  0  0  0  0  0  0  0  0  0  0
  -13.7840  -39.7462  -10.8918 C   0  0  0  0  0  0  0  0  0  0  0  0
  -14.1547  -41.1120  -10.4406 C   0  0  0  0  0  0  0  0  0  0  0  0
  -14.8964  -41.1156   -9.2290 N   0  0  0  0  0  0  0  0  0  0  0  0
  -15.6704  -39.9481   -8.9409 C   0  0  0  0  0  0  0  0  0  0  0  0
  -16.4846  -39.9765   -7.7085 C   0  0  1  0  0  0  0  0  0  0  0  0
  -16.6147  -38.7662   -7.0510 O   0  0  0  0  0  0  0  0  0  0  0  0
  -17.7754  -40.7557   -7.8376 C   0  0  2  0  0  0  0  0  0  0  0  0
  -18.9857  -40.0280   -8.1718 C   0  0  0  0  0  0  0  0  0  0  0  0
  -19.8421  -39.3280   -7.2220 C   0  0  2  0  0  0  0  0  0  0  0  0
  -19.4845  -37.8523   -6.9812 C   0  0  0  0  0  0  0  0  0  0  0  0
  -20.1771  -40.0209   -5.9344 C   0  0  0  0  0  0  0  0  0  0  0  0
  -21.5971  -39.7478   -5.4643 C   0  0  0  0  0  0  0  0  0  0  0  0
  -22.6135  -40.4211   -6.3346 C   0  0  0  0  0  0  0  0  0  0  0  0
  -23.0504  -41.7816   -5.7847 C   0  0  0  0  0  0  0  0  0  0  0  0
  -24.0664  -42.4136   -6.6656 C   0  0  0  0  0  0  0  0  0  0  0  0
  -23.7024  -43.7132   -7.2672 C   0  0  0  0  0  0  0  0  0  0  0  0
  -23.8272  -43.8256   -8.7420 C   0  0  0  0  0  0  0  0  0  0  0  0
  -22.5712  -44.1793   -9.3688 N   0  0  0  0  0  0  0  0  0  0  0  0
  -21.2376  -44.2583   -8.8658 C   0  0  0  0  0  0  0  0  0  0  0  0
  -20.6316  -45.4519   -9.3364 C   0  0  0  0  0  0  0  0  0  0  0  0
  -19.3549  -45.8337   -9.0353 C   0  0  0  0  0  0  0  0  0  0  0  0
  -18.7486  -47.0927   -9.5459 C   0  0  0  0  0  0  0  0  0  0  0  0
  -19.7336  -48.0659   -9.7336 O   0  0  0  0  0  0  0  0  0  0  0  0
  -19.7846  -48.3602  -11.1103 C   0  0  0  0  0  0  0  0  0  0  0  0
  -18.6744  -44.9674   -8.2271 C   0  0  0  0  0  0  0  0  0  0  0  0
  -19.2110  -43.7568   -7.7192 C   0  0  0  0  0  0  0  0  0  0  0  0
  -20.4994  -43.4303   -8.0585 C   0  0  0  0  0  0  0  0  0  0  0  0
  -18.2059  -43.0865   -6.8834 C   0  0  0  0  0  0  0  0  0  0  0  0
  -17.4815  -43.8407   -6.0639 O   0  0  0  0  0  0  0  0  0  0  0  0
  -17.8241  -41.7214   -6.7649 N   0  0  0  0  0  0  0  0  0  0  0  0
  -12.6948  -39.0862  -10.4953 N   0  0  0  0  0  0  0  0  0  0  0  0
  -12.6468  -37.9208  -11.0626 O   0  0  0  0  0  0  0  0  0  0  0  0
  1  2  1  0
  2  3  1  0
  3  4  1  0
  4  5  2  0
  5  6  1  0
  6  7  1  0
  7  8  1  0
  8  9  1  0
  9 10  1  0
 10 11  1  6
 10 12  1  0
 12 13  1  1
 13 14  1  0
 14 15  1  1
 14 16  1  0
 16 17  1  0
 17 18  1  0
 18 19  1  0
 19 20  1  0
 20 21  1  0
 21 22  1  0
 22 23  1  0
 23 24  1  0
 24 25  2  0
 25 26  1  0
 26 27  1  0
 27 28  1  0
 28 29  1  0
 26 30  2  0
 30 31  1  0
 31 32  2  0
 31 33  1  0
 33 34  2  0
 33 35  1  0
  6 36  2  0
 36 37  1  0
 32 24  1  0
 35 12  1  0
 37  4  1  0
M  END
$$$$
