
     RDKit          3D

 37 38  0  0  0  0  0  0  0  0999 V2000
  -14.2437  -41.0385  -10.4069 C   0  0  0  0  0  0  0  0  0  0  0  0
  -13.4336  -40.0656   -9.6206 C   0  0  2  0  0  0  0  0  0  0  0  0
  -13.9380  -39.9325   -8.2737 N   0  0  0  0  0  0  0  0  0  0  0  0
  -15.2584  -40.5017   -8.0972 C   0  0  0  0  0  0  0  0  0  0  0  0
  -16.2557  -39.5386   -7.5893 C   0  0  1  0  0  0  0  0  0  0  0  0
  -15.9847  -38.2078   -7.7534 O   0  0  0  0  0  0  0  0  0  0  0  0
  -17.6668  -39.9305   -8.0659 C   0  0  2  0  0  0  0  0  0  0  0  0
  -18.6824  -39.8595   -6.9925 C   0  0  0  0  0  0  0  0  0  0  0  0
  -19.8665  -39.0350   -7.3676 C   0  0  2  0  0  0  0  0  0  0  0  0
  -19.5532  -37.5724   -7.5903 C   0  0  0  0  0  0  0  0  0  0  0  0
  -21.0108  -39.0824   -6.3903 C   0  0  0  0  0  0  0  0  0  0  0  0
  -20.6627  -39.4872   -5.0054 C   0  0  0  0  0  0  0  0  0  0  0  0
  -21.0470  -40.9092   -4.6544 C   0  0  0  0  0  0  0  0  0  0  0  0
  -22.3952  -41.0177   -4.0016 C   0  0  0  0  0  0  0  0  0  0  0  0
  -23.3186  -41.7817   -4.8886 C   0  0  0  0  0  0  0  0  0  0  0  0
  -23.4501  -43.2251   -4.5782 C   0  0  0  0  0  0  0  0  0  0  0  0
  -22.2858  -44.0786   -4.9842 C   0  0  0  0  0  0  0  0  0  0  0  0
  -22.1978  -44.2520   -6.4958 C   0  0  0  0  0  0  0  0  0  0  0  0
  -20.6548  -44.9936   -6.8875 S   0  0  0  0  0  6  0  0  0  0  0  0
  -20.7192  -45.7990   -8.1755 O   0  0  0  0  0  0  0  0  0  0  0  0
  -20.2619  -46.0031   -5.8149 O   0  0  0  0  0  0  0  0  0  0  0  0
  -19.3240  -43.8651   -7.0341 C   0  0  0  0  0  0  0  0  0  0  0  0
  -19.2407  -43.1358   -8.3393 C   0  0  1  0  0  0  0  0  0  0  0  0
  -20.3869  -42.2675   -8.6810 C   0  0  0  0  0  0  0  0  0  0  0  0
  -17.9052  -42.4874   -8.4134 C   0  0  0  0  0  0  0  0  0  0  0  0
  -16.9717  -43.3285   -8.0989 O   0  0  0  0  0  0  0  0  0  0  0  0
  -17.5429  -41.2022   -8.7502 N   0  0  0  0  0  0  0  0  0  0  0  0
  -13.5450  -38.7257  -10.2569 C   0  0  0  0  0  0  0  0  0  0  0  0
  -13.0217  -38.3808  -11.4709 C   0  0  0  0  0  0  0  0  0  0  0  0
  -13.3513  -37.0533  -11.6806 C   0  0  0  0  0  0  0  0  0  0  0  0
  -12.9561  -36.2976  -12.9093 C   0  0  0  0  0  0  0  0  0  0  0  0
  -14.1648  -35.9600  -13.7408 C   0  0  0  0  0  0  0  0  0  0  0  0
  -13.8523  -34.9098  -14.7716 C   0  0  0  0  0  0  0  0  0  0  0  0
  -14.7433  -37.2104  -14.3541 C   0  0  0  0  0  0  0  0  0  0  0  0
  -15.2128  -35.4002  -12.7981 C   0  0  0  0  0  0  0  0  0  0  0  0
  -14.0231  -36.6652  -10.6468 O   0  0  0  0  0  0  0  0  0  0  0  0
  -14.1595  -37.6248   -9.7814 N   0  0  0  0  0  0  0  0  0  0  0  0
  2  1  1  6
  2  3  1  0
  3  4  1  0
  4  5  1  0
  5  6  1  6
  5  7  1  0
  7  8  1  1
  8  9  1  0
  9 10  1  1
  9 11  1  0
 11 12  1  0
 12 13  1  0
 13 14  1  0
 14 15  1  0
 15 16  1  0
 16 17  1  0
 17 18  1  0
 18 19  1  0
 19 20  2  0
 19 21  2  0
 19 22  1  0
 22 23  1  0
 23 24  1  1
 23 25  1  0
 25 26  2  0
 25 27  1  0
  2 28  1  0
 28 29  1  0
 29 30  2  0
 30 31  1  0
 31 32  1  0
 32 33  1  0
 32 34  1  0
 32 35  1  0
 30 36  1  0
 36 37  1  0
 27  7  1  0
 37 28  2  0
M  END
$$$$
