
     RDKit          3D

 37 38  0  0  0  0  0  0  0  0999 V2000
  -12.1747  -40.8934  -10.0341 C   0  0  0  0  0  0  0  0  0  0  0  0
  -13.0956  -39.8323   -9.5370 C   0  0  2  0  0  0  0  0  0  0  0  0
  -14.3791  -40.3835   -9.1693 N   0  0  0  0  0  0  0  0  0  0  0  0
  -15.3270  -39.3821   -8.7253 C   0  0  0  0  0  0  0  0  0  0  0  0
  -16.2190  -39.8484   -7.6449 C   0  0  1  0  0  0  0  0  0  0  0  0
  -16.3687  -39.0324   -6.5573 O   0  0  0  0  0  0  0  0  0  0  0  0
  -17.5609  -40.3265   -8.2301 C   0  0  2  0  0  0  0  0  0  0  0  0
  -18.7051  -40.0977   -7.3207 C   0  0  0  0  0  0  0  0  0  0  0  0
  -19.8235  -39.3563   -7.9702 C   0  0  2  0  0  0  0  0  0  0  0  0
  -19.4705  -37.9440   -8.3801 C   0  0  0  0  0  0  0  0  0  0  0  0
  -21.0841  -39.2610   -7.1525 C   0  0  0  0  0  0  0  0  0  0  0  0
  -20.9202  -39.4374   -5.6879 C   0  0  0  0  0  0  0  0  0  0  0  0
  -21.3598  -40.7900   -5.1681 C   0  0  0  0  0  0  0  0  0  0  0  0
  -22.7815  -40.8087   -4.6845 C   0  0  0  0  0  0  0  0  0  0  0  0
  -23.5907  -41.7138   -5.5500 C   0  0  0  0  0  0  0  0  0  0  0  0
  -23.7745  -43.0912   -5.0342 C   0  0  0  0  0  0  0  0  0  0  0  0
  -22.5757  -43.9852   -5.1472 C   0  0  0  0  0  0  0  0  0  0  0  0
  -22.2962  -44.3949   -6.5883 C   0  0  0  0  0  0  0  0  0  0  0  0
  -20.7228  -45.1719   -6.6566 S   0  0  0  0  0  6  0  0  0  0  0  0
  -20.6291  -46.1719   -7.7981 O   0  0  0  0  0  0  0  0  0  0  0  0
  -20.4802  -45.9943   -5.3961 O   0  0  0  0  0  0  0  0  0  0  0  0
  -19.3737  -44.0662   -6.8085 C   0  0  0  0  0  0  0  0  0  0  0  0
  -19.1168  -43.5520   -8.1913 C   0  0  1  0  0  0  0  0  0  0  0  0
  -20.2015  -42.7616   -8.8103 C   0  0  0  0  0  0  0  0  0  0  0  0
  -17.7768  -42.9087   -8.1955 C   0  0  0  0  0  0  0  0  0  0  0  0
  -16.8993  -43.6789   -7.6347 O   0  0  0  0  0  0  0  0  0  0  0  0
  -17.3623  -41.6892   -8.6826 N   0  0  0  0  0  0  0  0  0  0  0  0
  -13.3428  -38.8603  -10.6355 C   0  0  0  0  0  0  0  0  0  0  0  0
  -12.8520  -37.5864  -10.6895 C   0  0  0  0  0  0  0  0  0  0  0  0
  -13.3198  -37.0323  -11.8681 C   0  0  0  0  0  0  0  0  0  0  0  0
  -13.0004  -35.6357  -12.2975 C   0  0  0  0  0  0  0  0  0  0  0  0
  -13.5269  -35.3689  -13.6824 C   0  0  0  0  0  0  0  0  0  0  0  0
  -13.2254  -33.9642  -14.1286 C   0  0  0  0  0  0  0  0  0  0  0  0
  -13.0033  -36.4017  -14.6486 C   0  0  0  0  0  0  0  0  0  0  0  0
  -15.0335  -35.5342  -13.6267 C   0  0  0  0  0  0  0  0  0  0  0  0
  -14.0347  -37.9377  -12.4511 O   0  0  0  0  0  0  0  0  0  0  0  0
  -14.0736  -39.0337  -11.7542 N   0  0  0  0  0  0  0  0  0  0  0  0
  2  1  1  6
  2  3  1  0
  3  4  1  0
  4  5  1  0
  5  6  1  1
  5  7  1  0
  7  8  1  1
  8  9  1  0
  9 10  1  1
  9 11  1  0
 11 12  1  0
 12 13  1  0
 13 14  1  0
 14 15  1  0
 15 16  1  0
 16 17  1  0
 17 18  1  0
 18 19  1  0
 19 20  2  0
 19 21  2  0
 19 22  1  0
 22 23  1  0
 23 24  1  1
 23 25  1  0
 25 26  2  0
 25 27  1  0
  2 28  1  0
 28 29  1  0
 29 30  2  0
 30 31  1  0
 31 32  1  0
 32 33  1  0
 32 34  1  0
 32 35  1  0
 30 36  1  0
 36 37  1  0
 27  7  1  0
 37 28  2  0
M  END
$$$$
