
     RDKit          3D

 37 38  0  0  0  0  0  0  0  0999 V2000
  -13.2807  -40.8625   -9.8351 C   0  0  0  0  0  0  0  0  0  0  0  0
  -13.1864  -39.6171   -9.0223 C   0  0  2  0  0  0  0  0  0  0  0  0
  -14.2572  -39.5406   -8.0557 N   0  0  0  0  0  0  0  0  0  0  0  0
  -15.5653  -39.7830   -8.6290 C   0  0  0  0  0  0  0  0  0  0  0  0
  -16.6788  -39.5263   -7.6938 C   0  0  1  0  0  0  0  0  0  0  0  0
  -16.7741  -38.2706   -7.1596 O   0  0  0  0  0  0  0  0  0  0  0  0
  -18.0053  -40.0299   -8.2927 C   0  0  2  0  0  0  0  0  0  0  0  0
  -19.1169  -40.0370   -7.3166 C   0  0  0  0  0  0  0  0  0  0  0  0
  -20.3230  -39.3098   -7.8054 C   0  0  2  0  0  0  0  0  0  0  0  0
  -20.1068  -37.8274   -8.0127 C   0  0  0  0  0  0  0  0  0  0  0  0
  -21.5444  -39.4454   -6.9355 C   0  0  0  0  0  0  0  0  0  0  0  0
  -21.2933  -39.8180   -5.5209 C   0  0  0  0  0  0  0  0  0  0  0  0
  -21.5950  -41.2652   -5.1927 C   0  0  0  0  0  0  0  0  0  0  0  0
  -22.9843  -41.4786   -4.6638 C   0  0  0  0  0  0  0  0  0  0  0  0
  -23.7601  -42.3154   -5.6236 C   0  0  0  0  0  0  0  0  0  0  0  0
  -23.8054  -43.7640   -5.3126 C   0  0  0  0  0  0  0  0  0  0  0  0
  -22.5454  -44.5235   -5.6032 C   0  0  0  0  0  0  0  0  0  0  0  0
  -22.3065  -44.6929   -7.0989 C   0  0  0  0  0  0  0  0  0  0  0  0
  -20.6808  -45.3109   -7.3419 S   0  0  0  0  0  6  0  0  0  0  0  0
  -20.5639  -46.1219   -8.6226 O   0  0  0  0  0  0  0  0  0  0  0  0
  -20.3091  -46.2836   -6.2285 O   0  0  0  0  0  0  0  0  0  0  0  0
  -19.4351  -44.0809   -7.3779 C   0  0  0  0  0  0  0  0  0  0  0  0
  -19.2907  -43.3504   -8.6771 C   0  0  1  0  0  0  0  0  0  0  0  0
  -20.4657  -42.5764   -9.1296 C   0  0  0  0  0  0  0  0  0  0  0  0
  -18.0091  -42.5984   -8.6360 C   0  0  0  0  0  0  0  0  0  0  0  0
  -17.0450  -43.3622   -8.2301 O   0  0  0  0  0  0  0  0  0  0  0  0
  -17.7199  -41.2894   -8.9507 N   0  0  0  0  0  0  0  0  0  0  0  0
  -13.3362  -38.4442   -9.9248 C   0  0  0  0  0  0  0  0  0  0  0  0
  -13.4695  -38.5037  -11.2832 C   0  0  0  0  0  0  0  0  0  0  0  0
  -13.5784  -37.1976  -11.7273 C   0  0  0  0  0  0  0  0  0  0  0  0
  -13.7406  -36.8357  -13.1693 C   0  0  0  0  0  0  0  0  0  0  0  0
  -13.6407  -35.3459  -13.3608 C   0  0  0  0  0  0  0  0  0  0  0  0
  -14.5709  -34.6053  -12.4391 C   0  0  0  0  0  0  0  0  0  0  0  0
  -12.2092  -34.8948  -13.2136 C   0  0  0  0  0  0  0  0  0  0  0  0
  -14.0562  -35.0506  -14.7893 C   0  0  0  0  0  0  0  0  0  0  0  0
  -13.5113  -36.4389  -10.6829 O   0  0  0  0  0  0  0  0  0  0  0  0
  -13.3678  -37.1377   -9.5968 N   0  0  0  0  0  0  0  0  0  0  0  0
  2  1  1  6
  2  3  1  0
  3  4  1  0
  4  5  1  0
  5  6  1  6
  5  7  1  0
  7  8  1  1
  8  9  1  0
  9 10  1  1
  9 11  1  0
 11 12  1  0
 12 13  1  0
 13 14  1  0
 14 15  1  0
 15 16  1  0
 16 17  1  0
 17 18  1  0
 18 19  1  0
 19 20  2  0
 19 21  2  0
 19 22  1  0
 22 23  1  0
 23 24  1  1
 23 25  1  0
 25 26  2  0
 25 27  1  0
  2 28  1  0
 28 29  1  0
 29 30  2  0
 30 31  1  0
 31 32  1  0
 32 33  1  0
 32 34  1  0
 32 35  1  0
 30 36  1  0
 36 37  1  0
 27  7  1  0
 37 28  2  0
M  END
$$$$
