
     RDKit          3D

 37 38  0  0  0  0  0  0  0  0999 V2000
  -20.1935  -38.1594   -7.3758 C   0  0  0  0  0  0  0  0  0  0  0  0
  -18.9634  -38.5345   -8.1286 C   0  0  2  0  0  0  0  0  0  0  0  0
  -17.8032  -38.5364   -7.2680 N   0  0  0  0  0  0  0  0  0  0  0  0
  -17.1200  -39.8132   -7.2297 C   0  0  0  0  0  0  0  0  0  0  0  0
  -15.6959  -39.7120   -6.8530 C   0  0  1  0  0  0  0  0  0  0  0  0
  -15.4091  -39.4818   -5.5354 O   0  0  0  0  0  0  0  0  0  0  0  0
  -14.9020  -40.8906   -7.4466 C   0  0  2  0  0  0  0  0  0  0  0  0
  -14.3221  -40.5898   -8.7740 C   0  0  0  0  0  0  0  0  0  0  0  0
  -12.8584  -40.8639   -8.8435 C   0  0  2  0  0  0  0  0  0  0  0  0
  -12.0235  -39.9861   -7.9382 C   0  0  0  0  0  0  0  0  0  0  0  0
  -12.2548  -40.7554  -10.2185 C   0  0  0  0  0  0  0  0  0  0  0  0
  -13.0113  -39.9314  -11.1941 C   0  0  0  0  0  0  0  0  0  0  0  0
  -13.7897  -40.7315  -12.2173 C   0  0  0  0  0  0  0  0  0  0  0  0
  -13.0317  -40.9647  -13.4927 C   0  0  0  0  0  0  0  0  0  0  0  0
  -12.7687  -42.4232  -13.6568 C   0  0  0  0  0  0  0  0  0  0  0  0
  -13.7320  -43.1508  -14.5169 C   0  0  0  0  0  0  0  0  0  0  0  0
  -15.0714  -43.4188  -13.8978 C   0  0  0  0  0  0  0  0  0  0  0  0
  -15.0005  -44.4829  -12.8090 C   0  0  0  0  0  0  0  0  0  0  0  0
  -16.5292  -44.5056  -11.9450 S   0  0  0  0  0  6  0  0  0  0  0  0
  -16.8285  -45.8725  -11.3503 O   0  0  0  0  0  0  0  0  0  0  0  0
  -17.6851  -44.2342  -12.9012 O   0  0  0  0  0  0  0  0  0  0  0  0
  -16.6508  -43.3280  -10.6549 C   0  0  0  0  0  0  0  0  0  0  0  0
  -15.9837  -43.7112   -9.3701 C   0  0  1  0  0  0  0  0  0  0  0  0
  -14.5216  -43.9199   -9.4258 C   0  0  0  0  0  0  0  0  0  0  0  0
  -16.4544  -42.7745   -8.3163 C   0  0  0  0  0  0  0  0  0  0  0  0
  -17.7443  -42.6618   -8.3494 O   0  0  0  0  0  0  0  0  0  0  0  0
  -15.7580  -42.0577   -7.3689 N   0  0  0  0  0  0  0  0  0  0  0  0
  -18.7169  -37.5134   -9.1818 C   0  0  0  0  0  0  0  0  0  0  0  0
  -18.9240  -37.6920  -10.5204 C   0  0  0  0  0  0  0  0  0  0  0  0
  -18.5703  -36.5048  -11.1370 C   0  0  0  0  0  0  0  0  0  0  0  0
  -18.6548  -36.2952  -12.6154 C   0  0  0  0  0  0  0  0  0  0  0  0
  -19.0779  -34.8855  -12.9318 C   0  0  0  0  0  0  0  0  0  0  0  0
  -19.9100  -34.8247  -14.1837 C   0  0  0  0  0  0  0  0  0  0  0  0
  -19.7805  -34.2721  -11.7467 C   0  0  0  0  0  0  0  0  0  0  0  0
  -17.8132  -34.0816  -13.1652 C   0  0  0  0  0  0  0  0  0  0  0  0
  -18.1848  -35.6973  -10.2041 O   0  0  0  0  0  0  0  0  0  0  0  0
  -18.2563  -36.2559   -9.0331 N   0  0  0  0  0  0  0  0  0  0  0  0
  2  1  1  1
  2  3  1  0
  3  4  1  0
  4  5  1  0
  5  6  1  1
  5  7  1  0
  7  8  1  6
  8  9  1  0
  9 10  1  1
  9 11  1  0
 11 12  1  0
 12 13  1  0
 13 14  1  0
 14 15  1  0
 15 16  1  0
 16 17  1  0
 17 18  1  0
 18 19  1  0
 19 20  2  0
 19 21  2  0
 19 22  1  0
 22 23  1  0
 23 24  1  6
 23 25  1  0
 25 26  2  0
 25 27  1  0
  2 28  1  0
 28 29  1  0
 29 30  2  0
 30 31  1  0
 31 32  1  0
 32 33  1  0
 32 34  1  0
 32 35  1  0
 30 36  1  0
 36 37  1  0
 27  7  1  0
 37 28  2  0
M  END
$$$$
