
     RDKit          3D

 37 38  0  0  0  0  0  0  0  0999 V2000
  -12.6472  -39.6588  -10.2758 C   0  0  0  0  0  0  0  0  0  0  0  0
  -13.8856  -39.3502   -9.5064 C   0  0  2  0  0  0  0  0  0  0  0  0
  -14.5788  -40.5584   -9.1239 N   0  0  0  0  0  0  0  0  0  0  0  0
  -15.6362  -40.3318   -8.1600 C   0  0  0  0  0  0  0  0  0  0  0  0
  -16.0900  -41.5607   -7.4787 C   0  0  1  0  0  0  0  0  0  0  0  0
  -15.1692  -42.2407   -6.7297 O   0  0  0  0  0  0  0  0  0  0  0  0
  -17.4063  -41.2971   -6.7238 C   0  0  2  0  0  0  0  0  0  0  0  0
  -18.4868  -42.2365   -7.0960 C   0  0  0  0  0  0  0  0  0  0  0  0
  -19.1044  -42.9073   -5.9166 C   0  0  2  0  0  0  0  0  0  0  0  0
  -18.1597  -43.8121   -5.1577 C   0  0  0  0  0  0  0  0  0  0  0  0
  -20.3298  -43.7278   -6.2200 C   0  0  0  0  0  0  0  0  0  0  0  0
  -20.4729  -44.1816   -7.6259 C   0  0  0  0  0  0  0  0  0  0  0  0
  -21.4887  -43.4019   -8.4341 C   0  0  0  0  0  0  0  0  0  0  0  0
  -22.8549  -44.0257   -8.4342 C   0  0  0  0  0  0  0  0  0  0  0  0
  -23.8175  -43.1179   -7.7469 C   0  0  0  0  0  0  0  0  0  0  0  0
  -24.6113  -42.2392   -8.6384 C   0  0  0  0  0  0  0  0  0  0  0  0
  -23.8670  -41.0762   -9.2237 C   0  0  0  0  0  0  0  0  0  0  0  0
  -23.5604  -40.0057   -8.1831 C   0  0  0  0  0  0  0  0  0  0  0  0
  -22.4372  -38.8496   -8.8803 S   0  0  0  0  0  6  0  0  0  0  0  0
  -22.5795  -37.4694   -8.2586 O   0  0  0  0  0  0  0  0  0  0  0  0
  -22.7362  -38.6436  -10.3609 O   0  0  0  0  0  0  0  0  0  0  0  0
  -20.7528  -39.3130   -8.7625 C   0  0  0  0  0  0  0  0  0  0  0  0
  -20.1067  -39.0553   -7.4363 C   0  0  1  0  0  0  0  0  0  0  0  0
  -20.6789  -39.7710   -6.2767 C   0  0  0  0  0  0  0  0  0  0  0  0
  -18.6374  -39.1966   -7.6113 C   0  0  0  0  0  0  0  0  0  0  0  0
  -18.2358  -38.5339   -8.6491 O   0  0  0  0  0  0  0  0  0  0  0  0
  -17.7023  -39.8859   -6.8719 N   0  0  0  0  0  0  0  0  0  0  0  0
  -14.8116  -38.5800  -10.3792 C   0  0  0  0  0  0  0  0  0  0  0  0
  -15.0901  -37.2481  -10.2561 C   0  0  0  0  0  0  0  0  0  0  0  0
  -15.9925  -36.9386  -11.2585 C   0  0  0  0  0  0  0  0  0  0  0  0
  -16.5483  -35.5651  -11.4620 C   0  0  0  0  0  0  0  0  0  0  0  0
  -15.5099  -34.6511  -12.0556 C   0  0  0  0  0  0  0  0  0  0  0  0
  -16.1058  -33.3357  -12.4773 C   0  0  0  0  0  0  0  0  0  0  0  0
  -14.3577  -34.4772  -11.0982 C   0  0  0  0  0  0  0  0  0  0  0  0
  -14.9626  -35.3400  -13.2910 C   0  0  0  0  0  0  0  0  0  0  0  0
  -16.2146  -38.0303  -11.9141 O   0  0  0  0  0  0  0  0  0  0  0  0
  -15.5353  -39.0243  -11.4254 N   0  0  0  0  0  0  0  0  0  0  0  0
  2  1  1  6
  2  3  1  0
  3  4  1  0
  4  5  1  0
  5  6  1  1
  5  7  1  0
  7  8  1  6
  8  9  1  0
  9 10  1  6
  9 11  1  0
 11 12  1  0
 12 13  1  0
 13 14  1  0
 14 15  1  0
 15 16  1  0
 16 17  1  0
 17 18  1  0
 18 19  1  0
 19 20  2  0
 19 21  2  0
 19 22  1  0
 22 23  1  0
 23 24  1  1
 23 25  1  0
 25 26  2  0
 25 27  1  0
  2 28  1  0
 28 29  1  0
 29 30  2  0
 30 31  1  0
 31 32  1  0
 32 33  1  0
 32 34  1  0
 32 35  1  0
 30 36  1  0
 36 37  1  0
 27  7  1  0
 37 28  2  0
M  END
$$$$
