
     RDKit          3D

 37 38  0  0  0  0  0  0  0  0999 V2000
  -12.5897  -41.1598  -11.2804 C   0  0  0  0  0  0  0  0  0  0  0  0
  -13.2793  -40.0264  -10.6016 C   0  0  2  0  0  0  0  0  0  0  0  0
  -14.4795  -40.4700   -9.9313 N   0  0  0  0  0  0  0  0  0  0  0  0
  -15.0404  -39.4741   -9.0413 C   0  0  0  0  0  0  0  0  0  0  0  0
  -15.9151  -40.0400   -7.9950 C   0  0  1  0  0  0  0  0  0  0  0  0
  -16.0637  -39.3188   -6.8421 O   0  0  0  0  0  0  0  0  0  0  0  0
  -17.2569  -40.4862   -8.6051 C   0  0  2  0  0  0  0  0  0  0  0  0
  -18.4250  -40.0993   -7.7839 C   0  0  0  0  0  0  0  0  0  0  0  0
  -19.4580  -39.3543   -8.5587 C   0  0  2  0  0  0  0  0  0  0  0  0
  -18.9905  -38.0129   -9.0777 C   0  0  0  0  0  0  0  0  0  0  0  0
  -20.7468  -39.1015   -7.8226 C   0  0  0  0  0  0  0  0  0  0  0  0
  -20.6656  -39.1467   -6.3413 C   0  0  0  0  0  0  0  0  0  0  0  0
  -21.2206  -40.4128   -5.7231 C   0  0  0  0  0  0  0  0  0  0  0  0
  -22.6618  -40.2951   -5.3174 C   0  0  0  0  0  0  0  0  0  0  0  0
  -23.4884  -41.2259   -6.1380 C   0  0  0  0  0  0  0  0  0  0  0  0
  -23.7900  -42.5332   -5.5077 C   0  0  0  0  0  0  0  0  0  0  0  0
  -22.6509  -43.5079   -5.4726 C   0  0  0  0  0  0  0  0  0  0  0  0
  -22.3313  -44.0707   -6.8525 C   0  0  0  0  0  0  0  0  0  0  0  0
  -20.8130  -44.9487   -6.7634 S   0  0  0  0  0  6  0  0  0  0  0  0
  -20.7331  -46.0574   -7.8008 O   0  0  0  0  0  0  0  0  0  0  0  0
  -20.6875  -45.6602   -5.4211 O   0  0  0  0  0  0  0  0  0  0  0  0
  -19.3860  -43.9502   -6.9438 C   0  0  0  0  0  0  0  0  0  0  0  0
  -19.0288  -43.5881   -8.3523 C   0  0  1  0  0  0  0  0  0  0  0  0
  -20.0264  -42.7936   -9.0994 C   0  0  0  0  0  0  0  0  0  0  0  0
  -17.6495  -43.0343   -8.3436 C   0  0  0  0  0  0  0  0  0  0  0  0
  -16.8543  -43.8012   -7.6674 O   0  0  0  0  0  0  0  0  0  0  0  0
  -17.1301  -41.8957   -8.9182 N   0  0  0  0  0  0  0  0  0  0  0  0
  -13.7005  -39.0377  -11.6300 C   0  0  0  0  0  0  0  0  0  0  0  0
  -12.9062  -38.0604  -12.1596 C   0  0  0  0  0  0  0  0  0  0  0  0
  -13.6846  -37.3690  -13.0712 C   0  0  0  0  0  0  0  0  0  0  0  0
  -13.1742  -36.2121  -13.8699 C   0  0  0  0  0  0  0  0  0  0  0  0
  -13.4182  -34.9145  -13.1468 C   0  0  0  0  0  0  0  0  0  0  0  0
  -14.8697  -34.7438  -12.7898 C   0  0  0  0  0  0  0  0  0  0  0  0
  -12.5161  -34.8093  -11.9429 C   0  0  0  0  0  0  0  0  0  0  0  0
  -13.0295  -33.7957  -14.0941 C   0  0  0  0  0  0  0  0  0  0  0  0
  -14.8536  -37.9205  -13.0614 O   0  0  0  0  0  0  0  0  0  0  0  0
  -14.9043  -38.9112  -12.2221 N   0  0  0  0  0  0  0  0  0  0  0  0
  2  1  1  6
  2  3  1  0
  3  4  1  0
  4  5  1  0
  5  6  1  1
  5  7  1  0
  7  8  1  1
  8  9  1  0
  9 10  1  1
  9 11  1  0
 11 12  1  0
 12 13  1  0
 13 14  1  0
 14 15  1  0
 15 16  1  0
 16 17  1  0
 17 18  1  0
 18 19  1  0
 19 20  2  0
 19 21  2  0
 19 22  1  0
 22 23  1  0
 23 24  1  1
 23 25  1  0
 25 26  2  0
 25 27  1  0
  2 28  1  0
 28 29  1  0
 29 30  2  0
 30 31  1  0
 31 32  1  0
 32 33  1  0
 32 34  1  0
 32 35  1  0
 30 36  1  0
 36 37  1  0
 27  7  1  0
 37 28  2  0
M  END
$$$$
