
     RDKit          3D

 37 38  0  0  0  0  0  0  0  0999 V2000
  -13.3969  -40.9072   -9.5063 C   0  0  0  0  0  0  0  0  0  0  0  0
  -13.6979  -39.4655   -9.2786 C   0  0  2  0  0  0  0  0  0  0  0  0
  -15.1004  -39.2615   -8.9995 N   0  0  0  0  0  0  0  0  0  0  0  0
  -15.5717  -40.0113   -7.8531 C   0  0  0  0  0  0  0  0  0  0  0  0
  -16.7956  -39.4541   -7.2432 C   0  0  1  0  0  0  0  0  0  0  0  0
  -16.8643  -38.0954   -7.1008 O   0  0  0  0  0  0  0  0  0  0  0  0
  -18.0461  -40.0550   -7.9119 C   0  0  2  0  0  0  0  0  0  0  0  0
  -19.2386  -40.0345   -7.0367 C   0  0  0  0  0  0  0  0  0  0  0  0
  -20.4211  -39.3959   -7.6820 C   0  0  2  0  0  0  0  0  0  0  0  0
  -20.2383  -37.9257   -7.9855 C   0  0  0  0  0  0  0  0  0  0  0  0
  -21.7091  -39.5158   -6.9116 C   0  0  0  0  0  0  0  0  0  0  0  0
  -21.5712  -39.7708   -5.4560 C   0  0  0  0  0  0  0  0  0  0  0  0
  -21.8509  -41.2004   -5.0425 C   0  0  0  0  0  0  0  0  0  0  0  0
  -23.2734  -41.4302   -4.6191 C   0  0  0  0  0  0  0  0  0  0  0  0
  -23.9323  -42.3677   -5.5732 C   0  0  0  0  0  0  0  0  0  0  0  0
  -23.9553  -43.7895   -5.1549 C   0  0  0  0  0  0  0  0  0  0  0  0
  -22.6492  -44.5165   -5.2765 C   0  0  0  0  0  0  0  0  0  0  0  0
  -22.2736  -44.7876   -6.7285 C   0  0  0  0  0  0  0  0  0  0  0  0
  -20.6126  -45.3550   -6.7827 S   0  0  0  0  0  6  0  0  0  0  0  0
  -20.3554  -46.2543   -7.9814 O   0  0  0  0  0  0  0  0  0  0  0  0
  -20.3075  -46.2255   -5.5690 O   0  0  0  0  0  0  0  0  0  0  0  0
  -19.4114  -44.0813   -6.8083 C   0  0  0  0  0  0  0  0  0  0  0  0
  -19.1780  -43.4448   -8.1437 C   0  0  1  0  0  0  0  0  0  0  0  0
  -20.3343  -42.7557   -8.7540 C   0  0  0  0  0  0  0  0  0  0  0  0
  -17.9316  -42.6401   -8.0522 C   0  0  0  0  0  0  0  0  0  0  0  0
  -16.9815  -43.3312   -7.5070 O   0  0  0  0  0  0  0  0  0  0  0  0
  -17.6607  -41.3476   -8.4426 N   0  0  0  0  0  0  0  0  0  0  0  0
  -13.3920  -38.7104  -10.5231 C   0  0  0  0  0  0  0  0  0  0  0  0
  -13.6490  -37.3841  -10.7267 C   0  0  0  0  0  0  0  0  0  0  0  0
  -13.2132  -37.0890  -12.0065 C   0  0  0  0  0  0  0  0  0  0  0  0
  -13.3197  -35.7255  -12.6117 C   0  0  0  0  0  0  0  0  0  0  0  0
  -11.9751  -35.2472  -13.0910 C   0  0  0  0  0  0  0  0  0  0  0  0
  -10.9985  -35.1106  -11.9548 C   0  0  0  0  0  0  0  0  0  0  0  0
  -11.4591  -36.1484  -14.1846 C   0  0  0  0  0  0  0  0  0  0  0  0
  -12.1818  -33.8756  -13.7043 C   0  0  0  0  0  0  0  0  0  0  0  0
  -12.7357  -38.1830  -12.5024 O   0  0  0  0  0  0  0  0  0  0  0  0
  -12.8230  -39.1656  -11.6566 N   0  0  0  0  0  0  0  0  0  0  0  0
  2  1  1  6
  2  3  1  0
  3  4  1  0
  4  5  1  0
  5  6  1  6
  5  7  1  0
  7  8  1  1
  8  9  1  0
  9 10  1  1
  9 11  1  0
 11 12  1  0
 12 13  1  0
 13 14  1  0
 14 15  1  0
 15 16  1  0
 16 17  1  0
 17 18  1  0
 18 19  1  0
 19 20  2  0
 19 21  2  0
 19 22  1  0
 22 23  1  0
 23 24  1  1
 23 25  1  0
 25 26  2  0
 25 27  1  0
  2 28  1  0
 28 29  1  0
 29 30  2  0
 30 31  1  0
 31 32  1  0
 32 33  1  0
 32 34  1  0
 32 35  1  0
 30 36  1  0
 36 37  1  0
 27  7  1  0
 37 28  2  0
M  END
$$$$
