
     RDKit          3D

 37 38  0  0  0  0  0  0  0  0999 V2000
  -12.5473  -39.6606  -10.2834 C   0  0  0  0  0  0  0  0  0  0  0  0
  -13.9152  -39.5588   -9.7007 C   0  0  2  0  0  0  0  0  0  0  0  0
  -14.8033  -40.5424  -10.2753 N   0  0  0  0  0  0  0  0  0  0  0  0
  -16.0676  -40.6509   -9.5764 C   0  0  0  0  0  0  0  0  0  0  0  0
  -17.2323  -40.2570  -10.3942 C   0  0  1  0  0  0  0  0  0  0  0  0
  -17.0198  -40.0426  -11.7284 O   0  0  0  0  0  0  0  0  0  0  0  0
  -18.4216  -41.1949  -10.1154 C   0  0  2  0  0  0  0  0  0  0  0  0
  -19.6074  -40.4866   -9.5856 C   0  0  0  0  0  0  0  0  0  0  0  0
  -20.8481  -40.7715  -10.3615 C   0  0  2  0  0  0  0  0  0  0  0  0
  -20.8086  -40.2769  -11.7901 C   0  0  0  0  0  0  0  0  0  0  0  0
  -22.1159  -40.2290   -9.7570 C   0  0  0  0  0  0  0  0  0  0  0  0
  -21.9488  -39.1004   -8.8077 C   0  0  0  0  0  0  0  0  0  0  0  0
  -22.0883  -39.4841   -7.3495 C   0  0  0  0  0  0  0  0  0  0  0  0
  -23.4805  -39.3021   -6.8165 C   0  0  0  0  0  0  0  0  0  0  0  0
  -24.0497  -40.6293   -6.4453 C   0  0  0  0  0  0  0  0  0  0  0  0
  -23.9344  -40.9931   -5.0130 C   0  0  0  0  0  0  0  0  0  0  0  0
  -22.5649  -41.4072   -4.5632 C   0  0  0  0  0  0  0  0  0  0  0  0
  -22.1703  -42.7764   -5.1038 C   0  0  0  0  0  0  0  0  0  0  0  0
  -20.4625  -43.0350   -4.7862 S   0  0  0  0  0  6  0  0  0  0  0  0
  -20.1245  -44.5112   -4.6499 O   0  0  0  0  0  0  0  0  0  0  0  0
  -20.0709  -42.4196   -3.4477 O   0  0  0  0  0  0  0  0  0  0  0  0
  -19.3895  -42.3546   -5.9910 C   0  0  0  0  0  0  0  0  0  0  0  0
  -19.2232  -43.1689   -7.2368 C   0  0  1  0  0  0  0  0  0  0  0  0
  -20.4426  -43.3967   -8.0403 C   0  0  0  0  0  0  0  0  0  0  0  0
  -18.0596  -42.6240   -7.9842 C   0  0  0  0  0  0  0  0  0  0  0  0
  -17.0455  -42.4627   -7.1948 O   0  0  0  0  0  0  0  0  0  0  0  0
  -17.9157  -42.2905   -9.3124 N   0  0  0  0  0  0  0  0  0  0  0  0
  -14.4787  -38.2230  -10.0332 C   0  0  0  0  0  0  0  0  0  0  0  0
  -13.9534  -37.3465  -10.9401 C   0  0  0  0  0  0  0  0  0  0  0  0
  -14.7786  -36.2357  -10.9401 C   0  0  0  0  0  0  0  0  0  0  0  0
  -14.5403  -35.0409  -11.8076 C   0  0  0  0  0  0  0  0  0  0  0  0
  -13.3304  -34.2755  -11.3422 C   0  0  0  0  0  0  0  0  0  0  0  0
  -13.5413  -33.6840   -9.9751 C   0  0  0  0  0  0  0  0  0  0  0  0
  -12.1029  -35.1494  -11.4051 C   0  0  0  0  0  0  0  0  0  0  0  0
  -13.1180  -33.1376  -12.3221 C   0  0  0  0  0  0  0  0  0  0  0  0
  -15.7188  -36.4663  -10.0837 O   0  0  0  0  0  0  0  0  0  0  0  0
  -15.5775  -37.6311   -9.5253 N   0  0  0  0  0  0  0  0  0  0  0  0
  2  1  1  6
  2  3  1  0
  3  4  1  0
  4  5  1  0
  5  6  1  6
  5  7  1  0
  7  8  1  1
  8  9  1  0
  9 10  1  6
  9 11  1  0
 11 12  1  0
 12 13  1  0
 13 14  1  0
 14 15  1  0
 15 16  1  0
 16 17  1  0
 17 18  1  0
 18 19  1  0
 19 20  2  0
 19 21  2  0
 19 22  1  0
 22 23  1  0
 23 24  1  6
 23 25  1  0
 25 26  2  0
 25 27  1  0
  2 28  1  0
 28 29  1  0
 29 30  2  0
 30 31  1  0
 31 32  1  0
 32 33  1  0
 32 34  1  0
 32 35  1  0
 30 36  1  0
 36 37  1  0
 27  7  1  0
 37 28  2  0
M  END
$$$$
