
     RDKit          3D

 37 38  0  0  0  0  0  0  0  0999 V2000
  -17.7842  -41.4092   -5.7557 C   0  0  0  0  0  0  0  0  0  0  0  0
  -18.2249  -40.8160   -7.0498 C   0  0  2  0  0  0  0  0  0  0  0  0
  -17.5114  -39.5928   -7.3347 N   0  0  0  0  0  0  0  0  0  0  0  0
  -16.0935  -39.7937   -7.5532 C   0  0  0  0  0  0  0  0  0  0  0  0
  -15.4068  -38.6120   -8.1119 C   0  0  1  0  0  0  0  0  0  0  0  0
  -15.4543  -37.4549   -7.3839 O   0  0  0  0  0  0  0  0  0  0  0  0
  -13.9814  -38.9854   -8.5597 C   0  0  2  0  0  0  0  0  0  0  0  0
  -13.6228  -38.4252   -9.8811 C   0  0  0  0  0  0  0  0  0  0  0  0
  -12.3442  -37.6589   -9.8590 C   0  0  2  0  0  0  0  0  0  0  0  0
  -12.3862  -36.4150   -8.9999 C   0  0  0  0  0  0  0  0  0  0  0  0
  -11.8365  -37.2281  -11.2094 C   0  0  0  0  0  0  0  0  0  0  0  0
  -12.8524  -37.1532  -12.2889 C   0  0  0  0  0  0  0  0  0  0  0  0
  -12.8084  -38.3060  -13.2698 C   0  0  0  0  0  0  0  0  0  0  0  0
  -11.9695  -38.0237  -14.4831 C   0  0  0  0  0  0  0  0  0  0  0  0
  -10.7956  -38.9428  -14.5023 C   0  0  0  0  0  0  0  0  0  0  0  0
  -10.9526  -40.1584  -15.3359 C   0  0  0  0  0  0  0  0  0  0  0  0
  -11.8325  -41.2258  -14.7567 C   0  0  0  0  0  0  0  0  0  0  0  0
  -11.1799  -41.9315  -13.5739 C   0  0  0  0  0  0  0  0  0  0  0  0
  -12.3858  -42.9326  -12.7818 S   0  0  0  0  0  6  0  0  0  0  0  0
  -11.7629  -44.1289  -12.0799 O   0  0  0  0  0  0  0  0  0  0  0  0
  -13.3366  -43.5347  -13.8101 O   0  0  0  0  0  0  0  0  0  0  0  0
  -13.3749  -42.0868  -11.6104 C   0  0  0  0  0  0  0  0  0  0  0  0
  -12.7456  -41.8808  -10.2672 C   0  0  1  0  0  0  0  0  0  0  0  0
  -11.5127  -41.0663  -10.2373 C   0  0  0  0  0  0  0  0  0  0  0  0
  -13.8137  -41.4556   -9.3250 C   0  0  0  0  0  0  0  0  0  0  0  0
  -14.8466  -42.2305   -9.4267 O   0  0  0  0  0  0  0  0  0  0  0  0
  -13.8567  -40.4223   -8.4157 N   0  0  0  0  0  0  0  0  0  0  0  0
  -19.6656  -40.4606   -6.9472 C   0  0  0  0  0  0  0  0  0  0  0  0
  -20.5924  -40.6219   -7.9380 C   0  0  0  0  0  0  0  0  0  0  0  0
  -21.7968  -40.1674   -7.4304 C   0  0  0  0  0  0  0  0  0  0  0  0
  -23.0696  -40.1759   -8.2158 C   0  0  0  0  0  0  0  0  0  0  0  0
  -23.4630  -38.7775   -8.6107 C   0  0  0  0  0  0  0  0  0  0  0  0
  -23.6873  -37.9041   -7.4065 C   0  0  0  0  0  0  0  0  0  0  0  0
  -22.4442  -38.1958   -9.5584 C   0  0  0  0  0  0  0  0  0  0  0  0
  -24.7713  -38.8797   -9.3710 C   0  0  0  0  0  0  0  0  0  0  0  0
  -21.5693  -39.7709   -6.2214 O   0  0  0  0  0  0  0  0  0  0  0  0
  -20.3207  -39.9273   -5.8974 N   0  0  0  0  0  0  0  0  0  0  0  0
  2  1  1  1
  2  3  1  0
  3  4  1  0
  4  5  1  0
  5  6  1  1
  5  7  1  0
  7  8  1  6
  8  9  1  0
  9 10  1  1
  9 11  1  0
 11 12  1  0
 12 13  1  0
 13 14  1  0
 14 15  1  0
 15 16  1  0
 16 17  1  0
 17 18  1  0
 18 19  1  0
 19 20  2  0
 19 21  2  0
 19 22  1  0
 22 23  1  0
 23 24  1  6
 23 25  1  0
 25 26  2  0
 25 27  1  0
  2 28  1  0
 28 29  1  0
 29 30  2  0
 30 31  1  0
 31 32  1  0
 32 33  1  0
 32 34  1  0
 32 35  1  0
 30 36  1  0
 36 37  1  0
 27  7  1  0
 37 28  2  0
M  END
$$$$
