
     RDKit          3D

 37 38  0  0  0  0  0  0  0  0999 V2000
  -13.1354  -40.9407  -10.9241 C   0  0  0  0  0  0  0  0  0  0  0  0
  -13.7113  -39.6833  -10.3691 C   0  0  2  0  0  0  0  0  0  0  0  0
  -14.9883  -39.9259   -9.7391 N   0  0  0  0  0  0  0  0  0  0  0  0
  -14.8832  -40.2149   -8.3234 C   0  0  0  0  0  0  0  0  0  0  0  0
  -16.1054  -39.8917   -7.5605 C   0  0  1  0  0  0  0  0  0  0  0  0
  -16.3008  -38.5836   -7.2112 O   0  0  0  0  0  0  0  0  0  0  0  0
  -17.3371  -40.5277   -8.2316 C   0  0  2  0  0  0  0  0  0  0  0  0
  -18.5820  -40.3423   -7.4542 C   0  0  0  0  0  0  0  0  0  0  0  0
  -19.6873  -39.7507   -8.2609 C   0  0  2  0  0  0  0  0  0  0  0  0
  -19.4139  -38.3432   -8.7420 C   0  0  0  0  0  0  0  0  0  0  0  0
  -21.0273  -39.7146   -7.5754 C   0  0  0  0  0  0  0  0  0  0  0  0
  -20.9975  -39.7760   -6.0928 C   0  0  0  0  0  0  0  0  0  0  0  0
  -21.3728  -41.1246   -5.5153 C   0  0  0  0  0  0  0  0  0  0  0  0
  -22.8295  -41.2390   -5.1679 C   0  0  0  0  0  0  0  0  0  0  0  0
  -23.4692  -42.2700   -6.0345 C   0  0  0  0  0  0  0  0  0  0  0  0
  -23.5885  -43.6203   -5.4349 C   0  0  0  0  0  0  0  0  0  0  0  0
  -22.3141  -44.4079   -5.3659 C   0  0  0  0  0  0  0  0  0  0  0  0
  -21.8578  -44.8871   -6.7388 C   0  0  0  0  0  0  0  0  0  0  0  0
  -20.2262  -45.5216   -6.5989 S   0  0  0  0  0  6  0  0  0  0  0  0
  -19.9351  -46.5839   -7.6470 O   0  0  0  0  0  0  0  0  0  0  0  0
  -20.0440  -46.2315   -5.2623 O   0  0  0  0  0  0  0  0  0  0  0  0
  -18.9656  -44.3112   -6.7066 C   0  0  0  0  0  0  0  0  0  0  0  0
  -18.6146  -43.8706   -8.0942 C   0  0  1  0  0  0  0  0  0  0  0  0
  -19.6936  -43.2252   -8.8711 C   0  0  0  0  0  0  0  0  0  0  0  0
  -17.3393  -43.1105   -8.0210 C   0  0  0  0  0  0  0  0  0  0  0  0
  -16.4616  -43.7586   -7.3229 O   0  0  0  0  0  0  0  0  0  0  0  0
  -16.9810  -41.8943   -8.5582 N   0  0  0  0  0  0  0  0  0  0  0  0
  -13.9564  -38.7345  -11.4882 C   0  0  0  0  0  0  0  0  0  0  0  0
  -13.1840  -37.6480  -11.7874 C   0  0  0  0  0  0  0  0  0  0  0  0
  -13.7615  -37.0441  -12.8904 C   0  0  0  0  0  0  0  0  0  0  0  0
  -13.2077  -35.8108  -13.5301 C   0  0  0  0  0  0  0  0  0  0  0  0
  -13.8501  -34.5765  -12.9556 C   0  0  0  0  0  0  0  0  0  0  0  0
  -15.3402  -34.5797  -13.1633 C   0  0  0  0  0  0  0  0  0  0  0  0
  -13.4746  -34.4194  -11.5035 C   0  0  0  0  0  0  0  0  0  0  0  0
  -13.2720  -33.3862  -13.6967 C   0  0  0  0  0  0  0  0  0  0  0  0
  -14.8016  -37.7458  -13.2013 O   0  0  0  0  0  0  0  0  0  0  0  0
  -14.9520  -38.7544  -12.3960 N   0  0  0  0  0  0  0  0  0  0  0  0
  2  1  1  6
  2  3  1  0
  3  4  1  0
  4  5  1  0
  5  6  1  6
  5  7  1  0
  7  8  1  1
  8  9  1  0
  9 10  1  1
  9 11  1  0
 11 12  1  0
 12 13  1  0
 13 14  1  0
 14 15  1  0
 15 16  1  0
 16 17  1  0
 17 18  1  0
 18 19  1  0
 19 20  2  0
 19 21  2  0
 19 22  1  0
 22 23  1  0
 23 24  1  1
 23 25  1  0
 25 26  2  0
 25 27  1  0
  2 28  1  0
 28 29  1  0
 29 30  2  0
 30 31  1  0
 31 32  1  0
 32 33  1  0
 32 34  1  0
 32 35  1  0
 30 36  1  0
 36 37  1  0
 27  7  1  0
 37 28  2  0
M  END
$$$$
