
     RDKit          3D

 37 38  0  0  0  0  0  0  0  0999 V2000
  -12.7818  -41.9195  -10.5308 C   0  0  0  0  0  0  0  0  0  0  0  0
  -13.3765  -40.7284   -9.8613 C   0  0  2  0  0  0  0  0  0  0  0  0
  -14.6095  -41.0669   -9.1893 N   0  0  0  0  0  0  0  0  0  0  0  0
  -15.4441  -39.9164   -8.9091 C   0  0  0  0  0  0  0  0  0  0  0  0
  -16.4142  -40.1398   -7.8186 C   0  0  1  0  0  0  0  0  0  0  0  0
  -16.6141  -39.1146   -6.9354 O   0  0  0  0  0  0  0  0  0  0  0  0
  -17.7268  -40.7159   -8.3819 C   0  0  2  0  0  0  0  0  0  0  0  0
  -18.8826  -40.5149   -7.4807 C   0  0  0  0  0  0  0  0  0  0  0  0
  -20.0404  -39.8644   -8.1581 C   0  0  2  0  0  0  0  0  0  0  0  0
  -19.7670  -38.4523   -8.6254 C   0  0  0  0  0  0  0  0  0  0  0  0
  -21.3050  -39.8068   -7.3430 C   0  0  0  0  0  0  0  0  0  0  0  0
  -21.1326  -39.9141   -5.8727 C   0  0  0  0  0  0  0  0  0  0  0  0
  -21.4959  -41.2671   -5.2977 C   0  0  0  0  0  0  0  0  0  0  0  0
  -22.9147  -41.3459   -4.8115 C   0  0  0  0  0  0  0  0  0  0  0  0
  -23.6712  -42.3293   -5.6384 C   0  0  0  0  0  0  0  0  0  0  0  0
  -23.7778  -43.6928   -5.0668 C   0  0  0  0  0  0  0  0  0  0  0  0
  -22.5307  -44.5220   -5.1453 C   0  0  0  0  0  0  0  0  0  0  0  0
  -22.2275  -44.9735   -6.5691 C   0  0  0  0  0  0  0  0  0  0  0  0
  -20.6129  -45.6632   -6.6081 S   0  0  0  0  0  6  0  0  0  0  0  0
  -20.4624  -46.7019   -7.7083 O   0  0  0  0  0  0  0  0  0  0  0  0
  -20.3255  -46.4188   -5.3158 O   0  0  0  0  0  0  0  0  0  0  0  0
  -19.3279  -44.4906   -6.8068 C   0  0  0  0  0  0  0  0  0  0  0  0
  -19.0992  -44.0193   -8.2098 C   0  0  1  0  0  0  0  0  0  0  0  0
  -20.2261  -43.3168   -8.8586 C   0  0  0  0  0  0  0  0  0  0  0  0
  -17.7974  -43.3026   -8.2422 C   0  0  0  0  0  0  0  0  0  0  0  0
  -16.8785  -43.9989   -7.6520 O   0  0  0  0  0  0  0  0  0  0  0  0
  -17.4517  -42.0825   -8.7789 N   0  0  0  0  0  0  0  0  0  0  0  0
  -13.7144  -39.7161  -10.8975 C   0  0  0  0  0  0  0  0  0  0  0  0
  -13.4863  -38.3729  -10.7949 C   0  0  0  0  0  0  0  0  0  0  0  0
  -13.9483  -37.8028  -11.9681 C   0  0  0  0  0  0  0  0  0  0  0  0
  -13.8784  -36.3349  -12.2459 C   0  0  0  0  0  0  0  0  0  0  0  0
  -12.9102  -36.0479  -13.3625 C   0  0  0  0  0  0  0  0  0  0  0  0
  -11.5104  -36.4654  -13.0028 C   0  0  0  0  0  0  0  0  0  0  0  0
  -13.3865  -36.6848  -14.6439 C   0  0  0  0  0  0  0  0  0  0  0  0
  -12.9144  -34.5473  -13.5823 C   0  0  0  0  0  0  0  0  0  0  0  0
  -14.4119  -38.7649  -12.6962 O   0  0  0  0  0  0  0  0  0  0  0  0
  -14.2923  -39.9126  -12.0987 N   0  0  0  0  0  0  0  0  0  0  0  0
  2  1  1  6
  2  3  1  0
  3  4  1  0
  4  5  1  0
  5  6  1  6
  5  7  1  0
  7  8  1  1
  8  9  1  0
  9 10  1  1
  9 11  1  0
 11 12  1  0
 12 13  1  0
 13 14  1  0
 14 15  1  0
 15 16  1  0
 16 17  1  0
 17 18  1  0
 18 19  1  0
 19 20  2  0
 19 21  2  0
 19 22  1  0
 22 23  1  0
 23 24  1  1
 23 25  1  0
 25 26  2  0
 25 27  1  0
  2 28  1  0
 28 29  1  0
 29 30  2  0
 30 31  1  0
 31 32  1  0
 32 33  1  0
 32 34  1  0
 32 35  1  0
 30 36  1  0
 36 37  1  0
 27  7  1  0
 37 28  2  0
M  END
$$$$
