
     RDKit          3D

 37 38  0  0  0  0  0  0  0  0999 V2000
  -13.4793  -41.0931   -9.6063 C   0  0  0  0  0  0  0  0  0  0  0  0
  -13.7283  -39.6238   -9.6018 C   0  0  2  0  0  0  0  0  0  0  0  0
  -15.0592  -39.3200   -9.1298 N   0  0  0  0  0  0  0  0  0  0  0  0
  -15.2747  -39.6887   -7.7456 C   0  0  0  0  0  0  0  0  0  0  0  0
  -16.5566  -39.2040   -7.1960 C   0  0  1  0  0  0  0  0  0  0  0  0
  -16.7140  -37.8512   -7.0677 O   0  0  0  0  0  0  0  0  0  0  0  0
  -17.7365  -39.8836   -7.9154 C   0  0  2  0  0  0  0  0  0  0  0  0
  -19.0201  -39.7320   -7.1957 C   0  0  0  0  0  0  0  0  0  0  0  0
  -20.1062  -39.1816   -8.0558 C   0  0  2  0  0  0  0  0  0  0  0  0
  -19.8559  -37.7697   -8.5365 C   0  0  0  0  0  0  0  0  0  0  0  0
  -21.4760  -39.1830   -7.4307 C   0  0  0  0  0  0  0  0  0  0  0  0
  -21.5105  -39.2326   -5.9477 C   0  0  0  0  0  0  0  0  0  0  0  0
  -21.8688  -40.5882   -5.3757 C   0  0  0  0  0  0  0  0  0  0  0  0
  -23.3351  -40.7461   -5.0923 C   0  0  0  0  0  0  0  0  0  0  0  0
  -23.9029  -41.8032   -5.9774 C   0  0  0  0  0  0  0  0  0  0  0  0
  -24.0065  -43.1522   -5.3719 C   0  0  0  0  0  0  0  0  0  0  0  0
  -22.7125  -43.8984   -5.2397 C   0  0  0  0  0  0  0  0  0  0  0  0
  -22.1806  -44.3730   -6.5868 C   0  0  0  0  0  0  0  0  0  0  0  0
  -20.5378  -44.9544   -6.3691 S   0  0  0  0  0  6  0  0  0  0  0  0
  -20.1671  -46.0146   -7.3940 O   0  0  0  0  0  0  0  0  0  0  0  0
  -20.3932  -45.6485   -5.0196 O   0  0  0  0  0  0  0  0  0  0  0  0
  -19.3122  -43.7055   -6.4314 C   0  0  0  0  0  0  0  0  0  0  0  0
  -18.9136  -43.2641   -7.8057 C   0  0  1  0  0  0  0  0  0  0  0  0
  -19.9766  -42.6589   -8.6354 C   0  0  0  0  0  0  0  0  0  0  0  0
  -17.6672  -42.4636   -7.6827 C   0  0  0  0  0  0  0  0  0  0  0  0
  -16.8017  -43.0784   -6.9407 O   0  0  0  0  0  0  0  0  0  0  0  0
  -17.3236  -41.2405   -8.2140 N   0  0  0  0  0  0  0  0  0  0  0  0
  -13.6407  -39.1195  -10.9984 C   0  0  0  0  0  0  0  0  0  0  0  0
  -12.9729  -37.9947  -11.3926 C   0  0  0  0  0  0  0  0  0  0  0  0
  -13.1454  -37.8919  -12.7617 C   0  0  0  0  0  0  0  0  0  0  0  0
  -12.5619  -36.7826  -13.5778 C   0  0  0  0  0  0  0  0  0  0  0  0
  -12.5672  -35.4909  -12.8048 C   0  0  0  0  0  0  0  0  0  0  0  0
  -11.6646  -35.5606  -11.6033 C   0  0  0  0  0  0  0  0  0  0  0  0
  -12.2239  -34.3368  -13.7129 C   0  0  0  0  0  0  0  0  0  0  0  0
  -13.9862  -35.2679  -12.3178 C   0  0  0  0  0  0  0  0  0  0  0  0
  -13.8688  -38.8994  -13.1258 O   0  0  0  0  0  0  0  0  0  0  0  0
  -14.1829  -39.6494  -12.1123 N   0  0  0  0  0  0  0  0  0  0  0  0
  2  1  1  6
  2  3  1  0
  3  4  1  0
  4  5  1  0
  5  6  1  6
  5  7  1  0
  7  8  1  1
  8  9  1  0
  9 10  1  1
  9 11  1  0
 11 12  1  0
 12 13  1  0
 13 14  1  0
 14 15  1  0
 15 16  1  0
 16 17  1  0
 17 18  1  0
 18 19  1  0
 19 20  2  0
 19 21  2  0
 19 22  1  0
 22 23  1  0
 23 24  1  1
 23 25  1  0
 25 26  2  0
 25 27  1  0
  2 28  1  0
 28 29  1  0
 29 30  2  0
 30 31  1  0
 31 32  1  0
 32 33  1  0
 32 34  1  0
 32 35  1  0
 30 36  1  0
 36 37  1  0
 27  7  1  0
 37 28  2  0
M  END
$$$$
