
     RDKit          3D

 37 38  0  0  0  0  0  0  0  0999 V2000
  -18.6789  -36.0493   -9.3705 C   0  0  0  0  0  0  0  0  0  0  0  0
  -18.3181  -37.0491  -10.4150 C   0  0  2  0  0  0  0  0  0  0  0  0
  -18.1344  -38.3621   -9.8415 N   0  0  0  0  0  0  0  0  0  0  0  0
  -16.9462  -38.4675   -9.0196 C   0  0  0  0  0  0  0  0  0  0  0  0
  -16.3314  -39.8099   -9.0365 C   0  0  1  0  0  0  0  0  0  0  0  0
  -14.9699  -39.8762   -9.1509 O   0  0  0  0  0  0  0  0  0  0  0  0
  -16.8822  -40.6635   -7.8790 C   0  0  2  0  0  0  0  0  0  0  0  0
  -16.5215  -42.0939   -7.9902 C   0  0  0  0  0  0  0  0  0  0  0  0
  -15.8753  -42.6270   -6.7571 C   0  0  2  0  0  0  0  0  0  0  0  0
  -14.5372  -41.9972   -6.4411 C   0  0  0  0  0  0  0  0  0  0  0  0
  -15.6594  -44.1170   -6.7445 C   0  0  0  0  0  0  0  0  0  0  0  0
  -15.6264  -44.7773   -8.0733 C   0  0  0  0  0  0  0  0  0  0  0  0
  -16.8895  -45.5340   -8.4270 C   0  0  0  0  0  0  0  0  0  0  0  0
  -16.8332  -46.9898   -8.0624 C   0  0  0  0  0  0  0  0  0  0  0  0
  -17.8488  -47.2799   -7.0099 C   0  0  0  0  0  0  0  0  0  0  0  0
  -19.1380  -47.8214   -7.5015 C   0  0  0  0  0  0  0  0  0  0  0  0
  -20.0441  -46.8248   -8.1611 C   0  0  0  0  0  0  0  0  0  0  0  0
  -20.6557  -45.8515   -7.1605 C   0  0  0  0  0  0  0  0  0  0  0  0
  -21.4412  -44.5544   -8.0464 S   0  0  0  0  0  6  0  0  0  0  0  0
  -22.5937  -43.9452   -7.2639 O   0  0  0  0  0  0  0  0  0  0  0  0
  -22.0770  -45.0912   -9.3237 O   0  0  0  0  0  0  0  0  0  0  0  0
  -20.3740  -43.2497   -8.5204 C   0  0  0  0  0  0  0  0  0  0  0  0
  -20.0628  -42.2522   -7.4477 C   0  0  1  0  0  0  0  0  0  0  0  0
  -19.3638  -42.7694   -6.2525 C   0  0  0  0  0  0  0  0  0  0  0  0
  -19.4323  -41.0714   -8.0939 C   0  0  0  0  0  0  0  0  0  0  0  0
  -20.1186  -40.6957   -9.1261 O   0  0  0  0  0  0  0  0  0  0  0  0
  -18.2962  -40.3640   -7.7697 N   0  0  0  0  0  0  0  0  0  0  0  0
  -17.0176  -36.6585  -11.0223 C   0  0  0  0  0  0  0  0  0  0  0  0
  -16.6393  -36.9099  -12.3108 C   0  0  0  0  0  0  0  0  0  0  0  0
  -15.3681  -36.3837  -12.4594 C   0  0  0  0  0  0  0  0  0  0  0  0
  -14.5985  -36.4558  -13.7397 C   0  0  0  0  0  0  0  0  0  0  0  0
  -14.2748  -35.0758  -14.2469 C   0  0  0  0  0  0  0  0  0  0  0  0
  -15.5208  -34.3031  -14.5840 C   0  0  0  0  0  0  0  0  0  0  0  0
  -13.3991  -34.3476  -13.2584 C   0  0  0  0  0  0  0  0  0  0  0  0
  -13.4655  -35.2459  -15.5183 C   0  0  0  0  0  0  0  0  0  0  0  0
  -15.0419  -35.8629  -11.3222 O   0  0  0  0  0  0  0  0  0  0  0  0
  -15.9903  -36.0046  -10.4454 N   0  0  0  0  0  0  0  0  0  0  0  0
  2  1  1  1
  2  3  1  0
  3  4  1  0
  4  5  1  0
  5  6  1  1
  5  7  1  0
  7  8  1  6
  8  9  1  0
  9 10  1  6
  9 11  1  0
 11 12  1  0
 12 13  1  0
 13 14  1  0
 14 15  1  0
 15 16  1  0
 16 17  1  0
 17 18  1  0
 18 19  1  0
 19 20  2  0
 19 21  2  0
 19 22  1  0
 22 23  1  0
 23 24  1  1
 23 25  1  0
 25 26  2  0
 25 27  1  0
  2 28  1  0
 28 29  1  0
 29 30  2  0
 30 31  1  0
 31 32  1  0
 32 33  1  0
 32 34  1  0
 32 35  1  0
 30 36  1  0
 36 37  1  0
 27  7  1  0
 37 28  2  0
M  END
$$$$
