
     RDKit          3D

 37 38  0  0  0  0  0  0  0  0999 V2000
  -13.0080  -36.1091   -9.7865 C   0  0  0  0  0  0  0  0  0  0  0  0
  -14.1386  -36.9708  -10.2335 C   0  0  2  0  0  0  0  0  0  0  0  0
  -14.4028  -38.0237   -9.2806 N   0  0  0  0  0  0  0  0  0  0  0  0
  -15.6351  -37.8337   -8.5433 C   0  0  0  0  0  0  0  0  0  0  0  0
  -16.0480  -39.0181   -7.7642 C   0  0  1  0  0  0  0  0  0  0  0  0
  -16.3897  -38.8210   -6.4544 O   0  0  0  0  0  0  0  0  0  0  0  0
  -17.0965  -39.8317   -8.5456 C   0  0  2  0  0  0  0  0  0  0  0  0
  -18.4781  -39.6118   -8.0646 C   0  0  0  0  0  0  0  0  0  0  0  0
  -19.4183  -39.2281   -9.1560 C   0  0  2  0  0  0  0  0  0  0  0  0
  -19.1030  -37.8972   -9.8014 C   0  0  0  0  0  0  0  0  0  0  0  0
  -20.8693  -39.1761   -8.7575 C   0  0  0  0  0  0  0  0  0  0  0  0
  -21.1364  -39.0044   -7.3076 C   0  0  0  0  0  0  0  0  0  0  0  0
  -21.5729  -40.2691   -6.5983 C   0  0  0  0  0  0  0  0  0  0  0  0
  -23.0648  -40.4257   -6.5245 C   0  0  0  0  0  0  0  0  0  0  0  0
  -23.4806  -41.6193   -7.3154 C   0  0  0  0  0  0  0  0  0  0  0  0
  -23.6709  -42.8651   -6.5351 C   0  0  0  0  0  0  0  0  0  0  0  0
  -22.4097  -43.5451   -6.0923 C   0  0  0  0  0  0  0  0  0  0  0  0
  -21.6700  -44.1999   -7.2528 C   0  0  0  0  0  0  0  0  0  0  0  0
  -20.0789  -44.6941   -6.6978 S   0  0  0  0  0  6  0  0  0  0  0  0
  -19.5458  -45.8843   -7.4795 O   0  0  0  0  0  0  0  0  0  0  0  0
  -20.1446  -45.1741   -5.2524 O   0  0  0  0  0  0  0  0  0  0  0  0
  -18.8654  -43.4333   -6.7590 C   0  0  0  0  0  0  0  0  0  0  0  0
  -18.2580  -43.1908   -8.1061 C   0  0  1  0  0  0  0  0  0  0  0  0
  -19.1804  -42.7477   -9.1725 C   0  0  0  0  0  0  0  0  0  0  0  0
  -17.0508  -42.3448   -7.9150 C   0  0  0  0  0  0  0  0  0  0  0  0
  -16.3095  -42.8163   -6.9633 O   0  0  0  0  0  0  0  0  0  0  0  0
  -16.6345  -41.2054   -8.5667 N   0  0  0  0  0  0  0  0  0  0  0  0
  -13.7606  -37.6312  -11.5116 C   0  0  0  0  0  0  0  0  0  0  0  0
  -12.5025  -37.6628  -12.0435 C   0  0  0  0  0  0  0  0  0  0  0  0
  -12.5922  -38.3708  -13.2291 C   0  0  0  0  0  0  0  0  0  0  0  0
  -11.4174  -38.6278  -14.1181 C   0  0  0  0  0  0  0  0  0  0  0  0
  -11.7786  -39.5936  -15.2150 C   0  0  0  0  0  0  0  0  0  0  0  0
  -11.2290  -40.9680  -14.9461 C   0  0  0  0  0  0  0  0  0  0  0  0
  -13.2712  -39.6055  -15.4304 C   0  0  0  0  0  0  0  0  0  0  0  0
  -11.1481  -39.0739  -16.4928 C   0  0  0  0  0  0  0  0  0  0  0  0
  -13.8289  -38.7221  -13.3641 O   0  0  0  0  0  0  0  0  0  0  0  0
  -14.5527  -38.3038  -12.3694 N   0  0  0  0  0  0  0  0  0  0  0  0
  2  1  1  1
  2  3  1  0
  3  4  1  0
  4  5  1  0
  5  6  1  1
  5  7  1  0
  7  8  1  1
  8  9  1  0
  9 10  1  1
  9 11  1  0
 11 12  1  0
 12 13  1  0
 13 14  1  0
 14 15  1  0
 15 16  1  0
 16 17  1  0
 17 18  1  0
 18 19  1  0
 19 20  2  0
 19 21  2  0
 19 22  1  0
 22 23  1  0
 23 24  1  6
 23 25  1  0
 25 26  2  0
 25 27  1  0
  2 28  1  0
 28 29  1  0
 29 30  2  0
 30 31  1  0
 31 32  1  0
 32 33  1  0
 32 34  1  0
 32 35  1  0
 30 36  1  0
 36 37  1  0
 27  7  1  0
 37 28  2  0
M  END
$$$$
