
     RDKit          3D

 37 38  0  0  0  0  0  0  0  0999 V2000
  -12.6974  -41.0230  -10.5707 C   0  0  0  0  0  0  0  0  0  0  0  0
  -12.9427  -39.6241  -10.1195 C   0  0  2  0  0  0  0  0  0  0  0  0
  -13.7694  -39.5935   -8.9353 N   0  0  0  0  0  0  0  0  0  0  0  0
  -15.1798  -39.4336   -9.2249 C   0  0  0  0  0  0  0  0  0  0  0  0
  -16.0550  -39.6791   -8.0613 C   0  0  1  0  0  0  0  0  0  0  0  0
  -16.0943  -38.7164   -7.0902 O   0  0  0  0  0  0  0  0  0  0  0  0
  -17.4538  -40.1214   -8.5298 C   0  0  2  0  0  0  0  0  0  0  0  0
  -18.4828  -40.0072   -7.4730 C   0  0  0  0  0  0  0  0  0  0  0  0
  -19.6759  -39.2257   -7.9068 C   0  0  2  0  0  0  0  0  0  0  0  0
  -19.3842  -37.7728   -8.2088 C   0  0  0  0  0  0  0  0  0  0  0  0
  -20.8305  -39.2373   -6.9405 C   0  0  0  0  0  0  0  0  0  0  0  0
  -20.4917  -39.5571   -5.5312 C   0  0  0  0  0  0  0  0  0  0  0  0
  -20.8566  -40.9634   -5.1043 C   0  0  0  0  0  0  0  0  0  0  0  0
  -22.2102  -41.0578   -4.4606 C   0  0  0  0  0  0  0  0  0  0  0  0
  -23.1106  -41.8864   -5.3126 C   0  0  0  0  0  0  0  0  0  0  0  0
  -23.2219  -43.3120   -4.9222 C   0  0  0  0  0  0  0  0  0  0  0  0
  -22.0391  -44.1671   -5.2668 C   0  0  0  0  0  0  0  0  0  0  0  0
  -21.9308  -44.4241   -6.7652 C   0  0  0  0  0  0  0  0  0  0  0  0
  -20.3714  -45.1601   -7.0978 S   0  0  0  0  0  6  0  0  0  0  0  0
  -20.4077  -46.0381   -8.3386 O   0  0  0  0  0  0  0  0  0  0  0  0
  -19.9743  -46.1005   -5.9656 O   0  0  0  0  0  0  0  0  0  0  0  0
  -19.0578  -44.0192   -7.2940 C   0  0  0  0  0  0  0  0  0  0  0  0
  -18.9714  -43.3635   -8.6376 C   0  0  1  0  0  0  0  0  0  0  0  0
  -20.1277  -42.5356   -9.0401 C   0  0  0  0  0  0  0  0  0  0  0  0
  -17.6460  -42.6976   -8.7342 C   0  0  0  0  0  0  0  0  0  0  0  0
  -16.7025  -43.5035   -8.3627 O   0  0  0  0  0  0  0  0  0  0  0  0
  -17.3012  -41.4275   -9.1395 N   0  0  0  0  0  0  0  0  0  0  0  0
  -13.6885  -38.9016  -11.1845 C   0  0  0  0  0  0  0  0  0  0  0  0
  -13.6170  -37.5593  -11.4284 C   0  0  0  0  0  0  0  0  0  0  0  0
  -14.4623  -37.3056  -12.4943 C   0  0  0  0  0  0  0  0  0  0  0  0
  -14.6650  -35.9398  -13.0692 C   0  0  0  0  0  0  0  0  0  0  0  0
  -15.5752  -35.1211  -12.1932 C   0  0  0  0  0  0  0  0  0  0  0  0
  -15.4137  -33.6477  -12.4505 C   0  0  0  0  0  0  0  0  0  0  0  0
  -17.0038  -35.5773  -12.3530 C   0  0  0  0  0  0  0  0  0  0  0  0
  -15.1777  -35.3965  -10.7557 C   0  0  0  0  0  0  0  0  0  0  0  0
  -14.9842  -38.4372  -12.8374 O   0  0  0  0  0  0  0  0  0  0  0  0
  -14.5525  -39.4063  -12.0871 N   0  0  0  0  0  0  0  0  0  0  0  0
  2  1  1  6
  2  3  1  0
  3  4  1  0
  4  5  1  0
  5  6  1  6
  5  7  1  0
  7  8  1  1
  8  9  1  0
  9 10  1  1
  9 11  1  0
 11 12  1  0
 12 13  1  0
 13 14  1  0
 14 15  1  0
 15 16  1  0
 16 17  1  0
 17 18  1  0
 18 19  1  0
 19 20  2  0
 19 21  2  0
 19 22  1  0
 22 23  1  0
 23 24  1  1
 23 25  1  0
 25 26  2  0
 25 27  1  0
  2 28  1  0
 28 29  1  0
 29 30  2  0
 30 31  1  0
 31 32  1  0
 32 33  1  0
 32 34  1  0
 32 35  1  0
 30 36  1  0
 36 37  1  0
 27  7  1  0
 37 28  2  0
M  END
$$$$
