
     RDKit          3D

 37 38  0  0  0  0  0  0  0  0999 V2000
  -12.0116  -37.4493   -9.5533 C   0  0  0  0  0  0  0  0  0  0  0  0
  -13.3520  -38.0098   -9.8850 C   0  0  2  0  0  0  0  0  0  0  0  0
  -13.8604  -38.8240   -8.8057 N   0  0  0  0  0  0  0  0  0  0  0  0
  -15.1198  -39.4683   -9.1179 C   0  0  0  0  0  0  0  0  0  0  0  0
  -16.2051  -39.1366   -8.1733 C   0  0  1  0  0  0  0  0  0  0  0  0
  -16.2834  -37.8431   -7.7350 O   0  0  0  0  0  0  0  0  0  0  0  0
  -17.5492  -39.6803   -8.6926 C   0  0  2  0  0  0  0  0  0  0  0  0
  -18.6592  -39.4979   -7.7317 C   0  0  0  0  0  0  0  0  0  0  0  0
  -19.8398  -38.8136   -8.3320 C   0  0  2  0  0  0  0  0  0  0  0  0
  -19.5722  -37.3896   -8.7651 C   0  0  0  0  0  0  0  0  0  0  0  0
  -21.0640  -38.7706   -7.4567 C   0  0  0  0  0  0  0  0  0  0  0  0
  -20.8242  -38.9287   -6.0005 C   0  0  0  0  0  0  0  0  0  0  0  0
  -21.1759  -40.2964   -5.4538 C   0  0  0  0  0  0  0  0  0  0  0  0
  -22.5712  -40.3771   -4.9041 C   0  0  0  0  0  0  0  0  0  0  0  0
  -23.3768  -41.3248   -5.7262 C   0  0  0  0  0  0  0  0  0  0  0  0
  -23.4723  -42.7054   -5.1954 C   0  0  0  0  0  0  0  0  0  0  0  0
  -22.2400  -43.5440   -5.3598 C   0  0  0  0  0  0  0  0  0  0  0  0
  -22.0091  -43.9508   -6.8104 C   0  0  0  0  0  0  0  0  0  0  0  0
  -20.4062  -44.6549   -6.9482 S   0  0  0  0  0  6  0  0  0  0  0  0
  -20.3194  -45.6577   -8.0878 O   0  0  0  0  0  0  0  0  0  0  0  0
  -20.0673  -45.4561   -5.6964 O   0  0  0  0  0  0  0  0  0  0  0  0
  -19.1183  -43.4892   -7.1687 C   0  0  0  0  0  0  0  0  0  0  0  0
  -18.9502  -42.9737   -8.5646 C   0  0  1  0  0  0  0  0  0  0  0  0
  -20.0980  -42.2387   -9.1361 C   0  0  0  0  0  0  0  0  0  0  0  0
  -17.6431  -42.2694   -8.6348 C   0  0  0  0  0  0  0  0  0  0  0  0
  -16.7057  -42.9942   -8.1118 O   0  0  0  0  0  0  0  0  0  0  0  0
  -17.3088  -41.0356   -9.1469 N   0  0  0  0  0  0  0  0  0  0  0  0
  -13.2188  -38.8992  -11.0699 C   0  0  0  0  0  0  0  0  0  0  0  0
  -13.6095  -38.5867  -12.3412 C   0  0  0  0  0  0  0  0  0  0  0  0
  -13.3091  -39.6845  -13.1282 C   0  0  0  0  0  0  0  0  0  0  0  0
  -13.5869  -39.7375  -14.5968 C   0  0  0  0  0  0  0  0  0  0  0  0
  -12.3034  -39.7386  -15.3836 C   0  0  0  0  0  0  0  0  0  0  0  0
  -11.2904  -38.7967  -14.7922 C   0  0  0  0  0  0  0  0  0  0  0  0
  -11.7715  -41.1437  -15.5140 C   0  0  0  0  0  0  0  0  0  0  0  0
  -12.6370  -39.2568  -16.7824 C   0  0  0  0  0  0  0  0  0  0  0  0
  -12.7782  -40.5701  -12.3506 O   0  0  0  0  0  0  0  0  0  0  0  0
  -12.7070  -40.1445  -11.1250 N   0  0  0  0  0  0  0  0  0  0  0  0
  2  1  1  1
  2  3  1  0
  3  4  1  0
  4  5  1  0
  5  6  1  6
  5  7  1  0
  7  8  1  1
  8  9  1  0
  9 10  1  1
  9 11  1  0
 11 12  1  0
 12 13  1  0
 13 14  1  0
 14 15  1  0
 15 16  1  0
 16 17  1  0
 17 18  1  0
 18 19  1  0
 19 20  2  0
 19 21  2  0
 19 22  1  0
 22 23  1  0
 23 24  1  1
 23 25  1  0
 25 26  2  0
 25 27  1  0
  2 28  1  0
 28 29  1  0
 29 30  2  0
 30 31  1  0
 31 32  1  0
 32 33  1  0
 32 34  1  0
 32 35  1  0
 30 36  1  0
 36 37  1  0
 27  7  1  0
 37 28  2  0
M  END
$$$$
