
     RDKit          3D

 37 38  0  0  0  0  0  0  0  0999 V2000
  -18.1554  -40.4045   -5.0163 C   0  0  0  0  0  0  0  0  0  0  0  0
  -18.3022  -40.5894   -6.4877 C   0  0  2  0  0  0  0  0  0  0  0  0
  -17.4235  -39.7045   -7.2167 N   0  0  0  0  0  0  0  0  0  0  0  0
  -16.0190  -39.9921   -7.0087 C   0  0  0  0  0  0  0  0  0  0  0  0
  -15.1140  -39.1044   -7.7658 C   0  0  1  0  0  0  0  0  0  0  0  0
  -14.6079  -38.0158   -7.1101 O   0  0  0  0  0  0  0  0  0  0  0  0
  -14.0328  -39.9326   -8.4848 C   0  0  2  0  0  0  0  0  0  0  0  0
  -13.4741  -39.2508   -9.6729 C   0  0  0  0  0  0  0  0  0  0  0  0
  -11.9857  -39.1708   -9.6497 C   0  0  2  0  0  0  0  0  0  0  0  0
  -11.4314  -38.3273   -8.5235 C   0  0  0  0  0  0  0  0  0  0  0  0
  -11.3557  -38.6576  -10.9172 C   0  0  0  0  0  0  0  0  0  0  0  0
  -12.2357  -37.8460  -11.7947 C   0  0  0  0  0  0  0  0  0  0  0  0
  -12.7476  -38.5792  -13.0168 C   0  0  0  0  0  0  0  0  0  0  0  0
  -11.8916  -38.3773  -14.2342 C   0  0  0  0  0  0  0  0  0  0  0  0
  -11.2806  -39.6770  -14.6351 C   0  0  0  0  0  0  0  0  0  0  0  0
  -11.9974  -40.4150  -15.7022 C   0  0  0  0  0  0  0  0  0  0  0  0
  -13.2643  -41.0940  -15.2745 C   0  0  0  0  0  0  0  0  0  0  0  0
  -12.9978  -42.3107  -14.3961 C   0  0  0  0  0  0  0  0  0  0  0  0
  -14.5193  -42.8469  -13.7022 S   0  0  0  0  0  6  0  0  0  0  0  0
  -14.5144  -44.3367  -13.3982 O   0  0  0  0  0  0  0  0  0  0  0  0
  -15.6560  -42.6558  -14.6999 O   0  0  0  0  0  0  0  0  0  0  0  0
  -14.9839  -42.0084  -12.2370 C   0  0  0  0  0  0  0  0  0  0  0  0
  -14.3114  -42.4813  -10.9853 C   0  0  1  0  0  0  0  0  0  0  0  0
  -12.8408  -42.3420  -10.9368 C   0  0  0  0  0  0  0  0  0  0  0  0
  -15.0451  -41.9035   -9.8288 C   0  0  0  0  0  0  0  0  0  0  0  0
  -16.3212  -42.0780   -9.9650 O   0  0  0  0  0  0  0  0  0  0  0  0
  -14.5890  -41.2530   -8.7040 N   0  0  0  0  0  0  0  0  0  0  0  0
  -19.6927  -40.2336   -6.8783 C   0  0  0  0  0  0  0  0  0  0  0  0
  -20.8173  -40.5404   -6.1657 C   0  0  0  0  0  0  0  0  0  0  0  0
  -21.8882  -40.0302   -6.8783 C   0  0  0  0  0  0  0  0  0  0  0  0
  -23.3075  -40.1603   -6.4250 C   0  0  0  0  0  0  0  0  0  0  0  0
  -24.2196  -40.4233   -7.5935 C   0  0  0  0  0  0  0  0  0  0  0  0
  -24.1178  -39.3383   -8.6307 C   0  0  0  0  0  0  0  0  0  0  0  0
  -23.9519  -41.7918   -8.1679 C   0  0  0  0  0  0  0  0  0  0  0  0
  -25.6387  -40.4343   -7.0585 C   0  0  0  0  0  0  0  0  0  0  0  0
  -21.4019  -39.4658   -7.9345 O   0  0  0  0  0  0  0  0  0  0  0  0
  -20.1068  -39.5644   -7.9721 N   0  0  0  0  0  0  0  0  0  0  0  0
  2  1  1  1
  2  3  1  0
  3  4  1  0
  4  5  1  0
  5  6  1  1
  5  7  1  0
  7  8  1  6
  8  9  1  0
  9 10  1  1
  9 11  1  0
 11 12  1  0
 12 13  1  0
 13 14  1  0
 14 15  1  0
 15 16  1  0
 16 17  1  0
 17 18  1  0
 18 19  1  0
 19 20  2  0
 19 21  2  0
 19 22  1  0
 22 23  1  0
 23 24  1  6
 23 25  1  0
 25 26  2  0
 25 27  1  0
  2 28  1  0
 28 29  1  0
 29 30  2  0
 30 31  1  0
 31 32  1  0
 32 33  1  0
 32 34  1  0
 32 35  1  0
 30 36  1  0
 36 37  1  0
 27  7  1  0
 37 28  2  0
M  END
$$$$
