
     RDKit          3D

 37 38  0  0  0  0  0  0  0  0999 V2000
  -12.2298  -41.0637  -10.1302 C   0  0  0  0  0  0  0  0  0  0  0  0
  -12.9693  -39.8738   -9.6220 C   0  0  2  0  0  0  0  0  0  0  0  0
  -14.1564  -40.2653   -8.8982 N   0  0  0  0  0  0  0  0  0  0  0  0
  -15.2603  -39.3422   -9.0656 C   0  0  0  0  0  0  0  0  0  0  0  0
  -16.2371  -39.3799   -7.9590 C   0  0  1  0  0  0  0  0  0  0  0  0
  -16.3534  -38.2582   -7.1847 O   0  0  0  0  0  0  0  0  0  0  0  0
  -17.5930  -39.9095   -8.4620 C   0  0  2  0  0  0  0  0  0  0  0  0
  -18.6923  -39.7020   -7.4940 C   0  0  0  0  0  0  0  0  0  0  0  0
  -19.8680  -39.0068   -8.0913 C   0  0  2  0  0  0  0  0  0  0  0  0
  -19.5839  -37.5909   -8.5405 C   0  0  0  0  0  0  0  0  0  0  0  0
  -21.0843  -38.9379   -7.2065 C   0  0  0  0  0  0  0  0  0  0  0  0
  -20.8347  -39.0852   -5.7509 C   0  0  0  0  0  0  0  0  0  0  0  0
  -21.2012  -40.4424   -5.1880 C   0  0  0  0  0  0  0  0  0  0  0  0
  -22.5929  -40.4979   -4.6262 C   0  0  0  0  0  0  0  0  0  0  0  0
  -23.4187  -41.4419   -5.4324 C   0  0  0  0  0  0  0  0  0  0  0  0
  -23.5294  -42.8159   -4.8873 C   0  0  0  0  0  0  0  0  0  0  0  0
  -22.3104  -43.6735   -5.0536 C   0  0  0  0  0  0  0  0  0  0  0  0
  -22.0973  -44.0975   -6.5019 C   0  0  0  0  0  0  0  0  0  0  0  0
  -20.5057  -44.8257   -6.6459 S   0  0  0  0  0  6  0  0  0  0  0  0
  -20.4426  -45.8407   -7.7762 O   0  0  0  0  0  0  0  0  0  0  0  0
  -20.1679  -45.6195   -5.3891 O   0  0  0  0  0  0  0  0  0  0  0  0
  -19.2034  -43.6807   -6.8882 C   0  0  0  0  0  0  0  0  0  0  0  0
  -19.0395  -43.1812   -8.2904 C   0  0  1  0  0  0  0  0  0  0  0  0
  -20.1815  -42.4354   -8.8598 C   0  0  0  0  0  0  0  0  0  0  0  0
  -17.7232  -42.4963   -8.3782 C   0  0  0  0  0  0  0  0  0  0  0  0
  -16.7919  -43.2293   -7.8557 O   0  0  0  0  0  0  0  0  0  0  0  0
  -17.3756  -41.2724   -8.9050 N   0  0  0  0  0  0  0  0  0  0  0  0
  -13.4208  -39.0597  -10.7822 C   0  0  0  0  0  0  0  0  0  0  0  0
  -13.4247  -37.6946  -10.8367 C   0  0  0  0  0  0  0  0  0  0  0  0
  -13.9183  -37.3501  -12.0827 C   0  0  0  0  0  0  0  0  0  0  0  0
  -14.0804  -35.9335  -12.5342 C   0  0  0  0  0  0  0  0  0  0  0  0
  -12.8935  -35.4932  -13.3488 C   0  0  0  0  0  0  0  0  0  0  0  0
  -12.6550  -36.4078  -14.5192 C   0  0  0  0  0  0  0  0  0  0  0  0
  -13.0534  -34.0539  -13.7699 C   0  0  0  0  0  0  0  0  0  0  0  0
  -11.6799  -35.5598  -12.4416 C   0  0  0  0  0  0  0  0  0  0  0  0
  -14.1798  -38.4543  -12.7016 O   0  0  0  0  0  0  0  0  0  0  0  0
  -13.8997  -39.4885  -11.9665 N   0  0  0  0  0  0  0  0  0  0  0  0
  2  1  1  6
  2  3  1  0
  3  4  1  0
  4  5  1  0
  5  6  1  6
  5  7  1  0
  7  8  1  1
  8  9  1  0
  9 10  1  1
  9 11  1  0
 11 12  1  0
 12 13  1  0
 13 14  1  0
 14 15  1  0
 15 16  1  0
 16 17  1  0
 17 18  1  0
 18 19  1  0
 19 20  2  0
 19 21  2  0
 19 22  1  0
 22 23  1  0
 23 24  1  1
 23 25  1  0
 25 26  2  0
 25 27  1  0
  2 28  1  0
 28 29  1  0
 29 30  2  0
 30 31  1  0
 31 32  1  0
 32 33  1  0
 32 34  1  0
 32 35  1  0
 30 36  1  0
 36 37  1  0
 27  7  1  0
 37 28  2  0
M  END
$$$$
