
     RDKit          3D

 37 38  0  0  0  0  0  0  0  0999 V2000
  -12.4309  -41.2194  -10.0742 C   0  0  0  0  0  0  0  0  0  0  0  0
  -13.0714  -40.1198   -9.2985 C   0  0  2  0  0  0  0  0  0  0  0  0
  -14.2732  -40.5755   -8.6394 N   0  0  0  0  0  0  0  0  0  0  0  0
  -14.8856  -39.5650   -7.8012 C   0  0  0  0  0  0  0  0  0  0  0  0
  -16.0075  -40.0719   -6.9859 C   0  0  1  0  0  0  0  0  0  0  0  0
  -16.4454  -39.2816   -5.9588 O   0  0  0  0  0  0  0  0  0  0  0  0
  -17.1476  -40.5661   -7.8957 C   0  0  2  0  0  0  0  0  0  0  0  0
  -18.4810  -40.0926   -7.4642 C   0  0  0  0  0  0  0  0  0  0  0  0
  -19.2395  -39.4196   -8.5570 C   0  0  2  0  0  0  0  0  0  0  0  0
  -18.6042  -38.1387   -9.0497 C   0  0  0  0  0  0  0  0  0  0  0  0
  -20.6706  -39.0870   -8.2277 C   0  0  0  0  0  0  0  0  0  0  0  0
  -20.9959  -38.9879   -6.7829 C   0  0  0  0  0  0  0  0  0  0  0  0
  -21.7397  -40.1836   -6.2261 C   0  0  0  0  0  0  0  0  0  0  0  0
  -23.2322  -40.0166   -6.2423 C   0  0  0  0  0  0  0  0  0  0  0  0
  -23.8358  -41.0174   -7.1682 C   0  0  0  0  0  0  0  0  0  0  0  0
  -24.3407  -42.2546   -6.5267 C   0  0  0  0  0  0  0  0  0  0  0  0
  -23.2871  -43.2293   -6.0921 C   0  0  0  0  0  0  0  0  0  0  0  0
  -22.6241  -43.9264   -7.2742 C   0  0  0  0  0  0  0  0  0  0  0  0
  -21.2171  -44.8021   -6.6931 S   0  0  0  0  0  6  0  0  0  0  0  0
  -20.8959  -46.0074   -7.5626 O   0  0  0  0  0  0  0  0  0  0  0  0
  -21.4844  -45.3800   -5.3081 O   0  0  0  0  0  0  0  0  0  0  0  0
  -19.7622  -43.8361   -6.5678 C   0  0  0  0  0  0  0  0  0  0  0  0
  -19.0244  -43.6159   -7.8523 C   0  0  1  0  0  0  0  0  0  0  0  0
  -19.7546  -42.8913   -8.9134 C   0  0  0  0  0  0  0  0  0  0  0  0
  -17.6814  -43.0736   -7.5180 C   0  0  0  0  0  0  0  0  0  0  0  0
  -17.1256  -43.7764   -6.5826 O   0  0  0  0  0  0  0  0  0  0  0  0
  -16.9878  -42.0003   -8.0311 N   0  0  0  0  0  0  0  0  0  0  0  0
  -13.4785  -39.0436  -10.2411 C   0  0  0  0  0  0  0  0  0  0  0  0
  -13.1841  -37.7168  -10.1013 C   0  0  0  0  0  0  0  0  0  0  0  0
  -13.7483  -37.0702  -11.1869 C   0  0  0  0  0  0  0  0  0  0  0  0
  -13.6476  -35.5934  -11.4010 C   0  0  0  0  0  0  0  0  0  0  0  0
  -12.7249  -35.2816  -12.5489 C   0  0  0  0  0  0  0  0  0  0  0  0
  -11.3432  -35.8281  -12.3131 C   0  0  0  0  0  0  0  0  0  0  0  0
  -13.3203  -35.7698  -13.8457 C   0  0  0  0  0  0  0  0  0  0  0  0
  -12.6261  -33.7712  -12.6446 C   0  0  0  0  0  0  0  0  0  0  0  0
  -14.3295  -37.9757  -11.9031 O   0  0  0  0  0  0  0  0  0  0  0  0
  -14.1933  -39.1564  -11.3779 N   0  0  0  0  0  0  0  0  0  0  0  0
  2  1  1  6
  2  3  1  0
  3  4  1  0
  4  5  1  0
  5  6  1  1
  5  7  1  0
  7  8  1  1
  8  9  1  0
  9 10  1  1
  9 11  1  0
 11 12  1  0
 12 13  1  0
 13 14  1  0
 14 15  1  0
 15 16  1  0
 16 17  1  0
 17 18  1  0
 18 19  1  0
 19 20  2  0
 19 21  2  0
 19 22  1  0
 22 23  1  0
 23 24  1  6
 23 25  1  0
 25 26  2  0
 25 27  1  0
  2 28  1  0
 28 29  1  0
 29 30  2  0
 30 31  1  0
 31 32  1  0
 32 33  1  0
 32 34  1  0
 32 35  1  0
 30 36  1  0
 36 37  1  0
 27  7  1  0
 37 28  2  0
M  END
$$$$
