
     RDKit          3D

 37 40  0  0  0  0  0  0  0  0999 V2000
  -17.8487  -41.6970   -6.3081 C   0  0  0  0  0  0  0  0  0  0  0  0
  -19.0855  -41.6780   -7.1579 C   0  0  1  0  0  0  0  0  0  0  0  0
  -18.9099  -41.1345   -8.5220 C   0  0  0  0  0  0  0  0  0  0  0  0
  -19.9108  -41.4557   -9.2862 O   0  0  0  0  0  0  0  0  0  0  0  0
  -17.9218  -40.3835   -9.1084 N   0  0  0  0  0  0  0  0  0  0  0  0
  -17.4737  -39.0212   -8.9568 C   0  0  1  0  0  0  0  0  0  0  0  0
  -18.1378  -38.2042   -7.9173 C   0  0  0  0  0  0  0  0  0  0  0  0
  -19.6105  -38.0426   -8.0654 C   0  0  0  0  0  0  0  0  0  0  0  0
  -20.6657  -38.3841   -7.2650 C   0  0  0  0  0  0  0  0  0  0  0  0
  -21.9311  -38.0865   -7.7050 C   0  0  0  0  0  0  0  0  0  0  0  0
  -23.2885  -38.2898   -7.1372 C   0  0  0  0  0  0  0  0  0  0  0  0
  -24.0097  -39.2475   -8.1163 C   0  0  0  0  0  0  0  0  0  0  0  0
  -23.1294  -40.3913   -8.5356 C   0  0  0  0  0  0  0  0  0  0  0  0
  -23.7719  -41.7141   -8.2658 C   0  0  0  0  0  0  0  0  0  0  0  0
  -22.7982  -42.8695   -8.1801 C   0  0  0  0  0  0  0  0  0  0  0  0
  -21.9947  -42.7473   -6.9075 C   0  0  0  0  0  0  0  0  0  0  0  0
  -20.7637  -43.5783   -6.9567 C   0  0  0  0  0  0  0  0  0  0  0  0
  -20.9265  -44.8190   -6.7313 O   0  0  0  0  0  0  0  0  0  0  0  0
  -19.4777  -43.1059   -7.2255 N   0  0  0  0  0  0  0  0  0  0  0  0
  -18.4130  -44.0162   -7.5985 C   0  0  0  0  0  0  0  0  0  0  0  0
  -22.1114  -37.4405   -8.9623 C   0  0  0  0  0  0  0  0  0  0  0  0
  -21.0858  -37.0854   -9.7865 C   0  0  0  0  0  0  0  0  0  0  0  0
  -19.8480  -37.3978   -9.3141 C   0  0  0  0  0  0  0  0  0  0  0  0
  -15.9764  -39.1047   -8.7249 C   0  0  2  0  0  0  0  0  0  0  0  0
  -15.4057  -37.9322   -8.2887 O   0  0  0  0  0  0  0  0  0  0  0  0
  -15.3286  -39.6340   -9.9818 C   0  0  0  0  0  0  0  0  0  0  0  0
  -15.2725  -41.0664  -10.0636 N   0  0  0  0  0  0  0  0  0  0  0  0
  -13.9468  -41.5392   -9.8457 C   0  0  0  0  0  0  0  0  0  0  0  0
  -14.0444  -43.0244   -9.6023 C   0  0  0  0  0  0  0  0  0  0  0  0
  -13.6377  -43.5555   -8.3992 C   0  0  0  0  0  0  0  0  0  0  0  0
  -13.7116  -44.9103   -8.1294 C   0  0  0  0  0  0  0  0  0  0  0  0
  -14.2214  -45.6932   -9.1488 C   0  0  0  0  0  0  0  0  0  0  0  0
  -14.6212  -45.1768  -10.3302 N   0  0  0  0  0  0  0  0  0  0  0  0
  -14.5432  -43.8480  -10.5814 C   0  0  0  0  0  0  0  0  0  0  0  0
  -13.2584  -45.4681   -6.8270 C   0  0  0  0  0  0  0  0  0  0  0  0
  -12.8817  -44.4850   -5.7144 C   0  0  0  0  0  0  0  0  0  0  0  0
  -11.8191  -45.2321   -6.4494 C   0  0  0  0  0  0  0  0  0  0  0  0
  2  1  1  1
  2  3  1  0
  3  4  2  0
  3  5  1  0
  5  6  1  0
  6  7  1  1
  7  8  1  0
  8  9  1  0
  9 10  2  0
 10 11  1  0
 11 12  1  0
 12 13  1  0
 13 14  1  0
 14 15  1  0
 15 16  1  0
 16 17  1  0
 17 18  2  0
 17 19  1  0
 19 20  1  0
 10 21  1  0
 21 22  2  0
 22 23  1  0
  6 24  1  0
 24 25  1  6
 24 26  1  0
 26 27  1  0
 27 28  1  0
 28 29  1  0
 29 30  2  0
 30 31  1  0
 31 32  2  0
 32 33  1  0
 33 34  2  0
 31 35  1  0
 35 36  1  0
 36 37  1  0
 19  2  1  0
 23  8  2  0
 34 29  1  0
 37 35  1  0
M  END
$$$$
