
     RDKit          3D

 37 40  0  0  0  0  0  0  0  0999 V2000
  -17.2684  -43.0203   -6.1335 C   0  0  0  0  0  0  0  0  0  0  0  0
  -18.4011  -42.9691   -7.1168 C   0  0  1  0  0  0  0  0  0  0  0  0
  -18.2616  -41.9652   -8.1938 C   0  0  0  0  0  0  0  0  0  0  0  0
  -19.0881  -42.2056   -9.1674 O   0  0  0  0  0  0  0  0  0  0  0  0
  -17.4501  -40.8693   -8.3500 N   0  0  0  0  0  0  0  0  0  0  0  0
  -17.3697  -39.5808   -7.7072 C   0  0  1  0  0  0  0  0  0  0  0  0
  -18.2954  -39.3299   -6.5805 C   0  0  0  0  0  0  0  0  0  0  0  0
  -19.7458  -39.4393   -6.8993 C   0  0  0  0  0  0  0  0  0  0  0  0
  -20.7409  -40.2482   -6.4239 C   0  0  0  0  0  0  0  0  0  0  0  0
  -22.0025  -40.0891   -6.9401 C   0  0  0  0  0  0  0  0  0  0  0  0
  -23.3058  -40.7548   -6.6862 C   0  0  0  0  0  0  0  0  0  0  0  0
  -23.6867  -41.4451   -8.0182 C   0  0  0  0  0  0  0  0  0  0  0  0
  -22.5189  -42.1634   -8.6339 C   0  0  0  0  0  0  0  0  0  0  0  0
  -22.8294  -43.6014   -8.9004 C   0  0  0  0  0  0  0  0  0  0  0  0
  -21.6075  -44.4846   -9.0326 C   0  0  0  0  0  0  0  0  0  0  0  0
  -20.9612  -44.6428   -7.6772 C   0  0  0  0  0  0  0  0  0  0  0  0
  -19.5616  -45.1288   -7.7926 C   0  0  0  0  0  0  0  0  0  0  0  0
  -19.4262  -46.3760   -7.9995 O   0  0  0  0  0  0  0  0  0  0  0  0
  -18.4176  -44.3347   -7.6930 N   0  0  0  0  0  0  0  0  0  0  0  0
  -17.1336  -44.8167   -8.1626 C   0  0  0  0  0  0  0  0  0  0  0  0
  -22.2404  -39.1028   -7.9406 C   0  0  0  0  0  0  0  0  0  0  0  0
  -21.2754  -38.2794   -8.4385 C   0  0  0  0  0  0  0  0  0  0  0  0
  -20.0393  -38.4688   -7.9010 C   0  0  0  0  0  0  0  0  0  0  0  0
  -15.9217  -39.4237   -7.2816 C   0  0  2  0  0  0  0  0  0  0  0  0
  -15.7299  -38.5415   -6.2445 O   0  0  0  0  0  0  0  0  0  0  0  0
  -15.1021  -39.0747   -8.5007 C   0  0  0  0  0  0  0  0  0  0  0  0
  -13.8672  -39.7983   -8.6136 N   0  0  0  0  0  0  0  0  0  0  0  0
  -13.8689  -40.6355   -9.7658 C   0  0  0  0  0  0  0  0  0  0  0  0
  -13.8046  -39.7279  -10.9686 C   0  0  0  0  0  0  0  0  0  0  0  0
  -13.2552  -38.4707  -10.8568 C   0  0  0  0  0  0  0  0  0  0  0  0
  -13.1715  -37.6050  -11.9325 C   0  0  0  0  0  0  0  0  0  0  0  0
  -13.6762  -38.0879  -13.1259 C   0  0  0  0  0  0  0  0  0  0  0  0
  -14.2161  -39.3200  -13.2401 N   0  0  0  0  0  0  0  0  0  0  0  0
  -14.2919  -40.1577  -12.1784 C   0  0  0  0  0  0  0  0  0  0  0  0
  -12.5832  -36.2460  -11.7912 C   0  0  0  0  0  0  0  0  0  0  0  0
  -13.3401  -35.2179  -10.9448 C   0  0  0  0  0  0  0  0  0  0  0  0
  -13.3346  -35.1090  -12.4333 C   0  0  0  0  0  0  0  0  0  0  0  0
  2  1  1  1
  2  3  1  0
  3  4  2  0
  3  5  1  0
  5  6  1  0
  6  7  1  1
  7  8  1  0
  8  9  1  0
  9 10  2  0
 10 11  1  0
 11 12  1  0
 12 13  1  0
 13 14  1  0
 14 15  1  0
 15 16  1  0
 16 17  1  0
 17 18  2  0
 17 19  1  0
 19 20  1  0
 10 21  1  0
 21 22  2  0
 22 23  1  0
  6 24  1  0
 24 25  1  1
 24 26  1  0
 26 27  1  0
 27 28  1  0
 28 29  1  0
 29 30  2  0
 30 31  1  0
 31 32  2  0
 32 33  1  0
 33 34  2  0
 31 35  1  0
 35 36  1  0
 36 37  1  0
 19  2  1  0
 23  8  2  0
 34 29  1  0
 37 35  1  0
M  END
$$$$
