
     RDKit          3D

 37 40  0  0  0  0  0  0  0  0999 V2000
  -17.5503  -42.4352   -5.6491 C   0  0  0  0  0  0  0  0  0  0  0  0
  -18.7604  -42.3281   -6.5303 C   0  0  1  0  0  0  0  0  0  0  0  0
  -18.5782  -41.5349   -7.7651 C   0  0  0  0  0  0  0  0  0  0  0  0
  -19.5346  -41.7646   -8.6143 O   0  0  0  0  0  0  0  0  0  0  0  0
  -17.6207  -40.6364   -8.1655 N   0  0  0  0  0  0  0  0  0  0  0  0
  -17.2611  -39.3026   -7.7515 C   0  0  1  0  0  0  0  0  0  0  0  0
  -18.0041  -38.7275   -6.6085 C   0  0  0  0  0  0  0  0  0  0  0  0
  -19.4789  -38.6221   -6.7838 C   0  0  0  0  0  0  0  0  0  0  0  0
  -20.5345  -39.1615   -6.1015 C   0  0  0  0  0  0  0  0  0  0  0  0
  -21.8021  -38.8576   -6.5306 C   0  0  0  0  0  0  0  0  0  0  0  0
  -23.1608  -39.2353   -6.0640 C   0  0  0  0  0  0  0  0  0  0  0  0
  -23.7931  -40.0351   -7.2287 C   0  0  0  0  0  0  0  0  0  0  0  0
  -22.8329  -41.0329   -7.8127 C   0  0  0  0  0  0  0  0  0  0  0  0
  -23.4013  -42.4158   -7.8133 C   0  0  0  0  0  0  0  0  0  0  0  0
  -22.3619  -43.5125   -7.8996 C   0  0  0  0  0  0  0  0  0  0  0  0
  -21.6052  -43.5821   -6.5948 C   0  0  0  0  0  0  0  0  0  0  0  0
  -20.3249  -44.3216   -6.7444 C   0  0  0  0  0  0  0  0  0  0  0  0
  -20.4185  -45.5896   -6.7545 O   0  0  0  0  0  0  0  0  0  0  0  0
  -19.0628  -43.7386   -6.8714 N   0  0  0  0  0  0  0  0  0  0  0  0
  -17.9341  -44.5057   -7.3603 C   0  0  0  0  0  0  0  0  0  0  0  0
  -21.9843  -38.0029   -7.6561 C   0  0  0  0  0  0  0  0  0  0  0  0
  -20.9584  -37.4473   -8.3605 C   0  0  0  0  0  0  0  0  0  0  0  0
  -19.7183  -37.7731   -7.9033 C   0  0  0  0  0  0  0  0  0  0  0  0
  -15.7690  -39.3455   -7.4788 C   0  0  2  0  0  0  0  0  0  0  0  0
  -15.2320  -38.1432   -7.0826 O   0  0  0  0  0  0  0  0  0  0  0  0
  -15.0791  -39.9182   -8.6936 C   0  0  0  0  0  0  0  0  0  0  0  0
  -13.6453  -39.8595   -8.6456 N   0  0  0  0  0  0  0  0  0  0  0  0
  -13.0819  -40.0649   -9.9375 C   0  0  0  0  0  0  0  0  0  0  0  0
  -12.8777  -38.7017  -10.5496 C   0  0  0  0  0  0  0  0  0  0  0  0
  -13.9457  -38.0178  -11.0850 C   0  0  0  0  0  0  0  0  0  0  0  0
  -13.8075  -36.7643  -11.6536 C   0  0  0  0  0  0  0  0  0  0  0  0
  -12.5256  -36.2459  -11.6472 C   0  0  0  0  0  0  0  0  0  0  0  0
  -11.4753  -36.9130  -11.1234 N   0  0  0  0  0  0  0  0  0  0  0  0
  -11.6247  -38.1401  -10.5696 C   0  0  0  0  0  0  0  0  0  0  0  0
  -14.9712  -36.0439  -12.2363 C   0  0  0  0  0  0  0  0  0  0  0  0
  -16.2136  -36.8608  -12.6039 C   0  0  0  0  0  0  0  0  0  0  0  0
  -15.3086  -36.3460  -13.6732 C   0  0  0  0  0  0  0  0  0  0  0  0
  2  1  1  1
  2  3  1  0
  3  4  2  0
  3  5  1  0
  5  6  1  0
  6  7  1  1
  7  8  1  0
  8  9  1  0
  9 10  2  0
 10 11  1  0
 11 12  1  0
 12 13  1  0
 13 14  1  0
 14 15  1  0
 15 16  1  0
 16 17  1  0
 17 18  2  0
 17 19  1  0
 19 20  1  0
 10 21  1  0
 21 22  2  0
 22 23  1  0
  6 24  1  0
 24 25  1  6
 24 26  1  0
 26 27  1  0
 27 28  1  0
 28 29  1  0
 29 30  2  0
 30 31  1  0
 31 32  2  0
 32 33  1  0
 33 34  2  0
 31 35  1  0
 35 36  1  0
 36 37  1  0
 19  2  1  0
 23  8  2  0
 34 29  1  0
 37 35  1  0
M  END
$$$$
