
     RDKit          3D

 37 40  0  0  0  0  0  0  0  0999 V2000
  -17.4327  -42.4797   -5.7146 C   0  0  0  0  0  0  0  0  0  0  0  0
  -18.7471  -42.4284   -6.4373 C   0  0  1  0  0  0  0  0  0  0  0  0
  -18.7739  -41.5769   -7.6460 C   0  0  0  0  0  0  0  0  0  0  0  0
  -19.8101  -41.8438   -8.3835 O   0  0  0  0  0  0  0  0  0  0  0  0
  -17.9374  -40.5953   -8.1161 N   0  0  0  0  0  0  0  0  0  0  0  0
  -17.6217  -39.2555   -7.6858 C   0  0  1  0  0  0  0  0  0  0  0  0
  -18.2552  -38.7815   -6.4356 C   0  0  0  0  0  0  0  0  0  0  0  0
  -19.7442  -38.7787   -6.4264 C   0  0  0  0  0  0  0  0  0  0  0  0
  -20.6676  -39.4207   -5.6480 C   0  0  0  0  0  0  0  0  0  0  0  0
  -21.9964  -39.1950   -5.9061 C   0  0  0  0  0  0  0  0  0  0  0  0
  -23.2577  -39.6899   -5.2973 C   0  0  0  0  0  0  0  0  0  0  0  0
  -23.9729  -40.4887   -6.4136 C   0  0  0  0  0  0  0  0  0  0  0  0
  -23.0261  -41.3894   -7.1560 C   0  0  0  0  0  0  0  0  0  0  0  0
  -23.4939  -42.8095   -7.1534 C   0  0  0  0  0  0  0  0  0  0  0  0
  -22.4004  -43.8222   -7.4163 C   0  0  0  0  0  0  0  0  0  0  0  0
  -21.4851  -43.8860   -6.2172 C   0  0  0  0  0  0  0  0  0  0  0  0
  -20.1854  -44.5225   -6.5551 C   0  0  0  0  0  0  0  0  0  0  0  0
  -20.1922  -45.7926   -6.6139 O   0  0  0  0  0  0  0  0  0  0  0  0
  -18.9918  -43.8432   -6.8058 N   0  0  0  0  0  0  0  0  0  0  0  0
  -17.8823  -44.5053   -7.4631 C   0  0  0  0  0  0  0  0  0  0  0  0
  -22.3748  -38.3133   -6.9596 C   0  0  0  0  0  0  0  0  0  0  0  0
  -21.4846  -37.6566   -7.7555 C   0  0  0  0  0  0  0  0  0  0  0  0
  -20.1780  -37.9072   -7.4673 C   0  0  0  0  0  0  0  0  0  0  0  0
  -16.1079  -39.1985   -7.5975 C   0  0  2  0  0  0  0  0  0  0  0  0
  -15.5966  -37.9283   -7.4712 O   0  0  0  0  0  0  0  0  0  0  0  0
  -15.5335  -39.9414   -8.7799 C   0  0  0  0  0  0  0  0  0  0  0  0
  -14.1036  -39.8714   -8.8880 N   0  0  0  0  0  0  0  0  0  0  0  0
  -13.6760  -40.1708  -10.2132 C   0  0  0  0  0  0  0  0  0  0  0  0
  -14.0364  -38.9831  -11.0701 C   0  0  0  0  0  0  0  0  0  0  0  0
  -13.2574  -37.8485  -11.0410 C   0  0  0  0  0  0  0  0  0  0  0  0
  -13.5465  -36.7365  -11.8115 C   0  0  0  0  0  0  0  0  0  0  0  0
  -14.6693  -36.8424  -12.6117 C   0  0  0  0  0  0  0  0  0  0  0  0
  -15.4362  -37.9529  -12.6432 N   0  0  0  0  0  0  0  0  0  0  0  0
  -15.1417  -39.0349  -11.8833 C   0  0  0  0  0  0  0  0  0  0  0  0
  -12.6989  -35.5152  -11.7602 C   0  0  0  0  0  0  0  0  0  0  0  0
  -11.1777  -35.6923  -11.7905 C   0  0  0  0  0  0  0  0  0  0  0  0
  -11.8660  -35.3164  -10.5206 C   0  0  0  0  0  0  0  0  0  0  0  0
  2  1  1  6
  2  3  1  0
  3  4  2  0
  3  5  1  0
  5  6  1  0
  6  7  1  1
  7  8  1  0
  8  9  1  0
  9 10  2  0
 10 11  1  0
 11 12  1  0
 12 13  1  0
 13 14  1  0
 14 15  1  0
 15 16  1  0
 16 17  1  0
 17 18  2  0
 17 19  1  0
 19 20  1  0
 10 21  1  0
 21 22  2  0
 22 23  1  0
  6 24  1  0
 24 25  1  6
 24 26  1  0
 26 27  1  0
 27 28  1  0
 28 29  1  0
 29 30  2  0
 30 31  1  0
 31 32  2  0
 32 33  1  0
 33 34  2  0
 31 35  1  0
 35 36  1  0
 36 37  1  0
 19  2  1  0
 23  8  2  0
 34 29  1  0
 37 35  1  0
M  END
$$$$
