
     RDKit          3D

 37 40  0  0  0  0  0  0  0  0999 V2000
  -17.0374  -42.3153   -6.1466 C   0  0  0  0  0  0  0  0  0  0  0  0
  -18.3655  -42.2484   -6.8423 C   0  0  1  0  0  0  0  0  0  0  0  0
  -18.4342  -41.3197   -7.9910 C   0  0  0  0  0  0  0  0  0  0  0  0
  -19.4772  -41.5625   -8.7273 O   0  0  0  0  0  0  0  0  0  0  0  0
  -17.6295  -40.2891   -8.4086 N   0  0  0  0  0  0  0  0  0  0  0  0
  -17.3373  -38.9734   -7.8955 C   0  0  1  0  0  0  0  0  0  0  0  0
  -17.9587  -38.5987   -6.6060 C   0  0  0  0  0  0  0  0  0  0  0  0
  -19.4469  -38.6329   -6.5719 C   0  0  0  0  0  0  0  0  0  0  0  0
  -20.3408  -39.3473   -5.8226 C   0  0  0  0  0  0  0  0  0  0  0  0
  -21.6790  -39.1376   -6.0430 C   0  0  0  0  0  0  0  0  0  0  0  0
  -22.9171  -39.7022   -5.4475 C   0  0  0  0  0  0  0  0  0  0  0  0
  -23.6338  -40.4427   -6.6025 C   0  0  0  0  0  0  0  0  0  0  0  0
  -22.6800  -41.2690   -7.4188 C   0  0  0  0  0  0  0  0  0  0  0  0
  -23.1145  -42.6971   -7.5030 C   0  0  0  0  0  0  0  0  0  0  0  0
  -22.0027  -43.6632   -7.8509 C   0  0  0  0  0  0  0  0  0  0  0  0
  -21.0644  -43.7838   -6.6742 C   0  0  0  0  0  0  0  0  0  0  0  0
  -19.7567  -44.3646   -7.0753 C   0  0  0  0  0  0  0  0  0  0  0  0
  -19.7350  -45.6278   -7.2184 O   0  0  0  0  0  0  0  0  0  0  0  0
  -18.5840  -43.6413   -7.3000 N   0  0  0  0  0  0  0  0  0  0  0  0
  -17.4715  -44.2312   -8.0183 C   0  0  0  0  0  0  0  0  0  0  0  0
  -22.0969  -38.1976   -7.0290 C   0  0  0  0  0  0  0  0  0  0  0  0
  -21.2369  -37.4682   -7.7942 C   0  0  0  0  0  0  0  0  0  0  0  0
  -19.9198  -37.7052   -7.5451 C   0  0  0  0  0  0  0  0  0  0  0  0
  -15.8239  -38.8853   -7.8288 C   0  0  2  0  0  0  0  0  0  0  0  0
  -15.3511  -37.9164   -6.9753 O   0  0  0  0  0  0  0  0  0  0  0  0
  -15.2934  -38.7312   -9.2340 C   0  0  0  0  0  0  0  0  0  0  0  0
  -14.9283  -39.9656   -9.8700 N   0  0  0  0  0  0  0  0  0  0  0  0
  -13.5274  -40.0159  -10.1218 C   0  0  0  0  0  0  0  0  0  0  0  0
  -13.1394  -38.6845  -10.7149 C   0  0  0  0  0  0  0  0  0  0  0  0
  -13.9957  -38.0358  -11.5756 C   0  0  0  0  0  0  0  0  0  0  0  0
  -13.6846  -36.8122  -12.1410 C   0  0  0  0  0  0  0  0  0  0  0  0
  -12.4571  -36.2859  -11.7829 C   0  0  0  0  0  0  0  0  0  0  0  0
  -11.6142  -36.9186  -10.9393 N   0  0  0  0  0  0  0  0  0  0  0  0
  -11.9313  -38.1167  -10.3928 C   0  0  0  0  0  0  0  0  0  0  0  0
  -14.6181  -36.1300  -13.0770 C   0  0  0  0  0  0  0  0  0  0  0  0
  -14.9385  -36.8210  -14.4059 C   0  0  0  0  0  0  0  0  0  0  0  0
  -14.0372  -35.6318  -14.3748 C   0  0  0  0  0  0  0  0  0  0  0  0
  2  1  1  6
  2  3  1  0
  3  4  2  0
  3  5  1  0
  5  6  1  0
  6  7  1  1
  7  8  1  0
  8  9  1  0
  9 10  2  0
 10 11  1  0
 11 12  1  0
 12 13  1  0
 13 14  1  0
 14 15  1  0
 15 16  1  0
 16 17  1  0
 17 18  2  0
 17 19  1  0
 19 20  1  0
 10 21  1  0
 21 22  2  0
 22 23  1  0
  6 24  1  0
 24 25  1  1
 24 26  1  0
 26 27  1  0
 27 28  1  0
 28 29  1  0
 29 30  2  0
 30 31  1  0
 31 32  2  0
 32 33  1  0
 33 34  2  0
 31 35  1  0
 35 36  1  0
 36 37  1  0
 19  2  1  0
 23  8  2  0
 34 29  1  0
 37 35  1  0
M  END
$$$$
