
     RDKit          3D

 37 40  0  0  0  0  0  0  0  0999 V2000
  -17.3233  -42.6262   -5.6221 C   0  0  0  0  0  0  0  0  0  0  0  0
  -18.6451  -42.5286   -6.3264 C   0  0  1  0  0  0  0  0  0  0  0  0
  -18.6761  -41.6231   -7.4951 C   0  0  0  0  0  0  0  0  0  0  0  0
  -19.7233  -41.8456   -8.2318 O   0  0  0  0  0  0  0  0  0  0  0  0
  -17.8341  -40.6301   -7.9302 N   0  0  0  0  0  0  0  0  0  0  0  0
  -17.4990  -39.3145   -7.4438 C   0  0  1  0  0  0  0  0  0  0  0  0
  -18.1132  -38.8908   -6.1662 C   0  0  0  0  0  0  0  0  0  0  0  0
  -19.6018  -38.8728   -6.1395 C   0  0  0  0  0  0  0  0  0  0  0  0
  -20.5235  -39.5396   -5.3801 C   0  0  0  0  0  0  0  0  0  0  0  0
  -21.8526  -39.2886   -5.6122 C   0  0  0  0  0  0  0  0  0  0  0  0
  -23.1123  -39.7972   -5.0117 C   0  0  0  0  0  0  0  0  0  0  0  0
  -23.8487  -40.5373   -6.1545 C   0  0  0  0  0  0  0  0  0  0  0  0
  -22.9202  -41.4135   -6.9476 C   0  0  0  0  0  0  0  0  0  0  0  0
  -23.4035  -42.8272   -7.0035 C   0  0  0  0  0  0  0  0  0  0  0  0
  -22.3242  -43.8384   -7.3245 C   0  0  0  0  0  0  0  0  0  0  0  0
  -21.3963  -43.9659   -6.1403 C   0  0  0  0  0  0  0  0  0  0  0  0
  -20.1075  -44.6000   -6.5216 C   0  0  0  0  0  0  0  0  0  0  0  0
  -20.1289  -45.8660   -6.6375 O   0  0  0  0  0  0  0  0  0  0  0  0
  -18.9094  -43.9226   -6.7553 N   0  0  0  0  0  0  0  0  0  0  0  0
  -17.8146  -44.5660   -7.4547 C   0  0  0  0  0  0  0  0  0  0  0  0
  -22.2330  -38.3563   -6.6205 C   0  0  0  0  0  0  0  0  0  0  0  0
  -21.3446  -37.6737   -7.3964 C   0  0  0  0  0  0  0  0  0  0  0  0
  -20.0377  -37.9507   -7.1350 C   0  0  0  0  0  0  0  0  0  0  0  0
  -15.9837  -39.2773   -7.3707 C   0  0  2  0  0  0  0  0  0  0  0  0
  -15.4651  -38.0562   -7.0091 O   0  0  0  0  0  0  0  0  0  0  0  0
  -15.4311  -39.7778   -8.6836 C   0  0  0  0  0  0  0  0  0  0  0  0
  -14.8655  -41.0962   -8.6263 N   0  0  0  0  0  0  0  0  0  0  0  0
  -13.5716  -41.1235   -9.2210 C   0  0  0  0  0  0  0  0  0  0  0  0
  -13.3563  -39.7776   -9.8666 C   0  0  0  0  0  0  0  0  0  0  0  0
  -14.0984  -39.4127  -10.9671 C   0  0  0  0  0  0  0  0  0  0  0  0
  -13.9384  -38.1880  -11.5904 C   0  0  0  0  0  0  0  0  0  0  0  0
  -12.9842  -37.3567  -11.0332 C   0  0  0  0  0  0  0  0  0  0  0  0
  -12.2541  -37.7105   -9.9542 N   0  0  0  0  0  0  0  0  0  0  0  0
  -12.4208  -38.9131   -9.3536 C   0  0  0  0  0  0  0  0  0  0  0  0
  -14.7425  -37.8142  -12.7848 C   0  0  0  0  0  0  0  0  0  0  0  0
  -14.7056  -36.3553  -13.2500 C   0  0  0  0  0  0  0  0  0  0  0  0
  -15.9127  -36.8932  -12.5563 C   0  0  0  0  0  0  0  0  0  0  0  0
  2  1  1  6
  2  3  1  0
  3  4  2  0
  3  5  1  0
  5  6  1  0
  6  7  1  1
  7  8  1  0
  8  9  1  0
  9 10  2  0
 10 11  1  0
 11 12  1  0
 12 13  1  0
 13 14  1  0
 14 15  1  0
 15 16  1  0
 16 17  1  0
 17 18  2  0
 17 19  1  0
 19 20  1  0
 10 21  1  0
 21 22  2  0
 22 23  1  0
  6 24  1  0
 24 25  1  6
 24 26  1  0
 26 27  1  0
 27 28  1  0
 28 29  1  0
 29 30  2  0
 30 31  1  0
 31 32  2  0
 32 33  1  0
 33 34  2  0
 31 35  1  0
 35 36  1  0
 36 37  1  0
 19  2  1  0
 23  8  2  0
 34 29  1  0
 37 35  1  0
M  END
$$$$
