
     RDKit          3D

 37 40  0  0  0  0  0  0  0  0999 V2000
  -16.8909  -42.2439   -5.8851 C   0  0  0  0  0  0  0  0  0  0  0  0
  -18.2812  -42.4578   -6.4083 C   0  0  1  0  0  0  0  0  0  0  0  0
  -18.5472  -41.8977   -7.7509 C   0  0  0  0  0  0  0  0  0  0  0  0
  -19.6303  -42.4019   -8.2621 O   0  0  0  0  0  0  0  0  0  0  0  0
  -17.8855  -40.9799   -8.5281 N   0  0  0  0  0  0  0  0  0  0  0  0
  -17.6670  -39.5575   -8.4341 C   0  0  1  0  0  0  0  0  0  0  0  0
  -18.1913  -38.8723   -7.2321 C   0  0  0  0  0  0  0  0  0  0  0  0
  -19.6595  -38.9864   -7.0121 C   0  0  0  0  0  0  0  0  0  0  0  0
  -20.4063  -39.5131   -5.9944 C   0  0  0  0  0  0  0  0  0  0  0  0
  -21.7732  -39.4565   -6.1020 C   0  0  0  0  0  0  0  0  0  0  0  0
  -22.8898  -39.9044   -5.2309 C   0  0  0  0  0  0  0  0  0  0  0  0
  -23.6447  -40.9835   -6.0444 C   0  0  0  0  0  0  0  0  0  0  0  0
  -22.7032  -41.9470   -6.7109 C   0  0  0  0  0  0  0  0  0  0  0  0
  -23.0104  -43.3644   -6.3477 C   0  0  0  0  0  0  0  0  0  0  0  0
  -21.8536  -44.3196   -6.5479 C   0  0  0  0  0  0  0  0  0  0  0  0
  -20.7977  -44.0450   -5.5042 C   0  0  0  0  0  0  0  0  0  0  0  0
  -19.4875  -44.6344   -5.8842 C   0  0  0  0  0  0  0  0  0  0  0  0
  -19.3636  -45.8828   -5.6770 O   0  0  0  0  0  0  0  0  0  0  0  0
  -18.4140  -43.9339   -6.4372 N   0  0  0  0  0  0  0  0  0  0  0  0
  -17.3275  -44.6336   -7.0940 C   0  0  0  0  0  0  0  0  0  0  0  0
  -22.3703  -38.8609   -7.2506 C   0  0  0  0  0  0  0  0  0  0  0  0
  -21.6601  -38.3264   -8.2836 C   0  0  0  0  0  0  0  0  0  0  0  0
  -20.3088  -38.4024   -8.1385 C   0  0  0  0  0  0  0  0  0  0  0  0
  -16.1689  -39.3618   -8.5757 C   0  0  2  0  0  0  0  0  0  0  0  0
  -15.7443  -38.0723   -8.3577 O   0  0  0  0  0  0  0  0  0  0  0  0
  -15.7444  -39.8936   -9.9235 C   0  0  0  0  0  0  0  0  0  0  0  0
  -14.6686  -40.8432   -9.8757 N   0  0  0  0  0  0  0  0  0  0  0  0
  -13.4297  -40.2295  -10.2181 C   0  0  0  0  0  0  0  0  0  0  0  0
  -13.5621  -39.7338  -11.6363 C   0  0  0  0  0  0  0  0  0  0  0  0
  -12.9503  -38.5614  -12.0183 C   0  0  0  0  0  0  0  0  0  0  0  0
  -13.0408  -38.0694  -13.3081 C   0  0  0  0  0  0  0  0  0  0  0  0
  -13.7862  -38.8347  -14.1861 C   0  0  0  0  0  0  0  0  0  0  0  0
  -14.3881  -39.9849  -13.8158 N   0  0  0  0  0  0  0  0  0  0  0  0
  -14.2914  -40.4553  -12.5492 C   0  0  0  0  0  0  0  0  0  0  0  0
  -12.3809  -36.7954  -13.7008 C   0  0  0  0  0  0  0  0  0  0  0  0
  -13.0050  -35.9821  -14.8390 C   0  0  0  0  0  0  0  0  0  0  0  0
  -11.7460  -36.7507  -15.0664 C   0  0  0  0  0  0  0  0  0  0  0  0
  2  1  1  6
  2  3  1  0
  3  4  2  0
  3  5  1  0
  5  6  1  0
  6  7  1  1
  7  8  1  0
  8  9  1  0
  9 10  2  0
 10 11  1  0
 11 12  1  0
 12 13  1  0
 13 14  1  0
 14 15  1  0
 15 16  1  0
 16 17  1  0
 17 18  2  0
 17 19  1  0
 19 20  1  0
 10 21  1  0
 21 22  2  0
 22 23  1  0
  6 24  1  0
 24 25  1  6
 24 26  1  0
 26 27  1  0
 27 28  1  0
 28 29  1  0
 29 30  2  0
 30 31  1  0
 31 32  2  0
 32 33  1  0
 33 34  2  0
 31 35  1  0
 35 36  1  0
 36 37  1  0
 19  2  1  0
 23  8  2  0
 34 29  1  0
 37 35  1  0
M  END
$$$$
