
     RDKit          3D

 37 40  0  0  0  0  0  0  0  0999 V2000
  -17.1142  -42.4869   -5.9128 C   0  0  0  0  0  0  0  0  0  0  0  0
  -18.4524  -42.5327   -6.5907 C   0  0  1  0  0  0  0  0  0  0  0  0
  -18.6003  -41.6447   -7.7639 C   0  0  0  0  0  0  0  0  0  0  0  0
  -19.6329  -41.9805   -8.4779 O   0  0  0  0  0  0  0  0  0  0  0  0
  -17.8748  -40.5730   -8.2218 N   0  0  0  0  0  0  0  0  0  0  0  0
  -17.6689  -39.2259   -7.7500 C   0  0  1  0  0  0  0  0  0  0  0  0
  -18.2989  -38.8582   -6.4627 C   0  0  0  0  0  0  0  0  0  0  0  0
  -19.7805  -38.9948   -6.4060 C   0  0  0  0  0  0  0  0  0  0  0  0
  -20.6128  -39.7476   -5.6242 C   0  0  0  0  0  0  0  0  0  0  0  0
  -21.9651  -39.6379   -5.8309 C   0  0  0  0  0  0  0  0  0  0  0  0
  -23.1531  -40.2699   -5.2020 C   0  0  0  0  0  0  0  0  0  0  0  0
  -23.8307  -41.0915   -6.3253 C   0  0  0  0  0  0  0  0  0  0  0  0
  -22.8317  -41.8727   -7.1319 C   0  0  0  0  0  0  0  0  0  0  0  0
  -23.1663  -43.3294   -7.1697 C   0  0  0  0  0  0  0  0  0  0  0  0
  -21.9942  -44.2256   -7.5066 C   0  0  0  0  0  0  0  0  0  0  0  0
  -21.0351  -44.2465   -6.3406 C   0  0  0  0  0  0  0  0  0  0  0  0
  -19.6951  -44.7463   -6.7442 C   0  0  0  0  0  0  0  0  0  0  0  0
  -19.5869  -46.0086   -6.8522 O   0  0  0  0  0  0  0  0  0  0  0  0
  -18.5786  -43.9500   -7.0061 N   0  0  0  0  0  0  0  0  0  0  0  0
  -17.4368  -44.4817   -7.7237 C   0  0  0  0  0  0  0  0  0  0  0  0
  -22.4600  -38.7582   -6.8367 C   0  0  0  0  0  0  0  0  0  0  0  0
  -21.6627  -37.9932   -7.6344 C   0  0  0  0  0  0  0  0  0  0  0  0
  -20.3293  -38.1308   -7.3979 C   0  0  0  0  0  0  0  0  0  0  0  0
  -16.1647  -39.0309   -7.7078 C   0  0  2  0  0  0  0  0  0  0  0  0
  -15.7607  -37.8903   -7.0547 O   0  0  0  0  0  0  0  0  0  0  0  0
  -15.6342  -39.1116   -9.1191 C   0  0  0  0  0  0  0  0  0  0  0  0
  -14.2470  -38.7663   -9.2531 N   0  0  0  0  0  0  0  0  0  0  0  0
  -13.4259  -39.9298   -9.2274 C   0  0  0  0  0  0  0  0  0  0  0  0
  -13.8424  -40.7874  -10.3960 C   0  0  0  0  0  0  0  0  0  0  0  0
  -13.4394  -42.1018  -10.4666 C   0  0  0  0  0  0  0  0  0  0  0  0
  -13.7993  -42.9272  -11.5167 C   0  0  0  0  0  0  0  0  0  0  0  0
  -14.5905  -42.3431  -12.4888 C   0  0  0  0  0  0  0  0  0  0  0  0
  -14.9879  -41.0546  -12.4238 N   0  0  0  0  0  0  0  0  0  0  0  0
  -14.6281  -40.2572  -11.3896 C   0  0  0  0  0  0  0  0  0  0  0  0
  -13.3465  -44.3427  -11.5816 C   0  0  0  0  0  0  0  0  0  0  0  0
  -13.4549  -45.1925  -10.3118 C   0  0  0  0  0  0  0  0  0  0  0  0
  -12.1241  -44.7037  -10.7783 C   0  0  0  0  0  0  0  0  0  0  0  0
  2  1  1  6
  2  3  1  0
  3  4  2  0
  3  5  1  0
  5  6  1  0
  6  7  1  1
  7  8  1  0
  8  9  1  0
  9 10  2  0
 10 11  1  0
 11 12  1  0
 12 13  1  0
 13 14  1  0
 14 15  1  0
 15 16  1  0
 16 17  1  0
 17 18  2  0
 17 19  1  0
 19 20  1  0
 10 21  1  0
 21 22  2  0
 22 23  1  0
  6 24  1  0
 24 25  1  6
 24 26  1  0
 26 27  1  0
 27 28  1  0
 28 29  1  0
 29 30  2  0
 30 31  1  0
 31 32  2  0
 32 33  1  0
 33 34  2  0
 31 35  1  0
 35 36  1  0
 36 37  1  0
 19  2  1  0
 23  8  2  0
 34 29  1  0
 37 35  1  0
M  END
$$$$
