
     RDKit          3D

 37 40  0  0  0  0  0  0  0  0999 V2000
  -17.2715  -42.6249   -5.9159 C   0  0  0  0  0  0  0  0  0  0  0  0
  -18.4764  -42.6413   -6.8105 C   0  0  1  0  0  0  0  0  0  0  0  0
  -18.3821  -41.7924   -8.0178 C   0  0  0  0  0  0  0  0  0  0  0  0
  -19.2936  -42.1123   -8.8871 O   0  0  0  0  0  0  0  0  0  0  0  0
  -17.5405  -40.7693   -8.3770 N   0  0  0  0  0  0  0  0  0  0  0  0
  -17.3547  -39.4150   -7.9175 C   0  0  1  0  0  0  0  0  0  0  0  0
  -18.1754  -38.9739   -6.7682 C   0  0  0  0  0  0  0  0  0  0  0  0
  -19.6500  -39.0475   -6.9610 C   0  0  0  0  0  0  0  0  0  0  0  0
  -20.6368  -39.7359   -6.3105 C   0  0  0  0  0  0  0  0  0  0  0  0
  -21.9280  -39.5788   -6.7481 C   0  0  0  0  0  0  0  0  0  0  0  0
  -23.2334  -40.1376   -6.3125 C   0  0  0  0  0  0  0  0  0  0  0  0
  -23.7489  -40.9723   -7.5098 C   0  0  0  0  0  0  0  0  0  0  0  0
  -22.6655  -41.8234   -8.1104 C   0  0  0  0  0  0  0  0  0  0  0  0
  -23.0565  -43.2656   -8.1612 C   0  0  0  0  0  0  0  0  0  0  0  0
  -21.8873  -44.2209   -8.2661 C   0  0  0  0  0  0  0  0  0  0  0  0
  -21.1413  -44.2374   -6.9535 C   0  0  0  0  0  0  0  0  0  0  0  0
  -19.7771  -44.8064   -7.1074 C   0  0  0  0  0  0  0  0  0  0  0  0
  -19.7113  -46.0752   -7.1575 O   0  0  0  0  0  0  0  0  0  0  0  0
  -18.5966  -44.0668   -7.1987 N   0  0  0  0  0  0  0  0  0  0  0  0
  -17.3759  -44.6712   -7.6947 C   0  0  0  0  0  0  0  0  0  0  0  0
  -22.2040  -38.7178   -7.8495 C   0  0  0  0  0  0  0  0  0  0  0  0
  -21.2485  -38.0165   -8.5219 C   0  0  0  0  0  0  0  0  0  0  0  0
  -19.9822  -38.1996   -8.0574 C   0  0  0  0  0  0  0  0  0  0  0  0
  -15.8718  -39.2803   -7.6251 C   0  0  2  0  0  0  0  0  0  0  0  0
  -15.4603  -37.9929   -7.3721 O   0  0  0  0  0  0  0  0  0  0  0  0
  -15.1033  -39.9250   -8.7536 C   0  0  0  0  0  0  0  0  0  0  0  0
  -15.8519  -40.0822   -9.9686 N   0  0  0  0  0  0  0  0  0  0  0  0
  -16.0297  -38.8308  -10.6250 C   0  0  0  0  0  0  0  0  0  0  0  0
  -14.6609  -38.3565  -11.0448 C   0  0  0  0  0  0  0  0  0  0  0  0
  -14.4176  -37.0123  -11.2149 C   0  0  0  0  0  0  0  0  0  0  0  0
  -13.1780  -36.5304  -11.5954 C   0  0  0  0  0  0  0  0  0  0  0  0
  -12.2015  -37.4894  -11.7925 C   0  0  0  0  0  0  0  0  0  0  0  0
  -12.4356  -38.8085  -11.6270 N   0  0  0  0  0  0  0  0  0  0  0  0
  -13.6545  -39.2669  -11.2542 C   0  0  0  0  0  0  0  0  0  0  0  0
  -12.9357  -35.0749  -11.7839 C   0  0  0  0  0  0  0  0  0  0  0  0
  -13.6183  -34.1001  -10.8195 C   0  0  0  0  0  0  0  0  0  0  0  0
  -14.1113  -34.2403  -12.2212 C   0  0  0  0  0  0  0  0  0  0  0  0
  2  1  1  1
  2  3  1  0
  3  4  2  0
  3  5  1  0
  5  6  1  0
  6  7  1  1
  7  8  1  0
  8  9  1  0
  9 10  2  0
 10 11  1  0
 11 12  1  0
 12 13  1  0
 13 14  1  0
 14 15  1  0
 15 16  1  0
 16 17  1  0
 17 18  2  0
 17 19  1  0
 19 20  1  0
 10 21  1  0
 21 22  2  0
 22 23  1  0
  6 24  1  0
 24 25  1  6
 24 26  1  0
 26 27  1  0
 27 28  1  0
 28 29  1  0
 29 30  2  0
 30 31  1  0
 31 32  2  0
 32 33  1  0
 33 34  2  0
 31 35  1  0
 35 36  1  0
 36 37  1  0
 19  2  1  0
 23  8  2  0
 34 29  1  0
 37 35  1  0
M  END
$$$$
