
     RDKit          3D

 37 40  0  0  0  0  0  0  0  0999 V2000
  -17.5236  -42.5413   -5.6899 C   0  0  0  0  0  0  0  0  0  0  0  0
  -18.7782  -42.4204   -6.5047 C   0  0  1  0  0  0  0  0  0  0  0  0
  -18.6567  -41.6194   -7.7419 C   0  0  0  0  0  0  0  0  0  0  0  0
  -19.6585  -41.8371   -8.5406 O   0  0  0  0  0  0  0  0  0  0  0  0
  -17.7161  -40.7240   -8.1865 N   0  0  0  0  0  0  0  0  0  0  0  0
  -17.3263  -39.3954   -7.7831 C   0  0  1  0  0  0  0  0  0  0  0  0
  -18.0036  -38.8241   -6.5982 C   0  0  0  0  0  0  0  0  0  0  0  0
  -19.4850  -38.7083   -6.6941 C   0  0  0  0  0  0  0  0  0  0  0  0
  -20.5063  -39.2462   -5.9602 C   0  0  0  0  0  0  0  0  0  0  0  0
  -21.7929  -38.9314   -6.3192 C   0  0  0  0  0  0  0  0  0  0  0  0
  -23.1272  -39.3041   -5.7835 C   0  0  0  0  0  0  0  0  0  0  0  0
  -23.8258  -40.0915   -6.9183 C   0  0  0  0  0  0  0  0  0  0  0  0
  -22.9046  -41.0910   -7.5596 C   0  0  0  0  0  0  0  0  0  0  0  0
  -23.4812  -42.4703   -7.5394 C   0  0  0  0  0  0  0  0  0  0  0  0
  -22.4550  -43.5727   -7.6884 C   0  0  0  0  0  0  0  0  0  0  0  0
  -21.6305  -43.6564   -6.4263 C   0  0  0  0  0  0  0  0  0  0  0  0
  -20.3648  -44.4027   -6.6490 C   0  0  0  0  0  0  0  0  0  0  0  0
  -20.4670  -45.6700   -6.6628 O   0  0  0  0  0  0  0  0  0  0  0  0
  -19.1075  -43.8265   -6.8389 N   0  0  0  0  0  0  0  0  0  0  0  0
  -18.0114  -44.5969   -7.3925 C   0  0  0  0  0  0  0  0  0  0  0  0
  -22.0291  -38.0674   -7.4275 C   0  0  0  0  0  0  0  0  0  0  0  0
  -21.0386  -37.5131   -8.1815 C   0  0  0  0  0  0  0  0  0  0  0  0
  -19.7781  -37.8498   -7.7933 C   0  0  0  0  0  0  0  0  0  0  0  0
  -15.8221  -39.4494   -7.5905 C   0  0  2  0  0  0  0  0  0  0  0  0
  -15.3379  -38.5528   -6.6673 O   0  0  0  0  0  0  0  0  0  0  0  0
  -15.1634  -39.3056   -8.9415 C   0  0  0  0  0  0  0  0  0  0  0  0
  -14.7118  -40.5410   -9.5170 N   0  0  0  0  0  0  0  0  0  0  0  0
  -14.8576  -40.5282  -10.9337 C   0  0  0  0  0  0  0  0  0  0  0  0
  -14.4906  -39.1419  -11.4008 C   0  0  0  0  0  0  0  0  0  0  0  0
  -15.4589  -38.3044  -11.9066 C   0  0  0  0  0  0  0  0  0  0  0  0
  -15.1704  -37.0240  -12.3436 C   0  0  0  0  0  0  0  0  0  0  0  0
  -13.8453  -36.6433  -12.2376 C   0  0  0  0  0  0  0  0  0  0  0  0
  -12.8924  -37.4613  -11.7424 N   0  0  0  0  0  0  0  0  0  0  0  0
  -13.1887  -38.7131  -11.3180 C   0  0  0  0  0  0  0  0  0  0  0  0
  -16.2280  -36.1359  -12.8964 C   0  0  0  0  0  0  0  0  0  0  0  0
  -16.5869  -34.8693  -12.1133 C   0  0  0  0  0  0  0  0  0  0  0  0
  -17.5128  -36.0398  -12.1154 C   0  0  0  0  0  0  0  0  0  0  0  0
  2  1  1  6
  2  3  1  0
  3  4  2  0
  3  5  1  0
  5  6  1  0
  6  7  1  1
  7  8  1  0
  8  9  1  0
  9 10  2  0
 10 11  1  0
 11 12  1  0
 12 13  1  0
 13 14  1  0
 14 15  1  0
 15 16  1  0
 16 17  1  0
 17 18  2  0
 17 19  1  0
 19 20  1  0
 10 21  1  0
 21 22  2  0
 22 23  1  0
  6 24  1  0
 24 25  1  1
 24 26  1  0
 26 27  1  0
 27 28  1  0
 28 29  1  0
 29 30  2  0
 30 31  1  0
 31 32  2  0
 32 33  1  0
 33 34  2  0
 31 35  1  0
 35 36  1  0
 36 37  1  0
 19  2  1  0
 23  8  2  0
 34 29  1  0
 37 35  1  0
M  END
$$$$
