
     RDKit          3D

 37 40  0  0  0  0  0  0  0  0999 V2000
  -17.6818  -42.5126   -5.4309 C   0  0  0  0  0  0  0  0  0  0  0  0
  -18.8938  -42.4655   -6.3147 C   0  0  1  0  0  0  0  0  0  0  0  0
  -18.7436  -41.6763   -7.5563 C   0  0  0  0  0  0  0  0  0  0  0  0
  -19.6878  -41.9545   -8.4048 O   0  0  0  0  0  0  0  0  0  0  0  0
  -17.8249  -40.7412   -7.9635 N   0  0  0  0  0  0  0  0  0  0  0  0
  -17.5236  -39.3895   -7.5611 C   0  0  1  0  0  0  0  0  0  0  0  0
  -18.2926  -38.8366   -6.4244 C   0  0  0  0  0  0  0  0  0  0  0  0
  -19.7703  -38.7962   -6.6027 C   0  0  0  0  0  0  0  0  0  0  0  0
  -20.8029  -39.3743   -5.9170 C   0  0  0  0  0  0  0  0  0  0  0  0
  -22.0817  -39.1290   -6.3506 C   0  0  0  0  0  0  0  0  0  0  0  0
  -23.4237  -39.5604   -5.8825 C   0  0  0  0  0  0  0  0  0  0  0  0
  -24.0190  -40.3971   -7.0408 C   0  0  0  0  0  0  0  0  0  0  0  0
  -23.0158  -41.3579   -7.6145 C   0  0  0  0  0  0  0  0  0  0  0  0
  -23.5243  -42.7638   -7.6033 C   0  0  0  0  0  0  0  0  0  0  0  0
  -22.4387  -43.8157   -7.6782 C   0  0  0  0  0  0  0  0  0  0  0  0
  -21.6820  -43.8411   -6.3718 C   0  0  0  0  0  0  0  0  0  0  0  0
  -20.3709  -44.5262   -6.5130 C   0  0  0  0  0  0  0  0  0  0  0  0
  -20.4099  -45.7971   -6.5117 O   0  0  0  0  0  0  0  0  0  0  0  0
  -19.1348  -43.8907   -6.6435 N   0  0  0  0  0  0  0  0  0  0  0  0
  -17.9733  -44.6129   -7.1238 C   0  0  0  0  0  0  0  0  0  0  0  0
  -22.2983  -38.2930   -7.4841 C   0  0  0  0  0  0  0  0  0  0  0  0
  -21.2960  -37.7002   -8.1920 C   0  0  0  0  0  0  0  0  0  0  0  0
  -20.0439  -37.9683   -7.7302 C   0  0  0  0  0  0  0  0  0  0  0  0
  -16.0315  -39.3658   -7.2859 C   0  0  2  0  0  0  0  0  0  0  0  0
  -15.5520  -38.1447   -6.8742 O   0  0  0  0  0  0  0  0  0  0  0  0
  -15.3137  -39.8908   -8.5062 C   0  0  0  0  0  0  0  0  0  0  0  0
  -13.8814  -39.8487   -8.4171 N   0  0  0  0  0  0  0  0  0  0  0  0
  -13.2816  -40.1929   -9.6622 C   0  0  0  0  0  0  0  0  0  0  0  0
  -13.4297  -38.9955  -10.5672 C   0  0  0  0  0  0  0  0  0  0  0  0
  -12.4504  -38.0287  -10.5996 C   0  0  0  0  0  0  0  0  0  0  0  0
  -12.5411  -36.9154  -11.4158 C   0  0  0  0  0  0  0  0  0  0  0  0
  -13.6804  -36.8405  -12.1959 C   0  0  0  0  0  0  0  0  0  0  0  0
  -14.6433  -37.7862  -12.1672 N   0  0  0  0  0  0  0  0  0  0  0  0
  -14.5419  -38.8714  -11.3630 C   0  0  0  0  0  0  0  0  0  0  0  0
  -11.4776  -35.8755  -11.4308 C   0  0  0  0  0  0  0  0  0  0  0  0
  -11.6133  -34.7207  -12.4280 C   0  0  0  0  0  0  0  0  0  0  0  0
  -10.6134  -35.8036  -12.6629 C   0  0  0  0  0  0  0  0  0  0  0  0
  2  1  1  1
  2  3  1  0
  3  4  2  0
  3  5  1  0
  5  6  1  0
  6  7  1  1
  7  8  1  0
  8  9  1  0
  9 10  2  0
 10 11  1  0
 11 12  1  0
 12 13  1  0
 13 14  1  0
 14 15  1  0
 15 16  1  0
 16 17  1  0
 17 18  2  0
 17 19  1  0
 19 20  1  0
 10 21  1  0
 21 22  2  0
 22 23  1  0
  6 24  1  0
 24 25  1  6
 24 26  1  0
 26 27  1  0
 27 28  1  0
 28 29  1  0
 29 30  2  0
 30 31  1  0
 31 32  2  0
 32 33  1  0
 33 34  2  0
 31 35  1  0
 35 36  1  0
 36 37  1  0
 19  2  1  0
 23  8  2  0
 34 29  1  0
 37 35  1  0
M  END
$$$$
