
     RDKit          3D

 37 40  0  0  0  0  0  0  0  0999 V2000
  -17.3174  -42.9889   -6.2939 C   0  0  0  0  0  0  0  0  0  0  0  0
  -18.5672  -42.9326   -7.1228 C   0  0  1  0  0  0  0  0  0  0  0  0
  -18.5550  -41.9449   -8.2234 C   0  0  0  0  0  0  0  0  0  0  0  0
  -19.5040  -42.1848   -9.0781 O   0  0  0  0  0  0  0  0  0  0  0  0
  -17.7555  -40.8638   -8.4995 N   0  0  0  0  0  0  0  0  0  0  0  0
  -17.5747  -39.5686   -7.8915 C   0  0  1  0  0  0  0  0  0  0  0  0
  -18.3428  -39.2890   -6.6582 C   0  0  0  0  0  0  0  0  0  0  0  0
  -19.8236  -39.3799   -6.7847 C   0  0  0  0  0  0  0  0  0  0  0  0
  -20.7597  -40.1671   -6.1726 C   0  0  0  0  0  0  0  0  0  0  0  0
  -22.0753  -39.9950   -6.5233 C   0  0  0  0  0  0  0  0  0  0  0  0
  -23.3437  -40.6370   -6.0929 C   0  0  0  0  0  0  0  0  0  0  0  0
  -23.9037  -41.3383   -7.3541 C   0  0  0  0  0  0  0  0  0  0  0  0
  -22.8356  -42.0825   -8.1052 C   0  0  0  0  0  0  0  0  0  0  0  0
  -23.1978  -43.5188   -8.3082 C   0  0  0  0  0  0  0  0  0  0  0  0
  -22.0157  -44.4225   -8.5845 C   0  0  0  0  0  0  0  0  0  0  0  0
  -21.2012  -44.5734   -7.3222 C   0  0  0  0  0  0  0  0  0  0  0  0
  -19.8353  -45.0825   -7.6107 C   0  0  0  0  0  0  0  0  0  0  0  0
  -19.7451  -46.3342   -7.8151 O   0  0  0  0  0  0  0  0  0  0  0  0
  -18.6772  -44.3051   -7.6719 N   0  0  0  0  0  0  0  0  0  0  0  0
  -17.4718  -44.8129   -8.2968 C   0  0  0  0  0  0  0  0  0  0  0  0
  -22.4275  -39.0179   -7.4989 C   0  0  0  0  0  0  0  0  0  0  0  0
  -21.5240  -38.2161   -8.1297 C   0  0  0  0  0  0  0  0  0  0  0  0
  -20.2313  -38.4179   -7.7541 C   0  0  0  0  0  0  0  0  0  0  0  0
  -16.0816  -39.4286   -7.6595 C   0  0  2  0  0  0  0  0  0  0  0  0
  -15.7164  -38.2725   -7.0110 O   0  0  0  0  0  0  0  0  0  0  0  0
  -15.3758  -39.6006   -8.9831 C   0  0  0  0  0  0  0  0  0  0  0  0
  -14.0761  -38.9937   -9.0467 N   0  0  0  0  0  0  0  0  0  0  0  0
  -13.3889  -39.3807  -10.2327 C   0  0  0  0  0  0  0  0  0  0  0  0
  -13.8118  -38.4227  -11.3181 C   0  0  0  0  0  0  0  0  0  0  0  0
  -13.0865  -37.2756  -11.5482 C   0  0  0  0  0  0  0  0  0  0  0  0
  -13.4339  -36.3698  -12.5343 C   0  0  0  0  0  0  0  0  0  0  0  0
  -14.5573  -36.6948  -13.2720 C   0  0  0  0  0  0  0  0  0  0  0  0
  -15.2717  -37.8184  -13.0498 N   0  0  0  0  0  0  0  0  0  0  0  0
  -14.9204  -38.6971  -12.0806 C   0  0  0  0  0  0  0  0  0  0  0  0
  -12.6439  -35.1302  -12.7626 C   0  0  0  0  0  0  0  0  0  0  0  0
  -11.9622  -34.9507  -14.1225 C   0  0  0  0  0  0  0  0  0  0  0  0
  -11.1537  -35.2913  -12.9151 C   0  0  0  0  0  0  0  0  0  0  0  0
  2  1  1  6
  2  3  1  0
  3  4  2  0
  3  5  1  0
  5  6  1  0
  6  7  1  1
  7  8  1  0
  8  9  1  0
  9 10  2  0
 10 11  1  0
 11 12  1  0
 12 13  1  0
 13 14  1  0
 14 15  1  0
 15 16  1  0
 16 17  1  0
 17 18  2  0
 17 19  1  0
 19 20  1  0
 10 21  1  0
 21 22  2  0
 22 23  1  0
  6 24  1  0
 24 25  1  6
 24 26  1  0
 26 27  1  0
 27 28  1  0
 28 29  1  0
 29 30  2  0
 30 31  1  0
 31 32  2  0
 32 33  1  0
 33 34  2  0
 31 35  1  0
 35 36  1  0
 36 37  1  0
 19  2  1  0
 23  8  2  0
 34 29  1  0
 37 35  1  0
M  END
$$$$
