
     RDKit          3D

 37 40  0  0  0  0  0  0  0  0999 V2000
  -18.1207  -40.8152  -10.6715 C   0  0  0  0  0  0  0  0  0  0  0  0
  -16.7376  -41.3883  -10.5660 C   0  0  1  0  0  0  0  0  0  0  0  0
  -15.9307  -40.8936   -9.4298 C   0  0  0  0  0  0  0  0  0  0  0  0
  -14.9057  -41.6627   -9.2139 O   0  0  0  0  0  0  0  0  0  0  0  0
  -16.0603  -39.8142   -8.5918 N   0  0  0  0  0  0  0  0  0  0  0  0
  -15.9313  -38.3883   -8.7653 C   0  0  1  0  0  0  0  0  0  0  0  0
  -15.6571  -37.8973  -10.1339 C   0  0  0  0  0  0  0  0  0  0  0  0
  -14.4114  -38.4112  -10.7673 C   0  0  0  0  0  0  0  0  0  0  0  0
  -14.1810  -39.1427  -11.8998 C   0  0  0  0  0  0  0  0  0  0  0  0
  -12.8819  -39.4580  -12.2101 C   0  0  0  0  0  0  0  0  0  0  0  0
  -12.2470  -40.2112  -13.3218 C   0  0  0  0  0  0  0  0  0  0  0  0
  -11.5723  -41.4376  -12.6611 C   0  0  0  0  0  0  0  0  0  0  0  0
  -12.4669  -42.0942  -11.6475 C   0  0  0  0  0  0  0  0  0  0  0  0
  -12.6573  -43.5490  -11.9347 C   0  0  0  0  0  0  0  0  0  0  0  0
  -13.8937  -44.1489  -11.3005 C   0  0  0  0  0  0  0  0  0  0  0  0
  -15.1192  -43.6193  -12.0058 C   0  0  0  0  0  0  0  0  0  0  0  0
  -16.3472  -43.8217  -11.1937 C   0  0  0  0  0  0  0  0  0  0  0  0
  -16.8404  -44.9933  -11.2225 O   0  0  0  0  0  0  0  0  0  0  0  0
  -16.9790  -42.8439  -10.4232 N   0  0  0  0  0  0  0  0  0  0  0  0
  -17.9430  -43.2074   -9.4034 C   0  0  0  0  0  0  0  0  0  0  0  0
  -11.8240  -39.0234  -11.3602 C   0  0  0  0  0  0  0  0  0  0  0  0
  -12.0142  -38.2940  -10.2248 C   0  0  0  0  0  0  0  0  0  0  0  0
  -13.3156  -38.0024   -9.9527 C   0  0  0  0  0  0  0  0  0  0  0  0
  -17.2084  -37.7893   -8.2060 C   0  0  2  0  0  0  0  0  0  0  0  0
  -17.0101  -36.7186   -7.3664 O   0  0  0  0  0  0  0  0  0  0  0  0
  -18.0095  -38.8941   -7.5600 C   0  0  0  0  0  0  0  0  0  0  0  0
  -19.0149  -39.4723   -8.4064 N   0  0  0  0  0  0  0  0  0  0  0  0
  -20.3115  -38.9973   -8.0577 C   0  0  0  0  0  0  0  0  0  0  0  0
  -20.6998  -39.6835   -6.7720 C   0  0  0  0  0  0  0  0  0  0  0  0
  -21.9076  -39.4006   -6.1753 C   0  0  0  0  0  0  0  0  0  0  0  0
  -22.3078  -40.0073   -4.9983 C   0  0  0  0  0  0  0  0  0  0  0  0
  -21.4135  -40.9161   -4.4631 C   0  0  0  0  0  0  0  0  0  0  0  0
  -20.2280  -41.1965   -5.0447 N   0  0  0  0  0  0  0  0  0  0  0  0
  -19.8483  -40.5949   -6.1974 C   0  0  0  0  0  0  0  0  0  0  0  0
  -23.6126  -39.6821   -4.3622 C   0  0  0  0  0  0  0  0  0  0  0  0
  -23.6645  -39.5834   -2.8346 C   0  0  0  0  0  0  0  0  0  0  0  0
  -24.2535  -40.7640   -3.5323 C   0  0  0  0  0  0  0  0  0  0  0  0
  2  1  1  1
  2  3  1  0
  3  4  2  0
  3  5  1  0
  5  6  1  0
  6  7  1  6
  7  8  1  0
  8  9  1  0
  9 10  2  0
 10 11  1  0
 11 12  1  0
 12 13  1  0
 13 14  1  0
 14 15  1  0
 15 16  1  0
 16 17  1  0
 17 18  2  0
 17 19  1  0
 19 20  1  0
 10 21  1  0
 21 22  2  0
 22 23  1  0
  6 24  1  0
 24 25  1  1
 24 26  1  0
 26 27  1  0
 27 28  1  0
 28 29  1  0
 29 30  2  0
 30 31  1  0
 31 32  2  0
 32 33  1  0
 33 34  2  0
 31 35  1  0
 35 36  1  0
 36 37  1  0
 19  2  1  0
 23  8  2  0
 34 29  1  0
 37 35  1  0
M  END
$$$$
