
     RDKit          3D

 37 40  0  0  0  0  0  0  0  0999 V2000
  -17.0735  -42.5334   -6.0655 C   0  0  0  0  0  0  0  0  0  0  0  0
  -18.3890  -42.5301   -6.7880 C   0  0  1  0  0  0  0  0  0  0  0  0
  -18.5387  -41.4905   -7.8290 C   0  0  0  0  0  0  0  0  0  0  0  0
  -19.5363  -41.7582   -8.6176 O   0  0  0  0  0  0  0  0  0  0  0  0
  -17.8439  -40.3398   -8.1068 N   0  0  0  0  0  0  0  0  0  0  0  0
  -17.7055  -39.0667   -7.4436 C   0  0  1  0  0  0  0  0  0  0  0  0
  -18.3860  -38.9078   -6.1394 C   0  0  0  0  0  0  0  0  0  0  0  0
  -19.8620  -39.1036   -6.1527 C   0  0  0  0  0  0  0  0  0  0  0  0
  -20.6855  -39.9887   -5.5131 C   0  0  0  0  0  0  0  0  0  0  0  0
  -22.0346  -39.8990   -5.7479 C   0  0  0  0  0  0  0  0  0  0  0  0
  -23.2139  -40.6555   -5.2547 C   0  0  0  0  0  0  0  0  0  0  0  0
  -23.8258  -41.3330   -6.5047 C   0  0  0  0  0  0  0  0  0  0  0  0
  -22.7739  -41.9561   -7.3788 C   0  0  0  0  0  0  0  0  0  0  0  0
  -23.0489  -43.4036   -7.6324 C   0  0  0  0  0  0  0  0  0  0  0  0
  -21.8327  -44.2008   -8.0520 C   0  0  0  0  0  0  0  0  0  0  0  0
  -20.9072  -44.3527   -6.8688 C   0  0  0  0  0  0  0  0  0  0  0  0
  -19.5373  -44.7423   -7.2931 C   0  0  0  0  0  0  0  0  0  0  0  0
  -19.3758  -45.9719   -7.5738 O   0  0  0  0  0  0  0  0  0  0  0  0
  -18.4466  -43.8778   -7.4025 N   0  0  0  0  0  0  0  0  0  0  0  0
  -17.2644  -44.2615   -8.1487 C   0  0  0  0  0  0  0  0  0  0  0  0
  -22.5354  -38.9037   -6.6362 C   0  0  0  0  0  0  0  0  0  0  0  0
  -21.7470  -38.0054   -7.2910 C   0  0  0  0  0  0  0  0  0  0  0  0
  -20.4164  -38.1278   -7.0312 C   0  0  0  0  0  0  0  0  0  0  0  0
  -16.2120  -38.8263   -7.3235 C   0  0  2  0  0  0  0  0  0  0  0  0
  -15.8695  -37.8250   -6.4456 O   0  0  0  0  0  0  0  0  0  0  0  0
  -15.6529  -38.6021   -8.7079 C   0  0  0  0  0  0  0  0  0  0  0  0
  -14.3649  -39.1957   -8.9320 N   0  0  0  0  0  0  0  0  0  0  0  0
  -14.0774  -39.2825  -10.3242 C   0  0  0  0  0  0  0  0  0  0  0  0
  -14.2612  -37.8999  -10.8979 C   0  0  0  0  0  0  0  0  0  0  0  0
  -15.4448  -37.5586  -11.5123 C   0  0  0  0  0  0  0  0  0  0  0  0
  -15.6604  -36.3023  -12.0498 C   0  0  0  0  0  0  0  0  0  0  0  0
  -14.6077  -35.4140  -11.9275 C   0  0  0  0  0  0  0  0  0  0  0  0
  -13.4452  -35.7443  -11.3259 N   0  0  0  0  0  0  0  0  0  0  0  0
  -13.2474  -36.9785  -10.8039 C   0  0  0  0  0  0  0  0  0  0  0  0
  -16.9425  -35.9540  -12.7189 C   0  0  0  0  0  0  0  0  0  0  0  0
  -18.2488  -36.3225  -12.0091 C   0  0  0  0  0  0  0  0  0  0  0  0
  -17.7935  -37.1011  -13.1983 C   0  0  0  0  0  0  0  0  0  0  0  0
  2  1  1  6
  2  3  1  0
  3  4  2  0
  3  5  1  0
  5  6  1  0
  6  7  1  1
  7  8  1  0
  8  9  1  0
  9 10  2  0
 10 11  1  0
 11 12  1  0
 12 13  1  0
 13 14  1  0
 14 15  1  0
 15 16  1  0
 16 17  1  0
 17 18  2  0
 17 19  1  0
 19 20  1  0
 10 21  1  0
 21 22  2  0
 22 23  1  0
  6 24  1  0
 24 25  1  1
 24 26  1  0
 26 27  1  0
 27 28  1  0
 28 29  1  0
 29 30  2  0
 30 31  1  0
 31 32  2  0
 32 33  1  0
 33 34  2  0
 31 35  1  0
 35 36  1  0
 36 37  1  0
 19  2  1  0
 23  8  2  0
 34 29  1  0
 37 35  1  0
M  END
$$$$
