
     RDKit          3D

 37 40  0  0  0  0  0  0  0  0999 V2000
  -18.4349  -42.8477   -5.9045 C   0  0  0  0  0  0  0  0  0  0  0  0
  -19.4944  -42.5842   -6.9343 C   0  0  1  0  0  0  0  0  0  0  0  0
  -19.0993  -41.6773   -8.0335 C   0  0  0  0  0  0  0  0  0  0  0  0
  -19.9257  -41.7653   -9.0326 O   0  0  0  0  0  0  0  0  0  0  0  0
  -18.0595  -40.7947   -8.1885 N   0  0  0  0  0  0  0  0  0  0  0  0
  -17.7160  -39.5327   -7.5809 C   0  0  1  0  0  0  0  0  0  0  0  0
  -18.5997  -39.0411   -6.5008 C   0  0  0  0  0  0  0  0  0  0  0  0
  -20.0265  -38.8388   -6.8752 C   0  0  0  0  0  0  0  0  0  0  0  0
  -21.1920  -39.3891   -6.4173 C   0  0  0  0  0  0  0  0  0  0  0  0
  -22.3687  -38.9743   -6.9891 C   0  0  0  0  0  0  0  0  0  0  0  0
  -23.7951  -39.3252   -6.7692 C   0  0  0  0  0  0  0  0  0  0  0  0
  -24.2755  -39.9637   -8.0949 C   0  0  0  0  0  0  0  0  0  0  0  0
  -23.2768  -40.9452   -8.6411 C   0  0  0  0  0  0  0  0  0  0  0  0
  -23.8904  -42.2878   -8.8779 C   0  0  0  0  0  0  0  0  0  0  0  0
  -22.8920  -43.4238   -8.9342 C   0  0  0  0  0  0  0  0  0  0  0  0
  -22.3426  -43.6700   -7.5495 C   0  0  0  0  0  0  0  0  0  0  0  0
  -21.0831  -44.4575   -7.5934 C   0  0  0  0  0  0  0  0  0  0  0  0
  -21.2218  -45.7106   -7.7580 O   0  0  0  0  0  0  0  0  0  0  0  0
  -19.7952  -43.9331   -7.4704 N   0  0  0  0  0  0  0  0  0  0  0  0
  -18.6357  -44.7044   -7.8729 C   0  0  0  0  0  0  0  0  0  0  0  0
  -22.3477  -37.9981   -8.0269 C   0  0  0  0  0  0  0  0  0  0  0  0
  -21.2077  -37.4279   -8.5089 C   0  0  0  0  0  0  0  0  0  0  0  0
  -20.0633  -37.8658   -7.9160 C   0  0  0  0  0  0  0  0  0  0  0  0
  -16.2843  -39.6840   -7.1013 C   0  0  2  0  0  0  0  0  0  0  0  0
  -15.6911  -38.5061   -6.7122 O   0  0  0  0  0  0  0  0  0  0  0  0
  -15.4980  -40.4057   -8.1693 C   0  0  0  0  0  0  0  0  0  0  0  0
  -14.1926  -39.8613   -8.4163 N   0  0  0  0  0  0  0  0  0  0  0  0
  -14.2770  -38.6461   -9.1544 C   0  0  0  0  0  0  0  0  0  0  0  0
  -14.0781  -38.9995  -10.6070 C   0  0  0  0  0  0  0  0  0  0  0  0
  -12.8131  -39.0037  -11.1500 C   0  0  0  0  0  0  0  0  0  0  0  0
  -12.5815  -39.3245  -12.4756 C   0  0  0  0  0  0  0  0  0  0  0  0
  -13.7054  -39.6404  -13.2166 C   0  0  0  0  0  0  0  0  0  0  0  0
  -14.9477  -39.6375  -12.6884 N   0  0  0  0  0  0  0  0  0  0  0  0
  -15.1604  -39.3212  -11.3885 C   0  0  0  0  0  0  0  0  0  0  0  0
  -11.2086  -39.3144  -13.0480 C   0  0  0  0  0  0  0  0  0  0  0  0
  -11.0535  -39.5586  -14.5522 C   0  0  0  0  0  0  0  0  0  0  0  0
  -10.6815  -40.6237  -13.5751 C   0  0  0  0  0  0  0  0  0  0  0  0
  2  1  1  1
  2  3  1  0
  3  4  2  0
  3  5  1  0
  5  6  1  0
  6  7  1  1
  7  8  1  0
  8  9  1  0
  9 10  2  0
 10 11  1  0
 11 12  1  0
 12 13  1  0
 13 14  1  0
 14 15  1  0
 15 16  1  0
 16 17  1  0
 17 18  2  0
 17 19  1  0
 19 20  1  0
 10 21  1  0
 21 22  2  0
 22 23  1  0
  6 24  1  0
 24 25  1  6
 24 26  1  0
 26 27  1  0
 27 28  1  0
 28 29  1  0
 29 30  2  0
 30 31  1  0
 31 32  2  0
 32 33  1  0
 33 34  2  0
 31 35  1  0
 35 36  1  0
 36 37  1  0
 19  2  1  0
 23  8  2  0
 34 29  1  0
 37 35  1  0
M  END
$$$$
