
     RDKit          3D

 37 40  0  0  0  0  0  0  0  0999 V2000
  -17.9017  -42.7627   -5.5922 C   0  0  0  0  0  0  0  0  0  0  0  0
  -19.1523  -42.7653   -6.4218 C   0  0  1  0  0  0  0  0  0  0  0  0
  -19.0645  -42.0347   -7.7046 C   0  0  0  0  0  0  0  0  0  0  0  0
  -20.0431  -42.3589   -8.4957 O   0  0  0  0  0  0  0  0  0  0  0  0
  -18.1730  -41.1139   -8.1961 N   0  0  0  0  0  0  0  0  0  0  0  0
  -17.8658  -39.7427   -7.8716 C   0  0  1  0  0  0  0  0  0  0  0  0
  -18.5881  -39.1418   -6.7286 C   0  0  0  0  0  0  0  0  0  0  0  0
  -20.0726  -39.1195   -6.8420 C   0  0  0  0  0  0  0  0  0  0  0  0
  -21.0686  -39.6714   -6.0842 C   0  0  0  0  0  0  0  0  0  0  0  0
  -22.3675  -39.4552   -6.4709 C   0  0  0  0  0  0  0  0  0  0  0  0
  -23.6834  -39.8729   -5.9232 C   0  0  0  0  0  0  0  0  0  0  0  0
  -24.3226  -40.7672   -7.0129 C   0  0  0  0  0  0  0  0  0  0  0  0
  -23.3377  -41.7475   -7.5854 C   0  0  0  0  0  0  0  0  0  0  0  0
  -23.8329  -43.1547   -7.4855 C   0  0  0  0  0  0  0  0  0  0  0  0
  -22.7426  -44.2017   -7.5597 C   0  0  0  0  0  0  0  0  0  0  0  0
  -21.9283  -44.1603   -6.2889 C   0  0  0  0  0  0  0  0  0  0  0  0
  -20.6189  -44.8427   -6.4565 C   0  0  0  0  0  0  0  0  0  0  0  0
  -20.6467  -46.1124   -6.3939 O   0  0  0  0  0  0  0  0  0  0  0  0
  -19.3953  -44.2060   -6.6722 N   0  0  0  0  0  0  0  0  0  0  0  0
  -18.2502  -44.9425   -7.1698 C   0  0  0  0  0  0  0  0  0  0  0  0
  -22.6417  -38.6752   -7.6314 C   0  0  0  0  0  0  0  0  0  0  0  0
  -21.6772  -38.1100   -8.4107 C   0  0  0  0  0  0  0  0  0  0  0  0
  -20.4034  -38.3477   -7.9936 C   0  0  0  0  0  0  0  0  0  0  0  0
  -16.3632  -39.6963   -7.6652 C   0  0  2  0  0  0  0  0  0  0  0  0
  -15.9687  -39.0232   -6.5329 O   0  0  0  0  0  0  0  0  0  0  0  0
  -15.7269  -39.1468   -8.9194 C   0  0  0  0  0  0  0  0  0  0  0  0
  -14.3892  -38.6565   -8.7414 N   0  0  0  0  0  0  0  0  0  0  0  0
  -13.6578  -38.7127   -9.9622 C   0  0  0  0  0  0  0  0  0  0  0  0
  -14.1825  -37.6043  -10.8402 C   0  0  0  0  0  0  0  0  0  0  0  0
  -13.3161  -36.6782  -11.3755 C   0  0  0  0  0  0  0  0  0  0  0  0
  -13.7505  -35.6468  -12.1886 C   0  0  0  0  0  0  0  0  0  0  0  0
  -15.1121  -35.6099  -12.4269 C   0  0  0  0  0  0  0  0  0  0  0  0
  -15.9654  -36.5159  -11.9040 N   0  0  0  0  0  0  0  0  0  0  0  0
  -15.5265  -37.5209  -11.1090 C   0  0  0  0  0  0  0  0  0  0  0  0
  -12.8011  -34.6490  -12.7507 C   0  0  0  0  0  0  0  0  0  0  0  0
  -11.3708  -34.6277  -12.2031 C   0  0  0  0  0  0  0  0  0  0  0  0
  -12.3369  -33.5547  -11.8250 C   0  0  0  0  0  0  0  0  0  0  0  0
  2  1  1  6
  2  3  1  0
  3  4  2  0
  3  5  1  0
  5  6  1  0
  6  7  1  1
  7  8  1  0
  8  9  1  0
  9 10  2  0
 10 11  1  0
 11 12  1  0
 12 13  1  0
 13 14  1  0
 14 15  1  0
 15 16  1  0
 16 17  1  0
 17 18  2  0
 17 19  1  0
 19 20  1  0
 10 21  1  0
 21 22  2  0
 22 23  1  0
  6 24  1  0
 24 25  1  1
 24 26  1  0
 26 27  1  0
 27 28  1  0
 28 29  1  0
 29 30  2  0
 30 31  1  0
 31 32  2  0
 32 33  1  0
 33 34  2  0
 31 35  1  0
 35 36  1  0
 36 37  1  0
 19  2  1  0
 23  8  2  0
 34 29  1  0
 37 35  1  0
M  END
$$$$
