
     RDKit          3D

 37 40  0  0  0  0  0  0  0  0999 V2000
  -17.3691  -42.8429   -6.0158 C   0  0  0  0  0  0  0  0  0  0  0  0
  -18.5613  -42.7890   -6.9259 C   0  0  1  0  0  0  0  0  0  0  0  0
  -18.4997  -41.7666   -7.9925 C   0  0  0  0  0  0  0  0  0  0  0  0
  -19.3827  -42.0009   -8.9168 O   0  0  0  0  0  0  0  0  0  0  0  0
  -17.7110  -40.6590   -8.1806 N   0  0  0  0  0  0  0  0  0  0  0  0
  -17.6043  -39.3801   -7.5227 C   0  0  1  0  0  0  0  0  0  0  0  0
  -18.4606  -39.1579   -6.3367 C   0  0  0  0  0  0  0  0  0  0  0  0
  -19.9268  -39.2789   -6.5666 C   0  0  0  0  0  0  0  0  0  0  0  0
  -20.8819  -40.1067   -6.0438 C   0  0  0  0  0  0  0  0  0  0  0  0
  -22.1748  -39.9539   -6.4780 C   0  0  0  0  0  0  0  0  0  0  0  0
  -23.4527  -40.6385   -6.1548 C   0  0  0  0  0  0  0  0  0  0  0  0
  -23.9085  -41.3118   -7.4719 C   0  0  0  0  0  0  0  0  0  0  0  0
  -22.7738  -42.0067   -8.1707 C   0  0  0  0  0  0  0  0  0  0  0  0
  -23.0852  -43.4438   -8.4413 C   0  0  0  0  0  0  0  0  0  0  0  0
  -21.8647  -44.3107   -8.6638 C   0  0  0  0  0  0  0  0  0  0  0  0
  -21.1336  -44.4830   -7.3540 C   0  0  0  0  0  0  0  0  0  0  0  0
  -19.7389  -44.9509   -7.5641 C   0  0  0  0  0  0  0  0  0  0  0  0
  -19.6036  -46.1930   -7.7997 O   0  0  0  0  0  0  0  0  0  0  0  0
  -18.5994  -44.1454   -7.5225 N   0  0  0  0  0  0  0  0  0  0  0  0
  -17.3421  -44.6050   -8.0789 C   0  0  0  0  0  0  0  0  0  0  0  0
  -22.4848  -38.9545   -7.4453 C   0  0  0  0  0  0  0  0  0  0  0  0
  -21.5614  -38.1122   -7.9884 C   0  0  0  0  0  0  0  0  0  0  0  0
  -20.2923  -38.2960   -7.5319 C   0  0  0  0  0  0  0  0  0  0  0  0
  -16.1343  -39.2132   -7.1853 C   0  0  2  0  0  0  0  0  0  0  0  0
  -15.8697  -38.1950   -6.2998 O   0  0  0  0  0  0  0  0  0  0  0  0
  -15.3620  -39.0769   -8.4755 C   0  0  0  0  0  0  0  0  0  0  0  0
  -14.8781  -40.3175   -9.0123 N   0  0  0  0  0  0  0  0  0  0  0  0
  -13.5367  -40.1865   -9.4729 C   0  0  0  0  0  0  0  0  0  0  0  0
  -13.3128  -41.2774  -10.4899 C   0  0  0  0  0  0  0  0  0  0  0  0
  -13.1259  -40.9581  -11.8158 C   0  0  0  0  0  0  0  0  0  0  0  0
  -12.9138  -41.9238  -12.7833 C   0  0  0  0  0  0  0  0  0  0  0  0
  -12.9018  -43.2295  -12.3284 C   0  0  0  0  0  0  0  0  0  0  0  0
  -13.0848  -43.5474  -11.0292 N   0  0  0  0  0  0  0  0  0  0  0  0
  -13.2918  -42.5915  -10.0920 C   0  0  0  0  0  0  0  0  0  0  0  0
  -12.7233  -41.5610  -14.2133 C   0  0  0  0  0  0  0  0  0  0  0  0
  -12.4859  -42.6926  -15.2181 C   0  0  0  0  0  0  0  0  0  0  0  0
  -11.3585  -41.8075  -14.8020 C   0  0  0  0  0  0  0  0  0  0  0  0
  2  1  1  1
  2  3  1  0
  3  4  2  0
  3  5  1  0
  5  6  1  0
  6  7  1  1
  7  8  1  0
  8  9  1  0
  9 10  2  0
 10 11  1  0
 11 12  1  0
 12 13  1  0
 13 14  1  0
 14 15  1  0
 15 16  1  0
 16 17  1  0
 17 18  2  0
 17 19  1  0
 19 20  1  0
 10 21  1  0
 21 22  2  0
 22 23  1  0
  6 24  1  0
 24 25  1  1
 24 26  1  0
 26 27  1  0
 27 28  1  0
 28 29  1  0
 29 30  2  0
 30 31  1  0
 31 32  2  0
 32 33  1  0
 33 34  2  0
 31 35  1  0
 35 36  1  0
 36 37  1  0
 19  2  1  0
 23  8  2  0
 34 29  1  0
 37 35  1  0
M  END
$$$$
