
     RDKit          3D

 37 40  0  0  0  0  0  0  0  0999 V2000
  -17.2183  -42.2123   -5.5974 C   0  0  0  0  0  0  0  0  0  0  0  0
  -18.3852  -42.3221   -6.5348 C   0  0  1  0  0  0  0  0  0  0  0  0
  -18.3117  -41.4711   -7.7419 C   0  0  0  0  0  0  0  0  0  0  0  0
  -19.1640  -41.8611   -8.6421 O   0  0  0  0  0  0  0  0  0  0  0  0
  -17.5377  -40.3876   -8.0755 N   0  0  0  0  0  0  0  0  0  0  0  0
  -17.4721  -39.0222   -7.6162 C   0  0  1  0  0  0  0  0  0  0  0  0
  -18.3652  -38.6424   -6.4994 C   0  0  0  0  0  0  0  0  0  0  0  0
  -19.8220  -38.8284   -6.7450 C   0  0  0  0  0  0  0  0  0  0  0  0
  -20.7766  -39.5884   -6.1272 C   0  0  0  0  0  0  0  0  0  0  0  0
  -22.0593  -39.5309   -6.6119 C   0  0  0  0  0  0  0  0  0  0  0  0
  -23.3335  -40.1865   -6.2210 C   0  0  0  0  0  0  0  0  0  0  0  0
  -23.7401  -41.0604   -7.4321 C   0  0  0  0  0  0  0  0  0  0  0  0
  -22.5741  -41.8279   -7.9890 C   0  0  0  0  0  0  0  0  0  0  0  0
  -22.8524  -43.2958   -8.0469 C   0  0  0  0  0  0  0  0  0  0  0  0
  -21.6110  -44.1596   -8.1049 C   0  0  0  0  0  0  0  0  0  0  0  0
  -20.9141  -44.1166   -6.7662 C   0  0  0  0  0  0  0  0  0  0  0  0
  -19.5060  -44.5805   -6.8680 C   0  0  0  0  0  0  0  0  0  0  0  0
  -19.3423  -45.8407   -6.9095 O   0  0  0  0  0  0  0  0  0  0  0  0
  -18.3825  -43.7535   -6.9201 N   0  0  0  0  0  0  0  0  0  0  0  0
  -17.1022  -44.2643   -7.3688 C   0  0  0  0  0  0  0  0  0  0  0  0
  -22.3596  -38.6957   -7.7267 C   0  0  0  0  0  0  0  0  0  0  0  0
  -21.4363  -37.9251   -8.3676 C   0  0  0  0  0  0  0  0  0  0  0  0
  -20.1775  -38.0104   -7.8567 C   0  0  0  0  0  0  0  0  0  0  0  0
  -16.0153  -38.7744   -7.2711 C   0  0  2  0  0  0  0  0  0  0  0  0
  -15.8024  -37.6738   -6.4750 O   0  0  0  0  0  0  0  0  0  0  0  0
  -15.2234  -38.7248   -8.5556 C   0  0  0  0  0  0  0  0  0  0  0  0
  -14.6053  -39.9680   -8.9211 N   0  0  0  0  0  0  0  0  0  0  0  0
  -13.1872  -39.8835   -8.8182 C   0  0  0  0  0  0  0  0  0  0  0  0
  -12.6356  -40.0348  -10.2138 C   0  0  0  0  0  0  0  0  0  0  0  0
  -13.4910  -40.1315  -11.2880 C   0  0  0  0  0  0  0  0  0  0  0  0
  -13.0314  -40.2679  -12.5856 C   0  0  0  0  0  0  0  0  0  0  0  0
  -11.6566  -40.3001  -12.7299 C   0  0  0  0  0  0  0  0  0  0  0  0
  -10.8140  -40.2057  -11.6793 N   0  0  0  0  0  0  0  0  0  0  0  0
  -11.2776  -40.0726  -10.4135 C   0  0  0  0  0  0  0  0  0  0  0  0
  -13.9705  -40.3807  -13.7337 C   0  0  0  0  0  0  0  0  0  0  0  0
  -13.3899  -40.7287  -15.1078 C   0  0  0  0  0  0  0  0  0  0  0  0
  -13.8506  -39.3394  -14.8159 C   0  0  0  0  0  0  0  0  0  0  0  0
  2  1  1  1
  2  3  1  0
  3  4  2  0
  3  5  1  0
  5  6  1  0
  6  7  1  1
  7  8  1  0
  8  9  1  0
  9 10  2  0
 10 11  1  0
 11 12  1  0
 12 13  1  0
 13 14  1  0
 14 15  1  0
 15 16  1  0
 16 17  1  0
 17 18  2  0
 17 19  1  0
 19 20  1  0
 10 21  1  0
 21 22  2  0
 22 23  1  0
  6 24  1  0
 24 25  1  6
 24 26  1  0
 26 27  1  0
 27 28  1  0
 28 29  1  0
 29 30  2  0
 30 31  1  0
 31 32  2  0
 32 33  1  0
 33 34  2  0
 31 35  1  0
 35 36  1  0
 36 37  1  0
 19  2  1  0
 23  8  2  0
 34 29  1  0
 37 35  1  0
M  END
$$$$
