
     RDKit          3D

 37 40  0  0  0  0  0  0  0  0999 V2000
  -16.7161  -42.2190   -6.1083 C   0  0  0  0  0  0  0  0  0  0  0  0
  -17.9179  -42.1929   -7.0070 C   0  0  1  0  0  0  0  0  0  0  0  0
  -17.8702  -41.1999   -8.1018 C   0  0  0  0  0  0  0  0  0  0  0  0
  -18.7622  -41.4616   -9.0100 O   0  0  0  0  0  0  0  0  0  0  0  0
  -17.0865  -40.0960   -8.3283 N   0  0  0  0  0  0  0  0  0  0  0  0
  -16.9764  -38.7993   -7.7068 C   0  0  1  0  0  0  0  0  0  0  0  0
  -17.8208  -38.5468   -6.5184 C   0  0  0  0  0  0  0  0  0  0  0  0
  -19.2890  -38.6775   -6.7294 C   0  0  0  0  0  0  0  0  0  0  0  0
  -20.2363  -39.4930   -6.1741 C   0  0  0  0  0  0  0  0  0  0  0  0
  -21.5341  -39.3553   -6.5987 C   0  0  0  0  0  0  0  0  0  0  0  0
  -22.8067  -40.0339   -6.2434 C   0  0  0  0  0  0  0  0  0  0  0  0
  -23.2744  -40.7441   -7.5367 C   0  0  0  0  0  0  0  0  0  0  0  0
  -22.1452  -41.4551   -8.2282 C   0  0  0  0  0  0  0  0  0  0  0  0
  -22.4556  -42.8998   -8.4562 C   0  0  0  0  0  0  0  0  0  0  0  0
  -21.2352  -43.7695   -8.6677 C   0  0  0  0  0  0  0  0  0  0  0  0
  -20.4899  -43.9041   -7.3614 C   0  0  0  0  0  0  0  0  0  0  0  0
  -19.0962  -44.3743   -7.5734 C   0  0  0  0  0  0  0  0  0  0  0  0
  -18.9601  -45.6220   -7.7764 O   0  0  0  0  0  0  0  0  0  0  0  0
  -17.9585  -43.5652   -7.5659 N   0  0  0  0  0  0  0  0  0  0  0  0
  -16.7059  -44.0368   -8.1227 C   0  0  0  0  0  0  0  0  0  0  0  0
  -21.8570  -38.3835   -7.5896 C   0  0  0  0  0  0  0  0  0  0  0  0
  -20.9415  -37.5542   -8.1652 C   0  0  0  0  0  0  0  0  0  0  0  0
  -19.6672  -37.7224   -7.7173 C   0  0  0  0  0  0  0  0  0  0  0  0
  -15.5034  -38.6197   -7.3896 C   0  0  2  0  0  0  0  0  0  0  0  0
  -15.2501  -37.7530   -6.3525 O   0  0  0  0  0  0  0  0  0  0  0  0
  -14.7865  -38.2309   -8.6603 C   0  0  0  0  0  0  0  0  0  0  0  0
  -13.4396  -38.7190   -8.7559 N   0  0  0  0  0  0  0  0  0  0  0  0
  -12.6616  -37.9047   -9.6278 C   0  0  0  0  0  0  0  0  0  0  0  0
  -13.5674  -37.4788  -10.7560 C   0  0  0  0  0  0  0  0  0  0  0  0
  -13.3820  -37.9891  -12.0209 C   0  0  0  0  0  0  0  0  0  0  0  0
  -14.1894  -37.6307  -13.0855 C   0  0  0  0  0  0  0  0  0  0  0  0
  -15.1940  -36.7267  -12.7927 C   0  0  0  0  0  0  0  0  0  0  0  0
  -15.3794  -36.2236  -11.5538 N   0  0  0  0  0  0  0  0  0  0  0  0
  -14.5811  -36.5831  -10.5201 C   0  0  0  0  0  0  0  0  0  0  0  0
  -13.9685  -38.1849  -14.4482 C   0  0  0  0  0  0  0  0  0  0  0  0
  -13.4156  -37.2474  -15.5260 C   0  0  0  0  0  0  0  0  0  0  0  0
  -14.8508  -37.6563  -15.5491 C   0  0  0  0  0  0  0  0  0  0  0  0
  2  1  1  1
  2  3  1  0
  3  4  2  0
  3  5  1  0
  5  6  1  0
  6  7  1  1
  7  8  1  0
  8  9  1  0
  9 10  2  0
 10 11  1  0
 11 12  1  0
 12 13  1  0
 13 14  1  0
 14 15  1  0
 15 16  1  0
 16 17  1  0
 17 18  2  0
 17 19  1  0
 19 20  1  0
 10 21  1  0
 21 22  2  0
 22 23  1  0
  6 24  1  0
 24 25  1  1
 24 26  1  0
 26 27  1  0
 27 28  1  0
 28 29  1  0
 29 30  2  0
 30 31  1  0
 31 32  2  0
 32 33  1  0
 33 34  2  0
 31 35  1  0
 35 36  1  0
 36 37  1  0
 19  2  1  0
 23  8  2  0
 34 29  1  0
 37 35  1  0
M  END
$$$$
