
     RDKit          3D

 37 40  0  0  0  0  0  0  0  0999 V2000
  -16.9844  -42.5489   -5.7789 C   0  0  0  0  0  0  0  0  0  0  0  0
  -18.3048  -42.4404   -6.4840 C   0  0  1  0  0  0  0  0  0  0  0  0
  -18.3072  -41.6003   -7.7010 C   0  0  0  0  0  0  0  0  0  0  0  0
  -19.3655  -41.8233   -8.4215 O   0  0  0  0  0  0  0  0  0  0  0  0
  -17.4305  -40.6654   -8.1927 N   0  0  0  0  0  0  0  0  0  0  0  0
  -17.0438  -39.3386   -7.7807 C   0  0  1  0  0  0  0  0  0  0  0  0
  -17.6357  -38.8221   -6.5269 C   0  0  0  0  0  0  0  0  0  0  0  0
  -19.1224  -38.7463   -6.4973 C   0  0  0  0  0  0  0  0  0  0  0  0
  -20.0649  -39.3348   -5.6998 C   0  0  0  0  0  0  0  0  0  0  0  0
  -21.3847  -39.0469   -5.9420 C   0  0  0  0  0  0  0  0  0  0  0  0
  -22.6599  -39.4735   -5.3109 C   0  0  0  0  0  0  0  0  0  0  0  0
  -23.4289  -40.2471   -6.4090 C   0  0  0  0  0  0  0  0  0  0  0  0
  -22.5379  -41.2003   -7.1548 C   0  0  0  0  0  0  0  0  0  0  0  0
  -23.0743  -42.5957   -7.1311 C   0  0  0  0  0  0  0  0  0  0  0  0
  -22.0353  -43.6632   -7.3985 C   0  0  0  0  0  0  0  0  0  0  0  0
  -21.1073  -43.7601   -6.2114 C   0  0  0  0  0  0  0  0  0  0  0  0
  -19.8451  -44.4626   -6.5605 C   0  0  0  0  0  0  0  0  0  0  0  0
  -19.9147  -45.7314   -6.6060 O   0  0  0  0  0  0  0  0  0  0  0  0
  -18.6234  -43.8450   -6.8345 N   0  0  0  0  0  0  0  0  0  0  0  0
  -17.5570  -44.5669   -7.5000 C   0  0  0  0  0  0  0  0  0  0  0  0
  -21.7345  -38.1579   -6.9993 C   0  0  0  0  0  0  0  0  0  0  0  0
  -20.8247  -37.5533   -7.8141 C   0  0  0  0  0  0  0  0  0  0  0  0
  -19.5279  -37.8647   -7.5412 C   0  0  0  0  0  0  0  0  0  0  0  0
  -15.5280  -39.3548   -7.7137 C   0  0  2  0  0  0  0  0  0  0  0  0
  -14.9962  -38.5352   -6.7462 O   0  0  0  0  0  0  0  0  0  0  0  0
  -14.9871  -39.0549   -9.0911 C   0  0  0  0  0  0  0  0  0  0  0  0
  -14.4500  -40.1945   -9.7798 N   0  0  0  0  0  0  0  0  0  0  0  0
  -13.5834  -39.7917  -10.8359 C   0  0  0  0  0  0  0  0  0  0  0  0
  -13.9795  -38.3875  -11.2179 C   0  0  0  0  0  0  0  0  0  0  0  0
  -15.1940  -38.1523  -11.8217 C   0  0  0  0  0  0  0  0  0  0  0  0
  -15.6014  -36.8817  -12.1866 C   0  0  0  0  0  0  0  0  0  0  0  0
  -14.7072  -35.8656  -11.9037 C   0  0  0  0  0  0  0  0  0  0  0  0
  -13.5151  -36.0916  -11.3118 N   0  0  0  0  0  0  0  0  0  0  0  0
  -13.1284  -37.3412  -10.9597 C   0  0  0  0  0  0  0  0  0  0  0  0
  -16.9135  -36.6472  -12.8472 C   0  0  0  0  0  0  0  0  0  0  0  0
  -17.6863  -35.3759  -12.4829 C   0  0  0  0  0  0  0  0  0  0  0  0
  -18.1368  -36.7029  -11.9695 C   0  0  0  0  0  0  0  0  0  0  0  0
  2  1  1  6
  2  3  1  0
  3  4  2  0
  3  5  1  0
  5  6  1  0
  6  7  1  1
  7  8  1  0
  8  9  1  0
  9 10  2  0
 10 11  1  0
 11 12  1  0
 12 13  1  0
 13 14  1  0
 14 15  1  0
 15 16  1  0
 16 17  1  0
 17 18  2  0
 17 19  1  0
 19 20  1  0
 10 21  1  0
 21 22  2  0
 22 23  1  0
  6 24  1  0
 24 25  1  1
 24 26  1  0
 26 27  1  0
 27 28  1  0
 28 29  1  0
 29 30  2  0
 30 31  1  0
 31 32  2  0
 32 33  1  0
 33 34  2  0
 31 35  1  0
 35 36  1  0
 36 37  1  0
 19  2  1  0
 23  8  2  0
 34 29  1  0
 37 35  1  0
M  END
$$$$
