
     RDKit          3D

 37 40  0  0  0  0  0  0  0  0999 V2000
  -17.1223  -42.3423   -5.9892 C   0  0  0  0  0  0  0  0  0  0  0  0
  -18.4058  -42.5416   -6.7410 C   0  0  1  0  0  0  0  0  0  0  0  0
  -18.5394  -41.7575   -7.9877 C   0  0  0  0  0  0  0  0  0  0  0  0
  -19.4954  -42.2243   -8.7340 O   0  0  0  0  0  0  0  0  0  0  0  0
  -17.8645  -40.6702   -8.4843 N   0  0  0  0  0  0  0  0  0  0  0  0
  -17.7882  -39.2798   -8.1092 C   0  0  1  0  0  0  0  0  0  0  0  0
  -18.5269  -38.8669   -6.8956 C   0  0  0  0  0  0  0  0  0  0  0  0
  -19.9953  -39.1127   -6.9180 C   0  0  0  0  0  0  0  0  0  0  0  0
  -20.8210  -39.8672   -6.1307 C   0  0  0  0  0  0  0  0  0  0  0  0
  -22.1610  -39.8778   -6.4269 C   0  0  0  0  0  0  0  0  0  0  0  0
  -23.3393  -40.5509   -5.8229 C   0  0  0  0  0  0  0  0  0  0  0  0
  -23.8798  -41.5037   -6.9165 C   0  0  0  0  0  0  0  0  0  0  0  0
  -22.7758  -42.2636   -7.5967 C   0  0  0  0  0  0  0  0  0  0  0  0
  -23.0011  -43.7405   -7.5391 C   0  0  0  0  0  0  0  0  0  0  0  0
  -21.7475  -44.5661   -7.7323 C   0  0  0  0  0  0  0  0  0  0  0  0
  -20.8688  -44.4261   -6.5125 C   0  0  0  0  0  0  0  0  0  0  0  0
  -19.4724  -44.8497   -6.7934 C   0  0  0  0  0  0  0  0  0  0  0  0
  -19.2664  -46.1044   -6.7942 O   0  0  0  0  0  0  0  0  0  0  0  0
  -18.4015  -43.9914   -7.0496 N   0  0  0  0  0  0  0  0  0  0  0  0
  -17.1792  -44.4854   -7.6524 C   0  0  0  0  0  0  0  0  0  0  0  0
  -22.6504  -39.1163   -7.5274 C   0  0  0  0  0  0  0  0  0  0  0  0
  -21.8594  -38.3537   -8.3335 C   0  0  0  0  0  0  0  0  0  0  0  0
  -20.5381  -38.3700   -8.0066 C   0  0  0  0  0  0  0  0  0  0  0  0
  -16.3080  -38.9668   -7.9916 C   0  0  2  0  0  0  0  0  0  0  0  0
  -16.0272  -37.6401   -7.7643 O   0  0  0  0  0  0  0  0  0  0  0  0
  -15.6082  -39.5077   -9.2153 C   0  0  0  0  0  0  0  0  0  0  0  0
  -15.7442  -38.6902  -10.3877 N   0  0  0  0  0  0  0  0  0  0  0  0
  -14.5472  -37.9627  -10.6452 C   0  0  0  0  0  0  0  0  0  0  0  0
  -13.4777  -38.9761  -10.9673 C   0  0  0  0  0  0  0  0  0  0  0  0
  -13.4980  -39.6429  -12.1714 C   0  0  0  0  0  0  0  0  0  0  0  0
  -12.5369  -40.5778  -12.5120 C   0  0  0  0  0  0  0  0  0  0  0  0
  -11.5559  -40.7962  -11.5622 C   0  0  0  0  0  0  0  0  0  0  0  0
  -11.5322  -40.1447  -10.3800 N   0  0  0  0  0  0  0  0  0  0  0  0
  -12.4798  -39.2315  -10.0591 C   0  0  0  0  0  0  0  0  0  0  0  0
  -12.5799  -41.2961  -13.8139 C   0  0  0  0  0  0  0  0  0  0  0  0
  -11.4136  -42.2258  -14.1625 C   0  0  0  0  0  0  0  0  0  0  0  0
  -11.5506  -40.9039  -14.8418 C   0  0  0  0  0  0  0  0  0  0  0  0
  2  1  1  6
  2  3  1  0
  3  4  2  0
  3  5  1  0
  5  6  1  0
  6  7  1  1
  7  8  1  0
  8  9  1  0
  9 10  2  0
 10 11  1  0
 11 12  1  0
 12 13  1  0
 13 14  1  0
 14 15  1  0
 15 16  1  0
 16 17  1  0
 17 18  2  0
 17 19  1  0
 19 20  1  0
 10 21  1  0
 21 22  2  0
 22 23  1  0
  6 24  1  0
 24 25  1  6
 24 26  1  0
 26 27  1  0
 27 28  1  0
 28 29  1  0
 29 30  2  0
 30 31  1  0
 31 32  2  0
 32 33  1  0
 33 34  2  0
 31 35  1  0
 35 36  1  0
 36 37  1  0
 19  2  1  0
 23  8  2  0
 34 29  1  0
 37 35  1  0
M  END
$$$$
