
     RDKit          3D

 37 40  0  0  0  0  0  0  0  0999 V2000
  -17.1804  -41.8460   -5.8393 C   0  0  0  0  0  0  0  0  0  0  0  0
  -18.4573  -42.1027   -6.5850 C   0  0  1  0  0  0  0  0  0  0  0  0
  -18.5815  -41.4128   -7.8870 C   0  0  0  0  0  0  0  0  0  0  0  0
  -19.5306  -41.9352   -8.6048 O   0  0  0  0  0  0  0  0  0  0  0  0
  -17.9041  -40.3636   -8.4568 N   0  0  0  0  0  0  0  0  0  0  0  0
  -17.8329  -38.9492   -8.1845 C   0  0  1  0  0  0  0  0  0  0  0  0
  -18.5824  -38.4496   -7.0107 C   0  0  0  0  0  0  0  0  0  0  0  0
  -20.0502  -38.6994   -7.0270 C   0  0  0  0  0  0  0  0  0  0  0  0
  -20.8814  -39.3956   -6.1932 C   0  0  0  0  0  0  0  0  0  0  0  0
  -22.2188  -39.4307   -6.4988 C   0  0  0  0  0  0  0  0  0  0  0  0
  -23.4012  -40.0599   -5.8566 C   0  0  0  0  0  0  0  0  0  0  0  0
  -23.9312  -41.0918   -6.8815 C   0  0  0  0  0  0  0  0  0  0  0  0
  -22.8204  -41.8973   -7.4948 C   0  0  0  0  0  0  0  0  0  0  0  0
  -23.0440  -43.3665   -7.3305 C   0  0  0  0  0  0  0  0  0  0  0  0
  -21.7877  -44.2015   -7.4520 C   0  0  0  0  0  0  0  0  0  0  0  0
  -20.9194  -43.9703   -6.2386 C   0  0  0  0  0  0  0  0  0  0  0  0
  -19.5201  -44.4106   -6.4761 C   0  0  0  0  0  0  0  0  0  0  0  0
  -19.3122  -45.6615   -6.3828 O   0  0  0  0  0  0  0  0  0  0  0  0
  -18.4483  -43.5713   -6.7859 N   0  0  0  0  0  0  0  0  0  0  0  0
  -17.2203  -44.1058   -7.3406 C   0  0  0  0  0  0  0  0  0  0  0  0
  -22.7001  -38.7533   -7.6564 C   0  0  0  0  0  0  0  0  0  0  0  0
  -21.9035  -38.0504   -8.5099 C   0  0  0  0  0  0  0  0  0  0  0  0
  -20.5849  -38.0400   -8.1718 C   0  0  0  0  0  0  0  0  0  0  0  0
  -16.3543  -38.6253   -8.0781 C   0  0  2  0  0  0  0  0  0  0  0  0
  -16.0805  -37.2929   -7.8770 O   0  0  0  0  0  0  0  0  0  0  0  0
  -15.6554  -39.1853   -9.2936 C   0  0  0  0  0  0  0  0  0  0  0  0
  -14.6351  -38.3340   -9.8375 N   0  0  0  0  0  0  0  0  0  0  0  0
  -13.3765  -38.9999   -9.8679 C   0  0  0  0  0  0  0  0  0  0  0  0
  -13.5603  -40.2492  -10.6927 C   0  0  0  0  0  0  0  0  0  0  0  0
  -13.1385  -41.4661  -10.2067 C   0  0  0  0  0  0  0  0  0  0  0  0
  -13.2890  -42.6385  -10.9253 C   0  0  0  0  0  0  0  0  0  0  0  0
  -13.8913  -42.5050  -12.1628 C   0  0  0  0  0  0  0  0  0  0  0  0
  -14.3063  -41.3138  -12.6435 N   0  0  0  0  0  0  0  0  0  0  0  0
  -14.1527  -40.1731  -11.9292 C   0  0  0  0  0  0  0  0  0  0  0  0
  -12.8184  -43.9436  -10.3885 C   0  0  0  0  0  0  0  0  0  0  0  0
  -12.0102  -43.9380   -9.0873 C   0  0  0  0  0  0  0  0  0  0  0  0
  -11.3312  -44.1850  -10.3933 C   0  0  0  0  0  0  0  0  0  0  0  0
  2  1  1  6
  2  3  1  0
  3  4  2  0
  3  5  1  0
  5  6  1  0
  6  7  1  1
  7  8  1  0
  8  9  1  0
  9 10  2  0
 10 11  1  0
 11 12  1  0
 12 13  1  0
 13 14  1  0
 14 15  1  0
 15 16  1  0
 16 17  1  0
 17 18  2  0
 17 19  1  0
 19 20  1  0
 10 21  1  0
 21 22  2  0
 22 23  1  0
  6 24  1  0
 24 25  1  6
 24 26  1  0
 26 27  1  0
 27 28  1  0
 28 29  1  0
 29 30  2  0
 30 31  1  0
 31 32  2  0
 32 33  1  0
 33 34  2  0
 31 35  1  0
 35 36  1  0
 36 37  1  0
 19  2  1  0
 23  8  2  0
 34 29  1  0
 37 35  1  0
M  END
$$$$
