
     RDKit          3D

 37 40  0  0  0  0  0  0  0  0999 V2000
  -17.6148  -42.1309   -5.2135 C   0  0  0  0  0  0  0  0  0  0  0  0
  -18.7701  -42.2331   -6.1660 C   0  0  1  0  0  0  0  0  0  0  0  0
  -18.5644  -41.5949   -7.4840 C   0  0  0  0  0  0  0  0  0  0  0  0
  -19.4457  -42.0062   -8.3459 O   0  0  0  0  0  0  0  0  0  0  0  0
  -17.6481  -40.6842   -7.9482 N   0  0  0  0  0  0  0  0  0  0  0  0
  -17.4098  -39.2841   -7.6976 C   0  0  1  0  0  0  0  0  0  0  0  0
  -18.2633  -38.6253   -6.6844 C   0  0  0  0  0  0  0  0  0  0  0  0
  -19.7275  -38.6583   -6.9526 C   0  0  0  0  0  0  0  0  0  0  0  0
  -20.7846  -39.1851   -6.2630 C   0  0  0  0  0  0  0  0  0  0  0  0
  -22.0401  -39.0388   -6.7976 C   0  0  0  0  0  0  0  0  0  0  0  0
  -23.3963  -39.4572   -6.3596 C   0  0  0  0  0  0  0  0  0  0  0  0
  -23.8949  -40.4478   -7.4394 C   0  0  0  0  0  0  0  0  0  0  0  0
  -22.8318  -41.4352   -7.8312 C   0  0  0  0  0  0  0  0  0  0  0  0
  -23.3011  -42.8464   -7.6776 C   0  0  0  0  0  0  0  0  0  0  0  0
  -22.1844  -43.8610   -7.5592 C   0  0  0  0  0  0  0  0  0  0  0  0
  -21.5103  -43.7021   -6.2174 C   0  0  0  0  0  0  0  0  0  0  0  0
  -20.1746  -44.3530   -6.1964 C   0  0  0  0  0  0  0  0  0  0  0  0
  -20.1786  -45.6151   -6.0416 O   0  0  0  0  0  0  0  0  0  0  0  0
  -18.9507  -43.6951   -6.3311 N   0  0  0  0  0  0  0  0  0  0  0  0
  -17.7421  -44.4291   -6.6504 C   0  0  0  0  0  0  0  0  0  0  0  0
  -22.2085  -38.3538   -8.0357 C   0  0  0  0  0  0  0  0  0  0  0  0
  -21.1806  -37.8162   -8.7509 C   0  0  0  0  0  0  0  0  0  0  0  0
  -19.9529  -37.9826   -8.1872 C   0  0  0  0  0  0  0  0  0  0  0  0
  -15.9391  -39.1753   -7.3404 C   0  0  2  0  0  0  0  0  0  0  0  0
  -15.3882  -37.9393   -7.5841 O   0  0  0  0  0  0  0  0  0  0  0  0
  -15.1961  -40.2904   -8.0365 C   0  0  0  0  0  0  0  0  0  0  0  0
  -14.0691  -39.8587   -8.8141 N   0  0  0  0  0  0  0  0  0  0  0  0
  -13.2552  -40.9647   -9.1922 C   0  0  0  0  0  0  0  0  0  0  0  0
  -13.9684  -41.6704  -10.3183 C   0  0  0  0  0  0  0  0  0  0  0  0
  -14.1203  -43.0382  -10.2901 C   0  0  0  0  0  0  0  0  0  0  0  0
  -14.7698  -43.7282  -11.2980 C   0  0  0  0  0  0  0  0  0  0  0  0
  -15.2554  -42.9514  -12.3338 C   0  0  0  0  0  0  0  0  0  0  0  0
  -15.1086  -41.6098  -12.3656 N   0  0  0  0  0  0  0  0  0  0  0  0
  -14.4702  -40.9466  -11.3718 C   0  0  0  0  0  0  0  0  0  0  0  0
  -14.9163  -45.2079  -11.2559 C   0  0  0  0  0  0  0  0  0  0  0  0
  -16.2270  -45.7868  -10.7146 C   0  0  0  0  0  0  0  0  0  0  0  0
  -14.9825  -45.8466   -9.8930 C   0  0  0  0  0  0  0  0  0  0  0  0
  2  1  1  1
  2  3  1  0
  3  4  2  0
  3  5  1  0
  5  6  1  0
  6  7  1  1
  7  8  1  0
  8  9  1  0
  9 10  2  0
 10 11  1  0
 11 12  1  0
 12 13  1  0
 13 14  1  0
 14 15  1  0
 15 16  1  0
 16 17  1  0
 17 18  2  0
 17 19  1  0
 19 20  1  0
 10 21  1  0
 21 22  2  0
 22 23  1  0
  6 24  1  0
 24 25  1  6
 24 26  1  0
 26 27  1  0
 27 28  1  0
 28 29  1  0
 29 30  2  0
 30 31  1  0
 31 32  2  0
 32 33  1  0
 33 34  2  0
 31 35  1  0
 35 36  1  0
 36 37  1  0
 19  2  1  0
 23  8  2  0
 34 29  1  0
 37 35  1  0
M  END
$$$$
