
     RDKit          3D

 37 40  0  0  0  0  0  0  0  0999 V2000
  -17.4520  -42.7372   -6.4897 C   0  0  0  0  0  0  0  0  0  0  0  0
  -18.8120  -42.5641   -7.1005 C   0  0  1  0  0  0  0  0  0  0  0  0
  -18.9028  -41.5462   -8.1693 C   0  0  0  0  0  0  0  0  0  0  0  0
  -19.9939  -41.6894   -8.8606 O   0  0  0  0  0  0  0  0  0  0  0  0
  -18.0779  -40.5182   -8.5530 N   0  0  0  0  0  0  0  0  0  0  0  0
  -17.7012  -39.2592   -7.9589 C   0  0  1  0  0  0  0  0  0  0  0  0
  -18.2346  -38.9628   -6.6110 C   0  0  0  0  0  0  0  0  0  0  0  0
  -19.7188  -38.9413   -6.4938 C   0  0  0  0  0  0  0  0  0  0  0  0
  -20.6008  -39.6768   -5.7508 C   0  0  0  0  0  0  0  0  0  0  0  0
  -21.9387  -39.3982   -5.8769 C   0  0  0  0  0  0  0  0  0  0  0  0
  -23.1658  -39.9590   -5.2558 C   0  0  0  0  0  0  0  0  0  0  0  0
  -23.9759  -40.5779   -6.4205 C   0  0  0  0  0  0  0  0  0  0  0  0
  -23.1049  -41.3744   -7.3510 C   0  0  0  0  0  0  0  0  0  0  0  0
  -23.6050  -42.7734   -7.5184 C   0  0  0  0  0  0  0  0  0  0  0  0
  -22.5568  -43.7520   -8.0024 C   0  0  0  0  0  0  0  0  0  0  0  0
  -21.5619  -44.0011   -6.8943 C   0  0  0  0  0  0  0  0  0  0  0  0
  -20.3045  -44.5994   -7.4132 C   0  0  0  0  0  0  0  0  0  0  0  0
  -20.3455  -45.8474   -7.6530 O   0  0  0  0  0  0  0  0  0  0  0  0
  -19.1154  -43.9071   -7.6495 N   0  0  0  0  0  0  0  0  0  0  0  0
  -18.0704  -44.4819   -8.4737 C   0  0  0  0  0  0  0  0  0  0  0  0
  -22.3684  -38.3682   -6.7628 C   0  0  0  0  0  0  0  0  0  0  0  0
  -21.5205  -37.6152   -7.5186 C   0  0  0  0  0  0  0  0  0  0  0  0
  -20.2033  -37.9224   -7.3647 C   0  0  0  0  0  0  0  0  0  0  0  0
  -16.1841  -39.2359   -7.9731 C   0  0  2  0  0  0  0  0  0  0  0  0
  -15.6162  -38.7069   -6.8381 O   0  0  0  0  0  0  0  0  0  0  0  0
  -15.7303  -38.5349   -9.2311 C   0  0  0  0  0  0  0  0  0  0  0  0
  -15.8952  -39.3038  -10.4323 N   0  0  0  0  0  0  0  0  0  0  0  0
  -15.4145  -40.6331  -10.2583 C   0  0  0  0  0  0  0  0  0  0  0  0
  -13.9094  -40.5690  -10.3299 C   0  0  0  0  0  0  0  0  0  0  0  0
  -13.1443  -41.3909   -9.5336 C   0  0  0  0  0  0  0  0  0  0  0  0
  -11.7615  -41.3700   -9.5672 C   0  0  0  0  0  0  0  0  0  0  0  0
  -11.2012  -40.4690  -10.4540 C   0  0  0  0  0  0  0  0  0  0  0  0
  -11.9476  -39.6611  -11.2367 N   0  0  0  0  0  0  0  0  0  0  0  0
  -13.3011  -39.6917  -11.1936 C   0  0  0  0  0  0  0  0  0  0  0  0
  -10.9504  -42.2586   -8.6923 C   0  0  0  0  0  0  0  0  0  0  0  0
   -9.4945  -41.8679   -8.4205 C   0  0  0  0  0  0  0  0  0  0  0  0
   -9.8102  -42.9978   -9.3431 C   0  0  0  0  0  0  0  0  0  0  0  0
  2  1  1  6
  2  3  1  0
  3  4  2  0
  3  5  1  0
  5  6  1  0
  6  7  1  1
  7  8  1  0
  8  9  1  0
  9 10  2  0
 10 11  1  0
 11 12  1  0
 12 13  1  0
 13 14  1  0
 14 15  1  0
 15 16  1  0
 16 17  1  0
 17 18  2  0
 17 19  1  0
 19 20  1  0
 10 21  1  0
 21 22  2  0
 22 23  1  0
  6 24  1  0
 24 25  1  1
 24 26  1  0
 26 27  1  0
 27 28  1  0
 28 29  1  0
 29 30  2  0
 30 31  1  0
 31 32  2  0
 32 33  1  0
 33 34  2  0
 31 35  1  0
 35 36  1  0
 36 37  1  0
 19  2  1  0
 23  8  2  0
 34 29  1  0
 37 35  1  0
M  END
$$$$
