
     RDKit          3D

 37 39  0  0  0  0  0  0  0  0999 V2000
  -11.4841  -39.4474   -8.8260 C   0  0  0  0  0  0  0  0  0  0  0  0
  -12.6857  -40.1475   -8.1778 C   0  0  2  0  0  0  0  0  0  0  0  0
  -12.2710  -41.5289   -7.8218 C   0  0  0  0  0  0  0  0  0  0  0  0
  -11.8391  -42.4036   -8.9449 C   0  0  0  0  0  0  0  0  0  0  0  0
  -10.3243  -42.5372   -9.0737 C   0  0  0  0  0  0  0  0  0  0  0  0
   -9.9560  -43.7112   -9.9478 C   0  0  0  0  0  0  0  0  0  0  0  0
  -10.9879  -44.0063  -10.9923 C   0  0  0  0  0  0  0  0  0  0  0  0
  -10.9076  -43.0946  -12.1975 C   0  0  0  0  0  0  0  0  0  0  0  0
  -11.5681  -43.7265  -13.3599 C   0  0  0  0  0  0  0  0  0  0  0  0
  -12.8439  -43.3407  -13.6845 O   0  0  0  0  0  0  0  0  0  0  0  0
  -13.8362  -42.4977  -13.2400 C   0  0  0  0  0  0  0  0  0  0  0  0
  -14.4784  -42.4690  -12.0076 C   0  0  0  0  0  0  0  0  0  0  0  0
  -15.4544  -41.5298  -11.7709 C   0  0  0  0  0  0  0  0  0  0  0  0
  -15.7744  -40.6141  -12.8076 C   0  0  0  0  0  0  0  0  0  0  0  0
  -15.1710  -40.6036  -14.0362 C   0  0  0  0  0  0  0  0  0  0  0  0
  -14.2036  -41.5594  -14.2238 C   0  0  0  0  0  0  0  0  0  0  0  0
  -16.3030  -41.2513  -10.6080 C   0  0  0  0  0  0  0  0  0  0  0  0
  -17.5989  -41.0552  -10.8519 O   0  0  0  0  0  0  0  0  0  0  0  0
  -16.0419  -41.1379   -9.2206 N   0  0  0  0  0  0  0  0  0  0  0  0
  -15.1907  -40.2056   -8.5291 C   0  0  1  0  0  0  0  0  0  0  0  0
  -13.8356  -40.0112   -9.1152 C   0  0  0  0  0  0  0  0  0  0  0  0
  -15.8693  -38.8767   -8.2792 C   0  0  2  0  0  0  0  0  0  0  0  0
  -15.6560  -38.4297   -6.9775 O   0  0  0  0  0  0  0  0  0  0  0  0
  -17.3327  -38.9426   -8.5379 C   0  0  0  0  0  0  0  0  0  0  0  0
  -18.0272  -37.7696   -8.0031 N   0  0  0  0  0  0  0  0  0  0  0  0
  -18.8891  -38.1866   -6.9061 C   0  0  0  0  0  0  0  0  0  0  0  0
  -19.9974  -38.9698   -7.5103 C   0  0  0  0  0  0  0  0  0  0  0  0
  -21.1984  -39.0280   -6.8372 C   0  0  0  0  0  0  0  0  0  0  0  0
  -22.2576  -39.7533   -7.3732 C   0  0  0  0  0  0  0  0  0  0  0  0
  -23.5713  -39.8355   -6.6711 C   0  0  0  0  0  0  0  0  0  0  0  0
  -23.6953  -41.2152   -6.0445 C   0  0  0  0  0  0  0  0  0  0  0  0
  -23.6862  -42.2386   -7.1457 C   0  0  0  0  0  0  0  0  0  0  0  0
  -22.5380  -41.3951   -5.0870 C   0  0  0  0  0  0  0  0  0  0  0  0
  -24.9724  -41.3515   -5.2671 C   0  0  0  0  0  0  0  0  0  0  0  0
  -22.0327  -40.3834   -8.5738 C   0  0  0  0  0  0  0  0  0  0  0  0
  -20.8539  -40.3207   -9.2253 N   0  0  0  0  0  0  0  0  0  0  0  0
  -19.8263  -39.6216   -8.7130 C   0  0  0  0  0  0  0  0  0  0  0  0
  2  1  1  6
  2  3  1  0
  3  4  1  0
  4  5  1  0
  5  6  1  0
  6  7  1  0
  7  8  1  0
  8  9  1  0
  9 10  1  0
 10 11  1  0
 11 12  1  0
 12 13  2  0
 13 14  1  0
 14 15  2  0
 15 16  1  0
 13 17  1  0
 17 18  2  0
 17 19  1  0
 19 20  1  0
 20 21  1  6
 20 22  1  0
 22 23  1  1
 22 24  1  0
 24 25  1  0
 25 26  1  0
 26 27  1  0
 27 28  2  0
 28 29  1  0
 29 30  1  0
 30 31  1  0
 31 32  1  0
 31 33  1  0
 31 34  1  0
 29 35  2  0
 35 36  1  0
 36 37  2  0
 16 11  2  0
 21  2  1  0
 37 27  1  0
M  END
$$$$
