
     RDKit          3D

 37 39  0  0  0  0  0  0  0  0999 V2000
  -19.8463  -37.9039   -5.5699 C   0  0  0  0  0  0  0  0  0  0  0  0
  -19.3673  -38.0972   -7.0147 C   0  0  2  0  0  0  0  0  0  0  0  0
  -20.5392  -37.9220   -7.9109 C   0  0  0  0  0  0  0  0  0  0  0  0
  -21.6699  -38.8696   -7.7197 C   0  0  0  0  0  0  0  0  0  0  0  0
  -22.8384  -38.2830   -6.9327 C   0  0  0  0  0  0  0  0  0  0  0  0
  -24.0821  -39.1210   -7.1032 C   0  0  0  0  0  0  0  0  0  0  0  0
  -23.7810  -40.5685   -7.3423 C   0  0  0  0  0  0  0  0  0  0  0  0
  -23.4482  -41.3343   -6.0803 C   0  0  0  0  0  0  0  0  0  0  0  0
  -23.6614  -42.7823   -6.2911 C   0  0  0  0  0  0  0  0  0  0  0  0
  -22.5752  -43.5783   -6.5530 O   0  0  0  0  0  0  0  0  0  0  0  0
  -21.2145  -43.4806   -6.7312 C   0  0  0  0  0  0  0  0  0  0  0  0
  -20.5015  -42.7404   -7.6670 C   0  0  0  0  0  0  0  0  0  0  0  0
  -19.1273  -42.7879   -7.6678 C   0  0  0  0  0  0  0  0  0  0  0  0
  -18.4803  -43.6026   -6.7017 C   0  0  0  0  0  0  0  0  0  0  0  0
  -19.1385  -44.3489   -5.7618 C   0  0  0  0  0  0  0  0  0  0  0  0
  -20.5084  -44.2679   -5.8013 C   0  0  0  0  0  0  0  0  0  0  0  0
  -18.1123  -42.1468   -8.5097 C   0  0  0  0  0  0  0  0  0  0  0  0
  -17.1272  -42.9288   -8.9518 O   0  0  0  0  0  0  0  0  0  0  0  0
  -17.9357  -40.8221   -8.9788 N   0  0  0  0  0  0  0  0  0  0  0  0
  -17.7416  -39.6100   -8.2272 C   0  0  1  0  0  0  0  0  0  0  0  0
  -18.6644  -39.4094   -7.0758 C   0  0  0  0  0  0  0  0  0  0  0  0
  -16.3011  -39.4121   -7.8087 C   0  0  2  0  0  0  0  0  0  0  0  0
  -16.1638  -38.3306   -6.9419 O   0  0  0  0  0  0  0  0  0  0  0  0
  -15.4044  -39.2153   -8.9790 C   0  0  0  0  0  0  0  0  0  0  0  0
  -15.0397  -40.4911   -9.5983 N   0  0  0  0  0  0  0  0  0  0  0  0
  -13.5929  -40.6476   -9.5483 C   0  0  0  0  0  0  0  0  0  0  0  0
  -13.0493  -39.9608  -10.7480 C   0  0  0  0  0  0  0  0  0  0  0  0
  -11.7411  -40.2064  -11.1044 C   0  0  0  0  0  0  0  0  0  0  0  0
  -11.1988  -39.5796  -12.2215 C   0  0  0  0  0  0  0  0  0  0  0  0
   -9.7867  -39.8246  -12.6355 C   0  0  0  0  0  0  0  0  0  0  0  0
   -9.6777  -41.2511  -13.1501 C   0  0  0  0  0  0  0  0  0  0  0  0
   -8.2690  -41.4782  -13.6234 C   0  0  0  0  0  0  0  0  0  0  0  0
  -10.0583  -42.1818  -12.0199 C   0  0  0  0  0  0  0  0  0  0  0  0
  -10.6184  -41.4944  -14.2946 C   0  0  0  0  0  0  0  0  0  0  0  0
  -12.0255  -38.7311  -12.9186 C   0  0  0  0  0  0  0  0  0  0  0  0
  -13.3046  -38.4969  -12.5623 N   0  0  0  0  0  0  0  0  0  0  0  0
  -13.8349  -39.0994  -11.4840 C   0  0  0  0  0  0  0  0  0  0  0  0
  2  1  1  1
  2  3  1  0
  3  4  1  0
  4  5  1  0
  5  6  1  0
  6  7  1  0
  7  8  1  0
  8  9  1  0
  9 10  1  0
 10 11  1  0
 11 12  1  0
 12 13  2  0
 13 14  1  0
 14 15  2  0
 15 16  1  0
 13 17  1  0
 17 18  2  0
 17 19  1  0
 19 20  1  0
 20 21  1  1
 20 22  1  0
 22 23  1  1
 22 24  1  0
 24 25  1  0
 25 26  1  0
 26 27  1  0
 27 28  2  0
 28 29  1  0
 29 30  1  0
 30 31  1  0
 31 32  1  0
 31 33  1  0
 31 34  1  0
 29 35  2  0
 35 36  1  0
 36 37  2  0
 16 11  2  0
 21  2  1  0
 37 27  1  0
M  END
$$$$
