
     RDKit          3D

 37 39  0  0  0  0  0  0  0  0999 V2000
  -15.1488  -36.0508  -10.6706 C   0  0  0  0  0  0  0  0  0  0  0  0
  -14.4533  -36.8421   -9.5551 C   0  0  2  0  0  0  0  0  0  0  0  0
  -12.9865  -36.7265   -9.7605 C   0  0  0  0  0  0  0  0  0  0  0  0
  -12.4506  -37.2597  -11.0417 C   0  0  0  0  0  0  0  0  0  0  0  0
  -12.1584  -36.1824  -12.0825 C   0  0  0  0  0  0  0  0  0  0  0  0
  -11.2725  -36.7166  -13.1816 C   0  0  0  0  0  0  0  0  0  0  0  0
  -11.4573  -38.1840  -13.4175 C   0  0  0  0  0  0  0  0  0  0  0  0
  -12.6763  -38.5145  -14.2509 C   0  0  0  0  0  0  0  0  0  0  0  0
  -12.5298  -39.8540  -14.8599 C   0  0  0  0  0  0  0  0  0  0  0  0
  -13.1668  -40.9187  -14.2744 O   0  0  0  0  0  0  0  0  0  0  0  0
  -13.9585  -41.2058  -13.1864 C   0  0  0  0  0  0  0  0  0  0  0  0
  -13.6928  -41.0253  -11.8340 C   0  0  0  0  0  0  0  0  0  0  0  0
  -14.6369  -41.3853  -10.9015 C   0  0  0  0  0  0  0  0  0  0  0  0
  -15.8622  -41.9361  -11.3606 C   0  0  0  0  0  0  0  0  0  0  0  0
  -16.1689  -42.1334  -12.6799 C   0  0  0  0  0  0  0  0  0  0  0  0
  -15.1952  -41.7581  -13.5718 C   0  0  0  0  0  0  0  0  0  0  0  0
  -14.6559  -41.3314   -9.4363 C   0  0  0  0  0  0  0  0  0  0  0  0
  -15.0921  -42.4231   -8.8076 O   0  0  0  0  0  0  0  0  0  0  0  0
  -14.2992  -40.3333   -8.4969 N   0  0  0  0  0  0  0  0  0  0  0  0
  -14.8478  -39.0145   -8.3195 C   0  0  1  0  0  0  0  0  0  0  0  0
  -15.0272  -38.2169   -9.5641 C   0  0  0  0  0  0  0  0  0  0  0  0
  -16.1143  -39.0202   -7.4917 C   0  0  2  0  0  0  0  0  0  0  0  0
  -15.8571  -39.3562   -6.1647 O   0  0  0  0  0  0  0  0  0  0  0  0
  -17.1336  -39.9536   -8.0417 C   0  0  0  0  0  0  0  0  0  0  0  0
  -18.2158  -39.2328   -8.7151 N   0  0  0  0  0  0  0  0  0  0  0  0
  -19.3421  -39.1040   -7.8013 C   0  0  0  0  0  0  0  0  0  0  0  0
  -19.9691  -40.4474   -7.7074 C   0  0  0  0  0  0  0  0  0  0  0  0
  -20.4903  -40.8414   -6.4942 C   0  0  0  0  0  0  0  0  0  0  0  0
  -21.0838  -42.0933   -6.3699 C   0  0  0  0  0  0  0  0  0  0  0  0
  -21.6590  -42.5501   -5.0714 C   0  0  0  0  0  0  0  0  0  0  0  0
  -22.9731  -41.8197   -4.8448 C   0  0  0  0  0  0  0  0  0  0  0  0
  -23.5533  -42.2820   -3.5372 C   0  0  0  0  0  0  0  0  0  0  0  0
  -22.6846  -40.3347   -4.8492 C   0  0  0  0  0  0  0  0  0  0  0  0
  -23.9573  -42.1092   -5.9409 C   0  0  0  0  0  0  0  0  0  0  0  0
  -21.1136  -42.8799   -7.4966 C   0  0  0  0  0  0  0  0  0  0  0  0
  -20.6009  -42.4859   -8.6797 N   0  0  0  0  0  0  0  0  0  0  0  0
  -20.0261  -41.2773   -8.8069 C   0  0  0  0  0  0  0  0  0  0  0  0
  2  1  1  6
  2  3  1  0
  3  4  1  0
  4  5  1  0
  5  6  1  0
  6  7  1  0
  7  8  1  0
  8  9  1  0
  9 10  1  0
 10 11  1  0
 11 12  1  0
 12 13  2  0
 13 14  1  0
 14 15  2  0
 15 16  1  0
 13 17  1  0
 17 18  2  0
 17 19  1  0
 19 20  1  0
 20 21  1  6
 20 22  1  0
 22 23  1  1
 22 24  1  0
 24 25  1  0
 25 26  1  0
 26 27  1  0
 27 28  2  0
 28 29  1  0
 29 30  1  0
 30 31  1  0
 31 32  1  0
 31 33  1  0
 31 34  1  0
 29 35  2  0
 35 36  1  0
 36 37  2  0
 16 11  2  0
 21  2  1  0
 37 27  1  0
M  END
$$$$
