
     RDKit          3D

 37 39  0  0  0  0  0  0  0  0999 V2000
  -19.6731  -39.4106   -4.6920 C   0  0  0  0  0  0  0  0  0  0  0  0
  -19.2141  -38.9904   -6.0946 C   0  0  2  0  0  0  0  0  0  0  0  0
  -20.4004  -38.4794   -6.8285 C   0  0  0  0  0  0  0  0  0  0  0  0
  -21.5209  -39.4370   -7.0297 C   0  0  0  0  0  0  0  0  0  0  0  0
  -22.6821  -39.2385   -6.0595 C   0  0  0  0  0  0  0  0  0  0  0  0
  -23.9217  -39.9496   -6.5448 C   0  0  0  0  0  0  0  0  0  0  0  0
  -23.6132  -41.1690   -7.3579 C   0  0  0  0  0  0  0  0  0  0  0  0
  -23.2560  -42.3793   -6.5227 C   0  0  0  0  0  0  0  0  0  0  0  0
  -23.4614  -43.6173   -7.3049 C   0  0  0  0  0  0  0  0  0  0  0  0
  -22.3731  -44.2226   -7.8807 O   0  0  0  0  0  0  0  0  0  0  0  0
  -21.0160  -44.0429   -8.0175 C   0  0  0  0  0  0  0  0  0  0  0  0
  -20.3225  -42.9758   -8.5763 C   0  0  0  0  0  0  0  0  0  0  0  0
  -18.9482  -43.0010   -8.6107 C   0  0  0  0  0  0  0  0  0  0  0  0
  -18.2809  -44.1309   -8.0688 C   0  0  0  0  0  0  0  0  0  0  0  0
  -18.9194  -45.2046   -7.5095 C   0  0  0  0  0  0  0  0  0  0  0  0
  -20.2902  -45.1323   -7.4981 C   0  0  0  0  0  0  0  0  0  0  0  0
  -17.9507  -42.0587   -9.1274 C   0  0  0  0  0  0  0  0  0  0  0  0
  -16.9663  -42.5788   -9.8608 O   0  0  0  0  0  0  0  0  0  0  0  0
  -17.7911  -40.6558   -9.0158 N   0  0  0  0  0  0  0  0  0  0  0  0
  -17.5951  -39.8543   -7.8364 C   0  0  1  0  0  0  0  0  0  0  0  0
  -18.5022  -40.1538   -6.6940 C   0  0  0  0  0  0  0  0  0  0  0  0
  -16.1501  -39.8260   -7.3885 C   0  0  2  0  0  0  0  0  0  0  0  0
  -15.9507  -38.9079   -6.3604 O   0  0  0  0  0  0  0  0  0  0  0  0
  -15.2266  -39.5090   -8.5107 C   0  0  0  0  0  0  0  0  0  0  0  0
  -14.8652  -40.7102   -9.2662 N   0  0  0  0  0  0  0  0  0  0  0  0
  -13.8741  -40.3584  -10.2732 C   0  0  0  0  0  0  0  0  0  0  0  0
  -14.2445  -39.0129  -10.7823 C   0  0  0  0  0  0  0  0  0  0  0  0
  -15.4227  -38.8821  -11.4848 C   0  0  0  0  0  0  0  0  0  0  0  0
  -15.8003  -37.6371  -11.9772 C   0  0  0  0  0  0  0  0  0  0  0  0
  -17.0699  -37.4607  -12.7403 C   0  0  0  0  0  0  0  0  0  0  0  0
  -17.4383  -35.9857  -12.7252 C   0  0  0  0  0  0  0  0  0  0  0  0
  -16.2359  -35.1923  -13.1551 C   0  0  0  0  0  0  0  0  0  0  0  0
  -18.6142  -35.7922  -13.6571 C   0  0  0  0  0  0  0  0  0  0  0  0
  -17.8492  -35.5373  -11.3526 C   0  0  0  0  0  0  0  0  0  0  0  0
  -14.9503  -36.5869  -11.7247 C   0  0  0  0  0  0  0  0  0  0  0  0
  -13.7992  -36.7244  -11.0362 N   0  0  0  0  0  0  0  0  0  0  0  0
  -13.4284  -37.9247  -10.5575 C   0  0  0  0  0  0  0  0  0  0  0  0
  2  1  1  1
  2  3  1  0
  3  4  1  0
  4  5  1  0
  5  6  1  0
  6  7  1  0
  7  8  1  0
  8  9  1  0
  9 10  1  0
 10 11  1  0
 11 12  1  0
 12 13  2  0
 13 14  1  0
 14 15  2  0
 15 16  1  0
 13 17  1  0
 17 18  2  0
 17 19  1  0
 19 20  1  0
 20 21  1  1
 20 22  1  0
 22 23  1  1
 22 24  1  0
 24 25  1  0
 25 26  1  0
 26 27  1  0
 27 28  2  0
 28 29  1  0
 29 30  1  0
 30 31  1  0
 31 32  1  0
 31 33  1  0
 31 34  1  0
 29 35  2  0
 35 36  1  0
 36 37  2  0
 16 11  2  0
 21  2  1  0
 37 27  1  0
M  END
$$$$
