
     RDKit          3D

 37 39  0  0  0  0  0  0  0  0999 V2000
  -19.4445  -40.0554   -5.5494 C   0  0  0  0  0  0  0  0  0  0  0  0
  -18.7044  -39.1810   -6.5702 C   0  0  2  0  0  0  0  0  0  0  0  0
  -19.6991  -38.2758   -7.2013 C   0  0  0  0  0  0  0  0  0  0  0  0
  -20.8125  -38.9257   -7.9436 C   0  0  0  0  0  0  0  0  0  0  0  0
  -22.1241  -38.9770   -7.1651 C   0  0  0  0  0  0  0  0  0  0  0  0
  -23.2865  -39.2758   -8.0803 C   0  0  0  0  0  0  0  0  0  0  0  0
  -22.8974  -40.1068   -9.2640 C   0  0  0  0  0  0  0  0  0  0  0  0
  -22.7736  -41.5826   -8.9533 C   0  0  0  0  0  0  0  0  0  0  0  0
  -22.8950  -42.3771  -10.1946 C   0  0  0  0  0  0  0  0  0  0  0  0
  -21.7526  -42.8417  -10.7955 O   0  0  0  0  0  0  0  0  0  0  0  0
  -20.3863  -42.7981  -10.6397 C   0  0  0  0  0  0  0  0  0  0  0  0
  -19.5409  -41.6954  -10.6012 C   0  0  0  0  0  0  0  0  0  0  0  0
  -18.1887  -41.8808  -10.4344 C   0  0  0  0  0  0  0  0  0  0  0  0
  -17.7006  -43.2079  -10.3078 C   0  0  0  0  0  0  0  0  0  0  0  0
  -18.4927  -44.3238  -10.3402 C   0  0  0  0  0  0  0  0  0  0  0  0
  -19.8345  -44.0870  -10.5079 C   0  0  0  0  0  0  0  0  0  0  0  0
  -17.0602  -40.9473  -10.3630 C   0  0  0  0  0  0  0  0  0  0  0  0
  -15.9848  -41.2592  -11.0867 O   0  0  0  0  0  0  0  0  0  0  0  0
  -16.8468  -39.7337   -9.6647 N   0  0  0  0  0  0  0  0  0  0  0  0
  -16.8344  -39.4915   -8.2459 C   0  0  1  0  0  0  0  0  0  0  0  0
  -17.9575  -40.0965   -7.4776 C   0  0  0  0  0  0  0  0  0  0  0  0
  -15.5016  -39.8264   -7.6126 C   0  0  2  0  0  0  0  0  0  0  0  0
  -15.0708  -38.8127   -6.7601 O   0  0  0  0  0  0  0  0  0  0  0  0
  -14.4506  -40.0843   -8.6330 C   0  0  0  0  0  0  0  0  0  0  0  0
  -13.1882  -39.4300   -8.2828 N   0  0  0  0  0  0  0  0  0  0  0  0
  -12.2466  -39.5945   -9.3812 C   0  0  0  0  0  0  0  0  0  0  0  0
  -12.2937  -38.3387  -10.1732 C   0  0  0  0  0  0  0  0  0  0  0  0
  -13.0502  -38.3209  -11.3248 C   0  0  0  0  0  0  0  0  0  0  0  0
  -13.1160  -37.1622  -12.0916 C   0  0  0  0  0  0  0  0  0  0  0  0
  -13.9268  -37.1088  -13.3428 C   0  0  0  0  0  0  0  0  0  0  0  0
  -12.9785  -36.9839  -14.5246 C   0  0  0  0  0  0  0  0  0  0  0  0
  -13.3593  -35.7605  -15.3109 C   0  0  0  0  0  0  0  0  0  0  0  0
  -11.5693  -36.8987  -13.9810 C   0  0  0  0  0  0  0  0  0  0  0  0
  -13.0622  -38.1832  -15.4238 C   0  0  0  0  0  0  0  0  0  0  0  0
  -12.4023  -36.0781  -11.6394 C   0  0  0  0  0  0  0  0  0  0  0  0
  -11.6647  -36.1048  -10.5111 N   0  0  0  0  0  0  0  0  0  0  0  0
  -11.5968  -37.2212   -9.7653 C   0  0  0  0  0  0  0  0  0  0  0  0
  2  1  1  1
  2  3  1  0
  3  4  1  0
  4  5  1  0
  5  6  1  0
  6  7  1  0
  7  8  1  0
  8  9  1  0
  9 10  1  0
 10 11  1  0
 11 12  1  0
 12 13  2  0
 13 14  1  0
 14 15  2  0
 15 16  1  0
 13 17  1  0
 17 18  2  0
 17 19  1  0
 19 20  1  0
 20 21  1  1
 20 22  1  0
 22 23  1  1
 22 24  1  0
 24 25  1  0
 25 26  1  0
 26 27  1  0
 27 28  2  0
 28 29  1  0
 29 30  1  0
 30 31  1  0
 31 32  1  0
 31 33  1  0
 31 34  1  0
 29 35  2  0
 35 36  1  0
 36 37  2  0
 16 11  2  0
 21  2  1  0
 37 27  1  0
M  END
$$$$
