
     RDKit          3D

 37 39  0  0  0  0  0  0  0  0999 V2000
  -19.7065  -38.2919   -5.4711 C   0  0  0  0  0  0  0  0  0  0  0  0
  -19.1303  -38.4719   -6.8818 C   0  0  2  0  0  0  0  0  0  0  0  0
  -20.2228  -38.2187   -7.8561 C   0  0  0  0  0  0  0  0  0  0  0  0
  -21.4067  -39.1158   -7.7754 C   0  0  0  0  0  0  0  0  0  0  0  0
  -22.6027  -38.4938   -7.0599 C   0  0  0  0  0  0  0  0  0  0  0  0
  -23.8672  -39.2671   -7.3450 C   0  0  0  0  0  0  0  0  0  0  0  0
  -23.6156  -40.7209   -7.6023 C   0  0  0  0  0  0  0  0  0  0  0  0
  -23.4133  -41.5328   -6.3415 C   0  0  0  0  0  0  0  0  0  0  0  0
  -23.6762  -42.9633   -6.6083 C   0  0  0  0  0  0  0  0  0  0  0  0
  -22.6110  -43.8035   -6.8123 O   0  0  0  0  0  0  0  0  0  0  0  0
  -21.2377  -43.7664   -6.8873 C   0  0  0  0  0  0  0  0  0  0  0  0
  -20.4238  -43.0380   -7.7469 C   0  0  0  0  0  0  0  0  0  0  0  0
  -19.0570  -43.1510   -7.6481 C   0  0  0  0  0  0  0  0  0  0  0  0
  -18.5219  -44.0194   -6.6606 C   0  0  0  0  0  0  0  0  0  0  0  0
  -19.2818  -44.7566   -5.7931 C   0  0  0  0  0  0  0  0  0  0  0  0
  -20.6397  -44.6094   -5.9307 C   0  0  0  0  0  0  0  0  0  0  0  0
  -17.9537  -42.5383   -8.3947 C   0  0  0  0  0  0  0  0  0  0  0  0
  -16.9752  -43.3551   -8.7854 O   0  0  0  0  0  0  0  0  0  0  0  0
  -17.6822  -41.2123   -8.8119 N   0  0  0  0  0  0  0  0  0  0  0  0
  -17.4895  -40.0299   -8.0140 C   0  0  1  0  0  0  0  0  0  0  0  0
  -18.4855  -39.8141   -6.9282 C   0  0  0  0  0  0  0  0  0  0  0  0
  -16.0768  -39.9114   -7.4855 C   0  0  2  0  0  0  0  0  0  0  0  0
  -15.8032  -38.6202   -7.0407 O   0  0  0  0  0  0  0  0  0  0  0  0
  -15.0670  -40.2990   -8.5066 C   0  0  0  0  0  0  0  0  0  0  0  0
  -13.7805  -39.6416   -8.2681 N   0  0  0  0  0  0  0  0  0  0  0  0
  -12.8016  -40.1539   -9.2166 C   0  0  0  0  0  0  0  0  0  0  0  0
  -13.2605  -39.7388  -10.5670 C   0  0  0  0  0  0  0  0  0  0  0  0
  -12.7095  -38.6051  -11.1239 C   0  0  0  0  0  0  0  0  0  0  0  0
  -13.1166  -38.1864  -12.3865 C   0  0  0  0  0  0  0  0  0  0  0  0
  -12.5393  -36.9647  -13.0187 C   0  0  0  0  0  0  0  0  0  0  0  0
  -13.3481  -35.7605  -12.5632 C   0  0  0  0  0  0  0  0  0  0  0  0
  -12.5551  -34.5178  -12.8581 C   0  0  0  0  0  0  0  0  0  0  0  0
  -14.6692  -35.7841  -13.2999 C   0  0  0  0  0  0  0  0  0  0  0  0
  -13.6318  -35.8160  -11.0901 C   0  0  0  0  0  0  0  0  0  0  0  0
  -14.0693  -38.9515  -13.0160 C   0  0  0  0  0  0  0  0  0  0  0  0
  -14.6028  -40.0594  -12.4631 N   0  0  0  0  0  0  0  0  0  0  0  0
  -14.2138  -40.4697  -11.2434 C   0  0  0  0  0  0  0  0  0  0  0  0
  2  1  1  1
  2  3  1  0
  3  4  1  0
  4  5  1  0
  5  6  1  0
  6  7  1  0
  7  8  1  0
  8  9  1  0
  9 10  1  0
 10 11  1  0
 11 12  1  0
 12 13  2  0
 13 14  1  0
 14 15  2  0
 15 16  1  0
 13 17  1  0
 17 18  2  0
 17 19  1  0
 19 20  1  0
 20 21  1  1
 20 22  1  0
 22 23  1  6
 22 24  1  0
 24 25  1  0
 25 26  1  0
 26 27  1  0
 27 28  2  0
 28 29  1  0
 29 30  1  0
 30 31  1  0
 31 32  1  0
 31 33  1  0
 31 34  1  0
 29 35  2  0
 35 36  1  0
 36 37  2  0
 16 11  2  0
 21  2  1  0
 37 27  1  0
M  END
$$$$
