
     RDKit          3D

 37 39  0  0  0  0  0  0  0  0999 V2000
  -13.9790  -36.2244  -10.6994 C   0  0  0  0  0  0  0  0  0  0  0  0
  -13.6282  -37.1834   -9.5541 C   0  0  2  0  0  0  0  0  0  0  0  0
  -12.1505  -37.3328   -9.5211 C   0  0  0  0  0  0  0  0  0  0  0  0
  -11.5117  -37.8947  -10.7414 C   0  0  0  0  0  0  0  0  0  0  0  0
  -10.8662  -36.8423  -11.6386 C   0  0  0  0  0  0  0  0  0  0  0  0
   -9.9182  -37.4790  -12.6256 C   0  0  0  0  0  0  0  0  0  0  0  0
  -10.3164  -38.8735  -12.9994 C   0  0  0  0  0  0  0  0  0  0  0  0
  -11.4192  -38.9317  -14.0339 C   0  0  0  0  0  0  0  0  0  0  0  0
  -11.4115  -40.2446  -14.7143 C   0  0  0  0  0  0  0  0  0  0  0  0
  -12.3138  -41.1989  -14.3179 O   0  0  0  0  0  0  0  0  0  0  0  0
  -13.3129  -41.3852  -13.3905 C   0  0  0  0  0  0  0  0  0  0  0  0
  -13.2476  -41.3218  -12.0035 C   0  0  0  0  0  0  0  0  0  0  0  0
  -14.3816  -41.5439  -11.2584 C   0  0  0  0  0  0  0  0  0  0  0  0
  -15.5913  -41.8349  -11.9421 C   0  0  0  0  0  0  0  0  0  0  0  0
  -15.7049  -41.9088  -13.3042 C   0  0  0  0  0  0  0  0  0  0  0  0
  -14.5461  -41.6790  -14.0036 C   0  0  0  0  0  0  0  0  0  0  0  0
  -14.6336  -41.5572   -9.8139 C   0  0  0  0  0  0  0  0  0  0  0  0
  -15.3530  -42.5774   -9.3460 O   0  0  0  0  0  0  0  0  0  0  0  0
  -14.2678  -40.6886   -8.7567 N   0  0  0  0  0  0  0  0  0  0  0  0
  -14.5978  -39.3007   -8.5651 C   0  0  1  0  0  0  0  0  0  0  0  0
  -14.4253  -38.4255   -9.7575 C   0  0  0  0  0  0  0  0  0  0  0  0
  -15.9650  -39.1103   -7.9457 C   0  0  2  0  0  0  0  0  0  0  0  0
  -15.9629  -39.4339   -6.5910 O   0  0  0  0  0  0  0  0  0  0  0  0
  -17.0058  -39.9169   -8.6376 C   0  0  0  0  0  0  0  0  0  0  0  0
  -17.8370  -39.0869   -9.5120 N   0  0  0  0  0  0  0  0  0  0  0  0
  -18.6164  -39.9509  -10.3874 C   0  0  0  0  0  0  0  0  0  0  0  0
  -19.4048  -40.8496   -9.5056 C   0  0  0  0  0  0  0  0  0  0  0  0
  -20.1274  -40.2855   -8.4767 C   0  0  0  0  0  0  0  0  0  0  0  0
  -20.8760  -41.0973   -7.6308 C   0  0  0  0  0  0  0  0  0  0  0  0
  -21.6706  -40.5187   -6.5085 C   0  0  0  0  0  0  0  0  0  0  0  0
  -22.1553  -39.1390   -6.9245 C   0  0  0  0  0  0  0  0  0  0  0  0
  -22.2077  -39.0877   -8.4261 C   0  0  0  0  0  0  0  0  0  0  0  0
  -23.5137  -38.9164   -6.2969 C   0  0  0  0  0  0  0  0  0  0  0  0
  -21.2306  -38.0624   -6.4350 C   0  0  0  0  0  0  0  0  0  0  0  0
  -20.8467  -42.4483   -7.8818 C   0  0  0  0  0  0  0  0  0  0  0  0
  -20.1366  -42.9913   -8.8912 N   0  0  0  0  0  0  0  0  0  0  0  0
  -19.4110  -42.2126   -9.7125 C   0  0  0  0  0  0  0  0  0  0  0  0
  2  1  1  6
  2  3  1  0
  3  4  1  0
  4  5  1  0
  5  6  1  0
  6  7  1  0
  7  8  1  0
  8  9  1  0
  9 10  1  0
 10 11  1  0
 11 12  1  0
 12 13  2  0
 13 14  1  0
 14 15  2  0
 15 16  1  0
 13 17  1  0
 17 18  2  0
 17 19  1  0
 19 20  1  0
 20 21  1  6
 20 22  1  0
 22 23  1  1
 22 24  1  0
 24 25  1  0
 25 26  1  0
 26 27  1  0
 27 28  2  0
 28 29  1  0
 29 30  1  0
 30 31  1  0
 31 32  1  0
 31 33  1  0
 31 34  1  0
 29 35  2  0
 35 36  1  0
 36 37  2  0
 16 11  2  0
 21  2  1  0
 37 27  1  0
M  END
$$$$
