
     RDKit          3D

 37 39  0  0  0  0  0  0  0  0999 V2000
  -19.7973  -38.5060   -5.8273 C   0  0  0  0  0  0  0  0  0  0  0  0
  -19.2698  -38.0445   -7.1923 C   0  0  2  0  0  0  0  0  0  0  0  0
  -20.4372  -37.8517   -8.0907 C   0  0  0  0  0  0  0  0  0  0  0  0
  -21.2772  -39.0505   -8.3557 C   0  0  0  0  0  0  0  0  0  0  0  0
  -22.5674  -39.0905   -7.5415 C   0  0  0  0  0  0  0  0  0  0  0  0
  -23.5418  -40.0884   -8.1183 C   0  0  0  0  0  0  0  0  0  0  0  0
  -22.8644  -41.2327   -8.8074 C   0  0  0  0  0  0  0  0  0  0  0  0
  -22.3526  -42.2940   -7.8579 C   0  0  0  0  0  0  0  0  0  0  0  0
  -22.1712  -43.5748   -8.5745 C   0  0  0  0  0  0  0  0  0  0  0  0
  -20.9099  -43.9320   -8.9791 O   0  0  0  0  0  0  0  0  0  0  0  0
  -19.6224  -43.4471   -8.9699 C   0  0  0  0  0  0  0  0  0  0  0  0
  -19.1226  -42.2701   -9.5146 C   0  0  0  0  0  0  0  0  0  0  0  0
  -17.7853  -41.9764   -9.3883 C   0  0  0  0  0  0  0  0  0  0  0  0
  -16.9547  -42.8986   -8.6990 C   0  0  0  0  0  0  0  0  0  0  0  0
  -17.4001  -44.0693   -8.1469 C   0  0  0  0  0  0  0  0  0  0  0  0
  -18.7417  -44.3173   -8.2988 C   0  0  0  0  0  0  0  0  0  0  0  0
  -16.9689  -40.8484   -9.8479 C   0  0  0  0  0  0  0  0  0  0  0  0
  -15.8071  -41.1530  -10.4265 O   0  0  0  0  0  0  0  0  0  0  0  0
  -17.1462  -39.4436   -9.8122 N   0  0  0  0  0  0  0  0  0  0  0  0
  -17.2886  -38.5741   -8.6740 C   0  0  1  0  0  0  0  0  0  0  0  0
  -18.2429  -39.0324   -7.6267 C   0  0  0  0  0  0  0  0  0  0  0  0
  -15.9568  -38.1936   -8.0652 C   0  0  2  0  0  0  0  0  0  0  0  0
  -16.0238  -36.9637   -7.4151 O   0  0  0  0  0  0  0  0  0  0  0  0
  -14.8731  -38.1482   -9.0831 C   0  0  0  0  0  0  0  0  0  0  0  0
  -15.0282  -37.0042   -9.9839 N   0  0  0  0  0  0  0  0  0  0  0  0
  -15.0296  -37.4794  -11.3602 C   0  0  0  0  0  0  0  0  0  0  0  0
  -13.6359  -37.8903  -11.6695 C   0  0  0  0  0  0  0  0  0  0  0  0
  -13.4322  -39.1233  -12.2500 C   0  0  0  0  0  0  0  0  0  0  0  0
  -12.1402  -39.5408  -12.5522 C   0  0  0  0  0  0  0  0  0  0  0  0
  -11.8849  -40.8688  -13.1822 C   0  0  0  0  0  0  0  0  0  0  0  0
  -11.3431  -41.8093  -12.1175 C   0  0  0  0  0  0  0  0  0  0  0  0
  -10.2144  -41.1182  -11.4044 C   0  0  0  0  0  0  0  0  0  0  0  0
  -12.4814  -42.1573  -11.1839 C   0  0  0  0  0  0  0  0  0  0  0  0
  -10.8268  -43.0827  -12.7221 C   0  0  0  0  0  0  0  0  0  0  0  0
  -11.1201  -38.6728  -12.2440 C   0  0  0  0  0  0  0  0  0  0  0  0
  -11.3291  -37.4680  -11.6759 N   0  0  0  0  0  0  0  0  0  0  0  0
  -12.5751  -37.0582  -11.3813 C   0  0  0  0  0  0  0  0  0  0  0  0
  2  1  1  1
  2  3  1  0
  3  4  1  0
  4  5  1  0
  5  6  1  0
  6  7  1  0
  7  8  1  0
  8  9  1  0
  9 10  1  0
 10 11  1  0
 11 12  1  0
 12 13  2  0
 13 14  1  0
 14 15  2  0
 15 16  1  0
 13 17  1  0
 17 18  2  0
 17 19  1  0
 19 20  1  0
 20 21  1  1
 20 22  1  0
 22 23  1  6
 22 24  1  0
 24 25  1  0
 25 26  1  0
 26 27  1  0
 27 28  2  0
 28 29  1  0
 29 30  1  0
 30 31  1  0
 31 32  1  0
 31 33  1  0
 31 34  1  0
 29 35  2  0
 35 36  1  0
 36 37  2  0
 16 11  2  0
 21  2  1  0
 37 27  1  0
M  END
$$$$
