
     RDKit          3D

 37 39  0  0  0  0  0  0  0  0999 V2000
  -19.7786  -39.5181   -4.5773 C   0  0  0  0  0  0  0  0  0  0  0  0
  -19.3670  -39.1608   -6.0116 C   0  0  2  0  0  0  0  0  0  0  0  0
  -20.6017  -38.8443   -6.7748 C   0  0  0  0  0  0  0  0  0  0  0  0
  -21.6080  -39.9335   -6.8925 C   0  0  0  0  0  0  0  0  0  0  0  0
  -22.7857  -39.7899   -5.9325 C   0  0  0  0  0  0  0  0  0  0  0  0
  -23.9375  -40.6706   -6.3519 C   0  0  0  0  0  0  0  0  0  0  0  0
  -23.4935  -41.9080   -7.0693 C   0  0  0  0  0  0  0  0  0  0  0  0
  -23.0049  -43.0017   -6.1446 C   0  0  0  0  0  0  0  0  0  0  0  0
  -23.0696  -44.3125   -6.8261 C   0  0  0  0  0  0  0  0  0  0  0  0
  -21.9197  -44.8362   -7.3605 O   0  0  0  0  0  0  0  0  0  0  0  0
  -20.5908  -44.5178   -7.5206 C   0  0  0  0  0  0  0  0  0  0  0  0
  -20.0198  -43.4273   -8.1661 C   0  0  0  0  0  0  0  0  0  0  0  0
  -18.6512  -43.3020   -8.2082 C   0  0  0  0  0  0  0  0  0  0  0  0
  -17.8629  -44.3045   -7.5844 C   0  0  0  0  0  0  0  0  0  0  0  0
  -18.3786  -45.3954   -6.9383 C   0  0  0  0  0  0  0  0  0  0  0  0
  -19.7489  -45.4755   -6.9228 C   0  0  0  0  0  0  0  0  0  0  0  0
  -17.7642  -42.2979   -8.8042 C   0  0  0  0  0  0  0  0  0  0  0  0
  -16.7267  -42.7612   -9.5016 O   0  0  0  0  0  0  0  0  0  0  0  0
  -17.7623  -40.8816   -8.8037 N   0  0  0  0  0  0  0  0  0  0  0  0
  -17.6588  -39.9732   -7.6920 C   0  0  1  0  0  0  0  0  0  0  0  0
  -18.5288  -40.2811   -6.5233 C   0  0  0  0  0  0  0  0  0  0  0  0
  -16.2268  -39.7491   -7.2581 C   0  0  2  0  0  0  0  0  0  0  0  0
  -16.1585  -39.2196   -5.9717 O   0  0  0  0  0  0  0  0  0  0  0  0
  -15.4965  -38.8522   -8.1935 C   0  0  0  0  0  0  0  0  0  0  0  0
  -15.3419  -39.4636   -9.5150 N   0  0  0  0  0  0  0  0  0  0  0  0
  -13.9233  -39.5855   -9.8196 C   0  0  0  0  0  0  0  0  0  0  0  0
  -13.7330  -39.0348  -11.1860 C   0  0  0  0  0  0  0  0  0  0  0  0
  -12.7752  -38.0614  -11.3703 C   0  0  0  0  0  0  0  0  0  0  0  0
  -12.5709  -37.5225  -12.6363 C   0  0  0  0  0  0  0  0  0  0  0  0
  -11.5413  -36.4686  -12.8704 C   0  0  0  0  0  0  0  0  0  0  0  0
  -12.1981  -35.1085  -12.6960 C   0  0  0  0  0  0  0  0  0  0  0  0
  -13.4706  -35.0902  -13.4963 C   0  0  0  0  0  0  0  0  0  0  0  0
  -12.4487  -34.9010  -11.2186 C   0  0  0  0  0  0  0  0  0  0  0  0
  -11.3055  -34.0025  -13.1799 C   0  0  0  0  0  0  0  0  0  0  0  0
  -13.3595  -38.0087  -13.6517 C   0  0  0  0  0  0  0  0  0  0  0  0
  -14.2944  -38.9615  -13.4619 N   0  0  0  0  0  0  0  0  0  0  0  0
  -14.4969  -39.4866  -12.2410 C   0  0  0  0  0  0  0  0  0  0  0  0
  2  1  1  1
  2  3  1  0
  3  4  1  0
  4  5  1  0
  5  6  1  0
  6  7  1  0
  7  8  1  0
  8  9  1  0
  9 10  1  0
 10 11  1  0
 11 12  1  0
 12 13  2  0
 13 14  1  0
 14 15  2  0
 15 16  1  0
 13 17  1  0
 17 18  2  0
 17 19  1  0
 19 20  1  0
 20 21  1  1
 20 22  1  0
 22 23  1  1
 22 24  1  0
 24 25  1  0
 25 26  1  0
 26 27  1  0
 27 28  2  0
 28 29  1  0
 29 30  1  0
 30 31  1  0
 31 32  1  0
 31 33  1  0
 31 34  1  0
 29 35  2  0
 35 36  1  0
 36 37  2  0
 16 11  2  0
 21  2  1  0
 37 27  1  0
M  END
$$$$
