
     RDKit          3D

 37 39  0  0  0  0  0  0  0  0999 V2000
  -20.0955  -39.2433   -5.1711 C   0  0  0  0  0  0  0  0  0  0  0  0
  -19.9896  -38.6640   -6.5880 C   0  0  2  0  0  0  0  0  0  0  0  0
  -21.3686  -38.4442   -7.0950 C   0  0  0  0  0  0  0  0  0  0  0  0
  -22.2365  -39.6475   -7.2039 C   0  0  0  0  0  0  0  0  0  0  0  0
  -23.2362  -39.7911   -6.0597 C   0  0  0  0  0  0  0  0  0  0  0  0
  -24.3250  -40.7754   -6.4114 C   0  0  0  0  0  0  0  0  0  0  0  0
  -23.8633  -41.8419   -7.3560 C   0  0  0  0  0  0  0  0  0  0  0  0
  -23.0879  -42.9532   -6.6825 C   0  0  0  0  0  0  0  0  0  0  0  0
  -23.1075  -44.1703   -7.5220 C   0  0  0  0  0  0  0  0  0  0  0  0
  -22.0130  -44.4540   -8.2991 O   0  0  0  0  0  0  0  0  0  0  0  0
  -20.7829  -43.9283   -8.6206 C   0  0  0  0  0  0  0  0  0  0  0  0
  -20.4742  -42.6979   -9.1888 C   0  0  0  0  0  0  0  0  0  0  0  0
  -19.1605  -42.3698   -9.4282 C   0  0  0  0  0  0  0  0  0  0  0  0
  -18.1565  -43.3124   -9.0833 C   0  0  0  0  0  0  0  0  0  0  0  0
  -18.4111  -44.5351   -8.5231 C   0  0  0  0  0  0  0  0  0  0  0  0
  -19.7367  -44.8159   -8.3032 C   0  0  0  0  0  0  0  0  0  0  0  0
  -18.5237  -41.1840  -10.0100 C   0  0  0  0  0  0  0  0  0  0  0  0
  -17.5752  -41.4057  -10.9203 O   0  0  0  0  0  0  0  0  0  0  0  0
  -18.6980  -39.7926   -9.8114 N   0  0  0  0  0  0  0  0  0  0  0  0
  -18.5150  -39.0154   -8.6138 C   0  0  1  0  0  0  0  0  0  0  0  0
  -19.1213  -39.5820   -7.3773 C   0  0  0  0  0  0  0  0  0  0  0  0
  -17.0682  -38.6368   -8.3841 C   0  0  2  0  0  0  0  0  0  0  0  0
  -16.9146  -37.8818   -7.2238 O   0  0  0  0  0  0  0  0  0  0  0  0
  -16.5017  -37.8829   -9.5344 C   0  0  0  0  0  0  0  0  0  0  0  0
  -15.9437  -38.7831  -10.5456 N   0  0  0  0  0  0  0  0  0  0  0  0
  -14.5927  -38.3504  -10.8740 C   0  0  0  0  0  0  0  0  0  0  0  0
  -13.8620  -39.5562  -11.3417 C   0  0  0  0  0  0  0  0  0  0  0  0
  -13.3021  -40.3880  -10.3964 C   0  0  0  0  0  0  0  0  0  0  0  0
  -12.6097  -41.5254  -10.7986 C   0  0  0  0  0  0  0  0  0  0  0  0
  -11.9930  -42.4475   -9.8012 C   0  0  0  0  0  0  0  0  0  0  0  0
  -10.5676  -41.9878   -9.5392 C   0  0  0  0  0  0  0  0  0  0  0  0
  -10.2026  -40.9611  -10.5750 C   0  0  0  0  0  0  0  0  0  0  0  0
  -10.5119  -41.4281   -8.1349 C   0  0  0  0  0  0  0  0  0  0  0  0
   -9.5980  -43.1306   -9.6271 C   0  0  0  0  0  0  0  0  0  0  0  0
  -12.5255  -41.7539  -12.1513 C   0  0  0  0  0  0  0  0  0  0  0  0
  -13.0766  -40.9342  -13.0691 N   0  0  0  0  0  0  0  0  0  0  0  0
  -13.7472  -39.8334  -12.6873 C   0  0  0  0  0  0  0  0  0  0  0  0
  2  1  1  1
  2  3  1  0
  3  4  1  0
  4  5  1  0
  5  6  1  0
  6  7  1  0
  7  8  1  0
  8  9  1  0
  9 10  1  0
 10 11  1  0
 11 12  1  0
 12 13  2  0
 13 14  1  0
 14 15  2  0
 15 16  1  0
 13 17  1  0
 17 18  2  0
 17 19  1  0
 19 20  1  0
 20 21  1  1
 20 22  1  0
 22 23  1  1
 22 24  1  0
 24 25  1  0
 25 26  1  0
 26 27  1  0
 27 28  2  0
 28 29  1  0
 29 30  1  0
 30 31  1  0
 31 32  1  0
 31 33  1  0
 31 34  1  0
 29 35  2  0
 35 36  1  0
 36 37  2  0
 16 11  2  0
 21  2  1  0
 37 27  1  0
M  END
$$$$
