
     RDKit          3D

 37 39  0  0  0  0  0  0  0  0999 V2000
  -19.7870  -38.2523   -5.7687 C   0  0  0  0  0  0  0  0  0  0  0  0
  -19.1041  -38.4540   -7.1278 C   0  0  2  0  0  0  0  0  0  0  0  0
  -20.1172  -38.2132   -8.1874 C   0  0  0  0  0  0  0  0  0  0  0  0
  -21.3065  -39.1068   -8.1854 C   0  0  0  0  0  0  0  0  0  0  0  0
  -22.5523  -38.4722   -7.5737 C   0  0  0  0  0  0  0  0  0  0  0  0
  -23.7933  -39.2473   -7.9445 C   0  0  0  0  0  0  0  0  0  0  0  0
  -23.5268  -40.7052   -8.1605 C   0  0  0  0  0  0  0  0  0  0  0  0
  -23.4250  -41.4989   -6.8762 C   0  0  0  0  0  0  0  0  0  0  0  0
  -23.6707  -42.9327   -7.1419 C   0  0  0  0  0  0  0  0  0  0  0  0
  -22.5954  -43.7777   -7.2507 O   0  0  0  0  0  0  0  0  0  0  0  0
  -21.2203  -43.7442   -7.2197 C   0  0  0  0  0  0  0  0  0  0  0  0
  -20.3402  -43.0299   -8.0243 C   0  0  0  0  0  0  0  0  0  0  0  0
  -18.9855  -43.1440   -7.8185 C   0  0  0  0  0  0  0  0  0  0  0  0
  -18.5309  -43.9987   -6.7801 C   0  0  0  0  0  0  0  0  0  0  0  0
  -19.3577  -44.7218   -5.9634 C   0  0  0  0  0  0  0  0  0  0  0  0
  -20.7005  -44.5742   -6.2077 C   0  0  0  0  0  0  0  0  0  0  0  0
  -17.8260  -42.5442   -8.4864 C   0  0  0  0  0  0  0  0  0  0  0  0
  -16.8226  -43.3685   -8.7883 O   0  0  0  0  0  0  0  0  0  0  0  0
  -17.5192  -41.2250   -8.9004 N   0  0  0  0  0  0  0  0  0  0  0  0
  -17.3853  -40.0314   -8.1072 C   0  0  1  0  0  0  0  0  0  0  0  0
  -18.4616  -39.7980   -7.1049 C   0  0  0  0  0  0  0  0  0  0  0  0
  -16.0172  -39.9077   -7.4728 C   0  0  2  0  0  0  0  0  0  0  0  0
  -15.4906  -38.6288   -7.6368 O   0  0  0  0  0  0  0  0  0  0  0  0
  -15.0581  -40.9035   -8.0214 C   0  0  0  0  0  0  0  0  0  0  0  0
  -13.7166  -40.3350   -8.1675 N   0  0  0  0  0  0  0  0  0  0  0  0
  -13.0737  -40.9267   -9.3323 C   0  0  0  0  0  0  0  0  0  0  0  0
  -13.4790  -40.1077  -10.5035 C   0  0  0  0  0  0  0  0  0  0  0  0
  -12.5950  -39.1625  -10.9767 C   0  0  0  0  0  0  0  0  0  0  0  0
  -12.9420  -38.3769  -12.0710 C   0  0  0  0  0  0  0  0  0  0  0  0
  -12.0077  -37.3459  -12.6092 C   0  0  0  0  0  0  0  0  0  0  0  0
  -12.5579  -35.9715  -12.2625 C   0  0  0  0  0  0  0  0  0  0  0  0
  -12.5982  -35.8407  -10.7654 C   0  0  0  0  0  0  0  0  0  0  0  0
  -11.6586  -34.9373  -12.9029 C   0  0  0  0  0  0  0  0  0  0  0  0
  -13.9461  -35.7845  -12.8027 C   0  0  0  0  0  0  0  0  0  0  0  0
  -14.1793  -38.5995  -12.6264 C   0  0  0  0  0  0  0  0  0  0  0  0
  -15.0379  -39.5268  -12.1565 N   0  0  0  0  0  0  0  0  0  0  0  0
  -14.7089  -40.2894  -11.0994 C   0  0  0  0  0  0  0  0  0  0  0  0
  2  1  1  1
  2  3  1  0
  3  4  1  0
  4  5  1  0
  5  6  1  0
  6  7  1  0
  7  8  1  0
  8  9  1  0
  9 10  1  0
 10 11  1  0
 11 12  1  0
 12 13  2  0
 13 14  1  0
 14 15  2  0
 15 16  1  0
 13 17  1  0
 17 18  2  0
 17 19  1  0
 19 20  1  0
 20 21  1  1
 20 22  1  0
 22 23  1  6
 22 24  1  0
 24 25  1  0
 25 26  1  0
 26 27  1  0
 27 28  2  0
 28 29  1  0
 29 30  1  0
 30 31  1  0
 31 32  1  0
 31 33  1  0
 31 34  1  0
 29 35  2  0
 35 36  1  0
 36 37  2  0
 16 11  2  0
 21  2  1  0
 37 27  1  0
M  END
$$$$
