
     RDKit          3D

 37 39  0  0  0  0  0  0  0  0999 V2000
  -19.5299  -39.6035   -5.0716 C   0  0  0  0  0  0  0  0  0  0  0  0
  -18.6258  -39.0060   -6.1579 C   0  0  2  0  0  0  0  0  0  0  0  0
  -19.4846  -38.2323   -7.0910 C   0  0  0  0  0  0  0  0  0  0  0  0
  -20.5431  -38.9941   -7.8068 C   0  0  0  0  0  0  0  0  0  0  0  0
  -21.9360  -38.8249   -7.2065 C   0  0  0  0  0  0  0  0  0  0  0  0
  -23.0018  -39.2818   -8.1726 C   0  0  0  0  0  0  0  0  0  0  0  0
  -22.5310  -40.3698   -9.0877 C   0  0  0  0  0  0  0  0  0  0  0  0
  -22.5337  -41.7417   -8.4490 C   0  0  0  0  0  0  0  0  0  0  0  0
  -22.5603  -42.7898   -9.4919 C   0  0  0  0  0  0  0  0  0  0  0  0
  -21.3870  -43.4158   -9.8287 O   0  0  0  0  0  0  0  0  0  0  0  0
  -20.0475  -43.3846   -9.5163 C   0  0  0  0  0  0  0  0  0  0  0  0
  -19.1464  -42.3308   -9.6141 C   0  0  0  0  0  0  0  0  0  0  0  0
  -17.8360  -42.5197   -9.2429 C   0  0  0  0  0  0  0  0  0  0  0  0
  -17.4474  -43.8004   -8.7692 C   0  0  0  0  0  0  0  0  0  0  0  0
  -18.2971  -44.8676   -8.6559 C   0  0  0  0  0  0  0  0  0  0  0  0
  -19.5939  -44.6291   -9.0380 C   0  0  0  0  0  0  0  0  0  0  0  0
  -16.6684  -41.6328   -9.2364 C   0  0  0  0  0  0  0  0  0  0  0  0
  -15.5382  -42.1354   -9.7339 O   0  0  0  0  0  0  0  0  0  0  0  0
  -16.4630  -40.3014   -8.7991 N   0  0  0  0  0  0  0  0  0  0  0  0
  -16.5984  -39.7478   -7.4774 C   0  0  1  0  0  0  0  0  0  0  0  0
  -17.8369  -40.1265   -6.7424 C   0  0  0  0  0  0  0  0  0  0  0  0
  -15.3700  -39.9770   -6.6244 C   0  0  2  0  0  0  0  0  0  0  0  0
  -14.7785  -38.7744   -6.2450 O   0  0  0  0  0  0  0  0  0  0  0  0
  -14.3597  -40.8187   -7.3197 C   0  0  0  0  0  0  0  0  0  0  0  0
  -13.4577  -40.0088   -8.1410 N   0  0  0  0  0  0  0  0  0  0  0  0
  -13.4008  -40.5726   -9.4823 C   0  0  0  0  0  0  0  0  0  0  0  0
  -13.2736  -39.4274  -10.4198 C   0  0  0  0  0  0  0  0  0  0  0  0
  -14.3812  -39.0554  -11.1504 C   0  0  0  0  0  0  0  0  0  0  0  0
  -14.2978  -37.9881  -12.0387 C   0  0  0  0  0  0  0  0  0  0  0  0
  -15.4782  -37.5588  -12.8435 C   0  0  0  0  0  0  0  0  0  0  0  0
  -16.0729  -36.3168  -12.1988 C   0  0  0  0  0  0  0  0  0  0  0  0
  -14.9639  -35.3314  -11.9558 C   0  0  0  0  0  0  0  0  0  0  0  0
  -17.1291  -35.7700  -13.1338 C   0  0  0  0  0  0  0  0  0  0  0  0
  -16.7294  -36.6404  -10.8880 C   0  0  0  0  0  0  0  0  0  0  0  0
  -13.0818  -37.3546  -12.1340 C   0  0  0  0  0  0  0  0  0  0  0  0
  -12.0032  -37.7257  -11.4150 N   0  0  0  0  0  0  0  0  0  0  0  0
  -12.0770  -38.7561  -10.5547 C   0  0  0  0  0  0  0  0  0  0  0  0
  2  1  1  1
  2  3  1  0
  3  4  1  0
  4  5  1  0
  5  6  1  0
  6  7  1  0
  7  8  1  0
  8  9  1  0
  9 10  1  0
 10 11  1  0
 11 12  1  0
 12 13  2  0
 13 14  1  0
 14 15  2  0
 15 16  1  0
 13 17  1  0
 17 18  2  0
 17 19  1  0
 19 20  1  0
 20 21  1  1
 20 22  1  0
 22 23  1  6
 22 24  1  0
 24 25  1  0
 25 26  1  0
 26 27  1  0
 27 28  2  0
 28 29  1  0
 29 30  1  0
 30 31  1  0
 31 32  1  0
 31 33  1  0
 31 34  1  0
 29 35  2  0
 35 36  1  0
 36 37  2  0
 16 11  2  0
 21  2  1  0
 37 27  1  0
M  END
$$$$
