
     RDKit          3D

 37 39  0  0  0  0  0  0  0  0999 V2000
  -14.7245  -36.0083   -9.1632 C   0  0  0  0  0  0  0  0  0  0  0  0
  -14.8212  -37.4588   -8.6720 C   0  0  2  0  0  0  0  0  0  0  0  0
  -13.8060  -38.2574   -9.4059 C   0  0  0  0  0  0  0  0  0  0  0  0
  -13.9459  -38.3117  -10.8859 C   0  0  0  0  0  0  0  0  0  0  0  0
  -12.9938  -37.3787  -11.6289 C   0  0  0  0  0  0  0  0  0  0  0  0
  -12.8999  -37.7503  -13.0888 C   0  0  0  0  0  0  0  0  0  0  0  0
  -14.1563  -38.3746  -13.6130 C   0  0  0  0  0  0  0  0  0  0  0  0
  -15.2379  -37.3703  -13.9468 C   0  0  0  0  0  0  0  0  0  0  0  0
  -16.2060  -37.9600  -14.8964 C   0  0  0  0  0  0  0  0  0  0  0  0
  -17.3955  -38.4425  -14.4123 O   0  0  0  0  0  0  0  0  0  0  0  0
  -18.0589  -38.6078  -13.2184 C   0  0  0  0  0  0  0  0  0  0  0  0
  -17.6722  -39.3202  -12.0892 C   0  0  0  0  0  0  0  0  0  0  0  0
  -18.4982  -39.3539  -10.9905 C   0  0  0  0  0  0  0  0  0  0  0  0
  -19.7309  -38.6523  -11.0519 C   0  0  0  0  0  0  0  0  0  0  0  0
  -20.1548  -37.9385  -12.1401 C   0  0  0  0  0  0  0  0  0  0  0  0
  -19.2959  -37.9346  -13.2110 C   0  0  0  0  0  0  0  0  0  0  0  0
  -18.3842  -40.0069   -9.6826 C   0  0  0  0  0  0  0  0  0  0  0  0
  -19.4634  -40.6577   -9.2477 O   0  0  0  0  0  0  0  0  0  0  0  0
  -17.3367  -40.1047   -8.7343 N   0  0  0  0  0  0  0  0  0  0  0  0
  -16.6668  -39.0575   -8.0088 C   0  0  1  0  0  0  0  0  0  0  0  0
  -16.2425  -37.8811   -8.8173 C   0  0  0  0  0  0  0  0  0  0  0  0
  -17.4336  -38.6224   -6.7792 C   0  0  2  0  0  0  0  0  0  0  0  0
  -16.5771  -38.2136   -5.7598 O   0  0  0  0  0  0  0  0  0  0  0  0
  -18.3206  -39.7009   -6.2669 C   0  0  0  0  0  0  0  0  0  0  0  0
  -19.7347  -39.3626   -6.4405 N   0  0  0  0  0  0  0  0  0  0  0  0
  -20.4524  -40.5418   -6.9037 C   0  0  0  0  0  0  0  0  0  0  0  0
  -21.0092  -41.2026   -5.6955 C   0  0  0  0  0  0  0  0  0  0  0  0
  -20.8617  -42.5669   -5.5708 C   0  0  0  0  0  0  0  0  0  0  0  0
  -21.3719  -43.2188   -4.4529 C   0  0  0  0  0  0  0  0  0  0  0  0
  -21.2281  -44.6943   -4.2863 C   0  0  0  0  0  0  0  0  0  0  0  0
  -22.2940  -45.3787   -5.1272 C   0  0  0  0  0  0  0  0  0  0  0  0
  -23.6431  -45.0007   -4.5821 C   0  0  0  0  0  0  0  0  0  0  0  0
  -22.1108  -44.9319   -6.5608 C   0  0  0  0  0  0  0  0  0  0  0  0
  -22.1538  -46.8727   -5.0803 C   0  0  0  0  0  0  0  0  0  0  0  0
  -22.0086  -42.4388   -3.5172 C   0  0  0  0  0  0  0  0  0  0  0  0
  -22.1482  -41.1041   -3.6478 N   0  0  0  0  0  0  0  0  0  0  0  0
  -21.6575  -40.4679   -4.7256 C   0  0  0  0  0  0  0  0  0  0  0  0
  2  1  1  6
  2  3  1  0
  3  4  1  0
  4  5  1  0
  5  6  1  0
  6  7  1  0
  7  8  1  0
  8  9  1  0
  9 10  1  0
 10 11  1  0
 11 12  1  0
 12 13  2  0
 13 14  1  0
 14 15  2  0
 15 16  1  0
 13 17  1  0
 17 18  2  0
 17 19  1  0
 19 20  1  0
 20 21  1  6
 20 22  1  0
 22 23  1  1
 22 24  1  0
 24 25  1  0
 25 26  1  0
 26 27  1  0
 27 28  2  0
 28 29  1  0
 29 30  1  0
 30 31  1  0
 31 32  1  0
 31 33  1  0
 31 34  1  0
 29 35  2  0
 35 36  1  0
 36 37  2  0
 16 11  2  0
 21  2  1  0
 37 27  1  0
M  END
$$$$
