
     RDKit          3D

 37 39  0  0  0  0  0  0  0  0999 V2000
  -19.6586  -39.9528   -5.3680 C   0  0  0  0  0  0  0  0  0  0  0  0
  -19.1446  -39.0961   -6.5325 C   0  0  2  0  0  0  0  0  0  0  0  0
  -20.2942  -38.3273   -7.0751 C   0  0  0  0  0  0  0  0  0  0  0  0
  -21.4295  -39.1220   -7.6160 C   0  0  0  0  0  0  0  0  0  0  0  0
  -22.6167  -39.2270   -6.6628 C   0  0  0  0  0  0  0  0  0  0  0  0
  -23.8561  -39.6896   -7.3894 C   0  0  0  0  0  0  0  0  0  0  0  0
  -23.5497  -40.5693   -8.5621 C   0  0  0  0  0  0  0  0  0  0  0  0
  -23.2480  -42.0026   -8.1816 C   0  0  0  0  0  0  0  0  0  0  0  0
  -23.4565  -42.8934   -9.3433 C   0  0  0  0  0  0  0  0  0  0  0  0
  -22.3644  -43.3024  -10.0660 O   0  0  0  0  0  0  0  0  0  0  0  0
  -20.9997  -43.1317  -10.1025 C   0  0  0  0  0  0  0  0  0  0  0  0
  -20.2639  -41.9615  -10.2483 C   0  0  0  0  0  0  0  0  0  0  0  0
  -18.8901  -42.0188  -10.2581 C   0  0  0  0  0  0  0  0  0  0  0  0
  -18.2672  -43.2869  -10.1187 C   0  0  0  0  0  0  0  0  0  0  0  0
  -18.9484  -44.4653   -9.9734 C   0  0  0  0  0  0  0  0  0  0  0  0
  -20.3168  -44.3560   -9.9692 C   0  0  0  0  0  0  0  0  0  0  0  0
  -17.8547  -40.9903  -10.4000 C   0  0  0  0  0  0  0  0  0  0  0  0
  -16.8594  -41.2622  -11.2442 O   0  0  0  0  0  0  0  0  0  0  0  0
  -17.6663  -39.7150   -9.8134 N   0  0  0  0  0  0  0  0  0  0  0  0
  -17.4902  -39.3692   -8.4273 C   0  0  1  0  0  0  0  0  0  0  0  0
  -18.4407  -40.0091   -7.4762 C   0  0  0  0  0  0  0  0  0  0  0  0
  -16.0603  -39.5424   -7.9640 C   0  0  2  0  0  0  0  0  0  0  0  0
  -15.9600  -39.4751   -6.5764 O   0  0  0  0  0  0  0  0  0  0  0  0
  -15.1539  -38.5292   -8.5676 C   0  0  0  0  0  0  0  0  0  0  0  0
  -14.5649  -39.0112   -9.8186 N   0  0  0  0  0  0  0  0  0  0  0  0
  -14.7155  -37.9856  -10.8412 C   0  0  0  0  0  0  0  0  0  0  0  0
  -13.4038  -37.8760  -11.5298 C   0  0  0  0  0  0  0  0  0  0  0  0
  -12.6575  -39.0219  -11.6992 C   0  0  0  0  0  0  0  0  0  0  0  0
  -11.4239  -38.9560  -12.3386 C   0  0  0  0  0  0  0  0  0  0  0  0
  -10.5916  -40.1777  -12.5396 C   0  0  0  0  0  0  0  0  0  0  0  0
   -9.7241  -40.3760  -11.3068 C   0  0  0  0  0  0  0  0  0  0  0  0
   -8.9387  -41.6462  -11.4790 C   0  0  0  0  0  0  0  0  0  0  0  0
   -8.8290  -39.1641  -11.1703 C   0  0  0  0  0  0  0  0  0  0  0  0
  -10.5568  -40.4862  -10.0624 C   0  0  0  0  0  0  0  0  0  0  0  0
  -11.0162  -37.7174  -12.7730 C   0  0  0  0  0  0  0  0  0  0  0  0
  -11.7534  -36.6014  -12.6027 N   0  0  0  0  0  0  0  0  0  0  0  0
  -12.9464  -36.6580  -11.9858 C   0  0  0  0  0  0  0  0  0  0  0  0
  2  1  1  1
  2  3  1  0
  3  4  1  0
  4  5  1  0
  5  6  1  0
  6  7  1  0
  7  8  1  0
  8  9  1  0
  9 10  1  0
 10 11  1  0
 11 12  1  0
 12 13  2  0
 13 14  1  0
 14 15  2  0
 15 16  1  0
 13 17  1  0
 17 18  2  0
 17 19  1  0
 19 20  1  0
 20 21  1  1
 20 22  1  0
 22 23  1  1
 22 24  1  0
 24 25  1  0
 25 26  1  0
 26 27  1  0
 27 28  2  0
 28 29  1  0
 29 30  1  0
 30 31  1  0
 31 32  1  0
 31 33  1  0
 31 34  1  0
 29 35  2  0
 35 36  1  0
 36 37  2  0
 16 11  2  0
 21  2  1  0
 37 27  1  0
M  END
$$$$
