
     RDKit          3D

 37 39  0  0  0  0  0  0  0  0999 V2000
  -20.0494  -40.0697   -4.8648 C   0  0  0  0  0  0  0  0  0  0  0  0
  -19.4031  -39.4636   -6.1175 C   0  0  2  0  0  0  0  0  0  0  0  0
  -20.4729  -38.8009   -6.9072 C   0  0  0  0  0  0  0  0  0  0  0  0
  -21.5777  -39.6713   -7.3917 C   0  0  0  0  0  0  0  0  0  0  0  0
  -22.8507  -39.5730   -6.5557 C   0  0  0  0  0  0  0  0  0  0  0  0
  -24.0314  -40.1527   -7.2959 C   0  0  0  0  0  0  0  0  0  0  0  0
  -23.6456  -41.2483   -8.2413 C   0  0  0  0  0  0  0  0  0  0  0  0
  -23.4257  -42.5833   -7.5636 C   0  0  0  0  0  0  0  0  0  0  0  0
  -23.5536  -43.6812   -8.5460 C   0  0  0  0  0  0  0  0  0  0  0  0
  -22.4128  -44.2373   -9.0668 O   0  0  0  0  0  0  0  0  0  0  0  0
  -21.0458  -44.0946   -9.0033 C   0  0  0  0  0  0  0  0  0  0  0  0
  -20.2633  -42.9849   -9.3004 C   0  0  0  0  0  0  0  0  0  0  0  0
  -18.8970  -43.0605   -9.1658 C   0  0  0  0  0  0  0  0  0  0  0  0
  -18.3298  -44.2849   -8.7244 C   0  0  0  0  0  0  0  0  0  0  0  0
  -19.0581  -45.4033   -8.4209 C   0  0  0  0  0  0  0  0  0  0  0  0
  -20.4169  -45.2779   -8.5704 C   0  0  0  0  0  0  0  0  0  0  0  0
  -17.8211  -42.0929   -9.4027 C   0  0  0  0  0  0  0  0  0  0  0  0
  -16.7609  -42.5371  -10.0780 O   0  0  0  0  0  0  0  0  0  0  0  0
  -17.6478  -40.7301   -9.0580 N   0  0  0  0  0  0  0  0  0  0  0  0
  -17.5900  -40.1225   -7.7544 C   0  0  1  0  0  0  0  0  0  0  0  0
  -18.6440  -40.5522   -6.7943 C   0  0  0  0  0  0  0  0  0  0  0  0
  -16.2152  -40.2202   -7.1301 C   0  0  2  0  0  0  0  0  0  0  0  0
  -16.2361  -39.8548   -5.7863 O   0  0  0  0  0  0  0  0  0  0  0  0
  -15.2181  -39.3815   -7.8476 C   0  0  0  0  0  0  0  0  0  0  0  0
  -14.6450  -40.0891   -8.9943 N   0  0  0  0  0  0  0  0  0  0  0  0
  -13.3659  -39.4831   -9.3363 C   0  0  0  0  0  0  0  0  0  0  0  0
  -13.3218  -39.3911  -10.8182 C   0  0  0  0  0  0  0  0  0  0  0  0
  -12.5075  -38.4373  -11.3893 C   0  0  0  0  0  0  0  0  0  0  0  0
  -12.4425  -38.3221  -12.7740 C   0  0  0  0  0  0  0  0  0  0  0  0
  -11.5701  -37.3015  -13.4243 C   0  0  0  0  0  0  0  0  0  0  0  0
  -12.3272  -35.9839  -13.4735 C   0  0  0  0  0  0  0  0  0  0  0  0
  -13.7950  -36.2747  -13.3290 C   0  0  0  0  0  0  0  0  0  0  0  0
  -11.8052  -35.1075  -12.3563 C   0  0  0  0  0  0  0  0  0  0  0  0
  -12.1006  -35.2696  -14.7744 C   0  0  0  0  0  0  0  0  0  0  0  0
  -13.2162  -39.1914  -13.5054 C   0  0  0  0  0  0  0  0  0  0  0  0
  -14.0101  -40.1217  -12.9377 N   0  0  0  0  0  0  0  0  0  0  0  0
  -14.0776  -40.2384  -11.6002 C   0  0  0  0  0  0  0  0  0  0  0  0
  2  1  1  1
  2  3  1  0
  3  4  1  0
  4  5  1  0
  5  6  1  0
  6  7  1  0
  7  8  1  0
  8  9  1  0
  9 10  1  0
 10 11  1  0
 11 12  1  0
 12 13  2  0
 13 14  1  0
 14 15  2  0
 15 16  1  0
 13 17  1  0
 17 18  2  0
 17 19  1  0
 19 20  1  0
 20 21  1  1
 20 22  1  0
 22 23  1  1
 22 24  1  0
 24 25  1  0
 25 26  1  0
 26 27  1  0
 27 28  2  0
 28 29  1  0
 29 30  1  0
 30 31  1  0
 31 32  1  0
 31 33  1  0
 31 34  1  0
 29 35  2  0
 35 36  1  0
 36 37  2  0
 16 11  2  0
 21  2  1  0
 37 27  1  0
M  END
$$$$
