
     RDKit          3D

 37 39  0  0  0  0  0  0  0  0999 V2000
  -19.8848  -39.4121   -4.6228 C   0  0  0  0  0  0  0  0  0  0  0  0
  -19.7871  -38.8591   -6.0508 C   0  0  2  0  0  0  0  0  0  0  0  0
  -21.1691  -38.6635   -6.5595 C   0  0  0  0  0  0  0  0  0  0  0  0
  -22.0246  -39.8776   -6.6438 C   0  0  0  0  0  0  0  0  0  0  0  0
  -23.0209  -40.0096   -5.4953 C   0  0  0  0  0  0  0  0  0  0  0  0
  -24.0999  -41.0118   -5.8261 C   0  0  0  0  0  0  0  0  0  0  0  0
  -23.6285  -42.0915   -6.7509 C   0  0  0  0  0  0  0  0  0  0  0  0
  -22.8405  -43.1814   -6.0574 C   0  0  0  0  0  0  0  0  0  0  0  0
  -22.8486  -44.4146   -6.8733 C   0  0  0  0  0  0  0  0  0  0  0  0
  -21.7524  -44.7018   -7.6467 O   0  0  0  0  0  0  0  0  0  0  0  0
  -20.5284  -44.1695   -7.9803 C   0  0  0  0  0  0  0  0  0  0  0  0
  -20.2334  -42.9472   -8.5726 C   0  0  0  0  0  0  0  0  0  0  0  0
  -18.9237  -42.6100   -8.8206 C   0  0  0  0  0  0  0  0  0  0  0  0
  -17.9093  -43.5353   -8.4593 C   0  0  0  0  0  0  0  0  0  0  0  0
  -18.1502  -44.7496   -7.8753 C   0  0  0  0  0  0  0  0  0  0  0  0
  -19.4725  -45.0400   -7.6477 C   0  0  0  0  0  0  0  0  0  0  0  0
  -18.3001  -41.4291   -9.4262 C   0  0  0  0  0  0  0  0  0  0  0  0
  -17.3508  -41.6584  -10.3337 O   0  0  0  0  0  0  0  0  0  0  0  0
  -18.4887  -40.0360   -9.2541 N   0  0  0  0  0  0  0  0  0  0  0  0
  -18.3120  -39.2340   -8.0720 C   0  0  1  0  0  0  0  0  0  0  0  0
  -18.9105  -39.7830   -6.8238 C   0  0  0  0  0  0  0  0  0  0  0  0
  -16.8689  -38.8360   -7.8521 C   0  0  2  0  0  0  0  0  0  0  0  0
  -16.7699  -37.6265   -7.1686 O   0  0  0  0  0  0  0  0  0  0  0  0
  -16.1191  -38.7346   -9.1327 C   0  0  0  0  0  0  0  0  0  0  0  0
  -14.6787  -38.6029   -8.9041 N   0  0  0  0  0  0  0  0  0  0  0  0
  -14.0319  -38.2231  -10.1521 C   0  0  0  0  0  0  0  0  0  0  0  0
  -13.6874  -39.4861  -10.8540 C   0  0  0  0  0  0  0  0  0  0  0  0
  -12.4461  -40.0406  -10.6290 C   0  0  0  0  0  0  0  0  0  0  0  0
  -12.0895  -41.2223  -11.2704 C   0  0  0  0  0  0  0  0  0  0  0  0
  -10.7544  -41.8496  -11.0478 C   0  0  0  0  0  0  0  0  0  0  0  0
  -10.8194  -42.6782   -9.7747 C   0  0  0  0  0  0  0  0  0  0  0  0
  -11.3239  -41.8007   -8.6631 C   0  0  0  0  0  0  0  0  0  0  0  0
  -11.7337  -43.8552  -10.0340 C   0  0  0  0  0  0  0  0  0  0  0  0
   -9.4671  -43.2096   -9.3968 C   0  0  0  0  0  0  0  0  0  0  0  0
  -13.0240  -41.7775  -12.1115 C   0  0  0  0  0  0  0  0  0  0  0  0
  -14.2364  -41.2277  -12.3256 N   0  0  0  0  0  0  0  0  0  0  0  0
  -14.5875  -40.0859  -11.7089 C   0  0  0  0  0  0  0  0  0  0  0  0
  2  1  1  1
  2  3  1  0
  3  4  1  0
  4  5  1  0
  5  6  1  0
  6  7  1  0
  7  8  1  0
  8  9  1  0
  9 10  1  0
 10 11  1  0
 11 12  1  0
 12 13  2  0
 13 14  1  0
 14 15  2  0
 15 16  1  0
 13 17  1  0
 17 18  2  0
 17 19  1  0
 19 20  1  0
 20 21  1  1
 20 22  1  0
 22 23  1  6
 22 24  1  0
 24 25  1  0
 25 26  1  0
 26 27  1  0
 27 28  2  0
 28 29  1  0
 29 30  1  0
 30 31  1  0
 31 32  1  0
 31 33  1  0
 31 34  1  0
 29 35  2  0
 35 36  1  0
 36 37  2  0
 16 11  2  0
 21  2  1  0
 37 27  1  0
M  END
$$$$
