
     RDKit          3D

 37 39  0  0  0  0  0  0  0  0999 V2000
  -19.7057  -39.5058   -5.3296 C   0  0  0  0  0  0  0  0  0  0  0  0
  -18.9998  -39.0825   -6.6246 C   0  0  2  0  0  0  0  0  0  0  0  0
  -20.0188  -38.4831   -7.5243 C   0  0  0  0  0  0  0  0  0  0  0  0
  -21.1437  -39.3653   -7.9357 C   0  0  0  0  0  0  0  0  0  0  0  0
  -22.4350  -39.1180   -7.1609 C   0  0  0  0  0  0  0  0  0  0  0  0
  -23.6167  -39.7405   -7.8639 C   0  0  0  0  0  0  0  0  0  0  0  0
  -23.2489  -40.9576   -8.6554 C   0  0  0  0  0  0  0  0  0  0  0  0
  -23.1028  -42.2063   -7.8133 C   0  0  0  0  0  0  0  0  0  0  0  0
  -23.2471  -43.4112   -8.6583 C   0  0  0  0  0  0  0  0  0  0  0  0
  -22.1154  -44.0688   -9.0692 O   0  0  0  0  0  0  0  0  0  0  0  0
  -20.7461  -43.9697   -8.9780 C   0  0  0  0  0  0  0  0  0  0  0  0
  -19.9110  -42.9346   -9.3818 C   0  0  0  0  0  0  0  0  0  0  0  0
  -18.5533  -43.0433   -9.1936 C   0  0  0  0  0  0  0  0  0  0  0  0
  -18.0491  -44.2241   -8.5877 C   0  0  0  0  0  0  0  0  0  0  0  0
  -18.8306  -45.2692   -8.1746 C   0  0  0  0  0  0  0  0  0  0  0  0
  -20.1784  -45.1132   -8.3835 C   0  0  0  0  0  0  0  0  0  0  0  0
  -17.4326  -42.1524   -9.5106 C   0  0  0  0  0  0  0  0  0  0  0  0
  -16.3726  -42.7151  -10.0911 O   0  0  0  0  0  0  0  0  0  0  0  0
  -17.2141  -40.7649   -9.3289 N   0  0  0  0  0  0  0  0  0  0  0  0
  -17.1689  -40.0041   -8.1078 C   0  0  1  0  0  0  0  0  0  0  0  0
  -18.2665  -40.2734   -7.1382 C   0  0  0  0  0  0  0  0  0  0  0  0
  -15.8176  -40.0748   -7.4307 C   0  0  2  0  0  0  0  0  0  0  0  0
  -15.5580  -38.9275   -6.6850 O   0  0  0  0  0  0  0  0  0  0  0  0
  -14.7159  -40.2796   -8.4089 C   0  0  0  0  0  0  0  0  0  0  0  0
  -13.7656  -39.1657   -8.3904 N   0  0  0  0  0  0  0  0  0  0  0  0
  -12.6600  -39.4688   -9.2881 C   0  0  0  0  0  0  0  0  0  0  0  0
  -13.0636  -38.9920  -10.6358 C   0  0  0  0  0  0  0  0  0  0  0  0
  -12.5860  -37.7736  -11.0674 C   0  0  0  0  0  0  0  0  0  0  0  0
  -12.9445  -37.2955  -12.3236 C   0  0  0  0  0  0  0  0  0  0  0  0
  -12.4440  -35.9815  -12.8219 C   0  0  0  0  0  0  0  0  0  0  0  0
  -13.3281  -34.8835  -12.2520 C   0  0  0  0  0  0  0  0  0  0  0  0
  -14.5460  -34.7550  -13.1240 C   0  0  0  0  0  0  0  0  0  0  0  0
  -13.6800  -35.2629  -10.8305 C   0  0  0  0  0  0  0  0  0  0  0  0
  -12.6126  -33.5640  -12.2216 C   0  0  0  0  0  0  0  0  0  0  0  0
  -13.7756  -38.0911  -13.0757 C   0  0  0  0  0  0  0  0  0  0  0  0
  -14.2380  -39.2821  -12.6449 N   0  0  0  0  0  0  0  0  0  0  0  0
  -13.8954  -39.7501  -11.4321 C   0  0  0  0  0  0  0  0  0  0  0  0
  2  1  1  1
  2  3  1  0
  3  4  1  0
  4  5  1  0
  5  6  1  0
  6  7  1  0
  7  8  1  0
  8  9  1  0
  9 10  1  0
 10 11  1  0
 11 12  1  0
 12 13  2  0
 13 14  1  0
 14 15  2  0
 15 16  1  0
 13 17  1  0
 17 18  2  0
 17 19  1  0
 19 20  1  0
 20 21  1  1
 20 22  1  0
 22 23  1  6
 22 24  1  0
 24 25  1  0
 25 26  1  0
 26 27  1  0
 27 28  2  0
 28 29  1  0
 29 30  1  0
 30 31  1  0
 31 32  1  0
 31 33  1  0
 31 34  1  0
 29 35  2  0
 35 36  1  0
 36 37  2  0
 16 11  2  0
 21  2  1  0
 37 27  1  0
M  END
$$$$
