
     RDKit          3D

 37 39  0  0  0  0  0  0  0  0999 V2000
  -19.6421  -39.5199   -4.8637 C   0  0  0  0  0  0  0  0  0  0  0  0
  -19.4180  -39.0036   -6.2911 C   0  0  2  0  0  0  0  0  0  0  0  0
  -20.7451  -38.6676   -6.8681 C   0  0  0  0  0  0  0  0  0  0  0  0
  -21.7228  -39.7831   -6.9805 C   0  0  0  0  0  0  0  0  0  0  0  0
  -22.7803  -39.7882   -5.8802 C   0  0  0  0  0  0  0  0  0  0  0  0
  -23.9453  -40.6728   -6.2520 C   0  0  0  0  0  0  0  0  0  0  0  0
  -23.5515  -41.8117   -7.1413 C   0  0  0  0  0  0  0  0  0  0  0  0
  -22.9202  -42.9694   -6.3989 C   0  0  0  0  0  0  0  0  0  0  0  0
  -23.0244  -44.2073   -7.2011 C   0  0  0  0  0  0  0  0  0  0  0  0
  -21.9310  -44.6237   -7.9174 O   0  0  0  0  0  0  0  0  0  0  0  0
  -20.6419  -44.2325   -8.1972 C   0  0  0  0  0  0  0  0  0  0  0  0
  -20.1882  -43.0588   -8.7876 C   0  0  0  0  0  0  0  0  0  0  0  0
  -18.8393  -42.8695   -8.9757 C   0  0  0  0  0  0  0  0  0  0  0  0
  -17.9498  -43.8933   -8.5558 C   0  0  0  0  0  0  0  0  0  0  0  0
  -18.3486  -45.0649   -7.9712 C   0  0  0  0  0  0  0  0  0  0  0  0
  -19.7039  -45.2067   -7.8046 C   0  0  0  0  0  0  0  0  0  0  0  0
  -18.0632  -41.7728   -9.5630 C   0  0  0  0  0  0  0  0  0  0  0  0
  -17.1030  -42.1179  -10.4210 O   0  0  0  0  0  0  0  0  0  0  0  0
  -18.1068  -40.3648   -9.4151 N   0  0  0  0  0  0  0  0  0  0  0  0
  -17.8994  -39.5680   -8.2345 C   0  0  1  0  0  0  0  0  0  0  0  0
  -18.6119  -40.0291   -7.0109 C   0  0  0  0  0  0  0  0  0  0  0  0
  -16.4335  -39.3252   -7.9494 C   0  0  2  0  0  0  0  0  0  0  0  0
  -16.2261  -38.0812   -7.3582 O   0  0  0  0  0  0  0  0  0  0  0  0
  -15.6041  -39.4238   -9.1803 C   0  0  0  0  0  0  0  0  0  0  0  0
  -14.1812  -39.2410   -8.8867 N   0  0  0  0  0  0  0  0  0  0  0  0
  -13.3942  -39.8688   -9.9387 C   0  0  0  0  0  0  0  0  0  0  0  0
  -13.5937  -39.0523  -11.1636 C   0  0  0  0  0  0  0  0  0  0  0  0
  -13.8841  -37.7134  -11.0157 C   0  0  0  0  0  0  0  0  0  0  0  0
  -14.0782  -36.9191  -12.1410 C   0  0  0  0  0  0  0  0  0  0  0  0
  -14.3924  -35.4661  -12.0162 C   0  0  0  0  0  0  0  0  0  0  0  0
  -13.1073  -34.6781  -12.2140 C   0  0  0  0  0  0  0  0  0  0  0  0
  -12.1084  -35.1347  -11.1874 C   0  0  0  0  0  0  0  0  0  0  0  0
  -12.6268  -34.9224  -13.6275 C   0  0  0  0  0  0  0  0  0  0  0  0
  -13.3364  -33.2040  -12.0449 C   0  0  0  0  0  0  0  0  0  0  0  0
  -13.9650  -37.5374  -13.3633 C   0  0  0  0  0  0  0  0  0  0  0  0
  -13.6805  -38.8484  -13.4983 N   0  0  0  0  0  0  0  0  0  0  0  0
  -13.4916  -39.6217  -12.4150 C   0  0  0  0  0  0  0  0  0  0  0  0
  2  1  1  1
  2  3  1  0
  3  4  1  0
  4  5  1  0
  5  6  1  0
  6  7  1  0
  7  8  1  0
  8  9  1  0
  9 10  1  0
 10 11  1  0
 11 12  1  0
 12 13  2  0
 13 14  1  0
 14 15  2  0
 15 16  1  0
 13 17  1  0
 17 18  2  0
 17 19  1  0
 19 20  1  0
 20 21  1  1
 20 22  1  0
 22 23  1  6
 22 24  1  0
 24 25  1  0
 25 26  1  0
 26 27  1  0
 27 28  2  0
 28 29  1  0
 29 30  1  0
 30 31  1  0
 31 32  1  0
 31 33  1  0
 31 34  1  0
 29 35  2  0
 35 36  1  0
 36 37  2  0
 16 11  2  0
 21  2  1  0
 37 27  1  0
M  END
$$$$
