
     RDKit          3D

 37 39  0  0  0  0  0  0  0  0999 V2000
  -19.9810  -39.1928   -5.0432 C   0  0  0  0  0  0  0  0  0  0  0  0
  -19.7655  -38.7522   -6.4971 C   0  0  2  0  0  0  0  0  0  0  0  0
  -21.0930  -38.4154   -7.0728 C   0  0  0  0  0  0  0  0  0  0  0  0
  -22.0961  -39.5130   -7.1176 C   0  0  0  0  0  0  0  0  0  0  0  0
  -23.1380  -39.4405   -6.0049 C   0  0  0  0  0  0  0  0  0  0  0  0
  -24.3270  -40.3161   -6.3176 C   0  0  0  0  0  0  0  0  0  0  0  0
  -23.9704  -41.5057   -7.1546 C   0  0  0  0  0  0  0  0  0  0  0  0
  -23.3540  -42.6394   -6.3642 C   0  0  0  0  0  0  0  0  0  0  0  0
  -23.4961  -43.9125   -7.1029 C   0  0  0  0  0  0  0  0  0  0  0  0
  -22.4220  -44.3878   -7.8118 O   0  0  0  0  0  0  0  0  0  0  0  0
  -21.1289  -44.0397   -8.1270 C   0  0  0  0  0  0  0  0  0  0  0  0
  -20.6580  -42.9068   -8.7804 C   0  0  0  0  0  0  0  0  0  0  0  0
  -19.3081  -42.7570   -8.9949 C   0  0  0  0  0  0  0  0  0  0  0  0
  -18.4353  -43.7786   -8.5365 C   0  0  0  0  0  0  0  0  0  0  0  0
  -18.8512  -44.9110   -7.8897 C   0  0  0  0  0  0  0  0  0  0  0  0
  -20.2067  -45.0142   -7.6990 C   0  0  0  0  0  0  0  0  0  0  0  0
  -18.5167  -41.7081   -9.6455 C   0  0  0  0  0  0  0  0  0  0  0  0
  -17.5762  -42.1161  -10.4977 O   0  0  0  0  0  0  0  0  0  0  0  0
  -18.5277  -40.2939   -9.5667 N   0  0  0  0  0  0  0  0  0  0  0  0
  -18.2868  -39.4450   -8.4296 C   0  0  1  0  0  0  0  0  0  0  0  0
  -18.9920  -39.8295   -7.1757 C   0  0  0  0  0  0  0  0  0  0  0  0
  -16.8121  -39.2212   -8.1757 C   0  0  2  0  0  0  0  0  0  0  0  0
  -16.5759  -37.9792   -7.5914 O   0  0  0  0  0  0  0  0  0  0  0  0
  -16.0100  -39.3330   -9.4234 C   0  0  0  0  0  0  0  0  0  0  0  0
  -14.8085  -40.1448   -9.2200 N   0  0  0  0  0  0  0  0  0  0  0  0
  -14.1162  -40.2966  -10.4920 C   0  0  0  0  0  0  0  0  0  0  0  0
  -14.1328  -38.9634  -11.1468 C   0  0  0  0  0  0  0  0  0  0  0  0
  -13.0077  -38.5582  -11.8315 C   0  0  0  0  0  0  0  0  0  0  0  0
  -12.9878  -37.3152  -12.4558 C   0  0  0  0  0  0  0  0  0  0  0  0
  -11.7866  -36.8469  -13.2064 C   0  0  0  0  0  0  0  0  0  0  0  0
  -10.9826  -35.9277  -12.3007 C   0  0  0  0  0  0  0  0  0  0  0  0
  -11.8063  -34.7026  -12.0168 C   0  0  0  0  0  0  0  0  0  0  0  0
  -10.6471  -36.6957  -11.0412 C   0  0  0  0  0  0  0  0  0  0  0  0
   -9.6960  -35.5067  -12.9497 C   0  0  0  0  0  0  0  0  0  0  0  0
  -14.1233  -36.5485  -12.3469 C   0  0  0  0  0  0  0  0  0  0  0  0
  -15.2197  -36.9534  -11.6746 N   0  0  0  0  0  0  0  0  0  0  0  0
  -15.2457  -38.1534  -11.0691 C   0  0  0  0  0  0  0  0  0  0  0  0
  2  1  1  1
  2  3  1  0
  3  4  1  0
  4  5  1  0
  5  6  1  0
  6  7  1  0
  7  8  1  0
  8  9  1  0
  9 10  1  0
 10 11  1  0
 11 12  1  0
 12 13  2  0
 13 14  1  0
 14 15  2  0
 15 16  1  0
 13 17  1  0
 17 18  2  0
 17 19  1  0
 19 20  1  0
 20 21  1  1
 20 22  1  0
 22 23  1  6
 22 24  1  0
 24 25  1  0
 25 26  1  0
 26 27  1  0
 27 28  2  0
 28 29  1  0
 29 30  1  0
 30 31  1  0
 31 32  1  0
 31 33  1  0
 31 34  1  0
 29 35  2  0
 35 36  1  0
 36 37  2  0
 16 11  2  0
 21  2  1  0
 37 27  1  0
M  END
$$$$
