
     RDKit          3D

 37 39  0  0  0  0  0  0  0  0999 V2000
  -18.8162  -43.8660  -10.3607 C   0  0  0  0  0  0  0  0  0  0  0  0
  -18.1546  -43.7426   -8.9818 C   0  0  2  0  0  0  0  0  0  0  0  0
  -18.6312  -44.8735   -8.1446 C   0  0  0  0  0  0  0  0  0  0  0  0
  -20.0960  -44.9452   -7.8956 C   0  0  0  0  0  0  0  0  0  0  0  0
  -20.8199  -45.9654   -8.7698 C   0  0  0  0  0  0  0  0  0  0  0  0
  -22.1911  -46.2745   -8.2200 C   0  0  0  0  0  0  0  0  0  0  0  0
  -22.7937  -45.1229   -7.4758 C   0  0  0  0  0  0  0  0  0  0  0  0
  -23.4017  -44.0708   -8.3776 C   0  0  0  0  0  0  0  0  0  0  0  0
  -24.3874  -43.2635   -7.6270 C   0  0  0  0  0  0  0  0  0  0  0  0
  -24.0097  -42.0320   -7.1550 O   0  0  0  0  0  0  0  0  0  0  0  0
  -22.9058  -41.2119   -7.1124 C   0  0  0  0  0  0  0  0  0  0  0  0
  -21.6501  -41.4559   -6.5686 C   0  0  0  0  0  0  0  0  0  0  0  0
  -20.6791  -40.4847   -6.6366 C   0  0  0  0  0  0  0  0  0  0  0  0
  -21.0001  -39.2534   -7.2661 C   0  0  0  0  0  0  0  0  0  0  0  0
  -22.2210  -38.9667   -7.8148 C   0  0  0  0  0  0  0  0  0  0  0  0
  -23.1560  -39.9675   -7.7224 C   0  0  0  0  0  0  0  0  0  0  0  0
  -19.2929  -40.4320   -6.1616 C   0  0  0  0  0  0  0  0  0  0  0  0
  -18.9263  -39.3213   -5.5218 O   0  0  0  0  0  0  0  0  0  0  0  0
  -18.2066  -41.3378   -6.2347 N   0  0  0  0  0  0  0  0  0  0  0  0
  -17.5422  -41.8686   -7.3961 C   0  0  1  0  0  0  0  0  0  0  0  0
  -18.4345  -42.3686   -8.4783 C   0  0  0  0  0  0  0  0  0  0  0  0
  -16.4970  -40.9240   -7.9479 C   0  0  2  0  0  0  0  0  0  0  0  0
  -15.2728  -41.0815   -7.3025 O   0  0  0  0  0  0  0  0  0  0  0  0
  -16.9226  -39.5025   -7.8449 C   0  0  0  0  0  0  0  0  0  0  0  0
  -15.8379  -38.5882   -8.2077 N   0  0  0  0  0  0  0  0  0  0  0  0
  -16.3802  -37.2461   -8.3656 C   0  0  0  0  0  0  0  0  0  0  0  0
  -16.5826  -37.0380   -9.8224 C   0  0  0  0  0  0  0  0  0  0  0  0
  -15.8589  -36.0456  -10.4471 C   0  0  0  0  0  0  0  0  0  0  0  0
  -16.0242  -35.8222  -11.8101 C   0  0  0  0  0  0  0  0  0  0  0  0
  -15.2553  -34.7571  -12.5172 C   0  0  0  0  0  0  0  0  0  0  0  0
  -13.7941  -35.1742  -12.5698 C   0  0  0  0  0  0  0  0  0  0  0  0
  -13.2921  -35.3215  -11.1604 C   0  0  0  0  0  0  0  0  0  0  0  0
  -13.7098  -36.4704  -13.3452 C   0  0  0  0  0  0  0  0  0  0  0  0
  -12.9565  -34.1491  -13.2778 C   0  0  0  0  0  0  0  0  0  0  0  0
  -16.9241  -36.6281  -12.4657 C   0  0  0  0  0  0  0  0  0  0  0  0
  -17.6279  -37.5969  -11.8460 N   0  0  0  0  0  0  0  0  0  0  0  0
  -17.4729  -37.8181  -10.5291 C   0  0  0  0  0  0  0  0  0  0  0  0
  2  1  1  6
  2  3  1  0
  3  4  1  0
  4  5  1  0
  5  6  1  0
  6  7  1  0
  7  8  1  0
  8  9  1  0
  9 10  1  0
 10 11  1  0
 11 12  1  0
 12 13  2  0
 13 14  1  0
 14 15  2  0
 15 16  1  0
 13 17  1  0
 17 18  2  0
 17 19  1  0
 19 20  1  0
 20 21  1  6
 20 22  1  0
 22 23  1  1
 22 24  1  0
 24 25  1  0
 25 26  1  0
 26 27  1  0
 27 28  2  0
 28 29  1  0
 29 30  1  0
 30 31  1  0
 31 32  1  0
 31 33  1  0
 31 34  1  0
 29 35  2  0
 35 36  1  0
 36 37  2  0
 16 11  2  0
 21  2  1  0
 37 27  1  0
M  END
$$$$
