
     RDKit          3D

 37 39  0  0  0  0  0  0  0  0999 V2000
  -14.8056  -35.8579  -10.2934 C   0  0  0  0  0  0  0  0  0  0  0  0
  -14.1756  -36.9163   -9.3784 C   0  0  2  0  0  0  0  0  0  0  0  0
  -12.7548  -37.0794   -9.7808 C   0  0  0  0  0  0  0  0  0  0  0  0
  -12.5068  -37.5370  -11.1743 C   0  0  0  0  0  0  0  0  0  0  0  0
  -12.1086  -36.4149  -12.1291 C   0  0  0  0  0  0  0  0  0  0  0  0
  -11.5005  -36.9698  -13.3942 C   0  0  0  0  0  0  0  0  0  0  0  0
  -12.0332  -38.3231  -13.7517 C   0  0  0  0  0  0  0  0  0  0  0  0
  -13.3854  -38.2819  -14.4297 C   0  0  0  0  0  0  0  0  0  0  0  0
  -13.6134  -39.5301  -15.1892 C   0  0  0  0  0  0  0  0  0  0  0  0
  -14.3966  -40.5086  -14.6312 O   0  0  0  0  0  0  0  0  0  0  0  0
  -15.0971  -40.7679  -13.4758 C   0  0  0  0  0  0  0  0  0  0  0  0
  -14.6392  -40.8268  -12.1648 C   0  0  0  0  0  0  0  0  0  0  0  0
  -15.5219  -41.1048  -11.1479 C   0  0  0  0  0  0  0  0  0  0  0  0
  -16.8846  -41.3254  -11.4795 C   0  0  0  0  0  0  0  0  0  0  0  0
  -17.3821  -41.2787  -12.7538 C   0  0  0  0  0  0  0  0  0  0  0  0
  -16.4625  -40.9974  -13.7335 C   0  0  0  0  0  0  0  0  0  0  0  0
  -15.3542  -41.2427   -9.6978 C   0  0  0  0  0  0  0  0  0  0  0  0
  -15.9439  -42.2945   -9.1292 O   0  0  0  0  0  0  0  0  0  0  0  0
  -14.6757  -40.4730   -8.7214 N   0  0  0  0  0  0  0  0  0  0  0  0
  -14.8928  -39.1048   -8.3307 C   0  0  1  0  0  0  0  0  0  0  0  0
  -15.0373  -38.1297   -9.4469 C   0  0  0  0  0  0  0  0  0  0  0  0
  -16.0213  -38.9589   -7.3335 C   0  0  2  0  0  0  0  0  0  0  0  0
  -15.5863  -38.3647   -6.1513 O   0  0  0  0  0  0  0  0  0  0  0  0
  -16.6555  -40.2666   -7.0168 C   0  0  0  0  0  0  0  0  0  0  0  0
  -18.1168  -40.1747   -7.0354 N   0  0  0  0  0  0  0  0  0  0  0  0
  -18.6787  -41.5157   -6.9555 C   0  0  0  0  0  0  0  0  0  0  0  0
  -19.9643  -41.3949   -6.2212 C   0  0  0  0  0  0  0  0  0  0  0  0
  -21.1107  -41.1542   -6.9469 C   0  0  0  0  0  0  0  0  0  0  0  0
  -22.3320  -41.0342   -6.2917 C   0  0  0  0  0  0  0  0  0  0  0  0
  -23.5919  -40.7752   -7.0474 C   0  0  0  0  0  0  0  0  0  0  0  0
  -23.7104  -39.2781   -7.2847 C   0  0  0  0  0  0  0  0  0  0  0  0
  -25.0002  -39.0137   -8.0104 C   0  0  0  0  0  0  0  0  0  0  0  0
  -23.6604  -38.5902   -5.9383 C   0  0  0  0  0  0  0  0  0  0  0  0
  -22.5720  -38.7631   -8.1168 C   0  0  0  0  0  0  0  0  0  0  0  0
  -22.3173  -41.1670   -4.9238 C   0  0  0  0  0  0  0  0  0  0  0  0
  -21.1903  -41.4025   -4.2220 N   0  0  0  0  0  0  0  0  0  0  0  0
  -20.0069  -41.5197   -4.8488 C   0  0  0  0  0  0  0  0  0  0  0  0
  2  1  1  6
  2  3  1  0
  3  4  1  0
  4  5  1  0
  5  6  1  0
  6  7  1  0
  7  8  1  0
  8  9  1  0
  9 10  1  0
 10 11  1  0
 11 12  1  0
 12 13  2  0
 13 14  1  0
 14 15  2  0
 15 16  1  0
 13 17  1  0
 17 18  2  0
 17 19  1  0
 19 20  1  0
 20 21  1  6
 20 22  1  0
 22 23  1  1
 22 24  1  0
 24 25  1  0
 25 26  1  0
 26 27  1  0
 27 28  2  0
 28 29  1  0
 29 30  1  0
 30 31  1  0
 31 32  1  0
 31 33  1  0
 31 34  1  0
 29 35  2  0
 35 36  1  0
 36 37  2  0
 16 11  2  0
 21  2  1  0
 37 27  1  0
M  END
$$$$
