
     RDKit          3D

 37 39  0  0  0  0  0  0  0  0999 V2000
  -13.7070  -39.5572  -11.0618 C   0  0  0  0  0  0  0  0  0  0  0  0
  -13.6830  -39.8097   -9.5485 C   0  0  2  0  0  0  0  0  0  0  0  0
  -12.5465  -40.7209   -9.2564 C   0  0  0  0  0  0  0  0  0  0  0  0
  -12.5874  -42.0619   -9.8989 C   0  0  0  0  0  0  0  0  0  0  0  0
  -11.6930  -42.1825  -11.1295 C   0  0  0  0  0  0  0  0  0  0  0  0
  -11.4702  -43.6291  -11.4982 C   0  0  0  0  0  0  0  0  0  0  0  0
  -12.6198  -44.5107  -11.1185 C   0  0  0  0  0  0  0  0  0  0  0  0
  -13.7770  -44.4496  -12.0917 C   0  0  0  0  0  0  0  0  0  0  0  0
  -14.6174  -45.6594  -11.9613 C   0  0  0  0  0  0  0  0  0  0  0  0
  -15.7782  -45.5816  -11.2342 O   0  0  0  0  0  0  0  0  0  0  0  0
  -16.4940  -44.6776  -10.4836 C   0  0  0  0  0  0  0  0  0  0  0  0
  -16.1065  -43.9759   -9.3481 C   0  0  0  0  0  0  0  0  0  0  0  0
  -16.9914  -43.1113   -8.7479 C   0  0  0  0  0  0  0  0  0  0  0  0
  -18.2841  -42.9672   -9.3169 C   0  0  0  0  0  0  0  0  0  0  0  0
  -18.7112  -43.6362  -10.4320 C   0  0  0  0  0  0  0  0  0  0  0  0
  -17.7923  -44.4866  -10.9948 C   0  0  0  0  0  0  0  0  0  0  0  0
  -16.8919  -42.2532   -7.5631 C   0  0  0  0  0  0  0  0  0  0  0  0
  -17.9226  -42.2855   -6.7182 O   0  0  0  0  0  0  0  0  0  0  0  0
  -15.9010  -41.3561   -7.0947 N   0  0  0  0  0  0  0  0  0  0  0  0
  -15.3901  -40.1617   -7.7145 C   0  0  1  0  0  0  0  0  0  0  0  0
  -15.0408  -40.2816   -9.1572 C   0  0  0  0  0  0  0  0  0  0  0  0
  -16.2731  -38.9580   -7.4685 C   0  0  2  0  0  0  0  0  0  0  0  0
  -15.5649  -37.7667   -7.6070 O   0  0  0  0  0  0  0  0  0  0  0  0
  -16.9026  -38.9966   -6.1213 C   0  0  0  0  0  0  0  0  0  0  0  0
  -18.3377  -38.7134   -6.1894 N   0  0  0  0  0  0  0  0  0  0  0  0
  -18.6185  -37.9715   -7.4104 C   0  0  0  0  0  0  0  0  0  0  0  0
  -19.8327  -38.5826   -8.0094 C   0  0  0  0  0  0  0  0  0  0  0  0
  -20.9758  -38.6504   -7.2428 C   0  0  0  0  0  0  0  0  0  0  0  0
  -22.1309  -39.2173   -7.7712 C   0  0  0  0  0  0  0  0  0  0  0  0
  -23.3854  -39.3048   -6.9687 C   0  0  0  0  0  0  0  0  0  0  0  0
  -23.2413  -40.4467   -5.9753 C   0  0  0  0  0  0  0  0  0  0  0  0
  -24.4567  -40.4618   -5.0906 C   0  0  0  0  0  0  0  0  0  0  0  0
  -23.0911  -41.7297   -6.7626 C   0  0  0  0  0  0  0  0  0  0  0  0
  -22.0204  -40.2770   -5.1183 C   0  0  0  0  0  0  0  0  0  0  0  0
  -22.0568  -39.6872   -9.0608 C   0  0  0  0  0  0  0  0  0  0  0  0
  -20.9337  -39.6166   -9.8035 N   0  0  0  0  0  0  0  0  0  0  0  0
  -19.8140  -39.0699   -9.2990 C   0  0  0  0  0  0  0  0  0  0  0  0
  2  1  1  6
  2  3  1  0
  3  4  1  0
  4  5  1  0
  5  6  1  0
  6  7  1  0
  7  8  1  0
  8  9  1  0
  9 10  1  0
 10 11  1  0
 11 12  1  0
 12 13  2  0
 13 14  1  0
 14 15  2  0
 15 16  1  0
 13 17  1  0
 17 18  2  0
 17 19  1  0
 19 20  1  0
 20 21  1  6
 20 22  1  0
 22 23  1  1
 22 24  1  0
 24 25  1  0
 25 26  1  0
 26 27  1  0
 27 28  2  0
 28 29  1  0
 29 30  1  0
 30 31  1  0
 31 32  1  0
 31 33  1  0
 31 34  1  0
 29 35  2  0
 35 36  1  0
 36 37  2  0
 16 11  2  0
 21  2  1  0
 37 27  1  0
M  END
$$$$
