
     RDKit          3D

 37 39  0  0  0  0  0  0  0  0999 V2000
  -14.3942  -36.1302   -8.3455 C   0  0  0  0  0  0  0  0  0  0  0  0
  -14.4809  -37.6242   -8.6843 C   0  0  2  0  0  0  0  0  0  0  0  0
  -13.7409  -37.8477   -9.9530 C   0  0  0  0  0  0  0  0  0  0  0  0
  -14.2415  -37.1222  -11.1513 C   0  0  0  0  0  0  0  0  0  0  0  0
  -13.4298  -35.8782  -11.5014 C   0  0  0  0  0  0  0  0  0  0  0  0
  -13.7243  -35.4169  -12.9081 C   0  0  0  0  0  0  0  0  0  0  0  0
  -15.1153  -35.7507  -13.3514 C   0  0  0  0  0  0  0  0  0  0  0  0
  -16.1640  -34.7941  -12.8271 C   0  0  0  0  0  0  0  0  0  0  0  0
  -17.3774  -34.8555  -13.6700 C   0  0  0  0  0  0  0  0  0  0  0  0
  -18.4467  -35.5967  -13.2348 O   0  0  0  0  0  0  0  0  0  0  0  0
  -18.8096  -36.4094  -12.1857 C   0  0  0  0  0  0  0  0  0  0  0  0
  -18.2158  -37.5834  -11.7372 C   0  0  0  0  0  0  0  0  0  0  0  0
  -18.7486  -38.2451  -10.6560 C   0  0  0  0  0  0  0  0  0  0  0  0
  -19.9005  -37.6983  -10.0317 C   0  0  0  0  0  0  0  0  0  0  0  0
  -20.5202  -36.5471  -10.4370 C   0  0  0  0  0  0  0  0  0  0  0  0
  -19.9510  -35.9233  -11.5193 C   0  0  0  0  0  0  0  0  0  0  0  0
  -18.3702  -39.4807   -9.9632 C   0  0  0  0  0  0  0  0  0  0  0  0
  -19.3580  -40.3314   -9.6839 O   0  0  0  0  0  0  0  0  0  0  0  0
  -17.1339  -39.9958   -9.5026 N   0  0  0  0  0  0  0  0  0  0  0  0
  -16.2276  -39.4479   -8.5277 C   0  0  1  0  0  0  0  0  0  0  0  0
  -15.9232  -37.9974   -8.6724 C   0  0  0  0  0  0  0  0  0  0  0  0
  -16.6349  -39.7776   -7.1083 C   0  0  2  0  0  0  0  0  0  0  0  0
  -15.7089  -39.2974   -6.1853 O   0  0  0  0  0  0  0  0  0  0  0  0
  -16.8103  -41.2408   -6.9061 C   0  0  0  0  0  0  0  0  0  0  0  0
  -17.7708  -41.8042   -7.8570 N   0  0  0  0  0  0  0  0  0  0  0  0
  -17.8414  -43.2457   -7.6638 C   0  0  0  0  0  0  0  0  0  0  0  0
  -19.2133  -43.5427   -7.1777 C   0  0  0  0  0  0  0  0  0  0  0  0
  -20.1313  -42.5155   -7.1454 C   0  0  0  0  0  0  0  0  0  0  0  0
  -21.4250  -42.7575   -6.6948 C   0  0  0  0  0  0  0  0  0  0  0  0
  -22.4433  -41.6683   -6.6485 C   0  0  0  0  0  0  0  0  0  0  0  0
  -22.2975  -40.9305   -5.3272 C   0  0  0  0  0  0  0  0  0  0  0  0
  -23.2712  -41.5199   -4.3451 C   0  0  0  0  0  0  0  0  0  0  0  0
  -20.8633  -41.0786   -4.8695 C   0  0  0  0  0  0  0  0  0  0  0  0
  -22.5914  -39.4663   -5.4815 C   0  0  0  0  0  0  0  0  0  0  0  0
  -21.7136  -44.0418   -6.2994 C   0  0  0  0  0  0  0  0  0  0  0  0
  -20.8087  -45.0407   -6.3346 N   0  0  0  0  0  0  0  0  0  0  0  0
  -19.5568  -44.8138   -6.7689 C   0  0  0  0  0  0  0  0  0  0  0  0
  2  1  1  6
  2  3  1  0
  3  4  1  0
  4  5  1  0
  5  6  1  0
  6  7  1  0
  7  8  1  0
  8  9  1  0
  9 10  1  0
 10 11  1  0
 11 12  1  0
 12 13  2  0
 13 14  1  0
 14 15  2  0
 15 16  1  0
 13 17  1  0
 17 18  2  0
 17 19  1  0
 19 20  1  0
 20 21  1  1
 20 22  1  0
 22 23  1  1
 22 24  1  0
 24 25  1  0
 25 26  1  0
 26 27  1  0
 27 28  2  0
 28 29  1  0
 29 30  1  0
 30 31  1  0
 31 32  1  0
 31 33  1  0
 31 34  1  0
 29 35  2  0
 35 36  1  0
 36 37  2  0
 16 11  2  0
 21  2  1  0
 37 27  1  0
M  END
$$$$
