
     RDKit          3D

 37 39  0  0  0  0  0  0  0  0999 V2000
  -11.4373  -38.2853   -9.4561 C   0  0  0  0  0  0  0  0  0  0  0  0
  -12.5255  -39.3668   -9.4345 C   0  0  2  0  0  0  0  0  0  0  0  0
  -12.3333  -40.2309  -10.6275 C   0  0  0  0  0  0  0  0  0  0  0  0
  -12.4377  -39.5657  -11.9540 C   0  0  0  0  0  0  0  0  0  0  0  0
  -11.0880  -39.2628  -12.5987 C   0  0  0  0  0  0  0  0  0  0  0  0
  -11.2451  -38.9610  -14.0692 C   0  0  0  0  0  0  0  0  0  0  0  0
  -12.5702  -38.3459  -14.3994 C   0  0  0  0  0  0  0  0  0  0  0  0
  -12.6428  -36.8651  -14.0963 C   0  0  0  0  0  0  0  0  0  0  0  0
  -13.7267  -36.2364  -14.8815 C   0  0  0  0  0  0  0  0  0  0  0  0
  -14.9282  -35.9884  -14.2676 O   0  0  0  0  0  0  0  0  0  0  0  0
  -15.5474  -36.1642  -13.0516 C   0  0  0  0  0  0  0  0  0  0  0  0
  -15.7901  -37.3397  -12.3506 C   0  0  0  0  0  0  0  0  0  0  0  0
  -16.4326  -37.2870  -11.1361 C   0  0  0  0  0  0  0  0  0  0  0  0
  -16.8304  -36.0183  -10.6383 C   0  0  0  0  0  0  0  0  0  0  0  0
  -16.6145  -34.8350  -11.2915 C   0  0  0  0  0  0  0  0  0  0  0  0
  -15.9695  -34.9397  -12.4989 C   0  0  0  0  0  0  0  0  0  0  0  0
  -16.8342  -38.3234  -10.1798 C   0  0  0  0  0  0  0  0  0  0  0  0
  -18.0722  -38.2348   -9.6931 O   0  0  0  0  0  0  0  0  0  0  0  0
  -16.1706  -39.4482   -9.6317 N   0  0  0  0  0  0  0  0  0  0  0  0
  -14.9781  -39.4971   -8.8270 C   0  0  1  0  0  0  0  0  0  0  0  0
  -13.8375  -38.6717   -9.3120 C   0  0  0  0  0  0  0  0  0  0  0  0
  -15.2555  -39.2322   -7.3633 C   0  0  2  0  0  0  0  0  0  0  0  0
  -14.6374  -40.1757   -6.5462 O   0  0  0  0  0  0  0  0  0  0  0  0
  -16.7134  -39.2130   -7.0686 C   0  0  0  0  0  0  0  0  0  0  0  0
  -17.3091  -40.5429   -7.2119 N   0  0  0  0  0  0  0  0  0  0  0  0
  -18.5133  -40.6149   -6.3964 C   0  0  0  0  0  0  0  0  0  0  0  0
  -19.6416  -40.1950   -7.2665 C   0  0  0  0  0  0  0  0  0  0  0  0
  -20.8488  -40.8453   -7.1298 C   0  0  0  0  0  0  0  0  0  0  0  0
  -21.9267  -40.4788   -7.9290 C   0  0  0  0  0  0  0  0  0  0  0  0
  -23.2475  -41.1613   -7.8054 C   0  0  0  0  0  0  0  0  0  0  0  0
  -24.0009  -40.5417   -6.6392 C   0  0  0  0  0  0  0  0  0  0  0  0
  -23.9739  -39.0470   -6.7977 C   0  0  0  0  0  0  0  0  0  0  0  0
  -25.4097  -41.0929   -6.6525 C   0  0  0  0  0  0  0  0  0  0  0  0
  -23.3694  -40.9011   -5.3255 C   0  0  0  0  0  0  0  0  0  0  0  0
  -21.7134  -39.4627   -8.8297 C   0  0  0  0  0  0  0  0  0  0  0  0
  -20.5284  -38.8320   -8.9564 N   0  0  0  0  0  0  0  0  0  0  0  0
  -19.4827  -39.1812   -8.1872 C   0  0  0  0  0  0  0  0  0  0  0  0
  2  1  1  6
  2  3  1  0
  3  4  1  0
  4  5  1  0
  5  6  1  0
  6  7  1  0
  7  8  1  0
  8  9  1  0
  9 10  1  0
 10 11  1  0
 11 12  1  0
 12 13  2  0
 13 14  1  0
 14 15  2  0
 15 16  1  0
 13 17  1  0
 17 18  2  0
 17 19  1  0
 19 20  1  0
 20 21  1  6
 20 22  1  0
 22 23  1  1
 22 24  1  0
 24 25  1  0
 25 26  1  0
 26 27  1  0
 27 28  2  0
 28 29  1  0
 29 30  1  0
 30 31  1  0
 31 32  1  0
 31 33  1  0
 31 34  1  0
 29 35  2  0
 35 36  1  0
 36 37  2  0
 16 11  2  0
 21  2  1  0
 37 27  1  0
M  END
$$$$
