
     RDKit          3D

 37 39  0  0  0  0  0  0  0  0999 V2000
  -20.0720  -39.4329   -5.1899 C   0  0  0  0  0  0  0  0  0  0  0  0
  -19.3883  -38.9265   -6.4668 C   0  0  2  0  0  0  0  0  0  0  0  0
  -20.4177  -38.2507   -7.2979 C   0  0  0  0  0  0  0  0  0  0  0  0
  -21.5639  -39.0864   -7.7460 C   0  0  0  0  0  0  0  0  0  0  0  0
  -22.8345  -38.8791   -6.9264 C   0  0  0  0  0  0  0  0  0  0  0  0
  -24.0400  -39.4340   -7.6453 C   0  0  0  0  0  0  0  0  0  0  0  0
  -23.7070  -40.5954   -8.5303 C   0  0  0  0  0  0  0  0  0  0  0  0
  -23.5607  -41.9034   -7.7835 C   0  0  0  0  0  0  0  0  0  0  0  0
  -23.7407  -43.0423   -8.7094 C   0  0  0  0  0  0  0  0  0  0  0  0
  -22.6278  -43.6830   -9.1920 O   0  0  0  0  0  0  0  0  0  0  0  0
  -21.2556  -43.6084   -9.1249 C   0  0  0  0  0  0  0  0  0  0  0  0
  -20.4145  -42.5577   -9.4722 C   0  0  0  0  0  0  0  0  0  0  0  0
  -19.0548  -42.6971   -9.3230 C   0  0  0  0  0  0  0  0  0  0  0  0
  -18.5547  -43.9249   -8.8150 C   0  0  0  0  0  0  0  0  0  0  0  0
  -19.3422  -44.9869   -8.4605 C   0  0  0  0  0  0  0  0  0  0  0  0
  -20.6918  -44.7989   -8.6271 C   0  0  0  0  0  0  0  0  0  0  0  0
  -17.9285  -41.8002   -9.6005 C   0  0  0  0  0  0  0  0  0  0  0  0
  -16.8895  -42.3331  -10.2438 O   0  0  0  0  0  0  0  0  0  0  0  0
  -17.6861  -40.4323   -9.3247 N   0  0  0  0  0  0  0  0  0  0  0  0
  -17.6034  -39.7622   -8.0534 C   0  0  1  0  0  0  0  0  0  0  0  0
  -18.6836  -40.0865   -7.0810 C   0  0  0  0  0  0  0  0  0  0  0  0
  -16.2390  -39.8989   -7.4140 C   0  0  2  0  0  0  0  0  0  0  0  0
  -15.7593  -38.6713   -6.9637 O   0  0  0  0  0  0  0  0  0  0  0  0
  -15.2461  -40.4978   -8.3457 C   0  0  0  0  0  0  0  0  0  0  0  0
  -14.4305  -39.4703   -8.9964 N   0  0  0  0  0  0  0  0  0  0  0  0
  -14.9367  -39.2435  -10.3427 C   0  0  0  0  0  0  0  0  0  0  0  0
  -13.7560  -39.2307  -11.2441 C   0  0  0  0  0  0  0  0  0  0  0  0
  -13.5253  -38.1032  -12.0019 C   0  0  0  0  0  0  0  0  0  0  0  0
  -12.4297  -38.0569  -12.8578 C   0  0  0  0  0  0  0  0  0  0  0  0
  -12.1505  -36.8512  -13.6908 C   0  0  0  0  0  0  0  0  0  0  0  0
  -11.4204  -35.8320  -12.8308 C   0  0  0  0  0  0  0  0  0  0  0  0
  -12.3180  -35.4455  -11.6885 C   0  0  0  0  0  0  0  0  0  0  0  0
  -10.1310  -36.4649  -12.3560 C   0  0  0  0  0  0  0  0  0  0  0  0
  -11.0763  -34.5989  -13.6150 C   0  0  0  0  0  0  0  0  0  0  0  0
  -11.6242  -39.1700  -12.8944 C   0  0  0  0  0  0  0  0  0  0  0  0
  -11.8579  -40.2690  -12.1490 N   0  0  0  0  0  0  0  0  0  0  0  0
  -12.9148  -40.3203  -11.3198 C   0  0  0  0  0  0  0  0  0  0  0  0
  2  1  1  1
  2  3  1  0
  3  4  1  0
  4  5  1  0
  5  6  1  0
  6  7  1  0
  7  8  1  0
  8  9  1  0
  9 10  1  0
 10 11  1  0
 11 12  1  0
 12 13  2  0
 13 14  1  0
 14 15  2  0
 15 16  1  0
 13 17  1  0
 17 18  2  0
 17 19  1  0
 19 20  1  0
 20 21  1  1
 20 22  1  0
 22 23  1  6
 22 24  1  0
 24 25  1  0
 25 26  1  0
 26 27  1  0
 27 28  2  0
 28 29  1  0
 29 30  1  0
 30 31  1  0
 31 32  1  0
 31 33  1  0
 31 34  1  0
 29 35  2  0
 35 36  1  0
 36 37  2  0
 16 11  2  0
 21  2  1  0
 37 27  1  0
M  END
$$$$
