
     RDKit          3D

 37 39  0  0  0  0  0  0  0  0999 V2000
  -19.3544  -38.4005   -5.2014 C   0  0  0  0  0  0  0  0  0  0  0  0
  -18.7910  -38.4541   -6.6276 C   0  0  2  0  0  0  0  0  0  0  0  0
  -19.8833  -38.0827   -7.5636 C   0  0  0  0  0  0  0  0  0  0  0  0
  -21.0868  -38.9571   -7.5611 C   0  0  0  0  0  0  0  0  0  0  0  0
  -22.2640  -38.3820   -6.7785 C   0  0  0  0  0  0  0  0  0  0  0  0
  -23.5474  -39.0956   -7.1274 C   0  0  0  0  0  0  0  0  0  0  0  0
  -23.3305  -40.5224   -7.5276 C   0  0  0  0  0  0  0  0  0  0  0  0
  -23.1391  -41.4582   -6.3539 C   0  0  0  0  0  0  0  0  0  0  0  0
  -23.4360  -42.8496   -6.7572 C   0  0  0  0  0  0  0  0  0  0  0  0
  -22.3914  -43.6889   -7.0511 O   0  0  0  0  0  0  0  0  0  0  0  0
  -21.0181  -43.6749   -7.1334 C   0  0  0  0  0  0  0  0  0  0  0  0
  -20.1930  -42.8839   -7.9244 C   0  0  0  0  0  0  0  0  0  0  0  0
  -18.8286  -43.0361   -7.8484 C   0  0  0  0  0  0  0  0  0  0  0  0
  -18.3074  -44.0086   -6.9550 C   0  0  0  0  0  0  0  0  0  0  0  0
  -19.0786  -44.8103   -6.1575 C   0  0  0  0  0  0  0  0  0  0  0  0
  -20.4336  -44.6205   -6.2689 C   0  0  0  0  0  0  0  0  0  0  0  0
  -17.7162  -42.3776   -8.5406 C   0  0  0  0  0  0  0  0  0  0  0  0
  -16.7589  -43.1736   -9.0173 O   0  0  0  0  0  0  0  0  0  0  0  0
  -17.4172  -41.0235   -8.8283 N   0  0  0  0  0  0  0  0  0  0  0  0
  -17.1929  -39.9294   -7.9203 C   0  0  1  0  0  0  0  0  0  0  0  0
  -18.1772  -39.7992   -6.8104 C   0  0  0  0  0  0  0  0  0  0  0  0
  -15.7746  -39.8944   -7.3944 C   0  0  2  0  0  0  0  0  0  0  0  0
  -15.7419  -39.6299   -6.0273 O   0  0  0  0  0  0  0  0  0  0  0  0
  -14.9430  -38.8868   -8.1055 C   0  0  0  0  0  0  0  0  0  0  0  0
  -13.6517  -39.4450   -8.5122 N   0  0  0  0  0  0  0  0  0  0  0  0
  -13.8599  -40.3673   -9.6195 C   0  0  0  0  0  0  0  0  0  0  0  0
  -14.0426  -39.5358  -10.8368 C   0  0  0  0  0  0  0  0  0  0  0  0
  -13.2983  -38.3824  -10.9574 C   0  0  0  0  0  0  0  0  0  0  0  0
  -13.4446  -37.5790  -12.0835 C   0  0  0  0  0  0  0  0  0  0  0  0
  -12.6533  -36.3248  -12.2460 C   0  0  0  0  0  0  0  0  0  0  0  0
  -13.6189  -35.1758  -12.4884 C   0  0  0  0  0  0  0  0  0  0  0  0
  -14.3429  -34.8856  -11.2032 C   0  0  0  0  0  0  0  0  0  0  0  0
  -12.8150  -33.9892  -12.9724 C   0  0  0  0  0  0  0  0  0  0  0  0
  -14.6277  -35.5210  -13.5454 C   0  0  0  0  0  0  0  0  0  0  0  0
  -14.3476  -37.9984  -13.0311 C   0  0  0  0  0  0  0  0  0  0  0  0
  -15.0716  -39.1288  -12.9045 N   0  0  0  0  0  0  0  0  0  0  0  0
  -14.9350  -39.9098  -11.8188 C   0  0  0  0  0  0  0  0  0  0  0  0
  2  1  1  1
  2  3  1  0
  3  4  1  0
  4  5  1  0
  5  6  1  0
  6  7  1  0
  7  8  1  0
  8  9  1  0
  9 10  1  0
 10 11  1  0
 11 12  1  0
 12 13  2  0
 13 14  1  0
 14 15  2  0
 15 16  1  0
 13 17  1  0
 17 18  2  0
 17 19  1  0
 19 20  1  0
 20 21  1  1
 20 22  1  0
 22 23  1  1
 22 24  1  0
 24 25  1  0
 25 26  1  0
 26 27  1  0
 27 28  2  0
 28 29  1  0
 29 30  1  0
 30 31  1  0
 31 32  1  0
 31 33  1  0
 31 34  1  0
 29 35  2  0
 35 36  1  0
 36 37  2  0
 16 11  2  0
 21  2  1  0
 37 27  1  0
M  END
$$$$
