
     RDKit          3D

 37 39  0  0  0  0  0  0  0  0999 V2000
  -12.0025  -40.0085  -17.6899 C   0  0  0  0  0  0  0  0  0  0  0  0
  -13.3401  -40.6753  -17.3471 C   0  0  0  0  0  0  0  0  0  0  0  0
  -13.3684  -40.7948  -15.9097 N   0  0  0  0  0  0  0  0  0  0  0  0
  -13.3942  -39.5918  -15.1308 C   0  0  0  0  0  0  0  0  0  0  0  0
  -12.2023  -38.9338  -14.5644 C   0  0  0  0  0  0  0  0  0  0  0  0
  -11.7244  -39.2217  -13.2054 C   0  0  0  0  0  0  0  0  0  0  0  0
  -11.7979  -38.1534  -12.1041 C   0  0  0  0  0  0  0  0  0  0  0  0
  -11.6198  -38.7986  -10.7394 C   0  0  0  0  0  0  0  0  0  0  0  0
  -12.4898  -38.3636   -9.6011 C   0  0  1  0  0  0  0  0  0  0  0  0
  -13.2252  -37.0556   -9.7960 C   0  0  0  0  0  0  0  0  0  0  0  0
  -13.0717  -39.3164   -8.6460 C   0  0  0  0  0  0  0  0  0  0  0  0
  -14.4250  -39.7830   -8.4848 C   0  0  2  0  0  0  0  0  0  0  0  0
  -15.2508  -40.2235   -9.6402 N   0  0  0  0  0  0  0  0  0  0  0  0
  -14.6723  -40.6056  -10.8498 C   0  0  0  0  0  0  0  0  0  0  0  0
  -14.4297  -39.4098  -11.5317 O   0  0  0  0  0  0  0  0  0  0  0  0
  -14.1857  -41.6405  -11.7575 C   0  0  0  0  0  0  0  0  0  0  0  0
  -14.5012  -41.8219  -13.1276 C   0  0  0  0  0  0  0  0  0  0  0  0
  -13.5961  -42.4792  -13.9053 C   0  0  0  0  0  0  0  0  0  0  0  0
  -12.4136  -43.0236  -13.4059 C   0  0  0  0  0  0  0  0  0  0  0  0
  -12.0683  -42.9028  -12.0746 C   0  0  0  0  0  0  0  0  0  0  0  0
  -12.9705  -42.2097  -11.3239 C   0  0  0  0  0  0  0  0  0  0  0  0
  -13.3815  -42.1507  -15.3997 C   0  0  0  0  0  0  0  0  0  0  0  0
  -13.2106  -43.0944  -16.1493 O   0  0  0  0  0  0  0  0  0  0  0  0
  -15.3471  -38.9405   -7.6417 C   0  0  2  0  0  0  0  0  0  0  0  0
  -15.2128  -39.0947   -6.2870 O   0  0  0  0  0  0  0  0  0  0  0  0
  -16.7297  -38.8127   -8.1669 C   0  0  0  0  0  0  0  0  0  0  0  0
  -17.3496  -39.9773   -8.6814 N   0  0  0  0  0  0  0  0  0  0  0  0
  -18.6800  -39.8150   -9.2077 C   0  0  0  0  0  0  0  0  0  0  0  0
  -19.7108  -40.3233   -8.2496 C   0  0  0  0  0  0  0  0  0  0  0  0
  -20.5573  -39.4290   -7.6531 C   0  0  0  0  0  0  0  0  0  0  0  0
  -21.5555  -39.8242   -6.7541 C   0  0  0  0  0  0  0  0  0  0  0  0
  -21.6700  -41.1541   -6.4774 C   0  0  0  0  0  0  0  0  0  0  0  0
  -20.8202  -42.0572   -7.0753 C   0  0  0  0  0  0  0  0  0  0  0  0
  -19.8396  -41.6607   -7.9597 C   0  0  0  0  0  0  0  0  0  0  0  0
  -22.4338  -38.7944   -6.1458 C   0  0  0  0  0  0  0  0  0  0  0  0
  -22.3031  -38.8495   -4.6265 C   0  0  0  0  0  0  0  0  0  0  0  0
  -22.0804  -37.3944   -6.5933 C   0  0  0  0  0  0  0  0  0  0  0  0
  1  2  1  0
  2  3  1  0
  3  4  1  0
  4  5  1  0
  5  6  1  0
  6  7  1  0
  7  8  1  0
  8  9  1  0
  9 10  1  6
  9 11  1  0
 12 11  1  6
 12 13  1  0
 13 14  1  0
 14 15  2  0
 14 16  1  0
 16 17  2  0
 17 18  1  0
 18 19  2  0
 19 20  1  0
 20 21  2  0
 18 22  1  0
 22 23  2  0
 12 24  1  0
 24 25  1  1
 24 26  1  0
 26 27  1  0
 27 28  1  0
 28 29  1  0
 29 30  2  0
 30 31  1  0
 31 32  2  0
 32 33  1  0
 33 34  2  0
 31 35  1  0
 35 36  1  0
 35 37  1  0
 21 16  1  0
 22  3  1  0
 34 29  1  0
M  END
$$$$
