
     RDKit          3D

 37 39  0  0  0  0  0  0  0  0999 V2000
  -17.4546  -49.2201  -11.4052 C   0  0  0  0  0  0  0  0  0  0  0  0
  -18.7628  -48.4656  -11.1397 C   0  0  0  0  0  0  0  0  0  0  0  0
  -18.4038  -47.3115  -10.3521 N   0  0  0  0  0  0  0  0  0  0  0  0
  -17.6298  -46.2796  -10.9770 C   0  0  0  0  0  0  0  0  0  0  0  0
  -16.1604  -46.1755  -10.9085 C   0  0  0  0  0  0  0  0  0  0  0  0
  -15.4823  -45.3804   -9.8759 C   0  0  0  0  0  0  0  0  0  0  0  0
  -14.7122  -44.1041  -10.2467 C   0  0  0  0  0  0  0  0  0  0  0  0
  -14.4474  -43.2746   -9.0008 C   0  0  0  0  0  0  0  0  0  0  0  0
  -14.6224  -41.7886   -9.0559 C   0  0  1  0  0  0  0  0  0  0  0  0
  -14.6866  -41.1834  -10.4412 C   0  0  0  0  0  0  0  0  0  0  0  0
  -15.2574  -41.0297   -7.9699 C   0  0  0  0  0  0  0  0  0  0  0  0
  -16.5504  -40.3998   -7.8898 C   0  0  2  0  0  0  0  0  0  0  0  0
  -17.7938  -41.0926   -8.3200 N   0  0  0  0  0  0  0  0  0  0  0  0
  -17.8585  -42.4812   -8.4259 C   0  0  0  0  0  0  0  0  0  0  0  0
  -17.3098  -42.7773   -9.6769 O   0  0  0  0  0  0  0  0  0  0  0  0
  -18.2106  -43.7853   -7.8717 C   0  0  0  0  0  0  0  0  0  0  0  0
  -18.9747  -44.8155   -8.4753 C   0  0  0  0  0  0  0  0  0  0  0  0
  -18.7638  -46.0930   -8.0515 C   0  0  0  0  0  0  0  0  0  0  0  0
  -17.8807  -46.4201   -7.0234 C   0  0  0  0  0  0  0  0  0  0  0  0
  -17.1317  -45.4551   -6.3800 C   0  0  0  0  0  0  0  0  0  0  0  0
  -17.3318  -44.1898   -6.8456 C   0  0  0  0  0  0  0  0  0  0  0  0
  -18.8884  -47.3165   -8.9868 C   0  0  0  0  0  0  0  0  0  0  0  0
  -19.4125  -48.3115   -8.5209 O   0  0  0  0  0  0  0  0  0  0  0  0
  -16.6696  -39.0019   -8.4399 C   0  0  2  0  0  0  0  0  0  0  0  0
  -15.5393  -38.5029   -9.0318 O   0  0  0  0  0  0  0  0  0  0  0  0
  -17.4528  -38.0645   -7.5965 C   0  0  0  0  0  0  0  0  0  0  0  0
  -18.4945  -38.6043   -6.8037 N   0  0  0  0  0  0  0  0  0  0  0  0
  -19.6826  -37.8012   -6.6743 C   0  0  0  0  0  0  0  0  0  0  0  0
  -20.8704  -38.4845   -7.2752 C   0  0  0  0  0  0  0  0  0  0  0  0
  -21.8618  -38.9370   -6.4478 C   0  0  0  0  0  0  0  0  0  0  0  0
  -23.0100  -39.5764   -6.9311 C   0  0  0  0  0  0  0  0  0  0  0  0
  -23.1234  -39.7436   -8.2792 C   0  0  0  0  0  0  0  0  0  0  0  0
  -22.1282  -39.2899   -9.1152 C   0  0  0  0  0  0  0  0  0  0  0  0
  -21.0002  -38.6612   -8.6321 C   0  0  0  0  0  0  0  0  0  0  0  0
  -24.0408  -40.0415   -5.9702 C   0  0  0  0  0  0  0  0  0  0  0  0
  -25.1266  -40.8061   -6.7218 C   0  0  0  0  0  0  0  0  0  0  0  0
  -23.4732  -40.9588   -4.9112 C   0  0  0  0  0  0  0  0  0  0  0  0
  1  2  1  0
  2  3  1  0
  3  4  1  0
  4  5  1  0
  5  6  1  0
  6  7  1  0
  7  8  1  0
  8  9  1  0
  9 10  1  6
  9 11  1  0
 12 11  1  6
 12 13  1  0
 13 14  1  0
 14 15  2  0
 14 16  1  0
 16 17  2  0
 17 18  1  0
 18 19  2  0
 19 20  1  0
 20 21  2  0
 18 22  1  0
 22 23  2  0
 12 24  1  0
 24 25  1  1
 24 26  1  0
 26 27  1  0
 27 28  1  0
 28 29  1  0
 29 30  2  0
 30 31  1  0
 31 32  2  0
 32 33  1  0
 33 34  2  0
 31 35  1  0
 35 36  1  0
 35 37  1  0
 21 16  1  0
 22  3  1  0
 34 29  1  0
M  END
$$$$
