
     RDKit          3D

 37 39  0  0  0  0  0  0  0  0999 V2000
  -23.6760  -45.0252   -4.0548 C   0  0  0  0  0  0  0  0  0  0  0  0
  -23.3490  -45.5399   -5.4618 C   0  0  0  0  0  0  0  0  0  0  0  0
  -22.5103  -44.5349   -6.0682 N   0  0  0  0  0  0  0  0  0  0  0  0
  -21.8760  -43.5760   -5.2123 C   0  0  0  0  0  0  0  0  0  0  0  0
  -22.4176  -42.2396   -4.9037 C   0  0  0  0  0  0  0  0  0  0  0  0
  -22.0541  -41.0510   -5.6869 C   0  0  0  0  0  0  0  0  0  0  0  0
  -21.2130  -39.9268   -5.0639 C   0  0  0  0  0  0  0  0  0  0  0  0
  -20.6535  -39.0285   -6.1550 C   0  0  0  0  0  0  0  0  0  0  0  0
  -19.2361  -38.5548   -6.0627 C   0  0  1  0  0  0  0  0  0  0  0  0
  -18.5808  -38.6968   -4.7062 C   0  0  0  0  0  0  0  0  0  0  0  0
  -18.3441  -38.5074   -7.2291 C   0  0  0  0  0  0  0  0  0  0  0  0
  -17.2257  -39.3379   -7.5958 C   0  0  2  0  0  0  0  0  0  0  0  0
  -17.2901  -40.8220   -7.5311 N   0  0  0  0  0  0  0  0  0  0  0  0
  -18.5071  -41.5021   -7.5225 C   0  0  0  0  0  0  0  0  0  0  0  0
  -18.9352  -41.4665   -6.1925 O   0  0  0  0  0  0  0  0  0  0  0  0
  -19.5637  -42.2298   -8.2195 C   0  0  0  0  0  0  0  0  0  0  0  0
  -20.1277  -43.4867   -7.8856 C   0  0  0  0  0  0  0  0  0  0  0  0
  -21.3946  -43.7473   -8.3136 C   0  0  0  0  0  0  0  0  0  0  0  0
  -22.1300  -42.8648   -9.1037 C   0  0  0  0  0  0  0  0  0  0  0  0
  -21.6206  -41.6391   -9.4835 C   0  0  0  0  0  0  0  0  0  0  0  0
  -20.3669  -41.3847   -9.0131 C   0  0  0  0  0  0  0  0  0  0  0  0
  -22.3878  -44.6158   -7.5095 C   0  0  0  0  0  0  0  0  0  0  0  0
  -23.0867  -45.3818   -8.1469 O   0  0  0  0  0  0  0  0  0  0  0  0
  -15.8822  -38.9775   -7.0160 C   0  0  2  0  0  0  0  0  0  0  0  0
  -15.8803  -38.6666   -5.6818 O   0  0  0  0  0  0  0  0  0  0  0  0
  -15.0249  -38.1466   -7.8981 C   0  0  0  0  0  0  0  0  0  0  0  0
  -15.6486  -37.4639   -8.9705 N   0  0  0  0  0  0  0  0  0  0  0  0
  -14.8608  -37.2897  -10.1631 C   0  0  0  0  0  0  0  0  0  0  0  0
  -15.6897  -37.4732  -11.3953 C   0  0  0  0  0  0  0  0  0  0  0  0
  -16.9624  -36.9714  -11.4170 C   0  0  0  0  0  0  0  0  0  0  0  0
  -17.7981  -37.0911  -12.5341 C   0  0  0  0  0  0  0  0  0  0  0  0
  -17.3049  -37.7354  -13.6295 C   0  0  0  0  0  0  0  0  0  0  0  0
  -16.0250  -38.2420  -13.6118 C   0  0  0  0  0  0  0  0  0  0  0  0
  -15.2077  -38.1204  -12.5081 C   0  0  0  0  0  0  0  0  0  0  0  0
  -19.1677  -36.5224  -12.4805 C   0  0  0  0  0  0  0  0  0  0  0  0
  -19.2433  -35.4866  -11.3624 C   0  0  0  0  0  0  0  0  0  0  0  0
  -19.5636  -35.8436  -13.7718 C   0  0  0  0  0  0  0  0  0  0  0  0
  1  2  1  0
  2  3  1  0
  3  4  1  0
  4  5  1  0
  5  6  1  0
  6  7  1  0
  7  8  1  0
  8  9  1  0
  9 10  1  1
  9 11  1  0
 12 11  1  1
 12 13  1  0
 13 14  1  0
 14 15  2  0
 14 16  1  0
 16 17  2  0
 17 18  1  0
 18 19  2  0
 19 20  1  0
 20 21  2  0
 18 22  1  0
 22 23  2  0
 12 24  1  0
 24 25  1  1
 24 26  1  0
 26 27  1  0
 27 28  1  0
 28 29  1  0
 29 30  2  0
 30 31  1  0
 31 32  2  0
 32 33  1  0
 33 34  2  0
 31 35  1  0
 35 36  1  0
 35 37  1  0
 21 16  1  0
 22  3  1  0
 34 29  1  0
M  END
$$$$
