
     RDKit          3D

 37 39  0  0  0  0  0  0  0  0999 V2000
  -24.1434  -45.9464   -6.8559 C   0  0  0  0  0  0  0  0  0  0  0  0
  -22.8391  -46.0028   -6.0515 C   0  0  0  0  0  0  0  0  0  0  0  0
  -21.9304  -45.0909   -6.7025 N   0  0  0  0  0  0  0  0  0  0  0  0
  -21.9040  -43.7285   -6.2577 C   0  0  0  0  0  0  0  0  0  0  0  0
  -22.6735  -42.6308   -6.8720 C   0  0  0  0  0  0  0  0  0  0  0  0
  -22.1114  -41.7821   -7.9312 C   0  0  0  0  0  0  0  0  0  0  0  0
  -21.8112  -40.2980   -7.6722 C   0  0  0  0  0  0  0  0  0  0  0  0
  -20.8970  -39.7540   -8.7579 C   0  0  0  0  0  0  0  0  0  0  0  0
  -19.7664  -38.8474   -8.3812 C   0  0  1  0  0  0  0  0  0  0  0  0
  -19.8415  -38.2404   -6.9972 C   0  0  0  0  0  0  0  0  0  0  0  0
  -18.4319  -38.9602   -8.9851 C   0  0  0  0  0  0  0  0  0  0  0  0
  -17.1910  -39.4545   -8.4457 C   0  0  2  0  0  0  0  0  0  0  0  0
  -17.1116  -40.7352   -7.6945 N   0  0  0  0  0  0  0  0  0  0  0  0
  -18.0943  -41.7167   -7.8154 C   0  0  0  0  0  0  0  0  0  0  0  0
  -19.1156  -41.3188   -6.9481 O   0  0  0  0  0  0  0  0  0  0  0  0
  -18.5900  -42.9559   -8.4076 C   0  0  0  0  0  0  0  0  0  0  0  0
  -19.0998  -44.1002   -7.7442 C   0  0  0  0  0  0  0  0  0  0  0  0
  -19.9608  -44.9011   -8.4321 C   0  0  0  0  0  0  0  0  0  0  0  0
  -20.3135  -44.6776   -9.7624 C   0  0  0  0  0  0  0  0  0  0  0  0
  -19.8251  -43.5956  -10.4673 C   0  0  0  0  0  0  0  0  0  0  0  0
  -18.9955  -42.7882   -9.7478 C   0  0  0  0  0  0  0  0  0  0  0  0
  -21.1149  -45.6699   -7.7506 C   0  0  0  0  0  0  0  0  0  0  0  0
  -21.3251  -46.8031   -8.1421 O   0  0  0  0  0  0  0  0  0  0  0  0
  -16.3486  -38.4845   -7.6581 C   0  0  2  0  0  0  0  0  0  0  0  0
  -16.0941  -37.2883   -8.2756 O   0  0  0  0  0  0  0  0  0  0  0  0
  -15.2276  -39.1007   -6.9049 C   0  0  0  0  0  0  0  0  0  0  0  0
  -14.2066  -39.7405   -7.6489 N   0  0  0  0  0  0  0  0  0  0  0  0
  -13.1341  -38.9015   -8.1171 C   0  0  0  0  0  0  0  0  0  0  0  0
  -13.1696  -38.7517   -9.6055 C   0  0  0  0  0  0  0  0  0  0  0  0
  -13.3607  -37.5070  -10.1405 C   0  0  0  0  0  0  0  0  0  0  0  0
  -13.3955  -37.2803  -11.5218 C   0  0  0  0  0  0  0  0  0  0  0  0
  -13.2308  -38.3540  -12.3455 C   0  0  0  0  0  0  0  0  0  0  0  0
  -13.0384  -39.6081  -11.8113 C   0  0  0  0  0  0  0  0  0  0  0  0
  -13.0053  -39.8237  -10.4499 C   0  0  0  0  0  0  0  0  0  0  0  0
  -13.6096  -35.9012  -12.0261 C   0  0  0  0  0  0  0  0  0  0  0  0
  -14.9849  -35.4079  -11.5856 C   0  0  0  0  0  0  0  0  0  0  0  0
  -12.5769  -34.9276  -11.5057 C   0  0  0  0  0  0  0  0  0  0  0  0
  1  2  1  0
  2  3  1  0
  3  4  1  0
  4  5  1  0
  5  6  1  0
  6  7  1  0
  7  8  1  0
  8  9  1  0
  9 10  1  1
  9 11  1  0
 12 11  1  1
 12 13  1  0
 13 14  1  0
 14 15  2  0
 14 16  1  0
 16 17  2  0
 17 18  1  0
 18 19  2  0
 19 20  1  0
 20 21  2  0
 18 22  1  0
 22 23  2  0
 12 24  1  0
 24 25  1  6
 24 26  1  0
 26 27  1  0
 27 28  1  0
 28 29  1  0
 29 30  2  0
 30 31  1  0
 31 32  2  0
 32 33  1  0
 33 34  2  0
 31 35  1  0
 35 36  1  0
 35 37  1  0
 21 16  1  0
 22  3  1  0
 34 29  1  0
M  END
$$$$
