
     RDKit          3D

 37 39  0  0  0  0  0  0  0  0999 V2000
  -23.2576  -46.1284   -4.6748 C   0  0  0  0  0  0  0  0  0  0  0  0
  -21.7610  -46.0959   -4.3427 C   0  0  0  0  0  0  0  0  0  0  0  0
  -21.1707  -45.1501   -5.2583 N   0  0  0  0  0  0  0  0  0  0  0  0
  -21.0532  -43.7846   -4.8386 C   0  0  0  0  0  0  0  0  0  0  0  0
  -22.0337  -42.7262   -5.1438 C   0  0  0  0  0  0  0  0  0  0  0  0
  -21.9056  -41.8617   -6.3247 C   0  0  0  0  0  0  0  0  0  0  0  0
  -21.6001  -40.3640   -6.1724 C   0  0  0  0  0  0  0  0  0  0  0  0
  -21.1374  -39.7888   -7.5011 C   0  0  0  0  0  0  0  0  0  0  0  0
  -19.9869  -38.8308   -7.5269 C   0  0  1  0  0  0  0  0  0  0  0  0
  -19.6102  -38.2172   -6.1961 C   0  0  0  0  0  0  0  0  0  0  0  0
  -18.9361  -38.8896   -8.5520 C   0  0  0  0  0  0  0  0  0  0  0  0
  -17.5652  -39.3251   -8.4738 C   0  0  2  0  0  0  0  0  0  0  0  0
  -17.1776  -40.5954   -7.8052 N   0  0  0  0  0  0  0  0  0  0  0  0
  -18.0985  -41.6198   -7.5903 C   0  0  0  0  0  0  0  0  0  0  0  0
  -18.7776  -41.2604   -6.4226 O   0  0  0  0  0  0  0  0  0  0  0  0
  -18.7122  -42.8839   -7.9867 C   0  0  0  0  0  0  0  0  0  0  0  0
  -18.9137  -44.0444   -7.1980 C   0  0  0  0  0  0  0  0  0  0  0  0
  -19.9223  -44.8874   -7.5560 C   0  0  0  0  0  0  0  0  0  0  0  0
  -20.7185  -44.6896   -8.6834 C   0  0  0  0  0  0  0  0  0  0  0  0
  -20.5486  -43.5926   -9.5043 C   0  0  0  0  0  0  0  0  0  0  0  0
  -19.5589  -42.7443   -9.1059 C   0  0  0  0  0  0  0  0  0  0  0  0
  -20.7387  -45.7007   -6.5267 C   0  0  0  0  0  0  0  0  0  0  0  0
  -21.0204  -46.8450   -6.8315 O   0  0  0  0  0  0  0  0  0  0  0  0
  -16.5473  -38.3132   -8.0144 C   0  0  2  0  0  0  0  0  0  0  0  0
  -17.0142  -37.0340   -7.8640 O   0  0  0  0  0  0  0  0  0  0  0  0
  -15.1993  -38.4672   -8.6165 C   0  0  0  0  0  0  0  0  0  0  0  0
  -14.6262  -39.7620   -8.6274 N   0  0  0  0  0  0  0  0  0  0  0  0
  -13.4276  -39.9251   -9.4085 C   0  0  0  0  0  0  0  0  0  0  0  0
  -13.5971  -39.3723  -10.7885 C   0  0  0  0  0  0  0  0  0  0  0  0
  -13.1603  -38.1023  -11.0506 C   0  0  0  0  0  0  0  0  0  0  0  0
  -13.2718  -37.5160  -12.3172 C   0  0  0  0  0  0  0  0  0  0  0  0
  -13.8398  -38.2559  -13.3113 C   0  0  0  0  0  0  0  0  0  0  0  0
  -14.2807  -39.5339  -13.0519 C   0  0  0  0  0  0  0  0  0  0  0  0
  -14.1677  -40.1048  -11.8020 C   0  0  0  0  0  0  0  0  0  0  0  0
  -12.7766  -36.1323  -12.5228 C   0  0  0  0  0  0  0  0  0  0  0  0
  -13.6151  -35.4481  -13.5987 C   0  0  0  0  0  0  0  0  0  0  0  0
  -12.8582  -35.2955  -11.2665 C   0  0  0  0  0  0  0  0  0  0  0  0
  1  2  1  0
  2  3  1  0
  3  4  1  0
  4  5  1  0
  5  6  1  0
  6  7  1  0
  7  8  1  0
  8  9  1  0
  9 10  1  1
  9 11  1  0
 12 11  1  1
 12 13  1  0
 13 14  1  0
 14 15  2  0
 14 16  1  0
 16 17  2  0
 17 18  1  0
 18 19  2  0
 19 20  1  0
 20 21  2  0
 18 22  1  0
 22 23  2  0
 12 24  1  0
 24 25  1  6
 24 26  1  0
 26 27  1  0
 27 28  1  0
 28 29  1  0
 29 30  2  0
 30 31  1  0
 31 32  2  0
 32 33  1  0
 33 34  2  0
 31 35  1  0
 35 36  1  0
 35 37  1  0
 21 16  1  0
 22  3  1  0
 34 29  1  0
M  END
$$$$
