
     RDKit          3D

 37 39  0  0  0  0  0  0  0  0999 V2000
  -23.8579  -41.5194   -3.2052 C   0  0  0  0  0  0  0  0  0  0  0  0
  -23.4027  -42.9230   -3.6223 C   0  0  0  0  0  0  0  0  0  0  0  0
  -22.5419  -42.7388   -4.7653 N   0  0  0  0  0  0  0  0  0  0  0  0
  -22.1351  -41.4054   -5.0986 C   0  0  0  0  0  0  0  0  0  0  0  0
  -22.8132  -40.5435   -6.0843 C   0  0  0  0  0  0  0  0  0  0  0  0
  -22.4008  -40.4966   -7.4935 C   0  0  0  0  0  0  0  0  0  0  0  0
  -21.7615  -39.2304   -8.0832 C   0  0  0  0  0  0  0  0  0  0  0  0
  -21.0825  -39.5559   -9.4037 C   0  0  0  0  0  0  0  0  0  0  0  0
  -19.7394  -38.9667   -9.7048 C   0  0  1  0  0  0  0  0  0  0  0  0
  -19.3239  -37.7969   -8.8397 C   0  0  0  0  0  0  0  0  0  0  0  0
  -18.6621  -39.7429  -10.3336 C   0  0  0  0  0  0  0  0  0  0  0  0
  -17.4422  -40.2789   -9.7863 C   0  0  2  0  0  0  0  0  0  0  0  0
  -17.4145  -41.0218   -8.4986 N   0  0  0  0  0  0  0  0  0  0  0  0
  -18.5643  -41.5995   -7.9621 C   0  0  0  0  0  0  0  0  0  0  0  0
  -19.2205  -40.5580   -7.2999 O   0  0  0  0  0  0  0  0  0  0  0  0
  -19.4297  -42.7571   -7.7549 C   0  0  0  0  0  0  0  0  0  0  0  0
  -19.9555  -43.2494   -6.5340 C   0  0  0  0  0  0  0  0  0  0  0  0
  -21.1067  -43.9761   -6.5863 C   0  0  0  0  0  0  0  0  0  0  0  0
  -21.7512  -44.3000   -7.7795 C   0  0  0  0  0  0  0  0  0  0  0  0
  -21.2688  -43.8724   -9.0004 C   0  0  0  0  0  0  0  0  0  0  0  0
  -20.1376  -43.1162   -8.9206 C   0  0  0  0  0  0  0  0  0  0  0  0
  -22.1633  -43.9529   -5.4592 C   0  0  0  0  0  0  0  0  0  0  0  0
  -22.6852  -45.0152   -5.1752 O   0  0  0  0  0  0  0  0  0  0  0  0
  -16.2492  -39.3595   -9.7348 C   0  0  2  0  0  0  0  0  0  0  0  0
  -15.7368  -38.9901  -10.9505 O   0  0  0  0  0  0  0  0  0  0  0  0
  -15.2708  -39.6670   -8.6617 C   0  0  0  0  0  0  0  0  0  0  0  0
  -14.5837  -38.5818   -8.0654 N   0  0  0  0  0  0  0  0  0  0  0  0
  -13.3028  -38.2465   -8.6313 C   0  0  0  0  0  0  0  0  0  0  0  0
  -13.4526  -37.3925   -9.8509 C   0  0  0  0  0  0  0  0  0  0  0  0
  -12.6433  -37.6303  -10.9282 C   0  0  0  0  0  0  0  0  0  0  0  0
  -12.7275  -36.8842  -12.1102 C   0  0  0  0  0  0  0  0  0  0  0  0
  -13.6573  -35.8890  -12.1675 C   0  0  0  0  0  0  0  0  0  0  0  0
  -14.4734  -35.6463  -11.0858 C   0  0  0  0  0  0  0  0  0  0  0  0
  -14.3848  -36.3851   -9.9250 C   0  0  0  0  0  0  0  0  0  0  0  0
  -11.8131  -37.2007  -13.2352 C   0  0  0  0  0  0  0  0  0  0  0  0
  -12.5916  -37.1642  -14.5472 C   0  0  0  0  0  0  0  0  0  0  0  0
  -10.6689  -36.2190  -13.3450 C   0  0  0  0  0  0  0  0  0  0  0  0
  1  2  1  0
  2  3  1  0
  3  4  1  0
  4  5  1  0
  5  6  1  0
  6  7  1  0
  7  8  1  0
  8  9  1  0
  9 10  1  1
  9 11  1  0
 12 11  1  1
 12 13  1  0
 13 14  1  0
 14 15  2  0
 14 16  1  0
 16 17  2  0
 17 18  1  0
 18 19  2  0
 19 20  1  0
 20 21  2  0
 18 22  1  0
 22 23  2  0
 12 24  1  0
 24 25  1  6
 24 26  1  0
 26 27  1  0
 27 28  1  0
 28 29  1  0
 29 30  2  0
 30 31  1  0
 31 32  2  0
 32 33  1  0
 33 34  2  0
 31 35  1  0
 35 36  1  0
 35 37  1  0
 21 16  1  0
 22  3  1  0
 34 29  1  0
M  END
$$$$
