
     RDKit          3D

 37 39  0  0  0  0  0  0  0  0999 V2000
  -22.5961  -44.5520   -3.5675 C   0  0  0  0  0  0  0  0  0  0  0  0
  -22.3531  -45.3668   -4.8436 C   0  0  0  0  0  0  0  0  0  0  0  0
  -21.6178  -44.5019   -5.7339 N   0  0  0  0  0  0  0  0  0  0  0  0
  -21.4522  -43.1282   -5.3597 C   0  0  0  0  0  0  0  0  0  0  0  0
  -22.3280  -42.0272   -5.8016 C   0  0  0  0  0  0  0  0  0  0  0  0
  -22.0320  -41.2275   -6.9978 C   0  0  0  0  0  0  0  0  0  0  0  0
  -21.6454  -39.7458   -6.8763 C   0  0  0  0  0  0  0  0  0  0  0  0
  -21.0217  -39.2617   -8.1752 C   0  0  0  0  0  0  0  0  0  0  0  0
  -19.8141  -38.3778   -8.1264 C   0  0  1  0  0  0  0  0  0  0  0  0
  -19.5267  -37.7277   -6.7906 C   0  0  0  0  0  0  0  0  0  0  0  0
  -18.6764  -38.5478   -9.0403 C   0  0  0  0  0  0  0  0  0  0  0  0
  -17.3505  -39.0620   -8.8108 C   0  0  2  0  0  0  0  0  0  0  0  0
  -17.1120  -40.3214   -8.0572 N   0  0  0  0  0  0  0  0  0  0  0  0
  -18.1139  -41.2768   -7.8928 C   0  0  0  0  0  0  0  0  0  0  0  0
  -18.8764  -40.8232   -6.8127 O   0  0  0  0  0  0  0  0  0  0  0  0
  -18.7682  -42.5181   -8.2967 C   0  0  0  0  0  0  0  0  0  0  0  0
  -19.1191  -43.6265   -7.4857 C   0  0  0  0  0  0  0  0  0  0  0  0
  -20.1418  -44.4220   -7.9069 C   0  0  0  0  0  0  0  0  0  0  0  0
  -20.8122  -44.2282   -9.1139 C   0  0  0  0  0  0  0  0  0  0  0  0
  -20.4938  -43.1826   -9.9575 C   0  0  0  0  0  0  0  0  0  0  0  0
  -19.4934  -42.3788   -9.4981 C   0  0  0  0  0  0  0  0  0  0  0  0
  -21.1038  -45.1357   -6.9310 C   0  0  0  0  0  0  0  0  0  0  0  0
  -21.4291  -46.2735   -7.2159 O   0  0  0  0  0  0  0  0  0  0  0  0
  -16.3173  -38.0940   -8.2947 C   0  0  2  0  0  0  0  0  0  0  0  0
  -16.7936  -36.8623   -7.9301 O   0  0  0  0  0  0  0  0  0  0  0  0
  -15.0201  -38.1233   -9.0157 C   0  0  0  0  0  0  0  0  0  0  0  0
  -14.0098  -38.9830   -8.5203 N   0  0  0  0  0  0  0  0  0  0  0  0
  -13.0571  -39.4726   -9.4826 C   0  0  0  0  0  0  0  0  0  0  0  0
  -12.8130  -38.4700  -10.5662 C   0  0  0  0  0  0  0  0  0  0  0  0
  -13.7962  -38.2420  -11.4900 C   0  0  0  0  0  0  0  0  0  0  0  0
  -13.6511  -37.3131  -12.5278 C   0  0  0  0  0  0  0  0  0  0  0  0
  -12.4785  -36.6218  -12.6013 C   0  0  0  0  0  0  0  0  0  0  0  0
  -11.4866  -36.8484  -11.6740 C   0  0  0  0  0  0  0  0  0  0  0  0
  -11.6365  -37.7646  -10.6547 C   0  0  0  0  0  0  0  0  0  0  0  0
  -14.7622  -37.1233  -13.4928 C   0  0  0  0  0  0  0  0  0  0  0  0
  -14.8943  -38.3682  -14.3655 C   0  0  0  0  0  0  0  0  0  0  0  0
  -16.0900  -36.8912  -12.8086 C   0  0  0  0  0  0  0  0  0  0  0  0
  1  2  1  0
  2  3  1  0
  3  4  1  0
  4  5  1  0
  5  6  1  0
  6  7  1  0
  7  8  1  0
  8  9  1  0
  9 10  1  1
  9 11  1  0
 12 11  1  1
 12 13  1  0
 13 14  1  0
 14 15  2  0
 14 16  1  0
 16 17  2  0
 17 18  1  0
 18 19  2  0
 19 20  1  0
 20 21  2  0
 18 22  1  0
 22 23  2  0
 12 24  1  0
 24 25  1  6
 24 26  1  0
 26 27  1  0
 27 28  1  0
 28 29  1  0
 29 30  2  0
 30 31  1  0
 31 32  2  0
 32 33  1  0
 33 34  2  0
 31 35  1  0
 35 36  1  0
 35 37  1  0
 21 16  1  0
 22  3  1  0
 34 29  1  0
M  END
$$$$
