
     RDKit          3D

 37 39  0  0  0  0  0  0  0  0999 V2000
  -23.5246  -42.4220   -3.4372 C   0  0  0  0  0  0  0  0  0  0  0  0
  -22.6284  -43.6107   -3.8046 C   0  0  0  0  0  0  0  0  0  0  0  0
  -21.8776  -43.1992   -4.9657 N   0  0  0  0  0  0  0  0  0  0  0  0
  -21.8883  -41.8108   -5.3217 C   0  0  0  0  0  0  0  0  0  0  0  0
  -22.8056  -41.2041   -6.3041 C   0  0  0  0  0  0  0  0  0  0  0  0
  -22.4462  -41.0606   -7.7213 C   0  0  0  0  0  0  0  0  0  0  0  0
  -22.2188  -39.6719   -8.3373 C   0  0  0  0  0  0  0  0  0  0  0  0
  -21.4936  -39.8038   -9.6666 C   0  0  0  0  0  0  0  0  0  0  0  0
  -20.3894  -38.8490   -9.9998 C   0  0  1  0  0  0  0  0  0  0  0  0
  -20.3258  -37.5946   -9.1561 C   0  0  0  0  0  0  0  0  0  0  0  0
  -19.1401  -39.2823  -10.6401 C   0  0  0  0  0  0  0  0  0  0  0  0
  -17.8083  -39.4248  -10.1100 C   0  0  2  0  0  0  0  0  0  0  0  0
  -17.5431  -40.1051   -8.8147 N   0  0  0  0  0  0  0  0  0  0  0  0
  -18.4626  -40.9879   -8.2500 C   0  0  0  0  0  0  0  0  0  0  0  0
  -19.3876  -40.1761   -7.5873 O   0  0  0  0  0  0  0  0  0  0  0  0
  -18.9437  -42.3459   -8.0133 C   0  0  0  0  0  0  0  0  0  0  0  0
  -19.2822  -42.9515   -6.7772 C   0  0  0  0  0  0  0  0  0  0  0  0
  -20.1676  -43.9867   -6.7995 C   0  0  0  0  0  0  0  0  0  0  0  0
  -20.7050  -44.5063   -7.9764 C   0  0  0  0  0  0  0  0  0  0  0  0
  -20.3888  -43.9753   -9.2110 C   0  0  0  0  0  0  0  0  0  0  0  0
  -19.5307  -42.9174   -9.1613 C   0  0  0  0  0  0  0  0  0  0  0  0
  -21.1671  -44.2583   -5.6529 C   0  0  0  0  0  0  0  0  0  0  0  0
  -21.3471  -45.4226   -5.3470 O   0  0  0  0  0  0  0  0  0  0  0  0
  -16.9401  -38.1932  -10.0915 C   0  0  2  0  0  0  0  0  0  0  0  0
  -17.0718  -37.3628  -11.1733 O   0  0  0  0  0  0  0  0  0  0  0  0
  -15.5646  -38.4074   -9.5759 C   0  0  0  0  0  0  0  0  0  0  0  0
  -15.0439  -39.7237   -9.6143 N   0  0  0  0  0  0  0  0  0  0  0  0
  -14.2242  -40.0550  -10.7507 C   0  0  0  0  0  0  0  0  0  0  0  0
  -13.3695  -38.8977  -11.1620 C   0  0  0  0  0  0  0  0  0  0  0  0
  -12.8523  -38.0806  -10.1941 C   0  0  0  0  0  0  0  0  0  0  0  0
  -12.0350  -36.9841  -10.4947 C   0  0  0  0  0  0  0  0  0  0  0  0
  -11.7574  -36.7402  -11.8069 C   0  0  0  0  0  0  0  0  0  0  0  0
  -12.2760  -37.5598  -12.7839 C   0  0  0  0  0  0  0  0  0  0  0  0
  -13.0801  -38.6378  -12.4804 C   0  0  0  0  0  0  0  0  0  0  0  0
  -11.5135  -36.1426   -9.3892 C   0  0  0  0  0  0  0  0  0  0  0  0
  -12.3307  -36.4006   -8.1265 C   0  0  0  0  0  0  0  0  0  0  0  0
  -10.0642  -36.4343   -9.0737 C   0  0  0  0  0  0  0  0  0  0  0  0
  1  2  1  0
  2  3  1  0
  3  4  1  0
  4  5  1  0
  5  6  1  0
  6  7  1  0
  7  8  1  0
  8  9  1  0
  9 10  1  1
  9 11  1  0
 12 11  1  1
 12 13  1  0
 13 14  1  0
 14 15  2  0
 14 16  1  0
 16 17  2  0
 17 18  1  0
 18 19  2  0
 19 20  1  0
 20 21  2  0
 18 22  1  0
 22 23  2  0
 12 24  1  0
 24 25  1  6
 24 26  1  0
 26 27  1  0
 27 28  1  0
 28 29  1  0
 29 30  2  0
 30 31  1  0
 31 32  2  0
 32 33  1  0
 33 34  2  0
 31 35  1  0
 35 36  1  0
 35 37  1  0
 21 16  1  0
 22  3  1  0
 34 29  1  0
M  END
$$$$
