
     RDKit          3D

 37 39  0  0  0  0  0  0  0  0999 V2000
  -24.1330  -45.0997   -5.6799 C   0  0  0  0  0  0  0  0  0  0  0  0
  -22.6978  -45.5459   -5.3759 C   0  0  0  0  0  0  0  0  0  0  0  0
  -21.8421  -44.7126   -6.1849 N   0  0  0  0  0  0  0  0  0  0  0  0
  -21.6638  -43.3449   -5.7947 C   0  0  0  0  0  0  0  0  0  0  0  0
  -22.4467  -42.2130   -6.3242 C   0  0  0  0  0  0  0  0  0  0  0  0
  -21.9983  -41.4291   -7.4829 C   0  0  0  0  0  0  0  0  0  0  0  0
  -21.5703  -39.9627   -7.3212 C   0  0  0  0  0  0  0  0  0  0  0  0
  -20.7976  -39.5070   -8.5483 C   0  0  0  0  0  0  0  0  0  0  0  0
  -19.5687  -38.6695   -8.3744 C   0  0  1  0  0  0  0  0  0  0  0  0
  -19.3963  -38.0263   -7.0157 C   0  0  0  0  0  0  0  0  0  0  0  0
  -18.3500  -38.8856   -9.1659 C   0  0  0  0  0  0  0  0  0  0  0  0
  -17.0755  -39.4490   -8.8009 C   0  0  2  0  0  0  0  0  0  0  0  0
  -16.9643  -40.7140   -8.0274 N   0  0  0  0  0  0  0  0  0  0  0  0
  -18.0135  -41.6301   -7.9680 C   0  0  0  0  0  0  0  0  0  0  0  0
  -18.8657  -41.1443   -6.9722 O   0  0  0  0  0  0  0  0  0  0  0  0
  -18.6693  -42.8470   -8.4381 C   0  0  0  0  0  0  0  0  0  0  0  0
  -19.1442  -43.9386   -7.6684 C   0  0  0  0  0  0  0  0  0  0  0  0
  -20.1474  -44.6961   -8.1935 C   0  0  0  0  0  0  0  0  0  0  0  0
  -20.6817  -44.4810   -9.4633 C   0  0  0  0  0  0  0  0  0  0  0  0
  -20.2382  -43.4511  -10.2688 C   0  0  0  0  0  0  0  0  0  0  0  0
  -19.2607  -42.6843   -9.7080 C   0  0  0  0  0  0  0  0  0  0  0  0
  -21.2316  -45.3695   -7.3227 C   0  0  0  0  0  0  0  0  0  0  0  0
  -21.5689  -46.4951   -7.6404 O   0  0  0  0  0  0  0  0  0  0  0  0
  -16.0650  -38.5192   -8.1801 C   0  0  2  0  0  0  0  0  0  0  0  0
  -16.5453  -37.2921   -7.8053 O   0  0  0  0  0  0  0  0  0  0  0  0
  -14.7213  -38.5479   -8.8104 C   0  0  0  0  0  0  0  0  0  0  0  0
  -13.9244  -39.7013   -8.6112 N   0  0  0  0  0  0  0  0  0  0  0  0
  -13.6586  -40.5048   -9.7762 C   0  0  0  0  0  0  0  0  0  0  0  0
  -13.2818  -39.6558  -10.9493 C   0  0  0  0  0  0  0  0  0  0  0  0
  -13.0520  -38.3213  -10.7532 C   0  0  0  0  0  0  0  0  0  0  0  0
  -12.6848  -37.4612  -11.7954 C   0  0  0  0  0  0  0  0  0  0  0  0
  -12.5574  -37.9947  -13.0434 C   0  0  0  0  0  0  0  0  0  0  0  0
  -12.7879  -39.3368  -13.2450 C   0  0  0  0  0  0  0  0  0  0  0  0
  -13.1492  -40.1778  -12.2139 C   0  0  0  0  0  0  0  0  0  0  0  0
  -12.4548  -36.0244  -11.5041 C   0  0  0  0  0  0  0  0  0  0  0  0
  -10.9573  -35.7331  -11.5394 C   0  0  0  0  0  0  0  0  0  0  0  0
  -13.1299  -35.1154  -12.5056 C   0  0  0  0  0  0  0  0  0  0  0  0
  1  2  1  0
  2  3  1  0
  3  4  1  0
  4  5  1  0
  5  6  1  0
  6  7  1  0
  7  8  1  0
  8  9  1  0
  9 10  1  1
  9 11  1  0
 12 11  1  1
 12 13  1  0
 13 14  1  0
 14 15  2  0
 14 16  1  0
 16 17  2  0
 17 18  1  0
 18 19  2  0
 19 20  1  0
 20 21  2  0
 18 22  1  0
 22 23  2  0
 12 24  1  0
 24 25  1  6
 24 26  1  0
 26 27  1  0
 27 28  1  0
 28 29  1  0
 29 30  2  0
 30 31  1  0
 31 32  2  0
 32 33  1  0
 33 34  2  0
 31 35  1  0
 35 36  1  0
 35 37  1  0
 21 16  1  0
 22  3  1  0
 34 29  1  0
M  END
$$$$
