
     RDKit          3D

 37 39  0  0  0  0  0  0  0  0999 V2000
  -22.3292  -43.8020   -3.2830 C   0  0  0  0  0  0  0  0  0  0  0  0
  -22.8128  -44.1754   -4.6894 C   0  0  0  0  0  0  0  0  0  0  0  0
  -21.9082  -43.5263   -5.6067 N   0  0  0  0  0  0  0  0  0  0  0  0
  -21.7175  -42.1112   -5.4819 C   0  0  0  0  0  0  0  0  0  0  0  0
  -22.4549  -41.0942   -6.2543 C   0  0  0  0  0  0  0  0  0  0  0  0
  -21.9442  -40.5566   -7.5225 C   0  0  0  0  0  0  0  0  0  0  0  0
  -21.4927  -39.0923   -7.6299 C   0  0  0  0  0  0  0  0  0  0  0  0
  -20.6621  -38.8938   -8.8874 C   0  0  0  0  0  0  0  0  0  0  0  0
  -19.4241  -38.0539   -8.8260 C   0  0  1  0  0  0  0  0  0  0  0  0
  -19.2932  -37.1606   -7.6117 C   0  0  0  0  0  0  0  0  0  0  0  0
  -18.1793  -38.4352   -9.5068 C   0  0  0  0  0  0  0  0  0  0  0  0
  -16.9325  -38.9325   -8.9844 C   0  0  2  0  0  0  0  0  0  0  0  0
  -16.8786  -40.0241   -7.9762 N   0  0  0  0  0  0  0  0  0  0  0  0
  -17.9481  -40.8979   -7.7858 C   0  0  0  0  0  0  0  0  0  0  0  0
  -18.8294  -40.2169   -6.9412 O   0  0  0  0  0  0  0  0  0  0  0  0
  -18.6095  -42.1747   -8.0390 C   0  0  0  0  0  0  0  0  0  0  0  0
  -19.1374  -43.0896   -7.0936 C   0  0  0  0  0  0  0  0  0  0  0  0
  -20.1342  -43.9223   -7.5048 C   0  0  0  0  0  0  0  0  0  0  0  0
  -20.6124  -43.9518   -8.8142 C   0  0  0  0  0  0  0  0  0  0  0  0
  -20.1157  -43.1041   -9.7841 C   0  0  0  0  0  0  0  0  0  0  0  0
  -19.1459  -42.2550   -9.3408 C   0  0  0  0  0  0  0  0  0  0  0  0
  -21.2662  -44.3997   -6.5679 C   0  0  0  0  0  0  0  0  0  0  0  0
  -21.6137  -45.5613   -6.6756 O   0  0  0  0  0  0  0  0  0  0  0  0
  -15.9287  -37.9123   -8.5125 C   0  0  2  0  0  0  0  0  0  0  0  0
  -16.1233  -37.4379   -7.2421 O   0  0  0  0  0  0  0  0  0  0  0  0
  -15.5137  -36.9243   -9.5396 C   0  0  0  0  0  0  0  0  0  0  0  0
  -15.8044  -37.2195  -10.8937 N   0  0  0  0  0  0  0  0  0  0  0  0
  -15.0819  -38.3191  -11.4786 C   0  0  0  0  0  0  0  0  0  0  0  0
  -13.6177  -38.2269  -11.1846 C   0  0  0  0  0  0  0  0  0  0  0  0
  -12.9556  -39.3481  -10.7643 C   0  0  0  0  0  0  0  0  0  0  0  0
  -11.5847  -39.3485  -10.4792 C   0  0  0  0  0  0  0  0  0  0  0  0
  -10.9042  -38.1773  -10.6330 C   0  0  0  0  0  0  0  0  0  0  0  0
  -11.5665  -37.0468  -11.0554 C   0  0  0  0  0  0  0  0  0  0  0  0
  -12.9168  -37.0540  -11.3343 C   0  0  0  0  0  0  0  0  0  0  0  0
  -10.9378  -40.6046  -10.0256 C   0  0  0  0  0  0  0  0  0  0  0  0
  -11.5840  -41.0660   -8.7225 C   0  0  0  0  0  0  0  0  0  0  0  0
  -11.0733  -41.7225  -11.0341 C   0  0  0  0  0  0  0  0  0  0  0  0
  1  2  1  0
  2  3  1  0
  3  4  1  0
  4  5  1  0
  5  6  1  0
  6  7  1  0
  7  8  1  0
  8  9  1  0
  9 10  1  1
  9 11  1  0
 12 11  1  1
 12 13  1  0
 13 14  1  0
 14 15  2  0
 14 16  1  0
 16 17  2  0
 17 18  1  0
 18 19  2  0
 19 20  1  0
 20 21  2  0
 18 22  1  0
 22 23  2  0
 12 24  1  0
 24 25  1  1
 24 26  1  0
 26 27  1  0
 27 28  1  0
 28 29  1  0
 29 30  2  0
 30 31  1  0
 31 32  2  0
 32 33  1  0
 33 34  2  0
 31 35  1  0
 35 36  1  0
 35 37  1  0
 21 16  1  0
 22  3  1  0
 34 29  1  0
M  END
$$$$
