
     RDKit          3D

 37 39  0  0  0  0  0  0  0  0999 V2000
  -24.3134  -45.2163   -5.3181 C   0  0  0  0  0  0  0  0  0  0  0  0
  -22.8378  -45.5321   -5.0456 C   0  0  0  0  0  0  0  0  0  0  0  0
  -22.0777  -44.6049   -5.8479 N   0  0  0  0  0  0  0  0  0  0  0  0
  -21.8231  -43.2989   -5.3148 C   0  0  0  0  0  0  0  0  0  0  0  0
  -22.6453  -42.1060   -5.5897 C   0  0  0  0  0  0  0  0  0  0  0  0
  -22.3353  -41.1818   -6.6888 C   0  0  0  0  0  0  0  0  0  0  0  0
  -21.8607  -39.7496   -6.4006 C   0  0  0  0  0  0  0  0  0  0  0  0
  -21.2447  -39.1431   -7.6508 C   0  0  0  0  0  0  0  0  0  0  0  0
  -19.9872  -38.3387   -7.5351 C   0  0  1  0  0  0  0  0  0  0  0  0
  -19.6274  -37.8751   -6.1403 C   0  0  0  0  0  0  0  0  0  0  0  0
  -18.8858  -38.4558   -8.5004 C   0  0  0  0  0  0  0  0  0  0  0  0
  -17.5863  -39.0653   -8.3797 C   0  0  2  0  0  0  0  0  0  0  0  0
  -17.4010  -40.4192   -7.7936 N   0  0  0  0  0  0  0  0  0  0  0  0
  -18.4518  -41.3320   -7.7134 C   0  0  0  0  0  0  0  0  0  0  0  0
  -19.1578  -40.9748   -6.5612 O   0  0  0  0  0  0  0  0  0  0  0  0
  -19.1871  -42.4766   -8.2435 C   0  0  0  0  0  0  0  0  0  0  0  0
  -19.5799  -43.6562   -7.5624 C   0  0  0  0  0  0  0  0  0  0  0  0
  -20.6576  -44.3371   -8.0430 C   0  0  0  0  0  0  0  0  0  0  0  0
  -21.3475  -43.9596   -9.1943 C   0  0  0  0  0  0  0  0  0  0  0  0
  -20.9916  -42.8366   -9.9143 C   0  0  0  0  0  0  0  0  0  0  0  0
  -19.9347  -42.1509   -9.3941 C   0  0  0  0  0  0  0  0  0  0  0  0
  -21.6330  -45.1128   -7.1298 C   0  0  0  0  0  0  0  0  0  0  0  0
  -22.0310  -46.1874   -7.5402 O   0  0  0  0  0  0  0  0  0  0  0  0
  -16.4855  -38.2258   -7.7842 C   0  0  2  0  0  0  0  0  0  0  0  0
  -16.5603  -36.8833   -8.0469 O   0  0  0  0  0  0  0  0  0  0  0  0
  -15.1361  -38.8427   -7.8306 C   0  0  0  0  0  0  0  0  0  0  0  0
  -14.6641  -39.3019   -9.0842 N   0  0  0  0  0  0  0  0  0  0  0  0
  -13.5729  -40.2409   -9.0525 C   0  0  0  0  0  0  0  0  0  0  0  0
  -13.5856  -41.1317  -10.2547 C   0  0  0  0  0  0  0  0  0  0  0  0
  -14.0637  -42.4074  -10.1275 C   0  0  0  0  0  0  0  0  0  0  0  0
  -14.1198  -43.2995  -11.2053 C   0  0  0  0  0  0  0  0  0  0  0  0
  -13.6762  -42.8596  -12.4170 C   0  0  0  0  0  0  0  0  0  0  0  0
  -13.1942  -41.5769  -12.5492 C   0  0  0  0  0  0  0  0  0  0  0  0
  -13.1420  -40.7039  -11.4833 C   0  0  0  0  0  0  0  0  0  0  0  0
  -14.6497  -44.6684  -10.9878 C   0  0  0  0  0  0  0  0  0  0  0  0
  -16.0781  -44.5812  -10.4581 C   0  0  0  0  0  0  0  0  0  0  0  0
  -14.6730  -45.4887  -12.2574 C   0  0  0  0  0  0  0  0  0  0  0  0
  1  2  1  0
  2  3  1  0
  3  4  1  0
  4  5  1  0
  5  6  1  0
  6  7  1  0
  7  8  1  0
  8  9  1  0
  9 10  1  1
  9 11  1  0
 12 11  1  1
 12 13  1  0
 13 14  1  0
 14 15  2  0
 14 16  1  0
 16 17  2  0
 17 18  1  0
 18 19  2  0
 19 20  1  0
 20 21  2  0
 18 22  1  0
 22 23  2  0
 12 24  1  0
 24 25  1  6
 24 26  1  0
 26 27  1  0
 27 28  1  0
 28 29  1  0
 29 30  2  0
 30 31  1  0
 31 32  2  0
 32 33  1  0
 33 34  2  0
 31 35  1  0
 35 36  1  0
 35 37  1  0
 21 16  1  0
 22  3  1  0
 34 29  1  0
M  END
$$$$
