
     RDKit          3D

 37 39  0  0  0  0  0  0  0  0999 V2000
  -23.6617  -43.8713   -3.9017 C   0  0  0  0  0  0  0  0  0  0  0  0
  -23.4062  -44.7146   -5.1566 C   0  0  0  0  0  0  0  0  0  0  0  0
  -22.3364  -44.0572   -5.8668 N   0  0  0  0  0  0  0  0  0  0  0  0
  -22.1076  -42.6658   -5.6094 C   0  0  0  0  0  0  0  0  0  0  0  0
  -22.6639  -41.5618   -6.4134 C   0  0  0  0  0  0  0  0  0  0  0  0
  -21.9296  -40.9710   -7.5403 C   0  0  0  0  0  0  0  0  0  0  0  0
  -21.4038  -39.5296   -7.4661 C   0  0  0  0  0  0  0  0  0  0  0  0
  -20.3706  -39.2949   -8.5560 C   0  0  0  0  0  0  0  0  0  0  0  0
  -19.1243  -38.5296   -8.2354 C   0  0  1  0  0  0  0  0  0  0  0  0
  -19.1556  -37.7262   -6.9535 C   0  0  0  0  0  0  0  0  0  0  0  0
  -17.8024  -38.9329   -8.7339 C   0  0  0  0  0  0  0  0  0  0  0  0
  -16.6806  -39.5307   -8.0562 C   0  0  2  0  0  0  0  0  0  0  0  0
  -16.8400  -40.6872   -7.1353 N   0  0  0  0  0  0  0  0  0  0  0  0
  -17.9629  -41.5119   -7.1836 C   0  0  0  0  0  0  0  0  0  0  0  0
  -18.9404  -40.8406   -6.4436 O   0  0  0  0  0  0  0  0  0  0  0  0
  -18.6285  -42.7314   -7.6326 C   0  0  0  0  0  0  0  0  0  0  0  0
  -19.3432  -43.6760   -6.8539 C   0  0  0  0  0  0  0  0  0  0  0  0
  -20.2942  -44.4244   -7.4797 C   0  0  0  0  0  0  0  0  0  0  0  0
  -20.5523  -44.3421   -8.8474 C   0  0  0  0  0  0  0  0  0  0  0  0
  -19.8672  -43.4610   -9.6602 C   0  0  0  0  0  0  0  0  0  0  0  0
  -18.9473  -42.6970   -9.0060 C   0  0  0  0  0  0  0  0  0  0  0  0
  -21.5839  -44.8996   -6.7741 C   0  0  0  0  0  0  0  0  0  0  0  0
  -21.9589  -46.0309   -7.0211 O   0  0  0  0  0  0  0  0  0  0  0  0
  -15.7246  -38.5999   -7.3558 C   0  0  2  0  0  0  0  0  0  0  0  0
  -16.2152  -37.3515   -7.0769 O   0  0  0  0  0  0  0  0  0  0  0  0
  -14.3199  -38.6764   -7.8295 C   0  0  0  0  0  0  0  0  0  0  0  0
  -13.9783  -39.7302   -8.7116 N   0  0  0  0  0  0  0  0  0  0  0  0
  -14.1734  -39.4784  -10.1158 C   0  0  0  0  0  0  0  0  0  0  0  0
  -13.2281  -38.4330  -10.6184 C   0  0  0  0  0  0  0  0  0  0  0  0
  -13.7153  -37.4223  -11.4015 C   0  0  0  0  0  0  0  0  0  0  0  0
  -12.8996  -36.4003  -11.9024 C   0  0  0  0  0  0  0  0  0  0  0  0
  -11.5742  -36.4333  -11.5856 C   0  0  0  0  0  0  0  0  0  0  0  0
  -11.0799  -37.4485  -10.7981 C   0  0  0  0  0  0  0  0  0  0  0  0
  -11.8891  -38.4517  -10.3084 C   0  0  0  0  0  0  0  0  0  0  0  0
  -13.5016  -35.3393  -12.7474 C   0  0  0  0  0  0  0  0  0  0  0  0
  -12.7431  -34.0320  -12.5370 C   0  0  0  0  0  0  0  0  0  0  0  0
  -13.4521  -35.6747  -14.2205 C   0  0  0  0  0  0  0  0  0  0  0  0
  1  2  1  0
  2  3  1  0
  3  4  1  0
  4  5  1  0
  5  6  1  0
  6  7  1  0
  7  8  1  0
  8  9  1  0
  9 10  1  1
  9 11  1  0
 12 11  1  1
 12 13  1  0
 13 14  1  0
 14 15  2  0
 14 16  1  0
 16 17  2  0
 17 18  1  0
 18 19  2  0
 19 20  1  0
 20 21  2  0
 18 22  1  0
 22 23  2  0
 12 24  1  0
 24 25  1  6
 24 26  1  0
 26 27  1  0
 27 28  1  0
 28 29  1  0
 29 30  2  0
 30 31  1  0
 31 32  2  0
 32 33  1  0
 33 34  2  0
 31 35  1  0
 35 36  1  0
 35 37  1  0
 21 16  1  0
 22  3  1  0
 34 29  1  0
M  END
$$$$
