
     RDKit          3D

 37 39  0  0  0  0  0  0  0  0999 V2000
  -24.4035  -43.4786   -3.7198 C   0  0  0  0  0  0  0  0  0  0  0  0
  -23.6291  -44.7304   -4.1495 C   0  0  0  0  0  0  0  0  0  0  0  0
  -22.5998  -44.2718   -5.0503 N   0  0  0  0  0  0  0  0  0  0  0  0
  -22.2530  -42.8811   -5.0304 C   0  0  0  0  0  0  0  0  0  0  0  0
  -22.8173  -41.8631   -5.9358 C   0  0  0  0  0  0  0  0  0  0  0  0
  -22.1698  -41.5031   -7.2044 C   0  0  0  0  0  0  0  0  0  0  0  0
  -21.5445  -40.1138   -7.4006 C   0  0  0  0  0  0  0  0  0  0  0  0
  -20.6202  -40.1240   -8.6073 C   0  0  0  0  0  0  0  0  0  0  0  0
  -19.2987  -39.4246   -8.5273 C   0  0  1  0  0  0  0  0  0  0  0  0
  -19.1397  -38.4447   -7.3854 C   0  0  0  0  0  0  0  0  0  0  0  0
  -18.0673  -40.0021   -9.0828 C   0  0  0  0  0  0  0  0  0  0  0  0
  -16.9218  -40.5852   -8.4326 C   0  0  2  0  0  0  0  0  0  0  0  0
  -17.0584  -41.5797   -7.3357 N   0  0  0  0  0  0  0  0  0  0  0  0
  -18.2324  -42.3085   -7.1505 C   0  0  0  0  0  0  0  0  0  0  0  0
  -19.0786  -41.4599   -6.4311 O   0  0  0  0  0  0  0  0  0  0  0  0
  -19.0216  -43.5217   -7.3434 C   0  0  0  0  0  0  0  0  0  0  0  0
  -19.7103  -44.2824   -6.3654 C   0  0  0  0  0  0  0  0  0  0  0  0
  -20.7702  -45.0333   -6.7765 C   0  0  0  0  0  0  0  0  0  0  0  0
  -21.1667  -45.1285   -8.1098 C   0  0  0  0  0  0  0  0  0  0  0  0
  -20.5152  -44.4329   -9.1087 C   0  0  0  0  0  0  0  0  0  0  0  0
  -19.4821  -43.6600   -8.6691 C   0  0  0  0  0  0  0  0  0  0  0  0
  -22.0060  -45.2948   -5.8868 C   0  0  0  0  0  0  0  0  0  0  0  0
  -22.4795  -46.4156   -5.9221 O   0  0  0  0  0  0  0  0  0  0  0  0
  -15.8368  -39.6441   -7.9763 C   0  0  2  0  0  0  0  0  0  0  0  0
  -15.6526  -39.5697   -6.6208 O   0  0  0  0  0  0  0  0  0  0  0  0
  -15.7577  -38.3696   -8.7333 C   0  0  0  0  0  0  0  0  0  0  0  0
  -14.5999  -37.5725   -8.5629 N   0  0  0  0  0  0  0  0  0  0  0  0
  -13.5828  -37.6962   -9.5747 C   0  0  0  0  0  0  0  0  0  0  0  0
  -13.9929  -37.0201  -10.8450 C   0  0  0  0  0  0  0  0  0  0  0  0
  -14.8118  -35.9260  -10.7774 C   0  0  0  0  0  0  0  0  0  0  0  0
  -15.2319  -35.2305  -11.9178 C   0  0  0  0  0  0  0  0  0  0  0  0
  -14.7969  -35.6776  -13.1299 C   0  0  0  0  0  0  0  0  0  0  0  0
  -13.9731  -36.7781  -13.2024 C   0  0  0  0  0  0  0  0  0  0  0  0
  -13.5634  -37.4580  -12.0751 C   0  0  0  0  0  0  0  0  0  0  0  0
  -16.1225  -34.0537  -11.7634 C   0  0  0  0  0  0  0  0  0  0  0  0
  -17.4726  -34.5077  -11.2157 C   0  0  0  0  0  0  0  0  0  0  0  0
  -15.5583  -33.0211  -10.8144 C   0  0  0  0  0  0  0  0  0  0  0  0
  1  2  1  0
  2  3  1  0
  3  4  1  0
  4  5  1  0
  5  6  1  0
  6  7  1  0
  7  8  1  0
  8  9  1  0
  9 10  1  1
  9 11  1  0
 12 11  1  1
 12 13  1  0
 13 14  1  0
 14 15  2  0
 14 16  1  0
 16 17  2  0
 17 18  1  0
 18 19  2  0
 19 20  1  0
 20 21  2  0
 18 22  1  0
 22 23  2  0
 12 24  1  0
 24 25  1  1
 24 26  1  0
 26 27  1  0
 27 28  1  0
 28 29  1  0
 29 30  2  0
 30 31  1  0
 31 32  2  0
 32 33  1  0
 33 34  2  0
 31 35  1  0
 35 36  1  0
 35 37  1  0
 21 16  1  0
 22  3  1  0
 34 29  1  0
M  END
$$$$
