
     RDKit          3D

 37 39  0  0  0  0  0  0  0  0999 V2000
  -24.0763  -43.3421   -3.6579 C   0  0  0  0  0  0  0  0  0  0  0  0
  -23.3627  -44.4889   -4.3838 C   0  0  0  0  0  0  0  0  0  0  0  0
  -22.4498  -43.8661   -5.3111 N   0  0  0  0  0  0  0  0  0  0  0  0
  -22.1172  -42.4864   -5.1102 C   0  0  0  0  0  0  0  0  0  0  0  0
  -22.7933  -41.3558   -5.7730 C   0  0  0  0  0  0  0  0  0  0  0  0
  -22.3013  -40.7835   -7.0334 C   0  0  0  0  0  0  0  0  0  0  0  0
  -21.7172  -39.3634   -7.0763 C   0  0  0  0  0  0  0  0  0  0  0  0
  -20.9394  -39.1586   -8.3661 C   0  0  0  0  0  0  0  0  0  0  0  0
  -19.6247  -38.4430   -8.3262 C   0  0  1  0  0  0  0  0  0  0  0  0
  -19.3440  -37.6496   -7.0687 C   0  0  0  0  0  0  0  0  0  0  0  0
  -18.4604  -38.8913   -9.1020 C   0  0  0  0  0  0  0  0  0  0  0  0
  -17.2412  -39.5362   -8.6863 C   0  0  2  0  0  0  0  0  0  0  0  0
  -17.2393  -40.6934   -7.7527 N   0  0  0  0  0  0  0  0  0  0  0  0
  -18.3764  -41.4752   -7.5538 C   0  0  0  0  0  0  0  0  0  0  0  0
  -19.1418  -40.7740   -6.6178 O   0  0  0  0  0  0  0  0  0  0  0  0
  -19.1702  -42.6653   -7.8461 C   0  0  0  0  0  0  0  0  0  0  0  0
  -19.7328  -43.5889   -6.9296 C   0  0  0  0  0  0  0  0  0  0  0  0
  -20.8256  -44.2960   -7.3319 C   0  0  0  0  0  0  0  0  0  0  0  0
  -21.3733  -44.1928   -8.6099 C   0  0  0  0  0  0  0  0  0  0  0  0
  -20.8495  -43.3313   -9.5531 C   0  0  0  0  0  0  0  0  0  0  0  0
  -19.7803  -42.6076   -9.1163 C   0  0  0  0  0  0  0  0  0  0  0  0
  -21.9469  -44.7285   -6.3609 C   0  0  0  0  0  0  0  0  0  0  0  0
  -22.4099  -45.8429   -6.5197 O   0  0  0  0  0  0  0  0  0  0  0  0
  -16.1202  -38.6475   -8.2123 C   0  0  2  0  0  0  0  0  0  0  0  0
  -16.4358  -37.3211   -8.0787 O   0  0  0  0  0  0  0  0  0  0  0  0
  -14.7883  -38.9640   -8.7863 C   0  0  0  0  0  0  0  0  0  0  0  0
  -14.0077  -39.9502   -8.1357 N   0  0  0  0  0  0  0  0  0  0  0  0
  -12.5998  -39.9541   -8.4375 C   0  0  0  0  0  0  0  0  0  0  0  0
  -12.3588  -40.0304   -9.9123 C   0  0  0  0  0  0  0  0  0  0  0  0
  -12.9639  -41.0253  -10.6308 C   0  0  0  0  0  0  0  0  0  0  0  0
  -12.7990  -41.1593  -12.0148 C   0  0  0  0  0  0  0  0  0  0  0  0
  -12.0016  -40.2540  -12.6495 C   0  0  0  0  0  0  0  0  0  0  0  0
  -11.3907  -39.2516  -11.9304 C   0  0  0  0  0  0  0  0  0  0  0  0
  -11.5578  -39.1258  -10.5676 C   0  0  0  0  0  0  0  0  0  0  0  0
  -13.4868  -42.2665  -12.7240 C   0  0  0  0  0  0  0  0  0  0  0  0
  -14.1565  -43.1834  -11.7045 C   0  0  0  0  0  0  0  0  0  0  0  0
  -14.5520  -41.7713  -13.6755 C   0  0  0  0  0  0  0  0  0  0  0  0
  1  2  1  0
  2  3  1  0
  3  4  1  0
  4  5  1  0
  5  6  1  0
  6  7  1  0
  7  8  1  0
  8  9  1  0
  9 10  1  1
  9 11  1  0
 12 11  1  1
 12 13  1  0
 13 14  1  0
 14 15  2  0
 14 16  1  0
 16 17  2  0
 17 18  1  0
 18 19  2  0
 19 20  1  0
 20 21  2  0
 18 22  1  0
 22 23  2  0
 12 24  1  0
 24 25  1  6
 24 26  1  0
 26 27  1  0
 27 28  1  0
 28 29  1  0
 29 30  2  0
 30 31  1  0
 31 32  2  0
 32 33  1  0
 33 34  2  0
 31 35  1  0
 35 36  1  0
 35 37  1  0
 21 16  1  0
 22  3  1  0
 34 29  1  0
M  END
$$$$
