
     RDKit          3D

 37 39  0  0  0  0  0  0  0  0999 V2000
  -23.5570  -46.2401   -5.1807 C   0  0  0  0  0  0  0  0  0  0  0  0
  -22.0674  -46.3609   -4.8375 C   0  0  0  0  0  0  0  0  0  0  0  0
  -21.3853  -45.4159   -5.6878 N   0  0  0  0  0  0  0  0  0  0  0  0
  -21.3058  -44.0514   -5.2562 C   0  0  0  0  0  0  0  0  0  0  0  0
  -22.2473  -42.9892   -5.6562 C   0  0  0  0  0  0  0  0  0  0  0  0
  -21.9988  -42.1236   -6.8169 C   0  0  0  0  0  0  0  0  0  0  0  0
  -21.7050  -40.6272   -6.6324 C   0  0  0  0  0  0  0  0  0  0  0  0
  -21.1098  -40.0518   -7.9072 C   0  0  0  0  0  0  0  0  0  0  0  0
  -19.9593  -39.0979   -7.8162 C   0  0  1  0  0  0  0  0  0  0  0  0
  -19.7155  -38.4874   -6.4533 C   0  0  0  0  0  0  0  0  0  0  0  0
  -18.8114  -39.1591   -8.7311 C   0  0  0  0  0  0  0  0  0  0  0  0
  -17.4567  -39.5995   -8.5169 C   0  0  2  0  0  0  0  0  0  0  0  0
  -17.1422  -40.8720   -7.8150 N   0  0  0  0  0  0  0  0  0  0  0  0
  -18.0834  -41.8935   -7.6949 C   0  0  0  0  0  0  0  0  0  0  0  0
  -18.8747  -41.5332   -6.6005 O   0  0  0  0  0  0  0  0  0  0  0  0
  -18.6587  -43.1549   -8.1529 C   0  0  0  0  0  0  0  0  0  0  0  0
  -18.9420  -44.3157   -7.3902 C   0  0  0  0  0  0  0  0  0  0  0  0
  -19.9125  -45.1546   -7.8487 C   0  0  0  0  0  0  0  0  0  0  0  0
  -20.5912  -44.9525   -9.0498 C   0  0  0  0  0  0  0  0  0  0  0  0
  -20.3364  -43.8551   -9.8478 C   0  0  0  0  0  0  0  0  0  0  0  0
  -19.3887  -43.0108   -9.3509 C   0  0  0  0  0  0  0  0  0  0  0  0
  -20.8305  -45.9664   -6.9076 C   0  0  0  0  0  0  0  0  0  0  0  0
  -21.0842  -47.1093   -7.2410 O   0  0  0  0  0  0  0  0  0  0  0  0
  -16.4864  -38.5918   -7.9563 C   0  0  2  0  0  0  0  0  0  0  0  0
  -17.0364  -37.4013   -7.5598 O   0  0  0  0  0  0  0  0  0  0  0  0
  -15.1811  -38.5246   -8.6599 C   0  0  0  0  0  0  0  0  0  0  0  0
  -14.5212  -39.7451   -8.9430 N   0  0  0  0  0  0  0  0  0  0  0  0
  -13.2099  -39.6430   -9.5289 C   0  0  0  0  0  0  0  0  0  0  0  0
  -13.1976  -38.6778  -10.6722 C   0  0  0  0  0  0  0  0  0  0  0  0
  -14.3665  -38.0651  -11.0332 C   0  0  0  0  0  0  0  0  0  0  0  0
  -14.4376  -37.1420  -12.0836 C   0  0  0  0  0  0  0  0  0  0  0  0
  -13.2874  -36.8582  -12.7580 C   0  0  0  0  0  0  0  0  0  0  0  0
  -12.1092  -37.4726  -12.3982 C   0  0  0  0  0  0  0  0  0  0  0  0
  -12.0468  -38.3807  -11.3627 C   0  0  0  0  0  0  0  0  0  0  0  0
  -15.7434  -36.5207  -12.4170 C   0  0  0  0  0  0  0  0  0  0  0  0
  -16.8005  -37.6111  -12.5661 C   0  0  0  0  0  0  0  0  0  0  0  0
  -16.2149  -35.5573  -11.3518 C   0  0  0  0  0  0  0  0  0  0  0  0
  1  2  1  0
  2  3  1  0
  3  4  1  0
  4  5  1  0
  5  6  1  0
  6  7  1  0
  7  8  1  0
  8  9  1  0
  9 10  1  1
  9 11  1  0
 12 11  1  1
 12 13  1  0
 13 14  1  0
 14 15  2  0
 14 16  1  0
 16 17  2  0
 17 18  1  0
 18 19  2  0
 19 20  1  0
 20 21  2  0
 18 22  1  0
 22 23  2  0
 12 24  1  0
 24 25  1  6
 24 26  1  0
 26 27  1  0
 27 28  1  0
 28 29  1  0
 29 30  2  0
 30 31  1  0
 31 32  2  0
 32 33  1  0
 33 34  2  0
 31 35  1  0
 35 36  1  0
 35 37  1  0
 21 16  1  0
 22  3  1  0
 34 29  1  0
M  END
$$$$
