
     RDKit          3D

 37 39  0  0  0  0  0  0  0  0999 V2000
  -22.6041  -44.4740   -2.9948 C   0  0  0  0  0  0  0  0  0  0  0  0
  -23.1955  -44.6750   -4.3951 C   0  0  0  0  0  0  0  0  0  0  0  0
  -22.2663  -44.0604   -5.3116 N   0  0  0  0  0  0  0  0  0  0  0  0
  -22.0180  -42.6546   -5.1827 C   0  0  0  0  0  0  0  0  0  0  0  0
  -22.7143  -41.6061   -5.9512 C   0  0  0  0  0  0  0  0  0  0  0  0
  -22.1836  -41.0858   -7.2184 C   0  0  0  0  0  0  0  0  0  0  0  0
  -21.6730  -39.6407   -7.3219 C   0  0  0  0  0  0  0  0  0  0  0  0
  -20.8365  -39.4724   -8.5798 C   0  0  0  0  0  0  0  0  0  0  0  0
  -19.5652  -38.6837   -8.5174 C   0  0  1  0  0  0  0  0  0  0  0  0
  -19.3968  -37.8002   -7.3005 C   0  0  0  0  0  0  0  0  0  0  0  0
  -18.3377  -39.1132   -9.2009 C   0  0  0  0  0  0  0  0  0  0  0  0
  -17.1116  -39.6625   -8.6816 C   0  0  2  0  0  0  0  0  0  0  0  0
  -17.1011  -40.7584   -7.6767 N   0  0  0  0  0  0  0  0  0  0  0  0
  -18.2050  -41.5886   -7.4876 C   0  0  0  0  0  0  0  0  0  0  0  0
  -19.0569  -40.8749   -6.6399 O   0  0  0  0  0  0  0  0  0  0  0  0
  -18.9181  -42.8367   -7.7439 C   0  0  0  0  0  0  0  0  0  0  0  0
  -19.4817  -43.7322   -6.8006 C   0  0  0  0  0  0  0  0  0  0  0  0
  -20.5120  -44.5224   -7.2131 C   0  0  0  0  0  0  0  0  0  0  0  0
  -20.9925  -44.5284   -8.5220 C   0  0  0  0  0  0  0  0  0  0  0  0
  -20.4628  -43.6986   -9.4899 C   0  0  0  0  0  0  0  0  0  0  0  0
  -19.4587  -42.8910   -9.0453 C   0  0  0  0  0  0  0  0  0  0  0  0
  -21.6614  -44.9562   -6.2762 C   0  0  0  0  0  0  0  0  0  0  0  0
  -22.0560  -46.1024   -6.3871 O   0  0  0  0  0  0  0  0  0  0  0  0
  -16.0666  -38.6854   -8.2077 C   0  0  2  0  0  0  0  0  0  0  0  0
  -16.0475  -37.4806   -8.8596 O   0  0  0  0  0  0  0  0  0  0  0  0
  -14.7511  -39.2897   -7.8795 C   0  0  0  0  0  0  0  0  0  0  0  0
  -13.9401  -39.7274   -8.9547 N   0  0  0  0  0  0  0  0  0  0  0  0
  -12.5943  -39.2166   -8.9908 C   0  0  0  0  0  0  0  0  0  0  0  0
  -12.2761  -38.6133  -10.3226 C   0  0  0  0  0  0  0  0  0  0  0  0
  -12.2595  -37.2505  -10.4443 C   0  0  0  0  0  0  0  0  0  0  0  0
  -11.9604  -36.6078  -11.6518 C   0  0  0  0  0  0  0  0  0  0  0  0
  -11.6786  -37.3883  -12.7334 C   0  0  0  0  0  0  0  0  0  0  0  0
  -11.6944  -38.7597  -12.6152 C   0  0  0  0  0  0  0  0  0  0  0  0
  -11.9898  -39.3858  -11.4228 C   0  0  0  0  0  0  0  0  0  0  0  0
  -11.9647  -35.1248  -11.7054 C   0  0  0  0  0  0  0  0  0  0  0  0
  -13.4048  -34.6206  -11.6828 C   0  0  0  0  0  0  0  0  0  0  0  0
  -11.2344  -34.5012  -10.5379 C   0  0  0  0  0  0  0  0  0  0  0  0
  1  2  1  0
  2  3  1  0
  3  4  1  0
  4  5  1  0
  5  6  1  0
  6  7  1  0
  7  8  1  0
  8  9  1  0
  9 10  1  1
  9 11  1  0
 12 11  1  1
 12 13  1  0
 13 14  1  0
 14 15  2  0
 14 16  1  0
 16 17  2  0
 17 18  1  0
 18 19  2  0
 19 20  1  0
 20 21  2  0
 18 22  1  0
 22 23  2  0
 12 24  1  0
 24 25  1  6
 24 26  1  0
 26 27  1  0
 27 28  1  0
 28 29  1  0
 29 30  2  0
 30 31  1  0
 31 32  2  0
 32 33  1  0
 33 34  2  0
 31 35  1  0
 35 36  1  0
 35 37  1  0
 21 16  1  0
 22  3  1  0
 34 29  1  0
M  END
$$$$
