
     RDKit          3D

 37 39  0  0  0  0  0  0  0  0999 V2000
  -24.1726  -43.8577   -3.4939 C   0  0  0  0  0  0  0  0  0  0  0  0
  -23.4249  -44.9808   -4.2225 C   0  0  0  0  0  0  0  0  0  0  0  0
  -22.4319  -44.3309   -5.0427 N   0  0  0  0  0  0  0  0  0  0  0  0
  -22.3339  -42.9021   -4.9828 C   0  0  0  0  0  0  0  0  0  0  0  0
  -23.0033  -41.9759   -5.9148 C   0  0  0  0  0  0  0  0  0  0  0  0
  -22.3432  -41.4803   -7.1300 C   0  0  0  0  0  0  0  0  0  0  0  0
  -21.9566  -39.9999   -7.2659 C   0  0  0  0  0  0  0  0  0  0  0  0
  -20.9645  -39.8226   -8.4038 C   0  0  0  0  0  0  0  0  0  0  0  0
  -19.7930  -38.9080   -8.2223 C   0  0  1  0  0  0  0  0  0  0  0  0
  -19.8847  -37.9421   -7.0611 C   0  0  0  0  0  0  0  0  0  0  0  0
  -18.4451  -39.2515   -8.6951 C   0  0  0  0  0  0  0  0  0  0  0  0
  -17.2628  -39.6434   -7.9715 C   0  0  2  0  0  0  0  0  0  0  0  0
  -17.2992  -40.6718   -6.8982 N   0  0  0  0  0  0  0  0  0  0  0  0
  -18.3387  -41.5960   -6.8051 C   0  0  0  0  0  0  0  0  0  0  0  0
  -19.3664  -40.9229   -6.1383 O   0  0  0  0  0  0  0  0  0  0  0  0
  -18.8904  -42.9223   -7.0670 C   0  0  0  0  0  0  0  0  0  0  0  0
  -19.5016  -43.8129   -6.1489 C   0  0  0  0  0  0  0  0  0  0  0  0
  -20.3846  -44.7254   -6.6426 C   0  0  0  0  0  0  0  0  0  0  0  0
  -20.6667  -44.8566   -8.0017 C   0  0  0  0  0  0  0  0  0  0  0  0
  -20.0793  -44.0361   -8.9440 C   0  0  0  0  0  0  0  0  0  0  0  0
  -19.2284  -43.1071   -8.4236 C   0  0  0  0  0  0  0  0  0  0  0  0
  -21.6140  -45.2166   -5.8460 C   0  0  0  0  0  0  0  0  0  0  0  0
  -21.8822  -46.4011   -5.9273 O   0  0  0  0  0  0  0  0  0  0  0  0
  -16.3913  -38.5402   -7.4289 C   0  0  2  0  0  0  0  0  0  0  0  0
  -16.9781  -37.7332   -6.4901 O   0  0  0  0  0  0  0  0  0  0  0  0
  -15.5266  -37.8759   -8.4361 C   0  0  0  0  0  0  0  0  0  0  0  0
  -15.3001  -38.5525   -9.6593 N   0  0  0  0  0  0  0  0  0  0  0  0
  -14.0005  -39.1486   -9.8300 C   0  0  0  0  0  0  0  0  0  0  0  0
  -13.4478  -38.8696  -11.1922 C   0  0  0  0  0  0  0  0  0  0  0  0
  -12.9554  -37.6221  -11.4633 C   0  0  0  0  0  0  0  0  0  0  0  0
  -12.4112  -37.2836  -12.7083 C   0  0  0  0  0  0  0  0  0  0  0  0
  -12.3810  -38.2481  -13.6711 C   0  0  0  0  0  0  0  0  0  0  0  0
  -12.8756  -39.5044  -13.4026 C   0  0  0  0  0  0  0  0  0  0  0  0
  -13.4100  -39.8306  -12.1742 C   0  0  0  0  0  0  0  0  0  0  0  0
  -11.8990  -35.9081  -12.9269 C   0  0  0  0  0  0  0  0  0  0  0  0
  -12.9805  -35.0645  -13.5957 C   0  0  0  0  0  0  0  0  0  0  0  0
  -11.5063  -35.2247  -11.6370 C   0  0  0  0  0  0  0  0  0  0  0  0
  1  2  1  0
  2  3  1  0
  3  4  1  0
  4  5  1  0
  5  6  1  0
  6  7  1  0
  7  8  1  0
  8  9  1  0
  9 10  1  1
  9 11  1  0
 12 11  1  1
 12 13  1  0
 13 14  1  0
 14 15  2  0
 14 16  1  0
 16 17  2  0
 17 18  1  0
 18 19  2  0
 19 20  1  0
 20 21  2  0
 18 22  1  0
 22 23  2  0
 12 24  1  0
 24 25  1  6
 24 26  1  0
 26 27  1  0
 27 28  1  0
 28 29  1  0
 29 30  2  0
 30 31  1  0
 31 32  2  0
 32 33  1  0
 33 34  2  0
 31 35  1  0
 35 36  1  0
 35 37  1  0
 21 16  1  0
 22  3  1  0
 34 29  1  0
M  END
$$$$
