
     RDKit          3D

 37 39  0  0  0  0  0  0  0  0999 V2000
  -23.2361  -46.9409   -6.4326 C   0  0  0  0  0  0  0  0  0  0  0  0
  -23.4481  -45.8873   -7.5263 C   0  0  0  0  0  0  0  0  0  0  0  0
  -22.4509  -44.8702   -7.2976 N   0  0  0  0  0  0  0  0  0  0  0  0
  -21.2975  -44.8495   -8.1484 C   0  0  0  0  0  0  0  0  0  0  0  0
  -20.0096  -45.4937   -7.8308 C   0  0  0  0  0  0  0  0  0  0  0  0
  -18.9208  -44.7709   -7.1598 C   0  0  0  0  0  0  0  0  0  0  0  0
  -17.6152  -44.4508   -7.9032 C   0  0  0  0  0  0  0  0  0  0  0  0
  -16.8337  -43.3870   -7.1495 C   0  0  0  0  0  0  0  0  0  0  0  0
  -16.1743  -42.2801   -7.9124 C   0  0  1  0  0  0  0  0  0  0  0  0
  -16.0188  -42.5068   -9.4003 C   0  0  0  0  0  0  0  0  0  0  0  0
  -16.1955  -40.8851   -7.4521 C   0  0  0  0  0  0  0  0  0  0  0  0
  -16.9232  -39.7416   -7.9398 C   0  0  2  0  0  0  0  0  0  0  0  0
  -18.3751  -39.8056   -8.2541 N   0  0  0  0  0  0  0  0  0  0  0  0
  -19.1953  -40.8011   -7.7249 C   0  0  0  0  0  0  0  0  0  0  0  0
  -19.0082  -41.9083   -8.5573 O   0  0  0  0  0  0  0  0  0  0  0  0
  -20.1514  -41.2638   -6.7231 C   0  0  0  0  0  0  0  0  0  0  0  0
  -21.4027  -41.8957   -6.9336 C   0  0  0  0  0  0  0  0  0  0  0  0
  -21.8863  -42.6921   -5.9396 C   0  0  0  0  0  0  0  0  0  0  0  0
  -21.2385  -42.8653   -4.7172 C   0  0  0  0  0  0  0  0  0  0  0  0
  -20.0319  -42.2518   -4.4456 C   0  0  0  0  0  0  0  0  0  0  0  0
  -19.5496  -41.4902   -5.4679 C   0  0  0  0  0  0  0  0  0  0  0  0
  -22.7387  -43.9510   -6.2155 C   0  0  0  0  0  0  0  0  0  0  0  0
  -23.6774  -44.1521   -5.4672 O   0  0  0  0  0  0  0  0  0  0  0  0
  -16.3086  -38.9699   -9.0789 C   0  0  2  0  0  0  0  0  0  0  0  0
  -15.0652  -39.3897   -9.4722 O   0  0  0  0  0  0  0  0  0  0  0  0
  -16.5368  -37.5038   -9.0339 C   0  0  0  0  0  0  0  0  0  0  0  0
  -17.6602  -37.0335   -8.3115 N   0  0  0  0  0  0  0  0  0  0  0  0
  -18.8759  -36.8565   -9.0625 C   0  0  0  0  0  0  0  0  0  0  0  0
  -18.6026  -36.7801  -10.5316 C   0  0  0  0  0  0  0  0  0  0  0  0
  -19.2868  -37.6117  -11.3757 C   0  0  0  0  0  0  0  0  0  0  0  0
  -19.0976  -37.5952  -12.7630 C   0  0  0  0  0  0  0  0  0  0  0  0
  -18.1933  -36.7099  -13.2697 C   0  0  0  0  0  0  0  0  0  0  0  0
  -17.5027  -35.8716  -12.4239 C   0  0  0  0  0  0  0  0  0  0  0  0
  -17.6942  -35.8934  -11.0587 C   0  0  0  0  0  0  0  0  0  0  0  0
  -19.8759  -38.5300  -13.6131 C   0  0  0  0  0  0  0  0  0  0  0  0
  -19.0441  -39.7801  -13.8852 C   0  0  0  0  0  0  0  0  0  0  0  0
  -21.1695  -38.9638  -12.9623 C   0  0  0  0  0  0  0  0  0  0  0  0
  1  2  1  0
  2  3  1  0
  3  4  1  0
  4  5  1  0
  5  6  1  0
  6  7  1  0
  7  8  1  0
  8  9  1  0
  9 10  1  6
  9 11  1  0
 12 11  1  6
 12 13  1  0
 13 14  1  0
 14 15  2  0
 14 16  1  0
 16 17  2  0
 17 18  1  0
 18 19  2  0
 19 20  1  0
 20 21  2  0
 18 22  1  0
 22 23  2  0
 12 24  1  0
 24 25  1  1
 24 26  1  0
 26 27  1  0
 27 28  1  0
 28 29  1  0
 29 30  2  0
 30 31  1  0
 31 32  2  0
 32 33  1  0
 33 34  2  0
 31 35  1  0
 35 36  1  0
 35 37  1  0
 21 16  1  0
 22  3  1  0
 34 29  1  0
M  END
$$$$
