
     RDKit          3D

 37 39  0  0  0  0  0  0  0  0999 V2000
  -21.0627  -46.8383   -4.2457 C   0  0  0  0  0  0  0  0  0  0  0  0
  -21.9282  -46.5939   -5.4876 C   0  0  0  0  0  0  0  0  0  0  0  0
  -21.3633  -45.4412   -6.1459 N   0  0  0  0  0  0  0  0  0  0  0  0
  -21.3005  -44.2086   -5.4171 C   0  0  0  0  0  0  0  0  0  0  0  0
  -22.3158  -43.1413   -5.4855 C   0  0  0  0  0  0  0  0  0  0  0  0
  -22.2069  -42.0209   -6.4294 C   0  0  0  0  0  0  0  0  0  0  0  0
  -21.9582  -40.5910   -5.9262 C   0  0  0  0  0  0  0  0  0  0  0  0
  -21.5027  -39.7060   -7.0750 C   0  0  0  0  0  0  0  0  0  0  0  0
  -20.3880  -38.7310   -6.8548 C   0  0  1  0  0  0  0  0  0  0  0  0
  -20.0482  -38.4334   -5.4106 C   0  0  0  0  0  0  0  0  0  0  0  0
  -19.3248  -38.5136   -7.8452 C   0  0  0  0  0  0  0  0  0  0  0  0
  -17.9398  -38.9095   -7.8449 C   0  0  2  0  0  0  0  0  0  0  0  0
  -17.5130  -40.2874   -7.4839 N   0  0  0  0  0  0  0  0  0  0  0  0
  -18.3979  -41.3637   -7.5313 C   0  0  0  0  0  0  0  0  0  0  0  0
  -19.1022  -41.3100   -6.3251 O   0  0  0  0  0  0  0  0  0  0  0  0
  -18.9606  -42.5197   -8.2233 C   0  0  0  0  0  0  0  0  0  0  0  0
  -19.1279  -43.8384   -7.7310 C   0  0  0  0  0  0  0  0  0  0  0  0
  -20.1010  -44.6073   -8.2949 C   0  0  0  0  0  0  0  0  0  0  0  0
  -20.8917  -44.1779   -9.3599 C   0  0  0  0  0  0  0  0  0  0  0  0
  -20.7535  -42.9144   -9.8989 C   0  0  0  0  0  0  0  0  0  0  0  0
  -19.7999  -42.1504   -9.2948 C   0  0  0  0  0  0  0  0  0  0  0  0
  -20.8979  -45.6654   -7.4994 C   0  0  0  0  0  0  0  0  0  0  0  0
  -21.1342  -46.7153   -8.0681 O   0  0  0  0  0  0  0  0  0  0  0  0
  -16.9647  -38.0000   -7.1429 C   0  0  2  0  0  0  0  0  0  0  0  0
  -17.5220  -36.9428   -6.4730 O   0  0  0  0  0  0  0  0  0  0  0  0
  -15.7116  -37.7318   -7.8922 C   0  0  0  0  0  0  0  0  0  0  0  0
  -15.8270  -37.2668   -9.2246 N   0  0  0  0  0  0  0  0  0  0  0  0
  -14.5950  -36.9693   -9.9079 C   0  0  0  0  0  0  0  0  0  0  0  0
  -14.2303  -38.0546  -10.8712 C   0  0  0  0  0  0  0  0  0  0  0  0
  -12.9091  -38.2741  -11.1511 C   0  0  0  0  0  0  0  0  0  0  0  0
  -12.4842  -39.2763  -12.0319 C   0  0  0  0  0  0  0  0  0  0  0  0
  -13.4394  -40.0500  -12.6213 C   0  0  0  0  0  0  0  0  0  0  0  0
  -14.7699  -39.8324  -12.3426 C   0  0  0  0  0  0  0  0  0  0  0  0
  -15.1809  -38.8436  -11.4740 C   0  0  0  0  0  0  0  0  0  0  0  0
  -11.0328  -39.4515  -12.2866 C   0  0  0  0  0  0  0  0  0  0  0  0
  -10.3930  -38.0884  -12.5337 C   0  0  0  0  0  0  0  0  0  0  0  0
  -10.3152  -40.0991  -11.1243 C   0  0  0  0  0  0  0  0  0  0  0  0
  1  2  1  0
  2  3  1  0
  3  4  1  0
  4  5  1  0
  5  6  1  0
  6  7  1  0
  7  8  1  0
  8  9  1  0
  9 10  1  1
  9 11  1  0
 12 11  1  1
 12 13  1  0
 13 14  1  0
 14 15  2  0
 14 16  1  0
 16 17  2  0
 17 18  1  0
 18 19  2  0
 19 20  1  0
 20 21  2  0
 18 22  1  0
 22 23  2  0
 12 24  1  0
 24 25  1  6
 24 26  1  0
 26 27  1  0
 27 28  1  0
 28 29  1  0
 29 30  2  0
 30 31  1  0
 31 32  2  0
 32 33  1  0
 33 34  2  0
 31 35  1  0
 35 36  1  0
 35 37  1  0
 21 16  1  0
 22  3  1  0
 34 29  1  0
M  END
$$$$
