
     RDKit          3D

 37 39  0  0  0  0  0  0  0  0999 V2000
  -23.5656  -42.8639   -3.1257 C   0  0  0  0  0  0  0  0  0  0  0  0
  -22.8112  -44.0943   -3.6437 C   0  0  0  0  0  0  0  0  0  0  0  0
  -21.9516  -43.6185   -4.7000 N   0  0  0  0  0  0  0  0  0  0  0  0
  -21.7614  -42.2040   -4.8327 C   0  0  0  0  0  0  0  0  0  0  0  0
  -22.5372  -41.3348   -5.7367 C   0  0  0  0  0  0  0  0  0  0  0  0
  -22.0864  -41.0285   -7.1009 C   0  0  0  0  0  0  0  0  0  0  0  0
  -21.6464  -39.6071   -7.4824 C   0  0  0  0  0  0  0  0  0  0  0  0
  -20.8741  -39.6341   -8.7913 C   0  0  0  0  0  0  0  0  0  0  0  0
  -19.6382  -38.8009   -8.9333 C   0  0  1  0  0  0  0  0  0  0  0  0
  -19.4566  -37.7100   -7.9005 C   0  0  0  0  0  0  0  0  0  0  0  0
  -18.4237  -39.2997   -9.5925 C   0  0  0  0  0  0  0  0  0  0  0  0
  -17.1524  -39.7029   -9.0481 C   0  0  2  0  0  0  0  0  0  0  0  0
  -17.0487  -40.6020   -7.8683 N   0  0  0  0  0  0  0  0  0  0  0  0
  -18.1048  -41.4253   -7.4804 C   0  0  0  0  0  0  0  0  0  0  0  0
  -18.9500  -40.6041   -6.7287 O   0  0  0  0  0  0  0  0  0  0  0  0
  -18.7715  -42.7242   -7.4769 C   0  0  0  0  0  0  0  0  0  0  0  0
  -19.2524  -43.4581   -6.3635 C   0  0  0  0  0  0  0  0  0  0  0  0
  -20.2631  -44.3462   -6.5779 C   0  0  0  0  0  0  0  0  0  0  0  0
  -20.7997  -44.6020   -7.8391 C   0  0  0  0  0  0  0  0  0  0  0  0
  -20.3507  -43.9383   -8.9634 C   0  0  0  0  0  0  0  0  0  0  0  0
  -19.3656  -43.0284   -8.7192 C   0  0  0  0  0  0  0  0  0  0  0  0
  -21.3498  -44.6486   -5.5220 C   0  0  0  0  0  0  0  0  0  0  0  0
  -21.6968  -45.8099   -5.4096 O   0  0  0  0  0  0  0  0  0  0  0  0
  -16.1328  -38.6197   -8.8071 C   0  0  2  0  0  0  0  0  0  0  0  0
  -16.5605  -37.5675   -8.0409 O   0  0  0  0  0  0  0  0  0  0  0  0
  -15.2820  -38.2923   -9.9786 C   0  0  0  0  0  0  0  0  0  0  0  0
  -14.7708  -39.3688  -10.7434 N   0  0  0  0  0  0  0  0  0  0  0  0
  -13.3449  -39.3924  -10.9424 C   0  0  0  0  0  0  0  0  0  0  0  0
  -12.8581  -38.1141  -11.5491 C   0  0  0  0  0  0  0  0  0  0  0  0
  -13.7518  -37.0996  -11.7597 C   0  0  0  0  0  0  0  0  0  0  0  0
  -13.3750  -35.8694  -12.3122 C   0  0  0  0  0  0  0  0  0  0  0  0
  -12.0643  -35.6980  -12.6451 C   0  0  0  0  0  0  0  0  0  0  0  0
  -11.1620  -36.7162  -12.4351 C   0  0  0  0  0  0  0  0  0  0  0  0
  -11.5402  -37.9251  -11.8906 C   0  0  0  0  0  0  0  0  0  0  0  0
  -14.4031  -34.8181  -12.5121 C   0  0  0  0  0  0  0  0  0  0  0  0
  -14.0287  -33.5815  -11.7001 C   0  0  0  0  0  0  0  0  0  0  0  0
  -14.5326  -34.4029  -13.9599 C   0  0  0  0  0  0  0  0  0  0  0  0
  1  2  1  0
  2  3  1  0
  3  4  1  0
  4  5  1  0
  5  6  1  0
  6  7  1  0
  7  8  1  0
  8  9  1  0
  9 10  1  1
  9 11  1  0
 12 11  1  1
 12 13  1  0
 13 14  1  0
 14 15  2  0
 14 16  1  0
 16 17  2  0
 17 18  1  0
 18 19  2  0
 19 20  1  0
 20 21  2  0
 18 22  1  0
 22 23  2  0
 12 24  1  0
 24 25  1  6
 24 26  1  0
 26 27  1  0
 27 28  1  0
 28 29  1  0
 29 30  2  0
 30 31  1  0
 31 32  2  0
 32 33  1  0
 33 34  2  0
 31 35  1  0
 35 36  1  0
 35 37  1  0
 21 16  1  0
 22  3  1  0
 34 29  1  0
M  END
$$$$
