
     RDKit          3D

 37 39  0  0  0  0  0  0  0  0999 V2000
  -24.0168  -43.9493   -4.8302 C   0  0  0  0  0  0  0  0  0  0  0  0
  -23.2496  -44.9480   -5.7050 C   0  0  0  0  0  0  0  0  0  0  0  0
  -22.2306  -44.1832   -6.3818 N   0  0  0  0  0  0  0  0  0  0  0  0
  -21.8679  -42.9077   -5.8376 C   0  0  0  0  0  0  0  0  0  0  0  0
  -22.4360  -41.6183   -6.2727 C   0  0  0  0  0  0  0  0  0  0  0  0
  -21.8060  -40.8022   -7.3192 C   0  0  0  0  0  0  0  0  0  0  0  0
  -21.1685  -39.4462   -6.9807 C   0  0  0  0  0  0  0  0  0  0  0  0
  -20.2650  -38.9968   -8.1174 C   0  0  0  0  0  0  0  0  0  0  0  0
  -18.9345  -38.3867   -7.8020 C   0  0  1  0  0  0  0  0  0  0  0  0
  -18.7452  -37.9197   -6.3752 C   0  0  0  0  0  0  0  0  0  0  0  0
  -17.7192  -38.7120   -8.5607 C   0  0  0  0  0  0  0  0  0  0  0  0
  -16.5696  -39.5042   -8.2064 C   0  0  2  0  0  0  0  0  0  0  0  0
  -16.6988  -40.8426   -7.5716 N   0  0  0  0  0  0  0  0  0  0  0  0
  -17.8776  -41.5821   -7.6564 C   0  0  0  0  0  0  0  0  0  0  0  0
  -18.7019  -41.0707   -6.6500 O   0  0  0  0  0  0  0  0  0  0  0  0
  -18.6835  -42.6257   -8.2834 C   0  0  0  0  0  0  0  0  0  0  0  0
  -19.3641  -43.7005   -7.6580 C   0  0  0  0  0  0  0  0  0  0  0  0
  -20.4391  -44.2323   -8.3041 C   0  0  0  0  0  0  0  0  0  0  0  0
  -20.8591  -43.8078   -9.5640 C   0  0  0  0  0  0  0  0  0  0  0  0
  -20.2169  -42.7851  -10.2331 C   0  0  0  0  0  0  0  0  0  0  0  0
  -19.1679  -42.2436   -9.5516 C   0  0  0  0  0  0  0  0  0  0  0  0
  -21.6626  -44.8100   -7.5580 C   0  0  0  0  0  0  0  0  0  0  0  0
  -22.1492  -45.8299   -8.0105 O   0  0  0  0  0  0  0  0  0  0  0  0
  -15.4665  -38.8140   -7.4462 C   0  0  2  0  0  0  0  0  0  0  0  0
  -15.8658  -38.0976   -6.3488 O   0  0  0  0  0  0  0  0  0  0  0  0
  -14.4103  -38.2065   -8.2940 C   0  0  0  0  0  0  0  0  0  0  0  0
  -13.5013  -39.0786   -8.9406 N   0  0  0  0  0  0  0  0  0  0  0  0
  -14.0192  -39.8344  -10.0514 C   0  0  0  0  0  0  0  0  0  0  0  0
  -14.3717  -38.9428  -11.2001 C   0  0  0  0  0  0  0  0  0  0  0  0
  -13.6259  -37.8161  -11.4158 C   0  0  0  0  0  0  0  0  0  0  0  0
  -13.8832  -36.9361  -12.4742 C   0  0  0  0  0  0  0  0  0  0  0  0
  -14.9201  -37.2325  -13.3081 C   0  0  0  0  0  0  0  0  0  0  0  0
  -15.6731  -38.3650  -13.0945 C   0  0  0  0  0  0  0  0  0  0  0  0
  -15.4138  -39.2270  -12.0501 C   0  0  0  0  0  0  0  0  0  0  0  0
  -13.0310  -35.7329  -12.6416 C   0  0  0  0  0  0  0  0  0  0  0  0
  -13.9178  -34.5066  -12.8376 C   0  0  0  0  0  0  0  0  0  0  0  0
  -12.1446  -35.4800  -11.4434 C   0  0  0  0  0  0  0  0  0  0  0  0
  1  2  1  0
  2  3  1  0
  3  4  1  0
  4  5  1  0
  5  6  1  0
  6  7  1  0
  7  8  1  0
  8  9  1  0
  9 10  1  1
  9 11  1  0
 12 11  1  1
 12 13  1  0
 13 14  1  0
 14 15  2  0
 14 16  1  0
 16 17  2  0
 17 18  1  0
 18 19  2  0
 19 20  1  0
 20 21  2  0
 18 22  1  0
 22 23  2  0
 12 24  1  0
 24 25  1  6
 24 26  1  0
 26 27  1  0
 27 28  1  0
 28 29  1  0
 29 30  2  0
 30 31  1  0
 31 32  2  0
 32 33  1  0
 33 34  2  0
 31 35  1  0
 35 36  1  0
 35 37  1  0
 21 16  1  0
 22  3  1  0
 34 29  1  0
M  END
$$$$
