
     RDKit          3D

 37 39  0  0  0  0  0  0  0  0999 V2000
  -24.3218  -39.7415   -3.0490 C   0  0  0  0  0  0  0  0  0  0  0  0
  -23.7368  -41.1581   -3.0008 C   0  0  0  0  0  0  0  0  0  0  0  0
  -22.7737  -41.2276   -4.0726 N   0  0  0  0  0  0  0  0  0  0  0  0
  -22.6966  -40.1256   -4.9860 C   0  0  0  0  0  0  0  0  0  0  0  0
  -23.4021  -40.0574   -6.2791 C   0  0  0  0  0  0  0  0  0  0  0  0
  -22.7787  -40.5044   -7.5320 C   0  0  0  0  0  0  0  0  0  0  0  0
  -22.4185  -39.4962   -8.6336 C   0  0  0  0  0  0  0  0  0  0  0  0
  -21.4565  -40.1296   -9.6254 C   0  0  0  0  0  0  0  0  0  0  0  0
  -20.2954  -39.3331  -10.1348 C   0  0  1  0  0  0  0  0  0  0  0  0
  -20.3747  -37.8381   -9.9151 C   0  0  0  0  0  0  0  0  0  0  0  0
  -18.9539  -39.9104  -10.2942 C   0  0  0  0  0  0  0  0  0  0  0  0
  -17.7489  -39.7229   -9.5275 C   0  0  2  0  0  0  0  0  0  0  0  0
  -17.7439  -39.7695   -8.0413 N   0  0  0  0  0  0  0  0  0  0  0  0
  -18.7664  -40.3901   -7.3252 C   0  0  0  0  0  0  0  0  0  0  0  0
  -19.7884  -39.4394   -7.2509 O   0  0  0  0  0  0  0  0  0  0  0  0
  -19.3034  -41.5489   -6.6177 C   0  0  0  0  0  0  0  0  0  0  0  0
  -19.8788  -41.5946   -5.3229 C   0  0  0  0  0  0  0  0  0  0  0  0
  -20.7589  -42.5994   -5.0550 C   0  0  0  0  0  0  0  0  0  0  0  0
  -21.0709  -43.6047   -5.9694 C   0  0  0  0  0  0  0  0  0  0  0  0
  -20.5188  -43.6273   -7.2347 C   0  0  0  0  0  0  0  0  0  0  0  0
  -19.6705  -42.5921   -7.4928 C   0  0  0  0  0  0  0  0  0  0  0  0
  -21.9613  -42.4268   -4.1003 C   0  0  0  0  0  0  0  0  0  0  0  0
  -22.2129  -43.3607   -3.3612 O   0  0  0  0  0  0  0  0  0  0  0  0
  -16.8821  -38.5434   -9.8862 C   0  0  2  0  0  0  0  0  0  0  0  0
  -17.4845  -37.5805  -10.6521 O   0  0  0  0  0  0  0  0  0  0  0  0
  -15.4759  -38.8817  -10.2205 C   0  0  0  0  0  0  0  0  0  0  0  0
  -14.4846  -38.6186   -9.2441 N   0  0  0  0  0  0  0  0  0  0  0  0
  -13.4456  -37.6950   -9.6193 C   0  0  0  0  0  0  0  0  0  0  0  0
  -13.0014  -37.9186  -11.0306 C   0  0  0  0  0  0  0  0  0  0  0  0
  -12.3976  -39.1030  -11.3541 C   0  0  0  0  0  0  0  0  0  0  0  0
  -11.9632  -39.3945  -12.6530 C   0  0  0  0  0  0  0  0  0  0  0  0
  -12.1592  -38.4487  -13.6150 C   0  0  0  0  0  0  0  0  0  0  0  0
  -12.7661  -37.2556  -13.2936 C   0  0  0  0  0  0  0  0  0  0  0  0
  -13.1913  -36.9754  -12.0123 C   0  0  0  0  0  0  0  0  0  0  0  0
  -11.3144  -40.7010  -12.9255 C   0  0  0  0  0  0  0  0  0  0  0  0
  -12.3831  -41.7846  -13.0366 C   0  0  0  0  0  0  0  0  0  0  0  0
  -10.5205  -40.6960  -14.2118 C   0  0  0  0  0  0  0  0  0  0  0  0
  1  2  1  0
  2  3  1  0
  3  4  1  0
  4  5  1  0
  5  6  1  0
  6  7  1  0
  7  8  1  0
  8  9  1  0
  9 10  1  1
  9 11  1  0
 12 11  1  1
 12 13  1  0
 13 14  1  0
 14 15  2  0
 14 16  1  0
 16 17  2  0
 17 18  1  0
 18 19  2  0
 19 20  1  0
 20 21  2  0
 18 22  1  0
 22 23  2  0
 12 24  1  0
 24 25  1  6
 24 26  1  0
 26 27  1  0
 27 28  1  0
 28 29  1  0
 29 30  2  0
 30 31  1  0
 31 32  2  0
 32 33  1  0
 33 34  2  0
 31 35  1  0
 35 36  1  0
 35 37  1  0
 21 16  1  0
 22  3  1  0
 34 29  1  0
M  END
$$$$
