
     RDKit          3D

 37 39  0  0  0  0  0  0  0  0999 V2000
  -22.0988  -44.6302   -3.0903 C   0  0  0  0  0  0  0  0  0  0  0  0
  -22.2907  -45.3126   -4.4500 C   0  0  0  0  0  0  0  0  0  0  0  0
  -21.5323  -44.5324   -5.3973 N   0  0  0  0  0  0  0  0  0  0  0  0
  -21.5187  -43.1074   -5.2438 C   0  0  0  0  0  0  0  0  0  0  0  0
  -22.4248  -42.1797   -5.9460 C   0  0  0  0  0  0  0  0  0  0  0  0
  -22.0624  -41.5543   -7.2249 C   0  0  0  0  0  0  0  0  0  0  0  0
  -21.8106  -40.0417   -7.3162 C   0  0  0  0  0  0  0  0  0  0  0  0
  -21.0871  -39.7110   -8.6114 C   0  0  0  0  0  0  0  0  0  0  0  0
  -19.9663  -38.7183   -8.5949 C   0  0  1  0  0  0  0  0  0  0  0  0
  -19.8814  -37.8406   -7.3653 C   0  0  0  0  0  0  0  0  0  0  0  0
  -18.7245  -38.9200   -9.3536 C   0  0  0  0  0  0  0  0  0  0  0  0
  -17.3956  -39.2612   -8.9146 C   0  0  2  0  0  0  0  0  0  0  0  0
  -17.1429  -40.3568   -7.9416 N   0  0  0  0  0  0  0  0  0  0  0  0
  -18.0778  -41.3663   -7.7171 C   0  0  0  0  0  0  0  0  0  0  0  0
  -18.9889  -40.8234   -6.8066 O   0  0  0  0  0  0  0  0  0  0  0  0
  -18.5826  -42.7130   -7.9689 C   0  0  0  0  0  0  0  0  0  0  0  0
  -18.9322  -43.7080   -7.0216 C   0  0  0  0  0  0  0  0  0  0  0  0
  -19.8355  -44.6549   -7.4005 C   0  0  0  0  0  0  0  0  0  0  0  0
  -20.3812  -44.7198   -8.6818 C   0  0  0  0  0  0  0  0  0  0  0  0
  -20.0553  -43.7949   -9.6537 C   0  0  0  0  0  0  0  0  0  0  0  0
  -19.1790  -42.8359   -9.2410 C   0  0  0  0  0  0  0  0  0  0  0  0
  -20.8400  -45.2949   -6.4163 C   0  0  0  0  0  0  0  0  0  0  0  0
  -21.0404  -46.4894   -6.5370 O   0  0  0  0  0  0  0  0  0  0  0  0
  -16.5061  -38.1287   -8.4704 C   0  0  2  0  0  0  0  0  0  0  0  0
  -17.1476  -36.9520   -8.1861 O   0  0  0  0  0  0  0  0  0  0  0  0
  -15.2147  -38.0287   -9.1956 C   0  0  0  0  0  0  0  0  0  0  0  0
  -14.1934  -38.9478   -8.8529 N   0  0  0  0  0  0  0  0  0  0  0  0
  -13.6419  -39.7241   -9.9330 C   0  0  0  0  0  0  0  0  0  0  0  0
  -13.3190  -38.8630  -11.1133 C   0  0  0  0  0  0  0  0  0  0  0  0
  -13.5012  -37.5105  -11.0150 C   0  0  0  0  0  0  0  0  0  0  0  0
  -13.2127  -36.6350  -12.0690 C   0  0  0  0  0  0  0  0  0  0  0  0
  -12.7336  -37.1719  -13.2268 C   0  0  0  0  0  0  0  0  0  0  0  0
  -12.5490  -38.5321  -13.3301 C   0  0  0  0  0  0  0  0  0  0  0  0
  -12.8353  -39.3882  -12.2879 C   0  0  0  0  0  0  0  0  0  0  0  0
  -13.4390  -35.1798  -11.8867 C   0  0  0  0  0  0  0  0  0  0  0  0
  -14.8657  -34.9457  -11.3983 C   0  0  0  0  0  0  0  0  0  0  0  0
  -12.4948  -34.5691  -10.8765 C   0  0  0  0  0  0  0  0  0  0  0  0
  1  2  1  0
  2  3  1  0
  3  4  1  0
  4  5  1  0
  5  6  1  0
  6  7  1  0
  7  8  1  0
  8  9  1  0
  9 10  1  1
  9 11  1  0
 12 11  1  1
 12 13  1  0
 13 14  1  0
 14 15  2  0
 14 16  1  0
 16 17  2  0
 17 18  1  0
 18 19  2  0
 19 20  1  0
 20 21  2  0
 18 22  1  0
 22 23  2  0
 12 24  1  0
 24 25  1  6
 24 26  1  0
 26 27  1  0
 27 28  1  0
 28 29  1  0
 29 30  2  0
 30 31  1  0
 31 32  2  0
 32 33  1  0
 33 34  2  0
 31 35  1  0
 35 36  1  0
 35 37  1  0
 21 16  1  0
 22  3  1  0
 34 29  1  0
M  END
$$$$
