
     RDKit          3D

 37 39  0  0  0  0  0  0  0  0999 V2000
  -23.3709  -45.0888   -4.5403 C   0  0  0  0  0  0  0  0  0  0  0  0
  -23.2956  -45.5678   -5.9950 C   0  0  0  0  0  0  0  0  0  0  0  0
  -22.3831  -44.6716   -6.6623 N   0  0  0  0  0  0  0  0  0  0  0  0
  -22.1431  -43.3872   -6.0729 C   0  0  0  0  0  0  0  0  0  0  0  0
  -22.8570  -42.1500   -6.4390 C   0  0  0  0  0  0  0  0  0  0  0  0
  -22.3470  -41.2297   -7.4643 C   0  0  0  0  0  0  0  0  0  0  0  0
  -21.8481  -39.8277   -7.0833 C   0  0  0  0  0  0  0  0  0  0  0  0
  -21.0296  -39.2388   -8.2208 C   0  0  0  0  0  0  0  0  0  0  0  0
  -19.7633  -38.5024   -7.9109 C   0  0  1  0  0  0  0  0  0  0  0  0
  -19.5850  -38.0752   -6.4704 C   0  0  0  0  0  0  0  0  0  0  0  0
  -18.5420  -38.6647   -8.7113 C   0  0  0  0  0  0  0  0  0  0  0  0
  -17.3051  -39.3423   -8.4182 C   0  0  2  0  0  0  0  0  0  0  0  0
  -17.2735  -40.7111   -7.8382 N   0  0  0  0  0  0  0  0  0  0  0  0
  -18.3688  -41.5690   -7.9268 C   0  0  0  0  0  0  0  0  0  0  0  0
  -19.2144  -41.1897   -6.8804 O   0  0  0  0  0  0  0  0  0  0  0  0
  -19.0764  -42.6673   -8.5787 C   0  0  0  0  0  0  0  0  0  0  0  0
  -19.6210  -43.8330   -7.9838 C   0  0  0  0  0  0  0  0  0  0  0  0
  -20.6510  -44.4511   -8.6265 C   0  0  0  0  0  0  0  0  0  0  0  0
  -21.1489  -44.0243   -9.8570 C   0  0  0  0  0  0  0  0  0  0  0  0
  -20.6380  -42.9125  -10.4967 C   0  0  0  0  0  0  0  0  0  0  0  0
  -19.6339  -42.2891   -9.8176 C   0  0  0  0  0  0  0  0  0  0  0  0
  -21.7848  -45.1862   -7.8772 C   0  0  0  0  0  0  0  0  0  0  0  0
  -22.1726  -46.2336   -8.3612 O   0  0  0  0  0  0  0  0  0  0  0  0
  -16.2610  -38.5685   -7.6554 C   0  0  2  0  0  0  0  0  0  0  0  0
  -16.6683  -37.3569   -7.1624 O   0  0  0  0  0  0  0  0  0  0  0  0
  -14.8939  -38.6316   -8.2305 C   0  0  0  0  0  0  0  0  0  0  0  0
  -14.1094  -39.7746   -7.9417 N   0  0  0  0  0  0  0  0  0  0  0  0
  -13.7543  -40.6070   -9.0617 C   0  0  0  0  0  0  0  0  0  0  0  0
  -13.0351  -39.8250  -10.1154 C   0  0  0  0  0  0  0  0  0  0  0  0
  -13.6186  -38.6911  -10.6112 C   0  0  0  0  0  0  0  0  0  0  0  0
  -13.0070  -37.8978  -11.5897 C   0  0  0  0  0  0  0  0  0  0  0  0
  -11.7853  -38.2887  -12.0511 C   0  0  0  0  0  0  0  0  0  0  0  0
  -11.1948  -39.4290  -11.5551 C   0  0  0  0  0  0  0  0  0  0  0  0
  -11.8031  -40.2053  -10.5915 C   0  0  0  0  0  0  0  0  0  0  0  0
  -13.7042  -36.6828  -12.0794 C   0  0  0  0  0  0  0  0  0  0  0  0
  -15.1869  -36.9904  -12.2684 C   0  0  0  0  0  0  0  0  0  0  0  0
  -13.5881  -35.5217  -11.1185 C   0  0  0  0  0  0  0  0  0  0  0  0
  1  2  1  0
  2  3  1  0
  3  4  1  0
  4  5  1  0
  5  6  1  0
  6  7  1  0
  7  8  1  0
  8  9  1  0
  9 10  1  1
  9 11  1  0
 12 11  1  1
 12 13  1  0
 13 14  1  0
 14 15  2  0
 14 16  1  0
 16 17  2  0
 17 18  1  0
 18 19  2  0
 19 20  1  0
 20 21  2  0
 18 22  1  0
 22 23  2  0
 12 24  1  0
 24 25  1  6
 24 26  1  0
 26 27  1  0
 27 28  1  0
 28 29  1  0
 29 30  2  0
 30 31  1  0
 31 32  2  0
 32 33  1  0
 33 34  2  0
 31 35  1  0
 35 36  1  0
 35 37  1  0
 21 16  1  0
 22  3  1  0
 34 29  1  0
M  END
$$$$
