
     RDKit          3D

 37 39  0  0  0  0  0  0  0  0999 V2000
  -24.3654  -44.9110   -5.3103 C   0  0  0  0  0  0  0  0  0  0  0  0
  -22.9979  -44.8992   -4.6167 C   0  0  0  0  0  0  0  0  0  0  0  0
  -22.1042  -44.2041   -5.5108 N   0  0  0  0  0  0  0  0  0  0  0  0
  -21.8459  -42.8157   -5.2656 C   0  0  0  0  0  0  0  0  0  0  0  0
  -22.5689  -41.7021   -5.9073 C   0  0  0  0  0  0  0  0  0  0  0  0
  -22.0879  -41.0692   -7.1427 C   0  0  0  0  0  0  0  0  0  0  0  0
  -21.5768  -39.6207   -7.1358 C   0  0  0  0  0  0  0  0  0  0  0  0
  -20.7911  -39.3392   -8.4062 C   0  0  0  0  0  0  0  0  0  0  0  0
  -19.5155  -38.5592   -8.3243 C   0  0  1  0  0  0  0  0  0  0  0  0
  -19.2950  -37.7894   -7.0404 C   0  0  0  0  0  0  0  0  0  0  0  0
  -18.3181  -38.9250   -9.0930 C   0  0  0  0  0  0  0  0  0  0  0  0
  -17.0740  -39.5189   -8.6755 C   0  0  2  0  0  0  0  0  0  0  0  0
  -17.0269  -40.7012   -7.7750 N   0  0  0  0  0  0  0  0  0  0  0  0
  -18.1252  -41.5452   -7.6172 C   0  0  0  0  0  0  0  0  0  0  0  0
  -18.9397  -40.9112   -6.6746 O   0  0  0  0  0  0  0  0  0  0  0  0
  -18.8525  -42.7651   -7.9561 C   0  0  0  0  0  0  0  0  0  0  0  0
  -19.3808  -43.7423   -7.0755 C   0  0  0  0  0  0  0  0  0  0  0  0
  -20.4297  -44.4920   -7.5158 C   0  0  0  0  0  0  0  0  0  0  0  0
  -20.9626  -44.3797   -8.7993 C   0  0  0  0  0  0  0  0  0  0  0  0
  -20.4694  -43.4657   -9.7089 C   0  0  0  0  0  0  0  0  0  0  0  0
  -19.4454  -42.7016   -9.2341 C   0  0  0  0  0  0  0  0  0  0  0  0
  -21.5420  -45.0090   -6.5761 C   0  0  0  0  0  0  0  0  0  0  0  0
  -21.9447  -46.1404   -6.7740 O   0  0  0  0  0  0  0  0  0  0  0  0
  -16.0073  -38.5886   -8.1580 C   0  0  2  0  0  0  0  0  0  0  0  0
  -16.4357  -37.3333   -7.8152 O   0  0  0  0  0  0  0  0  0  0  0  0
  -14.7036  -38.6819   -8.8617 C   0  0  0  0  0  0  0  0  0  0  0  0
  -14.1219  -39.9650   -9.0044 N   0  0  0  0  0  0  0  0  0  0  0  0
  -13.3019  -40.1702  -10.1701 C   0  0  0  0  0  0  0  0  0  0  0  0
  -12.7526  -38.8769  -10.6844 C   0  0  0  0  0  0  0  0  0  0  0  0
  -13.3423  -38.2940  -11.7727 C   0  0  0  0  0  0  0  0  0  0  0  0
  -12.8962  -37.0796  -12.3085 C   0  0  0  0  0  0  0  0  0  0  0  0
  -11.8334  -36.4733  -11.7077 C   0  0  0  0  0  0  0  0  0  0  0  0
  -11.2370  -37.0564  -10.6126 C   0  0  0  0  0  0  0  0  0  0  0  0
  -11.6817  -38.2525  -10.0904 C   0  0  0  0  0  0  0  0  0  0  0  0
  -13.5866  -36.5113  -13.4928 C   0  0  0  0  0  0  0  0  0  0  0  0
  -13.9040  -35.0407  -13.2376 C   0  0  0  0  0  0  0  0  0  0  0  0
  -12.7481  -36.5960  -14.7477 C   0  0  0  0  0  0  0  0  0  0  0  0
  1  2  1  0
  2  3  1  0
  3  4  1  0
  4  5  1  0
  5  6  1  0
  6  7  1  0
  7  8  1  0
  8  9  1  0
  9 10  1  1
  9 11  1  0
 12 11  1  1
 12 13  1  0
 13 14  1  0
 14 15  2  0
 14 16  1  0
 16 17  2  0
 17 18  1  0
 18 19  2  0
 19 20  1  0
 20 21  2  0
 18 22  1  0
 22 23  2  0
 12 24  1  0
 24 25  1  6
 24 26  1  0
 26 27  1  0
 27 28  1  0
 28 29  1  0
 29 30  2  0
 30 31  1  0
 31 32  2  0
 32 33  1  0
 33 34  2  0
 31 35  1  0
 35 36  1  0
 35 37  1  0
 21 16  1  0
 22  3  1  0
 34 29  1  0
M  END
$$$$
