
     RDKit          3D

 37 39  0  0  0  0  0  0  0  0999 V2000
  -23.3843  -46.8599   -5.6716 C   0  0  0  0  0  0  0  0  0  0  0  0
  -23.0347  -45.6623   -4.7800 C   0  0  0  0  0  0  0  0  0  0  0  0
  -22.2053  -44.7971   -5.5829 N   0  0  0  0  0  0  0  0  0  0  0  0
  -21.9737  -43.4605   -5.1198 C   0  0  0  0  0  0  0  0  0  0  0  0
  -22.7576  -42.2821   -5.5336 C   0  0  0  0  0  0  0  0  0  0  0  0
  -22.3552  -41.4360   -6.6651 C   0  0  0  0  0  0  0  0  0  0  0  0
  -21.8846  -39.9916   -6.4377 C   0  0  0  0  0  0  0  0  0  0  0  0
  -21.1699  -39.4752   -7.6758 C   0  0  0  0  0  0  0  0  0  0  0  0
  -19.9139  -38.6751   -7.5200 C   0  0  1  0  0  0  0  0  0  0  0  0
  -19.6522  -38.1221   -6.1360 C   0  0  0  0  0  0  0  0  0  0  0  0
  -18.7459  -38.8654   -8.3905 C   0  0  0  0  0  0  0  0  0  0  0  0
  -17.4669  -39.4761   -8.1331 C   0  0  2  0  0  0  0  0  0  0  0  0
  -17.3432  -40.7892   -7.4466 N   0  0  0  0  0  0  0  0  0  0  0  0
  -18.4088  -41.6860   -7.3849 C   0  0  0  0  0  0  0  0  0  0  0  0
  -19.1934  -41.2467   -6.3147 O   0  0  0  0  0  0  0  0  0  0  0  0
  -19.1178  -42.8575   -7.8915 C   0  0  0  0  0  0  0  0  0  0  0  0
  -19.5753  -43.9856   -7.1651 C   0  0  0  0  0  0  0  0  0  0  0  0
  -20.6234  -44.6884   -7.6787 C   0  0  0  0  0  0  0  0  0  0  0  0
  -21.2212  -44.3832   -8.9008 C   0  0  0  0  0  0  0  0  0  0  0  0
  -20.7985  -43.3138   -9.6649 C   0  0  0  0  0  0  0  0  0  0  0  0
  -19.7740  -42.6035   -9.1137 C   0  0  0  0  0  0  0  0  0  0  0  0
  -21.6737  -45.3933   -6.7915 C   0  0  0  0  0  0  0  0  0  0  0  0
  -22.0543  -46.4897   -7.1586 O   0  0  0  0  0  0  0  0  0  0  0  0
  -16.4023  -38.6076   -7.5139 C   0  0  2  0  0  0  0  0  0  0  0  0
  -16.4490  -37.2823   -7.8579 O   0  0  0  0  0  0  0  0  0  0  0  0
  -15.0576  -39.2311   -7.4335 C   0  0  0  0  0  0  0  0  0  0  0  0
  -14.0287  -38.6856   -8.2391 N   0  0  0  0  0  0  0  0  0  0  0  0
  -13.1516  -39.6287   -8.8829 C   0  0  0  0  0  0  0  0  0  0  0  0
  -13.4692  -39.7620  -10.3390 C   0  0  0  0  0  0  0  0  0  0  0  0
  -12.6758  -40.5587  -11.1187 C   0  0  0  0  0  0  0  0  0  0  0  0
  -12.9116  -40.7452  -12.4863 C   0  0  0  0  0  0  0  0  0  0  0  0
  -13.9764  -40.0992  -13.0406 C   0  0  0  0  0  0  0  0  0  0  0  0
  -14.7770  -39.2965  -12.2597 C   0  0  0  0  0  0  0  0  0  0  0  0
  -14.5388  -39.1176  -10.9135 C   0  0  0  0  0  0  0  0  0  0  0  0
  -12.0048  -41.6235  -13.2663 C   0  0  0  0  0  0  0  0  0  0  0  0
  -10.7365  -41.8871  -12.4597 C   0  0  0  0  0  0  0  0  0  0  0  0
  -12.6333  -42.9583  -13.5954 C   0  0  0  0  0  0  0  0  0  0  0  0
  1  2  1  0
  2  3  1  0
  3  4  1  0
  4  5  1  0
  5  6  1  0
  6  7  1  0
  7  8  1  0
  8  9  1  0
  9 10  1  1
  9 11  1  0
 12 11  1  1
 12 13  1  0
 13 14  1  0
 14 15  2  0
 14 16  1  0
 16 17  2  0
 17 18  1  0
 18 19  2  0
 19 20  1  0
 20 21  2  0
 18 22  1  0
 22 23  2  0
 12 24  1  0
 24 25  1  6
 24 26  1  0
 26 27  1  0
 27 28  1  0
 28 29  1  0
 29 30  2  0
 30 31  1  0
 31 32  2  0
 32 33  1  0
 33 34  2  0
 31 35  1  0
 35 36  1  0
 35 37  1  0
 21 16  1  0
 22  3  1  0
 34 29  1  0
M  END
$$$$
