
     RDKit          3D

 39 41  0  0  0  0  0  0  0  0999 V2000
  -14.4528  -37.0721  -11.6253 C   0  0  0  0  0  0  0  0  0  0  0  0
  -14.1187  -37.6529  -10.2460 C   0  0  2  0  0  0  0  0  0  0  0  0
  -12.7706  -38.2667  -10.3015 C   0  0  0  0  0  0  0  0  0  0  0  0
  -12.0921  -38.1213  -11.6678 C   0  0  0  0  0  0  0  0  0  0  0  0
  -11.0441  -39.0365  -11.6853 O   0  0  0  0  0  0  0  0  0  0  0  0
  -10.5379  -39.2365  -12.9611 C   0  0  0  0  0  0  0  0  0  0  0  0
  -11.2638  -40.2695  -13.7513 C   0  0  0  0  0  0  0  0  0  0  0  0
  -10.7666  -41.6753  -13.5588 C   0  0  0  0  0  0  0  0  0  0  0  0
  -10.9276  -42.1976  -12.1695 C   0  0  0  0  0  0  0  0  0  0  0  0
  -12.1022  -43.0059  -11.9656 N   0  0  0  0  0  0  0  0  0  0  0  0
  -13.3755  -42.6654  -11.4004 C   0  0  0  0  0  0  0  0  0  0  0  0
  -13.7514  -42.1049  -10.2058 C   0  0  0  0  0  0  0  0  0  0  0  0
  -15.1017  -41.9190   -9.9951 C   0  0  0  0  0  0  0  0  0  0  0  0
  -16.0158  -42.3133  -11.0084 C   0  0  0  0  0  0  0  0  0  0  0  0
  -15.6351  -42.8745  -12.2021 C   0  0  0  0  0  0  0  0  0  0  0  0
  -16.6476  -43.2595  -13.2114 C   0  0  0  0  0  0  0  0  0  0  0  0
  -14.3355  -43.0242  -12.3431 N   0  0  0  0  0  0  0  0  0  0  0  0
  -15.8583  -41.3545   -8.8683 C   0  0  0  0  0  0  0  0  0  0  0  0
  -16.9646  -41.9656   -8.4862 O   0  0  0  0  0  0  0  0  0  0  0  0
  -15.6183  -40.2075   -8.0617 N   0  0  0  0  0  0  0  0  0  0  0  0
  -15.4303  -38.8629   -8.4582 C   0  0  1  0  0  0  0  0  0  0  0  0
  -15.2315  -38.6203   -9.9113 C   0  0  0  0  0  0  0  0  0  0  0  0
  -16.5628  -37.9489   -7.9525 C   0  0  2  0  0  0  0  0  0  0  0  0
  -16.0378  -37.0483   -7.0323 O   0  0  0  0  0  0  0  0  0  0  0  0
  -17.7555  -38.7034   -7.5110 C   0  0  0  0  0  0  0  0  0  0  0  0
  -18.5950  -39.3233   -8.4266 N   0  0  0  0  0  0  0  0  0  0  0  0
  -19.9383  -39.0192   -8.6110 C   0  0  0  0  0  0  0  0  0  0  0  0
  -20.5577  -39.6651   -9.8192 C   0  0  0  0  0  0  0  0  0  0  0  0
  -20.2323  -37.5270   -8.6937 C   0  0  0  0  0  0  0  0  0  0  0  0
  -20.6814  -39.4716   -7.3682 C   0  0  0  0  0  0  0  0  0  0  0  0
  -20.1888  -40.0983   -6.2655 C   0  0  0  0  0  0  0  0  0  0  0  0
  -21.2489  -40.3028   -5.4093 C   0  0  0  0  0  0  0  0  0  0  0  0
  -21.2242  -40.9468   -4.0813 C   0  0  0  0  0  0  0  0  0  0  0  0
  -22.5814  -41.4589   -3.6684 C   0  0  0  0  0  0  0  0  0  0  0  0
  -22.4343  -42.0755   -2.2801 C   0  0  0  0  0  0  0  0  0  0  0  0
  -23.0291  -42.5625   -4.5932 C   0  0  0  0  0  0  0  0  0  0  0  0
  -23.6159  -40.3667   -3.5595 C   0  0  0  0  0  0  0  0  0  0  0  0
  -22.2911  -39.8138   -6.0018 O   0  0  0  0  0  0  0  0  0  0  0  0
  -21.9983  -39.3113   -7.1657 N   0  0  0  0  0  0  0  0  0  0  0  0
  2  1  1  6
  2  3  1  0
  3  4  1  0
  4  5  1  0
  5  6  1  0
  6  7  1  0
  7  8  1  0
  8  9  1  0
  9 10  1  0
 10 11  1  0
 11 12  1  0
 12 13  2  0
 13 14  1  0
 14 15  2  0
 15 16  1  0
 15 17  1  0
 13 18  1  0
 18 19  2  0
 18 20  1  0
 20 21  1  0
 21 22  1  6
 21 23  1  0
 23 24  1  1
 23 25  1  0
 25 26  1  0
 26 27  1  0
 27 28  1  0
 27 29  1  0
 27 30  1  0
 30 31  1  0
 31 32  2  0
 32 33  1  0
 33 34  1  0
 34 35  1  0
 34 36  1  0
 34 37  1  0
 32 38  1  0
 38 39  1  0
 17 11  2  0
 22  2  1  0
 39 30  2  0
M  END
$$$$
