
     RDKit          3D

 39 41  0  0  0  0  0  0  0  0999 V2000
  -18.8937  -42.7104   -4.5660 C   0  0  0  0  0  0  0  0  0  0  0  0
  -19.1915  -41.4386   -5.3692 C   0  0  2  0  0  0  0  0  0  0  0  0
  -20.6482  -41.3738   -5.6358 C   0  0  0  0  0  0  0  0  0  0  0  0
  -21.4311  -42.5391   -5.0214 C   0  0  0  0  0  0  0  0  0  0  0  0
  -22.6731  -42.5518   -5.6489 O   0  0  0  0  0  0  0  0  0  0  0  0
  -23.3686  -43.7300   -5.4211 C   0  0  0  0  0  0  0  0  0  0  0  0
  -23.0374  -44.8284   -6.3710 C   0  0  0  0  0  0  0  0  0  0  0  0
  -23.8516  -44.8358   -7.6349 C   0  0  0  0  0  0  0  0  0  0  0  0
  -23.6586  -43.6312   -8.4956 C   0  0  0  0  0  0  0  0  0  0  0  0
  -22.7157  -43.8074   -9.5701 N   0  0  0  0  0  0  0  0  0  0  0  0
  -21.3375  -43.4227   -9.6667 C   0  0  0  0  0  0  0  0  0  0  0  0
  -20.6842  -42.2271   -9.5053 C   0  0  0  0  0  0  0  0  0  0  0  0
  -19.3162  -42.2286   -9.6807 C   0  0  0  0  0  0  0  0  0  0  0  0
  -18.6680  -43.4474  -10.0158 C   0  0  0  0  0  0  0  0  0  0  0  0
  -19.3260  -44.6415  -10.1769 C   0  0  0  0  0  0  0  0  0  0  0  0
  -18.5806  -45.8722  -10.5260 C   0  0  0  0  0  0  0  0  0  0  0  0
  -20.6274  -44.5746   -9.9952 N   0  0  0  0  0  0  0  0  0  0  0  0
  -18.3055  -41.1656   -9.5843 C   0  0  0  0  0  0  0  0  0  0  0  0
  -17.3551  -41.1183  -10.4996 O   0  0  0  0  0  0  0  0  0  0  0  0
  -18.1398  -40.1157   -8.6388 N   0  0  0  0  0  0  0  0  0  0  0  0
  -18.0234  -40.1943   -7.2314 C   0  0  1  0  0  0  0  0  0  0  0  0
  -18.3324  -41.5096   -6.6115 C   0  0  0  0  0  0  0  0  0  0  0  0
  -16.6399  -39.7267   -6.7403 C   0  0  2  0  0  0  0  0  0  0  0  0
  -16.8120  -38.8650   -5.6626 O   0  0  0  0  0  0  0  0  0  0  0  0
  -15.7801  -39.2288   -7.8356 C   0  0  0  0  0  0  0  0  0  0  0  0
  -16.1595  -38.1418   -8.6114 N   0  0  0  0  0  0  0  0  0  0  0  0
  -15.3936  -37.5785   -9.6249 C   0  0  0  0  0  0  0  0  0  0  0  0
  -13.9761  -38.0769   -9.6777 C   0  0  0  0  0  0  0  0  0  0  0  0
  -15.3382  -36.0568   -9.5898 C   0  0  0  0  0  0  0  0  0  0  0  0
  -16.0808  -37.8908  -10.9409 C   0  0  0  0  0  0  0  0  0  0  0  0
  -16.7650  -37.0488  -11.7620 C   0  0  0  0  0  0  0  0  0  0  0  0
  -17.2030  -37.7964  -12.8335 C   0  0  0  0  0  0  0  0  0  0  0  0
  -17.9906  -37.3346  -13.9934 C   0  0  0  0  0  0  0  0  0  0  0  0
  -17.1159  -36.8540  -15.1242 C   0  0  0  0  0  0  0  0  0  0  0  0
  -16.2138  -35.7553  -14.5690 C   0  0  0  0  0  0  0  0  0  0  0  0
  -17.9565  -36.2258  -16.2070 C   0  0  0  0  0  0  0  0  0  0  0  0
  -16.2139  -37.9319  -15.6713 C   0  0  0  0  0  0  0  0  0  0  0  0
  -16.7849  -39.0041  -12.6261 O   0  0  0  0  0  0  0  0  0  0  0  0
  -16.1153  -39.1032  -11.5149 N   0  0  0  0  0  0  0  0  0  0  0  0
  2  1  1  1
  2  3  1  0
  3  4  1  0
  4  5  1  0
  5  6  1  0
  6  7  1  0
  7  8  1  0
  8  9  1  0
  9 10  1  0
 10 11  1  0
 11 12  1  0
 12 13  2  0
 13 14  1  0
 14 15  2  0
 15 16  1  0
 15 17  1  0
 13 18  1  0
 18 19  2  0
 18 20  1  0
 20 21  1  0
 21 22  1  6
 21 23  1  0
 23 24  1  1
 23 25  1  0
 25 26  1  0
 26 27  1  0
 27 28  1  0
 27 29  1  0
 27 30  1  0
 30 31  1  0
 31 32  2  0
 32 33  1  0
 33 34  1  0
 34 35  1  0
 34 36  1  0
 34 37  1  0
 32 38  1  0
 38 39  1  0
 17 11  2  0
 22  2  1  0
 39 30  2  0
M  END
$$$$
