
     RDKit          3D

 39 41  0  0  0  0  0  0  0  0999 V2000
  -19.6272  -40.5135   -4.0176 C   0  0  0  0  0  0  0  0  0  0  0  0
  -19.6435  -40.1510   -5.5075 C   0  0  2  0  0  0  0  0  0  0  0  0
  -21.0256  -40.3059   -6.0202 C   0  0  0  0  0  0  0  0  0  0  0  0
  -22.0288  -40.7350   -4.9442 C   0  0  0  0  0  0  0  0  0  0  0  0
  -23.1566  -41.1924   -5.6188 O   0  0  0  0  0  0  0  0  0  0  0  0
  -24.0186  -41.8965   -4.7910 C   0  0  0  0  0  0  0  0  0  0  0  0
  -23.6895  -43.3428   -4.6550 C   0  0  0  0  0  0  0  0  0  0  0  0
  -24.3031  -44.2303   -5.7020 C   0  0  0  0  0  0  0  0  0  0  0  0
  -23.8378  -43.9500   -7.0926 C   0  0  0  0  0  0  0  0  0  0  0  0
  -22.7759  -44.8072   -7.5533 N   0  0  0  0  0  0  0  0  0  0  0  0
  -21.3616  -44.5785   -7.6182 C   0  0  0  0  0  0  0  0  0  0  0  0
  -20.5963  -43.5938   -8.1900 C   0  0  0  0  0  0  0  0  0  0  0  0
  -19.2282  -43.6991   -8.0505 C   0  0  0  0  0  0  0  0  0  0  0  0
  -18.6937  -44.8043   -7.3360 C   0  0  0  0  0  0  0  0  0  0  0  0
  -19.4634  -45.7878   -6.7659 C   0  0  0  0  0  0  0  0  0  0  0  0
  -18.8329  -46.9102   -6.0346 C   0  0  0  0  0  0  0  0  0  0  0  0
  -20.7590  -45.6301   -6.9325 N   0  0  0  0  0  0  0  0  0  0  0  0
  -18.1190  -42.8507   -8.5096 C   0  0  0  0  0  0  0  0  0  0  0  0
  -17.0456  -43.4363   -9.0078 O   0  0  0  0  0  0  0  0  0  0  0  0
  -17.9658  -41.4365   -8.5206 N   0  0  0  0  0  0  0  0  0  0  0  0
  -18.0687  -40.5209   -7.4475 C   0  0  1  0  0  0  0  0  0  0  0  0
  -18.6262  -41.0489   -6.1746 C   0  0  0  0  0  0  0  0  0  0  0  0
  -16.7256  -39.8266   -7.1511 C   0  0  2  0  0  0  0  0  0  0  0  0
  -16.9766  -38.5972   -6.5518 O   0  0  0  0  0  0  0  0  0  0  0  0
  -15.8211  -39.8032   -8.3208 C   0  0  0  0  0  0  0  0  0  0  0  0
  -14.7841  -38.8846   -8.4109 N   0  0  0  0  0  0  0  0  0  0  0  0
  -13.9578  -38.7195   -9.5159 C   0  0  0  0  0  0  0  0  0  0  0  0
  -13.2725  -39.9790   -9.9684 C   0  0  0  0  0  0  0  0  0  0  0  0
  -12.8810  -37.6578   -9.3339 C   0  0  0  0  0  0  0  0  0  0  0  0
  -14.8141  -38.1841  -10.6478 C   0  0  0  0  0  0  0  0  0  0  0  0
  -14.4562  -37.9283  -11.9354 C   0  0  0  0  0  0  0  0  0  0  0  0
  -15.5780  -37.4550  -12.5804 C   0  0  0  0  0  0  0  0  0  0  0  0
  -15.6985  -37.0384  -13.9915 C   0  0  0  0  0  0  0  0  0  0  0  0
  -15.4362  -35.5648  -14.1774 C   0  0  0  0  0  0  0  0  0  0  0  0
  -13.9309  -35.3488  -14.0488 C   0  0  0  0  0  0  0  0  0  0  0  0
  -16.0889  -34.7725  -13.0729 C   0  0  0  0  0  0  0  0  0  0  0  0
  -15.8400  -35.0612  -15.5406 C   0  0  0  0  0  0  0  0  0  0  0  0
  -16.5249  -37.4445  -11.6974 O   0  0  0  0  0  0  0  0  0  0  0  0
  -16.1140  -37.8692  -10.5382 N   0  0  0  0  0  0  0  0  0  0  0  0
  2  1  1  1
  2  3  1  0
  3  4  1  0
  4  5  1  0
  5  6  1  0
  6  7  1  0
  7  8  1  0
  8  9  1  0
  9 10  1  0
 10 11  1  0
 11 12  1  0
 12 13  2  0
 13 14  1  0
 14 15  2  0
 15 16  1  0
 15 17  1  0
 13 18  1  0
 18 19  2  0
 18 20  1  0
 20 21  1  0
 21 22  1  1
 21 23  1  0
 23 24  1  6
 23 25  1  0
 25 26  1  0
 26 27  1  0
 27 28  1  0
 27 29  1  0
 27 30  1  0
 30 31  1  0
 31 32  2  0
 32 33  1  0
 33 34  1  0
 34 35  1  0
 34 36  1  0
 34 37  1  0
 32 38  1  0
 38 39  1  0
 17 11  2  0
 22  2  1  0
 39 30  2  0
M  END
$$$$
