
     RDKit          3D

 39 41  0  0  0  0  0  0  0  0999 V2000
  -19.2566  -39.9360   -4.6837 C   0  0  0  0  0  0  0  0  0  0  0  0
  -19.8792  -39.4935   -6.0133 C   0  0  2  0  0  0  0  0  0  0  0  0
  -21.2678  -40.0073   -6.0834 C   0  0  0  0  0  0  0  0  0  0  0  0
  -21.6938  -40.7808   -4.8310 C   0  0  0  0  0  0  0  0  0  0  0  0
  -22.8332  -41.4986   -5.1814 O   0  0  0  0  0  0  0  0  0  0  0  0
  -23.1491  -42.4769   -4.2502 C   0  0  0  0  0  0  0  0  0  0  0  0
  -22.4431  -43.7714   -4.4607 C   0  0  0  0  0  0  0  0  0  0  0  0
  -23.1396  -44.7254   -5.3908 C   0  0  0  0  0  0  0  0  0  0  0  0
  -23.2718  -44.2285   -6.7925 C   0  0  0  0  0  0  0  0  0  0  0  0
  -22.2578  -44.7077   -7.6962 N   0  0  0  0  0  0  0  0  0  0  0  0
  -21.0590  -44.0750   -8.1646 C   0  0  0  0  0  0  0  0  0  0  0  0
  -20.8117  -42.8742   -8.7806 C   0  0  0  0  0  0  0  0  0  0  0  0
  -19.5004  -42.5876   -9.0974 C   0  0  0  0  0  0  0  0  0  0  0  0
  -18.4930  -43.5363   -8.7763 C   0  0  0  0  0  0  0  0  0  0  0  0
  -18.7452  -44.7371   -8.1603 C   0  0  0  0  0  0  0  0  0  0  0  0
  -17.6410  -45.6754   -7.8565 C   0  0  0  0  0  0  0  0  0  0  0  0
  -20.0136  -44.9507   -7.8832 N   0  0  0  0  0  0  0  0  0  0  0  0
  -18.8691  -41.4250   -9.7382 C   0  0  0  0  0  0  0  0  0  0  0  0
  -17.9255  -41.6391  -10.6366 O   0  0  0  0  0  0  0  0  0  0  0  0
  -19.0877  -40.0298   -9.5675 N   0  0  0  0  0  0  0  0  0  0  0  0
  -19.0368  -39.2583   -8.3831 C   0  0  1  0  0  0  0  0  0  0  0  0
  -18.9669  -40.0104   -7.1027 C   0  0  0  0  0  0  0  0  0  0  0  0
  -17.8933  -38.2263   -8.4158 C   0  0  2  0  0  0  0  0  0  0  0  0
  -17.9480  -37.4566   -7.2590 O   0  0  0  0  0  0  0  0  0  0  0  0
  -17.8329  -37.4767   -9.6891 C   0  0  0  0  0  0  0  0  0  0  0  0
  -16.6797  -36.8080  -10.0768 N   0  0  0  0  0  0  0  0  0  0  0  0
  -16.2056  -36.7245  -11.3804 C   0  0  0  0  0  0  0  0  0  0  0  0
  -16.5595  -35.4448  -12.0857 C   0  0  0  0  0  0  0  0  0  0  0  0
  -16.6471  -37.8736  -12.2773 C   0  0  0  0  0  0  0  0  0  0  0  0
  -14.6958  -36.8614  -11.3245 C   0  0  0  0  0  0  0  0  0  0  0  0
  -13.9120  -37.8407  -11.8519 C   0  0  0  0  0  0  0  0  0  0  0  0
  -12.6074  -37.5268  -11.5388 C   0  0  0  0  0  0  0  0  0  0  0  0
  -11.3890  -38.2831  -11.8890 C   0  0  0  0  0  0  0  0  0  0  0  0
  -10.5466  -37.5677  -12.9154 C   0  0  0  0  0  0  0  0  0  0  0  0
  -10.0719  -36.2607  -12.2865 C   0  0  0  0  0  0  0  0  0  0  0  0
  -11.3825  -37.1990  -14.1150 C   0  0  0  0  0  0  0  0  0  0  0  0
   -9.3136  -38.3418  -13.3097 C   0  0  0  0  0  0  0  0  0  0  0  0
  -12.6533  -36.4215  -10.8661 O   0  0  0  0  0  0  0  0  0  0  0  0
  -13.8727  -35.9932  -10.7165 N   0  0  0  0  0  0  0  0  0  0  0  0
  2  1  1  1
  2  3  1  0
  3  4  1  0
  4  5  1  0
  5  6  1  0
  6  7  1  0
  7  8  1  0
  8  9  1  0
  9 10  1  0
 10 11  1  0
 11 12  1  0
 12 13  2  0
 13 14  1  0
 14 15  2  0
 15 16  1  0
 15 17  1  0
 13 18  1  0
 18 19  2  0
 18 20  1  0
 20 21  1  0
 21 22  1  1
 21 23  1  0
 23 24  1  1
 23 25  1  0
 25 26  1  0
 26 27  1  0
 27 28  1  0
 27 29  1  0
 27 30  1  0
 30 31  1  0
 31 32  2  0
 32 33  1  0
 33 34  1  0
 34 35  1  0
 34 36  1  0
 34 37  1  0
 32 38  1  0
 38 39  1  0
 17 11  2  0
 22  2  1  0
 39 30  2  0
M  END
$$$$
