
     RDKit          3D

 39 41  0  0  0  0  0  0  0  0999 V2000
  -20.4387  -37.9122   -6.9533 C   0  0  0  0  0  0  0  0  0  0  0  0
  -19.7155  -38.7284   -8.0313 C   0  0  2  0  0  0  0  0  0  0  0  0
  -20.6510  -39.7468   -8.5651 C   0  0  0  0  0  0  0  0  0  0  0  0
  -22.0474  -39.6779   -7.9378 C   0  0  0  0  0  0  0  0  0  0  0  0
  -22.6745  -40.8823   -8.2420 O   0  0  0  0  0  0  0  0  0  0  0  0
  -23.8178  -41.0893   -7.4845 C   0  0  0  0  0  0  0  0  0  0  0  0
  -23.5663  -41.7200   -6.1588 C   0  0  0  0  0  0  0  0  0  0  0  0
  -23.5517  -43.2233   -6.1684 C   0  0  0  0  0  0  0  0  0  0  0  0
  -22.4594  -43.8205   -6.9927 C   0  0  0  0  0  0  0  0  0  0  0  0
  -21.2893  -44.2073   -6.2472 N   0  0  0  0  0  0  0  0  0  0  0  0
  -20.0386  -43.5291   -6.0669 C   0  0  0  0  0  0  0  0  0  0  0  0
  -19.1138  -43.0191   -6.9427 C   0  0  0  0  0  0  0  0  0  0  0  0
  -17.9973  -42.4182   -6.3998 C   0  0  0  0  0  0  0  0  0  0  0  0
  -17.8659  -42.3626   -4.9865 C   0  0  0  0  0  0  0  0  0  0  0  0
  -18.7937  -42.8750   -4.1138 C   0  0  0  0  0  0  0  0  0  0  0  0
  -18.5873  -42.7782   -2.6509 C   0  0  0  0  0  0  0  0  0  0  0  0
  -19.8351  -43.4332   -4.6927 N   0  0  0  0  0  0  0  0  0  0  0  0
  -16.8281  -41.7691   -7.0100 C   0  0  0  0  0  0  0  0  0  0  0  0
  -15.6358  -42.0152   -6.4991 O   0  0  0  0  0  0  0  0  0  0  0  0
  -16.7241  -40.8713   -8.1086 N   0  0  0  0  0  0  0  0  0  0  0  0
  -17.3725  -39.6304   -8.3095 C   0  0  1  0  0  0  0  0  0  0  0  0
  -18.4796  -39.3000   -7.3741 C   0  0  0  0  0  0  0  0  0  0  0  0
  -16.3755  -38.4561   -8.3336 C   0  0  2  0  0  0  0  0  0  0  0  0
  -17.0827  -37.2677   -8.4790 O   0  0  0  0  0  0  0  0  0  0  0  0
  -15.2628  -38.6671   -9.2845 C   0  0  0  0  0  0  0  0  0  0  0  0
  -14.0497  -38.0099   -9.1306 N   0  0  0  0  0  0  0  0  0  0  0  0
  -12.8776  -38.3295   -9.8052 C   0  0  0  0  0  0  0  0  0  0  0  0
  -12.0556  -39.3998   -9.1424 C   0  0  0  0  0  0  0  0  0  0  0  0
  -11.9588  -37.1403  -10.0528 C   0  0  0  0  0  0  0  0  0  0  0  0
  -13.2658  -38.7899  -11.1976 C   0  0  0  0  0  0  0  0  0  0  0  0
  -12.4606  -39.2367  -12.1992 C   0  0  0  0  0  0  0  0  0  0  0  0
  -13.2750  -39.5358  -13.2697 C   0  0  0  0  0  0  0  0  0  0  0  0
  -12.8726  -40.0547  -14.5918 C   0  0  0  0  0  0  0  0  0  0  0  0
  -12.0763  -39.0478  -15.3835 C   0  0  0  0  0  0  0  0  0  0  0  0
  -11.4137  -39.7948  -16.5377 C   0  0  0  0  0  0  0  0  0  0  0  0
  -10.9672  -38.4745  -14.5380 C   0  0  0  0  0  0  0  0  0  0  0  0
  -12.9326  -37.9652  -15.9914 C   0  0  0  0  0  0  0  0  0  0  0  0
  -14.4837  -39.2701  -12.8892 O   0  0  0  0  0  0  0  0  0  0  0  0
  -14.5225  -38.8255  -11.6670 N   0  0  0  0  0  0  0  0  0  0  0  0
  2  1  1  1
  2  3  1  0
  3  4  1  0
  4  5  1  0
  5  6  1  0
  6  7  1  0
  7  8  1  0
  8  9  1  0
  9 10  1  0
 10 11  1  0
 11 12  1  0
 12 13  2  0
 13 14  1  0
 14 15  2  0
 15 16  1  0
 15 17  1  0
 13 18  1  0
 18 19  2  0
 18 20  1  0
 20 21  1  0
 21 22  1  1
 21 23  1  0
 23 24  1  6
 23 25  1  0
 25 26  1  0
 26 27  1  0
 27 28  1  0
 27 29  1  0
 27 30  1  0
 30 31  1  0
 31 32  2  0
 32 33  1  0
 33 34  1  0
 34 35  1  0
 34 36  1  0
 34 37  1  0
 32 38  1  0
 38 39  1  0
 17 11  2  0
 22  2  1  0
 39 30  2  0
M  END
$$$$
