
     RDKit          3D

 39 41  0  0  0  0  0  0  0  0999 V2000
  -19.5372  -40.2088   -4.4746 C   0  0  0  0  0  0  0  0  0  0  0  0
  -19.8951  -39.8622   -5.9247 C   0  0  2  0  0  0  0  0  0  0  0  0
  -21.2607  -40.3626   -6.2109 C   0  0  0  0  0  0  0  0  0  0  0  0
  -21.9280  -41.0322   -5.0048 C   0  0  0  0  0  0  0  0  0  0  0  0
  -23.0029  -41.7607   -5.5050 O   0  0  0  0  0  0  0  0  0  0  0  0
  -23.5087  -42.6605   -4.5785 C   0  0  0  0  0  0  0  0  0  0  0  0
  -22.8104  -43.9760   -4.5603 C   0  0  0  0  0  0  0  0  0  0  0  0
  -23.3505  -44.9900   -5.5300 C   0  0  0  0  0  0  0  0  0  0  0  0
  -23.2119  -44.6007   -6.9647 C   0  0  0  0  0  0  0  0  0  0  0  0
  -22.0631  -45.1605   -7.6292 N   0  0  0  0  0  0  0  0  0  0  0  0
  -20.7829  -44.5805   -7.9144 C   0  0  0  0  0  0  0  0  0  0  0  0
  -20.3960  -43.4338   -8.5608 C   0  0  0  0  0  0  0  0  0  0  0  0
  -19.0418  -43.1886   -8.6514 C   0  0  0  0  0  0  0  0  0  0  0  0
  -18.1351  -44.1222   -8.0821 C   0  0  0  0  0  0  0  0  0  0  0  0
  -18.5268  -45.2688   -7.4366 C   0  0  0  0  0  0  0  0  0  0  0  0
  -17.5214  -46.1946   -6.8670 C   0  0  0  0  0  0  0  0  0  0  0  0
  -19.8296  -45.4449   -7.3823 N   0  0  0  0  0  0  0  0  0  0  0  0
  -18.2740  -42.0866   -9.2488 C   0  0  0  0  0  0  0  0  0  0  0  0
  -17.1885  -42.3808   -9.9404 O   0  0  0  0  0  0  0  0  0  0  0  0
  -18.4834  -40.6798   -9.2239 N   0  0  0  0  0  0  0  0  0  0  0  0
  -18.6291  -39.8203   -8.1101 C   0  0  1  0  0  0  0  0  0  0  0  0
  -18.8135  -40.4725   -6.7871 C   0  0  0  0  0  0  0  0  0  0  0  0
  -17.4721  -38.8080   -8.0077 C   0  0  2  0  0  0  0  0  0  0  0  0
  -17.8932  -37.7172   -7.2551 O   0  0  0  0  0  0  0  0  0  0  0  0
  -16.8667  -38.4935   -9.3198 C   0  0  0  0  0  0  0  0  0  0  0  0
  -15.8391  -37.5673   -9.4351 N   0  0  0  0  0  0  0  0  0  0  0  0
  -15.5065  -36.8850  -10.5992 C   0  0  0  0  0  0  0  0  0  0  0  0
  -15.1063  -35.4520  -10.3824 C   0  0  0  0  0  0  0  0  0  0  0  0
  -16.5998  -36.8949  -11.6595 C   0  0  0  0  0  0  0  0  0  0  0  0
  -14.3567  -37.6304  -11.2501 C   0  0  0  0  0  0  0  0  0  0  0  0
  -13.6345  -37.2837  -12.3499 C   0  0  0  0  0  0  0  0  0  0  0  0
  -12.7006  -38.2769  -12.5499 C   0  0  0  0  0  0  0  0  0  0  0  0
  -11.6838  -38.3570  -13.6171 C   0  0  0  0  0  0  0  0  0  0  0  0
  -10.2949  -38.0643  -13.1072 C   0  0  0  0  0  0  0  0  0  0  0  0
   -9.9736  -39.1016  -12.0349 C   0  0  0  0  0  0  0  0  0  0  0  0
  -10.2561  -36.7141  -12.4369 C   0  0  0  0  0  0  0  0  0  0  0  0
   -9.2363  -38.1892  -14.1743 C   0  0  0  0  0  0  0  0  0  0  0  0
  -12.8875  -39.1436  -11.6064 O   0  0  0  0  0  0  0  0  0  0  0  0
  -13.8600  -38.7983  -10.8140 N   0  0  0  0  0  0  0  0  0  0  0  0
  2  1  1  1
  2  3  1  0
  3  4  1  0
  4  5  1  0
  5  6  1  0
  6  7  1  0
  7  8  1  0
  8  9  1  0
  9 10  1  0
 10 11  1  0
 11 12  1  0
 12 13  2  0
 13 14  1  0
 14 15  2  0
 15 16  1  0
 15 17  1  0
 13 18  1  0
 18 19  2  0
 18 20  1  0
 20 21  1  0
 21 22  1  1
 21 23  1  0
 23 24  1  6
 23 25  1  0
 25 26  1  0
 26 27  1  0
 27 28  1  0
 27 29  1  0
 27 30  1  0
 30 31  1  0
 31 32  2  0
 32 33  1  0
 33 34  1  0
 34 35  1  0
 34 36  1  0
 34 37  1  0
 32 38  1  0
 38 39  1  0
 17 11  2  0
 22  2  1  0
 39 30  2  0
M  END
$$$$
