
     RDKit          3D

 39 41  0  0  0  0  0  0  0  0999 V2000
  -17.2113  -44.1359  -10.4662 C   0  0  0  0  0  0  0  0  0  0  0  0
  -16.5998  -43.7514   -9.1136 C   0  0  2  0  0  0  0  0  0  0  0  0
  -16.8393  -44.8537   -8.1520 C   0  0  0  0  0  0  0  0  0  0  0  0
  -17.5747  -46.0488   -8.7679 C   0  0  0  0  0  0  0  0  0  0  0  0
  -18.0486  -46.8093   -7.7033 O   0  0  0  0  0  0  0  0  0  0  0  0
  -18.9911  -47.7461   -8.1010 C   0  0  0  0  0  0  0  0  0  0  0  0
  -20.3845  -47.2232   -8.1611 C   0  0  0  0  0  0  0  0  0  0  0  0
  -21.1472  -47.3110   -6.8686 C   0  0  0  0  0  0  0  0  0  0  0  0
  -20.5714  -46.4932   -5.7601 C   0  0  0  0  0  0  0  0  0  0  0  0
  -21.1914  -45.2055   -5.5809 N   0  0  0  0  0  0  0  0  0  0  0  0
  -20.7751  -43.9063   -6.0229 C   0  0  0  0  0  0  0  0  0  0  0  0
  -19.6157  -43.1896   -5.8662 C   0  0  0  0  0  0  0  0  0  0  0  0
  -19.5670  -41.9375   -6.4426 C   0  0  0  0  0  0  0  0  0  0  0  0
  -20.7018  -41.4641   -7.1538 C   0  0  0  0  0  0  0  0  0  0  0  0
  -21.8603  -42.1846   -7.3075 C   0  0  0  0  0  0  0  0  0  0  0  0
  -23.0025  -41.6238   -8.0645 C   0  0  0  0  0  0  0  0  0  0  0  0
  -21.8438  -43.3699   -6.7365 N   0  0  0  0  0  0  0  0  0  0  0  0
  -18.5162  -40.9107   -6.4899 C   0  0  0  0  0  0  0  0  0  0  0  0
  -18.8631  -39.6491   -6.3129 O   0  0  0  0  0  0  0  0  0  0  0  0
  -17.1139  -41.0168   -6.7045 N   0  0  0  0  0  0  0  0  0  0  0  0
  -16.4203  -41.6108   -7.7845 C   0  0  1  0  0  0  0  0  0  0  0  0
  -17.2293  -42.4337   -8.7217 C   0  0  0  0  0  0  0  0  0  0  0  0
  -15.6215  -40.5738   -8.5970 C   0  0  2  0  0  0  0  0  0  0  0  0
  -14.3417  -41.0680   -8.8239 O   0  0  0  0  0  0  0  0  0  0  0  0
  -15.6970  -39.2130   -8.0229 C   0  0  0  0  0  0  0  0  0  0  0  0
  -15.7172  -38.0884   -8.8366 N   0  0  0  0  0  0  0  0  0  0  0  0
  -16.6232  -37.0404   -8.7272 C   0  0  0  0  0  0  0  0  0  0  0  0
  -16.4364  -35.9531   -9.7487 C   0  0  0  0  0  0  0  0  0  0  0  0
  -16.6431  -36.3763   -7.3567 C   0  0  0  0  0  0  0  0  0  0  0  0
  -18.0151  -37.6260   -8.8718 C   0  0  0  0  0  0  0  0  0  0  0  0
  -18.9037  -37.4620   -9.8891 C   0  0  0  0  0  0  0  0  0  0  0  0
  -20.0275  -38.1908   -9.5657 C   0  0  0  0  0  0  0  0  0  0  0  0
  -21.2690  -38.3304  -10.3521 C   0  0  0  0  0  0  0  0  0  0  0  0
  -22.4978  -38.3730   -9.4787 C   0  0  0  0  0  0  0  0  0  0  0  0
  -22.2840  -37.3795   -8.3402 C   0  0  0  0  0  0  0  0  0  0  0  0
  -22.6472  -39.7353   -8.8498 C   0  0  0  0  0  0  0  0  0  0  0  0
  -23.7515  -37.9513  -10.2036 C   0  0  0  0  0  0  0  0  0  0  0  0
  -19.7839  -38.7405   -8.4191 O   0  0  0  0  0  0  0  0  0  0  0  0
  -18.6015  -38.4312   -7.9726 N   0  0  0  0  0  0  0  0  0  0  0  0
  2  1  1  6
  2  3  1  0
  3  4  1  0
  4  5  1  0
  5  6  1  0
  6  7  1  0
  7  8  1  0
  8  9  1  0
  9 10  1  0
 10 11  1  0
 11 12  1  0
 12 13  2  0
 13 14  1  0
 14 15  2  0
 15 16  1  0
 15 17  1  0
 13 18  1  0
 18 19  2  0
 18 20  1  0
 20 21  1  0
 21 22  1  6
 21 23  1  0
 23 24  1  1
 23 25  1  0
 25 26  1  0
 26 27  1  0
 27 28  1  0
 27 29  1  0
 27 30  1  0
 30 31  1  0
 31 32  2  0
 32 33  1  0
 33 34  1  0
 34 35  1  0
 34 36  1  0
 34 37  1  0
 32 38  1  0
 38 39  1  0
 17 11  2  0
 22  2  1  0
 39 30  2  0
M  END
$$$$
