
     RDKit          3D

 39 41  0  0  0  0  0  0  0  0999 V2000
  -14.8341  -42.1550  -11.7412 C   0  0  0  0  0  0  0  0  0  0  0  0
  -14.6057  -42.0572  -10.2281 C   0  0  2  0  0  0  0  0  0  0  0  0
  -14.0675  -43.3503   -9.7430 C   0  0  0  0  0  0  0  0  0  0  0  0
  -13.8602  -44.3796  -10.8592 C   0  0  0  0  0  0  0  0  0  0  0  0
  -13.7211  -45.6147  -10.2336 O   0  0  0  0  0  0  0  0  0  0  0  0
  -13.8370  -46.6736  -11.1221 C   0  0  0  0  0  0  0  0  0  0  0  0
  -15.2383  -47.1157  -11.3660 C   0  0  0  0  0  0  0  0  0  0  0  0
  -15.7528  -48.1437  -10.3970 C   0  0  0  0  0  0  0  0  0  0  0  0
  -15.8338  -47.6680   -8.9841 C   0  0  0  0  0  0  0  0  0  0  0  0
  -17.1381  -47.2097   -8.5801 N   0  0  0  0  0  0  0  0  0  0  0  0
  -17.6646  -45.8792   -8.4832 C   0  0  0  0  0  0  0  0  0  0  0  0
  -17.2429  -44.7492   -7.8292 C   0  0  0  0  0  0  0  0  0  0  0  0
  -18.0203  -43.6178   -7.9624 C   0  0  0  0  0  0  0  0  0  0  0  0
  -19.1976  -43.6826   -8.7545 C   0  0  0  0  0  0  0  0  0  0  0  0
  -19.6162  -44.8159   -9.4068 C   0  0  0  0  0  0  0  0  0  0  0  0
  -20.8560  -44.8059  -10.2160 C   0  0  0  0  0  0  0  0  0  0  0  0
  -18.8322  -45.8597   -9.2417 N   0  0  0  0  0  0  0  0  0  0  0  0
  -17.8836  -42.2554   -7.4277 C   0  0  0  0  0  0  0  0  0  0  0  0
  -18.9628  -41.6515   -6.9652 O   0  0  0  0  0  0  0  0  0  0  0  0
  -16.7474  -41.4081   -7.3061 N   0  0  0  0  0  0  0  0  0  0  0  0
  -15.8429  -40.9816   -8.3063 C   0  0  1  0  0  0  0  0  0  0  0  0
  -15.9350  -41.6677   -9.6218 C   0  0  0  0  0  0  0  0  0  0  0  0
  -15.9111  -39.4594   -8.5343 C   0  0  2  0  0  0  0  0  0  0  0  0
  -14.6618  -39.0092   -8.9468 O   0  0  0  0  0  0  0  0  0  0  0  0
  -16.5162  -38.7350   -7.3959 C   0  0  0  0  0  0  0  0  0  0  0  0
  -17.7122  -38.0441   -7.5359 N   0  0  0  0  0  0  0  0  0  0  0  0
  -18.6400  -38.2521   -8.5493 C   0  0  0  0  0  0  0  0  0  0  0  0
  -18.3081  -39.3972   -9.4653 C   0  0  0  0  0  0  0  0  0  0  0  0
  -18.8904  -37.0302   -9.4234 C   0  0  0  0  0  0  0  0  0  0  0  0
  -19.9813  -38.5137   -7.8906 C   0  0  0  0  0  0  0  0  0  0  0  0
  -20.3270  -38.3707   -6.5824 C   0  0  0  0  0  0  0  0  0  0  0  0
  -21.6529  -38.7294   -6.4730 C   0  0  0  0  0  0  0  0  0  0  0  0
  -22.4860  -38.7426   -5.2544 C   0  0  0  0  0  0  0  0  0  0  0  0
  -23.5098  -39.8500   -5.2733 C   0  0  0  0  0  0  0  0  0  0  0  0
  -24.2418  -39.7729   -6.6102 C   0  0  0  0  0  0  0  0  0  0  0  0
  -24.5408  -39.6294   -4.1954 C   0  0  0  0  0  0  0  0  0  0  0  0
  -22.8941  -41.2241   -5.1852 C   0  0  0  0  0  0  0  0  0  0  0  0
  -22.0373  -39.0591   -7.6646 O   0  0  0  0  0  0  0  0  0  0  0  0
  -21.0766  -38.9454   -8.5347 N   0  0  0  0  0  0  0  0  0  0  0  0
  2  1  1  6
  2  3  1  0
  3  4  1  0
  4  5  1  0
  5  6  1  0
  6  7  1  0
  7  8  1  0
  8  9  1  0
  9 10  1  0
 10 11  1  0
 11 12  1  0
 12 13  2  0
 13 14  1  0
 14 15  2  0
 15 16  1  0
 15 17  1  0
 13 18  1  0
 18 19  2  0
 18 20  1  0
 20 21  1  0
 21 22  1  6
 21 23  1  0
 23 24  1  1
 23 25  1  0
 25 26  1  0
 26 27  1  0
 27 28  1  0
 27 29  1  0
 27 30  1  0
 30 31  1  0
 31 32  2  0
 32 33  1  0
 33 34  1  0
 34 35  1  0
 34 36  1  0
 34 37  1  0
 32 38  1  0
 38 39  1  0
 17 11  2  0
 22  2  1  0
 39 30  2  0
M  END
$$$$
