
     RDKit          3D

 39 41  0  0  0  0  0  0  0  0999 V2000
  -19.4585  -40.9224   -4.2025 C   0  0  0  0  0  0  0  0  0  0  0  0
  -19.8041  -40.0770   -5.4342 C   0  0  2  0  0  0  0  0  0  0  0  0
  -21.2531  -40.2143   -5.7148 C   0  0  0  0  0  0  0  0  0  0  0  0
  -21.9861  -41.1045   -4.7056 C   0  0  0  0  0  0  0  0  0  0  0  0
  -23.2051  -41.4373   -5.2883 O   0  0  0  0  0  0  0  0  0  0  0  0
  -23.8381  -42.4816   -4.6305 C   0  0  0  0  0  0  0  0  0  0  0  0
  -23.4145  -43.8356   -5.0841 C   0  0  0  0  0  0  0  0  0  0  0  0
  -24.1871  -44.3791   -6.2537 C   0  0  0  0  0  0  0  0  0  0  0  0
  -24.0374  -43.5854   -7.5094 C   0  0  0  0  0  0  0  0  0  0  0  0
  -23.0528  -44.0971   -8.4278 N   0  0  0  0  0  0  0  0  0  0  0  0
  -21.6968  -43.6895   -8.6555 C   0  0  0  0  0  0  0  0  0  0  0  0
  -21.1191  -42.4831   -8.9609 C   0  0  0  0  0  0  0  0  0  0  0  0
  -19.7485  -42.4622   -9.1133 C   0  0  0  0  0  0  0  0  0  0  0  0
  -19.0208  -43.6713   -8.9508 C   0  0  0  0  0  0  0  0  0  0  0  0
  -19.6033  -44.8765   -8.6457 C   0  0  0  0  0  0  0  0  0  0  0  0
  -18.7775  -46.0956   -8.4910 C   0  0  0  0  0  0  0  0  0  0  0  0
  -20.9115  -44.8304   -8.5122 N   0  0  0  0  0  0  0  0  0  0  0  0
  -18.8044  -41.3796   -9.4254 C   0  0  0  0  0  0  0  0  0  0  0  0
  -17.8303  -41.6240  -10.2825 O   0  0  0  0  0  0  0  0  0  0  0  0
  -18.7293  -40.0395   -8.9541 N   0  0  0  0  0  0  0  0  0  0  0  0
  -18.6524  -39.5660   -7.6235 C   0  0  1  0  0  0  0  0  0  0  0  0
  -18.9041  -40.5613   -6.5485 C   0  0  0  0  0  0  0  0  0  0  0  0
  -17.3143  -38.8568   -7.3403 C   0  0  2  0  0  0  0  0  0  0  0  0
  -17.5317  -37.8340   -6.4237 O   0  0  0  0  0  0  0  0  0  0  0  0
  -16.5934  -38.4769   -8.5744 C   0  0  0  0  0  0  0  0  0  0  0  0
  -16.9298  -37.3300   -9.2806 N   0  0  0  0  0  0  0  0  0  0  0  0
  -16.4996  -37.0301  -10.5674 C   0  0  0  0  0  0  0  0  0  0  0  0
  -16.8490  -35.6422  -11.0279 C   0  0  0  0  0  0  0  0  0  0  0  0
  -16.9978  -37.9996  -11.6312 C   0  0  0  0  0  0  0  0  0  0  0  0
  -14.9922  -37.1990  -10.5936 C   0  0  0  0  0  0  0  0  0  0  0  0
  -14.1923  -37.5220  -11.6458 C   0  0  0  0  0  0  0  0  0  0  0  0
  -12.8980  -37.5559  -11.1742 C   0  0  0  0  0  0  0  0  0  0  0  0
  -11.6692  -37.8598  -11.9336 C   0  0  0  0  0  0  0  0  0  0  0  0
  -10.8748  -36.6191  -12.2569 C   0  0  0  0  0  0  0  0  0  0  0  0
  -11.7087  -35.7810  -13.2219 C   0  0  0  0  0  0  0  0  0  0  0  0
   -9.6028  -36.9844  -12.9796 C   0  0  0  0  0  0  0  0  0  0  0  0
  -10.6034  -35.7606  -11.0469 C   0  0  0  0  0  0  0  0  0  0  0  0
  -12.9650  -37.2653   -9.9143 O   0  0  0  0  0  0  0  0  0  0  0  0
  -14.1886  -37.0465   -9.5297 N   0  0  0  0  0  0  0  0  0  0  0  0
  2  1  1  1
  2  3  1  0
  3  4  1  0
  4  5  1  0
  5  6  1  0
  6  7  1  0
  7  8  1  0
  8  9  1  0
  9 10  1  0
 10 11  1  0
 11 12  1  0
 12 13  2  0
 13 14  1  0
 14 15  2  0
 15 16  1  0
 15 17  1  0
 13 18  1  0
 18 19  2  0
 18 20  1  0
 20 21  1  0
 21 22  1  1
 21 23  1  0
 23 24  1  6
 23 25  1  0
 25 26  1  0
 26 27  1  0
 27 28  1  0
 27 29  1  0
 27 30  1  0
 30 31  1  0
 31 32  2  0
 32 33  1  0
 33 34  1  0
 34 35  1  0
 34 36  1  0
 34 37  1  0
 32 38  1  0
 38 39  1  0
 17 11  2  0
 22  2  1  0
 39 30  2  0
M  END
$$$$
