
     RDKit          3D

 39 41  0  0  0  0  0  0  0  0999 V2000
  -15.6135  -41.6668  -11.8557 C   0  0  0  0  0  0  0  0  0  0  0  0
  -14.9605  -41.6527  -10.4684 C   0  0  2  0  0  0  0  0  0  0  0  0
  -14.2521  -42.9383  -10.2623 C   0  0  0  0  0  0  0  0  0  0  0  0
  -14.3351  -43.8785  -11.4696 C   0  0  0  0  0  0  0  0  0  0  0  0
  -13.9699  -45.1403  -11.0104 O   0  0  0  0  0  0  0  0  0  0  0  0
  -14.2947  -46.1448  -11.9101 C   0  0  0  0  0  0  0  0  0  0  0  0
  -15.6870  -46.6569  -11.7775 C   0  0  0  0  0  0  0  0  0  0  0  0
  -15.8558  -47.7753  -10.7870 C   0  0  0  0  0  0  0  0  0  0  0  0
  -15.5432  -47.3977   -9.3768 C   0  0  0  0  0  0  0  0  0  0  0  0
  -16.6922  -47.0487   -8.5813 N   0  0  0  0  0  0  0  0  0  0  0  0
  -17.2223  -45.7628   -8.2320 C   0  0  0  0  0  0  0  0  0  0  0  0
  -16.6760  -44.6532   -7.6381 C   0  0  0  0  0  0  0  0  0  0  0  0
  -17.5045  -43.5663   -7.4526 C   0  0  0  0  0  0  0  0  0  0  0  0
  -18.8572  -43.6533   -7.8774 C   0  0  0  0  0  0  0  0  0  0  0  0
  -19.3998  -44.7660   -8.4709 C   0  0  0  0  0  0  0  0  0  0  0  0
  -20.8203  -44.7813   -8.8882 C   0  0  0  0  0  0  0  0  0  0  0  0
  -18.5594  -45.7673   -8.6208 N   0  0  0  0  0  0  0  0  0  0  0  0
  -17.2749  -42.2353   -6.8725 C   0  0  0  0  0  0  0  0  0  0  0  0
  -18.1976  -41.7310   -6.0740 O   0  0  0  0  0  0  0  0  0  0  0  0
  -16.1881  -41.3283   -7.0138 N   0  0  0  0  0  0  0  0  0  0  0  0
  -15.6307  -40.7826   -8.1936 C   0  0  1  0  0  0  0  0  0  0  0  0
  -16.0718  -41.3869   -9.4781 C   0  0  0  0  0  0  0  0  0  0  0  0
  -15.8247  -39.2561   -8.2704 C   0  0  2  0  0  0  0  0  0  0  0  0
  -14.6352  -38.6322   -7.9106 O   0  0  0  0  0  0  0  0  0  0  0  0
  -17.0373  -38.7951   -7.5605 C   0  0  0  0  0  0  0  0  0  0  0  0
  -18.1219  -38.2732   -8.2522 N   0  0  0  0  0  0  0  0  0  0  0  0
  -19.4148  -38.1745   -7.7524 C   0  0  0  0  0  0  0  0  0  0  0  0
  -19.7538  -36.8271   -7.1778 C   0  0  0  0  0  0  0  0  0  0  0  0
  -19.7536  -39.2167   -6.6946 C   0  0  0  0  0  0  0  0  0  0  0  0
  -20.3673  -38.4843   -8.8917 C   0  0  0  0  0  0  0  0  0  0  0  0
  -20.0921  -38.6092  -10.2183 C   0  0  0  0  0  0  0  0  0  0  0  0
  -21.2815  -38.8940  -10.8530 C   0  0  0  0  0  0  0  0  0  0  0  0
  -21.5030  -39.1181  -12.2951 C   0  0  0  0  0  0  0  0  0  0  0  0
  -22.6879  -38.3457  -12.8188 C   0  0  0  0  0  0  0  0  0  0  0  0
  -23.7005  -39.3610  -13.3415 C   0  0  0  0  0  0  0  0  0  0  0  0
  -22.2795  -37.4901  -13.9913 C   0  0  0  0  0  0  0  0  0  0  0  0
  -23.3832  -37.5373  -11.7520 C   0  0  0  0  0  0  0  0  0  0  0  0
  -22.1857  -38.9283   -9.9269 O   0  0  0  0  0  0  0  0  0  0  0  0
  -21.6857  -38.6907   -8.7495 N   0  0  0  0  0  0  0  0  0  0  0  0
  2  1  1  6
  2  3  1  0
  3  4  1  0
  4  5  1  0
  5  6  1  0
  6  7  1  0
  7  8  1  0
  8  9  1  0
  9 10  1  0
 10 11  1  0
 11 12  1  0
 12 13  2  0
 13 14  1  0
 14 15  2  0
 15 16  1  0
 15 17  1  0
 13 18  1  0
 18 19  2  0
 18 20  1  0
 20 21  1  0
 21 22  1  6
 21 23  1  0
 23 24  1  1
 23 25  1  0
 25 26  1  0
 26 27  1  0
 27 28  1  0
 27 29  1  0
 27 30  1  0
 30 31  1  0
 31 32  2  0
 32 33  1  0
 33 34  1  0
 34 35  1  0
 34 36  1  0
 34 37  1  0
 32 38  1  0
 38 39  1  0
 17 11  2  0
 22  2  1  0
 39 30  2  0
M  END
$$$$
