
     RDKit          3D

 39 41  0  0  0  0  0  0  0  0999 V2000
  -19.6649  -39.9928   -4.5157 C   0  0  0  0  0  0  0  0  0  0  0  0
  -19.3263  -39.6901   -5.9803 C   0  0  2  0  0  0  0  0  0  0  0  0
  -20.5901  -39.5188   -6.7357 C   0  0  0  0  0  0  0  0  0  0  0  0
  -21.8428  -39.6502   -5.8628 C   0  0  0  0  0  0  0  0  0  0  0  0
  -22.9107  -39.8401   -6.7345 O   0  0  0  0  0  0  0  0  0  0  0  0
  -24.0530  -40.2813   -6.0831 C   0  0  0  0  0  0  0  0  0  0  0  0
  -24.1223  -41.7584   -5.9043 C   0  0  0  0  0  0  0  0  0  0  0  0
  -24.7410  -42.5043   -7.0537 C   0  0  0  0  0  0  0  0  0  0  0  0
  -23.9817  -42.3961   -8.3346 C   0  0  0  0  0  0  0  0  0  0  0  0
  -23.1011  -43.5036   -8.6045 N   0  0  0  0  0  0  0  0  0  0  0  0
  -21.6859  -43.6317   -8.4107 C   0  0  0  0  0  0  0  0  0  0  0  0
  -20.6115  -42.8859   -8.8251 C   0  0  0  0  0  0  0  0  0  0  0  0
  -19.3594  -43.3189   -8.4419 C   0  0  0  0  0  0  0  0  0  0  0  0
  -19.2510  -44.4957   -7.6537 C   0  0  0  0  0  0  0  0  0  0  0  0
  -20.3291  -45.2393   -7.2418 C   0  0  0  0  0  0  0  0  0  0  0  0
  -20.1365  -46.4557   -6.4199 C   0  0  0  0  0  0  0  0  0  0  0  0
  -21.4943  -44.7742   -7.6380 N   0  0  0  0  0  0  0  0  0  0  0  0
  -18.0112  -42.7858   -8.6847 C   0  0  0  0  0  0  0  0  0  0  0  0
  -17.0457  -43.6342   -8.9867 O   0  0  0  0  0  0  0  0  0  0  0  0
  -17.5127  -41.4537   -8.6537 N   0  0  0  0  0  0  0  0  0  0  0  0
  -17.5740  -40.5036   -7.6077 C   0  0  1  0  0  0  0  0  0  0  0  0
  -18.4617  -40.8333   -6.4618 C   0  0  0  0  0  0  0  0  0  0  0  0
  -16.1753  -40.1505   -7.0668 C   0  0  2  0  0  0  0  0  0  0  0  0
  -16.0379  -38.7669   -7.0423 O   0  0  0  0  0  0  0  0  0  0  0  0
  -15.0927  -40.8960   -7.7444 C   0  0  0  0  0  0  0  0  0  0  0  0
  -13.8973  -40.2782   -8.0856 N   0  0  0  0  0  0  0  0  0  0  0  0
  -13.3615  -40.2293   -9.3669 C   0  0  0  0  0  0  0  0  0  0  0  0
  -14.0361  -41.1413  -10.3538 C   0  0  0  0  0  0  0  0  0  0  0  0
  -11.8678  -40.5210   -9.4277 C   0  0  0  0  0  0  0  0  0  0  0  0
  -13.4761  -38.7969   -9.8531 C   0  0  0  0  0  0  0  0  0  0  0  0
  -13.2707  -38.3066  -11.1056 C   0  0  0  0  0  0  0  0  0  0  0  0
  -13.4958  -36.9483  -11.0499 C   0  0  0  0  0  0  0  0  0  0  0  0
  -13.3996  -35.9723  -12.1532 C   0  0  0  0  0  0  0  0  0  0  0  0
  -14.7400  -35.3822  -12.5136 C   0  0  0  0  0  0  0  0  0  0  0  0
  -15.1778  -34.4975  -11.3497 C   0  0  0  0  0  0  0  0  0  0  0  0
  -15.7734  -36.4719  -12.6491 C   0  0  0  0  0  0  0  0  0  0  0  0
  -14.6881  -34.5055  -13.7398 C   0  0  0  0  0  0  0  0  0  0  0  0
  -13.8136  -36.6849   -9.8228 O   0  0  0  0  0  0  0  0  0  0  0  0
  -13.8138  -37.7533   -9.0801 N   0  0  0  0  0  0  0  0  0  0  0  0
  2  1  1  1
  2  3  1  0
  3  4  1  0
  4  5  1  0
  5  6  1  0
  6  7  1  0
  7  8  1  0
  8  9  1  0
  9 10  1  0
 10 11  1  0
 11 12  1  0
 12 13  2  0
 13 14  1  0
 14 15  2  0
 15 16  1  0
 15 17  1  0
 13 18  1  0
 18 19  2  0
 18 20  1  0
 20 21  1  0
 21 22  1  1
 21 23  1  0
 23 24  1  6
 23 25  1  0
 25 26  1  0
 26 27  1  0
 27 28  1  0
 27 29  1  0
 27 30  1  0
 30 31  1  0
 31 32  2  0
 32 33  1  0
 33 34  1  0
 34 35  1  0
 34 36  1  0
 34 37  1  0
 32 38  1  0
 38 39  1  0
 17 11  2  0
 22  2  1  0
 39 30  2  0
M  END
$$$$
