
     RDKit          3D

 39 41  0  0  0  0  0  0  0  0999 V2000
  -18.8500  -43.8162   -9.3801 C   0  0  0  0  0  0  0  0  0  0  0  0
  -18.2177  -43.3441   -8.0653 C   0  0  2  0  0  0  0  0  0  0  0  0
  -18.7127  -44.2029   -6.9633 C   0  0  0  0  0  0  0  0  0  0  0  0
  -19.6590  -45.3121   -7.4351 C   0  0  0  0  0  0  0  0  0  0  0  0
  -20.3158  -45.7772   -6.2999 O   0  0  0  0  0  0  0  0  0  0  0  0
  -21.4182  -46.5597   -6.6101 C   0  0  0  0  0  0  0  0  0  0  0  0
  -22.6700  -45.7868   -6.8428 C   0  0  0  0  0  0  0  0  0  0  0  0
  -23.4773  -45.5068   -5.6058 C   0  0  0  0  0  0  0  0  0  0  0  0
  -22.7818  -44.6492   -4.6009 C   0  0  0  0  0  0  0  0  0  0  0  0
  -23.1269  -43.2522   -4.6641 N   0  0  0  0  0  0  0  0  0  0  0  0
  -22.4355  -42.1528   -5.2724 C   0  0  0  0  0  0  0  0  0  0  0  0
  -21.1586  -41.6657   -5.1514 C   0  0  0  0  0  0  0  0  0  0  0  0
  -20.8319  -40.5608   -5.9095 C   0  0  0  0  0  0  0  0  0  0  0  0
  -21.8194  -39.9943   -6.7591 C   0  0  0  0  0  0  0  0  0  0  0  0
  -23.0963  -40.4848   -6.8765 C   0  0  0  0  0  0  0  0  0  0  0  0
  -24.0713  -39.8400   -7.7852 C   0  0  0  0  0  0  0  0  0  0  0  0
  -23.3452  -41.5391   -6.1297 N   0  0  0  0  0  0  0  0  0  0  0  0
  -19.5900  -39.7861   -6.0445 C   0  0  0  0  0  0  0  0  0  0  0  0
  -19.6734  -38.4691   -6.0877 O   0  0  0  0  0  0  0  0  0  0  0  0
  -18.2339  -40.2034   -6.1464 N   0  0  0  0  0  0  0  0  0  0  0  0
  -17.6427  -41.0933   -7.0733 C   0  0  1  0  0  0  0  0  0  0  0  0
  -18.5729  -41.8812   -7.9241 C   0  0  0  0  0  0  0  0  0  0  0  0
  -16.6194  -40.3844   -7.9811 C   0  0  2  0  0  0  0  0  0  0  0  0
  -15.5195  -40.0130   -7.2157 O   0  0  0  0  0  0  0  0  0  0  0  0
  -17.2255  -39.3155   -8.8039 C   0  0  0  0  0  0  0  0  0  0  0  0
  -16.4811  -38.6273   -9.7523 N   0  0  0  0  0  0  0  0  0  0  0  0
  -16.5953  -37.2696  -10.0251 C   0  0  0  0  0  0  0  0  0  0  0  0
  -16.7444  -36.4046   -8.8043 C   0  0  0  0  0  0  0  0  0  0  0  0
  -17.7367  -36.9193  -10.9709 C   0  0  0  0  0  0  0  0  0  0  0  0
  -15.3492  -36.8517  -10.7826 C   0  0  0  0  0  0  0  0  0  0  0  0
  -14.3189  -37.6277  -11.2159 C   0  0  0  0  0  0  0  0  0  0  0  0
  -13.4245  -36.7941  -11.8514 C   0  0  0  0  0  0  0  0  0  0  0  0
  -12.1461  -37.1627  -12.4910 C   0  0  0  0  0  0  0  0  0  0  0  0
  -11.9967  -36.5551  -13.8633 C   0  0  0  0  0  0  0  0  0  0  0  0
  -11.9576  -35.0393  -13.6901 C   0  0  0  0  0  0  0  0  0  0  0  0
  -13.2043  -36.8687  -14.7100 C   0  0  0  0  0  0  0  0  0  0  0  0
  -10.7141  -36.9548  -14.5489 C   0  0  0  0  0  0  0  0  0  0  0  0
  -13.9272  -35.6031  -11.7799 O   0  0  0  0  0  0  0  0  0  0  0  0
  -15.0679  -35.5932  -11.1540 N   0  0  0  0  0  0  0  0  0  0  0  0
  2  1  1  6
  2  3  1  0
  3  4  1  0
  4  5  1  0
  5  6  1  0
  6  7  1  0
  7  8  1  0
  8  9  1  0
  9 10  1  0
 10 11  1  0
 11 12  1  0
 12 13  2  0
 13 14  1  0
 14 15  2  0
 15 16  1  0
 15 17  1  0
 13 18  1  0
 18 19  2  0
 18 20  1  0
 20 21  1  0
 21 22  1  6
 21 23  1  0
 23 24  1  1
 23 25  1  0
 25 26  1  0
 26 27  1  0
 27 28  1  0
 27 29  1  0
 27 30  1  0
 30 31  1  0
 31 32  2  0
 32 33  1  0
 33 34  1  0
 34 35  1  0
 34 36  1  0
 34 37  1  0
 32 38  1  0
 38 39  1  0
 17 11  2  0
 22  2  1  0
 39 30  2  0
M  END
$$$$
