
     RDKit          3D

 39 41  0  0  0  0  0  0  0  0999 V2000
  -14.4231  -36.8717  -11.4131 C   0  0  0  0  0  0  0  0  0  0  0  0
  -14.0200  -37.5816  -10.1151 C   0  0  2  0  0  0  0  0  0  0  0  0
  -12.6111  -38.0267  -10.2335 C   0  0  0  0  0  0  0  0  0  0  0  0
  -11.9586  -37.6326  -11.5629 C   0  0  0  0  0  0  0  0  0  0  0  0
  -10.8134  -38.4136  -11.6849 O   0  0  0  0  0  0  0  0  0  0  0  0
  -10.2924  -38.3910  -12.9702 C   0  0  0  0  0  0  0  0  0  0  0  0
  -10.8991  -39.3906  -13.8929 C   0  0  0  0  0  0  0  0  0  0  0  0
  -10.2445  -40.7439  -13.8749 C   0  0  0  0  0  0  0  0  0  0  0  0
  -10.3398  -41.4536  -12.5648 C   0  0  0  0  0  0  0  0  0  0  0  0
  -11.4141  -42.4091  -12.4778 N   0  0  0  0  0  0  0  0  0  0  0  0
  -12.7158  -42.2898  -11.8877 C   0  0  0  0  0  0  0  0  0  0  0  0
  -13.1486  -41.9320  -10.6359 C   0  0  0  0  0  0  0  0  0  0  0  0
  -14.5104  -41.9286  -10.4178 C   0  0  0  0  0  0  0  0  0  0  0  0
  -15.3775  -42.2919  -11.4828 C   0  0  0  0  0  0  0  0  0  0  0  0
  -14.9398  -42.6498  -12.7338 C   0  0  0  0  0  0  0  0  0  0  0  0
  -15.9057  -43.0155  -13.7947 C   0  0  0  0  0  0  0  0  0  0  0  0
  -13.6322  -42.6322  -12.8787 N   0  0  0  0  0  0  0  0  0  0  0  0
  -15.3221  -41.6014   -9.2368 C   0  0  0  0  0  0  0  0  0  0  0  0
  -16.3503  -42.3776   -8.9473 O   0  0  0  0  0  0  0  0  0  0  0  0
  -15.2111  -40.5467   -8.2887 N   0  0  0  0  0  0  0  0  0  0  0  0
  -15.1787  -39.1500   -8.5095 C   0  0  1  0  0  0  0  0  0  0  0  0
  -15.0143  -38.7035   -9.9178 C   0  0  0  0  0  0  0  0  0  0  0  0
  -16.4060  -38.4419   -7.9042 C   0  0  2  0  0  0  0  0  0  0  0  0
  -16.0188  -37.1913   -7.4355 O   0  0  0  0  0  0  0  0  0  0  0  0
  -17.1441  -39.2920   -6.9453 C   0  0  0  0  0  0  0  0  0  0  0  0
  -18.0578  -40.2422   -7.3806 N   0  0  0  0  0  0  0  0  0  0  0  0
  -18.8269  -41.0489   -6.5506 C   0  0  0  0  0  0  0  0  0  0  0  0
  -18.7259  -40.7066   -5.0900 C   0  0  0  0  0  0  0  0  0  0  0  0
  -18.5373  -42.5378   -6.6884 C   0  0  0  0  0  0  0  0  0  0  0  0
  -20.2708  -40.9128   -6.9955 C   0  0  0  0  0  0  0  0  0  0  0  0
  -20.8235  -39.9725   -7.8089 C   0  0  0  0  0  0  0  0  0  0  0  0
  -22.1649  -40.2687   -7.9162 C   0  0  0  0  0  0  0  0  0  0  0  0
  -23.1903  -39.5404   -8.6891 C   0  0  0  0  0  0  0  0  0  0  0  0
  -23.9262  -38.5261   -7.8498 C   0  0  0  0  0  0  0  0  0  0  0  0
  -22.9666  -38.0497   -6.7629 C   0  0  0  0  0  0  0  0  0  0  0  0
  -25.0949  -39.1730   -7.1504 C   0  0  0  0  0  0  0  0  0  0  0  0
  -24.3477  -37.3075   -8.6323 C   0  0  0  0  0  0  0  0  0  0  0  0
  -22.3596  -41.3273   -7.1966 O   0  0  0  0  0  0  0  0  0  0  0  0
  -21.2622  -41.7415   -6.6335 N   0  0  0  0  0  0  0  0  0  0  0  0
  2  1  1  6
  2  3  1  0
  3  4  1  0
  4  5  1  0
  5  6  1  0
  6  7  1  0
  7  8  1  0
  8  9  1  0
  9 10  1  0
 10 11  1  0
 11 12  1  0
 12 13  2  0
 13 14  1  0
 14 15  2  0
 15 16  1  0
 15 17  1  0
 13 18  1  0
 18 19  2  0
 18 20  1  0
 20 21  1  0
 21 22  1  6
 21 23  1  0
 23 24  1  1
 23 25  1  0
 25 26  1  0
 26 27  1  0
 27 28  1  0
 27 29  1  0
 27 30  1  0
 30 31  1  0
 31 32  2  0
 32 33  1  0
 33 34  1  0
 34 35  1  0
 34 36  1  0
 34 37  1  0
 32 38  1  0
 38 39  1  0
 17 11  2  0
 22  2  1  0
 39 30  2  0
M  END
$$$$
