
     RDKit          3D

 39 41  0  0  0  0  0  0  0  0999 V2000
  -15.3871  -43.6290  -10.4609 C   0  0  0  0  0  0  0  0  0  0  0  0
  -15.4085  -43.2851   -8.9668 C   0  0  2  0  0  0  0  0  0  0  0  0
  -15.6188  -44.5323   -8.1939 C   0  0  0  0  0  0  0  0  0  0  0  0
  -15.7153  -45.7835   -9.0734 C   0  0  0  0  0  0  0  0  0  0  0  0
  -16.2710  -46.7808   -8.2778 O   0  0  0  0  0  0  0  0  0  0  0  0
  -16.7024  -47.8703   -9.0200 C   0  0  0  0  0  0  0  0  0  0  0  0
  -18.0830  -47.7322   -9.5618 C   0  0  0  0  0  0  0  0  0  0  0  0
  -19.1730  -48.1952   -8.6356 C   0  0  0  0  0  0  0  0  0  0  0  0
  -19.2728  -47.4137   -7.3674 C   0  0  0  0  0  0  0  0  0  0  0  0
  -20.2691  -46.3736   -7.3813 N   0  0  0  0  0  0  0  0  0  0  0  0
  -20.1336  -44.9626   -7.5994 C   0  0  0  0  0  0  0  0  0  0  0  0
  -19.3620  -43.9927   -7.0108 C   0  0  0  0  0  0  0  0  0  0  0  0
  -19.4961  -42.7059   -7.4885 C   0  0  0  0  0  0  0  0  0  0  0  0
  -20.4122  -42.4574   -8.5453 C   0  0  0  0  0  0  0  0  0  0  0  0
  -21.1828  -43.4311   -9.1309 C   0  0  0  0  0  0  0  0  0  0  0  0
  -22.1160  -43.0949  -10.2301 C   0  0  0  0  0  0  0  0  0  0  0  0
  -21.0084  -44.6362   -8.6324 N   0  0  0  0  0  0  0  0  0  0  0  0
  -18.8451  -41.4408   -7.1188 C   0  0  0  0  0  0  0  0  0  0  0  0
  -19.5887  -40.3529   -7.0370 O   0  0  0  0  0  0  0  0  0  0  0  0
  -17.4879  -41.1410   -6.8160 N   0  0  0  0  0  0  0  0  0  0  0  0
  -16.3289  -41.3763   -7.5919 C   0  0  1  0  0  0  0  0  0  0  0  0
  -16.4936  -42.2478   -8.7848 C   0  0  0  0  0  0  0  0  0  0  0  0
  -15.6493  -40.0635   -8.0260 C   0  0  2  0  0  0  0  0  0  0  0  0
  -14.3626  -40.0271   -7.5001 O   0  0  0  0  0  0  0  0  0  0  0  0
  -16.4866  -38.8717   -7.7700 C   0  0  0  0  0  0  0  0  0  0  0  0
  -17.7107  -38.7025   -8.4027 N   0  0  0  0  0  0  0  0  0  0  0  0
  -18.2521  -37.4793   -8.7791 C   0  0  0  0  0  0  0  0  0  0  0  0
  -18.3743  -36.4863   -7.6568 C   0  0  0  0  0  0  0  0  0  0  0  0
  -19.6185  -37.5824   -9.4441 C   0  0  0  0  0  0  0  0  0  0  0  0
  -17.3598  -36.9009   -9.8611 C   0  0  0  0  0  0  0  0  0  0  0  0
  -16.5202  -35.8326   -9.7879 C   0  0  0  0  0  0  0  0  0  0  0  0
  -15.9282  -35.6983  -11.0249 C   0  0  0  0  0  0  0  0  0  0  0  0
  -14.9408  -34.6853  -11.4469 C   0  0  0  0  0  0  0  0  0  0  0  0
  -15.4849  -33.2819  -11.3526 C   0  0  0  0  0  0  0  0  0  0  0  0
  -16.5456  -33.1289  -12.4392 C   0  0  0  0  0  0  0  0  0  0  0  0
  -14.4009  -32.2778  -11.6533 C   0  0  0  0  0  0  0  0  0  0  0  0
  -16.1593  -32.9981  -10.0336 C   0  0  0  0  0  0  0  0  0  0  0  0
  -16.4114  -36.6471  -11.7615 O   0  0  0  0  0  0  0  0  0  0  0  0
  -17.2638  -37.3830  -11.1097 N   0  0  0  0  0  0  0  0  0  0  0  0
  2  1  1  6
  2  3  1  0
  3  4  1  0
  4  5  1  0
  5  6  1  0
  6  7  1  0
  7  8  1  0
  8  9  1  0
  9 10  1  0
 10 11  1  0
 11 12  1  0
 12 13  2  0
 13 14  1  0
 14 15  2  0
 15 16  1  0
 15 17  1  0
 13 18  1  0
 18 19  2  0
 18 20  1  0
 20 21  1  0
 21 22  1  6
 21 23  1  0
 23 24  1  1
 23 25  1  0
 25 26  1  0
 26 27  1  0
 27 28  1  0
 27 29  1  0
 27 30  1  0
 30 31  1  0
 31 32  2  0
 32 33  1  0
 33 34  1  0
 34 35  1  0
 34 36  1  0
 34 37  1  0
 32 38  1  0
 38 39  1  0
 17 11  2  0
 22  2  1  0
 39 30  2  0
M  END
$$$$
