
     RDKit          3D

 39 41  0  0  0  0  0  0  0  0999 V2000
  -13.3318  -41.0637  -10.4780 C   0  0  0  0  0  0  0  0  0  0  0  0
  -13.6288  -41.2101   -8.9808 C   0  0  2  0  0  0  0  0  0  0  0  0
  -13.0033  -42.4617   -8.4914 C   0  0  0  0  0  0  0  0  0  0  0  0
  -12.2267  -43.2174   -9.5749 C   0  0  0  0  0  0  0  0  0  0  0  0
  -12.0266  -44.5056   -9.0884 O   0  0  0  0  0  0  0  0  0  0  0  0
  -11.6143  -45.3863  -10.0775 C   0  0  0  0  0  0  0  0  0  0  0  0
  -12.7289  -46.0046  -10.8483 C   0  0  0  0  0  0  0  0  0  0  0  0
  -13.2868  -47.2654  -10.2486 C   0  0  0  0  0  0  0  0  0  0  0  0
  -13.9200  -47.0793   -8.9094 C   0  0  0  0  0  0  0  0  0  0  0  0
  -15.3522  -46.9290   -8.9395 N   0  0  0  0  0  0  0  0  0  0  0  0
  -16.1620  -45.7469   -8.8800 C   0  0  0  0  0  0  0  0  0  0  0  0
  -16.2331  -44.7027   -7.9929 C   0  0  0  0  0  0  0  0  0  0  0  0
  -17.1562  -43.7130   -8.2584 C   0  0  0  0  0  0  0  0  0  0  0  0
  -17.9718  -43.8270   -9.4158 C   0  0  0  0  0  0  0  0  0  0  0  0
  -17.8976  -44.8742  -10.3005 C   0  0  0  0  0  0  0  0  0  0  0  0
  -18.7819  -44.9231  -11.4870 C   0  0  0  0  0  0  0  0  0  0  0  0
  -16.9981  -45.7838   -9.9929 N   0  0  0  0  0  0  0  0  0  0  0  0
  -17.5028  -42.4694   -7.5553 C   0  0  0  0  0  0  0  0  0  0  0  0
  -18.7785  -42.1512   -7.4350 O   0  0  0  0  0  0  0  0  0  0  0  0
  -16.6825  -41.4808   -6.9443 N   0  0  0  0  0  0  0  0  0  0  0  0
  -15.6226  -40.7312   -7.5057 C   0  0  1  0  0  0  0  0  0  0  0  0
  -15.1336  -41.1681   -8.8398 C   0  0  0  0  0  0  0  0  0  0  0  0
  -15.9484  -39.2265   -7.5646 C   0  0  2  0  0  0  0  0  0  0  0  0
  -15.0509  -38.5393   -6.7548 O   0  0  0  0  0  0  0  0  0  0  0  0
  -17.3804  -38.9397   -7.3316 C   0  0  0  0  0  0  0  0  0  0  0  0
  -18.3326  -39.1855   -8.3115 N   0  0  0  0  0  0  0  0  0  0  0  0
  -19.6376  -38.7085   -8.2937 C   0  0  0  0  0  0  0  0  0  0  0  0
  -20.0460  -38.0749   -6.9927 C   0  0  0  0  0  0  0  0  0  0  0  0
  -20.6876  -39.7572   -8.6365 C   0  0  0  0  0  0  0  0  0  0  0  0
  -19.7628  -37.6856   -9.4069 C   0  0  0  0  0  0  0  0  0  0  0  0
  -19.0644  -36.5310   -9.5815 C   0  0  0  0  0  0  0  0  0  0  0  0
  -19.5358  -35.9438  -10.7354 C   0  0  0  0  0  0  0  0  0  0  0  0
  -19.0944  -34.6749  -11.3469 C   0  0  0  0  0  0  0  0  0  0  0  0
  -19.7200  -34.4434  -12.6996 C   0  0  0  0  0  0  0  0  0  0  0  0
  -21.2310  -34.3698  -12.4977 C   0  0  0  0  0  0  0  0  0  0  0  0
  -19.4555  -35.6178  -13.6076 C   0  0  0  0  0  0  0  0  0  0  0  0
  -19.2947  -33.1414  -13.3312 C   0  0  0  0  0  0  0  0  0  0  0  0
  -20.4575  -36.7310  -11.1906 O   0  0  0  0  0  0  0  0  0  0  0  0
  -20.6235  -37.7754  -10.4326 N   0  0  0  0  0  0  0  0  0  0  0  0
  2  1  1  6
  2  3  1  0
  3  4  1  0
  4  5  1  0
  5  6  1  0
  6  7  1  0
  7  8  1  0
  8  9  1  0
  9 10  1  0
 10 11  1  0
 11 12  1  0
 12 13  2  0
 13 14  1  0
 14 15  2  0
 15 16  1  0
 15 17  1  0
 13 18  1  0
 18 19  2  0
 18 20  1  0
 20 21  1  0
 21 22  1  6
 21 23  1  0
 23 24  1  1
 23 25  1  0
 25 26  1  0
 26 27  1  0
 27 28  1  0
 27 29  1  0
 27 30  1  0
 30 31  1  0
 31 32  2  0
 32 33  1  0
 33 34  1  0
 34 35  1  0
 34 36  1  0
 34 37  1  0
 32 38  1  0
 38 39  1  0
 17 11  2  0
 22  2  1  0
 39 30  2  0
M  END
$$$$
