
     RDKit          3D

 39 41  0  0  0  0  0  0  0  0999 V2000
  -20.1100  -39.9380   -4.4195 C   0  0  0  0  0  0  0  0  0  0  0  0
  -19.8417  -39.6896   -5.9086 C   0  0  2  0  0  0  0  0  0  0  0  0
  -21.1117  -39.8531   -6.6552 C   0  0  0  0  0  0  0  0  0  0  0  0
  -22.3087  -40.1773   -5.7550 C   0  0  0  0  0  0  0  0  0  0  0  0
  -23.3101  -40.6601   -6.5919 O   0  0  0  0  0  0  0  0  0  0  0  0
  -24.3328  -41.2804   -5.8896 C   0  0  0  0  0  0  0  0  0  0  0  0
  -24.0853  -42.7189   -5.5931 C   0  0  0  0  0  0  0  0  0  0  0  0
  -24.5286  -43.6700   -6.6698 C   0  0  0  0  0  0  0  0  0  0  0  0
  -23.8079  -43.5065   -7.9670 C   0  0  0  0  0  0  0  0  0  0  0  0
  -22.7108  -44.4191   -8.1621 N   0  0  0  0  0  0  0  0  0  0  0  0
  -21.3012  -44.2267   -7.9810 C   0  0  0  0  0  0  0  0  0  0  0  0
  -20.4102  -43.3051   -8.4702 C   0  0  0  0  0  0  0  0  0  0  0  0
  -19.0950  -43.4291   -8.0736 C   0  0  0  0  0  0  0  0  0  0  0  0
  -18.7390  -44.4881   -7.1963 C   0  0  0  0  0  0  0  0  0  0  0  0
  -19.6341  -45.4085   -6.7098 C   0  0  0  0  0  0  0  0  0  0  0  0
  -19.1874  -46.4854   -5.7971 C   0  0  0  0  0  0  0  0  0  0  0  0
  -20.8712  -45.2358   -7.1233 N   0  0  0  0  0  0  0  0  0  0  0  0
  -17.8915  -42.6424   -8.3792 C   0  0  0  0  0  0  0  0  0  0  0  0
  -16.7666  -43.2874   -8.6281 O   0  0  0  0  0  0  0  0  0  0  0  0
  -17.6891  -41.2368   -8.4618 N   0  0  0  0  0  0  0  0  0  0  0  0
  -17.9535  -40.2401   -7.4937 C   0  0  1  0  0  0  0  0  0  0  0  0
  -18.7520  -40.6575   -6.3114 C   0  0  0  0  0  0  0  0  0  0  0  0
  -16.6633  -39.5545   -7.0047 C   0  0  2  0  0  0  0  0  0  0  0  0
  -16.8731  -38.1807   -6.9582 O   0  0  0  0  0  0  0  0  0  0  0  0
  -15.4614  -40.0008   -7.7417 C   0  0  0  0  0  0  0  0  0  0  0  0
  -15.4003  -39.9344   -9.1270 N   0  0  0  0  0  0  0  0  0  0  0  0
  -14.2342  -39.7875   -9.8683 C   0  0  0  0  0  0  0  0  0  0  0  0
  -14.0131  -40.8661  -10.8921 C   0  0  0  0  0  0  0  0  0  0  0  0
  -12.9689  -39.6962   -9.0253 C   0  0  0  0  0  0  0  0  0  0  0  0
  -14.3069  -38.4436  -10.5683 C   0  0  0  0  0  0  0  0  0  0  0  0
  -13.7396  -38.0684  -11.7468 C   0  0  0  0  0  0  0  0  0  0  0  0
  -14.0903  -36.7536  -11.9638 C   0  0  0  0  0  0  0  0  0  0  0  0
  -13.7186  -35.8982  -13.1080 C   0  0  0  0  0  0  0  0  0  0  0  0
  -12.5947  -34.9501  -12.7723 C   0  0  0  0  0  0  0  0  0  0  0  0
  -12.3138  -34.1148  -14.0182 C   0  0  0  0  0  0  0  0  0  0  0  0
  -11.3340  -35.7187  -12.4661 C   0  0  0  0  0  0  0  0  0  0  0  0
  -12.9456  -33.9879  -11.6650 C   0  0  0  0  0  0  0  0  0  0  0  0
  -14.8217  -36.4037  -10.9544 O   0  0  0  0  0  0  0  0  0  0  0  0
  -14.9747  -37.3763  -10.1038 N   0  0  0  0  0  0  0  0  0  0  0  0
  2  1  1  1
  2  3  1  0
  3  4  1  0
  4  5  1  0
  5  6  1  0
  6  7  1  0
  7  8  1  0
  8  9  1  0
  9 10  1  0
 10 11  1  0
 11 12  1  0
 12 13  2  0
 13 14  1  0
 14 15  2  0
 15 16  1  0
 15 17  1  0
 13 18  1  0
 18 19  2  0
 18 20  1  0
 20 21  1  0
 21 22  1  1
 21 23  1  0
 23 24  1  6
 23 25  1  0
 25 26  1  0
 26 27  1  0
 27 28  1  0
 27 29  1  0
 27 30  1  0
 30 31  1  0
 31 32  2  0
 32 33  1  0
 33 34  1  0
 34 35  1  0
 34 36  1  0
 34 37  1  0
 32 38  1  0
 38 39  1  0
 17 11  2  0
 22  2  1  0
 39 30  2  0
M  END
$$$$
