
     RDKit          3D

 39 41  0  0  0  0  0  0  0  0999 V2000
  -19.6592  -40.2970   -4.2019 C   0  0  0  0  0  0  0  0  0  0  0  0
  -19.4891  -39.8037   -5.6438 C   0  0  2  0  0  0  0  0  0  0  0  0
  -20.8066  -39.8495   -6.3214 C   0  0  0  0  0  0  0  0  0  0  0  0
  -21.9427  -40.3260   -5.4101 C   0  0  0  0  0  0  0  0  0  0  0  0
  -22.9996  -40.6700   -6.2473 O   0  0  0  0  0  0  0  0  0  0  0  0
  -23.9763  -41.4046   -5.5913 C   0  0  0  0  0  0  0  0  0  0  0  0
  -23.7163  -42.8707   -5.5543 C   0  0  0  0  0  0  0  0  0  0  0  0
  -24.2345  -43.6332   -6.7419 C   0  0  0  0  0  0  0  0  0  0  0  0
  -23.6008  -43.2524   -8.0390 C   0  0  0  0  0  0  0  0  0  0  0  0
  -22.5232  -44.1130   -8.4547 N   0  0  0  0  0  0  0  0  0  0  0  0
  -21.1038  -43.9442   -8.3380 C   0  0  0  0  0  0  0  0  0  0  0  0
  -20.2430  -42.9487   -8.7256 C   0  0  0  0  0  0  0  0  0  0  0  0
  -18.9050  -43.1281   -8.4430 C   0  0  0  0  0  0  0  0  0  0  0  0
  -18.4965  -44.3155   -7.7788 C   0  0  0  0  0  0  0  0  0  0  0  0
  -19.3615  -45.3094   -7.3933 C   0  0  0  0  0  0  0  0  0  0  0  0
  -18.8603  -46.5197   -6.7033 C   0  0  0  0  0  0  0  0  0  0  0  0
  -20.6225  -45.0787   -7.6897 N   0  0  0  0  0  0  0  0  0  0  0  0
  -17.7208  -42.2939   -8.6931 C   0  0  0  0  0  0  0  0  0  0  0  0
  -16.6179  -42.8815   -9.1193 O   0  0  0  0  0  0  0  0  0  0  0  0
  -17.5178  -40.8927   -8.5549 N   0  0  0  0  0  0  0  0  0  0  0  0
  -17.7128  -40.0719   -7.4197 C   0  0  1  0  0  0  0  0  0  0  0  0
  -18.4330  -40.6845   -6.2726 C   0  0  0  0  0  0  0  0  0  0  0  0
  -16.3899  -39.4685   -6.9103 C   0  0  2  0  0  0  0  0  0  0  0  0
  -16.6357  -38.1884   -6.4258 O   0  0  0  0  0  0  0  0  0  0  0  0
  -15.2891  -39.5887   -7.8905 C   0  0  0  0  0  0  0  0  0  0  0  0
  -15.5291  -39.5119   -9.2557 N   0  0  0  0  0  0  0  0  0  0  0  0
  -14.5515  -39.5631  -10.2420 C   0  0  0  0  0  0  0  0  0  0  0  0
  -14.6287  -40.7770  -11.1257 C   0  0  0  0  0  0  0  0  0  0  0  0
  -13.1268  -39.4793   -9.7101 C   0  0  0  0  0  0  0  0  0  0  0  0
  -14.6996  -38.3165  -11.0938 C   0  0  0  0  0  0  0  0  0  0  0  0
  -14.3247  -37.0410  -10.8042 C   0  0  0  0  0  0  0  0  0  0  0  0
  -14.6675  -36.2628  -11.8884 C   0  0  0  0  0  0  0  0  0  0  0  0
  -14.4662  -34.8100  -12.0555 C   0  0  0  0  0  0  0  0  0  0  0  0
  -13.2533  -34.4932  -12.8941 C   0  0  0  0  0  0  0  0  0  0  0  0
  -12.1164  -35.3891  -12.4103 C   0  0  0  0  0  0  0  0  0  0  0  0
  -12.8160  -33.0682  -12.6665 C   0  0  0  0  0  0  0  0  0  0  0  0
  -13.4557  -34.7885  -14.3593 C   0  0  0  0  0  0  0  0  0  0  0  0
  -15.2105  -37.0626  -12.7497 O   0  0  0  0  0  0  0  0  0  0  0  0
  -15.2490  -38.2894  -12.3178 N   0  0  0  0  0  0  0  0  0  0  0  0
  2  1  1  1
  2  3  1  0
  3  4  1  0
  4  5  1  0
  5  6  1  0
  6  7  1  0
  7  8  1  0
  8  9  1  0
  9 10  1  0
 10 11  1  0
 11 12  1  0
 12 13  2  0
 13 14  1  0
 14 15  2  0
 15 16  1  0
 15 17  1  0
 13 18  1  0
 18 19  2  0
 18 20  1  0
 20 21  1  0
 21 22  1  1
 21 23  1  0
 23 24  1  6
 23 25  1  0
 25 26  1  0
 26 27  1  0
 27 28  1  0
 27 29  1  0
 27 30  1  0
 30 31  1  0
 31 32  2  0
 32 33  1  0
 33 34  1  0
 34 35  1  0
 34 36  1  0
 34 37  1  0
 32 38  1  0
 38 39  1  0
 17 11  2  0
 22  2  1  0
 39 30  2  0
M  END
$$$$
