
     RDKit          3D

 39 41  0  0  0  0  0  0  0  0999 V2000
  -15.4426  -44.3872  -10.5676 C   0  0  0  0  0  0  0  0  0  0  0  0
  -15.2466  -43.7330   -9.1946 C   0  0  2  0  0  0  0  0  0  0  0  0
  -15.1594  -44.7983   -8.1676 C   0  0  0  0  0  0  0  0  0  0  0  0
  -15.2485  -46.2130   -8.7499 C   0  0  0  0  0  0  0  0  0  0  0  0
  -15.5264  -47.0605   -7.6818 O   0  0  0  0  0  0  0  0  0  0  0  0
  -15.9391  -48.3176   -8.0979 C   0  0  0  0  0  0  0  0  0  0  0  0
  -17.3992  -48.4210   -8.3737 C   0  0  0  0  0  0  0  0  0  0  0  0
  -18.2436  -48.7675   -7.1791 C   0  0  0  0  0  0  0  0  0  0  0  0
  -18.2189  -47.7433   -6.0930 C   0  0  0  0  0  0  0  0  0  0  0  0
  -19.3259  -46.8219   -6.1131 N   0  0  0  0  0  0  0  0  0  0  0  0
  -19.4101  -45.4846   -6.6242 C   0  0  0  0  0  0  0  0  0  0  0  0
  -18.6769  -44.3470   -6.3995 C   0  0  0  0  0  0  0  0  0  0  0  0
  -19.0539  -43.2099   -7.0829 C   0  0  0  0  0  0  0  0  0  0  0  0
  -20.1642  -43.2759   -7.9665 C   0  0  0  0  0  0  0  0  0  0  0  0
  -20.8954  -44.4166   -8.1879 C   0  0  0  0  0  0  0  0  0  0  0  0
  -22.0409  -44.4079   -9.1260 C   0  0  0  0  0  0  0  0  0  0  0  0
  -20.4857  -45.4662   -7.5084 N   0  0  0  0  0  0  0  0  0  0  0  0
  -18.5139  -41.8429   -7.1022 C   0  0  0  0  0  0  0  0  0  0  0  0
  -19.3634  -40.8322   -7.0893 O   0  0  0  0  0  0  0  0  0  0  0  0
  -17.1736  -41.3672   -7.1366 N   0  0  0  0  0  0  0  0  0  0  0  0
  -16.1473  -41.6614   -8.0643 C   0  0  1  0  0  0  0  0  0  0  0  0
  -16.4058  -42.7802   -9.0084 C   0  0  0  0  0  0  0  0  0  0  0  0
  -15.7255  -40.4183   -8.8710 C   0  0  2  0  0  0  0  0  0  0  0  0
  -14.3422  -40.2903   -8.8105 O   0  0  0  0  0  0  0  0  0  0  0  0
  -16.5030  -39.2118   -8.5148 C   0  0  0  0  0  0  0  0  0  0  0  0
  -16.9916  -38.3556   -9.4922 N   0  0  0  0  0  0  0  0  0  0  0  0
  -18.0106  -37.4296   -9.3051 C   0  0  0  0  0  0  0  0  0  0  0  0
  -18.1675  -36.4474  -10.4327 C   0  0  0  0  0  0  0  0  0  0  0  0
  -17.8914  -36.6257   -8.0170 C   0  0  0  0  0  0  0  0  0  0  0  0
  -19.3037  -38.2047   -9.1361 C   0  0  0  0  0  0  0  0  0  0  0  0
  -20.5078  -37.7593   -8.6855 C   0  0  0  0  0  0  0  0  0  0  0  0
  -21.3716  -38.8325   -8.7120 C   0  0  0  0  0  0  0  0  0  0  0  0
  -22.7938  -38.8554   -8.3173 C   0  0  0  0  0  0  0  0  0  0  0  0
  -22.9763  -39.1676   -6.8531 C   0  0  0  0  0  0  0  0  0  0  0  0
  -22.3063  -38.0488   -6.0603 C   0  0  0  0  0  0  0  0  0  0  0  0
  -22.2617  -40.4465   -6.4965 C   0  0  0  0  0  0  0  0  0  0  0  0
  -24.4246  -39.2006   -6.4331 C   0  0  0  0  0  0  0  0  0  0  0  0
  -20.6862  -39.8367   -9.1572 O   0  0  0  0  0  0  0  0  0  0  0  0
  -19.4554  -39.5073   -9.4208 N   0  0  0  0  0  0  0  0  0  0  0  0
  2  1  1  6
  2  3  1  0
  3  4  1  0
  4  5  1  0
  5  6  1  0
  6  7  1  0
  7  8  1  0
  8  9  1  0
  9 10  1  0
 10 11  1  0
 11 12  1  0
 12 13  2  0
 13 14  1  0
 14 15  2  0
 15 16  1  0
 15 17  1  0
 13 18  1  0
 18 19  2  0
 18 20  1  0
 20 21  1  0
 21 22  1  6
 21 23  1  0
 23 24  1  1
 23 25  1  0
 25 26  1  0
 26 27  1  0
 27 28  1  0
 27 29  1  0
 27 30  1  0
 30 31  1  0
 31 32  2  0
 32 33  1  0
 33 34  1  0
 34 35  1  0
 34 36  1  0
 34 37  1  0
 32 38  1  0
 38 39  1  0
 17 11  2  0
 22  2  1  0
 39 30  2  0
M  END
$$$$
