
     RDKit          3D

 39 41  0  0  0  0  0  0  0  0999 V2000
  -19.7009  -38.8295   -5.4679 C   0  0  0  0  0  0  0  0  0  0  0  0
  -19.2789  -38.9726   -6.9351 C   0  0  2  0  0  0  0  0  0  0  0  0
  -20.4486  -39.4251   -7.7252 C   0  0  0  0  0  0  0  0  0  0  0  0
  -21.7230  -39.5824   -6.8889 C   0  0  0  0  0  0  0  0  0  0  0  0
  -22.6014  -40.3460   -7.6516 O   0  0  0  0  0  0  0  0  0  0  0  0
  -23.6673  -40.8280   -6.9063 C   0  0  0  0  0  0  0  0  0  0  0  0
  -23.3897  -42.1108   -6.2021 C   0  0  0  0  0  0  0  0  0  0  0  0
  -23.6661  -43.3471   -7.0117 C   0  0  0  0  0  0  0  0  0  0  0  0
  -22.8128  -43.4864   -8.2288 C   0  0  0  0  0  0  0  0  0  0  0  0
  -21.6605  -44.3338   -8.0589 N   0  0  0  0  0  0  0  0  0  0  0  0
  -20.2902  -43.9957   -7.8044 C   0  0  0  0  0  0  0  0  0  0  0  0
  -19.3927  -43.1767   -8.4416 C   0  0  0  0  0  0  0  0  0  0  0  0
  -18.1260  -43.0912   -7.9026 C   0  0  0  0  0  0  0  0  0  0  0  0
  -17.8230  -43.8451   -6.7374 C   0  0  0  0  0  0  0  0  0  0  0  0
  -18.7243  -44.6639   -6.1034 C   0  0  0  0  0  0  0  0  0  0  0  0
  -18.3345  -45.4186   -4.8907 C   0  0  0  0  0  0  0  0  0  0  0  0
  -19.9138  -44.7014   -6.6645 N   0  0  0  0  0  0  0  0  0  0  0  0
  -16.9326  -42.3290   -8.2972 C   0  0  0  0  0  0  0  0  0  0  0  0
  -15.7589  -42.9319   -8.2500 O   0  0  0  0  0  0  0  0  0  0  0  0
  -16.7860  -40.9867   -8.7449 N   0  0  0  0  0  0  0  0  0  0  0  0
  -17.2021  -39.7884   -8.1192 C   0  0  1  0  0  0  0  0  0  0  0  0
  -18.1083  -39.9296   -6.9493 C   0  0  0  0  0  0  0  0  0  0  0  0
  -16.0072  -38.9026   -7.7176 C   0  0  2  0  0  0  0  0  0  0  0  0
  -16.4436  -37.5886   -7.5894 O   0  0  0  0  0  0  0  0  0  0  0  0
  -14.8236  -39.1099   -8.5797 C   0  0  0  0  0  0  0  0  0  0  0  0
  -14.6692  -38.4130   -9.7703 N   0  0  0  0  0  0  0  0  0  0  0  0
  -13.5063  -38.3794  -10.5304 C   0  0  0  0  0  0  0  0  0  0  0  0
  -12.3363  -39.0831   -9.9008 C   0  0  0  0  0  0  0  0  0  0  0  0
  -13.0456  -36.9755  -10.9001 C   0  0  0  0  0  0  0  0  0  0  0  0
  -13.8176  -39.0275  -11.8662 C   0  0  0  0  0  0  0  0  0  0  0  0
  -13.1189  -38.9492  -13.0311 C   0  0  0  0  0  0  0  0  0  0  0  0
  -13.7972  -39.7067  -13.9611 C   0  0  0  0  0  0  0  0  0  0  0  0
  -13.4370  -39.9346  -15.3744 C   0  0  0  0  0  0  0  0  0  0  0  0
  -13.9144  -38.8215  -16.2732 C   0  0  0  0  0  0  0  0  0  0  0  0
  -15.3776  -38.5540  -15.9317 C   0  0  0  0  0  0  0  0  0  0  0  0
  -13.8735  -39.2583  -17.7158 C   0  0  0  0  0  0  0  0  0  0  0  0
  -13.1672  -37.5289  -16.0590 C   0  0  0  0  0  0  0  0  0  0  0  0
  -14.8305  -40.1900  -13.3488 O   0  0  0  0  0  0  0  0  0  0  0  0
  -14.8801  -39.8116  -12.1048 N   0  0  0  0  0  0  0  0  0  0  0  0
  2  1  1  1
  2  3  1  0
  3  4  1  0
  4  5  1  0
  5  6  1  0
  6  7  1  0
  7  8  1  0
  8  9  1  0
  9 10  1  0
 10 11  1  0
 11 12  1  0
 12 13  2  0
 13 14  1  0
 14 15  2  0
 15 16  1  0
 15 17  1  0
 13 18  1  0
 18 19  2  0
 18 20  1  0
 20 21  1  0
 21 22  1  1
 21 23  1  0
 23 24  1  6
 23 25  1  0
 25 26  1  0
 26 27  1  0
 27 28  1  0
 27 29  1  0
 27 30  1  0
 30 31  1  0
 31 32  2  0
 32 33  1  0
 33 34  1  0
 34 35  1  0
 34 36  1  0
 34 37  1  0
 32 38  1  0
 38 39  1  0
 17 11  2  0
 22  2  1  0
 39 30  2  0
M  END
$$$$
