
     RDKit          3D

 39 41  0  0  0  0  0  0  0  0999 V2000
  -21.0458  -38.5791   -5.4725 C   0  0  0  0  0  0  0  0  0  0  0  0
  -20.5757  -38.9335   -6.8883 C   0  0  2  0  0  0  0  0  0  0  0  0
  -21.7375  -39.4246   -7.6670 C   0  0  0  0  0  0  0  0  0  0  0  0
  -23.0504  -39.4062   -6.8770 C   0  0  0  0  0  0  0  0  0  0  0  0
  -23.9403  -40.2166   -7.5754 O   0  0  0  0  0  0  0  0  0  0  0  0
  -25.0601  -40.5422   -6.8243 C   0  0  0  0  0  0  0  0  0  0  0  0
  -24.8834  -41.7349   -5.9498 C   0  0  0  0  0  0  0  0  0  0  0  0
  -25.1977  -43.0503   -6.6064 C   0  0  0  0  0  0  0  0  0  0  0  0
  -24.3068  -43.3905   -7.7551 C   0  0  0  0  0  0  0  0  0  0  0  0
  -23.2120  -44.2664   -7.4254 N   0  0  0  0  0  0  0  0  0  0  0  0
  -21.8357  -43.9686   -7.1534 C   0  0  0  0  0  0  0  0  0  0  0  0
  -20.8689  -43.2866   -7.8481 C   0  0  0  0  0  0  0  0  0  0  0  0
  -19.6214  -43.1967   -7.2669 C   0  0  0  0  0  0  0  0  0  0  0  0
  -19.4073  -43.8068   -6.0021 C   0  0  0  0  0  0  0  0  0  0  0  0
  -20.3777  -44.4889   -5.3107 C   0  0  0  0  0  0  0  0  0  0  0  0
  -20.0789  -45.0982   -3.9948 C   0  0  0  0  0  0  0  0  0  0  0  0
  -21.5447  -44.5382   -5.9165 N   0  0  0  0  0  0  0  0  0  0  0  0
  -18.3722  -42.5545   -7.7004 C   0  0  0  0  0  0  0  0  0  0  0  0
  -17.2374  -43.2054   -7.5225 O   0  0  0  0  0  0  0  0  0  0  0  0
  -18.1324  -41.2912   -8.3089 N   0  0  0  0  0  0  0  0  0  0  0  0
  -18.5039  -40.0019   -7.8615 C   0  0  1  0  0  0  0  0  0  0  0  0
  -19.4617  -39.9429   -6.7261 C   0  0  0  0  0  0  0  0  0  0  0  0
  -17.2773  -39.1337   -7.5220 C   0  0  2  0  0  0  0  0  0  0  0  0
  -17.7140  -37.9243   -6.9926 O   0  0  0  0  0  0  0  0  0  0  0  0
  -16.3132  -39.0401   -8.6394 C   0  0  0  0  0  0  0  0  0  0  0  0
  -14.9524  -39.2218   -8.4334 N   0  0  0  0  0  0  0  0  0  0  0  0
  -14.0383  -39.5860   -9.4147 C   0  0  0  0  0  0  0  0  0  0  0  0
  -14.6147  -40.4403  -10.5094 C   0  0  0  0  0  0  0  0  0  0  0  0
  -12.8059  -40.3041   -8.8805 C   0  0  0  0  0  0  0  0  0  0  0  0
  -13.4861  -38.3084  -10.0181 C   0  0  0  0  0  0  0  0  0  0  0  0
  -12.7982  -38.1469  -11.1809 C   0  0  0  0  0  0  0  0  0  0  0  0
  -12.5120  -36.8041  -11.2982 C   0  0  0  0  0  0  0  0  0  0  0  0
  -11.7809  -36.1298  -12.3890 C   0  0  0  0  0  0  0  0  0  0  0  0
  -12.7091  -35.4655  -13.3749 C   0  0  0  0  0  0  0  0  0  0  0  0
  -13.6212  -36.5483  -13.9448 C   0  0  0  0  0  0  0  0  0  0  0  0
  -11.9261  -34.8978  -14.5318 C   0  0  0  0  0  0  0  0  0  0  0  0
  -13.5995  -34.4272  -12.7393 C   0  0  0  0  0  0  0  0  0  0  0  0
  -13.0156  -36.2347  -10.2501 O   0  0  0  0  0  0  0  0  0  0  0  0
  -13.6020  -37.0910   -9.4654 N   0  0  0  0  0  0  0  0  0  0  0  0
  2  1  1  1
  2  3  1  0
  3  4  1  0
  4  5  1  0
  5  6  1  0
  6  7  1  0
  7  8  1  0
  8  9  1  0
  9 10  1  0
 10 11  1  0
 11 12  1  0
 12 13  2  0
 13 14  1  0
 14 15  2  0
 15 16  1  0
 15 17  1  0
 13 18  1  0
 18 19  2  0
 18 20  1  0
 20 21  1  0
 21 22  1  1
 21 23  1  0
 23 24  1  6
 23 25  1  0
 25 26  1  0
 26 27  1  0
 27 28  1  0
 27 29  1  0
 27 30  1  0
 30 31  1  0
 31 32  2  0
 32 33  1  0
 33 34  1  0
 34 35  1  0
 34 36  1  0
 34 37  1  0
 32 38  1  0
 38 39  1  0
 17 11  2  0
 22  2  1  0
 39 30  2  0
M  END
$$$$
