
     RDKit          3D

 39 41  0  0  0  0  0  0  0  0999 V2000
  -12.1158  -39.5010   -9.1744 C   0  0  0  0  0  0  0  0  0  0  0  0
  -13.0954  -40.1407   -8.1832 C   0  0  2  0  0  0  0  0  0  0  0  0
  -12.6517  -41.5269   -7.9025 C   0  0  0  0  0  0  0  0  0  0  0  0
  -11.3577  -41.9099   -8.6286 C   0  0  0  0  0  0  0  0  0  0  0  0
  -11.2746  -43.2980   -8.5770 O   0  0  0  0  0  0  0  0  0  0  0  0
  -10.3262  -43.8039   -9.4536 C   0  0  0  0  0  0  0  0  0  0  0  0
  -10.8312  -44.0287  -10.8367 C   0  0  0  0  0  0  0  0  0  0  0  0
  -11.4597  -45.3748  -11.0675 C   0  0  0  0  0  0  0  0  0  0  0  0
  -12.6897  -45.6238  -10.2587 C   0  0  0  0  0  0  0  0  0  0  0  0
  -13.9254  -45.3673  -10.9529 N   0  0  0  0  0  0  0  0  0  0  0  0
  -14.7913  -44.2247  -10.9134 C   0  0  0  0  0  0  0  0  0  0  0  0
  -15.4147  -43.5556   -9.8907 C   0  0  0  0  0  0  0  0  0  0  0  0
  -16.1945  -42.4703  -10.2317 C   0  0  0  0  0  0  0  0  0  0  0  0
  -16.3102  -42.1109  -11.6011 C   0  0  0  0  0  0  0  0  0  0  0  0
  -15.6849  -42.7838  -12.6214 C   0  0  0  0  0  0  0  0  0  0  0  0
  -15.8530  -42.3483  -14.0265 C   0  0  0  0  0  0  0  0  0  0  0  0
  -14.9557  -43.8073  -12.2317 N   0  0  0  0  0  0  0  0  0  0  0  0
  -16.9875  -41.5303   -9.4267 C   0  0  0  0  0  0  0  0  0  0  0  0
  -18.1828  -41.1812   -9.8657 O   0  0  0  0  0  0  0  0  0  0  0  0
  -16.7005  -40.8819   -8.1934 N   0  0  0  0  0  0  0  0  0  0  0  0
  -15.5984  -40.0636   -7.8524 C   0  0  1  0  0  0  0  0  0  0  0  0
  -14.4655  -40.0398   -8.8146 C   0  0  0  0  0  0  0  0  0  0  0  0
  -16.0271  -38.6140   -7.5542 C   0  0  2  0  0  0  0  0  0  0  0  0
  -15.4794  -38.2237   -6.3371 O   0  0  0  0  0  0  0  0  0  0  0  0
  -17.4830  -38.4033   -7.7057 C   0  0  0  0  0  0  0  0  0  0  0  0
  -18.1844  -37.5751   -6.8401 N   0  0  0  0  0  0  0  0  0  0  0  0
  -19.5691  -37.5162   -6.7386 C   0  0  0  0  0  0  0  0  0  0  0  0
  -20.2311  -36.6794   -7.7979 C   0  0  0  0  0  0  0  0  0  0  0  0
  -20.0731  -37.0213   -5.3892 C   0  0  0  0  0  0  0  0  0  0  0  0
  -20.0921  -38.9374   -6.8273 C   0  0  0  0  0  0  0  0  0  0  0  0
  -20.3140  -39.6927   -7.9371 C   0  0  0  0  0  0  0  0  0  0  0  0
  -20.7896  -40.9125   -7.5076 C   0  0  0  0  0  0  0  0  0  0  0  0
  -21.1767  -42.0718   -8.3355 C   0  0  0  0  0  0  0  0  0  0  0  0
  -22.6508  -42.0803   -8.6544 C   0  0  0  0  0  0  0  0  0  0  0  0
  -22.9141  -43.2751   -9.5667 C   0  0  0  0  0  0  0  0  0  0  0  0
  -23.0264  -40.8439   -9.4315 C   0  0  0  0  0  0  0  0  0  0  0  0
  -23.5176  -42.2576   -7.4329 C   0  0  0  0  0  0  0  0  0  0  0  0
  -20.8337  -40.8482   -6.2152 O   0  0  0  0  0  0  0  0  0  0  0  0
  -20.4286  -39.6941   -5.7714 N   0  0  0  0  0  0  0  0  0  0  0  0
  2  1  1  6
  2  3  1  0
  3  4  1  0
  4  5  1  0
  5  6  1  0
  6  7  1  0
  7  8  1  0
  8  9  1  0
  9 10  1  0
 10 11  1  0
 11 12  1  0
 12 13  2  0
 13 14  1  0
 14 15  2  0
 15 16  1  0
 15 17  1  0
 13 18  1  0
 18 19  2  0
 18 20  1  0
 20 21  1  0
 21 22  1  6
 21 23  1  0
 23 24  1  1
 23 25  1  0
 25 26  1  0
 26 27  1  0
 27 28  1  0
 27 29  1  0
 27 30  1  0
 30 31  1  0
 31 32  2  0
 32 33  1  0
 33 34  1  0
 34 35  1  0
 34 36  1  0
 34 37  1  0
 32 38  1  0
 38 39  1  0
 17 11  2  0
 22  2  1  0
 39 30  2  0
M  END
$$$$
