
     RDKit          3D

 39 41  0  0  0  0  0  0  0  0999 V2000
  -13.9177  -41.6647  -11.2130 C   0  0  0  0  0  0  0  0  0  0  0  0
  -14.0472  -41.8689   -9.6988 C   0  0  2  0  0  0  0  0  0  0  0  0
  -13.5260  -43.2128   -9.3532 C   0  0  0  0  0  0  0  0  0  0  0  0
  -12.9851  -43.9844  -10.5617 C   0  0  0  0  0  0  0  0  0  0  0  0
  -12.8878  -45.3151  -10.1665 O   0  0  0  0  0  0  0  0  0  0  0  0
  -12.7097  -46.1741  -11.2408 C   0  0  0  0  0  0  0  0  0  0  0  0
  -13.9769  -46.6093  -11.8916 C   0  0  0  0  0  0  0  0  0  0  0  0
  -14.6091  -47.8317  -11.2863 C   0  0  0  0  0  0  0  0  0  0  0  0
  -15.0479  -47.6573   -9.8699 C   0  0  0  0  0  0  0  0  0  0  0  0
  -16.4438  -47.3401   -9.7099 N   0  0  0  0  0  0  0  0  0  0  0  0
  -17.0888  -46.0779   -9.4915 C   0  0  0  0  0  0  0  0  0  0  0  0
  -16.9230  -45.0901   -8.5539 C   0  0  0  0  0  0  0  0  0  0  0  0
  -17.7425  -43.9851   -8.6522 C   0  0  0  0  0  0  0  0  0  0  0  0
  -18.6999  -43.9310   -9.7002 C   0  0  0  0  0  0  0  0  0  0  0  0
  -18.8627  -44.9223  -10.6359 C   0  0  0  0  0  0  0  0  0  0  0  0
  -19.8832  -44.7939  -11.7009 C   0  0  0  0  0  0  0  0  0  0  0  0
  -18.0514  -45.9478  -10.4892 N   0  0  0  0  0  0  0  0  0  0  0  0
  -17.8458  -42.7561   -7.8524 C   0  0  0  0  0  0  0  0  0  0  0  0
  -19.0487  -42.2999   -7.5553 O   0  0  0  0  0  0  0  0  0  0  0  0
  -16.8423  -41.9096   -7.3046 N   0  0  0  0  0  0  0  0  0  0  0  0
  -15.7738  -41.2547   -7.9604 C   0  0  1  0  0  0  0  0  0  0  0  0
  -15.5073  -41.6611   -9.3652 C   0  0  0  0  0  0  0  0  0  0  0  0
  -15.9166  -39.7216   -7.9057 C   0  0  2  0  0  0  0  0  0  0  0  0
  -15.3500  -39.2583   -6.7233 O   0  0  0  0  0  0  0  0  0  0  0  0
  -17.2944  -39.2630   -8.1857 C   0  0  0  0  0  0  0  0  0  0  0  0
  -18.2580  -39.2265   -7.1870 N   0  0  0  0  0  0  0  0  0  0  0  0
  -19.3834  -38.4113   -7.1933 C   0  0  0  0  0  0  0  0  0  0  0  0
  -19.7089  -37.7973   -5.8600 C   0  0  0  0  0  0  0  0  0  0  0  0
  -20.6461  -39.0986   -7.6963 C   0  0  0  0  0  0  0  0  0  0  0  0
  -19.1389  -37.3068   -8.2040 C   0  0  0  0  0  0  0  0  0  0  0  0
  -19.7944  -37.0640   -9.3714 C   0  0  0  0  0  0  0  0  0  0  0  0
  -19.2108  -35.9523   -9.9390 C   0  0  0  0  0  0  0  0  0  0  0  0
  -19.5695  -35.2961  -11.2118 C   0  0  0  0  0  0  0  0  0  0  0  0
  -18.5073  -35.4757  -12.2674 C   0  0  0  0  0  0  0  0  0  0  0  0
  -17.4452  -36.4090  -11.6928 C   0  0  0  0  0  0  0  0  0  0  0  0
  -17.8267  -34.1614  -12.5556 C   0  0  0  0  0  0  0  0  0  0  0  0
  -19.0298  -36.1225  -13.5258 C   0  0  0  0  0  0  0  0  0  0  0  0
  -18.2698  -35.5851   -9.1291 O   0  0  0  0  0  0  0  0  0  0  0  0
  -18.1935  -36.3615   -8.0878 N   0  0  0  0  0  0  0  0  0  0  0  0
  2  1  1  6
  2  3  1  0
  3  4  1  0
  4  5  1  0
  5  6  1  0
  6  7  1  0
  7  8  1  0
  8  9  1  0
  9 10  1  0
 10 11  1  0
 11 12  1  0
 12 13  2  0
 13 14  1  0
 14 15  2  0
 15 16  1  0
 15 17  1  0
 13 18  1  0
 18 19  2  0
 18 20  1  0
 20 21  1  0
 21 22  1  6
 21 23  1  0
 23 24  1  1
 23 25  1  0
 25 26  1  0
 26 27  1  0
 27 28  1  0
 27 29  1  0
 27 30  1  0
 30 31  1  0
 31 32  2  0
 32 33  1  0
 33 34  1  0
 34 35  1  0
 34 36  1  0
 34 37  1  0
 32 38  1  0
 38 39  1  0
 17 11  2  0
 22  2  1  0
 39 30  2  0
M  END
$$$$
