
     RDKit          3D

 39 41  0  0  0  0  0  0  0  0999 V2000
  -18.8932  -42.8781   -9.7739 C   0  0  0  0  0  0  0  0  0  0  0  0
  -18.2618  -42.9623   -8.3791 C   0  0  2  0  0  0  0  0  0  0  0  0
  -18.9513  -44.0236   -7.6074 C   0  0  0  0  0  0  0  0  0  0  0  0
  -20.0431  -44.7439   -8.4058 C   0  0  0  0  0  0  0  0  0  0  0  0
  -20.8278  -45.4199   -7.4765 O   0  0  0  0  0  0  0  0  0  0  0  0
  -22.0274  -45.8590   -8.0171 C   0  0  0  0  0  0  0  0  0  0  0  0
  -23.1183  -44.8453   -7.9872 C   0  0  0  0  0  0  0  0  0  0  0  0
  -23.9321  -44.8320   -6.7231 C   0  0  0  0  0  0  0  0  0  0  0  0
  -23.1576  -44.4702   -5.4991 C   0  0  0  0  0  0  0  0  0  0  0  0
  -23.2607  -43.0866   -5.1121 N   0  0  0  0  0  0  0  0  0  0  0  0
  -22.3640  -41.9908   -5.3396 C   0  0  0  0  0  0  0  0  0  0  0  0
  -21.0320  -41.7984   -5.0732 C   0  0  0  0  0  0  0  0  0  0  0  0
  -20.4854  -40.5863   -5.4399 C   0  0  0  0  0  0  0  0  0  0  0  0
  -21.3178  -39.6173   -6.0613 C   0  0  0  0  0  0  0  0  0  0  0  0
  -22.6506  -39.8141   -6.3254 C   0  0  0  0  0  0  0  0  0  0  0  0
  -23.4544  -38.7556   -6.9779 C   0  0  0  0  0  0  0  0  0  0  0  0
  -23.1115  -40.9890   -5.9535 N   0  0  0  0  0  0  0  0  0  0  0  0
  -19.1261  -40.0388   -5.3242 C   0  0  0  0  0  0  0  0  0  0  0  0
  -18.9860  -38.7821   -4.9444 O   0  0  0  0  0  0  0  0  0  0  0  0
  -17.8553  -40.6337   -5.5579 N   0  0  0  0  0  0  0  0  0  0  0  0
  -17.3726  -41.2757   -6.7222 C   0  0  1  0  0  0  0  0  0  0  0  0
  -18.3747  -41.5798   -7.7772 C   0  0  0  0  0  0  0  0  0  0  0  0
  -16.1984  -40.5080   -7.3592 C   0  0  2  0  0  0  0  0  0  0  0  0
  -15.0404  -40.7766   -6.6377 O   0  0  0  0  0  0  0  0  0  0  0  0
  -16.5025  -39.0786   -7.5856 C   0  0  0  0  0  0  0  0  0  0  0  0
  -16.0712  -38.4234   -8.7310 N   0  0  0  0  0  0  0  0  0  0  0  0
  -16.3664  -37.1048   -9.0552 C   0  0  0  0  0  0  0  0  0  0  0  0
  -15.4477  -36.0937   -8.4273 C   0  0  0  0  0  0  0  0  0  0  0  0
  -17.7935  -36.6878   -8.7242 C   0  0  0  0  0  0  0  0  0  0  0  0
  -16.2879  -36.9795  -10.5649 C   0  0  0  0  0  0  0  0  0  0  0  0
  -17.2536  -36.5768  -11.4348 C   0  0  0  0  0  0  0  0  0  0  0  0
  -16.7068  -36.6292  -12.6985 C   0  0  0  0  0  0  0  0  0  0  0  0
  -17.3590  -36.2883  -13.9782 C   0  0  0  0  0  0  0  0  0  0  0  0
  -16.9437  -34.9312  -14.4884 C   0  0  0  0  0  0  0  0  0  0  0  0
  -15.8512  -34.4084  -13.5598 C   0  0  0  0  0  0  0  0  0  0  0  0
  -18.0957  -33.9624  -14.3994 C   0  0  0  0  0  0  0  0  0  0  0  0
  -16.3580  -34.9773  -15.8776 C   0  0  0  0  0  0  0  0  0  0  0  0
  -15.4889  -37.0421  -12.5482 O   0  0  0  0  0  0  0  0  0  0  0  0
  -15.2001  -37.2614  -11.2986 N   0  0  0  0  0  0  0  0  0  0  0  0
  2  1  1  6
  2  3  1  0
  3  4  1  0
  4  5  1  0
  5  6  1  0
  6  7  1  0
  7  8  1  0
  8  9  1  0
  9 10  1  0
 10 11  1  0
 11 12  1  0
 12 13  2  0
 13 14  1  0
 14 15  2  0
 15 16  1  0
 15 17  1  0
 13 18  1  0
 18 19  2  0
 18 20  1  0
 20 21  1  0
 21 22  1  6
 21 23  1  0
 23 24  1  1
 23 25  1  0
 25 26  1  0
 26 27  1  0
 27 28  1  0
 27 29  1  0
 27 30  1  0
 30 31  1  0
 31 32  2  0
 32 33  1  0
 33 34  1  0
 34 35  1  0
 34 36  1  0
 34 37  1  0
 32 38  1  0
 38 39  1  0
 17 11  2  0
 22  2  1  0
 39 30  2  0
M  END
$$$$
