
     RDKit          3D

 39 41  0  0  0  0  0  0  0  0999 V2000
  -14.6817  -40.4436  -11.8920 C   0  0  0  0  0  0  0  0  0  0  0  0
  -14.5837  -40.4943  -10.3626 C   0  0  2  0  0  0  0  0  0  0  0  0
  -13.6185  -41.5529   -9.9821 C   0  0  0  0  0  0  0  0  0  0  0  0
  -12.9792  -42.2540  -11.1855 C   0  0  0  0  0  0  0  0  0  0  0  0
  -12.4116  -43.4280  -10.7001 O   0  0  0  0  0  0  0  0  0  0  0  0
  -12.0709  -44.3097  -11.7152 C   0  0  0  0  0  0  0  0  0  0  0  0
  -13.1840  -45.1977  -12.1522 C   0  0  0  0  0  0  0  0  0  0  0  0
  -13.3158  -46.4749  -11.3701 C   0  0  0  0  0  0  0  0  0  0  0  0
  -13.6424  -46.2788   -9.9265 C   0  0  0  0  0  0  0  0  0  0  0  0
  -15.0415  -46.4016   -9.6067 N   0  0  0  0  0  0  0  0  0  0  0  0
  -16.0392  -45.3910   -9.4069 C   0  0  0  0  0  0  0  0  0  0  0  0
  -16.1129  -44.2960   -8.5835 C   0  0  0  0  0  0  0  0  0  0  0  0
  -17.2550  -43.5266   -8.6603 C   0  0  0  0  0  0  0  0  0  0  0  0
  -18.2777  -43.9042   -9.5710 C   0  0  0  0  0  0  0  0  0  0  0  0
  -18.1998  -45.0013  -10.3927 C   0  0  0  0  0  0  0  0  0  0  0  0
  -19.3079  -45.3308  -11.3177 C   0  0  0  0  0  0  0  0  0  0  0  0
  -17.0867  -45.6926  -10.2734 N   0  0  0  0  0  0  0  0  0  0  0  0
  -17.6745  -42.3062   -7.9564 C   0  0  0  0  0  0  0  0  0  0  0  0
  -18.9240  -42.2209   -7.5385 O   0  0  0  0  0  0  0  0  0  0  0  0
  -16.9543  -41.1267   -7.6191 N   0  0  0  0  0  0  0  0  0  0  0  0
  -16.2317  -40.2519   -8.4636 C   0  0  1  0  0  0  0  0  0  0  0  0
  -15.9896  -40.7196   -9.8538 C   0  0  0  0  0  0  0  0  0  0  0  0
  -16.8631  -38.8475   -8.5150 C   0  0  2  0  0  0  0  0  0  0  0  0
  -15.8972  -37.9066   -8.1755 O   0  0  0  0  0  0  0  0  0  0  0  0
  -18.1378  -38.7637   -7.7699 C   0  0  0  0  0  0  0  0  0  0  0  0
  -19.2947  -38.2899   -8.3735 N   0  0  0  0  0  0  0  0  0  0  0  0
  -20.5241  -38.1481   -7.7414 C   0  0  0  0  0  0  0  0  0  0  0  0
  -21.6468  -37.7459   -8.6570 C   0  0  0  0  0  0  0  0  0  0  0  0
  -20.5149  -37.1664   -6.5769 C   0  0  0  0  0  0  0  0  0  0  0  0
  -20.8598  -39.4796   -7.0966 C   0  0  0  0  0  0  0  0  0  0  0  0
  -21.7582  -39.7421   -6.1089 C   0  0  0  0  0  0  0  0  0  0  0  0
  -21.7038  -41.0967   -5.8625 C   0  0  0  0  0  0  0  0  0  0  0  0
  -22.4892  -41.8664   -4.8777 C   0  0  0  0  0  0  0  0  0  0  0  0
  -23.6327  -42.6142   -5.5165 C   0  0  0  0  0  0  0  0  0  0  0  0
  -24.3773  -43.3475   -4.4043 C   0  0  0  0  0  0  0  0  0  0  0  0
  -23.1087  -43.6662   -6.4612 C   0  0  0  0  0  0  0  0  0  0  0  0
  -24.6293  -41.7044   -6.1902 C   0  0  0  0  0  0  0  0  0  0  0  0
  -20.8159  -41.5760   -6.6738 O   0  0  0  0  0  0  0  0  0  0  0  0
  -20.2914  -40.6506   -7.4231 N   0  0  0  0  0  0  0  0  0  0  0  0
  2  1  1  6
  2  3  1  0
  3  4  1  0
  4  5  1  0
  5  6  1  0
  6  7  1  0
  7  8  1  0
  8  9  1  0
  9 10  1  0
 10 11  1  0
 11 12  1  0
 12 13  2  0
 13 14  1  0
 14 15  2  0
 15 16  1  0
 15 17  1  0
 13 18  1  0
 18 19  2  0
 18 20  1  0
 20 21  1  0
 21 22  1  6
 21 23  1  0
 23 24  1  1
 23 25  1  0
 25 26  1  0
 26 27  1  0
 27 28  1  0
 27 29  1  0
 27 30  1  0
 30 31  1  0
 31 32  2  0
 32 33  1  0
 33 34  1  0
 34 35  1  0
 34 36  1  0
 34 37  1  0
 32 38  1  0
 38 39  1  0
 17 11  2  0
 22  2  1  0
 39 30  2  0
M  END
$$$$
