
     RDKit          3D

 39 41  0  0  0  0  0  0  0  0999 V2000
  -14.3558  -38.8451  -12.1776 C   0  0  0  0  0  0  0  0  0  0  0  0
  -13.8462  -39.0194  -10.7419 C   0  0  2  0  0  0  0  0  0  0  0  0
  -12.5645  -39.7630  -10.7785 C   0  0  0  0  0  0  0  0  0  0  0  0
  -12.1012  -40.1065  -12.1982 C   0  0  0  0  0  0  0  0  0  0  0  0
  -11.1280  -41.0924  -12.0660 O   0  0  0  0  0  0  0  0  0  0  0  0
  -10.8418  -41.7178  -13.2705 C   0  0  0  0  0  0  0  0  0  0  0  0
  -11.7458  -42.8555  -13.5979 C   0  0  0  0  0  0  0  0  0  0  0  0
  -11.3131  -44.1843  -13.0435 C   0  0  0  0  0  0  0  0  0  0  0  0
  -11.2862  -44.2469  -11.5520 C   0  0  0  0  0  0  0  0  0  0  0  0
  -12.4623  -44.8260  -10.9553 N   0  0  0  0  0  0  0  0  0  0  0  0
  -13.6073  -44.1972  -10.3635 C   0  0  0  0  0  0  0  0  0  0  0  0
  -13.7553  -43.2682   -9.3648 C   0  0  0  0  0  0  0  0  0  0  0  0
  -15.0415  -42.8836   -9.0485 C   0  0  0  0  0  0  0  0  0  0  0  0
  -16.1261  -43.4622   -9.7604 C   0  0  0  0  0  0  0  0  0  0  0  0
  -15.9733  -44.3921  -10.7588 C   0  0  0  0  0  0  0  0  0  0  0  0
  -17.1537  -44.9500  -11.4570 C   0  0  0  0  0  0  0  0  0  0  0  0
  -14.7239  -44.7160  -11.0141 N   0  0  0  0  0  0  0  0  0  0  0  0
  -15.5752  -41.9301   -8.0652 C   0  0  0  0  0  0  0  0  0  0  0  0
  -16.6436  -42.2764   -7.3711 O   0  0  0  0  0  0  0  0  0  0  0  0
  -15.1405  -40.6273   -7.6946 N   0  0  0  0  0  0  0  0  0  0  0  0
  -14.9336  -39.4912   -8.5113 C   0  0  1  0  0  0  0  0  0  0  0  0
  -14.9508  -39.7169   -9.9805 C   0  0  0  0  0  0  0  0  0  0  0  0
  -15.9135  -38.3515   -8.1726 C   0  0  2  0  0  0  0  0  0  0  0  0
  -15.2403  -37.3825   -7.4366 O   0  0  0  0  0  0  0  0  0  0  0  0
  -17.1827  -38.8394   -7.5913 C   0  0  0  0  0  0  0  0  0  0  0  0
  -18.2703  -39.1509   -8.3959 N   0  0  0  0  0  0  0  0  0  0  0  0
  -19.4706  -39.6855   -7.9435 C   0  0  0  0  0  0  0  0  0  0  0  0
  -19.6934  -39.5390   -6.4638 C   0  0  0  0  0  0  0  0  0  0  0  0
  -19.6649  -41.1564   -8.2878 C   0  0  0  0  0  0  0  0  0  0  0  0
  -20.5903  -38.9830   -8.6879 C   0  0  0  0  0  0  0  0  0  0  0  0
  -21.9020  -38.8749   -8.3429 C   0  0  0  0  0  0  0  0  0  0  0  0
  -22.5220  -38.1457   -9.3342 C   0  0  0  0  0  0  0  0  0  0  0  0
  -23.9450  -37.7615   -9.4151 C   0  0  0  0  0  0  0  0  0  0  0  0
  -24.8019  -38.8589   -9.9948 C   0  0  0  0  0  0  0  0  0  0  0  0
  -24.0495  -39.4452  -11.1862 C   0  0  0  0  0  0  0  0  0  0  0  0
  -26.0926  -38.2901  -10.5280 C   0  0  0  0  0  0  0  0  0  0  0  0
  -25.0468  -39.9895   -9.0270 C   0  0  0  0  0  0  0  0  0  0  0  0
  -21.6023  -37.8559  -10.1982 O   0  0  0  0  0  0  0  0  0  0  0  0
  -20.4423  -38.3335   -9.8528 N   0  0  0  0  0  0  0  0  0  0  0  0
  2  1  1  6
  2  3  1  0
  3  4  1  0
  4  5  1  0
  5  6  1  0
  6  7  1  0
  7  8  1  0
  8  9  1  0
  9 10  1  0
 10 11  1  0
 11 12  1  0
 12 13  2  0
 13 14  1  0
 14 15  2  0
 15 16  1  0
 15 17  1  0
 13 18  1  0
 18 19  2  0
 18 20  1  0
 20 21  1  0
 21 22  1  6
 21 23  1  0
 23 24  1  1
 23 25  1  0
 25 26  1  0
 26 27  1  0
 27 28  1  0
 27 29  1  0
 27 30  1  0
 30 31  1  0
 31 32  2  0
 32 33  1  0
 33 34  1  0
 34 35  1  0
 34 36  1  0
 34 37  1  0
 32 38  1  0
 38 39  1  0
 17 11  2  0
 22  2  1  0
 39 30  2  0
M  END
$$$$
