
     RDKit          3D

 42 45  0  0  0  0  0  0  0  0999 V2000
  -16.5045  -47.4233   -7.2363 C   0  0  0  0  0  0  0  0  0  0  0  0
  -17.6808  -47.3232   -8.1368 C   0  0  0  0  0  0  0  0  0  0  0  0
  -18.6524  -48.0074   -7.8977 O   0  0  0  0  0  0  0  0  0  0  0  0
  -17.6932  -46.4253   -9.2933 C   0  0  0  0  0  0  0  0  0  0  0  0
  -18.8711  -45.6517   -9.3855 O   0  0  0  0  0  0  0  0  0  0  0  0
  -19.1082  -44.7027   -8.3895 C   0  0  0  0  0  0  0  0  0  0  0  0
  -20.2966  -44.6125   -7.7262 C   0  0  0  0  0  0  0  0  0  0  0  0
  -20.5466  -43.6535   -6.7139 C   0  0  0  0  0  0  0  0  0  0  0  0
  -19.5536  -42.7482   -6.3554 C   0  0  0  0  0  0  0  0  0  0  0  0
  -18.3457  -42.8162   -7.0112 C   0  0  0  0  0  0  0  0  0  0  0  0
  -18.1468  -43.7960   -8.0172 C   0  0  0  0  0  0  0  0  0  0  0  0
  -17.1154  -41.9970   -6.8902 C   0  0  0  0  0  0  0  0  0  0  0  0
  -16.0218  -42.7152   -6.8609 O   0  0  0  0  0  0  0  0  0  0  0  0
  -16.9703  -40.5796   -6.8070 N   0  0  0  0  0  0  0  0  0  0  0  0
  -17.5716  -39.5795   -7.6569 C   0  0  1  0  0  0  0  0  0  0  0  0
  -18.1012  -38.3762   -6.8634 C   0  0  0  0  0  0  0  0  0  0  0  0
  -19.5829  -38.4187   -6.6648 C   0  0  0  0  0  0  0  0  0  0  0  0
  -20.3465  -39.0758   -5.7315 C   0  0  0  0  0  0  0  0  0  0  0  0
  -21.7020  -38.9478   -5.7605 C   0  0  0  0  0  0  0  0  0  0  0  0
  -22.7759  -39.5253   -4.9040 C   0  0  0  0  0  0  0  0  0  0  0  0
  -23.4695  -40.6978   -5.5587 C   0  0  0  0  0  0  0  0  0  0  0  0
  -22.8810  -41.9674   -4.9554 C   0  0  0  0  0  0  0  0  0  0  0  0
  -22.9588  -43.0384   -6.0071 C   0  0  0  0  0  0  0  0  0  0  0  0
  -21.8235  -43.7880   -6.2174 O   0  0  0  0  0  0  0  0  0  0  0  0
  -22.2994  -38.1355   -6.7587 C   0  0  0  0  0  0  0  0  0  0  0  0
  -21.5961  -37.4571   -7.7152 C   0  0  0  0  0  0  0  0  0  0  0  0
  -20.2439  -37.6227   -7.6361 C   0  0  0  0  0  0  0  0  0  0  0  0
  -16.4475  -39.0171   -8.5332 C   0  0  2  0  0  0  0  0  0  0  0  0
  -16.6841  -37.6896   -8.8622 O   0  0  0  0  0  0  0  0  0  0  0  0
  -16.2457  -39.7674   -9.8103 C   0  0  0  0  0  0  0  0  0  0  0  0
  -15.1375  -40.6581   -9.7038 N   0  0  0  0  0  0  0  0  0  0  0  0
  -13.8710  -40.1034   -9.4896 C   0  0  0  0  0  0  0  0  0  0  0  0
  -13.2587  -39.3421  -10.5642 C   0  0  0  0  0  0  0  0  0  0  0  0
  -13.5384  -38.0077  -10.7284 C   0  0  0  0  0  0  0  0  0  0  0  0
  -12.9578  -37.2554  -11.7487 C   0  0  0  0  0  0  0  0  0  0  0  0
  -12.0826  -37.9118  -12.5927 C   0  0  0  0  0  0  0  0  0  0  0  0
  -11.8288  -39.2389  -12.3988 C   0  0  0  0  0  0  0  0  0  0  0  0
  -12.4075  -39.9120  -11.4123 N   0  0  0  0  0  0  0  0  0  0  0  0
  -13.2290  -35.8143  -11.9686 C   0  0  0  0  0  0  0  0  0  0  0  0
  -12.4817  -35.2773  -13.1690 C   0  0  0  0  0  0  0  0  0  0  0  0
  -12.9834  -34.9529  -10.7657 C   0  0  0  0  0  0  0  0  0  0  0  0
  -14.7184  -35.6782  -12.3086 C   0  0  0  0  0  0  0  0  0  0  0  0
  1  2  1  0
  2  3  2  0
  2  4  1  0
  4  5  1  0
  5  6  1  0
  6  7  2  0
  7  8  1  0
  8  9  2  0
  9 10  1  0
 10 11  2  0
 10 12  1  0
 12 13  2  0
 12 14  1  0
 14 15  1  0
 15 16  1  1
 16 17  1  0
 17 18  1  0
 18 19  2  0
 19 20  1  0
 20 21  1  0
 21 22  1  0
 22 23  1  0
 23 24  1  0
 19 25  1  0
 25 26  2  0
 26 27  1  0
 15 28  1  0
 28 29  1  6
 28 30  1  0
 30 31  1  0
 31 32  1  0
 32 33  1  0
 33 34  2  0
 34 35  1  0
 35 36  2  0
 36 37  1  0
 37 38  2  0
 35 39  1  0
 39 40  1  0
 39 41  1  0
 39 42  1  0
 11  6  1  0
 24  8  1  0
 27 17  2  0
 38 33  1  0
M  END
$$$$
