
     RDKit          3D

 42 45  0  0  0  0  0  0  0  0999 V2000
  -12.1233  -43.0393   -6.5640 C   0  0  0  0  0  0  0  0  0  0  0  0
  -12.0997  -43.8230   -7.8249 C   0  0  0  0  0  0  0  0  0  0  0  0
  -12.3277  -45.0123   -7.7712 O   0  0  0  0  0  0  0  0  0  0  0  0
  -11.8119  -43.1974   -9.1171 C   0  0  0  0  0  0  0  0  0  0  0  0
  -12.6896  -43.6099  -10.1436 O   0  0  0  0  0  0  0  0  0  0  0  0
  -13.6352  -42.6909  -10.6023 C   0  0  0  0  0  0  0  0  0  0  0  0
  -13.6368  -42.2111  -11.8790 C   0  0  0  0  0  0  0  0  0  0  0  0
  -14.5921  -41.2789  -12.3537 C   0  0  0  0  0  0  0  0  0  0  0  0
  -15.5888  -40.8128  -11.5033 C   0  0  0  0  0  0  0  0  0  0  0  0
  -15.6081  -41.2794  -10.2087 C   0  0  0  0  0  0  0  0  0  0  0  0
  -14.6284  -42.2128   -9.7838 C   0  0  0  0  0  0  0  0  0  0  0  0
  -16.5001  -40.9672   -9.0659 C   0  0  0  0  0  0  0  0  0  0  0  0
  -16.8884  -42.0325   -8.4123 O   0  0  0  0  0  0  0  0  0  0  0  0
  -16.9728  -39.7041   -8.5988 N   0  0  0  0  0  0  0  0  0  0  0  0
  -16.1992  -38.5127   -8.3409 C   0  0  1  0  0  0  0  0  0  0  0  0
  -16.8916  -37.2411   -8.8523 C   0  0  0  0  0  0  0  0  0  0  0  0
  -16.3284  -36.7555  -10.1498 C   0  0  0  0  0  0  0  0  0  0  0  0
  -16.5888  -37.1385  -11.4426 C   0  0  0  0  0  0  0  0  0  0  0  0
  -15.9353  -36.5282  -12.4697 C   0  0  0  0  0  0  0  0  0  0  0  0
  -15.9988  -36.7211  -13.9459 C   0  0  0  0  0  0  0  0  0  0  0  0
  -14.8358  -37.5292  -14.4738 C   0  0  0  0  0  0  0  0  0  0  0  0
  -15.3324  -38.9544  -14.6846 C   0  0  0  0  0  0  0  0  0  0  0  0
  -14.1582  -39.8704  -14.4809 C   0  0  0  0  0  0  0  0  0  0  0  0
  -14.3576  -40.9679  -13.6741 O   0  0  0  0  0  0  0  0  0  0  0  0
  -14.9948  -35.5056  -12.1815 C   0  0  0  0  0  0  0  0  0  0  0  0
  -14.6905  -35.0798  -10.9183 C   0  0  0  0  0  0  0  0  0  0  0  0
  -15.3758  -35.7265   -9.9312 C   0  0  0  0  0  0  0  0  0  0  0  0
  -16.1399  -38.3511   -6.8184 C   0  0  2  0  0  0  0  0  0  0  0  0
  -15.8033  -39.5470   -6.1995 O   0  0  0  0  0  0  0  0  0  0  0  0
  -17.4212  -37.8765   -6.2119 C   0  0  0  0  0  0  0  0  0  0  0  0
  -18.2784  -38.9766   -5.9157 N   0  0  0  0  0  0  0  0  0  0  0  0
  -19.5632  -38.6945   -5.4389 C   0  0  0  0  0  0  0  0  0  0  0  0
  -20.7026  -39.2297   -6.1633 C   0  0  0  0  0  0  0  0  0  0  0  0
  -21.5910  -40.0777   -5.5490 C   0  0  0  0  0  0  0  0  0  0  0  0
  -22.6951  -40.5987   -6.2224 C   0  0  0  0  0  0  0  0  0  0  0  0
  -22.8604  -40.2232   -7.5418 C   0  0  0  0  0  0  0  0  0  0  0  0
  -21.9570  -39.3784   -8.1191 C   0  0  0  0  0  0  0  0  0  0  0  0
  -20.9209  -38.9093   -7.4355 N   0  0  0  0  0  0  0  0  0  0  0  0
  -23.6804  -41.5185   -5.6046 C   0  0  0  0  0  0  0  0  0  0  0  0
  -23.5642  -42.9219   -6.1566 C   0  0  0  0  0  0  0  0  0  0  0  0
  -25.0993  -41.0382   -5.6790 C   0  0  0  0  0  0  0  0  0  0  0  0
  -23.3314  -41.6254   -4.1149 C   0  0  0  0  0  0  0  0  0  0  0  0
  1  2  1  0
  2  3  2  0
  2  4  1  0
  4  5  1  0
  5  6  1  0
  6  7  2  0
  7  8  1  0
  8  9  2  0
  9 10  1  0
 10 11  2  0
 10 12  1  0
 12 13  2  0
 12 14  1  0
 14 15  1  0
 15 16  1  6
 16 17  1  0
 17 18  1  0
 18 19  2  0
 19 20  1  0
 20 21  1  0
 21 22  1  0
 22 23  1  0
 23 24  1  0
 19 25  1  0
 25 26  2  0
 26 27  1  0
 15 28  1  0
 28 29  1  1
 28 30  1  0
 30 31  1  0
 31 32  1  0
 32 33  1  0
 33 34  2  0
 34 35  1  0
 35 36  2  0
 36 37  1  0
 37 38  2  0
 35 39  1  0
 39 40  1  0
 39 41  1  0
 39 42  1  0
 11  6  1  0
 24  8  1  0
 27 17  2  0
 38 33  1  0
M  END
$$$$
