
     RDKit          3D

 42 45  0  0  0  0  0  0  0  0999 V2000
  -11.0894  -41.0528  -11.4054 C   0  0  0  0  0  0  0  0  0  0  0  0
  -11.3606  -42.3736  -10.7838 C   0  0  0  0  0  0  0  0  0  0  0  0
  -11.0903  -43.3748  -11.4112 O   0  0  0  0  0  0  0  0  0  0  0  0
  -11.9395  -42.4917   -9.4440 C   0  0  0  0  0  0  0  0  0  0  0  0
  -12.3990  -41.2612   -8.9251 O   0  0  0  0  0  0  0  0  0  0  0  0
  -13.5048  -40.6674   -9.5364 C   0  0  0  0  0  0  0  0  0  0  0  0
  -13.4789  -39.3963  -10.0302 C   0  0  0  0  0  0  0  0  0  0  0  0
  -14.5954  -38.7854  -10.6523 C   0  0  0  0  0  0  0  0  0  0  0  0
  -15.7881  -39.4887  -10.7825 C   0  0  0  0  0  0  0  0  0  0  0  0
  -15.8415  -40.7728  -10.2903 C   0  0  0  0  0  0  0  0  0  0  0  0
  -14.6947  -41.3380   -9.6763 C   0  0  0  0  0  0  0  0  0  0  0  0
  -16.9458  -41.7616  -10.2449 C   0  0  0  0  0  0  0  0  0  0  0  0
  -16.5717  -42.9648  -10.5988 O   0  0  0  0  0  0  0  0  0  0  0  0
  -18.3131  -41.5827   -9.8773 N   0  0  0  0  0  0  0  0  0  0  0  0
  -18.8321  -40.9257   -8.7011 C   0  0  1  0  0  0  0  0  0  0  0  0
  -20.0382  -40.0282   -9.0141 C   0  0  0  0  0  0  0  0  0  0  0  0
  -19.6791  -38.5784   -9.0879 C   0  0  0  0  0  0  0  0  0  0  0  0
  -19.1523  -37.8335  -10.1143 C   0  0  0  0  0  0  0  0  0  0  0  0
  -18.9158  -36.5052   -9.9292 C   0  0  0  0  0  0  0  0  0  0  0  0
  -18.3606  -35.4568  -10.8309 C   0  0  0  0  0  0  0  0  0  0  0  0
  -16.9114  -35.1471  -10.5337 C   0  0  0  0  0  0  0  0  0  0  0  0
  -16.0686  -35.8898  -11.5635 C   0  0  0  0  0  0  0  0  0  0  0  0
  -14.7537  -36.2155  -10.9122 C   0  0  0  0  0  0  0  0  0  0  0  0
  -14.2912  -37.5043  -11.0540 O   0  0  0  0  0  0  0  0  0  0  0  0
  -19.2192  -35.9163   -8.6744 C   0  0  0  0  0  0  0  0  0  0  0  0
  -19.7435  -36.6022   -7.6140 C   0  0  0  0  0  0  0  0  0  0  0  0
  -19.9592  -37.9274   -7.8583 C   0  0  0  0  0  0  0  0  0  0  0  0
  -19.3803  -42.0289   -7.7900 C   0  0  2  0  0  0  0  0  0  0  0  0
  -18.7769  -41.9937   -6.5406 O   0  0  0  0  0  0  0  0  0  0  0  0
  -19.2000  -43.4082   -8.3374 C   0  0  0  0  0  0  0  0  0  0  0  0
  -20.3557  -43.8188   -9.0645 N   0  0  0  0  0  0  0  0  0  0  0  0
  -21.2919  -42.8388   -9.4119 C   0  0  0  0  0  0  0  0  0  0  0  0
  -22.6905  -43.2197   -9.5027 C   0  0  0  0  0  0  0  0  0  0  0  0
  -23.2677  -43.4911  -10.7188 C   0  0  0  0  0  0  0  0  0  0  0  0
  -24.6065  -43.8646  -10.8297 C   0  0  0  0  0  0  0  0  0  0  0  0
  -25.3330  -43.9522   -9.6576 C   0  0  0  0  0  0  0  0  0  0  0  0
  -24.7255  -43.6751   -8.4672 C   0  0  0  0  0  0  0  0  0  0  0  0
  -23.4471  -43.3229   -8.4139 N   0  0  0  0  0  0  0  0  0  0  0  0
  -25.2757  -44.1654  -12.1182 C   0  0  0  0  0  0  0  0  0  0  0  0
  -25.0295  -43.0841  -13.1467 C   0  0  0  0  0  0  0  0  0  0  0  0
  -26.7425  -44.4529  -11.9957 C   0  0  0  0  0  0  0  0  0  0  0  0
  -24.6259  -45.4348  -12.6830 C   0  0  0  0  0  0  0  0  0  0  0  0
  1  2  1  0
  2  3  2  0
  2  4  1  0
  4  5  1  0
  5  6  1  0
  6  7  2  0
  7  8  1  0
  8  9  2  0
  9 10  1  0
 10 11  2  0
 10 12  1  0
 12 13  2  0
 12 14  1  0
 14 15  1  0
 15 16  1  6
 16 17  1  0
 17 18  1  0
 18 19  2  0
 19 20  1  0
 20 21  1  0
 21 22  1  0
 22 23  1  0
 23 24  1  0
 19 25  1  0
 25 26  2  0
 26 27  1  0
 15 28  1  0
 28 29  1  1
 28 30  1  0
 30 31  1  0
 31 32  1  0
 32 33  1  0
 33 34  2  0
 34 35  1  0
 35 36  2  0
 36 37  1  0
 37 38  2  0
 35 39  1  0
 39 40  1  0
 39 41  1  0
 39 42  1  0
 11  6  1  0
 24  8  1  0
 27 17  2  0
 38 33  1  0
M  END
$$$$
