
     RDKit          3D

 42 45  0  0  0  0  0  0  0  0999 V2000
  -16.3883  -47.9655  -10.9326 C   0  0  0  0  0  0  0  0  0  0  0  0
  -17.1988  -47.0953  -10.0436 C   0  0  0  0  0  0  0  0  0  0  0  0
  -17.4633  -47.4927   -8.9294 O   0  0  0  0  0  0  0  0  0  0  0  0
  -17.6789  -45.7820  -10.4780 C   0  0  0  0  0  0  0  0  0  0  0  0
  -18.9989  -45.5049  -10.0593 O   0  0  0  0  0  0  0  0  0  0  0  0
  -19.1706  -44.6947   -8.9355 C   0  0  0  0  0  0  0  0  0  0  0  0
  -20.2941  -44.7351   -8.1633 C   0  0  0  0  0  0  0  0  0  0  0  0
  -20.4774  -43.9174   -7.0210 C   0  0  0  0  0  0  0  0  0  0  0  0
  -19.4830  -43.0221   -6.6419 C   0  0  0  0  0  0  0  0  0  0  0  0
  -18.3400  -42.9598   -7.4057 C   0  0  0  0  0  0  0  0  0  0  0  0
  -18.2064  -43.8009   -8.5399 C   0  0  0  0  0  0  0  0  0  0  0  0
  -17.1290  -42.1112   -7.2931 C   0  0  0  0  0  0  0  0  0  0  0  0
  -16.0163  -42.7818   -7.4510 O   0  0  0  0  0  0  0  0  0  0  0  0
  -17.0195  -40.7097   -7.0468 N   0  0  0  0  0  0  0  0  0  0  0  0
  -17.7273  -39.6393   -7.7084 C   0  0  1  0  0  0  0  0  0  0  0  0
  -18.2166  -38.5645   -6.7270 C   0  0  0  0  0  0  0  0  0  0  0  0
  -19.6713  -38.6921   -6.4044 C   0  0  0  0  0  0  0  0  0  0  0  0
  -20.3245  -39.4888   -5.4963 C   0  0  0  0  0  0  0  0  0  0  0  0
  -21.6799  -39.4145   -5.3887 C   0  0  0  0  0  0  0  0  0  0  0  0
  -22.6514  -40.1357   -4.5190 C   0  0  0  0  0  0  0  0  0  0  0  0
  -23.3675  -41.2476   -5.2507 C   0  0  0  0  0  0  0  0  0  0  0  0
  -22.6873  -42.5557   -4.8654 C   0  0  0  0  0  0  0  0  0  0  0  0
  -22.8306  -43.4932   -6.0315 C   0  0  0  0  0  0  0  0  0  0  0  0
  -21.6978  -44.1640   -6.4338 O   0  0  0  0  0  0  0  0  0  0  0  0
  -22.3920  -38.5123   -6.2206 C   0  0  0  0  0  0  0  0  0  0  0  0
  -21.8017  -37.6940   -7.1436 C   0  0  0  0  0  0  0  0  0  0  0  0
  -20.4436  -37.8120   -7.2062 C   0  0  0  0  0  0  0  0  0  0  0  0
  -16.7072  -38.9286   -8.6040 C   0  0  2  0  0  0  0  0  0  0  0  0
  -17.2490  -37.7833   -9.1707 O   0  0  0  0  0  0  0  0  0  0  0  0
  -16.1875  -39.7786   -9.7185 C   0  0  0  0  0  0  0  0  0  0  0  0
  -15.2643  -40.7477   -9.2272 N   0  0  0  0  0  0  0  0  0  0  0  0
  -13.9692  -40.7442   -9.7564 C   0  0  0  0  0  0  0  0  0  0  0  0
  -13.7148  -39.9673  -10.9569 C   0  0  0  0  0  0  0  0  0  0  0  0
  -13.0521  -38.7665  -10.8900 C   0  0  0  0  0  0  0  0  0  0  0  0
  -12.7914  -38.0066  -12.0297 C   0  0  0  0  0  0  0  0  0  0  0  0
  -13.2290  -38.5157  -13.2374 C   0  0  0  0  0  0  0  0  0  0  0  0
  -13.8842  -39.7128  -13.2651 C   0  0  0  0  0  0  0  0  0  0  0  0
  -14.1090  -40.3988  -12.1516 N   0  0  0  0  0  0  0  0  0  0  0  0
  -12.0824  -36.7045  -12.0093 C   0  0  0  0  0  0  0  0  0  0  0  0
  -11.4070  -36.4102  -13.3302 C   0  0  0  0  0  0  0  0  0  0  0  0
  -11.1129  -36.5510  -10.8753 C   0  0  0  0  0  0  0  0  0  0  0  0
  -13.1433  -35.6115  -11.8300 C   0  0  0  0  0  0  0  0  0  0  0  0
  1  2  1  0
  2  3  2  0
  2  4  1  0
  4  5  1  0
  5  6  1  0
  6  7  2  0
  7  8  1  0
  8  9  2  0
  9 10  1  0
 10 11  2  0
 10 12  1  0
 12 13  2  0
 12 14  1  0
 14 15  1  0
 15 16  1  1
 16 17  1  0
 17 18  1  0
 18 19  2  0
 19 20  1  0
 20 21  1  0
 21 22  1  0
 22 23  1  0
 23 24  1  0
 19 25  1  0
 25 26  2  0
 26 27  1  0
 15 28  1  0
 28 29  1  6
 28 30  1  0
 30 31  1  0
 31 32  1  0
 32 33  1  0
 33 34  2  0
 34 35  1  0
 35 36  2  0
 36 37  1  0
 37 38  2  0
 35 39  1  0
 39 40  1  0
 39 41  1  0
 39 42  1  0
 11  6  1  0
 24  8  1  0
 27 17  2  0
 38 33  1  0
M  END
$$$$
