
     RDKit          3D

 42 45  0  0  0  0  0  0  0  0999 V2000
  -15.8789  -47.8764   -9.5662 C   0  0  0  0  0  0  0  0  0  0  0  0
  -16.9273  -47.2870  -10.4368 C   0  0  0  0  0  0  0  0  0  0  0  0
  -16.6699  -47.0994  -11.6064 O   0  0  0  0  0  0  0  0  0  0  0  0
  -18.2505  -46.9328   -9.9197 C   0  0  0  0  0  0  0  0  0  0  0  0
  -18.6171  -45.5970  -10.1951 O   0  0  0  0  0  0  0  0  0  0  0  0
  -18.9195  -44.7671   -9.1140 C   0  0  0  0  0  0  0  0  0  0  0  0
  -20.0840  -44.8683   -8.4111 C   0  0  0  0  0  0  0  0  0  0  0  0
  -20.3996  -44.0312   -7.3127 C   0  0  0  0  0  0  0  0  0  0  0  0
  -19.5002  -43.0515   -6.9060 C   0  0  0  0  0  0  0  0  0  0  0  0
  -18.3184  -42.9268   -7.6002 C   0  0  0  0  0  0  0  0  0  0  0  0
  -18.0510  -43.7907   -8.6927 C   0  0  0  0  0  0  0  0  0  0  0  0
  -17.1831  -41.9856   -7.4444 C   0  0  0  0  0  0  0  0  0  0  0  0
  -16.0161  -42.5744   -7.5093 O   0  0  0  0  0  0  0  0  0  0  0  0
  -17.1932  -40.5727   -7.2428 N   0  0  0  0  0  0  0  0  0  0  0  0
  -17.9343  -39.5806   -7.9850 C   0  0  1  0  0  0  0  0  0  0  0  0
  -18.5632  -38.5155   -7.0750 C   0  0  0  0  0  0  0  0  0  0  0  0
  -20.0221  -38.7430   -6.8378 C   0  0  0  0  0  0  0  0  0  0  0  0
  -20.6714  -39.5579   -5.9431 C   0  0  0  0  0  0  0  0  0  0  0  0
  -22.0328  -39.5832   -5.9215 C   0  0  0  0  0  0  0  0  0  0  0  0
  -23.0020  -40.3484   -5.0874 C   0  0  0  0  0  0  0  0  0  0  0  0
  -23.5858  -41.5339   -5.8208 C   0  0  0  0  0  0  0  0  0  0  0  0
  -22.8370  -42.7738   -5.3473 C   0  0  0  0  0  0  0  0  0  0  0  0
  -22.8360  -43.7558   -6.4853 C   0  0  0  0  0  0  0  0  0  0  0  0
  -21.6334  -44.3510   -6.7928 O   0  0  0  0  0  0  0  0  0  0  0  0
  -22.7549  -38.7644   -6.8277 C   0  0  0  0  0  0  0  0  0  0  0  0
  -22.1689  -37.9333   -7.7418 C   0  0  0  0  0  0  0  0  0  0  0  0
  -20.8046  -37.9497   -7.7168 C   0  0  0  0  0  0  0  0  0  0  0  0
  -16.9144  -38.8231   -8.8415 C   0  0  2  0  0  0  0  0  0  0  0  0
  -17.5184  -37.7902   -9.5448 O   0  0  0  0  0  0  0  0  0  0  0  0
  -16.2011  -39.6849   -9.8331 C   0  0  0  0  0  0  0  0  0  0  0  0
  -15.2523  -40.5265   -9.1816 N   0  0  0  0  0  0  0  0  0  0  0  0
  -13.8990  -40.3443   -9.4863 C   0  0  0  0  0  0  0  0  0  0  0  0
  -13.5529  -39.7178  -10.7501 C   0  0  0  0  0  0  0  0  0  0  0  0
  -13.1465  -38.4070  -10.7971 C   0  0  0  0  0  0  0  0  0  0  0  0
  -12.8034  -37.7867  -11.9977 C   0  0  0  0  0  0  0  0  0  0  0  0
  -12.8885  -38.5506  -13.1459 C   0  0  0  0  0  0  0  0  0  0  0  0
  -13.2963  -39.8504  -13.0604 C   0  0  0  0  0  0  0  0  0  0  0  0
  -13.6129  -40.3957  -11.8928 N   0  0  0  0  0  0  0  0  0  0  0  0
  -12.3614  -36.3750  -12.1008 C   0  0  0  0  0  0  0  0  0  0  0  0
  -13.1216  -35.6235  -13.1708 C   0  0  0  0  0  0  0  0  0  0  0  0
  -10.8828  -36.2068  -12.2873 C   0  0  0  0  0  0  0  0  0  0  0  0
  -12.7170  -35.6890  -10.7759 C   0  0  0  0  0  0  0  0  0  0  0  0
  1  2  1  0
  2  3  2  0
  2  4  1  0
  4  5  1  0
  5  6  1  0
  6  7  2  0
  7  8  1  0
  8  9  2  0
  9 10  1  0
 10 11  2  0
 10 12  1  0
 12 13  2  0
 12 14  1  0
 14 15  1  0
 15 16  1  1
 16 17  1  0
 17 18  1  0
 18 19  2  0
 19 20  1  0
 20 21  1  0
 21 22  1  0
 22 23  1  0
 23 24  1  0
 19 25  1  0
 25 26  2  0
 26 27  1  0
 15 28  1  0
 28 29  1  6
 28 30  1  0
 30 31  1  0
 31 32  1  0
 32 33  1  0
 33 34  2  0
 34 35  1  0
 35 36  2  0
 36 37  1  0
 37 38  2  0
 35 39  1  0
 39 40  1  0
 39 41  1  0
 39 42  1  0
 11  6  1  0
 24  8  1  0
 27 17  2  0
 38 33  1  0
M  END
$$$$
