
     RDKit          3D

 42 45  0  0  0  0  0  0  0  0999 V2000
  -16.6788  -47.8249  -10.7456 C   0  0  0  0  0  0  0  0  0  0  0  0
  -16.3722  -46.3810  -10.5857 C   0  0  0  0  0  0  0  0  0  0  0  0
  -15.2143  -46.0262  -10.6367 O   0  0  0  0  0  0  0  0  0  0  0  0
  -17.4262  -45.3874  -10.3715 C   0  0  0  0  0  0  0  0  0  0  0  0
  -18.4519  -45.8395   -9.5124 O   0  0  0  0  0  0  0  0  0  0  0  0
  -18.9286  -44.9549   -8.5433 C   0  0  0  0  0  0  0  0  0  0  0  0
  -20.2280  -44.9471   -8.1288 C   0  0  0  0  0  0  0  0  0  0  0  0
  -20.7209  -44.0539   -7.1459 C   0  0  0  0  0  0  0  0  0  0  0  0
  -19.8648  -43.1305   -6.5557 C   0  0  0  0  0  0  0  0  0  0  0  0
  -18.5488  -43.1158   -6.9580 C   0  0  0  0  0  0  0  0  0  0  0  0
  -18.1060  -44.0321   -7.9459 C   0  0  0  0  0  0  0  0  0  0  0  0
  -17.4090  -42.2563   -6.5563 C   0  0  0  0  0  0  0  0  0  0  0  0
  -16.3089  -42.9315   -6.3397 O   0  0  0  0  0  0  0  0  0  0  0  0
  -17.3532  -40.8408   -6.3830 N   0  0  0  0  0  0  0  0  0  0  0  0
  -17.8223  -39.8213   -7.2913 C   0  0  1  0  0  0  0  0  0  0  0  0
  -18.5576  -38.6838   -6.5678 C   0  0  0  0  0  0  0  0  0  0  0  0
  -20.0452  -38.7952   -6.6728 C   0  0  0  0  0  0  0  0  0  0  0  0
  -20.9457  -39.5306   -5.9418 C   0  0  0  0  0  0  0  0  0  0  0  0
  -22.2730  -39.4548   -6.2367 C   0  0  0  0  0  0  0  0  0  0  0  0
  -23.4659  -40.1189   -5.6397 C   0  0  0  0  0  0  0  0  0  0  0  0
  -23.9571  -41.2813   -6.4715 C   0  0  0  0  0  0  0  0  0  0  0  0
  -23.4382  -42.5570   -5.8191 C   0  0  0  0  0  0  0  0  0  0  0  0
  -23.2528  -43.5728   -6.9114 C   0  0  0  0  0  0  0  0  0  0  0  0
  -22.0628  -44.2648   -6.9224 O   0  0  0  0  0  0  0  0  0  0  0  0
  -22.6996  -38.6147   -7.2976 C   0  0  0  0  0  0  0  0  0  0  0  0
  -21.8546  -37.8592   -8.0625 C   0  0  0  0  0  0  0  0  0  0  0  0
  -20.5386  -37.9754   -7.7209 C   0  0  0  0  0  0  0  0  0  0  0  0
  -16.5757  -39.1693   -7.8982 C   0  0  2  0  0  0  0  0  0  0  0  0
  -16.9135  -38.3048   -8.9302 O   0  0  0  0  0  0  0  0  0  0  0  0
  -15.5853  -40.1496   -8.4395 C   0  0  0  0  0  0  0  0  0  0  0  0
  -14.3115  -39.5346   -8.6191 N   0  0  0  0  0  0  0  0  0  0  0  0
  -13.3804  -40.1856   -9.4356 C   0  0  0  0  0  0  0  0  0  0  0  0
  -13.1473  -39.6638  -10.7708 C   0  0  0  0  0  0  0  0  0  0  0  0
  -13.0330  -38.3127  -10.9875 C   0  0  0  0  0  0  0  0  0  0  0  0
  -12.8029  -37.7893  -12.2593 C   0  0  0  0  0  0  0  0  0  0  0  0
  -12.6928  -38.6923  -13.2993 C   0  0  0  0  0  0  0  0  0  0  0  0
  -12.8119  -40.0282  -13.0458 C   0  0  0  0  0  0  0  0  0  0  0  0
  -13.0313  -40.4773  -11.8165 N   0  0  0  0  0  0  0  0  0  0  0  0
  -12.6744  -36.3400  -12.5448 C   0  0  0  0  0  0  0  0  0  0  0  0
  -13.8029  -35.5425  -11.9299 C   0  0  0  0  0  0  0  0  0  0  0  0
  -12.5287  -36.0117  -14.0009 C   0  0  0  0  0  0  0  0  0  0  0  0
  -11.3941  -35.8522  -11.8553 C   0  0  0  0  0  0  0  0  0  0  0  0
  1  2  1  0
  2  3  2  0
  2  4  1  0
  4  5  1  0
  5  6  1  0
  6  7  2  0
  7  8  1  0
  8  9  2  0
  9 10  1  0
 10 11  2  0
 10 12  1  0
 12 13  2  0
 12 14  1  0
 14 15  1  0
 15 16  1  1
 16 17  1  0
 17 18  1  0
 18 19  2  0
 19 20  1  0
 20 21  1  0
 21 22  1  0
 22 23  1  0
 23 24  1  0
 19 25  1  0
 25 26  2  0
 26 27  1  0
 15 28  1  0
 28 29  1  6
 28 30  1  0
 30 31  1  0
 31 32  1  0
 32 33  1  0
 33 34  2  0
 34 35  1  0
 35 36  2  0
 36 37  1  0
 37 38  2  0
 35 39  1  0
 39 40  1  0
 39 41  1  0
 39 42  1  0
 11  6  1  0
 24  8  1  0
 27 17  2  0
 38 33  1  0
M  END
$$$$
