
     RDKit          3D

 42 45  0  0  0  0  0  0  0  0999 V2000
  -17.4656  -48.2695   -8.9041 C   0  0  0  0  0  0  0  0  0  0  0  0
  -18.8804  -47.8546   -8.7291 C   0  0  0  0  0  0  0  0  0  0  0  0
  -19.5028  -48.3023   -7.7903 O   0  0  0  0  0  0  0  0  0  0  0  0
  -19.5323  -46.9259   -9.6546 C   0  0  0  0  0  0  0  0  0  0  0  0
  -18.9526  -45.6382   -9.6523 O   0  0  0  0  0  0  0  0  0  0  0  0
  -19.2952  -44.7701   -8.6140 C   0  0  0  0  0  0  0  0  0  0  0  0
  -20.4813  -44.8531   -7.9459 C   0  0  0  0  0  0  0  0  0  0  0  0
  -20.8377  -43.9774   -6.8909 C   0  0  0  0  0  0  0  0  0  0  0  0
  -19.9581  -42.9764   -6.4930 C   0  0  0  0  0  0  0  0  0  0  0  0
  -18.7551  -42.8694   -7.1527 C   0  0  0  0  0  0  0  0  0  0  0  0
  -18.4469  -43.7721   -8.2023 C   0  0  0  0  0  0  0  0  0  0  0  0
  -17.6312  -41.9147   -6.9962 C   0  0  0  0  0  0  0  0  0  0  0  0
  -16.4591  -42.4970   -7.0008 O   0  0  0  0  0  0  0  0  0  0  0  0
  -17.6564  -40.4953   -6.8491 N   0  0  0  0  0  0  0  0  0  0  0  0
  -18.3790  -39.5375   -7.6521 C   0  0  1  0  0  0  0  0  0  0  0  0
  -19.0437  -38.4433   -6.8042 C   0  0  0  0  0  0  0  0  0  0  0  0
  -20.5082  -38.6723   -6.6059 C   0  0  0  0  0  0  0  0  0  0  0  0
  -21.1814  -39.4575   -5.7023 C   0  0  0  0  0  0  0  0  0  0  0  0
  -22.5425  -39.4920   -5.7238 C   0  0  0  0  0  0  0  0  0  0  0  0
  -23.5338  -40.2320   -4.8931 C   0  0  0  0  0  0  0  0  0  0  0  0
  -24.0862  -41.4488   -5.5993 C   0  0  0  0  0  0  0  0  0  0  0  0
  -23.3456  -42.6643   -5.0549 C   0  0  0  0  0  0  0  0  0  0  0  0
  -23.3015  -43.6886   -6.1539 C   0  0  0  0  0  0  0  0  0  0  0  0
  -22.0859  -44.2863   -6.3994 O   0  0  0  0  0  0  0  0  0  0  0  0
  -23.2397  -38.7134   -6.6835 C   0  0  0  0  0  0  0  0  0  0  0  0
  -22.6292  -37.9132   -7.6092 C   0  0  0  0  0  0  0  0  0  0  0  0
  -21.2664  -37.9187   -7.5393 C   0  0  0  0  0  0  0  0  0  0  0  0
  -17.3363  -38.8056   -8.5034 C   0  0  2  0  0  0  0  0  0  0  0  0
  -17.9271  -37.8225   -9.2850 O   0  0  0  0  0  0  0  0  0  0  0  0
  -16.5659  -39.7034   -9.4172 C   0  0  0  0  0  0  0  0  0  0  0  0
  -15.2023  -39.2945   -9.4967 N   0  0  0  0  0  0  0  0  0  0  0  0
  -14.2330  -40.1401   -8.9463 C   0  0  0  0  0  0  0  0  0  0  0  0
  -13.9207  -41.3775   -9.6397 C   0  0  0  0  0  0  0  0  0  0  0  0
  -14.5563  -42.5488   -9.3085 C   0  0  0  0  0  0  0  0  0  0  0  0
  -14.2773  -43.7471   -9.9644 C   0  0  0  0  0  0  0  0  0  0  0  0
  -13.3294  -43.7071  -10.9690 C   0  0  0  0  0  0  0  0  0  0  0  0
  -12.7183  -42.5244  -11.2706 C   0  0  0  0  0  0  0  0  0  0  0  0
  -13.0184  -41.4096  -10.6163 N   0  0  0  0  0  0  0  0  0  0  0  0
  -14.9341  -45.0369   -9.6424 C   0  0  0  0  0  0  0  0  0  0  0  0
  -16.0488  -44.8652   -8.6347 C   0  0  0  0  0  0  0  0  0  0  0  0
  -13.9881  -46.1150   -9.2041 C   0  0  0  0  0  0  0  0  0  0  0  0
  -15.6058  -45.5386  -10.9268 C   0  0  0  0  0  0  0  0  0  0  0  0
  1  2  1  0
  2  3  2  0
  2  4  1  0
  4  5  1  0
  5  6  1  0
  6  7  2  0
  7  8  1  0
  8  9  2  0
  9 10  1  0
 10 11  2  0
 10 12  1  0
 12 13  2  0
 12 14  1  0
 14 15  1  0
 15 16  1  1
 16 17  1  0
 17 18  1  0
 18 19  2  0
 19 20  1  0
 20 21  1  0
 21 22  1  0
 22 23  1  0
 23 24  1  0
 19 25  1  0
 25 26  2  0
 26 27  1  0
 15 28  1  0
 28 29  1  6
 28 30  1  0
 30 31  1  0
 31 32  1  0
 32 33  1  0
 33 34  2  0
 34 35  1  0
 35 36  2  0
 36 37  1  0
 37 38  2  0
 35 39  1  0
 39 40  1  0
 39 41  1  0
 39 42  1  0
 11  6  1  0
 24  8  1  0
 27 17  2  0
 38 33  1  0
M  END
$$$$
