
     RDKit          3D

 42 45  0  0  0  0  0  0  0  0999 V2000
  -14.5231  -44.2160  -12.0387 C   0  0  0  0  0  0  0  0  0  0  0  0
  -15.1010  -42.9677  -12.5975 C   0  0  0  0  0  0  0  0  0  0  0  0
  -14.3724  -42.2153  -13.2077 O   0  0  0  0  0  0  0  0  0  0  0  0
  -16.5160  -42.6303  -12.4307 C   0  0  0  0  0  0  0  0  0  0  0  0
  -17.2802  -43.6859  -11.8866 O   0  0  0  0  0  0  0  0  0  0  0  0
  -17.8152  -43.5131  -10.6088 C   0  0  0  0  0  0  0  0  0  0  0  0
  -19.0788  -43.9076  -10.2800 C   0  0  0  0  0  0  0  0  0  0  0  0
  -19.6303  -43.7370   -8.9863 C   0  0  0  0  0  0  0  0  0  0  0  0
  -18.8729  -43.1441   -7.9819 C   0  0  0  0  0  0  0  0  0  0  0  0
  -17.5953  -42.7346   -8.2882 C   0  0  0  0  0  0  0  0  0  0  0  0
  -17.0906  -42.9291   -9.5993 C   0  0  0  0  0  0  0  0  0  0  0  0
  -16.5593  -42.0568   -7.4717 C   0  0  0  0  0  0  0  0  0  0  0  0
  -15.3687  -42.5809   -7.6158 O   0  0  0  0  0  0  0  0  0  0  0  0
  -16.6829  -40.9470   -6.5830 N   0  0  0  0  0  0  0  0  0  0  0  0
  -17.3338  -39.6831   -6.8346 C   0  0  1  0  0  0  0  0  0  0  0  0
  -18.1722  -39.2064   -5.6397 C   0  0  0  0  0  0  0  0  0  0  0  0
  -19.6353  -39.4582   -5.8200 C   0  0  0  0  0  0  0  0  0  0  0  0
  -20.3874  -40.5862   -5.6011 C   0  0  0  0  0  0  0  0  0  0  0  0
  -21.7274  -40.5586   -5.8420 C   0  0  0  0  0  0  0  0  0  0  0  0
  -22.7858  -41.5986   -5.7064 C   0  0  0  0  0  0  0  0  0  0  0  0
  -23.1637  -42.2151   -7.0336 C   0  0  0  0  0  0  0  0  0  0  0  0
  -22.4438  -43.5546   -7.1329 C   0  0  0  0  0  0  0  0  0  0  0  0
  -22.1865  -43.8155   -8.5906 C   0  0  0  0  0  0  0  0  0  0  0  0
  -20.9174  -44.2225   -8.9355 O   0  0  0  0  0  0  0  0  0  0  0  0
  -22.3209  -39.3603   -6.3165 C   0  0  0  0  0  0  0  0  0  0  0  0
  -21.6284  -38.2057   -6.5550 C   0  0  0  0  0  0  0  0  0  0  0  0
  -20.2914  -38.2931   -6.2957 C   0  0  0  0  0  0  0  0  0  0  0  0
  -16.2211  -38.6403   -6.9838 C   0  0  2  0  0  0  0  0  0  0  0  0
  -16.7273  -37.3508   -6.8987 O   0  0  0  0  0  0  0  0  0  0  0  0
  -15.4670  -38.7429   -8.2705 C   0  0  0  0  0  0  0  0  0  0  0  0
  -14.6013  -39.8757   -8.2603 N   0  0  0  0  0  0  0  0  0  0  0  0
  -14.2637  -40.4518   -9.4898 C   0  0  0  0  0  0  0  0  0  0  0  0
  -13.6978  -39.5995  -10.5207 C   0  0  0  0  0  0  0  0  0  0  0  0
  -14.0146  -38.2648  -10.5818 C   0  0  0  0  0  0  0  0  0  0  0  0
  -13.4788  -37.4263  -11.5585 C   0  0  0  0  0  0  0  0  0  0  0  0
  -12.6091  -37.9972  -12.4677 C   0  0  0  0  0  0  0  0  0  0  0  0
  -12.3174  -39.3275  -12.3759 C   0  0  0  0  0  0  0  0  0  0  0  0
  -12.8542  -40.0845  -11.4273 N   0  0  0  0  0  0  0  0  0  0  0  0
  -13.7912  -35.9809  -11.6676 C   0  0  0  0  0  0  0  0  0  0  0  0
  -13.0948  -35.1716  -10.5963 C   0  0  0  0  0  0  0  0  0  0  0  0
  -15.2583  -35.6702  -11.6934 C   0  0  0  0  0  0  0  0  0  0  0  0
  -13.2158  -35.4904  -13.0020 C   0  0  0  0  0  0  0  0  0  0  0  0
  1  2  1  0
  2  3  2  0
  2  4  1  0
  4  5  1  0
  5  6  1  0
  6  7  2  0
  7  8  1  0
  8  9  2  0
  9 10  1  0
 10 11  2  0
 10 12  1  0
 12 13  2  0
 12 14  1  0
 14 15  1  0
 15 16  1  1
 16 17  1  0
 17 18  1  0
 18 19  2  0
 19 20  1  0
 20 21  1  0
 21 22  1  0
 22 23  1  0
 23 24  1  0
 19 25  1  0
 25 26  2  0
 26 27  1  0
 15 28  1  0
 28 29  1  6
 28 30  1  0
 30 31  1  0
 31 32  1  0
 32 33  1  0
 33 34  2  0
 34 35  1  0
 35 36  2  0
 36 37  1  0
 37 38  2  0
 35 39  1  0
 39 40  1  0
 39 41  1  0
 39 42  1  0
 11  6  1  0
 24  8  1  0
 27 17  2  0
 38 33  1  0
M  END
$$$$
