
     RDKit          3D

 42 45  0  0  0  0  0  0  0  0999 V2000
  -15.4427  -43.9727  -12.8797 C   0  0  0  0  0  0  0  0  0  0  0  0
  -16.2147  -42.7392  -12.5843 C   0  0  0  0  0  0  0  0  0  0  0  0
  -15.6056  -41.7188  -12.3455 O   0  0  0  0  0  0  0  0  0  0  0  0
  -17.6788  -42.7285  -12.5766 C   0  0  0  0  0  0  0  0  0  0  0  0
  -18.2401  -43.8013  -11.8498 O   0  0  0  0  0  0  0  0  0  0  0  0
  -18.6930  -43.5457  -10.5542 C   0  0  0  0  0  0  0  0  0  0  0  0
  -19.9257  -43.9309  -10.1157 C   0  0  0  0  0  0  0  0  0  0  0  0
  -20.3940  -43.6765   -8.8030 C   0  0  0  0  0  0  0  0  0  0  0  0
  -19.5821  -43.0060   -7.8945 C   0  0  0  0  0  0  0  0  0  0  0  0
  -18.3341  -42.6042   -8.3127 C   0  0  0  0  0  0  0  0  0  0  0  0
  -17.9134  -42.8842   -9.6379 C   0  0  0  0  0  0  0  0  0  0  0  0
  -17.2579  -41.8590   -7.6156 C   0  0  0  0  0  0  0  0  0  0  0  0
  -16.0710  -42.3780   -7.8020 O   0  0  0  0  0  0  0  0  0  0  0  0
  -17.3409  -40.6912   -6.7995 N   0  0  0  0  0  0  0  0  0  0  0  0
  -18.0273  -39.4557   -7.0939 C   0  0  1  0  0  0  0  0  0  0  0  0
  -18.7932  -38.9063   -5.8817 C   0  0  0  0  0  0  0  0  0  0  0  0
  -20.2607  -39.1869   -5.9465 C   0  0  0  0  0  0  0  0  0  0  0  0
  -20.9785  -40.3055   -5.6007 C   0  0  0  0  0  0  0  0  0  0  0  0
  -22.3316  -40.3103   -5.7532 C   0  0  0  0  0  0  0  0  0  0  0  0
  -23.3619  -41.3505   -5.4760 C   0  0  0  0  0  0  0  0  0  0  0  0
  -23.8160  -42.0627   -6.7294 C   0  0  0  0  0  0  0  0  0  0  0  0
  -23.0826  -43.3974   -6.7836 C   0  0  0  0  0  0  0  0  0  0  0  0
  -22.9171  -43.7567   -8.2337 C   0  0  0  0  0  0  0  0  0  0  0  0
  -21.6670  -44.1721   -8.6333 O   0  0  0  0  0  0  0  0  0  0  0  0
  -22.9743  -39.1552   -6.2689 C   0  0  0  0  0  0  0  0  0  0  0  0
  -22.3176  -38.0121   -6.6321 C   0  0  0  0  0  0  0  0  0  0  0  0
  -20.9654  -38.0657   -6.4568 C   0  0  0  0  0  0  0  0  0  0  0  0
  -16.9438  -38.4131   -7.3885 C   0  0  2  0  0  0  0  0  0  0  0  0
  -17.5001  -37.1622   -7.6172 O   0  0  0  0  0  0  0  0  0  0  0  0
  -16.0899  -38.7476   -8.5690 C   0  0  0  0  0  0  0  0  0  0  0  0
  -14.9834  -39.5579   -8.1793 N   0  0  0  0  0  0  0  0  0  0  0  0
  -14.1695  -40.0827   -9.1891 C   0  0  0  0  0  0  0  0  0  0  0  0
  -14.3598  -41.4683   -9.5805 C   0  0  0  0  0  0  0  0  0  0  0  0
  -15.6086  -42.0391   -9.5616 C   0  0  0  0  0  0  0  0  0  0  0  0
  -15.8161  -43.3652   -9.9390 C   0  0  0  0  0  0  0  0  0  0  0  0
  -14.7063  -44.0859  -10.3366 C   0  0  0  0  0  0  0  0  0  0  0  0
  -13.4807  -43.4851  -10.3426 C   0  0  0  0  0  0  0  0  0  0  0  0
  -13.3346  -42.2188   -9.9736 N   0  0  0  0  0  0  0  0  0  0  0  0
  -17.1430  -44.0271   -9.9336 C   0  0  0  0  0  0  0  0  0  0  0  0
  -17.2577  -45.0500   -8.8254 C   0  0  0  0  0  0  0  0  0  0  0  0
  -17.5337  -44.6297  -11.2503 C   0  0  0  0  0  0  0  0  0  0  0  0
  -18.1877  -42.9497   -9.6174 C   0  0  0  0  0  0  0  0  0  0  0  0
  1  2  1  0
  2  3  2  0
  2  4  1  0
  4  5  1  0
  5  6  1  0
  6  7  2  0
  7  8  1  0
  8  9  2  0
  9 10  1  0
 10 11  2  0
 10 12  1  0
 12 13  2  0
 12 14  1  0
 14 15  1  0
 15 16  1  1
 16 17  1  0
 17 18  1  0
 18 19  2  0
 19 20  1  0
 20 21  1  0
 21 22  1  0
 22 23  1  0
 23 24  1  0
 19 25  1  0
 25 26  2  0
 26 27  1  0
 15 28  1  0
 28 29  1  6
 28 30  1  0
 30 31  1  0
 31 32  1  0
 32 33  1  0
 33 34  2  0
 34 35  1  0
 35 36  2  0
 36 37  1  0
 37 38  2  0
 35 39  1  0
 39 40  1  0
 39 41  1  0
 39 42  1  0
 11  6  1  0
 24  8  1  0
 27 17  2  0
 38 33  1  0
M  END
$$$$
