
     RDKit          3D

 42 45  0  0  0  0  0  0  0  0999 V2000
  -15.6864  -37.7601  -14.5511 C   0  0  0  0  0  0  0  0  0  0  0  0
  -16.8931  -38.6200  -14.4559 C   0  0  0  0  0  0  0  0  0  0  0  0
  -17.6143  -38.7143  -15.4255 O   0  0  0  0  0  0  0  0  0  0  0  0
  -17.2263  -39.3493  -13.2307 C   0  0  0  0  0  0  0  0  0  0  0  0
  -18.6139  -39.5500  -13.0616 O   0  0  0  0  0  0  0  0  0  0  0  0
  -19.0432  -40.1966  -11.9011 C   0  0  0  0  0  0  0  0  0  0  0  0
  -20.3331  -40.5998  -11.7170 C   0  0  0  0  0  0  0  0  0  0  0  0
  -20.7780  -41.2568  -10.5435 C   0  0  0  0  0  0  0  0  0  0  0  0
  -19.8818  -41.5189   -9.5129 C   0  0  0  0  0  0  0  0  0  0  0  0
  -18.5743  -41.1201   -9.6724 C   0  0  0  0  0  0  0  0  0  0  0  0
  -18.1804  -40.4660  -10.8676 C   0  0  0  0  0  0  0  0  0  0  0  0
  -17.4005  -41.2206   -8.7718 C   0  0  0  0  0  0  0  0  0  0  0  0
  -16.3178  -41.6279   -9.3840 O   0  0  0  0  0  0  0  0  0  0  0  0
  -17.2972  -40.9397   -7.3764 N   0  0  0  0  0  0  0  0  0  0  0  0
  -17.7525  -39.7616   -6.6771 C   0  0  1  0  0  0  0  0  0  0  0  0
  -18.4373  -40.0978   -5.3445 C   0  0  0  0  0  0  0  0  0  0  0  0
  -19.9295  -40.0472   -5.4297 C   0  0  0  0  0  0  0  0  0  0  0  0
  -20.8375  -40.9807   -5.8658 C   0  0  0  0  0  0  0  0  0  0  0  0
  -22.1675  -40.6894   -5.8387 C   0  0  0  0  0  0  0  0  0  0  0  0
  -23.3681  -41.4760   -6.2387 C   0  0  0  0  0  0  0  0  0  0  0  0
  -23.9120  -41.0563   -7.5850 C   0  0  0  0  0  0  0  0  0  0  0  0
  -23.4200  -42.0716   -8.6094 C   0  0  0  0  0  0  0  0  0  0  0  0
  -23.2884  -41.3521   -9.9225 C   0  0  0  0  0  0  0  0  0  0  0  0
  -22.1210  -41.5479  -10.6253 O   0  0  0  0  0  0  0  0  0  0  0  0
  -22.5890  -39.4223   -5.3592 C   0  0  0  0  0  0  0  0  0  0  0  0
  -21.7366  -38.4509   -4.9126 C   0  0  0  0  0  0  0  0  0  0  0  0
  -20.4181  -38.7992   -4.9629 C   0  0  0  0  0  0  0  0  0  0  0  0
  -16.4987  -38.9688   -6.2937 C   0  0  2  0  0  0  0  0  0  0  0  0
  -16.3267  -37.8696   -7.1236 O   0  0  0  0  0  0  0  0  0  0  0  0
  -15.2386  -39.7715   -6.3444 C   0  0  0  0  0  0  0  0  0  0  0  0
  -14.4651  -39.4265   -7.4913 N   0  0  0  0  0  0  0  0  0  0  0  0
  -13.6869  -40.4287   -8.0807 C   0  0  0  0  0  0  0  0  0  0  0  0
  -14.1242  -40.9887   -9.3475 C   0  0  0  0  0  0  0  0  0  0  0  0
  -14.5514  -42.2911   -9.4304 C   0  0  0  0  0  0  0  0  0  0  0  0
  -14.9815  -42.8482  -10.6340 C   0  0  0  0  0  0  0  0  0  0  0  0
  -14.9613  -42.0299  -11.7472 C   0  0  0  0  0  0  0  0  0  0  0  0
  -14.5303  -40.7404  -11.6266 C   0  0  0  0  0  0  0  0  0  0  0  0
  -14.1299  -40.2564  -10.4577 N   0  0  0  0  0  0  0  0  0  0  0  0
  -15.4492  -44.2481  -10.7753 C   0  0  0  0  0  0  0  0  0  0  0  0
  -16.6778  -44.3457  -11.6521 C   0  0  0  0  0  0  0  0  0  0  0  0
  -15.6740  -44.9547   -9.4716 C   0  0  0  0  0  0  0  0  0  0  0  0
  -14.3488  -45.0236  -11.5102 C   0  0  0  0  0  0  0  0  0  0  0  0
  1  2  1  0
  2  3  2  0
  2  4  1  0
  4  5  1  0
  5  6  1  0
  6  7  2  0
  7  8  1  0
  8  9  2  0
  9 10  1  0
 10 11  2  0
 10 12  1  0
 12 13  2  0
 12 14  1  0
 14 15  1  0
 15 16  1  1
 16 17  1  0
 17 18  1  0
 18 19  2  0
 19 20  1  0
 20 21  1  0
 21 22  1  0
 22 23  1  0
 23 24  1  0
 19 25  1  0
 25 26  2  0
 26 27  1  0
 15 28  1  0
 28 29  1  6
 28 30  1  0
 30 31  1  0
 31 32  1  0
 32 33  1  0
 33 34  2  0
 34 35  1  0
 35 36  2  0
 36 37  1  0
 37 38  2  0
 35 39  1  0
 39 40  1  0
 39 41  1  0
 39 42  1  0
 11  6  1  0
 24  8  1  0
 27 17  2  0
 38 33  1  0
M  END
$$$$
