
     RDKit          3D

 42 45  0  0  0  0  0  0  0  0999 V2000
  -21.2803  -45.2578   -3.9379 C   0  0  0  0  0  0  0  0  0  0  0  0
  -20.7586  -44.0282   -3.2894 C   0  0  0  0  0  0  0  0  0  0  0  0
  -20.6502  -44.0123   -2.0823 O   0  0  0  0  0  0  0  0  0  0  0  0
  -20.3754  -42.8486   -4.0675 C   0  0  0  0  0  0  0  0  0  0  0  0
  -21.2767  -42.5547   -5.1143 O   0  0  0  0  0  0  0  0  0  0  0  0
  -21.0325  -41.4168   -5.8855 C   0  0  0  0  0  0  0  0  0  0  0  0
  -22.0286  -40.7149   -6.4982 C   0  0  0  0  0  0  0  0  0  0  0  0
  -21.7909  -39.5592   -7.2822 C   0  0  0  0  0  0  0  0  0  0  0  0
  -20.4923  -39.0918   -7.4533 C   0  0  0  0  0  0  0  0  0  0  0  0
  -19.4684  -39.7835   -6.8474 C   0  0  0  0  0  0  0  0  0  0  0  0
  -19.7606  -40.9349   -6.0725 C   0  0  0  0  0  0  0  0  0  0  0  0
  -18.0008  -39.5706   -6.8548 C   0  0  0  0  0  0  0  0  0  0  0  0
  -17.4601  -39.6837   -5.6683 O   0  0  0  0  0  0  0  0  0  0  0  0
  -17.1299  -39.2718   -7.9452 N   0  0  0  0  0  0  0  0  0  0  0  0
  -17.0554  -39.9387   -9.2235 C   0  0  1  0  0  0  0  0  0  0  0  0
  -16.9111  -38.9532  -10.3922 C   0  0  0  0  0  0  0  0  0  0  0  0
  -18.1976  -38.7225  -11.1191 C   0  0  0  0  0  0  0  0  0  0  0  0
  -19.2481  -37.8821  -10.8433 C   0  0  0  0  0  0  0  0  0  0  0  0
  -20.3236  -37.8532  -11.6781 C   0  0  0  0  0  0  0  0  0  0  0  0
  -21.5893  -37.0676  -11.6456 C   0  0  0  0  0  0  0  0  0  0  0  0
  -22.7592  -37.8773  -11.1356 C   0  0  0  0  0  0  0  0  0  0  0  0
  -22.9729  -37.4955   -9.6758 C   0  0  0  0  0  0  0  0  0  0  0  0
  -23.5447  -38.6986   -8.9794 C   0  0  0  0  0  0  0  0  0  0  0  0
  -22.9711  -39.0545   -7.7796 O   0  0  0  0  0  0  0  0  0  0  0  0
  -20.3368  -38.6959  -12.8196 C   0  0  0  0  0  0  0  0  0  0  0  0
  -19.3246  -39.5542  -13.1488 C   0  0  0  0  0  0  0  0  0  0  0  0
  -18.2747  -39.5394  -12.2771 C   0  0  0  0  0  0  0  0  0  0  0  0
  -15.7541  -40.7476   -9.2195 C   0  0  2  0  0  0  0  0  0  0  0  0
  -16.0074  -42.1061   -9.3485 O   0  0  0  0  0  0  0  0  0  0  0  0
  -14.9307  -40.5592   -7.9862 C   0  0  0  0  0  0  0  0  0  0  0  0
  -13.8918  -39.6092   -8.2120 N   0  0  0  0  0  0  0  0  0  0  0  0
  -12.7785  -40.0214   -8.9525 C   0  0  0  0  0  0  0  0  0  0  0  0
  -12.4239  -39.2704  -10.1440 C   0  0  0  0  0  0  0  0  0  0  0  0
  -12.6406  -37.9162  -10.2119 C   0  0  0  0  0  0  0  0  0  0  0  0
  -12.3026  -37.1737  -11.3427 C   0  0  0  0  0  0  0  0  0  0  0  0
  -11.7356  -37.8611  -12.3987 C   0  0  0  0  0  0  0  0  0  0  0  0
  -11.5351  -39.2073  -12.2950 C   0  0  0  0  0  0  0  0  0  0  0  0
  -11.8747  -39.8699  -11.1966 N   0  0  0  0  0  0  0  0  0  0  0  0
  -12.5185  -35.7119  -11.4654 C   0  0  0  0  0  0  0  0  0  0  0  0
  -12.3358  -35.2330  -12.8884 C   0  0  0  0  0  0  0  0  0  0  0  0
  -11.6937  -34.8882  -10.5216 C   0  0  0  0  0  0  0  0  0  0  0  0
  -13.9869  -35.4379  -11.1177 C   0  0  0  0  0  0  0  0  0  0  0  0
  1  2  1  0
  2  3  2  0
  2  4  1  0
  4  5  1  0
  5  6  1  0
  6  7  2  0
  7  8  1  0
  8  9  2  0
  9 10  1  0
 10 11  2  0
 10 12  1  0
 12 13  2  0
 12 14  1  0
 14 15  1  0
 15 16  1  6
 16 17  1  0
 17 18  1  0
 18 19  2  0
 19 20  1  0
 20 21  1  0
 21 22  1  0
 22 23  1  0
 23 24  1  0
 19 25  1  0
 25 26  2  0
 26 27  1  0
 15 28  1  0
 28 29  1  1
 28 30  1  0
 30 31  1  0
 31 32  1  0
 32 33  1  0
 33 34  2  0
 34 35  1  0
 35 36  2  0
 36 37  1  0
 37 38  2  0
 35 39  1  0
 39 40  1  0
 39 41  1  0
 39 42  1  0
 11  6  1  0
 24  8  1  0
 27 17  2  0
 38 33  1  0
M  END
$$$$
