
     RDKit          3D

 42 45  0  0  0  0  0  0  0  0999 V2000
  -19.2448  -48.1954  -10.6400 C   0  0  0  0  0  0  0  0  0  0  0  0
  -17.9469  -47.8775   -9.9928 C   0  0  0  0  0  0  0  0  0  0  0  0
  -17.3170  -48.7802   -9.4854 O   0  0  0  0  0  0  0  0  0  0  0  0
  -17.4167  -46.5132   -9.9559 C   0  0  0  0  0  0  0  0  0  0  0  0
  -18.4158  -45.5234  -10.0847 O   0  0  0  0  0  0  0  0  0  0  0  0
  -18.7343  -44.7667   -8.9555 C   0  0  0  0  0  0  0  0  0  0  0  0
  -19.8919  -44.9401   -8.2554 C   0  0  0  0  0  0  0  0  0  0  0  0
  -20.2236  -44.1777   -7.1084 C   0  0  0  0  0  0  0  0  0  0  0  0
  -19.3484  -43.1998   -6.6483 C   0  0  0  0  0  0  0  0  0  0  0  0
  -18.1741  -43.0030   -7.3384 C   0  0  0  0  0  0  0  0  0  0  0  0
  -17.8897  -43.7938   -8.4809 C   0  0  0  0  0  0  0  0  0  0  0  0
  -17.0632  -42.0424   -7.1319 C   0  0  0  0  0  0  0  0  0  0  0  0
  -15.8814  -42.5950   -7.2358 O   0  0  0  0  0  0  0  0  0  0  0  0
  -17.1097  -40.6446   -6.8476 N   0  0  0  0  0  0  0  0  0  0  0  0
  -17.8808  -39.6309   -7.5273 C   0  0  1  0  0  0  0  0  0  0  0  0
  -18.5328  -38.6383   -6.5539 C   0  0  0  0  0  0  0  0  0  0  0  0
  -19.9839  -38.9182   -6.3249 C   0  0  0  0  0  0  0  0  0  0  0  0
  -20.6065  -39.8013   -5.4772 C   0  0  0  0  0  0  0  0  0  0  0  0
  -21.9666  -39.8643   -5.4519 C   0  0  0  0  0  0  0  0  0  0  0  0
  -22.9107  -40.7027   -4.6606 C   0  0  0  0  0  0  0  0  0  0  0  0
  -23.4669  -41.8584   -5.4602 C   0  0  0  0  0  0  0  0  0  0  0  0
  -22.6829  -43.1034   -5.0633 C   0  0  0  0  0  0  0  0  0  0  0  0
  -22.6621  -44.0166   -6.2570 C   0  0  0  0  0  0  0  0  0  0  0  0
  -21.4458  -44.5604   -6.6035 O   0  0  0  0  0  0  0  0  0  0  0  0
  -22.7151  -39.0134   -6.3057 C   0  0  0  0  0  0  0  0  0  0  0  0
  -22.1562  -38.1147   -7.1716 C   0  0  0  0  0  0  0  0  0  0  0  0
  -20.7918  -38.0960   -7.1527 C   0  0  0  0  0  0  0  0  0  0  0  0
  -16.8859  -38.7974   -8.3417 C   0  0  2  0  0  0  0  0  0  0  0  0
  -17.3116  -37.4816   -8.4591 O   0  0  0  0  0  0  0  0  0  0  0  0
  -16.6512  -39.3186   -9.7230 C   0  0  0  0  0  0  0  0  0  0  0  0
  -15.4592  -40.0994   -9.7730 N   0  0  0  0  0  0  0  0  0  0  0  0
  -14.3539  -39.6531   -9.0405 C   0  0  0  0  0  0  0  0  0  0  0  0
  -13.3047  -38.9337   -9.7413 C   0  0  0  0  0  0  0  0  0  0  0  0
  -13.5571  -37.7186  -10.3290 C   0  0  0  0  0  0  0  0  0  0  0  0
  -12.5641  -37.0073  -11.0014 C   0  0  0  0  0  0  0  0  0  0  0  0
  -11.3070  -37.5785  -11.0513 C   0  0  0  0  0  0  0  0  0  0  0  0
  -11.0934  -38.7878  -10.4555 C   0  0  0  0  0  0  0  0  0  0  0  0
  -12.0724  -39.4265   -9.8272 N   0  0  0  0  0  0  0  0  0  0  0  0
  -12.7870  -35.6943  -11.6535 C   0  0  0  0  0  0  0  0  0  0  0  0
  -14.0715  -35.6727  -12.4518 C   0  0  0  0  0  0  0  0  0  0  0  0
  -11.6367  -35.2223  -12.4921 C   0  0  0  0  0  0  0  0  0  0  0  0
  -12.9709  -34.6576  -10.5382 C   0  0  0  0  0  0  0  0  0  0  0  0
  1  2  1  0
  2  3  2  0
  2  4  1  0
  4  5  1  0
  5  6  1  0
  6  7  2  0
  7  8  1  0
  8  9  2  0
  9 10  1  0
 10 11  2  0
 10 12  1  0
 12 13  2  0
 12 14  1  0
 14 15  1  0
 15 16  1  1
 16 17  1  0
 17 18  1  0
 18 19  2  0
 19 20  1  0
 20 21  1  0
 21 22  1  0
 22 23  1  0
 23 24  1  0
 19 25  1  0
 25 26  2  0
 26 27  1  0
 15 28  1  0
 28 29  1  6
 28 30  1  0
 30 31  1  0
 31 32  1  0
 32 33  1  0
 33 34  2  0
 34 35  1  0
 35 36  2  0
 36 37  1  0
 37 38  2  0
 35 39  1  0
 39 40  1  0
 39 41  1  0
 39 42  1  0
 11  6  1  0
 24  8  1  0
 27 17  2  0
 38 33  1  0
M  END
$$$$
