
     RDKit          3D

 42 45  0  0  0  0  0  0  0  0999 V2000
  -23.3951  -40.8143   -4.5258 C   0  0  0  0  0  0  0  0  0  0  0  0
  -23.3918  -40.2045   -5.8796 C   0  0  0  0  0  0  0  0  0  0  0  0
  -24.3333  -39.5144   -6.2056 O   0  0  0  0  0  0  0  0  0  0  0  0
  -22.2878  -40.4152   -6.8181 C   0  0  0  0  0  0  0  0  0  0  0  0
  -22.0558  -41.7776   -7.1086 O   0  0  0  0  0  0  0  0  0  0  0  0
  -21.0026  -42.0911   -7.9697 C   0  0  0  0  0  0  0  0  0  0  0  0
  -20.8674  -43.3171   -8.5519 C   0  0  0  0  0  0  0  0  0  0  0  0
  -19.8027  -43.6446   -9.4271 C   0  0  0  0  0  0  0  0  0  0  0  0
  -18.8344  -42.6929   -9.7282 C   0  0  0  0  0  0  0  0  0  0  0  0
  -18.9461  -41.4482   -9.1518 C   0  0  0  0  0  0  0  0  0  0  0  0
  -20.0321  -41.1717   -8.2825 C   0  0  0  0  0  0  0  0  0  0  0  0
  -18.0848  -40.2443   -9.2406 C   0  0  0  0  0  0  0  0  0  0  0  0
  -18.7641  -39.1393   -9.4150 O   0  0  0  0  0  0  0  0  0  0  0  0
  -16.6641  -40.1337   -9.1615 N   0  0  0  0  0  0  0  0  0  0  0  0
  -15.7883  -40.7062   -8.1667 C   0  0  1  0  0  0  0  0  0  0  0  0
  -14.5148  -41.3054   -8.7807 C   0  0  0  0  0  0  0  0  0  0  0  0
  -14.5743  -42.7947   -8.9023 C   0  0  0  0  0  0  0  0  0  0  0  0
  -15.1372  -43.5966   -9.8646 C   0  0  0  0  0  0  0  0  0  0  0  0
  -15.0509  -44.9506   -9.7469 C   0  0  0  0  0  0  0  0  0  0  0  0
  -15.5524  -46.0595  -10.6067 C   0  0  0  0  0  0  0  0  0  0  0  0
  -16.8127  -46.6899  -10.0602 C   0  0  0  0  0  0  0  0  0  0  0  0
  -17.9854  -46.1104  -10.8420 C   0  0  0  0  0  0  0  0  0  0  0  0
  -19.1750  -46.1056   -9.9233 C   0  0  0  0  0  0  0  0  0  0  0  0
  -19.9126  -44.9447   -9.8660 O   0  0  0  0  0  0  0  0  0  0  0  0
  -14.3791  -45.5068   -8.6277 C   0  0  0  0  0  0  0  0  0  0  0  0
  -13.7994  -44.7642   -7.6366 C   0  0  0  0  0  0  0  0  0  0  0  0
  -13.9172  -43.4156   -7.8082 C   0  0  0  0  0  0  0  0  0  0  0  0
  -15.3028  -39.5458   -7.2918 C   0  0  2  0  0  0  0  0  0  0  0  0
  -15.0154  -39.9748   -6.0035 O   0  0  0  0  0  0  0  0  0  0  0  0
  -16.2823  -38.4217   -7.1830 C   0  0  0  0  0  0  0  0  0  0  0  0
  -16.6246  -37.9225   -8.4739 N   0  0  0  0  0  0  0  0  0  0  0  0
  -16.0917  -36.6878   -8.8599 C   0  0  0  0  0  0  0  0  0  0  0  0
  -15.7750  -36.4792  -10.2619 C   0  0  0  0  0  0  0  0  0  0  0  0
  -14.4722  -36.3526  -10.6771 C   0  0  0  0  0  0  0  0  0  0  0  0
  -14.1441  -36.1580  -12.0182 C   0  0  0  0  0  0  0  0  0  0  0  0
  -15.1906  -36.0986  -12.9184 C   0  0  0  0  0  0  0  0  0  0  0  0
  -16.4729  -36.2286  -12.4690 C   0  0  0  0  0  0  0  0  0  0  0  0
  -16.7341  -36.4120  -11.1809 N   0  0  0  0  0  0  0  0  0  0  0  0
  -12.7547  -36.0136  -12.5155 C   0  0  0  0  0  0  0  0  0  0  0  0
  -11.9434  -37.2707  -12.2937 C   0  0  0  0  0  0  0  0  0  0  0  0
  -12.0307  -34.8163  -11.9755 C   0  0  0  0  0  0  0  0  0  0  0  0
  -12.8325  -35.8296  -14.0362 C   0  0  0  0  0  0  0  0  0  0  0  0
  1  2  1  0
  2  3  2  0
  2  4  1  0
  4  5  1  0
  5  6  1  0
  6  7  2  0
  7  8  1  0
  8  9  2  0
  9 10  1  0
 10 11  2  0
 10 12  1  0
 12 13  2  0
 12 14  1  0
 14 15  1  0
 15 16  1  6
 16 17  1  0
 17 18  1  0
 18 19  2  0
 19 20  1  0
 20 21  1  0
 21 22  1  0
 22 23  1  0
 23 24  1  0
 19 25  1  0
 25 26  2  0
 26 27  1  0
 15 28  1  0
 28 29  1  1
 28 30  1  0
 30 31  1  0
 31 32  1  0
 32 33  1  0
 33 34  2  0
 34 35  1  0
 35 36  2  0
 36 37  1  0
 37 38  2  0
 35 39  1  0
 39 40  1  0
 39 41  1  0
 39 42  1  0
 11  6  1  0
 24  8  1  0
 27 17  2  0
 38 33  1  0
M  END
$$$$
