
     RDKit          3D

 42 45  0  0  0  0  0  0  0  0999 V2000
  -17.0923  -40.7731  -14.2697 C   0  0  0  0  0  0  0  0  0  0  0  0
  -16.7210  -42.1765  -13.9579 C   0  0  0  0  0  0  0  0  0  0  0  0
  -16.3403  -42.8887  -14.8618 O   0  0  0  0  0  0  0  0  0  0  0  0
  -16.8023  -42.7122  -12.5977 C   0  0  0  0  0  0  0  0  0  0  0  0
  -18.0912  -43.1801  -12.2593 O   0  0  0  0  0  0  0  0  0  0  0  0
  -18.4453  -43.1978  -10.9090 C   0  0  0  0  0  0  0  0  0  0  0  0
  -19.6209  -43.7261  -10.4629 C   0  0  0  0  0  0  0  0  0  0  0  0
  -19.9889  -43.7491   -9.0951 C   0  0  0  0  0  0  0  0  0  0  0  0
  -19.1324  -43.2174   -8.1371 C   0  0  0  0  0  0  0  0  0  0  0  0
  -17.9404  -42.6757   -8.5612 C   0  0  0  0  0  0  0  0  0  0  0  0
  -17.6199  -42.6781   -9.9427 C   0  0  0  0  0  0  0  0  0  0  0  0
  -16.8413  -42.0163   -7.8153 C   0  0  0  0  0  0  0  0  0  0  0  0
  -15.6539  -42.4246   -8.1845 O   0  0  0  0  0  0  0  0  0  0  0  0
  -16.9036  -41.0290   -6.7866 N   0  0  0  0  0  0  0  0  0  0  0  0
  -17.6612  -39.8001   -6.7876 C   0  0  1  0  0  0  0  0  0  0  0  0
  -18.3458  -39.5314   -5.4396 C   0  0  0  0  0  0  0  0  0  0  0  0
  -19.8011  -39.8757   -5.4488 C   0  0  0  0  0  0  0  0  0  0  0  0
  -20.4420  -41.0773   -5.2719 C   0  0  0  0  0  0  0  0  0  0  0  0
  -21.8019  -41.1282   -5.3226 C   0  0  0  0  0  0  0  0  0  0  0  0
  -22.7629  -42.2574   -5.1749 C   0  0  0  0  0  0  0  0  0  0  0  0
  -23.2900  -42.7455   -6.5047 C   0  0  0  0  0  0  0  0  0  0  0  0
  -22.5103  -44.0036   -6.8674 C   0  0  0  0  0  0  0  0  0  0  0  0
  -22.4510  -44.0744   -8.3676 C   0  0  0  0  0  0  0  0  0  0  0  0
  -21.2224  -44.3375   -8.9303 O   0  0  0  0  0  0  0  0  0  0  0  0
  -22.5311  -39.9342   -5.5587 C   0  0  0  0  0  0  0  0  0  0  0  0
  -21.9534  -38.7087   -5.7434 C   0  0  0  0  0  0  0  0  0  0  0  0
  -20.5902  -38.7193   -5.6816 C   0  0  0  0  0  0  0  0  0  0  0  0
  -16.6488  -38.6624   -6.9557 C   0  0  2  0  0  0  0  0  0  0  0  0
  -17.2883  -37.4485   -7.1657 O   0  0  0  0  0  0  0  0  0  0  0  0
  -15.6928  -38.8680   -8.0865 C   0  0  0  0  0  0  0  0  0  0  0  0
  -16.1374  -38.1831   -9.2553 N   0  0  0  0  0  0  0  0  0  0  0  0
  -15.9690  -38.8196  -10.4899 C   0  0  0  0  0  0  0  0  0  0  0  0
  -14.6956  -38.6767  -11.1736 C   0  0  0  0  0  0  0  0  0  0  0  0
  -14.0459  -37.4673  -11.2043 C   0  0  0  0  0  0  0  0  0  0  0  0
  -12.8199  -37.3079  -11.8491 C   0  0  0  0  0  0  0  0  0  0  0  0
  -12.2813  -38.4248  -12.4588 C   0  0  0  0  0  0  0  0  0  0  0  0
  -12.9558  -39.6104  -12.4074 C   0  0  0  0  0  0  0  0  0  0  0  0
  -14.1213  -39.7111  -11.7811 N   0  0  0  0  0  0  0  0  0  0  0  0
  -12.0810  -36.0239  -11.9121 C   0  0  0  0  0  0  0  0  0  0  0  0
  -11.7608  -35.4901  -10.5336 C   0  0  0  0  0  0  0  0  0  0  0  0
  -12.7507  -34.9704  -12.7433 C   0  0  0  0  0  0  0  0  0  0  0  0
  -10.7274  -36.3098  -12.5741 C   0  0  0  0  0  0  0  0  0  0  0  0
  1  2  1  0
  2  3  2  0
  2  4  1  0
  4  5  1  0
  5  6  1  0
  6  7  2  0
  7  8  1  0
  8  9  2  0
  9 10  1  0
 10 11  2  0
 10 12  1  0
 12 13  2  0
 12 14  1  0
 14 15  1  0
 15 16  1  1
 16 17  1  0
 17 18  1  0
 18 19  2  0
 19 20  1  0
 20 21  1  0
 21 22  1  0
 22 23  1  0
 23 24  1  0
 19 25  1  0
 25 26  2  0
 26 27  1  0
 15 28  1  0
 28 29  1  6
 28 30  1  0
 30 31  1  0
 31 32  1  0
 32 33  1  0
 33 34  2  0
 34 35  1  0
 35 36  2  0
 36 37  1  0
 37 38  2  0
 35 39  1  0
 39 40  1  0
 39 41  1  0
 39 42  1  0
 11  6  1  0
 24  8  1  0
 27 17  2  0
 38 33  1  0
M  END
$$$$
