
     RDKit          3D

 42 45  0  0  0  0  0  0  0  0999 V2000
  -16.8296  -47.2215  -11.6640 C   0  0  0  0  0  0  0  0  0  0  0  0
  -16.2336  -47.3803  -10.3134 C   0  0  0  0  0  0  0  0  0  0  0  0
  -15.4080  -48.2514  -10.1440 O   0  0  0  0  0  0  0  0  0  0  0  0
  -16.6160  -46.5163   -9.1947 C   0  0  0  0  0  0  0  0  0  0  0  0
  -17.6862  -45.6478   -9.5021 O   0  0  0  0  0  0  0  0  0  0  0  0
  -18.1272  -44.7769   -8.5040 C   0  0  0  0  0  0  0  0  0  0  0  0
  -19.3219  -44.9337   -7.8650 C   0  0  0  0  0  0  0  0  0  0  0  0
  -19.7777  -44.0557   -6.8510 C   0  0  0  0  0  0  0  0  0  0  0  0
  -18.9929  -42.9745   -6.4650 C   0  0  0  0  0  0  0  0  0  0  0  0
  -17.7835  -42.7922   -7.0960 C   0  0  0  0  0  0  0  0  0  0  0  0
  -17.3737  -43.7007   -8.1050 C   0  0  0  0  0  0  0  0  0  0  0  0
  -16.7446  -41.7451   -6.9432 C   0  0  0  0  0  0  0  0  0  0  0  0
  -15.5301  -42.2306   -6.8965 O   0  0  0  0  0  0  0  0  0  0  0  0
  -16.8874  -40.3284   -6.8463 N   0  0  0  0  0  0  0  0  0  0  0  0
  -17.6604  -39.4588   -7.7010 C   0  0  1  0  0  0  0  0  0  0  0  0
  -18.4349  -38.3949   -6.9097 C   0  0  0  0  0  0  0  0  0  0  0  0
  -19.8816  -38.7349   -6.7422 C   0  0  0  0  0  0  0  0  0  0  0  0
  -20.5159  -39.5421   -5.8300 C   0  0  0  0  0  0  0  0  0  0  0  0
  -21.8688  -39.6872   -5.8863 C   0  0  0  0  0  0  0  0  0  0  0  0
  -22.8215  -40.4774   -5.0568 C   0  0  0  0  0  0  0  0  0  0  0  0
  -23.2541  -41.7572   -5.7346 C   0  0  0  0  0  0  0  0  0  0  0  0
  -22.4350  -42.8905   -5.1288 C   0  0  0  0  0  0  0  0  0  0  0  0
  -22.2772  -43.9432   -6.1899 C   0  0  0  0  0  0  0  0  0  0  0  0
  -21.0111  -44.4483   -6.3822 O   0  0  0  0  0  0  0  0  0  0  0  0
  -22.5976  -38.9991   -6.8906 C   0  0  0  0  0  0  0  0  0  0  0  0
  -22.0263  -38.1828   -7.8271 C   0  0  0  0  0  0  0  0  0  0  0  0
  -20.6700  -38.0758   -7.7211 C   0  0  0  0  0  0  0  0  0  0  0  0
  -16.6552  -38.6731   -8.5494 C   0  0  2  0  0  0  0  0  0  0  0  0
  -17.3014  -37.7928   -9.4061 O   0  0  0  0  0  0  0  0  0  0  0  0
  -15.7633  -39.5369   -9.3819 C   0  0  0  0  0  0  0  0  0  0  0  0
  -14.5495  -39.8244   -8.6912 N   0  0  0  0  0  0  0  0  0  0  0  0
  -13.4514  -40.2480   -9.4477 C   0  0  0  0  0  0  0  0  0  0  0  0
  -13.1976  -39.5988  -10.7219 C   0  0  0  0  0  0  0  0  0  0  0  0
  -12.9738  -38.2457  -10.7893 C   0  0  0  0  0  0  0  0  0  0  0  0
  -12.7220  -37.6020  -12.0003 C   0  0  0  0  0  0  0  0  0  0  0  0
  -12.7056  -38.3871  -13.1371 C   0  0  0  0  0  0  0  0  0  0  0  0
  -12.9324  -39.7290  -13.0314 C   0  0  0  0  0  0  0  0  0  0  0  0
  -13.1682  -40.2952  -11.8546 N   0  0  0  0  0  0  0  0  0  0  0  0
  -12.4768  -36.1450  -12.1254 C   0  0  0  0  0  0  0  0  0  0  0  0
  -11.1164  -35.8516  -12.7177 C   0  0  0  0  0  0  0  0  0  0  0  0
  -12.6744  -35.3776  -10.8520 C   0  0  0  0  0  0  0  0  0  0  0  0
  -13.4971  -35.5965  -13.1306 C   0  0  0  0  0  0  0  0  0  0  0  0
  1  2  1  0
  2  3  2  0
  2  4  1  0
  4  5  1  0
  5  6  1  0
  6  7  2  0
  7  8  1  0
  8  9  2  0
  9 10  1  0
 10 11  2  0
 10 12  1  0
 12 13  2  0
 12 14  1  0
 14 15  1  0
 15 16  1  1
 16 17  1  0
 17 18  1  0
 18 19  2  0
 19 20  1  0
 20 21  1  0
 21 22  1  0
 22 23  1  0
 23 24  1  0
 19 25  1  0
 25 26  2  0
 26 27  1  0
 15 28  1  0
 28 29  1  6
 28 30  1  0
 30 31  1  0
 31 32  1  0
 32 33  1  0
 33 34  2  0
 34 35  1  0
 35 36  2  0
 36 37  1  0
 37 38  2  0
 35 39  1  0
 39 40  1  0
 39 41  1  0
 39 42  1  0
 11  6  1  0
 24  8  1  0
 27 17  2  0
 38 33  1  0
M  END
$$$$
