
     RDKit          3D

 42 45  0  0  0  0  0  0  0  0999 V2000
  -18.3491  -48.5202   -6.2281 C   0  0  0  0  0  0  0  0  0  0  0  0
  -17.7191  -47.4967   -7.1000 C   0  0  0  0  0  0  0  0  0  0  0  0
  -16.5144  -47.3680   -7.0637 O   0  0  0  0  0  0  0  0  0  0  0  0
  -18.5121  -46.6502   -7.9935 C   0  0  0  0  0  0  0  0  0  0  0  0
  -19.7202  -46.2054   -7.4130 O   0  0  0  0  0  0  0  0  0  0  0  0
  -19.8075  -44.8646   -7.0343 C   0  0  0  0  0  0  0  0  0  0  0  0
  -20.8892  -44.3532   -6.3794 C   0  0  0  0  0  0  0  0  0  0  0  0
  -20.9868  -42.9944   -5.9907 C   0  0  0  0  0  0  0  0  0  0  0  0
  -19.9471  -42.1153   -6.2741 C   0  0  0  0  0  0  0  0  0  0  0  0
  -18.8449  -42.6055   -6.9364 C   0  0  0  0  0  0  0  0  0  0  0  0
  -18.7971  -43.9747   -7.3031 C   0  0  0  0  0  0  0  0  0  0  0  0
  -17.6046  -41.9405   -7.4042 C   0  0  0  0  0  0  0  0  0  0  0  0
  -16.5225  -42.6260   -7.1355 O   0  0  0  0  0  0  0  0  0  0  0  0
  -17.4398  -40.6979   -8.0865 N   0  0  0  0  0  0  0  0  0  0  0  0
  -18.1491  -40.2313   -9.2542 C   0  0  1  0  0  0  0  0  0  0  0  0
  -18.5529  -38.7539   -9.1445 C   0  0  0  0  0  0  0  0  0  0  0  0
  -19.9917  -38.5711   -8.7796 C   0  0  0  0  0  0  0  0  0  0  0  0
  -20.6195  -38.5935   -7.5583 C   0  0  0  0  0  0  0  0  0  0  0  0
  -21.9645  -38.3917   -7.4896 C   0  0  0  0  0  0  0  0  0  0  0  0
  -22.9098  -38.3610   -6.3381 C   0  0  0  0  0  0  0  0  0  0  0  0
  -23.6969  -39.6441   -6.2021 C   0  0  0  0  0  0  0  0  0  0  0  0
  -23.0371  -40.4664   -5.1018 C   0  0  0  0  0  0  0  0  0  0  0  0
  -23.2703  -41.9152   -5.4272 C   0  0  0  0  0  0  0  0  0  0  0  0
  -22.1812  -42.7536   -5.3501 O   0  0  0  0  0  0  0  0  0  0  0  0
  -22.6922  -38.1622   -8.6858 C   0  0  0  0  0  0  0  0  0  0  0  0
  -22.1272  -38.1286   -9.9306 C   0  0  0  0  0  0  0  0  0  0  0  0
  -20.7786  -38.3367   -9.9371 C   0  0  0  0  0  0  0  0  0  0  0  0
  -17.1570  -40.2892  -10.4205 C   0  0  2  0  0  0  0  0  0  0  0  0
  -17.7186  -40.9119  -11.5265 O   0  0  0  0  0  0  0  0  0  0  0  0
  -15.8870  -41.0082  -10.0968 C   0  0  0  0  0  0  0  0  0  0  0  0
  -15.1513  -40.3091   -9.0952 N   0  0  0  0  0  0  0  0  0  0  0  0
  -13.7929  -40.0695   -9.3295 C   0  0  0  0  0  0  0  0  0  0  0  0
  -13.4252  -39.1769  -10.4146 C   0  0  0  0  0  0  0  0  0  0  0  0
  -13.6900  -37.8316  -10.3388 C   0  0  0  0  0  0  0  0  0  0  0  0
  -13.3407  -36.9549  -11.3652 C   0  0  0  0  0  0  0  0  0  0  0  0
  -12.7117  -37.4989  -12.4686 C   0  0  0  0  0  0  0  0  0  0  0  0
  -12.4648  -38.8408  -12.5088 C   0  0  0  0  0  0  0  0  0  0  0  0
  -12.8175  -39.6345  -11.5055 N   0  0  0  0  0  0  0  0  0  0  0  0
  -13.6067  -35.4966  -11.3316 C   0  0  0  0  0  0  0  0  0  0  0  0
  -12.9817  -34.7828  -12.5096 C   0  0  0  0  0  0  0  0  0  0  0  0
  -13.2182  -34.8312  -10.0449 C   0  0  0  0  0  0  0  0  0  0  0  0
  -15.1210  -35.3066  -11.4836 C   0  0  0  0  0  0  0  0  0  0  0  0
  1  2  1  0
  2  3  2  0
  2  4  1  0
  4  5  1  0
  5  6  1  0
  6  7  2  0
  7  8  1  0
  8  9  2  0
  9 10  1  0
 10 11  2  0
 10 12  1  0
 12 13  2  0
 12 14  1  0
 14 15  1  0
 15 16  1  1
 16 17  1  0
 17 18  1  0
 18 19  2  0
 19 20  1  0
 20 21  1  0
 21 22  1  0
 22 23  1  0
 23 24  1  0
 19 25  1  0
 25 26  2  0
 26 27  1  0
 15 28  1  0
 28 29  1  6
 28 30  1  0
 30 31  1  0
 31 32  1  0
 32 33  1  0
 33 34  2  0
 34 35  1  0
 35 36  2  0
 36 37  1  0
 37 38  2  0
 35 39  1  0
 39 40  1  0
 39 41  1  0
 39 42  1  0
 11  6  1  0
 24  8  1  0
 27 17  2  0
 38 33  1  0
M  END
$$$$
