
     RDKit          3D

 42 45  0  0  0  0  0  0  0  0999 V2000
  -16.3898  -47.5686   -7.4259 C   0  0  0  0  0  0  0  0  0  0  0  0
  -17.0578  -47.3563   -8.7348 C   0  0  0  0  0  0  0  0  0  0  0  0
  -17.8371  -48.1965   -9.1297 O   0  0  0  0  0  0  0  0  0  0  0  0
  -16.7996  -46.1670   -9.5490 C   0  0  0  0  0  0  0  0  0  0  0  0
  -17.9759  -45.4774   -9.9166 O   0  0  0  0  0  0  0  0  0  0  0  0
  -18.5753  -44.6542   -8.9616 C   0  0  0  0  0  0  0  0  0  0  0  0
  -19.8711  -44.8088   -8.5652 C   0  0  0  0  0  0  0  0  0  0  0  0
  -20.4879  -43.9790   -7.5968 C   0  0  0  0  0  0  0  0  0  0  0  0
  -19.7648  -42.9505   -7.0025 C   0  0  0  0  0  0  0  0  0  0  0  0
  -18.4555  -42.7713   -7.3868 C   0  0  0  0  0  0  0  0  0  0  0  0
  -17.8854  -43.6304   -8.3607 C   0  0  0  0  0  0  0  0  0  0  0  0
  -17.4401  -41.7713   -6.9766 C   0  0  0  0  0  0  0  0  0  0  0  0
  -16.2665  -42.2998   -6.7392 O   0  0  0  0  0  0  0  0  0  0  0  0
  -17.5670  -40.3591   -6.8145 N   0  0  0  0  0  0  0  0  0  0  0  0
  -18.1483  -39.4135   -7.7377 C   0  0  1  0  0  0  0  0  0  0  0  0
  -19.0326  -38.3739   -7.0341 C   0  0  0  0  0  0  0  0  0  0  0  0
  -20.4924  -38.6741   -7.1586 C   0  0  0  0  0  0  0  0  0  0  0  0
  -21.3029  -39.5131   -6.4339 C   0  0  0  0  0  0  0  0  0  0  0  0
  -22.6246  -39.6085   -6.7478 C   0  0  0  0  0  0  0  0  0  0  0  0
  -23.7322  -40.4149   -6.1617 C   0  0  0  0  0  0  0  0  0  0  0  0
  -24.0595  -41.6357   -6.9904 C   0  0  0  0  0  0  0  0  0  0  0  0
  -23.3926  -42.8308   -6.3202 C   0  0  0  0  0  0  0  0  0  0  0  0
  -23.0636  -43.8220   -7.4012 C   0  0  0  0  0  0  0  0  0  0  0  0
  -21.7953  -44.3572   -7.3900 O   0  0  0  0  0  0  0  0  0  0  0  0
  -23.1387  -38.8365   -7.8215 C   0  0  0  0  0  0  0  0  0  0  0  0
  -22.3853  -37.9847   -8.5809 C   0  0  0  0  0  0  0  0  0  0  0  0
  -21.0703  -37.9305   -8.2203 C   0  0  0  0  0  0  0  0  0  0  0  0
  -16.9857  -38.6124   -8.3329 C   0  0  2  0  0  0  0  0  0  0  0  0
  -17.1373  -38.4506   -9.7030 O   0  0  0  0  0  0  0  0  0  0  0  0
  -15.6450  -39.2309   -8.0992 C   0  0  0  0  0  0  0  0  0  0  0  0
  -15.3754  -40.2365   -9.0733 N   0  0  0  0  0  0  0  0  0  0  0  0
  -14.0373  -40.5141   -9.3734 C   0  0  0  0  0  0  0  0  0  0  0  0
  -13.3750  -39.7117  -10.3868 C   0  0  0  0  0  0  0  0  0  0  0  0
  -13.3355  -38.3429  -10.2848 C   0  0  0  0  0  0  0  0  0  0  0  0
  -12.7003  -37.5528  -11.2419 C   0  0  0  0  0  0  0  0  0  0  0  0
  -12.1070  -38.2082  -12.3038 C   0  0  0  0  0  0  0  0  0  0  0  0
  -12.1664  -39.5702  -12.3718 C   0  0  0  0  0  0  0  0  0  0  0  0
  -12.7841  -40.2785  -11.4348 N   0  0  0  0  0  0  0  0  0  0  0  0
  -12.6324  -36.0729  -11.1779 C   0  0  0  0  0  0  0  0  0  0  0  0
  -13.2872  -35.4266  -12.3784 C   0  0  0  0  0  0  0  0  0  0  0  0
  -11.2491  -35.5300  -10.9755 C   0  0  0  0  0  0  0  0  0  0  0  0
  -13.4586  -35.6316   -9.9634 C   0  0  0  0  0  0  0  0  0  0  0  0
  1  2  1  0
  2  3  2  0
  2  4  1  0
  4  5  1  0
  5  6  1  0
  6  7  2  0
  7  8  1  0
  8  9  2  0
  9 10  1  0
 10 11  2  0
 10 12  1  0
 12 13  2  0
 12 14  1  0
 14 15  1  0
 15 16  1  1
 16 17  1  0
 17 18  1  0
 18 19  2  0
 19 20  1  0
 20 21  1  0
 21 22  1  0
 22 23  1  0
 23 24  1  0
 19 25  1  0
 25 26  2  0
 26 27  1  0
 15 28  1  0
 28 29  1  6
 28 30  1  0
 30 31  1  0
 31 32  1  0
 32 33  1  0
 33 34  2  0
 34 35  1  0
 35 36  2  0
 36 37  1  0
 37 38  2  0
 35 39  1  0
 39 40  1  0
 39 41  1  0
 39 42  1  0
 11  6  1  0
 24  8  1  0
 27 17  2  0
 38 33  1  0
M  END
$$$$
