
     RDKit          3D

 42 45  0  0  0  0  0  0  0  0999 V2000
  -18.0582  -47.8867  -10.1433 C   0  0  0  0  0  0  0  0  0  0  0  0
  -17.4193  -46.7426  -10.8415 C   0  0  0  0  0  0  0  0  0  0  0  0
  -16.3283  -46.9072  -11.3433 O   0  0  0  0  0  0  0  0  0  0  0  0
  -18.0717  -45.4353  -10.9374 C   0  0  0  0  0  0  0  0  0  0  0  0
  -19.3137  -45.3819  -10.2673 O   0  0  0  0  0  0  0  0  0  0  0  0
  -19.3999  -44.6002   -9.1138 C   0  0  0  0  0  0  0  0  0  0  0  0
  -20.4750  -44.6406   -8.2755 C   0  0  0  0  0  0  0  0  0  0  0  0
  -20.5714  -43.8517   -7.1028 C   0  0  0  0  0  0  0  0  0  0  0  0
  -19.5374  -42.9867   -6.7615 C   0  0  0  0  0  0  0  0  0  0  0  0
  -18.4418  -42.9251   -7.5921 C   0  0  0  0  0  0  0  0  0  0  0  0
  -18.3949  -43.7366   -8.7543 C   0  0  0  0  0  0  0  0  0  0  0  0
  -17.2087  -42.1034   -7.5313 C   0  0  0  0  0  0  0  0  0  0  0  0
  -16.1219  -42.7906   -7.7748 O   0  0  0  0  0  0  0  0  0  0  0  0
  -17.0551  -40.7117   -7.2548 N   0  0  0  0  0  0  0  0  0  0  0  0
  -17.7792  -39.6099   -7.8430 C   0  0  1  0  0  0  0  0  0  0  0  0
  -18.1854  -38.5536   -6.8052 C   0  0  0  0  0  0  0  0  0  0  0  0
  -19.6202  -38.6621   -6.3976 C   0  0  0  0  0  0  0  0  0  0  0  0
  -20.2336  -39.4712   -5.4727 C   0  0  0  0  0  0  0  0  0  0  0  0
  -21.5781  -39.3737   -5.2803 C   0  0  0  0  0  0  0  0  0  0  0  0
  -22.5099  -40.1001   -4.3723 C   0  0  0  0  0  0  0  0  0  0  0  0
  -23.2922  -41.1772   -5.0881 C   0  0  0  0  0  0  0  0  0  0  0  0
  -22.6174  -42.5084   -4.7802 C   0  0  0  0  0  0  0  0  0  0  0  0
  -22.8508  -43.4100   -5.9599 C   0  0  0  0  0  0  0  0  0  0  0  0
  -21.7588  -44.0910   -6.4486 O   0  0  0  0  0  0  0  0  0  0  0  0
  -22.3204  -38.4351   -6.0426 C   0  0  0  0  0  0  0  0  0  0  0  0
  -21.7703  -37.6030   -6.9779 C   0  0  0  0  0  0  0  0  0  0  0  0
  -20.4213  -37.7452   -7.1267 C   0  0  0  0  0  0  0  0  0  0  0  0
  -16.8008  -38.8942   -8.7801 C   0  0  2  0  0  0  0  0  0  0  0  0
  -17.3973  -37.7966   -9.3851 O   0  0  0  0  0  0  0  0  0  0  0  0
  -16.2587  -39.7665   -9.8664 C   0  0  0  0  0  0  0  0  0  0  0  0
  -14.8845  -40.0676   -9.6347 N   0  0  0  0  0  0  0  0  0  0  0  0
  -14.1455  -40.6057  -10.6938 C   0  0  0  0  0  0  0  0  0  0  0  0
  -13.3547  -39.7046  -11.5136 C   0  0  0  0  0  0  0  0  0  0  0  0
  -12.7096  -38.6290  -10.9545 C   0  0  0  0  0  0  0  0  0  0  0  0
  -11.9401  -37.7542  -11.7205 C   0  0  0  0  0  0  0  0  0  0  0  0
  -11.8517  -38.0166  -13.0743 C   0  0  0  0  0  0  0  0  0  0  0  0
  -12.5067  -39.0953  -13.5946 C   0  0  0  0  0  0  0  0  0  0  0  0
  -13.2279  -39.8989  -12.8232 N   0  0  0  0  0  0  0  0  0  0  0  0
  -11.2269  -36.5790  -11.1648 C   0  0  0  0  0  0  0  0  0  0  0  0
  -10.1532  -36.9855  -10.1802 C   0  0  0  0  0  0  0  0  0  0  0  0
  -12.1283  -35.5416  -10.5642 C   0  0  0  0  0  0  0  0  0  0  0  0
  -10.4921  -35.9008  -12.3278 C   0  0  0  0  0  0  0  0  0  0  0  0
  1  2  1  0
  2  3  2  0
  2  4  1  0
  4  5  1  0
  5  6  1  0
  6  7  2  0
  7  8  1  0
  8  9  2  0
  9 10  1  0
 10 11  2  0
 10 12  1  0
 12 13  2  0
 12 14  1  0
 14 15  1  0
 15 16  1  1
 16 17  1  0
 17 18  1  0
 18 19  2  0
 19 20  1  0
 20 21  1  0
 21 22  1  0
 22 23  1  0
 23 24  1  0
 19 25  1  0
 25 26  2  0
 26 27  1  0
 15 28  1  0
 28 29  1  6
 28 30  1  0
 30 31  1  0
 31 32  1  0
 32 33  1  0
 33 34  2  0
 34 35  1  0
 35 36  2  0
 36 37  1  0
 37 38  2  0
 35 39  1  0
 39 40  1  0
 39 41  1  0
 39 42  1  0
 11  6  1  0
 24  8  1  0
 27 17  2  0
 38 33  1  0
M  END
$$$$
