
     RDKit          3D

 42 45  0  0  0  0  0  0  0  0999 V2000
  -18.9158  -48.4509   -9.1169 C   0  0  0  0  0  0  0  0  0  0  0  0
  -19.2599  -47.0481   -9.4608 C   0  0  0  0  0  0  0  0  0  0  0  0
  -18.7336  -46.5441  -10.4293 O   0  0  0  0  0  0  0  0  0  0  0  0
  -20.2115  -46.2698   -8.6653 C   0  0  0  0  0  0  0  0  0  0  0  0
  -19.7615  -46.0144   -7.3513 O   0  0  0  0  0  0  0  0  0  0  0  0
  -19.8643  -44.7085   -6.8685 C   0  0  0  0  0  0  0  0  0  0  0  0
  -20.9905  -44.2339   -6.2629 C   0  0  0  0  0  0  0  0  0  0  0  0
  -21.1042  -42.9108   -5.7694 C   0  0  0  0  0  0  0  0  0  0  0  0
  -20.0346  -42.0304   -5.8916 C   0  0  0  0  0  0  0  0  0  0  0  0
  -18.8871  -42.4837   -6.5012 C   0  0  0  0  0  0  0  0  0  0  0  0
  -18.8249  -43.8181   -6.9777 C   0  0  0  0  0  0  0  0  0  0  0  0
  -17.6048  -41.8050   -6.8083 C   0  0  0  0  0  0  0  0  0  0  0  0
  -16.5566  -42.5304   -6.5116 O   0  0  0  0  0  0  0  0  0  0  0  0
  -17.3699  -40.5129   -7.3669 N   0  0  0  0  0  0  0  0  0  0  0  0
  -17.9747  -39.9373   -8.5447 C   0  0  1  0  0  0  0  0  0  0  0  0
  -18.3692  -38.4670   -8.3432 C   0  0  0  0  0  0  0  0  0  0  0  0
  -19.8309  -38.2888   -8.0824 C   0  0  0  0  0  0  0  0  0  0  0  0
  -20.5578  -38.4017   -6.9227 C   0  0  0  0  0  0  0  0  0  0  0  0
  -21.9014  -38.1816   -6.9468 C   0  0  0  0  0  0  0  0  0  0  0  0
  -22.9383  -38.2298   -5.8777 C   0  0  0  0  0  0  0  0  0  0  0  0
  -23.7488  -39.5050   -5.9156 C   0  0  0  0  0  0  0  0  0  0  0  0
  -23.1917  -40.4285   -4.8391 C   0  0  0  0  0  0  0  0  0  0  0  0
  -23.4139  -41.8404   -5.3041 C   0  0  0  0  0  0  0  0  0  0  0  0
  -22.3446  -42.7024   -5.2101 O   0  0  0  0  0  0  0  0  0  0  0  0
  -22.5251  -37.8394   -8.1745 C   0  0  0  0  0  0  0  0  0  0  0  0
  -21.8588  -37.7122   -9.3618 C   0  0  0  0  0  0  0  0  0  0  0  0
  -20.5167  -37.9439   -9.2761 C   0  0  0  0  0  0  0  0  0  0  0  0
  -16.8903  -39.9157   -9.6270 C   0  0  2  0  0  0  0  0  0  0  0  0
  -17.3764  -40.3986  -10.8341 O   0  0  0  0  0  0  0  0  0  0  0  0
  -15.6757  -40.7149   -9.2798 C   0  0  0  0  0  0  0  0  0  0  0  0
  -14.8002  -39.9655   -8.4402 N   0  0  0  0  0  0  0  0  0  0  0  0
  -13.4301  -40.0083   -8.7203 C   0  0  0  0  0  0  0  0  0  0  0  0
  -12.9319  -39.2487   -9.8535 C   0  0  0  0  0  0  0  0  0  0  0  0
  -13.2230  -37.9134   -9.9875 C   0  0  0  0  0  0  0  0  0  0  0  0
  -12.7507  -37.1627  -11.0633 C   0  0  0  0  0  0  0  0  0  0  0  0
  -11.9713  -37.8218  -11.9947 C   0  0  0  0  0  0  0  0  0  0  0  0
  -11.7027  -39.1497  -11.8284 C   0  0  0  0  0  0  0  0  0  0  0  0
  -12.1765  -39.8212  -10.7865 N   0  0  0  0  0  0  0  0  0  0  0  0
  -13.0389  -35.7207  -11.2537 C   0  0  0  0  0  0  0  0  0  0  0  0
  -12.3191  -35.1567  -12.4585 C   0  0  0  0  0  0  0  0  0  0  0  0
  -12.7785  -34.8774  -10.0411 C   0  0  0  0  0  0  0  0  0  0  0  0
  -14.5355  -35.5928  -11.5635 C   0  0  0  0  0  0  0  0  0  0  0  0
  1  2  1  0
  2  3  2  0
  2  4  1  0
  4  5  1  0
  5  6  1  0
  6  7  2  0
  7  8  1  0
  8  9  2  0
  9 10  1  0
 10 11  2  0
 10 12  1  0
 12 13  2  0
 12 14  1  0
 14 15  1  0
 15 16  1  1
 16 17  1  0
 17 18  1  0
 18 19  2  0
 19 20  1  0
 20 21  1  0
 21 22  1  0
 22 23  1  0
 23 24  1  0
 19 25  1  0
 25 26  2  0
 26 27  1  0
 15 28  1  0
 28 29  1  6
 28 30  1  0
 30 31  1  0
 31 32  1  0
 32 33  1  0
 33 34  2  0
 34 35  1  0
 35 36  2  0
 36 37  1  0
 37 38  2  0
 35 39  1  0
 39 40  1  0
 39 41  1  0
 39 42  1  0
 11  6  1  0
 24  8  1  0
 27 17  2  0
 38 33  1  0
M  END
$$$$
