
     RDKit          3D

 42 45  0  0  0  0  0  0  0  0999 V2000
  -17.4827  -48.4948   -6.4396 C   0  0  0  0  0  0  0  0  0  0  0  0
  -18.4230  -48.0346   -5.3868 C   0  0  0  0  0  0  0  0  0  0  0  0
  -18.9042  -48.8593   -4.6401 O   0  0  0  0  0  0  0  0  0  0  0  0
  -18.7765  -46.6222   -5.2316 C   0  0  0  0  0  0  0  0  0  0  0  0
  -18.4365  -45.8361   -6.3546 O   0  0  0  0  0  0  0  0  0  0  0  0
  -18.7720  -44.4812   -6.3285 C   0  0  0  0  0  0  0  0  0  0  0  0
  -19.8275  -43.9977   -5.6127 C   0  0  0  0  0  0  0  0  0  0  0  0
  -20.1756  -42.6248   -5.5797 C   0  0  0  0  0  0  0  0  0  0  0  0
  -19.4248  -41.7012   -6.2989 C   0  0  0  0  0  0  0  0  0  0  0  0
  -18.3556  -42.1635   -7.0317 C   0  0  0  0  0  0  0  0  0  0  0  0
  -18.0495  -43.5484   -7.0305 C   0  0  0  0  0  0  0  0  0  0  0  0
  -17.3912  -41.4603   -7.9118 C   0  0  0  0  0  0  0  0  0  0  0  0
  -16.1516  -41.8300   -7.7130 O   0  0  0  0  0  0  0  0  0  0  0  0
  -17.6267  -40.4708   -8.9129 N   0  0  0  0  0  0  0  0  0  0  0  0
  -18.5973  -40.5097   -9.9811 C   0  0  1  0  0  0  0  0  0  0  0  0
  -19.3102  -39.1637  -10.1757 C   0  0  0  0  0  0  0  0  0  0  0  0
  -20.6776  -39.1384   -9.5705 C   0  0  0  0  0  0  0  0  0  0  0  0
  -21.0857  -38.9047   -8.2802 C   0  0  0  0  0  0  0  0  0  0  0  0
  -22.4133  -38.9338   -7.9788 C   0  0  0  0  0  0  0  0  0  0  0  0
  -23.1495  -38.7275   -6.6998 C   0  0  0  0  0  0  0  0  0  0  0  0
  -23.5871  -40.0292   -6.0684 C   0  0  0  0  0  0  0  0  0  0  0  0
  -22.5921  -40.3528   -4.9605 C   0  0  0  0  0  0  0  0  0  0  0  0
  -22.5310  -41.8497   -4.8393 C   0  0  0  0  0  0  0  0  0  0  0  0
  -21.2789  -42.4191   -4.7826 O   0  0  0  0  0  0  0  0  0  0  0  0
  -23.3511  -39.2066   -9.0081 C   0  0  0  0  0  0  0  0  0  0  0  0
  -23.0097  -39.4480  -10.3100 C   0  0  0  0  0  0  0  0  0  0  0  0
  -21.6673  -39.4055  -10.5519 C   0  0  0  0  0  0  0  0  0  0  0  0
  -17.8122  -40.7374  -11.2771 C   0  0  2  0  0  0  0  0  0  0  0  0
  -18.6022  -41.3474  -12.2416 O   0  0  0  0  0  0  0  0  0  0  0  0
  -16.5886  -41.5780  -11.1012 C   0  0  0  0  0  0  0  0  0  0  0  0
  -15.5950  -40.8755  -10.3582 N   0  0  0  0  0  0  0  0  0  0  0  0
  -14.6886  -40.0802  -11.0677 C   0  0  0  0  0  0  0  0  0  0  0  0
  -14.9480  -38.6545  -11.1647 C   0  0  0  0  0  0  0  0  0  0  0  0
  -14.1638  -37.7498  -10.4921 C   0  0  0  0  0  0  0  0  0  0  0  0
  -14.3901  -36.3765  -10.5752 C   0  0  0  0  0  0  0  0  0  0  0  0
  -15.4421  -35.9604  -11.3685 C   0  0  0  0  0  0  0  0  0  0  0  0
  -16.1999  -36.8886  -12.0223 C   0  0  0  0  0  0  0  0  0  0  0  0
  -15.9445  -38.1860  -11.9106 N   0  0  0  0  0  0  0  0  0  0  0  0
  -13.5740  -35.3610   -9.8673 C   0  0  0  0  0  0  0  0  0  0  0  0
  -13.2972  -35.7597   -8.4347 C   0  0  0  0  0  0  0  0  0  0  0  0
  -14.1343  -33.9712   -9.9292 C   0  0  0  0  0  0  0  0  0  0  0  0
  -12.2061  -35.3134  -10.5593 C   0  0  0  0  0  0  0  0  0  0  0  0
  1  2  1  0
  2  3  2  0
  2  4  1  0
  4  5  1  0
  5  6  1  0
  6  7  2  0
  7  8  1  0
  8  9  2  0
  9 10  1  0
 10 11  2  0
 10 12  1  0
 12 13  2  0
 12 14  1  0
 14 15  1  0
 15 16  1  6
 16 17  1  0
 17 18  1  0
 18 19  2  0
 19 20  1  0
 20 21  1  0
 21 22  1  0
 22 23  1  0
 23 24  1  0
 19 25  1  0
 25 26  2  0
 26 27  1  0
 15 28  1  0
 28 29  1  6
 28 30  1  0
 30 31  1  0
 31 32  1  0
 32 33  1  0
 33 34  2  0
 34 35  1  0
 35 36  2  0
 36 37  1  0
 37 38  2  0
 35 39  1  0
 39 40  1  0
 39 41  1  0
 39 42  1  0
 11  6  1  0
 24  8  1  0
 27 17  2  0
 38 33  1  0
M  END
$$$$
