
     RDKit          3D

 42 45  0  0  0  0  0  0  0  0999 V2000
  -16.1193  -47.3990  -10.8205 C   0  0  0  0  0  0  0  0  0  0  0  0
  -17.5677  -47.2647  -11.1183 C   0  0  0  0  0  0  0  0  0  0  0  0
  -18.1979  -48.2642  -11.3887 O   0  0  0  0  0  0  0  0  0  0  0  0
  -18.2439  -45.9663  -11.0914 C   0  0  0  0  0  0  0  0  0  0  0  0
  -17.4853  -44.9560  -10.4604 O   0  0  0  0  0  0  0  0  0  0  0  0
  -18.0661  -44.2780   -9.3871 C   0  0  0  0  0  0  0  0  0  0  0  0
  -19.3445  -44.5119   -8.9733 C   0  0  0  0  0  0  0  0  0  0  0  0
  -19.9423  -43.8296   -7.8852 C   0  0  0  0  0  0  0  0  0  0  0  0
  -19.2177  -42.8716   -7.1845 C   0  0  0  0  0  0  0  0  0  0  0  0
  -17.9258  -42.6148   -7.5833 C   0  0  0  0  0  0  0  0  0  0  0  0
  -17.3744  -43.3264   -8.6792 C   0  0  0  0  0  0  0  0  0  0  0  0
  -16.9149  -41.6545   -7.0780 C   0  0  0  0  0  0  0  0  0  0  0  0
  -15.7246  -42.1832   -6.9495 O   0  0  0  0  0  0  0  0  0  0  0  0
  -17.0615  -40.2787   -6.7280 N   0  0  0  0  0  0  0  0  0  0  0  0
  -17.6910  -39.2338   -7.5001 C   0  0  1  0  0  0  0  0  0  0  0  0
  -18.5690  -38.3150   -6.6384 C   0  0  0  0  0  0  0  0  0  0  0  0
  -20.0266  -38.6287   -6.7547 C   0  0  0  0  0  0  0  0  0  0  0  0
  -20.7966  -39.5730   -6.1210 C   0  0  0  0  0  0  0  0  0  0  0  0
  -22.1263  -39.6560   -6.4024 C   0  0  0  0  0  0  0  0  0  0  0  0
  -23.1985  -40.5564   -5.8923 C   0  0  0  0  0  0  0  0  0  0  0  0
  -23.5322  -41.6656   -6.8632 C   0  0  0  0  0  0  0  0  0  0  0  0
  -22.8213  -42.9228   -6.3772 C   0  0  0  0  0  0  0  0  0  0  0  0
  -22.5121  -43.7568   -7.5889 C   0  0  0  0  0  0  0  0  0  0  0  0
  -21.2348  -44.2605   -7.6884 O   0  0  0  0  0  0  0  0  0  0  0  0
  -22.6909  -38.7620   -7.3486 C   0  0  0  0  0  0  0  0  0  0  0  0
  -21.9794  -37.8019   -8.0133 C   0  0  0  0  0  0  0  0  0  0  0  0
  -20.6540  -37.7659   -7.6907 C   0  0  0  0  0  0  0  0  0  0  0  0
  -16.5641  -38.3362   -8.0217 C   0  0  2  0  0  0  0  0  0  0  0  0
  -17.0573  -37.1148   -8.4592 O   0  0  0  0  0  0  0  0  0  0  0  0
  -15.7874  -38.9368   -9.1489 C   0  0  0  0  0  0  0  0  0  0  0  0
  -14.9379  -39.9806   -8.6780 N   0  0  0  0  0  0  0  0  0  0  0  0
  -13.5550  -39.7952   -8.7821 C   0  0  0  0  0  0  0  0  0  0  0  0
  -13.0554  -38.8602   -9.7748 C   0  0  0  0  0  0  0  0  0  0  0  0
  -12.9567  -39.2230  -11.0955 C   0  0  0  0  0  0  0  0  0  0  0  0
  -12.4859  -38.3404  -12.0668 C   0  0  0  0  0  0  0  0  0  0  0  0
  -12.1216  -37.0767  -11.6432 C   0  0  0  0  0  0  0  0  0  0  0  0
  -12.2335  -36.7517  -10.3222 C   0  0  0  0  0  0  0  0  0  0  0  0
  -12.6873  -37.6282   -9.4351 N   0  0  0  0  0  0  0  0  0  0  0  0
  -12.3587  -38.6850  -13.5034 C   0  0  0  0  0  0  0  0  0  0  0  0
  -13.2251  -37.8017  -14.3733 C   0  0  0  0  0  0  0  0  0  0  0  0
  -12.6037  -40.1322  -13.8116 C   0  0  0  0  0  0  0  0  0  0  0  0
  -10.9118  -38.3877  -13.9163 C   0  0  0  0  0  0  0  0  0  0  0  0
  1  2  1  0
  2  3  2  0
  2  4  1  0
  4  5  1  0
  5  6  1  0
  6  7  2  0
  7  8  1  0
  8  9  2  0
  9 10  1  0
 10 11  2  0
 10 12  1  0
 12 13  2  0
 12 14  1  0
 14 15  1  0
 15 16  1  1
 16 17  1  0
 17 18  1  0
 18 19  2  0
 19 20  1  0
 20 21  1  0
 21 22  1  0
 22 23  1  0
 23 24  1  0
 19 25  1  0
 25 26  2  0
 26 27  1  0
 15 28  1  0
 28 29  1  6
 28 30  1  0
 30 31  1  0
 31 32  1  0
 32 33  1  0
 33 34  2  0
 34 35  1  0
 35 36  2  0
 36 37  1  0
 37 38  2  0
 35 39  1  0
 39 40  1  0
 39 41  1  0
 39 42  1  0
 11  6  1  0
 24  8  1  0
 27 17  2  0
 38 33  1  0
M  END
$$$$
