
     RDKit          3D

 42 45  0  0  0  0  0  0  0  0999 V2000
  -15.6494  -44.5284  -12.4542 C   0  0  0  0  0  0  0  0  0  0  0  0
  -15.5725  -45.0666  -11.0725 C   0  0  0  0  0  0  0  0  0  0  0  0
  -14.5655  -44.8655  -10.4285 O   0  0  0  0  0  0  0  0  0  0  0  0
  -16.6745  -45.8251  -10.4774 C   0  0  0  0  0  0  0  0  0  0  0  0
  -17.8974  -45.1189  -10.4709 O   0  0  0  0  0  0  0  0  0  0  0  0
  -18.3271  -44.5692   -9.2617 C   0  0  0  0  0  0  0  0  0  0  0  0
  -19.4690  -44.9723   -8.6340 C   0  0  0  0  0  0  0  0  0  0  0  0
  -19.9129  -44.4210   -7.4069 C   0  0  0  0  0  0  0  0  0  0  0  0
  -19.1713  -43.4212   -6.7868 C   0  0  0  0  0  0  0  0  0  0  0  0
  -18.0159  -42.9945   -7.4007 C   0  0  0  0  0  0  0  0  0  0  0  0
  -17.6157  -43.5799   -8.6289 C   0  0  0  0  0  0  0  0  0  0  0  0
  -17.0334  -41.9489   -7.0255 C   0  0  0  0  0  0  0  0  0  0  0  0
  -15.7917  -42.3399   -7.1605 O   0  0  0  0  0  0  0  0  0  0  0  0
  -17.2538  -40.6194   -6.5558 N   0  0  0  0  0  0  0  0  0  0  0  0
  -18.1280  -39.6180   -7.1189 C   0  0  1  0  0  0  0  0  0  0  0  0
  -18.9142  -38.8535   -6.0440 C   0  0  0  0  0  0  0  0  0  0  0  0
  -20.3251  -39.3301   -5.9079 C   0  0  0  0  0  0  0  0  0  0  0  0
  -20.8533  -40.3892   -5.2112 C   0  0  0  0  0  0  0  0  0  0  0  0
  -22.1960  -40.6135   -5.2440 C   0  0  0  0  0  0  0  0  0  0  0  0
  -23.0475  -41.6584   -4.6087 C   0  0  0  0  0  0  0  0  0  0  0  0
  -23.4443  -42.7485   -5.5775 C   0  0  0  0  0  0  0  0  0  0  0  0
  -22.5238  -43.9365   -5.3253 C   0  0  0  0  0  0  0  0  0  0  0  0
  -22.3693  -44.6658   -6.6304 C   0  0  0  0  0  0  0  0  0  0  0  0
  -21.0897  -45.0103   -7.0033 O   0  0  0  0  0  0  0  0  0  0  0  0
  -23.0247  -39.7453   -6.0008 C   0  0  0  0  0  0  0  0  0  0  0  0
  -22.5613  -38.6758   -6.7157 C   0  0  0  0  0  0  0  0  0  0  0  0
  -21.2098  -38.5007   -6.6451 C   0  0  0  0  0  0  0  0  0  0  0  0
  -17.2251  -38.5689   -7.7760 C   0  0  2  0  0  0  0  0  0  0  0  0
  -17.9470  -37.4387   -8.1337 O   0  0  0  0  0  0  0  0  0  0  0  0
  -16.5227  -39.0597   -9.0009 C   0  0  0  0  0  0  0  0  0  0  0  0
  -15.6737  -40.1620   -8.6895 N   0  0  0  0  0  0  0  0  0  0  0  0
  -14.4140  -40.2089   -9.2964 C   0  0  0  0  0  0  0  0  0  0  0  0
  -14.2120  -39.4673  -10.5288 C   0  0  0  0  0  0  0  0  0  0  0  0
  -13.8899  -38.1327  -10.5015 C   0  0  0  0  0  0  0  0  0  0  0  0
  -13.6854  -37.4022  -11.6714 C   0  0  0  0  0  0  0  0  0  0  0  0
  -13.8198  -38.0812  -12.8672 C   0  0  0  0  0  0  0  0  0  0  0  0
  -14.1408  -39.4078  -12.8552 C   0  0  0  0  0  0  0  0  0  0  0  0
  -14.3262  -40.0595  -11.7142 N   0  0  0  0  0  0  0  0  0  0  0  0
  -13.3385  -35.9607  -11.6945 C   0  0  0  0  0  0  0  0  0  0  0  0
  -11.8435  -35.7400  -11.6340 C   0  0  0  0  0  0  0  0  0  0  0  0
  -14.0351  -35.1449  -10.6464 C   0  0  0  0  0  0  0  0  0  0  0  0
  -13.7880  -35.4062  -13.0520 C   0  0  0  0  0  0  0  0  0  0  0  0
  1  2  1  0
  2  3  2  0
  2  4  1  0
  4  5  1  0
  5  6  1  0
  6  7  2  0
  7  8  1  0
  8  9  2  0
  9 10  1  0
 10 11  2  0
 10 12  1  0
 12 13  2  0
 12 14  1  0
 14 15  1  0
 15 16  1  1
 16 17  1  0
 17 18  1  0
 18 19  2  0
 19 20  1  0
 20 21  1  0
 21 22  1  0
 22 23  1  0
 23 24  1  0
 19 25  1  0
 25 26  2  0
 26 27  1  0
 15 28  1  0
 28 29  1  6
 28 30  1  0
 30 31  1  0
 31 32  1  0
 32 33  1  0
 33 34  2  0
 34 35  1  0
 35 36  2  0
 36 37  1  0
 37 38  2  0
 35 39  1  0
 39 40  1  0
 39 41  1  0
 39 42  1  0
 11  6  1  0
 24  8  1  0
 27 17  2  0
 38 33  1  0
M  END
$$$$
