
     RDKit          3D

 42 45  0  0  0  0  0  0  0  0999 V2000
  -18.8489  -45.5619  -12.8267 C   0  0  0  0  0  0  0  0  0  0  0  0
  -17.8625  -44.6170  -13.4085 C   0  0  0  0  0  0  0  0  0  0  0  0
  -17.2649  -44.9481  -14.4097 O   0  0  0  0  0  0  0  0  0  0  0  0
  -17.5998  -43.3082  -12.8068 C   0  0  0  0  0  0  0  0  0  0  0  0
  -18.7664  -42.6684  -12.3332 O   0  0  0  0  0  0  0  0  0  0  0  0
  -19.0110  -42.6913  -10.9589 C   0  0  0  0  0  0  0  0  0  0  0  0
  -20.0653  -43.3601  -10.4097 C   0  0  0  0  0  0  0  0  0  0  0  0
  -20.3215  -43.3895   -9.0167 C   0  0  0  0  0  0  0  0  0  0  0  0
  -19.4763  -42.7161   -8.1414 C   0  0  0  0  0  0  0  0  0  0  0  0
  -18.4061  -42.0312   -8.6702 C   0  0  0  0  0  0  0  0  0  0  0  0
  -18.1942  -42.0338  -10.0726 C   0  0  0  0  0  0  0  0  0  0  0  0
  -17.3550  -41.2053   -8.0282 C   0  0  0  0  0  0  0  0  0  0  0  0
  -16.1541  -41.4599   -8.4821 O   0  0  0  0  0  0  0  0  0  0  0  0
  -17.4746  -40.2035   -7.0188 N   0  0  0  0  0  0  0  0  0  0  0  0
  -18.3924  -39.0896   -6.9853 C   0  0  1  0  0  0  0  0  0  0  0  0
  -19.0030  -38.8738   -5.5930 C   0  0  0  0  0  0  0  0  0  0  0  0
  -20.3934  -39.4127   -5.4792 C   0  0  0  0  0  0  0  0  0  0  0  0
  -20.8471  -40.6841   -5.2266 C   0  0  0  0  0  0  0  0  0  0  0  0
  -22.1869  -40.9209   -5.1678 C   0  0  0  0  0  0  0  0  0  0  0  0
  -22.9689  -42.1650   -4.9204 C   0  0  0  0  0  0  0  0  0  0  0  0
  -23.5231  -42.7621   -6.1934 C   0  0  0  0  0  0  0  0  0  0  0  0
  -22.6071  -43.9134   -6.5906 C   0  0  0  0  0  0  0  0  0  0  0  0
  -22.6528  -44.0230   -8.0889 C   0  0  0  0  0  0  0  0  0  0  0  0
  -21.4460  -44.1345   -8.7419 O   0  0  0  0  0  0  0  0  0  0  0  0
  -23.0896  -39.8451   -5.3701 C   0  0  0  0  0  0  0  0  0  0  0  0
  -22.7022  -38.5590   -5.6259 C   0  0  0  0  0  0  0  0  0  0  0  0
  -21.3499  -38.3823   -5.6726 C   0  0  0  0  0  0  0  0  0  0  0  0
  -17.5623  -37.8307   -7.2574 C   0  0  2  0  0  0  0  0  0  0  0  0
  -18.2076  -36.9877   -8.1515 O   0  0  0  0  0  0  0  0  0  0  0  0
  -16.2015  -38.1130   -7.8081 C   0  0  0  0  0  0  0  0  0  0  0  0
  -16.2917  -38.8453   -9.0282 N   0  0  0  0  0  0  0  0  0  0  0  0
  -16.1016  -38.1469  -10.2255 C   0  0  0  0  0  0  0  0  0  0  0  0
  -14.8692  -38.3620  -10.9633 C   0  0  0  0  0  0  0  0  0  0  0  0
  -13.7285  -37.6672  -10.6445 C   0  0  0  0  0  0  0  0  0  0  0  0
  -12.5326  -37.8616  -11.3347 C   0  0  0  0  0  0  0  0  0  0  0  0
  -12.5423  -38.7893  -12.3586 C   0  0  0  0  0  0  0  0  0  0  0  0
  -13.6950  -39.4611  -12.6469 C   0  0  0  0  0  0  0  0  0  0  0  0
  -14.8090  -39.2400  -11.9605 N   0  0  0  0  0  0  0  0  0  0  0  0
  -11.2763  -37.1352  -11.0303 C   0  0  0  0  0  0  0  0  0  0  0  0
  -10.2435  -37.3150  -12.1205 C   0  0  0  0  0  0  0  0  0  0  0  0
  -10.6893  -37.4595   -9.6888 C   0  0  0  0  0  0  0  0  0  0  0  0
  -11.6090  -35.6381  -11.0129 C   0  0  0  0  0  0  0  0  0  0  0  0
  1  2  1  0
  2  3  2  0
  2  4  1  0
  4  5  1  0
  5  6  1  0
  6  7  2  0
  7  8  1  0
  8  9  2  0
  9 10  1  0
 10 11  2  0
 10 12  1  0
 12 13  2  0
 12 14  1  0
 14 15  1  0
 15 16  1  1
 16 17  1  0
 17 18  1  0
 18 19  2  0
 19 20  1  0
 20 21  1  0
 21 22  1  0
 22 23  1  0
 23 24  1  0
 19 25  1  0
 25 26  2  0
 26 27  1  0
 15 28  1  0
 28 29  1  6
 28 30  1  0
 30 31  1  0
 31 32  1  0
 32 33  1  0
 33 34  2  0
 34 35  1  0
 35 36  2  0
 36 37  1  0
 37 38  2  0
 35 39  1  0
 39 40  1  0
 39 41  1  0
 39 42  1  0
 11  6  1  0
 24  8  1  0
 27 17  2  0
 38 33  1  0
M  END
$$$$
