
     RDKit          3D

 42 45  0  0  0  0  0  0  0  0999 V2000
  -20.1146  -49.2835   -6.6232 C   0  0  0  0  0  0  0  0  0  0  0  0
  -19.0149  -48.3331   -6.3200 C   0  0  0  0  0  0  0  0  0  0  0  0
  -18.6184  -48.2525   -5.1774 O   0  0  0  0  0  0  0  0  0  0  0  0
  -18.4049  -47.5018   -7.3595 C   0  0  0  0  0  0  0  0  0  0  0  0
  -19.3075  -46.5836   -7.9397 O   0  0  0  0  0  0  0  0  0  0  0  0
  -19.3961  -45.3100   -7.3748 C   0  0  0  0  0  0  0  0  0  0  0  0
  -20.4628  -44.9096   -6.6250 C   0  0  0  0  0  0  0  0  0  0  0  0
  -20.5615  -43.6198   -6.0474 C   0  0  0  0  0  0  0  0  0  0  0  0
  -19.5390  -42.6959   -6.2338 C   0  0  0  0  0  0  0  0  0  0  0  0
  -18.4521  -43.0740   -6.9886 C   0  0  0  0  0  0  0  0  0  0  0  0
  -18.4024  -44.3779   -7.5445 C   0  0  0  0  0  0  0  0  0  0  0  0
  -17.2325  -42.3337   -7.3931 C   0  0  0  0  0  0  0  0  0  0  0  0
  -16.1366  -43.0354   -7.2532 O   0  0  0  0  0  0  0  0  0  0  0  0
  -17.0995  -41.0059   -7.8991 N   0  0  0  0  0  0  0  0  0  0  0  0
  -17.8472  -40.3905   -8.9698 C   0  0  1  0  0  0  0  0  0  0  0  0
  -18.2614  -38.9484   -8.6432 C   0  0  0  0  0  0  0  0  0  0  0  0
  -19.6904  -38.8375   -8.2164 C   0  0  0  0  0  0  0  0  0  0  0  0
  -20.2818  -39.0387   -6.9933 C   0  0  0  0  0  0  0  0  0  0  0  0
  -21.6259  -38.8665   -6.8595 C   0  0  0  0  0  0  0  0  0  0  0  0
  -22.5372  -39.0094   -5.6893 C   0  0  0  0  0  0  0  0  0  0  0  0
  -23.3080  -40.3093   -5.7123 C   0  0  0  0  0  0  0  0  0  0  0  0
  -22.6083  -41.2683   -4.7567 C   0  0  0  0  0  0  0  0  0  0  0  0
  -22.8375  -42.6604   -5.2750 C   0  0  0  0  0  0  0  0  0  0  0  0
  -21.7388  -43.4868   -5.3463 O   0  0  0  0  0  0  0  0  0  0  0  0
  -22.3907  -38.4819   -7.9912 C   0  0  0  0  0  0  0  0  0  0  0  0
  -21.8630  -38.2673   -9.2342 C   0  0  0  0  0  0  0  0  0  0  0  0
  -20.5132  -38.4544   -9.3074 C   0  0  0  0  0  0  0  0  0  0  0  0
  -16.8893  -40.2716  -10.1599 C   0  0  2  0  0  0  0  0  0  0  0  0
  -17.3704  -40.9644  -11.2622 O   0  0  0  0  0  0  0  0  0  0  0  0
  -15.5112  -40.7775   -9.8777 C   0  0  0  0  0  0  0  0  0  0  0  0
  -14.5992  -40.3500  -10.8868 N   0  0  0  0  0  0  0  0  0  0  0  0
  -13.2889  -40.0493  -10.4990 C   0  0  0  0  0  0  0  0  0  0  0  0
  -12.8784  -38.6564  -10.4709 C   0  0  0  0  0  0  0  0  0  0  0  0
  -13.6366  -37.6875  -11.0809 C   0  0  0  0  0  0  0  0  0  0  0  0
  -13.2656  -36.3437  -11.0616 C   0  0  0  0  0  0  0  0  0  0  0  0
  -12.0965  -36.0245  -10.3979 C   0  0  0  0  0  0  0  0  0  0  0  0
  -11.3689  -37.0144   -9.8031 C   0  0  0  0  0  0  0  0  0  0  0  0
  -11.7641  -38.2803   -9.8498 N   0  0  0  0  0  0  0  0  0  0  0  0
  -14.0482  -35.2618  -11.7064 C   0  0  0  0  0  0  0  0  0  0  0  0
  -13.2136  -34.0209  -11.9327 C   0  0  0  0  0  0  0  0  0  0  0  0
  -15.3226  -34.9179  -10.9944 C   0  0  0  0  0  0  0  0  0  0  0  0
  -14.4461  -35.7579  -13.1022 C   0  0  0  0  0  0  0  0  0  0  0  0
  1  2  1  0
  2  3  2  0
  2  4  1  0
  4  5  1  0
  5  6  1  0
  6  7  2  0
  7  8  1  0
  8  9  2  0
  9 10  1  0
 10 11  2  0
 10 12  1  0
 12 13  2  0
 12 14  1  0
 14 15  1  0
 15 16  1  1
 16 17  1  0
 17 18  1  0
 18 19  2  0
 19 20  1  0
 20 21  1  0
 21 22  1  0
 22 23  1  0
 23 24  1  0
 19 25  1  0
 25 26  2  0
 26 27  1  0
 15 28  1  0
 28 29  1  6
 28 30  1  0
 30 31  1  0
 31 32  1  0
 32 33  1  0
 33 34  2  0
 34 35  1  0
 35 36  2  0
 36 37  1  0
 37 38  2  0
 35 39  1  0
 39 40  1  0
 39 41  1  0
 39 42  1  0
 11  6  1  0
 24  8  1  0
 27 17  2  0
 38 33  1  0
M  END
$$$$
