
     RDKit          3D

 42 45  0  0  0  0  0  0  0  0999 V2000
  -14.4323  -43.5311  -10.4624 C   0  0  0  0  0  0  0  0  0  0  0  0
  -14.9141  -44.3443  -11.6074 C   0  0  0  0  0  0  0  0  0  0  0  0
  -14.6774  -45.5331  -11.6129 O   0  0  0  0  0  0  0  0  0  0  0  0
  -15.6614  -43.7486  -12.7167 C   0  0  0  0  0  0  0  0  0  0  0  0
  -17.0501  -43.9966  -12.6497 O   0  0  0  0  0  0  0  0  0  0  0  0
  -17.8786  -42.9580  -12.2209 C   0  0  0  0  0  0  0  0  0  0  0  0
  -18.5441  -42.1413  -13.0871 C   0  0  0  0  0  0  0  0  0  0  0  0
  -19.3872  -41.0853  -12.6617 C   0  0  0  0  0  0  0  0  0  0  0  0
  -19.5668  -40.8450  -11.3037 C   0  0  0  0  0  0  0  0  0  0  0  0
  -18.9044  -41.6534  -10.4083 C   0  0  0  0  0  0  0  0  0  0  0  0
  -18.0722  -42.6974  -10.8868 C   0  0  0  0  0  0  0  0  0  0  0  0
  -18.8590  -41.6455   -8.9260 C   0  0  0  0  0  0  0  0  0  0  0  0
  -18.9833  -42.8386   -8.4027 O   0  0  0  0  0  0  0  0  0  0  0  0
  -18.7008  -40.5492   -8.0261 N   0  0  0  0  0  0  0  0  0  0  0  0
  -17.7094  -39.5009   -8.0777 C   0  0  1  0  0  0  0  0  0  0  0  0
  -18.3023  -38.1168   -7.7767 C   0  0  0  0  0  0  0  0  0  0  0  0
  -18.5387  -37.3058   -9.0107 C   0  0  0  0  0  0  0  0  0  0  0  0
  -19.5857  -37.3050   -9.8994 C   0  0  0  0  0  0  0  0  0  0  0  0
  -19.5663  -36.4525  -10.9611 C   0  0  0  0  0  0  0  0  0  0  0  0
  -20.5312  -36.2240  -12.0733 C   0  0  0  0  0  0  0  0  0  0  0  0
  -20.0977  -36.8875  -13.3602 C   0  0  0  0  0  0  0  0  0  0  0  0
  -20.8913  -38.1816  -13.4930 C   0  0  0  0  0  0  0  0  0  0  0  0
  -20.0354  -39.1531  -14.2565 C   0  0  0  0  0  0  0  0  0  0  0  0
  -19.9278  -40.4256  -13.7421 O   0  0  0  0  0  0  0  0  0  0  0  0
  -18.4600  -35.5798  -11.1281 C   0  0  0  0  0  0  0  0  0  0  0  0
  -17.3879  -35.5325  -10.2807 C   0  0  0  0  0  0  0  0  0  0  0  0
  -17.4631  -36.4079   -9.2365 C   0  0  0  0  0  0  0  0  0  0  0  0
  -16.7263  -39.7722   -6.9342 C   0  0  2  0  0  0  0  0  0  0  0  0
  -15.4467  -40.0076   -7.4178 O   0  0  0  0  0  0  0  0  0  0  0  0
  -17.1043  -40.9375   -6.0776 C   0  0  0  0  0  0  0  0  0  0  0  0
  -17.5804  -40.4981   -4.8075 N   0  0  0  0  0  0  0  0  0  0  0  0
  -18.4729  -41.3283   -4.1208 C   0  0  0  0  0  0  0  0  0  0  0  0
  -19.6905  -41.7429   -4.7955 C   0  0  0  0  0  0  0  0  0  0  0  0
  -20.7524  -40.8815   -4.9219 C   0  0  0  0  0  0  0  0  0  0  0  0
  -21.9285  -41.2552   -5.5708 C   0  0  0  0  0  0  0  0  0  0  0  0
  -21.9815  -42.5363   -6.0859 C   0  0  0  0  0  0  0  0  0  0  0  0
  -20.9063  -43.3646   -5.9412 C   0  0  0  0  0  0  0  0  0  0  0  0
  -19.8083  -42.9618   -5.3142 N   0  0  0  0  0  0  0  0  0  0  0  0
  -23.1023  -40.3634   -5.7310 C   0  0  0  0  0  0  0  0  0  0  0  0
  -22.9555  -39.0896   -4.9289 C   0  0  0  0  0  0  0  0  0  0  0  0
  -24.4178  -41.0219   -5.4394 C   0  0  0  0  0  0  0  0  0  0  0  0
  -23.1461  -39.9286   -7.2012 C   0  0  0  0  0  0  0  0  0  0  0  0
  1  2  1  0
  2  3  2  0
  2  4  1  0
  4  5  1  0
  5  6  1  0
  6  7  2  0
  7  8  1  0
  8  9  2  0
  9 10  1  0
 10 11  2  0
 10 12  1  0
 12 13  2  0
 12 14  1  0
 14 15  1  0
 15 16  1  1
 16 17  1  0
 17 18  1  0
 18 19  2  0
 19 20  1  0
 20 21  1  0
 21 22  1  0
 22 23  1  0
 23 24  1  0
 19 25  1  0
 25 26  2  0
 26 27  1  0
 15 28  1  0
 28 29  1  6
 28 30  1  0
 30 31  1  0
 31 32  1  0
 32 33  1  0
 33 34  2  0
 34 35  1  0
 35 36  2  0
 36 37  1  0
 37 38  2  0
 35 39  1  0
 39 40  1  0
 39 41  1  0
 39 42  1  0
 11  6  1  0
 24  8  1  0
 27 17  2  0
 38 33  1  0
M  END
$$$$
