
     RDKit          3D

 42 45  0  0  0  0  0  0  0  0999 V2000
  -15.3525  -43.9404  -12.5332 C   0  0  0  0  0  0  0  0  0  0  0  0
  -16.7462  -44.4523  -12.5160 C   0  0  0  0  0  0  0  0  0  0  0  0
  -17.4202  -44.3289  -13.5158 O   0  0  0  0  0  0  0  0  0  0  0  0
  -17.3169  -45.0968  -11.3316 C   0  0  0  0  0  0  0  0  0  0  0  0
  -18.6971  -44.8445  -11.1706 O   0  0  0  0  0  0  0  0  0  0  0  0
  -19.1157  -44.2388   -9.9844 C   0  0  0  0  0  0  0  0  0  0  0  0
  -20.4073  -44.2872   -9.5489 C   0  0  0  0  0  0  0  0  0  0  0  0
  -20.8415  -43.6763   -8.3467 C   0  0  0  0  0  0  0  0  0  0  0  0
  -19.9323  -42.9888   -7.5500 C   0  0  0  0  0  0  0  0  0  0  0  0
  -18.6228  -42.9229   -7.9682 C   0  0  0  0  0  0  0  0  0  0  0  0
  -18.2400  -43.5523   -9.1801 C   0  0  0  0  0  0  0  0  0  0  0  0
  -17.4361  -42.2577   -7.3779 C   0  0  0  0  0  0  0  0  0  0  0  0
  -16.3683  -43.0144   -7.3834 O   0  0  0  0  0  0  0  0  0  0  0  0
  -17.3073  -40.9477   -6.8265 N   0  0  0  0  0  0  0  0  0  0  0  0
  -17.7372  -39.6987   -7.4092 C   0  0  1  0  0  0  0  0  0  0  0  0
  -18.4047  -38.7713   -6.3835 C   0  0  0  0  0  0  0  0  0  0  0  0
  -19.8974  -38.7836   -6.4749 C   0  0  0  0  0  0  0  0  0  0  0  0
  -20.8234  -39.6504   -5.9485 C   0  0  0  0  0  0  0  0  0  0  0  0
  -22.1492  -39.4379   -6.1758 C   0  0  0  0  0  0  0  0  0  0  0  0
  -23.3655  -40.1865   -5.7509 C   0  0  0  0  0  0  0  0  0  0  0  0
  -23.9255  -41.0537   -6.8548 C   0  0  0  0  0  0  0  0  0  0  0  0
  -23.4622  -42.4810   -6.5895 C   0  0  0  0  0  0  0  0  0  0  0  0
  -23.3427  -43.1660   -7.9220 C   0  0  0  0  0  0  0  0  0  0  0  0
  -22.1891  -43.8806   -8.1533 O   0  0  0  0  0  0  0  0  0  0  0  0
  -22.5477  -38.3213   -6.9554 C   0  0  0  0  0  0  0  0  0  0  0  0
  -21.6765  -37.4235   -7.5074 C   0  0  0  0  0  0  0  0  0  0  0  0
  -20.3633  -37.6870   -7.2459 C   0  0  0  0  0  0  0  0  0  0  0  0
  -16.4679  -38.9613   -7.8485 C   0  0  2  0  0  0  0  0  0  0  0  0
  -16.5254  -38.6202   -9.1926 O   0  0  0  0  0  0  0  0  0  0  0  0
  -15.2120  -39.7440   -7.6370 C   0  0  0  0  0  0  0  0  0  0  0  0
  -14.1942  -39.3212   -8.5416 N   0  0  0  0  0  0  0  0  0  0  0  0
  -13.8986  -40.1520   -9.6278 C   0  0  0  0  0  0  0  0  0  0  0  0
  -13.5412  -39.5351  -10.8932 C   0  0  0  0  0  0  0  0  0  0  0  0
  -13.5914  -38.1718  -11.0497 C   0  0  0  0  0  0  0  0  0  0  0  0
  -13.2470  -37.5571  -12.2529 C   0  0  0  0  0  0  0  0  0  0  0  0
  -12.8493  -38.3817  -13.2878 C   0  0  0  0  0  0  0  0  0  0  0  0
  -12.8116  -39.7325  -13.0954 C   0  0  0  0  0  0  0  0  0  0  0  0
  -13.1499  -40.2701  -11.9303 N   0  0  0  0  0  0  0  0  0  0  0  0
  -13.2869  -36.0912  -12.4721 C   0  0  0  0  0  0  0  0  0  0  0  0
  -12.8446  -35.3259  -11.2448 C   0  0  0  0  0  0  0  0  0  0  0  0
  -14.6079  -35.5799  -12.9649 C   0  0  0  0  0  0  0  0  0  0  0  0
  -12.2570  -35.7657  -13.5611 C   0  0  0  0  0  0  0  0  0  0  0  0
  1  2  1  0
  2  3  2  0
  2  4  1  0
  4  5  1  0
  5  6  1  0
  6  7  2  0
  7  8  1  0
  8  9  2  0
  9 10  1  0
 10 11  2  0
 10 12  1  0
 12 13  2  0
 12 14  1  0
 14 15  1  0
 15 16  1  1
 16 17  1  0
 17 18  1  0
 18 19  2  0
 19 20  1  0
 20 21  1  0
 21 22  1  0
 22 23  1  0
 23 24  1  0
 19 25  1  0
 25 26  2  0
 26 27  1  0
 15 28  1  0
 28 29  1  6
 28 30  1  0
 30 31  1  0
 31 32  1  0
 32 33  1  0
 33 34  2  0
 34 35  1  0
 35 36  2  0
 36 37  1  0
 37 38  2  0
 35 39  1  0
 39 40  1  0
 39 41  1  0
 39 42  1  0
 11  6  1  0
 24  8  1  0
 27 17  2  0
 38 33  1  0
M  END
$$$$
