
     RDKit          3D

 42 45  0  0  0  0  0  0  0  0999 V2000
  -23.1742  -40.1064   -5.6915 C   0  0  0  0  0  0  0  0  0  0  0  0
  -22.6026  -41.2558   -4.9454 C   0  0  0  0  0  0  0  0  0  0  0  0
  -22.9906  -41.4630   -3.8160 O   0  0  0  0  0  0  0  0  0  0  0  0
  -21.5930  -42.1353   -5.5381 C   0  0  0  0  0  0  0  0  0  0  0  0
  -21.9582  -42.6238   -6.8118 O   0  0  0  0  0  0  0  0  0  0  0  0
  -20.9426  -42.8311   -7.7471 C   0  0  0  0  0  0  0  0  0  0  0  0
  -20.6316  -44.0663   -8.2348 C   0  0  0  0  0  0  0  0  0  0  0  0
  -19.6034  -44.2866   -9.1841 C   0  0  0  0  0  0  0  0  0  0  0  0
  -18.8589  -43.2137   -9.6621 C   0  0  0  0  0  0  0  0  0  0  0  0
  -19.1509  -41.9567   -9.1840 C   0  0  0  0  0  0  0  0  0  0  0  0
  -20.1910  -41.7905   -8.2341 C   0  0  0  0  0  0  0  0  0  0  0  0
  -18.5399  -40.6343   -9.4619 C   0  0  0  0  0  0  0  0  0  0  0  0
  -19.4257  -39.6910   -9.6580 O   0  0  0  0  0  0  0  0  0  0  0  0
  -17.1633  -40.2658   -9.5387 N   0  0  0  0  0  0  0  0  0  0  0  0
  -16.1143  -40.5697   -8.5945 C   0  0  1  0  0  0  0  0  0  0  0  0
  -14.8087  -40.9923   -9.2834 C   0  0  0  0  0  0  0  0  0  0  0  0
  -14.5997  -42.4731   -9.2723 C   0  0  0  0  0  0  0  0  0  0  0  0
  -15.0835  -43.4558  -10.1008 C   0  0  0  0  0  0  0  0  0  0  0  0
  -14.7366  -44.7538   -9.8791 C   0  0  0  0  0  0  0  0  0  0  0  0
  -15.0943  -46.0156  -10.5864 C   0  0  0  0  0  0  0  0  0  0  0  0
  -16.1635  -46.8009   -9.8622 C   0  0  0  0  0  0  0  0  0  0  0  0
  -17.4862  -46.5213  -10.5655 C   0  0  0  0  0  0  0  0  0  0  0  0
  -18.5727  -46.6346   -9.5331 C   0  0  0  0  0  0  0  0  0  0  0  0
  -19.5062  -45.6233   -9.4983 O   0  0  0  0  0  0  0  0  0  0  0  0
  -13.8796  -45.0653   -8.7920 C   0  0  0  0  0  0  0  0  0  0  0  0
  -13.3658  -44.1349   -7.9317 C   0  0  0  0  0  0  0  0  0  0  0  0
  -13.7472  -42.8531   -8.2032 C   0  0  0  0  0  0  0  0  0  0  0  0
  -15.7805  -39.2587   -7.8749 C   0  0  2  0  0  0  0  0  0  0  0  0
  -15.1566  -39.4988   -6.6585 O   0  0  0  0  0  0  0  0  0  0  0  0
  -16.9727  -38.3979   -7.6060 C   0  0  0  0  0  0  0  0  0  0  0  0
  -17.1564  -37.4473   -8.6527 N   0  0  0  0  0  0  0  0  0  0  0  0
  -17.2859  -37.9304   -9.9594 C   0  0  0  0  0  0  0  0  0  0  0  0
  -17.6871  -37.0033  -11.0029 C   0  0  0  0  0  0  0  0  0  0  0  0
  -16.9696  -35.8564  -11.2384 C   0  0  0  0  0  0  0  0  0  0  0  0
  -17.3322  -34.9551  -12.2385 C   0  0  0  0  0  0  0  0  0  0  0  0
  -18.4501  -35.2661  -12.9888 C   0  0  0  0  0  0  0  0  0  0  0  0
  -19.1383  -36.4152  -12.7260 C   0  0  0  0  0  0  0  0  0  0  0  0
  -18.7530  -37.2415  -11.7618 N   0  0  0  0  0  0  0  0  0  0  0  0
  -16.5923  -33.7036  -12.5300 C   0  0  0  0  0  0  0  0  0  0  0  0
  -15.1098  -33.9518  -12.6979 C   0  0  0  0  0  0  0  0  0  0  0  0
  -16.8342  -32.6029  -11.5404 C   0  0  0  0  0  0  0  0  0  0  0  0
  -17.0861  -33.1887  -13.8877 C   0  0  0  0  0  0  0  0  0  0  0  0
  1  2  1  0
  2  3  2  0
  2  4  1  0
  4  5  1  0
  5  6  1  0
  6  7  2  0
  7  8  1  0
  8  9  2  0
  9 10  1  0
 10 11  2  0
 10 12  1  0
 12 13  2  0
 12 14  1  0
 14 15  1  0
 15 16  1  6
 16 17  1  0
 17 18  1  0
 18 19  2  0
 19 20  1  0
 20 21  1  0
 21 22  1  0
 22 23  1  0
 23 24  1  0
 19 25  1  0
 25 26  2  0
 26 27  1  0
 15 28  1  0
 28 29  1  1
 28 30  1  0
 30 31  1  0
 31 32  1  0
 32 33  1  0
 33 34  2  0
 34 35  1  0
 35 36  2  0
 36 37  1  0
 37 38  2  0
 35 39  1  0
 39 40  1  0
 39 41  1  0
 39 42  1  0
 11  6  1  0
 24  8  1  0
 27 17  2  0
 38 33  1  0
M  END
$$$$
