
     RDKit          3D

 42 45  0  0  0  0  0  0  0  0999 V2000
  -16.4284  -46.4390   -9.0463 C   0  0  0  0  0  0  0  0  0  0  0  0
  -17.8619  -46.7159   -8.7762 C   0  0  0  0  0  0  0  0  0  0  0  0
  -18.6444  -46.6697   -9.7007 O   0  0  0  0  0  0  0  0  0  0  0  0
  -18.3452  -47.0412   -7.4328 C   0  0  0  0  0  0  0  0  0  0  0  0
  -19.6233  -46.5081   -7.1562 O   0  0  0  0  0  0  0  0  0  0  0  0
  -19.6990  -45.1793   -6.7350 C   0  0  0  0  0  0  0  0  0  0  0  0
  -20.7551  -44.6915   -6.0229 C   0  0  0  0  0  0  0  0  0  0  0  0
  -20.8407  -43.3451   -5.5907 C   0  0  0  0  0  0  0  0  0  0  0  0
  -19.8155  -42.4541   -5.8891 C   0  0  0  0  0  0  0  0  0  0  0  0
  -18.7392  -42.9204   -6.6089 C   0  0  0  0  0  0  0  0  0  0  0  0
  -18.7024  -44.2781   -7.0174 C   0  0  0  0  0  0  0  0  0  0  0  0
  -17.5203  -42.2373   -7.1058 C   0  0  0  0  0  0  0  0  0  0  0  0
  -16.4265  -42.9262   -6.9006 O   0  0  0  0  0  0  0  0  0  0  0  0
  -17.3861  -40.9745   -7.7571 N   0  0  0  0  0  0  0  0  0  0  0  0
  -18.1425  -40.4766   -8.8815 C   0  0  1  0  0  0  0  0  0  0  0  0
  -18.5456  -39.0046   -8.7123 C   0  0  0  0  0  0  0  0  0  0  0  0
  -19.9691  -38.8380   -8.2852 C   0  0  0  0  0  0  0  0  0  0  0  0
  -20.5478  -38.8987   -7.0412 C   0  0  0  0  0  0  0  0  0  0  0  0
  -21.8894  -38.7041   -6.9131 C   0  0  0  0  0  0  0  0  0  0  0  0
  -22.7883  -38.7108   -5.7247 C   0  0  0  0  0  0  0  0  0  0  0  0
  -23.5659  -40.0003   -5.5953 C   0  0  0  0  0  0  0  0  0  0  0  0
  -22.8606  -40.8521   -4.5469 C   0  0  0  0  0  0  0  0  0  0  0  0
  -23.1028  -42.2915   -4.9053 C   0  0  0  0  0  0  0  0  0  0  0  0
  -22.0092  -43.1277   -4.8963 O   0  0  0  0  0  0  0  0  0  0  0  0
  -22.6648  -38.4424   -8.0722 C   0  0  0  0  0  0  0  0  0  0  0  0
  -22.1500  -38.3701   -9.3370 C   0  0  0  0  0  0  0  0  0  0  0  0
  -20.8021  -38.5727   -9.4032 C   0  0  0  0  0  0  0  0  0  0  0  0
  -17.1975  -40.4964  -10.0874 C   0  0  2  0  0  0  0  0  0  0  0  0
  -17.4771  -41.5661  -10.9264 O   0  0  0  0  0  0  0  0  0  0  0  0
  -15.7512  -40.5804   -9.7189 C   0  0  0  0  0  0  0  0  0  0  0  0
  -14.9784  -39.6651  -10.4921 N   0  0  0  0  0  0  0  0  0  0  0  0
  -13.8930  -39.0381   -9.8706 C   0  0  0  0  0  0  0  0  0  0  0  0
  -12.9958  -38.2390  -10.6866 C   0  0  0  0  0  0  0  0  0  0  0  0
  -13.2309  -36.9009  -10.8861 C   0  0  0  0  0  0  0  0  0  0  0  0
  -12.3803  -36.1128  -11.6603 C   0  0  0  0  0  0  0  0  0  0  0  0
  -11.2830  -36.7375  -12.2213 C   0  0  0  0  0  0  0  0  0  0  0  0
  -11.0815  -38.0695  -12.0011 C   0  0  0  0  0  0  0  0  0  0  0  0
  -11.9212  -38.7773  -11.2561 N   0  0  0  0  0  0  0  0  0  0  0  0
  -12.5920  -34.6661  -11.9070 C   0  0  0  0  0  0  0  0  0  0  0  0
  -11.8723  -33.8098  -10.8889 C   0  0  0  0  0  0  0  0  0  0  0  0
  -14.0336  -34.2652  -12.0089 C   0  0  0  0  0  0  0  0  0  0  0  0
  -11.9487  -34.3362  -13.2597 C   0  0  0  0  0  0  0  0  0  0  0  0
  1  2  1  0
  2  3  2  0
  2  4  1  0
  4  5  1  0
  5  6  1  0
  6  7  2  0
  7  8  1  0
  8  9  2  0
  9 10  1  0
 10 11  2  0
 10 12  1  0
 12 13  2  0
 12 14  1  0
 14 15  1  0
 15 16  1  1
 16 17  1  0
 17 18  1  0
 18 19  2  0
 19 20  1  0
 20 21  1  0
 21 22  1  0
 22 23  1  0
 23 24  1  0
 19 25  1  0
 25 26  2  0
 26 27  1  0
 15 28  1  0
 28 29  1  6
 28 30  1  0
 30 31  1  0
 31 32  1  0
 32 33  1  0
 33 34  2  0
 34 35  1  0
 35 36  2  0
 36 37  1  0
 37 38  2  0
 35 39  1  0
 39 40  1  0
 39 41  1  0
 39 42  1  0
 11  6  1  0
 24  8  1  0
 27 17  2  0
 38 33  1  0
M  END
$$$$
