
     RDKit          3D

 42 45  0  0  0  0  0  0  0  0999 V2000
  -19.5625  -47.2675  -10.7318 C   0  0  0  0  0  0  0  0  0  0  0  0
  -18.1941  -46.6995  -10.6342 C   0  0  0  0  0  0  0  0  0  0  0  0
  -17.2549  -47.3942  -10.9576 O   0  0  0  0  0  0  0  0  0  0  0  0
  -17.9573  -45.3338  -10.1625 C   0  0  0  0  0  0  0  0  0  0  0  0
  -17.7650  -44.4076  -11.2112 O   0  0  0  0  0  0  0  0  0  0  0  0
  -18.4292  -43.1824  -11.1298 C   0  0  0  0  0  0  0  0  0  0  0  0
  -18.8302  -42.4874  -12.2327 C   0  0  0  0  0  0  0  0  0  0  0  0
  -19.5050  -41.2439  -12.1603 C   0  0  0  0  0  0  0  0  0  0  0  0
  -19.7880  -40.6792  -10.9213 C   0  0  0  0  0  0  0  0  0  0  0  0
  -19.3918  -41.3591   -9.7923 C   0  0  0  0  0  0  0  0  0  0  0  0
  -18.7194  -42.6013   -9.9201 C   0  0  0  0  0  0  0  0  0  0  0  0
  -19.5122  -41.0253   -8.3524 C   0  0  0  0  0  0  0  0  0  0  0  0
  -19.9136  -42.0355   -7.6235 O   0  0  0  0  0  0  0  0  0  0  0  0
  -19.2552  -39.7934   -7.6791 N   0  0  0  0  0  0  0  0  0  0  0  0
  -18.0871  -38.9526   -7.7925 C   0  0  1  0  0  0  0  0  0  0  0  0
  -18.4429  -37.4608   -7.8694 C   0  0  0  0  0  0  0  0  0  0  0  0
  -18.3848  -36.9213   -9.2630 C   0  0  0  0  0  0  0  0  0  0  0  0
  -19.3072  -36.9561  -10.2799 C   0  0  0  0  0  0  0  0  0  0  0  0
  -19.0110  -36.3781  -11.4768 C   0  0  0  0  0  0  0  0  0  0  0  0
  -19.7859  -36.2571  -12.7438 C   0  0  0  0  0  0  0  0  0  0  0  0
  -19.3414  -37.2527  -13.7905 C   0  0  0  0  0  0  0  0  0  0  0  0
  -20.3414  -38.4025  -13.7763 C   0  0  0  0  0  0  0  0  0  0  0  0
  -19.6006  -39.6428  -14.1911 C   0  0  0  0  0  0  0  0  0  0  0  0
  -19.7892  -40.7676  -13.4202 O   0  0  0  0  0  0  0  0  0  0  0  0
  -17.7504  -35.7500  -11.6493 C   0  0  0  0  0  0  0  0  0  0  0  0
  -16.7901  -35.6823  -10.6782 C   0  0  0  0  0  0  0  0  0  0  0  0
  -17.1429  -36.2774   -9.5019 C   0  0  0  0  0  0  0  0  0  0  0  0
  -17.3060  -39.1105   -6.4839 C   0  0  2  0  0  0  0  0  0  0  0  0
  -15.9422  -39.2091   -6.7224 O   0  0  0  0  0  0  0  0  0  0  0  0
  -17.7092  -40.3054   -5.6813 C   0  0  0  0  0  0  0  0  0  0  0  0
  -18.3447  -39.9087   -4.4682 N   0  0  0  0  0  0  0  0  0  0  0  0
  -19.1455  -40.8495   -3.8115 C   0  0  0  0  0  0  0  0  0  0  0  0
  -20.1016  -41.6114   -4.5956 C   0  0  0  0  0  0  0  0  0  0  0  0
  -21.1827  -40.9963   -5.1773 C   0  0  0  0  0  0  0  0  0  0  0  0
  -22.1098  -41.7062   -5.9393 C   0  0  0  0  0  0  0  0  0  0  0  0
  -21.8940  -43.0629   -6.0869 C   0  0  0  0  0  0  0  0  0  0  0  0
  -20.8082  -43.6398   -5.4941 C   0  0  0  0  0  0  0  0  0  0  0  0
  -19.9537  -42.9206   -4.7774 N   0  0  0  0  0  0  0  0  0  0  0  0
  -23.2932  -41.0888   -6.5852 C   0  0  0  0  0  0  0  0  0  0  0  0
  -24.4228  -40.8732   -5.6027 C   0  0  0  0  0  0  0  0  0  0  0  0
  -23.7823  -41.8218   -7.7988 C   0  0  0  0  0  0  0  0  0  0  0  0
  -22.8765  -39.6899   -7.0563 C   0  0  0  0  0  0  0  0  0  0  0  0
  1  2  1  0
  2  3  2  0
  2  4  1  0
  4  5  1  0
  5  6  1  0
  6  7  2  0
  7  8  1  0
  8  9  2  0
  9 10  1  0
 10 11  2  0
 10 12  1  0
 12 13  2  0
 12 14  1  0
 14 15  1  0
 15 16  1  1
 16 17  1  0
 17 18  1  0
 18 19  2  0
 19 20  1  0
 20 21  1  0
 21 22  1  0
 22 23  1  0
 23 24  1  0
 19 25  1  0
 25 26  2  0
 26 27  1  0
 15 28  1  0
 28 29  1  6
 28 30  1  0
 30 31  1  0
 31 32  1  0
 32 33  1  0
 33 34  2  0
 34 35  1  0
 35 36  2  0
 36 37  1  0
 37 38  2  0
 35 39  1  0
 39 40  1  0
 39 41  1  0
 39 42  1  0
 11  6  1  0
 24  8  1  0
 27 17  2  0
 38 33  1  0
M  END
$$$$
