
     RDKit          3D

 42 45  0  0  0  0  0  0  0  0999 V2000
  -14.9917  -45.6783  -11.8638 C   0  0  0  0  0  0  0  0  0  0  0  0
  -15.6242  -44.5731  -11.1003 C   0  0  0  0  0  0  0  0  0  0  0  0
  -14.9598  -43.9868  -10.2733 O   0  0  0  0  0  0  0  0  0  0  0  0
  -17.0169  -44.1796  -11.3231 C   0  0  0  0  0  0  0  0  0  0  0  0
  -17.9322  -44.8868  -10.5129 O   0  0  0  0  0  0  0  0  0  0  0  0
  -18.4120  -44.2537   -9.3649 C   0  0  0  0  0  0  0  0  0  0  0  0
  -19.6281  -44.5420   -8.8187 C   0  0  0  0  0  0  0  0  0  0  0  0
  -20.1234  -43.9055   -7.6540 C   0  0  0  0  0  0  0  0  0  0  0  0
  -19.3573  -42.9379   -7.0131 C   0  0  0  0  0  0  0  0  0  0  0  0
  -18.1269  -42.6265   -7.5454 C   0  0  0  0  0  0  0  0  0  0  0  0
  -17.6777  -43.2938   -8.7135 C   0  0  0  0  0  0  0  0  0  0  0  0
  -17.0984  -41.6421   -7.1302 C   0  0  0  0  0  0  0  0  0  0  0  0
  -15.8843  -42.1307   -7.1476 O   0  0  0  0  0  0  0  0  0  0  0  0
  -17.2504  -40.2804   -6.7309 N   0  0  0  0  0  0  0  0  0  0  0  0
  -17.9961  -39.2420   -7.4016 C   0  0  1  0  0  0  0  0  0  0  0  0
  -18.8026  -38.3741   -6.4249 C   0  0  0  0  0  0  0  0  0  0  0  0
  -20.2529  -38.7370   -6.3876 C   0  0  0  0  0  0  0  0  0  0  0  0
  -20.9161  -39.7218   -5.6973 C   0  0  0  0  0  0  0  0  0  0  0  0
  -22.2654  -39.8459   -5.8322 C   0  0  0  0  0  0  0  0  0  0  0  0
  -23.2439  -40.7949   -5.2302 C   0  0  0  0  0  0  0  0  0  0  0  0
  -23.6468  -41.8937   -6.1866 C   0  0  0  0  0  0  0  0  0  0  0  0
  -22.8451  -43.1352   -5.8146 C   0  0  0  0  0  0  0  0  0  0  0  0
  -22.6453  -43.9308   -7.0740 C   0  0  0  0  0  0  0  0  0  0  0  0
  -21.3710  -44.3865   -7.3269 O   0  0  0  0  0  0  0  0  0  0  0  0
  -22.9609  -38.9521   -6.6870 C   0  0  0  0  0  0  0  0  0  0  0  0
  -22.3598  -37.9529   -7.4012 C   0  0  0  0  0  0  0  0  0  0  0  0
  -21.0086  -37.8768   -7.2261 C   0  0  0  0  0  0  0  0  0  0  0  0
  -16.9644  -38.2935   -8.0212 C   0  0  2  0  0  0  0  0  0  0  0  0
  -17.5799  -37.1956   -8.6062 O   0  0  0  0  0  0  0  0  0  0  0  0
  -16.1048  -38.9345   -9.0627 C   0  0  0  0  0  0  0  0  0  0  0  0
  -15.1120  -39.7616   -8.4600 N   0  0  0  0  0  0  0  0  0  0  0  0
  -14.1449  -40.3348   -9.2929 C   0  0  0  0  0  0  0  0  0  0  0  0
  -13.8363  -39.6758  -10.5498 C   0  0  0  0  0  0  0  0  0  0  0  0
  -13.3507  -38.3916  -10.5697 C   0  0  0  0  0  0  0  0  0  0  0  0
  -13.0416  -37.7412  -11.7637 C   0  0  0  0  0  0  0  0  0  0  0  0
  -13.2444  -38.4473  -12.9339 C   0  0  0  0  0  0  0  0  0  0  0  0
  -13.7285  -39.7222  -12.8752 C   0  0  0  0  0  0  0  0  0  0  0  0
  -14.0083  -40.2979  -11.7127 N   0  0  0  0  0  0  0  0  0  0  0  0
  -12.5175  -36.3561  -11.8377 C   0  0  0  0  0  0  0  0  0  0  0  0
  -11.0509  -36.3279  -12.2066 C   0  0  0  0  0  0  0  0  0  0  0  0
  -12.7675  -35.5386  -10.6055 C   0  0  0  0  0  0  0  0  0  0  0  0
  -13.2508  -35.6529  -12.9866 C   0  0  0  0  0  0  0  0  0  0  0  0
  1  2  1  0
  2  3  2  0
  2  4  1  0
  4  5  1  0
  5  6  1  0
  6  7  2  0
  7  8  1  0
  8  9  2  0
  9 10  1  0
 10 11  2  0
 10 12  1  0
 12 13  2  0
 12 14  1  0
 14 15  1  0
 15 16  1  1
 16 17  1  0
 17 18  1  0
 18 19  2  0
 19 20  1  0
 20 21  1  0
 21 22  1  0
 22 23  1  0
 23 24  1  0
 19 25  1  0
 25 26  2  0
 26 27  1  0
 15 28  1  0
 28 29  1  6
 28 30  1  0
 30 31  1  0
 31 32  1  0
 32 33  1  0
 33 34  2  0
 34 35  1  0
 35 36  2  0
 36 37  1  0
 37 38  2  0
 35 39  1  0
 39 40  1  0
 39 41  1  0
 39 42  1  0
 11  6  1  0
 24  8  1  0
 27 17  2  0
 38 33  1  0
M  END
$$$$
