
     RDKit          3D

 42 45  0  0  0  0  0  0  0  0999 V2000
  -19.6948  -38.2229  -15.8569 C   0  0  0  0  0  0  0  0  0  0  0  0
  -18.9904  -38.8652  -14.7185 C   0  0  0  0  0  0  0  0  0  0  0  0
  -18.4706  -39.9458  -14.8953 O   0  0  0  0  0  0  0  0  0  0  0  0
  -18.9096  -38.2282  -13.4026 C   0  0  0  0  0  0  0  0  0  0  0  0
  -20.1281  -38.2656  -12.6897 O   0  0  0  0  0  0  0  0  0  0  0  0
  -20.2685  -39.2270  -11.6872 C   0  0  0  0  0  0  0  0  0  0  0  0
  -21.4842  -39.6790  -11.2654 C   0  0  0  0  0  0  0  0  0  0  0  0
  -21.6368  -40.6544  -10.2494 C   0  0  0  0  0  0  0  0  0  0  0  0
  -20.5137  -41.1973   -9.6345 C   0  0  0  0  0  0  0  0  0  0  0  0
  -19.2747  -40.7564  -10.0401 C   0  0  0  0  0  0  0  0  0  0  0  0
  -19.1772  -39.7780  -11.0622 C   0  0  0  0  0  0  0  0  0  0  0  0
  -17.9093  -41.1040   -9.5776 C   0  0  0  0  0  0  0  0  0  0  0  0
  -17.0699  -41.3043  -10.5616 O   0  0  0  0  0  0  0  0  0  0  0  0
  -17.4057  -41.2419   -8.2494 N   0  0  0  0  0  0  0  0  0  0  0  0
  -17.5626  -40.3238   -7.1463 C   0  0  1  0  0  0  0  0  0  0  0  0
  -17.8775  -41.0412   -5.8256 C   0  0  0  0  0  0  0  0  0  0  0  0
  -19.3276  -40.9825   -5.4647 C   0  0  0  0  0  0  0  0  0  0  0  0
  -20.3871  -41.7568   -5.8695 C   0  0  0  0  0  0  0  0  0  0  0  0
  -21.6330  -41.4991   -5.3839 C   0  0  0  0  0  0  0  0  0  0  0  0
  -22.9522  -42.1464   -5.6309 C   0  0  0  0  0  0  0  0  0  0  0  0
  -23.8126  -41.3571   -6.5907 C   0  0  0  0  0  0  0  0  0  0  0  0
  -23.6980  -42.0242   -7.9560 C   0  0  0  0  0  0  0  0  0  0  0  0
  -23.8796  -40.9514   -8.9930 C   0  0  0  0  0  0  0  0  0  0  0  0
  -22.9682  -40.9220  -10.0244 O   0  0  0  0  0  0  0  0  0  0  0  0
  -21.8113  -40.4315   -4.4665 C   0  0  0  0  0  0  0  0  0  0  0  0
  -20.7993  -39.6245   -4.0255 C   0  0  0  0  0  0  0  0  0  0  0  0
  -19.5751  -39.9301   -4.5453 C   0  0  0  0  0  0  0  0  0  0  0  0
  -16.1965  -39.6653   -6.9278 C   0  0  2  0  0  0  0  0  0  0  0  0
  -16.1637  -38.3869   -7.4672 O   0  0  0  0  0  0  0  0  0  0  0  0
  -15.0565  -40.4313   -7.5180 C   0  0  0  0  0  0  0  0  0  0  0  0
  -13.8159  -39.7857   -7.2405 N   0  0  0  0  0  0  0  0  0  0  0  0
  -12.6985  -40.1658   -7.9918 C   0  0  0  0  0  0  0  0  0  0  0  0
  -12.9076  -40.9661   -9.1856 C   0  0  0  0  0  0  0  0  0  0  0  0
  -14.1603  -41.4204   -9.5170 C   0  0  0  0  0  0  0  0  0  0  0  0
  -14.3859  -42.1847  -10.6612 C   0  0  0  0  0  0  0  0  0  0  0  0
  -13.2899  -42.4670  -11.4538 C   0  0  0  0  0  0  0  0  0  0  0  0
  -12.0598  -41.9983  -11.0927 C   0  0  0  0  0  0  0  0  0  0  0  0
  -11.8963  -41.2745   -9.9925 N   0  0  0  0  0  0  0  0  0  0  0  0
  -15.7177  -42.7000  -11.0605 C   0  0  0  0  0  0  0  0  0  0  0  0
  -16.8406  -41.8840  -10.4598 C   0  0  0  0  0  0  0  0  0  0  0  0
  -15.9195  -44.1600  -10.7828 C   0  0  0  0  0  0  0  0  0  0  0  0
  -15.8380  -42.5219  -12.5791 C   0  0  0  0  0  0  0  0  0  0  0  0
  1  2  1  0
  2  3  2  0
  2  4  1  0
  4  5  1  0
  5  6  1  0
  6  7  2  0
  7  8  1  0
  8  9  2  0
  9 10  1  0
 10 11  2  0
 10 12  1  0
 12 13  2  0
 12 14  1  0
 14 15  1  0
 15 16  1  1
 16 17  1  0
 17 18  1  0
 18 19  2  0
 19 20  1  0
 20 21  1  0
 21 22  1  0
 22 23  1  0
 23 24  1  0
 19 25  1  0
 25 26  2  0
 26 27  1  0
 15 28  1  0
 28 29  1  6
 28 30  1  0
 30 31  1  0
 31 32  1  0
 32 33  1  0
 33 34  2  0
 34 35  1  0
 35 36  2  0
 36 37  1  0
 37 38  2  0
 35 39  1  0
 39 40  1  0
 39 41  1  0
 39 42  1  0
 11  6  1  0
 24  8  1  0
 27 17  2  0
 38 33  1  0
M  END
$$$$
