
     RDKit          3D

 42 45  0  0  0  0  0  0  0  0999 V2000
  -15.2704  -45.1720  -11.6800 C   0  0  0  0  0  0  0  0  0  0  0  0
  -16.5034  -44.5753  -11.1072 C   0  0  0  0  0  0  0  0  0  0  0  0
  -16.5857  -43.3678  -11.0424 O   0  0  0  0  0  0  0  0  0  0  0  0
  -17.6101  -45.4044  -10.6256 C   0  0  0  0  0  0  0  0  0  0  0  0
  -17.5071  -45.7300   -9.2553 O   0  0  0  0  0  0  0  0  0  0  0  0
  -17.9934  -44.8076   -8.3270 C   0  0  0  0  0  0  0  0  0  0  0  0
  -19.1724  -44.9820   -7.6639 C   0  0  0  0  0  0  0  0  0  0  0  0
  -19.6738  -44.0521   -6.7201 C   0  0  0  0  0  0  0  0  0  0  0  0
  -18.9531  -42.8980   -6.4328 C   0  0  0  0  0  0  0  0  0  0  0  0
  -17.7609  -42.6967   -7.0902 C   0  0  0  0  0  0  0  0  0  0  0  0
  -17.3035  -43.6593   -8.0260 C   0  0  0  0  0  0  0  0  0  0  0  0
  -16.7859  -41.5806   -7.0354 C   0  0  0  0  0  0  0  0  0  0  0  0
  -15.5441  -41.9875   -6.9627 O   0  0  0  0  0  0  0  0  0  0  0  0
  -17.0132  -40.1718   -7.0532 N   0  0  0  0  0  0  0  0  0  0  0  0
  -17.8426  -39.4231   -7.9674 C   0  0  1  0  0  0  0  0  0  0  0  0
  -18.6747  -38.3456   -7.2572 C   0  0  0  0  0  0  0  0  0  0  0  0
  -20.0972  -38.7561   -7.0462 C   0  0  0  0  0  0  0  0  0  0  0  0
  -20.6760  -39.5216   -6.0638 C   0  0  0  0  0  0  0  0  0  0  0  0
  -22.0180  -39.7511   -6.0928 C   0  0  0  0  0  0  0  0  0  0  0  0
  -22.9161  -40.5256   -5.1907 C   0  0  0  0  0  0  0  0  0  0  0  0
  -23.2752  -41.8803   -5.7565 C   0  0  0  0  0  0  0  0  0  0  0  0
  -22.3855  -42.9091   -5.0692 C   0  0  0  0  0  0  0  0  0  0  0  0
  -22.1713  -44.0344   -6.0424 C   0  0  0  0  0  0  0  0  0  0  0  0
  -20.8783  -44.4775   -6.2069 O   0  0  0  0  0  0  0  0  0  0  0  0
  -22.7933  -39.1928   -7.1418 C   0  0  0  0  0  0  0  0  0  0  0  0
  -22.2781  -38.4239   -8.1484 C   0  0  0  0  0  0  0  0  0  0  0  0
  -20.9300  -38.2280   -8.0668 C   0  0  0  0  0  0  0  0  0  0  0  0
  -16.8918  -38.6516   -8.8886 C   0  0  2  0  0  0  0  0  0  0  0  0
  -17.5918  -37.9673   -9.8726 O   0  0  0  0  0  0  0  0  0  0  0  0
  -15.8826  -39.5156   -9.5738 C   0  0  0  0  0  0  0  0  0  0  0  0
  -14.5975  -39.3643   -8.9750 N   0  0  0  0  0  0  0  0  0  0  0  0
  -13.4885  -39.8519   -9.6749 C   0  0  0  0  0  0  0  0  0  0  0  0
  -13.1482  -39.2374  -10.9461 C   0  0  0  0  0  0  0  0  0  0  0  0
  -13.1371  -37.8714  -11.0862 C   0  0  0  0  0  0  0  0  0  0  0  0
  -12.8076  -37.2593  -12.2948 C   0  0  0  0  0  0  0  0  0  0  0  0
  -12.4893  -38.0893  -13.3526 C   0  0  0  0  0  0  0  0  0  0  0  0
  -12.5110  -39.4427  -13.1761 C   0  0  0  0  0  0  0  0  0  0  0  0
  -12.8320  -39.9776  -12.0049 N   0  0  0  0  0  0  0  0  0  0  0  0
  -12.7834  -35.7906  -12.4968 C   0  0  0  0  0  0  0  0  0  0  0  0
  -12.4800  -35.4244  -13.9326 C   0  0  0  0  0  0  0  0  0  0  0  0
  -11.8694  -35.0572  -11.5609 C   0  0  0  0  0  0  0  0  0  0  0  0
  -14.2001  -35.2703  -12.2234 C   0  0  0  0  0  0  0  0  0  0  0  0
  1  2  1  0
  2  3  2  0
  2  4  1  0
  4  5  1  0
  5  6  1  0
  6  7  2  0
  7  8  1  0
  8  9  2  0
  9 10  1  0
 10 11  2  0
 10 12  1  0
 12 13  2  0
 12 14  1  0
 14 15  1  0
 15 16  1  1
 16 17  1  0
 17 18  1  0
 18 19  2  0
 19 20  1  0
 20 21  1  0
 21 22  1  0
 22 23  1  0
 23 24  1  0
 19 25  1  0
 25 26  2  0
 26 27  1  0
 15 28  1  0
 28 29  1  6
 28 30  1  0
 30 31  1  0
 31 32  1  0
 32 33  1  0
 33 34  2  0
 34 35  1  0
 35 36  2  0
 36 37  1  0
 37 38  2  0
 35 39  1  0
 39 40  1  0
 39 41  1  0
 39 42  1  0
 11  6  1  0
 24  8  1  0
 27 17  2  0
 38 33  1  0
M  END
$$$$
