
     RDKit          3D

 35 37  0  0  0  0  0  0  0  0999 V2000
  -17.8881  -36.7228   -7.3821 C   0  0  0  0  0  0  0  0  0  0  0  0
  -17.2080  -37.0338   -8.6717 C   0  0  2  0  0  0  0  0  0  0  0  0
  -17.7293  -36.0214   -9.7027 C   0  0  0  0  0  0  0  0  0  0  0  0
  -19.1405  -36.4460  -10.0174 C   0  0  0  0  0  0  0  0  0  0  0  0
  -20.0034  -35.3511  -10.5562 C   0  0  0  0  0  0  0  0  0  0  0  0
  -21.2586  -36.0361  -11.1201 C   0  0  0  0  0  0  0  0  0  0  0  0
  -22.0031  -36.7976  -10.0700 C   0  0  0  0  0  0  0  0  0  0  0  0
  -22.0522  -38.3041  -10.3573 C   0  0  0  0  0  0  0  0  0  0  0  0
  -23.2995  -38.8494   -9.7960 C   0  0  0  0  0  0  0  0  0  0  0  0
  -23.1306  -39.8855   -8.7903 N   0  0  0  0  0  0  0  0  0  0  0  0
  -21.9632  -40.4585   -8.2058 C   0  0  0  0  0  0  0  0  0  0  0  0
  -20.7988  -39.8996   -7.7157 C   0  0  0  0  0  0  0  0  0  0  0  0
  -19.8328  -40.7459   -7.1998 C   0  0  0  0  0  0  0  0  0  0  0  0
  -20.0566  -42.1524   -7.1829 C   0  0  0  0  0  0  0  0  0  0  0  0
  -21.1988  -42.7338   -7.6599 C   0  0  0  0  0  0  0  0  0  0  0  0
  -22.1288  -41.8732   -8.1616 C   0  0  0  0  0  0  0  0  0  0  0  0
  -18.5017  -40.4785   -6.6193 C   0  0  0  0  0  0  0  0  0  0  0  0
  -18.2310  -41.1358   -5.5052 O   0  0  0  0  0  0  0  0  0  0  0  0
  -17.4561  -39.6164   -7.0822 N   0  0  0  0  0  0  0  0  0  0  0  0
  -16.9663  -39.5293   -8.4223 C   0  0  1  0  0  0  0  0  0  0  0  0
  -17.5067  -38.3873   -9.2157 C   0  0  0  0  0  0  0  0  0  0  0  0
  -15.4381  -39.3913   -8.3960 C   0  0  2  0  0  0  0  0  0  0  0  0
  -15.0525  -38.3135   -9.1823 O   0  0  0  0  0  0  0  0  0  0  0  0
  -14.7956  -40.6685   -8.9176 C   0  0  0  0  0  0  0  0  0  0  0  0
  -13.8079  -41.1760   -8.0125 N   0  0  0  0  0  0  0  0  0  0  0  0
  -14.1570  -42.4373   -7.4317 C   0  0  0  0  0  0  0  0  0  0  0  0
  -14.9273  -43.2926   -8.4005 C   0  0  0  0  0  0  0  0  0  0  0  0
  -16.2241  -43.7579   -8.2757 C   0  0  0  0  0  0  0  0  0  0  0  0
  -16.5383  -44.5054   -9.3892 C   0  0  0  0  0  0  0  0  0  0  0  0
  -15.4366  -44.4823  -10.1660 N   0  0  0  0  0  0  0  0  0  0  0  0
  -14.4857  -43.7691   -9.5871 N   0  0  0  0  0  0  0  0  0  0  0  0
  -17.8403  -45.1741   -9.6276 C   0  0  0  0  0  0  0  0  0  0  0  0
  -18.9468  -44.5013   -8.8477 C   0  0  0  0  0  0  0  0  0  0  0  0
  -18.1623  -45.1666  -11.1048 C   0  0  0  0  0  0  0  0  0  0  0  0
  -17.7114  -46.6142   -9.1888 C   0  0  0  0  0  0  0  0  0  0  0  0
  2  1  1  1
  2  3  1  0
  3  4  1  0
  4  5  1  0
  5  6  1  0
  6  7  1  0
  7  8  1  0
  8  9  1  0
  9 10  1  0
 10 11  1  0
 11 12  1  0
 12 13  2  0
 13 14  1  0
 14 15  2  0
 15 16  1  0
 13 17  1  0
 17 18  2  0
 17 19  1  0
 19 20  1  0
 20 21  1  1
 20 22  1  0
 22 23  1  6
 22 24  1  0
 24 25  1  0
 25 26  1  0
 26 27  1  0
 27 28  1  0
 28 29  2  0
 29 30  1  0
 30 31  1  0
 29 32  1  0
 32 33  1  0
 32 34  1  0
 32 35  1  0
 16 11  2  0
 21  2  1  0
 31 27  2  0
M  END
$$$$
