
     RDKit          3D

 35 37  0  0  0  0  0  0  0  0999 V2000
  -13.7917  -40.7808  -10.4088 C   0  0  0  0  0  0  0  0  0  0  0  0
  -13.6043  -40.8915   -8.9340 C   0  0  2  0  0  0  0  0  0  0  0  0
  -12.3857  -41.7992   -8.7093 C   0  0  0  0  0  0  0  0  0  0  0  0
  -12.8468  -43.1949   -9.0415 C   0  0  0  0  0  0  0  0  0  0  0  0
  -11.7430  -44.1329   -9.4098 C   0  0  0  0  0  0  0  0  0  0  0  0
  -12.3540  -45.5430   -9.3793 C   0  0  0  0  0  0  0  0  0  0  0  0
  -13.4850  -45.6865  -10.3473 C   0  0  0  0  0  0  0  0  0  0  0  0
  -14.8211  -45.9830   -9.6535 C   0  0  0  0  0  0  0  0  0  0  0  0
  -15.6519  -46.7933  -10.5599 C   0  0  0  0  0  0  0  0  0  0  0  0
  -16.9248  -46.2006  -10.9367 N   0  0  0  0  0  0  0  0  0  0  0  0
  -17.5163  -44.9429  -10.6192 C   0  0  0  0  0  0  0  0  0  0  0  0
  -17.0114  -43.6572  -10.5963 C   0  0  0  0  0  0  0  0  0  0  0  0
  -17.8620  -42.6259  -10.2380 C   0  0  0  0  0  0  0  0  0  0  0  0
  -19.2187  -42.9065   -9.9080 C   0  0  0  0  0  0  0  0  0  0  0  0
  -19.7466  -44.1681   -9.9227 C   0  0  0  0  0  0  0  0  0  0  0  0
  -18.8829  -45.1604  -10.2785 C   0  0  0  0  0  0  0  0  0  0  0  0
  -17.6413  -41.1718  -10.1071 C   0  0  0  0  0  0  0  0  0  0  0  0
  -18.5795  -40.4096  -10.6414 O   0  0  0  0  0  0  0  0  0  0  0  0
  -16.5654  -40.4602   -9.4852 N   0  0  0  0  0  0  0  0  0  0  0  0
  -16.0083  -40.7313   -8.1970 C   0  0  1  0  0  0  0  0  0  0  0  0
  -14.7439  -41.5230   -8.2132 C   0  0  0  0  0  0  0  0  0  0  0  0
  -15.7139  -39.4055   -7.4822 C   0  0  2  0  0  0  0  0  0  0  0  0
  -15.4853  -39.6426   -6.1331 O   0  0  0  0  0  0  0  0  0  0  0  0
  -16.8923  -38.4569   -7.6485 C   0  0  0  0  0  0  0  0  0  0  0  0
  -17.0195  -37.9972   -8.9994 N   0  0  0  0  0  0  0  0  0  0  0  0
  -17.3722  -36.6134   -9.1030 C   0  0  0  0  0  0  0  0  0  0  0  0
  -16.6253  -35.9395  -10.2217 C   0  0  0  0  0  0  0  0  0  0  0  0
  -17.1433  -35.1491  -11.2321 C   0  0  0  0  0  0  0  0  0  0  0  0
  -16.1123  -34.7333  -12.0454 C   0  0  0  0  0  0  0  0  0  0  0  0
  -14.9940  -35.2733  -11.5204 N   0  0  0  0  0  0  0  0  0  0  0  0
  -15.2920  -35.9843  -10.4464 N   0  0  0  0  0  0  0  0  0  0  0  0
  -16.2647  -33.8683  -13.2403 C   0  0  0  0  0  0  0  0  0  0  0  0
  -14.9172  -33.4584  -13.7890 C   0  0  0  0  0  0  0  0  0  0  0  0
  -17.0644  -34.5895  -14.3016 C   0  0  0  0  0  0  0  0  0  0  0  0
  -17.0421  -32.6396  -12.8295 C   0  0  0  0  0  0  0  0  0  0  0  0
  2  1  1  6
  2  3  1  0
  3  4  1  0
  4  5  1  0
  5  6  1  0
  6  7  1  0
  7  8  1  0
  8  9  1  0
  9 10  1  0
 10 11  1  0
 11 12  1  0
 12 13  2  0
 13 14  1  0
 14 15  2  0
 15 16  1  0
 13 17  1  0
 17 18  2  0
 17 19  1  0
 19 20  1  0
 20 21  1  6
 20 22  1  0
 22 23  1  1
 22 24  1  0
 24 25  1  0
 25 26  1  0
 26 27  1  0
 27 28  1  0
 28 29  2  0
 29 30  1  0
 30 31  1  0
 29 32  1  0
 32 33  1  0
 32 34  1  0
 32 35  1  0
 16 11  2  0
 21  2  1  0
 31 27  2  0
M  END
$$$$
