
     RDKit          3D

 35 37  0  0  0  0  0  0  0  0999 V2000
  -18.8253  -38.8999   -5.3436 C   0  0  0  0  0  0  0  0  0  0  0  0
  -19.1114  -38.4412   -6.7329 C   0  0  2  0  0  0  0  0  0  0  0  0
  -20.5509  -37.9052   -6.7348 C   0  0  0  0  0  0  0  0  0  0  0  0
  -21.4406  -39.1185   -6.6484 C   0  0  0  0  0  0  0  0  0  0  0  0
  -22.8057  -38.8393   -6.1078 C   0  0  0  0  0  0  0  0  0  0  0  0
  -23.6475  -40.0895   -6.4095 C   0  0  0  0  0  0  0  0  0  0  0  0
  -23.0865  -41.3148   -5.7608 C   0  0  0  0  0  0  0  0  0  0  0  0
  -22.6429  -42.3716   -6.7810 C   0  0  0  0  0  0  0  0  0  0  0  0
  -22.8062  -43.7050   -6.1779 C   0  0  0  0  0  0  0  0  0  0  0  0
  -21.5901  -44.4943   -6.0700 N   0  0  0  0  0  0  0  0  0  0  0  0
  -20.2366  -44.2020   -6.4093 C   0  0  0  0  0  0  0  0  0  0  0  0
  -19.4436  -43.0911   -6.1958 C   0  0  0  0  0  0  0  0  0  0  0  0
  -18.1390  -43.1193   -6.6572 C   0  0  0  0  0  0  0  0  0  0  0  0
  -17.6484  -44.2751   -7.3295 C   0  0  0  0  0  0  0  0  0  0  0  0
  -18.4092  -45.3891   -7.5543 C   0  0  0  0  0  0  0  0  0  0  0  0
  -19.6886  -45.3285   -7.0887 C   0  0  0  0  0  0  0  0  0  0  0  0
  -17.0562  -42.1170   -6.6021 C   0  0  0  0  0  0  0  0  0  0  0  0
  -15.8729  -42.5855   -6.2460 O   0  0  0  0  0  0  0  0  0  0  0  0
  -17.0921  -40.7126   -6.8797 N   0  0  0  0  0  0  0  0  0  0  0  0
  -17.7034  -40.0924   -8.0133 C   0  0  1  0  0  0  0  0  0  0  0  0
  -19.0565  -39.5168   -7.7611 C   0  0  0  0  0  0  0  0  0  0  0  0
  -16.8040  -38.9548   -8.5158 C   0  0  2  0  0  0  0  0  0  0  0  0
  -17.5896  -37.9185   -9.0031 O   0  0  0  0  0  0  0  0  0  0  0  0
  -15.8864  -39.4699   -9.6153 C   0  0  0  0  0  0  0  0  0  0  0  0
  -14.5756  -39.7670   -9.1194 N   0  0  0  0  0  0  0  0  0  0  0  0
  -13.5750  -39.8221  -10.1419 C   0  0  0  0  0  0  0  0  0  0  0  0
  -13.7220  -38.6840  -11.1148 C   0  0  0  0  0  0  0  0  0  0  0  0
  -12.8761  -37.6035  -11.2903 C   0  0  0  0  0  0  0  0  0  0  0  0
  -13.3834  -36.7977  -12.2857 C   0  0  0  0  0  0  0  0  0  0  0  0
  -14.5196  -37.3966  -12.6953 N   0  0  0  0  0  0  0  0  0  0  0  0
  -14.7225  -38.5077  -12.0082 N   0  0  0  0  0  0  0  0  0  0  0  0
  -12.7604  -35.5401  -12.7648 C   0  0  0  0  0  0  0  0  0  0  0  0
  -11.7215  -35.8193  -13.8268 C   0  0  0  0  0  0  0  0  0  0  0  0
  -13.8231  -34.6098  -13.3044 C   0  0  0  0  0  0  0  0  0  0  0  0
  -12.1092  -34.8628  -11.5815 C   0  0  0  0  0  0  0  0  0  0  0  0
  2  1  1  1
  2  3  1  0
  3  4  1  0
  4  5  1  0
  5  6  1  0
  6  7  1  0
  7  8  1  0
  8  9  1  0
  9 10  1  0
 10 11  1  0
 11 12  1  0
 12 13  2  0
 13 14  1  0
 14 15  2  0
 15 16  1  0
 13 17  1  0
 17 18  2  0
 17 19  1  0
 19 20  1  0
 20 21  1  1
 20 22  1  0
 22 23  1  6
 22 24  1  0
 24 25  1  0
 25 26  1  0
 26 27  1  0
 27 28  1  0
 28 29  2  0
 29 30  1  0
 30 31  1  0
 29 32  1  0
 32 33  1  0
 32 34  1  0
 32 35  1  0
 16 11  2  0
 21  2  1  0
 31 27  2  0
M  END
$$$$
