
     RDKit          3D

 35 37  0  0  0  0  0  0  0  0999 V2000
  -19.5281  -39.3794   -5.0980 C   0  0  0  0  0  0  0  0  0  0  0  0
  -19.4933  -38.5372   -6.3276 C   0  0  2  0  0  0  0  0  0  0  0  0
  -20.9034  -37.9548   -6.5056 C   0  0  0  0  0  0  0  0  0  0  0  0
  -21.7648  -39.1002   -6.9713 C   0  0  0  0  0  0  0  0  0  0  0  0
  -23.2233  -38.9193   -6.6997 C   0  0  0  0  0  0  0  0  0  0  0  0
  -23.9473  -39.9940   -7.5265 C   0  0  0  0  0  0  0  0  0  0  0  0
  -23.5279  -41.3769   -7.1412 C   0  0  0  0  0  0  0  0  0  0  0  0
  -22.8391  -42.1257   -8.2898 C   0  0  0  0  0  0  0  0  0  0  0  0
  -23.1114  -43.5653   -8.1427 C   0  0  0  0  0  0  0  0  0  0  0  0
  -21.9382  -44.4098   -7.9885 N   0  0  0  0  0  0  0  0  0  0  0  0
  -20.5489  -44.0985   -7.9135 C   0  0  0  0  0  0  0  0  0  0  0  0
  -19.8491  -43.1305   -7.2195 C   0  0  0  0  0  0  0  0  0  0  0  0
  -18.4728  -43.0901   -7.3601 C   0  0  0  0  0  0  0  0  0  0  0  0
  -17.8169  -44.0334   -8.2018 C   0  0  0  0  0  0  0  0  0  0  0  0
  -18.4827  -45.0028   -8.9000 C   0  0  0  0  0  0  0  0  0  0  0  0
  -19.8362  -45.0145   -8.7405 C   0  0  0  0  0  0  0  0  0  0  0  0
  -17.4523  -42.1955   -6.7782 C   0  0  0  0  0  0  0  0  0  0  0  0
  -16.3747  -42.8004   -6.3095 O   0  0  0  0  0  0  0  0  0  0  0  0
  -17.4506  -40.7695   -6.6474 N   0  0  0  0  0  0  0  0  0  0  0  0
  -17.7945  -39.8287   -7.6671 C   0  0  1  0  0  0  0  0  0  0  0  0
  -19.1803  -39.2835   -7.5775 C   0  0  0  0  0  0  0  0  0  0  0  0
  -16.8258  -38.6398   -7.6083 C   0  0  2  0  0  0  0  0  0  0  0  0
  -17.3861  -37.5478   -8.2580 O   0  0  0  0  0  0  0  0  0  0  0  0
  -15.5075  -39.0152   -8.2698 C   0  0  0  0  0  0  0  0  0  0  0  0
  -15.7079  -39.8194   -9.4382 N   0  0  0  0  0  0  0  0  0  0  0  0
  -14.4949  -40.1411  -10.1274 C   0  0  0  0  0  0  0  0  0  0  0  0
  -13.8833  -38.9207  -10.7598 C   0  0  0  0  0  0  0  0  0  0  0  0
  -14.2916  -38.2652  -11.9076 C   0  0  0  0  0  0  0  0  0  0  0  0
  -13.4539  -37.1949  -12.1313 C   0  0  0  0  0  0  0  0  0  0  0  0
  -12.5578  -37.2172  -11.1243 N   0  0  0  0  0  0  0  0  0  0  0  0
  -12.8073  -38.2320  -10.3145 N   0  0  0  0  0  0  0  0  0  0  0  0
  -13.5664  -36.2470  -13.2663 C   0  0  0  0  0  0  0  0  0  0  0  0
  -12.8543  -36.7779  -14.4894 C   0  0  0  0  0  0  0  0  0  0  0  0
  -15.0224  -35.9872  -13.5803 C   0  0  0  0  0  0  0  0  0  0  0  0
  -12.9429  -34.9375  -12.8428 C   0  0  0  0  0  0  0  0  0  0  0  0
  2  1  1  1
  2  3  1  0
  3  4  1  0
  4  5  1  0
  5  6  1  0
  6  7  1  0
  7  8  1  0
  8  9  1  0
  9 10  1  0
 10 11  1  0
 11 12  1  0
 12 13  2  0
 13 14  1  0
 14 15  2  0
 15 16  1  0
 13 17  1  0
 17 18  2  0
 17 19  1  0
 19 20  1  0
 20 21  1  1
 20 22  1  0
 22 23  1  6
 22 24  1  0
 24 25  1  0
 25 26  1  0
 26 27  1  0
 27 28  1  0
 28 29  2  0
 29 30  1  0
 30 31  1  0
 29 32  1  0
 32 33  1  0
 32 34  1  0
 32 35  1  0
 16 11  2  0
 21  2  1  0
 31 27  2  0
M  END
$$$$
