
     RDKit          3D

 35 37  0  0  0  0  0  0  0  0999 V2000
  -15.4364  -36.0966   -9.3734 C   0  0  0  0  0  0  0  0  0  0  0  0
  -14.3015  -36.9833   -8.9883 C   0  0  2  0  0  0  0  0  0  0  0  0
  -13.1070  -36.5800   -9.8657 C   0  0  0  0  0  0  0  0  0  0  0  0
  -13.4171  -37.1003  -11.2455 C   0  0  0  0  0  0  0  0  0  0  0  0
  -12.6944  -36.3902  -12.3443 C   0  0  0  0  0  0  0  0  0  0  0  0
  -12.8702  -37.2582  -13.6006 C   0  0  0  0  0  0  0  0  0  0  0  0
  -14.3096  -37.4292  -13.9688 C   0  0  0  0  0  0  0  0  0  0  0  0
  -14.7679  -38.8916  -13.8936 C   0  0  0  0  0  0  0  0  0  0  0  0
  -15.8309  -39.1031  -14.8904 C   0  0  0  0  0  0  0  0  0  0  0  0
  -17.1105  -39.5386  -14.3552 N   0  0  0  0  0  0  0  0  0  0  0  0
  -17.5509  -39.7681  -13.0188 C   0  0  0  0  0  0  0  0  0  0  0  0
  -17.3949  -39.0459  -11.8515 C   0  0  0  0  0  0  0  0  0  0  0  0
  -17.9566  -39.5482  -10.6906 C   0  0  0  0  0  0  0  0  0  0  0  0
  -18.6743  -40.7780  -10.7234 C   0  0  0  0  0  0  0  0  0  0  0  0
  -18.8457  -41.5139  -11.8633 C   0  0  0  0  0  0  0  0  0  0  0  0
  -18.2796  -40.9923  -12.9880 C   0  0  0  0  0  0  0  0  0  0  0  0
  -17.9652  -39.0400   -9.3043 C   0  0  0  0  0  0  0  0  0  0  0  0
  -19.1359  -39.0909   -8.6932 O   0  0  0  0  0  0  0  0  0  0  0  0
  -16.8955  -38.5027   -8.5183 N   0  0  0  0  0  0  0  0  0  0  0  0
  -15.5877  -39.0624   -8.3791 C   0  0  1  0  0  0  0  0  0  0  0  0
  -14.5402  -38.4323   -9.2343 C   0  0  0  0  0  0  0  0  0  0  0  0
  -15.1324  -38.9315   -6.9193 C   0  0  2  0  0  0  0  0  0  0  0  0
  -13.7981  -39.3009   -6.8110 O   0  0  0  0  0  0  0  0  0  0  0  0
  -15.9894  -39.8205   -6.0298 C   0  0  0  0  0  0  0  0  0  0  0  0
  -17.3339  -39.3361   -5.9298 N   0  0  0  0  0  0  0  0  0  0  0  0
  -18.1565  -40.1067   -5.0470 C   0  0  0  0  0  0  0  0  0  0  0  0
  -19.4353  -40.5288   -5.7178 C   0  0  0  0  0  0  0  0  0  0  0  0
  -20.5528  -39.7553   -5.9764 C   0  0  0  0  0  0  0  0  0  0  0  0
  -21.4979  -40.5345   -6.6064 C   0  0  0  0  0  0  0  0  0  0  0  0
  -20.9440  -41.7585   -6.7194 N   0  0  0  0  0  0  0  0  0  0  0  0
  -19.7294  -41.7591   -6.1973 N   0  0  0  0  0  0  0  0  0  0  0  0
  -22.8340  -40.0651   -7.0465 C   0  0  0  0  0  0  0  0  0  0  0  0
  -22.7884  -38.6135   -7.4656 C   0  0  0  0  0  0  0  0  0  0  0  0
  -23.3335  -40.9233   -8.1867 C   0  0  0  0  0  0  0  0  0  0  0  0
  -23.7904  -40.2307   -5.8886 C   0  0  0  0  0  0  0  0  0  0  0  0
  2  1  1  6
  2  3  1  0
  3  4  1  0
  4  5  1  0
  5  6  1  0
  6  7  1  0
  7  8  1  0
  8  9  1  0
  9 10  1  0
 10 11  1  0
 11 12  1  0
 12 13  2  0
 13 14  1  0
 14 15  2  0
 15 16  1  0
 13 17  1  0
 17 18  2  0
 17 19  1  0
 19 20  1  0
 20 21  1  6
 20 22  1  0
 22 23  1  6
 22 24  1  0
 24 25  1  0
 25 26  1  0
 26 27  1  0
 27 28  1  0
 28 29  2  0
 29 30  1  0
 30 31  1  0
 29 32  1  0
 32 33  1  0
 32 34  1  0
 32 35  1  0
 16 11  2  0
 21  2  1  0
 31 27  2  0
M  END
$$$$
