
     RDKit          3D

 35 37  0  0  0  0  0  0  0  0999 V2000
  -14.7003  -35.8463   -9.9478 C   0  0  0  0  0  0  0  0  0  0  0  0
  -13.7879  -36.9061   -9.4312 C   0  0  2  0  0  0  0  0  0  0  0  0
  -12.4754  -36.7835  -10.2197 C   0  0  0  0  0  0  0  0  0  0  0  0
  -12.7738  -37.3141  -11.5982 C   0  0  0  0  0  0  0  0  0  0  0  0
  -11.8478  -36.8151  -12.6600 C   0  0  0  0  0  0  0  0  0  0  0  0
  -12.0903  -37.7049  -13.8897 C   0  0  0  0  0  0  0  0  0  0  0  0
  -13.5038  -37.6245  -14.3716 C   0  0  0  0  0  0  0  0  0  0  0  0
  -14.2371  -38.9689  -14.2752 C   0  0  0  0  0  0  0  0  0  0  0  0
  -15.2424  -39.0343  -15.3492 C   0  0  0  0  0  0  0  0  0  0  0  0
  -16.6183  -39.1920  -14.9073 N   0  0  0  0  0  0  0  0  0  0  0  0
  -17.1943  -39.2590  -13.6048 C   0  0  0  0  0  0  0  0  0  0  0  0
  -16.9922  -38.5135  -12.4594 C   0  0  0  0  0  0  0  0  0  0  0  0
  -17.7257  -38.8354  -11.3307 C   0  0  0  0  0  0  0  0  0  0  0  0
  -18.6603  -39.9093  -11.3735 C   0  0  0  0  0  0  0  0  0  0  0  0
  -18.8822  -40.6637  -12.4925 C   0  0  0  0  0  0  0  0  0  0  0  0
  -18.1435  -40.3217  -13.5854 C   0  0  0  0  0  0  0  0  0  0  0  0
  -17.7421  -38.2567   -9.9724 C   0  0  0  0  0  0  0  0  0  0  0  0
  -18.9439  -38.0532   -9.4615 O   0  0  0  0  0  0  0  0  0  0  0  0
  -16.6522  -37.8849   -9.1211 N   0  0  0  0  0  0  0  0  0  0  0  0
  -15.4895  -38.6704   -8.8481 C   0  0  1  0  0  0  0  0  0  0  0  0
  -14.2794  -38.2966   -9.6365 C   0  0  0  0  0  0  0  0  0  0  0  0
  -15.1295  -38.5441   -7.3616 C   0  0  2  0  0  0  0  0  0  0  0  0
  -13.8338  -38.0608   -7.2339 O   0  0  0  0  0  0  0  0  0  0  0  0
  -15.2439  -39.9030   -6.6858 C   0  0  0  0  0  0  0  0  0  0  0  0
  -16.4608  -40.5720   -7.0375 N   0  0  0  0  0  0  0  0  0  0  0  0
  -17.1562  -41.1246   -5.9146 C   0  0  0  0  0  0  0  0  0  0  0  0
  -18.5264  -40.5211   -5.7670 C   0  0  0  0  0  0  0  0  0  0  0  0
  -19.7402  -41.0722   -6.1368 C   0  0  0  0  0  0  0  0  0  0  0  0
  -20.7462  -40.1850   -5.8234 C   0  0  0  0  0  0  0  0  0  0  0  0
  -20.1325  -39.1183   -5.2729 N   0  0  0  0  0  0  0  0  0  0  0  0
  -18.8252  -39.3124   -5.2379 N   0  0  0  0  0  0  0  0  0  0  0  0
  -22.1911  -40.4140   -6.0665 C   0  0  0  0  0  0  0  0  0  0  0  0
  -22.7290  -39.4444   -7.0939 C   0  0  0  0  0  0  0  0  0  0  0  0
  -22.4194  -41.8378   -6.5210 C   0  0  0  0  0  0  0  0  0  0  0  0
  -22.9196  -40.2234   -4.7565 C   0  0  0  0  0  0  0  0  0  0  0  0
  2  1  1  6
  2  3  1  0
  3  4  1  0
  4  5  1  0
  5  6  1  0
  6  7  1  0
  7  8  1  0
  8  9  1  0
  9 10  1  0
 10 11  1  0
 11 12  1  0
 12 13  2  0
 13 14  1  0
 14 15  2  0
 15 16  1  0
 13 17  1  0
 17 18  2  0
 17 19  1  0
 19 20  1  0
 20 21  1  6
 20 22  1  0
 22 23  1  6
 22 24  1  0
 24 25  1  0
 25 26  1  0
 26 27  1  0
 27 28  1  0
 28 29  2  0
 29 30  1  0
 30 31  1  0
 29 32  1  0
 32 33  1  0
 32 34  1  0
 32 35  1  0
 16 11  2  0
 21  2  1  0
 31 27  2  0
M  END
$$$$
