
     RDKit          3D

 35 37  0  0  0  0  0  0  0  0999 V2000
  -18.6162  -39.4755   -5.3134 C   0  0  0  0  0  0  0  0  0  0  0  0
  -19.1464  -38.9182   -6.5904 C   0  0  2  0  0  0  0  0  0  0  0  0
  -20.5076  -38.2846   -6.2658 C   0  0  0  0  0  0  0  0  0  0  0  0
  -21.4540  -39.4363   -6.0449 C   0  0  0  0  0  0  0  0  0  0  0  0
  -22.6507  -39.0951   -5.2171 C   0  0  0  0  0  0  0  0  0  0  0  0
  -23.6339  -40.2644   -5.3869 C   0  0  0  0  0  0  0  0  0  0  0  0
  -23.0503  -41.5611   -4.9234 C   0  0  0  0  0  0  0  0  0  0  0  0
  -22.9136  -42.5852   -6.0579 C   0  0  0  0  0  0  0  0  0  0  0  0
  -23.0544  -43.9368   -5.4908 C   0  0  0  0  0  0  0  0  0  0  0  0
  -21.9094  -44.8133   -5.6754 N   0  0  0  0  0  0  0  0  0  0  0  0
  -20.6366  -44.5963   -6.2801 C   0  0  0  0  0  0  0  0  0  0  0  0
  -19.7305  -43.5573   -6.1921 C   0  0  0  0  0  0  0  0  0  0  0  0
  -18.5563  -43.6490   -6.9192 C   0  0  0  0  0  0  0  0  0  0  0  0
  -18.3096  -44.7950   -7.7279 C   0  0  0  0  0  0  0  0  0  0  0  0
  -19.1870  -45.8388   -7.8340 C   0  0  0  0  0  0  0  0  0  0  0  0
  -20.3331  -45.7167   -7.1067 C   0  0  0  0  0  0  0  0  0  0  0  0
  -17.4091  -42.7289   -7.0516 C   0  0  0  0  0  0  0  0  0  0  0  0
  -16.2190  -43.2982   -6.9733 O   0  0  0  0  0  0  0  0  0  0  0  0
  -17.3895  -41.3116   -7.2558 N   0  0  0  0  0  0  0  0  0  0  0  0
  -18.1709  -40.5859   -8.2076 C   0  0  1  0  0  0  0  0  0  0  0  0
  -19.3919  -39.9336   -7.6514 C   0  0  0  0  0  0  0  0  0  0  0  0
  -17.3072  -39.4862   -8.8401 C   0  0  2  0  0  0  0  0  0  0  0  0
  -18.1248  -38.5323   -9.4319 O   0  0  0  0  0  0  0  0  0  0  0  0
  -16.3813  -40.0937   -9.8840 C   0  0  0  0  0  0  0  0  0  0  0  0
  -15.0027  -39.9460   -9.5236 N   0  0  0  0  0  0  0  0  0  0  0  0
  -14.1244  -39.8391  -10.6492 C   0  0  0  0  0  0  0  0  0  0  0  0
  -13.9006  -38.4023  -11.0355 C   0  0  0  0  0  0  0  0  0  0  0  0
  -13.6885  -37.8878  -12.3021 C   0  0  0  0  0  0  0  0  0  0  0  0
  -13.5301  -36.5227  -12.2076 C   0  0  0  0  0  0  0  0  0  0  0  0
  -13.6476  -36.2325  -10.8963 N   0  0  0  0  0  0  0  0  0  0  0  0
  -13.8658  -37.3368  -10.2028 N   0  0  0  0  0  0  0  0  0  0  0  0
  -13.2834  -35.6119  -13.3516 C   0  0  0  0  0  0  0  0  0  0  0  0
  -12.8581  -34.2425  -12.8731 C   0  0  0  0  0  0  0  0  0  0  0  0
  -12.2284  -36.1992  -14.2615 C   0  0  0  0  0  0  0  0  0  0  0  0
  -14.5662  -35.4991  -14.1420 C   0  0  0  0  0  0  0  0  0  0  0  0
  2  1  1  1
  2  3  1  0
  3  4  1  0
  4  5  1  0
  5  6  1  0
  6  7  1  0
  7  8  1  0
  8  9  1  0
  9 10  1  0
 10 11  1  0
 11 12  1  0
 12 13  2  0
 13 14  1  0
 14 15  2  0
 15 16  1  0
 13 17  1  0
 17 18  2  0
 17 19  1  0
 19 20  1  0
 20 21  1  1
 20 22  1  0
 22 23  1  6
 22 24  1  0
 24 25  1  0
 25 26  1  0
 26 27  1  0
 27 28  1  0
 28 29  2  0
 29 30  1  0
 30 31  1  0
 29 32  1  0
 32 33  1  0
 32 34  1  0
 32 35  1  0
 16 11  2  0
 21  2  1  0
 31 27  2  0
M  END
$$$$
