
     RDKit          3D

 35 37  0  0  0  0  0  0  0  0999 V2000
  -17.6611  -43.5732   -9.6541 C   0  0  0  0  0  0  0  0  0  0  0  0
  -16.9016  -43.3985   -8.3832 C   0  0  2  0  0  0  0  0  0  0  0  0
  -17.1206  -44.6750   -7.5574 C   0  0  0  0  0  0  0  0  0  0  0  0
  -18.5384  -44.5990   -7.0526 C   0  0  0  0  0  0  0  0  0  0  0  0
  -19.1338  -45.9232   -6.6977 C   0  0  0  0  0  0  0  0  0  0  0  0
  -20.4151  -45.6161   -5.9061 C   0  0  0  0  0  0  0  0  0  0  0  0
  -21.3939  -44.8192   -6.7084 C   0  0  0  0  0  0  0  0  0  0  0  0
  -21.6673  -43.4369   -6.1011 C   0  0  0  0  0  0  0  0  0  0  0  0
  -23.0454  -43.0405   -6.4358 C   0  0  0  0  0  0  0  0  0  0  0  0
  -23.1725  -41.8135   -7.2051 N   0  0  0  0  0  0  0  0  0  0  0  0
  -22.1950  -40.9239   -7.7397 C   0  0  0  0  0  0  0  0  0  0  0  0
  -21.0157  -41.1417   -8.4255 C   0  0  0  0  0  0  0  0  0  0  0  0
  -20.2743  -40.0413   -8.8192 C   0  0  0  0  0  0  0  0  0  0  0  0
  -20.7363  -38.7285   -8.5163 C   0  0  0  0  0  0  0  0  0  0  0  0
  -21.8993  -38.4822   -7.8402 C   0  0  0  0  0  0  0  0  0  0  0  0
  -22.6046  -39.5867   -7.4661 C   0  0  0  0  0  0  0  0  0  0  0  0
  -18.9923  -39.9292   -9.5430 C   0  0  0  0  0  0  0  0  0  0  0  0
  -18.9671  -39.0255  -10.5070 O   0  0  0  0  0  0  0  0  0  0  0  0
  -17.7685  -40.6492   -9.3569 N   0  0  0  0  0  0  0  0  0  0  0  0
  -17.1213  -40.9037   -8.1081 C   0  0  1  0  0  0  0  0  0  0  0  0
  -17.3638  -42.2617   -7.5399 C   0  0  0  0  0  0  0  0  0  0  0  0
  -15.6051  -40.7387   -8.2794 C   0  0  2  0  0  0  0  0  0  0  0  0
  -15.0424  -40.3188   -7.0812 O   0  0  0  0  0  0  0  0  0  0  0  0
  -15.3172  -39.7189   -9.3718 C   0  0  0  0  0  0  0  0  0  0  0  0
  -14.4584  -38.6701   -8.9085 N   0  0  0  0  0  0  0  0  0  0  0  0
  -14.2101  -37.6573   -9.8895 C   0  0  0  0  0  0  0  0  0  0  0  0
  -15.4472  -37.3545  -10.6903 C   0  0  0  0  0  0  0  0  0  0  0  0
  -16.4036  -36.3867  -10.4404 C   0  0  0  0  0  0  0  0  0  0  0  0
  -17.3689  -36.4505  -11.4209 C   0  0  0  0  0  0  0  0  0  0  0  0
  -16.9866  -37.4476  -12.2438 N   0  0  0  0  0  0  0  0  0  0  0  0
  -15.8554  -37.9825  -11.8169 N   0  0  0  0  0  0  0  0  0  0  0  0
  -18.5620  -35.5734  -11.5010 C   0  0  0  0  0  0  0  0  0  0  0  0
  -19.4867  -35.8066  -10.3281 C   0  0  0  0  0  0  0  0  0  0  0  0
  -18.1354  -34.1238  -11.5506 C   0  0  0  0  0  0  0  0  0  0  0  0
  -19.2854  -35.8878  -12.7897 C   0  0  0  0  0  0  0  0  0  0  0  0
  2  1  1  6
  2  3  1  0
  3  4  1  0
  4  5  1  0
  5  6  1  0
  6  7  1  0
  7  8  1  0
  8  9  1  0
  9 10  1  0
 10 11  1  0
 11 12  1  0
 12 13  2  0
 13 14  1  0
 14 15  2  0
 15 16  1  0
 13 17  1  0
 17 18  2  0
 17 19  1  0
 19 20  1  0
 20 21  1  6
 20 22  1  0
 22 23  1  1
 22 24  1  0
 24 25  1  0
 25 26  1  0
 26 27  1  0
 27 28  1  0
 28 29  2  0
 29 30  1  0
 30 31  1  0
 29 32  1  0
 32 33  1  0
 32 34  1  0
 32 35  1  0
 16 11  2  0
 21  2  1  0
 31 27  2  0
M  END
$$$$
