
     RDKit          3D

 35 37  0  0  0  0  0  0  0  0999 V2000
  -18.6770  -39.3886   -5.1797 C   0  0  0  0  0  0  0  0  0  0  0  0
  -19.4622  -38.6856   -6.2341 C   0  0  2  0  0  0  0  0  0  0  0  0
  -20.8139  -38.3142   -5.6060 C   0  0  0  0  0  0  0  0  0  0  0  0
  -21.5829  -39.6053   -5.4939 C   0  0  0  0  0  0  0  0  0  0  0  0
  -22.6609  -39.5879   -4.4589 C   0  0  0  0  0  0  0  0  0  0  0  0
  -23.5267  -40.8299   -4.7243 C   0  0  0  0  0  0  0  0  0  0  0  0
  -22.7400  -42.0972   -4.6151 C   0  0  0  0  0  0  0  0  0  0  0  0
  -22.6775  -42.8685   -5.9401 C   0  0  0  0  0  0  0  0  0  0  0  0
  -22.5789  -44.3073   -5.6424 C   0  0  0  0  0  0  0  0  0  0  0  0
  -21.3907  -44.9703   -6.1539 N   0  0  0  0  0  0  0  0  0  0  0  0
  -20.2623  -44.4746   -6.8707 C   0  0  0  0  0  0  0  0  0  0  0  0
  -19.4712  -43.3550   -6.7003 C   0  0  0  0  0  0  0  0  0  0  0  0
  -18.4260  -43.1509   -7.5844 C   0  0  0  0  0  0  0  0  0  0  0  0
  -18.1902  -44.0854   -8.6329 C   0  0  0  0  0  0  0  0  0  0  0  0
  -18.9555  -45.2024   -8.8258 C   0  0  0  0  0  0  0  0  0  0  0  0
  -19.9764  -45.3731   -7.9392 C   0  0  0  0  0  0  0  0  0  0  0  0
  -17.4209  -42.0740   -7.6846 C   0  0  0  0  0  0  0  0  0  0  0  0
  -16.1792  -42.4797   -7.8856 O   0  0  0  0  0  0  0  0  0  0  0  0
  -17.5871  -40.6541   -7.6005 N   0  0  0  0  0  0  0  0  0  0  0  0
  -18.5847  -39.8807   -8.2712 C   0  0  1  0  0  0  0  0  0  0  0  0
  -19.7639  -39.5142   -7.4339 C   0  0  0  0  0  0  0  0  0  0  0  0
  -17.9575  -38.5764   -8.7817 C   0  0  2  0  0  0  0  0  0  0  0  0
  -18.5381  -38.2210   -9.9921 O   0  0  0  0  0  0  0  0  0  0  0  0
  -16.4575  -38.7610   -8.9616 C   0  0  0  0  0  0  0  0  0  0  0  0
  -16.0273  -38.3785  -10.2734 N   0  0  0  0  0  0  0  0  0  0  0  0
  -15.1588  -39.3334  -10.8928 C   0  0  0  0  0  0  0  0  0  0  0  0
  -14.0730  -38.6552  -11.6830 C   0  0  0  0  0  0  0  0  0  0  0  0
  -13.6391  -37.3458  -11.5779 C   0  0  0  0  0  0  0  0  0  0  0  0
  -12.6257  -37.1379  -12.4874 C   0  0  0  0  0  0  0  0  0  0  0  0
  -12.4616  -38.3144  -13.1249 N   0  0  0  0  0  0  0  0  0  0  0  0
  -13.3121  -39.2104  -12.6541 N   0  0  0  0  0  0  0  0  0  0  0  0
  -11.9012  -35.8581  -12.6788 C   0  0  0  0  0  0  0  0  0  0  0  0
  -12.8603  -34.6899  -12.7027 C   0  0  0  0  0  0  0  0  0  0  0  0
  -10.8793  -35.6735  -11.5799 C   0  0  0  0  0  0  0  0  0  0  0  0
  -11.1597  -35.9348  -13.9930 C   0  0  0  0  0  0  0  0  0  0  0  0
  2  1  1  1
  2  3  1  0
  3  4  1  0
  4  5  1  0
  5  6  1  0
  6  7  1  0
  7  8  1  0
  8  9  1  0
  9 10  1  0
 10 11  1  0
 11 12  1  0
 12 13  2  0
 13 14  1  0
 14 15  2  0
 15 16  1  0
 13 17  1  0
 17 18  2  0
 17 19  1  0
 19 20  1  0
 20 21  1  1
 20 22  1  0
 22 23  1  6
 22 24  1  0
 24 25  1  0
 25 26  1  0
 26 27  1  0
 27 28  1  0
 28 29  2  0
 29 30  1  0
 30 31  1  0
 29 32  1  0
 32 33  1  0
 32 34  1  0
 32 35  1  0
 16 11  2  0
 21  2  1  0
 31 27  2  0
M  END
$$$$
