
     RDKit          3D

 35 37  0  0  0  0  0  0  0  0999 V2000
  -18.3557  -38.9828   -5.4572 C   0  0  0  0  0  0  0  0  0  0  0  0
  -18.6702  -38.4025   -6.7940 C   0  0  2  0  0  0  0  0  0  0  0  0
  -19.9733  -37.6050   -6.6351 C   0  0  0  0  0  0  0  0  0  0  0  0
  -21.0694  -38.6313   -6.5071 C   0  0  0  0  0  0  0  0  0  0  0  0
  -22.3012  -38.1295   -5.8255 C   0  0  0  0  0  0  0  0  0  0  0  0
  -23.3922  -39.1797   -6.0895 C   0  0  0  0  0  0  0  0  0  0  0  0
  -23.0231  -40.5227   -5.5446 C   0  0  0  0  0  0  0  0  0  0  0  0
  -22.8845  -41.5864   -6.6417 C   0  0  0  0  0  0  0  0  0  0  0  0
  -23.2481  -42.8962   -6.0754 C   0  0  0  0  0  0  0  0  0  0  0  0
  -22.2028  -43.9056   -6.1162 N   0  0  0  0  0  0  0  0  0  0  0  0
  -20.8539  -43.8560   -6.5754 C   0  0  0  0  0  0  0  0  0  0  0  0
  -19.8455  -42.9284   -6.3995 C   0  0  0  0  0  0  0  0  0  0  0  0
  -18.6172  -43.1771   -6.9871 C   0  0  0  0  0  0  0  0  0  0  0  0
  -18.4210  -44.3659   -7.7464 C   0  0  0  0  0  0  0  0  0  0  0  0
  -19.3996  -45.3020   -7.9368 C   0  0  0  0  0  0  0  0  0  0  0  0
  -20.5966  -45.0266   -7.3463 C   0  0  0  0  0  0  0  0  0  0  0  0
  -17.3607  -42.4018   -7.0011 C   0  0  0  0  0  0  0  0  0  0  0  0
  -16.2632  -43.1043   -6.7801 O   0  0  0  0  0  0  0  0  0  0  0  0
  -17.1490  -41.0028   -7.2217 N   0  0  0  0  0  0  0  0  0  0  0  0
  -17.7273  -40.2168   -8.2662 C   0  0  1  0  0  0  0  0  0  0  0  0
  -18.9158  -39.4109   -7.8617 C   0  0  0  0  0  0  0  0  0  0  0  0
  -16.6734  -39.2437   -8.8118 C   0  0  2  0  0  0  0  0  0  0  0  0
  -17.2725  -38.3502   -9.6900 O   0  0  0  0  0  0  0  0  0  0  0  0
  -15.5779  -40.0189   -9.5295 C   0  0  0  0  0  0  0  0  0  0  0  0
  -14.3833  -40.1041   -8.7434 N   0  0  0  0  0  0  0  0  0  0  0  0
  -13.1844  -40.1425   -9.5251 C   0  0  0  0  0  0  0  0  0  0  0  0
  -13.2468  -39.1718  -10.6727 C   0  0  0  0  0  0  0  0  0  0  0  0
  -12.7348  -37.8877  -10.7263 C   0  0  0  0  0  0  0  0  0  0  0  0
  -13.0125  -37.3486  -11.9631 C   0  0  0  0  0  0  0  0  0  0  0  0
  -13.6831  -38.3057  -12.6352 N   0  0  0  0  0  0  0  0  0  0  0  0
  -13.8231  -39.3809  -11.8787 N   0  0  0  0  0  0  0  0  0  0  0  0
  -12.6260  -35.9870  -12.4059 C   0  0  0  0  0  0  0  0  0  0  0  0
  -12.3387  -35.9600  -13.8897 C   0  0  0  0  0  0  0  0  0  0  0  0
  -13.7226  -35.0028  -12.0674 C   0  0  0  0  0  0  0  0  0  0  0  0
  -11.3878  -35.5824  -11.6403 C   0  0  0  0  0  0  0  0  0  0  0  0
  2  1  1  1
  2  3  1  0
  3  4  1  0
  4  5  1  0
  5  6  1  0
  6  7  1  0
  7  8  1  0
  8  9  1  0
  9 10  1  0
 10 11  1  0
 11 12  1  0
 12 13  2  0
 13 14  1  0
 14 15  2  0
 15 16  1  0
 13 17  1  0
 17 18  2  0
 17 19  1  0
 19 20  1  0
 20 21  1  1
 20 22  1  0
 22 23  1  6
 22 24  1  0
 24 25  1  0
 25 26  1  0
 26 27  1  0
 27 28  1  0
 28 29  2  0
 29 30  1  0
 30 31  1  0
 29 32  1  0
 32 33  1  0
 32 34  1  0
 32 35  1  0
 16 11  2  0
 21  2  1  0
 31 27  2  0
M  END
$$$$
