
     RDKit          3D

 35 37  0  0  0  0  0  0  0  0999 V2000
  -19.7004  -40.0699   -5.3512 C   0  0  0  0  0  0  0  0  0  0  0  0
  -19.3343  -39.1781   -6.4884 C   0  0  2  0  0  0  0  0  0  0  0  0
  -20.5689  -38.3154   -6.7899 C   0  0  0  0  0  0  0  0  0  0  0  0
  -21.5584  -39.2345   -7.4583 C   0  0  0  0  0  0  0  0  0  0  0  0
  -22.9793  -38.7823   -7.3567 C   0  0  0  0  0  0  0  0  0  0  0  0
  -23.7714  -39.6376   -8.3586 C   0  0  0  0  0  0  0  0  0  0  0  0
  -23.6808  -41.0974   -8.0464 C   0  0  0  0  0  0  0  0  0  0  0  0
  -22.9930  -41.8972   -9.1606 C   0  0  0  0  0  0  0  0  0  0  0  0
  -23.5520  -43.2595   -9.1754 C   0  0  0  0  0  0  0  0  0  0  0  0
  -22.5941  -44.3295   -8.9500 N   0  0  0  0  0  0  0  0  0  0  0  0
  -21.1954  -44.3078   -8.6746 C   0  0  0  0  0  0  0  0  0  0  0  0
  -20.4285  -43.5438   -7.8163 C   0  0  0  0  0  0  0  0  0  0  0  0
  -19.0637  -43.7712   -7.7794 C   0  0  0  0  0  0  0  0  0  0  0  0
  -18.4880  -44.7733   -8.6116 C   0  0  0  0  0  0  0  0  0  0  0  0
  -19.2215  -45.5452   -9.4698 C   0  0  0  0  0  0  0  0  0  0  0  0
  -20.5612  -45.2955   -9.4828 C   0  0  0  0  0  0  0  0  0  0  0  0
  -17.9835  -43.1363   -6.9982 C   0  0  0  0  0  0  0  0  0  0  0  0
  -17.1170  -43.9721   -6.4530 O   0  0  0  0  0  0  0  0  0  0  0  0
  -17.7290  -41.7502   -6.7439 N   0  0  0  0  0  0  0  0  0  0  0  0
  -17.7415  -40.6990   -7.7124 C   0  0  1  0  0  0  0  0  0  0  0  0
  -18.9970  -39.8939   -7.7497 C   0  0  0  0  0  0  0  0  0  0  0  0
  -16.5824  -39.7339   -7.4288 C   0  0  2  0  0  0  0  0  0  0  0  0
  -16.7950  -38.5377   -8.1014 O   0  0  0  0  0  0  0  0  0  0  0  0
  -15.2698  -40.3566   -7.8826 C   0  0  0  0  0  0  0  0  0  0  0  0
  -14.6377  -39.5795   -8.9067 N   0  0  0  0  0  0  0  0  0  0  0  0
  -14.7029  -40.1804  -10.2046 C   0  0  0  0  0  0  0  0  0  0  0  0
  -13.7644  -39.5070  -11.1684 C   0  0  0  0  0  0  0  0  0  0  0  0
  -13.9659  -38.3292  -11.8657 C   0  0  0  0  0  0  0  0  0  0  0  0
  -12.8541  -38.0725  -12.6373 C   0  0  0  0  0  0  0  0  0  0  0  0
  -12.0023  -39.0897  -12.3983 N   0  0  0  0  0  0  0  0  0  0  0  0
  -12.5347  -39.9366  -11.5338 N   0  0  0  0  0  0  0  0  0  0  0  0
  -12.6875  -36.8990  -13.5286 C   0  0  0  0  0  0  0  0  0  0  0  0
  -13.9276  -36.6703  -14.3623 C   0  0  0  0  0  0  0  0  0  0  0  0
  -12.3738  -35.6679  -12.7090 C   0  0  0  0  0  0  0  0  0  0  0  0
  -11.5076  -37.1658  -14.4340 C   0  0  0  0  0  0  0  0  0  0  0  0
  2  1  1  1
  2  3  1  0
  3  4  1  0
  4  5  1  0
  5  6  1  0
  6  7  1  0
  7  8  1  0
  8  9  1  0
  9 10  1  0
 10 11  1  0
 11 12  1  0
 12 13  2  0
 13 14  1  0
 14 15  2  0
 15 16  1  0
 13 17  1  0
 17 18  2  0
 17 19  1  0
 19 20  1  0
 20 21  1  1
 20 22  1  0
 22 23  1  6
 22 24  1  0
 24 25  1  0
 25 26  1  0
 26 27  1  0
 27 28  1  0
 28 29  2  0
 29 30  1  0
 30 31  1  0
 29 32  1  0
 32 33  1  0
 32 34  1  0
 32 35  1  0
 16 11  2  0
 21  2  1  0
 31 27  2  0
M  END
$$$$
