
     RDKit          3D

 35 37  0  0  0  0  0  0  0  0999 V2000
  -19.6980  -38.0875   -9.5836 C   0  0  0  0  0  0  0  0  0  0  0  0
  -19.5400  -39.3773  -10.3143 C   0  0  2  0  0  0  0  0  0  0  0  0
  -20.7911  -39.5467  -11.1893 C   0  0  0  0  0  0  0  0  0  0  0  0
  -21.9105  -39.8935  -10.2419 C   0  0  0  0  0  0  0  0  0  0  0  0
  -23.2750  -39.5830  -10.7667 C   0  0  0  0  0  0  0  0  0  0  0  0
  -24.2639  -40.2999   -9.8336 C   0  0  0  0  0  0  0  0  0  0  0  0
  -24.1455  -39.8276   -8.4195 C   0  0  0  0  0  0  0  0  0  0  0  0
  -23.7034  -40.9412   -7.4609 C   0  0  0  0  0  0  0  0  0  0  0  0
  -24.2833  -40.6767   -6.1335 C   0  0  0  0  0  0  0  0  0  0  0  0
  -23.3228  -40.5027   -5.0562 N   0  0  0  0  0  0  0  0  0  0  0  0
  -21.8971  -40.5021   -5.0478 C   0  0  0  0  0  0  0  0  0  0  0  0
  -20.9626  -39.9086   -5.8742 C   0  0  0  0  0  0  0  0  0  0  0  0
  -19.6216  -40.1021   -5.5916 C   0  0  0  0  0  0  0  0  0  0  0  0
  -19.2391  -40.8941   -4.4714 C   0  0  0  0  0  0  0  0  0  0  0  0
  -20.1410  -41.4929   -3.6357 C   0  0  0  0  0  0  0  0  0  0  0  0
  -21.4523  -41.2836   -3.9422 C   0  0  0  0  0  0  0  0  0  0  0  0
  -18.3975  -39.6267   -6.2666 C   0  0  0  0  0  0  0  0  0  0  0  0
  -17.4598  -39.1537   -5.4643 O   0  0  0  0  0  0  0  0  0  0  0  0
  -18.0693  -39.6033   -7.6603 N   0  0  0  0  0  0  0  0  0  0  0  0
  -18.2467  -40.6774   -8.5865 C   0  0  1  0  0  0  0  0  0  0  0  0
  -19.4684  -40.5783   -9.4371 C   0  0  0  0  0  0  0  0  0  0  0  0
  -17.0345  -40.7434   -9.5254 C   0  0  2  0  0  0  0  0  0  0  0  0
  -16.9642  -42.0010  -10.1103 O   0  0  0  0  0  0  0  0  0  0  0  0
  -15.7596  -40.4648   -8.7422 C   0  0  0  0  0  0  0  0  0  0  0  0
  -14.5943  -40.9131   -9.4447 N   0  0  0  0  0  0  0  0  0  0  0  0
  -13.4373  -40.1027   -9.2112 C   0  0  0  0  0  0  0  0  0  0  0  0
  -13.2347  -39.1044  -10.3183 C   0  0  0  0  0  0  0  0  0  0  0  0
  -13.4828  -37.7438  -10.2894 C   0  0  0  0  0  0  0  0  0  0  0  0
  -13.1589  -37.2056  -11.5153 C   0  0  0  0  0  0  0  0  0  0  0  0
  -12.7228  -38.2393  -12.2629 N   0  0  0  0  0  0  0  0  0  0  0  0
  -12.7659  -39.3592  -11.5615 N   0  0  0  0  0  0  0  0  0  0  0  0
  -13.2858  -35.7733  -11.8780 C   0  0  0  0  0  0  0  0  0  0  0  0
  -12.9579  -35.5518  -13.3369 C   0  0  0  0  0  0  0  0  0  0  0  0
  -14.6849  -35.2859  -11.5764 C   0  0  0  0  0  0  0  0  0  0  0  0
  -12.3255  -34.9878  -11.0155 C   0  0  0  0  0  0  0  0  0  0  0  0
  2  1  1  1
  2  3  1  0
  3  4  1  0
  4  5  1  0
  5  6  1  0
  6  7  1  0
  7  8  1  0
  8  9  1  0
  9 10  1  0
 10 11  1  0
 11 12  1  0
 12 13  2  0
 13 14  1  0
 14 15  2  0
 15 16  1  0
 13 17  1  0
 17 18  2  0
 17 19  1  0
 19 20  1  0
 20 21  1  6
 20 22  1  0
 22 23  1  1
 22 24  1  0
 24 25  1  0
 25 26  1  0
 26 27  1  0
 27 28  1  0
 28 29  2  0
 29 30  1  0
 30 31  1  0
 29 32  1  0
 32 33  1  0
 32 34  1  0
 32 35  1  0
 16 11  2  0
 21  2  1  0
 31 27  2  0
M  END
$$$$
