
     RDKit          3D

 35 37  0  0  0  0  0  0  0  0999 V2000
  -19.4853  -39.7007   -4.9944 C   0  0  0  0  0  0  0  0  0  0  0  0
  -19.5044  -38.7749   -6.1628 C   0  0  2  0  0  0  0  0  0  0  0  0
  -20.9139  -38.1674   -6.2235 C   0  0  0  0  0  0  0  0  0  0  0  0
  -21.8144  -39.2689   -6.7204 C   0  0  0  0  0  0  0  0  0  0  0  0
  -23.2538  -39.0929   -6.3586 C   0  0  0  0  0  0  0  0  0  0  0  0
  -24.0354  -40.0998   -7.2177 C   0  0  0  0  0  0  0  0  0  0  0  0
  -23.6151  -41.5104   -6.9524 C   0  0  0  0  0  0  0  0  0  0  0  0
  -22.9986  -42.1838   -8.1856 C   0  0  0  0  0  0  0  0  0  0  0  0
  -23.2824  -43.6274   -8.1242 C   0  0  0  0  0  0  0  0  0  0  0  0
  -22.1143  -44.4922   -8.0925 N   0  0  0  0  0  0  0  0  0  0  0  0
  -20.7188  -44.2009   -8.0712 C   0  0  0  0  0  0  0  0  0  0  0  0
  -19.9700  -43.2908   -7.3505 C   0  0  0  0  0  0  0  0  0  0  0  0
  -18.6026  -43.2544   -7.5620 C   0  0  0  0  0  0  0  0  0  0  0  0
  -18.0055  -44.1430   -8.5012 C   0  0  0  0  0  0  0  0  0  0  0  0
  -18.7207  -45.0544   -9.2281 C   0  0  0  0  0  0  0  0  0  0  0  0
  -20.0637  -45.0637   -8.9970 C   0  0  0  0  0  0  0  0  0  0  0  0
  -17.5405  -42.4129   -6.9755 C   0  0  0  0  0  0  0  0  0  0  0  0
  -16.4480  -43.0598   -6.6086 O   0  0  0  0  0  0  0  0  0  0  0  0
  -17.5123  -40.9996   -6.7463 N   0  0  0  0  0  0  0  0  0  0  0  0
  -17.8970  -39.9864   -7.6783 C   0  0  1  0  0  0  0  0  0  0  0  0
  -19.2685  -39.4350   -7.4765 C   0  0  0  0  0  0  0  0  0  0  0  0
  -16.9103  -38.8143   -7.5896 C   0  0  2  0  0  0  0  0  0  0  0  0
  -17.5546  -37.6338   -7.9358 O   0  0  0  0  0  0  0  0  0  0  0  0
  -15.7356  -39.0566   -8.5263 C   0  0  0  0  0  0  0  0  0  0  0  0
  -14.7468  -39.9059   -7.9319 N   0  0  0  0  0  0  0  0  0  0  0  0
  -13.7808  -40.4012   -8.8653 C   0  0  0  0  0  0  0  0  0  0  0  0
  -13.2303  -39.2949   -9.7236 C   0  0  0  0  0  0  0  0  0  0  0  0
  -13.3953  -39.1158  -11.0854 C   0  0  0  0  0  0  0  0  0  0  0  0
  -12.7242  -37.9758  -11.4694 C   0  0  0  0  0  0  0  0  0  0  0  0
  -12.1671  -37.4848  -10.3441 N   0  0  0  0  0  0  0  0  0  0  0  0
  -12.4628  -38.2589   -9.3139 N   0  0  0  0  0  0  0  0  0  0  0  0
  -12.6641  -37.4474  -12.8537 C   0  0  0  0  0  0  0  0  0  0  0  0
  -11.9994  -36.0902  -12.8882 C   0  0  0  0  0  0  0  0  0  0  0  0
  -11.9211  -38.4167  -13.7450 C   0  0  0  0  0  0  0  0  0  0  0  0
  -14.0793  -37.3342  -13.3708 C   0  0  0  0  0  0  0  0  0  0  0  0
  2  1  1  1
  2  3  1  0
  3  4  1  0
  4  5  1  0
  5  6  1  0
  6  7  1  0
  7  8  1  0
  8  9  1  0
  9 10  1  0
 10 11  1  0
 11 12  1  0
 12 13  2  0
 13 14  1  0
 14 15  2  0
 15 16  1  0
 13 17  1  0
 17 18  2  0
 17 19  1  0
 19 20  1  0
 20 21  1  1
 20 22  1  0
 22 23  1  6
 22 24  1  0
 24 25  1  0
 25 26  1  0
 26 27  1  0
 27 28  1  0
 28 29  2  0
 29 30  1  0
 30 31  1  0
 29 32  1  0
 32 33  1  0
 32 34  1  0
 32 35  1  0
 16 11  2  0
 21  2  1  0
 31 27  2  0
M  END
$$$$
