
     RDKit          3D

 35 37  0  0  0  0  0  0  0  0999 V2000
  -19.3672  -37.8902   -9.3211 C   0  0  0  0  0  0  0  0  0  0  0  0
  -18.3861  -37.4730   -8.2790 C   0  0  2  0  0  0  0  0  0  0  0  0
  -18.3809  -35.9370   -8.2652 C   0  0  0  0  0  0  0  0  0  0  0  0
  -17.6575  -35.5179   -9.5190 C   0  0  0  0  0  0  0  0  0  0  0  0
  -17.9883  -34.1364   -9.9837 C   0  0  0  0  0  0  0  0  0  0  0  0
  -16.9308  -33.7775  -11.0399 C   0  0  0  0  0  0  0  0  0  0  0  0
  -16.9524  -34.7210  -12.2001 C   0  0  0  0  0  0  0  0  0  0  0  0
  -15.6429  -35.5075  -12.3451 C   0  0  0  0  0  0  0  0  0  0  0  0
  -15.4304  -35.8083  -13.7708 C   0  0  0  0  0  0  0  0  0  0  0  0
  -15.3509  -37.2208  -14.1054 N   0  0  0  0  0  0  0  0  0  0  0  0
  -15.4796  -38.3937  -13.3052 C   0  0  0  0  0  0  0  0  0  0  0  0
  -16.3823  -38.7553  -12.3239 C   0  0  0  0  0  0  0  0  0  0  0  0
  -16.2350  -39.9931  -11.7226 C   0  0  0  0  0  0  0  0  0  0  0  0
  -15.1745  -40.8554  -12.1230 C   0  0  0  0  0  0  0  0  0  0  0  0
  -14.2670  -40.5252  -13.0913 C   0  0  0  0  0  0  0  0  0  0  0  0
  -14.4394  -39.2999  -13.6624 C   0  0  0  0  0  0  0  0  0  0  0  0
  -17.0057  -40.6652  -10.6574 C   0  0  0  0  0  0  0  0  0  0  0  0
  -17.2920  -41.9351  -10.8854 O   0  0  0  0  0  0  0  0  0  0  0  0
  -17.4881  -40.1507   -9.4111 N   0  0  0  0  0  0  0  0  0  0  0  0
  -16.7407  -39.3710   -8.4747 C   0  0  1  0  0  0  0  0  0  0  0  0
  -16.9849  -37.9009   -8.5447 C   0  0  0  0  0  0  0  0  0  0  0  0
  -17.0793  -39.8281   -7.0493 C   0  0  2  0  0  0  0  0  0  0  0  0
  -16.5816  -38.9102   -6.1336 O   0  0  0  0  0  0  0  0  0  0  0  0
  -16.4726  -41.1994   -6.7894 C   0  0  0  0  0  0  0  0  0  0  0  0
  -17.2759  -42.2502   -7.3398 N   0  0  0  0  0  0  0  0  0  0  0  0
  -16.5162  -43.2585   -8.0150 C   0  0  0  0  0  0  0  0  0  0  0  0
  -15.0533  -42.9091   -8.0536 C   0  0  0  0  0  0  0  0  0  0  0  0
  -14.4156  -42.0208   -8.9010 C   0  0  0  0  0  0  0  0  0  0  0  0
  -13.0724  -42.0009   -8.5965 C   0  0  0  0  0  0  0  0  0  0  0  0
  -12.9171  -42.8701   -7.5777 N   0  0  0  0  0  0  0  0  0  0  0  0
  -14.0814  -43.4070   -7.2552 N   0  0  0  0  0  0  0  0  0  0  0  0
  -12.0544  -41.1710   -9.2851 C   0  0  0  0  0  0  0  0  0  0  0  0
  -12.6195  -40.5515  -10.5428 C   0  0  0  0  0  0  0  0  0  0  0  0
  -11.5493  -40.0933   -8.3525 C   0  0  0  0  0  0  0  0  0  0  0  0
  -10.8870  -42.0632   -9.6374 C   0  0  0  0  0  0  0  0  0  0  0  0
  2  1  1  6
  2  3  1  0
  3  4  1  0
  4  5  1  0
  5  6  1  0
  6  7  1  0
  7  8  1  0
  8  9  1  0
  9 10  1  0
 10 11  1  0
 11 12  1  0
 12 13  2  0
 13 14  1  0
 14 15  2  0
 15 16  1  0
 13 17  1  0
 17 18  2  0
 17 19  1  0
 19 20  1  0
 20 21  1  1
 20 22  1  0
 22 23  1  1
 22 24  1  0
 24 25  1  0
 25 26  1  0
 26 27  1  0
 27 28  1  0
 28 29  2  0
 29 30  1  0
 30 31  1  0
 29 32  1  0
 32 33  1  0
 32 34  1  0
 32 35  1  0
 16 11  2  0
 21  2  1  0
 31 27  2  0
M  END
$$$$
