
     RDKit          3D

 35 37  0  0  0  0  0  0  0  0999 V2000
  -16.2529  -37.2627  -12.7495 C   0  0  0  0  0  0  0  0  0  0  0  0
  -16.2144  -36.7274  -11.3586 C   0  0  2  0  0  0  0  0  0  0  0  0
  -15.0157  -35.7698  -11.2855 C   0  0  0  0  0  0  0  0  0  0  0  0
  -13.7898  -36.6461  -11.2856 C   0  0  0  0  0  0  0  0  0  0  0  0
  -12.5465  -35.9596  -11.7512 C   0  0  0  0  0  0  0  0  0  0  0  0
  -11.3799  -36.8832  -11.3659 C   0  0  0  0  0  0  0  0  0  0  0  0
  -11.4893  -38.2270  -12.0132 C   0  0  0  0  0  0  0  0  0  0  0  0
  -11.6486  -39.3619  -10.9929 C   0  0  0  0  0  0  0  0  0  0  0  0
  -11.0405  -40.5825  -11.5485 C   0  0  0  0  0  0  0  0  0  0  0  0
  -11.9418  -41.7120  -11.7072 N   0  0  0  0  0  0  0  0  0  0  0  0
  -13.3383  -41.8534  -11.4573 C   0  0  0  0  0  0  0  0  0  0  0  0
  -14.4212  -41.0464  -11.7479 C   0  0  0  0  0  0  0  0  0  0  0  0
  -15.6798  -41.4762  -11.3644 C   0  0  0  0  0  0  0  0  0  0  0  0
  -15.8301  -42.7223  -10.6914 C   0  0  0  0  0  0  0  0  0  0  0  0
  -14.7775  -43.5422  -10.3913 C   0  0  0  0  0  0  0  0  0  0  0  0
  -13.5526  -43.0895  -10.7813 C   0  0  0  0  0  0  0  0  0  0  0  0
  -17.0142  -40.8614  -11.5113 C   0  0  0  0  0  0  0  0  0  0  0  0
  -17.9678  -41.6778  -11.9245 O   0  0  0  0  0  0  0  0  0  0  0  0
  -17.4341  -39.5136  -11.2705 N   0  0  0  0  0  0  0  0  0  0  0  0
  -17.1207  -38.7256  -10.1199 C   0  0  1  0  0  0  0  0  0  0  0  0
  -15.9996  -37.7591  -10.3066 C   0  0  0  0  0  0  0  0  0  0  0  0
  -18.3594  -37.9211   -9.7031 C   0  0  2  0  0  0  0  0  0  0  0  0
  -18.2293  -37.5136   -8.3819 O   0  0  0  0  0  0  0  0  0  0  0  0
  -19.6077  -38.7775   -9.8600 C   0  0  0  0  0  0  0  0  0  0  0  0
  -20.6783  -38.3162   -9.0275 N   0  0  0  0  0  0  0  0  0  0  0  0
  -21.5230  -39.3669   -8.5454 C   0  0  0  0  0  0  0  0  0  0  0  0
  -21.0570  -39.8753   -7.2083 C   0  0  0  0  0  0  0  0  0  0  0  0
  -21.7010  -39.7679   -5.9887 C   0  0  0  0  0  0  0  0  0  0  0  0
  -20.9265  -40.3695   -5.0214 C   0  0  0  0  0  0  0  0  0  0  0  0
  -19.8338  -40.8288   -5.6636 N   0  0  0  0  0  0  0  0  0  0  0  0
  -19.9069  -40.5397   -6.9516 N   0  0  0  0  0  0  0  0  0  0  0  0
  -21.2775  -40.4613   -3.5835 C   0  0  0  0  0  0  0  0  0  0  0  0
  -22.7188  -40.0695   -3.3505 C   0  0  0  0  0  0  0  0  0  0  0  0
  -21.0289  -41.8649   -3.0795 C   0  0  0  0  0  0  0  0  0  0  0  0
  -20.3666  -39.5272   -2.8213 C   0  0  0  0  0  0  0  0  0  0  0  0
  2  1  1  6
  2  3  1  0
  3  4  1  0
  4  5  1  0
  5  6  1  0
  6  7  1  0
  7  8  1  0
  8  9  1  0
  9 10  1  0
 10 11  1  0
 11 12  1  0
 12 13  2  0
 13 14  1  0
 14 15  2  0
 15 16  1  0
 13 17  1  0
 17 18  2  0
 17 19  1  0
 19 20  1  0
 20 21  1  6
 20 22  1  0
 22 23  1  1
 22 24  1  0
 24 25  1  0
 25 26  1  0
 26 27  1  0
 27 28  1  0
 28 29  2  0
 29 30  1  0
 30 31  1  0
 29 32  1  0
 32 33  1  0
 32 34  1  0
 32 35  1  0
 16 11  2  0
 21  2  1  0
 31 27  2  0
M  END
$$$$
