
     RDKit          3D

 35 37  0  0  0  0  0  0  0  0999 V2000
  -19.5626  -38.1088   -7.5738 C   0  0  0  0  0  0  0  0  0  0  0  0
  -19.7479  -38.7908   -8.8865 C   0  0  2  0  0  0  0  0  0  0  0  0
  -21.0635  -38.2629   -9.4780 C   0  0  0  0  0  0  0  0  0  0  0  0
  -22.1627  -38.9021   -8.6693 C   0  0  0  0  0  0  0  0  0  0  0  0
  -23.4570  -38.1553   -8.6976 C   0  0  0  0  0  0  0  0  0  0  0  0
  -24.5129  -39.1105   -8.1182 C   0  0  0  0  0  0  0  0  0  0  0  0
  -24.1932  -39.5172   -6.7150 C   0  0  0  0  0  0  0  0  0  0  0  0
  -23.9443  -41.0253   -6.5803 C   0  0  0  0  0  0  0  0  0  0  0  0
  -24.3561  -41.4513   -5.2322 C   0  0  0  0  0  0  0  0  0  0  0  0
  -23.3078  -42.0433   -4.4175 N   0  0  0  0  0  0  0  0  0  0  0  0
  -21.9208  -42.2597   -4.6671 C   0  0  0  0  0  0  0  0  0  0  0  0
  -20.9380  -41.4566   -5.2125 C   0  0  0  0  0  0  0  0  0  0  0  0
  -19.6574  -41.9706   -5.3203 C   0  0  0  0  0  0  0  0  0  0  0  0
  -19.3834  -43.2943   -4.8719 C   0  0  0  0  0  0  0  0  0  0  0  0
  -20.3352  -44.1117   -4.3274 C   0  0  0  0  0  0  0  0  0  0  0  0
  -21.5850  -43.5760   -4.2366 C   0  0  0  0  0  0  0  0  0  0  0  0
  -18.4085  -41.3909   -5.8537 C   0  0  0  0  0  0  0  0  0  0  0  0
  -17.3350  -41.5827   -5.1070 O   0  0  0  0  0  0  0  0  0  0  0  0
  -18.1820  -40.6544   -7.0607 N   0  0  0  0  0  0  0  0  0  0  0  0
  -18.6590  -41.0017   -8.3627 C   0  0  1  0  0  0  0  0  0  0  0  0
  -19.8845  -40.2709   -8.7985 C   0  0  0  0  0  0  0  0  0  0  0  0
  -17.5610  -40.7203   -9.3972 C   0  0  2  0  0  0  0  0  0  0  0  0
  -17.8193  -41.4354  -10.5593 O   0  0  0  0  0  0  0  0  0  0  0  0
  -16.2056  -41.1214   -8.8331 C   0  0  0  0  0  0  0  0  0  0  0  0
  -15.5999  -40.0548   -8.0930 N   0  0  0  0  0  0  0  0  0  0  0  0
  -14.4077  -39.5423   -8.6979 C   0  0  0  0  0  0  0  0  0  0  0  0
  -14.6335  -38.1744   -9.2819 C   0  0  0  0  0  0  0  0  0  0  0  0
  -14.4169  -37.7619  -10.5845 C   0  0  0  0  0  0  0  0  0  0  0  0
  -14.7534  -36.4305  -10.6920 C   0  0  0  0  0  0  0  0  0  0  0  0
  -15.1656  -36.0588   -9.4634 N   0  0  0  0  0  0  0  0  0  0  0  0
  -15.0964  -37.0829   -8.6302 N   0  0  0  0  0  0  0  0  0  0  0  0
  -14.6598  -35.6251  -11.9337 C   0  0  0  0  0  0  0  0  0  0  0  0
  -13.2252  -35.5024  -12.3941 C   0  0  0  0  0  0  0  0  0  0  0  0
  -15.5061  -36.2498  -13.0198 C   0  0  0  0  0  0  0  0  0  0  0  0
  -15.2198  -34.2525  -11.6418 C   0  0  0  0  0  0  0  0  0  0  0  0
  2  1  1  1
  2  3  1  0
  3  4  1  0
  4  5  1  0
  5  6  1  0
  6  7  1  0
  7  8  1  0
  8  9  1  0
  9 10  1  0
 10 11  1  0
 11 12  1  0
 12 13  2  0
 13 14  1  0
 14 15  2  0
 15 16  1  0
 13 17  1  0
 17 18  2  0
 17 19  1  0
 19 20  1  0
 20 21  1  6
 20 22  1  0
 22 23  1  6
 22 24  1  0
 24 25  1  0
 25 26  1  0
 26 27  1  0
 27 28  1  0
 28 29  2  0
 29 30  1  0
 30 31  1  0
 29 32  1  0
 32 33  1  0
 32 34  1  0
 32 35  1  0
 16 11  2  0
 21  2  1  0
 31 27  2  0
M  END
$$$$
