
     RDKit          3D

 35 37  0  0  0  0  0  0  0  0999 V2000
  -19.3930  -39.4607   -5.3801 C   0  0  0  0  0  0  0  0  0  0  0  0
  -19.5620  -38.7431   -6.6759 C   0  0  2  0  0  0  0  0  0  0  0  0
  -21.0077  -38.2253   -6.7101 C   0  0  0  0  0  0  0  0  0  0  0  0
  -21.8723  -39.4374   -6.9429 C   0  0  0  0  0  0  0  0  0  0  0  0
  -23.2874  -39.2762   -6.4897 C   0  0  0  0  0  0  0  0  0  0  0  0
  -24.0679  -40.4491   -7.1042 C   0  0  0  0  0  0  0  0  0  0  0  0
  -23.5394  -41.7736   -6.6535 C   0  0  0  0  0  0  0  0  0  0  0  0
  -22.9794  -42.6100   -7.8115 C   0  0  0  0  0  0  0  0  0  0  0  0
  -23.1651  -44.0360   -7.4944 C   0  0  0  0  0  0  0  0  0  0  0  0
  -21.9455  -44.8241   -7.4264 N   0  0  0  0  0  0  0  0  0  0  0  0
  -20.5740  -44.4638   -7.5741 C   0  0  0  0  0  0  0  0  0  0  0  0
  -19.8306  -43.4108   -7.0772 C   0  0  0  0  0  0  0  0  0  0  0  0
  -18.4890  -43.3415   -7.4105 C   0  0  0  0  0  0  0  0  0  0  0  0
  -17.9116  -44.3423   -8.2433 C   0  0  0  0  0  0  0  0  0  0  0  0
  -18.6219  -45.3960   -8.7489 C   0  0  0  0  0  0  0  0  0  0  0  0
  -19.9395  -45.4341   -8.4029 C   0  0  0  0  0  0  0  0  0  0  0  0
  -17.4401  -42.3626   -7.0619 C   0  0  0  0  0  0  0  0  0  0  0  0
  -16.2833  -42.8844   -6.6927 O   0  0  0  0  0  0  0  0  0  0  0  0
  -17.4840  -40.9312   -7.0662 N   0  0  0  0  0  0  0  0  0  0  0  0
  -18.0039  -40.1067   -8.1116 C   0  0  1  0  0  0  0  0  0  0  0  0
  -19.3878  -39.5988   -7.8819 C   0  0  0  0  0  0  0  0  0  0  0  0
  -17.0899  -38.8881   -8.2989 C   0  0  2  0  0  0  0  0  0  0  0  0
  -17.5178  -38.1466   -9.3923 O   0  0  0  0  0  0  0  0  0  0  0  0
  -15.6552  -39.3477   -8.5147 C   0  0  0  0  0  0  0  0  0  0  0  0
  -14.8006  -38.2636   -8.8978 N   0  0  0  0  0  0  0  0  0  0  0  0
  -14.5078  -38.2324  -10.2990 C   0  0  0  0  0  0  0  0  0  0  0  0
  -14.1319  -39.5962  -10.8111 C   0  0  0  0  0  0  0  0  0  0  0  0
  -14.1022  -40.7875  -10.1084 C   0  0  0  0  0  0  0  0  0  0  0  0
  -13.7023  -41.7957  -10.9575 C   0  0  0  0  0  0  0  0  0  0  0  0
  -13.4973  -41.2056  -12.1522 N   0  0  0  0  0  0  0  0  0  0  0  0
  -13.7492  -39.9103  -12.0700 N   0  0  0  0  0  0  0  0  0  0  0  0
  -13.5479  -43.2205  -10.5761 C   0  0  0  0  0  0  0  0  0  0  0  0
  -12.2246  -43.4569   -9.8848 C   0  0  0  0  0  0  0  0  0  0  0  0
  -14.6896  -43.6418   -9.6788 C   0  0  0  0  0  0  0  0  0  0  0  0
  -13.6190  -44.0503  -11.8368 C   0  0  0  0  0  0  0  0  0  0  0  0
  2  1  1  1
  2  3  1  0
  3  4  1  0
  4  5  1  0
  5  6  1  0
  6  7  1  0
  7  8  1  0
  8  9  1  0
  9 10  1  0
 10 11  1  0
 11 12  1  0
 12 13  2  0
 13 14  1  0
 14 15  2  0
 15 16  1  0
 13 17  1  0
 17 18  2  0
 17 19  1  0
 19 20  1  0
 20 21  1  1
 20 22  1  0
 22 23  1  6
 22 24  1  0
 24 25  1  0
 25 26  1  0
 26 27  1  0
 27 28  1  0
 28 29  2  0
 29 30  1  0
 30 31  1  0
 29 32  1  0
 32 33  1  0
 32 34  1  0
 32 35  1  0
 16 11  2  0
 21  2  1  0
 31 27  2  0
M  END
$$$$
