
     RDKit          3D

 35 37  0  0  0  0  0  0  0  0999 V2000
  -19.1883  -39.3695   -5.4026 C   0  0  0  0  0  0  0  0  0  0  0  0
  -19.0414  -38.6918   -6.7223 C   0  0  2  0  0  0  0  0  0  0  0  0
  -20.3289  -37.8864   -6.9524 C   0  0  0  0  0  0  0  0  0  0  0  0
  -21.3960  -38.9011   -7.2725 C   0  0  0  0  0  0  0  0  0  0  0  0
  -22.7891  -38.4284   -7.0087 C   0  0  0  0  0  0  0  0  0  0  0  0
  -23.7198  -39.4396   -7.6970 C   0  0  0  0  0  0  0  0  0  0  0  0
  -23.5437  -40.8233   -7.1575 C   0  0  0  0  0  0  0  0  0  0  0  0
  -23.0368  -41.8097   -8.2180 C   0  0  0  0  0  0  0  0  0  0  0  0
  -23.5584  -43.1498   -7.9012 C   0  0  0  0  0  0  0  0  0  0  0  0
  -22.5516  -44.1708   -7.6618 N   0  0  0  0  0  0  0  0  0  0  0  0
  -21.1273  -44.1111   -7.6380 C   0  0  0  0  0  0  0  0  0  0  0  0
  -20.2437  -43.2146   -7.0688 C   0  0  0  0  0  0  0  0  0  0  0  0
  -18.8876  -43.4413   -7.2274 C   0  0  0  0  0  0  0  0  0  0  0  0
  -18.4385  -44.5770   -7.9601 C   0  0  0  0  0  0  0  0  0  0  0  0
  -19.2891  -45.4815   -8.5336 C   0  0  0  0  0  0  0  0  0  0  0  0
  -20.6169  -45.2287   -8.3599 C   0  0  0  0  0  0  0  0  0  0  0  0
  -17.7054  -42.6876   -6.7644 C   0  0  0  0  0  0  0  0  0  0  0  0
  -16.7398  -43.4216   -6.2395 O   0  0  0  0  0  0  0  0  0  0  0  0
  -17.4436  -41.2801   -6.8008 N   0  0  0  0  0  0  0  0  0  0  0  0
  -17.6448  -40.4136   -7.9196 C   0  0  1  0  0  0  0  0  0  0  0  0
  -18.9067  -39.6187   -7.8799 C   0  0  0  0  0  0  0  0  0  0  0  0
  -16.4770  -39.4219   -8.0098 C   0  0  2  0  0  0  0  0  0  0  0  0
  -16.9664  -38.1222   -8.0092 O   0  0  0  0  0  0  0  0  0  0  0  0
  -15.6823  -39.6750   -9.2829 C   0  0  0  0  0  0  0  0  0  0  0  0
  -14.4361  -40.3275   -9.0120 N   0  0  0  0  0  0  0  0  0  0  0  0
  -13.6663  -40.6034  -10.1872 C   0  0  0  0  0  0  0  0  0  0  0  0
  -13.5718  -39.3940  -11.0771 C   0  0  0  0  0  0  0  0  0  0  0  0
  -12.5916  -38.4177  -11.0802 C   0  0  0  0  0  0  0  0  0  0  0  0
  -12.8889  -37.4911  -12.0550 C   0  0  0  0  0  0  0  0  0  0  0  0
  -14.0350  -37.9158  -12.6237 N   0  0  0  0  0  0  0  0  0  0  0  0
  -14.4404  -39.0362  -12.0506 N   0  0  0  0  0  0  0  0  0  0  0  0
  -12.0747  -36.2917  -12.3678 C   0  0  0  0  0  0  0  0  0  0  0  0
  -11.8265  -36.1768  -13.8545 C   0  0  0  0  0  0  0  0  0  0  0  0
  -12.7671  -35.0491  -11.8554 C   0  0  0  0  0  0  0  0  0  0  0  0
  -10.7567  -36.4210  -11.6403 C   0  0  0  0  0  0  0  0  0  0  0  0
  2  1  1  1
  2  3  1  0
  3  4  1  0
  4  5  1  0
  5  6  1  0
  6  7  1  0
  7  8  1  0
  8  9  1  0
  9 10  1  0
 10 11  1  0
 11 12  1  0
 12 13  2  0
 13 14  1  0
 14 15  2  0
 15 16  1  0
 13 17  1  0
 17 18  2  0
 17 19  1  0
 19 20  1  0
 20 21  1  1
 20 22  1  0
 22 23  1  6
 22 24  1  0
 24 25  1  0
 25 26  1  0
 26 27  1  0
 27 28  1  0
 28 29  2  0
 29 30  1  0
 30 31  1  0
 29 32  1  0
 32 33  1  0
 32 34  1  0
 32 35  1  0
 16 11  2  0
 21  2  1  0
 31 27  2  0
M  END
$$$$
