
     RDKit          3D

 35 37  0  0  0  0  0  0  0  0999 V2000
  -18.4582  -39.2429   -6.1578 C   0  0  0  0  0  0  0  0  0  0  0  0
  -18.6036  -39.0567   -7.6298 C   0  0  2  0  0  0  0  0  0  0  0  0
  -19.7884  -38.1022   -7.8406 C   0  0  0  0  0  0  0  0  0  0  0  0
  -21.0242  -38.9081   -7.5338 C   0  0  0  0  0  0  0  0  0  0  0  0
  -22.2130  -38.0855   -7.1544 C   0  0  0  0  0  0  0  0  0  0  0  0
  -23.4227  -39.0321   -7.2134 C   0  0  0  0  0  0  0  0  0  0  0  0
  -23.2816  -40.1838   -6.2698 C   0  0  0  0  0  0  0  0  0  0  0  0
  -23.2265  -41.5357   -6.9935 C   0  0  0  0  0  0  0  0  0  0  0  0
  -23.8060  -42.5642   -6.1134 C   0  0  0  0  0  0  0  0  0  0  0  0
  -22.9132  -43.6542   -5.7552 N   0  0  0  0  0  0  0  0  0  0  0  0
  -21.5449  -43.9017   -6.0699 C   0  0  0  0  0  0  0  0  0  0  0  0
  -20.4285  -43.0880   -6.0679 C   0  0  0  0  0  0  0  0  0  0  0  0
  -19.2134  -43.6423   -6.4311 C   0  0  0  0  0  0  0  0  0  0  0  0
  -19.1400  -45.0183   -6.7913 C   0  0  0  0  0  0  0  0  0  0  0  0
  -20.2273  -45.8479   -6.8018 C   0  0  0  0  0  0  0  0  0  0  0  0
  -21.4078  -45.2709   -6.4403 C   0  0  0  0  0  0  0  0  0  0  0  0
  -17.8616  -43.0587   -6.5408 C   0  0  0  0  0  0  0  0  0  0  0  0
  -16.8903  -43.7857   -6.0165 O   0  0  0  0  0  0  0  0  0  0  0  0
  -17.4412  -41.8244   -7.1329 N   0  0  0  0  0  0  0  0  0  0  0  0
  -17.8364  -41.3254   -8.4127 C   0  0  1  0  0  0  0  0  0  0  0  0
  -18.9221  -40.3026   -8.3804 C   0  0  0  0  0  0  0  0  0  0  0  0
  -16.6237  -40.6898   -9.1061 C   0  0  2  0  0  0  0  0  0  0  0  0
  -15.9354  -41.6586   -9.8247 O   0  0  0  0  0  0  0  0  0  0  0  0
  -15.7039  -40.0652   -8.0668 C   0  0  0  0  0  0  0  0  0  0  0  0
  -14.9885  -38.9420   -8.5951 N   0  0  0  0  0  0  0  0  0  0  0  0
  -14.0635  -39.2878   -9.6317 C   0  0  0  0  0  0  0  0  0  0  0  0
  -14.1929  -38.3644  -10.8124 C   0  0  0  0  0  0  0  0  0  0  0  0
  -14.3535  -36.9903  -10.8009 C   0  0  0  0  0  0  0  0  0  0  0  0
  -14.4295  -36.5398  -12.1004 C   0  0  0  0  0  0  0  0  0  0  0  0
  -14.3148  -37.6381  -12.8738 N   0  0  0  0  0  0  0  0  0  0  0  0
  -14.1753  -38.7146  -12.1190 N   0  0  0  0  0  0  0  0  0  0  0  0
  -14.6022  -35.1230  -12.5027 C   0  0  0  0  0  0  0  0  0  0  0  0
  -15.8500  -34.9440  -13.3370 C   0  0  0  0  0  0  0  0  0  0  0  0
  -14.6621  -34.2411  -11.2761 C   0  0  0  0  0  0  0  0  0  0  0  0
  -13.3895  -34.7161  -13.3070 C   0  0  0  0  0  0  0  0  0  0  0  0
  2  1  1  1
  2  3  1  0
  3  4  1  0
  4  5  1  0
  5  6  1  0
  6  7  1  0
  7  8  1  0
  8  9  1  0
  9 10  1  0
 10 11  1  0
 11 12  1  0
 12 13  2  0
 13 14  1  0
 14 15  2  0
 15 16  1  0
 13 17  1  0
 17 18  2  0
 17 19  1  0
 19 20  1  0
 20 21  1  1
 20 22  1  0
 22 23  1  1
 22 24  1  0
 24 25  1  0
 25 26  1  0
 26 27  1  0
 27 28  1  0
 28 29  2  0
 29 30  1  0
 30 31  1  0
 29 32  1  0
 32 33  1  0
 32 34  1  0
 32 35  1  0
 16 11  2  0
 21  2  1  0
 31 27  2  0
M  END
$$$$
