
     RDKit          3D

 35 37  0  0  0  0  0  0  0  0999 V2000
  -18.4512  -38.7422   -5.3453 C   0  0  0  0  0  0  0  0  0  0  0  0
  -18.8439  -38.2837   -6.7084 C   0  0  2  0  0  0  0  0  0  0  0  0
  -20.2133  -37.6021   -6.5691 C   0  0  0  0  0  0  0  0  0  0  0  0
  -21.2050  -38.7150   -6.3482 C   0  0  0  0  0  0  0  0  0  0  0  0
  -22.4659  -38.2858   -5.6701 C   0  0  0  0  0  0  0  0  0  0  0  0
  -23.4575  -39.4481   -5.8389 C   0  0  0  0  0  0  0  0  0  0  0  0
  -22.9532  -40.7118   -5.2179 C   0  0  0  0  0  0  0  0  0  0  0  0
  -22.7352  -41.8286   -6.2473 C   0  0  0  0  0  0  0  0  0  0  0  0
  -22.9630  -43.1259   -5.5890 C   0  0  0  0  0  0  0  0  0  0  0  0
  -21.8280  -44.0343   -5.5906 N   0  0  0  0  0  0  0  0  0  0  0  0
  -20.4986  -43.8901   -6.0852 C   0  0  0  0  0  0  0  0  0  0  0  0
  -19.5791  -42.8630   -5.9944 C   0  0  0  0  0  0  0  0  0  0  0  0
  -18.3440  -43.0349   -6.5949 C   0  0  0  0  0  0  0  0  0  0  0  0
  -18.0505  -44.2481   -7.2807 C   0  0  0  0  0  0  0  0  0  0  0  0
  -18.9397  -45.2818   -7.3862 C   0  0  0  0  0  0  0  0  0  0  0  0
  -20.1462  -45.0802   -6.7852 C   0  0  0  0  0  0  0  0  0  0  0  0
  -17.1667  -42.1488   -6.6899 C   0  0  0  0  0  0  0  0  0  0  0  0
  -16.0039  -42.7300   -6.4512 O   0  0  0  0  0  0  0  0  0  0  0  0
  -17.0922  -40.7539   -7.0052 N   0  0  0  0  0  0  0  0  0  0  0  0
  -17.7614  -40.0963   -8.0836 C   0  0  1  0  0  0  0  0  0  0  0  0
  -19.0130  -39.3792   -7.7026 C   0  0  0  0  0  0  0  0  0  0  0  0
  -16.8144  -39.0678   -8.7166 C   0  0  2  0  0  0  0  0  0  0  0  0
  -17.5112  -37.8986   -8.9926 O   0  0  0  0  0  0  0  0  0  0  0  0
  -16.2226  -39.6327   -9.9999 C   0  0  0  0  0  0  0  0  0  0  0  0
  -15.2322  -40.6331   -9.7345 N   0  0  0  0  0  0  0  0  0  0  0  0
  -13.9922  -40.0996   -9.2574 C   0  0  0  0  0  0  0  0  0  0  0  0
  -13.5023  -38.9811  -10.1362 C   0  0  0  0  0  0  0  0  0  0  0  0
  -13.9865  -38.6017  -11.3753 C   0  0  0  0  0  0  0  0  0  0  0  0
  -13.2512  -37.5302  -11.8320 C   0  0  0  0  0  0  0  0  0  0  0  0
  -12.3398  -37.2780  -10.8711 N   0  0  0  0  0  0  0  0  0  0  0  0
  -12.4844  -38.1304   -9.8708 N   0  0  0  0  0  0  0  0  0  0  0  0
  -13.4666  -36.8378  -13.1256 C   0  0  0  0  0  0  0  0  0  0  0  0
  -13.3426  -37.8011  -14.2840 C   0  0  0  0  0  0  0  0  0  0  0  0
  -14.8264  -36.1771  -13.1380 C   0  0  0  0  0  0  0  0  0  0  0  0
  -12.4230  -35.7526  -13.2523 C   0  0  0  0  0  0  0  0  0  0  0  0
  2  1  1  1
  2  3  1  0
  3  4  1  0
  4  5  1  0
  5  6  1  0
  6  7  1  0
  7  8  1  0
  8  9  1  0
  9 10  1  0
 10 11  1  0
 11 12  1  0
 12 13  2  0
 13 14  1  0
 14 15  2  0
 15 16  1  0
 13 17  1  0
 17 18  2  0
 17 19  1  0
 19 20  1  0
 20 21  1  1
 20 22  1  0
 22 23  1  6
 22 24  1  0
 24 25  1  0
 25 26  1  0
 26 27  1  0
 27 28  1  0
 28 29  2  0
 29 30  1  0
 30 31  1  0
 29 32  1  0
 32 33  1  0
 32 34  1  0
 32 35  1  0
 16 11  2  0
 21  2  1  0
 31 27  2  0
M  END
$$$$
