
     RDKit          3D

 35 37  0  0  0  0  0  0  0  0999 V2000
  -19.7013  -39.4571   -5.1298 C   0  0  0  0  0  0  0  0  0  0  0  0
  -19.2325  -38.6181   -6.2695 C   0  0  2  0  0  0  0  0  0  0  0  0
  -20.4132  -37.7236   -6.6761 C   0  0  0  0  0  0  0  0  0  0  0  0
  -21.3927  -38.6300   -7.3760 C   0  0  0  0  0  0  0  0  0  0  0  0
  -22.7994  -38.1252   -7.3791 C   0  0  0  0  0  0  0  0  0  0  0  0
  -23.5589  -38.9861   -8.4013 C   0  0  0  0  0  0  0  0  0  0  0  0
  -23.5420  -40.4367   -8.0373 C   0  0  0  0  0  0  0  0  0  0  0  0
  -22.8164  -41.2978   -9.0796 C   0  0  0  0  0  0  0  0  0  0  0  0
  -23.4234  -42.6393   -9.0861 C   0  0  0  0  0  0  0  0  0  0  0  0
  -22.5216  -43.7338   -8.7663 N   0  0  0  0  0  0  0  0  0  0  0  0
  -21.1429  -43.7516   -8.4038 C   0  0  0  0  0  0  0  0  0  0  0  0
  -20.4030  -42.9859   -7.5236 C   0  0  0  0  0  0  0  0  0  0  0  0
  -19.0526  -43.2594   -7.3930 C   0  0  0  0  0  0  0  0  0  0  0  0
  -18.4637  -44.3090   -8.1545 C   0  0  0  0  0  0  0  0  0  0  0  0
  -19.1706  -45.0837   -9.0324 C   0  0  0  0  0  0  0  0  0  0  0  0
  -20.4968  -44.7880   -9.1381 C   0  0  0  0  0  0  0  0  0  0  0  0
  -18.0001  -42.6363   -6.5658 C   0  0  0  0  0  0  0  0  0  0  0  0
  -17.2008  -43.4827   -5.9402 O   0  0  0  0  0  0  0  0  0  0  0  0
  -17.7108  -41.2520   -6.3403 N   0  0  0  0  0  0  0  0  0  0  0  0
  -17.6242  -40.2348   -7.3409 C   0  0  1  0  0  0  0  0  0  0  0  0
  -18.8443  -39.3882   -7.4834 C   0  0  0  0  0  0  0  0  0  0  0  0
  -16.4499  -39.3017   -7.0156 C   0  0  2  0  0  0  0  0  0  0  0  0
  -16.3873  -38.2834   -7.9577 O   0  0  0  0  0  0  0  0  0  0  0  0
  -15.1482  -40.0903   -7.0183 C   0  0  0  0  0  0  0  0  0  0  0  0
  -15.3293  -41.4154   -7.5316 N   0  0  0  0  0  0  0  0  0  0  0  0
  -14.5290  -41.6976   -8.6848 C   0  0  0  0  0  0  0  0  0  0  0  0
  -15.3448  -41.6339   -9.9473 C   0  0  0  0  0  0  0  0  0  0  0  0
  -16.7055  -41.8393  -10.0892 C   0  0  0  0  0  0  0  0  0  0  0  0
  -17.0435  -41.6852  -11.4156 C   0  0  0  0  0  0  0  0  0  0  0  0
  -15.8923  -41.3911  -12.0528 N   0  0  0  0  0  0  0  0  0  0  0  0
  -14.8898  -41.3600  -11.1915 N   0  0  0  0  0  0  0  0  0  0  0  0
  -18.4122  -41.8265  -11.9686 C   0  0  0  0  0  0  0  0  0  0  0  0
  -19.1268  -40.4947  -11.9956 C   0  0  0  0  0  0  0  0  0  0  0  0
  -18.3492  -42.4146  -13.3600 C   0  0  0  0  0  0  0  0  0  0  0  0
  -19.1716  -42.7938  -11.0907 C   0  0  0  0  0  0  0  0  0  0  0  0
  2  1  1  1
  2  3  1  0
  3  4  1  0
  4  5  1  0
  5  6  1  0
  6  7  1  0
  7  8  1  0
  8  9  1  0
  9 10  1  0
 10 11  1  0
 11 12  1  0
 12 13  2  0
 13 14  1  0
 14 15  2  0
 15 16  1  0
 13 17  1  0
 17 18  2  0
 17 19  1  0
 19 20  1  0
 20 21  1  1
 20 22  1  0
 22 23  1  6
 22 24  1  0
 24 25  1  0
 25 26  1  0
 26 27  1  0
 27 28  1  0
 28 29  2  0
 29 30  1  0
 30 31  1  0
 29 32  1  0
 32 33  1  0
 32 34  1  0
 32 35  1  0
 16 11  2  0
 21  2  1  0
 31 27  2  0
M  END
$$$$
