
     RDKit          3D

 35 37  0  0  0  0  0  0  0  0999 V2000
  -18.7892  -39.3602   -5.2200 C   0  0  0  0  0  0  0  0  0  0  0  0
  -19.0524  -38.6795   -6.5200 C   0  0  2  0  0  0  0  0  0  0  0  0
  -20.4399  -38.0302   -6.4070 C   0  0  0  0  0  0  0  0  0  0  0  0
  -21.4303  -39.1639   -6.4754 C   0  0  0  0  0  0  0  0  0  0  0  0
  -22.7589  -38.8537   -5.8652 C   0  0  0  0  0  0  0  0  0  0  0  0
  -23.7099  -39.9707   -6.3240 C   0  0  0  0  0  0  0  0  0  0  0  0
  -23.2491  -41.3209   -5.8751 C   0  0  0  0  0  0  0  0  0  0  0  0
  -22.9121  -42.2495   -7.0492 C   0  0  0  0  0  0  0  0  0  0  0  0
  -23.1827  -43.6387   -6.6427 C   0  0  0  0  0  0  0  0  0  0  0  0
  -22.0385  -44.5345   -6.6819 N   0  0  0  0  0  0  0  0  0  0  0  0
  -20.6692  -44.3102   -7.0096 C   0  0  0  0  0  0  0  0  0  0  0  0
  -19.7801  -43.3134   -6.6571 C   0  0  0  0  0  0  0  0  0  0  0  0
  -18.4890  -43.3828   -7.1509 C   0  0  0  0  0  0  0  0  0  0  0  0
  -18.1093  -44.4641   -7.9965 C   0  0  0  0  0  0  0  0  0  0  0  0
  -18.9668  -45.4650   -8.3616 C   0  0  0  0  0  0  0  0  0  0  0  0
  -20.2300  -45.3664   -7.8595 C   0  0  0  0  0  0  0  0  0  0  0  0
  -17.3226  -42.4940   -6.9782 C   0  0  0  0  0  0  0  0  0  0  0  0
  -16.1799  -43.1076   -6.7245 O   0  0  0  0  0  0  0  0  0  0  0  0
  -17.2401  -41.0660   -7.0474 N   0  0  0  0  0  0  0  0  0  0  0  0
  -17.8098  -40.2366   -8.0626 C   0  0  1  0  0  0  0  0  0  0  0  0
  -19.1045  -39.5929   -7.6948 C   0  0  0  0  0  0  0  0  0  0  0  0
  -16.8217  -39.1171   -8.4170 C   0  0  2  0  0  0  0  0  0  0  0  0
  -16.8724  -38.1245   -7.4471 O   0  0  0  0  0  0  0  0  0  0  0  0
  -17.1728  -38.5304   -9.7767 C   0  0  0  0  0  0  0  0  0  0  0  0
  -17.0324  -39.4958  -10.8257 N   0  0  0  0  0  0  0  0  0  0  0  0
  -15.6705  -39.8007  -11.1455 C   0  0  0  0  0  0  0  0  0  0  0  0
  -14.9441  -38.5889  -11.6624 C   0  0  0  0  0  0  0  0  0  0  0  0
  -13.7442  -38.0648  -11.2160 C   0  0  0  0  0  0  0  0  0  0  0  0
  -13.4384  -36.9504  -11.9656 C   0  0  0  0  0  0  0  0  0  0  0  0
  -14.4490  -36.8166  -12.8479 N   0  0  0  0  0  0  0  0  0  0  0  0
  -15.3377  -37.7796  -12.6725 N   0  0  0  0  0  0  0  0  0  0  0  0
  -12.2288  -36.1105  -11.7902 C   0  0  0  0  0  0  0  0  0  0  0  0
  -11.8102  -35.4816  -13.0994 C   0  0  0  0  0  0  0  0  0  0  0  0
  -12.4889  -35.0397  -10.7549 C   0  0  0  0  0  0  0  0  0  0  0  0
  -11.1187  -36.9953  -11.2727 C   0  0  0  0  0  0  0  0  0  0  0  0
  2  1  1  1
  2  3  1  0
  3  4  1  0
  4  5  1  0
  5  6  1  0
  6  7  1  0
  7  8  1  0
  8  9  1  0
  9 10  1  0
 10 11  1  0
 11 12  1  0
 12 13  2  0
 13 14  1  0
 14 15  2  0
 15 16  1  0
 13 17  1  0
 17 18  2  0
 17 19  1  0
 19 20  1  0
 20 21  1  1
 20 22  1  0
 22 23  1  1
 22 24  1  0
 24 25  1  0
 25 26  1  0
 26 27  1  0
 27 28  1  0
 28 29  2  0
 29 30  1  0
 30 31  1  0
 29 32  1  0
 32 33  1  0
 32 34  1  0
 32 35  1  0
 16 11  2  0
 21  2  1  0
 31 27  2  0
M  END
$$$$
