
     RDKit          3D

 35 37  0  0  0  0  0  0  0  0999 V2000
  -16.2455  -36.4329   -8.6460 C   0  0  0  0  0  0  0  0  0  0  0  0
  -15.3236  -37.5167   -9.0908 C   0  0  2  0  0  0  0  0  0  0  0  0
  -14.5935  -36.9935  -10.3369 C   0  0  0  0  0  0  0  0  0  0  0  0
  -15.6115  -37.0142  -11.4478 C   0  0  0  0  0  0  0  0  0  0  0  0
  -15.3080  -36.0794  -12.5737 C   0  0  0  0  0  0  0  0  0  0  0  0
  -16.2429  -36.4818  -13.7256 C   0  0  0  0  0  0  0  0  0  0  0  0
  -17.6848  -36.3660  -13.3457 C   0  0  0  0  0  0  0  0  0  0  0  0
  -18.4123  -37.7168  -13.3735 C   0  0  0  0  0  0  0  0  0  0  0  0
  -19.8249  -37.4831  -13.7172 C   0  0  0  0  0  0  0  0  0  0  0  0
  -20.7899  -37.9193  -12.7213 N   0  0  0  0  0  0  0  0  0  0  0  0
  -20.6234  -38.5076  -11.4333 C   0  0  0  0  0  0  0  0  0  0  0  0
  -19.7823  -38.2124  -10.3780 C   0  0  0  0  0  0  0  0  0  0  0  0
  -19.8676  -38.9890   -9.2355 C   0  0  0  0  0  0  0  0  0  0  0  0
  -20.8071  -40.0574   -9.1717 C   0  0  0  0  0  0  0  0  0  0  0  0
  -21.6527  -40.3725  -10.1994 C   0  0  0  0  0  0  0  0  0  0  0  0
  -21.5425  -39.5896  -11.3095 C   0  0  0  0  0  0  0  0  0  0  0  0
  -19.1227  -38.9461   -7.9613 C   0  0  0  0  0  0  0  0  0  0  0  0
  -19.8634  -39.0559   -6.8723 O   0  0  0  0  0  0  0  0  0  0  0  0
  -17.7171  -38.8070   -7.7254 N   0  0  0  0  0  0  0  0  0  0  0  0
  -16.6753  -39.5245   -8.3908 C   0  0  1  0  0  0  0  0  0  0  0  0
  -16.0041  -38.7781   -9.4945 C   0  0  0  0  0  0  0  0  0  0  0  0
  -15.5951  -39.9121   -7.3718 C   0  0  2  0  0  0  0  0  0  0  0  0
  -14.3440  -39.8534   -7.9717 O   0  0  0  0  0  0  0  0  0  0  0  0
  -15.8554  -41.3194   -6.8542 C   0  0  0  0  0  0  0  0  0  0  0  0
  -16.5649  -41.3065   -5.6097 N   0  0  0  0  0  0  0  0  0  0  0  0
  -17.2626  -42.5261   -5.3351 C   0  0  0  0  0  0  0  0  0  0  0  0
  -18.7095  -42.4324   -5.7365 C   0  0  0  0  0  0  0  0  0  0  0  0
  -19.7423  -41.8197   -5.0495 C   0  0  0  0  0  0  0  0  0  0  0  0
  -20.9065  -41.9674   -5.7708 C   0  0  0  0  0  0  0  0  0  0  0  0
  -20.5650  -42.6615   -6.8750 N   0  0  0  0  0  0  0  0  0  0  0  0
  -19.2721  -42.9372   -6.8584 N   0  0  0  0  0  0  0  0  0  0  0  0
  -22.2337  -41.4462   -5.3634 C   0  0  0  0  0  0  0  0  0  0  0  0
  -22.2726  -41.1609   -3.8795 C   0  0  0  0  0  0  0  0  0  0  0  0
  -22.5595  -40.1940   -6.1456 C   0  0  0  0  0  0  0  0  0  0  0  0
  -23.2699  -42.4905   -5.7082 C   0  0  0  0  0  0  0  0  0  0  0  0
  2  1  1  6
  2  3  1  0
  3  4  1  0
  4  5  1  0
  5  6  1  0
  6  7  1  0
  7  8  1  0
  8  9  1  0
  9 10  1  0
 10 11  1  0
 11 12  1  0
 12 13  2  0
 13 14  1  0
 14 15  2  0
 15 16  1  0
 13 17  1  0
 17 18  2  0
 17 19  1  0
 19 20  1  0
 20 21  1  6
 20 22  1  0
 22 23  1  6
 22 24  1  0
 24 25  1  0
 25 26  1  0
 26 27  1  0
 27 28  1  0
 28 29  2  0
 29 30  1  0
 30 31  1  0
 29 32  1  0
 32 33  1  0
 32 34  1  0
 32 35  1  0
 16 11  2  0
 21  2  1  0
 31 27  2  0
M  END
$$$$
