
     RDKit          3D

 35 37  0  0  0  0  0  0  0  0999 V2000
  -18.7817  -39.0780   -5.3979 C   0  0  0  0  0  0  0  0  0  0  0  0
  -18.6969  -38.6369   -6.8195 C   0  0  2  0  0  0  0  0  0  0  0  0
  -19.9894  -37.8639   -7.1213 C   0  0  0  0  0  0  0  0  0  0  0  0
  -21.0773  -38.9027   -7.2117 C   0  0  0  0  0  0  0  0  0  0  0  0
  -22.4526  -38.3719   -6.9657 C   0  0  0  0  0  0  0  0  0  0  0  0
  -23.4226  -39.4720   -7.4257 C   0  0  0  0  0  0  0  0  0  0  0  0
  -23.2281  -40.7461   -6.6671 C   0  0  0  0  0  0  0  0  0  0  0  0
  -22.7807  -41.9057   -7.5669 C   0  0  0  0  0  0  0  0  0  0  0  0
  -23.2939  -43.1647   -7.0014 C   0  0  0  0  0  0  0  0  0  0  0  0
  -22.2826  -44.1445   -6.6400 N   0  0  0  0  0  0  0  0  0  0  0  0
  -20.8586  -44.1022   -6.6954 C   0  0  0  0  0  0  0  0  0  0  0  0
  -19.9423  -43.1348   -6.3308 C   0  0  0  0  0  0  0  0  0  0  0  0
  -18.5972  -43.4049   -6.5135 C   0  0  0  0  0  0  0  0  0  0  0  0
  -18.1921  -44.6550   -7.0624 C   0  0  0  0  0  0  0  0  0  0  0  0
  -19.0757  -45.6315   -7.4316 C   0  0  0  0  0  0  0  0  0  0  0  0
  -20.3916  -45.3336   -7.2397 C   0  0  0  0  0  0  0  0  0  0  0  0
  -17.3888  -42.6005   -6.2435 C   0  0  0  0  0  0  0  0  0  0  0  0
  -16.4026  -43.2484   -5.6482 O   0  0  0  0  0  0  0  0  0  0  0  0
  -17.1206  -41.2237   -6.5320 N   0  0  0  0  0  0  0  0  0  0  0  0
  -17.3722  -40.5573   -7.7713 C   0  0  1  0  0  0  0  0  0  0  0  0
  -18.6258  -39.7491   -7.8070 C   0  0  0  0  0  0  0  0  0  0  0  0
  -16.2045  -39.6124   -8.0856 C   0  0  2  0  0  0  0  0  0  0  0  0
  -16.3874  -38.4064   -7.4217 O   0  0  0  0  0  0  0  0  0  0  0  0
  -16.1260  -39.3705   -9.5861 C   0  0  0  0  0  0  0  0  0  0  0  0
  -15.9574  -40.5925  -10.3145 N   0  0  0  0  0  0  0  0  0  0  0  0
  -14.7537  -40.6369  -11.0885 C   0  0  0  0  0  0  0  0  0  0  0  0
  -14.6434  -39.4448  -11.9997 C   0  0  0  0  0  0  0  0  0  0  0  0
  -14.4631  -38.1199  -11.6449 C   0  0  0  0  0  0  0  0  0  0  0  0
  -14.4157  -37.3547  -12.7893 C   0  0  0  0  0  0  0  0  0  0  0  0
  -14.5668  -38.2199  -13.8122 N   0  0  0  0  0  0  0  0  0  0  0  0
  -14.7011  -39.4517  -13.3512 N   0  0  0  0  0  0  0  0  0  0  0  0
  -14.2333  -35.8834  -12.8242 C   0  0  0  0  0  0  0  0  0  0  0  0
  -15.0269  -35.2120  -11.7267 C   0  0  0  0  0  0  0  0  0  0  0  0
  -12.7664  -35.5414  -12.6933 C   0  0  0  0  0  0  0  0  0  0  0  0
  -14.7063  -35.3874  -14.1707 C   0  0  0  0  0  0  0  0  0  0  0  0
  2  1  1  1
  2  3  1  0
  3  4  1  0
  4  5  1  0
  5  6  1  0
  6  7  1  0
  7  8  1  0
  8  9  1  0
  9 10  1  0
 10 11  1  0
 11 12  1  0
 12 13  2  0
 13 14  1  0
 14 15  2  0
 15 16  1  0
 13 17  1  0
 17 18  2  0
 17 19  1  0
 19 20  1  0
 20 21  1  1
 20 22  1  0
 22 23  1  1
 22 24  1  0
 24 25  1  0
 25 26  1  0
 26 27  1  0
 27 28  1  0
 28 29  2  0
 29 30  1  0
 30 31  1  0
 29 32  1  0
 32 33  1  0
 32 34  1  0
 32 35  1  0
 16 11  2  0
 21  2  1  0
 31 27  2  0
M  END
$$$$
