
     RDKit          3D

 35 37  0  0  0  0  0  0  0  0999 V2000
  -18.4517  -43.3374  -10.0523 C   0  0  0  0  0  0  0  0  0  0  0  0
  -17.5160  -43.6744   -8.9416 C   0  0  2  0  0  0  0  0  0  0  0  0
  -17.6769  -45.1772   -8.6676 C   0  0  0  0  0  0  0  0  0  0  0  0
  -19.0060  -45.3277   -7.9735 C   0  0  0  0  0  0  0  0  0  0  0  0
  -19.6067  -46.6913   -8.0904 C   0  0  0  0  0  0  0  0  0  0  0  0
  -20.7504  -46.7426   -7.0647 C   0  0  0  0  0  0  0  0  0  0  0  0
  -21.7933  -45.7048   -7.3333 C   0  0  0  0  0  0  0  0  0  0  0  0
  -21.9158  -44.6834   -6.1948 C   0  0  0  0  0  0  0  0  0  0  0  0
  -23.3073  -44.2046   -6.1403 C   0  0  0  0  0  0  0  0  0  0  0  0
  -23.4831  -42.7745   -6.3325 N   0  0  0  0  0  0  0  0  0  0  0  0
  -22.5493  -41.7325   -6.6065 C   0  0  0  0  0  0  0  0  0  0  0  0
  -21.4878  -41.6429   -7.4860 C   0  0  0  0  0  0  0  0  0  0  0  0
  -20.7583  -40.4670   -7.5144 C   0  0  0  0  0  0  0  0  0  0  0  0
  -21.1128  -39.3905   -6.6520 C   0  0  0  0  0  0  0  0  0  0  0  0
  -22.1582  -39.4499   -5.7721 C   0  0  0  0  0  0  0  0  0  0  0  0
  -22.8549  -40.6211   -5.7685 C   0  0  0  0  0  0  0  0  0  0  0  0
  -19.5852  -40.0585   -8.3125 C   0  0  0  0  0  0  0  0  0  0  0  0
  -19.6524  -38.8449   -8.8315 O   0  0  0  0  0  0  0  0  0  0  0  0
  -18.3819  -40.7767   -8.6076 N   0  0  0  0  0  0  0  0  0  0  0  0
  -17.5802  -41.4998   -7.6708 C   0  0  1  0  0  0  0  0  0  0  0  0
  -17.8039  -42.9748   -7.6591 C   0  0  0  0  0  0  0  0  0  0  0  0
  -16.0965  -41.2601   -7.9813 C   0  0  2  0  0  0  0  0  0  0  0  0
  -15.4023  -41.0343   -6.7999 O   0  0  0  0  0  0  0  0  0  0  0  0
  -15.9501  -40.0595   -8.9051 C   0  0  0  0  0  0  0  0  0  0  0  0
  -15.3408  -38.9467   -8.2398 N   0  0  0  0  0  0  0  0  0  0  0  0
  -16.2320  -37.8456   -8.0316 C   0  0  0  0  0  0  0  0  0  0  0  0
  -16.8512  -37.3893   -9.3246 C   0  0  0  0  0  0  0  0  0  0  0  0
  -18.1963  -37.2753   -9.6272 C   0  0  0  0  0  0  0  0  0  0  0  0
  -18.3249  -36.8214  -10.9213 C   0  0  0  0  0  0  0  0  0  0  0  0
  -17.0665  -36.6683  -11.3802 N   0  0  0  0  0  0  0  0  0  0  0  0
  -16.1958  -37.0017  -10.4429 N   0  0  0  0  0  0  0  0  0  0  0  0
  -19.6127  -36.5712  -11.6129 C   0  0  0  0  0  0  0  0  0  0  0  0
  -20.4844  -35.6302  -10.8132 C   0  0  0  0  0  0  0  0  0  0  0  0
  -19.3574  -36.0040  -12.9910 C   0  0  0  0  0  0  0  0  0  0  0  0
  -20.3163  -37.8977  -11.7810 C   0  0  0  0  0  0  0  0  0  0  0  0
  2  1  1  6
  2  3  1  0
  3  4  1  0
  4  5  1  0
  5  6  1  0
  6  7  1  0
  7  8  1  0
  8  9  1  0
  9 10  1  0
 10 11  1  0
 11 12  1  0
 12 13  2  0
 13 14  1  0
 14 15  2  0
 15 16  1  0
 13 17  1  0
 17 18  2  0
 17 19  1  0
 19 20  1  0
 20 21  1  6
 20 22  1  0
 22 23  1  1
 22 24  1  0
 24 25  1  0
 25 26  1  0
 26 27  1  0
 27 28  1  0
 28 29  2  0
 29 30  1  0
 30 31  1  0
 29 32  1  0
 32 33  1  0
 32 34  1  0
 32 35  1  0
 16 11  2  0
 21  2  1  0
 31 27  2  0
M  END
$$$$
