
     RDKit          3D

 41 44  0  0  0  0  0  0  0  0999 V2000
  -23.0388  -38.7205   -6.9386 C   0  0  0  0  0  0  0  0  0  0  0  0
  -24.0300  -38.5719   -7.9175 O   0  0  0  0  0  0  0  0  0  0  0  0
  -23.7132  -39.4087   -8.9852 C   0  0  0  0  0  0  0  0  0  0  0  0
  -22.2580  -39.2241   -9.2265 C   0  0  0  0  0  0  0  0  0  0  0  0
  -21.7392  -38.0399   -9.6788 C   0  0  0  0  0  0  0  0  0  0  0  0
  -20.3550  -37.8355   -9.9226 C   0  0  0  0  0  0  0  0  0  0  0  0
  -19.4742  -38.8684   -9.6999 C   0  0  0  0  0  0  0  0  0  0  0  0
  -19.9431  -40.0829   -9.2417 C   0  0  0  0  0  0  0  0  0  0  0  0
  -21.3446  -40.2176   -9.0190 C   0  0  0  0  0  0  0  0  0  0  0  0
  -19.2502  -41.3277   -8.9042 C   0  0  0  0  0  0  0  0  0  0  0  0
  -19.9310  -42.4677   -9.1056 O   0  0  0  0  0  0  0  0  0  0  0  0
  -17.9805  -41.6585   -8.3890 N   0  0  0  0  0  0  0  0  0  0  0  0
  -16.6700  -41.5868   -9.0117 C   0  0  1  0  0  0  0  0  0  0  0  0
  -16.6100  -41.0132  -10.3680 C   0  0  0  0  0  0  0  0  0  0  0  0
  -15.7035  -39.8708  -10.6823 C   0  0  0  0  0  0  0  0  0  0  0  0
  -15.6796  -38.5903  -10.1907 C   0  0  0  0  0  0  0  0  0  0  0  0
  -14.8012  -37.6761  -10.7433 C   0  0  0  0  0  0  0  0  0  0  0  0
  -13.9458  -38.0571  -11.7753 C   0  0  0  0  0  0  0  0  0  0  0  0
  -13.9228  -39.3261  -12.3011 C   0  0  0  0  0  0  0  0  0  0  0  0
  -14.8111  -40.1973  -11.7324 C   0  0  0  0  0  0  0  0  0  0  0  0
  -14.6376  -36.3337  -10.4050 O   0  0  0  0  0  0  0  0  0  0  0  0
  -15.5595  -35.2467  -10.4783 C   0  0  0  0  0  0  0  0  0  0  0  0
  -16.7619  -35.5268  -11.3267 C   0  0  0  0  0  0  0  0  0  0  0  0
  -18.0185  -35.2803  -10.5285 C   0  0  0  0  0  0  0  0  0  0  0  0
  -19.2011  -35.8860  -11.2628 C   0  0  0  0  0  0  0  0  0  0  0  0
  -20.1462  -36.4874  -10.3458 N   0  0  0  0  0  0  0  0  0  0  0  0
  -15.5981  -41.0665   -8.0527 C   0  0  2  0  0  0  0  0  0  0  0  0
  -14.3681  -41.0578   -8.6951 O   0  0  0  0  0  0  0  0  0  0  0  0
  -15.5249  -41.8618   -6.8051 C   0  0  0  0  0  0  0  0  0  0  0  0
  -16.1983  -43.0885   -6.7143 N   0  0  0  0  0  0  0  0  0  0  0  0
  -17.0480  -43.4082   -5.6370 C   0  0  0  0  0  0  0  0  0  0  0  0
  -18.4737  -43.0747   -5.7997 C   0  0  0  0  0  0  0  0  0  0  0  0
  -19.4150  -42.6452   -4.9056 C   0  0  0  0  0  0  0  0  0  0  0  0
  -20.6106  -42.4739   -5.5645 C   0  0  0  0  0  0  0  0  0  0  0  0
  -21.8998  -42.0280   -5.0188 C   0  0  0  0  0  0  0  0  0  0  0  0
  -22.5535  -40.9719   -5.8896 C   0  0  0  0  0  0  0  0  0  0  0  0
  -23.1489  -41.6299   -7.1098 C   0  0  0  0  0  0  0  0  0  0  0  0
  -23.7030  -40.3010   -5.1295 C   0  0  0  0  0  0  0  0  0  0  0  0
  -21.5958  -39.8722   -6.2887 C   0  0  0  0  0  0  0  0  0  0  0  0
  -20.3606  -42.8016   -6.8283 O   0  0  0  0  0  0  0  0  0  0  0  0
  -19.1194  -43.1536   -6.9784 N   0  0  0  0  0  0  0  0  0  0  0  0
  1  2  1  0
  2  3  1  0
  3  4  1  0
  4  5  2  0
  5  6  1  0
  6  7  2  0
  7  8  1  0
  8  9  2  0
  8 10  1  0
 10 11  2  0
 10 12  1  0
 12 13  1  0
 13 14  1  6
 14 15  1  0
 15 16  2  0
 16 17  1  0
 17 18  2  0
 18 19  1  0
 19 20  2  0
 17 21  1  0
 21 22  1  0
 22 23  1  0
 23 24  1  0
 24 25  1  0
 25 26  1  0
 13 27  1  0
 27 28  1  6
 27 29  1  0
 29 30  1  0
 30 31  1  0
 31 32  1  0
 32 33  1  0
 33 34  2  0
 34 35  1  0
 35 36  1  0
 36 37  1  0
 36 38  1  0
 36 39  1  0
 34 40  1  0
 40 41  1  0
  9  4  1  0
 20 15  1  0
 26  6  1  0
 41 32  2  0
M  END
$$$$
