
     RDKit          3D

 41 44  0  0  0  0  0  0  0  0999 V2000
  -16.6256  -47.6035   -9.8065 C   0  0  0  0  0  0  0  0  0  0  0  0
  -17.5081  -46.7204  -10.4423 O   0  0  0  0  0  0  0  0  0  0  0  0
  -18.7605  -46.8564   -9.8474 C   0  0  0  0  0  0  0  0  0  0  0  0
  -19.0341  -45.5575   -9.1783 C   0  0  0  0  0  0  0  0  0  0  0  0
  -20.0325  -45.4114   -8.2521 C   0  0  0  0  0  0  0  0  0  0  0  0
  -20.3201  -44.1829   -7.6001 C   0  0  0  0  0  0  0  0  0  0  0  0
  -19.5689  -43.0707   -7.9016 C   0  0  0  0  0  0  0  0  0  0  0  0
  -18.5485  -43.1623   -8.8264 C   0  0  0  0  0  0  0  0  0  0  0  0
  -18.3158  -44.4266   -9.4422 C   0  0  0  0  0  0  0  0  0  0  0  0
  -17.5916  -42.1700   -9.3196 C   0  0  0  0  0  0  0  0  0  0  0  0
  -17.1750  -42.3161  -10.5880 O   0  0  0  0  0  0  0  0  0  0  0  0
  -16.9546  -41.0367   -8.7748 N   0  0  0  0  0  0  0  0  0  0  0  0
  -17.4955  -39.7323   -8.4339 C   0  0  1  0  0  0  0  0  0  0  0  0
  -18.9489  -39.5524   -8.5997 C   0  0  0  0  0  0  0  0  0  0  0  0
  -19.8004  -39.0770   -7.4707 C   0  0  0  0  0  0  0  0  0  0  0  0
  -20.0578  -39.6436   -6.2482 C   0  0  0  0  0  0  0  0  0  0  0  0
  -20.9919  -39.0515   -5.4179 C   0  0  0  0  0  0  0  0  0  0  0  0
  -21.6507  -37.8897   -5.8153 C   0  0  0  0  0  0  0  0  0  0  0  0
  -21.4276  -37.2767   -7.0244 C   0  0  0  0  0  0  0  0  0  0  0  0
  -20.5027  -37.8974   -7.8186 C   0  0  0  0  0  0  0  0  0  0  0  0
  -21.4093  -39.4774   -4.1578 O   0  0  0  0  0  0  0  0  0  0  0  0
  -22.0629  -40.6831   -3.7632 C   0  0  0  0  0  0  0  0  0  0  0  0
  -22.6596  -41.4511   -4.9026 C   0  0  0  0  0  0  0  0  0  0  0  0
  -22.1363  -42.8663   -4.8938 C   0  0  0  0  0  0  0  0  0  0  0  0
  -22.4639  -43.5261   -6.2214 C   0  0  0  0  0  0  0  0  0  0  0  0
  -21.3864  -44.3821   -6.6709 N   0  0  0  0  0  0  0  0  0  0  0  0
  -16.9342  -39.1964   -7.1159 C   0  0  2  0  0  0  0  0  0  0  0  0
  -17.1411  -37.8259   -7.0486 O   0  0  0  0  0  0  0  0  0  0  0  0
  -15.4967  -39.5118   -6.9465 C   0  0  0  0  0  0  0  0  0  0  0  0
  -14.5497  -38.9616   -7.8222 N   0  0  0  0  0  0  0  0  0  0  0  0
  -13.7645  -39.7533   -8.6833 C   0  0  0  0  0  0  0  0  0  0  0  0
  -14.0366  -39.6284  -10.1257 C   0  0  0  0  0  0  0  0  0  0  0  0
  -13.2393  -39.8146  -11.2210 C   0  0  0  0  0  0  0  0  0  0  0  0
  -13.9771  -39.5706  -12.3563 C   0  0  0  0  0  0  0  0  0  0  0  0
  -13.5474  -39.6430  -13.7594 C   0  0  0  0  0  0  0  0  0  0  0  0
  -12.8927  -40.9714  -14.0879 C   0  0  0  0  0  0  0  0  0  0  0  0
  -13.9446  -41.9410  -14.5671 C   0  0  0  0  0  0  0  0  0  0  0  0
  -11.8857  -40.7935  -15.2296 C   0  0  0  0  0  0  0  0  0  0  0  0
  -12.1270  -41.5478  -12.9186 C   0  0  0  0  0  0  0  0  0  0  0  0
  -15.1900  -39.2468  -11.9192 O   0  0  0  0  0  0  0  0  0  0  0  0
  -15.2377  -39.2766  -10.6216 N   0  0  0  0  0  0  0  0  0  0  0  0
  1  2  1  0
  2  3  1  0
  3  4  1  0
  4  5  2  0
  5  6  1  0
  6  7  2  0
  7  8  1  0
  8  9  2  0
  8 10  1  0
 10 11  2  0
 10 12  1  0
 12 13  1  0
 13 14  1  1
 14 15  1  0
 15 16  2  0
 16 17  1  0
 17 18  2  0
 18 19  1  0
 19 20  2  0
 17 21  1  0
 21 22  1  0
 22 23  1  0
 23 24  1  0
 24 25  1  0
 25 26  1  0
 13 27  1  0
 27 28  1  6
 27 29  1  0
 29 30  1  0
 30 31  1  0
 31 32  1  0
 32 33  1  0
 33 34  2  0
 34 35  1  0
 35 36  1  0
 36 37  1  0
 36 38  1  0
 36 39  1  0
 34 40  1  0
 40 41  1  0
  9  4  1  0
 20 15  1  0
 26  6  1  0
 41 32  2  0
M  END
$$$$
