
     RDKit          3D

 41 44  0  0  0  0  0  0  0  0999 V2000
  -23.9074  -39.8415  -11.7096 C   0  0  0  0  0  0  0  0  0  0  0  0
  -23.4249  -39.8493  -10.3944 O   0  0  0  0  0  0  0  0  0  0  0  0
  -23.2527  -38.5279   -9.9883 C   0  0  0  0  0  0  0  0  0  0  0  0
  -21.7865  -38.2839  -10.0148 C   0  0  0  0  0  0  0  0  0  0  0  0
  -21.2500  -37.1229  -10.5051 C   0  0  0  0  0  0  0  0  0  0  0  0
  -19.8543  -36.8637  -10.5474 C   0  0  0  0  0  0  0  0  0  0  0  0
  -18.9798  -37.8159  -10.0773 C   0  0  0  0  0  0  0  0  0  0  0  0
  -19.4668  -39.0036   -9.5701 C   0  0  0  0  0  0  0  0  0  0  0  0
  -20.8790  -39.1966   -9.5587 C   0  0  0  0  0  0  0  0  0  0  0  0
  -18.7877  -40.1656   -8.9940 C   0  0  0  0  0  0  0  0  0  0  0  0
  -19.3786  -41.3578   -9.1758 O   0  0  0  0  0  0  0  0  0  0  0  0
  -17.6067  -40.3684   -8.2515 N   0  0  0  0  0  0  0  0  0  0  0  0
  -16.2162  -40.2834   -8.6630 C   0  0  1  0  0  0  0  0  0  0  0  0
  -15.9588  -39.8464  -10.0469 C   0  0  0  0  0  0  0  0  0  0  0  0
  -15.0611  -38.6905  -10.3357 C   0  0  0  0  0  0  0  0  0  0  0  0
  -15.1708  -37.3679   -9.9885 C   0  0  0  0  0  0  0  0  0  0  0  0
  -14.2524  -36.4642  -10.4910 C   0  0  0  0  0  0  0  0  0  0  0  0
  -13.2247  -36.8964  -11.3270 C   0  0  0  0  0  0  0  0  0  0  0  0
  -13.0636  -38.2082  -11.7017 C   0  0  0  0  0  0  0  0  0  0  0  0
  -13.9962  -39.0682  -11.1897 C   0  0  0  0  0  0  0  0  0  0  0  0
  -14.2019  -35.0873  -10.2787 O   0  0  0  0  0  0  0  0  0  0  0  0
  -15.1434  -34.0688  -10.6146 C   0  0  0  0  0  0  0  0  0  0  0  0
  -16.1783  -34.5023  -11.6072 C   0  0  0  0  0  0  0  0  0  0  0  0
  -17.5576  -34.2505  -11.0494 C   0  0  0  0  0  0  0  0  0  0  0  0
  -18.5782  -34.9948  -11.8916 C   0  0  0  0  0  0  0  0  0  0  0  0
  -19.6349  -35.5551  -11.0760 N   0  0  0  0  0  0  0  0  0  0  0  0
  -15.3380  -39.6078   -7.6086 C   0  0  2  0  0  0  0  0  0  0  0  0
  -14.0066  -39.6975   -7.9895 O   0  0  0  0  0  0  0  0  0  0  0  0
  -15.5306  -40.1884   -6.2594 C   0  0  0  0  0  0  0  0  0  0  0  0
  -16.8135  -40.5596   -5.8318 N   0  0  0  0  0  0  0  0  0  0  0  0
  -17.1538  -41.8918   -5.5252 C   0  0  0  0  0  0  0  0  0  0  0  0
  -18.5479  -42.1399   -5.1186 C   0  0  0  0  0  0  0  0  0  0  0  0
  -19.7259  -42.0489   -5.8071 C   0  0  0  0  0  0  0  0  0  0  0  0
  -20.7607  -42.3906   -4.9673 C   0  0  0  0  0  0  0  0  0  0  0  0
  -22.1994  -42.4383   -5.2613 C   0  0  0  0  0  0  0  0  0  0  0  0
  -22.9252  -41.2035   -4.7618 C   0  0  0  0  0  0  0  0  0  0  0  0
  -22.5365  -40.9423   -3.3275 C   0  0  0  0  0  0  0  0  0  0  0  0
  -22.5004  -39.9774   -5.5775 C   0  0  0  0  0  0  0  0  0  0  0  0
  -24.4268  -41.3166   -4.8967 C   0  0  0  0  0  0  0  0  0  0  0  0
  -20.1840  -42.6767   -3.8043 O   0  0  0  0  0  0  0  0  0  0  0  0
  -18.8952  -42.5343   -3.8792 N   0  0  0  0  0  0  0  0  0  0  0  0
  1  2  1  0
  2  3  1  0
  3  4  1  0
  4  5  2  0
  5  6  1  0
  6  7  2  0
  7  8  1  0
  8  9  2  0
  8 10  1  0
 10 11  2  0
 10 12  1  0
 12 13  1  0
 13 14  1  6
 14 15  1  0
 15 16  2  0
 16 17  1  0
 17 18  2  0
 18 19  1  0
 19 20  2  0
 17 21  1  0
 21 22  1  0
 22 23  1  0
 23 24  1  0
 24 25  1  0
 25 26  1  0
 13 27  1  0
 27 28  1  6
 27 29  1  0
 29 30  1  0
 30 31  1  0
 31 32  1  0
 32 33  1  0
 33 34  2  0
 34 35  1  0
 35 36  1  0
 36 37  1  0
 36 38  1  0
 36 39  1  0
 34 40  1  0
 40 41  1  0
  9  4  1  0
 20 15  1  0
 26  6  1  0
 41 32  2  0
M  END
$$$$
