
     RDKit          3D

 41 44  0  0  0  0  0  0  0  0999 V2000
  -24.5298  -39.0237   -9.6493 C   0  0  0  0  0  0  0  0  0  0  0  0
  -23.4448  -38.8324  -10.5147 O   0  0  0  0  0  0  0  0  0  0  0  0
  -23.0116  -37.5151  -10.3819 C   0  0  0  0  0  0  0  0  0  0  0  0
  -21.5267  -37.5779  -10.3550 C   0  0  0  0  0  0  0  0  0  0  0  0
  -20.7512  -36.8531  -11.2206 C   0  0  0  0  0  0  0  0  0  0  0  0
  -19.3316  -36.8962  -11.2217 C   0  0  0  0  0  0  0  0  0  0  0  0
  -18.6835  -37.7024  -10.3147 C   0  0  0  0  0  0  0  0  0  0  0  0
  -19.4164  -38.4527   -9.4177 C   0  0  0  0  0  0  0  0  0  0  0  0
  -20.8378  -38.3609   -9.4735 C   0  0  0  0  0  0  0  0  0  0  0  0
  -19.0050  -39.3645   -8.3487 C   0  0  0  0  0  0  0  0  0  0  0  0
  -19.8293  -40.3914   -8.0847 O   0  0  0  0  0  0  0  0  0  0  0  0
  -17.9049  -39.4464   -7.4711 N   0  0  0  0  0  0  0  0  0  0  0  0
  -16.5208  -39.7993   -7.7356 C   0  0  1  0  0  0  0  0  0  0  0  0
  -16.1552  -40.0439   -9.1423 C   0  0  0  0  0  0  0  0  0  0  0  0
  -15.0309  -39.3045   -9.7861 C   0  0  0  0  0  0  0  0  0  0  0  0
  -14.8670  -37.9638  -10.0260 C   0  0  0  0  0  0  0  0  0  0  0  0
  -13.7718  -37.5423  -10.7577 C   0  0  0  0  0  0  0  0  0  0  0  0
  -12.8438  -38.4675  -11.2319 C   0  0  0  0  0  0  0  0  0  0  0  0
  -12.9547  -39.8197  -11.0160 C   0  0  0  0  0  0  0  0  0  0  0  0
  -14.0549  -40.1957  -10.2951 C   0  0  0  0  0  0  0  0  0  0  0  0
  -13.4378  -36.2398  -11.1256 O   0  0  0  0  0  0  0  0  0  0  0  0
  -14.1398  -35.3058  -11.9451 C   0  0  0  0  0  0  0  0  0  0  0  0
  -15.2261  -35.9211  -12.7729 C   0  0  0  0  0  0  0  0  0  0  0  0
  -16.5311  -35.2095  -12.5131 C   0  0  0  0  0  0  0  0  0  0  0  0
  -17.6710  -36.0397  -13.0755 C   0  0  0  0  0  0  0  0  0  0  0  0
  -18.8347  -35.9986  -12.2153 N   0  0  0  0  0  0  0  0  0  0  0  0
  -15.5380  -38.9143   -6.9673 C   0  0  2  0  0  0  0  0  0  0  0  0
  -14.2870  -39.5149   -6.9556 O   0  0  0  0  0  0  0  0  0  0  0  0
  -15.9920  -38.6372   -5.5847 C   0  0  0  0  0  0  0  0  0  0  0  0
  -17.3557  -38.4467   -5.3189 N   0  0  0  0  0  0  0  0  0  0  0  0
  -18.0378  -39.1583   -4.3124 C   0  0  0  0  0  0  0  0  0  0  0  0
  -18.8695  -40.2914   -4.7537 C   0  0  0  0  0  0  0  0  0  0  0  0
  -20.1917  -40.5799   -4.5572 C   0  0  0  0  0  0  0  0  0  0  0  0
  -20.4862  -41.7695   -5.1824 C   0  0  0  0  0  0  0  0  0  0  0  0
  -21.7727  -42.4764   -5.2436 C   0  0  0  0  0  0  0  0  0  0  0  0
  -22.4118  -42.3808   -6.6160 C   0  0  0  0  0  0  0  0  0  0  0  0
  -21.7101  -43.3256   -7.5601 C   0  0  0  0  0  0  0  0  0  0  0  0
  -23.8792  -42.8173   -6.5446 C   0  0  0  0  0  0  0  0  0  0  0  0
  -22.4034  -40.9720   -7.1649 C   0  0  0  0  0  0  0  0  0  0  0  0
  -19.3433  -42.1635   -5.7352 O   0  0  0  0  0  0  0  0  0  0  0  0
  -18.3937  -41.3112   -5.4926 N   0  0  0  0  0  0  0  0  0  0  0  0
  1  2  1  0
  2  3  1  0
  3  4  1  0
  4  5  2  0
  5  6  1  0
  6  7  2  0
  7  8  1  0
  8  9  2  0
  8 10  1  0
 10 11  2  0
 10 12  1  0
 12 13  1  0
 13 14  1  6
 14 15  1  0
 15 16  2  0
 16 17  1  0
 17 18  2  0
 18 19  1  0
 19 20  2  0
 17 21  1  0
 21 22  1  0
 22 23  1  0
 23 24  1  0
 24 25  1  0
 25 26  1  0
 13 27  1  0
 27 28  1  1
 27 29  1  0
 29 30  1  0
 30 31  1  0
 31 32  1  0
 32 33  1  0
 33 34  2  0
 34 35  1  0
 35 36  1  0
 36 37  1  0
 36 38  1  0
 36 39  1  0
 34 40  1  0
 40 41  1  0
  9  4  1  0
 20 15  1  0
 26  6  1  0
 41 32  2  0
M  END
$$$$
