
     RDKit          3D

 41 44  0  0  0  0  0  0  0  0999 V2000
  -13.9285  -32.8964  -12.0779 C   0  0  0  0  0  0  0  0  0  0  0  0
  -13.0646  -33.9301  -12.4623 O   0  0  0  0  0  0  0  0  0  0  0  0
  -13.7977  -34.8544  -13.2032 C   0  0  0  0  0  0  0  0  0  0  0  0
  -13.7226  -36.1313  -12.4459 C   0  0  0  0  0  0  0  0  0  0  0  0
  -12.5844  -36.8926  -12.4128 C   0  0  0  0  0  0  0  0  0  0  0  0
  -12.4843  -38.1183  -11.7023 C   0  0  0  0  0  0  0  0  0  0  0  0
  -13.5764  -38.5821  -11.0062 C   0  0  0  0  0  0  0  0  0  0  0  0
  -14.7484  -37.8533  -11.0039 C   0  0  0  0  0  0  0  0  0  0  0  0
  -14.7779  -36.6323  -11.7389 C   0  0  0  0  0  0  0  0  0  0  0  0
  -16.0368  -38.0864  -10.3488 C   0  0  0  0  0  0  0  0  0  0  0  0
  -17.1261  -37.6251  -10.9846 O   0  0  0  0  0  0  0  0  0  0  0  0
  -16.4539  -38.7028   -9.1517 N   0  0  0  0  0  0  0  0  0  0  0  0
  -16.4849  -40.1077   -8.7837 C   0  0  1  0  0  0  0  0  0  0  0  0
  -15.9318  -41.0623   -9.7610 C   0  0  0  0  0  0  0  0  0  0  0  0
  -14.8622  -42.0279   -9.3747 C   0  0  0  0  0  0  0  0  0  0  0  0
  -13.5816  -41.8103   -8.9334 C   0  0  0  0  0  0  0  0  0  0  0  0
  -12.7401  -42.8934   -8.7566 C   0  0  0  0  0  0  0  0  0  0  0  0
  -13.1936  -44.1861   -9.0118 C   0  0  0  0  0  0  0  0  0  0  0  0
  -14.4664  -44.4622   -9.4488 C   0  0  0  0  0  0  0  0  0  0  0  0
  -15.2642  -43.3639   -9.6180 C   0  0  0  0  0  0  0  0  0  0  0  0
  -11.4096  -42.8848   -8.3404 O   0  0  0  0  0  0  0  0  0  0  0  0
  -10.2591  -42.2970   -8.9465 C   0  0  0  0  0  0  0  0  0  0  0  0
  -10.4596  -41.9080  -10.3792 C   0  0  0  0  0  0  0  0  0  0  0  0
  -10.1134  -40.4512  -10.5658 C   0  0  0  0  0  0  0  0  0  0  0  0
  -10.6389  -39.9835  -11.9112 C   0  0  0  0  0  0  0  0  0  0  0  0
  -11.1597  -38.6346  -11.8397 N   0  0  0  0  0  0  0  0  0  0  0  0
  -16.0341  -40.3410   -7.3409 C   0  0  2  0  0  0  0  0  0  0  0  0
  -16.0392  -41.7019   -7.0694 O   0  0  0  0  0  0  0  0  0  0  0  0
  -16.8774  -39.6150   -6.3631 C   0  0  0  0  0  0  0  0  0  0  0  0
  -16.8070  -38.2171   -6.2772 N   0  0  0  0  0  0  0  0  0  0  0  0
  -17.5611  -37.3681   -7.1110 C   0  0  0  0  0  0  0  0  0  0  0  0
  -18.8041  -37.9268   -7.6705 C   0  0  0  0  0  0  0  0  0  0  0  0
  -19.3371  -39.1853   -7.6244 C   0  0  0  0  0  0  0  0  0  0  0  0
  -20.5301  -39.1896   -8.3096 C   0  0  0  0  0  0  0  0  0  0  0  0
  -21.4548  -40.3102   -8.5286 C   0  0  0  0  0  0  0  0  0  0  0  0
  -22.3553  -40.5493   -7.3315 C   0  0  0  0  0  0  0  0  0  0  0  0
  -21.6712  -41.4926   -6.3731 C   0  0  0  0  0  0  0  0  0  0  0  0
  -22.5936  -39.2341   -6.5814 C   0  0  0  0  0  0  0  0  0  0  0  0
  -23.7160  -41.0791   -7.7235 C   0  0  0  0  0  0  0  0  0  0  0  0
  -20.6840  -37.9438   -8.7469 O   0  0  0  0  0  0  0  0  0  0  0  0
  -19.6852  -37.1982   -8.3813 N   0  0  0  0  0  0  0  0  0  0  0  0
  1  2  1  0
  2  3  1  0
  3  4  1  0
  4  5  2  0
  5  6  1  0
  6  7  2  0
  7  8  1  0
  8  9  2  0
  8 10  1  0
 10 11  2  0
 10 12  1  0
 12 13  1  0
 13 14  1  6
 14 15  1  0
 15 16  2  0
 16 17  1  0
 17 18  2  0
 18 19  1  0
 19 20  2  0
 17 21  1  0
 21 22  1  0
 22 23  1  0
 23 24  1  0
 24 25  1  0
 25 26  1  0
 13 27  1  0
 27 28  1  1
 27 29  1  0
 29 30  1  0
 30 31  1  0
 31 32  1  0
 32 33  1  0
 33 34  2  0
 34 35  1  0
 35 36  1  0
 36 37  1  0
 36 38  1  0
 36 39  1  0
 34 40  1  0
 40 41  1  0
  9  4  1  0
 20 15  1  0
 26  6  1  0
 41 32  2  0
M  END
$$$$
