
     RDKit          3D

 41 44  0  0  0  0  0  0  0  0999 V2000
  -15.5066  -46.6057  -11.3950 C   0  0  0  0  0  0  0  0  0  0  0  0
  -16.3907  -46.4287  -10.3227 O   0  0  0  0  0  0  0  0  0  0  0  0
  -17.6400  -46.0962  -10.8416 C   0  0  0  0  0  0  0  0  0  0  0  0
  -18.1204  -44.9444  -10.0339 C   0  0  0  0  0  0  0  0  0  0  0  0
  -19.1877  -45.0471   -9.1817 C   0  0  0  0  0  0  0  0  0  0  0  0
  -19.6718  -43.9637   -8.4012 C   0  0  0  0  0  0  0  0  0  0  0  0
  -19.0507  -42.7398   -8.4929 C   0  0  0  0  0  0  0  0  0  0  0  0
  -17.9687  -42.5810   -9.3349 C   0  0  0  0  0  0  0  0  0  0  0  0
  -17.5368  -43.7111  -10.0888 C   0  0  0  0  0  0  0  0  0  0  0  0
  -17.1163  -41.4242   -9.6148 C   0  0  0  0  0  0  0  0  0  0  0  0
  -16.6024  -41.3422  -10.8528 O   0  0  0  0  0  0  0  0  0  0  0  0
  -16.6662  -40.3106   -8.8768 N   0  0  0  0  0  0  0  0  0  0  0  0
  -17.3903  -39.1392   -8.4147 C   0  0  1  0  0  0  0  0  0  0  0  0
  -18.8408  -39.1103   -8.6743 C   0  0  0  0  0  0  0  0  0  0  0  0
  -19.8180  -38.9002   -7.5668 C   0  0  0  0  0  0  0  0  0  0  0  0
  -20.0802  -39.6578   -6.4535 C   0  0  0  0  0  0  0  0  0  0  0  0
  -21.1345  -39.3011   -5.6328 C   0  0  0  0  0  0  0  0  0  0  0  0
  -21.9090  -38.1809   -5.9284 C   0  0  0  0  0  0  0  0  0  0  0  0
  -21.6875  -37.3837   -7.0251 C   0  0  0  0  0  0  0  0  0  0  0  0
  -20.6409  -37.7746   -7.8147 C   0  0  0  0  0  0  0  0  0  0  0  0
  -21.5756  -39.9443   -4.4773 O   0  0  0  0  0  0  0  0  0  0  0  0
  -22.0943  -41.2617   -4.2977 C   0  0  0  0  0  0  0  0  0  0  0  0
  -22.5122  -41.9284   -5.5724 C   0  0  0  0  0  0  0  0  0  0  0  0
  -21.8142  -43.2597   -5.7049 C   0  0  0  0  0  0  0  0  0  0  0  0
  -21.9674  -43.7621   -7.1293 C   0  0  0  0  0  0  0  0  0  0  0  0
  -20.7624  -44.4144   -7.5965 N   0  0  0  0  0  0  0  0  0  0  0  0
  -16.9894  -38.7297   -6.9966 C   0  0  2  0  0  0  0  0  0  0  0  0
  -17.6962  -37.5945   -6.6261 O   0  0  0  0  0  0  0  0  0  0  0  0
  -15.5320  -38.4968   -6.8686 C   0  0  0  0  0  0  0  0  0  0  0  0
  -14.6538  -39.5853   -6.7667 N   0  0  0  0  0  0  0  0  0  0  0  0
  -13.8819  -40.0402   -7.8539 C   0  0  0  0  0  0  0  0  0  0  0  0
  -13.6729  -39.0883   -8.9587 C   0  0  0  0  0  0  0  0  0  0  0  0
  -14.2818  -38.9605  -10.1764 C   0  0  0  0  0  0  0  0  0  0  0  0
  -13.7175  -37.9005  -10.8480 C   0  0  0  0  0  0  0  0  0  0  0  0
  -14.0448  -37.3864  -12.1849 C   0  0  0  0  0  0  0  0  0  0  0  0
  -13.3921  -38.2014  -13.2853 C   0  0  0  0  0  0  0  0  0  0  0  0
  -14.4282  -38.5609  -14.3214 C   0  0  0  0  0  0  0  0  0  0  0  0
  -12.3161  -37.3677  -13.9898 C   0  0  0  0  0  0  0  0  0  0  0  0
  -12.7065  -39.4429  -12.7613 C   0  0  0  0  0  0  0  0  0  0  0  0
  -12.7911  -37.4210  -10.0241 O   0  0  0  0  0  0  0  0  0  0  0  0
  -12.7550  -38.1042   -8.9201 N   0  0  0  0  0  0  0  0  0  0  0  0
  1  2  1  0
  2  3  1  0
  3  4  1  0
  4  5  2  0
  5  6  1  0
  6  7  2  0
  7  8  1  0
  8  9  2  0
  8 10  1  0
 10 11  2  0
 10 12  1  0
 12 13  1  0
 13 14  1  1
 14 15  1  0
 15 16  2  0
 16 17  1  0
 17 18  2  0
 18 19  1  0
 19 20  2  0
 17 21  1  0
 21 22  1  0
 22 23  1  0
 23 24  1  0
 24 25  1  0
 25 26  1  0
 13 27  1  0
 27 28  1  6
 27 29  1  0
 29 30  1  0
 30 31  1  0
 31 32  1  0
 32 33  1  0
 33 34  2  0
 34 35  1  0
 35 36  1  0
 36 37  1  0
 36 38  1  0
 36 39  1  0
 34 40  1  0
 40 41  1  0
  9  4  1  0
 20 15  1  0
 26  6  1  0
 41 32  2  0
M  END
$$$$
