
     RDKit          3D

 41 44  0  0  0  0  0  0  0  0999 V2000
  -20.1362  -45.5200   -4.4225 C   0  0  0  0  0  0  0  0  0  0  0  0
  -20.9813  -46.0645   -5.3982 O   0  0  0  0  0  0  0  0  0  0  0  0
  -20.1996  -46.4368   -6.4896 C   0  0  0  0  0  0  0  0  0  0  0  0
  -19.5218  -45.1945   -6.9447 C   0  0  0  0  0  0  0  0  0  0  0  0
  -18.3383  -44.7696   -6.4017 C   0  0  0  0  0  0  0  0  0  0  0  0
  -17.6703  -43.5856   -6.8126 C   0  0  0  0  0  0  0  0  0  0  0  0
  -18.2252  -42.8115   -7.8051 C   0  0  0  0  0  0  0  0  0  0  0  0
  -19.4159  -43.1943   -8.3886 C   0  0  0  0  0  0  0  0  0  0  0  0
  -20.0315  -44.3941   -7.9266 C   0  0  0  0  0  0  0  0  0  0  0  0
  -20.2125  -42.5906   -9.4584 C   0  0  0  0  0  0  0  0  0  0  0  0
  -21.5420  -42.7681   -9.3906 O   0  0  0  0  0  0  0  0  0  0  0  0
  -19.9283  -41.8296  -10.6104 N   0  0  0  0  0  0  0  0  0  0  0  0
  -19.4804  -40.4534  -10.7362 C   0  0  1  0  0  0  0  0  0  0  0  0
  -19.1959  -39.7308   -9.4835 C   0  0  0  0  0  0  0  0  0  0  0  0
  -17.8757  -39.0746   -9.2551 C   0  0  0  0  0  0  0  0  0  0  0  0
  -16.6154  -39.6107   -9.1767 C   0  0  0  0  0  0  0  0  0  0  0  0
  -15.5576  -38.7894   -8.8317 C   0  0  0  0  0  0  0  0  0  0  0  0
  -15.7706  -37.4353   -8.5806 C   0  0  0  0  0  0  0  0  0  0  0  0
  -17.0091  -36.8449   -8.6507 C   0  0  0  0  0  0  0  0  0  0  0  0
  -18.0288  -37.6923   -8.9874 C   0  0  0  0  0  0  0  0  0  0  0  0
  -14.2169  -39.1391   -8.6781 O   0  0  0  0  0  0  0  0  0  0  0  0
  -13.6005  -40.0442   -7.7629 C   0  0  0  0  0  0  0  0  0  0  0  0
  -14.4745  -40.4300   -6.6091 C   0  0  0  0  0  0  0  0  0  0  0  0
  -14.5809  -41.9330   -6.5294 C   0  0  0  0  0  0  0  0  0  0  0  0
  -15.7203  -42.3024   -5.5965 C   0  0  0  0  0  0  0  0  0  0  0  0
  -16.4516  -43.4547   -6.0793 N   0  0  0  0  0  0  0  0  0  0  0  0
  -18.4180  -40.2848  -11.8235 C   0  0  2  0  0  0  0  0  0  0  0  0
  -17.9933  -38.9640  -11.8538 O   0  0  0  0  0  0  0  0  0  0  0  0
  -18.9071  -40.7020  -13.1581 C   0  0  0  0  0  0  0  0  0  0  0  0
  -20.0612  -40.1157  -13.6973 N   0  0  0  0  0  0  0  0  0  0  0  0
  -21.2864  -40.0774  -13.0030 C   0  0  0  0  0  0  0  0  0  0  0  0
  -21.9553  -41.3697  -12.7732 C   0  0  0  0  0  0  0  0  0  0  0  0
  -23.2778  -41.7062  -12.6851 C   0  0  0  0  0  0  0  0  0  0  0  0
  -23.3795  -43.0597  -12.4601 C   0  0  0  0  0  0  0  0  0  0  0  0
  -24.5935  -43.8707  -12.2958 C   0  0  0  0  0  0  0  0  0  0  0  0
  -25.6883  -43.1175  -11.5643 C   0  0  0  0  0  0  0  0  0  0  0  0
  -26.8055  -42.8008  -12.5276 C   0  0  0  0  0  0  0  0  0  0  0  0
  -26.2802  -43.9950  -10.4558 C   0  0  0  0  0  0  0  0  0  0  0  0
  -25.1831  -41.8577  -10.8984 C   0  0  0  0  0  0  0  0  0  0  0  0
  -22.1259  -43.5000  -12.4193 O   0  0  0  0  0  0  0  0  0  0  0  0
  -21.2867  -42.5253  -12.6002 N   0  0  0  0  0  0  0  0  0  0  0  0
  1  2  1  0
  2  3  1  0
  3  4  1  0
  4  5  2  0
  5  6  1  0
  6  7  2  0
  7  8  1  0
  8  9  2  0
  8 10  1  0
 10 11  2  0
 10 12  1  0
 12 13  1  0
 13 14  1  1
 14 15  1  0
 15 16  2  0
 16 17  1  0
 17 18  2  0
 18 19  1  0
 19 20  2  0
 17 21  1  0
 21 22  1  0
 22 23  1  0
 23 24  1  0
 24 25  1  0
 25 26  1  0
 13 27  1  0
 27 28  1  6
 27 29  1  0
 29 30  1  0
 30 31  1  0
 31 32  1  0
 32 33  1  0
 33 34  2  0
 34 35  1  0
 35 36  1  0
 36 37  1  0
 36 38  1  0
 36 39  1  0
 34 40  1  0
 40 41  1  0
  9  4  1  0
 20 15  1  0
 26  6  1  0
 41 32  2  0
M  END
$$$$
