
     RDKit          3D

 41 44  0  0  0  0  0  0  0  0999 V2000
  -18.6743  -38.7534  -15.7709 C   0  0  0  0  0  0  0  0  0  0  0  0
  -19.1570  -38.2099  -14.5733 O   0  0  0  0  0  0  0  0  0  0  0  0
  -20.4039  -38.7741  -14.3130 C   0  0  0  0  0  0  0  0  0  0  0  0
  -20.3999  -39.1152  -12.8661 C   0  0  0  0  0  0  0  0  0  0  0  0
  -21.4397  -39.7795  -12.2715 C   0  0  0  0  0  0  0  0  0  0  0  0
  -21.4660  -40.1148  -10.8916 C   0  0  0  0  0  0  0  0  0  0  0  0
  -20.4021  -39.7616  -10.0944 C   0  0  0  0  0  0  0  0  0  0  0  0
  -19.3265  -39.0925  -10.6425 C   0  0  0  0  0  0  0  0  0  0  0  0
  -19.3675  -38.7880  -12.0345 C   0  0  0  0  0  0  0  0  0  0  0  0
  -18.0732  -38.6188  -10.0526 C   0  0  0  0  0  0  0  0  0  0  0  0
  -17.5381  -37.5100  -10.5892 O   0  0  0  0  0  0  0  0  0  0  0  0
  -17.2316  -39.0526   -9.0082 N   0  0  0  0  0  0  0  0  0  0  0  0
  -17.4338  -39.0240   -7.5700 C   0  0  1  0  0  0  0  0  0  0  0  0
  -18.7424  -38.5419   -7.0930 C   0  0  0  0  0  0  0  0  0  0  0  0
  -19.5802  -39.3675   -6.1755 C   0  0  0  0  0  0  0  0  0  0  0  0
  -20.1541  -40.6000   -6.3590 C   0  0  0  0  0  0  0  0  0  0  0  0
  -20.9960  -41.0998   -5.3823 C   0  0  0  0  0  0  0  0  0  0  0  0
  -21.2453  -40.3652   -4.2246 C   0  0  0  0  0  0  0  0  0  0  0  0
  -20.6931  -39.1301   -3.9861 C   0  0  0  0  0  0  0  0  0  0  0  0
  -19.8729  -38.6686   -4.9790 C   0  0  0  0  0  0  0  0  0  0  0  0
  -21.6886  -42.3097   -5.3862 O   0  0  0  0  0  0  0  0  0  0  0  0
  -22.6987  -42.7895   -6.2728 C   0  0  0  0  0  0  0  0  0  0  0  0
  -23.3169  -41.7223   -7.1231 C   0  0  0  0  0  0  0  0  0  0  0  0
  -23.2115  -42.1048   -8.5790 C   0  0  0  0  0  0  0  0  0  0  0  0
  -23.5175  -40.8895   -9.4359 C   0  0  0  0  0  0  0  0  0  0  0  0
  -22.6660  -40.8345  -10.6055 N   0  0  0  0  0  0  0  0  0  0  0  0
  -16.9385  -40.3001   -6.8877 C   0  0  2  0  0  0  0  0  0  0  0  0
  -17.0801  -40.1741   -5.5130 O   0  0  0  0  0  0  0  0  0  0  0  0
  -15.5340  -40.6164   -7.2365 C   0  0  0  0  0  0  0  0  0  0  0  0
  -14.9297  -40.0003   -8.3419 N   0  0  0  0  0  0  0  0  0  0  0  0
  -14.4607  -40.7291   -9.4526 C   0  0  0  0  0  0  0  0  0  0  0  0
  -14.4201  -40.0153  -10.7407 C   0  0  0  0  0  0  0  0  0  0  0  0
  -13.4995  -39.1578  -11.2766 C   0  0  0  0  0  0  0  0  0  0  0  0
  -13.9312  -38.7613  -12.5213 C   0  0  0  0  0  0  0  0  0  0  0  0
  -13.2766  -37.8484  -13.4683 C   0  0  0  0  0  0  0  0  0  0  0  0
  -13.7383  -36.4144  -13.2905 C   0  0  0  0  0  0  0  0  0  0  0  0
  -14.4402  -35.9570  -14.5452 C   0  0  0  0  0  0  0  0  0  0  0  0
  -14.7530  -36.3266  -12.1452 C   0  0  0  0  0  0  0  0  0  0  0  0
  -12.6047  -35.4773  -12.9400 C   0  0  0  0  0  0  0  0  0  0  0  0
  -15.0909  -39.3854  -12.7017 O   0  0  0  0  0  0  0  0  0  0  0  0
  -15.3870  -40.1189  -11.6716 N   0  0  0  0  0  0  0  0  0  0  0  0
  1  2  1  0
  2  3  1  0
  3  4  1  0
  4  5  2  0
  5  6  1  0
  6  7  2  0
  7  8  1  0
  8  9  2  0
  8 10  1  0
 10 11  2  0
 10 12  1  0
 12 13  1  0
 13 14  1  6
 14 15  1  0
 15 16  2  0
 16 17  1  0
 17 18  2  0
 18 19  1  0
 19 20  2  0
 17 21  1  0
 21 22  1  0
 22 23  1  0
 23 24  1  0
 24 25  1  0
 25 26  1  0
 13 27  1  0
 27 28  1  1
 27 29  1  0
 29 30  1  0
 30 31  1  0
 31 32  1  0
 32 33  1  0
 33 34  2  0
 34 35  1  0
 35 36  1  0
 36 37  1  0
 36 38  1  0
 36 39  1  0
 34 40  1  0
 40 41  1  0
  9  4  1  0
 20 15  1  0
 26  6  1  0
 41 32  2  0
M  END
$$$$
