
     RDKit          3D

 41 44  0  0  0  0  0  0  0  0999 V2000
  -17.1701  -47.5832   -8.6980 C   0  0  0  0  0  0  0  0  0  0  0  0
  -16.8872  -47.1568  -10.0022 O   0  0  0  0  0  0  0  0  0  0  0  0
  -18.0776  -46.7291  -10.5859 C   0  0  0  0  0  0  0  0  0  0  0  0
  -18.4522  -45.4797   -9.8728 C   0  0  0  0  0  0  0  0  0  0  0  0
  -19.5924  -45.3847   -9.1198 C   0  0  0  0  0  0  0  0  0  0  0  0
  -19.9783  -44.2039   -8.4314 C   0  0  0  0  0  0  0  0  0  0  0  0
  -19.1795  -43.0870   -8.5139 C   0  0  0  0  0  0  0  0  0  0  0  0
  -18.0175  -43.1282   -9.2575 C   0  0  0  0  0  0  0  0  0  0  0  0
  -17.6921  -44.3464   -9.9225 C   0  0  0  0  0  0  0  0  0  0  0  0
  -16.9843  -42.1205   -9.5031 C   0  0  0  0  0  0  0  0  0  0  0  0
  -16.3594  -42.1778  -10.6905 O   0  0  0  0  0  0  0  0  0  0  0  0
  -16.4415  -41.0447   -8.7716 N   0  0  0  0  0  0  0  0  0  0  0  0
  -17.0238  -39.7596   -8.4257 C   0  0  1  0  0  0  0  0  0  0  0  0
  -18.4267  -39.5388   -8.8196 C   0  0  0  0  0  0  0  0  0  0  0  0
  -19.4543  -39.1339   -7.8167 C   0  0  0  0  0  0  0  0  0  0  0  0
  -19.9191  -39.7867   -6.7033 C   0  0  0  0  0  0  0  0  0  0  0  0
  -20.9766  -39.2411   -5.9987 C   0  0  0  0  0  0  0  0  0  0  0  0
  -21.5508  -38.0396   -6.4093 C   0  0  0  0  0  0  0  0  0  0  0  0
  -21.1217  -37.3410   -7.5116 C   0  0  0  0  0  0  0  0  0  0  0  0
  -20.0795  -37.9176   -8.1846 C   0  0  0  0  0  0  0  0  0  0  0  0
  -21.6046  -39.7533   -4.8643 O   0  0  0  0  0  0  0  0  0  0  0  0
  -22.3237  -40.9723   -4.6813 C   0  0  0  0  0  0  0  0  0  0  0  0
  -22.7234  -41.6394   -5.9616 C   0  0  0  0  0  0  0  0  0  0  0  0
  -22.2186  -43.0613   -5.9756 C   0  0  0  0  0  0  0  0  0  0  0  0
  -22.3206  -43.6116   -7.3869 C   0  0  0  0  0  0  0  0  0  0  0  0
  -21.1881  -44.4520   -7.7139 N   0  0  0  0  0  0  0  0  0  0  0  0
  -16.6907  -39.3368   -6.9940 C   0  0  2  0  0  0  0  0  0  0  0  0
  -17.2453  -38.0905   -6.7393 O   0  0  0  0  0  0  0  0  0  0  0  0
  -15.2318  -39.3162   -6.7379 C   0  0  0  0  0  0  0  0  0  0  0  0
  -14.4636  -40.4676   -6.9626 N   0  0  0  0  0  0  0  0  0  0  0  0
  -13.6588  -40.6297   -8.1075 C   0  0  0  0  0  0  0  0  0  0  0  0
  -13.8557  -39.6563   -9.1956 C   0  0  0  0  0  0  0  0  0  0  0  0
  -14.9649  -38.9782   -9.6196 C   0  0  0  0  0  0  0  0  0  0  0  0
  -14.6191  -38.1796  -10.6852 C   0  0  0  0  0  0  0  0  0  0  0  0
  -15.4745  -37.2754  -11.4657 C   0  0  0  0  0  0  0  0  0  0  0  0
  -14.8418  -35.9091  -11.6505 C   0  0  0  0  0  0  0  0  0  0  0  0
  -14.5448  -35.6905  -13.1135 C   0  0  0  0  0  0  0  0  0  0  0  0
  -15.8215  -34.8128  -11.2176 C   0  0  0  0  0  0  0  0  0  0  0  0
  -13.5923  -35.7291  -10.8184 C   0  0  0  0  0  0  0  0  0  0  0  0
  -13.3211  -38.3953  -10.8739 O   0  0  0  0  0  0  0  0  0  0  0  0
  -12.8644  -39.2537  -10.0127 N   0  0  0  0  0  0  0  0  0  0  0  0
  1  2  1  0
  2  3  1  0
  3  4  1  0
  4  5  2  0
  5  6  1  0
  6  7  2  0
  7  8  1  0
  8  9  2  0
  8 10  1  0
 10 11  2  0
 10 12  1  0
 12 13  1  0
 13 14  1  1
 14 15  1  0
 15 16  2  0
 16 17  1  0
 17 18  2  0
 18 19  1  0
 19 20  2  0
 17 21  1  0
 21 22  1  0
 22 23  1  0
 23 24  1  0
 24 25  1  0
 25 26  1  0
 13 27  1  0
 27 28  1  6
 27 29  1  0
 29 30  1  0
 30 31  1  0
 31 32  1  0
 32 33  1  0
 33 34  2  0
 34 35  1  0
 35 36  1  0
 36 37  1  0
 36 38  1  0
 36 39  1  0
 34 40  1  0
 40 41  1  0
  9  4  1  0
 20 15  1  0
 26  6  1  0
 41 32  2  0
M  END
$$$$
