
     RDKit          3D

 41 44  0  0  0  0  0  0  0  0999 V2000
  -18.5426  -47.5860  -11.3595 C   0  0  0  0  0  0  0  0  0  0  0  0
  -17.6527  -47.5625  -10.2777 O   0  0  0  0  0  0  0  0  0  0  0  0
  -18.3961  -47.6553   -9.1032 C   0  0  0  0  0  0  0  0  0  0  0  0
  -18.7388  -46.2580   -8.7293 C   0  0  0  0  0  0  0  0  0  0  0  0
  -19.9342  -45.9325   -8.1452 C   0  0  0  0  0  0  0  0  0  0  0  0
  -20.2910  -44.6068   -7.7814 C   0  0  0  0  0  0  0  0  0  0  0  0
  -19.4042  -43.5829   -8.0210 C   0  0  0  0  0  0  0  0  0  0  0  0
  -18.1839  -43.8551   -8.6055 C   0  0  0  0  0  0  0  0  0  0  0  0
  -17.8922  -45.2085   -8.9449 C   0  0  0  0  0  0  0  0  0  0  0  0
  -17.0575  -42.9871   -8.9533 C   0  0  0  0  0  0  0  0  0  0  0  0
  -16.3296  -43.3471  -10.0230 O   0  0  0  0  0  0  0  0  0  0  0  0
  -16.5047  -41.8037   -8.4229 N   0  0  0  0  0  0  0  0  0  0  0  0
  -17.0161  -40.4442   -8.4355 C   0  0  1  0  0  0  0  0  0  0  0  0
  -18.3543  -40.2436   -9.0195 C   0  0  0  0  0  0  0  0  0  0  0  0
  -19.4376  -39.5661   -8.2495 C   0  0  0  0  0  0  0  0  0  0  0  0
  -20.0545  -39.9219   -7.0770 C   0  0  0  0  0  0  0  0  0  0  0  0
  -21.1285  -39.1738   -6.6304 C   0  0  0  0  0  0  0  0  0  0  0  0
  -21.5669  -38.0683   -7.3568 C   0  0  0  0  0  0  0  0  0  0  0  0
  -20.9831  -37.6635   -8.5326 C   0  0  0  0  0  0  0  0  0  0  0  0
  -19.9296  -38.4337   -8.9433 C   0  0  0  0  0  0  0  0  0  0  0  0
  -21.8984  -39.3793   -5.4865 O   0  0  0  0  0  0  0  0  0  0  0  0
  -22.7235  -40.4840   -5.1182 C   0  0  0  0  0  0  0  0  0  0  0  0
  -23.0509  -41.4028   -6.2552 C   0  0  0  0  0  0  0  0  0  0  0  0
  -22.6582  -42.8156   -5.8991 C   0  0  0  0  0  0  0  0  0  0  0  0
  -22.6687  -43.6666   -7.1563 C   0  0  0  0  0  0  0  0  0  0  0  0
  -21.5787  -44.6193   -7.1635 N   0  0  0  0  0  0  0  0  0  0  0  0
  -16.7880  -39.7247   -7.1052 C   0  0  2  0  0  0  0  0  0  0  0  0
  -17.2538  -38.4209   -7.1990 O   0  0  0  0  0  0  0  0  0  0  0  0
  -15.3646  -39.7376   -6.6949 C   0  0  0  0  0  0  0  0  0  0  0  0
  -14.4383  -40.5198   -7.3996 N   0  0  0  0  0  0  0  0  0  0  0  0
  -13.1794  -40.0283   -7.7975 C   0  0  0  0  0  0  0  0  0  0  0  0
  -13.1456  -39.2210   -9.0293 C   0  0  0  0  0  0  0  0  0  0  0  0
  -14.0281  -38.3133   -9.5463 C   0  0  0  0  0  0  0  0  0  0  0  0
  -13.5274  -37.8309  -10.7334 C   0  0  0  0  0  0  0  0  0  0  0  0
  -14.1229  -36.8421  -11.6425 C   0  0  0  0  0  0  0  0  0  0  0  0
  -13.2107  -35.6510  -11.8669 C   0  0  0  0  0  0  0  0  0  0  0  0
  -13.9342  -34.6175  -12.6944 C   0  0  0  0  0  0  0  0  0  0  0  0
  -12.8618  -34.9956  -10.5260 C   0  0  0  0  0  0  0  0  0  0  0  0
  -11.9009  -36.0353  -12.5169 C   0  0  0  0  0  0  0  0  0  0  0  0
  -12.3655  -38.4549  -10.8994 O   0  0  0  0  0  0  0  0  0  0  0  0
  -12.1315  -39.2676   -9.9136 N   0  0  0  0  0  0  0  0  0  0  0  0
  1  2  1  0
  2  3  1  0
  3  4  1  0
  4  5  2  0
  5  6  1  0
  6  7  2  0
  7  8  1  0
  8  9  2  0
  8 10  1  0
 10 11  2  0
 10 12  1  0
 12 13  1  0
 13 14  1  1
 14 15  1  0
 15 16  2  0
 16 17  1  0
 17 18  2  0
 18 19  1  0
 19 20  2  0
 17 21  1  0
 21 22  1  0
 22 23  1  0
 23 24  1  0
 24 25  1  0
 25 26  1  0
 13 27  1  0
 27 28  1  6
 27 29  1  0
 29 30  1  0
 30 31  1  0
 31 32  1  0
 32 33  1  0
 33 34  2  0
 34 35  1  0
 35 36  1  0
 36 37  1  0
 36 38  1  0
 36 39  1  0
 34 40  1  0
 40 41  1  0
  9  4  1  0
 20 15  1  0
 26  6  1  0
 41 32  2  0
M  END
$$$$
