
     RDKit          3D

 41 44  0  0  0  0  0  0  0  0999 V2000
  -17.3883  -48.6154  -10.6027 C   0  0  0  0  0  0  0  0  0  0  0  0
  -18.2483  -47.5370  -10.3571 O   0  0  0  0  0  0  0  0  0  0  0  0
  -18.7493  -47.6684   -9.0639 C   0  0  0  0  0  0  0  0  0  0  0  0
  -19.0269  -46.2855   -8.5947 C   0  0  0  0  0  0  0  0  0  0  0  0
  -20.0395  -46.0037   -7.7166 C   0  0  0  0  0  0  0  0  0  0  0  0
  -20.3312  -44.6927   -7.2545 C   0  0  0  0  0  0  0  0  0  0  0  0
  -19.5691  -43.6382   -7.7012 C   0  0  0  0  0  0  0  0  0  0  0  0
  -18.5342  -43.8659   -8.5854 C   0  0  0  0  0  0  0  0  0  0  0  0
  -18.2983  -45.2069   -9.0076 C   0  0  0  0  0  0  0  0  0  0  0  0
  -17.5641  -42.9585   -9.2009 C   0  0  0  0  0  0  0  0  0  0  0  0
  -17.1275  -43.2881  -10.4275 O   0  0  0  0  0  0  0  0  0  0  0  0
  -16.9300  -41.7600   -8.8154 N   0  0  0  0  0  0  0  0  0  0  0  0
  -17.4693  -40.4184   -8.6763 C   0  0  1  0  0  0  0  0  0  0  0  0
  -18.9188  -40.2601   -8.8911 C   0  0  0  0  0  0  0  0  0  0  0  0
  -19.7861  -39.6236   -7.8575 C   0  0  0  0  0  0  0  0  0  0  0  0
  -20.0665  -40.0062   -6.5703 C   0  0  0  0  0  0  0  0  0  0  0  0
  -21.0109  -39.2973   -5.8506 C   0  0  0  0  0  0  0  0  0  0  0  0
  -21.6569  -38.2033   -6.4233 C   0  0  0  0  0  0  0  0  0  0  0  0
  -21.4107  -37.7728   -7.7044 C   0  0  0  0  0  0  0  0  0  0  0  0
  -20.4763  -38.5048   -8.3845 C   0  0  0  0  0  0  0  0  0  0  0  0
  -21.4511  -39.5347   -4.5493 O   0  0  0  0  0  0  0  0  0  0  0  0
  -22.1176  -40.6685   -3.9953 C   0  0  0  0  0  0  0  0  0  0  0  0
  -22.6997  -41.5918   -5.0214 C   0  0  0  0  0  0  0  0  0  0  0  0
  -22.1842  -42.9924   -4.7987 C   0  0  0  0  0  0  0  0  0  0  0  0
  -22.4936  -43.8366   -6.0220 C   0  0  0  0  0  0  0  0  0  0  0  0
  -21.4136  -44.7520   -6.3245 N   0  0  0  0  0  0  0  0  0  0  0  0
  -16.9268  -39.6988   -7.4405 C   0  0  2  0  0  0  0  0  0  0  0  0
  -17.5265  -38.4522   -7.3311 O   0  0  0  0  0  0  0  0  0  0  0  0
  -15.4520  -39.5628   -7.4703 C   0  0  0  0  0  0  0  0  0  0  0  0
  -14.6810  -40.4483   -8.2371 N   0  0  0  0  0  0  0  0  0  0  0  0
  -13.4864  -40.0570   -8.8731 C   0  0  0  0  0  0  0  0  0  0  0  0
  -13.6236  -39.3634  -10.1656 C   0  0  0  0  0  0  0  0  0  0  0  0
  -13.2720  -38.1031  -10.5632 C   0  0  0  0  0  0  0  0  0  0  0  0
  -13.6169  -37.9401  -11.8850 C   0  0  0  0  0  0  0  0  0  0  0  0
  -13.4355  -36.7579  -12.7383 C   0  0  0  0  0  0  0  0  0  0  0  0
  -14.5451  -35.7411  -12.5480 C   0  0  0  0  0  0  0  0  0  0  0  0
  -15.8746  -36.3935  -12.8365 C   0  0  0  0  0  0  0  0  0  0  0  0
  -14.5793  -35.2661  -11.0912 C   0  0  0  0  0  0  0  0  0  0  0  0
  -14.3576  -34.5083  -13.4031 C   0  0  0  0  0  0  0  0  0  0  0  0
  -14.1626  -39.0970  -12.2467 O   0  0  0  0  0  0  0  0  0  0  0  0
  -14.1726  -39.9345  -11.2540 N   0  0  0  0  0  0  0  0  0  0  0  0
  1  2  1  0
  2  3  1  0
  3  4  1  0
  4  5  2  0
  5  6  1  0
  6  7  2  0
  7  8  1  0
  8  9  2  0
  8 10  1  0
 10 11  2  0
 10 12  1  0
 12 13  1  0
 13 14  1  1
 14 15  1  0
 15 16  2  0
 16 17  1  0
 17 18  2  0
 18 19  1  0
 19 20  2  0
 17 21  1  0
 21 22  1  0
 22 23  1  0
 23 24  1  0
 24 25  1  0
 25 26  1  0
 13 27  1  0
 27 28  1  6
 27 29  1  0
 29 30  1  0
 30 31  1  0
 31 32  1  0
 32 33  1  0
 33 34  2  0
 34 35  1  0
 35 36  1  0
 36 37  1  0
 36 38  1  0
 36 39  1  0
 34 40  1  0
 40 41  1  0
  9  4  1  0
 20 15  1  0
 26  6  1  0
 41 32  2  0
M  END
$$$$
