
     RDKit          3D

 41 44  0  0  0  0  0  0  0  0999 V2000
  -17.2968  -48.8851   -7.4356 C   0  0  0  0  0  0  0  0  0  0  0  0
  -18.4959  -48.2800   -7.0375 O   0  0  0  0  0  0  0  0  0  0  0  0
  -19.1325  -47.7897   -8.1755 C   0  0  0  0  0  0  0  0  0  0  0  0
  -19.4224  -46.3594   -7.8928 C   0  0  0  0  0  0  0  0  0  0  0  0
  -20.5302  -45.9658   -7.1899 C   0  0  0  0  0  0  0  0  0  0  0  0
  -20.8355  -44.6076   -6.9085 C   0  0  0  0  0  0  0  0  0  0  0  0
  -19.9877  -43.6218   -7.3576 C   0  0  0  0  0  0  0  0  0  0  0  0
  -18.8553  -43.9627   -8.0691 C   0  0  0  0  0  0  0  0  0  0  0  0
  -18.6114  -45.3454   -8.3153 C   0  0  0  0  0  0  0  0  0  0  0  0
  -17.7844  -43.1451   -8.6418 C   0  0  0  0  0  0  0  0  0  0  0  0
  -17.2041  -43.6124   -9.7593 O   0  0  0  0  0  0  0  0  0  0  0  0
  -17.1661  -41.9247   -8.3022 N   0  0  0  0  0  0  0  0  0  0  0  0
  -17.6742  -40.5658   -8.3751 C   0  0  1  0  0  0  0  0  0  0  0  0
  -19.0778  -40.4035   -8.7945 C   0  0  0  0  0  0  0  0  0  0  0  0
  -20.0498  -39.6435   -7.9560 C   0  0  0  0  0  0  0  0  0  0  0  0
  -20.5066  -39.8808   -6.6844 C   0  0  0  0  0  0  0  0  0  0  0  0
  -21.5121  -39.0809   -6.1729 C   0  0  0  0  0  0  0  0  0  0  0  0
  -22.0421  -38.0423   -6.9360 C   0  0  0  0  0  0  0  0  0  0  0  0
  -21.6184  -37.7561   -8.2111 C   0  0  0  0  0  0  0  0  0  0  0  0
  -20.6287  -38.5744   -8.6824 C   0  0  0  0  0  0  0  0  0  0  0  0
  -22.1244  -39.1692   -4.9236 O   0  0  0  0  0  0  0  0  0  0  0  0
  -22.8940  -40.2242   -4.3480 C   0  0  0  0  0  0  0  0  0  0  0  0
  -23.3688  -41.2406   -5.3408 C   0  0  0  0  0  0  0  0  0  0  0  0
  -22.9331  -42.6190   -4.9082 C   0  0  0  0  0  0  0  0  0  0  0  0
  -23.1096  -43.5832   -6.0676 C   0  0  0  0  0  0  0  0  0  0  0  0
  -22.0304  -44.5462   -6.1285 N   0  0  0  0  0  0  0  0  0  0  0  0
  -17.2723  -39.7287   -7.1597 C   0  0  2  0  0  0  0  0  0  0  0  0
  -17.8937  -38.4896   -7.2261 O   0  0  0  0  0  0  0  0  0  0  0  0
  -15.8041  -39.5662   -7.0486 C   0  0  0  0  0  0  0  0  0  0  0  0
  -14.9476  -40.5225   -7.6126 N   0  0  0  0  0  0  0  0  0  0  0  0
  -13.6294  -40.2199   -8.0071 C   0  0  0  0  0  0  0  0  0  0  0  0
  -13.4763  -39.3854   -9.2114 C   0  0  0  0  0  0  0  0  0  0  0  0
  -13.3826  -39.7096  -10.5366 C   0  0  0  0  0  0  0  0  0  0  0  0
  -13.2512  -38.5532  -11.2703 C   0  0  0  0  0  0  0  0  0  0  0  0
  -13.1173  -38.4039  -12.7258 C   0  0  0  0  0  0  0  0  0  0  0  0
  -11.7218  -37.9667  -13.1287 C   0  0  0  0  0  0  0  0  0  0  0  0
  -11.3996  -38.5224  -14.4939 C   0  0  0  0  0  0  0  0  0  0  0  0
  -11.6591  -36.4389  -13.2343 C   0  0  0  0  0  0  0  0  0  0  0  0
  -10.6703  -38.3766  -12.1227 C   0  0  0  0  0  0  0  0  0  0  0  0
  -13.2693  -37.5703  -10.3756 O   0  0  0  0  0  0  0  0  0  0  0  0
  -13.3998  -38.0419   -9.1724 N   0  0  0  0  0  0  0  0  0  0  0  0
  1  2  1  0
  2  3  1  0
  3  4  1  0
  4  5  2  0
  5  6  1  0
  6  7  2  0
  7  8  1  0
  8  9  2  0
  8 10  1  0
 10 11  2  0
 10 12  1  0
 12 13  1  0
 13 14  1  1
 14 15  1  0
 15 16  2  0
 16 17  1  0
 17 18  2  0
 18 19  1  0
 19 20  2  0
 17 21  1  0
 21 22  1  0
 22 23  1  0
 23 24  1  0
 24 25  1  0
 25 26  1  0
 13 27  1  0
 27 28  1  6
 27 29  1  0
 29 30  1  0
 30 31  1  0
 31 32  1  0
 32 33  1  0
 33 34  2  0
 34 35  1  0
 35 36  1  0
 36 37  1  0
 36 38  1  0
 36 39  1  0
 34 40  1  0
 40 41  1  0
  9  4  1  0
 20 15  1  0
 26  6  1  0
 41 32  2  0
M  END
$$$$
