
     RDKit          3D

 41 44  0  0  0  0  0  0  0  0999 V2000
  -18.0105  -47.6420   -9.4377 C   0  0  0  0  0  0  0  0  0  0  0  0
  -17.5892  -46.8903  -10.5422 O   0  0  0  0  0  0  0  0  0  0  0  0
  -18.7118  -46.2998  -11.1181 C   0  0  0  0  0  0  0  0  0  0  0  0
  -19.0120  -45.1045  -10.2868 C   0  0  0  0  0  0  0  0  0  0  0  0
  -20.1167  -45.0373   -9.4798 C   0  0  0  0  0  0  0  0  0  0  0  0
  -20.4316  -43.9078   -8.6784 C   0  0  0  0  0  0  0  0  0  0  0  0
  -19.5969  -42.8146   -8.7010 C   0  0  0  0  0  0  0  0  0  0  0  0
  -18.4681  -42.8298   -9.4951 C   0  0  0  0  0  0  0  0  0  0  0  0
  -18.2141  -43.9965  -10.2737 C   0  0  0  0  0  0  0  0  0  0  0  0
  -17.4099  -41.8389   -9.6994 C   0  0  0  0  0  0  0  0  0  0  0  0
  -16.8359  -41.8147  -10.9133 O   0  0  0  0  0  0  0  0  0  0  0  0
  -16.7995  -40.8480   -8.9040 N   0  0  0  0  0  0  0  0  0  0  0  0
  -17.3206  -39.5789   -8.4263 C   0  0  1  0  0  0  0  0  0  0  0  0
  -18.7294  -39.2796   -8.7392 C   0  0  0  0  0  0  0  0  0  0  0  0
  -19.7003  -38.9289   -7.6623 C   0  0  0  0  0  0  0  0  0  0  0  0
  -20.1432  -39.6591   -6.5887 C   0  0  0  0  0  0  0  0  0  0  0  0
  -21.1510  -39.1417   -5.7956 C   0  0  0  0  0  0  0  0  0  0  0  0
  -21.6975  -37.8914   -6.0784 C   0  0  0  0  0  0  0  0  0  0  0  0
  -21.2882  -37.1153   -7.1355 C   0  0  0  0  0  0  0  0  0  0  0  0
  -20.2956  -37.6658   -7.8990 C   0  0  0  0  0  0  0  0  0  0  0  0
  -21.7508  -39.7284   -4.6823 O   0  0  0  0  0  0  0  0  0  0  0  0
  -22.5056  -40.9346   -4.5716 C   0  0  0  0  0  0  0  0  0  0  0  0
  -22.9804  -41.4762   -5.8851 C   0  0  0  0  0  0  0  0  0  0  0  0
  -22.5283  -42.9074   -6.0405 C   0  0  0  0  0  0  0  0  0  0  0  0
  -22.7069  -43.3311   -7.4874 C   0  0  0  0  0  0  0  0  0  0  0  0
  -21.6196  -44.1770   -7.9327 N   0  0  0  0  0  0  0  0  0  0  0  0
  -16.9150  -39.2913   -6.9799 C   0  0  2  0  0  0  0  0  0  0  0  0
  -17.3543  -38.0253   -6.6197 O   0  0  0  0  0  0  0  0  0  0  0  0
  -15.4534  -39.4110   -6.7705 C   0  0  0  0  0  0  0  0  0  0  0  0
  -14.6049  -38.3516   -7.1230 N   0  0  0  0  0  0  0  0  0  0  0  0
  -14.2616  -38.0687   -8.4597 C   0  0  0  0  0  0  0  0  0  0  0  0
  -14.1836  -39.2179   -9.3783 C   0  0  0  0  0  0  0  0  0  0  0  0
  -14.4337  -39.3298  -10.7180 C   0  0  0  0  0  0  0  0  0  0  0  0
  -14.2102  -40.6307  -11.1061 C   0  0  0  0  0  0  0  0  0  0  0  0
  -14.3487  -41.2225  -12.4437 C   0  0  0  0  0  0  0  0  0  0  0  0
  -13.0977  -41.0383  -13.2817 C   0  0  0  0  0  0  0  0  0  0  0  0
  -13.1068  -39.6600  -13.8954 C   0  0  0  0  0  0  0  0  0  0  0  0
  -11.8516  -41.1318  -12.3943 C   0  0  0  0  0  0  0  0  0  0  0  0
  -12.9515  -42.0983  -14.3498 C   0  0  0  0  0  0  0  0  0  0  0  0
  -13.8340  -41.2635   -9.9994 O   0  0  0  0  0  0  0  0  0  0  0  0
  -13.8146  -40.4516   -8.9857 N   0  0  0  0  0  0  0  0  0  0  0  0
  1  2  1  0
  2  3  1  0
  3  4  1  0
  4  5  2  0
  5  6  1  0
  6  7  2  0
  7  8  1  0
  8  9  2  0
  8 10  1  0
 10 11  2  0
 10 12  1  0
 12 13  1  0
 13 14  1  1
 14 15  1  0
 15 16  2  0
 16 17  1  0
 17 18  2  0
 18 19  1  0
 19 20  2  0
 17 21  1  0
 21 22  1  0
 22 23  1  0
 23 24  1  0
 24 25  1  0
 25 26  1  0
 13 27  1  0
 27 28  1  6
 27 29  1  0
 29 30  1  0
 30 31  1  0
 31 32  1  0
 32 33  1  0
 33 34  2  0
 34 35  1  0
 35 36  1  0
 36 37  1  0
 36 38  1  0
 36 39  1  0
 34 40  1  0
 40 41  1  0
  9  4  1  0
 20 15  1  0
 26  6  1  0
 41 32  2  0
M  END
$$$$
