
     RDKit          3D

 41 44  0  0  0  0  0  0  0  0999 V2000
  -14.8682  -34.8423  -14.8987 C   0  0  0  0  0  0  0  0  0  0  0  0
  -13.5871  -35.4072  -14.8496 O   0  0  0  0  0  0  0  0  0  0  0  0
  -13.0522  -35.1589  -13.5875 C   0  0  0  0  0  0  0  0  0  0  0  0
  -13.1369  -36.4474  -12.8512 C   0  0  0  0  0  0  0  0  0  0  0  0
  -12.1809  -37.4206  -12.9739 C   0  0  0  0  0  0  0  0  0  0  0  0
  -12.2372  -38.6625  -12.2871 C   0  0  0  0  0  0  0  0  0  0  0  0
  -13.2993  -38.9204  -11.4518 C   0  0  0  0  0  0  0  0  0  0  0  0
  -14.2900  -37.9734  -11.2896 C   0  0  0  0  0  0  0  0  0  0  0  0
  -14.1693  -36.7494  -12.0101 C   0  0  0  0  0  0  0  0  0  0  0  0
  -15.5016  -37.9650  -10.4678 C   0  0  0  0  0  0  0  0  0  0  0  0
  -16.5496  -37.2772  -10.9498 O   0  0  0  0  0  0  0  0  0  0  0  0
  -15.8736  -38.5219   -9.2274 N   0  0  0  0  0  0  0  0  0  0  0  0
  -16.1382  -39.9030   -8.8629 C   0  0  1  0  0  0  0  0  0  0  0  0
  -15.9215  -40.9187   -9.9087 C   0  0  0  0  0  0  0  0  0  0  0  0
  -15.0269  -42.0889   -9.6729 C   0  0  0  0  0  0  0  0  0  0  0  0
  -13.6821  -42.1439   -9.4073 C   0  0  0  0  0  0  0  0  0  0  0  0
  -13.0600  -43.3776   -9.3486 C   0  0  0  0  0  0  0  0  0  0  0  0
  -13.7939  -44.5460   -9.5445 C   0  0  0  0  0  0  0  0  0  0  0  0
  -15.1423  -44.5500   -9.8071 C   0  0  0  0  0  0  0  0  0  0  0  0
  -15.7179  -43.3103   -9.8640 C   0  0  0  0  0  0  0  0  0  0  0  0
  -11.7122  -43.6466   -9.1152 O   0  0  0  0  0  0  0  0  0  0  0  0
  -10.5565  -43.2815   -9.8688 C   0  0  0  0  0  0  0  0  0  0  0  0
  -10.8608  -42.8175  -11.2602 C   0  0  0  0  0  0  0  0  0  0  0  0
  -10.2561  -41.4538  -11.4872 C   0  0  0  0  0  0  0  0  0  0  0  0
  -10.8485  -40.8505  -12.7482 C   0  0  0  0  0  0  0  0  0  0  0  0
  -11.0733  -39.4277  -12.6031 N   0  0  0  0  0  0  0  0  0  0  0  0
  -15.5582  -40.2646   -7.4946 C   0  0  2  0  0  0  0  0  0  0  0  0
  -16.0193  -41.5168   -7.1135 O   0  0  0  0  0  0  0  0  0  0  0  0
  -15.8848  -39.2559   -6.4602 C   0  0  0  0  0  0  0  0  0  0  0  0
  -16.1163  -37.9227   -6.8284 N   0  0  0  0  0  0  0  0  0  0  0  0
  -17.0066  -37.5655   -7.8601 C   0  0  0  0  0  0  0  0  0  0  0  0
  -18.4110  -37.9777   -7.6918 C   0  0  0  0  0  0  0  0  0  0  0  0
  -19.5219  -37.2832   -7.2998 C   0  0  0  0  0  0  0  0  0  0  0  0
  -20.6040  -38.1328   -7.3060 C   0  0  0  0  0  0  0  0  0  0  0  0
  -22.0007  -37.8371   -6.9591 C   0  0  0  0  0  0  0  0  0  0  0  0
  -22.9203  -39.0091   -7.2452 C   0  0  0  0  0  0  0  0  0  0  0  0
  -22.8390  -39.3611   -8.7101 C   0  0  0  0  0  0  0  0  0  0  0  0
  -22.4631  -40.2412   -6.4565 C   0  0  0  0  0  0  0  0  0  0  0  0
  -24.3512  -38.7388   -6.8387 C   0  0  0  0  0  0  0  0  0  0  0  0
  -20.1211  -39.3073   -7.6987 O   0  0  0  0  0  0  0  0  0  0  0  0
  -18.8447  -39.2303   -7.9265 N   0  0  0  0  0  0  0  0  0  0  0  0
  1  2  1  0
  2  3  1  0
  3  4  1  0
  4  5  2  0
  5  6  1  0
  6  7  2  0
  7  8  1  0
  8  9  2  0
  8 10  1  0
 10 11  2  0
 10 12  1  0
 12 13  1  0
 13 14  1  6
 14 15  1  0
 15 16  2  0
 16 17  1  0
 17 18  2  0
 18 19  1  0
 19 20  2  0
 17 21  1  0
 21 22  1  0
 22 23  1  0
 23 24  1  0
 24 25  1  0
 25 26  1  0
 13 27  1  0
 27 28  1  1
 27 29  1  0
 29 30  1  0
 30 31  1  0
 31 32  1  0
 32 33  1  0
 33 34  2  0
 34 35  1  0
 35 36  1  0
 36 37  1  0
 36 38  1  0
 36 39  1  0
 34 40  1  0
 40 41  1  0
  9  4  1  0
 20 15  1  0
 26  6  1  0
 41 32  2  0
M  END
$$$$
