
     RDKit          3D

 41 44  0  0  0  0  0  0  0  0999 V2000
  -16.8067  -47.9386  -10.2570 C   0  0  0  0  0  0  0  0  0  0  0  0
  -17.6769  -46.9590  -10.7527 O   0  0  0  0  0  0  0  0  0  0  0  0
  -18.8989  -47.0934  -10.0975 C   0  0  0  0  0  0  0  0  0  0  0  0
  -19.1817  -45.7657   -9.4917 C   0  0  0  0  0  0  0  0  0  0  0  0
  -20.2867  -45.5403   -8.7144 C   0  0  0  0  0  0  0  0  0  0  0  0
  -20.5853  -44.2823   -8.1265 C   0  0  0  0  0  0  0  0  0  0  0  0
  -19.7334  -43.2231   -8.3379 C   0  0  0  0  0  0  0  0  0  0  0  0
  -18.6036  -43.3955   -9.1116 C   0  0  0  0  0  0  0  0  0  0  0  0
  -18.3665  -44.6851   -9.6707 C   0  0  0  0  0  0  0  0  0  0  0  0
  -17.5295  -42.4725   -9.4827 C   0  0  0  0  0  0  0  0  0  0  0  0
  -16.9529  -42.6717  -10.6791 O   0  0  0  0  0  0  0  0  0  0  0  0
  -16.9050  -41.3660   -8.8719 N   0  0  0  0  0  0  0  0  0  0  0  0
  -17.4068  -40.0248   -8.6282 C   0  0  1  0  0  0  0  0  0  0  0  0
  -18.8102  -39.7641   -8.9955 C   0  0  0  0  0  0  0  0  0  0  0  0
  -19.7775  -39.2139   -8.0020 C   0  0  0  0  0  0  0  0  0  0  0  0
  -20.2338  -39.7363   -6.8184 C   0  0  0  0  0  0  0  0  0  0  0  0
  -21.2348  -39.0717   -6.1337 C   0  0  0  0  0  0  0  0  0  0  0  0
  -21.7610  -37.8828   -6.6354 C   0  0  0  0  0  0  0  0  0  0  0  0
  -21.3376  -37.3119   -7.8110 C   0  0  0  0  0  0  0  0  0  0  0  0
  -20.3523  -38.0036   -8.4607 C   0  0  0  0  0  0  0  0  0  0  0  0
  -21.8460  -39.4433   -4.9371 O   0  0  0  0  0  0  0  0  0  0  0  0
  -22.6198  -40.5994   -4.6187 C   0  0  0  0  0  0  0  0  0  0  0  0
  -23.1007  -41.3572   -5.8182 C   0  0  0  0  0  0  0  0  0  0  0  0
  -22.6709  -42.8001   -5.7164 C   0  0  0  0  0  0  0  0  0  0  0  0
  -22.8535  -43.4699   -7.0665 C   0  0  0  0  0  0  0  0  0  0  0  0
  -21.7789  -44.3975   -7.3505 N   0  0  0  0  0  0  0  0  0  0  0  0
  -16.9995  -39.4925   -7.2534 C   0  0  2  0  0  0  0  0  0  0  0  0
  -17.6229  -38.2736   -7.0264 O   0  0  0  0  0  0  0  0  0  0  0  0
  -15.5309  -39.3565   -7.1148 C   0  0  0  0  0  0  0  0  0  0  0  0
  -14.6920  -40.4281   -7.4528 N   0  0  0  0  0  0  0  0  0  0  0  0
  -14.3602  -40.7388   -8.7863 C   0  0  0  0  0  0  0  0  0  0  0  0
  -14.2831  -39.6082   -9.7277 C   0  0  0  0  0  0  0  0  0  0  0  0
  -15.0468  -39.2736  -10.8115 C   0  0  0  0  0  0  0  0  0  0  0  0
  -14.5578  -38.1102  -11.3594 C   0  0  0  0  0  0  0  0  0  0  0  0
  -15.0512  -37.3730  -12.5306 C   0  0  0  0  0  0  0  0  0  0  0  0
  -15.1256  -35.8796  -12.2753 C   0  0  0  0  0  0  0  0  0  0  0  0
  -13.8037  -35.4005  -11.7281 C   0  0  0  0  0  0  0  0  0  0  0  0
  -15.3697  -35.1324  -13.5911 C   0  0  0  0  0  0  0  0  0  0  0  0
  -16.2570  -35.5038  -11.3455 C   0  0  0  0  0  0  0  0  0  0  0  0
  -13.5209  -37.7765  -10.5975 O   0  0  0  0  0  0  0  0  0  0  0  0
  -13.3502  -38.6412   -9.6435 N   0  0  0  0  0  0  0  0  0  0  0  0
  1  2  1  0
  2  3  1  0
  3  4  1  0
  4  5  2  0
  5  6  1  0
  6  7  2  0
  7  8  1  0
  8  9  2  0
  8 10  1  0
 10 11  2  0
 10 12  1  0
 12 13  1  0
 13 14  1  1
 14 15  1  0
 15 16  2  0
 16 17  1  0
 17 18  2  0
 18 19  1  0
 19 20  2  0
 17 21  1  0
 21 22  1  0
 22 23  1  0
 23 24  1  0
 24 25  1  0
 25 26  1  0
 13 27  1  0
 27 28  1  6
 27 29  1  0
 29 30  1  0
 30 31  1  0
 31 32  1  0
 32 33  1  0
 33 34  2  0
 34 35  1  0
 35 36  1  0
 36 37  1  0
 36 38  1  0
 36 39  1  0
 34 40  1  0
 40 41  1  0
  9  4  1  0
 20 15  1  0
 26  6  1  0
 41 32  2  0
M  END
$$$$
