
     RDKit          3D

 41 44  0  0  0  0  0  0  0  0999 V2000
  -20.8341  -46.6238   -7.3668 C   0  0  0  0  0  0  0  0  0  0  0  0
  -21.3612  -45.9623   -8.4836 O   0  0  0  0  0  0  0  0  0  0  0  0
  -21.9990  -44.8056   -8.0408 C   0  0  0  0  0  0  0  0  0  0  0  0
  -21.2257  -43.6724   -8.6131 C   0  0  0  0  0  0  0  0  0  0  0  0
  -21.4376  -43.2156   -9.8869 C   0  0  0  0  0  0  0  0  0  0  0  0
  -20.7117  -42.1387  -10.4619 C   0  0  0  0  0  0  0  0  0  0  0  0
  -19.7408  -41.5099   -9.7174 C   0  0  0  0  0  0  0  0  0  0  0  0
  -19.4875  -41.9285   -8.4269 C   0  0  0  0  0  0  0  0  0  0  0  0
  -20.2538  -43.0156   -7.9141 C   0  0  0  0  0  0  0  0  0  0  0  0
  -18.5475  -41.4438   -7.4146 C   0  0  0  0  0  0  0  0  0  0  0  0
  -18.0643  -42.3575   -6.5571 O   0  0  0  0  0  0  0  0  0  0  0  0
  -17.9882  -40.1923   -7.0857 N   0  0  0  0  0  0  0  0  0  0  0  0
  -16.9953  -39.3973   -7.7873 C   0  0  1  0  0  0  0  0  0  0  0  0
  -16.5316  -39.9116   -9.0882 C   0  0  0  0  0  0  0  0  0  0  0  0
  -16.5987  -39.0698  -10.3180 C   0  0  0  0  0  0  0  0  0  0  0  0
  -17.6774  -38.5282  -10.9700 C   0  0  0  0  0  0  0  0  0  0  0  0
  -17.4764  -37.8792  -12.1745 C   0  0  0  0  0  0  0  0  0  0  0  0
  -16.1942  -37.7680  -12.7088 C   0  0  0  0  0  0  0  0  0  0  0  0
  -15.0786  -38.2852  -12.0963 C   0  0  0  0  0  0  0  0  0  0  0  0
  -15.3210  -38.9253  -10.9118 C   0  0  0  0  0  0  0  0  0  0  0  0
  -18.4326  -37.2853  -12.9970 O   0  0  0  0  0  0  0  0  0  0  0  0
  -19.5458  -37.8612  -13.6793 C   0  0  0  0  0  0  0  0  0  0  0  0
  -19.4923  -39.3553  -13.7751 C   0  0  0  0  0  0  0  0  0  0  0  0
  -20.7598  -39.9487  -13.2109 C   0  0  0  0  0  0  0  0  0  0  0  0
  -20.5583  -41.4378  -12.9944 C   0  0  0  0  0  0  0  0  0  0  0  0
  -21.2030  -41.8914  -11.7801 N   0  0  0  0  0  0  0  0  0  0  0  0
  -17.3315  -37.9052   -7.7760 C   0  0  2  0  0  0  0  0  0  0  0  0
  -16.2877  -37.1919   -8.3482 O   0  0  0  0  0  0  0  0  0  0  0  0
  -17.6154  -37.4022   -6.4118 C   0  0  0  0  0  0  0  0  0  0  0  0
  -18.2112  -38.2455   -5.4629 N   0  0  0  0  0  0  0  0  0  0  0  0
  -19.5061  -38.0198   -4.9561 C   0  0  0  0  0  0  0  0  0  0  0  0
  -20.5084  -39.0677   -5.2162 C   0  0  0  0  0  0  0  0  0  0  0  0
  -21.2805  -39.8172   -4.3723 C   0  0  0  0  0  0  0  0  0  0  0  0
  -22.0642  -40.6654   -5.1201 C   0  0  0  0  0  0  0  0  0  0  0  0
  -23.0464  -41.6531   -4.6528 C   0  0  0  0  0  0  0  0  0  0  0  0
  -22.3879  -42.8220   -3.9450 C   0  0  0  0  0  0  0  0  0  0  0  0
  -22.3266  -44.0026   -4.8824 C   0  0  0  0  0  0  0  0  0  0  0  0
  -20.9454  -42.4650   -3.5699 C   0  0  0  0  0  0  0  0  0  0  0  0
  -23.0917  -43.1955   -2.6600 C   0  0  0  0  0  0  0  0  0  0  0  0
  -21.7467  -40.4069   -6.3848 O   0  0  0  0  0  0  0  0  0  0  0  0
  -20.8414  -39.4782   -6.4543 N   0  0  0  0  0  0  0  0  0  0  0  0
  1  2  1  0
  2  3  1  0
  3  4  1  0
  4  5  2  0
  5  6  1  0
  6  7  2  0
  7  8  1  0
  8  9  2  0
  8 10  1  0
 10 11  2  0
 10 12  1  0
 12 13  1  0
 13 14  1  6
 14 15  1  0
 15 16  2  0
 16 17  1  0
 17 18  2  0
 18 19  1  0
 19 20  2  0
 17 21  1  0
 21 22  1  0
 22 23  1  0
 23 24  1  0
 24 25  1  0
 25 26  1  0
 13 27  1  0
 27 28  1  1
 27 29  1  0
 29 30  1  0
 30 31  1  0
 31 32  1  0
 32 33  1  0
 33 34  2  0
 34 35  1  0
 35 36  1  0
 36 37  1  0
 36 38  1  0
 36 39  1  0
 34 40  1  0
 40 41  1  0
  9  4  1  0
 20 15  1  0
 26  6  1  0
 41 32  2  0
M  END
$$$$
