
     RDKit          3D

 41 44  0  0  0  0  0  0  0  0999 V2000
  -18.6938  -48.9708   -9.7241 C   0  0  0  0  0  0  0  0  0  0  0  0
  -18.8828  -48.5361   -8.4057 O   0  0  0  0  0  0  0  0  0  0  0  0
  -17.8576  -47.6466   -8.0917 C   0  0  0  0  0  0  0  0  0  0  0  0
  -18.4832  -46.2983   -8.0728 C   0  0  0  0  0  0  0  0  0  0  0  0
  -19.3677  -45.9193   -7.0981 C   0  0  0  0  0  0  0  0  0  0  0  0
  -19.9843  -44.6405   -7.0565 C   0  0  0  0  0  0  0  0  0  0  0  0
  -19.6916  -43.7217   -8.0375 C   0  0  0  0  0  0  0  0  0  0  0  0
  -18.8049  -44.0504   -9.0427 C   0  0  0  0  0  0  0  0  0  0  0  0
  -18.2237  -45.3519   -9.0223 C   0  0  0  0  0  0  0  0  0  0  0  0
  -18.2997  -43.2832  -10.1826 C   0  0  0  0  0  0  0  0  0  0  0  0
  -17.9952  -43.9811  -11.2889 O   0  0  0  0  0  0  0  0  0  0  0  0
  -18.0311  -41.9222  -10.4331 N   0  0  0  0  0  0  0  0  0  0  0  0
  -18.9431  -40.8073  -10.6207 C   0  0  1  0  0  0  0  0  0  0  0  0
  -20.3802  -41.0903  -10.4565 C   0  0  0  0  0  0  0  0  0  0  0  0
  -21.2176  -40.3011   -9.5070 C   0  0  0  0  0  0  0  0  0  0  0  0
  -21.1361  -40.1693   -8.1439 C   0  0  0  0  0  0  0  0  0  0  0  0
  -22.1220  -39.4640   -7.4783 C   0  0  0  0  0  0  0  0  0  0  0  0
  -23.1743  -38.8866   -8.1863 C   0  0  0  0  0  0  0  0  0  0  0  0
  -23.3021  -38.9816   -9.5508 C   0  0  0  0  0  0  0  0  0  0  0  0
  -22.3112  -39.6929  -10.1702 C   0  0  0  0  0  0  0  0  0  0  0  0
  -22.2339  -39.2353   -6.1077 O   0  0  0  0  0  0  0  0  0  0  0  0
  -22.3938  -40.1576   -5.0303 C   0  0  0  0  0  0  0  0  0  0  0  0
  -22.8117  -41.5296   -5.4628 C   0  0  0  0  0  0  0  0  0  0  0  0
  -21.8413  -42.5521   -4.9245 C   0  0  0  0  0  0  0  0  0  0  0  0
  -22.0645  -43.8735   -5.6379 C   0  0  0  0  0  0  0  0  0  0  0  0
  -20.8147  -44.5564   -5.8975 N   0  0  0  0  0  0  0  0  0  0  0  0
  -18.4605  -39.5368   -9.9190 C   0  0  2  0  0  0  0  0  0  0  0  0
  -19.4890  -38.6056   -9.8900 O   0  0  0  0  0  0  0  0  0  0  0  0
  -17.2579  -38.9598  -10.5635 C   0  0  0  0  0  0  0  0  0  0  0  0
  -16.8849  -39.3733  -11.8504 N   0  0  0  0  0  0  0  0  0  0  0  0
  -16.0735  -40.5023  -12.0778 C   0  0  0  0  0  0  0  0  0  0  0  0
  -14.8414  -40.6017  -11.2762 C   0  0  0  0  0  0  0  0  0  0  0  0
  -14.4107  -41.5438  -10.3836 C   0  0  0  0  0  0  0  0  0  0  0  0
  -13.1774  -41.1704   -9.9015 C   0  0  0  0  0  0  0  0  0  0  0  0
  -12.3283  -41.8662   -8.9250 C   0  0  0  0  0  0  0  0  0  0  0  0
  -12.1971  -41.0908   -7.6279 C   0  0  0  0  0  0  0  0  0  0  0  0
  -10.8612  -41.3965   -6.9968 C   0  0  0  0  0  0  0  0  0  0  0  0
  -12.2319  -39.5846   -7.9095 C   0  0  0  0  0  0  0  0  0  0  0  0
  -13.3236  -41.3786   -6.6613 C   0  0  0  0  0  0  0  0  0  0  0  0
  -12.8991  -40.0226  -10.5115 O   0  0  0  0  0  0  0  0  0  0  0  0
  -13.8606  -39.6803  -11.3148 N   0  0  0  0  0  0  0  0  0  0  0  0
  1  2  1  0
  2  3  1  0
  3  4  1  0
  4  5  2  0
  5  6  1  0
  6  7  2  0
  7  8  1  0
  8  9  2  0
  8 10  1  0
 10 11  2  0
 10 12  1  0
 12 13  1  0
 13 14  1  1
 14 15  1  0
 15 16  2  0
 16 17  1  0
 17 18  2  0
 18 19  1  0
 19 20  2  0
 17 21  1  0
 21 22  1  0
 22 23  1  0
 23 24  1  0
 24 25  1  0
 25 26  1  0
 13 27  1  0
 27 28  1  6
 27 29  1  0
 29 30  1  0
 30 31  1  0
 31 32  1  0
 32 33  1  0
 33 34  2  0
 34 35  1  0
 35 36  1  0
 36 37  1  0
 36 38  1  0
 36 39  1  0
 34 40  1  0
 40 41  1  0
  9  4  1  0
 20 15  1  0
 26  6  1  0
 41 32  2  0
M  END
$$$$
