
     RDKit          3D

 41 44  0  0  0  0  0  0  0  0999 V2000
  -19.5162  -47.8103  -11.8681 C   0  0  0  0  0  0  0  0  0  0  0  0
  -18.6495  -46.8272  -11.3732 O   0  0  0  0  0  0  0  0  0  0  0  0
  -18.4881  -47.0404  -10.0060 C   0  0  0  0  0  0  0  0  0  0  0  0
  -18.8004  -45.7415   -9.3540 C   0  0  0  0  0  0  0  0  0  0  0  0
  -19.8656  -45.5894   -8.5066 C   0  0  0  0  0  0  0  0  0  0  0  0
  -20.1912  -44.3606   -7.8731 C   0  0  0  0  0  0  0  0  0  0  0  0
  -19.4089  -43.2544   -8.1112 C   0  0  0  0  0  0  0  0  0  0  0  0
  -18.3213  -43.3522   -8.9553 C   0  0  0  0  0  0  0  0  0  0  0  0
  -18.0537  -44.6164   -9.5571 C   0  0  0  0  0  0  0  0  0  0  0  0
  -17.3204  -42.3673   -9.3692 C   0  0  0  0  0  0  0  0  0  0  0  0
  -16.8089  -42.5125  -10.6024 O   0  0  0  0  0  0  0  0  0  0  0  0
  -16.7167  -41.2421   -8.7720 N   0  0  0  0  0  0  0  0  0  0  0  0
  -17.2702  -39.9339   -8.4678 C   0  0  1  0  0  0  0  0  0  0  0  0
  -18.7049  -39.7396   -8.7439 C   0  0  0  0  0  0  0  0  0  0  0  0
  -19.6362  -39.2604   -7.6815 C   0  0  0  0  0  0  0  0  0  0  0  0
  -19.9918  -39.8291   -6.4849 C   0  0  0  0  0  0  0  0  0  0  0  0
  -20.9815  -39.2313   -5.7261 C   0  0  0  0  0  0  0  0  0  0  0  0
  -21.5972  -38.0618   -6.1678 C   0  0  0  0  0  0  0  0  0  0  0  0
  -21.2763  -37.4464   -7.3534 C   0  0  0  0  0  0  0  0  0  0  0  0
  -20.2988  -38.0728   -8.0770 C   0  0  0  0  0  0  0  0  0  0  0  0
  -21.4983  -39.6579   -4.5037 O   0  0  0  0  0  0  0  0  0  0  0  0
  -22.1914  -40.8588   -4.1658 C   0  0  0  0  0  0  0  0  0  0  0  0
  -22.7058  -41.6168   -5.3511 C   0  0  0  0  0  0  0  0  0  0  0  0
  -22.1977  -43.0370   -5.3084 C   0  0  0  0  0  0  0  0  0  0  0  0
  -22.4284  -43.6887   -6.6601 C   0  0  0  0  0  0  0  0  0  0  0  0
  -21.3275  -44.5532   -7.0295 N   0  0  0  0  0  0  0  0  0  0  0  0
  -16.8069  -39.4083   -7.1082 C   0  0  2  0  0  0  0  0  0  0  0  0
  -17.2157  -38.0907   -6.9584 O   0  0  0  0  0  0  0  0  0  0  0  0
  -15.3402  -39.5185   -6.9321 C   0  0  0  0  0  0  0  0  0  0  0  0
  -14.4849  -38.6257   -7.5939 N   0  0  0  0  0  0  0  0  0  0  0  0
  -13.3833  -39.0580   -8.3583 C   0  0  0  0  0  0  0  0  0  0  0  0
  -13.3746  -38.6719   -9.7800 C   0  0  0  0  0  0  0  0  0  0  0  0
  -13.1548  -37.4703  -10.3947 C   0  0  0  0  0  0  0  0  0  0  0  0
  -13.2582  -37.6404  -11.7560 C   0  0  0  0  0  0  0  0  0  0  0  0
  -13.1028  -36.6364  -12.8174 C   0  0  0  0  0  0  0  0  0  0  0  0
  -11.6846  -36.5877  -13.3537 C   0  0  0  0  0  0  0  0  0  0  0  0
  -11.1953  -35.1605  -13.3413 C   0  0  0  0  0  0  0  0  0  0  0  0
  -10.7507  -37.3954  -12.4457 C   0  0  0  0  0  0  0  0  0  0  0  0
  -11.5655  -37.1818  -14.7389 C   0  0  0  0  0  0  0  0  0  0  0  0
  -13.5348  -38.9295  -11.9249 O   0  0  0  0  0  0  0  0  0  0  0  0
  -13.6054  -39.5415  -10.7814 N   0  0  0  0  0  0  0  0  0  0  0  0
  1  2  1  0
  2  3  1  0
  3  4  1  0
  4  5  2  0
  5  6  1  0
  6  7  2  0
  7  8  1  0
  8  9  2  0
  8 10  1  0
 10 11  2  0
 10 12  1  0
 12 13  1  0
 13 14  1  1
 14 15  1  0
 15 16  2  0
 16 17  1  0
 17 18  2  0
 18 19  1  0
 19 20  2  0
 17 21  1  0
 21 22  1  0
 22 23  1  0
 23 24  1  0
 24 25  1  0
 25 26  1  0
 13 27  1  0
 27 28  1  6
 27 29  1  0
 29 30  1  0
 30 31  1  0
 31 32  1  0
 32 33  1  0
 33 34  2  0
 34 35  1  0
 35 36  1  0
 36 37  1  0
 36 38  1  0
 36 39  1  0
 34 40  1  0
 40 41  1  0
  9  4  1  0
 20 15  1  0
 26  6  1  0
 41 32  2  0
M  END
$$$$
