
     RDKit          3D

 41 44  0  0  0  0  0  0  0  0999 V2000
  -19.2939  -44.6413   -1.5264 C   0  0  0  0  0  0  0  0  0  0  0  0
  -19.6697  -43.5480   -2.3178 O   0  0  0  0  0  0  0  0  0  0  0  0
  -20.9383  -43.8027   -2.8341 C   0  0  0  0  0  0  0  0  0  0  0  0
  -21.0200  -43.0350   -4.1044 C   0  0  0  0  0  0  0  0  0  0  0  0
  -22.1313  -42.3121   -4.4484 C   0  0  0  0  0  0  0  0  0  0  0  0
  -22.2400  -41.5731   -5.6565 C   0  0  0  0  0  0  0  0  0  0  0  0
  -21.1857  -41.5719   -6.5401 C   0  0  0  0  0  0  0  0  0  0  0  0
  -20.0403  -42.2819   -6.2422 C   0  0  0  0  0  0  0  0  0  0  0  0
  -20.0005  -43.0013   -5.0122 C   0  0  0  0  0  0  0  0  0  0  0  0
  -18.7795  -42.4424   -6.9689 C   0  0  0  0  0  0  0  0  0  0  0  0
  -18.1391  -43.6121   -6.8097 O   0  0  0  0  0  0  0  0  0  0  0  0
  -18.0174  -41.6384   -7.8407 N   0  0  0  0  0  0  0  0  0  0  0  0
  -18.2757  -41.2415   -9.2140 C   0  0  1  0  0  0  0  0  0  0  0  0
  -19.5618  -41.6645   -9.7965 C   0  0  0  0  0  0  0  0  0  0  0  0
  -20.4976  -40.6722  -10.4008 C   0  0  0  0  0  0  0  0  0  0  0  0
  -21.1567  -39.6096   -9.8365 C   0  0  0  0  0  0  0  0  0  0  0  0
  -22.0739  -38.9084  -10.5977 C   0  0  0  0  0  0  0  0  0  0  0  0
  -22.3133  -39.2709  -11.9218 C   0  0  0  0  0  0  0  0  0  0  0  0
  -21.6780  -40.3210  -12.5390 C   0  0  0  0  0  0  0  0  0  0  0  0
  -20.7846  -40.9927  -11.7502 C   0  0  0  0  0  0  0  0  0  0  0  0
  -22.8567  -37.8223  -10.2092 O   0  0  0  0  0  0  0  0  0  0  0  0
  -23.8635  -37.7263   -9.2024 C   0  0  0  0  0  0  0  0  0  0  0  0
  -24.3624  -39.0518   -8.7143 C   0  0  0  0  0  0  0  0  0  0  0  0
  -24.2270  -39.1270   -7.2134 C   0  0  0  0  0  0  0  0  0  0  0  0
  -24.4031  -40.5682   -6.7696 C   0  0  0  0  0  0  0  0  0  0  0  0
  -23.5026  -40.9062   -5.6876 N   0  0  0  0  0  0  0  0  0  0  0  0
  -17.9085  -39.7800   -9.4757 C   0  0  2  0  0  0  0  0  0  0  0  0
  -18.5096  -39.3560  -10.6524 O   0  0  0  0  0  0  0  0  0  0  0  0
  -16.4435  -39.5700   -9.5381 C   0  0  0  0  0  0  0  0  0  0  0  0
  -15.5895  -40.6532   -9.7909 N   0  0  0  0  0  0  0  0  0  0  0  0
  -14.2095  -40.6113   -9.5104 C   0  0  0  0  0  0  0  0  0  0  0  0
  -13.5645  -39.2880   -9.5673 C   0  0  0  0  0  0  0  0  0  0  0  0
  -13.0502  -38.5711  -10.6120 C   0  0  0  0  0  0  0  0  0  0  0  0
  -12.5562  -37.3792  -10.1346 C   0  0  0  0  0  0  0  0  0  0  0  0
  -11.9114  -36.2913  -10.8825 C   0  0  0  0  0  0  0  0  0  0  0  0
  -10.3981  -36.3676  -10.8098 C   0  0  0  0  0  0  0  0  0  0  0  0
   -9.9717  -36.4547   -9.3652 C   0  0  0  0  0  0  0  0  0  0  0  0
   -9.9012  -37.6388  -11.5071 C   0  0  0  0  0  0  0  0  0  0  0  0
   -9.7230  -35.2024  -11.4973 C   0  0  0  0  0  0  0  0  0  0  0  0
  -12.7841  -37.4083   -8.8253 O   0  0  0  0  0  0  0  0  0  0  0  0
  -13.3710  -38.5151   -8.4821 N   0  0  0  0  0  0  0  0  0  0  0  0
  1  2  1  0
  2  3  1  0
  3  4  1  0
  4  5  2  0
  5  6  1  0
  6  7  2  0
  7  8  1  0
  8  9  2  0
  8 10  1  0
 10 11  2  0
 10 12  1  0
 12 13  1  0
 13 14  1  1
 14 15  1  0
 15 16  2  0
 16 17  1  0
 17 18  2  0
 18 19  1  0
 19 20  2  0
 17 21  1  0
 21 22  1  0
 22 23  1  0
 23 24  1  0
 24 25  1  0
 25 26  1  0
 13 27  1  0
 27 28  1  6
 27 29  1  0
 29 30  1  0
 30 31  1  0
 31 32  1  0
 32 33  1  0
 33 34  2  0
 34 35  1  0
 35 36  1  0
 36 37  1  0
 36 38  1  0
 36 39  1  0
 34 40  1  0
 40 41  1  0
  9  4  1  0
 20 15  1  0
 26  6  1  0
 41 32  2  0
M  END
$$$$
