
     RDKit          3D

 41 44  0  0  0  0  0  0  0  0999 V2000
  -21.0288  -40.4280   -0.2399 C   0  0  0  0  0  0  0  0  0  0  0  0
  -21.1660  -41.4040   -1.2356 O   0  0  0  0  0  0  0  0  0  0  0  0
  -22.2741  -41.0763   -2.0137 C   0  0  0  0  0  0  0  0  0  0  0  0
  -21.9185  -41.4578   -3.4057 C   0  0  0  0  0  0  0  0  0  0  0  0
  -22.8300  -42.0128   -4.2643 C   0  0  0  0  0  0  0  0  0  0  0  0
  -22.5184  -42.3913   -5.5973 C   0  0  0  0  0  0  0  0  0  0  0  0
  -21.2404  -42.1994   -6.0685 C   0  0  0  0  0  0  0  0  0  0  0  0
  -20.2826  -41.6416   -5.2461 C   0  0  0  0  0  0  0  0  0  0  0  0
  -20.6652  -41.2859   -3.9198 C   0  0  0  0  0  0  0  0  0  0  0  0
  -18.8762  -41.3080   -5.4789 C   0  0  0  0  0  0  0  0  0  0  0  0
  -18.0559  -41.3907   -4.4187 O   0  0  0  0  0  0  0  0  0  0  0  0
  -18.1165  -40.8951   -6.5921 N   0  0  0  0  0  0  0  0  0  0  0  0
  -17.7028  -41.6372   -7.7703 C   0  0  1  0  0  0  0  0  0  0  0  0
  -18.1987  -43.0198   -7.8921 C   0  0  0  0  0  0  0  0  0  0  0  0
  -18.9331  -43.4707   -9.1097 C   0  0  0  0  0  0  0  0  0  0  0  0
  -20.1251  -43.0467   -9.6401 C   0  0  0  0  0  0  0  0  0  0  0  0
  -20.6539  -43.7209  -10.7256 C   0  0  0  0  0  0  0  0  0  0  0  0
  -19.9768  -44.8067  -11.2777 C   0  0  0  0  0  0  0  0  0  0  0  0
  -18.7783  -45.2696  -10.7915 C   0  0  0  0  0  0  0  0  0  0  0  0
  -18.2934  -44.5806   -9.7137 C   0  0  0  0  0  0  0  0  0  0  0  0
  -21.8513  -43.4650  -11.3921 O   0  0  0  0  0  0  0  0  0  0  0  0
  -23.1964  -43.5072  -10.9174 C   0  0  0  0  0  0  0  0  0  0  0  0
  -23.3579  -44.2279   -9.6140 C   0  0  0  0  0  0  0  0  0  0  0  0
  -24.0512  -43.3316   -8.6176 C   0  0  0  0  0  0  0  0  0  0  0  0
  -23.9032  -43.9248   -7.2279 C   0  0  0  0  0  0  0  0  0  0  0  0
  -23.6950  -42.8972   -6.2296 N   0  0  0  0  0  0  0  0  0  0  0  0
  -17.8139  -40.8063   -9.0497 C   0  0  2  0  0  0  0  0  0  0  0  0
  -17.0585  -41.3981  -10.0521 O   0  0  0  0  0  0  0  0  0  0  0  0
  -17.3936  -39.4005   -8.8463 C   0  0  0  0  0  0  0  0  0  0  0  0
  -16.2996  -39.1078   -8.0193 N   0  0  0  0  0  0  0  0  0  0  0  0
  -15.0012  -38.9014   -8.5255 C   0  0  0  0  0  0  0  0  0  0  0  0
  -14.8823  -38.0123   -9.6941 C   0  0  0  0  0  0  0  0  0  0  0  0
  -15.3778  -36.7615   -9.9394 C   0  0  0  0  0  0  0  0  0  0  0  0
  -14.9779  -36.3616  -11.1936 C   0  0  0  0  0  0  0  0  0  0  0  0
  -15.2678  -35.0988  -11.8864 C   0  0  0  0  0  0  0  0  0  0  0  0
  -14.0202  -34.4760  -12.4836 C   0  0  0  0  0  0  0  0  0  0  0  0
  -12.8029  -35.1981  -11.9610 C   0  0  0  0  0  0  0  0  0  0  0  0
  -14.0270  -34.6420  -14.0073 C   0  0  0  0  0  0  0  0  0  0  0  0
  -13.9213  -32.9927  -12.2082 C   0  0  0  0  0  0  0  0  0  0  0  0
  -14.2575  -37.3732  -11.6674 O   0  0  0  0  0  0  0  0  0  0  0  0
  -14.1942  -38.3411  -10.8036 N   0  0  0  0  0  0  0  0  0  0  0  0
  1  2  1  0
  2  3  1  0
  3  4  1  0
  4  5  2  0
  5  6  1  0
  6  7  2  0
  7  8  1  0
  8  9  2  0
  8 10  1  0
 10 11  2  0
 10 12  1  0
 12 13  1  0
 13 14  1  6
 14 15  1  0
 15 16  2  0
 16 17  1  0
 17 18  2  0
 18 19  1  0
 19 20  2  0
 17 21  1  0
 21 22  1  0
 22 23  1  0
 23 24  1  0
 24 25  1  0
 25 26  1  0
 13 27  1  0
 27 28  1  6
 27 29  1  0
 29 30  1  0
 30 31  1  0
 31 32  1  0
 32 33  1  0
 33 34  2  0
 34 35  1  0
 35 36  1  0
 36 37  1  0
 36 38  1  0
 36 39  1  0
 34 40  1  0
 40 41  1  0
  9  4  1  0
 20 15  1  0
 26  6  1  0
 41 32  2  0
M  END
$$$$
