
     RDKit          3D

 41 44  0  0  0  0  0  0  0  0999 V2000
  -17.7434  -48.7617   -8.4432 C   0  0  0  0  0  0  0  0  0  0  0  0
  -18.7906  -47.9954   -7.9152 O   0  0  0  0  0  0  0  0  0  0  0  0
  -19.3665  -47.2724   -8.9575 C   0  0  0  0  0  0  0  0  0  0  0  0
  -19.5166  -45.8827   -8.4517 C   0  0  0  0  0  0  0  0  0  0  0  0
  -20.5512  -45.5130   -7.6337 C   0  0  0  0  0  0  0  0  0  0  0  0
  -20.7230  -44.1929   -7.1389 C   0  0  0  0  0  0  0  0  0  0  0  0
  -19.8146  -43.2210   -7.4889 C   0  0  0  0  0  0  0  0  0  0  0  0
  -18.7513  -43.5394   -8.3093 C   0  0  0  0  0  0  0  0  0  0  0  0
  -18.6411  -44.8841   -8.7692 C   0  0  0  0  0  0  0  0  0  0  0  0
  -17.6414  -42.7324   -8.8194 C   0  0  0  0  0  0  0  0  0  0  0  0
  -17.1579  -43.0703  -10.0259 O   0  0  0  0  0  0  0  0  0  0  0  0
  -16.9035  -41.6301   -8.3425 N   0  0  0  0  0  0  0  0  0  0  0  0
  -17.2939  -40.2397   -8.1853 C   0  0  1  0  0  0  0  0  0  0  0  0
  -18.6962  -39.9052   -8.4916 C   0  0  0  0  0  0  0  0  0  0  0  0
  -19.5572  -39.2057   -7.4941 C   0  0  0  0  0  0  0  0  0  0  0  0
  -19.9721  -39.5950   -6.2458 C   0  0  0  0  0  0  0  0  0  0  0  0
  -20.8785  -38.8042   -5.5635 C   0  0  0  0  0  0  0  0  0  0  0  0
  -21.3514  -37.6237   -6.1333 C   0  0  0  0  0  0  0  0  0  0  0  0
  -20.9653  -37.1830   -7.3759 C   0  0  0  0  0  0  0  0  0  0  0  0
  -20.0743  -37.9968   -8.0203 C   0  0  0  0  0  0  0  0  0  0  0  0
  -21.4361  -39.0311   -4.3061 O   0  0  0  0  0  0  0  0  0  0  0  0
  -22.2668  -40.0964   -3.8460 C   0  0  0  0  0  0  0  0  0  0  0  0
  -22.8752  -40.9106   -4.9465 C   0  0  0  0  0  0  0  0  0  0  0  0
  -22.5415  -42.3686   -4.7471 C   0  0  0  0  0  0  0  0  0  0  0  0
  -22.8564  -43.1298   -6.0224 C   0  0  0  0  0  0  0  0  0  0  0  0
  -21.8695  -44.1552   -6.2880 N   0  0  0  0  0  0  0  0  0  0  0  0
  -16.7632  -39.6300   -6.8868 C   0  0  2  0  0  0  0  0  0  0  0  0
  -17.2212  -38.3255   -6.7678 O   0  0  0  0  0  0  0  0  0  0  0  0
  -15.2843  -39.6684   -6.8100 C   0  0  0  0  0  0  0  0  0  0  0  0
  -14.5812  -40.7526   -7.3547 N   0  0  0  0  0  0  0  0  0  0  0  0
  -13.8622  -40.6592   -8.5626 C   0  0  0  0  0  0  0  0  0  0  0  0
  -14.6164  -40.9189   -9.8011 C   0  0  0  0  0  0  0  0  0  0  0  0
  -14.6595  -42.0068  -10.6285 C   0  0  0  0  0  0  0  0  0  0  0  0
  -15.5299  -41.7470  -11.6618 C   0  0  0  0  0  0  0  0  0  0  0  0
  -15.8969  -42.6154  -12.7886 C   0  0  0  0  0  0  0  0  0  0  0  0
  -17.3605  -43.0123  -12.7503 C   0  0  0  0  0  0  0  0  0  0  0  0
  -18.0284  -42.3424  -11.5750 C   0  0  0  0  0  0  0  0  0  0  0  0
  -18.0718  -42.5223  -14.0164 C   0  0  0  0  0  0  0  0  0  0  0  0
  -17.5559  -44.5105  -12.6939 C   0  0  0  0  0  0  0  0  0  0  0  0
  -15.9854  -40.5195  -11.4318 O   0  0  0  0  0  0  0  0  0  0  0  0
  -15.4608  -40.0261  -10.3509 N   0  0  0  0  0  0  0  0  0  0  0  0
  1  2  1  0
  2  3  1  0
  3  4  1  0
  4  5  2  0
  5  6  1  0
  6  7  2  0
  7  8  1  0
  8  9  2  0
  8 10  1  0
 10 11  2  0
 10 12  1  0
 12 13  1  0
 13 14  1  1
 14 15  1  0
 15 16  2  0
 16 17  1  0
 17 18  2  0
 18 19  1  0
 19 20  2  0
 17 21  1  0
 21 22  1  0
 22 23  1  0
 23 24  1  0
 24 25  1  0
 25 26  1  0
 13 27  1  0
 27 28  1  6
 27 29  1  0
 29 30  1  0
 30 31  1  0
 31 32  1  0
 32 33  1  0
 33 34  2  0
 34 35  1  0
 35 36  1  0
 36 37  1  0
 36 38  1  0
 36 39  1  0
 34 40  1  0
 40 41  1  0
  9  4  1  0
 20 15  1  0
 26  6  1  0
 41 32  2  0
M  END
$$$$
