
     RDKit          3D

 41 44  0  0  0  0  0  0  0  0999 V2000
  -19.7123  -46.3597  -10.5694 C   0  0  0  0  0  0  0  0  0  0  0  0
  -18.6691  -47.2900  -10.4733 O   0  0  0  0  0  0  0  0  0  0  0  0
  -18.0263  -47.0955   -9.2528 C   0  0  0  0  0  0  0  0  0  0  0  0
  -18.4792  -45.7667   -8.7638 C   0  0  0  0  0  0  0  0  0  0  0  0
  -19.5396  -45.6283   -7.9079 C   0  0  0  0  0  0  0  0  0  0  0  0
  -19.9977  -44.3726   -7.4278 C   0  0  0  0  0  0  0  0  0  0  0  0
  -19.3571  -43.2245   -7.8327 C   0  0  0  0  0  0  0  0  0  0  0  0
  -18.2811  -43.3065   -8.6930 C   0  0  0  0  0  0  0  0  0  0  0  0
  -17.8756  -44.5996   -9.1353 C   0  0  0  0  0  0  0  0  0  0  0  0
  -17.4122  -42.2757   -9.2639 C   0  0  0  0  0  0  0  0  0  0  0  0
  -16.9094  -42.5225  -10.4846 O   0  0  0  0  0  0  0  0  0  0  0  0
  -16.9362  -41.0192   -8.8376 N   0  0  0  0  0  0  0  0  0  0  0  0
  -17.6360  -39.7553   -8.6864 C   0  0  1  0  0  0  0  0  0  0  0  0
  -19.0883  -39.7665   -8.9370 C   0  0  0  0  0  0  0  0  0  0  0  0
  -20.0507  -39.2621   -7.9148 C   0  0  0  0  0  0  0  0  0  0  0  0
  -20.3145  -39.7050   -6.6435 C   0  0  0  0  0  0  0  0  0  0  0  0
  -21.3544  -39.1308   -5.9355 C   0  0  0  0  0  0  0  0  0  0  0  0
  -22.1130  -38.1090   -6.5036 C   0  0  0  0  0  0  0  0  0  0  0  0
  -21.8891  -37.6228   -7.7688 C   0  0  0  0  0  0  0  0  0  0  0  0
  -20.8572  -38.2220   -8.4378 C   0  0  0  0  0  0  0  0  0  0  0  0
  -21.7946  -39.4490   -4.6516 O   0  0  0  0  0  0  0  0  0  0  0  0
  -22.3335  -40.6668   -4.1385 C   0  0  0  0  0  0  0  0  0  0  0  0
  -22.7752  -41.6292   -5.1982 C   0  0  0  0  0  0  0  0  0  0  0  0
  -22.1009  -42.9629   -4.9896 C   0  0  0  0  0  0  0  0  0  0  0  0
  -22.2768  -43.8097   -6.2374 C   0  0  0  0  0  0  0  0  0  0  0  0
  -21.0875  -44.5822   -6.5287 N   0  0  0  0  0  0  0  0  0  0  0  0
  -17.2141  -39.0046   -7.4223 C   0  0  2  0  0  0  0  0  0  0  0  0
  -18.0128  -37.8810   -7.2638 O   0  0  0  0  0  0  0  0  0  0  0  0
  -15.7829  -38.6232   -7.4452 C   0  0  0  0  0  0  0  0  0  0  0  0
  -14.7986  -39.6031   -7.6384 N   0  0  0  0  0  0  0  0  0  0  0  0
  -14.3275  -39.9618   -8.9168 C   0  0  0  0  0  0  0  0  0  0  0  0
  -14.5113  -38.9696   -9.9901 C   0  0  0  0  0  0  0  0  0  0  0  0
  -15.0575  -37.7159   -9.9859 C   0  0  0  0  0  0  0  0  0  0  0  0
  -14.9893  -37.1956  -11.2576 C   0  0  0  0  0  0  0  0  0  0  0  0
  -15.4498  -35.8847  -11.7352 C   0  0  0  0  0  0  0  0  0  0  0  0
  -14.3052  -35.0274  -12.2412 C   0  0  0  0  0  0  0  0  0  0  0  0
  -14.4182  -34.8775  -13.7383 C   0  0  0  0  0  0  0  0  0  0  0  0
  -14.3933  -33.6218  -11.6365 C   0  0  0  0  0  0  0  0  0  0  0  0
  -12.9509  -35.5807  -11.8599 C   0  0  0  0  0  0  0  0  0  0  0  0
  -14.4083  -38.1413  -11.9891 O   0  0  0  0  0  0  0  0  0  0  0  0
  -14.1250  -39.1800  -11.2624 N   0  0  0  0  0  0  0  0  0  0  0  0
  1  2  1  0
  2  3  1  0
  3  4  1  0
  4  5  2  0
  5  6  1  0
  6  7  2  0
  7  8  1  0
  8  9  2  0
  8 10  1  0
 10 11  2  0
 10 12  1  0
 12 13  1  0
 13 14  1  1
 14 15  1  0
 15 16  2  0
 16 17  1  0
 17 18  2  0
 18 19  1  0
 19 20  2  0
 17 21  1  0
 21 22  1  0
 22 23  1  0
 23 24  1  0
 24 25  1  0
 25 26  1  0
 13 27  1  0
 27 28  1  6
 27 29  1  0
 29 30  1  0
 30 31  1  0
 31 32  1  0
 32 33  1  0
 33 34  2  0
 34 35  1  0
 35 36  1  0
 36 37  1  0
 36 38  1  0
 36 39  1  0
 34 40  1  0
 40 41  1  0
  9  4  1  0
 20 15  1  0
 26  6  1  0
 41 32  2  0
M  END
$$$$
