
     RDKit          3D

 38 39  0  0  0  0  0  0  0  0999 V2000
  -13.4000  -34.0832  -11.0847 C   0  0  0  0  0  0  0  0  0  0  0  0
  -13.9409  -34.8030  -12.3141 C   0  0  0  0  0  0  0  0  0  0  0  0
  -14.5252  -33.7762  -13.2713 C   0  0  0  0  0  0  0  0  0  0  0  0
  -12.8496  -35.5513  -13.0345 C   0  0  0  0  0  0  0  0  0  0  0  0
  -12.5804  -36.8090  -12.3141 C   0  0  0  0  0  0  0  0  0  0  0  0
  -13.5617  -37.7586  -12.1165 C   0  0  0  0  0  0  0  0  0  0  0  0
  -13.2264  -38.9038  -11.4402 C   0  0  0  0  0  0  0  0  0  0  0  0
  -11.9420  -39.1019  -10.9687 C   0  0  0  0  0  0  0  0  0  0  0  0
  -10.9786  -38.1548  -11.1703 N   0  0  0  0  0  0  0  0  0  0  0  0
  -11.3120  -37.0427  -11.8297 C   0  0  0  0  0  0  0  0  0  0  0  0
  -14.2282  -39.9976  -11.1398 C   0  0  0  0  0  0  0  0  0  0  0  0
  -13.4220  -41.0842  -10.4576 C   0  0  0  0  0  0  0  0  0  0  0  0
  -14.6711  -40.5434  -12.4779 C   0  0  0  0  0  0  0  0  0  0  0  0
  -15.3089  -39.4841  -10.3693 N   0  0  0  0  0  0  0  0  0  0  0  0
  -15.7946  -40.1604   -9.2519 C   0  0  0  0  0  0  0  0  0  0  0  0
  -16.1436  -39.3212   -8.0858 C   0  0  1  0  0  0  0  0  0  0  0  0
  -16.1184  -37.9733   -8.3624 O   0  0  0  0  0  0  0  0  0  0  0  0
  -17.4955  -39.6860   -7.4720 C   0  0  2  0  0  0  0  0  0  0  0  0
  -18.0548  -38.3856   -6.8856 C   0  0  0  0  0  0  0  0  0  0  0  0
  -19.5166  -38.3624   -6.6817 C   0  0  2  0  0  0  0  0  0  0  0  0
  -19.8414  -38.4708   -5.2057 C   0  0  0  0  0  0  0  0  0  0  0  0
  -20.3334  -39.2423   -7.5646 C   0  0  0  0  0  0  0  0  0  0  0  0
  -21.7994  -39.1381   -7.1521 C   0  0  0  0  0  0  0  0  0  0  0  0
  -22.1493  -40.1726   -6.1106 C   0  0  0  0  0  0  0  0  0  0  0  0
  -23.3431  -41.0222   -6.4845 C   0  0  0  0  0  0  0  0  0  0  0  0
  -23.1299  -42.3746   -5.8613 C   0  0  0  0  0  0  0  0  0  0  0  0
  -23.3646  -43.5180   -6.7619 C   0  0  0  0  0  0  0  0  0  0  0  0
  -22.3308  -44.5607   -6.8604 C   0  0  0  0  0  0  0  0  0  0  0  0
  -20.9077  -44.1578   -6.6725 C   0  0  0  0  0  0  0  0  0  0  0  0
  -20.4939  -43.2675   -7.7808 C   0  0  0  0  0  0  0  0  0  0  0  0
  -21.4014  -42.7183   -8.4731 O   0  0  0  0  0  0  0  0  0  0  0  0
  -19.1376  -42.9745   -8.1360 N   0  0  0  0  0  0  0  0  0  0  0  0
  -18.7898  -42.6722   -9.5287 C   0  0  0  0  0  0  0  0  0  0  0  0
  -18.1124  -42.9879   -7.1188 C   0  0  1  0  0  0  0  0  0  0  0  0
  -16.7317  -43.3356   -7.6798 C   0  0  0  0  0  0  0  0  0  0  0  0
  -18.0704  -41.8458   -6.2157 C   0  0  0  0  0  0  0  0  0  0  0  0
  -18.7124  -41.9595   -5.1051 O   0  0  0  0  0  0  0  0  0  0  0  0
  -17.4116  -40.6107   -6.3913 N   0  0  0  0  0  0  0  0  0  0  0  0
  1  2  1  0
  2  3  1  0
  2  4  1  0
  4  5  1  0
  5  6  2  0
  6  7  1  0
  7  8  2  0
  8  9  1  0
  9 10  2  0
  7 11  1  0
 11 12  1  0
 11 13  1  0
 11 14  1  0
 14 15  1  0
 15 16  1  0
 16 17  1  6
 16 18  1  0
 18 19  1  1
 19 20  1  0
 20 21  1  1
 20 22  1  0
 22 23  1  0
 23 24  1  0
 24 25  1  0
 25 26  1  0
 26 27  1  0
 27 28  1  0
 28 29  1  0
 29 30  1  0
 30 31  2  0
 30 32  1  0
 32 33  1  0
 32 34  1  0
 34 35  1  6
 34 36  1  0
 36 37  2  0
 36 38  1  0
 10  5  1  0
 38 18  1  0
M  END
$$$$
