
     RDKit          3D

 38 39  0  0  0  0  0  0  0  0999 V2000
  -13.7982  -35.8103  -13.0241 C   0  0  0  0  0  0  0  0  0  0  0  0
  -12.2765  -35.7302  -13.0355 C   0  0  0  0  0  0  0  0  0  0  0  0
  -11.7916  -35.3337  -11.6501 C   0  0  0  0  0  0  0  0  0  0  0  0
  -11.6611  -37.0596  -13.3876 C   0  0  0  0  0  0  0  0  0  0  0  0
  -12.4706  -38.1331  -12.7829 C   0  0  0  0  0  0  0  0  0  0  0  0
  -12.2898  -38.5313  -11.4743 C   0  0  0  0  0  0  0  0  0  0  0  0
  -13.0886  -39.5345  -10.9876 C   0  0  0  0  0  0  0  0  0  0  0  0
  -14.0476  -40.1310  -11.7848 C   0  0  0  0  0  0  0  0  0  0  0  0
  -14.2177  -39.7284  -13.0790 N   0  0  0  0  0  0  0  0  0  0  0  0
  -13.4369  -38.7511  -13.5460 C   0  0  0  0  0  0  0  0  0  0  0  0
  -12.9577  -40.0715   -9.5788 C   0  0  0  0  0  0  0  0  0  0  0  0
  -11.5279  -39.7671   -9.1798 C   0  0  0  0  0  0  0  0  0  0  0  0
  -13.0809  -41.5740   -9.6866 C   0  0  0  0  0  0  0  0  0  0  0  0
  -13.9479  -39.4968   -8.7335 N   0  0  0  0  0  0  0  0  0  0  0  0
  -15.2222  -40.0495   -8.6219 C   0  0  0  0  0  0  0  0  0  0  0  0
  -16.3531  -39.1282   -8.8633 C   0  0  1  0  0  0  0  0  0  0  0  0
  -16.6915  -39.0240  -10.1931 O   0  0  0  0  0  0  0  0  0  0  0  0
  -17.5980  -39.4869   -8.0514 C   0  0  2  0  0  0  0  0  0  0  0  0
  -18.1744  -38.1561   -7.5571 C   0  0  0  0  0  0  0  0  0  0  0  0
  -19.6015  -38.1870   -7.1812 C   0  0  2  0  0  0  0  0  0  0  0  0
  -19.7477  -38.1292   -5.6741 C   0  0  0  0  0  0  0  0  0  0  0  0
  -20.4516  -39.2124   -7.8496 C   0  0  0  0  0  0  0  0  0  0  0  0
  -21.8646  -39.1374   -7.2770 C   0  0  0  0  0  0  0  0  0  0  0  0
  -22.0218  -40.0524   -6.0873 C   0  0  0  0  0  0  0  0  0  0  0  0
  -23.1895  -41.0051   -6.2118 C   0  0  0  0  0  0  0  0  0  0  0  0
  -22.8146  -42.2565   -5.4657 C   0  0  0  0  0  0  0  0  0  0  0  0
  -23.0717  -43.5136   -6.1916 C   0  0  0  0  0  0  0  0  0  0  0  0
  -21.9870  -44.5029   -6.2928 C   0  0  0  0  0  0  0  0  0  0  0  0
  -20.5827  -44.0034   -6.3275 C   0  0  0  0  0  0  0  0  0  0  0  0
  -20.3599  -43.2361   -7.5741 C   0  0  0  0  0  0  0  0  0  0  0  0
  -21.3759  -42.8268   -8.2102 O   0  0  0  0  0  0  0  0  0  0  0  0
  -19.0762  -42.9164   -8.1232 N   0  0  0  0  0  0  0  0  0  0  0  0
  -18.9111  -42.7705   -9.5734 C   0  0  0  0  0  0  0  0  0  0  0  0
  -17.9432  -42.7481   -7.2435 C   0  0  1  0  0  0  0  0  0  0  0  0
  -16.6150  -43.0874   -7.9237 C   0  0  0  0  0  0  0  0  0  0  0  0
  -17.8767  -41.5024   -6.4915 C   0  0  0  0  0  0  0  0  0  0  0  0
  -18.3784  -41.5123   -5.3055 O   0  0  0  0  0  0  0  0  0  0  0  0
  -17.3282  -40.2647   -6.8886 N   0  0  0  0  0  0  0  0  0  0  0  0
  1  2  1  0
  2  3  1  0
  2  4  1  0
  4  5  1  0
  5  6  2  0
  6  7  1  0
  7  8  2  0
  8  9  1  0
  9 10  2  0
  7 11  1  0
 11 12  1  0
 11 13  1  0
 11 14  1  0
 14 15  1  0
 15 16  1  0
 16 17  1  6
 16 18  1  0
 18 19  1  1
 19 20  1  0
 20 21  1  1
 20 22  1  0
 22 23  1  0
 23 24  1  0
 24 25  1  0
 25 26  1  0
 26 27  1  0
 27 28  1  0
 28 29  1  0
 29 30  1  0
 30 31  2  0
 30 32  1  0
 32 33  1  0
 32 34  1  0
 34 35  1  6
 34 36  1  0
 36 37  2  0
 36 38  1  0
 10  5  1  0
 38 18  1  0
M  END
$$$$
