
     RDKit          3D

 38 39  0  0  0  0  0  0  0  0999 V2000
  -25.9287  -42.1697   -4.2134 C   0  0  0  0  0  0  0  0  0  0  0  0
  -24.4907  -41.8779   -4.6249 C   0  0  0  0  0  0  0  0  0  0  0  0
  -24.1144  -42.7855   -5.7853 C   0  0  0  0  0  0  0  0  0  0  0  0
  -24.3290  -40.4486   -5.0729 C   0  0  0  0  0  0  0  0  0  0  0  0
  -22.8906  -40.1380   -5.1611 C   0  0  0  0  0  0  0  0  0  0  0  0
  -22.1984  -40.2289   -6.3512 C   0  0  0  0  0  0  0  0  0  0  0  0
  -20.8626  -39.9171   -6.3475 C   0  0  0  0  0  0  0  0  0  0  0  0
  -20.2266  -39.5236   -5.1849 C   0  0  0  0  0  0  0  0  0  0  0  0
  -20.9222  -39.4372   -4.0124 N   0  0  0  0  0  0  0  0  0  0  0  0
  -22.2222  -39.7418   -4.0235 C   0  0  0  0  0  0  0  0  0  0  0  0
  -19.9991  -40.0108   -7.5868 C   0  0  0  0  0  0  0  0  0  0  0  0
  -20.7728  -39.2651   -8.6551 C   0  0  0  0  0  0  0  0  0  0  0  0
  -19.9847  -41.4696   -7.9819 C   0  0  0  0  0  0  0  0  0  0  0  0
  -18.6975  -39.4979   -7.3257 N   0  0  0  0  0  0  0  0  0  0  0  0
  -17.6107  -39.8177   -8.1373 C   0  0  0  0  0  0  0  0  0  0  0  0
  -16.3875  -39.0134   -7.9312 C   0  0  1  0  0  0  0  0  0  0  0  0
  -15.4995  -39.5940   -7.0548 O   0  0  0  0  0  0  0  0  0  0  0  0
  -15.6650  -38.6818   -9.2373 C   0  0  2  0  0  0  0  0  0  0  0  0
  -15.7601  -37.1606   -9.3949 C   0  0  0  0  0  0  0  0  0  0  0  0
  -14.7511  -36.5539  -10.2852 C   0  0  2  0  0  0  0  0  0  0  0  0
  -15.3911  -36.1336  -11.5928 C   0  0  0  0  0  0  0  0  0  0  0  0
  -13.4580  -37.2804  -10.4309 C   0  0  0  0  0  0  0  0  0  0  0  0
  -12.5845  -36.5435  -11.4428 C   0  0  0  0  0  0  0  0  0  0  0  0
  -12.8170  -37.0574  -12.8426 C   0  0  0  0  0  0  0  0  0  0  0  0
  -11.5474  -37.4824  -13.5455 C   0  0  0  0  0  0  0  0  0  0  0  0
  -11.9194  -38.5973  -14.4845 C   0  0  0  0  0  0  0  0  0  0  0  0
  -11.0341  -39.7750  -14.4328 C   0  0  0  0  0  0  0  0  0  0  0  0
  -11.6416  -41.1068  -14.2819 C   0  0  0  0  0  0  0  0  0  0  0  0
  -12.9170  -41.2136  -13.5171 C   0  0  0  0  0  0  0  0  0  0  0  0
  -12.6743  -40.8696  -12.0976 C   0  0  0  0  0  0  0  0  0  0  0  0
  -11.6146  -40.2374  -11.8116 O   0  0  0  0  0  0  0  0  0  0  0  0
  -13.5496  -41.1970  -11.0122 N   0  0  0  0  0  0  0  0  0  0  0  0
  -13.0040  -41.4301   -9.6706 C   0  0  0  0  0  0  0  0  0  0  0  0
  -14.9706  -41.3063  -11.2465 C   0  0  1  0  0  0  0  0  0  0  0  0
  -15.6547  -42.2695  -10.2737 C   0  0  0  0  0  0  0  0  0  0  0  0
  -15.7074  -40.0592  -11.3993 C   0  0  0  0  0  0  0  0  0  0  0  0
  -15.8755  -39.6273  -12.6009 O   0  0  0  0  0  0  0  0  0  0  0  0
  -16.2735  -39.2447  -10.3961 N   0  0  0  0  0  0  0  0  0  0  0  0
  1  2  1  0
  2  3  1  0
  2  4  1  0
  4  5  1  0
  5  6  2  0
  6  7  1  0
  7  8  2  0
  8  9  1  0
  9 10  2  0
  7 11  1  0
 11 12  1  0
 11 13  1  0
 11 14  1  0
 14 15  1  0
 15 16  1  0
 16 17  1  1
 16 18  1  0
 18 19  1  6
 19 20  1  0
 20 21  1  6
 20 22  1  0
 22 23  1  0
 23 24  1  0
 24 25  1  0
 25 26  1  0
 26 27  1  0
 27 28  1  0
 28 29  1  0
 29 30  1  0
 30 31  2  0
 30 32  1  0
 32 33  1  0
 32 34  1  0
 34 35  1  1
 34 36  1  0
 36 37  2  0
 36 38  1  0
 10  5  1  0
 38 18  1  0
M  END
$$$$
