
     RDKit          3D

 38 39  0  0  0  0  0  0  0  0999 V2000
  -18.9226  -35.5448  -12.3951 C   0  0  0  0  0  0  0  0  0  0  0  0
  -17.5472  -35.4665  -13.0465 C   0  0  0  0  0  0  0  0  0  0  0  0
  -16.5989  -34.7307  -12.1132 C   0  0  0  0  0  0  0  0  0  0  0  0
  -16.9842  -36.8401  -13.3033 C   0  0  0  0  0  0  0  0  0  0  0  0
  -15.7504  -37.0034  -12.5130 C   0  0  0  0  0  0  0  0  0  0  0  0
  -15.3110  -38.2439  -12.0983 C   0  0  0  0  0  0  0  0  0  0  0  0
  -14.1500  -38.3085  -11.3708 C   0  0  0  0  0  0  0  0  0  0  0  0
  -13.4397  -37.1639  -11.0604 C   0  0  0  0  0  0  0  0  0  0  0  0
  -13.8845  -35.9411  -11.4764 N   0  0  0  0  0  0  0  0  0  0  0  0
  -15.0150  -35.8857  -12.1845 C   0  0  0  0  0  0  0  0  0  0  0  0
  -13.5914  -39.6104  -10.8386 C   0  0  0  0  0  0  0  0  0  0  0  0
  -12.2003  -39.2632  -10.3483 C   0  0  0  0  0  0  0  0  0  0  0  0
  -13.4292  -40.5203  -12.0345 C   0  0  0  0  0  0  0  0  0  0  0  0
  -14.4551  -40.1534   -9.8464 N   0  0  0  0  0  0  0  0  0  0  0  0
  -15.2871  -39.3405   -9.0790 C   0  0  0  0  0  0  0  0  0  0  0  0
  -15.6580  -39.8642   -7.7471 C   0  0  1  0  0  0  0  0  0  0  0  0
  -15.1534  -39.1126   -6.7106 O   0  0  0  0  0  0  0  0  0  0  0  0
  -17.1681  -40.0226   -7.5682 C   0  0  2  0  0  0  0  0  0  0  0  0
  -17.6946  -38.6327   -7.1957 C   0  0  0  0  0  0  0  0  0  0  0  0
  -19.1330  -38.4146   -7.4456 C   0  0  2  0  0  0  0  0  0  0  0  0
  -19.8962  -38.4025   -6.1366 C   0  0  0  0  0  0  0  0  0  0  0  0
  -19.7602  -39.2303   -8.5237 C   0  0  0  0  0  0  0  0  0  0  0  0
  -21.2539  -38.9204   -8.5771 C   0  0  0  0  0  0  0  0  0  0  0  0
  -22.0369  -39.8456   -7.6781 C   0  0  0  0  0  0  0  0  0  0  0  0
  -23.1681  -40.5567   -8.3862 C   0  0  0  0  0  0  0  0  0  0  0  0
  -23.3375  -41.8902   -7.7107 C   0  0  0  0  0  0  0  0  0  0  0  0
  -23.4454  -43.0412   -8.6256 C   0  0  0  0  0  0  0  0  0  0  0  0
  -22.5817  -44.2095   -8.3926 C   0  0  0  0  0  0  0  0  0  0  0  0
  -21.2390  -43.9797   -7.7865 C   0  0  0  0  0  0  0  0  0  0  0  0
  -20.3953  -43.2089   -8.7280 C   0  0  0  0  0  0  0  0  0  0  0  0
  -20.9705  -42.5873   -9.6699 O   0  0  0  0  0  0  0  0  0  0  0  0
  -18.9682  -43.1086   -8.6582 N   0  0  0  0  0  0  0  0  0  0  0  0
  -18.1819  -42.9270   -9.8832 C   0  0  0  0  0  0  0  0  0  0  0  0
  -18.3062  -43.1969   -7.3777 C   0  0  1  0  0  0  0  0  0  0  0  0
  -16.8817  -43.7452   -7.4886 C   0  0  0  0  0  0  0  0  0  0  0  0
  -18.3811  -42.0228   -6.5189 C   0  0  0  0  0  0  0  0  0  0  0  0
  -19.3352  -41.9954   -5.6542 O   0  0  0  0  0  0  0  0  0  0  0  0
  -17.5381  -40.8917   -6.5016 N   0  0  0  0  0  0  0  0  0  0  0  0
  1  2  1  0
  2  3  1  0
  2  4  1  0
  4  5  1  0
  5  6  2  0
  6  7  1  0
  7  8  2  0
  8  9  1  0
  9 10  2  0
  7 11  1  0
 11 12  1  0
 11 13  1  0
 11 14  1  0
 14 15  1  0
 15 16  1  0
 16 17  1  1
 16 18  1  0
 18 19  1  1
 19 20  1  0
 20 21  1  1
 20 22  1  0
 22 23  1  0
 23 24  1  0
 24 25  1  0
 25 26  1  0
 26 27  1  0
 27 28  1  0
 28 29  1  0
 29 30  1  0
 30 31  2  0
 30 32  1  0
 32 33  1  0
 32 34  1  0
 34 35  1  6
 34 36  1  0
 36 37  2  0
 36 38  1  0
 10  5  1  0
 38 18  1  0
M  END
$$$$
