
     RDKit          3D

 38 39  0  0  0  0  0  0  0  0999 V2000
   -8.4797  -36.2157  -12.8150 C   0  0  0  0  0  0  0  0  0  0  0  0
   -9.8878  -36.7011  -13.1374 C   0  0  0  0  0  0  0  0  0  0  0  0
   -9.9798  -36.9988  -14.6256 C   0  0  0  0  0  0  0  0  0  0  0  0
  -10.2178  -37.9630  -12.3833 C   0  0  0  0  0  0  0  0  0  0  0  0
  -11.6819  -38.1332  -12.3593 C   0  0  0  0  0  0  0  0  0  0  0  0
  -12.4995  -37.2979  -11.6261 C   0  0  0  0  0  0  0  0  0  0  0  0
  -13.8522  -37.5222  -11.6623 C   0  0  0  0  0  0  0  0  0  0  0  0
  -14.3826  -38.5561  -12.4112 C   0  0  0  0  0  0  0  0  0  0  0  0
  -13.5633  -39.3768  -13.1332 N   0  0  0  0  0  0  0  0  0  0  0  0
  -12.2477  -39.1523  -13.0936 C   0  0  0  0  0  0  0  0  0  0  0  0
  -14.8393  -36.6887  -10.8741 C   0  0  0  0  0  0  0  0  0  0  0  0
  -15.4158  -35.7153  -11.8822 C   0  0  0  0  0  0  0  0  0  0  0  0
  -14.0212  -35.8823   -9.8918 C   0  0  0  0  0  0  0  0  0  0  0  0
  -15.7984  -37.5248  -10.2366 N   0  0  0  0  0  0  0  0  0  0  0  0
  -15.6438  -37.9360   -8.9142 C   0  0  0  0  0  0  0  0  0  0  0  0
  -15.9575  -39.3534   -8.6340 C   0  0  1  0  0  0  0  0  0  0  0  0
  -15.0845  -39.9347   -7.7430 O   0  0  0  0  0  0  0  0  0  0  0  0
  -17.3913  -39.5614   -8.1456 C   0  0  2  0  0  0  0  0  0  0  0  0
  -18.0040  -38.1613   -8.0349 C   0  0  0  0  0  0  0  0  0  0  0  0
  -19.4792  -38.1141   -8.0601 C   0  0  2  0  0  0  0  0  0  0  0  0
  -20.0175  -37.8118   -6.6764 C   0  0  0  0  0  0  0  0  0  0  0  0
  -20.1762  -39.2238   -8.7699 C   0  0  0  0  0  0  0  0  0  0  0  0
  -21.6842  -39.0404   -8.6206 C   0  0  0  0  0  0  0  0  0  0  0  0
  -22.2024  -39.7492   -7.3932 C   0  0  0  0  0  0  0  0  0  0  0  0
  -23.3457  -40.6955   -7.6833 C   0  0  0  0  0  0  0  0  0  0  0  0
  -23.2523  -41.8143   -6.6819 C   0  0  0  0  0  0  0  0  0  0  0  0
  -23.3760  -43.1690   -7.2501 C   0  0  0  0  0  0  0  0  0  0  0  0
  -22.3598  -44.1746   -6.9013 C   0  0  0  0  0  0  0  0  0  0  0  0
  -20.9715  -43.7040   -6.6293 C   0  0  0  0  0  0  0  0  0  0  0  0
  -20.3832  -43.1509   -7.8703 C   0  0  0  0  0  0  0  0  0  0  0  0
  -21.1693  -42.8377   -8.8129 O   0  0  0  0  0  0  0  0  0  0  0  0
  -18.9841  -42.9395   -8.0925 N   0  0  0  0  0  0  0  0  0  0  0  0
  -18.4315  -43.0317   -9.4482 C   0  0  0  0  0  0  0  0  0  0  0  0
  -18.1184  -42.6448   -6.9747 C   0  0  1  0  0  0  0  0  0  0  0  0
  -16.6779  -43.1054   -7.2091 C   0  0  0  0  0  0  0  0  0  0  0  0
  -18.1856  -41.2949   -6.4318 C   0  0  0  0  0  0  0  0  0  0  0  0
  -18.9845  -41.1070   -5.4392 O   0  0  0  0  0  0  0  0  0  0  0  0
  -17.4838  -40.1442   -6.8488 N   0  0  0  0  0  0  0  0  0  0  0  0
  1  2  1  0
  2  3  1  0
  2  4  1  0
  4  5  1  0
  5  6  2  0
  6  7  1  0
  7  8  2  0
  8  9  1  0
  9 10  2  0
  7 11  1  0
 11 12  1  0
 11 13  1  0
 11 14  1  0
 14 15  1  0
 15 16  1  0
 16 17  1  1
 16 18  1  0
 18 19  1  1
 19 20  1  0
 20 21  1  1
 20 22  1  0
 22 23  1  0
 23 24  1  0
 24 25  1  0
 25 26  1  0
 26 27  1  0
 27 28  1  0
 28 29  1  0
 29 30  1  0
 30 31  2  0
 30 32  1  0
 32 33  1  0
 32 34  1  0
 34 35  1  6
 34 36  1  0
 36 37  2  0
 36 38  1  0
 10  5  1  0
 38 18  1  0
M  END
$$$$
