
     RDKit          3D

 38 39  0  0  0  0  0  0  0  0999 V2000
  -12.7283  -35.9476  -10.5734 C   0  0  0  0  0  0  0  0  0  0  0  0
  -13.1068  -36.0292  -12.0472 C   0  0  0  0  0  0  0  0  0  0  0  0
  -12.7327  -34.7217  -12.7272 C   0  0  0  0  0  0  0  0  0  0  0  0
  -12.3722  -37.1475  -12.7398 C   0  0  0  0  0  0  0  0  0  0  0  0
  -12.9971  -38.4295  -12.3666 C   0  0  0  0  0  0  0  0  0  0  0  0
  -12.6034  -39.1317  -11.2461 C   0  0  0  0  0  0  0  0  0  0  0  0
  -13.2401  -40.3142  -10.9674 C   0  0  0  0  0  0  0  0  0  0  0  0
  -14.2474  -40.7904  -11.7857 C   0  0  0  0  0  0  0  0  0  0  0  0
  -14.6289  -40.0865  -12.8925 N   0  0  0  0  0  0  0  0  0  0  0  0
  -14.0051  -38.9361  -13.1574 C   0  0  0  0  0  0  0  0  0  0  0  0
  -12.8700  -41.1815   -9.7838 C   0  0  0  0  0  0  0  0  0  0  0  0
  -11.5832  -40.5830   -9.2527 C   0  0  0  0  0  0  0  0  0  0  0  0
  -12.5305  -42.5423  -10.3472 C   0  0  0  0  0  0  0  0  0  0  0  0
  -13.9392  -41.2249   -8.8456 N   0  0  0  0  0  0  0  0  0  0  0  0
  -15.2011  -40.7199   -9.1532 C   0  0  0  0  0  0  0  0  0  0  0  0
  -15.6926  -39.6278   -8.2862 C   0  0  1  0  0  0  0  0  0  0  0  0
  -15.6424  -38.3927   -8.8910 O   0  0  0  0  0  0  0  0  0  0  0  0
  -17.1062  -39.8756   -7.7590 C   0  0  2  0  0  0  0  0  0  0  0  0
  -17.5004  -38.6035   -7.0013 C   0  0  0  0  0  0  0  0  0  0  0  0
  -18.9514  -38.3975   -6.8254 C   0  0  2  0  0  0  0  0  0  0  0  0
  -19.3481  -38.6645   -5.3876 C   0  0  0  0  0  0  0  0  0  0  0  0
  -19.8474  -39.0164   -7.8429 C   0  0  0  0  0  0  0  0  0  0  0  0
  -21.2997  -38.7598   -7.4490 C   0  0  0  0  0  0  0  0  0  0  0  0
  -21.8336  -39.8689   -6.5760 C   0  0  0  0  0  0  0  0  0  0  0  0
  -23.1189  -40.4751   -7.0932 C   0  0  0  0  0  0  0  0  0  0  0  0
  -23.1235  -41.9184   -6.6689 C   0  0  0  0  0  0  0  0  0  0  0  0
  -23.4799  -42.8773   -7.7305 C   0  0  0  0  0  0  0  0  0  0  0  0
  -22.5999  -44.0344   -7.9588 C   0  0  0  0  0  0  0  0  0  0  0  0
  -21.1431  -43.8727   -7.6860 C   0  0  0  0  0  0  0  0  0  0  0  0
  -20.5635  -42.9047   -8.6447 C   0  0  0  0  0  0  0  0  0  0  0  0
  -21.3559  -42.1376   -9.2679 O   0  0  0  0  0  0  0  0  0  0  0  0
  -19.1661  -42.7644   -8.9264 N   0  0  0  0  0  0  0  0  0  0  0  0
  -18.7230  -42.3225  -10.2532 C   0  0  0  0  0  0  0  0  0  0  0  0
  -18.1952  -43.0695   -7.9016 C   0  0  1  0  0  0  0  0  0  0  0  0
  -16.8555  -43.5313   -8.4795 C   0  0  0  0  0  0  0  0  0  0  0  0
  -18.0297  -42.0843   -6.8416 C   0  0  0  0  0  0  0  0  0  0  0  0
  -18.7259  -42.2591   -5.7723 O   0  0  0  0  0  0  0  0  0  0  0  0
  -17.1971  -40.9456   -6.8227 N   0  0  0  0  0  0  0  0  0  0  0  0
  1  2  1  0
  2  3  1  0
  2  4  1  0
  4  5  1  0
  5  6  2  0
  6  7  1  0
  7  8  2  0
  8  9  1  0
  9 10  2  0
  7 11  1  0
 11 12  1  0
 11 13  1  0
 11 14  1  0
 14 15  1  0
 15 16  1  0
 16 17  1  6
 16 18  1  0
 18 19  1  1
 19 20  1  0
 20 21  1  1
 20 22  1  0
 22 23  1  0
 23 24  1  0
 24 25  1  0
 25 26  1  0
 26 27  1  0
 27 28  1  0
 28 29  1  0
 29 30  1  0
 30 31  2  0
 30 32  1  0
 32 33  1  0
 32 34  1  0
 34 35  1  6
 34 36  1  0
 36 37  2  0
 36 38  1  0
 10  5  1  0
 38 18  1  0
M  END
$$$$
