
     RDKit          3D

 38 39  0  0  0  0  0  0  0  0999 V2000
  -11.4463  -35.6888  -15.3516 C   0  0  0  0  0  0  0  0  0  0  0  0
  -11.4699  -36.8127  -14.3228 C   0  0  0  0  0  0  0  0  0  0  0  0
  -10.3176  -36.6173  -13.3503 C   0  0  0  0  0  0  0  0  0  0  0  0
  -12.7554  -36.8087  -13.5372 C   0  0  0  0  0  0  0  0  0  0  0  0
  -13.0591  -38.1883  -13.1157 C   0  0  0  0  0  0  0  0  0  0  0  0
  -12.9396  -38.5903  -11.8012 C   0  0  0  0  0  0  0  0  0  0  0  0
  -13.2469  -39.8910  -11.4925 C   0  0  0  0  0  0  0  0  0  0  0  0
  -13.6639  -40.7752  -12.4699 C   0  0  0  0  0  0  0  0  0  0  0  0
  -13.7786  -40.3659  -13.7681 N   0  0  0  0  0  0  0  0  0  0  0  0
  -13.4783  -39.0984  -14.0613 C   0  0  0  0  0  0  0  0  0  0  0  0
  -13.1228  -40.4486  -10.0911 C   0  0  0  0  0  0  0  0  0  0  0  0
  -12.3143  -39.4150   -9.3334 C   0  0  0  0  0  0  0  0  0  0  0  0
  -12.2673  -41.6893  -10.2047 C   0  0  0  0  0  0  0  0  0  0  0  0
  -14.4102  -40.7151   -9.5462 N   0  0  0  0  0  0  0  0  0  0  0  0
  -15.4269  -39.7626   -9.5764 C   0  0  0  0  0  0  0  0  0  0  0  0
  -15.9306  -39.3085   -8.2626 C   0  0  1  0  0  0  0  0  0  0  0  0
  -15.6404  -37.9895   -7.9985 O   0  0  0  0  0  0  0  0  0  0  0  0
  -17.4315  -39.5409   -8.0869 C   0  0  2  0  0  0  0  0  0  0  0  0
  -17.9807  -38.2649   -7.4403 C   0  0  0  0  0  0  0  0  0  0  0  0
  -19.4298  -38.0430   -7.6132 C   0  0  2  0  0  0  0  0  0  0  0  0
  -20.1592  -38.3064   -6.3114 C   0  0  0  0  0  0  0  0  0  0  0  0
  -20.0651  -38.6514   -8.8162 C   0  0  0  0  0  0  0  0  0  0  0  0
  -21.5666  -38.3789   -8.7774 C   0  0  0  0  0  0  0  0  0  0  0  0
  -22.3043  -39.4826   -8.0597 C   0  0  0  0  0  0  0  0  0  0  0  0
  -23.4364  -40.0743   -8.8690 C   0  0  0  0  0  0  0  0  0  0  0  0
  -23.5569  -41.5176   -8.4625 C   0  0  0  0  0  0  0  0  0  0  0  0
  -23.6612  -42.4719   -9.5815 C   0  0  0  0  0  0  0  0  0  0  0  0
  -22.7646  -43.6385   -9.5980 C   0  0  0  0  0  0  0  0  0  0  0  0
  -21.4125  -43.4931   -8.9867 C   0  0  0  0  0  0  0  0  0  0  0  0
  -20.6117  -42.5310   -9.7774 C   0  0  0  0  0  0  0  0  0  0  0  0
  -21.2253  -41.7549  -10.5684 O   0  0  0  0  0  0  0  0  0  0  0  0
  -19.1860  -42.4061   -9.7190 N   0  0  0  0  0  0  0  0  0  0  0  0
  -18.4359  -41.9684  -10.9012 C   0  0  0  0  0  0  0  0  0  0  0  0
  -18.4894  -42.7225   -8.4940 C   0  0  1  0  0  0  0  0  0  0  0  0
  -17.0558  -43.1987   -8.7389 C   0  0  0  0  0  0  0  0  0  0  0  0
  -18.5698  -41.7398   -7.4218 C   0  0  0  0  0  0  0  0  0  0  0  0
  -19.5017  -41.9074   -6.5489 O   0  0  0  0  0  0  0  0  0  0  0  0
  -17.7534  -40.6103   -7.2023 N   0  0  0  0  0  0  0  0  0  0  0  0
  1  2  1  0
  2  3  1  0
  2  4  1  0
  4  5  1  0
  5  6  2  0
  6  7  1  0
  7  8  2  0
  8  9  1  0
  9 10  2  0
  7 11  1  0
 11 12  1  0
 11 13  1  0
 11 14  1  0
 14 15  1  0
 15 16  1  0
 16 17  1  6
 16 18  1  0
 18 19  1  1
 19 20  1  0
 20 21  1  1
 20 22  1  0
 22 23  1  0
 23 24  1  0
 24 25  1  0
 25 26  1  0
 26 27  1  0
 27 28  1  0
 28 29  1  0
 29 30  1  0
 30 31  2  0
 30 32  1  0
 32 33  1  0
 32 34  1  0
 34 35  1  6
 34 36  1  0
 36 37  2  0
 36 38  1  0
 10  5  1  0
 38 18  1  0
M  END
$$$$
