
     RDKit          3D

 38 39  0  0  0  0  0  0  0  0999 V2000
  -14.1440  -34.1142  -12.9976 C   0  0  0  0  0  0  0  0  0  0  0  0
  -13.9068  -35.1775  -14.0631 C   0  0  0  0  0  0  0  0  0  0  0  0
  -12.4110  -35.4098  -14.2058 C   0  0  0  0  0  0  0  0  0  0  0  0
  -14.5528  -36.4850  -13.6849 C   0  0  0  0  0  0  0  0  0  0  0  0
  -13.7807  -37.0969  -12.5882 C   0  0  0  0  0  0  0  0  0  0  0  0
  -14.0246  -38.3846  -12.1571 C   0  0  0  0  0  0  0  0  0  0  0  0
  -13.2571  -38.8802  -11.1340 C   0  0  0  0  0  0  0  0  0  0  0  0
  -12.2673  -38.1119  -10.5500 C   0  0  0  0  0  0  0  0  0  0  0  0
  -12.0348  -36.8380  -10.9851 N   0  0  0  0  0  0  0  0  0  0  0  0
  -12.7854  -36.3624  -11.9816 C   0  0  0  0  0  0  0  0  0  0  0  0
  -13.4569  -40.2666  -10.5611 C   0  0  0  0  0  0  0  0  0  0  0  0
  -12.3400  -40.4326   -9.5506 C   0  0  0  0  0  0  0  0  0  0  0  0
  -13.1848  -41.2333  -11.6905 C   0  0  0  0  0  0  0  0  0  0  0  0
  -14.7692  -40.3992  -10.0265 N   0  0  0  0  0  0  0  0  0  0  0  0
  -15.2945  -39.4609   -9.1403 C   0  0  0  0  0  0  0  0  0  0  0  0
  -15.5842  -39.9483   -7.7749 C   0  0  1  0  0  0  0  0  0  0  0  0
  -14.9365  -39.2306   -6.7955 O   0  0  0  0  0  0  0  0  0  0  0  0
  -17.0803  -39.9932   -7.4629 C   0  0  2  0  0  0  0  0  0  0  0  0
  -17.4821  -38.5533   -7.1264 C   0  0  0  0  0  0  0  0  0  0  0  0
  -18.9197  -38.2497   -7.2681 C   0  0  2  0  0  0  0  0  0  0  0  0
  -19.5646  -38.1191   -5.9031 C   0  0  0  0  0  0  0  0  0  0  0  0
  -19.6889  -39.0736   -8.2431 C   0  0  0  0  0  0  0  0  0  0  0  0
  -21.1586  -38.6646   -8.1898 C   0  0  0  0  0  0  0  0  0  0  0  0
  -21.9188  -39.4873   -7.1786 C   0  0  0  0  0  0  0  0  0  0  0  0
  -23.1504  -40.1536   -7.7495 C   0  0  0  0  0  0  0  0  0  0  0  0
  -23.3462  -41.4366   -6.9886 C   0  0  0  0  0  0  0  0  0  0  0  0
  -23.6065  -42.6220   -7.8255 C   0  0  0  0  0  0  0  0  0  0  0  0
  -22.8028  -43.8338   -7.5997 C   0  0  0  0  0  0  0  0  0  0  0  0
  -21.4008  -43.6667   -7.1209 C   0  0  0  0  0  0  0  0  0  0  0  0
  -20.5938  -43.0042   -8.1707 C   0  0  0  0  0  0  0  0  0  0  0  0
  -21.2071  -42.3928   -9.0951 O   0  0  0  0  0  0  0  0  0  0  0  0
  -19.1625  -42.9989   -8.2252 N   0  0  0  0  0  0  0  0  0  0  0  0
  -18.4750  -42.9338   -9.5194 C   0  0  0  0  0  0  0  0  0  0  0  0
  -18.3993  -43.0680   -7.0010 C   0  0  1  0  0  0  0  0  0  0  0  0
  -17.0280  -43.7179   -7.1987 C   0  0  0  0  0  0  0  0  0  0  0  0
  -18.3241  -41.8497   -6.2061 C   0  0  0  0  0  0  0  0  0  0  0  0
  -19.1962  -41.7132   -5.2683 O   0  0  0  0  0  0  0  0  0  0  0  0
  -17.4118  -40.7799   -6.3222 N   0  0  0  0  0  0  0  0  0  0  0  0
  1  2  1  0
  2  3  1  0
  2  4  1  0
  4  5  1  0
  5  6  2  0
  6  7  1  0
  7  8  2  0
  8  9  1  0
  9 10  2  0
  7 11  1  0
 11 12  1  0
 11 13  1  0
 11 14  1  0
 14 15  1  0
 15 16  1  0
 16 17  1  1
 16 18  1  0
 18 19  1  1
 19 20  1  0
 20 21  1  1
 20 22  1  0
 22 23  1  0
 23 24  1  0
 24 25  1  0
 25 26  1  0
 26 27  1  0
 27 28  1  0
 28 29  1  0
 29 30  1  0
 30 31  2  0
 30 32  1  0
 32 33  1  0
 32 34  1  0
 34 35  1  6
 34 36  1  0
 36 37  2  0
 36 38  1  0
 10  5  1  0
 38 18  1  0
M  END
$$$$
