
     RDKit          3D

 38 39  0  0  0  0  0  0  0  0999 V2000
   -9.9404  -37.7324  -15.5232 C   0  0  0  0  0  0  0  0  0  0  0  0
  -11.0167  -36.7523  -15.0725 C   0  0  0  0  0  0  0  0  0  0  0  0
  -10.7250  -35.3865  -15.6734 C   0  0  0  0  0  0  0  0  0  0  0  0
  -12.3826  -37.1886  -15.5350 C   0  0  0  0  0  0  0  0  0  0  0  0
  -12.9633  -38.0871  -14.5207 C   0  0  0  0  0  0  0  0  0  0  0  0
  -13.2346  -37.6573  -13.2380 C   0  0  0  0  0  0  0  0  0  0  0  0
  -13.7798  -38.5560  -12.3568 C   0  0  0  0  0  0  0  0  0  0  0  0
  -14.0494  -39.8561  -12.7414 C   0  0  0  0  0  0  0  0  0  0  0  0
  -13.7766  -40.2705  -14.0142 N   0  0  0  0  0  0  0  0  0  0  0  0
  -13.2465  -39.3902  -14.8668 C   0  0  0  0  0  0  0  0  0  0  0  0
  -14.0894  -38.2034  -10.9180 C   0  0  0  0  0  0  0  0  0  0  0  0
  -14.5331  -36.7552  -10.9612 C   0  0  0  0  0  0  0  0  0  0  0  0
  -12.7709  -38.2447  -10.1802 C   0  0  0  0  0  0  0  0  0  0  0  0
  -15.0499  -39.1056  -10.3806 N   0  0  0  0  0  0  0  0  0  0  0  0
  -16.0952  -38.6626   -9.5725 C   0  0  0  0  0  0  0  0  0  0  0  0
  -16.0804  -39.1383   -8.1727 C   0  0  1  0  0  0  0  0  0  0  0  0
  -15.3869  -38.3047   -7.3254 O   0  0  0  0  0  0  0  0  0  0  0  0
  -17.4815  -39.3791   -7.6101 C   0  0  2  0  0  0  0  0  0  0  0  0
  -18.0586  -37.9910   -7.3132 C   0  0  0  0  0  0  0  0  0  0  0  0
  -19.5310  -37.9239   -7.2311 C   0  0  2  0  0  0  0  0  0  0  0  0
  -19.9684  -37.7612   -5.7895 C   0  0  0  0  0  0  0  0  0  0  0  0
  -20.2954  -38.9453   -8.0015 C   0  0  0  0  0  0  0  0  0  0  0  0
  -21.7861  -38.7606   -7.7297 C   0  0  0  0  0  0  0  0  0  0  0  0
  -22.2332  -39.5873   -6.5491 C   0  0  0  0  0  0  0  0  0  0  0  0
  -23.4113  -40.4846   -6.8552 C   0  0  0  0  0  0  0  0  0  0  0  0
  -23.2715  -41.7027   -5.9836 C   0  0  0  0  0  0  0  0  0  0  0  0
  -23.4592  -42.9893   -6.6786 C   0  0  0  0  0  0  0  0  0  0  0  0
  -22.4410  -44.0377   -6.5068 C   0  0  0  0  0  0  0  0  0  0  0  0
  -21.0287  -43.6145   -6.2847 C   0  0  0  0  0  0  0  0  0  0  0  0
  -20.5155  -42.9421   -7.4999 C   0  0  0  0  0  0  0  0  0  0  0  0
  -21.3576  -42.5229   -8.3483 O   0  0  0  0  0  0  0  0  0  0  0  0
  -19.1310  -42.7252   -7.7956 N   0  0  0  0  0  0  0  0  0  0  0  0
  -18.6733  -42.6821   -9.1887 C   0  0  0  0  0  0  0  0  0  0  0  0
  -18.1860  -42.5590   -6.7161 C   0  0  1  0  0  0  0  0  0  0  0  0
  -16.7737  -43.0096   -7.0962 C   0  0  0  0  0  0  0  0  0  0  0  0
  -18.1906  -41.2723   -6.0334 C   0  0  0  0  0  0  0  0  0  0  0  0
  -18.9166  -41.1795   -4.9737 O   0  0  0  0  0  0  0  0  0  0  0  0
  -17.4970  -40.0928   -6.3772 N   0  0  0  0  0  0  0  0  0  0  0  0
  1  2  1  0
  2  3  1  0
  2  4  1  0
  4  5  1  0
  5  6  2  0
  6  7  1  0
  7  8  2  0
  8  9  1  0
  9 10  2  0
  7 11  1  0
 11 12  1  0
 11 13  1  0
 11 14  1  0
 14 15  1  0
 15 16  1  0
 16 17  1  1
 16 18  1  0
 18 19  1  1
 19 20  1  0
 20 21  1  1
 20 22  1  0
 22 23  1  0
 23 24  1  0
 24 25  1  0
 25 26  1  0
 26 27  1  0
 27 28  1  0
 28 29  1  0
 29 30  1  0
 30 31  2  0
 30 32  1  0
 32 33  1  0
 32 34  1  0
 34 35  1  6
 34 36  1  0
 36 37  2  0
 36 38  1  0
 10  5  1  0
 38 18  1  0
M  END
$$$$
