
     RDKit          3D

 38 39  0  0  0  0  0  0  0  0999 V2000
   -8.9832  -36.2768  -12.7947 C   0  0  0  0  0  0  0  0  0  0  0  0
  -10.1171  -36.1854  -13.8086 C   0  0  0  0  0  0  0  0  0  0  0  0
   -9.6078  -35.4858  -15.0587 C   0  0  0  0  0  0  0  0  0  0  0  0
  -10.6109  -37.5533  -14.2023 C   0  0  0  0  0  0  0  0  0  0  0  0
  -11.2448  -38.1852  -13.0308 C   0  0  0  0  0  0  0  0  0  0  0  0
  -12.5548  -37.9254  -12.6842 C   0  0  0  0  0  0  0  0  0  0  0  0
  -13.0697  -38.5591  -11.5821 C   0  0  0  0  0  0  0  0  0  0  0  0
  -12.2988  -39.4329  -10.8383 C   0  0  0  0  0  0  0  0  0  0  0  0
  -11.0029  -39.6824  -11.1911 N   0  0  0  0  0  0  0  0  0  0  0  0
  -10.5084  -39.0624  -12.2652 C   0  0  0  0  0  0  0  0  0  0  0  0
  -14.4827  -38.3265  -11.0925 C   0  0  0  0  0  0  0  0  0  0  0  0
  -15.1053  -37.4115  -12.1274 C   0  0  0  0  0  0  0  0  0  0  0  0
  -14.3604  -37.5339   -9.8114 C   0  0  0  0  0  0  0  0  0  0  0  0
  -15.1564  -39.5668  -10.9107 N   0  0  0  0  0  0  0  0  0  0  0  0
  -16.1403  -39.7271   -9.9369 C   0  0  0  0  0  0  0  0  0  0  0  0
  -17.5118  -39.3385  -10.3294 C   0  0  1  0  0  0  0  0  0  0  0  0
  -18.0257  -40.1165  -11.3415 O   0  0  0  0  0  0  0  0  0  0  0  0
  -18.4884  -39.3293   -9.1531 C   0  0  2  0  0  0  0  0  0  0  0  0
  -19.1186  -37.9327   -9.1419 C   0  0  0  0  0  0  0  0  0  0  0  0
  -20.4113  -37.8291   -8.4367 C   0  0  2  0  0  0  0  0  0  0  0  0
  -20.2311  -37.1094   -7.1155 C   0  0  0  0  0  0  0  0  0  0  0  0
  -21.2391  -39.0662   -8.3633 C   0  0  0  0  0  0  0  0  0  0  0  0
  -22.4895  -38.7798   -7.5359 C   0  0  0  0  0  0  0  0  0  0  0  0
  -22.2568  -39.0723   -6.0739 C   0  0  0  0  0  0  0  0  0  0  0  0
  -23.2825  -40.0100   -5.4778 C   0  0  0  0  0  0  0  0  0  0  0  0
  -22.5866  -40.7878   -4.3942 C   0  0  0  0  0  0  0  0  0  0  0  0
  -22.8224  -42.2428   -4.4242 C   0  0  0  0  0  0  0  0  0  0  0  0
  -21.6616  -43.1456   -4.3695 C   0  0  0  0  0  0  0  0  0  0  0  0
  -20.3803  -42.6784   -4.9719 C   0  0  0  0  0  0  0  0  0  0  0  0
  -20.5420  -42.5416   -6.4372 C   0  0  0  0  0  0  0  0  0  0  0  0
  -21.7185  -42.4847   -6.9031 O   0  0  0  0  0  0  0  0  0  0  0  0
  -19.4652  -42.4676   -7.3788 N   0  0  0  0  0  0  0  0  0  0  0  0
  -19.6424  -42.9792   -8.7422 C   0  0  0  0  0  0  0  0  0  0  0  0
  -18.2010  -41.8963   -6.9770 C   0  0  1  0  0  0  0  0  0  0  0  0
  -17.0200  -42.4693   -7.7637 C   0  0  0  0  0  0  0  0  0  0  0  0
  -18.1422  -40.4447   -6.8708 C   0  0  0  0  0  0  0  0  0  0  0  0
  -18.3665  -39.9378   -5.7083 O   0  0  0  0  0  0  0  0  0  0  0  0
  -17.8677  -39.5002   -7.8822 N   0  0  0  0  0  0  0  0  0  0  0  0
  1  2  1  0
  2  3  1  0
  2  4  1  0
  4  5  1  0
  5  6  2  0
  6  7  1  0
  7  8  2  0
  8  9  1  0
  9 10  2  0
  7 11  1  0
 11 12  1  0
 11 13  1  0
 11 14  1  0
 14 15  1  0
 15 16  1  0
 16 17  1  6
 16 18  1  0
 18 19  1  1
 19 20  1  0
 20 21  1  1
 20 22  1  0
 22 23  1  0
 23 24  1  0
 24 25  1  0
 25 26  1  0
 26 27  1  0
 27 28  1  0
 28 29  1  0
 29 30  1  0
 30 31  2  0
 30 32  1  0
 32 33  1  0
 32 34  1  0
 34 35  1  6
 34 36  1  0
 36 37  2  0
 36 38  1  0
 10  5  1  0
 38 18  1  0
M  END
$$$$
