
     RDKit          3D

 38 39  0  0  0  0  0  0  0  0999 V2000
  -12.1302  -34.4821  -11.5986 C   0  0  0  0  0  0  0  0  0  0  0  0
  -13.5422  -33.9261  -11.7371 C   0  0  0  0  0  0  0  0  0  0  0  0
  -13.4800  -32.5947  -12.4688 C   0  0  0  0  0  0  0  0  0  0  0  0
  -14.4223  -34.8581  -12.5287 C   0  0  0  0  0  0  0  0  0  0  0  0
  -13.8067  -36.1976  -12.5404 C   0  0  0  0  0  0  0  0  0  0  0  0
  -14.1702  -37.1732  -11.6350 C   0  0  0  0  0  0  0  0  0  0  0  0
  -13.5520  -38.3948  -11.7179 C   0  0  0  0  0  0  0  0  0  0  0  0
  -12.5912  -38.6426  -12.6805 C   0  0  0  0  0  0  0  0  0  0  0  0
  -12.2394  -37.6690  -13.5718 N   0  0  0  0  0  0  0  0  0  0  0  0
  -12.8456  -36.4825  -13.4855 C   0  0  0  0  0  0  0  0  0  0  0  0
  -13.8494  -39.5271  -10.7589 C   0  0  0  0  0  0  0  0  0  0  0  0
  -12.4951  -39.9491  -10.2262 C   0  0  0  0  0  0  0  0  0  0  0  0
  -14.3730  -40.6674  -11.6015 C   0  0  0  0  0  0  0  0  0  0  0  0
  -14.7764  -39.1060   -9.7646 N   0  0  0  0  0  0  0  0  0  0  0  0
  -15.3478  -40.0091   -8.8702 C   0  0  0  0  0  0  0  0  0  0  0  0
  -16.5982  -40.6606   -9.3149 C   0  0  1  0  0  0  0  0  0  0  0  0
  -16.5127  -42.0338   -9.3420 O   0  0  0  0  0  0  0  0  0  0  0  0
  -17.8139  -40.2461   -8.4856 C   0  0  2  0  0  0  0  0  0  0  0  0
  -17.9701  -38.7363   -8.6956 C   0  0  0  0  0  0  0  0  0  0  0  0
  -19.3139  -38.1952   -8.4124 C   0  0  2  0  0  0  0  0  0  0  0  0
  -19.3010  -37.4131   -7.1147 C   0  0  0  0  0  0  0  0  0  0  0  0
  -20.4624  -39.1331   -8.5620 C   0  0  0  0  0  0  0  0  0  0  0  0
  -21.7467  -38.4161   -8.1538 C   0  0  0  0  0  0  0  0  0  0  0  0
  -22.0307  -38.5978   -6.6829 C   0  0  0  0  0  0  0  0  0  0  0  0
  -23.4151  -39.1365   -6.4000 C   0  0  0  0  0  0  0  0  0  0  0  0
  -23.3178  -39.9531   -5.1403 C   0  0  0  0  0  0  0  0  0  0  0  0
  -23.9635  -41.2768   -5.2063 C   0  0  0  0  0  0  0  0  0  0  0  0
  -23.1931  -42.4580   -4.7859 C   0  0  0  0  0  0  0  0  0  0  0  0
  -21.7160  -42.4404   -4.9874 C   0  0  0  0  0  0  0  0  0  0  0  0
  -21.4133  -42.4275   -6.4366 C   0  0  0  0  0  0  0  0  0  0  0  0
  -22.3387  -42.0938   -7.2346 O   0  0  0  0  0  0  0  0  0  0  0  0
  -20.1466  -42.7649   -7.0140 N   0  0  0  0  0  0  0  0  0  0  0  0
  -20.0823  -43.3541   -8.3558 C   0  0  0  0  0  0  0  0  0  0  0  0
  -18.9338  -42.5315   -6.2652 C   0  0  1  0  0  0  0  0  0  0  0  0
  -17.8107  -43.4976   -6.6488 C   0  0  0  0  0  0  0  0  0  0  0  0
  -18.4717  -41.1528   -6.1795 C   0  0  0  0  0  0  0  0  0  0  0  0
  -18.8475  -40.4772   -5.1494 O   0  0  0  0  0  0  0  0  0  0  0  0
  -17.6542  -40.4424   -7.0835 N   0  0  0  0  0  0  0  0  0  0  0  0
  1  2  1  0
  2  3  1  0
  2  4  1  0
  4  5  1  0
  5  6  2  0
  6  7  1  0
  7  8  2  0
  8  9  1  0
  9 10  2  0
  7 11  1  0
 11 12  1  0
 11 13  1  0
 11 14  1  0
 14 15  1  0
 15 16  1  0
 16 17  1  1
 16 18  1  0
 18 19  1  1
 19 20  1  0
 20 21  1  1
 20 22  1  0
 22 23  1  0
 23 24  1  0
 24 25  1  0
 25 26  1  0
 26 27  1  0
 27 28  1  0
 28 29  1  0
 29 30  1  0
 30 31  2  0
 30 32  1  0
 32 33  1  0
 32 34  1  0
 34 35  1  6
 34 36  1  0
 36 37  2  0
 36 38  1  0
 10  5  1  0
 38 18  1  0
M  END
$$$$
