
     RDKit          3D

 38 39  0  0  0  0  0  0  0  0999 V2000
   -9.1836  -35.5171  -14.6833 C   0  0  0  0  0  0  0  0  0  0  0  0
  -10.4897  -35.7393  -13.9305 C   0  0  0  0  0  0  0  0  0  0  0  0
  -11.5634  -34.8435  -14.5276 C   0  0  0  0  0  0  0  0  0  0  0  0
  -10.9512  -37.1689  -14.0455 C   0  0  0  0  0  0  0  0  0  0  0  0
  -12.2097  -37.3240  -13.2934 C   0  0  0  0  0  0  0  0  0  0  0  0
  -12.2427  -37.9058  -12.0428 C   0  0  0  0  0  0  0  0  0  0  0  0
  -13.4548  -38.0071  -11.4087 C   0  0  0  0  0  0  0  0  0  0  0  0
  -14.6114  -37.5405  -12.0050 C   0  0  0  0  0  0  0  0  0  0  0  0
  -14.5665  -36.9662  -13.2436 N   0  0  0  0  0  0  0  0  0  0  0  0
  -13.3832  -36.8705  -13.8548 C   0  0  0  0  0  0  0  0  0  0  0  0
  -13.6137  -38.6539  -10.0497 C   0  0  0  0  0  0  0  0  0  0  0  0
  -12.9327  -37.7029   -9.0864 C   0  0  0  0  0  0  0  0  0  0  0  0
  -12.7888  -39.9198  -10.0857 C   0  0  0  0  0  0  0  0  0  0  0  0
  -14.9880  -38.8995   -9.7736 N   0  0  0  0  0  0  0  0  0  0  0  0
  -15.4133  -40.0909   -9.1890 C   0  0  0  0  0  0  0  0  0  0  0  0
  -16.7003  -40.6306   -9.6772 C   0  0  1  0  0  0  0  0  0  0  0  0
  -16.6553  -41.9803   -9.9416 O   0  0  0  0  0  0  0  0  0  0  0  0
  -17.8659  -40.3392   -8.7317 C   0  0  2  0  0  0  0  0  0  0  0  0
  -18.1231  -38.8322   -8.8347 C   0  0  0  0  0  0  0  0  0  0  0  0
  -19.4677  -38.3911   -8.4148 C   0  0  2  0  0  0  0  0  0  0  0  0
  -19.3933  -37.6855   -7.0759 C   0  0  0  0  0  0  0  0  0  0  0  0
  -20.5701  -39.3869   -8.5326 C   0  0  0  0  0  0  0  0  0  0  0  0
  -21.8552  -38.7741   -7.9821 C   0  0  0  0  0  0  0  0  0  0  0  0
  -22.0081  -39.0570   -6.5077 C   0  0  0  0  0  0  0  0  0  0  0  0
  -23.3325  -39.6944   -6.1520 C   0  0  0  0  0  0  0  0  0  0  0  0
  -23.0875  -40.5746   -4.9569 C   0  0  0  0  0  0  0  0  0  0  0  0
  -23.6612  -41.9292   -5.0546 C   0  0  0  0  0  0  0  0  0  0  0  0
  -22.7941  -43.0834   -4.7696 C   0  0  0  0  0  0  0  0  0  0  0  0
  -21.3415  -42.9644   -5.0838 C   0  0  0  0  0  0  0  0  0  0  0  0
  -21.1588  -42.8499   -6.5486 C   0  0  0  0  0  0  0  0  0  0  0  0
  -22.1633  -42.5278   -7.2500 O   0  0  0  0  0  0  0  0  0  0  0  0
  -19.9263  -43.0757   -7.2425 N   0  0  0  0  0  0  0  0  0  0  0  0
  -19.9382  -43.5819   -8.6193 C   0  0  0  0  0  0  0  0  0  0  0  0
  -18.6717  -42.8124   -6.5773 C   0  0  1  0  0  0  0  0  0  0  0  0
  -17.5310  -43.6847   -7.1064 C   0  0  0  0  0  0  0  0  0  0  0  0
  -18.2822  -41.4153   -6.4422 C   0  0  0  0  0  0  0  0  0  0  0  0
  -18.6103  -40.8242   -5.3461 O   0  0  0  0  0  0  0  0  0  0  0  0
  -17.5820  -40.6057   -7.3612 N   0  0  0  0  0  0  0  0  0  0  0  0
  1  2  1  0
  2  3  1  0
  2  4  1  0
  4  5  1  0
  5  6  2  0
  6  7  1  0
  7  8  2  0
  8  9  1  0
  9 10  2  0
  7 11  1  0
 11 12  1  0
 11 13  1  0
 11 14  1  0
 14 15  1  0
 15 16  1  0
 16 17  1  1
 16 18  1  0
 18 19  1  1
 19 20  1  0
 20 21  1  1
 20 22  1  0
 22 23  1  0
 23 24  1  0
 24 25  1  0
 25 26  1  0
 26 27  1  0
 27 28  1  0
 28 29  1  0
 29 30  1  0
 30 31  2  0
 30 32  1  0
 32 33  1  0
 32 34  1  0
 34 35  1  6
 34 36  1  0
 36 37  2  0
 36 38  1  0
 10  5  1  0
 38 18  1  0
M  END
$$$$
