
     RDKit          3D

 38 39  0  0  0  0  0  0  0  0999 V2000
  -10.8219  -35.9482  -15.4571 C   0  0  0  0  0  0  0  0  0  0  0  0
  -11.1456  -37.0006  -14.4037 C   0  0  0  0  0  0  0  0  0  0  0  0
  -10.5944  -36.5438  -13.0623 C   0  0  0  0  0  0  0  0  0  0  0  0
  -12.6331  -37.1928  -14.2611 C   0  0  0  0  0  0  0  0  0  0  0  0
  -12.8877  -38.5321  -13.7001 C   0  0  0  0  0  0  0  0  0  0  0  0
  -12.9591  -38.7493  -12.3394 C   0  0  0  0  0  0  0  0  0  0  0  0
  -13.2047  -40.0254  -11.9004 C   0  0  0  0  0  0  0  0  0  0  0  0
  -13.3751  -41.0655  -12.7950 C   0  0  0  0  0  0  0  0  0  0  0  0
  -13.3023  -40.8385  -14.1400 N   0  0  0  0  0  0  0  0  0  0  0  0
  -13.0634  -39.5939  -14.5602 C   0  0  0  0  0  0  0  0  0  0  0  0
  -13.2735  -40.3845  -10.4319 C   0  0  0  0  0  0  0  0  0  0  0  0
  -12.9357  -39.0997   -9.7030 C   0  0  0  0  0  0  0  0  0  0  0  0
  -12.1398  -41.3520  -10.1804 C   0  0  0  0  0  0  0  0  0  0  0  0
  -14.5472  -40.9336  -10.1135 N   0  0  0  0  0  0  0  0  0  0  0  0
  -15.6333  -40.1208   -9.7948 C   0  0  0  0  0  0  0  0  0  0  0  0
  -15.6947  -39.6365   -8.3993 C   0  0  1  0  0  0  0  0  0  0  0  0
  -15.2149  -38.3554   -8.2497 O   0  0  0  0  0  0  0  0  0  0  0  0
  -17.0981  -39.7240   -7.7990 C   0  0  2  0  0  0  0  0  0  0  0  0
  -17.4368  -38.3098   -7.3161 C   0  0  0  0  0  0  0  0  0  0  0  0
  -18.8763  -38.0261   -7.1536 C   0  0  2  0  0  0  0  0  0  0  0  0
  -19.2372  -37.9739   -5.6829 C   0  0  0  0  0  0  0  0  0  0  0  0
  -19.8174  -38.8156   -7.9974 C   0  0  0  0  0  0  0  0  0  0  0  0
  -21.2504  -38.4368   -7.6323 C   0  0  0  0  0  0  0  0  0  0  0  0
  -21.7870  -39.3215   -6.5338 C   0  0  0  0  0  0  0  0  0  0  0  0
  -23.1021  -39.9818   -6.8821 C   0  0  0  0  0  0  0  0  0  0  0  0
  -23.1316  -41.3035   -6.1643 C   0  0  0  0  0  0  0  0  0  0  0  0
  -23.5436  -42.4515   -6.9925 C   0  0  0  0  0  0  0  0  0  0  0  0
  -22.7009  -43.6579   -6.9933 C   0  0  0  0  0  0  0  0  0  0  0  0
  -21.2330  -43.4885   -6.7945 C   0  0  0  0  0  0  0  0  0  0  0  0
  -20.6570  -42.7611   -7.9483 C   0  0  0  0  0  0  0  0  0  0  0  0
  -21.4473  -42.1169   -8.6999 O   0  0  0  0  0  0  0  0  0  0  0  0
  -19.2654  -42.7269   -8.2857 N   0  0  0  0  0  0  0  0  0  0  0  0
  -18.8502  -42.5864   -9.6856 C   0  0  0  0  0  0  0  0  0  0  0  0
  -18.2730  -42.8413   -7.2427 C   0  0  1  0  0  0  0  0  0  0  0  0
  -16.9633  -43.4556   -7.7419 C   0  0  0  0  0  0  0  0  0  0  0  0
  -18.0510  -41.6619   -6.4172 C   0  0  0  0  0  0  0  0  0  0  0  0
  -18.7198  -41.5872   -5.3190 O   0  0  0  0  0  0  0  0  0  0  0  0
  -17.1891  -40.5711   -6.6571 N   0  0  0  0  0  0  0  0  0  0  0  0
  1  2  1  0
  2  3  1  0
  2  4  1  0
  4  5  1  0
  5  6  2  0
  6  7  1  0
  7  8  2  0
  8  9  1  0
  9 10  2  0
  7 11  1  0
 11 12  1  0
 11 13  1  0
 11 14  1  0
 14 15  1  0
 15 16  1  0
 16 17  1  6
 16 18  1  0
 18 19  1  1
 19 20  1  0
 20 21  1  1
 20 22  1  0
 22 23  1  0
 23 24  1  0
 24 25  1  0
 25 26  1  0
 26 27  1  0
 27 28  1  0
 28 29  1  0
 29 30  1  0
 30 31  2  0
 30 32  1  0
 32 33  1  0
 32 34  1  0
 34 35  1  6
 34 36  1  0
 36 37  2  0
 36 38  1  0
 10  5  1  0
 38 18  1  0
M  END
$$$$
