
     RDKit          3D

 38 39  0  0  0  0  0  0  0  0999 V2000
   -6.9257  -37.4524  -13.1782 C   0  0  0  0  0  0  0  0  0  0  0  0
   -8.3167  -37.0808  -12.6792 C   0  0  0  0  0  0  0  0  0  0  0  0
   -8.5733  -35.6122  -12.9775 C   0  0  0  0  0  0  0  0  0  0  0  0
   -9.3809  -37.8946  -13.3685 C   0  0  0  0  0  0  0  0  0  0  0  0
  -10.6883  -37.5740  -12.7674 C   0  0  0  0  0  0  0  0  0  0  0  0
  -11.2908  -38.4087  -11.8487 C   0  0  0  0  0  0  0  0  0  0  0  0
  -12.5055  -38.0337  -11.3337 C   0  0  0  0  0  0  0  0  0  0  0  0
  -13.1104  -36.8535  -11.7238 C   0  0  0  0  0  0  0  0  0  0  0  0
  -12.5044  -36.0349  -12.6342 N   0  0  0  0  0  0  0  0  0  0  0  0
  -11.3220  -36.4060  -13.1310 C   0  0  0  0  0  0  0  0  0  0  0  0
  -13.2707  -38.8853  -10.3440 C   0  0  0  0  0  0  0  0  0  0  0  0
  -12.3446  -39.0203   -9.1523 C   0  0  0  0  0  0  0  0  0  0  0  0
  -13.3933  -40.2547  -10.9717 C   0  0  0  0  0  0  0  0  0  0  0  0
  -14.5337  -38.2971  -10.0541 N   0  0  0  0  0  0  0  0  0  0  0  0
  -15.6360  -39.0728   -9.7002 C   0  0  0  0  0  0  0  0  0  0  0  0
  -16.9599  -38.4388   -9.8773 C   0  0  1  0  0  0  0  0  0  0  0  0
  -17.4867  -38.6285  -11.1344 O   0  0  0  0  0  0  0  0  0  0  0  0
  -17.9796  -38.8854   -8.8292 C   0  0  2  0  0  0  0  0  0  0  0  0
  -18.6750  -37.6072   -8.3493 C   0  0  0  0  0  0  0  0  0  0  0  0
  -19.9968  -37.8049   -7.7226 C   0  0  2  0  0  0  0  0  0  0  0  0
  -19.9008  -37.6066   -6.2234 C   0  0  0  0  0  0  0  0  0  0  0  0
  -20.7675  -39.0094   -8.1425 C   0  0  0  0  0  0  0  0  0  0  0  0
  -22.0604  -39.0797   -7.3341 C   0  0  0  0  0  0  0  0  0  0  0  0
  -21.8695  -39.8739   -6.0652 C   0  0  0  0  0  0  0  0  0  0  0  0
  -22.8715  -40.9945   -5.9009 C   0  0  0  0  0  0  0  0  0  0  0  0
  -22.1811  -42.0898   -5.1350 C   0  0  0  0  0  0  0  0  0  0  0  0
  -22.3466  -43.4420   -5.6987 C   0  0  0  0  0  0  0  0  0  0  0  0
  -21.1475  -44.2678   -5.9120 C   0  0  0  0  0  0  0  0  0  0  0  0
  -19.8678  -43.5756   -6.2380 C   0  0  0  0  0  0  0  0  0  0  0  0
  -19.9803  -42.9232   -7.5624 C   0  0  0  0  0  0  0  0  0  0  0  0
  -21.1398  -42.7375   -8.0373 O   0  0  0  0  0  0  0  0  0  0  0  0
  -18.8734  -42.4811   -8.3566 N   0  0  0  0  0  0  0  0  0  0  0  0
  -18.9747  -42.4701   -9.8200 C   0  0  0  0  0  0  0  0  0  0  0  0
  -17.6537  -42.0555   -7.7107 C   0  0  1  0  0  0  0  0  0  0  0  0
  -16.4181  -42.2691   -8.5880 C   0  0  0  0  0  0  0  0  0  0  0  0
  -17.6675  -40.7395   -7.0864 C   0  0  0  0  0  0  0  0  0  0  0  0
  -17.9592  -40.6943   -5.8328 O   0  0  0  0  0  0  0  0  0  0  0  0
  -17.3999  -39.4854   -7.6744 N   0  0  0  0  0  0  0  0  0  0  0  0
  1  2  1  0
  2  3  1  0
  2  4  1  0
  4  5  1  0
  5  6  2  0
  6  7  1  0
  7  8  2  0
  8  9  1  0
  9 10  2  0
  7 11  1  0
 11 12  1  0
 11 13  1  0
 11 14  1  0
 14 15  1  0
 15 16  1  0
 16 17  1  6
 16 18  1  0
 18 19  1  1
 19 20  1  0
 20 21  1  1
 20 22  1  0
 22 23  1  0
 23 24  1  0
 24 25  1  0
 25 26  1  0
 26 27  1  0
 27 28  1  0
 28 29  1  0
 29 30  1  0
 30 31  2  0
 30 32  1  0
 32 33  1  0
 32 34  1  0
 34 35  1  6
 34 36  1  0
 36 37  2  0
 36 38  1  0
 10  5  1  0
 38 18  1  0
M  END
$$$$
