
     RDKit          3D

 38 39  0  0  0  0  0  0  0  0999 V2000
   -9.9728  -37.7657  -16.4000 C   0  0  0  0  0  0  0  0  0  0  0  0
  -10.4742  -37.5087  -14.9841 C   0  0  0  0  0  0  0  0  0  0  0  0
   -9.7168  -36.3279  -14.3978 C   0  0  0  0  0  0  0  0  0  0  0  0
  -11.9438  -37.1770  -14.9758 C   0  0  0  0  0  0  0  0  0  0  0  0
  -12.4122  -37.1287  -13.5788 C   0  0  0  0  0  0  0  0  0  0  0  0
  -12.7927  -38.2676  -12.8993 C   0  0  0  0  0  0  0  0  0  0  0  0
  -13.2114  -38.1357  -11.5998 C   0  0  0  0  0  0  0  0  0  0  0  0
  -13.2523  -36.8971  -10.9873 C   0  0  0  0  0  0  0  0  0  0  0  0
  -12.8731  -35.7762  -11.6700 N   0  0  0  0  0  0  0  0  0  0  0  0
  -12.4662  -35.9122  -12.9343 C   0  0  0  0  0  0  0  0  0  0  0  0
  -13.6802  -39.3111  -10.7698 C   0  0  0  0  0  0  0  0  0  0  0  0
  -12.4205  -40.0953  -10.4631 C   0  0  0  0  0  0  0  0  0  0  0  0
  -14.5257  -40.1649  -11.6867 C   0  0  0  0  0  0  0  0  0  0  0  0
  -14.3942  -38.8581   -9.6251 N   0  0  0  0  0  0  0  0  0  0  0  0
  -15.2230  -39.7101   -8.8976 C   0  0  0  0  0  0  0  0  0  0  0  0
  -15.9040  -39.1123   -7.7294 C   0  0  1  0  0  0  0  0  0  0  0  0
  -16.0544  -37.7482   -7.8305 O   0  0  0  0  0  0  0  0  0  0  0  0
  -17.2629  -39.7507   -7.4404 C   0  0  2  0  0  0  0  0  0  0  0  0
  -18.0399  -38.7250   -6.6086 C   0  0  0  0  0  0  0  0  0  0  0  0
  -19.5073  -38.8848   -6.6195 C   0  0  2  0  0  0  0  0  0  0  0  0
  -19.9838  -39.4388   -5.2920 C   0  0  0  0  0  0  0  0  0  0  0  0
  -20.1042  -39.5405   -7.8173 C   0  0  0  0  0  0  0  0  0  0  0  0
  -21.6095  -39.6831   -7.6083 C   0  0  0  0  0  0  0  0  0  0  0  0
  -21.9481  -40.9984   -6.9505 C   0  0  0  0  0  0  0  0  0  0  0  0
  -22.9787  -41.8029   -7.7104 C   0  0  0  0  0  0  0  0  0  0  0  0
  -22.6753  -43.2542   -7.4559 C   0  0  0  0  0  0  0  0  0  0  0  0
  -22.6641  -44.1070   -8.6585 C   0  0  0  0  0  0  0  0  0  0  0  0
  -21.5067  -44.9864   -8.8874 C   0  0  0  0  0  0  0  0  0  0  0  0
  -20.1742  -44.5355   -8.3932 C   0  0  0  0  0  0  0  0  0  0  0  0
  -19.7475  -43.3333   -9.1446 C   0  0  0  0  0  0  0  0  0  0  0  0
  -20.6296  -42.6874   -9.7843 O   0  0  0  0  0  0  0  0  0  0  0  0
  -18.4052  -42.8373   -9.2066 N   0  0  0  0  0  0  0  0  0  0  0  0
  -17.9393  -42.1202  -10.3985 C   0  0  0  0  0  0  0  0  0  0  0  0
  -17.5096  -43.0550   -8.0947 C   0  0  1  0  0  0  0  0  0  0  0  0
  -16.0416  -43.1094   -8.5238 C   0  0  0  0  0  0  0  0  0  0  0  0
  -17.7109  -42.2204   -6.9180 C   0  0  0  0  0  0  0  0  0  0  0  0
  -18.4574  -42.7016   -5.9854 O   0  0  0  0  0  0  0  0  0  0  0  0
  -17.1916  -40.9358   -6.6528 N   0  0  0  0  0  0  0  0  0  0  0  0
  1  2  1  0
  2  3  1  0
  2  4  1  0
  4  5  1  0
  5  6  2  0
  6  7  1  0
  7  8  2  0
  8  9  1  0
  9 10  2  0
  7 11  1  0
 11 12  1  0
 11 13  1  0
 11 14  1  0
 14 15  1  0
 15 16  1  0
 16 17  1  6
 16 18  1  0
 18 19  1  1
 19 20  1  0
 20 21  1  1
 20 22  1  0
 22 23  1  0
 23 24  1  0
 24 25  1  0
 25 26  1  0
 26 27  1  0
 27 28  1  0
 28 29  1  0
 29 30  1  0
 30 31  2  0
 30 32  1  0
 32 33  1  0
 32 34  1  0
 34 35  1  6
 34 36  1  0
 36 37  2  0
 36 38  1  0
 10  5  1  0
 38 18  1  0
M  END
$$$$
