
     RDKit          3D

 38 39  0  0  0  0  0  0  0  0999 V2000
  -12.2900  -35.0624  -13.2690 C   0  0  0  0  0  0  0  0  0  0  0  0
  -13.0316  -36.3653  -12.9959 C   0  0  0  0  0  0  0  0  0  0  0  0
  -14.4107  -36.2922  -13.6321 C   0  0  0  0  0  0  0  0  0  0  0  0
  -12.3024  -37.5442  -13.5861 C   0  0  0  0  0  0  0  0  0  0  0  0
  -12.8109  -38.7789  -12.9615 C   0  0  0  0  0  0  0  0  0  0  0  0
  -12.7322  -38.9913  -11.6004 C   0  0  0  0  0  0  0  0  0  0  0  0
  -13.2339  -40.1654  -11.0993 C   0  0  0  0  0  0  0  0  0  0  0  0
  -13.8018  -41.1104  -11.9333 C   0  0  0  0  0  0  0  0  0  0  0  0
  -13.8743  -40.8891  -13.2793 N   0  0  0  0  0  0  0  0  0  0  0  0
  -13.3844  -39.7439  -13.7601 C   0  0  0  0  0  0  0  0  0  0  0  0
  -13.1736  -40.5172   -9.6286 C   0  0  0  0  0  0  0  0  0  0  0  0
  -12.2135  -39.5100   -9.0287 C   0  0  0  0  0  0  0  0  0  0  0  0
  -12.5089  -41.8721   -9.5456 C   0  0  0  0  0  0  0  0  0  0  0  0
  -14.4787  -40.5081   -9.0612 N   0  0  0  0  0  0  0  0  0  0  0  0
  -15.4811  -39.6724   -9.5498 C   0  0  0  0  0  0  0  0  0  0  0  0
  -16.0992  -38.7566   -8.5675 C   0  0  1  0  0  0  0  0  0  0  0  0
  -16.5051  -37.5638   -9.1208 O   0  0  0  0  0  0  0  0  0  0  0  0
  -17.2707  -39.3902   -7.8167 C   0  0  2  0  0  0  0  0  0  0  0  0
  -17.7462  -38.3344   -6.8132 C   0  0  0  0  0  0  0  0  0  0  0  0
  -19.1297  -38.5035   -6.3270 C   0  0  2  0  0  0  0  0  0  0  0  0
  -19.1249  -39.0028   -4.8964 C   0  0  0  0  0  0  0  0  0  0  0  0
  -20.0786  -39.2138   -7.2304 C   0  0  0  0  0  0  0  0  0  0  0  0
  -21.4248  -39.3564   -6.5251 C   0  0  0  0  0  0  0  0  0  0  0  0
  -21.4981  -40.6443   -5.7419 C   0  0  0  0  0  0  0  0  0  0  0  0
  -22.7067  -41.4870   -6.0822 C   0  0  0  0  0  0  0  0  0  0  0  0
  -22.3067  -42.9241   -5.8880 C   0  0  0  0  0  0  0  0  0  0  0  0
  -22.6800  -43.8278   -6.9914 C   0  0  0  0  0  0  0  0  0  0  0  0
  -21.6478  -44.7092   -7.5598 C   0  0  0  0  0  0  0  0  0  0  0  0
  -20.2362  -44.2293   -7.5569 C   0  0  0  0  0  0  0  0  0  0  0  0
  -20.1088  -43.0579   -8.4535 C   0  0  0  0  0  0  0  0  0  0  0  0
  -21.1666  -42.4456   -8.7860 O   0  0  0  0  0  0  0  0  0  0  0  0
  -18.8743  -42.5569   -8.9795 N   0  0  0  0  0  0  0  0  0  0  0  0
  -18.8472  -41.8889  -10.2852 C   0  0  0  0  0  0  0  0  0  0  0  0
  -17.6549  -42.7211   -8.2231 C   0  0  1  0  0  0  0  0  0  0  0  0
  -16.4134  -42.7849   -9.1156 C   0  0  0  0  0  0  0  0  0  0  0  0
  -17.4690  -41.8378   -7.0799 C   0  0  0  0  0  0  0  0  0  0  0  0
  -17.8518  -42.2830   -5.9336 O   0  0  0  0  0  0  0  0  0  0  0  0
  -16.9169  -40.5398   -7.0531 N   0  0  0  0  0  0  0  0  0  0  0  0
  1  2  1  0
  2  3  1  0
  2  4  1  0
  4  5  1  0
  5  6  2  0
  6  7  1  0
  7  8  2  0
  8  9  1  0
  9 10  2  0
  7 11  1  0
 11 12  1  0
 11 13  1  0
 11 14  1  0
 14 15  1  0
 15 16  1  0
 16 17  1  6
 16 18  1  0
 18 19  1  1
 19 20  1  0
 20 21  1  1
 20 22  1  0
 22 23  1  0
 23 24  1  0
 24 25  1  0
 25 26  1  0
 26 27  1  0
 27 28  1  0
 28 29  1  0
 29 30  1  0
 30 31  2  0
 30 32  1  0
 32 33  1  0
 32 34  1  0
 34 35  1  6
 34 36  1  0
 36 37  2  0
 36 38  1  0
 10  5  1  0
 38 18  1  0
M  END
$$$$
