
     RDKit          3D

 38 39  0  0  0  0  0  0  0  0999 V2000
  -11.7624  -40.0714  -15.4156 C   0  0  0  0  0  0  0  0  0  0  0  0
  -12.0308  -38.9419  -16.4027 C   0  0  0  0  0  0  0  0  0  0  0  0
  -12.4150  -39.5402  -17.7466 C   0  0  0  0  0  0  0  0  0  0  0  0
  -13.1637  -38.0650  -15.9361 C   0  0  0  0  0  0  0  0  0  0  0  0
  -12.7406  -37.3496  -14.7185 C   0  0  0  0  0  0  0  0  0  0  0  0
  -13.1351  -37.7577  -13.4609 C   0  0  0  0  0  0  0  0  0  0  0  0
  -12.6925  -37.0391  -12.3796 C   0  0  0  0  0  0  0  0  0  0  0  0
  -11.8750  -35.9365  -12.5439 C   0  0  0  0  0  0  0  0  0  0  0  0
  -11.4908  -35.5418  -13.7940 N   0  0  0  0  0  0  0  0  0  0  0  0
  -11.9250  -36.2462  -14.8419 C   0  0  0  0  0  0  0  0  0  0  0  0
  -13.0866  -37.3771  -10.9581 C   0  0  0  0  0  0  0  0  0  0  0  0
  -13.4291  -36.0441  -10.3240 C   0  0  0  0  0  0  0  0  0  0  0  0
  -11.8336  -37.8845  -10.2820 C   0  0  0  0  0  0  0  0  0  0  0  0
  -14.1427  -38.3310  -10.9483 N   0  0  0  0  0  0  0  0  0  0  0  0
  -14.9230  -38.5442   -9.8136 C   0  0  0  0  0  0  0  0  0  0  0  0
  -15.6427  -39.8342   -9.7534 C   0  0  1  0  0  0  0  0  0  0  0  0
  -14.8940  -40.8459   -9.1969 O   0  0  0  0  0  0  0  0  0  0  0  0
  -16.9823  -39.7360   -9.0229 C   0  0  2  0  0  0  0  0  0  0  0  0
  -17.2859  -38.2389   -8.9029 C   0  0  0  0  0  0  0  0  0  0  0  0
  -18.7059  -37.8982   -8.6875 C   0  0  2  0  0  0  0  0  0  0  0  0
  -18.9264  -37.4523   -7.2562 C   0  0  0  0  0  0  0  0  0  0  0  0
  -19.7159  -38.8670   -9.1996 C   0  0  0  0  0  0  0  0  0  0  0  0
  -21.1111  -38.3810   -8.8157 C   0  0  0  0  0  0  0  0  0  0  0  0
  -21.5335  -38.9340   -7.4766 C   0  0  0  0  0  0  0  0  0  0  0  0
  -22.8699  -39.6408   -7.5127 C   0  0  0  0  0  0  0  0  0  0  0  0
  -22.8198  -40.7246   -6.4705 C   0  0  0  0  0  0  0  0  0  0  0  0
  -23.2985  -42.0438   -6.9222 C   0  0  0  0  0  0  0  0  0  0  0  0
  -22.4493  -43.2213   -6.6818 C   0  0  0  0  0  0  0  0  0  0  0  0
  -20.9707  -43.0301   -6.6734 C   0  0  0  0  0  0  0  0  0  0  0  0
  -20.5129  -42.6440   -8.0275 C   0  0  0  0  0  0  0  0  0  0  0  0
  -21.3763  -42.2086   -8.8457 O   0  0  0  0  0  0  0  0  0  0  0  0
  -19.1598  -42.7237   -8.4906 N   0  0  0  0  0  0  0  0  0  0  0  0
  -18.8803  -42.9660   -9.9101 C   0  0  0  0  0  0  0  0  0  0  0  0
  -18.0721  -42.5744   -7.5522 C   0  0  1  0  0  0  0  0  0  0  0  0
  -16.8103  -43.3209   -7.9909 C   0  0  0  0  0  0  0  0  0  0  0  0
  -17.7832  -41.2224   -7.0936 C   0  0  0  0  0  0  0  0  0  0  0  0
  -18.3455  -40.8484   -5.9970 O   0  0  0  0  0  0  0  0  0  0  0  0
  -16.9573  -40.2488   -7.6939 N   0  0  0  0  0  0  0  0  0  0  0  0
  1  2  1  0
  2  3  1  0
  2  4  1  0
  4  5  1  0
  5  6  2  0
  6  7  1  0
  7  8  2  0
  8  9  1  0
  9 10  2  0
  7 11  1  0
 11 12  1  0
 11 13  1  0
 11 14  1  0
 14 15  1  0
 15 16  1  0
 16 17  1  1
 16 18  1  0
 18 19  1  1
 19 20  1  0
 20 21  1  1
 20 22  1  0
 22 23  1  0
 23 24  1  0
 24 25  1  0
 25 26  1  0
 26 27  1  0
 27 28  1  0
 28 29  1  0
 29 30  1  0
 30 31  2  0
 30 32  1  0
 32 33  1  0
 32 34  1  0
 34 35  1  6
 34 36  1  0
 36 37  2  0
 36 38  1  0
 10  5  1  0
 38 18  1  0
M  END
$$$$
