
     RDKit          3D

 38 39  0  0  0  0  0  0  0  0999 V2000
  -12.1044  -34.1046  -14.3057 C   0  0  0  0  0  0  0  0  0  0  0  0
  -13.2252  -34.7783  -15.0880 C   0  0  0  0  0  0  0  0  0  0  0  0
  -12.6232  -35.8225  -16.0148 C   0  0  0  0  0  0  0  0  0  0  0  0
  -14.1965  -35.4698  -14.1669 C   0  0  0  0  0  0  0  0  0  0  0  0
  -13.5604  -36.6879  -13.6331 C   0  0  0  0  0  0  0  0  0  0  0  0
  -13.7203  -37.0757  -12.3186 C   0  0  0  0  0  0  0  0  0  0  0  0
  -13.0981  -38.2256  -11.9036 C   0  0  0  0  0  0  0  0  0  0  0  0
  -12.3316  -38.9750  -12.7764 C   0  0  0  0  0  0  0  0  0  0  0  0
  -12.1804  -38.5812  -14.0757 N   0  0  0  0  0  0  0  0  0  0  0  0
  -12.7892  -37.4613  -14.4729 C   0  0  0  0  0  0  0  0  0  0  0  0
  -13.1790  -38.7289  -10.4787 C   0  0  0  0  0  0  0  0  0  0  0  0
  -12.0997  -37.9666   -9.7370 C   0  0  0  0  0  0  0  0  0  0  0  0
  -12.7543  -40.1789  -10.5186 C   0  0  0  0  0  0  0  0  0  0  0  0
  -14.4939  -38.5540   -9.9635 N   0  0  0  0  0  0  0  0  0  0  0  0
  -14.7795  -38.7421   -8.6125 C   0  0  0  0  0  0  0  0  0  0  0  0
  -15.2526  -40.0896   -8.2303 C   0  0  1  0  0  0  0  0  0  0  0  0
  -14.6000  -40.6007   -7.1318 O   0  0  0  0  0  0  0  0  0  0  0  0
  -16.7620  -40.1464   -7.9933 C   0  0  2  0  0  0  0  0  0  0  0  0
  -17.2239  -38.6899   -7.8795 C   0  0  0  0  0  0  0  0  0  0  0  0
  -18.6595  -38.4611   -8.1361 C   0  0  2  0  0  0  0  0  0  0  0  0
  -19.3840  -38.1702   -6.8374 C   0  0  0  0  0  0  0  0  0  0  0  0
  -19.3480  -39.4372   -9.0272 C   0  0  0  0  0  0  0  0  0  0  0  0
  -20.8296  -39.0789   -9.1072 C   0  0  0  0  0  0  0  0  0  0  0  0
  -21.6215  -39.7840   -8.0334 C   0  0  0  0  0  0  0  0  0  0  0  0
  -22.7990  -40.5662   -8.5705 C   0  0  0  0  0  0  0  0  0  0  0  0
  -23.0000  -41.7403   -7.6517 C   0  0  0  0  0  0  0  0  0  0  0  0
  -23.1780  -43.0371   -8.3300 C   0  0  0  0  0  0  0  0  0  0  0  0
  -22.3534  -44.1768   -7.8982 C   0  0  0  0  0  0  0  0  0  0  0  0
  -20.9861  -43.8951   -7.3746 C   0  0  0  0  0  0  0  0  0  0  0  0
  -20.1407  -43.3522   -8.4622 C   0  0  0  0  0  0  0  0  0  0  0  0
  -20.7183  -42.8947   -9.4925 O   0  0  0  0  0  0  0  0  0  0  0  0
  -18.7094  -43.3020   -8.4424 N   0  0  0  0  0  0  0  0  0  0  0  0
  -17.9520  -43.3880   -9.6957 C   0  0  0  0  0  0  0  0  0  0  0  0
  -18.0149  -43.1762   -7.1823 C   0  0  1  0  0  0  0  0  0  0  0  0
  -16.6163  -43.7964   -7.2171 C   0  0  0  0  0  0  0  0  0  0  0  0
  -18.0203  -41.8594   -6.5597 C   0  0  0  0  0  0  0  0  0  0  0  0
  -18.9475  -41.6290   -5.6961 O   0  0  0  0  0  0  0  0  0  0  0  0
  -17.1344  -40.7826   -6.7741 N   0  0  0  0  0  0  0  0  0  0  0  0
  1  2  1  0
  2  3  1  0
  2  4  1  0
  4  5  1  0
  5  6  2  0
  6  7  1  0
  7  8  2  0
  8  9  1  0
  9 10  2  0
  7 11  1  0
 11 12  1  0
 11 13  1  0
 11 14  1  0
 14 15  1  0
 15 16  1  0
 16 17  1  1
 16 18  1  0
 18 19  1  1
 19 20  1  0
 20 21  1  1
 20 22  1  0
 22 23  1  0
 23 24  1  0
 24 25  1  0
 25 26  1  0
 26 27  1  0
 27 28  1  0
 28 29  1  0
 29 30  1  0
 30 31  2  0
 30 32  1  0
 32 33  1  0
 32 34  1  0
 34 35  1  6
 34 36  1  0
 36 37  2  0
 36 38  1  0
 10  5  1  0
 38 18  1  0
M  END
$$$$
