
     RDKit          3D

 38 39  0  0  0  0  0  0  0  0999 V2000
  -11.6045  -36.4615  -15.7634 C   0  0  0  0  0  0  0  0  0  0  0  0
  -11.5728  -37.7738  -16.5373 C   0  0  0  0  0  0  0  0  0  0  0  0
  -10.1310  -38.1080  -16.8855 C   0  0  0  0  0  0  0  0  0  0  0  0
  -12.1342  -38.9064  -15.7175 C   0  0  0  0  0  0  0  0  0  0  0  0
  -11.8730  -38.6363  -14.2920 C   0  0  0  0  0  0  0  0  0  0  0  0
  -12.8856  -38.2965  -13.4185 C   0  0  0  0  0  0  0  0  0  0  0  0
  -12.5577  -38.0663  -12.1067 C   0  0  0  0  0  0  0  0  0  0  0  0
  -11.2500  -38.1706  -11.6709 C   0  0  0  0  0  0  0  0  0  0  0  0
  -10.2556  -38.5077  -12.5448 N   0  0  0  0  0  0  0  0  0  0  0  0
  -10.5821  -38.7308  -13.8201 C   0  0  0  0  0  0  0  0  0  0  0  0
  -13.5808  -37.6581  -11.0690 C   0  0  0  0  0  0  0  0  0  0  0  0
  -14.0532  -36.2873  -11.5095 C   0  0  0  0  0  0  0  0  0  0  0  0
  -12.8203  -37.4742   -9.7759 C   0  0  0  0  0  0  0  0  0  0  0  0
  -14.6071  -38.6390  -10.9698 N   0  0  0  0  0  0  0  0  0  0  0  0
  -15.7059  -38.4634  -10.1309 C   0  0  0  0  0  0  0  0  0  0  0  0
  -15.6664  -39.1958   -8.8472 C   0  0  1  0  0  0  0  0  0  0  0  0
  -14.8333  -38.6151   -7.9185 O   0  0  0  0  0  0  0  0  0  0  0  0
  -17.0515  -39.3929   -8.2305 C   0  0  2  0  0  0  0  0  0  0  0  0
  -17.5221  -37.9991   -7.8019 C   0  0  0  0  0  0  0  0  0  0  0  0
  -18.9813  -37.8485   -7.6372 C   0  0  2  0  0  0  0  0  0  0  0  0
  -19.3372  -37.7707   -6.1664 C   0  0  0  0  0  0  0  0  0  0  0  0
  -19.8467  -38.7588   -8.4393 C   0  0  0  0  0  0  0  0  0  0  0  0
  -21.3074  -38.5046   -8.0761 C   0  0  0  0  0  0  0  0  0  0  0  0
  -21.7500  -39.3908   -6.9376 C   0  0  0  0  0  0  0  0  0  0  0  0
  -22.9974  -40.1881   -7.2463 C   0  0  0  0  0  0  0  0  0  0  0  0
  -22.8953  -41.4759   -6.4755 C   0  0  0  0  0  0  0  0  0  0  0  0
  -23.1995  -42.6913   -7.2526 C   0  0  0  0  0  0  0  0  0  0  0  0
  -22.2446  -43.8101   -7.2127 C   0  0  0  0  0  0  0  0  0  0  0  0
  -20.7987  -43.4926   -7.0351 C   0  0  0  0  0  0  0  0  0  0  0  0
  -20.3020  -42.7613   -8.2228 C   0  0  0  0  0  0  0  0  0  0  0  0
  -21.1549  -42.2274   -8.9922 O   0  0  0  0  0  0  0  0  0  0  0  0
  -18.9221  -42.6075   -8.5746 N   0  0  0  0  0  0  0  0  0  0  0  0
  -18.5303  -42.4855   -9.9830 C   0  0  0  0  0  0  0  0  0  0  0  0
  -17.9174  -42.5831   -7.5374 C   0  0  1  0  0  0  0  0  0  0  0  0
  -16.5574  -43.0888   -8.0239 C   0  0  0  0  0  0  0  0  0  0  0  0
  -17.8054  -41.3549   -6.7624 C   0  0  0  0  0  0  0  0  0  0  0  0
  -18.4720  -41.2996   -5.6618 O   0  0  0  0  0  0  0  0  0  0  0  0
  -17.0539  -40.1971   -7.0545 N   0  0  0  0  0  0  0  0  0  0  0  0
  1  2  1  0
  2  3  1  0
  2  4  1  0
  4  5  1  0
  5  6  2  0
  6  7  1  0
  7  8  2  0
  8  9  1  0
  9 10  2  0
  7 11  1  0
 11 12  1  0
 11 13  1  0
 11 14  1  0
 14 15  1  0
 15 16  1  0
 16 17  1  1
 16 18  1  0
 18 19  1  1
 19 20  1  0
 20 21  1  1
 20 22  1  0
 22 23  1  0
 23 24  1  0
 24 25  1  0
 25 26  1  0
 26 27  1  0
 27 28  1  0
 28 29  1  0
 29 30  1  0
 30 31  2  0
 30 32  1  0
 32 33  1  0
 32 34  1  0
 34 35  1  6
 34 36  1  0
 36 37  2  0
 36 38  1  0
 10  5  1  0
 38 18  1  0
M  END
$$$$
