
     RDKit          3D

 38 39  0  0  0  0  0  0  0  0999 V2000
  -19.6135  -35.1821  -13.0376 C   0  0  0  0  0  0  0  0  0  0  0  0
  -18.2965  -35.4842  -12.3331 C   0  0  0  0  0  0  0  0  0  0  0  0
  -18.5616  -36.4322  -11.1742 C   0  0  0  0  0  0  0  0  0  0  0  0
  -17.3153  -36.1441  -13.2667 C   0  0  0  0  0  0  0  0  0  0  0  0
  -15.9898  -36.1703  -12.6219 C   0  0  0  0  0  0  0  0  0  0  0  0
  -15.4673  -37.3266  -12.0797 C   0  0  0  0  0  0  0  0  0  0  0  0
  -14.2245  -37.2658  -11.5025 C   0  0  0  0  0  0  0  0  0  0  0  0
  -13.5148  -36.0801  -11.4637 C   0  0  0  0  0  0  0  0  0  0  0  0
  -14.0422  -34.9416  -12.0038 N   0  0  0  0  0  0  0  0  0  0  0  0
  -15.2521  -35.0082  -12.5644 C   0  0  0  0  0  0  0  0  0  0  0  0
  -13.5677  -38.4633  -10.8508 C   0  0  0  0  0  0  0  0  0  0  0  0
  -12.7671  -37.8873   -9.7004 C   0  0  0  0  0  0  0  0  0  0  0  0
  -12.5779  -39.0021  -11.8580 C   0  0  0  0  0  0  0  0  0  0  0  0
  -14.5476  -39.4238  -10.4733 N   0  0  0  0  0  0  0  0  0  0  0  0
  -14.9133  -39.6085   -9.1414 C   0  0  0  0  0  0  0  0  0  0  0  0
  -15.7989  -40.7597   -8.8647 C   0  0  1  0  0  0  0  0  0  0  0  0
  -15.2384  -41.6799   -8.0087 O   0  0  0  0  0  0  0  0  0  0  0  0
  -17.1697  -40.3426   -8.3315 C   0  0  2  0  0  0  0  0  0  0  0  0
  -17.4148  -38.9274   -8.8654 C   0  0  0  0  0  0  0  0  0  0  0  0
  -18.8282  -38.5038   -8.9056 C   0  0  2  0  0  0  0  0  0  0  0  0
  -19.1049  -37.4970   -7.8075 C   0  0  0  0  0  0  0  0  0  0  0  0
  -19.8503  -39.5808   -9.0338 C   0  0  0  0  0  0  0  0  0  0  0  0
  -21.2417  -38.9553   -8.9799 C   0  0  0  0  0  0  0  0  0  0  0  0
  -21.7578  -38.8910   -7.5633 C   0  0  0  0  0  0  0  0  0  0  0  0
  -23.1196  -39.5254   -7.3902 C   0  0  0  0  0  0  0  0  0  0  0  0
  -23.1714  -40.0753   -5.9909 C   0  0  0  0  0  0  0  0  0  0  0  0
  -23.6817  -41.4543   -5.8834 C   0  0  0  0  0  0  0  0  0  0  0  0
  -22.8977  -42.4378   -5.1196 C   0  0  0  0  0  0  0  0  0  0  0  0
  -21.4148  -42.2856   -5.0938 C   0  0  0  0  0  0  0  0  0  0  0  0
  -20.8697  -42.5084   -6.4523 C   0  0  0  0  0  0  0  0  0  0  0  0
  -21.6691  -42.4402   -7.4325 O   0  0  0  0  0  0  0  0  0  0  0  0
  -19.4987  -42.7972   -6.7498 N   0  0  0  0  0  0  0  0  0  0  0  0
  -19.1550  -43.6151   -7.9180 C   0  0  0  0  0  0  0  0  0  0  0  0
  -18.4569  -42.2879   -5.8889 C   0  0  1  0  0  0  0  0  0  0  0  0
  -17.2067  -43.1707   -5.8929 C   0  0  0  0  0  0  0  0  0  0  0  0
  -18.1348  -40.8731   -6.0163 C   0  0  0  0  0  0  0  0  0  0  0  0
  -18.7379  -40.0656   -5.2144 O   0  0  0  0  0  0  0  0  0  0  0  0
  -17.2373  -40.2535   -6.9111 N   0  0  0  0  0  0  0  0  0  0  0  0
  1  2  1  0
  2  3  1  0
  2  4  1  0
  4  5  1  0
  5  6  2  0
  6  7  1  0
  7  8  2  0
  8  9  1  0
  9 10  2  0
  7 11  1  0
 11 12  1  0
 11 13  1  0
 11 14  1  0
 14 15  1  0
 15 16  1  0
 16 17  1  1
 16 18  1  0
 18 19  1  6
 19 20  1  0
 20 21  1  1
 20 22  1  0
 22 23  1  0
 23 24  1  0
 24 25  1  0
 25 26  1  0
 26 27  1  0
 27 28  1  0
 28 29  1  0
 29 30  1  0
 30 31  2  0
 30 32  1  0
 32 33  1  0
 32 34  1  0
 34 35  1  6
 34 36  1  0
 36 37  2  0
 36 38  1  0
 10  5  1  0
 38 18  1  0
M  END
$$$$
