
     RDKit          3D

 38 39  0  0  0  0  0  0  0  0999 V2000
  -11.0536  -38.1343  -16.1482 C   0  0  0  0  0  0  0  0  0  0  0  0
  -11.4120  -37.5761  -14.7763 C   0  0  0  0  0  0  0  0  0  0  0  0
  -11.0700  -36.0951  -14.7400 C   0  0  0  0  0  0  0  0  0  0  0  0
  -12.8838  -37.7270  -14.4916 C   0  0  0  0  0  0  0  0  0  0  0  0
  -13.0899  -37.7085  -13.0320 C   0  0  0  0  0  0  0  0  0  0  0  0
  -13.0410  -38.8615  -12.2758 C   0  0  0  0  0  0  0  0  0  0  0  0
  -13.2387  -38.7560  -10.9225 C   0  0  0  0  0  0  0  0  0  0  0  0
  -13.4808  -37.5298  -10.3319 C   0  0  0  0  0  0  0  0  0  0  0  0
  -13.5269  -36.3948  -11.0907 N   0  0  0  0  0  0  0  0  0  0  0  0
  -13.3332  -36.5050  -12.4072 C   0  0  0  0  0  0  0  0  0  0  0  0
  -13.2374  -39.9566  -10.0012 C   0  0  0  0  0  0  0  0  0  0  0  0
  -11.7749  -40.3183   -9.8387 C   0  0  0  0  0  0  0  0  0  0  0  0
  -13.8924  -41.0802  -10.7712 C   0  0  0  0  0  0  0  0  0  0  0  0
  -13.9149  -39.6525   -8.7872 N   0  0  0  0  0  0  0  0  0  0  0  0
  -15.2931  -39.8150   -8.6602 C   0  0  0  0  0  0  0  0  0  0  0  0
  -16.0038  -38.7635   -7.9019 C   0  0  1  0  0  0  0  0  0  0  0  0
  -16.0850  -37.5687   -8.5800 O   0  0  0  0  0  0  0  0  0  0  0  0
  -17.4040  -39.1902   -7.4602 C   0  0  2  0  0  0  0  0  0  0  0  0
  -18.0060  -37.9768   -6.7438 C   0  0  0  0  0  0  0  0  0  0  0  0
  -19.4797  -37.9599   -6.6606 C   0  0  2  0  0  0  0  0  0  0  0  0
  -19.9281  -38.2701   -5.2469 C   0  0  0  0  0  0  0  0  0  0  0  0
  -20.2224  -38.6940   -7.7239 C   0  0  0  0  0  0  0  0  0  0  0  0
  -21.7175  -38.6262   -7.4237 C   0  0  0  0  0  0  0  0  0  0  0  0
  -22.1577  -39.7915   -6.5719 C   0  0  0  0  0  0  0  0  0  0  0  0
  -23.3187  -40.5614   -7.1601 C   0  0  0  0  0  0  0  0  0  0  0  0
  -23.1637  -41.9913   -6.7193 C   0  0  0  0  0  0  0  0  0  0  0  0
  -23.3257  -42.9927   -7.7891 C   0  0  0  0  0  0  0  0  0  0  0  0
  -22.2911  -44.0269   -7.9484 C   0  0  0  0  0  0  0  0  0  0  0  0
  -20.8875  -43.6766   -7.5880 C   0  0  0  0  0  0  0  0  0  0  0  0
  -20.3785  -42.6455   -8.5208 C   0  0  0  0  0  0  0  0  0  0  0  0
  -21.2226  -41.9903   -9.2011 O   0  0  0  0  0  0  0  0  0  0  0  0
  -18.9961  -42.3265   -8.7173 N   0  0  0  0  0  0  0  0  0  0  0  0
  -18.5311  -41.8364  -10.0194 C   0  0  0  0  0  0  0  0  0  0  0  0
  -18.0603  -42.4989   -7.6307 C   0  0  1  0  0  0  0  0  0  0  0  0
  -16.6385  -42.7855   -8.1190 C   0  0  0  0  0  0  0  0  0  0  0  0
  -18.0904  -41.4962   -6.5746 C   0  0  0  0  0  0  0  0  0  0  0  0
  -18.8241  -41.7553   -5.5484 O   0  0  0  0  0  0  0  0  0  0  0  0
  -17.4147  -40.2591   -6.5182 N   0  0  0  0  0  0  0  0  0  0  0  0
  1  2  1  0
  2  3  1  0
  2  4  1  0
  4  5  1  0
  5  6  2  0
  6  7  1  0
  7  8  2  0
  8  9  1  0
  9 10  2  0
  7 11  1  0
 11 12  1  0
 11 13  1  0
 11 14  1  0
 14 15  1  0
 15 16  1  0
 16 17  1  6
 16 18  1  0
 18 19  1  1
 19 20  1  0
 20 21  1  1
 20 22  1  0
 22 23  1  0
 23 24  1  0
 24 25  1  0
 25 26  1  0
 26 27  1  0
 27 28  1  0
 28 29  1  0
 29 30  1  0
 30 31  2  0
 30 32  1  0
 32 33  1  0
 32 34  1  0
 34 35  1  6
 34 36  1  0
 36 37  2  0
 36 38  1  0
 10  5  1  0
 38 18  1  0
M  END
$$$$
