
     RDKit          3D

 38 39  0  0  0  0  0  0  0  0999 V2000
  -11.2242  -34.9845  -12.4705 C   0  0  0  0  0  0  0  0  0  0  0  0
  -12.5260  -34.1923  -12.4742 C   0  0  0  0  0  0  0  0  0  0  0  0
  -13.1489  -34.2709  -13.8590 C   0  0  0  0  0  0  0  0  0  0  0  0
  -13.5110  -34.7535  -11.4819 C   0  0  0  0  0  0  0  0  0  0  0  0
  -13.6750  -36.1959  -11.7388 C   0  0  0  0  0  0  0  0  0  0  0  0
  -13.3695  -37.1442  -10.7843 C   0  0  0  0  0  0  0  0  0  0  0  0
  -13.5558  -38.4653  -11.1027 C   0  0  0  0  0  0  0  0  0  0  0  0
  -14.0353  -38.8375  -12.3447 C   0  0  0  0  0  0  0  0  0  0  0  0
  -14.3344  -37.8897  -13.2819 N   0  0  0  0  0  0  0  0  0  0  0  0
  -14.1510  -36.6058  -12.9650 C   0  0  0  0  0  0  0  0  0  0  0  0
  -13.2256  -39.5901  -10.1456 C   0  0  0  0  0  0  0  0  0  0  0  0
  -12.4382  -38.9314   -9.0310 C   0  0  0  0  0  0  0  0  0  0  0  0
  -12.2757  -40.5061  -10.8825 C   0  0  0  0  0  0  0  0  0  0  0  0
  -14.4141  -40.2511   -9.7261 N   0  0  0  0  0  0  0  0  0  0  0  0
  -15.6633  -39.8973  -10.2322 C   0  0  0  0  0  0  0  0  0  0  0  0
  -16.7423  -40.8919  -10.0522 C   0  0  1  0  0  0  0  0  0  0  0  0
  -16.2986  -42.0812   -9.5206 O   0  0  0  0  0  0  0  0  0  0  0  0
  -17.9049  -40.3646   -9.2109 C   0  0  2  0  0  0  0  0  0  0  0  0
  -18.1195  -38.9137   -9.6544 C   0  0  0  0  0  0  0  0  0  0  0  0
  -19.4538  -38.3547   -9.3609 C   0  0  2  0  0  0  0  0  0  0  0  0
  -19.3676  -37.3671   -8.2150 C   0  0  0  0  0  0  0  0  0  0  0  0
  -20.5827  -39.3228   -9.2641 C   0  0  0  0  0  0  0  0  0  0  0  0
  -21.8535  -38.5685   -8.8815 C   0  0  0  0  0  0  0  0  0  0  0  0
  -22.0228  -38.5070   -7.3832 C   0  0  0  0  0  0  0  0  0  0  0  0
  -23.3664  -39.0132   -6.9087 C   0  0  0  0  0  0  0  0  0  0  0  0
  -23.1528  -39.6067   -5.5429 C   0  0  0  0  0  0  0  0  0  0  0  0
  -23.7633  -40.9331   -5.3392 C   0  0  0  0  0  0  0  0  0  0  0  0
  -22.9303  -42.0151   -4.7907 C   0  0  0  0  0  0  0  0  0  0  0  0
  -21.4731  -42.0075   -5.1064 C   0  0  0  0  0  0  0  0  0  0  0  0
  -21.2788  -42.2316   -6.5570 C   0  0  0  0  0  0  0  0  0  0  0  0
  -22.2699  -42.0506   -7.3248 O   0  0  0  0  0  0  0  0  0  0  0  0
  -20.0490  -42.6400   -7.1672 N   0  0  0  0  0  0  0  0  0  0  0  0
  -20.0670  -43.4437   -8.3943 C   0  0  0  0  0  0  0  0  0  0  0  0
  -18.7915  -42.2656   -6.5637 C   0  0  1  0  0  0  0  0  0  0  0  0
  -17.6724  -43.2639   -6.8686 C   0  0  0  0  0  0  0  0  0  0  0  0
  -18.3642  -40.8846   -6.7428 C   0  0  0  0  0  0  0  0  0  0  0  0
  -18.6821  -40.0529   -5.8123 O   0  0  0  0  0  0  0  0  0  0  0  0
  -17.6365  -40.3218   -7.8123 N   0  0  0  0  0  0  0  0  0  0  0  0
  1  2  1  0
  2  3  1  0
  2  4  1  0
  4  5  1  0
  5  6  2  0
  6  7  1  0
  7  8  2  0
  8  9  1  0
  9 10  2  0
  7 11  1  0
 11 12  1  0
 11 13  1  0
 11 14  1  0
 14 15  1  0
 15 16  1  0
 16 17  1  1
 16 18  1  0
 18 19  1  6
 19 20  1  0
 20 21  1  1
 20 22  1  0
 22 23  1  0
 23 24  1  0
 24 25  1  0
 25 26  1  0
 26 27  1  0
 27 28  1  0
 28 29  1  0
 29 30  1  0
 30 31  2  0
 30 32  1  0
 32 33  1  0
 32 34  1  0
 34 35  1  6
 34 36  1  0
 36 37  2  0
 36 38  1  0
 10  5  1  0
 38 18  1  0
M  END
$$$$
