
     RDKit          3D

 38 39  0  0  0  0  0  0  0  0999 V2000
  -11.5268  -34.2859  -12.7234 C   0  0  0  0  0  0  0  0  0  0  0  0
  -12.3667  -35.4598  -12.2351 C   0  0  0  0  0  0  0  0  0  0  0  0
  -13.8145  -35.2353  -12.6418 C   0  0  0  0  0  0  0  0  0  0  0  0
  -11.9017  -36.7566  -12.8449 C   0  0  0  0  0  0  0  0  0  0  0  0
  -12.6874  -37.8622  -12.2673 C   0  0  0  0  0  0  0  0  0  0  0  0
  -12.5124  -38.2748  -10.9624 C   0  0  0  0  0  0  0  0  0  0  0  0
  -13.2880  -39.3079  -10.5015 C   0  0  0  0  0  0  0  0  0  0  0  0
  -14.2184  -39.9200  -11.3205 C   0  0  0  0  0  0  0  0  0  0  0  0
  -14.3829  -39.5030  -12.6109 N   0  0  0  0  0  0  0  0  0  0  0  0
  -13.6249  -38.4965  -13.0527 C   0  0  0  0  0  0  0  0  0  0  0  0
  -13.1602  -39.8622   -9.0991 C   0  0  0  0  0  0  0  0  0  0  0  0
  -12.1704  -38.9453   -8.4092 C   0  0  0  0  0  0  0  0  0  0  0  0
  -12.4961  -41.2128   -9.2379 C   0  0  0  0  0  0  0  0  0  0  0  0
  -14.4374  -39.9377   -8.4760 N   0  0  0  0  0  0  0  0  0  0  0  0
  -15.4524  -40.7441   -8.9874 C   0  0  0  0  0  0  0  0  0  0  0  0
  -16.6186  -40.0367   -9.5578 C   0  0  1  0  0  0  0  0  0  0  0  0
  -16.9711  -40.4944  -10.8068 O   0  0  0  0  0  0  0  0  0  0  0  0
  -17.8429  -40.0712   -8.6426 C   0  0  2  0  0  0  0  0  0  0  0  0
  -18.2809  -38.6128   -8.4725 C   0  0  0  0  0  0  0  0  0  0  0  0
  -19.6833  -38.4195   -8.0544 C   0  0  2  0  0  0  0  0  0  0  0  0
  -19.7424  -37.9850   -6.6039 C   0  0  0  0  0  0  0  0  0  0  0  0
  -20.6493  -39.4931   -8.4218 C   0  0  0  0  0  0  0  0  0  0  0  0
  -22.0184  -39.1511   -7.8397 C   0  0  0  0  0  0  0  0  0  0  0  0
  -22.1852  -39.7320   -6.4569 C   0  0  0  0  0  0  0  0  0  0  0  0
  -23.4319  -40.5742   -6.3051 C   0  0  0  0  0  0  0  0  0  0  0  0
  -23.1207  -41.6367   -5.2865 C   0  0  0  0  0  0  0  0  0  0  0  0
  -23.5187  -43.0029   -5.6720 C   0  0  0  0  0  0  0  0  0  0  0  0
  -22.5257  -44.0833   -5.5618 C   0  0  0  0  0  0  0  0  0  0  0  0
  -21.0892  -43.7392   -5.7640 C   0  0  0  0  0  0  0  0  0  0  0  0
  -20.8722  -43.3208   -7.1676 C   0  0  0  0  0  0  0  0  0  0  0  0
  -21.8844  -42.9856   -7.8515 O   0  0  0  0  0  0  0  0  0  0  0  0
  -19.5983  -43.2639   -7.8199 N   0  0  0  0  0  0  0  0  0  0  0  0
  -19.5007  -43.4896   -9.2661 C   0  0  0  0  0  0  0  0  0  0  0  0
  -18.4094  -42.9931   -7.0460 C   0  0  1  0  0  0  0  0  0  0  0  0
  -17.1522  -43.6086   -7.6647 C   0  0  0  0  0  0  0  0  0  0  0  0
  -18.2005  -41.6140   -6.6264 C   0  0  0  0  0  0  0  0  0  0  0  0
  -18.6364  -41.2898   -5.4587 O   0  0  0  0  0  0  0  0  0  0  0  0
  -17.5750  -40.5657   -7.3335 N   0  0  0  0  0  0  0  0  0  0  0  0
  1  2  1  0
  2  3  1  0
  2  4  1  0
  4  5  1  0
  5  6  2  0
  6  7  1  0
  7  8  2  0
  8  9  1  0
  9 10  2  0
  7 11  1  0
 11 12  1  0
 11 13  1  0
 11 14  1  0
 14 15  1  0
 15 16  1  0
 16 17  1  6
 16 18  1  0
 18 19  1  1
 19 20  1  0
 20 21  1  1
 20 22  1  0
 22 23  1  0
 23 24  1  0
 24 25  1  0
 25 26  1  0
 26 27  1  0
 27 28  1  0
 28 29  1  0
 29 30  1  0
 30 31  2  0
 30 32  1  0
 32 33  1  0
 32 34  1  0
 34 35  1  6
 34 36  1  0
 36 37  2  0
 36 38  1  0
 10  5  1  0
 38 18  1  0
M  END
$$$$
