
     RDKit          3D

 38 39  0  0  0  0  0  0  0  0999 V2000
  -11.3252  -34.6224  -11.5698 C   0  0  0  0  0  0  0  0  0  0  0  0
  -12.1728  -35.4970  -12.4857 C   0  0  0  0  0  0  0  0  0  0  0  0
  -12.5188  -34.7101  -13.7398 C   0  0  0  0  0  0  0  0  0  0  0  0
  -11.4276  -36.7393  -12.8995 C   0  0  0  0  0  0  0  0  0  0  0  0
  -11.7826  -37.8351  -11.9795 C   0  0  0  0  0  0  0  0  0  0  0  0
  -12.8788  -38.6436  -12.2000 C   0  0  0  0  0  0  0  0  0  0  0  0
  -13.1360  -39.6442  -11.2976 C   0  0  0  0  0  0  0  0  0  0  0  0
  -12.3214  -39.8375  -10.1976 C   0  0  0  0  0  0  0  0  0  0  0  0
  -11.2388  -39.0308   -9.9896 N   0  0  0  0  0  0  0  0  0  0  0  0
  -10.9942  -38.0593  -10.8722 C   0  0  0  0  0  0  0  0  0  0  0  0
  -14.3265  -40.5701  -11.4228 C   0  0  0  0  0  0  0  0  0  0  0  0
  -14.0039  -41.7401  -10.5155 C   0  0  0  0  0  0  0  0  0  0  0  0
  -14.3108  -41.0883  -12.8425 C   0  0  0  0  0  0  0  0  0  0  0  0
  -15.5290  -39.8802  -11.1014 N   0  0  0  0  0  0  0  0  0  0  0  0
  -16.1908  -40.0911   -9.8933 C   0  0  0  0  0  0  0  0  0  0  0  0
  -16.8829  -38.9178   -9.3186 C   0  0  1  0  0  0  0  0  0  0  0  0
  -17.4215  -38.0861  -10.2735 O   0  0  0  0  0  0  0  0  0  0  0  0
  -17.9676  -39.3000   -8.3111 C   0  0  2  0  0  0  0  0  0  0  0  0
  -18.3921  -37.9920   -7.6353 C   0  0  0  0  0  0  0  0  0  0  0  0
  -19.7246  -38.0130   -7.0005 C   0  0  2  0  0  0  0  0  0  0  0  0
  -19.5857  -38.0543   -5.4921 C   0  0  0  0  0  0  0  0  0  0  0  0
  -20.7216  -38.9692   -7.5596 C   0  0  0  0  0  0  0  0  0  0  0  0
  -21.9998  -38.8983   -6.7281 C   0  0  0  0  0  0  0  0  0  0  0  0
  -21.9668  -39.8880   -5.5893 C   0  0  0  0  0  0  0  0  0  0  0  0
  -23.1718  -40.8008   -5.5511 C   0  0  0  0  0  0  0  0  0  0  0  0
  -22.7114  -42.1089   -4.9681 C   0  0  0  0  0  0  0  0  0  0  0  0
  -23.1454  -43.3070   -5.7095 C   0  0  0  0  0  0  0  0  0  0  0  0
  -22.1360  -44.3137   -6.0742 C   0  0  0  0  0  0  0  0  0  0  0  0
  -20.7451  -43.8479   -6.3412 C   0  0  0  0  0  0  0  0  0  0  0  0
  -20.7297  -43.0033   -7.5572 C   0  0  0  0  0  0  0  0  0  0  0  0
  -21.8304  -42.5266   -7.9642 O   0  0  0  0  0  0  0  0  0  0  0  0
  -19.5595  -42.6789   -8.3168 N   0  0  0  0  0  0  0  0  0  0  0  0
  -19.6617  -42.4387   -9.7603 C   0  0  0  0  0  0  0  0  0  0  0  0
  -18.2772  -42.5991   -7.6571 C   0  0  1  0  0  0  0  0  0  0  0  0
  -17.1122  -42.9241   -8.5947 C   0  0  0  0  0  0  0  0  0  0  0  0
  -18.0258  -41.4094   -6.8551 C   0  0  0  0  0  0  0  0  0  0  0  0
  -18.2983  -41.4876   -5.5987 O   0  0  0  0  0  0  0  0  0  0  0  0
  -17.5153  -40.1616   -7.2704 N   0  0  0  0  0  0  0  0  0  0  0  0
  1  2  1  0
  2  3  1  0
  2  4  1  0
  4  5  1  0
  5  6  2  0
  6  7  1  0
  7  8  2  0
  8  9  1  0
  9 10  2  0
  7 11  1  0
 11 12  1  0
 11 13  1  0
 11 14  1  0
 14 15  1  0
 15 16  1  0
 16 17  1  6
 16 18  1  0
 18 19  1  1
 19 20  1  0
 20 21  1  1
 20 22  1  0
 22 23  1  0
 23 24  1  0
 24 25  1  0
 25 26  1  0
 26 27  1  0
 27 28  1  0
 28 29  1  0
 29 30  1  0
 30 31  2  0
 30 32  1  0
 32 33  1  0
 32 34  1  0
 34 35  1  6
 34 36  1  0
 36 37  2  0
 36 38  1  0
 10  5  1  0
 38 18  1  0
M  END
$$$$
