
     RDKit          3D

 43 47  0  0  0  0  0  0  0  0999 V2000
  -22.0618  -38.2495   -8.5517 C   0  0  0  0  0  0  0  0  0  0  0  0
  -21.1172  -37.1634   -8.1144 C   0  0  0  0  0  0  0  0  0  0  0  0
  -20.6880  -37.3000   -6.6645 C   0  0  0  0  0  0  0  0  0  0  0  0
  -19.9629  -37.0363   -9.0403 C   0  0  0  0  0  0  0  0  0  0  0  0
  -18.6739  -37.1307   -8.5493 C   0  0  0  0  0  0  0  0  0  0  0  0
  -17.5817  -37.0360   -9.3891 C   0  0  0  0  0  0  0  0  0  0  0  0
  -17.8316  -36.8408  -10.7341 C   0  0  0  0  0  0  0  0  0  0  0  0
  -19.1219  -36.7410  -11.2551 C   0  0  0  0  0  0  0  0  0  0  0  0
  -20.1826  -36.8427  -10.3857 C   0  0  0  0  0  0  0  0  0  0  0  0
  -16.7831  -36.7330  -11.6420 O   0  0  0  0  0  0  0  0  0  0  0  0
  -15.4738  -37.1317  -11.3363 C   0  0  0  0  0  0  0  0  0  0  0  0
  -14.6406  -35.8543  -11.2163 C   0  0  0  0  0  0  0  0  0  0  0  0
  -14.9303  -37.9208  -12.4990 C   0  0  0  0  0  0  0  0  0  0  0  0
  -15.4226  -37.9145  -10.0383 C   0  0  0  0  0  0  0  0  0  0  0  0
  -16.2162  -37.1358   -8.9629 C   0  0  2  0  0  0  0  0  0  0  0  0
  -15.8601  -37.6075   -7.6866 N   0  0  0  0  0  0  0  0  0  0  0  0
  -16.4345  -38.7929   -7.1933 C   0  0  0  0  0  0  0  0  0  0  0  0
  -16.0453  -40.1011   -7.6941 C   0  0  1  0  0  0  0  0  0  0  0  0
  -15.6894  -40.9167   -6.5807 O   0  0  0  0  0  0  0  0  0  0  0  0
  -16.8732  -40.9373   -8.5796 C   0  0  2  0  0  0  0  0  0  0  0  0
  -16.0992  -41.8674   -9.4874 C   0  0  0  0  0  0  0  0  0  0  0  0
  -16.6314  -43.2771   -9.5159 C   0  0  0  0  0  0  0  0  0  0  0  0
  -16.5934  -44.2622   -8.5672 C   0  0  0  0  0  0  0  0  0  0  0  0
  -17.2002  -45.4694   -8.8694 C   0  0  0  0  0  0  0  0  0  0  0  0
  -17.8291  -45.6557  -10.1261 C   0  0  0  0  0  0  0  0  0  0  0  0
  -17.8801  -44.6887  -11.0896 C   0  0  0  0  0  0  0  0  0  0  0  0
  -17.2721  -43.5060  -10.7590 C   0  0  0  0  0  0  0  0  0  0  0  0
  -17.3110  -46.6128   -8.1148 O   0  0  0  0  0  0  0  0  0  0  0  0
  -17.6524  -47.0161   -6.8509 C   0  0  0  0  0  0  0  0  0  0  0  0
  -18.9798  -47.7242   -6.8172 C   0  0  0  0  0  0  0  0  0  0  0  0
  -20.0871  -46.8058   -7.1700 C   0  0  0  0  0  0  0  0  0  0  0  0
  -20.3649  -45.7862   -6.0951 C   0  0  0  0  0  0  0  0  0  0  0  0
  -20.9656  -44.6802   -6.5826 O   0  0  0  0  0  0  0  0  0  0  0  0
  -20.8730  -43.6969   -7.5235 C   0  0  0  0  0  0  0  0  0  0  0  0
  -19.9644  -42.6353   -7.6375 C   0  0  0  0  0  0  0  0  0  0  0  0
  -20.1051  -41.7831   -8.6936 C   0  0  0  0  0  0  0  0  0  0  0  0
  -21.1716  -42.0327   -9.6073 C   0  0  0  0  0  0  0  0  0  0  0  0
  -22.0643  -43.0658   -9.5047 C   0  0  0  0  0  0  0  0  0  0  0  0
  -23.1418  -43.2858  -10.5067 C   0  0  0  0  0  0  0  0  0  0  0  0
  -21.8724  -43.8557   -8.4596 N   0  0  0  0  0  0  0  0  0  0  0  0
  -19.3582  -40.5869   -9.1090 C   0  0  0  0  0  0  0  0  0  0  0  0
  -20.0808  -39.5328   -9.4294 O   0  0  0  0  0  0  0  0  0  0  0  0
  -17.9777  -40.3024   -9.2511 N   0  0  0  0  0  0  0  0  0  0  0  0
  1  2  1  0
  2  3  1  0
  2  4  1  0
  4  5  2  0
  5  6  1  0
  6  7  2  0
  7  8  1  0
  8  9  2  0
  7 10  1  0
 10 11  1  0
 11 12  1  0
 11 13  1  0
 11 14  1  0
 14 15  1  0
 15 16  1  1
 16 17  1  0
 17 18  1  0
 18 19  1  1
 18 20  1  0
 20 21  1  6
 21 22  1  0
 22 23  2  0
 23 24  1  0
 24 25  2  0
 25 26  1  0
 26 27  2  0
 24 28  1  0
 28 29  1  0
 29 30  1  0
 30 31  1  0
 31 32  1  0
 32 33  1  0
 33 34  1  0
 34 35  2  0
 35 36  1  0
 36 37  2  0
 37 38  1  0
 38 39  1  0
 38 40  2  0
 36 41  1  0
 41 42  2  0
 41 43  1  0
  9  4  1  0
 15  6  1  0
 27 22  1  0
 40 34  1  0
 43 20  1  0
M  END
$$$$
