
     RDKit          3D

 43 47  0  0  0  0  0  0  0  0999 V2000
  -11.3513  -35.7107  -12.4038 C   0  0  0  0  0  0  0  0  0  0  0  0
  -12.7402  -36.1588  -12.7690 C   0  0  0  0  0  0  0  0  0  0  0  0
  -13.0885  -35.8844  -14.2211 C   0  0  0  0  0  0  0  0  0  0  0  0
  -12.9779  -37.5734  -12.3840 C   0  0  0  0  0  0  0  0  0  0  0  0
  -13.3926  -37.8765  -11.1005 C   0  0  0  0  0  0  0  0  0  0  0  0
  -13.6402  -39.1806  -10.7197 C   0  0  0  0  0  0  0  0  0  0  0  0
  -13.4534  -40.1649  -11.6716 C   0  0  0  0  0  0  0  0  0  0  0  0
  -13.0346  -39.8864  -12.9728 C   0  0  0  0  0  0  0  0  0  0  0  0
  -12.8007  -38.5746  -13.3126 C   0  0  0  0  0  0  0  0  0  0  0  0
  -13.6799  -41.5023  -11.3628 O   0  0  0  0  0  0  0  0  0  0  0  0
  -14.4023  -41.9053  -10.2303 C   0  0  0  0  0  0  0  0  0  0  0  0
  -13.3939  -42.5274   -9.2626 C   0  0  0  0  0  0  0  0  0  0  0  0
  -15.3673  -42.9879  -10.6386 C   0  0  0  0  0  0  0  0  0  0  0  0
  -15.1025  -40.7309   -9.5738 C   0  0  0  0  0  0  0  0  0  0  0  0
  -14.0842  -39.5774   -9.4153 C   0  0  2  0  0  0  0  0  0  0  0  0
  -14.5691  -38.6524   -8.4732 N   0  0  0  0  0  0  0  0  0  0  0  0
  -15.6070  -37.7717   -8.8274 C   0  0  0  0  0  0  0  0  0  0  0  0
  -16.7781  -37.5871   -7.9860 C   0  0  1  0  0  0  0  0  0  0  0  0
  -17.6903  -36.7341   -8.6727 O   0  0  0  0  0  0  0  0  0  0  0  0
  -17.5778  -38.6836   -7.4143 C   0  0  2  0  0  0  0  0  0  0  0  0
  -18.3942  -38.3113   -6.1964 C   0  0  0  0  0  0  0  0  0  0  0  0
  -19.8203  -38.7962   -6.2446 C   0  0  0  0  0  0  0  0  0  0  0  0
  -20.8761  -38.3816   -7.0097 C   0  0  0  0  0  0  0  0  0  0  0  0
  -22.0819  -39.0438   -6.8540 C   0  0  0  0  0  0  0  0  0  0  0  0
  -22.1951  -40.1087   -5.9251 C   0  0  0  0  0  0  0  0  0  0  0  0
  -21.1568  -40.5408   -5.1497 C   0  0  0  0  0  0  0  0  0  0  0  0
  -19.9777  -39.8662   -5.3287 C   0  0  0  0  0  0  0  0  0  0  0  0
  -23.2865  -38.8398   -7.4836 O   0  0  0  0  0  0  0  0  0  0  0  0
  -23.8063  -38.6596   -8.7381 C   0  0  0  0  0  0  0  0  0  0  0  0
  -24.5761  -39.8616   -9.2147 C   0  0  0  0  0  0  0  0  0  0  0  0
  -23.6850  -41.0298   -9.4024 C   0  0  0  0  0  0  0  0  0  0  0  0
  -22.7699  -40.8810  -10.5909 C   0  0  0  0  0  0  0  0  0  0  0  0
  -21.6574  -41.6368  -10.4772 O   0  0  0  0  0  0  0  0  0  0  0  0
  -20.5979  -41.9280   -9.6687 C   0  0  0  0  0  0  0  0  0  0  0  0
  -19.4893  -41.1472   -9.3125 C   0  0  0  0  0  0  0  0  0  0  0  0
  -18.5620  -41.6966   -8.4761 C   0  0  0  0  0  0  0  0  0  0  0  0
  -18.7864  -43.0309   -8.0248 C   0  0  0  0  0  0  0  0  0  0  0  0
  -19.8651  -43.8017   -8.3671 C   0  0  0  0  0  0  0  0  0  0  0  0
  -20.0535  -45.1808   -7.8416 C   0  0  0  0  0  0  0  0  0  0  0  0
  -20.7271  -43.2102   -9.1794 N   0  0  0  0  0  0  0  0  0  0  0  0
  -17.3024  -41.1834   -7.9178 C   0  0  0  0  0  0  0  0  0  0  0  0
  -16.2608  -41.9861   -7.9997 O   0  0  0  0  0  0  0  0  0  0  0  0
  -16.9431  -39.9696   -7.2820 N   0  0  0  0  0  0  0  0  0  0  0  0
  1  2  1  0
  2  3  1  0
  2  4  1  0
  4  5  2  0
  5  6  1  0
  6  7  2  0
  7  8  1  0
  8  9  2  0
  7 10  1  0
 10 11  1  0
 11 12  1  0
 11 13  1  0
 11 14  1  0
 14 15  1  0
 15 16  1  6
 16 17  1  0
 17 18  1  0
 18 19  1  6
 18 20  1  0
 20 21  1  1
 21 22  1  0
 22 23  2  0
 23 24  1  0
 24 25  2  0
 25 26  1  0
 26 27  2  0
 24 28  1  0
 28 29  1  0
 29 30  1  0
 30 31  1  0
 31 32  1  0
 32 33  1  0
 33 34  1  0
 34 35  2  0
 35 36  1  0
 36 37  2  0
 37 38  1  0
 38 39  1  0
 38 40  2  0
 36 41  1  0
 41 42  2  0
 41 43  1  0
  9  4  1  0
 15  6  1  0
 27 22  1  0
 40 34  1  0
 43 20  1  0
M  END
$$$$
