
     RDKit          3D

 43 47  0  0  0  0  0  0  0  0999 V2000
  -13.7725  -35.1980  -12.4927 C   0  0  0  0  0  0  0  0  0  0  0  0
  -12.5525  -35.2463  -11.6137 C   0  0  0  0  0  0  0  0  0  0  0  0
  -12.6470  -34.3158  -10.4177 C   0  0  0  0  0  0  0  0  0  0  0  0
  -12.2120  -36.6390  -11.2260 C   0  0  0  0  0  0  0  0  0  0  0  0
  -12.9830  -37.2997  -10.2878 C   0  0  0  0  0  0  0  0  0  0  0  0
  -12.7021  -38.6014   -9.9221 C   0  0  0  0  0  0  0  0  0  0  0  0
  -11.6206  -39.2109  -10.5293 C   0  0  0  0  0  0  0  0  0  0  0  0
  -10.8260  -38.5665  -11.4778 C   0  0  0  0  0  0  0  0  0  0  0  0
  -11.1404  -37.2711  -11.8160 C   0  0  0  0  0  0  0  0  0  0  0  0
  -11.2733  -40.5198  -10.2112 O   0  0  0  0  0  0  0  0  0  0  0  0
  -12.1441  -41.3922   -9.5425 C   0  0  0  0  0  0  0  0  0  0  0  0
  -11.5764  -41.5891   -8.1356 C   0  0  0  0  0  0  0  0  0  0  0  0
  -12.1093  -42.7286  -10.2373 C   0  0  0  0  0  0  0  0  0  0  0  0
  -13.5475  -40.8222   -9.4661 C   0  0  0  0  0  0  0  0  0  0  0  0
  -13.4581  -39.3603   -8.9689 C   0  0  2  0  0  0  0  0  0  0  0  0
  -14.7210  -38.9449   -8.5097 N   0  0  0  0  0  0  0  0  0  0  0  0
  -15.7013  -39.9034   -8.1955 C   0  0  0  0  0  0  0  0  0  0  0  0
  -17.0104  -39.8986   -8.8277 C   0  0  1  0  0  0  0  0  0  0  0  0
  -17.2458  -41.1932   -9.3752 O   0  0  0  0  0  0  0  0  0  0  0  0
  -18.2589  -39.4912   -8.1613 C   0  0  2  0  0  0  0  0  0  0  0  0
  -19.0390  -38.4081   -8.8731 C   0  0  0  0  0  0  0  0  0  0  0  0
  -20.5138  -38.6948   -8.9928 C   0  0  0  0  0  0  0  0  0  0  0  0
  -21.1838  -39.6057   -9.7630 C   0  0  0  0  0  0  0  0  0  0  0  0
  -22.5618  -39.6612   -9.6403 C   0  0  0  0  0  0  0  0  0  0  0  0
  -23.2328  -38.7917   -8.7441 C   0  0  0  0  0  0  0  0  0  0  0  0
  -22.5871  -37.8739   -7.9651 C   0  0  0  0  0  0  0  0  0  0  0  0
  -21.2247  -37.8453   -8.1088 C   0  0  0  0  0  0  0  0  0  0  0  0
  -23.4713  -40.4677  -10.2817 O   0  0  0  0  0  0  0  0  0  0  0  0
  -23.6736  -41.7832  -10.6056 C   0  0  0  0  0  0  0  0  0  0  0  0
  -24.7734  -42.4087   -9.7908 C   0  0  0  0  0  0  0  0  0  0  0  0
  -24.4033  -42.4851   -8.3586 C   0  0  0  0  0  0  0  0  0  0  0  0
  -23.3311  -43.5092   -8.0866 C   0  0  0  0  0  0  0  0  0  0  0  0
  -22.6438  -43.2417   -6.9562 O   0  0  0  0  0  0  0  0  0  0  0  0
  -21.9280  -42.2840   -6.2993 C   0  0  0  0  0  0  0  0  0  0  0  0
  -20.6707  -41.7354   -6.5887 C   0  0  0  0  0  0  0  0  0  0  0  0
  -20.1816  -40.7781   -5.7486 C   0  0  0  0  0  0  0  0  0  0  0  0
  -20.9858  -40.4051   -4.6312 C   0  0  0  0  0  0  0  0  0  0  0  0
  -22.2142  -40.9350   -4.3396 C   0  0  0  0  0  0  0  0  0  0  0  0
  -23.0152  -40.4843   -3.1697 C   0  0  0  0  0  0  0  0  0  0  0  0
  -22.6313  -41.8569   -5.1934 N   0  0  0  0  0  0  0  0  0  0  0  0
  -18.9259  -40.0135   -5.7405 C   0  0  0  0  0  0  0  0  0  0  0  0
  -18.2907  -39.9516   -4.5877 O   0  0  0  0  0  0  0  0  0  0  0  0
  -18.2173  -39.2956   -6.7351 N   0  0  0  0  0  0  0  0  0  0  0  0
  1  2  1  0
  2  3  1  0
  2  4  1  0
  4  5  2  0
  5  6  1  0
  6  7  2  0
  7  8  1  0
  8  9  2  0
  7 10  1  0
 10 11  1  0
 11 12  1  0
 11 13  1  0
 11 14  1  0
 14 15  1  0
 15 16  1  6
 16 17  1  0
 17 18  1  0
 18 19  1  1
 18 20  1  0
 20 21  1  6
 21 22  1  0
 22 23  2  0
 23 24  1  0
 24 25  2  0
 25 26  1  0
 26 27  2  0
 24 28  1  0
 28 29  1  0
 29 30  1  0
 30 31  1  0
 31 32  1  0
 32 33  1  0
 33 34  1  0
 34 35  2  0
 35 36  1  0
 36 37  2  0
 37 38  1  0
 38 39  1  0
 38 40  2  0
 36 41  1  0
 41 42  2  0
 41 43  1  0
  9  4  1  0
 15  6  1  0
 27 22  1  0
 40 34  1  0
 43 20  1  0
M  END
$$$$
