
     RDKit          3D

 43 47  0  0  0  0  0  0  0  0999 V2000
  -12.0133  -34.6276  -13.0020 C   0  0  0  0  0  0  0  0  0  0  0  0
  -12.9480  -35.8008  -13.1154 C   0  0  0  0  0  0  0  0  0  0  0  0
  -13.0182  -36.3683  -14.5220 C   0  0  0  0  0  0  0  0  0  0  0  0
  -12.6491  -36.8394  -12.0967 C   0  0  0  0  0  0  0  0  0  0  0  0
  -13.6843  -37.5306  -11.4951 C   0  0  0  0  0  0  0  0  0  0  0  0
  -13.4360  -38.5150  -10.5590 C   0  0  0  0  0  0  0  0  0  0  0  0
  -12.1148  -38.7759  -10.2490 C   0  0  0  0  0  0  0  0  0  0  0  0
  -11.0520  -38.0925  -10.8403 C   0  0  0  0  0  0  0  0  0  0  0  0
  -11.3416  -37.1208  -11.7693 C   0  0  0  0  0  0  0  0  0  0  0  0
  -11.7850  -39.7513   -9.3137 O   0  0  0  0  0  0  0  0  0  0  0  0
  -12.6959  -40.7282   -8.8863 C   0  0  0  0  0  0  0  0  0  0  0  0
  -13.0595  -40.3890   -7.4395 C   0  0  0  0  0  0  0  0  0  0  0  0
  -11.9971  -42.0630   -8.8779 C   0  0  0  0  0  0  0  0  0  0  0  0
  -13.9420  -40.7389   -9.7509 C   0  0  0  0  0  0  0  0  0  0  0  0
  -14.4498  -39.2854   -9.8996 C   0  0  2  0  0  0  0  0  0  0  0  0
  -15.7863  -39.3000  -10.3375 N   0  0  0  0  0  0  0  0  0  0  0  0
  -16.7246  -40.1268   -9.6938 C   0  0  0  0  0  0  0  0  0  0  0  0
  -18.1123  -39.7274   -9.5255 C   0  0  1  0  0  0  0  0  0  0  0  0
  -18.9280  -40.6225  -10.2769 O   0  0  0  0  0  0  0  0  0  0  0  0
  -18.7775  -39.5447   -8.2244 C   0  0  2  0  0  0  0  0  0  0  0  0
  -19.6953  -38.3452   -8.1390 C   0  0  0  0  0  0  0  0  0  0  0  0
  -21.0358  -38.6439   -7.5184 C   0  0  0  0  0  0  0  0  0  0  0  0
  -22.1012  -39.3543   -8.0002 C   0  0  0  0  0  0  0  0  0  0  0  0
  -23.2089  -39.4870   -7.1802 C   0  0  0  0  0  0  0  0  0  0  0  0
  -23.2168  -38.8951   -5.8922 C   0  0  0  0  0  0  0  0  0  0  0  0
  -22.1667  -38.1810   -5.3888 C   0  0  0  0  0  0  0  0  0  0  0  0
  -21.0860  -38.0696   -6.2238 C   0  0  0  0  0  0  0  0  0  0  0  0
  -24.3987  -40.1373   -7.4055 O   0  0  0  0  0  0  0  0  0  0  0  0
  -24.8778  -41.3352   -7.8660 C   0  0  0  0  0  0  0  0  0  0  0  0
  -25.4486  -42.1836   -6.7619 C   0  0  0  0  0  0  0  0  0  0  0  0
  -24.3952  -42.6051   -5.8097 C   0  0  0  0  0  0  0  0  0  0  0  0
  -23.4539  -43.6266   -6.3951 C   0  0  0  0  0  0  0  0  0  0  0  0
  -22.2535  -43.6285   -5.7779 O   0  0  0  0  0  0  0  0  0  0  0  0
  -21.2038  -42.8427   -5.4020 C   0  0  0  0  0  0  0  0  0  0  0  0
  -20.2333  -42.1953   -6.1796 C   0  0  0  0  0  0  0  0  0  0  0  0
  -19.2795  -41.4639   -5.5339 C   0  0  0  0  0  0  0  0  0  0  0  0
  -19.3369  -41.4124   -4.1097 C   0  0  0  0  0  0  0  0  0  0  0  0
  -20.2798  -42.0412   -3.3414 C   0  0  0  0  0  0  0  0  0  0  0  0
  -20.2988  -41.9278   -1.8580 C   0  0  0  0  0  0  0  0  0  0  0  0
  -21.1760  -42.7326   -4.0282 N   0  0  0  0  0  0  0  0  0  0  0  0
  -18.1322  -40.6826   -6.0183 C   0  0  0  0  0  0  0  0  0  0  0  0
  -16.9860  -40.8907   -5.4027 O   0  0  0  0  0  0  0  0  0  0  0  0
  -17.9766  -39.7131   -7.0394 N   0  0  0  0  0  0  0  0  0  0  0  0
  1  2  1  0
  2  3  1  0
  2  4  1  0
  4  5  2  0
  5  6  1  0
  6  7  2  0
  7  8  1  0
  8  9  2  0
  7 10  1  0
 10 11  1  0
 11 12  1  0
 11 13  1  0
 11 14  1  0
 14 15  1  0
 15 16  1  6
 16 17  1  0
 17 18  1  0
 18 19  1  6
 18 20  1  0
 20 21  1  6
 21 22  1  0
 22 23  2  0
 23 24  1  0
 24 25  2  0
 25 26  1  0
 26 27  2  0
 24 28  1  0
 28 29  1  0
 29 30  1  0
 30 31  1  0
 31 32  1  0
 32 33  1  0
 33 34  1  0
 34 35  2  0
 35 36  1  0
 36 37  2  0
 37 38  1  0
 38 39  1  0
 38 40  2  0
 36 41  1  0
 41 42  2  0
 41 43  1  0
  9  4  1  0
 15  6  1  0
 27 22  1  0
 40 34  1  0
 43 20  1  0
M  END
$$$$
