
     RDKit          3D

 43 47  0  0  0  0  0  0  0  0999 V2000
   -9.3298  -40.2812  -12.5379 C   0  0  0  0  0  0  0  0  0  0  0  0
  -10.3931  -40.4083  -11.4813 C   0  0  0  0  0  0  0  0  0  0  0  0
   -9.8230  -40.5950  -10.0866 C   0  0  0  0  0  0  0  0  0  0  0  0
  -11.3710  -39.2927  -11.5520 C   0  0  0  0  0  0  0  0  0  0  0  0
  -12.4073  -39.2278  -10.6391 C   0  0  0  0  0  0  0  0  0  0  0  0
  -13.3202  -38.1920  -10.6682 C   0  0  0  0  0  0  0  0  0  0  0  0
  -13.1555  -37.2296  -11.6462 C   0  0  0  0  0  0  0  0  0  0  0  0
  -12.1197  -37.2721  -12.5797 C   0  0  0  0  0  0  0  0  0  0  0  0
  -11.2305  -38.3191  -12.5155 C   0  0  0  0  0  0  0  0  0  0  0  0
  -14.0361  -36.1569  -11.7411 O   0  0  0  0  0  0  0  0  0  0  0  0
  -14.9089  -35.8006  -10.7029 C   0  0  0  0  0  0  0  0  0  0  0  0
  -16.3205  -36.1597  -11.1707 C   0  0  0  0  0  0  0  0  0  0  0  0
  -14.8560  -34.3054  -10.5253 C   0  0  0  0  0  0  0  0  0  0  0  0
  -14.5771  -36.5421   -9.4221 C   0  0  0  0  0  0  0  0  0  0  0  0
  -14.4132  -38.0444   -9.7520 C   0  0  2  0  0  0  0  0  0  0  0  0
  -14.5068  -38.7959   -8.5667 N   0  0  0  0  0  0  0  0  0  0  0  0
  -15.5450  -39.7322   -8.4120 C   0  0  0  0  0  0  0  0  0  0  0  0
  -16.8739  -39.5019   -8.9547 C   0  0  1  0  0  0  0  0  0  0  0  0
  -17.1053  -40.4568   -9.9871 O   0  0  0  0  0  0  0  0  0  0  0  0
  -18.1067  -39.4452   -8.1511 C   0  0  2  0  0  0  0  0  0  0  0  0
  -19.0757  -38.3520   -8.5440 C   0  0  0  0  0  0  0  0  0  0  0  0
  -20.5056  -38.8143   -8.6582 C   0  0  0  0  0  0  0  0  0  0  0  0
  -21.1118  -39.6099   -9.5916 C   0  0  0  0  0  0  0  0  0  0  0  0
  -22.4565  -39.8917   -9.4201 C   0  0  0  0  0  0  0  0  0  0  0  0
  -23.1600  -39.3597   -8.3104 C   0  0  0  0  0  0  0  0  0  0  0  0
  -22.5779  -38.5630   -7.3656 C   0  0  0  0  0  0  0  0  0  0  0  0
  -21.2469  -38.3045   -7.5633 C   0  0  0  0  0  0  0  0  0  0  0  0
  -23.3026  -40.6515  -10.1921 O   0  0  0  0  0  0  0  0  0  0  0  0
  -23.3581  -41.8717  -10.8123 C   0  0  0  0  0  0  0  0  0  0  0  0
  -24.2979  -42.8213  -10.1198 C   0  0  0  0  0  0  0  0  0  0  0  0
  -23.8064  -43.1720   -8.7672 C   0  0  0  0  0  0  0  0  0  0  0  0
  -22.5920  -44.0644   -8.8006 C   0  0  0  0  0  0  0  0  0  0  0  0
  -21.8560  -43.9684   -7.6733 O   0  0  0  0  0  0  0  0  0  0  0  0
  -21.2198  -43.0949   -6.8407 C   0  0  0  0  0  0  0  0  0  0  0  0
  -20.0718  -42.3177   -7.0497 C   0  0  0  0  0  0  0  0  0  0  0  0
  -19.6447  -41.5198   -6.0288 C   0  0  0  0  0  0  0  0  0  0  0  0
  -20.3975  -41.5359   -4.8174 C   0  0  0  0  0  0  0  0  0  0  0  0
  -21.5191  -42.2914   -4.6031 C   0  0  0  0  0  0  0  0  0  0  0  0
  -22.2746  -42.2444   -3.3222 C   0  0  0  0  0  0  0  0  0  0  0  0
  -21.8808  -43.0417   -5.6322 N   0  0  0  0  0  0  0  0  0  0  0  0
  -18.5022  -40.6038   -5.8974 C   0  0  0  0  0  0  0  0  0  0  0  0
  -17.7894  -40.7184   -4.7952 O   0  0  0  0  0  0  0  0  0  0  0  0
  -17.9756  -39.5805   -6.7233 N   0  0  0  0  0  0  0  0  0  0  0  0
  1  2  1  0
  2  3  1  0
  2  4  1  0
  4  5  2  0
  5  6  1  0
  6  7  2  0
  7  8  1  0
  8  9  2  0
  7 10  1  0
 10 11  1  0
 11 12  1  0
 11 13  1  0
 11 14  1  0
 14 15  1  0
 15 16  1  1
 16 17  1  0
 17 18  1  0
 18 19  1  6
 18 20  1  0
 20 21  1  1
 21 22  1  0
 22 23  2  0
 23 24  1  0
 24 25  2  0
 25 26  1  0
 26 27  2  0
 24 28  1  0
 28 29  1  0
 29 30  1  0
 30 31  1  0
 31 32  1  0
 32 33  1  0
 33 34  1  0
 34 35  2  0
 35 36  1  0
 36 37  2  0
 37 38  1  0
 38 39  1  0
 38 40  2  0
 36 41  1  0
 41 42  2  0
 41 43  1  0
  9  4  1  0
 15  6  1  0
 27 22  1  0
 40 34  1  0
 43 20  1  0
M  END
$$$$
