
     RDKit          3D

 43 47  0  0  0  0  0  0  0  0999 V2000
  -15.0230  -35.0251  -14.3190 C   0  0  0  0  0  0  0  0  0  0  0  0
  -15.1242  -36.4751  -13.9312 C   0  0  0  0  0  0  0  0  0  0  0  0
  -15.1573  -37.4076  -15.1289 C   0  0  0  0  0  0  0  0  0  0  0  0
  -14.0798  -36.8520  -12.9448 C   0  0  0  0  0  0  0  0  0  0  0  0
  -14.3891  -37.7191  -11.9133 C   0  0  0  0  0  0  0  0  0  0  0  0
  -13.4338  -38.1026  -10.9928 C   0  0  0  0  0  0  0  0  0  0  0  0
  -12.1625  -37.5826  -11.1449 C   0  0  0  0  0  0  0  0  0  0  0  0
  -11.8245  -36.7054  -12.1756 C   0  0  0  0  0  0  0  0  0  0  0  0
  -12.8042  -36.3498  -13.0728 C   0  0  0  0  0  0  0  0  0  0  0  0
  -11.1471  -37.9201  -10.2559 O   0  0  0  0  0  0  0  0  0  0  0  0
  -11.2364  -39.0168   -9.3865 C   0  0  0  0  0  0  0  0  0  0  0  0
  -11.3947  -38.4487   -7.9750 C   0  0  0  0  0  0  0  0  0  0  0  0
   -9.9317  -39.7690   -9.4296 C   0  0  0  0  0  0  0  0  0  0  0  0
  -12.4196  -39.9010   -9.7311 C   0  0  0  0  0  0  0  0  0  0  0  0
  -13.6689  -39.0055   -9.9039 C   0  0  2  0  0  0  0  0  0  0  0  0
  -14.8273  -39.7990   -9.8226 N   0  0  0  0  0  0  0  0  0  0  0  0
  -15.8262  -39.4847   -8.8834 C   0  0  0  0  0  0  0  0  0  0  0  0
  -16.9358  -40.3841   -8.6126 C   0  0  1  0  0  0  0  0  0  0  0  0
  -16.4387  -41.4940   -7.8694 O   0  0  0  0  0  0  0  0  0  0  0  0
  -18.2000  -39.9826   -7.9729 C   0  0  2  0  0  0  0  0  0  0  0  0
  -19.0347  -39.0022   -8.7668 C   0  0  0  0  0  0  0  0  0  0  0  0
  -20.4942  -39.3687   -8.8503 C   0  0  0  0  0  0  0  0  0  0  0  0
  -21.1221  -40.3724   -9.5360 C   0  0  0  0  0  0  0  0  0  0  0  0
  -22.4952  -40.4837   -9.3982 C   0  0  0  0  0  0  0  0  0  0  0  0
  -23.2043  -39.5752   -8.5728 C   0  0  0  0  0  0  0  0  0  0  0  0
  -22.6010  -38.5651   -7.8787 C   0  0  0  0  0  0  0  0  0  0  0  0
  -21.2422  -38.4830   -8.0351 C   0  0  0  0  0  0  0  0  0  0  0  0
  -23.3669  -41.3842   -9.9624 O   0  0  0  0  0  0  0  0  0  0  0  0
  -23.5062  -42.7305  -10.1732 C   0  0  0  0  0  0  0  0  0  0  0  0
  -24.5711  -43.3374   -9.3001 C   0  0  0  0  0  0  0  0  0  0  0  0
  -24.1921  -43.2751   -7.8695 C   0  0  0  0  0  0  0  0  0  0  0  0
  -23.0703  -44.2198   -7.5210 C   0  0  0  0  0  0  0  0  0  0  0  0
  -22.3924  -43.8253   -6.4225 O   0  0  0  0  0  0  0  0  0  0  0  0
  -21.7217  -42.7824   -5.8540 C   0  0  0  0  0  0  0  0  0  0  0  0
  -20.4937  -42.2001   -6.1984 C   0  0  0  0  0  0  0  0  0  0  0  0
  -20.0485  -41.1531   -5.4455 C   0  0  0  0  0  0  0  0  0  0  0  0
  -20.8656  -40.7265   -4.3570 C   0  0  0  0  0  0  0  0  0  0  0  0
  -22.0656  -41.2885   -4.0122 C   0  0  0  0  0  0  0  0  0  0  0  0
  -22.8831  -40.7800   -2.8779 C   0  0  0  0  0  0  0  0  0  0  0  0
  -22.4406  -42.2980   -4.7823 N   0  0  0  0  0  0  0  0  0  0  0  0
  -18.8314  -40.3309   -5.5115 C   0  0  0  0  0  0  0  0  0  0  0  0
  -18.1956  -40.1416   -4.3731 O   0  0  0  0  0  0  0  0  0  0  0  0
  -18.1625  -39.6659   -6.5684 N   0  0  0  0  0  0  0  0  0  0  0  0
  1  2  1  0
  2  3  1  0
  2  4  1  0
  4  5  2  0
  5  6  1  0
  6  7  2  0
  7  8  1  0
  8  9  2  0
  7 10  1  0
 10 11  1  0
 11 12  1  0
 11 13  1  0
 11 14  1  0
 14 15  1  0
 15 16  1  6
 16 17  1  0
 17 18  1  0
 18 19  1  1
 18 20  1  0
 20 21  1  6
 21 22  1  0
 22 23  2  0
 23 24  1  0
 24 25  2  0
 25 26  1  0
 26 27  2  0
 24 28  1  0
 28 29  1  0
 29 30  1  0
 30 31  1  0
 31 32  1  0
 32 33  1  0
 33 34  1  0
 34 35  2  0
 35 36  1  0
 36 37  2  0
 37 38  1  0
 38 39  1  0
 38 40  2  0
 36 41  1  0
 41 42  2  0
 41 43  1  0
  9  4  1  0
 15  6  1  0
 27 22  1  0
 40 34  1  0
 43 20  1  0
M  END
$$$$
