
     RDKit          3D

 43 47  0  0  0  0  0  0  0  0999 V2000
  -17.9608  -38.5130  -12.4556 C   0  0  0  0  0  0  0  0  0  0  0  0
  -16.7103  -37.6976  -12.6414 C   0  0  0  0  0  0  0  0  0  0  0  0
  -16.8197  -36.3027  -12.0521 C   0  0  0  0  0  0  0  0  0  0  0  0
  -15.5066  -38.4247  -12.1637 C   0  0  0  0  0  0  0  0  0  0  0  0
  -15.3902  -38.7584  -10.8271 C   0  0  0  0  0  0  0  0  0  0  0  0
  -14.2917  -39.4512  -10.3576 C   0  0  0  0  0  0  0  0  0  0  0  0
  -13.3174  -39.7922  -11.2764 C   0  0  0  0  0  0  0  0  0  0  0  0
  -13.4098  -39.4667  -12.6298 C   0  0  0  0  0  0  0  0  0  0  0  0
  -14.5206  -38.7781  -13.0575 C   0  0  0  0  0  0  0  0  0  0  0  0
  -12.1804  -40.4882  -10.8792 O   0  0  0  0  0  0  0  0  0  0  0  0
  -12.0954  -41.1605   -9.6514 C   0  0  0  0  0  0  0  0  0  0  0  0
  -11.1199  -40.3664   -8.7806 C   0  0  0  0  0  0  0  0  0  0  0  0
  -11.4886  -42.5186   -9.8905 C   0  0  0  0  0  0  0  0  0  0  0  0
  -13.4496  -41.2489   -8.9740 C   0  0  0  0  0  0  0  0  0  0  0  0
  -14.1010  -39.8461   -8.9923 C   0  0  2  0  0  0  0  0  0  0  0  0
  -15.1398  -39.8010   -8.0451 N   0  0  0  0  0  0  0  0  0  0  0  0
  -15.7381  -38.5700   -7.7208 C   0  0  0  0  0  0  0  0  0  0  0  0
  -17.0195  -38.4951   -7.0382 C   0  0  1  0  0  0  0  0  0  0  0  0
  -17.8656  -37.6151   -7.7738 O   0  0  0  0  0  0  0  0  0  0  0  0
  -17.8417  -39.6612   -6.6737 C   0  0  2  0  0  0  0  0  0  0  0  0
  -18.5047  -39.5764   -5.3167 C   0  0  0  0  0  0  0  0  0  0  0  0
  -19.9619  -39.9612   -5.3229 C   0  0  0  0  0  0  0  0  0  0  0  0
  -21.0520  -39.3113   -5.8340 C   0  0  0  0  0  0  0  0  0  0  0  0
  -22.2843  -39.9308   -5.7139 C   0  0  0  0  0  0  0  0  0  0  0  0
  -22.3883  -41.1926   -5.0762 C   0  0  0  0  0  0  0  0  0  0  0  0
  -21.3158  -41.8612   -4.5577 C   0  0  0  0  0  0  0  0  0  0  0  0
  -20.1113  -41.2224   -4.6940 C   0  0  0  0  0  0  0  0  0  0  0  0
  -23.5252  -39.5117   -6.1307 O   0  0  0  0  0  0  0  0  0  0  0  0
  -24.1490  -38.9879   -7.2320 C   0  0  0  0  0  0  0  0  0  0  0  0
  -25.0517  -39.9863   -7.9050 C   0  0  0  0  0  0  0  0  0  0  0  0
  -24.2756  -41.1090   -8.4807 C   0  0  0  0  0  0  0  0  0  0  0  0
  -23.4716  -40.7035   -9.6896 C   0  0  0  0  0  0  0  0  0  0  0  0
  -22.4147  -41.5170   -9.8970 O   0  0  0  0  0  0  0  0  0  0  0  0
  -21.3072  -42.0593   -9.3136 C   0  0  0  0  0  0  0  0  0  0  0  0
  -20.1124  -41.4530   -8.9008 C   0  0  0  0  0  0  0  0  0  0  0  0
  -19.1532  -42.2450   -8.3405 C   0  0  0  0  0  0  0  0  0  0  0  0
  -19.4347  -43.6378   -8.2170 C   0  0  0  0  0  0  0  0  0  0  0  0
  -20.5976  -44.2396   -8.6173 C   0  0  0  0  0  0  0  0  0  0  0  0
  -20.8395  -45.6966   -8.4379 C   0  0  0  0  0  0  0  0  0  0  0  0
  -21.4864  -43.4164   -9.1513 N   0  0  0  0  0  0  0  0  0  0  0  0
  -17.8097  -41.9564   -7.8180 C   0  0  0  0  0  0  0  0  0  0  0  0
  -16.8458  -42.7612   -8.2171 O   0  0  0  0  0  0  0  0  0  0  0  0
  -17.2979  -40.9674   -6.9423 N   0  0  0  0  0  0  0  0  0  0  0  0
  1  2  1  0
  2  3  1  0
  2  4  1  0
  4  5  2  0
  5  6  1  0
  6  7  2  0
  7  8  1  0
  8  9  2  0
  7 10  1  0
 10 11  1  0
 11 12  1  0
 11 13  1  0
 11 14  1  0
 14 15  1  0
 15 16  1  1
 16 17  1  0
 17 18  1  0
 18 19  1  6
 18 20  1  0
 20 21  1  1
 21 22  1  0
 22 23  2  0
 23 24  1  0
 24 25  2  0
 25 26  1  0
 26 27  2  0
 24 28  1  0
 28 29  1  0
 29 30  1  0
 30 31  1  0
 31 32  1  0
 32 33  1  0
 33 34  1  0
 34 35  2  0
 35 36  1  0
 36 37  2  0
 37 38  1  0
 38 39  1  0
 38 40  2  0
 36 41  1  0
 41 42  2  0
 41 43  1  0
  9  4  1  0
 15  6  1  0
 27 22  1  0
 40 34  1  0
 43 20  1  0
M  END
$$$$
