
     RDKit          3D

 43 47  0  0  0  0  0  0  0  0999 V2000
  -12.8526  -33.5760  -10.8581 C   0  0  0  0  0  0  0  0  0  0  0  0
  -13.8962  -34.6569  -10.9335 C   0  0  0  0  0  0  0  0  0  0  0  0
  -14.9308  -34.4070  -12.0162 C   0  0  0  0  0  0  0  0  0  0  0  0
  -13.2815  -36.0052  -11.0337 C   0  0  0  0  0  0  0  0  0  0  0  0
  -13.5588  -36.9606  -10.0736 C   0  0  0  0  0  0  0  0  0  0  0  0
  -13.0173  -38.2286  -10.1514 C   0  0  0  0  0  0  0  0  0  0  0  0
  -12.1882  -38.4989  -11.2234 C   0  0  0  0  0  0  0  0  0  0  0  0
  -11.8913  -37.5530  -12.2048 C   0  0  0  0  0  0  0  0  0  0  0  0
  -12.4523  -36.3025  -12.0920 C   0  0  0  0  0  0  0  0  0  0  0  0
  -11.6031  -39.7525  -11.3690 O   0  0  0  0  0  0  0  0  0  0  0  0
  -12.0511  -40.8823  -10.6693 C   0  0  0  0  0  0  0  0  0  0  0  0
  -10.9725  -41.2185   -9.6379 C   0  0  0  0  0  0  0  0  0  0  0  0
  -12.1355  -42.0386  -11.6315 C   0  0  0  0  0  0  0  0  0  0  0  0
  -13.3736  -40.6154   -9.9763 C   0  0  0  0  0  0  0  0  0  0  0  0
  -13.2643  -39.2784   -9.2064 C   0  0  2  0  0  0  0  0  0  0  0  0
  -14.2949  -39.2032   -8.2521 N   0  0  0  0  0  0  0  0  0  0  0  0
  -14.7860  -40.3800   -7.6585 C   0  0  0  0  0  0  0  0  0  0  0  0
  -15.8602  -41.1530   -8.2603 C   0  0  1  0  0  0  0  0  0  0  0  0
  -16.0277  -42.3483   -7.5023 O   0  0  0  0  0  0  0  0  0  0  0  0
  -17.2117  -40.6352   -8.5322 C   0  0  2  0  0  0  0  0  0  0  0  0
  -17.7762  -41.0028   -9.8866 C   0  0  0  0  0  0  0  0  0  0  0  0
  -19.1955  -41.5075   -9.8412 C   0  0  0  0  0  0  0  0  0  0  0  0
  -19.7064  -42.6863   -9.3708 C   0  0  0  0  0  0  0  0  0  0  0  0
  -21.0779  -42.8639   -9.4358 C   0  0  0  0  0  0  0  0  0  0  0  0
  -21.9030  -41.8470   -9.9787 C   0  0  0  0  0  0  0  0  0  0  0  0
  -21.4176  -40.6623  -10.4550 C   0  0  0  0  0  0  0  0  0  0  0  0
  -20.0574  -40.5172  -10.3750 C   0  0  0  0  0  0  0  0  0  0  0  0
  -21.8474  -43.9322   -9.0413 O   0  0  0  0  0  0  0  0  0  0  0  0
  -22.0160  -44.7774   -7.9765 C   0  0  0  0  0  0  0  0  0  0  0  0
  -23.2905  -44.5014   -7.2254 C   0  0  0  0  0  0  0  0  0  0  0  0
  -23.2529  -43.1711   -6.5751 C   0  0  0  0  0  0  0  0  0  0  0  0
  -22.3036  -43.1197   -5.4052 C   0  0  0  0  0  0  0  0  0  0  0  0
  -21.8779  -41.8652   -5.1470 O   0  0  0  0  0  0  0  0  0  0  0  0
  -21.2957  -40.7612   -5.6975 C   0  0  0  0  0  0  0  0  0  0  0  0
  -19.9879  -40.5641   -6.1627 C   0  0  0  0  0  0  0  0  0  0  0  0
  -19.6673  -39.3392   -6.6709 C   0  0  0  0  0  0  0  0  0  0  0  0
  -20.6882  -38.3432   -6.6900 C   0  0  0  0  0  0  0  0  0  0  0  0
  -21.9677  -38.5254   -6.2378 C   0  0  0  0  0  0  0  0  0  0  0  0
  -22.9946  -37.4511   -6.3083 C   0  0  0  0  0  0  0  0  0  0  0  0
  -22.2139  -39.7349   -5.7588 N   0  0  0  0  0  0  0  0  0  0  0  0
  -18.4204  -38.7901   -7.2233 C   0  0  0  0  0  0  0  0  0  0  0  0
  -18.0575  -37.6059   -6.7738 O   0  0  0  0  0  0  0  0  0  0  0  0
  -17.4837  -39.2674   -8.1729 N   0  0  0  0  0  0  0  0  0  0  0  0
  1  2  1  0
  2  3  1  0
  2  4  1  0
  4  5  2  0
  5  6  1  0
  6  7  2  0
  7  8  1  0
  8  9  2  0
  7 10  1  0
 10 11  1  0
 11 12  1  0
 11 13  1  0
 11 14  1  0
 14 15  1  0
 15 16  1  6
 16 17  1  0
 17 18  1  0
 18 19  1  1
 18 20  1  0
 20 21  1  6
 21 22  1  0
 22 23  2  0
 23 24  1  0
 24 25  2  0
 25 26  1  0
 26 27  2  0
 24 28  1  0
 28 29  1  0
 29 30  1  0
 30 31  1  0
 31 32  1  0
 32 33  1  0
 33 34  1  0
 34 35  2  0
 35 36  1  0
 36 37  2  0
 37 38  1  0
 38 39  1  0
 38 40  2  0
 36 41  1  0
 41 42  2  0
 41 43  1  0
  9  4  1  0
 15  6  1  0
 27 22  1  0
 40 34  1  0
 43 20  1  0
M  END
$$$$
