
     RDKit          3D

 43 47  0  0  0  0  0  0  0  0999 V2000
   -9.1211  -38.9156  -10.8571 C   0  0  0  0  0  0  0  0  0  0  0  0
  -10.3706  -39.4384  -11.5117 C   0  0  0  0  0  0  0  0  0  0  0  0
  -10.9893  -40.6041  -10.7609 C   0  0  0  0  0  0  0  0  0  0  0  0
  -11.3459  -38.3503  -11.7772 C   0  0  0  0  0  0  0  0  0  0  0  0
  -12.6010  -38.3955  -11.1992 C   0  0  0  0  0  0  0  0  0  0  0  0
  -13.5215  -37.3884  -11.4123 C   0  0  0  0  0  0  0  0  0  0  0  0
  -13.1368  -36.3402  -12.2265 C   0  0  0  0  0  0  0  0  0  0  0  0
  -11.8774  -36.2708  -12.8226 C   0  0  0  0  0  0  0  0  0  0  0  0
  -10.9889  -37.2929  -12.5837 C   0  0  0  0  0  0  0  0  0  0  0  0
  -14.0097  -35.2897  -12.4904 O   0  0  0  0  0  0  0  0  0  0  0  0
  -15.1595  -35.0509  -11.7238 C   0  0  0  0  0  0  0  0  0  0  0  0
  -16.3584  -35.4093  -12.6038 C   0  0  0  0  0  0  0  0  0  0  0  0
  -15.2388  -33.5759  -11.4271 C   0  0  0  0  0  0  0  0  0  0  0  0
  -15.1669  -35.8909  -10.4610 C   0  0  0  0  0  0  0  0  0  0  0  0
  -14.8363  -37.3533  -10.8412 C   0  0  2  0  0  0  0  0  0  0  0  0
  -15.2232  -38.2075   -9.7929 N   0  0  0  0  0  0  0  0  0  0  0  0
  -16.3583  -39.0251   -9.9392 C   0  0  0  0  0  0  0  0  0  0  0  0
  -17.6834  -38.5774   -9.5428 C   0  0  1  0  0  0  0  0  0  0  0  0
  -18.6015  -38.9363  -10.5721 O   0  0  0  0  0  0  0  0  0  0  0  0
  -18.3323  -38.9152   -8.2647 C   0  0  2  0  0  0  0  0  0  0  0  0
  -19.3063  -37.8790   -7.7491 C   0  0  0  0  0  0  0  0  0  0  0  0
  -20.6186  -38.4530   -7.2803 C   0  0  0  0  0  0  0  0  0  0  0  0
  -21.6565  -38.9950   -7.9879 C   0  0  0  0  0  0  0  0  0  0  0  0
  -22.7407  -39.4748   -7.2729 C   0  0  0  0  0  0  0  0  0  0  0  0
  -22.7535  -39.3927   -5.8578 C   0  0  0  0  0  0  0  0  0  0  0  0
  -21.7306  -38.8560   -5.1286 C   0  0  0  0  0  0  0  0  0  0  0  0
  -20.6726  -38.3919   -5.8654 C   0  0  0  0  0  0  0  0  0  0  0  0
  -23.9009  -40.0606   -7.7198 O   0  0  0  0  0  0  0  0  0  0  0  0
  -24.3290  -41.0328   -8.5847 C   0  0  0  0  0  0  0  0  0  0  0  0
  -24.8364  -42.2533   -7.8652 C   0  0  0  0  0  0  0  0  0  0  0  0
  -23.7458  -42.9358   -7.1312 C   0  0  0  0  0  0  0  0  0  0  0  0
  -22.7664  -43.6235   -8.0477 C   0  0  0  0  0  0  0  0  0  0  0  0
  -21.5560  -43.7862   -7.4730 O   0  0  0  0  0  0  0  0  0  0  0  0
  -20.5394  -43.1364   -6.8365 C   0  0  0  0  0  0  0  0  0  0  0  0
  -19.6168  -42.2005   -7.3249 C   0  0  0  0  0  0  0  0  0  0  0  0
  -18.6883  -41.7044   -6.4570 C   0  0  0  0  0  0  0  0  0  0  0  0
  -18.7213  -42.1771   -5.1117 C   0  0  0  0  0  0  0  0  0  0  0  0
  -19.6175  -43.0908   -4.6251 C   0  0  0  0  0  0  0  0  0  0  0  0
  -19.6142  -43.5253   -3.2022 C   0  0  0  0  0  0  0  0  0  0  0  0
  -20.4913  -43.5316   -5.5168 N   0  0  0  0  0  0  0  0  0  0  0  0
  -17.5902  -40.7411   -6.6235 C   0  0  0  0  0  0  0  0  0  0  0  0
  -16.4237  -41.0979   -6.1253 O   0  0  0  0  0  0  0  0  0  0  0  0
  -17.5019  -39.4602   -7.2219 N   0  0  0  0  0  0  0  0  0  0  0  0
  1  2  1  0
  2  3  1  0
  2  4  1  0
  4  5  2  0
  5  6  1  0
  6  7  2  0
  7  8  1  0
  8  9  2  0
  7 10  1  0
 10 11  1  0
 11 12  1  0
 11 13  1  0
 11 14  1  0
 14 15  1  0
 15 16  1  1
 16 17  1  0
 17 18  1  0
 18 19  1  6
 18 20  1  0
 20 21  1  1
 21 22  1  0
 22 23  2  0
 23 24  1  0
 24 25  2  0
 25 26  1  0
 26 27  2  0
 24 28  1  0
 28 29  1  0
 29 30  1  0
 30 31  1  0
 31 32  1  0
 32 33  1  0
 33 34  1  0
 34 35  2  0
 35 36  1  0
 36 37  2  0
 37 38  1  0
 38 39  1  0
 38 40  2  0
 36 41  1  0
 41 42  2  0
 41 43  1  0
  9  4  1  0
 15  6  1  0
 27 22  1  0
 40 34  1  0
 43 20  1  0
M  END
$$$$
