
     RDKit          3D

 43 47  0  0  0  0  0  0  0  0999 V2000
  -12.2220  -38.3360  -11.7963 C   0  0  0  0  0  0  0  0  0  0  0  0
  -13.4428  -37.6446  -12.3392 C   0  0  0  0  0  0  0  0  0  0  0  0
  -14.1387  -38.4403  -13.4291 C   0  0  0  0  0  0  0  0  0  0  0  0
  -14.3692  -37.2362  -11.2526 C   0  0  0  0  0  0  0  0  0  0  0  0
  -15.1075  -38.1938  -10.5822 C   0  0  0  0  0  0  0  0  0  0  0  0
  -15.9621  -37.8459   -9.5548 C   0  0  0  0  0  0  0  0  0  0  0  0
  -16.0493  -36.5056   -9.2294 C   0  0  0  0  0  0  0  0  0  0  0  0
  -15.3166  -35.5196   -9.8905 C   0  0  0  0  0  0  0  0  0  0  0  0
  -14.4751  -35.9077  -10.9066 C   0  0  0  0  0  0  0  0  0  0  0  0
  -16.8904  -36.0771   -8.2077 O   0  0  0  0  0  0  0  0  0  0  0  0
  -17.4283  -36.9527   -7.2534 C   0  0  0  0  0  0  0  0  0  0  0  0
  -18.9241  -37.0669   -7.5536 C   0  0  0  0  0  0  0  0  0  0  0  0
  -17.2852  -36.3233   -5.8921 C   0  0  0  0  0  0  0  0  0  0  0  0
  -16.7738  -38.3190   -7.3250 C   0  0  0  0  0  0  0  0  0  0  0  0
  -16.7516  -38.7768   -8.8023 C   0  0  2  0  0  0  0  0  0  0  0  0
  -16.5324  -40.1650   -8.8580 N   0  0  0  0  0  0  0  0  0  0  0  0
  -17.4285  -40.9871   -9.5648 C   0  0  0  0  0  0  0  0  0  0  0  0
  -18.8640  -40.9267   -9.3433 C   0  0  1  0  0  0  0  0  0  0  0  0
  -19.5097  -41.6049  -10.4177 O   0  0  0  0  0  0  0  0  0  0  0  0
  -19.5380  -41.3599   -8.1077 C   0  0  2  0  0  0  0  0  0  0  0  0
  -20.6474  -40.4483   -7.6318 C   0  0  0  0  0  0  0  0  0  0  0  0
  -21.9105  -41.1733   -7.2439 C   0  0  0  0  0  0  0  0  0  0  0  0
  -22.8426  -41.8124   -8.0151 C   0  0  0  0  0  0  0  0  0  0  0  0
  -23.9029  -42.4234   -7.3676 C   0  0  0  0  0  0  0  0  0  0  0  0
  -23.9998  -42.3717   -5.9543 C   0  0  0  0  0  0  0  0  0  0  0  0
  -23.0832  -41.7400   -5.1625 C   0  0  0  0  0  0  0  0  0  0  0  0
  -22.0460  -41.1470   -5.8335 C   0  0  0  0  0  0  0  0  0  0  0  0
  -24.9652  -43.1248   -7.8858 O   0  0  0  0  0  0  0  0  0  0  0  0
  -25.2357  -44.1208   -8.7866 C   0  0  0  0  0  0  0  0  0  0  0  0
  -25.6413  -45.4041   -8.1134 C   0  0  0  0  0  0  0  0  0  0  0  0
  -24.5219  -45.9764   -7.3302 C   0  0  0  0  0  0  0  0  0  0  0  0
  -23.4247  -46.5331   -8.2012 C   0  0  0  0  0  0  0  0  0  0  0  0
  -22.2359  -46.5724   -7.5632 O   0  0  0  0  0  0  0  0  0  0  0  0
  -21.3333  -45.8272   -6.8627 C   0  0  0  0  0  0  0  0  0  0  0  0
  -20.4962  -44.7853   -7.2863 C   0  0  0  0  0  0  0  0  0  0  0  0
  -19.6762  -44.2072   -6.3619 C   0  0  0  0  0  0  0  0  0  0  0  0
  -19.7276  -44.7076   -5.0272 C   0  0  0  0  0  0  0  0  0  0  0  0
  -20.5408  -45.7245   -4.6036 C   0  0  0  0  0  0  0  0  0  0  0  0
  -20.5645  -46.1845   -3.1889 C   0  0  0  0  0  0  0  0  0  0  0  0
  -21.3114  -46.2412   -5.5480 N   0  0  0  0  0  0  0  0  0  0  0  0
  -18.6850  -43.1253   -6.4541 C   0  0  0  0  0  0  0  0  0  0  0  0
  -17.5141  -43.3608   -5.8977 O   0  0  0  0  0  0  0  0  0  0  0  0
  -18.7085  -41.8306   -7.0286 N   0  0  0  0  0  0  0  0  0  0  0  0
  1  2  1  0
  2  3  1  0
  2  4  1  0
  4  5  2  0
  5  6  1  0
  6  7  2  0
  7  8  1  0
  8  9  2  0
  7 10  1  0
 10 11  1  0
 11 12  1  0
 11 13  1  0
 11 14  1  0
 14 15  1  0
 15 16  1  1
 16 17  1  0
 17 18  1  0
 18 19  1  6
 18 20  1  0
 20 21  1  1
 21 22  1  0
 22 23  2  0
 23 24  1  0
 24 25  2  0
 25 26  1  0
 26 27  2  0
 24 28  1  0
 28 29  1  0
 29 30  1  0
 30 31  1  0
 31 32  1  0
 32 33  1  0
 33 34  1  0
 34 35  2  0
 35 36  1  0
 36 37  2  0
 37 38  1  0
 38 39  1  0
 38 40  2  0
 36 41  1  0
 41 42  2  0
 41 43  1  0
  9  4  1  0
 15  6  1  0
 27 22  1  0
 40 34  1  0
 43 20  1  0
M  END
$$$$
