
     RDKit          3D

 43 47  0  0  0  0  0  0  0  0999 V2000
  -15.3309  -35.7636  -12.5587 C   0  0  0  0  0  0  0  0  0  0  0  0
  -13.8421  -35.6409  -12.7361 C   0  0  0  0  0  0  0  0  0  0  0  0
  -13.2820  -34.3501  -12.1658 C   0  0  0  0  0  0  0  0  0  0  0  0
  -13.1298  -36.8425  -12.2316 C   0  0  0  0  0  0  0  0  0  0  0  0
  -13.5997  -37.5001  -11.1099 C   0  0  0  0  0  0  0  0  0  0  0  0
  -12.9695  -38.6310  -10.6293 C   0  0  0  0  0  0  0  0  0  0  0  0
  -11.8528  -39.0730  -11.3130 C   0  0  0  0  0  0  0  0  0  0  0  0
  -11.3574  -38.4276  -12.4462 C   0  0  0  0  0  0  0  0  0  0  0  0
  -12.0150  -37.3058  -12.8938 C   0  0  0  0  0  0  0  0  0  0  0  0
  -11.1627  -40.2037  -10.8883 O   0  0  0  0  0  0  0  0  0  0  0  0
  -11.7094  -41.1301   -9.9885 C   0  0  0  0  0  0  0  0  0  0  0  0
  -10.9473  -40.9685   -8.6719 C   0  0  0  0  0  0  0  0  0  0  0  0
  -11.4342  -42.5184  -10.5050 C   0  0  0  0  0  0  0  0  0  0  0  0
  -13.1898  -40.8825   -9.7707 C   0  0  0  0  0  0  0  0  0  0  0  0
  -13.3994  -39.3772   -9.4828 C   0  0  2  0  0  0  0  0  0  0  0  0
  -14.6613  -39.1859   -8.8918 N   0  0  0  0  0  0  0  0  0  0  0  0
  -15.5028  -40.2901   -8.6659 C   0  0  0  0  0  0  0  0  0  0  0  0
  -16.9071  -40.2750   -9.0418 C   0  0  1  0  0  0  0  0  0  0  0  0
  -17.2567  -41.5744   -9.5114 O   0  0  0  0  0  0  0  0  0  0  0  0
  -18.0034  -39.8376   -8.1612 C   0  0  2  0  0  0  0  0  0  0  0  0
  -18.8234  -38.6808   -8.6882 C   0  0  0  0  0  0  0  0  0  0  0  0
  -20.3123  -38.8841   -8.5732 C   0  0  0  0  0  0  0  0  0  0  0  0
  -21.1522  -39.7187   -9.2587 C   0  0  0  0  0  0  0  0  0  0  0  0
  -22.4924  -39.7087   -8.9115 C   0  0  0  0  0  0  0  0  0  0  0  0
  -22.9551  -38.8522   -7.8811 C   0  0  0  0  0  0  0  0  0  0  0  0
  -22.1373  -38.0099   -7.1826 C   0  0  0  0  0  0  0  0  0  0  0  0
  -20.8174  -38.0448   -7.5491 C   0  0  0  0  0  0  0  0  0  0  0  0
  -23.5409  -40.4334   -9.4259 O   0  0  0  0  0  0  0  0  0  0  0  0
  -23.8715  -41.7185   -9.7660 C   0  0  0  0  0  0  0  0  0  0  0  0
  -24.8587  -42.3265   -8.8066 C   0  0  0  0  0  0  0  0  0  0  0  0
  -24.2647  -42.4946   -7.4601 C   0  0  0  0  0  0  0  0  0  0  0  0
  -23.2255  -43.5855   -7.4125 C   0  0  0  0  0  0  0  0  0  0  0  0
  -22.3480  -43.4117   -6.4017 O   0  0  0  0  0  0  0  0  0  0  0  0
  -21.4789  -42.5270   -5.8336 C   0  0  0  0  0  0  0  0  0  0  0  0
  -20.2553  -42.0304   -6.3046 C   0  0  0  0  0  0  0  0  0  0  0  0
  -19.5793  -41.1437   -5.5184 C   0  0  0  0  0  0  0  0  0  0  0  0
  -20.1666  -40.7866   -4.2685 C   0  0  0  0  0  0  0  0  0  0  0  0
  -21.3602  -41.2660   -3.7994 C   0  0  0  0  0  0  0  0  0  0  0  0
  -21.9311  -40.8343   -2.4950 C   0  0  0  0  0  0  0  0  0  0  0  0
  -21.9653  -42.1206   -4.6095 N   0  0  0  0  0  0  0  0  0  0  0  0
  -18.2959  -40.4468   -5.6870 C   0  0  0  0  0  0  0  0  0  0  0  0
  -17.4784  -40.4764   -4.6540 O   0  0  0  0  0  0  0  0  0  0  0  0
  -17.7178  -39.7171   -6.7548 N   0  0  0  0  0  0  0  0  0  0  0  0
  1  2  1  0
  2  3  1  0
  2  4  1  0
  4  5  2  0
  5  6  1  0
  6  7  2  0
  7  8  1  0
  8  9  2  0
  7 10  1  0
 10 11  1  0
 11 12  1  0
 11 13  1  0
 11 14  1  0
 14 15  1  0
 15 16  1  6
 16 17  1  0
 17 18  1  0
 18 19  1  1
 18 20  1  0
 20 21  1  6
 21 22  1  0
 22 23  2  0
 23 24  1  0
 24 25  2  0
 25 26  1  0
 26 27  2  0
 24 28  1  0
 28 29  1  0
 29 30  1  0
 30 31  1  0
 31 32  1  0
 32 33  1  0
 33 34  1  0
 34 35  2  0
 35 36  1  0
 36 37  2  0
 37 38  1  0
 38 39  1  0
 38 40  2  0
 36 41  1  0
 41 42  2  0
 41 43  1  0
  9  4  1  0
 15  6  1  0
 27 22  1  0
 40 34  1  0
 43 20  1  0
M  END
$$$$
