
     RDKit          3D

 43 47  0  0  0  0  0  0  0  0999 V2000
  -12.9543  -33.8563  -11.5765 C   0  0  0  0  0  0  0  0  0  0  0  0
  -13.8787  -35.0373  -11.6943 C   0  0  0  0  0  0  0  0  0  0  0  0
  -14.5885  -35.1025  -13.0348 C   0  0  0  0  0  0  0  0  0  0  0  0
  -13.1897  -36.3079  -11.3525 C   0  0  0  0  0  0  0  0  0  0  0  0
  -13.7083  -37.1280  -10.3677 C   0  0  0  0  0  0  0  0  0  0  0  0
  -13.1003  -38.3244  -10.0421 C   0  0  0  0  0  0  0  0  0  0  0  0
  -11.9553  -38.6633  -10.7378 C   0  0  0  0  0  0  0  0  0  0  0  0
  -11.4108  -37.8536  -11.7348 C   0  0  0  0  0  0  0  0  0  0  0  0
  -12.0476  -36.6711  -12.0305 C   0  0  0  0  0  0  0  0  0  0  0  0
  -11.2850  -39.8513  -10.4648 O   0  0  0  0  0  0  0  0  0  0  0  0
  -11.8708  -40.9019   -9.7440 C   0  0  0  0  0  0  0  0  0  0  0  0
  -11.1663  -40.9522   -8.3869 C   0  0  0  0  0  0  0  0  0  0  0  0
  -11.5744  -42.1953  -10.4575 C   0  0  0  0  0  0  0  0  0  0  0  0
  -13.3591  -40.6801   -9.5537 C   0  0  0  0  0  0  0  0  0  0  0  0
  -13.5799  -39.2363   -9.0448 C   0  0  2  0  0  0  0  0  0  0  0  0
  -14.8661  -39.1296   -8.4856 N   0  0  0  0  0  0  0  0  0  0  0  0
  -15.9996  -39.3177   -9.2970 C   0  0  0  0  0  0  0  0  0  0  0  0
  -17.3065  -38.8032   -8.9217 C   0  0  1  0  0  0  0  0  0  0  0  0
  -18.1977  -39.0105  -10.0144 O   0  0  0  0  0  0  0  0  0  0  0  0
  -18.0385  -39.1894   -7.7036 C   0  0  2  0  0  0  0  0  0  0  0  0
  -18.8175  -38.0723   -7.0451 C   0  0  0  0  0  0  0  0  0  0  0  0
  -20.2245  -38.4518   -6.6608 C   0  0  0  0  0  0  0  0  0  0  0  0
  -21.3264  -38.6871   -7.4369 C   0  0  0  0  0  0  0  0  0  0  0  0
  -22.4981  -39.0517   -6.7959 C   0  0  0  0  0  0  0  0  0  0  0  0
  -22.5312  -39.1669   -5.3834 C   0  0  0  0  0  0  0  0  0  0  0  0
  -21.4456  -38.9371   -4.5867 C   0  0  0  0  0  0  0  0  0  0  0  0
  -20.3020  -38.5798   -5.2516 C   0  0  0  0  0  0  0  0  0  0  0  0
  -23.7348  -39.3432   -7.3199 O   0  0  0  0  0  0  0  0  0  0  0  0
  -24.3129  -40.0884   -8.3135 C   0  0  0  0  0  0  0  0  0  0  0  0
  -25.0546  -41.2813   -7.7737 C   0  0  0  0  0  0  0  0  0  0  0  0
  -24.1274  -42.2505   -7.1452 C   0  0  0  0  0  0  0  0  0  0  0  0
  -23.2688  -42.9737   -8.1512 C   0  0  0  0  0  0  0  0  0  0  0  0
  -22.1240  -43.4374   -7.6068 O   0  0  0  0  0  0  0  0  0  0  0  0
  -21.0214  -43.0834   -6.8858 C   0  0  0  0  0  0  0  0  0  0  0  0
  -19.9301  -42.2767   -7.2376 C   0  0  0  0  0  0  0  0  0  0  0  0
  -18.9482  -42.0882   -6.3093 C   0  0  0  0  0  0  0  0  0  0  0  0
  -19.1017  -42.7295   -5.0446 C   0  0  0  0  0  0  0  0  0  0  0  0
  -20.1629  -43.5193   -4.6915 C   0  0  0  0  0  0  0  0  0  0  0  0
  -20.2757  -44.1411   -3.3445 C   0  0  0  0  0  0  0  0  0  0  0  0
  -21.0803  -43.6610   -5.6356 N   0  0  0  0  0  0  0  0  0  0  0  0
  -17.6874  -41.3324   -6.3389 C   0  0  0  0  0  0  0  0  0  0  0  0
  -16.6197  -41.9660   -5.8977 O   0  0  0  0  0  0  0  0  0  0  0  0
  -17.3494  -40.0195   -6.7496 N   0  0  0  0  0  0  0  0  0  0  0  0
  1  2  1  0
  2  3  1  0
  2  4  1  0
  4  5  2  0
  5  6  1  0
  6  7  2  0
  7  8  1  0
  8  9  2  0
  7 10  1  0
 10 11  1  0
 11 12  1  0
 11 13  1  0
 11 14  1  0
 14 15  1  0
 15 16  1  6
 16 17  1  0
 17 18  1  0
 18 19  1  6
 18 20  1  0
 20 21  1  1
 21 22  1  0
 22 23  2  0
 23 24  1  0
 24 25  2  0
 25 26  1  0
 26 27  2  0
 24 28  1  0
 28 29  1  0
 29 30  1  0
 30 31  1  0
 31 32  1  0
 32 33  1  0
 33 34  1  0
 34 35  2  0
 35 36  1  0
 36 37  2  0
 37 38  1  0
 38 39  1  0
 38 40  2  0
 36 41  1  0
 41 42  2  0
 41 43  1  0
  9  4  1  0
 15  6  1  0
 27 22  1  0
 40 34  1  0
 43 20  1  0
M  END
$$$$
