
     RDKit          3D

 43 47  0  0  0  0  0  0  0  0999 V2000
  -13.7526  -43.1656  -11.9766 C   0  0  0  0  0  0  0  0  0  0  0  0
  -12.6653  -42.6387  -12.8729 C   0  0  0  0  0  0  0  0  0  0  0  0
  -13.0185  -42.7266  -14.3470 C   0  0  0  0  0  0  0  0  0  0  0  0
  -12.2371  -41.2747  -12.4704 C   0  0  0  0  0  0  0  0  0  0  0  0
  -13.1872  -40.3133  -12.1802 C   0  0  0  0  0  0  0  0  0  0  0  0
  -12.8188  -39.0425  -11.7846 C   0  0  0  0  0  0  0  0  0  0  0  0
  -11.4662  -38.7740  -11.6947 C   0  0  0  0  0  0  0  0  0  0  0  0
  -10.4874  -39.7254  -11.9829 C   0  0  0  0  0  0  0  0  0  0  0  0
  -10.8958  -40.9797  -12.3714 C   0  0  0  0  0  0  0  0  0  0  0  0
  -11.0171  -37.5163  -11.3054 O   0  0  0  0  0  0  0  0  0  0  0  0
  -11.8486  -36.5766  -10.6792 C   0  0  0  0  0  0  0  0  0  0  0  0
  -12.0922  -35.4580  -11.6940 C   0  0  0  0  0  0  0  0  0  0  0  0
  -11.1028  -35.9786   -9.5147 C   0  0  0  0  0  0  0  0  0  0  0  0
  -13.1666  -37.1978  -10.2579 C   0  0  0  0  0  0  0  0  0  0  0  0
  -13.7394  -37.9941  -11.4538 C   0  0  2  0  0  0  0  0  0  0  0  0
  -15.1086  -38.2358  -11.2413 N   0  0  0  0  0  0  0  0  0  0  0  0
  -15.5110  -39.1989  -10.2983 C   0  0  0  0  0  0  0  0  0  0  0  0
  -16.9045  -39.5806  -10.1373 C   0  0  1  0  0  0  0  0  0  0  0  0
  -17.0197  -40.9739  -10.4140 O   0  0  0  0  0  0  0  0  0  0  0  0
  -17.7070  -39.3245   -8.9294 C   0  0  2  0  0  0  0  0  0  0  0  0
  -18.5649  -38.0798   -8.9843 C   0  0  0  0  0  0  0  0  0  0  0  0
  -19.9825  -38.2932   -8.5194 C   0  0  0  0  0  0  0  0  0  0  0  0
  -21.0197  -38.9660   -9.1055 C   0  0  0  0  0  0  0  0  0  0  0  0
  -22.2211  -39.0186   -8.4194 C   0  0  0  0  0  0  0  0  0  0  0  0
  -22.3489  -38.3864   -7.1571 C   0  0  0  0  0  0  0  0  0  0  0  0
  -21.3293  -37.7085   -6.5514 C   0  0  0  0  0  0  0  0  0  0  0  0
  -20.1540  -37.6763   -7.2551 C   0  0  0  0  0  0  0  0  0  0  0  0
  -23.4085  -39.6172   -8.7672 O   0  0  0  0  0  0  0  0  0  0  0  0
  -23.8920  -40.8045   -9.2501 C   0  0  0  0  0  0  0  0  0  0  0  0
  -24.6314  -41.5887   -8.1999 C   0  0  0  0  0  0  0  0  0  0  0  0
  -23.7200  -42.0304   -7.1190 C   0  0  0  0  0  0  0  0  0  0  0  0
  -22.7710  -43.1144   -7.5621 C   0  0  0  0  0  0  0  0  0  0  0  0
  -21.6529  -43.1550   -6.8072 O   0  0  0  0  0  0  0  0  0  0  0  0
  -20.6149  -42.4094   -6.3300 C   0  0  0  0  0  0  0  0  0  0  0  0
  -19.5278  -41.8350   -7.0036 C   0  0  0  0  0  0  0  0  0  0  0  0
  -18.6195  -41.1306   -6.2686 C   0  0  0  0  0  0  0  0  0  0  0  0
  -18.8403  -41.0312   -4.8630 C   0  0  0  0  0  0  0  0  0  0  0  0
  -19.8981  -41.5887   -4.1958 C   0  0  0  0  0  0  0  0  0  0  0  0
  -20.0846  -41.4274   -2.7286 C   0  0  0  0  0  0  0  0  0  0  0  0
  -20.7424  -42.2572   -4.9659 N   0  0  0  0  0  0  0  0  0  0  0  0
  -17.3842  -40.4217   -6.6337 C   0  0  0  0  0  0  0  0  0  0  0  0
  -16.3304  -40.6656   -5.8814 O   0  0  0  0  0  0  0  0  0  0  0  0
  -17.0601  -39.4939   -7.6539 N   0  0  0  0  0  0  0  0  0  0  0  0
  1  2  1  0
  2  3  1  0
  2  4  1  0
  4  5  2  0
  5  6  1  0
  6  7  2  0
  7  8  1  0
  8  9  2  0
  7 10  1  0
 10 11  1  0
 11 12  1  0
 11 13  1  0
 11 14  1  0
 14 15  1  0
 15 16  1  1
 16 17  1  0
 17 18  1  0
 18 19  1  1
 18 20  1  0
 20 21  1  6
 21 22  1  0
 22 23  2  0
 23 24  1  0
 24 25  2  0
 25 26  1  0
 26 27  2  0
 24 28  1  0
 28 29  1  0
 29 30  1  0
 30 31  1  0
 31 32  1  0
 32 33  1  0
 33 34  1  0
 34 35  2  0
 35 36  1  0
 36 37  2  0
 37 38  1  0
 38 39  1  0
 38 40  2  0
 36 41  1  0
 41 42  2  0
 41 43  1  0
  9  4  1  0
 15  6  1  0
 27 22  1  0
 40 34  1  0
 43 20  1  0
M  END
$$$$
