
     RDKit          3D

 43 47  0  0  0  0  0  0  0  0999 V2000
  -19.7578  -42.0204   -2.7720 C   0  0  0  0  0  0  0  0  0  0  0  0
  -20.9243  -41.0827   -2.6190 C   0  0  0  0  0  0  0  0  0  0  0  0
  -20.8576  -40.2571   -1.3465 C   0  0  0  0  0  0  0  0  0  0  0  0
  -21.1167  -40.2461   -3.8309 C   0  0  0  0  0  0  0  0  0  0  0  0
  -20.0196  -39.7010   -4.4717 C   0  0  0  0  0  0  0  0  0  0  0  0
  -20.1664  -38.9354   -5.6115 C   0  0  0  0  0  0  0  0  0  0  0  0
  -21.4512  -38.7361   -6.0799 C   0  0  0  0  0  0  0  0  0  0  0  0
  -22.5750  -39.2736   -5.4518 C   0  0  0  0  0  0  0  0  0  0  0  0
  -22.3858  -40.0320   -4.3204 C   0  0  0  0  0  0  0  0  0  0  0  0
  -21.6799  -37.9742   -7.2210 O   0  0  0  0  0  0  0  0  0  0  0  0
  -20.6629  -37.6500   -8.1305 C   0  0  0  0  0  0  0  0  0  0  0  0
  -20.3935  -36.1521   -7.9751 C   0  0  0  0  0  0  0  0  0  0  0  0
  -21.1803  -37.8757   -9.5274 C   0  0  0  0  0  0  0  0  0  0  0  0
  -19.3991  -38.4411   -7.8524 C   0  0  0  0  0  0  0  0  0  0  0  0
  -19.0820  -38.3461   -6.3415 C   0  0  2  0  0  0  0  0  0  0  0  0
  -17.7418  -38.7118   -6.1215 N   0  0  0  0  0  0  0  0  0  0  0  0
  -17.2383  -39.8976   -6.6861 C   0  0  0  0  0  0  0  0  0  0  0  0
  -17.2226  -40.1176   -8.1231 C   0  0  1  0  0  0  0  0  0  0  0  0
  -15.9116  -40.5340   -8.4959 O   0  0  0  0  0  0  0  0  0  0  0  0
  -18.1622  -40.9920   -8.8451 C   0  0  2  0  0  0  0  0  0  0  0  0
  -18.2608  -40.7340  -10.3324 C   0  0  0  0  0  0  0  0  0  0  0  0
  -18.2021  -41.9822  -11.1749 C   0  0  0  0  0  0  0  0  0  0  0  0
  -17.1586  -42.8242  -11.4469 C   0  0  0  0  0  0  0  0  0  0  0  0
  -17.4134  -43.9266  -12.2449 C   0  0  0  0  0  0  0  0  0  0  0  0
  -18.7172  -44.1516  -12.7537 C   0  0  0  0  0  0  0  0  0  0  0  0
  -19.7750  -43.3262  -12.4972 C   0  0  0  0  0  0  0  0  0  0  0  0
  -19.4902  -42.2459  -11.7037 C   0  0  0  0  0  0  0  0  0  0  0  0
  -16.5651  -44.9209  -12.6703 O   0  0  0  0  0  0  0  0  0  0  0  0
  -15.6112  -45.7758  -12.1850 C   0  0  0  0  0  0  0  0  0  0  0  0
  -16.0954  -47.1996  -12.1313 C   0  0  0  0  0  0  0  0  0  0  0  0
  -17.1941  -47.3563  -11.1504 C   0  0  0  0  0  0  0  0  0  0  0  0
  -16.7235  -47.2399   -9.7231 C   0  0  0  0  0  0  0  0  0  0  0  0
  -17.7156  -46.8694   -8.8863 O   0  0  0  0  0  0  0  0  0  0  0  0
  -18.6843  -45.9342   -8.6675 C   0  0  0  0  0  0  0  0  0  0  0  0
  -18.5739  -44.5808   -8.3186 C   0  0  0  0  0  0  0  0  0  0  0  0
  -19.7246  -43.8658   -8.1567 C   0  0  0  0  0  0  0  0  0  0  0  0
  -20.9611  -44.5495   -8.3520 C   0  0  0  0  0  0  0  0  0  0  0  0
  -21.0796  -45.8704   -8.6922 C   0  0  0  0  0  0  0  0  0  0  0  0
  -22.4014  -46.5193   -8.9056 C   0  0  0  0  0  0  0  0  0  0  0  0
  -19.9272  -46.5064   -8.8350 N   0  0  0  0  0  0  0  0  0  0  0  0
  -19.9784  -42.4646   -7.7910 C   0  0  0  0  0  0  0  0  0  0  0  0
  -20.8848  -42.2631   -6.8562 O   0  0  0  0  0  0  0  0  0  0  0  0
  -19.4468  -41.2305   -8.2394 N   0  0  0  0  0  0  0  0  0  0  0  0
  1  2  1  0
  2  3  1  0
  2  4  1  0
  4  5  2  0
  5  6  1  0
  6  7  2  0
  7  8  1  0
  8  9  2  0
  7 10  1  0
 10 11  1  0
 11 12  1  0
 11 13  1  0
 11 14  1  0
 14 15  1  0
 15 16  1  6
 16 17  1  0
 17 18  1  0
 18 19  1  1
 18 20  1  0
 20 21  1  6
 21 22  1  0
 22 23  2  0
 23 24  1  0
 24 25  2  0
 25 26  1  0
 26 27  2  0
 24 28  1  0
 28 29  1  0
 29 30  1  0
 30 31  1  0
 31 32  1  0
 32 33  1  0
 33 34  1  0
 34 35  2  0
 35 36  1  0
 36 37  2  0
 37 38  1  0
 38 39  1  0
 38 40  2  0
 36 41  1  0
 41 42  2  0
 41 43  1  0
  9  4  1  0
 15  6  1  0
 27 22  1  0
 40 34  1  0
 43 20  1  0
M  END
$$$$
