
     RDKit          3D

 43 47  0  0  0  0  0  0  0  0999 V2000
  -16.8397  -37.4856  -13.8071 C   0  0  0  0  0  0  0  0  0  0  0  0
  -15.5888  -36.6923  -13.5444 C   0  0  0  0  0  0  0  0  0  0  0  0
  -15.8530  -35.4037  -12.7861 C   0  0  0  0  0  0  0  0  0  0  0  0
  -14.5375  -37.5238  -12.9049 C   0  0  0  0  0  0  0  0  0  0  0  0
  -14.7676  -38.0890  -11.6644 C   0  0  0  0  0  0  0  0  0  0  0  0
  -13.8162  -38.8826  -11.0542 C   0  0  0  0  0  0  0  0  0  0  0  0
  -12.6292  -39.0838  -11.7325 C   0  0  0  0  0  0  0  0  0  0  0  0
  -12.3713  -38.5244  -12.9842 C   0  0  0  0  0  0  0  0  0  0  0  0
  -13.3454  -37.7419  -13.5586 C   0  0  0  0  0  0  0  0  0  0  0  0
  -11.6217  -39.8689  -11.1814 O   0  0  0  0  0  0  0  0  0  0  0  0
  -11.8469  -40.7475  -10.1118 C   0  0  0  0  0  0  0  0  0  0  0  0
  -11.1488  -40.1444   -8.8915 C   0  0  0  0  0  0  0  0  0  0  0  0
  -11.1717  -42.0587  -10.4194 C   0  0  0  0  0  0  0  0  0  0  0  0
  -13.3290  -40.9164   -9.8372 C   0  0  0  0  0  0  0  0  0  0  0  0
  -13.9809  -39.5150   -9.7778 C   0  0  2  0  0  0  0  0  0  0  0  0
  -15.2317  -39.6082   -9.1413 N   0  0  0  0  0  0  0  0  0  0  0  0
  -15.8346  -38.4534   -8.6108 C   0  0  0  0  0  0  0  0  0  0  0  0
  -16.6552  -38.4974   -7.4116 C   0  0  1  0  0  0  0  0  0  0  0  0
  -17.5976  -37.4303   -7.4769 O   0  0  0  0  0  0  0  0  0  0  0  0
  -17.3952  -39.6834   -6.9482 C   0  0  2  0  0  0  0  0  0  0  0  0
  -17.7990  -39.6553   -5.4907 C   0  0  0  0  0  0  0  0  0  0  0  0
  -19.2321  -40.0520   -5.2454 C   0  0  0  0  0  0  0  0  0  0  0  0
  -20.3982  -39.3926   -5.5232 C   0  0  0  0  0  0  0  0  0  0  0  0
  -21.5869  -40.0267   -5.2039 C   0  0  0  0  0  0  0  0  0  0  0  0
  -21.5706  -41.3124   -4.6071 C   0  0  0  0  0  0  0  0  0  0  0  0
  -20.4204  -41.9909   -4.3194 C   0  0  0  0  0  0  0  0  0  0  0  0
  -19.2620  -41.3372   -4.6488 C   0  0  0  0  0  0  0  0  0  0  0  0
  -22.8837  -39.6027   -5.3706 O   0  0  0  0  0  0  0  0  0  0  0  0
  -23.6992  -39.0432   -6.3184 C   0  0  0  0  0  0  0  0  0  0  0  0
  -24.7083  -40.0232   -6.8531 C   0  0  0  0  0  0  0  0  0  0  0  0
  -24.0488  -41.1168   -7.6037 C   0  0  0  0  0  0  0  0  0  0  0  0
  -23.4801  -40.6593   -8.9226 C   0  0  0  0  0  0  0  0  0  0  0  0
  -22.4778  -41.4554   -9.3508 O   0  0  0  0  0  0  0  0  0  0  0  0
  -21.2815  -42.0098   -9.0009 C   0  0  0  0  0  0  0  0  0  0  0  0
  -20.0323  -41.4093   -8.7903 C   0  0  0  0  0  0  0  0  0  0  0  0
  -18.9856  -42.2137   -8.4456 C   0  0  0  0  0  0  0  0  0  0  0  0
  -19.2376  -43.6125   -8.3266 C   0  0  0  0  0  0  0  0  0  0  0  0
  -20.4532  -44.2087   -8.5305 C   0  0  0  0  0  0  0  0  0  0  0  0
  -20.6561  -45.6734   -8.3663 C   0  0  0  0  0  0  0  0  0  0  0  0
  -21.4260  -43.3736   -8.8610 N   0  0  0  0  0  0  0  0  0  0  0  0
  -17.5695  -41.9335   -8.1666 C   0  0  0  0  0  0  0  0  0  0  0  0
  -16.6937  -42.7145   -8.7658 O   0  0  0  0  0  0  0  0  0  0  0  0
  -16.9077  -40.9739   -7.3618 N   0  0  0  0  0  0  0  0  0  0  0  0
  1  2  1  0
  2  3  1  0
  2  4  1  0
  4  5  2  0
  5  6  1  0
  6  7  2  0
  7  8  1  0
  8  9  2  0
  7 10  1  0
 10 11  1  0
 11 12  1  0
 11 13  1  0
 11 14  1  0
 14 15  1  0
 15 16  1  6
 16 17  1  0
 17 18  1  0
 18 19  1  6
 18 20  1  0
 20 21  1  1
 21 22  1  0
 22 23  2  0
 23 24  1  0
 24 25  2  0
 25 26  1  0
 26 27  2  0
 24 28  1  0
 28 29  1  0
 29 30  1  0
 30 31  1  0
 31 32  1  0
 32 33  1  0
 33 34  1  0
 34 35  2  0
 35 36  1  0
 36 37  2  0
 37 38  1  0
 38 39  1  0
 38 40  2  0
 36 41  1  0
 41 42  2  0
 41 43  1  0
  9  4  1  0
 15  6  1  0
 27 22  1  0
 40 34  1  0
 43 20  1  0
M  END
$$$$
