
     RDKit          3D

 43 47  0  0  0  0  0  0  0  0999 V2000
  -19.2801  -36.1361  -11.6325 C   0  0  0  0  0  0  0  0  0  0  0  0
  -18.4798  -37.0247  -12.5452 C   0  0  0  0  0  0  0  0  0  0  0  0
  -18.4222  -36.5097  -13.9723 C   0  0  0  0  0  0  0  0  0  0  0  0
  -17.1330  -37.3106  -11.9883 C   0  0  0  0  0  0  0  0  0  0  0  0
  -16.7374  -38.6193  -11.7827 C   0  0  0  0  0  0  0  0  0  0  0  0
  -15.4841  -38.9160  -11.2845 C   0  0  0  0  0  0  0  0  0  0  0  0
  -14.6478  -37.8535  -10.9990 C   0  0  0  0  0  0  0  0  0  0  0  0
  -15.0226  -36.5243  -11.1960 C   0  0  0  0  0  0  0  0  0  0  0  0
  -16.2785  -36.2712  -11.6957 C   0  0  0  0  0  0  0  0  0  0  0  0
  -13.3711  -38.0723  -10.4919 O   0  0  0  0  0  0  0  0  0  0  0  0
  -12.7391  -39.3229  -10.5475 C   0  0  0  0  0  0  0  0  0  0  0  0
  -12.6929  -39.8576   -9.1148 C   0  0  0  0  0  0  0  0  0  0  0  0
  -11.3172  -39.1207  -11.0027 C   0  0  0  0  0  0  0  0  0  0  0  0
  -13.4959  -40.2860  -11.4419 C   0  0  0  0  0  0  0  0  0  0  0  0
  -14.9929  -40.2434  -11.0549 C   0  0  2  0  0  0  0  0  0  0  0  0
  -15.6401  -41.3829  -11.5658 N   0  0  0  0  0  0  0  0  0  0  0  0
  -16.1622  -42.3458  -10.6834 C   0  0  0  0  0  0  0  0  0  0  0  0
  -17.5878  -42.6183  -10.6002 C   0  0  1  0  0  0  0  0  0  0  0  0
  -17.7598  -43.9485  -10.1183 O   0  0  0  0  0  0  0  0  0  0  0  0
  -18.5580  -41.7803   -9.8756 C   0  0  2  0  0  0  0  0  0  0  0  0
  -19.8580  -41.5299  -10.6074 C   0  0  0  0  0  0  0  0  0  0  0  0
  -21.0864  -41.7255   -9.7564 C   0  0  0  0  0  0  0  0  0  0  0  0
  -21.6516  -42.8676   -9.2584 C   0  0  0  0  0  0  0  0  0  0  0  0
  -22.7827  -42.7346   -8.4711 C   0  0  0  0  0  0  0  0  0  0  0  0
  -23.3200  -41.4496   -8.2074 C   0  0  0  0  0  0  0  0  0  0  0  0
  -22.7749  -40.2949   -8.6929 C   0  0  0  0  0  0  0  0  0  0  0  0
  -21.6562  -40.4607   -9.4666 C   0  0  0  0  0  0  0  0  0  0  0  0
  -23.5424  -43.6976   -7.8509 O   0  0  0  0  0  0  0  0  0  0  0  0
  -23.4021  -44.8106   -7.0648 C   0  0  0  0  0  0  0  0  0  0  0  0
  -23.8458  -44.5676   -5.6476 C   0  0  0  0  0  0  0  0  0  0  0  0
  -22.9675  -43.5854   -4.9710 C   0  0  0  0  0  0  0  0  0  0  0  0
  -21.5971  -44.1370   -4.6710 C   0  0  0  0  0  0  0  0  0  0  0  0
  -20.6698  -43.1639   -4.5490 O   0  0  0  0  0  0  0  0  0  0  0  0
  -20.1226  -42.0764   -5.1645 C   0  0  0  0  0  0  0  0  0  0  0  0
  -19.3216  -41.9931   -6.3121 C   0  0  0  0  0  0  0  0  0  0  0  0
  -18.9026  -40.7578   -6.7117 C   0  0  0  0  0  0  0  0  0  0  0  0
  -19.3087  -39.6364   -5.9293 C   0  0  0  0  0  0  0  0  0  0  0  0
  -20.0900  -39.7071   -4.8071 C   0  0  0  0  0  0  0  0  0  0  0  0
  -20.4995  -38.4950   -4.0478 C   0  0  0  0  0  0  0  0  0  0  0  0
  -20.4633  -40.9330   -4.4741 N   0  0  0  0  0  0  0  0  0  0  0  0
  -18.0640  -40.3097   -7.8331 C   0  0  0  0  0  0  0  0  0  0  0  0
  -17.1055  -39.4555   -7.5369 O   0  0  0  0  0  0  0  0  0  0  0  0
  -18.0570  -40.6001   -9.2196 N   0  0  0  0  0  0  0  0  0  0  0  0
  1  2  1  0
  2  3  1  0
  2  4  1  0
  4  5  2  0
  5  6  1  0
  6  7  2  0
  7  8  1  0
  8  9  2  0
  7 10  1  0
 10 11  1  0
 11 12  1  0
 11 13  1  0
 11 14  1  0
 14 15  1  0
 15 16  1  6
 16 17  1  0
 17 18  1  0
 18 19  1  1
 18 20  1  0
 20 21  1  6
 21 22  1  0
 22 23  2  0
 23 24  1  0
 24 25  2  0
 25 26  1  0
 26 27  2  0
 24 28  1  0
 28 29  1  0
 29 30  1  0
 30 31  1  0
 31 32  1  0
 32 33  1  0
 33 34  1  0
 34 35  2  0
 35 36  1  0
 36 37  2  0
 37 38  1  0
 38 39  1  0
 38 40  2  0
 36 41  1  0
 41 42  2  0
 41 43  1  0
  9  4  1  0
 15  6  1  0
 27 22  1  0
 40 34  1  0
 43 20  1  0
M  END
$$$$
