
     RDKit          3D

 43 47  0  0  0  0  0  0  0  0999 V2000
  -15.8134  -33.6851   -9.8231 C   0  0  0  0  0  0  0  0  0  0  0  0
  -15.0060  -34.1503  -11.0041 C   0  0  0  0  0  0  0  0  0  0  0  0
  -13.5524  -33.7169  -10.9354 C   0  0  0  0  0  0  0  0  0  0  0  0
  -15.1546  -35.6110  -11.2277 C   0  0  0  0  0  0  0  0  0  0  0  0
  -14.6980  -36.5026  -10.2749 C   0  0  0  0  0  0  0  0  0  0  0  0
  -14.8401  -37.8654  -10.4466 C   0  0  0  0  0  0  0  0  0  0  0  0
  -15.4528  -38.2973  -11.6076 C   0  0  0  0  0  0  0  0  0  0  0  0
  -15.9213  -37.4192  -12.5851 C   0  0  0  0  0  0  0  0  0  0  0  0
  -15.7623  -36.0694  -12.3751 C   0  0  0  0  0  0  0  0  0  0  0  0
  -15.6298  -39.6550  -11.8533 O   0  0  0  0  0  0  0  0  0  0  0  0
  -15.5170  -40.6266  -10.8483 C   0  0  0  0  0  0  0  0  0  0  0  0
  -14.2324  -41.4074  -11.1320 C   0  0  0  0  0  0  0  0  0  0  0  0
  -16.6704  -41.5870  -10.9797 C   0  0  0  0  0  0  0  0  0  0  0  0
  -15.4521  -39.9937   -9.4715 C   0  0  0  0  0  0  0  0  0  0  0  0
  -14.4065  -38.8542   -9.5030 C   0  0  2  0  0  0  0  0  0  0  0  0
  -14.0346  -38.5250   -8.1871 N   0  0  0  0  0  0  0  0  0  0  0  0
  -14.8697  -38.8832   -7.1135 C   0  0  0  0  0  0  0  0  0  0  0  0
  -15.7118  -40.0674   -7.1577 C   0  0  1  0  0  0  0  0  0  0  0  0
  -16.0167  -40.4478   -5.8184 O   0  0  0  0  0  0  0  0  0  0  0  0
  -16.9674  -40.1721   -7.9201 C   0  0  2  0  0  0  0  0  0  0  0  0
  -16.8889  -41.0262   -9.1662 C   0  0  0  0  0  0  0  0  0  0  0  0
  -18.0288  -42.0012   -9.3121 C   0  0  0  0  0  0  0  0  0  0  0  0
  -18.3184  -43.1427   -8.6157 C   0  0  0  0  0  0  0  0  0  0  0  0
  -19.4689  -43.8316   -8.9605 C   0  0  0  0  0  0  0  0  0  0  0  0
  -20.2998  -43.3532  -10.0046 C   0  0  0  0  0  0  0  0  0  0  0  0
  -20.0325  -42.2173  -10.7148 C   0  0  0  0  0  0  0  0  0  0  0  0
  -18.8883  -41.5584  -10.3483 C   0  0  0  0  0  0  0  0  0  0  0  0
  -19.9935  -44.9884   -8.4355 O   0  0  0  0  0  0  0  0  0  0  0  0
  -20.2818  -45.5649   -7.2267 C   0  0  0  0  0  0  0  0  0  0  0  0
  -21.7618  -45.6218   -6.9604 C   0  0  0  0  0  0  0  0  0  0  0  0
  -22.3329  -44.2633   -6.8112 C   0  0  0  0  0  0  0  0  0  0  0  0
  -21.9137  -43.5914   -5.5286 C   0  0  0  0  0  0  0  0  0  0  0  0
  -21.9789  -42.2458   -5.6114 O   0  0  0  0  0  0  0  0  0  0  0  0
  -21.5763  -41.1632   -6.3371 C   0  0  0  0  0  0  0  0  0  0  0  0
  -20.3009  -40.6030   -6.4958 C   0  0  0  0  0  0  0  0  0  0  0  0
  -20.1808  -39.5001   -7.2900 C   0  0  0  0  0  0  0  0  0  0  0  0
  -21.3654  -38.9932   -7.9016 C   0  0  0  0  0  0  0  0  0  0  0  0
  -22.6151  -39.5324   -7.7526 C   0  0  0  0  0  0  0  0  0  0  0  0
  -23.8092  -38.9692   -8.4387 C   0  0  0  0  0  0  0  0  0  0  0  0
  -22.6630  -40.6001   -6.9713 N   0  0  0  0  0  0  0  0  0  0  0  0
  -19.0280  -38.6670   -7.6622 C   0  0  0  0  0  0  0  0  0  0  0  0
  -19.1969  -37.3639   -7.5637 O   0  0  0  0  0  0  0  0  0  0  0  0
  -17.7226  -38.9631   -8.1256 N   0  0  0  0  0  0  0  0  0  0  0  0
  1  2  1  0
  2  3  1  0
  2  4  1  0
  4  5  2  0
  5  6  1  0
  6  7  2  0
  7  8  1  0
  8  9  2  0
  7 10  1  0
 10 11  1  0
 11 12  1  0
 11 13  1  0
 11 14  1  0
 14 15  1  0
 15 16  1  1
 16 17  1  0
 17 18  1  0
 18 19  1  1
 18 20  1  0
 20 21  1  6
 21 22  1  0
 22 23  2  0
 23 24  1  0
 24 25  2  0
 25 26  1  0
 26 27  2  0
 24 28  1  0
 28 29  1  0
 29 30  1  0
 30 31  1  0
 31 32  1  0
 32 33  1  0
 33 34  1  0
 34 35  2  0
 35 36  1  0
 36 37  2  0
 37 38  1  0
 38 39  1  0
 38 40  2  0
 36 41  1  0
 41 42  2  0
 41 43  1  0
  9  4  1  0
 15  6  1  0
 27 22  1  0
 40 34  1  0
 43 20  1  0
M  END
$$$$
