
     RDKit          3D

 43 47  0  0  0  0  0  0  0  0999 V2000
  -15.3429  -35.4100  -12.5968 C   0  0  0  0  0  0  0  0  0  0  0  0
  -13.8857  -35.2755  -12.2478 C   0  0  0  0  0  0  0  0  0  0  0  0
  -13.6193  -34.1822  -11.2284 C   0  0  0  0  0  0  0  0  0  0  0  0
  -13.2951  -36.5794  -11.8517 C   0  0  0  0  0  0  0  0  0  0  0  0
  -13.7550  -37.2274  -10.7204 C   0  0  0  0  0  0  0  0  0  0  0  0
  -13.2384  -38.4498  -10.3385 C   0  0  0  0  0  0  0  0  0  0  0  0
  -12.2448  -38.9932  -11.1306 C   0  0  0  0  0  0  0  0  0  0  0  0
  -11.7622  -38.3598  -12.2760 C   0  0  0  0  0  0  0  0  0  0  0  0
  -12.3044  -37.1446  -12.6231 C   0  0  0  0  0  0  0  0  0  0  0  0
  -11.6733  -40.2201  -10.8094 O   0  0  0  0  0  0  0  0  0  0  0  0
  -12.2610  -41.1142   -9.9029 C   0  0  0  0  0  0  0  0  0  0  0  0
  -11.3828  -41.1128   -8.6502 C   0  0  0  0  0  0  0  0  0  0  0  0
  -12.2070  -42.4991  -10.4936 C   0  0  0  0  0  0  0  0  0  0  0  0
  -13.6757  -40.6956   -9.5513 C   0  0  0  0  0  0  0  0  0  0  0  0
  -13.6680  -39.1919   -9.1892 C   0  0  2  0  0  0  0  0  0  0  0  0
  -14.8444  -38.8744   -8.4867 N   0  0  0  0  0  0  0  0  0  0  0  0
  -15.8369  -39.8544   -8.3050 C   0  0  0  0  0  0  0  0  0  0  0  0
  -17.2213  -39.6250   -8.6850 C   0  0  1  0  0  0  0  0  0  0  0  0
  -17.5712  -40.5747   -9.6884 O   0  0  0  0  0  0  0  0  0  0  0  0
  -18.3502  -39.5766   -7.7406 C   0  0  2  0  0  0  0  0  0  0  0  0
  -19.3961  -38.5279   -8.0483 C   0  0  0  0  0  0  0  0  0  0  0  0
  -20.8127  -39.0368   -7.9743 C   0  0  0  0  0  0  0  0  0  0  0  0
  -21.4988  -39.8833   -8.8017 C   0  0  0  0  0  0  0  0  0  0  0  0
  -22.8029  -40.1991   -8.4601 C   0  0  0  0  0  0  0  0  0  0  0  0
  -23.3862  -39.6491   -7.2911 C   0  0  0  0  0  0  0  0  0  0  0  0
  -22.7229  -38.8018   -6.4496 C   0  0  0  0  0  0  0  0  0  0  0  0
  -21.4347  -38.5106   -6.8147 C   0  0  0  0  0  0  0  0  0  0  0  0
  -23.7088  -41.0112   -9.0996 O   0  0  0  0  0  0  0  0  0  0  0  0
  -23.7963  -42.2539   -9.6692 C   0  0  0  0  0  0  0  0  0  0  0  0
  -24.6135  -43.2060   -8.8382 C   0  0  0  0  0  0  0  0  0  0  0  0
  -23.9520  -43.4930   -7.5444 C   0  0  0  0  0  0  0  0  0  0  0  0
  -22.7205  -44.3490   -7.6956 C   0  0  0  0  0  0  0  0  0  0  0  0
  -21.8586  -44.1906   -6.6690 O   0  0  0  0  0  0  0  0  0  0  0  0
  -21.1576  -43.2690   -5.9478 C   0  0  0  0  0  0  0  0  0  0  0  0
  -20.0702  -42.4656   -6.3186 C   0  0  0  0  0  0  0  0  0  0  0  0
  -19.5514  -41.6192   -5.3828 C   0  0  0  0  0  0  0  0  0  0  0  0
  -20.1528  -41.6144   -4.0895 C   0  0  0  0  0  0  0  0  0  0  0  0
  -21.2143  -42.3951   -3.7172 C   0  0  0  0  0  0  0  0  0  0  0  0
  -21.8122  -42.3249   -2.3567 C   0  0  0  0  0  0  0  0  0  0  0  0
  -21.6707  -43.1924   -4.6706 N   0  0  0  0  0  0  0  0  0  0  0  0
  -18.4334  -40.6651   -5.4197 C   0  0  0  0  0  0  0  0  0  0  0  0
  -17.5903  -40.7185   -4.4086 O   0  0  0  0  0  0  0  0  0  0  0  0
  -18.0447  -39.6566   -6.3355 N   0  0  0  0  0  0  0  0  0  0  0  0
  1  2  1  0
  2  3  1  0
  2  4  1  0
  4  5  2  0
  5  6  1  0
  6  7  2  0
  7  8  1  0
  8  9  2  0
  7 10  1  0
 10 11  1  0
 11 12  1  0
 11 13  1  0
 11 14  1  0
 14 15  1  0
 15 16  1  6
 16 17  1  0
 17 18  1  0
 18 19  1  6
 18 20  1  0
 20 21  1  1
 21 22  1  0
 22 23  2  0
 23 24  1  0
 24 25  2  0
 25 26  1  0
 26 27  2  0
 24 28  1  0
 28 29  1  0
 29 30  1  0
 30 31  1  0
 31 32  1  0
 32 33  1  0
 33 34  1  0
 34 35  2  0
 35 36  1  0
 36 37  2  0
 37 38  1  0
 38 39  1  0
 38 40  2  0
 36 41  1  0
 41 42  2  0
 41 43  1  0
  9  4  1  0
 15  6  1  0
 27 22  1  0
 40 34  1  0
 43 20  1  0
M  END
$$$$
