
     RDKit          3D

 43 47  0  0  0  0  0  0  0  0999 V2000
  -18.8788  -35.9393  -13.5298 C   0  0  0  0  0  0  0  0  0  0  0  0
  -18.5136  -36.2602  -12.1062 C   0  0  0  0  0  0  0  0  0  0  0  0
  -19.1774  -37.5267  -11.5955 C   0  0  0  0  0  0  0  0  0  0  0  0
  -17.0419  -36.2687  -11.9071 C   0  0  0  0  0  0  0  0  0  0  0  0
  -16.4042  -37.4395  -11.5413 C   0  0  0  0  0  0  0  0  0  0  0  0
  -15.0348  -37.4822  -11.3681 C   0  0  0  0  0  0  0  0  0  0  0  0
  -14.3334  -36.3091  -11.5724 C   0  0  0  0  0  0  0  0  0  0  0  0
  -14.9524  -35.1143  -11.9406 C   0  0  0  0  0  0  0  0  0  0  0  0
  -16.3177  -35.1144  -12.1050 C   0  0  0  0  0  0  0  0  0  0  0  0
  -12.9518  -36.2722  -11.4146 O   0  0  0  0  0  0  0  0  0  0  0  0
  -12.1640  -37.4316  -11.3725 C   0  0  0  0  0  0  0  0  0  0  0  0
  -11.6715  -37.5778   -9.9315 C   0  0  0  0  0  0  0  0  0  0  0  0
  -10.9550  -37.2205  -12.2464 C   0  0  0  0  0  0  0  0  0  0  0  0
  -12.9598  -38.6564  -11.7809 C   0  0  0  0  0  0  0  0  0  0  0  0
  -14.2967  -38.6561  -11.0030 C   0  0  2  0  0  0  0  0  0  0  0  0
  -14.8626  -39.9430  -11.0461 N   0  0  0  0  0  0  0  0  0  0  0  0
  -15.2075  -40.5961   -9.8491 C   0  0  0  0  0  0  0  0  0  0  0  0
  -16.5824  -40.9502   -9.5361 C   0  0  1  0  0  0  0  0  0  0  0  0
  -16.5879  -42.2582   -8.9699 O   0  0  0  0  0  0  0  0  0  0  0  0
  -17.4894  -40.1325   -8.7131 C   0  0  2  0  0  0  0  0  0  0  0  0
  -18.1954  -39.0189   -9.4545 C   0  0  0  0  0  0  0  0  0  0  0  0
  -19.6727  -38.9342   -9.1684 C   0  0  0  0  0  0  0  0  0  0  0  0
  -20.7000  -39.7575   -9.5408 C   0  0  0  0  0  0  0  0  0  0  0  0
  -21.9726  -39.4374   -9.0993 C   0  0  0  0  0  0  0  0  0  0  0  0
  -22.1794  -38.2895   -8.2937 C   0  0  0  0  0  0  0  0  0  0  0  0
  -21.1711  -37.4519   -7.9090 C   0  0  0  0  0  0  0  0  0  0  0  0
  -19.9244  -37.7971   -8.3609 C   0  0  0  0  0  0  0  0  0  0  0  0
  -23.1683  -40.0787   -9.3188 O   0  0  0  0  0  0  0  0  0  0  0  0
  -23.7168  -41.3334   -9.2833 C   0  0  0  0  0  0  0  0  0  0  0  0
  -24.6553  -41.5131   -8.1207 C   0  0  0  0  0  0  0  0  0  0  0  0
  -23.9309  -41.4440   -6.8306 C   0  0  0  0  0  0  0  0  0  0  0  0
  -23.0588  -42.6489   -6.5855 C   0  0  0  0  0  0  0  0  0  0  0  0
  -22.0485  -42.3834   -5.7308 O   0  0  0  0  0  0  0  0  0  0  0  0
  -20.9997  -41.5459   -5.4867 C   0  0  0  0  0  0  0  0  0  0  0  0
  -19.7851  -41.3930   -6.1699 C   0  0  0  0  0  0  0  0  0  0  0  0
  -18.8991  -40.4677   -5.7007 C   0  0  0  0  0  0  0  0  0  0  0  0
  -19.2722  -39.7219   -4.5435 C   0  0  0  0  0  0  0  0  0  0  0  0
  -20.4553  -39.8640   -3.8690 C   0  0  0  0  0  0  0  0  0  0  0  0
  -20.7951  -39.0365   -2.6802 C   0  0  0  0  0  0  0  0  0  0  0  0
  -21.2701  -40.7764   -4.3754 N   0  0  0  0  0  0  0  0  0  0  0  0
  -17.5602  -40.0595   -6.1503 C   0  0  0  0  0  0  0  0  0  0  0  0
  -16.6349  -39.9727   -5.2162 O   0  0  0  0  0  0  0  0  0  0  0  0
  -17.0196  -39.7213   -7.4153 N   0  0  0  0  0  0  0  0  0  0  0  0
  1  2  1  0
  2  3  1  0
  2  4  1  0
  4  5  2  0
  5  6  1  0
  6  7  2  0
  7  8  1  0
  8  9  2  0
  7 10  1  0
 10 11  1  0
 11 12  1  0
 11 13  1  0
 11 14  1  0
 14 15  1  0
 15 16  1  6
 16 17  1  0
 17 18  1  0
 18 19  1  1
 18 20  1  0
 20 21  1  6
 21 22  1  0
 22 23  2  0
 23 24  1  0
 24 25  2  0
 25 26  1  0
 26 27  2  0
 24 28  1  0
 28 29  1  0
 29 30  1  0
 30 31  1  0
 31 32  1  0
 32 33  1  0
 33 34  1  0
 34 35  2  0
 35 36  1  0
 36 37  2  0
 37 38  1  0
 38 39  1  0
 38 40  2  0
 36 41  1  0
 41 42  2  0
 41 43  1  0
  9  4  1  0
 15  6  1  0
 27 22  1  0
 40 34  1  0
 43 20  1  0
M  END
$$$$
