
     RDKit          3D

 43 47  0  0  0  0  0  0  0  0999 V2000
  -11.9448  -42.8013  -12.3555 C   0  0  0  0  0  0  0  0  0  0  0  0
  -12.4413  -42.0846  -13.5815 C   0  0  0  0  0  0  0  0  0  0  0  0
  -13.7512  -42.6456  -14.1057 C   0  0  0  0  0  0  0  0  0  0  0  0
  -12.4943  -40.6152  -13.3728 C   0  0  0  0  0  0  0  0  0  0  0  0
  -13.2740  -40.0924  -12.3578 C   0  0  0  0  0  0  0  0  0  0  0  0
  -13.3276  -38.7318  -12.1277 C   0  0  0  0  0  0  0  0  0  0  0  0
  -12.5742  -37.9193  -12.9536 C   0  0  0  0  0  0  0  0  0  0  0  0
  -11.7803  -38.4209  -13.9853 C   0  0  0  0  0  0  0  0  0  0  0  0
  -11.7528  -39.7819  -14.1802 C   0  0  0  0  0  0  0  0  0  0  0  0
  -12.5783  -36.5384  -12.7857 O   0  0  0  0  0  0  0  0  0  0  0  0
  -13.0496  -35.9197  -11.6188 C   0  0  0  0  0  0  0  0  0  0  0  0
  -14.3621  -35.2254  -11.9872 C   0  0  0  0  0  0  0  0  0  0  0  0
  -12.0683  -34.8504  -11.2144 C   0  0  0  0  0  0  0  0  0  0  0  0
  -13.2843  -36.9305  -10.5127 C   0  0  0  0  0  0  0  0  0  0  0  0
  -14.0992  -38.1114  -11.0905 C   0  0  2  0  0  0  0  0  0  0  0  0
  -14.6682  -38.8470  -10.0353 N   0  0  0  0  0  0  0  0  0  0  0  0
  -15.6155  -39.8492  -10.3121 C   0  0  0  0  0  0  0  0  0  0  0  0
  -17.0321  -39.5510  -10.4455 C   0  0  1  0  0  0  0  0  0  0  0  0
  -17.6494  -40.6258  -11.1492 O   0  0  0  0  0  0  0  0  0  0  0  0
  -17.9251  -39.2159   -9.3234 C   0  0  2  0  0  0  0  0  0  0  0  0
  -18.8886  -38.0808   -9.5906 C   0  0  0  0  0  0  0  0  0  0  0  0
  -20.3058  -38.3690   -9.1666 C   0  0  0  0  0  0  0  0  0  0  0  0
  -21.2403  -39.2137   -9.7007 C   0  0  0  0  0  0  0  0  0  0  0  0
  -22.4705  -39.2923   -9.0702 C   0  0  0  0  0  0  0  0  0  0  0  0
  -22.7304  -38.5123   -7.9155 C   0  0  0  0  0  0  0  0  0  0  0  0
  -21.8149  -37.6618   -7.3636 C   0  0  0  0  0  0  0  0  0  0  0  0
  -20.6078  -37.6082   -8.0098 C   0  0  0  0  0  0  0  0  0  0  0  0
  -23.5753  -40.0467   -9.3858 O   0  0  0  0  0  0  0  0  0  0  0  0
  -23.9184  -41.3299   -9.7206 C   0  0  0  0  0  0  0  0  0  0  0  0
  -24.6439  -42.0354   -8.6068 C   0  0  0  0  0  0  0  0  0  0  0  0
  -23.7617  -42.2358   -7.4339 C   0  0  0  0  0  0  0  0  0  0  0  0
  -22.6927  -43.2703   -7.6775 C   0  0  0  0  0  0  0  0  0  0  0  0
  -21.6223  -43.0984   -6.8735 O   0  0  0  0  0  0  0  0  0  0  0  0
  -20.6872  -42.1967   -6.4572 C   0  0  0  0  0  0  0  0  0  0  0  0
  -19.6192  -41.6130   -7.1531 C   0  0  0  0  0  0  0  0  0  0  0  0
  -18.8245  -40.7301   -6.4822 C   0  0  0  0  0  0  0  0  0  0  0  0
  -19.1366  -40.4654   -5.1158 C   0  0  0  0  0  0  0  0  0  0  0  0
  -20.1765  -41.0302   -4.4272 C   0  0  0  0  0  0  0  0  0  0  0  0
  -20.4639  -40.6928   -3.0069 C   0  0  0  0  0  0  0  0  0  0  0  0
  -20.9089  -41.8762   -5.1349 N   0  0  0  0  0  0  0  0  0  0  0  0
  -17.6400  -39.9579   -6.8849 C   0  0  0  0  0  0  0  0  0  0  0  0
  -16.6147  -39.9932   -6.0580 O   0  0  0  0  0  0  0  0  0  0  0  0
  -17.3422  -39.1479   -8.0082 N   0  0  0  0  0  0  0  0  0  0  0  0
  1  2  1  0
  2  3  1  0
  2  4  1  0
  4  5  2  0
  5  6  1  0
  6  7  2  0
  7  8  1  0
  8  9  2  0
  7 10  1  0
 10 11  1  0
 11 12  1  0
 11 13  1  0
 11 14  1  0
 14 15  1  0
 15 16  1  1
 16 17  1  0
 17 18  1  0
 18 19  1  1
 18 20  1  0
 20 21  1  6
 21 22  1  0
 22 23  2  0
 23 24  1  0
 24 25  2  0
 25 26  1  0
 26 27  2  0
 24 28  1  0
 28 29  1  0
 29 30  1  0
 30 31  1  0
 31 32  1  0
 32 33  1  0
 33 34  1  0
 34 35  2  0
 35 36  1  0
 36 37  2  0
 37 38  1  0
 38 39  1  0
 38 40  2  0
 36 41  1  0
 41 42  2  0
 41 43  1  0
  9  4  1  0
 15  6  1  0
 27 22  1  0
 40 34  1  0
 43 20  1  0
M  END
$$$$
