
     RDKit          3D

 43 47  0  0  0  0  0  0  0  0999 V2000
  -19.3879  -36.0323  -10.6014 C   0  0  0  0  0  0  0  0  0  0  0  0
  -18.5602  -36.9393  -11.4705 C   0  0  0  0  0  0  0  0  0  0  0  0
  -19.0198  -36.9544  -12.9175 C   0  0  0  0  0  0  0  0  0  0  0  0
  -17.1094  -36.6513  -11.3369 C   0  0  0  0  0  0  0  0  0  0  0  0
  -16.2577  -37.6233  -10.8458 C   0  0  0  0  0  0  0  0  0  0  0  0
  -14.9015  -37.3908  -10.7288 C   0  0  0  0  0  0  0  0  0  0  0  0
  -14.4353  -36.1498  -11.1190 C   0  0  0  0  0  0  0  0  0  0  0  0
  -15.2731  -35.1514  -11.6164 C   0  0  0  0  0  0  0  0  0  0  0  0
  -16.6172  -35.4235  -11.7192 C   0  0  0  0  0  0  0  0  0  0  0  0
  -13.0822  -35.8398  -11.0283 O   0  0  0  0  0  0  0  0  0  0  0  0
  -12.0911  -36.8186  -10.8658 C   0  0  0  0  0  0  0  0  0  0  0  0
  -11.5538  -36.6696   -9.4413 C   0  0  0  0  0  0  0  0  0  0  0  0
  -10.9590  -36.5149  -11.8123 C   0  0  0  0  0  0  0  0  0  0  0  0
  -12.6516  -38.2129  -11.0711 C   0  0  0  0  0  0  0  0  0  0  0  0
  -13.9506  -38.3476  -10.2423 C   0  0  2  0  0  0  0  0  0  0  0  0
  -14.2670  -39.7094  -10.0877 N   0  0  0  0  0  0  0  0  0  0  0  0
  -14.8821  -40.1547   -8.9038 C   0  0  0  0  0  0  0  0  0  0  0  0
  -16.1621  -40.8439   -8.9157 C   0  0  1  0  0  0  0  0  0  0  0  0
  -16.0248  -42.0520   -8.1720 O   0  0  0  0  0  0  0  0  0  0  0  0
  -17.4404  -40.2399   -8.5035 C   0  0  2  0  0  0  0  0  0  0  0  0
  -18.3524  -39.8361   -9.6408 C   0  0  0  0  0  0  0  0  0  0  0  0
  -19.7847  -40.2684   -9.4592 C   0  0  0  0  0  0  0  0  0  0  0  0
  -20.3536  -41.5113   -9.5185 C   0  0  0  0  0  0  0  0  0  0  0  0
  -21.7136  -41.6078   -9.2777 C   0  0  0  0  0  0  0  0  0  0  0  0
  -22.4697  -40.4448   -8.9858 C   0  0  0  0  0  0  0  0  0  0  0  0
  -21.9256  -39.1934   -8.9213 C   0  0  0  0  0  0  0  0  0  0  0  0
  -20.5782  -39.1322   -9.1628 C   0  0  0  0  0  0  0  0  0  0  0  0
  -22.5309  -42.7129   -9.2720 O   0  0  0  0  0  0  0  0  0  0  0  0
  -22.5815  -43.9874   -8.7727 C   0  0  0  0  0  0  0  0  0  0  0  0
  -23.5886  -44.1258   -7.6630 C   0  0  0  0  0  0  0  0  0  0  0  0
  -23.1920  -43.3328   -6.4764 C   0  0  0  0  0  0  0  0  0  0  0  0
  -22.0031  -43.9154   -5.7557 C   0  0  0  0  0  0  0  0  0  0  0  0
  -21.3362  -42.9878   -5.0369 O   0  0  0  0  0  0  0  0  0  0  0  0
  -20.7290  -41.7679   -5.1006 C   0  0  0  0  0  0  0  0  0  0  0  0
  -19.5492  -41.3765   -5.7489 C   0  0  0  0  0  0  0  0  0  0  0  0
  -19.1644  -40.0717   -5.6445 C   0  0  0  0  0  0  0  0  0  0  0  0
  -19.9912  -39.1975   -4.8786 C   0  0  0  0  0  0  0  0  0  0  0  0
  -21.1445  -39.5699   -4.2415 C   0  0  0  0  0  0  0  0  0  0  0  0
  -21.9766  -38.6020   -3.4770 C   0  0  0  0  0  0  0  0  0  0  0  0
  -21.4622  -40.8474   -4.3828 N   0  0  0  0  0  0  0  0  0  0  0  0
  -18.0073  -39.3338   -6.1720 C   0  0  0  0  0  0  0  0  0  0  0  0
  -17.3678  -38.5653   -5.3138 O   0  0  0  0  0  0  0  0  0  0  0  0
  -17.4022  -39.2581   -7.4506 N   0  0  0  0  0  0  0  0  0  0  0  0
  1  2  1  0
  2  3  1  0
  2  4  1  0
  4  5  2  0
  5  6  1  0
  6  7  2  0
  7  8  1  0
  8  9  2  0
  7 10  1  0
 10 11  1  0
 11 12  1  0
 11 13  1  0
 11 14  1  0
 14 15  1  0
 15 16  1  6
 16 17  1  0
 17 18  1  0
 18 19  1  1
 18 20  1  0
 20 21  1  6
 21 22  1  0
 22 23  2  0
 23 24  1  0
 24 25  2  0
 25 26  1  0
 26 27  2  0
 24 28  1  0
 28 29  1  0
 29 30  1  0
 30 31  1  0
 31 32  1  0
 32 33  1  0
 33 34  1  0
 34 35  2  0
 35 36  1  0
 36 37  2  0
 37 38  1  0
 38 39  1  0
 38 40  2  0
 36 41  1  0
 41 42  2  0
 41 43  1  0
  9  4  1  0
 15  6  1  0
 27 22  1  0
 40 34  1  0
 43 20  1  0
M  END
$$$$
