
     RDKit          3D

 43 47  0  0  0  0  0  0  0  0999 V2000
  -18.7757  -37.8099  -11.7279 C   0  0  0  0  0  0  0  0  0  0  0  0
  -18.5480  -36.3663  -11.3712 C   0  0  0  0  0  0  0  0  0  0  0  0
  -19.3087  -35.9359  -10.1297 C   0  0  0  0  0  0  0  0  0  0  0  0
  -17.1005  -36.0437  -11.2924 C   0  0  0  0  0  0  0  0  0  0  0  0
  -16.2365  -36.9110  -10.6499 C   0  0  0  0  0  0  0  0  0  0  0  0
  -14.8830  -36.6469  -10.5779 C   0  0  0  0  0  0  0  0  0  0  0  0
  -14.4321  -35.4826  -11.1702 C   0  0  0  0  0  0  0  0  0  0  0  0
  -15.2825  -34.5901  -11.8233 C   0  0  0  0  0  0  0  0  0  0  0  0
  -16.6234  -34.8908  -11.8748 C   0  0  0  0  0  0  0  0  0  0  0  0
  -13.0827  -35.1464  -11.1371 O   0  0  0  0  0  0  0  0  0  0  0  0
  -12.0799  -36.0734  -10.8180 C   0  0  0  0  0  0  0  0  0  0  0  0
  -11.5420  -35.6840   -9.4398 C   0  0  0  0  0  0  0  0  0  0  0  0
  -10.9529  -35.9180  -11.8058 C   0  0  0  0  0  0  0  0  0  0  0  0
  -12.6241  -37.4887  -10.7872 C   0  0  0  0  0  0  0  0  0  0  0  0
  -13.9201  -37.4989   -9.9429 C   0  0  2  0  0  0  0  0  0  0  0  0
  -14.2202  -38.8196   -9.5635 N   0  0  0  0  0  0  0  0  0  0  0  0
  -14.9480  -39.0607   -8.3842 C   0  0  0  0  0  0  0  0  0  0  0  0
  -15.5206  -40.3637   -8.0880 C   0  0  1  0  0  0  0  0  0  0  0  0
  -15.3839  -40.6031   -6.6897 O   0  0  0  0  0  0  0  0  0  0  0  0
  -16.8849  -40.7799   -8.4540 C   0  0  2  0  0  0  0  0  0  0  0  0
  -16.9754  -42.1008   -9.1856 C   0  0  0  0  0  0  0  0  0  0  0  0
  -18.0423  -43.0228   -8.6536 C   0  0  0  0  0  0  0  0  0  0  0  0
  -18.1052  -43.7301   -7.4841 C   0  0  0  0  0  0  0  0  0  0  0  0
  -19.2422  -44.4844   -7.2495 C   0  0  0  0  0  0  0  0  0  0  0  0
  -20.2896  -44.5101   -8.2044 C   0  0  0  0  0  0  0  0  0  0  0  0
  -20.2507  -43.8136   -9.3789 C   0  0  0  0  0  0  0  0  0  0  0  0
  -19.1133  -43.0764   -9.5801 C   0  0  0  0  0  0  0  0  0  0  0  0
  -19.5663  -45.2786   -6.1756 O   0  0  0  0  0  0  0  0  0  0  0  0
  -19.5759  -45.2518   -4.8060 C   0  0  0  0  0  0  0  0  0  0  0  0
  -20.9703  -45.1636   -4.2470 C   0  0  0  0  0  0  0  0  0  0  0  0
  -21.6081  -43.8732   -4.5966 C   0  0  0  0  0  0  0  0  0  0  0  0
  -21.0092  -42.7059   -3.8543 C   0  0  0  0  0  0  0  0  0  0  0  0
  -21.1943  -41.5375   -4.5042 O   0  0  0  0  0  0  0  0  0  0  0  0
  -21.0216  -40.8976   -5.6964 C   0  0  0  0  0  0  0  0  0  0  0  0
  -19.8468  -40.4845   -6.3406 C   0  0  0  0  0  0  0  0  0  0  0  0
  -19.9651  -39.8531   -7.5441 C   0  0  0  0  0  0  0  0  0  0  0  0
  -21.2797  -39.6555   -8.0610 C   0  0  0  0  0  0  0  0  0  0  0  0
  -22.4329  -40.0544   -7.4399 C   0  0  0  0  0  0  0  0  0  0  0  0
  -23.7751  -39.8397   -8.0448 C   0  0  0  0  0  0  0  0  0  0  0  0
  -22.2490  -40.6612   -6.2776 N   0  0  0  0  0  0  0  0  0  0  0  0
  -18.9720  -39.2892   -8.4700 C   0  0  0  0  0  0  0  0  0  0  0  0
  -19.2211  -38.0766   -8.9214 O   0  0  0  0  0  0  0  0  0  0  0  0
  -17.7578  -39.7788   -9.0110 N   0  0  0  0  0  0  0  0  0  0  0  0
  1  2  1  0
  2  3  1  0
  2  4  1  0
  4  5  2  0
  5  6  1  0
  6  7  2  0
  7  8  1  0
  8  9  2  0
  7 10  1  0
 10 11  1  0
 11 12  1  0
 11 13  1  0
 11 14  1  0
 14 15  1  0
 15 16  1  6
 16 17  1  0
 17 18  1  0
 18 19  1  1
 18 20  1  0
 20 21  1  6
 21 22  1  0
 22 23  2  0
 23 24  1  0
 24 25  2  0
 25 26  1  0
 26 27  2  0
 24 28  1  0
 28 29  1  0
 29 30  1  0
 30 31  1  0
 31 32  1  0
 32 33  1  0
 33 34  1  0
 34 35  2  0
 35 36  1  0
 36 37  2  0
 37 38  1  0
 38 39  1  0
 38 40  2  0
 36 41  1  0
 41 42  2  0
 41 43  1  0
  9  4  1  0
 15  6  1  0
 27 22  1  0
 40 34  1  0
 43 20  1  0
M  END
$$$$
