
     RDKit          3D

 36 38  0  0  0  0  0  0  0  0999 V2000
  -11.3664  -40.4264  -15.0897 C   0  0  0  0  0  0  0  0  0  0  0  0
  -11.1870  -40.0249  -13.6260 C   0  0  0  0  0  0  0  0  0  0  0  0
  -10.4713  -38.6855  -13.5859 C   0  0  0  0  0  0  0  0  0  0  0  0
  -12.5211  -39.9183  -12.9590 C   0  0  0  0  0  0  0  0  0  0  0  0
  -13.4411  -40.8973  -13.2674 C   0  0  0  0  0  0  0  0  0  0  0  0
  -14.6803  -40.8338  -12.6734 C   0  0  0  0  0  0  0  0  0  0  0  0
  -15.0066  -39.8274  -11.7941 C   0  0  0  0  0  0  0  0  0  0  0  0
  -14.0713  -38.8455  -11.4904 C   0  0  0  0  0  0  0  0  0  0  0  0
  -14.4536  -37.7744  -10.5382 C   0  0  0  0  0  0  0  0  0  0  0  0
  -15.8770  -37.6679  -10.3449 N   0  0  0  0  0  0  0  0  0  0  0  0
  -16.3555  -38.7032   -9.4676 C   0  0  0  0  0  0  0  0  0  0  0  0
  -17.0357  -38.0912   -8.2579 C   0  0  1  0  0  0  0  0  0  0  0  0
  -17.8990  -37.0748   -8.5729 O   0  0  0  0  0  0  0  0  0  0  0  0
  -17.7992  -39.2150   -7.5739 C   0  0  2  0  0  0  0  0  0  0  0  0
  -18.5239  -38.6792   -6.3554 C   0  0  0  0  0  0  0  0  0  0  0  0
  -19.9662  -39.0446   -6.2853 C   0  0  2  0  0  0  0  0  0  0  0  0
  -20.7858  -37.7671   -6.3820 C   0  0  0  0  0  0  0  0  0  0  0  0
  -20.3341  -39.7486   -4.9967 C   0  0  0  0  0  0  0  0  0  0  0  0
  -21.6064  -40.5531   -5.0846 C   0  0  0  0  0  0  0  0  0  0  0  0
  -21.9132  -41.6754   -5.6480 C   0  0  0  0  0  0  0  0  0  0  0  0
  -23.1669  -42.5025   -5.7526 C   0  0  0  0  0  0  0  0  0  0  0  0
  -22.7173  -43.9392   -6.1239 C   0  0  0  0  0  0  0  0  0  0  0  0
  -23.1951  -44.2859   -7.5120 C   0  0  0  0  0  0  0  0  0  0  0  0
  -22.4817  -43.5165   -8.5960 C   0  0  0  0  0  0  0  0  0  0  0  0
  -21.2072  -44.0523   -8.9347 N   0  0  0  0  0  0  0  0  0  0  0  0
  -19.8834  -43.7409   -8.4533 C   0  0  0  0  0  0  0  0  0  0  0  0
  -19.1669  -42.5827   -8.3738 C   0  0  0  0  0  0  0  0  0  0  0  0
  -17.8925  -42.6439   -7.8458 C   0  0  0  0  0  0  0  0  0  0  0  0
  -17.4113  -43.9096   -7.4213 C   0  0  0  0  0  0  0  0  0  0  0  0
  -18.1318  -45.0783   -7.5009 C   0  0  0  0  0  0  0  0  0  0  0  0
  -17.4643  -46.6051   -6.9538 Cl  0  0  0  0  0  0  0  0  0  0  0  0
  -19.3314  -44.9373   -8.0123 N   0  0  0  0  0  0  0  0  0  0  0  0
  -16.8654  -41.6203   -7.6245 C   0  0  0  0  0  0  0  0  0  0  0  0
  -15.5949  -41.9810   -7.8580 O   0  0  0  0  0  0  0  0  0  0  0  0
  -16.8800  -40.2836   -7.2048 N   0  0  0  0  0  0  0  0  0  0  0  0
  -12.8340  -38.9148  -12.0876 C   0  0  0  0  0  0  0  0  0  0  0  0
  1  2  1  0
  2  3  1  0
  2  4  1  0
  4  5  2  0
  5  6  1  0
  6  7  2  0
  7  8  1  0
  8  9  1  0
  9 10  1  0
 10 11  1  0
 11 12  1  0
 12 13  1  6
 12 14  1  0
 14 15  1  1
 15 16  1  0
 16 17  1  1
 16 18  1  0
 18 19  1  0
 19 20  2  0
 20 21  1  0
 21 22  1  0
 22 23  1  0
 23 24  1  0
 24 25  1  0
 25 26  1  0
 26 27  2  0
 27 28  1  0
 28 29  2  0
 29 30  1  0
 30 31  1  0
 30 32  2  0
 28 33  1  0
 33 34  2  0
 33 35  1  0
  8 36  2  0
 32 26  1  0
 35 14  1  0
 36  4  1  0
M  END
$$$$
