
     RDKit          3D

 36 38  0  0  0  0  0  0  0  0999 V2000
  -24.5935  -40.9796   -6.2855 C   0  0  0  0  0  0  0  0  0  0  0  0
  -24.0340  -39.9196   -7.2338 C   0  0  0  0  0  0  0  0  0  0  0  0
  -24.6912  -38.5911   -6.9011 C   0  0  0  0  0  0  0  0  0  0  0  0
  -22.5512  -39.8187   -7.0683 C   0  0  0  0  0  0  0  0  0  0  0  0
  -21.9012  -40.9607   -6.6522 C   0  0  0  0  0  0  0  0  0  0  0  0
  -20.5364  -40.9077   -6.4886 C   0  0  0  0  0  0  0  0  0  0  0  0
  -19.8266  -39.7543   -6.7297 C   0  0  0  0  0  0  0  0  0  0  0  0
  -20.4921  -38.6086   -7.1488 C   0  0  0  0  0  0  0  0  0  0  0  0
  -19.6983  -37.3813   -7.4010 C   0  0  0  0  0  0  0  0  0  0  0  0
  -18.3254  -37.4967   -6.9806 N   0  0  0  0  0  0  0  0  0  0  0  0
  -17.7343  -38.7089   -7.4823 C   0  0  0  0  0  0  0  0  0  0  0  0
  -16.4601  -38.3943   -8.2425 C   0  0  1  0  0  0  0  0  0  0  0  0
  -15.3704  -38.2151   -7.4313 O   0  0  0  0  0  0  0  0  0  0  0  0
  -16.2115  -39.5676   -9.1782 C   0  0  2  0  0  0  0  0  0  0  0  0
  -15.9629  -39.0618  -10.5851 C   0  0  0  0  0  0  0  0  0  0  0  0
  -14.7415  -39.6158  -11.2330 C   0  0  2  0  0  0  0  0  0  0  0  0
  -13.7702  -38.4706  -11.4745 C   0  0  0  0  0  0  0  0  0  0  0  0
  -15.0294  -40.2825  -12.5611 C   0  0  0  0  0  0  0  0  0  0  0  0
  -13.9644  -41.2572  -12.9962 C   0  0  0  0  0  0  0  0  0  0  0  0
  -13.6300  -42.4435  -12.6064 C   0  0  0  0  0  0  0  0  0  0  0  0
  -12.5784  -43.4390  -13.0188 C   0  0  0  0  0  0  0  0  0  0  0  0
  -13.0519  -44.8210  -12.4990 C   0  0  0  0  0  0  0  0  0  0  0  0
  -12.1169  -45.3146  -11.4232 C   0  0  0  0  0  0  0  0  0  0  0  0
  -12.2135  -44.5234  -10.1423 C   0  0  0  0  0  0  0  0  0  0  0  0
  -13.3109  -44.8998   -9.3178 N   0  0  0  0  0  0  0  0  0  0  0  0
  -14.6537  -44.3814   -9.2222 C   0  0  0  0  0  0  0  0  0  0  0  0
  -15.1598  -43.1334   -9.0037 C   0  0  0  0  0  0  0  0  0  0  0  0
  -16.5325  -42.9873   -8.9713 C   0  0  0  0  0  0  0  0  0  0  0  0
  -17.3270  -44.1467   -9.1664 C   0  0  0  0  0  0  0  0  0  0  0  0
  -16.8189  -45.4056   -9.3863 C   0  0  0  0  0  0  0  0  0  0  0  0
  -17.8700  -46.7902   -9.6184 Cl  0  0  0  0  0  0  0  0  0  0  0  0
  -15.5086  -45.4616   -9.4036 N   0  0  0  0  0  0  0  0  0  0  0  0
  -17.3963  -41.8213   -8.7570 C   0  0  0  0  0  0  0  0  0  0  0  0
  -18.5060  -42.0187   -8.0300 O   0  0  0  0  0  0  0  0  0  0  0  0
  -17.3505  -40.4758   -9.1453 N   0  0  0  0  0  0  0  0  0  0  0  0
  -21.8568  -38.6683   -7.3106 C   0  0  0  0  0  0  0  0  0  0  0  0
  1  2  1  0
  2  3  1  0
  2  4  1  0
  4  5  2  0
  5  6  1  0
  6  7  2  0
  7  8  1  0
  8  9  1  0
  9 10  1  0
 10 11  1  0
 11 12  1  0
 12 13  1  1
 12 14  1  0
 14 15  1  6
 15 16  1  0
 16 17  1  6
 16 18  1  0
 18 19  1  0
 19 20  2  0
 20 21  1  0
 21 22  1  0
 22 23  1  0
 23 24  1  0
 24 25  1  0
 25 26  1  0
 26 27  2  0
 27 28  1  0
 28 29  2  0
 29 30  1  0
 30 31  1  0
 30 32  2  0
 28 33  1  0
 33 34  2  0
 33 35  1  0
  8 36  2  0
 32 26  1  0
 35 14  1  0
 36  4  1  0
M  END
$$$$
