
     RDKit          3D

 36 38  0  0  0  0  0  0  0  0999 V2000
  -16.7712  -35.9574  -12.7802 C   0  0  0  0  0  0  0  0  0  0  0  0
  -16.2977  -35.0535  -11.6425 C   0  0  0  0  0  0  0  0  0  0  0  0
  -17.3901  -35.0067  -10.5879 C   0  0  0  0  0  0  0  0  0  0  0  0
  -15.0337  -35.5939  -11.0538 C   0  0  0  0  0  0  0  0  0  0  0  0
  -14.0268  -34.6820  -10.8204 C   0  0  0  0  0  0  0  0  0  0  0  0
  -12.8483  -35.1408  -10.2791 C   0  0  0  0  0  0  0  0  0  0  0  0
  -12.6651  -36.4696   -9.9743 C   0  0  0  0  0  0  0  0  0  0  0  0
  -13.6869  -37.3804  -10.2140 C   0  0  0  0  0  0  0  0  0  0  0  0
  -13.4586  -38.8059   -9.8737 C   0  0  0  0  0  0  0  0  0  0  0  0
  -13.4146  -39.0511   -8.4550 N   0  0  0  0  0  0  0  0  0  0  0  0
  -14.7392  -39.0561   -7.8929 C   0  0  0  0  0  0  0  0  0  0  0  0
  -15.2747  -40.4737   -7.8277 C   0  0  1  0  0  0  0  0  0  0  0  0
  -14.9442  -41.1295   -6.6709 O   0  0  0  0  0  0  0  0  0  0  0  0
  -16.7882  -40.3721   -7.9415 C   0  0  2  0  0  0  0  0  0  0  0  0
  -17.1749  -39.9949   -9.3575 C   0  0  0  0  0  0  0  0  0  0  0  0
  -18.2184  -40.8670   -9.9651 C   0  0  2  0  0  0  0  0  0  0  0  0
  -17.5996  -41.5959  -11.1478 C   0  0  0  0  0  0  0  0  0  0  0  0
  -19.4197  -40.0909  -10.4611 C   0  0  0  0  0  0  0  0  0  0  0  0
  -20.6639  -40.9287  -10.6156 C   0  0  0  0  0  0  0  0  0  0  0  0
  -21.4957  -41.4511   -9.7752 C   0  0  0  0  0  0  0  0  0  0  0  0
  -22.7421  -42.2870   -9.8962 C   0  0  0  0  0  0  0  0  0  0  0  0
  -23.5051  -42.1371   -8.5547 C   0  0  0  0  0  0  0  0  0  0  0  0
  -23.5199  -43.4547   -7.8206 C   0  0  0  0  0  0  0  0  0  0  0  0
  -22.1656  -43.8553   -7.2903 C   0  0  0  0  0  0  0  0  0  0  0  0
  -21.8162  -43.2141   -6.0686 N   0  0  0  0  0  0  0  0  0  0  0  0
  -21.0734  -42.0060   -5.8041 C   0  0  0  0  0  0  0  0  0  0  0  0
  -19.8314  -41.5746   -6.1682 C   0  0  0  0  0  0  0  0  0  0  0  0
  -19.4223  -40.3315   -5.7279 C   0  0  0  0  0  0  0  0  0  0  0  0
  -20.3215  -39.5845   -4.9235 C   0  0  0  0  0  0  0  0  0  0  0  0
  -21.5736  -40.0177   -4.5550 C   0  0  0  0  0  0  0  0  0  0  0  0
  -22.6268  -39.0329   -3.5566 Cl  0  0  0  0  0  0  0  0  0  0  0  0
  -21.8884  -41.2059   -5.0128 N   0  0  0  0  0  0  0  0  0  0  0  0
  -18.1790  -39.5767   -5.9183 C   0  0  0  0  0  0  0  0  0  0  0  0
  -17.7323  -38.8754   -4.8659 O   0  0  0  0  0  0  0  0  0  0  0  0
  -17.2908  -39.3932   -6.9864 N   0  0  0  0  0  0  0  0  0  0  0  0
  -14.8630  -36.9152  -10.7551 C   0  0  0  0  0  0  0  0  0  0  0  0
  1  2  1  0
  2  3  1  0
  2  4  1  0
  4  5  2  0
  5  6  1  0
  6  7  2  0
  7  8  1  0
  8  9  1  0
  9 10  1  0
 10 11  1  0
 11 12  1  0
 12 13  1  1
 12 14  1  0
 14 15  1  6
 15 16  1  0
 16 17  1  6
 16 18  1  0
 18 19  1  0
 19 20  2  0
 20 21  1  0
 21 22  1  0
 22 23  1  0
 23 24  1  0
 24 25  1  0
 25 26  1  0
 26 27  2  0
 27 28  1  0
 28 29  2  0
 29 30  1  0
 30 31  1  0
 30 32  2  0
 28 33  1  0
 33 34  2  0
 33 35  1  0
  8 36  2  0
 32 26  1  0
 35 14  1  0
 36  4  1  0
M  END
$$$$
