
     RDKit          3D

 36 38  0  0  0  0  0  0  0  0999 V2000
  -22.5477  -34.8142   -9.1202 C   0  0  0  0  0  0  0  0  0  0  0  0
  -21.9189  -35.9077   -9.9831 C   0  0  0  0  0  0  0  0  0  0  0  0
  -20.6107  -35.3762  -10.5433 C   0  0  0  0  0  0  0  0  0  0  0  0
  -21.6692  -37.1290   -9.1572 C   0  0  0  0  0  0  0  0  0  0  0  0
  -22.2348  -38.3017   -9.6097 C   0  0  0  0  0  0  0  0  0  0  0  0
  -22.0274  -39.4474   -8.8769 C   0  0  0  0  0  0  0  0  0  0  0  0
  -21.2789  -39.4384   -7.7228 C   0  0  0  0  0  0  0  0  0  0  0  0
  -20.7134  -38.2503   -7.2757 C   0  0  0  0  0  0  0  0  0  0  0  0
  -19.9113  -38.2739   -6.0283 C   0  0  0  0  0  0  0  0  0  0  0  0
  -18.5040  -38.0655   -6.2541 N   0  0  0  0  0  0  0  0  0  0  0  0
  -17.9541  -39.1132   -7.0728 C   0  0  0  0  0  0  0  0  0  0  0  0
  -16.4670  -38.8935   -7.2750 C   0  0  1  0  0  0  0  0  0  0  0  0
  -15.7279  -39.0789   -6.1363 O   0  0  0  0  0  0  0  0  0  0  0  0
  -16.0220  -39.8856   -8.3387 C   0  0  2  0  0  0  0  0  0  0  0  0
  -15.0191  -39.2309   -9.2675 C   0  0  0  0  0  0  0  0  0  0  0  0
  -13.7711  -40.0157   -9.4798 C   0  0  2  0  0  0  0  0  0  0  0  0
  -12.6064  -39.2201   -8.9108 C   0  0  0  0  0  0  0  0  0  0  0  0
  -13.4892  -40.2911  -10.9413 C   0  0  0  0  0  0  0  0  0  0  0  0
  -12.5602  -41.4562  -11.1728 C   0  0  0  0  0  0  0  0  0  0  0  0
  -12.6989  -42.7380  -11.0790 C   0  0  0  0  0  0  0  0  0  0  0  0
  -11.7967  -43.9222  -11.3035 C   0  0  0  0  0  0  0  0  0  0  0  0
  -12.7224  -45.1501  -11.5019 C   0  0  0  0  0  0  0  0  0  0  0  0
  -12.5559  -46.1119  -10.3519 C   0  0  0  0  0  0  0  0  0  0  0  0
  -13.1163  -45.5883   -9.0528 C   0  0  0  0  0  0  0  0  0  0  0  0
  -14.5267  -45.7400   -8.9348 N   0  0  0  0  0  0  0  0  0  0  0  0
  -15.6120  -44.8450   -9.2541 C   0  0  0  0  0  0  0  0  0  0  0  0
  -15.9072  -43.5654   -8.8840 C   0  0  0  0  0  0  0  0  0  0  0  0
  -17.0588  -42.9943   -9.3881 C   0  0  0  0  0  0  0  0  0  0  0  0
  -17.8610  -43.7776  -10.2579 C   0  0  0  0  0  0  0  0  0  0  0  0
  -17.5655  -45.0676  -10.6318 C   0  0  0  0  0  0  0  0  0  0  0  0
  -18.6107  -45.9703  -11.7129 Cl  0  0  0  0  0  0  0  0  0  0  0  0
  -16.4567  -45.5380  -10.1124 N   0  0  0  0  0  0  0  0  0  0  0  0
  -17.6711  -41.6749   -9.1983 C   0  0  0  0  0  0  0  0  0  0  0  0
  -19.0090  -41.6381   -9.1113 O   0  0  0  0  0  0  0  0  0  0  0  0
  -17.1800  -40.3680   -9.0799 N   0  0  0  0  0  0  0  0  0  0  0  0
  -20.9244  -37.1084   -8.0130 C   0  0  0  0  0  0  0  0  0  0  0  0
  1  2  1  0
  2  3  1  0
  2  4  1  0
  4  5  2  0
  5  6  1  0
  6  7  2  0
  7  8  1  0
  8  9  1  0
  9 10  1  0
 10 11  1  0
 11 12  1  0
 12 13  1  1
 12 14  1  0
 14 15  1  6
 15 16  1  0
 16 17  1  6
 16 18  1  0
 18 19  1  0
 19 20  2  0
 20 21  1  0
 21 22  1  0
 22 23  1  0
 23 24  1  0
 24 25  1  0
 25 26  1  0
 26 27  2  0
 27 28  1  0
 28 29  2  0
 29 30  1  0
 30 31  1  0
 30 32  2  0
 28 33  1  0
 33 34  2  0
 33 35  1  0
  8 36  2  0
 32 26  1  0
 35 14  1  0
 36  4  1  0
M  END
$$$$
