
     RDKit          3D

 36 38  0  0  0  0  0  0  0  0999 V2000
  -23.7844  -40.9570   -3.2615 C   0  0  0  0  0  0  0  0  0  0  0  0
  -22.3229  -40.6065   -3.5387 C   0  0  0  0  0  0  0  0  0  0  0  0
  -21.4545  -41.7257   -2.9901 C   0  0  0  0  0  0  0  0  0  0  0  0
  -22.1044  -40.4565   -5.0103 C   0  0  0  0  0  0  0  0  0  0  0  0
  -23.0632  -41.0086   -5.8323 C   0  0  0  0  0  0  0  0  0  0  0  0
  -22.8976  -40.8911   -7.1929 C   0  0  0  0  0  0  0  0  0  0  0  0
  -21.8106  -40.2435   -7.7326 C   0  0  0  0  0  0  0  0  0  0  0  0
  -20.8498  -39.6906   -6.8945 C   0  0  0  0  0  0  0  0  0  0  0  0
  -19.6901  -38.9983   -7.5074 C   0  0  0  0  0  0  0  0  0  0  0  0
  -18.7457  -38.5053   -6.5378 N   0  0  0  0  0  0  0  0  0  0  0  0
  -17.6406  -39.4146   -6.3883 C   0  0  0  0  0  0  0  0  0  0  0  0
  -16.3380  -38.7157   -6.7278 C   0  0  1  0  0  0  0  0  0  0  0  0
  -15.3149  -39.0204   -5.8689 O   0  0  0  0  0  0  0  0  0  0  0  0
  -15.9666  -39.1499   -8.1375 C   0  0  2  0  0  0  0  0  0  0  0  0
  -15.9975  -37.9556   -9.0702 C   0  0  0  0  0  0  0  0  0  0  0  0
  -14.7744  -37.7928   -9.9046 C   0  0  2  0  0  0  0  0  0  0  0  0
  -14.0959  -36.4916   -9.5052 C   0  0  0  0  0  0  0  0  0  0  0  0
  -15.0753  -37.7360  -11.3870 C   0  0  0  0  0  0  0  0  0  0  0  0
  -13.8920  -38.0667  -12.2612 C   0  0  0  0  0  0  0  0  0  0  0  0
  -13.2763  -39.1666  -12.5477 C   0  0  0  0  0  0  0  0  0  0  0  0
  -12.0991  -39.5293  -13.4134 C   0  0  0  0  0  0  0  0  0  0  0  0
  -12.2121  -41.0495  -13.6966 C   0  0  0  0  0  0  0  0  0  0  0  0
  -11.0738  -41.7832  -13.0324 C   0  0  0  0  0  0  0  0  0  0  0  0
  -11.1776  -41.8045  -11.5275 C   0  0  0  0  0  0  0  0  0  0  0  0
  -12.0674  -42.7972  -11.0286 N   0  0  0  0  0  0  0  0  0  0  0  0
  -13.4670  -42.7370  -10.6843 C   0  0  0  0  0  0  0  0  0  0  0  0
  -14.1896  -41.9369   -9.8482 C   0  0  0  0  0  0  0  0  0  0  0  0
  -15.5489  -42.1594   -9.7527 C   0  0  0  0  0  0  0  0  0  0  0  0
  -16.1050  -43.2079  -10.5305 C   0  0  0  0  0  0  0  0  0  0  0  0
  -15.3784  -44.0157  -11.3736 C   0  0  0  0  0  0  0  0  0  0  0  0
  -16.1417  -45.2926  -12.3024 Cl  0  0  0  0  0  0  0  0  0  0  0  0
  -14.0963  -43.7413  -11.4095 N   0  0  0  0  0  0  0  0  0  0  0  0
  -16.6026  -41.5101   -8.9653 C   0  0  0  0  0  0  0  0  0  0  0  0
  -17.5528  -42.3079   -8.4560 O   0  0  0  0  0  0  0  0  0  0  0  0
  -16.8817  -40.1888   -8.5918 N   0  0  0  0  0  0  0  0  0  0  0  0
  -21.0215  -39.8114   -5.5351 C   0  0  0  0  0  0  0  0  0  0  0  0
  1  2  1  0
  2  3  1  0
  2  4  1  0
  4  5  2  0
  5  6  1  0
  6  7  2  0
  7  8  1  0
  8  9  1  0
  9 10  1  0
 10 11  1  0
 11 12  1  0
 12 13  1  1
 12 14  1  0
 14 15  1  6
 15 16  1  0
 16 17  1  1
 16 18  1  0
 18 19  1  0
 19 20  2  0
 20 21  1  0
 21 22  1  0
 22 23  1  0
 23 24  1  0
 24 25  1  0
 25 26  1  0
 26 27  2  0
 27 28  1  0
 28 29  2  0
 29 30  1  0
 30 31  1  0
 30 32  2  0
 28 33  1  0
 33 34  2  0
 33 35  1  0
  8 36  2  0
 32 26  1  0
 35 14  1  0
 36  4  1  0
M  END
$$$$
