
     RDKit          3D

 36 38  0  0  0  0  0  0  0  0999 V2000
  -25.2487  -41.8660  -10.7938 C   0  0  0  0  0  0  0  0  0  0  0  0
  -25.1861  -40.9728  -12.0323 C   0  0  0  0  0  0  0  0  0  0  0  0
  -24.7791  -39.5774  -11.5908 C   0  0  0  0  0  0  0  0  0  0  0  0
  -24.1899  -41.5183  -13.0051 C   0  0  0  0  0  0  0  0  0  0  0  0
  -24.5629  -41.5148  -14.3320 C   0  0  0  0  0  0  0  0  0  0  0  0
  -23.6730  -42.0085  -15.2576 C   0  0  0  0  0  0  0  0  0  0  0  0
  -22.4418  -42.4956  -14.8843 C   0  0  0  0  0  0  0  0  0  0  0  0
  -22.0762  -42.4944  -13.5437 C   0  0  0  0  0  0  0  0  0  0  0  0
  -20.7417  -43.0256  -13.1737 C   0  0  0  0  0  0  0  0  0  0  0  0
  -19.7532  -41.9953  -12.9835 N   0  0  0  0  0  0  0  0  0  0  0  0
  -19.6990  -41.5829  -11.6060 C   0  0  0  0  0  0  0  0  0  0  0  0
  -18.4246  -40.8038  -11.3426 C   0  0  1  0  0  0  0  0  0  0  0  0
  -18.5178  -39.4770  -11.6721 O   0  0  0  0  0  0  0  0  0  0  0  0
  -18.1311  -40.9405   -9.8563 C   0  0  2  0  0  0  0  0  0  0  0  0
  -16.6891  -40.5657   -9.5786 C   0  0  0  0  0  0  0  0  0  0  0  0
  -16.5089  -39.5826   -8.4743 C   0  0  2  0  0  0  0  0  0  0  0  0
  -15.9218  -38.3089   -9.0625 C   0  0  0  0  0  0  0  0  0  0  0  0
  -15.5766  -40.0785   -7.3896 C   0  0  0  0  0  0  0  0  0  0  0  0
  -15.7485  -39.3711   -6.0691 C   0  0  0  0  0  0  0  0  0  0  0  0
  -16.6538  -39.4136   -5.1473 C   0  0  0  0  0  0  0  0  0  0  0  0
  -16.8533  -38.7251   -3.8233 C   0  0  0  0  0  0  0  0  0  0  0  0
  -17.8554  -39.5948   -3.0210 C   0  0  0  0  0  0  0  0  0  0  0  0
  -19.1492  -38.8440   -2.8276 C   0  0  0  0  0  0  0  0  0  0  0  0
  -19.9358  -38.6760   -4.1040 C   0  0  0  0  0  0  0  0  0  0  0  0
  -20.6931  -39.8257   -4.4657 N   0  0  0  0  0  0  0  0  0  0  0  0
  -20.3806  -40.9422   -5.3240 C   0  0  0  0  0  0  0  0  0  0  0  0
  -19.9689  -41.0364   -6.6213 C   0  0  0  0  0  0  0  0  0  0  0  0
  -19.7577  -42.2967   -7.1443 C   0  0  0  0  0  0  0  0  0  0  0  0
  -19.9843  -43.4122   -6.2969 C   0  0  0  0  0  0  0  0  0  0  0  0
  -20.3996  -43.3194   -4.9892 C   0  0  0  0  0  0  0  0  0  0  0  0
  -20.6579  -44.7488   -4.0063 Cl  0  0  0  0  0  0  0  0  0  0  0  0
  -20.5772  -42.0904   -4.5668 N   0  0  0  0  0  0  0  0  0  0  0  0
  -19.3317  -42.7566   -8.4705 C   0  0  0  0  0  0  0  0  0  0  0  0
  -19.9228  -43.8639   -8.9431 O   0  0  0  0  0  0  0  0  0  0  0  0
  -18.4077  -42.3033   -9.4213 N   0  0  0  0  0  0  0  0  0  0  0  0
  -22.9704  -41.9992  -12.6232 C   0  0  0  0  0  0  0  0  0  0  0  0
  1  2  1  0
  2  3  1  0
  2  4  1  0
  4  5  2  0
  5  6  1  0
  6  7  2  0
  7  8  1  0
  8  9  1  0
  9 10  1  0
 10 11  1  0
 11 12  1  0
 12 13  1  1
 12 14  1  0
 14 15  1  6
 15 16  1  0
 16 17  1  6
 16 18  1  0
 18 19  1  0
 19 20  2  0
 20 21  1  0
 21 22  1  0
 22 23  1  0
 23 24  1  0
 24 25  1  0
 25 26  1  0
 26 27  2  0
 27 28  1  0
 28 29  2  0
 29 30  1  0
 30 31  1  0
 30 32  2  0
 28 33  1  0
 33 34  2  0
 33 35  1  0
  8 36  2  0
 32 26  1  0
 35 14  1  0
 36  4  1  0
M  END
$$$$
