
     RDKit          3D

 36 38  0  0  0  0  0  0  0  0999 V2000
  -25.3260  -39.6312   -5.8895 C   0  0  0  0  0  0  0  0  0  0  0  0
  -24.4434  -40.8754   -5.9832 C   0  0  0  0  0  0  0  0  0  0  0  0
  -24.5028  -41.3926   -7.4104 C   0  0  0  0  0  0  0  0  0  0  0  0
  -23.0353  -40.5310   -5.6163 C   0  0  0  0  0  0  0  0  0  0  0  0
  -22.5135  -41.1747   -4.5148 C   0  0  0  0  0  0  0  0  0  0  0  0
  -21.2204  -40.8846   -4.1456 C   0  0  0  0  0  0  0  0  0  0  0  0
  -20.4574  -39.9795   -4.8464 C   0  0  0  0  0  0  0  0  0  0  0  0
  -20.9937  -39.3363   -5.9553 C   0  0  0  0  0  0  0  0  0  0  0  0
  -20.1451  -38.3666   -6.6899 C   0  0  0  0  0  0  0  0  0  0  0  0
  -19.0818  -38.9918   -7.4337 N   0  0  0  0  0  0  0  0  0  0  0  0
  -17.9209  -39.1863   -6.6061 C   0  0  0  0  0  0  0  0  0  0  0  0
  -16.6598  -38.8932   -7.3961 C   0  0  1  0  0  0  0  0  0  0  0  0
  -15.5620  -38.6669   -6.6080 O   0  0  0  0  0  0  0  0  0  0  0  0
  -16.4105  -40.1046   -8.2816 C   0  0  2  0  0  0  0  0  0  0  0  0
  -15.5129  -39.7204   -9.4408 C   0  0  0  0  0  0  0  0  0  0  0  0
  -14.3437  -40.6213   -9.6407 C   0  0  2  0  0  0  0  0  0  0  0  0
  -13.0763  -39.8176   -9.3940 C   0  0  0  0  0  0  0  0  0  0  0  0
  -14.2759  -41.1980  -11.0386 C   0  0  0  0  0  0  0  0  0  0  0  0
  -13.4431  -42.4510  -11.1403 C   0  0  0  0  0  0  0  0  0  0  0  0
  -13.6283  -43.6757  -10.7705 C   0  0  0  0  0  0  0  0  0  0  0  0
  -12.8219  -44.9441  -10.8582 C   0  0  0  0  0  0  0  0  0  0  0  0
  -13.8231  -46.1156  -10.6863 C   0  0  0  0  0  0  0  0  0  0  0  0
  -13.5480  -46.8428   -9.3938 C   0  0  0  0  0  0  0  0  0  0  0  0
  -13.9017  -46.0348   -8.1698 C   0  0  0  0  0  0  0  0  0  0  0  0
  -15.2886  -46.0562   -7.8505 N   0  0  0  0  0  0  0  0  0  0  0  0
  -16.3637  -45.1637   -8.2093 C   0  0  0  0  0  0  0  0  0  0  0  0
  -16.5450  -43.8182   -8.0746 C   0  0  0  0  0  0  0  0  0  0  0  0
  -17.7260  -43.2738   -8.5387 C   0  0  0  0  0  0  0  0  0  0  0  0
  -18.6749  -44.1512   -9.1247 C   0  0  0  0  0  0  0  0  0  0  0  0
  -18.4942  -45.5077   -9.2612 C   0  0  0  0  0  0  0  0  0  0  0  0
  -19.7178  -46.5254   -9.9981 Cl  0  0  0  0  0  0  0  0  0  0  0  0
  -17.3488  -45.9474   -8.7975 N   0  0  0  0  0  0  0  0  0  0  0  0
  -18.2438  -41.9013   -8.5482 C   0  0  0  0  0  0  0  0  0  0  0  0
  -19.5543  -41.7499   -8.3063 O   0  0  0  0  0  0  0  0  0  0  0  0
  -17.6798  -40.6364   -8.7603 N   0  0  0  0  0  0  0  0  0  0  0  0
  -22.2871  -39.6310   -6.3193 C   0  0  0  0  0  0  0  0  0  0  0  0
  1  2  1  0
  2  3  1  0
  2  4  1  0
  4  5  2  0
  5  6  1  0
  6  7  2  0
  7  8  1  0
  8  9  1  0
  9 10  1  0
 10 11  1  0
 11 12  1  0
 12 13  1  1
 12 14  1  0
 14 15  1  6
 15 16  1  0
 16 17  1  6
 16 18  1  0
 18 19  1  0
 19 20  2  0
 20 21  1  0
 21 22  1  0
 22 23  1  0
 23 24  1  0
 24 25  1  0
 25 26  1  0
 26 27  2  0
 27 28  1  0
 28 29  2  0
 29 30  1  0
 30 31  1  0
 30 32  2  0
 28 33  1  0
 33 34  2  0
 33 35  1  0
  8 36  2  0
 32 26  1  0
 35 14  1  0
 36  4  1  0
M  END
$$$$
