
     RDKit          3D

 36 38  0  0  0  0  0  0  0  0999 V2000
  -11.7609  -35.0301  -13.6968 C   0  0  0  0  0  0  0  0  0  0  0  0
  -11.4693  -36.4133  -13.1158 C   0  0  0  0  0  0  0  0  0  0  0  0
  -10.4690  -36.2510  -11.9840 C   0  0  0  0  0  0  0  0  0  0  0  0
  -12.7326  -37.0289  -12.6050 C   0  0  0  0  0  0  0  0  0  0  0  0
  -12.7824  -38.4063  -12.5925 C   0  0  0  0  0  0  0  0  0  0  0  0
  -13.9283  -39.0102  -12.1291 C   0  0  0  0  0  0  0  0  0  0  0  0
  -15.0025  -38.2732  -11.6874 C   0  0  0  0  0  0  0  0  0  0  0  0
  -14.9415  -36.8850  -11.7045 C   0  0  0  0  0  0  0  0  0  0  0  0
  -16.1160  -36.1190  -11.2210 C   0  0  0  0  0  0  0  0  0  0  0  0
  -17.3404  -36.8771  -11.2522 N   0  0  0  0  0  0  0  0  0  0  0  0
  -17.2288  -38.0670  -10.4508 C   0  0  0  0  0  0  0  0  0  0  0  0
  -17.9776  -37.8898   -9.1437 C   0  0  1  0  0  0  0  0  0  0  0  0
  -19.1849  -37.2580   -9.2874 O   0  0  0  0  0  0  0  0  0  0  0  0
  -18.1962  -39.2840   -8.5759 C   0  0  2  0  0  0  0  0  0  0  0  0
  -18.0186  -39.2617   -7.0709 C   0  0  0  0  0  0  0  0  0  0  0  0
  -19.1303  -39.8960   -6.3091 C   0  0  2  0  0  0  0  0  0  0  0  0
  -19.8084  -38.8210   -5.4738 C   0  0  0  0  0  0  0  0  0  0  0  0
  -18.6573  -40.9924   -5.3788 C   0  0  0  0  0  0  0  0  0  0  0  0
  -19.7409  -41.9629   -4.9815 C   0  0  0  0  0  0  0  0  0  0  0  0
  -20.3542  -42.9162   -5.6030 C   0  0  0  0  0  0  0  0  0  0  0  0
  -21.4337  -43.8996   -5.2365 C   0  0  0  0  0  0  0  0  0  0  0  0
  -21.3376  -45.0610   -6.2593 C   0  0  0  0  0  0  0  0  0  0  0  0
  -22.5685  -45.0830   -7.1308 C   0  0  0  0  0  0  0  0  0  0  0  0
  -22.6413  -43.9182   -8.0868 C   0  0  0  0  0  0  0  0  0  0  0  0
  -21.8480  -44.0868   -9.2566 N   0  0  0  0  0  0  0  0  0  0  0  0
  -20.4968  -43.6820   -9.5589 C   0  0  0  0  0  0  0  0  0  0  0  0
  -19.8510  -42.4808   -9.5213 C   0  0  0  0  0  0  0  0  0  0  0  0
  -18.5199  -42.4490   -9.8868 C   0  0  0  0  0  0  0  0  0  0  0  0
  -17.9111  -43.6692  -10.2792 C   0  0  0  0  0  0  0  0  0  0  0  0
  -18.5604  -44.8809  -10.3182 C   0  0  0  0  0  0  0  0  0  0  0  0
  -17.7357  -46.3466  -10.8159 Cl  0  0  0  0  0  0  0  0  0  0  0  0
  -19.8201  -44.8285   -9.9565 N   0  0  0  0  0  0  0  0  0  0  0  0
  -17.5446  -41.3563   -9.9691 C   0  0  0  0  0  0  0  0  0  0  0  0
  -16.6863  -41.3908  -10.9992 O   0  0  0  0  0  0  0  0  0  0  0  0
  -17.2684  -40.2210   -9.1957 N   0  0  0  0  0  0  0  0  0  0  0  0
  -13.7928  -36.2873  -12.1688 C   0  0  0  0  0  0  0  0  0  0  0  0
  1  2  1  0
  2  3  1  0
  2  4  1  0
  4  5  2  0
  5  6  1  0
  6  7  2  0
  7  8  1  0
  8  9  1  0
  9 10  1  0
 10 11  1  0
 11 12  1  0
 12 13  1  6
 12 14  1  0
 14 15  1  1
 15 16  1  0
 16 17  1  1
 16 18  1  0
 18 19  1  0
 19 20  2  0
 20 21  1  0
 21 22  1  0
 22 23  1  0
 23 24  1  0
 24 25  1  0
 25 26  1  0
 26 27  2  0
 27 28  1  0
 28 29  2  0
 29 30  1  0
 30 31  1  0
 30 32  2  0
 28 33  1  0
 33 34  2  0
 33 35  1  0
  8 36  2  0
 32 26  1  0
 35 14  1  0
 36  4  1  0
M  END
$$$$
