
     RDKit          3D

 36 38  0  0  0  0  0  0  0  0999 V2000
  -21.6316  -39.8107  -12.2061 C   0  0  0  0  0  0  0  0  0  0  0  0
  -20.8255  -38.6600  -11.6046 C   0  0  0  0  0  0  0  0  0  0  0  0
  -21.4038  -37.3542  -12.1225 C   0  0  0  0  0  0  0  0  0  0  0  0
  -20.9068  -38.7055  -10.1121 C   0  0  0  0  0  0  0  0  0  0  0  0
  -22.1709  -38.6552   -9.5648 C   0  0  0  0  0  0  0  0  0  0  0  0
  -22.2870  -38.6950   -8.1947 C   0  0  0  0  0  0  0  0  0  0  0  0
  -21.1816  -38.7824   -7.3806 C   0  0  0  0  0  0  0  0  0  0  0  0
  -19.9118  -38.8324   -7.9431 C   0  0  0  0  0  0  0  0  0  0  0  0
  -18.7403  -38.9272   -7.0384 C   0  0  0  0  0  0  0  0  0  0  0  0
  -17.8917  -37.7642   -7.0845 N   0  0  0  0  0  0  0  0  0  0  0  0
  -16.8388  -37.9342   -8.0505 C   0  0  0  0  0  0  0  0  0  0  0  0
  -15.8228  -38.9409   -7.5456 C   0  0  1  0  0  0  0  0  0  0  0  0
  -16.3256  -39.7978   -6.6020 O   0  0  0  0  0  0  0  0  0  0  0  0
  -15.3575  -39.7336   -8.7576 C   0  0  2  0  0  0  0  0  0  0  0  0
  -14.9951  -38.7874   -9.8848 C   0  0  0  0  0  0  0  0  0  0  0  0
  -13.6597  -39.0380  -10.4952 C   0  0  2  0  0  0  0  0  0  0  0  0
  -12.7789  -37.8278  -10.2257 C   0  0  0  0  0  0  0  0  0  0  0  0
  -13.7266  -39.2528  -11.9921 C   0  0  0  0  0  0  0  0  0  0  0  0
  -12.5311  -39.9778  -12.5569 C   0  0  0  0  0  0  0  0  0  0  0  0
  -12.1345  -41.2075  -12.5163 C   0  0  0  0  0  0  0  0  0  0  0  0
  -10.9530  -41.9601  -13.0681 C   0  0  0  0  0  0  0  0  0  0  0  0
  -11.3519  -43.4585  -13.0807 C   0  0  0  0  0  0  0  0  0  0  0  0
  -10.5065  -44.2248  -12.0940 C   0  0  0  0  0  0  0  0  0  0  0  0
  -10.8259  -43.8969  -10.6565 C   0  0  0  0  0  0  0  0  0  0  0  0
  -11.9718  -44.5761  -10.1550 N   0  0  0  0  0  0  0  0  0  0  0  0
  -13.3594  -44.1867  -10.0914 C   0  0  0  0  0  0  0  0  0  0  0  0
  -14.0026  -43.1045   -9.5656 C   0  0  0  0  0  0  0  0  0  0  0  0
  -15.3773  -43.0479   -9.6824 C   0  0  0  0  0  0  0  0  0  0  0  0
  -16.0310  -44.1211  -10.3415 C   0  0  0  0  0  0  0  0  0  0  0  0
  -15.3846  -45.2130  -10.8718 C   0  0  0  0  0  0  0  0  0  0  0  0
  -16.2665  -46.5002  -11.6725 Cl  0  0  0  0  0  0  0  0  0  0  0  0
  -14.0818  -45.1926  -10.7213 N   0  0  0  0  0  0  0  0  0  0  0  0
  -16.3661  -42.0603   -9.2366 C   0  0  0  0  0  0  0  0  0  0  0  0
  -17.5295  -42.5395   -8.7722 O   0  0  0  0  0  0  0  0  0  0  0  0
  -16.4020  -40.6611   -9.1722 N   0  0  0  0  0  0  0  0  0  0  0  0
  -19.8026  -38.7924   -9.3138 C   0  0  0  0  0  0  0  0  0  0  0  0
  1  2  1  0
  2  3  1  0
  2  4  1  0
  4  5  2  0
  5  6  1  0
  6  7  2  0
  7  8  1  0
  8  9  1  0
  9 10  1  0
 10 11  1  0
 11 12  1  0
 12 13  1  1
 12 14  1  0
 14 15  1  6
 15 16  1  0
 16 17  1  6
 16 18  1  0
 18 19  1  0
 19 20  2  0
 20 21  1  0
 21 22  1  0
 22 23  1  0
 23 24  1  0
 24 25  1  0
 25 26  1  0
 26 27  2  0
 27 28  1  0
 28 29  2  0
 29 30  1  0
 30 31  1  0
 30 32  2  0
 28 33  1  0
 33 34  2  0
 33 35  1  0
  8 36  2  0
 32 26  1  0
 35 14  1  0
 36  4  1  0
M  END
$$$$
