
     RDKit          3D

 36 38  0  0  0  0  0  0  0  0999 V2000
  -10.7576  -35.6849  -13.1337 C   0  0  0  0  0  0  0  0  0  0  0  0
  -11.9479  -35.7792  -12.1797 C   0  0  0  0  0  0  0  0  0  0  0  0
  -13.0760  -34.9324  -12.7437 C   0  0  0  0  0  0  0  0  0  0  0  0
  -12.3858  -37.2030  -12.0492 C   0  0  0  0  0  0  0  0  0  0  0  0
  -12.8060  -37.8240  -13.2058 C   0  0  0  0  0  0  0  0  0  0  0  0
  -13.2165  -39.1346  -13.1264 C   0  0  0  0  0  0  0  0  0  0  0  0
  -13.2132  -39.8192  -11.9332 C   0  0  0  0  0  0  0  0  0  0  0  0
  -12.7876  -39.1832  -10.7733 C   0  0  0  0  0  0  0  0  0  0  0  0
  -12.7953  -39.9488   -9.5029 C   0  0  0  0  0  0  0  0  0  0  0  0
  -13.5315  -39.2960   -8.4509 N   0  0  0  0  0  0  0  0  0  0  0  0
  -14.8957  -39.0645   -8.8455 C   0  0  0  0  0  0  0  0  0  0  0  0
  -15.7574  -38.8073   -7.6241 C   0  0  1  0  0  0  0  0  0  0  0  0
  -16.1358  -37.4973   -7.4888 O   0  0  0  0  0  0  0  0  0  0  0  0
  -16.9931  -39.6820   -7.7721 C   0  0  2  0  0  0  0  0  0  0  0  0
  -17.7994  -39.6572   -6.4891 C   0  0  0  0  0  0  0  0  0  0  0  0
  -19.2475  -39.3632   -6.6761 C   0  0  2  0  0  0  0  0  0  0  0  0
  -19.5566  -38.0408   -5.9914 C   0  0  0  0  0  0  0  0  0  0  0  0
  -20.1465  -40.4268   -6.0829 C   0  0  0  0  0  0  0  0  0  0  0  0
  -21.5400  -40.4365   -6.6591 C   0  0  0  0  0  0  0  0  0  0  0  0
  -22.0326  -40.8181   -7.7917 C   0  0  0  0  0  0  0  0  0  0  0  0
  -23.4120  -40.8427   -8.3946 C   0  0  0  0  0  0  0  0  0  0  0  0
  -23.3680  -41.8717   -9.5536 C   0  0  0  0  0  0  0  0  0  0  0  0
  -23.5505  -41.1674  -10.8749 C   0  0  0  0  0  0  0  0  0  0  0  0
  -22.3697  -40.3114  -11.2606 C   0  0  0  0  0  0  0  0  0  0  0  0
  -21.2938  -41.0448  -11.8356 N   0  0  0  0  0  0  0  0  0  0  0  0
  -20.1154  -41.6304  -11.2443 C   0  0  0  0  0  0  0  0  0  0  0  0
  -19.1115  -41.1282  -10.4688 C   0  0  0  0  0  0  0  0  0  0  0  0
  -18.1103  -41.9898  -10.0669 C   0  0  0  0  0  0  0  0  0  0  0  0
  -18.1911  -43.3423  -10.4887 C   0  0  0  0  0  0  0  0  0  0  0  0
  -19.2019  -43.8504  -11.2707 C   0  0  0  0  0  0  0  0  0  0  0  0
  -19.2294  -45.5371  -11.7504 Cl  0  0  0  0  0  0  0  0  0  0  0  0
  -20.1138  -42.9708  -11.6100 N   0  0  0  0  0  0  0  0  0  0  0  0
  -16.9044  -41.7919   -9.2555 C   0  0  0  0  0  0  0  0  0  0  0  0
  -15.8033  -42.4538   -9.6408 O   0  0  0  0  0  0  0  0  0  0  0  0
  -16.5975  -41.0425   -8.1121 N   0  0  0  0  0  0  0  0  0  0  0  0
  -12.3783  -37.8728  -10.8594 C   0  0  0  0  0  0  0  0  0  0  0  0
  1  2  1  0
  2  3  1  0
  2  4  1  0
  4  5  2  0
  5  6  1  0
  6  7  2  0
  7  8  1  0
  8  9  1  0
  9 10  1  0
 10 11  1  0
 11 12  1  0
 12 13  1  6
 12 14  1  0
 14 15  1  1
 15 16  1  0
 16 17  1  1
 16 18  1  0
 18 19  1  0
 19 20  2  0
 20 21  1  0
 21 22  1  0
 22 23  1  0
 23 24  1  0
 24 25  1  0
 25 26  1  0
 26 27  2  0
 27 28  1  0
 28 29  2  0
 29 30  1  0
 30 31  1  0
 30 32  2  0
 28 33  1  0
 33 34  2  0
 33 35  1  0
  8 36  2  0
 32 26  1  0
 35 14  1  0
 36  4  1  0
M  END
$$$$
