
     RDKit          3D

 36 38  0  0  0  0  0  0  0  0999 V2000
  -21.5765  -42.8627   -5.7439 C   0  0  0  0  0  0  0  0  0  0  0  0
  -22.7527  -41.9735   -6.1459 C   0  0  0  0  0  0  0  0  0  0  0  0
  -23.3813  -41.4173   -4.8797 C   0  0  0  0  0  0  0  0  0  0  0  0
  -22.2738  -40.8575   -7.0185 C   0  0  0  0  0  0  0  0  0  0  0  0
  -22.7047  -40.8743   -8.3277 C   0  0  0  0  0  0  0  0  0  0  0  0
  -22.2857  -39.8640   -9.1620 C   0  0  0  0  0  0  0  0  0  0  0  0
  -21.4596  -38.8583   -8.7164 C   0  0  0  0  0  0  0  0  0  0  0  0
  -21.0311  -38.8513   -7.3945 C   0  0  0  0  0  0  0  0  0  0  0  0
  -20.1416  -37.7529   -6.9447 C   0  0  0  0  0  0  0  0  0  0  0  0
  -18.9410  -37.6359   -7.7320 N   0  0  0  0  0  0  0  0  0  0  0  0
  -17.9688  -38.6201   -7.3362 C   0  0  0  0  0  0  0  0  0  0  0  0
  -16.5665  -38.0649   -7.4973 C   0  0  1  0  0  0  0  0  0  0  0  0
  -15.8138  -38.1429   -6.3550 O   0  0  0  0  0  0  0  0  0  0  0  0
  -15.9031  -38.8743   -8.6012 C   0  0  2  0  0  0  0  0  0  0  0  0
  -15.5752  -37.9737   -9.7753 C   0  0  0  0  0  0  0  0  0  0  0  0
  -14.1727  -38.0840  -10.2645 C   0  0  2  0  0  0  0  0  0  0  0  0
  -13.4827  -36.7481  -10.0356 C   0  0  0  0  0  0  0  0  0  0  0  0
  -14.0869  -38.4164  -11.7388 C   0  0  0  0  0  0  0  0  0  0  0  0
  -12.7644  -39.0111  -12.1526 C   0  0  0  0  0  0  0  0  0  0  0  0
  -12.2154  -40.1685  -11.9796 C   0  0  0  0  0  0  0  0  0  0  0  0
  -10.9043  -40.7915  -12.3792 C   0  0  0  0  0  0  0  0  0  0  0  0
  -11.1017  -42.3270  -12.2936 C   0  0  0  0  0  0  0  0  0  0  0  0
  -10.2482  -42.8952  -11.1874 C   0  0  0  0  0  0  0  0  0  0  0  0
  -10.7255  -42.5083   -9.8095 C   0  0  0  0  0  0  0  0  0  0  0  0
  -11.8104  -43.2987   -9.3362 N   0  0  0  0  0  0  0  0  0  0  0  0
  -13.2374  -43.0990   -9.4059 C   0  0  0  0  0  0  0  0  0  0  0  0
  -14.0577  -42.0789   -9.0213 C   0  0  0  0  0  0  0  0  0  0  0  0
  -15.4136  -42.2196   -9.2412 C   0  0  0  0  0  0  0  0  0  0  0  0
  -15.8649  -43.4180   -9.8525 C   0  0  0  0  0  0  0  0  0  0  0  0
  -15.0398  -44.4475  -10.2406 C   0  0  0  0  0  0  0  0  0  0  0  0
  -15.6769  -45.8991  -10.9909 Cl  0  0  0  0  0  0  0  0  0  0  0  0
  -13.7677  -44.2382   -9.9989 N   0  0  0  0  0  0  0  0  0  0  0  0
  -16.5562  -41.3461   -8.9530 C   0  0  0  0  0  0  0  0  0  0  0  0
  -17.6816  -41.9440   -8.5348 O   0  0  0  0  0  0  0  0  0  0  0  0
  -16.7797  -39.9640   -9.0100 N   0  0  0  0  0  0  0  0  0  0  0  0
  -21.4539  -39.8643   -6.5654 C   0  0  0  0  0  0  0  0  0  0  0  0
  1  2  1  0
  2  3  1  0
  2  4  1  0
  4  5  2  0
  5  6  1  0
  6  7  2  0
  7  8  1  0
  8  9  1  0
  9 10  1  0
 10 11  1  0
 11 12  1  0
 12 13  1  1
 12 14  1  0
 14 15  1  6
 15 16  1  0
 16 17  1  6
 16 18  1  0
 18 19  1  0
 19 20  2  0
 20 21  1  0
 21 22  1  0
 22 23  1  0
 23 24  1  0
 24 25  1  0
 25 26  1  0
 26 27  2  0
 27 28  1  0
 28 29  2  0
 29 30  1  0
 30 31  1  0
 30 32  2  0
 28 33  1  0
 33 34  2  0
 33 35  1  0
  8 36  2  0
 32 26  1  0
 35 14  1  0
 36  4  1  0
M  END
$$$$
