
     RDKit          3D

 36 38  0  0  0  0  0  0  0  0999 V2000
  -11.9502  -38.3586  -15.3945 C   0  0  0  0  0  0  0  0  0  0  0  0
  -12.1359  -37.8435  -13.9677 C   0  0  0  0  0  0  0  0  0  0  0  0
  -13.0866  -36.6595  -14.0108 C   0  0  0  0  0  0  0  0  0  0  0  0
  -12.6980  -38.9266  -13.1033 C   0  0  0  0  0  0  0  0  0  0  0  0
  -13.1055  -40.0755  -13.7467 C   0  0  0  0  0  0  0  0  0  0  0  0
  -13.6280  -41.0952  -12.9853 C   0  0  0  0  0  0  0  0  0  0  0  0
  -13.7467  -40.9857  -11.6192 C   0  0  0  0  0  0  0  0  0  0  0  0
  -13.3328  -39.8228  -10.9809 C   0  0  0  0  0  0  0  0  0  0  0  0
  -13.4733  -39.7362   -9.5069 C   0  0  0  0  0  0  0  0  0  0  0  0
  -14.4830  -38.7986   -9.0869 N   0  0  0  0  0  0  0  0  0  0  0  0
  -15.7585  -39.4481   -8.9405 C   0  0  0  0  0  0  0  0  0  0  0  0
  -16.7264  -38.5411   -8.2048 C   0  0  1  0  0  0  0  0  0  0  0  0
  -17.3264  -37.6121   -9.0138 O   0  0  0  0  0  0  0  0  0  0  0  0
  -17.7863  -39.4433   -7.5913 C   0  0  2  0  0  0  0  0  0  0  0  0
  -18.5805  -38.6747   -6.5542 C   0  0  0  0  0  0  0  0  0  0  0  0
  -20.0584  -38.7739   -6.7109 C   0  0  2  0  0  0  0  0  0  0  0  0
  -20.5968  -37.3881   -7.0312 C   0  0  0  0  0  0  0  0  0  0  0  0
  -20.7514  -39.2757   -5.4621 C   0  0  0  0  0  0  0  0  0  0  0  0
  -22.1223  -39.8502   -5.7161 C   0  0  0  0  0  0  0  0  0  0  0  0
  -22.5420  -40.9504   -6.2495 C   0  0  0  0  0  0  0  0  0  0  0  0
  -23.8965  -41.5517   -6.5151 C   0  0  0  0  0  0  0  0  0  0  0  0
  -23.6726  -43.0737   -6.7084 C   0  0  0  0  0  0  0  0  0  0  0  0
  -23.9817  -43.4631   -8.1325 C   0  0  0  0  0  0  0  0  0  0  0  0
  -22.9738  -42.9379   -9.1247 C   0  0  0  0  0  0  0  0  0  0  0  0
  -21.7859  -43.7182   -9.2020 N   0  0  0  0  0  0  0  0  0  0  0  0
  -20.5202  -43.5983   -8.5203 C   0  0  0  0  0  0  0  0  0  0  0  0
  -19.6200  -42.5810   -8.3939 C   0  0  0  0  0  0  0  0  0  0  0  0
  -18.4798  -42.8131   -7.6505 C   0  0  0  0  0  0  0  0  0  0  0  0
  -18.3190  -44.0967   -7.0674 C   0  0  0  0  0  0  0  0  0  0  0  0
  -19.2249  -45.1237   -7.1938 C   0  0  0  0  0  0  0  0  0  0  0  0
  -18.9521  -46.6840   -6.4410 Cl  0  0  0  0  0  0  0  0  0  0  0  0
  -20.2802  -44.8249   -7.9132 N   0  0  0  0  0  0  0  0  0  0  0  0
  -17.3264  -41.9684   -7.3222 C   0  0  0  0  0  0  0  0  0  0  0  0
  -16.1259  -42.5664   -7.3083 O   0  0  0  0  0  0  0  0  0  0  0  0
  -17.1551  -40.6157   -6.9996 N   0  0  0  0  0  0  0  0  0  0  0  0
  -12.8110  -38.8071  -11.7479 C   0  0  0  0  0  0  0  0  0  0  0  0
  1  2  1  0
  2  3  1  0
  2  4  1  0
  4  5  2  0
  5  6  1  0
  6  7  2  0
  7  8  1  0
  8  9  1  0
  9 10  1  0
 10 11  1  0
 11 12  1  0
 12 13  1  6
 12 14  1  0
 14 15  1  1
 15 16  1  0
 16 17  1  1
 16 18  1  0
 18 19  1  0
 19 20  2  0
 20 21  1  0
 21 22  1  0
 22 23  1  0
 23 24  1  0
 24 25  1  0
 25 26  1  0
 26 27  2  0
 27 28  1  0
 28 29  2  0
 29 30  1  0
 30 31  1  0
 30 32  2  0
 28 33  1  0
 33 34  2  0
 33 35  1  0
  8 36  2  0
 32 26  1  0
 35 14  1  0
 36  4  1  0
M  END
$$$$
