
     RDKit          3D

 36 38  0  0  0  0  0  0  0  0999 V2000
  -10.6894  -35.5861  -13.7120 C   0  0  0  0  0  0  0  0  0  0  0  0
  -12.1004  -35.6465  -13.1282 C   0  0  0  0  0  0  0  0  0  0  0  0
  -13.0370  -36.1691  -14.2040 C   0  0  0  0  0  0  0  0  0  0  0  0
  -12.1222  -36.5528  -11.9390 C   0  0  0  0  0  0  0  0  0  0  0  0
  -11.3871  -36.1480  -10.8455 C   0  0  0  0  0  0  0  0  0  0  0  0
  -11.3824  -36.9552   -9.7316 C   0  0  0  0  0  0  0  0  0  0  0  0
  -12.0867  -38.1362   -9.6953 C   0  0  0  0  0  0  0  0  0  0  0  0
  -12.8244  -38.5348  -10.8035 C   0  0  0  0  0  0  0  0  0  0  0  0
  -13.5734  -39.8131  -10.7325 C   0  0  0  0  0  0  0  0  0  0  0  0
  -14.9585  -39.6810  -11.1052 N   0  0  0  0  0  0  0  0  0  0  0  0
  -15.8181  -39.8851   -9.9695 C   0  0  0  0  0  0  0  0  0  0  0  0
  -17.0810  -39.0574  -10.1135 C   0  0  1  0  0  0  0  0  0  0  0  0
  -17.7855  -39.3307  -11.2565 O   0  0  0  0  0  0  0  0  0  0  0  0
  -17.9426  -39.3643   -8.8981 C   0  0  2  0  0  0  0  0  0  0  0  0
  -18.7862  -38.1556   -8.5453 C   0  0  0  0  0  0  0  0  0  0  0  0
  -20.2355  -38.4469   -8.3628 C   0  0  2  0  0  0  0  0  0  0  0  0
  -21.0087  -37.7104   -9.4457 C   0  0  0  0  0  0  0  0  0  0  0  0
  -20.7617  -37.9997   -7.0158 C   0  0  0  0  0  0  0  0  0  0  0  0
  -22.0348  -38.6923   -6.5994 C   0  0  0  0  0  0  0  0  0  0  0  0
  -22.3030  -39.8843   -6.1771 C   0  0  0  0  0  0  0  0  0  0  0  0
  -23.5563  -40.6030   -5.7536 C   0  0  0  0  0  0  0  0  0  0  0  0
  -23.1021  -41.8157   -4.9007 C   0  0  0  0  0  0  0  0  0  0  0  0
  -23.4297  -43.1015   -5.6180 C   0  0  0  0  0  0  0  0  0  0  0  0
  -22.5815  -43.3311   -6.8443 C   0  0  0  0  0  0  0  0  0  0  0  0
  -21.2902  -43.8566   -6.5575 N   0  0  0  0  0  0  0  0  0  0  0  0
  -20.0215  -43.2044   -6.3422 C   0  0  0  0  0  0  0  0  0  0  0  0
  -19.2912  -42.3164   -7.0767 C   0  0  0  0  0  0  0  0  0  0  0  0
  -18.0858  -41.8848   -6.5599 C   0  0  0  0  0  0  0  0  0  0  0  0
  -17.6851  -42.3950   -5.2979 C   0  0  0  0  0  0  0  0  0  0  0  0
  -18.4195  -43.2904   -4.5562 C   0  0  0  0  0  0  0  0  0  0  0  0
  -17.8536  -43.8745   -3.0023 Cl  0  0  0  0  0  0  0  0  0  0  0  0
  -19.5507  -43.6511   -5.1136 N   0  0  0  0  0  0  0  0  0  0  0  0
  -17.0660  -40.9627   -7.0714 C   0  0  0  0  0  0  0  0  0  0  0  0
  -15.7862  -41.2930   -6.8437 O   0  0  0  0  0  0  0  0  0  0  0  0
  -17.0959  -39.7530   -7.7777 N   0  0  0  0  0  0  0  0  0  0  0  0
  -12.8251  -37.7231  -11.9140 C   0  0  0  0  0  0  0  0  0  0  0  0
  1  2  1  0
  2  3  1  0
  2  4  1  0
  4  5  2  0
  5  6  1  0
  6  7  2  0
  7  8  1  0
  8  9  1  0
  9 10  1  0
 10 11  1  0
 11 12  1  0
 12 13  1  6
 12 14  1  0
 14 15  1  1
 15 16  1  0
 16 17  1  6
 16 18  1  0
 18 19  1  0
 19 20  2  0
 20 21  1  0
 21 22  1  0
 22 23  1  0
 23 24  1  0
 24 25  1  0
 25 26  1  0
 26 27  2  0
 27 28  1  0
 28 29  2  0
 29 30  1  0
 30 31  1  0
 30 32  2  0
 28 33  1  0
 33 34  2  0
 33 35  1  0
  8 36  2  0
 32 26  1  0
 35 14  1  0
 36  4  1  0
M  END
$$$$
