
     RDKit          3D

 36 38  0  0  0  0  0  0  0  0999 V2000
  -22.2522  -40.7111   -4.7698 C   0  0  0  0  0  0  0  0  0  0  0  0
  -22.6703  -39.2442   -4.8646 C   0  0  0  0  0  0  0  0  0  0  0  0
  -22.1121  -38.5129   -3.6557 C   0  0  0  0  0  0  0  0  0  0  0  0
  -22.1367  -38.6419   -6.1250 C   0  0  0  0  0  0  0  0  0  0  0  0
  -23.0434  -38.4515   -7.1456 C   0  0  0  0  0  0  0  0  0  0  0  0
  -22.5906  -37.8993   -8.3214 C   0  0  0  0  0  0  0  0  0  0  0  0
  -21.2727  -37.5422   -8.4886 C   0  0  0  0  0  0  0  0  0  0  0  0
  -20.3672  -37.7388   -7.4530 C   0  0  0  0  0  0  0  0  0  0  0  0
  -18.9535  -37.3426   -7.6644 C   0  0  0  0  0  0  0  0  0  0  0  0
  -18.1732  -38.3551   -8.3283 N   0  0  0  0  0  0  0  0  0  0  0  0
  -17.4984  -39.1930   -7.3728 C   0  0  0  0  0  0  0  0  0  0  0  0
  -16.1301  -39.5864   -7.8959 C   0  0  1  0  0  0  0  0  0  0  0  0
  -15.1763  -39.6764   -6.9163 O   0  0  0  0  0  0  0  0  0  0  0  0
  -16.2959  -40.9390   -8.5717 C   0  0  2  0  0  0  0  0  0  0  0  0
  -15.0909  -41.2313   -9.4433 C   0  0  0  0  0  0  0  0  0  0  0  0
  -14.4787  -42.5708   -9.2207 C   0  0  2  0  0  0  0  0  0  0  0  0
  -13.0730  -42.3668   -8.6772 C   0  0  0  0  0  0  0  0  0  0  0  0
  -14.3834  -43.3935  -10.4877 C   0  0  0  0  0  0  0  0  0  0  0  0
  -14.2467  -44.8750  -10.2424 C   0  0  0  0  0  0  0  0  0  0  0  0
  -15.0683  -45.7920   -9.8484 C   0  0  0  0  0  0  0  0  0  0  0  0
  -14.9645  -47.2727   -9.5962 C   0  0  0  0  0  0  0  0  0  0  0  0
  -16.4114  -47.8286   -9.6340 C   0  0  0  0  0  0  0  0  0  0  0  0
  -16.8104  -48.3198   -8.2648 C   0  0  0  0  0  0  0  0  0  0  0  0
  -17.0006  -47.2057   -7.2655 C   0  0  0  0  0  0  0  0  0  0  0  0
  -18.2627  -46.5554   -7.3659 N   0  0  0  0  0  0  0  0  0  0  0  0
  -18.6743  -45.3792   -8.0927 C   0  0  0  0  0  0  0  0  0  0  0  0
  -18.2198  -44.0932   -8.1229 C   0  0  0  0  0  0  0  0  0  0  0  0
  -18.8635  -43.1977   -8.9538 C   0  0  0  0  0  0  0  0  0  0  0  0
  -19.9574  -43.6747   -9.7215 C   0  0  0  0  0  0  0  0  0  0  0  0
  -20.4173  -44.9704   -9.6923 C   0  0  0  0  0  0  0  0  0  0  0  0
  -21.7782  -45.4819  -10.6733 Cl  0  0  0  0  0  0  0  0  0  0  0  0
  -19.7542  -45.7587   -8.8804 N   0  0  0  0  0  0  0  0  0  0  0  0
  -18.6505  -41.7714   -9.2221 C   0  0  0  0  0  0  0  0  0  0  0  0
  -19.7482  -41.0187   -9.3874 O   0  0  0  0  0  0  0  0  0  0  0  0
  -17.5224  -40.9515   -9.3581 N   0  0  0  0  0  0  0  0  0  0  0  0
  -20.8263  -38.2911   -6.2798 C   0  0  0  0  0  0  0  0  0  0  0  0
  1  2  1  0
  2  3  1  0
  2  4  1  0
  4  5  2  0
  5  6  1  0
  6  7  2  0
  7  8  1  0
  8  9  1  0
  9 10  1  0
 10 11  1  0
 11 12  1  0
 12 13  1  1
 12 14  1  0
 14 15  1  6
 15 16  1  0
 16 17  1  6
 16 18  1  0
 18 19  1  0
 19 20  2  0
 20 21  1  0
 21 22  1  0
 22 23  1  0
 23 24  1  0
 24 25  1  0
 25 26  1  0
 26 27  2  0
 27 28  1  0
 28 29  2  0
 29 30  1  0
 30 31  1  0
 30 32  2  0
 28 33  1  0
 33 34  2  0
 33 35  1  0
  8 36  2  0
 32 26  1  0
 35 14  1  0
 36  4  1  0
M  END
$$$$
