
     RDKit          3D

 36 38  0  0  0  0  0  0  0  0999 V2000
  -23.2268  -37.8660   -5.3856 C   0  0  0  0  0  0  0  0  0  0  0  0
  -23.4170  -38.2751   -6.8458 C   0  0  0  0  0  0  0  0  0  0  0  0
  -23.2528  -37.0370   -7.7105 C   0  0  0  0  0  0  0  0  0  0  0  0
  -22.4027  -39.3072   -7.2228 C   0  0  0  0  0  0  0  0  0  0  0  0
  -22.6156  -39.9708   -8.4119 C   0  0  0  0  0  0  0  0  0  0  0  0
  -21.7039  -40.9277   -8.7935 C   0  0  0  0  0  0  0  0  0  0  0  0
  -20.6057  -41.2248   -8.0202 C   0  0  0  0  0  0  0  0  0  0  0  0
  -20.4008  -40.5496   -6.8231 C   0  0  0  0  0  0  0  0  0  0  0  0
  -19.2069  -40.8924   -6.0126 C   0  0  0  0  0  0  0  0  0  0  0  0
  -18.1778  -39.8858   -6.0635 N   0  0  0  0  0  0  0  0  0  0  0  0
  -17.3913  -40.0149   -7.2615 C   0  0  0  0  0  0  0  0  0  0  0  0
  -16.2212  -39.0505   -7.2259 C   0  0  1  0  0  0  0  0  0  0  0  0
  -15.2477  -39.4060   -6.3295 O   0  0  0  0  0  0  0  0  0  0  0  0
  -15.6365  -39.0249   -8.6299 C   0  0  2  0  0  0  0  0  0  0  0  0
  -15.8692  -37.6667   -9.2609 C   0  0  0  0  0  0  0  0  0  0  0  0
  -14.6523  -37.0452   -9.8538 C   0  0  2  0  0  0  0  0  0  0  0  0
  -14.3396  -35.7760   -9.0764 C   0  0  0  0  0  0  0  0  0  0  0  0
  -14.8284  -36.6780  -11.3117 C   0  0  0  0  0  0  0  0  0  0  0  0
  -13.5292  -36.5208  -12.0608 C   0  0  0  0  0  0  0  0  0  0  0  0
  -12.6473  -37.3579  -12.4996 C   0  0  0  0  0  0  0  0  0  0  0  0
  -11.3472  -37.2343  -13.2487 C   0  0  0  0  0  0  0  0  0  0  0  0
  -11.0708  -38.6217  -13.8835 C   0  0  0  0  0  0  0  0  0  0  0  0
   -9.8528  -39.2451  -13.2488 C   0  0  0  0  0  0  0  0  0  0  0  0
  -10.0786  -39.6692  -11.8187 C   0  0  0  0  0  0  0  0  0  0  0  0
  -10.7468  -40.9194  -11.6906 N   0  0  0  0  0  0  0  0  0  0  0  0
  -12.1451  -41.2427  -11.5442 C   0  0  0  0  0  0  0  0  0  0  0  0
  -13.1068  -40.8506  -10.6595 C   0  0  0  0  0  0  0  0  0  0  0  0
  -14.3774  -41.3693  -10.8114 C   0  0  0  0  0  0  0  0  0  0  0  0
  -14.5988  -42.2781  -11.8784 C   0  0  0  0  0  0  0  0  0  0  0  0
  -13.6308  -42.6749  -12.7710 C   0  0  0  0  0  0  0  0  0  0  0  0
  -13.9854  -43.8045  -14.0650 Cl  0  0  0  0  0  0  0  0  0  0  0  0
  -12.4525  -42.1385  -12.5609 N   0  0  0  0  0  0  0  0  0  0  0  0
  -15.6193  -41.1764  -10.0549 C   0  0  0  0  0  0  0  0  0  0  0  0
  -16.3932  -42.2579   -9.8810 O   0  0  0  0  0  0  0  0  0  0  0  0
  -16.2356  -40.0819   -9.4341 N   0  0  0  0  0  0  0  0  0  0  0  0
  -21.3160  -39.5938   -6.4474 C   0  0  0  0  0  0  0  0  0  0  0  0
  1  2  1  0
  2  3  1  0
  2  4  1  0
  4  5  2  0
  5  6  1  0
  6  7  2  0
  7  8  1  0
  8  9  1  0
  9 10  1  0
 10 11  1  0
 11 12  1  0
 12 13  1  1
 12 14  1  0
 14 15  1  6
 15 16  1  0
 16 17  1  1
 16 18  1  0
 18 19  1  0
 19 20  2  0
 20 21  1  0
 21 22  1  0
 22 23  1  0
 23 24  1  0
 24 25  1  0
 25 26  1  0
 26 27  2  0
 27 28  1  0
 28 29  2  0
 29 30  1  0
 30 31  1  0
 30 32  2  0
 28 33  1  0
 33 34  2  0
 33 35  1  0
  8 36  2  0
 32 26  1  0
 35 14  1  0
 36  4  1  0
M  END
$$$$
