
     RDKit          3D

 36 38  0  0  0  0  0  0  0  0999 V2000
  -14.2747  -44.2550  -12.3305 C   0  0  0  0  0  0  0  0  0  0  0  0
  -13.1740  -43.4959  -11.5902 C   0  0  0  0  0  0  0  0  0  0  0  0
  -11.8331  -43.9398  -12.1495 C   0  0  0  0  0  0  0  0  0  0  0  0
  -13.3521  -42.0236  -11.7815 C   0  0  0  0  0  0  0  0  0  0  0  0
  -13.5355  -41.5912  -13.0774 C   0  0  0  0  0  0  0  0  0  0  0  0
  -13.7032  -40.2431  -13.2941 C   0  0  0  0  0  0  0  0  0  0  0  0
  -13.6906  -39.3399  -12.2566 C   0  0  0  0  0  0  0  0  0  0  0  0
  -13.5048  -39.7869  -10.9540 C   0  0  0  0  0  0  0  0  0  0  0  0
  -13.4970  -38.7882   -9.8575 C   0  0  0  0  0  0  0  0  0  0  0  0
  -14.7817  -38.1746   -9.6391 N   0  0  0  0  0  0  0  0  0  0  0  0
  -15.7034  -39.1081   -9.0479 C   0  0  0  0  0  0  0  0  0  0  0  0
  -17.0287  -38.4269   -8.7646 C   0  0  1  0  0  0  0  0  0  0  0  0
  -17.6257  -37.9074   -9.8832 O   0  0  0  0  0  0  0  0  0  0  0  0
  -17.9350  -39.4802   -8.1457 C   0  0  2  0  0  0  0  0  0  0  0  0
  -18.9111  -38.8238   -7.1900 C   0  0  0  0  0  0  0  0  0  0  0  0
  -20.3349  -39.2053   -7.4038 C   0  0  2  0  0  0  0  0  0  0  0  0
  -21.1020  -37.9621   -7.8269 C   0  0  0  0  0  0  0  0  0  0  0  0
  -20.9885  -39.7660   -6.1589 C   0  0  0  0  0  0  0  0  0  0  0  0
  -22.2145  -40.5985   -6.4376 C   0  0  0  0  0  0  0  0  0  0  0  0
  -22.3952  -41.7826   -6.9236 C   0  0  0  0  0  0  0  0  0  0  0  0
  -23.5995  -42.6391   -7.2117 C   0  0  0  0  0  0  0  0  0  0  0  0
  -23.0888  -44.1000   -7.3064 C   0  0  0  0  0  0  0  0  0  0  0  0
  -23.2449  -44.6097   -8.7174 C   0  0  0  0  0  0  0  0  0  0  0  0
  -22.3001  -43.9547   -9.6943 C   0  0  0  0  0  0  0  0  0  0  0  0
  -20.9862  -44.5018   -9.6752 N   0  0  0  0  0  0  0  0  0  0  0  0
  -19.8023  -44.1139   -8.9480 C   0  0  0  0  0  0  0  0  0  0  0  0
  -19.1132  -42.9411   -8.8425 C   0  0  0  0  0  0  0  0  0  0  0  0
  -17.9907  -42.9191   -8.0387 C   0  0  0  0  0  0  0  0  0  0  0  0
  -17.6269  -44.1197   -7.3756 C   0  0  0  0  0  0  0  0  0  0  0  0
  -18.3199  -45.3029   -7.4809 C   0  0  0  0  0  0  0  0  0  0  0  0
  -17.8041  -46.7458   -6.6276 Cl  0  0  0  0  0  0  0  0  0  0  0  0
  -19.3726  -45.2425   -8.2609 N   0  0  0  0  0  0  0  0  0  0  0  0
  -17.0319  -41.8584   -7.7109 C   0  0  0  0  0  0  0  0  0  0  0  0
  -15.7442  -42.2198   -7.6108 O   0  0  0  0  0  0  0  0  0  0  0  0
  -17.1305  -40.4833   -7.4604 N   0  0  0  0  0  0  0  0  0  0  0  0
  -13.3379  -41.1361  -10.7440 C   0  0  0  0  0  0  0  0  0  0  0  0
  1  2  1  0
  2  3  1  0
  2  4  1  0
  4  5  2  0
  5  6  1  0
  6  7  2  0
  7  8  1  0
  8  9  1  0
  9 10  1  0
 10 11  1  0
 11 12  1  0
 12 13  1  6
 12 14  1  0
 14 15  1  1
 15 16  1  0
 16 17  1  1
 16 18  1  0
 18 19  1  0
 19 20  2  0
 20 21  1  0
 21 22  1  0
 22 23  1  0
 23 24  1  0
 24 25  1  0
 25 26  1  0
 26 27  2  0
 27 28  1  0
 28 29  2  0
 29 30  1  0
 30 31  1  0
 30 32  2  0
 28 33  1  0
 33 34  2  0
 33 35  1  0
  8 36  2  0
 32 26  1  0
 35 14  1  0
 36  4  1  0
M  END
$$$$
