
     RDKit          3D

 36 38  0  0  0  0  0  0  0  0999 V2000
  -23.3876  -42.5048   -5.7020 C   0  0  0  0  0  0  0  0  0  0  0  0
  -23.8197  -41.1079   -6.1466 C   0  0  0  0  0  0  0  0  0  0  0  0
  -24.4056  -40.3875   -4.9443 C   0  0  0  0  0  0  0  0  0  0  0  0
  -22.6422  -40.3544   -6.6774 C   0  0  0  0  0  0  0  0  0  0  0  0
  -22.8787  -39.5247   -7.7524 C   0  0  0  0  0  0  0  0  0  0  0  0
  -21.8202  -38.8141   -8.2691 C   0  0  0  0  0  0  0  0  0  0  0  0
  -20.5553  -38.9185   -7.7385 C   0  0  0  0  0  0  0  0  0  0  0  0
  -20.3281  -39.7582   -6.6548 C   0  0  0  0  0  0  0  0  0  0  0  0
  -18.9534  -39.8481   -6.1052 C   0  0  0  0  0  0  0  0  0  0  0  0
  -17.9386  -39.9283   -7.1243 N   0  0  0  0  0  0  0  0  0  0  0  0
  -16.6831  -39.4178   -6.6408 C   0  0  0  0  0  0  0  0  0  0  0  0
  -16.1213  -38.4007   -7.6158 C   0  0  1  0  0  0  0  0  0  0  0  0
  -15.0787  -37.6730   -7.1051 O   0  0  0  0  0  0  0  0  0  0  0  0
  -15.6503  -39.1806   -8.8338 C   0  0  2  0  0  0  0  0  0  0  0  0
  -15.3512  -38.2268   -9.9730 C   0  0  0  0  0  0  0  0  0  0  0  0
  -14.0203  -38.4263  -10.6113 C   0  0  2  0  0  0  0  0  0  0  0  0
  -13.1839  -37.1798  -10.3667 C   0  0  0  0  0  0  0  0  0  0  0  0
  -14.1107  -38.6520  -12.1053 C   0  0  0  0  0  0  0  0  0  0  0  0
  -12.8991  -39.3309  -12.6926 C   0  0  0  0  0  0  0  0  0  0  0  0
  -12.4518  -40.5432  -12.6549 C   0  0  0  0  0  0  0  0  0  0  0  0
  -11.2529  -41.2503  -13.2288 C   0  0  0  0  0  0  0  0  0  0  0  0
  -11.5905  -42.7636  -13.2256 C   0  0  0  0  0  0  0  0  0  0  0  0
  -10.6935  -43.4894  -12.2541 C   0  0  0  0  0  0  0  0  0  0  0  0
  -10.9949  -43.1668  -10.8115 C   0  0  0  0  0  0  0  0  0  0  0  0
  -12.1010  -43.8893  -10.2819 N   0  0  0  0  0  0  0  0  0  0  0  0
  -13.5016  -43.5562  -10.1899 C   0  0  0  0  0  0  0  0  0  0  0  0
  -14.1770  -42.4981   -9.6553 C   0  0  0  0  0  0  0  0  0  0  0  0
  -15.5550  -42.4981   -9.7424 C   0  0  0  0  0  0  0  0  0  0  0  0
  -16.1785  -43.6007  -10.3820 C   0  0  0  0  0  0  0  0  0  0  0  0
  -15.4997  -44.6683  -10.9212 C   0  0  0  0  0  0  0  0  0  0  0  0
  -16.3455  -45.9948  -11.6964 Cl  0  0  0  0  0  0  0  0  0  0  0  0
  -14.1959  -44.5942  -10.7992 N   0  0  0  0  0  0  0  0  0  0  0  0
  -16.5734  -41.5490   -9.2798 C   0  0  0  0  0  0  0  0  0  0  0  0
  -17.7060  -42.0725   -8.7879 O   0  0  0  0  0  0  0  0  0  0  0  0
  -16.6649  -40.1521   -9.2212 N   0  0  0  0  0  0  0  0  0  0  0  0
  -21.3908  -40.4657   -6.1426 C   0  0  0  0  0  0  0  0  0  0  0  0
  1  2  1  0
  2  3  1  0
  2  4  1  0
  4  5  2  0
  5  6  1  0
  6  7  2  0
  7  8  1  0
  8  9  1  0
  9 10  1  0
 10 11  1  0
 11 12  1  0
 12 13  1  1
 12 14  1  0
 14 15  1  6
 15 16  1  0
 16 17  1  6
 16 18  1  0
 18 19  1  0
 19 20  2  0
 20 21  1  0
 21 22  1  0
 22 23  1  0
 23 24  1  0
 24 25  1  0
 25 26  1  0
 26 27  2  0
 27 28  1  0
 28 29  2  0
 29 30  1  0
 30 31  1  0
 30 32  2  0
 28 33  1  0
 33 34  2  0
 33 35  1  0
  8 36  2  0
 32 26  1  0
 35 14  1  0
 36  4  1  0
M  END
$$$$
