
     RDKit          3D

 36 38  0  0  0  0  0  0  0  0999 V2000
  -20.9348  -36.1716  -11.4626 C   0  0  0  0  0  0  0  0  0  0  0  0
  -21.7555  -37.4424  -11.6797 C   0  0  0  0  0  0  0  0  0  0  0  0
  -21.1609  -38.1956  -12.8574 C   0  0  0  0  0  0  0  0  0  0  0  0
  -21.7160  -38.2918  -10.4497 C   0  0  0  0  0  0  0  0  0  0  0  0
  -22.4879  -39.4337  -10.4676 C   0  0  0  0  0  0  0  0  0  0  0  0
  -22.4778  -40.2415   -9.3542 C   0  0  0  0  0  0  0  0  0  0  0  0
  -21.7235  -39.9313   -8.2464 C   0  0  0  0  0  0  0  0  0  0  0  0
  -20.9490  -38.7775   -8.2391 C   0  0  0  0  0  0  0  0  0  0  0  0
  -20.1465  -38.4715   -7.0299 C   0  0  0  0  0  0  0  0  0  0  0  0
  -18.8100  -38.0276   -7.3326 N   0  0  0  0  0  0  0  0  0  0  0  0
  -17.9331  -39.1477   -7.5491 C   0  0  0  0  0  0  0  0  0  0  0  0
  -16.4960  -38.6742   -7.6561 C   0  0  1  0  0  0  0  0  0  0  0  0
  -15.7818  -38.8309   -6.4973 O   0  0  0  0  0  0  0  0  0  0  0  0
  -15.8514  -39.4900   -8.7664 C   0  0  2  0  0  0  0  0  0  0  0  0
  -15.3007  -38.5649   -9.8331 C   0  0  0  0  0  0  0  0  0  0  0  0
  -13.8877  -38.8379  -10.2170 C   0  0  2  0  0  0  0  0  0  0  0  0
  -13.0471  -37.6324   -9.8256 C   0  0  0  0  0  0  0  0  0  0  0  0
  -13.7154  -39.0751  -11.7021 C   0  0  0  0  0  0  0  0  0  0  0  0
  -12.4535  -39.8204  -12.0569 C   0  0  0  0  0  0  0  0  0  0  0  0
  -12.0836  -41.0531  -11.9363 C   0  0  0  0  0  0  0  0  0  0  0  0
  -10.8380  -41.8258  -12.2802 C   0  0  0  0  0  0  0  0  0  0  0  0
  -11.2478  -43.3201  -12.3365 C   0  0  0  0  0  0  0  0  0  0  0  0
  -10.5817  -44.0795  -11.2163 C   0  0  0  0  0  0  0  0  0  0  0  0
  -11.1243  -43.7264   -9.8536 C   0  0  0  0  0  0  0  0  0  0  0  0
  -12.3442  -44.3865   -9.5341 N   0  0  0  0  0  0  0  0  0  0  0  0
  -13.7190  -43.9825   -9.7002 C   0  0  0  0  0  0  0  0  0  0  0  0
  -14.4253  -42.8861   -9.2996 C   0  0  0  0  0  0  0  0  0  0  0  0
  -15.7625  -42.8178   -9.6372 C   0  0  0  0  0  0  0  0  0  0  0  0
  -16.3146  -43.8945  -10.3784 C   0  0  0  0  0  0  0  0  0  0  0  0
  -15.6046  -45.0007  -10.7827 C   0  0  0  0  0  0  0  0  0  0  0  0
  -16.3618  -46.2914  -11.6975 Cl  0  0  0  0  0  0  0  0  0  0  0  0
  -14.3428  -44.9909  -10.4245 N   0  0  0  0  0  0  0  0  0  0  0  0
  -16.7980  -41.8137   -9.3700 C   0  0  0  0  0  0  0  0  0  0  0  0
  -18.0267  -42.2742   -9.0927 O   0  0  0  0  0  0  0  0  0  0  0  0
  -16.8267  -40.4134   -9.3312 N   0  0  0  0  0  0  0  0  0  0  0  0
  -20.9634  -37.9742   -9.3556 C   0  0  0  0  0  0  0  0  0  0  0  0
  1  2  1  0
  2  3  1  0
  2  4  1  0
  4  5  2  0
  5  6  1  0
  6  7  2  0
  7  8  1  0
  8  9  1  0
  9 10  1  0
 10 11  1  0
 11 12  1  0
 12 13  1  1
 12 14  1  0
 14 15  1  6
 15 16  1  0
 16 17  1  6
 16 18  1  0
 18 19  1  0
 19 20  2  0
 20 21  1  0
 21 22  1  0
 22 23  1  0
 23 24  1  0
 24 25  1  0
 25 26  1  0
 26 27  2  0
 27 28  1  0
 28 29  2  0
 29 30  1  0
 30 31  1  0
 30 32  2  0
 28 33  1  0
 33 34  2  0
 33 35  1  0
  8 36  2  0
 32 26  1  0
 35 14  1  0
 36  4  1  0
M  END
$$$$
