
     RDKit          3D

 36 38  0  0  0  0  0  0  0  0999 V2000
  -23.0019  -40.8693   -3.7661 C   0  0  0  0  0  0  0  0  0  0  0  0
  -22.0613  -41.4683   -4.8112 C   0  0  0  0  0  0  0  0  0  0  0  0
  -22.7684  -42.6408   -5.4692 C   0  0  0  0  0  0  0  0  0  0  0  0
  -21.7112  -40.4354   -5.8342 C   0  0  0  0  0  0  0  0  0  0  0  0
  -22.5167  -40.3809   -6.9514 C   0  0  0  0  0  0  0  0  0  0  0  0
  -22.2268  -39.4433   -7.9155 C   0  0  0  0  0  0  0  0  0  0  0  0
  -21.1660  -38.5778   -7.7822 C   0  0  0  0  0  0  0  0  0  0  0  0
  -20.3603  -38.6417   -6.6517 C   0  0  0  0  0  0  0  0  0  0  0  0
  -19.2248  -37.6942   -6.5375 C   0  0  0  0  0  0  0  0  0  0  0  0
  -18.1812  -38.1616   -5.6615 N   0  0  0  0  0  0  0  0  0  0  0  0
  -17.2873  -39.0502   -6.3555 C   0  0  0  0  0  0  0  0  0  0  0  0
  -16.1628  -38.2628   -7.0006 C   0  0  1  0  0  0  0  0  0  0  0  0
  -14.9870  -38.3155   -6.2990 O   0  0  0  0  0  0  0  0  0  0  0  0
  -15.9566  -38.8555   -8.3862 C   0  0  2  0  0  0  0  0  0  0  0  0
  -15.4185  -37.7952   -9.3260 C   0  0  0  0  0  0  0  0  0  0  0  0
  -14.2119  -38.2080  -10.0956 C   0  0  2  0  0  0  0  0  0  0  0  0
  -13.0500  -37.3245   -9.6684 C   0  0  0  0  0  0  0  0  0  0  0  0
  -14.3904  -38.0671  -11.5922 C   0  0  0  0  0  0  0  0  0  0  0  0
  -13.4342  -38.9071  -12.4008 C   0  0  0  0  0  0  0  0  0  0  0  0
  -13.3512  -40.1732  -12.6481 C   0  0  0  0  0  0  0  0  0  0  0  0
  -12.4149  -41.0390  -13.4484 C   0  0  0  0  0  0  0  0  0  0  0  0
  -13.1706  -42.3636  -13.7285 C   0  0  0  0  0  0  0  0  0  0  0  0
  -12.5006  -43.5025  -13.0009 C   0  0  0  0  0  0  0  0  0  0  0  0
  -12.6708  -43.4337  -11.5035 C   0  0  0  0  0  0  0  0  0  0  0  0
  -13.9272  -43.9220  -11.0467 N   0  0  0  0  0  0  0  0  0  0  0  0
  -15.1724  -43.2454  -10.7770 C   0  0  0  0  0  0  0  0  0  0  0  0
  -15.5075  -42.1864   -9.9848 C   0  0  0  0  0  0  0  0  0  0  0  0
  -16.8295  -41.7884   -9.9599 C   0  0  0  0  0  0  0  0  0  0  0  0
  -17.7536  -42.5091  -10.7600 C   0  0  0  0  0  0  0  0  0  0  0  0
  -17.4180  -43.5771  -11.5588 C   0  0  0  0  0  0  0  0  0  0  0  0
  -18.6215  -44.4166  -12.5194 Cl  0  0  0  0  0  0  0  0  0  0  0  0
  -16.1453  -43.8928  -11.5286 N   0  0  0  0  0  0  0  0  0  0  0  0
  -17.5257  -40.7213   -9.2329 C   0  0  0  0  0  0  0  0  0  0  0  0
  -18.7514  -41.0079   -8.7699 O   0  0  0  0  0  0  0  0  0  0  0  0
  -17.2133  -39.4013   -8.8822 N   0  0  0  0  0  0  0  0  0  0  0  0
  -20.6557  -39.5812   -5.6914 C   0  0  0  0  0  0  0  0  0  0  0  0
  1  2  1  0
  2  3  1  0
  2  4  1  0
  4  5  2  0
  5  6  1  0
  6  7  2  0
  7  8  1  0
  8  9  1  0
  9 10  1  0
 10 11  1  0
 11 12  1  0
 12 13  1  1
 12 14  1  0
 14 15  1  6
 15 16  1  0
 16 17  1  1
 16 18  1  0
 18 19  1  0
 19 20  2  0
 20 21  1  0
 21 22  1  0
 22 23  1  0
 23 24  1  0
 24 25  1  0
 25 26  1  0
 26 27  2  0
 27 28  1  0
 28 29  2  0
 29 30  1  0
 30 31  1  0
 30 32  2  0
 28 33  1  0
 33 34  2  0
 33 35  1  0
  8 36  2  0
 32 26  1  0
 35 14  1  0
 36  4  1  0
M  END
$$$$
