
     RDKit          3D

 36 38  0  0  0  0  0  0  0  0999 V2000
  -22.8748  -40.2579   -4.5273 C   0  0  0  0  0  0  0  0  0  0  0  0
  -21.8420  -39.2027   -4.9215 C   0  0  0  0  0  0  0  0  0  0  0  0
  -20.5165  -39.5728   -4.2782 C   0  0  0  0  0  0  0  0  0  0  0  0
  -21.7000  -39.1585   -6.4095 C   0  0  0  0  0  0  0  0  0  0  0  0
  -22.7332  -39.7039   -7.1407 C   0  0  0  0  0  0  0  0  0  0  0  0
  -22.6395  -39.6820   -8.5130 C   0  0  0  0  0  0  0  0  0  0  0  0
  -21.5510  -39.1345   -9.1517 C   0  0  0  0  0  0  0  0  0  0  0  0
  -20.5149  -38.5874   -8.4045 C   0  0  0  0  0  0  0  0  0  0  0  0
  -19.3557  -38.0041   -9.1229 C   0  0  0  0  0  0  0  0  0  0  0  0
  -18.2685  -37.6447   -8.2491 N   0  0  0  0  0  0  0  0  0  0  0  0
  -17.6803  -38.8146   -7.6525 C   0  0  0  0  0  0  0  0  0  0  0  0
  -16.1702  -38.7677   -7.7870 C   0  0  1  0  0  0  0  0  0  0  0  0
  -15.5126  -38.8436   -6.5873 O   0  0  0  0  0  0  0  0  0  0  0  0
  -15.7749  -39.9486   -8.6605 C   0  0  2  0  0  0  0  0  0  0  0  0
  -14.4152  -39.6985   -9.2816 C   0  0  0  0  0  0  0  0  0  0  0  0
  -13.4462  -40.8175   -9.1161 C   0  0  2  0  0  0  0  0  0  0  0  0
  -12.2915  -40.3238   -8.2582 C   0  0  0  0  0  0  0  0  0  0  0  0
  -12.8833  -41.3097  -10.4323 C   0  0  0  0  0  0  0  0  0  0  0  0
  -12.3148  -42.7048  -10.3674 C   0  0  0  0  0  0  0  0  0  0  0  0
  -12.8466  -43.8804  -10.2896 C   0  0  0  0  0  0  0  0  0  0  0  0
  -12.3101  -45.2857  -10.2251 C   0  0  0  0  0  0  0  0  0  0  0  0
  -13.4713  -46.2207  -10.6511 C   0  0  0  0  0  0  0  0  0  0  0  0
  -13.9069  -47.0670   -9.4810 C   0  0  0  0  0  0  0  0  0  0  0  0
  -14.6090  -46.2770   -8.4045 C   0  0  0  0  0  0  0  0  0  0  0  0
  -15.9797  -46.0168   -8.6866 N   0  0  0  0  0  0  0  0  0  0  0  0
  -16.6265  -44.8927   -9.3182 C   0  0  0  0  0  0  0  0  0  0  0  0
  -16.6160  -43.5505   -9.0736 C   0  0  0  0  0  0  0  0  0  0  0  0
  -17.3708  -42.7363   -9.8944 C   0  0  0  0  0  0  0  0  0  0  0  0
  -18.1097  -43.3503  -10.9387 C   0  0  0  0  0  0  0  0  0  0  0  0
  -18.1220  -44.7029  -11.1867 C   0  0  0  0  0  0  0  0  0  0  0  0
  -19.0635  -45.3851  -12.4998 Cl  0  0  0  0  0  0  0  0  0  0  0  0
  -17.3807  -45.4075  -10.3655 N   0  0  0  0  0  0  0  0  0  0  0  0
  -17.5920  -41.2862   -9.9132 C   0  0  0  0  0  0  0  0  0  0  0  0
  -18.8321  -40.8694  -10.2085 O   0  0  0  0  0  0  0  0  0  0  0  0
  -16.7852  -40.1629   -9.6883 N   0  0  0  0  0  0  0  0  0  0  0  0
  -20.6150  -38.6123   -7.0328 C   0  0  0  0  0  0  0  0  0  0  0  0
  1  2  1  0
  2  3  1  0
  2  4  1  0
  4  5  2  0
  5  6  1  0
  6  7  2  0
  7  8  1  0
  8  9  1  0
  9 10  1  0
 10 11  1  0
 11 12  1  0
 12 13  1  1
 12 14  1  0
 14 15  1  6
 15 16  1  0
 16 17  1  1
 16 18  1  0
 18 19  1  0
 19 20  2  0
 20 21  1  0
 21 22  1  0
 22 23  1  0
 23 24  1  0
 24 25  1  0
 25 26  1  0
 26 27  2  0
 27 28  1  0
 28 29  2  0
 29 30  1  0
 30 31  1  0
 30 32  2  0
 28 33  1  0
 33 34  2  0
 33 35  1  0
  8 36  2  0
 32 26  1  0
 35 14  1  0
 36  4  1  0
M  END
$$$$
