
     RDKit          3D

 36 38  0  0  0  0  0  0  0  0999 V2000
  -12.0250  -35.5574  -13.0401 C   0  0  0  0  0  0  0  0  0  0  0  0
  -13.3954  -36.2129  -12.8732 C   0  0  0  0  0  0  0  0  0  0  0  0
  -14.0879  -36.2152  -14.2252 C   0  0  0  0  0  0  0  0  0  0  0  0
  -13.2339  -37.6128  -12.3727 C   0  0  0  0  0  0  0  0  0  0  0  0
  -12.6321  -38.5061  -13.2327 C   0  0  0  0  0  0  0  0  0  0  0  0
  -12.4653  -39.8039  -12.8081 C   0  0  0  0  0  0  0  0  0  0  0  0
  -12.8825  -40.2134  -11.5629 C   0  0  0  0  0  0  0  0  0  0  0  0
  -13.4882  -39.3043  -10.7039 C   0  0  0  0  0  0  0  0  0  0  0  0
  -13.9261  -39.7767   -9.3678 C   0  0  0  0  0  0  0  0  0  0  0  0
  -14.9621  -38.9607   -8.7885 N   0  0  0  0  0  0  0  0  0  0  0  0
  -16.2292  -39.2123   -9.4221 C   0  0  0  0  0  0  0  0  0  0  0  0
  -17.2920  -38.2937   -8.8501 C   0  0  1  0  0  0  0  0  0  0  0  0
  -18.1524  -37.7993   -9.7950 O   0  0  0  0  0  0  0  0  0  0  0  0
  -18.0700  -39.1115   -7.8304 C   0  0  2  0  0  0  0  0  0  0  0  0
  -19.0132  -38.2108   -7.0582 C   0  0  0  0  0  0  0  0  0  0  0  0
  -20.4185  -38.7001   -6.9931 C   0  0  2  0  0  0  0  0  0  0  0  0
  -21.3029  -37.7061   -7.7298 C   0  0  0  0  0  0  0  0  0  0  0  0
  -20.9317  -38.8325   -5.5752 C   0  0  0  0  0  0  0  0  0  0  0  0
  -22.1132  -39.7596   -5.4397 C   0  0  0  0  0  0  0  0  0  0  0  0
  -22.2462  -41.0447   -5.4831 C   0  0  0  0  0  0  0  0  0  0  0  0
  -23.4052  -41.9966   -5.3506 C   0  0  0  0  0  0  0  0  0  0  0  0
  -22.8005  -43.3812   -5.0019 C   0  0  0  0  0  0  0  0  0  0  0  0
  -23.0291  -44.3444   -6.1399 C   0  0  0  0  0  0  0  0  0  0  0  0
  -22.2122  -44.0207   -7.3663 C   0  0  0  0  0  0  0  0  0  0  0  0
  -20.8652  -44.4747   -7.2936 N   0  0  0  0  0  0  0  0  0  0  0  0
  -19.6590  -43.8155   -6.8561 C   0  0  0  0  0  0  0  0  0  0  0  0
  -19.0491  -42.6490   -7.2152 C   0  0  0  0  0  0  0  0  0  0  0  0
  -17.8720  -42.3103   -6.5779 C   0  0  0  0  0  0  0  0  0  0  0  0
  -17.3731  -43.1996   -5.5911 C   0  0  0  0  0  0  0  0  0  0  0  0
  -17.9860  -44.3759   -5.2279 C   0  0  0  0  0  0  0  0  0  0  0  0
  -17.3039  -45.4223   -3.9968 Cl  0  0  0  0  0  0  0  0  0  0  0  0
  -19.0978  -44.6263   -5.8772 N   0  0  0  0  0  0  0  0  0  0  0  0
  -16.9687  -41.1629   -6.7175 C   0  0  0  0  0  0  0  0  0  0  0  0
  -15.6546  -41.4161   -6.6283 O   0  0  0  0  0  0  0  0  0  0  0  0
  -17.1453  -39.7895   -6.9315 N   0  0  0  0  0  0  0  0  0  0  0  0
  -13.6517  -38.0081  -11.1344 C   0  0  0  0  0  0  0  0  0  0  0  0
  1  2  1  0
  2  3  1  0
  2  4  1  0
  4  5  2  0
  5  6  1  0
  6  7  2  0
  7  8  1  0
  8  9  1  0
  9 10  1  0
 10 11  1  0
 11 12  1  0
 12 13  1  6
 12 14  1  0
 14 15  1  1
 15 16  1  0
 16 17  1  6
 16 18  1  0
 18 19  1  0
 19 20  2  0
 20 21  1  0
 21 22  1  0
 22 23  1  0
 23 24  1  0
 24 25  1  0
 25 26  1  0
 26 27  2  0
 27 28  1  0
 28 29  2  0
 29 30  1  0
 30 31  1  0
 30 32  2  0
 28 33  1  0
 33 34  2  0
 33 35  1  0
  8 36  2  0
 32 26  1  0
 35 14  1  0
 36  4  1  0
M  END
$$$$
