
     RDKit          3D

 41 42  0  0  0  0  0  0  0  0999 V2000
  -14.0638  -34.4741  -12.9719 C   0  0  0  0  0  0  0  0  0  0  0  0
  -13.3189  -35.7095  -13.4387 C   0  0  0  0  0  0  0  0  0  0  0  0
  -13.3419  -36.7163  -12.2943 C   0  0  0  0  0  0  0  0  0  0  0  0
  -13.8204  -38.0654  -12.7725 C   0  0  0  0  0  0  0  0  0  0  0  0
  -13.6558  -39.0262  -11.7198 N   0  0  0  0  0  0  0  0  0  0  0  0
  -14.7933  -39.5669  -11.0645 C   0  0  0  0  0  0  0  0  0  0  0  0
  -15.9165  -39.1061  -11.3093 O   0  0  0  0  0  0  0  0  0  0  0  0
  -14.5823  -40.7144  -10.0718 C   0  0  2  0  0  0  0  0  0  0  0  0
  -14.0850  -41.8443  -10.9724 C   0  0  0  0  0  0  0  0  0  0  0  0
  -15.9011  -41.0357   -9.4319 C   0  0  0  0  0  0  0  0  0  0  0  0
  -16.8348  -39.9647   -9.1299 C   0  0  2  0  0  0  0  0  0  0  0  0
  -16.2139  -38.7367   -9.4112 O   0  0  0  0  0  0  0  0  0  0  0  0
  -17.7189  -39.9185   -7.9661 C   0  0  2  0  0  0  0  0  0  0  0  0
  -18.2089  -38.5508   -7.5698 C   0  0  0  0  0  0  0  0  0  0  0  0
  -19.7315  -38.4241   -7.6938 C   0  0  2  0  0  0  0  0  0  0  0  0
  -20.0882  -37.2490   -8.6144 C   0  0  0  0  0  0  0  0  0  0  0  0
  -20.4264  -38.2532   -6.3911 C   0  0  0  0  0  0  0  0  0  0  0  0
  -21.2100  -39.4531   -5.9499 C   0  0  0  0  0  0  0  0  0  0  0  0
  -22.5828  -39.5501   -6.6301 C   0  0  0  0  0  0  0  0  0  0  0  0
  -22.4721  -40.6212   -7.6863 C   0  0  0  0  0  0  0  0  0  0  0  0
  -23.5805  -41.6042   -7.7027 C   0  0  0  0  0  0  0  0  0  0  0  0
  -23.1926  -43.0049   -7.3502 C   0  0  0  0  0  0  0  0  0  0  0  0
  -22.5587  -43.1668   -6.0242 C   0  0  0  0  0  0  0  0  0  0  0  0
  -21.3599  -44.0670   -5.9677 C   0  0  2  0  0  0  0  0  0  0  0  0
  -21.7011  -45.4167   -5.5513 N   0  0  0  0  0  0  0  0  0  0  0  0
  -21.5764  -46.5479   -6.3748 C   0  0  0  0  0  0  0  0  0  0  0  0
  -21.3971  -46.3599   -7.6242 O   0  0  0  0  0  0  0  0  0  0  0  0
  -21.6504  -47.8743   -5.8107 C   0  0  0  0  0  0  0  0  0  0  0  0
  -21.9962  -48.0714   -4.4947 C   0  0  0  0  0  0  0  0  0  0  0  0
  -22.0549  -49.3593   -3.9458 C   0  0  0  0  0  0  0  0  0  0  0  0
  -21.7664  -50.4147   -4.7266 N   0  0  0  0  0  0  0  0  0  0  0  0
  -21.4235  -50.2652   -6.0171 C   0  0  0  0  0  0  0  0  0  0  0  0
  -21.3642  -48.9870   -6.5670 C   0  0  0  0  0  0  0  0  0  0  0  0
  -20.3101  -43.4861   -5.0990 C   0  0  0  0  0  0  0  0  0  0  0  0
  -20.4262  -43.6975   -3.8423 O   0  0  0  0  0  0  0  0  0  0  0  0
  -19.2111  -42.7282   -5.5364 N   0  0  0  0  0  0  0  0  0  0  0  0
  -18.2512  -43.0093   -6.5549 C   0  0  1  0  0  0  0  0  0  0  0  0
  -18.7719  -43.1988   -7.9407 C   0  0  0  0  0  0  0  0  0  0  0  0
  -17.1403  -42.0056   -6.5765 C   0  0  0  0  0  0  0  0  0  0  0  0
  -15.9806  -42.4592   -6.3728 O   0  0  0  0  0  0  0  0  0  0  0  0
  -17.2549  -40.6162   -6.7973 N   0  0  0  0  0  0  0  0  0  0  0  0
  1  2  1  0
  2  3  1  0
  3  4  1  0
  4  5  1  0
  5  6  1  0
  6  7  2  0
  6  8  1  0
  8  9  1  6
  8 10  1  0
 10 11  1  0
 11 12  1  1
 11 13  1  0
 13 14  1  1
 14 15  1  0
 15 16  1  6
 15 17  1  0
 17 18  1  0
 18 19  1  0
 19 20  1  0
 20 21  1  0
 21 22  1  0
 22 23  1  0
 23 24  1  0
 24 25  1  1
 25 26  1  0
 26 27  2  0
 26 28  1  0
 28 29  2  0
 29 30  1  0
 30 31  2  0
 31 32  1  0
 32 33  2  0
 24 34  1  0
 34 35  2  0
 34 36  1  0
 36 37  1  0
 37 38  1  6
 37 39  1  0
 39 40  2  0
 39 41  1  0
 33 28  1  0
 41 13  1  0
M  END
$$$$
