
     RDKit          3D

 41 42  0  0  0  0  0  0  0  0999 V2000
  -16.9697  -36.5637  -14.0490 C   0  0  0  0  0  0  0  0  0  0  0  0
  -15.8815  -37.0053  -13.0901 C   0  0  0  0  0  0  0  0  0  0  0  0
  -15.8652  -38.5296  -13.0883 C   0  0  0  0  0  0  0  0  0  0  0  0
  -14.5773  -39.0545  -12.5022 C   0  0  0  0  0  0  0  0  0  0  0  0
  -14.7947  -40.3773  -11.9910 N   0  0  0  0  0  0  0  0  0  0  0  0
  -15.0977  -40.5692  -10.6172 C   0  0  0  0  0  0  0  0  0  0  0  0
  -16.0313  -41.3167  -10.2956 O   0  0  0  0  0  0  0  0  0  0  0  0
  -14.2446  -39.8373   -9.5763 C   0  0  2  0  0  0  0  0  0  0  0  0
  -13.0167  -40.7395   -9.4607 C   0  0  0  0  0  0  0  0  0  0  0  0
  -15.0205  -39.7654   -8.2939 C   0  0  0  0  0  0  0  0  0  0  0  0
  -16.4454  -39.4854   -8.3291 C   0  0  2  0  0  0  0  0  0  0  0  0
  -16.6415  -38.2376   -8.9433 O   0  0  0  0  0  0  0  0  0  0  0  0
  -17.3860  -39.7552   -7.2425 C   0  0  2  0  0  0  0  0  0  0  0  0
  -18.0518  -38.5475   -6.6377 C   0  0  0  0  0  0  0  0  0  0  0  0
  -19.5706  -38.5608   -6.8443 C   0  0  2  0  0  0  0  0  0  0  0  0
  -20.0157  -37.2761   -7.5564 C   0  0  0  0  0  0  0  0  0  0  0  0
  -20.3451  -38.7155   -5.5852 C   0  0  0  0  0  0  0  0  0  0  0  0
  -21.0041  -40.0532   -5.4288 C   0  0  0  0  0  0  0  0  0  0  0  0
  -22.3204  -40.1631   -6.2112 C   0  0  0  0  0  0  0  0  0  0  0  0
  -22.0324  -40.9956   -7.4355 C   0  0  0  0  0  0  0  0  0  0  0  0
  -23.0160  -42.0687   -7.7112 C   0  0  0  0  0  0  0  0  0  0  0  0
  -22.4851  -43.4621   -7.5952 C   0  0  0  0  0  0  0  0  0  0  0  0
  -21.9039  -43.8059   -6.2799 C   0  0  0  0  0  0  0  0  0  0  0  0
  -20.6123  -44.5688   -6.3045 C   0  0  2  0  0  0  0  0  0  0  0  0
  -20.8138  -46.0015   -6.1684 N   0  0  0  0  0  0  0  0  0  0  0  0
  -21.7972  -46.7257   -6.8625 C   0  0  0  0  0  0  0  0  0  0  0  0
  -22.4278  -46.1303   -7.7986 O   0  0  0  0  0  0  0  0  0  0  0  0
  -22.0738  -48.0993   -6.5165 C   0  0  0  0  0  0  0  0  0  0  0  0
  -23.1846  -48.7475   -7.0027 C   0  0  0  0  0  0  0  0  0  0  0  0
  -23.4580  -50.0771   -6.6553 C   0  0  0  0  0  0  0  0  0  0  0  0
  -22.6143  -50.7225   -5.8315 N   0  0  0  0  0  0  0  0  0  0  0  0
  -21.5185  -50.1251   -5.3340 C   0  0  0  0  0  0  0  0  0  0  0  0
  -21.2426  -48.8038   -5.6770 C   0  0  0  0  0  0  0  0  0  0  0  0
  -19.6825  -44.0567   -5.2714 C   0  0  0  0  0  0  0  0  0  0  0  0
  -19.8359  -44.5147   -4.0864 O   0  0  0  0  0  0  0  0  0  0  0  0
  -18.6592  -43.1177   -5.4828 N   0  0  0  0  0  0  0  0  0  0  0  0
  -17.6232  -43.0969   -6.4647 C   0  0  1  0  0  0  0  0  0  0  0  0
  -18.0481  -43.0726   -7.8952 C   0  0  0  0  0  0  0  0  0  0  0  0
  -16.6376  -41.9960   -6.2224 C   0  0  0  0  0  0  0  0  0  0  0  0
  -15.4445  -42.3552   -6.0234 O   0  0  0  0  0  0  0  0  0  0  0  0
  -16.9027  -40.6099   -6.1918 N   0  0  0  0  0  0  0  0  0  0  0  0
  1  2  1  0
  2  3  1  0
  3  4  1  0
  4  5  1  0
  5  6  1  0
  6  7  2  0
  6  8  1  0
  8  9  1  1
  8 10  1  0
 10 11  1  0
 11 12  1  1
 11 13  1  0
 13 14  1  1
 14 15  1  0
 15 16  1  1
 15 17  1  0
 17 18  1  0
 18 19  1  0
 19 20  1  0
 20 21  1  0
 21 22  1  0
 22 23  1  0
 23 24  1  0
 24 25  1  1
 25 26  1  0
 26 27  2  0
 26 28  1  0
 28 29  2  0
 29 30  1  0
 30 31  2  0
 31 32  1  0
 32 33  2  0
 24 34  1  0
 34 35  2  0
 34 36  1  0
 36 37  1  0
 37 38  1  6
 37 39  1  0
 39 40  2  0
 39 41  1  0
 33 28  1  0
 41 13  1  0
M  END
$$$$
