
     RDKit          3D

 41 42  0  0  0  0  0  0  0  0999 V2000
  -12.3147  -35.6170  -14.1689 C   0  0  0  0  0  0  0  0  0  0  0  0
  -13.3549  -34.9227  -13.3117 C   0  0  0  0  0  0  0  0  0  0  0  0
  -13.4260  -35.6701  -11.9850 C   0  0  0  0  0  0  0  0  0  0  0  0
  -14.1850  -36.9658  -12.1360 C   0  0  0  0  0  0  0  0  0  0  0  0
  -14.2749  -37.6131  -10.8588 N   0  0  0  0  0  0  0  0  0  0  0  0
  -14.9942  -38.8300  -10.7258 C   0  0  0  0  0  0  0  0  0  0  0  0
  -15.5844  -39.3017  -11.7071 O   0  0  0  0  0  0  0  0  0  0  0  0
  -15.0081  -39.5196   -9.3580 C   0  0  2  0  0  0  0  0  0  0  0  0
  -13.6416  -40.2023   -9.3172 C   0  0  0  0  0  0  0  0  0  0  0  0
  -16.1380  -40.5069   -9.3367 C   0  0  0  0  0  0  0  0  0  0  0  0
  -17.4881  -40.0502   -9.0565 C   0  0  2  0  0  0  0  0  0  0  0  0
  -17.6700  -38.7943   -9.6585 O   0  0  0  0  0  0  0  0  0  0  0  0
  -18.1769  -40.1878   -7.7740 C   0  0  2  0  0  0  0  0  0  0  0  0
  -18.5739  -38.8998   -7.1024 C   0  0  0  0  0  0  0  0  0  0  0  0
  -20.0945  -38.7655   -6.9630 C   0  0  2  0  0  0  0  0  0  0  0  0
  -20.5707  -37.4660   -7.6264 C   0  0  0  0  0  0  0  0  0  0  0  0
  -20.5724  -38.7999   -5.5560 C   0  0  0  0  0  0  0  0  0  0  0  0
  -21.2980  -40.0581   -5.1834 C   0  0  0  0  0  0  0  0  0  0  0  0
  -22.7624  -40.0590   -5.6444 C   0  0  0  0  0  0  0  0  0  0  0  0
  -22.8385  -40.9557   -6.8549 C   0  0  0  0  0  0  0  0  0  0  0  0
  -23.9531  -41.9318   -6.8445 C   0  0  0  0  0  0  0  0  0  0  0  0
  -23.5396  -43.3674   -6.7744 C   0  0  0  0  0  0  0  0  0  0  0  0
  -22.7078  -43.7256   -5.6057 C   0  0  0  0  0  0  0  0  0  0  0  0
  -21.5312  -44.6161   -5.8769 C   0  0  2  0  0  0  0  0  0  0  0  0
  -21.8267  -46.0157   -5.6214 N   0  0  0  0  0  0  0  0  0  0  0  0
  -21.5420  -47.0557   -6.5218 C   0  0  0  0  0  0  0  0  0  0  0  0
  -21.3562  -46.7504   -7.7469 O   0  0  0  0  0  0  0  0  0  0  0  0
  -21.4650  -48.4211   -6.0607 C   0  0  0  0  0  0  0  0  0  0  0  0
  -21.7167  -48.7461   -4.7487 C   0  0  0  0  0  0  0  0  0  0  0  0
  -21.6288  -50.0707   -4.3004 C   0  0  0  0  0  0  0  0  0  0  0  0
  -21.2918  -51.0342   -5.1751 N   0  0  0  0  0  0  0  0  0  0  0  0
  -21.0372  -50.7586   -6.4653 C   0  0  0  0  0  0  0  0  0  0  0  0
  -21.1237  -49.4434   -6.9153 C   0  0  0  0  0  0  0  0  0  0  0  0
  -20.3475  -44.1678   -5.1075 C   0  0  0  0  0  0  0  0  0  0  0  0
  -20.2681  -44.5693   -3.8951 O   0  0  0  0  0  0  0  0  0  0  0  0
  -19.3178  -43.3449   -5.5934 N   0  0  0  0  0  0  0  0  0  0  0  0
  -18.5355  -43.4611   -6.7817 C   0  0  1  0  0  0  0  0  0  0  0  0
  -19.2712  -43.4403   -8.0801 C   0  0  0  0  0  0  0  0  0  0  0  0
  -17.4241  -42.4587   -6.8265 C   0  0  0  0  0  0  0  0  0  0  0  0
  -16.2550  -42.9305   -6.8802 O   0  0  0  0  0  0  0  0  0  0  0  0
  -17.5472  -41.0526   -6.8130 N   0  0  0  0  0  0  0  0  0  0  0  0
  1  2  1  0
  2  3  1  0
  3  4  1  0
  4  5  1  0
  5  6  1  0
  6  7  2  0
  6  8  1  0
  8  9  1  6
  8 10  1  0
 10 11  1  0
 11 12  1  1
 11 13  1  0
 13 14  1  1
 14 15  1  0
 15 16  1  1
 15 17  1  0
 17 18  1  0
 18 19  1  0
 19 20  1  0
 20 21  1  0
 21 22  1  0
 22 23  1  0
 23 24  1  0
 24 25  1  1
 25 26  1  0
 26 27  2  0
 26 28  1  0
 28 29  2  0
 29 30  1  0
 30 31  2  0
 31 32  1  0
 32 33  2  0
 24 34  1  0
 34 35  2  0
 34 36  1  0
 36 37  1  0
 37 38  1  6
 37 39  1  0
 39 40  2  0
 39 41  1  0
 33 28  1  0
 41 13  1  0
M  END
$$$$
