
     RDKit          3D

 41 42  0  0  0  0  0  0  0  0999 V2000
  -16.0664  -33.7477  -12.6068 C   0  0  0  0  0  0  0  0  0  0  0  0
  -16.3056  -35.2388  -12.4718 C   0  0  0  0  0  0  0  0  0  0  0  0
  -15.0811  -35.9507  -13.0356 C   0  0  0  0  0  0  0  0  0  0  0  0
  -14.6651  -37.0956  -12.1446 C   0  0  0  0  0  0  0  0  0  0  0  0
  -15.8026  -37.5522  -11.3990 N   0  0  0  0  0  0  0  0  0  0  0  0
  -15.9181  -38.9219  -11.0432 C   0  0  0  0  0  0  0  0  0  0  0  0
  -16.6762  -39.6592  -11.6878 O   0  0  0  0  0  0  0  0  0  0  0  0
  -15.0875  -39.4384   -9.8642 C   0  0  2  0  0  0  0  0  0  0  0  0
  -14.1938  -40.4882  -10.5232 C   0  0  0  0  0  0  0  0  0  0  0  0
  -16.0209  -40.0390   -8.8544 C   0  0  0  0  0  0  0  0  0  0  0  0
  -16.9275  -39.1807   -8.1118 C   0  0  2  0  0  0  0  0  0  0  0  0
  -16.3008  -37.9411   -7.9035 O   0  0  0  0  0  0  0  0  0  0  0  0
  -17.7660  -39.6062   -6.9920 C   0  0  2  0  0  0  0  0  0  0  0  0
  -18.5136  -38.5098   -6.2801 C   0  0  0  0  0  0  0  0  0  0  0  0
  -20.0329  -38.6733   -6.4014 C   0  0  2  0  0  0  0  0  0  0  0  0
  -20.6512  -37.4072   -7.0098 C   0  0  0  0  0  0  0  0  0  0  0  0
  -20.7076  -38.9761   -5.1121 C   0  0  0  0  0  0  0  0  0  0  0  0
  -21.2145  -40.3826   -4.9985 C   0  0  0  0  0  0  0  0  0  0  0  0
  -22.5586  -40.5899   -5.7107 C   0  0  0  0  0  0  0  0  0  0  0  0
  -22.2632  -41.3210   -6.9965 C   0  0  0  0  0  0  0  0  0  0  0  0
  -23.1465  -42.4763   -7.2795 C   0  0  0  0  0  0  0  0  0  0  0  0
  -22.4689  -43.8097   -7.2765 C   0  0  0  0  0  0  0  0  0  0  0  0
  -21.7748  -44.1591   -6.0186 C   0  0  0  0  0  0  0  0  0  0  0  0
  -20.4157  -44.7782   -6.1610 C   0  0  2  0  0  0  0  0  0  0  0  0
  -20.4599  -46.2293   -6.0991 N   0  0  0  0  0  0  0  0  0  0  0  0
  -21.5253  -47.0042   -6.5868 C   0  0  0  0  0  0  0  0  0  0  0  0
  -22.3176  -46.4662   -7.4301 O   0  0  0  0  0  0  0  0  0  0  0  0
  -21.7046  -48.3645   -6.1390 C   0  0  0  0  0  0  0  0  0  0  0  0
  -22.4507  -49.2620   -6.8657 C   0  0  0  0  0  0  0  0  0  0  0  0
  -22.6342  -50.5786   -6.4226 C   0  0  0  0  0  0  0  0  0  0  0  0
  -22.0674  -50.9621   -5.2656 N   0  0  0  0  0  0  0  0  0  0  0  0
  -21.3317  -50.1159   -4.5254 C   0  0  0  0  0  0  0  0  0  0  0  0
  -21.1464  -48.8065   -4.9622 C   0  0  0  0  0  0  0  0  0  0  0  0
  -19.4810  -44.2258   -5.1534 C   0  0  0  0  0  0  0  0  0  0  0  0
  -19.5126  -44.7598   -3.9909 O   0  0  0  0  0  0  0  0  0  0  0  0
  -18.5748  -43.1736   -5.3660 N   0  0  0  0  0  0  0  0  0  0  0  0
  -17.6095  -42.9907   -6.4016 C   0  0  1  0  0  0  0  0  0  0  0  0
  -18.1228  -42.9359   -7.8020 C   0  0  0  0  0  0  0  0  0  0  0  0
  -16.7292  -41.8059   -6.1503 C   0  0  0  0  0  0  0  0  0  0  0  0
  -15.4954  -42.0464   -6.0404 O   0  0  0  0  0  0  0  0  0  0  0  0
  -17.1331  -40.4593   -6.0227 N   0  0  0  0  0  0  0  0  0  0  0  0
  1  2  1  0
  2  3  1  0
  3  4  1  0
  4  5  1  0
  5  6  1  0
  6  7  2  0
  6  8  1  0
  8  9  1  6
  8 10  1  0
 10 11  1  0
 11 12  1  1
 11 13  1  0
 13 14  1  1
 14 15  1  0
 15 16  1  1
 15 17  1  0
 17 18  1  0
 18 19  1  0
 19 20  1  0
 20 21  1  0
 21 22  1  0
 22 23  1  0
 23 24  1  0
 24 25  1  1
 25 26  1  0
 26 27  2  0
 26 28  1  0
 28 29  2  0
 29 30  1  0
 30 31  2  0
 31 32  1  0
 32 33  2  0
 24 34  1  0
 34 35  2  0
 34 36  1  0
 36 37  1  0
 37 38  1  6
 37 39  1  0
 39 40  2  0
 39 41  1  0
 33 28  1  0
 41 13  1  0
M  END
$$$$
