
     RDKit          3D

 41 42  0  0  0  0  0  0  0  0999 V2000
  -13.5102  -36.0324  -14.5774 C   0  0  0  0  0  0  0  0  0  0  0  0
  -13.3499  -36.3430  -13.1020 C   0  0  0  0  0  0  0  0  0  0  0  0
  -13.6504  -37.8253  -12.9120 C   0  0  0  0  0  0  0  0  0  0  0  0
  -15.0337  -38.0264  -12.3428 C   0  0  0  0  0  0  0  0  0  0  0  0
  -14.9546  -38.0675  -10.9108 N   0  0  0  0  0  0  0  0  0  0  0  0
  -14.9953  -39.3130  -10.2305 C   0  0  0  0  0  0  0  0  0  0  0  0
  -15.2361  -40.3488  -10.8653 O   0  0  0  0  0  0  0  0  0  0  0  0
  -14.7330  -39.3250   -8.7212 C   0  0  2  0  0  0  0  0  0  0  0  0
  -13.3417  -39.9504   -8.6317 C   0  0  0  0  0  0  0  0  0  0  0  0
  -15.7817  -40.1743   -8.0650 C   0  0  0  0  0  0  0  0  0  0  0  0
  -17.1563  -39.7077   -8.0110 C   0  0  2  0  0  0  0  0  0  0  0  0
  -17.1764  -38.3375   -8.3190 O   0  0  0  0  0  0  0  0  0  0  0  0
  -18.1396  -40.0930   -6.9997 C   0  0  2  0  0  0  0  0  0  0  0  0
  -18.8143  -38.9575   -6.2763 C   0  0  0  0  0  0  0  0  0  0  0  0
  -20.3245  -38.9224   -6.5371 C   0  0  2  0  0  0  0  0  0  0  0  0
  -20.7288  -37.5541   -7.1029 C   0  0  0  0  0  0  0  0  0  0  0  0
  -21.1470  -39.2169   -5.3347 C   0  0  0  0  0  0  0  0  0  0  0  0
  -21.8259  -40.5535   -5.3661 C   0  0  0  0  0  0  0  0  0  0  0  0
  -23.1131  -40.5475   -6.2026 C   0  0  0  0  0  0  0  0  0  0  0  0
  -22.7887  -41.2295   -7.5082 C   0  0  0  0  0  0  0  0  0  0  0  0
  -23.7730  -42.2461   -7.9474 C   0  0  0  0  0  0  0  0  0  0  0  0
  -23.2619  -43.6513   -7.9832 C   0  0  0  0  0  0  0  0  0  0  0  0
  -22.7339  -44.1610   -6.6997 C   0  0  0  0  0  0  0  0  0  0  0  0
  -21.4507  -44.9349   -6.7709 C   0  0  2  0  0  0  0  0  0  0  0  0
  -21.6726  -46.3702   -6.8177 N   0  0  0  0  0  0  0  0  0  0  0  0
  -21.4019  -47.1707   -7.9399 C   0  0  0  0  0  0  0  0  0  0  0  0
  -22.3738  -47.4622   -8.7137 O   0  0  0  0  0  0  0  0  0  0  0  0
  -20.0615  -47.6403   -8.1964 C   0  0  0  0  0  0  0  0  0  0  0  0
  -19.7648  -48.3697   -9.3235 C   0  0  0  0  0  0  0  0  0  0  0  0
  -18.4655  -48.8356   -9.5641 C   0  0  0  0  0  0  0  0  0  0  0  0
  -17.4983  -48.5603   -8.6721 N   0  0  0  0  0  0  0  0  0  0  0  0
  -17.7467  -47.8515   -7.5580 C   0  0  0  0  0  0  0  0  0  0  0  0
  -19.0366  -47.3861   -7.3150 C   0  0  0  0  0  0  0  0  0  0  0  0
  -20.5546  -44.5662   -5.6506 C   0  0  0  0  0  0  0  0  0  0  0  0
  -20.7570  -45.1623   -4.5365 O   0  0  0  0  0  0  0  0  0  0  0  0
  -19.5140  -43.6243   -5.7093 N   0  0  0  0  0  0  0  0  0  0  0  0
  -18.4419  -43.5003   -6.6437 C   0  0  1  0  0  0  0  0  0  0  0  0
  -18.8129  -43.2962   -8.0749 C   0  0  0  0  0  0  0  0  0  0  0  0
  -17.4542  -42.4522   -6.2341 C   0  0  0  0  0  0  0  0  0  0  0  0
  -16.2733  -42.8511   -6.0379 O   0  0  0  0  0  0  0  0  0  0  0  0
  -17.7052  -41.0762   -6.0443 N   0  0  0  0  0  0  0  0  0  0  0  0
  1  2  1  0
  2  3  1  0
  3  4  1  0
  4  5  1  0
  5  6  1  0
  6  7  2  0
  6  8  1  0
  8  9  1  6
  8 10  1  0
 10 11  1  0
 11 12  1  1
 11 13  1  0
 13 14  1  1
 14 15  1  0
 15 16  1  1
 15 17  1  0
 17 18  1  0
 18 19  1  0
 19 20  1  0
 20 21  1  0
 21 22  1  0
 22 23  1  0
 23 24  1  0
 24 25  1  1
 25 26  1  0
 26 27  2  0
 26 28  1  0
 28 29  2  0
 29 30  1  0
 30 31  2  0
 31 32  1  0
 32 33  2  0
 24 34  1  0
 34 35  2  0
 34 36  1  0
 36 37  1  0
 37 38  1  6
 37 39  1  0
 39 40  2  0
 39 41  1  0
 33 28  1  0
 41 13  1  0
M  END
$$$$
