
     RDKit          3D

 41 42  0  0  0  0  0  0  0  0999 V2000
  -15.1615  -39.0996  -16.2316 C   0  0  0  0  0  0  0  0  0  0  0  0
  -13.9338  -38.3702  -15.7222 C   0  0  0  0  0  0  0  0  0  0  0  0
  -14.1755  -38.0395  -14.2539 C   0  0  0  0  0  0  0  0  0  0  0  0
  -13.8261  -39.2135  -13.3721 C   0  0  0  0  0  0  0  0  0  0  0  0
  -14.1717  -38.9047  -12.0143 N   0  0  0  0  0  0  0  0  0  0  0  0
  -14.9842  -39.7963  -11.2656 C   0  0  0  0  0  0  0  0  0  0  0  0
  -15.6428  -40.6642  -11.8545 O   0  0  0  0  0  0  0  0  0  0  0  0
  -15.0106  -39.6485   -9.7410 C   0  0  2  0  0  0  0  0  0  0  0  0
  -13.9505  -40.6534   -9.2923 C   0  0  0  0  0  0  0  0  0  0  0  0
  -16.3822  -40.0128   -9.2535 C   0  0  0  0  0  0  0  0  0  0  0  0
  -17.1295  -39.0723   -8.4368 C   0  0  2  0  0  0  0  0  0  0  0  0
  -16.3300  -37.9394   -8.2133 O   0  0  0  0  0  0  0  0  0  0  0  0
  -17.9698  -39.4280   -7.2942 C   0  0  2  0  0  0  0  0  0  0  0  0
  -18.6664  -38.2809   -6.6112 C   0  0  0  0  0  0  0  0  0  0  0  0
  -20.1922  -38.3898   -6.7103 C   0  0  2  0  0  0  0  0  0  0  0  0
  -20.7693  -37.1216   -7.3540 C   0  0  0  0  0  0  0  0  0  0  0  0
  -20.8621  -38.6236   -5.4043 C   0  0  0  0  0  0  0  0  0  0  0  0
  -21.4207  -40.0052   -5.2381 C   0  0  0  0  0  0  0  0  0  0  0  0
  -22.7803  -40.1841   -5.9282 C   0  0  0  0  0  0  0  0  0  0  0  0
  -22.5287  -40.9680   -7.1920 C   0  0  0  0  0  0  0  0  0  0  0  0
  -23.4587  -42.0973   -7.4265 C   0  0  0  0  0  0  0  0  0  0  0  0
  -22.8323  -43.4548   -7.3863 C   0  0  0  0  0  0  0  0  0  0  0  0
  -22.1367  -43.7890   -6.1252 C   0  0  0  0  0  0  0  0  0  0  0  0
  -20.8039  -44.4641   -6.2617 C   0  0  2  0  0  0  0  0  0  0  0  0
  -20.9025  -45.9097   -6.1508 N   0  0  0  0  0  0  0  0  0  0  0  0
  -20.7338  -46.7935   -7.2295 C   0  0  0  0  0  0  0  0  0  0  0  0
  -20.7190  -46.3022   -8.4071 O   0  0  0  0  0  0  0  0  0  0  0  0
  -20.5828  -48.2100   -6.9972 C   0  0  0  0  0  0  0  0  0  0  0  0
  -20.1461  -49.0532   -7.9914 C   0  0  0  0  0  0  0  0  0  0  0  0
  -20.0125  -50.4299   -7.7674 C   0  0  0  0  0  0  0  0  0  0  0  0
  -20.3190  -50.9263   -6.5564 N   0  0  0  0  0  0  0  0  0  0  0  0
  -20.7498  -50.1367   -5.5583 C   0  0  0  0  0  0  0  0  0  0  0  0
  -20.8837  -48.7677   -5.7764 C   0  0  0  0  0  0  0  0  0  0  0  0
  -19.8367  -43.9151   -5.2834 C   0  0  0  0  0  0  0  0  0  0  0  0
  -19.8743  -44.4089   -4.1034 O   0  0  0  0  0  0  0  0  0  0  0  0
  -18.8938  -42.9061   -5.5410 N   0  0  0  0  0  0  0  0  0  0  0  0
  -17.9350  -42.7948   -6.5927 C   0  0  1  0  0  0  0  0  0  0  0  0
  -18.4629  -42.7664   -7.9884 C   0  0  0  0  0  0  0  0  0  0  0  0
  -17.0072  -41.6369   -6.3908 C   0  0  0  0  0  0  0  0  0  0  0  0
  -15.7822  -41.9209   -6.2865 O   0  0  0  0  0  0  0  0  0  0  0  0
  -17.3580  -40.2724   -6.3039 N   0  0  0  0  0  0  0  0  0  0  0  0
  1  2  1  0
  2  3  1  0
  3  4  1  0
  4  5  1  0
  5  6  1  0
  6  7  2  0
  6  8  1  0
  8  9  1  1
  8 10  1  0
 10 11  1  0
 11 12  1  1
 11 13  1  0
 13 14  1  1
 14 15  1  0
 15 16  1  1
 15 17  1  0
 17 18  1  0
 18 19  1  0
 19 20  1  0
 20 21  1  0
 21 22  1  0
 22 23  1  0
 23 24  1  0
 24 25  1  1
 25 26  1  0
 26 27  2  0
 26 28  1  0
 28 29  2  0
 29 30  1  0
 30 31  2  0
 31 32  1  0
 32 33  2  0
 24 34  1  0
 34 35  2  0
 34 36  1  0
 36 37  1  0
 37 38  1  6
 37 39  1  0
 39 40  2  0
 39 41  1  0
 33 28  1  0
 41 13  1  0
M  END
$$$$
