
     RDKit          3D

 41 42  0  0  0  0  0  0  0  0999 V2000
  -23.7279  -39.8142   -8.8526 C   0  0  0  0  0  0  0  0  0  0  0  0
  -23.0494  -38.4678   -8.6921 C   0  0  0  0  0  0  0  0  0  0  0  0
  -22.4548  -38.4202   -7.2893 C   0  0  0  0  0  0  0  0  0  0  0  0
  -21.5111  -39.5763   -7.0641 C   0  0  0  0  0  0  0  0  0  0  0  0
  -20.2836  -39.0836   -6.5084 N   0  0  0  0  0  0  0  0  0  0  0  0
  -19.0813  -39.1572   -7.2598 C   0  0  0  0  0  0  0  0  0  0  0  0
  -19.0907  -39.6892   -8.3782 O   0  0  0  0  0  0  0  0  0  0  0  0
  -17.8066  -38.5652   -6.6502 C   0  0  2  0  0  0  0  0  0  0  0  0
  -18.3153  -37.2767   -6.0052 C   0  0  0  0  0  0  0  0  0  0  0  0
  -16.8307  -38.2994   -7.7587 C   0  0  0  0  0  0  0  0  0  0  0  0
  -15.8065  -39.2822   -8.0675 C   0  0  2  0  0  0  0  0  0  0  0  0
  -14.5720  -38.8054   -7.5968 O   0  0  0  0  0  0  0  0  0  0  0  0
  -15.7041  -40.0301   -9.3198 C   0  0  2  0  0  0  0  0  0  0  0  0
  -14.7115  -39.4995  -10.3202 C   0  0  0  0  0  0  0  0  0  0  0  0
  -13.5804  -40.4964  -10.5966 C   0  0  2  0  0  0  0  0  0  0  0  0
  -12.2213  -39.8406  -10.3169 C   0  0  0  0  0  0  0  0  0  0  0  0
  -13.5857  -41.0399  -11.9800 C   0  0  0  0  0  0  0  0  0  0  0  0
  -14.0034  -42.4769  -12.0748 C   0  0  0  0  0  0  0  0  0  0  0  0
  -12.8666  -43.4506  -11.7338 C   0  0  0  0  0  0  0  0  0  0  0  0
  -13.1404  -43.9723  -10.3453 C   0  0  0  0  0  0  0  0  0  0  0  0
  -13.0121  -45.4400  -10.1890 C   0  0  0  0  0  0  0  0  0  0  0  0
  -14.2838  -46.1580   -9.8663 C   0  0  0  0  0  0  0  0  0  0  0  0
  -15.3763  -45.9725  -10.8452 C   0  0  0  0  0  0  0  0  0  0  0  0
  -16.7426  -45.7282  -10.2758 C   0  0  2  0  0  0  0  0  0  0  0  0
  -17.5322  -46.9452  -10.1915 N   0  0  0  0  0  0  0  0  0  0  0  0
  -18.4336  -47.2261   -9.1514 C   0  0  0  0  0  0  0  0  0  0  0  0
  -18.1783  -46.7500   -7.9953 O   0  0  0  0  0  0  0  0  0  0  0  0
  -19.6072  -48.0290   -9.3983 C   0  0  0  0  0  0  0  0  0  0  0  0
  -20.6422  -48.0761   -8.4945 C   0  0  0  0  0  0  0  0  0  0  0  0
  -21.7751  -48.8662   -8.7303 C   0  0  0  0  0  0  0  0  0  0  0  0
  -21.8427  -49.5878   -9.8624 N   0  0  0  0  0  0  0  0  0  0  0  0
  -20.8527  -49.5703  -10.7707 C   0  0  0  0  0  0  0  0  0  0  0  0
  -19.7251  -48.7860  -10.5406 C   0  0  0  0  0  0  0  0  0  0  0  0
  -17.4510  -44.6806  -11.0470 C   0  0  0  0  0  0  0  0  0  0  0  0
  -18.0518  -45.0615  -12.1107 O   0  0  0  0  0  0  0  0  0  0  0  0
  -17.5145  -43.3179  -10.7118 N   0  0  0  0  0  0  0  0  0  0  0  0
  -17.8747  -42.6930   -9.4799 C   0  0  1  0  0  0  0  0  0  0  0  0
  -17.0470  -43.0291   -8.2842 C   0  0  0  0  0  0  0  0  0  0  0  0
  -17.9752  -41.2047   -9.6097 C   0  0  0  0  0  0  0  0  0  0  0  0
  -19.1045  -40.7021   -9.3562 O   0  0  0  0  0  0  0  0  0  0  0  0
  -16.9471  -40.3133   -9.9851 N   0  0  0  0  0  0  0  0  0  0  0  0
  1  2  1  0
  2  3  1  0
  3  4  1  0
  4  5  1  0
  5  6  1  0
  6  7  2  0
  6  8  1  0
  8  9  1  6
  8 10  1  0
 10 11  1  0
 11 12  1  6
 11 13  1  0
 13 14  1  6
 14 15  1  0
 15 16  1  6
 15 17  1  0
 17 18  1  0
 18 19  1  0
 19 20  1  0
 20 21  1  0
 21 22  1  0
 22 23  1  0
 23 24  1  0
 24 25  1  6
 25 26  1  0
 26 27  2  0
 26 28  1  0
 28 29  2  0
 29 30  1  0
 30 31  2  0
 31 32  1  0
 32 33  2  0
 24 34  1  0
 34 35  2  0
 34 36  1  0
 36 37  1  0
 37 38  1  1
 37 39  1  0
 39 40  2  0
 39 41  1  0
 33 28  1  0
 41 13  1  0
M  END
$$$$
