
     RDKit          3D

 41 42  0  0  0  0  0  0  0  0999 V2000
  -16.7603  -36.3083  -13.5977 C   0  0  0  0  0  0  0  0  0  0  0  0
  -15.9320  -36.2709  -12.3283 C   0  0  0  0  0  0  0  0  0  0  0  0
  -14.5092  -36.6730  -12.6994 C   0  0  0  0  0  0  0  0  0  0  0  0
  -14.3166  -38.1635  -12.5608 C   0  0  0  0  0  0  0  0  0  0  0  0
  -14.1500  -38.4921  -11.1742 N   0  0  0  0  0  0  0  0  0  0  0  0
  -14.7664  -39.6534  -10.6383 C   0  0  0  0  0  0  0  0  0  0  0  0
  -15.7163  -40.1739  -11.2389 O   0  0  0  0  0  0  0  0  0  0  0  0
  -14.2223  -40.2238   -9.3247 C   0  0  2  0  0  0  0  0  0  0  0  0
  -13.3615  -41.3925   -9.8024 C   0  0  0  0  0  0  0  0  0  0  0  0
  -15.3830  -40.6768   -8.4883 C   0  0  0  0  0  0  0  0  0  0  0  0
  -16.6208  -39.9169   -8.5025 C   0  0  2  0  0  0  0  0  0  0  0  0
  -16.3694  -38.6621   -9.0814 O   0  0  0  0  0  0  0  0  0  0  0  0
  -17.5970  -39.8726   -7.4148 C   0  0  2  0  0  0  0  0  0  0  0  0
  -18.0008  -38.4974   -6.9527 C   0  0  0  0  0  0  0  0  0  0  0  0
  -19.4900  -38.2222   -7.1901 C   0  0  2  0  0  0  0  0  0  0  0  0
  -19.6617  -36.9563   -8.0408 C   0  0  0  0  0  0  0  0  0  0  0  0
  -20.2800  -38.0816   -5.9390 C   0  0  0  0  0  0  0  0  0  0  0  0
  -21.1996  -39.2325   -5.6596 C   0  0  0  0  0  0  0  0  0  0  0  0
  -22.5102  -39.1534   -6.4550 C   0  0  0  0  0  0  0  0  0  0  0  0
  -22.3990  -40.1518   -7.5801 C   0  0  0  0  0  0  0  0  0  0  0  0
  -23.5820  -41.0246   -7.7648 C   0  0  0  0  0  0  0  0  0  0  0  0
  -23.3485  -42.4768   -7.4938 C   0  0  0  0  0  0  0  0  0  0  0  0
  -22.8504  -42.7910   -6.1375 C   0  0  0  0  0  0  0  0  0  0  0  0
  -21.7430  -43.7997   -6.0548 C   0  0  2  0  0  0  0  0  0  0  0  0
  -22.2343  -45.1385   -5.7758 N   0  0  0  0  0  0  0  0  0  0  0  0
  -21.9609  -46.2585   -6.5784 C   0  0  0  0  0  0  0  0  0  0  0  0
  -21.5370  -46.0539   -7.7644 O   0  0  0  0  0  0  0  0  0  0  0  0
  -22.1579  -47.5923   -6.0633 C   0  0  0  0  0  0  0  0  0  0  0  0
  -22.1934  -47.8365   -4.7107 C   0  0  0  0  0  0  0  0  0  0  0  0
  -22.3720  -49.1340   -4.2129 C   0  0  0  0  0  0  0  0  0  0  0  0
  -22.5098  -50.1519   -5.0800 N   0  0  0  0  0  0  0  0  0  0  0  0
  -22.4801  -49.9560   -6.4089 C   0  0  0  0  0  0  0  0  0  0  0  0
  -22.3033  -48.6679   -6.9081 C   0  0  0  0  0  0  0  0  0  0  0  0
  -20.7280  -43.3819   -5.0601 C   0  0  0  0  0  0  0  0  0  0  0  0
  -20.9725  -43.6711   -3.8378 O   0  0  0  0  0  0  0  0  0  0  0  0
  -19.5337  -42.6993   -5.3451 N   0  0  0  0  0  0  0  0  0  0  0  0
  -18.5153  -42.9942   -6.3009 C   0  0  1  0  0  0  0  0  0  0  0  0
  -18.9260  -43.0351   -7.7352 C   0  0  0  0  0  0  0  0  0  0  0  0
  -17.3248  -42.0984   -6.1523 C   0  0  0  0  0  0  0  0  0  0  0  0
  -16.2308  -42.6704   -5.8912 O   0  0  0  0  0  0  0  0  0  0  0  0
  -17.2997  -40.6920   -6.2710 N   0  0  0  0  0  0  0  0  0  0  0  0
  1  2  1  0
  2  3  1  0
  3  4  1  0
  4  5  1  0
  5  6  1  0
  6  7  2  0
  6  8  1  0
  8  9  1  6
  8 10  1  0
 10 11  1  0
 11 12  1  1
 11 13  1  0
 13 14  1  1
 14 15  1  0
 15 16  1  1
 15 17  1  0
 17 18  1  0
 18 19  1  0
 19 20  1  0
 20 21  1  0
 21 22  1  0
 22 23  1  0
 23 24  1  0
 24 25  1  1
 25 26  1  0
 26 27  2  0
 26 28  1  0
 28 29  2  0
 29 30  1  0
 30 31  2  0
 31 32  1  0
 32 33  2  0
 24 34  1  0
 34 35  2  0
 34 36  1  0
 36 37  1  0
 37 38  1  6
 37 39  1  0
 39 40  2  0
 39 41  1  0
 33 28  1  0
 41 13  1  0
M  END
$$$$
