
     RDKit          3D

 41 42  0  0  0  0  0  0  0  0999 V2000
  -12.7715  -33.9192  -13.3128 C   0  0  0  0  0  0  0  0  0  0  0  0
  -12.5452  -35.3992  -13.5525 C   0  0  0  0  0  0  0  0  0  0  0  0
  -13.7529  -36.1423  -12.9931 C   0  0  0  0  0  0  0  0  0  0  0  0
  -13.4587  -36.6922  -11.6188 C   0  0  0  0  0  0  0  0  0  0  0  0
  -13.0988  -38.0766  -11.7303 N   0  0  0  0  0  0  0  0  0  0  0  0
  -14.0654  -39.0862  -11.4809 C   0  0  0  0  0  0  0  0  0  0  0  0
  -14.8252  -39.4435  -12.3913 O   0  0  0  0  0  0  0  0  0  0  0  0
  -14.1272  -39.7020  -10.0795 C   0  0  2  0  0  0  0  0  0  0  0  0
  -12.8123  -40.4765   -9.9997 C   0  0  0  0  0  0  0  0  0  0  0  0
  -15.3241  -40.6046  -10.0112 C   0  0  0  0  0  0  0  0  0  0  0  0
  -16.6507  -40.0316   -9.8641 C   0  0  2  0  0  0  0  0  0  0  0  0
  -16.7000  -38.8260  -10.5830 O   0  0  0  0  0  0  0  0  0  0  0  0
  -17.4258  -40.0039   -8.6245 C   0  0  2  0  0  0  0  0  0  0  0  0
  -17.8041  -38.6368   -8.1190 C   0  0  0  0  0  0  0  0  0  0  0  0
  -19.3225  -38.4278   -8.0989 C   0  0  2  0  0  0  0  0  0  0  0  0
  -19.6938  -37.1886   -8.9248 C   0  0  0  0  0  0  0  0  0  0  0  0
  -19.8905  -38.2928   -6.7321 C   0  0  0  0  0  0  0  0  0  0  0  0
  -20.6967  -39.4741   -6.2815 C   0  0  0  0  0  0  0  0  0  0  0  0
  -22.1270  -39.4658   -6.8392 C   0  0  0  0  0  0  0  0  0  0  0  0
  -22.1675  -40.4828   -7.9523 C   0  0  0  0  0  0  0  0  0  0  0  0
  -23.3250  -41.4069   -7.9171 C   0  0  0  0  0  0  0  0  0  0  0  0
  -22.9846  -42.8422   -7.6701 C   0  0  0  0  0  0  0  0  0  0  0  0
  -22.2470  -43.1065   -6.4163 C   0  0  0  0  0  0  0  0  0  0  0  0
  -21.0986  -44.0671   -6.5123 C   0  0  2  0  0  0  0  0  0  0  0  0
  -21.4751  -45.4185   -6.1335 N   0  0  0  0  0  0  0  0  0  0  0  0
  -22.7162  -45.7596   -5.5709 C   0  0  0  0  0  0  0  0  0  0  0  0
  -22.9452  -46.9922   -5.3326 O   0  0  0  0  0  0  0  0  0  0  0  0
  -23.6912  -44.7369   -5.2768 C   0  0  0  0  0  0  0  0  0  0  0  0
  -24.0947  -44.4861   -3.9866 C   0  0  0  0  0  0  0  0  0  0  0  0
  -25.0508  -43.5014   -3.7046 C   0  0  0  0  0  0  0  0  0  0  0  0
  -25.5777  -42.7946   -4.7193 N   0  0  0  0  0  0  0  0  0  0  0  0
  -25.2113  -43.0091   -5.9941 C   0  0  0  0  0  0  0  0  0  0  0  0
  -24.2610  -43.9865   -6.2789 C   0  0  0  0  0  0  0  0  0  0  0  0
  -19.9468  -43.5868   -5.7142 C   0  0  0  0  0  0  0  0  0  0  0  0
  -19.9640  -43.8594   -4.4641 O   0  0  0  0  0  0  0  0  0  0  0  0
  -18.8507  -42.8622   -6.2112 N   0  0  0  0  0  0  0  0  0  0  0  0
  -18.0002  -43.1358   -7.3246 C   0  0  1  0  0  0  0  0  0  0  0  0
  -18.6497  -43.2242   -8.6655 C   0  0  0  0  0  0  0  0  0  0  0  0
  -16.8425  -42.1890   -7.3969 C   0  0  0  0  0  0  0  0  0  0  0  0
  -15.6958  -42.7101   -7.3210 O   0  0  0  0  0  0  0  0  0  0  0  0
  -16.9001  -40.7857   -7.5380 N   0  0  0  0  0  0  0  0  0  0  0  0
  1  2  1  0
  2  3  1  0
  3  4  1  0
  4  5  1  0
  5  6  1  0
  6  7  2  0
  6  8  1  0
  8  9  1  6
  8 10  1  0
 10 11  1  0
 11 12  1  1
 11 13  1  0
 13 14  1  1
 14 15  1  0
 15 16  1  6
 15 17  1  0
 17 18  1  0
 18 19  1  0
 19 20  1  0
 20 21  1  0
 21 22  1  0
 22 23  1  0
 23 24  1  0
 24 25  1  1
 25 26  1  0
 26 27  2  0
 26 28  1  0
 28 29  2  0
 29 30  1  0
 30 31  2  0
 31 32  1  0
 32 33  2  0
 24 34  1  0
 34 35  2  0
 34 36  1  0
 36 37  1  0
 37 38  1  6
 37 39  1  0
 39 40  2  0
 39 41  1  0
 33 28  1  0
 41 13  1  0
M  END
$$$$
