
     RDKit          3D

 41 42  0  0  0  0  0  0  0  0999 V2000
  -13.1512  -34.5904  -11.6307 C   0  0  0  0  0  0  0  0  0  0  0  0
  -12.3432  -35.7984  -11.1984 C   0  0  0  0  0  0  0  0  0  0  0  0
  -12.5026  -36.8641  -12.2767 C   0  0  0  0  0  0  0  0  0  0  0  0
  -13.8879  -37.4620  -12.2434 C   0  0  0  0  0  0  0  0  0  0  0  0
  -13.9334  -38.4954  -11.2492 N   0  0  0  0  0  0  0  0  0  0  0  0
  -15.1236  -39.2447  -11.0545 C   0  0  0  0  0  0  0  0  0  0  0  0
  -16.1970  -38.8130  -11.4962 O   0  0  0  0  0  0  0  0  0  0  0  0
  -15.0291  -40.5745  -10.2997 C   0  0  2  0  0  0  0  0  0  0  0  0
  -15.0611  -41.6008  -11.4314 C   0  0  0  0  0  0  0  0  0  0  0  0
  -16.2194  -40.6901   -9.3932 C   0  0  0  0  0  0  0  0  0  0  0  0
  -16.1628  -40.1275   -8.0552 C   0  0  2  0  0  0  0  0  0  0  0  0
  -14.9519  -40.5141   -7.4577 O   0  0  0  0  0  0  0  0  0  0  0  0
  -17.2828  -40.0658   -7.1171 C   0  0  2  0  0  0  0  0  0  0  0  0
  -17.6320  -38.6941   -6.6034 C   0  0  0  0  0  0  0  0  0  0  0  0
  -19.0402  -38.2600   -7.0257 C   0  0  2  0  0  0  0  0  0  0  0  0
  -18.9745  -36.9266   -7.7829 C   0  0  0  0  0  0  0  0  0  0  0  0
  -19.9929  -38.1322   -5.8920 C   0  0  0  0  0  0  0  0  0  0  0  0
  -21.0388  -39.2056   -5.8435 C   0  0  0  0  0  0  0  0  0  0  0  0
  -22.2046  -38.9442   -6.8074 C   0  0  0  0  0  0  0  0  0  0  0  0
  -22.0127  -39.8669   -7.9851 C   0  0  0  0  0  0  0  0  0  0  0  0
  -23.2251  -40.6059   -8.4083 C   0  0  0  0  0  0  0  0  0  0  0  0
  -23.1594  -42.0894   -8.2297 C   0  0  0  0  0  0  0  0  0  0  0  0
  -22.8977  -42.5451   -6.8477 C   0  0  0  0  0  0  0  0  0  0  0  0
  -21.9052  -43.6595   -6.6935 C   0  0  2  0  0  0  0  0  0  0  0  0
  -22.5451  -44.9608   -6.6004 N   0  0  0  0  0  0  0  0  0  0  0  0
  -21.9997  -46.1437   -7.1262 C   0  0  0  0  0  0  0  0  0  0  0  0
  -21.2879  -46.0553   -8.1816 O   0  0  0  0  0  0  0  0  0  0  0  0
  -22.2450  -47.4114   -6.4814 C   0  0  0  0  0  0  0  0  0  0  0  0
  -21.8192  -48.5917   -7.0435 C   0  0  0  0  0  0  0  0  0  0  0  0
  -22.0697  -49.8223   -6.4221 C   0  0  0  0  0  0  0  0  0  0  0  0
  -22.7389  -49.8400   -5.2564 N   0  0  0  0  0  0  0  0  0  0  0  0
  -23.1728  -48.7094   -4.6744 C   0  0  0  0  0  0  0  0  0  0  0  0
  -22.9257  -47.4839   -5.2883 C   0  0  0  0  0  0  0  0  0  0  0  0
  -21.0179  -43.4130   -5.5334 C   0  0  0  0  0  0  0  0  0  0  0  0
  -21.4655  -43.7627   -4.3867 O   0  0  0  0  0  0  0  0  0  0  0  0
  -19.7406  -42.8308   -5.5877 N   0  0  0  0  0  0  0  0  0  0  0  0
  -18.6201  -43.1547   -6.4106 C   0  0  1  0  0  0  0  0  0  0  0  0
  -18.8143  -43.0544   -7.8870 C   0  0  0  0  0  0  0  0  0  0  0  0
  -17.3928  -42.3909   -6.0199 C   0  0  0  0  0  0  0  0  0  0  0  0
  -16.4029  -43.0831   -5.6551 O   0  0  0  0  0  0  0  0  0  0  0  0
  -17.2304  -40.9888   -6.0155 N   0  0  0  0  0  0  0  0  0  0  0  0
  1  2  1  0
  2  3  1  0
  3  4  1  0
  4  5  1  0
  5  6  1  0
  6  7  2  0
  6  8  1  0
  8  9  1  6
  8 10  1  0
 10 11  1  0
 11 12  1  1
 11 13  1  0
 13 14  1  1
 14 15  1  0
 15 16  1  1
 15 17  1  0
 17 18  1  0
 18 19  1  0
 19 20  1  0
 20 21  1  0
 21 22  1  0
 22 23  1  0
 23 24  1  0
 24 25  1  1
 25 26  1  0
 26 27  2  0
 26 28  1  0
 28 29  2  0
 29 30  1  0
 30 31  2  0
 31 32  1  0
 32 33  2  0
 24 34  1  0
 34 35  2  0
 34 36  1  0
 36 37  1  0
 37 38  1  6
 37 39  1  0
 39 40  2  0
 39 41  1  0
 33 28  1  0
 41 13  1  0
M  END
$$$$
