
     RDKit          3D

 41 42  0  0  0  0  0  0  0  0999 V2000
  -15.2826  -35.4281  -13.3722 C   0  0  0  0  0  0  0  0  0  0  0  0
  -14.1073  -36.3847  -13.3216 C   0  0  0  0  0  0  0  0  0  0  0  0
  -14.2309  -37.1923  -12.0346 C   0  0  0  0  0  0  0  0  0  0  0  0
  -13.1743  -38.2681  -11.9696 C   0  0  0  0  0  0  0  0  0  0  0  0
  -13.3427  -39.0241  -10.7619 N   0  0  0  0  0  0  0  0  0  0  0  0
  -14.2578  -40.1088  -10.7221 C   0  0  0  0  0  0  0  0  0  0  0  0
  -15.1617  -40.1774  -11.5659 O   0  0  0  0  0  0  0  0  0  0  0  0
  -14.0854  -41.1646   -9.6255 C   0  0  2  0  0  0  0  0  0  0  0  0
  -14.0556  -42.4681  -10.4223 C   0  0  0  0  0  0  0  0  0  0  0  0
  -15.2674  -41.0879   -8.7042 C   0  0  0  0  0  0  0  0  0  0  0  0
  -15.8533  -39.7963   -8.3903 C   0  0  2  0  0  0  0  0  0  0  0  0
  -14.8157  -38.8726   -8.1826 O   0  0  0  0  0  0  0  0  0  0  0  0
  -17.0082  -39.5821   -7.5195 C   0  0  2  0  0  0  0  0  0  0  0  0
  -17.5375  -38.1733   -7.4683 C   0  0  0  0  0  0  0  0  0  0  0  0
  -18.9698  -38.0742   -8.0055 C   0  0  2  0  0  0  0  0  0  0  0  0
  -19.0335  -37.0508   -9.1475 C   0  0  0  0  0  0  0  0  0  0  0  0
  -19.9742  -37.7152   -6.9704 C   0  0  0  0  0  0  0  0  0  0  0  0
  -20.8864  -38.8402   -6.5822 C   0  0  0  0  0  0  0  0  0  0  0  0
  -22.0367  -39.0442   -7.5781 C   0  0  0  0  0  0  0  0  0  0  0  0
  -21.6909  -40.2598   -8.4014 C   0  0  0  0  0  0  0  0  0  0  0  0
  -22.7897  -41.2399   -8.5666 C   0  0  0  0  0  0  0  0  0  0  0  0
  -22.5554  -42.5708   -7.9255 C   0  0  0  0  0  0  0  0  0  0  0  0
  -22.2953  -42.5306   -6.4706 C   0  0  0  0  0  0  0  0  0  0  0  0
  -21.1842  -43.4062   -5.9710 C   0  0  2  0  0  0  0  0  0  0  0  0
  -21.6683  -44.6808   -5.4683 N   0  0  0  0  0  0  0  0  0  0  0  0
  -21.8938  -45.8086   -6.2748 C   0  0  0  0  0  0  0  0  0  0  0  0
  -21.9633  -45.6356   -7.5372 O   0  0  0  0  0  0  0  0  0  0  0  0
  -22.0398  -47.1154   -5.6796 C   0  0  0  0  0  0  0  0  0  0  0  0
  -21.9244  -48.2593   -6.4335 C   0  0  0  0  0  0  0  0  0  0  0  0
  -22.0791  -49.5266   -5.8561 C   0  0  0  0  0  0  0  0  0  0  0  0
  -22.3452  -49.6161   -4.5415 N   0  0  0  0  0  0  0  0  0  0  0  0
  -22.4666  -48.5229   -3.7698 C   0  0  0  0  0  0  0  0  0  0  0  0
  -22.3131  -47.2613   -4.3395 C   0  0  0  0  0  0  0  0  0  0  0  0
  -20.3782  -42.6974   -4.9503 C   0  0  0  0  0  0  0  0  0  0  0  0
  -20.8254  -42.7203   -3.7515 O   0  0  0  0  0  0  0  0  0  0  0  0
  -19.1779  -42.0073   -5.1881 N   0  0  0  0  0  0  0  0  0  0  0  0
  -17.9957  -42.4317   -5.8663 C   0  0  1  0  0  0  0  0  0  0  0  0
  -18.1430  -42.8276   -7.2978 C   0  0  0  0  0  0  0  0  0  0  0  0
  -16.8840  -41.4367   -5.7399 C   0  0  0  0  0  0  0  0  0  0  0  0
  -15.8338  -41.8490   -5.1748 O   0  0  0  0  0  0  0  0  0  0  0  0
  -16.8894  -40.0961   -6.1817 N   0  0  0  0  0  0  0  0  0  0  0  0
  1  2  1  0
  2  3  1  0
  3  4  1  0
  4  5  1  0
  5  6  1  0
  6  7  2  0
  6  8  1  0
  8  9  1  6
  8 10  1  0
 10 11  1  0
 11 12  1  1
 11 13  1  0
 13 14  1  1
 14 15  1  0
 15 16  1  6
 15 17  1  0
 17 18  1  0
 18 19  1  0
 19 20  1  0
 20 21  1  0
 21 22  1  0
 22 23  1  0
 23 24  1  0
 24 25  1  1
 25 26  1  0
 26 27  2  0
 26 28  1  0
 28 29  2  0
 29 30  1  0
 30 31  2  0
 31 32  1  0
 32 33  2  0
 24 34  1  0
 34 35  2  0
 34 36  1  0
 36 37  1  0
 37 38  1  6
 37 39  1  0
 39 40  2  0
 39 41  1  0
 33 28  1  0
 41 13  1  0
M  END
$$$$
