
     RDKit          3D

 41 42  0  0  0  0  0  0  0  0999 V2000
  -13.4986  -33.3128  -11.3400 C   0  0  0  0  0  0  0  0  0  0  0  0
  -14.1569  -34.6737  -11.4566 C   0  0  0  0  0  0  0  0  0  0  0  0
  -13.0869  -35.6614  -11.9077 C   0  0  0  0  0  0  0  0  0  0  0  0
  -13.6630  -37.0480  -12.0606 C   0  0  0  0  0  0  0  0  0  0  0  0
  -14.0004  -37.5655  -10.7657 N   0  0  0  0  0  0  0  0  0  0  0  0
  -14.9709  -38.5942  -10.6403 C   0  0  0  0  0  0  0  0  0  0  0  0
  -15.8983  -38.6627  -11.4583 O   0  0  0  0  0  0  0  0  0  0  0  0
  -14.8273  -39.5912   -9.4862 C   0  0  2  0  0  0  0  0  0  0  0  0
  -13.7065  -40.5068   -9.9767 C   0  0  0  0  0  0  0  0  0  0  0  0
  -16.1288  -40.3209   -9.3260 C   0  0  0  0  0  0  0  0  0  0  0  0
  -17.3107  -39.5980   -8.8895 C   0  0  2  0  0  0  0  0  0  0  0  0
  -17.1301  -38.2336   -9.1700 O   0  0  0  0  0  0  0  0  0  0  0  0
  -18.0420  -39.8466   -7.6479 C   0  0  2  0  0  0  0  0  0  0  0  0
  -18.4520  -38.6223   -6.8730 C   0  0  0  0  0  0  0  0  0  0  0  0
  -19.9755  -38.4867   -6.7704 C   0  0  2  0  0  0  0  0  0  0  0  0
  -20.4210  -37.1270   -7.3257 C   0  0  0  0  0  0  0  0  0  0  0  0
  -20.4994  -38.6462   -5.3887 C   0  0  0  0  0  0  0  0  0  0  0  0
  -21.2453  -39.9263   -5.1575 C   0  0  0  0  0  0  0  0  0  0  0  0
  -22.6937  -39.8705   -5.6632 C   0  0  0  0  0  0  0  0  0  0  0  0
  -22.7362  -40.6508   -6.9532 C   0  0  0  0  0  0  0  0  0  0  0  0
  -23.8570  -41.6129   -7.0689 C   0  0  0  0  0  0  0  0  0  0  0  0
  -23.4556  -43.0528   -7.1187 C   0  0  0  0  0  0  0  0  0  0  0  0
  -22.6650  -43.5254   -5.9622 C   0  0  0  0  0  0  0  0  0  0  0  0
  -21.4862  -44.3984   -6.2769 C   0  0  2  0  0  0  0  0  0  0  0  0
  -21.7992  -45.8127   -6.1615 N   0  0  0  0  0  0  0  0  0  0  0  0
  -21.4161  -46.7813   -7.1040 C   0  0  0  0  0  0  0  0  0  0  0  0
  -21.4022  -46.4441   -8.3346 O   0  0  0  0  0  0  0  0  0  0  0  0
  -21.0521  -48.1115   -6.6783 C   0  0  0  0  0  0  0  0  0  0  0  0
  -20.3874  -48.9725   -7.5193 C   0  0  0  0  0  0  0  0  0  0  0  0
  -20.0462  -50.2679   -7.1083 C   0  0  0  0  0  0  0  0  0  0  0  0
  -20.3787  -50.6676   -5.8687 N   0  0  0  0  0  0  0  0  0  0  0  0
  -21.0290  -49.8575   -5.0166 C   0  0  0  0  0  0  0  0  0  0  0  0
  -21.3697  -48.5690   -5.4207 C   0  0  0  0  0  0  0  0  0  0  0  0
  -20.3253  -44.0345   -5.4319 C   0  0  0  0  0  0  0  0  0  0  0  0
  -20.2883  -44.5468   -4.2599 O   0  0  0  0  0  0  0  0  0  0  0  0
  -19.2747  -43.1803   -5.8063 N   0  0  0  0  0  0  0  0  0  0  0  0
  -18.4547  -43.1940   -6.9747 C   0  0  1  0  0  0  0  0  0  0  0  0
  -19.1475  -43.0462   -8.2884 C   0  0  0  0  0  0  0  0  0  0  0  0
  -17.3358  -42.2025   -6.8910 C   0  0  0  0  0  0  0  0  0  0  0  0
  -16.1688  -42.6787   -6.9507 O   0  0  0  0  0  0  0  0  0  0  0  0
  -17.4498  -40.8025   -6.7514 N   0  0  0  0  0  0  0  0  0  0  0  0
  1  2  1  0
  2  3  1  0
  3  4  1  0
  4  5  1  0
  5  6  1  0
  6  7  2  0
  6  8  1  0
  8  9  1  6
  8 10  1  0
 10 11  1  0
 11 12  1  1
 11 13  1  0
 13 14  1  1
 14 15  1  0
 15 16  1  1
 15 17  1  0
 17 18  1  0
 18 19  1  0
 19 20  1  0
 20 21  1  0
 21 22  1  0
 22 23  1  0
 23 24  1  0
 24 25  1  1
 25 26  1  0
 26 27  2  0
 26 28  1  0
 28 29  2  0
 29 30  1  0
 30 31  2  0
 31 32  1  0
 32 33  2  0
 24 34  1  0
 34 35  2  0
 34 36  1  0
 36 37  1  0
 37 38  1  6
 37 39  1  0
 39 40  2  0
 39 41  1  0
 33 28  1  0
 41 13  1  0
M  END
$$$$
