
     RDKit          3D

 41 42  0  0  0  0  0  0  0  0999 V2000
  -13.3883  -42.3392  -15.2375 C   0  0  0  0  0  0  0  0  0  0  0  0
  -14.2902  -42.4856  -14.0275 C   0  0  0  0  0  0  0  0  0  0  0  0
  -13.5582  -41.8786  -12.8361 C   0  0  0  0  0  0  0  0  0  0  0  0
  -14.1385  -40.5330  -12.4752 C   0  0  0  0  0  0  0  0  0  0  0  0
  -13.4098  -39.9853  -11.3673 N   0  0  0  0  0  0  0  0  0  0  0  0
  -13.6574  -40.4540  -10.0502 C   0  0  0  0  0  0  0  0  0  0  0  0
  -13.6775  -41.6723   -9.8285 O   0  0  0  0  0  0  0  0  0  0  0  0
  -13.8892  -39.4207   -8.9433 C   0  0  2  0  0  0  0  0  0  0  0  0
  -12.5058  -39.3030   -8.3050 C   0  0  0  0  0  0  0  0  0  0  0  0
  -14.9106  -39.9686   -7.9902 C   0  0  0  0  0  0  0  0  0  0  0  0
  -16.3241  -39.7594   -8.2511 C   0  0  2  0  0  0  0  0  0  0  0  0
  -16.4642  -38.6407   -9.0887 O   0  0  0  0  0  0  0  0  0  0  0  0
  -17.3930  -39.8846   -7.2611 C   0  0  2  0  0  0  0  0  0  0  0  0
  -17.9500  -38.5897   -6.7314 C   0  0  0  0  0  0  0  0  0  0  0  0
  -19.4302  -38.4091   -7.0868 C   0  0  2  0  0  0  0  0  0  0  0  0
  -19.6316  -37.0906   -7.8462 C   0  0  0  0  0  0  0  0  0  0  0  0
  -20.3369  -38.4387   -5.9094 C   0  0  0  0  0  0  0  0  0  0  0  0
  -21.1778  -39.6762   -5.8116 C   0  0  0  0  0  0  0  0  0  0  0  0
  -22.4149  -39.6282   -6.7194 C   0  0  0  0  0  0  0  0  0  0  0  0
  -22.1212  -40.5133   -7.9049 C   0  0  0  0  0  0  0  0  0  0  0  0
  -23.2057  -41.4542   -8.2704 C   0  0  0  0  0  0  0  0  0  0  0  0
  -22.8761  -42.9025   -8.0951 C   0  0  0  0  0  0  0  0  0  0  0  0
  -22.4756  -43.2948   -6.7270 C   0  0  0  0  0  0  0  0  0  0  0  0
  -21.2991  -44.2196   -6.6200 C   0  0  2  0  0  0  0  0  0  0  0  0
  -21.6991  -45.6112   -6.4967 N   0  0  0  0  0  0  0  0  0  0  0  0
  -22.1900  -46.3845   -7.5618 C   0  0  0  0  0  0  0  0  0  0  0  0
  -22.4621  -45.7883   -8.6567 O   0  0  0  0  0  0  0  0  0  0  0  0
  -22.3750  -47.8075   -7.4072 C   0  0  0  0  0  0  0  0  0  0  0  0
  -22.6864  -48.6071   -8.4815 C   0  0  0  0  0  0  0  0  0  0  0  0
  -22.8781  -49.9864   -8.3270 C   0  0  0  0  0  0  0  0  0  0  0  0
  -22.7536  -50.5291   -7.1035 N   0  0  0  0  0  0  0  0  0  0  0  0
  -22.4512  -49.7829   -6.0278 C   0  0  0  0  0  0  0  0  0  0  0  0
  -22.2594  -48.4115   -6.1769 C   0  0  0  0  0  0  0  0  0  0  0  0
  -20.4148  -43.8141   -5.5030 C   0  0  0  0  0  0  0  0  0  0  0  0
  -20.7414  -44.2265   -4.3365 O   0  0  0  0  0  0  0  0  0  0  0  0
  -19.2614  -43.0202   -5.6175 N   0  0  0  0  0  0  0  0  0  0  0  0
  -18.1413  -43.1523   -6.4925 C   0  0  1  0  0  0  0  0  0  0  0  0
  -18.4184  -43.0991   -7.9580 C   0  0  0  0  0  0  0  0  0  0  0  0
  -17.0479  -42.1848   -6.1601 C   0  0  0  0  0  0  0  0  0  0  0  0
  -15.9373  -42.6924   -5.8425 O   0  0  0  0  0  0  0  0  0  0  0  0
  -17.1305  -40.7756   -6.1633 N   0  0  0  0  0  0  0  0  0  0  0  0
  1  2  1  0
  2  3  1  0
  3  4  1  0
  4  5  1  0
  5  6  1  0
  6  7  2  0
  6  8  1  0
  8  9  1  1
  8 10  1  0
 10 11  1  0
 11 12  1  1
 11 13  1  0
 13 14  1  1
 14 15  1  0
 15 16  1  1
 15 17  1  0
 17 18  1  0
 18 19  1  0
 19 20  1  0
 20 21  1  0
 21 22  1  0
 22 23  1  0
 23 24  1  0
 24 25  1  1
 25 26  1  0
 26 27  2  0
 26 28  1  0
 28 29  2  0
 29 30  1  0
 30 31  2  0
 31 32  1  0
 32 33  2  0
 24 34  1  0
 34 35  2  0
 34 36  1  0
 36 37  1  0
 37 38  1  6
 37 39  1  0
 39 40  2  0
 39 41  1  0
 33 28  1  0
 41 13  1  0
M  END
$$$$
