
     RDKit          3D

 41 42  0  0  0  0  0  0  0  0999 V2000
  -12.1800  -39.4992  -15.3176 C   0  0  0  0  0  0  0  0  0  0  0  0
  -12.8594  -40.5041  -14.4079 C   0  0  0  0  0  0  0  0  0  0  0  0
  -13.1263  -39.8087  -13.0779 C   0  0  0  0  0  0  0  0  0  0  0  0
  -13.2644  -40.8149  -11.9615 C   0  0  0  0  0  0  0  0  0  0  0  0
  -14.5822  -40.7226  -11.4018 N   0  0  0  0  0  0  0  0  0  0  0  0
  -15.0067  -39.5225  -10.7729 C   0  0  0  0  0  0  0  0  0  0  0  0
  -15.5402  -38.6331  -11.4498 O   0  0  0  0  0  0  0  0  0  0  0  0
  -14.7875  -39.3767   -9.2637 C   0  0  2  0  0  0  0  0  0  0  0  0
  -13.4351  -40.0578   -9.0581 C   0  0  0  0  0  0  0  0  0  0  0  0
  -15.8985  -40.0919   -8.5525 C   0  0  0  0  0  0  0  0  0  0  0  0
  -17.1080  -39.3703   -8.1969 C   0  0  2  0  0  0  0  0  0  0  0  0
  -16.8290  -37.9938   -8.2120 O   0  0  0  0  0  0  0  0  0  0  0  0
  -18.0485  -39.7635   -7.1486 C   0  0  2  0  0  0  0  0  0  0  0  0
  -18.7465  -38.6343   -6.4378 C   0  0  0  0  0  0  0  0  0  0  0  0
  -20.2634  -38.6632   -6.6574 C   0  0  2  0  0  0  0  0  0  0  0  0
  -20.7347  -37.3275   -7.2485 C   0  0  0  0  0  0  0  0  0  0  0  0
  -21.0416  -38.9544   -5.4250 C   0  0  0  0  0  0  0  0  0  0  0  0
  -21.6694  -40.3159   -5.4013 C   0  0  0  0  0  0  0  0  0  0  0  0
  -22.9779  -40.3816   -6.2015 C   0  0  0  0  0  0  0  0  0  0  0  0
  -22.6626  -41.0876   -7.4966 C   0  0  0  0  0  0  0  0  0  0  0  0
  -23.6187  -42.1523   -7.8805 C   0  0  0  0  0  0  0  0  0  0  0  0
  -23.0554  -43.5378   -7.8924 C   0  0  0  0  0  0  0  0  0  0  0  0
  -22.4741  -43.9910   -6.6107 C   0  0  0  0  0  0  0  0  0  0  0  0
  -21.1646  -44.7179   -6.6965 C   0  0  2  0  0  0  0  0  0  0  0  0
  -21.3326  -46.1613   -6.6982 N   0  0  0  0  0  0  0  0  0  0  0  0
  -20.9721  -46.9928   -7.7715 C   0  0  0  0  0  0  0  0  0  0  0  0
  -20.8537  -46.4606   -8.9253 O   0  0  0  0  0  0  0  0  0  0  0  0
  -20.7457  -48.4024   -7.5601 C   0  0  0  0  0  0  0  0  0  0  0  0
  -21.0209  -48.9954   -6.3506 C   0  0  0  0  0  0  0  0  0  0  0  0
  -20.7882  -50.3615   -6.1435 C   0  0  0  0  0  0  0  0  0  0  0  0
  -20.2869  -51.0976   -7.1504 N   0  0  0  0  0  0  0  0  0  0  0  0
  -20.0035  -50.5565   -8.3472 C   0  0  0  0  0  0  0  0  0  0  0  0
  -20.2336  -49.1991   -8.5575 C   0  0  0  0  0  0  0  0  0  0  0  0
  -20.2535  -44.2845   -5.6120 C   0  0  0  0  0  0  0  0  0  0  0  0
  -20.4032  -44.8561   -4.4769 O   0  0  0  0  0  0  0  0  0  0  0  0
  -19.2517  -43.3062   -5.7252 N   0  0  0  0  0  0  0  0  0  0  0  0
  -18.2105  -43.1685   -6.6920 C   0  0  1  0  0  0  0  0  0  0  0  0
  -18.6272  -43.0188   -8.1173 C   0  0  0  0  0  0  0  0  0  0  0  0
  -17.2530  -42.0729   -6.3386 C   0  0  0  0  0  0  0  0  0  0  0  0
  -16.0529  -42.4215   -6.1646 O   0  0  0  0  0  0  0  0  0  0  0  0
  -17.5513  -40.7025   -6.1793 N   0  0  0  0  0  0  0  0  0  0  0  0
  1  2  1  0
  2  3  1  0
  3  4  1  0
  4  5  1  0
  5  6  1  0
  6  7  2  0
  6  8  1  0
  8  9  1  1
  8 10  1  0
 10 11  1  0
 11 12  1  1
 11 13  1  0
 13 14  1  1
 14 15  1  0
 15 16  1  1
 15 17  1  0
 17 18  1  0
 18 19  1  0
 19 20  1  0
 20 21  1  0
 21 22  1  0
 22 23  1  0
 23 24  1  0
 24 25  1  1
 25 26  1  0
 26 27  2  0
 26 28  1  0
 28 29  2  0
 29 30  1  0
 30 31  2  0
 31 32  1  0
 32 33  2  0
 24 34  1  0
 34 35  2  0
 34 36  1  0
 36 37  1  0
 37 38  1  6
 37 39  1  0
 39 40  2  0
 39 41  1  0
 33 28  1  0
 41 13  1  0
M  END
$$$$
