
     RDKit          3D

 41 42  0  0  0  0  0  0  0  0999 V2000
  -13.4187  -35.1963  -13.3227 C   0  0  0  0  0  0  0  0  0  0  0  0
  -12.7182  -36.4311  -13.8552 C   0  0  0  0  0  0  0  0  0  0  0  0
  -12.7268  -37.4756  -12.7450 C   0  0  0  0  0  0  0  0  0  0  0  0
  -14.1114  -38.0435  -12.5496 C   0  0  0  0  0  0  0  0  0  0  0  0
  -14.0683  -39.0568  -11.5348 N   0  0  0  0  0  0  0  0  0  0  0  0
  -15.2658  -39.6888  -11.1079 C   0  0  0  0  0  0  0  0  0  0  0  0
  -16.3563  -39.2824  -11.5316 O   0  0  0  0  0  0  0  0  0  0  0  0
  -15.1583  -40.8640  -10.1310 C   0  0  2  0  0  0  0  0  0  0  0  0
  -15.1444  -42.0722  -11.0665 C   0  0  0  0  0  0  0  0  0  0  0  0
  -16.3643  -40.8496   -9.2382 C   0  0  0  0  0  0  0  0  0  0  0  0
  -16.3934  -39.9718   -8.0813 C   0  0  2  0  0  0  0  0  0  0  0  0
  -15.1121  -39.9455   -7.5067 O   0  0  0  0  0  0  0  0  0  0  0  0
  -17.4748  -39.9046   -7.0993 C   0  0  2  0  0  0  0  0  0  0  0  0
  -18.0032  -38.5266   -6.8002 C   0  0  0  0  0  0  0  0  0  0  0  0
  -19.4747  -38.3724   -7.2012 C   0  0  2  0  0  0  0  0  0  0  0  0
  -19.6345  -37.1946   -8.1722 C   0  0  0  0  0  0  0  0  0  0  0  0
  -20.3932  -38.1837   -6.0480 C   0  0  0  0  0  0  0  0  0  0  0  0
  -21.2668  -39.3671   -5.7573 C   0  0  0  0  0  0  0  0  0  0  0  0
  -22.4933  -39.4415   -6.6775 C   0  0  0  0  0  0  0  0  0  0  0  0
  -22.2111  -40.5187   -7.6949 C   0  0  0  0  0  0  0  0  0  0  0  0
  -23.3161  -41.4811   -7.9138 C   0  0  0  0  0  0  0  0  0  0  0  0
  -23.0258  -42.8874   -7.4954 C   0  0  0  0  0  0  0  0  0  0  0  0
  -22.6487  -43.0557   -6.0756 C   0  0  0  0  0  0  0  0  0  0  0  0
  -21.4977  -43.9775   -5.7999 C   0  0  2  0  0  0  0  0  0  0  0  0
  -21.9348  -45.3191   -5.4524 N   0  0  0  0  0  0  0  0  0  0  0  0
  -21.5400  -46.4772   -6.1425 C   0  0  0  0  0  0  0  0  0  0  0  0
  -20.7816  -46.3369   -7.1592 O   0  0  0  0  0  0  0  0  0  0  0  0
  -21.9858  -47.7776   -5.7030 C   0  0  0  0  0  0  0  0  0  0  0  0
  -21.3485  -48.9255   -6.1109 C   0  0  0  0  0  0  0  0  0  0  0  0
  -21.7909  -50.1877   -5.6932 C   0  0  0  0  0  0  0  0  0  0  0  0
  -22.8580  -50.2684   -4.8797 N   0  0  0  0  0  0  0  0  0  0  0  0
  -23.5093  -49.1711   -4.4589 C   0  0  0  0  0  0  0  0  0  0  0  0
  -23.0728  -47.9145   -4.8712 C   0  0  0  0  0  0  0  0  0  0  0  0
  -20.6141  -43.4126   -4.7538 C   0  0  0  0  0  0  0  0  0  0  0  0
  -20.9625  -43.6169   -3.5396 O   0  0  0  0  0  0  0  0  0  0  0  0
  -19.4395  -42.6768   -4.9828 N   0  0  0  0  0  0  0  0  0  0  0  0
  -18.3147  -42.9796   -5.8080 C   0  0  1  0  0  0  0  0  0  0  0  0
  -18.5762  -43.1649   -7.2657 C   0  0  0  0  0  0  0  0  0  0  0  0
  -17.1999  -41.9966   -5.6262 C   0  0  0  0  0  0  0  0  0  0  0  0
  -16.1059  -42.4706   -5.2131 O   0  0  0  0  0  0  0  0  0  0  0  0
  -17.2460  -40.6061   -5.8649 N   0  0  0  0  0  0  0  0  0  0  0  0
  1  2  1  0
  2  3  1  0
  3  4  1  0
  4  5  1  0
  5  6  1  0
  6  7  2  0
  6  8  1  0
  8  9  1  6
  8 10  1  0
 10 11  1  0
 11 12  1  1
 11 13  1  0
 13 14  1  1
 14 15  1  0
 15 16  1  6
 15 17  1  0
 17 18  1  0
 18 19  1  0
 19 20  1  0
 20 21  1  0
 21 22  1  0
 22 23  1  0
 23 24  1  0
 24 25  1  1
 25 26  1  0
 26 27  2  0
 26 28  1  0
 28 29  2  0
 29 30  1  0
 30 31  2  0
 31 32  1  0
 32 33  2  0
 24 34  1  0
 34 35  2  0
 34 36  1  0
 36 37  1  0
 37 38  1  6
 37 39  1  0
 39 40  2  0
 39 41  1  0
 33 28  1  0
 41 13  1  0
M  END
$$$$
