
     RDKit          3D

 41 42  0  0  0  0  0  0  0  0999 V2000
  -10.2358  -37.5587  -12.1166 C   0  0  0  0  0  0  0  0  0  0  0  0
  -11.5323  -37.9609  -11.4412 C   0  0  0  0  0  0  0  0  0  0  0  0
  -12.6398  -37.8641  -12.4843 C   0  0  0  0  0  0  0  0  0  0  0  0
  -13.9664  -38.2883  -11.9031 C   0  0  0  0  0  0  0  0  0  0  0  0
  -13.7392  -39.2187  -10.8349 N   0  0  0  0  0  0  0  0  0  0  0  0
  -14.4446  -40.4504  -10.8008 C   0  0  0  0  0  0  0  0  0  0  0  0
  -13.8182  -41.5160  -10.8777 O   0  0  0  0  0  0  0  0  0  0  0  0
  -15.9700  -40.4101  -10.6655 C   0  0  2  0  0  0  0  0  0  0  0  0
  -16.4294  -40.3202  -12.1201 C   0  0  0  0  0  0  0  0  0  0  0  0
  -16.3433  -39.1906   -9.8746 C   0  0  0  0  0  0  0  0  0  0  0  0
  -17.6892  -39.0605   -9.3442 C   0  0  2  0  0  0  0  0  0  0  0  0
  -18.2325  -37.8461   -9.7947 O   0  0  0  0  0  0  0  0  0  0  0  0
  -18.0998  -39.4153   -7.9864 C   0  0  2  0  0  0  0  0  0  0  0  0
  -18.5260  -38.2674   -7.1100 C   0  0  0  0  0  0  0  0  0  0  0  0
  -19.9972  -38.3738   -6.6932 C   0  0  2  0  0  0  0  0  0  0  0  0
  -20.7543  -37.1044   -7.1070 C   0  0  0  0  0  0  0  0  0  0  0  0
  -20.1923  -38.6072   -5.2383 C   0  0  0  0  0  0  0  0  0  0  0  0
  -20.6655  -39.9879   -4.8948 C   0  0  0  0  0  0  0  0  0  0  0  0
  -22.1779  -40.1643   -5.0906 C   0  0  0  0  0  0  0  0  0  0  0  0
  -22.3646  -40.9481   -6.3657 C   0  0  0  0  0  0  0  0  0  0  0  0
  -23.3213  -42.0758   -6.2756 C   0  0  0  0  0  0  0  0  0  0  0  0
  -22.7198  -43.4344   -6.4469 C   0  0  0  0  0  0  0  0  0  0  0  0
  -21.6430  -43.7702   -5.4909 C   0  0  0  0  0  0  0  0  0  0  0  0
  -20.4337  -44.4474   -6.0651 C   0  0  2  0  0  0  0  0  0  0  0  0
  -20.4920  -45.8928   -5.9274 N   0  0  0  0  0  0  0  0  0  0  0  0
  -20.4749  -46.7864   -7.0112 C   0  0  0  0  0  0  0  0  0  0  0  0
  -20.6048  -46.3034   -8.1852 O   0  0  0  0  0  0  0  0  0  0  0  0
  -20.3143  -48.2032   -6.7879 C   0  0  0  0  0  0  0  0  0  0  0  0
  -20.5029  -48.7548   -5.5427 C   0  0  0  0  0  0  0  0  0  0  0  0
  -20.3340  -50.1287   -5.3255 C   0  0  0  0  0  0  0  0  0  0  0  0
  -19.9811  -50.9136   -6.3581 N   0  0  0  0  0  0  0  0  0  0  0  0
  -19.7863  -50.4141   -7.5901 C   0  0  0  0  0  0  0  0  0  0  0  0
  -19.9535  -49.0492   -7.8107 C   0  0  0  0  0  0  0  0  0  0  0  0
  -19.1942  -43.9003   -5.4666 C   0  0  0  0  0  0  0  0  0  0  0  0
  -18.8359  -44.3945   -4.3419 O   0  0  0  0  0  0  0  0  0  0  0  0
  -18.3900  -42.8927   -6.0247 N   0  0  0  0  0  0  0  0  0  0  0  0
  -17.8378  -42.7824   -7.3365 C   0  0  1  0  0  0  0  0  0  0  0  0
  -18.8020  -42.7527   -8.4754 C   0  0  0  0  0  0  0  0  0  0  0  0
  -16.8941  -41.6261   -7.4566 C   0  0  0  0  0  0  0  0  0  0  0  0
  -15.7052  -41.9121   -7.7678 O   0  0  0  0  0  0  0  0  0  0  0  0
  -17.1934  -40.2611   -7.2575 N   0  0  0  0  0  0  0  0  0  0  0  0
  1  2  1  0
  2  3  1  0
  3  4  1  0
  4  5  1  0
  5  6  1  0
  6  7  2  0
  6  8  1  0
  8  9  1  6
  8 10  1  0
 10 11  1  0
 11 12  1  1
 11 13  1  0
 13 14  1  1
 14 15  1  0
 15 16  1  1
 15 17  1  0
 17 18  1  0
 18 19  1  0
 19 20  1  0
 20 21  1  0
 21 22  1  0
 22 23  1  0
 23 24  1  0
 24 25  1  1
 25 26  1  0
 26 27  2  0
 26 28  1  0
 28 29  2  0
 29 30  1  0
 30 31  2  0
 31 32  1  0
 32 33  2  0
 24 34  1  0
 34 35  2  0
 34 36  1  0
 36 37  1  0
 37 38  1  6
 37 39  1  0
 39 40  2  0
 39 41  1  0
 33 28  1  0
 41 13  1  0
M  END
$$$$
