
     RDKit          3D

 41 42  0  0  0  0  0  0  0  0999 V2000
  -12.9907  -39.8709  -15.8444 C   0  0  0  0  0  0  0  0  0  0  0  0
  -12.1461  -40.4072  -14.7051 C   0  0  0  0  0  0  0  0  0  0  0  0
  -12.3748  -39.5006  -13.5011 C   0  0  0  0  0  0  0  0  0  0  0  0
  -13.4649  -40.0488  -12.6128 C   0  0  0  0  0  0  0  0  0  0  0  0
  -13.6492  -39.1705  -11.4933 N   0  0  0  0  0  0  0  0  0  0  0  0
  -14.6301  -39.4657  -10.5103 C   0  0  0  0  0  0  0  0  0  0  0  0
  -15.7153  -39.9522  -10.8561 O   0  0  0  0  0  0  0  0  0  0  0  0
  -14.3005  -39.1697   -9.0437 C   0  0  2  0  0  0  0  0  0  0  0  0
  -12.8778  -39.7107   -8.9082 C   0  0  0  0  0  0  0  0  0  0  0  0
  -15.2765  -39.9131   -8.1796 C   0  0  0  0  0  0  0  0  0  0  0  0
  -16.6949  -39.6149   -8.2746 C   0  0  2  0  0  0  0  0  0  0  0  0
  -16.8601  -38.4751   -9.0786 O   0  0  0  0  0  0  0  0  0  0  0  0
  -17.6501  -39.6934   -7.1702 C   0  0  2  0  0  0  0  0  0  0  0  0
  -18.1309  -38.3745   -6.6253 C   0  0  0  0  0  0  0  0  0  0  0  0
  -19.6389  -38.1830   -6.8224 C   0  0  2  0  0  0  0  0  0  0  0  0
  -19.9075  -36.8860   -7.5979 C   0  0  0  0  0  0  0  0  0  0  0  0
  -20.4112  -38.1625   -5.5526 C   0  0  0  0  0  0  0  0  0  0  0  0
  -21.2503  -39.3837   -5.3231 C   0  0  0  0  0  0  0  0  0  0  0  0
  -22.5789  -39.3456   -6.0913 C   0  0  0  0  0  0  0  0  0  0  0  0
  -22.4271  -40.2716   -7.2723 C   0  0  0  0  0  0  0  0  0  0  0  0
  -23.5558  -41.2072   -7.4861 C   0  0  0  0  0  0  0  0  0  0  0  0
  -23.2254  -42.6540   -7.3008 C   0  0  0  0  0  0  0  0  0  0  0  0
  -22.6816  -43.0095   -5.9727 C   0  0  0  0  0  0  0  0  0  0  0  0
  -21.5110  -43.9478   -5.9648 C   0  0  2  0  0  0  0  0  0  0  0  0
  -21.9109  -45.3288   -5.7533 N   0  0  0  0  0  0  0  0  0  0  0  0
  -21.9951  -46.2876   -6.7764 C   0  0  0  0  0  0  0  0  0  0  0  0
  -22.0055  -45.8733   -7.9834 O   0  0  0  0  0  0  0  0  0  0  0  0
  -22.0664  -47.6932   -6.4568 C   0  0  0  0  0  0  0  0  0  0  0  0
  -22.1637  -48.1245   -5.1549 C   0  0  0  0  0  0  0  0  0  0  0  0
  -22.2199  -49.4901   -4.8461 C   0  0  0  0  0  0  0  0  0  0  0  0
  -22.1771  -50.3871   -5.8463 N   0  0  0  0  0  0  0  0  0  0  0  0
  -22.0815  -50.0073   -7.1315 C   0  0  0  0  0  0  0  0  0  0  0  0
  -22.0258  -48.6510   -7.4431 C   0  0  0  0  0  0  0  0  0  0  0  0
  -20.5049  -43.5208   -4.9650 C   0  0  0  0  0  0  0  0  0  0  0  0
  -20.7061  -43.8918   -3.7570 O   0  0  0  0  0  0  0  0  0  0  0  0
  -19.3622  -42.7481   -5.2308 N   0  0  0  0  0  0  0  0  0  0  0  0
  -18.3464  -42.9240   -6.2182 C   0  0  1  0  0  0  0  0  0  0  0  0
  -18.7821  -42.9124   -7.6456 C   0  0  0  0  0  0  0  0  0  0  0  0
  -17.2123  -41.9629   -6.0391 C   0  0  0  0  0  0  0  0  0  0  0  0
  -16.0793  -42.4769   -5.8284 O   0  0  0  0  0  0  0  0  0  0  0  0
  -17.2787  -40.5535   -6.0792 N   0  0  0  0  0  0  0  0  0  0  0  0
  1  2  1  0
  2  3  1  0
  3  4  1  0
  4  5  1  0
  5  6  1  0
  6  7  2  0
  6  8  1  0
  8  9  1  1
  8 10  1  0
 10 11  1  0
 11 12  1  1
 11 13  1  0
 13 14  1  1
 14 15  1  0
 15 16  1  1
 15 17  1  0
 17 18  1  0
 18 19  1  0
 19 20  1  0
 20 21  1  0
 21 22  1  0
 22 23  1  0
 23 24  1  0
 24 25  1  1
 25 26  1  0
 26 27  2  0
 26 28  1  0
 28 29  2  0
 29 30  1  0
 30 31  2  0
 31 32  1  0
 32 33  2  0
 24 34  1  0
 34 35  2  0
 34 36  1  0
 36 37  1  0
 37 38  1  6
 37 39  1  0
 39 40  2  0
 39 41  1  0
 33 28  1  0
 41 13  1  0
M  END
$$$$
