
     RDKit          3D

 41 42  0  0  0  0  0  0  0  0999 V2000
  -16.8330  -42.0103  -13.7713 C   0  0  0  0  0  0  0  0  0  0  0  0
  -15.7743  -40.9450  -13.9793 C   0  0  0  0  0  0  0  0  0  0  0  0
  -15.6756  -40.1410  -12.6880 C   0  0  0  0  0  0  0  0  0  0  0  0
  -14.2717  -40.1783  -12.1355 C   0  0  0  0  0  0  0  0  0  0  0  0
  -14.2199  -41.0996  -11.0369 N   0  0  0  0  0  0  0  0  0  0  0  0
  -14.8653  -40.7848   -9.8121 C   0  0  0  0  0  0  0  0  0  0  0  0
  -15.9102  -41.3732   -9.5027 O   0  0  0  0  0  0  0  0  0  0  0  0
  -14.2329  -39.7194   -8.9110 C   0  0  2  0  0  0  0  0  0  0  0  0
  -12.9109  -40.3701   -8.5061 C   0  0  0  0  0  0  0  0  0  0  0  0
  -15.1392  -39.4940   -7.7364 C   0  0  0  0  0  0  0  0  0  0  0  0
  -16.5724  -39.3807   -7.9439 C   0  0  2  0  0  0  0  0  0  0  0  0
  -16.8365  -38.1605   -8.5874 O   0  0  0  0  0  0  0  0  0  0  0  0
  -17.5987  -39.7637   -6.9753 C   0  0  2  0  0  0  0  0  0  0  0  0
  -18.2519  -38.6297   -6.2303 C   0  0  0  0  0  0  0  0  0  0  0  0
  -19.7513  -38.5279   -6.5320 C   0  0  2  0  0  0  0  0  0  0  0  0
  -20.0878  -37.1260   -7.0586 C   0  0  0  0  0  0  0  0  0  0  0  0
  -20.6193  -38.8332   -5.3648 C   0  0  0  0  0  0  0  0  0  0  0  0
  -21.3461  -40.1410   -5.4640 C   0  0  0  0  0  0  0  0  0  0  0  0
  -22.6070  -40.0563   -6.3355 C   0  0  0  0  0  0  0  0  0  0  0  0
  -22.2697  -40.7036   -7.6555 C   0  0  0  0  0  0  0  0  0  0  0  0
  -23.2777  -41.6657   -8.1591 C   0  0  0  0  0  0  0  0  0  0  0  0
  -22.8182  -43.0872   -8.2317 C   0  0  0  0  0  0  0  0  0  0  0  0
  -22.3475  -43.6618   -6.9533 C   0  0  0  0  0  0  0  0  0  0  0  0
  -21.0923  -44.4810   -7.0166 C   0  0  2  0  0  0  0  0  0  0  0  0
  -21.3658  -45.9043   -7.1220 N   0  0  0  0  0  0  0  0  0  0  0  0
  -20.5711  -46.8050   -7.8504 C   0  0  0  0  0  0  0  0  0  0  0  0
  -19.9654  -46.3657   -8.8840 O   0  0  0  0  0  0  0  0  0  0  0  0
  -20.4530  -48.1806   -7.4300 C   0  0  0  0  0  0  0  0  0  0  0  0
  -20.9585  -48.6036   -6.2234 C   0  0  0  0  0  0  0  0  0  0  0  0
  -20.8313  -49.9368   -5.8115 C   0  0  0  0  0  0  0  0  0  0  0  0
  -20.2025  -50.8108   -6.6163 N   0  0  0  0  0  0  0  0  0  0  0  0
  -19.6937  -50.4379   -7.8027 C   0  0  0  0  0  0  0  0  0  0  0  0
  -19.8182  -49.1138   -8.2162 C   0  0  0  0  0  0  0  0  0  0  0  0
  -20.2165  -44.1867   -5.8588 C   0  0  0  0  0  0  0  0  0  0  0  0
  -20.4737  -44.8137   -4.7734 O   0  0  0  0  0  0  0  0  0  0  0  0
  -19.1404  -43.2836   -5.8539 N   0  0  0  0  0  0  0  0  0  0  0  0
  -18.0375  -43.1675   -6.7526 C   0  0  1  0  0  0  0  0  0  0  0  0
  -18.3583  -42.8988   -8.1852 C   0  0  0  0  0  0  0  0  0  0  0  0
  -17.0240  -42.1730   -6.2774 C   0  0  0  0  0  0  0  0  0  0  0  0
  -15.8650  -42.6233   -6.0628 O   0  0  0  0  0  0  0  0  0  0  0  0
  -17.2294  -40.7960   -6.0447 N   0  0  0  0  0  0  0  0  0  0  0  0
  1  2  1  0
  2  3  1  0
  3  4  1  0
  4  5  1  0
  5  6  1  0
  6  7  2  0
  6  8  1  0
  8  9  1  1
  8 10  1  0
 10 11  1  0
 11 12  1  1
 11 13  1  0
 13 14  1  1
 14 15  1  0
 15 16  1  1
 15 17  1  0
 17 18  1  0
 18 19  1  0
 19 20  1  0
 20 21  1  0
 21 22  1  0
 22 23  1  0
 23 24  1  0
 24 25  1  1
 25 26  1  0
 26 27  2  0
 26 28  1  0
 28 29  2  0
 29 30  1  0
 30 31  2  0
 31 32  1  0
 32 33  2  0
 24 34  1  0
 34 35  2  0
 34 36  1  0
 36 37  1  0
 37 38  1  6
 37 39  1  0
 39 40  2  0
 39 41  1  0
 33 28  1  0
 41 13  1  0
M  END
$$$$
