
     RDKit          3D

 41 42  0  0  0  0  0  0  0  0999 V2000
  -15.5503  -35.9966  -13.6870 C   0  0  0  0  0  0  0  0  0  0  0  0
  -14.1770  -35.4697  -13.3192 C   0  0  0  0  0  0  0  0  0  0  0  0
  -13.3882  -36.6288  -12.7208 C   0  0  0  0  0  0  0  0  0  0  0  0
  -14.0588  -37.1502  -11.4733 C   0  0  0  0  0  0  0  0  0  0  0  0
  -13.9160  -38.5768  -11.4204 N   0  0  0  0  0  0  0  0  0  0  0  0
  -15.0391  -39.3949  -11.1286 C   0  0  0  0  0  0  0  0  0  0  0  0
  -15.9936  -39.4268  -11.9170 O   0  0  0  0  0  0  0  0  0  0  0  0
  -15.0223  -40.2172   -9.8361 C   0  0  2  0  0  0  0  0  0  0  0  0
  -14.3112  -41.4988  -10.2681 C   0  0  0  0  0  0  0  0  0  0  0  0
  -16.4409  -40.4678   -9.4158 C   0  0  0  0  0  0  0  0  0  0  0  0
  -17.1724  -39.4374   -8.6995 C   0  0  2  0  0  0  0  0  0  0  0  0
  -16.3932  -38.2691   -8.6762 O   0  0  0  0  0  0  0  0  0  0  0  0
  -17.9469  -39.6467   -7.4770 C   0  0  2  0  0  0  0  0  0  0  0  0
  -18.4022  -38.3985   -6.7683 C   0  0  0  0  0  0  0  0  0  0  0  0
  -19.9301  -38.2814   -6.7283 C   0  0  2  0  0  0  0  0  0  0  0  0
  -20.3722  -36.9518   -7.3547 C   0  0  0  0  0  0  0  0  0  0  0  0
  -20.5038  -38.3929   -5.3617 C   0  0  0  0  0  0  0  0  0  0  0  0
  -21.2408  -39.6736   -5.1066 C   0  0  0  0  0  0  0  0  0  0  0  0
  -22.6697  -39.6596   -5.6678 C   0  0  0  0  0  0  0  0  0  0  0  0
  -22.6529  -40.4917   -6.9257 C   0  0  0  0  0  0  0  0  0  0  0  0
  -23.7557  -41.4740   -7.0438 C   0  0  0  0  0  0  0  0  0  0  0  0
  -23.3337  -42.9087   -7.0200 C   0  0  0  0  0  0  0  0  0  0  0  0
  -22.5812  -43.3227   -5.8165 C   0  0  0  0  0  0  0  0  0  0  0  0
  -21.3799  -44.1901   -6.0512 C   0  0  2  0  0  0  0  0  0  0  0  0
  -21.6782  -45.6031   -5.8901 N   0  0  0  0  0  0  0  0  0  0  0  0
  -21.4746  -46.5679   -6.8906 C   0  0  0  0  0  0  0  0  0  0  0  0
  -21.3645  -46.1638   -8.0960 O   0  0  0  0  0  0  0  0  0  0  0  0
  -21.3942  -47.9682   -6.5502 C   0  0  0  0  0  0  0  0  0  0  0  0
  -21.0322  -48.9096   -7.4845 C   0  0  0  0  0  0  0  0  0  0  0  0
  -20.9673  -50.2700   -7.1551 C   0  0  0  0  0  0  0  0  0  0  0  0
  -21.2659  -50.6524   -5.9016 N   0  0  0  0  0  0  0  0  0  0  0  0
  -21.6249  -49.7644   -4.9593 C   0  0  0  0  0  0  0  0  0  0  0  0
  -21.6904  -48.4112   -5.2822 C   0  0  0  0  0  0  0  0  0  0  0  0
  -20.2567  -43.7755   -5.1790 C   0  0  0  0  0  0  0  0  0  0  0  0
  -20.2573  -44.2397   -3.9866 O   0  0  0  0  0  0  0  0  0  0  0  0
  -19.2042  -42.9216   -5.5485 N   0  0  0  0  0  0  0  0  0  0  0  0
  -18.3404  -42.9701   -6.6840 C   0  0  1  0  0  0  0  0  0  0  0  0
  -18.9848  -42.8855   -8.0275 C   0  0  0  0  0  0  0  0  0  0  0  0
  -17.2387  -41.9596   -6.5990 C   0  0  0  0  0  0  0  0  0  0  0  0
  -16.0640  -42.4205   -6.5957 O   0  0  0  0  0  0  0  0  0  0  0  0
  -17.3765  -40.5570   -6.5208 N   0  0  0  0  0  0  0  0  0  0  0  0
  1  2  1  0
  2  3  1  0
  3  4  1  0
  4  5  1  0
  5  6  1  0
  6  7  2  0
  6  8  1  0
  8  9  1  6
  8 10  1  0
 10 11  1  0
 11 12  1  1
 11 13  1  0
 13 14  1  1
 14 15  1  0
 15 16  1  1
 15 17  1  0
 17 18  1  0
 18 19  1  0
 19 20  1  0
 20 21  1  0
 21 22  1  0
 22 23  1  0
 23 24  1  0
 24 25  1  1
 25 26  1  0
 26 27  2  0
 26 28  1  0
 28 29  2  0
 29 30  1  0
 30 31  2  0
 31 32  1  0
 32 33  2  0
 24 34  1  0
 34 35  2  0
 34 36  1  0
 36 37  1  0
 37 38  1  6
 37 39  1  0
 39 40  2  0
 39 41  1  0
 33 28  1  0
 41 13  1  0
M  END
$$$$
