
     RDKit          3D

 41 42  0  0  0  0  0  0  0  0999 V2000
  -15.9233  -33.8180  -12.6328 C   0  0  0  0  0  0  0  0  0  0  0  0
  -15.2196  -34.8705  -13.4671 C   0  0  0  0  0  0  0  0  0  0  0  0
  -14.6061  -35.8811  -12.5047 C   0  0  0  0  0  0  0  0  0  0  0  0
  -15.4473  -37.1318  -12.4278 C   0  0  0  0  0  0  0  0  0  0  0  0
  -14.7873  -38.0952  -11.5942 N   0  0  0  0  0  0  0  0  0  0  0  0
  -15.4673  -39.2755  -11.1939 C   0  0  0  0  0  0  0  0  0  0  0  0
  -16.3543  -39.7460  -11.9190 O   0  0  0  0  0  0  0  0  0  0  0  0
  -15.0686  -39.9285   -9.8667 C   0  0  2  0  0  0  0  0  0  0  0  0
  -14.3494  -41.1967  -10.3242 C   0  0  0  0  0  0  0  0  0  0  0  0
  -16.3186  -40.2310   -9.0934 C   0  0  0  0  0  0  0  0  0  0  0  0
  -16.7203  -39.3582   -8.0040 C   0  0  2  0  0  0  0  0  0  0  0  0
  -15.5701  -38.7662   -7.4570 O   0  0  0  0  0  0  0  0  0  0  0  0
  -17.7469  -39.6668   -7.0094 C   0  0  2  0  0  0  0  0  0  0  0  0
  -18.4327  -38.4799   -6.3861 C   0  0  0  0  0  0  0  0  0  0  0  0
  -19.9311  -38.4439   -6.7073 C   0  0  2  0  0  0  0  0  0  0  0  0
  -20.2943  -37.1099   -7.3737 C   0  0  0  0  0  0  0  0  0  0  0  0
  -20.8031  -38.6517   -5.5216 C   0  0  0  0  0  0  0  0  0  0  0  0
  -21.4989  -39.9796   -5.4949 C   0  0  0  0  0  0  0  0  0  0  0  0
  -22.7531  -40.0119   -6.3796 C   0  0  0  0  0  0  0  0  0  0  0  0
  -22.3887  -40.7795   -7.6258 C   0  0  0  0  0  0  0  0  0  0  0  0
  -23.3697  -41.8105   -8.0380 C   0  0  0  0  0  0  0  0  0  0  0  0
  -22.8775  -43.2209   -7.9650 C   0  0  0  0  0  0  0  0  0  0  0  0
  -22.4061  -43.6539   -6.6322 C   0  0  0  0  0  0  0  0  0  0  0  0
  -21.1320  -44.4457   -6.6043 C   0  0  2  0  0  0  0  0  0  0  0  0
  -21.3722  -45.8784   -6.5689 N   0  0  0  0  0  0  0  0  0  0  0  0
  -20.7143  -46.8056   -7.3940 C   0  0  0  0  0  0  0  0  0  0  0  0
  -20.1806  -46.3741   -8.4697 O   0  0  0  0  0  0  0  0  0  0  0  0
  -20.6521  -48.1990   -7.0228 C   0  0  0  0  0  0  0  0  0  0  0  0
  -19.8240  -49.0764   -7.6823 C   0  0  0  0  0  0  0  0  0  0  0  0
  -19.7747  -50.4313   -7.3287 C   0  0  0  0  0  0  0  0  0  0  0  0
  -20.5541  -50.8725   -6.3263 N   0  0  0  0  0  0  0  0  0  0  0  0
  -21.3776  -50.0481   -5.6573 C   0  0  0  0  0  0  0  0  0  0  0  0
  -21.4295  -48.7005   -6.0050 C   0  0  0  0  0  0  0  0  0  0  0  0
  -20.2742  -44.0168   -5.4754 C   0  0  0  0  0  0  0  0  0  0  0  0
  -20.5274  -44.5383   -4.3346 O   0  0  0  0  0  0  0  0  0  0  0  0
  -19.2190  -43.0927   -5.5530 N   0  0  0  0  0  0  0  0  0  0  0  0
  -18.1104  -43.0409   -6.4509 C   0  0  1  0  0  0  0  0  0  0  0  0
  -18.4236  -42.9240   -7.9054 C   0  0  0  0  0  0  0  0  0  0  0  0
  -17.1244  -41.9803   -6.0702 C   0  0  0  0  0  0  0  0  0  0  0  0
  -15.9575  -42.3796   -5.8032 O   0  0  0  0  0  0  0  0  0  0  0  0
  -17.3631  -40.5922   -5.9776 N   0  0  0  0  0  0  0  0  0  0  0  0
  1  2  1  0
  2  3  1  0
  3  4  1  0
  4  5  1  0
  5  6  1  0
  6  7  2  0
  6  8  1  0
  8  9  1  6
  8 10  1  0
 10 11  1  0
 11 12  1  1
 11 13  1  0
 13 14  1  1
 14 15  1  0
 15 16  1  1
 15 17  1  0
 17 18  1  0
 18 19  1  0
 19 20  1  0
 20 21  1  0
 21 22  1  0
 22 23  1  0
 23 24  1  0
 24 25  1  1
 25 26  1  0
 26 27  2  0
 26 28  1  0
 28 29  2  0
 29 30  1  0
 30 31  2  0
 31 32  1  0
 32 33  2  0
 24 34  1  0
 34 35  2  0
 34 36  1  0
 36 37  1  0
 37 38  1  6
 37 39  1  0
 39 40  2  0
 39 41  1  0
 33 28  1  0
 41 13  1  0
M  END
$$$$
