
     RDKit          3D

 41 42  0  0  0  0  0  0  0  0999 V2000
  -14.3035  -36.6475  -14.3949 C   0  0  0  0  0  0  0  0  0  0  0  0
  -13.3427  -37.2768  -13.4050 C   0  0  0  0  0  0  0  0  0  0  0  0
  -13.2307  -38.7562  -13.7547 C   0  0  0  0  0  0  0  0  0  0  0  0
  -14.2747  -39.5639  -13.0230 C   0  0  0  0  0  0  0  0  0  0  0  0
  -14.0640  -39.4394  -11.6093 N   0  0  0  0  0  0  0  0  0  0  0  0
  -14.9251  -40.1073  -10.6992 C   0  0  0  0  0  0  0  0  0  0  0  0
  -15.8061  -40.8620  -11.1327 O   0  0  0  0  0  0  0  0  0  0  0  0
  -14.7243  -39.8664   -9.1996 C   0  0  2  0  0  0  0  0  0  0  0  0
  -13.4575  -40.6676   -8.9021 C   0  0  0  0  0  0  0  0  0  0  0  0
  -15.9208  -40.4022   -8.4695 C   0  0  0  0  0  0  0  0  0  0  0  0
  -16.9053  -39.4819   -7.9274 C   0  0  2  0  0  0  0  0  0  0  0  0
  -16.3293  -38.2030   -7.8527 O   0  0  0  0  0  0  0  0  0  0  0  0
  -17.8184  -39.7759   -6.8239 C   0  0  2  0  0  0  0  0  0  0  0  0
  -18.3324  -38.5822   -6.0633 C   0  0  0  0  0  0  0  0  0  0  0  0
  -19.8527  -38.4294   -6.1863 C   0  0  2  0  0  0  0  0  0  0  0  0
  -20.1986  -37.0396   -6.7381 C   0  0  0  0  0  0  0  0  0  0  0  0
  -20.5815  -38.6438   -4.9088 C   0  0  0  0  0  0  0  0  0  0  0  0
  -21.3633  -39.9221   -4.8536 C   0  0  0  0  0  0  0  0  0  0  0  0
  -22.7176  -39.8226   -5.5694 C   0  0  0  0  0  0  0  0  0  0  0  0
  -22.5695  -40.5430   -6.8863 C   0  0  0  0  0  0  0  0  0  0  0  0
  -23.6669  -41.4825   -7.2153 C   0  0  0  0  0  0  0  0  0  0  0  0
  -23.2732  -42.9243   -7.2714 C   0  0  0  0  0  0  0  0  0  0  0  0
  -22.6709  -43.4602   -6.0320 C   0  0  0  0  0  0  0  0  0  0  0  0
  -21.4644  -44.3350   -6.2054 C   0  0  2  0  0  0  0  0  0  0  0  0
  -21.8018  -45.7484   -6.2052 N   0  0  0  0  0  0  0  0  0  0  0  0
  -21.1796  -46.7045   -7.0251 C   0  0  0  0  0  0  0  0  0  0  0  0
  -20.6322  -46.2998   -8.1044 O   0  0  0  0  0  0  0  0  0  0  0  0
  -21.1676  -48.0967   -6.6447 C   0  0  0  0  0  0  0  0  0  0  0  0
  -21.5990  -48.5006   -5.4034 C   0  0  0  0  0  0  0  0  0  0  0  0
  -21.5745  -49.8514   -5.0316 C   0  0  0  0  0  0  0  0  0  0  0  0
  -21.1194  -50.7613   -5.9102 N   0  0  0  0  0  0  0  0  0  0  0  0
  -20.6881  -50.4081   -7.1326 C   0  0  0  0  0  0  0  0  0  0  0  0
  -20.7111  -49.0667   -7.5065 C   0  0  0  0  0  0  0  0  0  0  0  0
  -20.4427  -44.0265   -5.1782 C   0  0  0  0  0  0  0  0  0  0  0  0
  -20.5879  -44.5920   -4.0395 O   0  0  0  0  0  0  0  0  0  0  0  0
  -19.3412  -43.1715   -5.3488 N   0  0  0  0  0  0  0  0  0  0  0  0
  -18.3534  -43.1441   -6.3790 C   0  0  1  0  0  0  0  0  0  0  0  0
  -18.8375  -42.9270   -7.7740 C   0  0  0  0  0  0  0  0  0  0  0  0
  -17.2528  -42.1737   -6.0804 C   0  0  0  0  0  0  0  0  0  0  0  0
  -16.0938  -42.6634   -5.9851 O   0  0  0  0  0  0  0  0  0  0  0  0
  -17.3764  -40.7799   -5.8940 N   0  0  0  0  0  0  0  0  0  0  0  0
  1  2  1  0
  2  3  1  0
  3  4  1  0
  4  5  1  0
  5  6  1  0
  6  7  2  0
  6  8  1  0
  8  9  1  1
  8 10  1  0
 10 11  1  0
 11 12  1  1
 11 13  1  0
 13 14  1  1
 14 15  1  0
 15 16  1  1
 15 17  1  0
 17 18  1  0
 18 19  1  0
 19 20  1  0
 20 21  1  0
 21 22  1  0
 22 23  1  0
 23 24  1  0
 24 25  1  1
 25 26  1  0
 26 27  2  0
 26 28  1  0
 28 29  2  0
 29 30  1  0
 30 31  2  0
 31 32  1  0
 32 33  2  0
 24 34  1  0
 34 35  2  0
 34 36  1  0
 36 37  1  0
 37 38  1  6
 37 39  1  0
 39 40  2  0
 39 41  1  0
 33 28  1  0
 41 13  1  0
M  END
$$$$
