
     RDKit          3D

 41 42  0  0  0  0  0  0  0  0999 V2000
  -12.6767  -40.9696  -15.5681 C   0  0  0  0  0  0  0  0  0  0  0  0
  -13.9560  -41.6692  -15.1522 C   0  0  0  0  0  0  0  0  0  0  0  0
  -14.4342  -41.0164  -13.8603 C   0  0  0  0  0  0  0  0  0  0  0  0
  -13.6359  -41.5109  -12.6787 C   0  0  0  0  0  0  0  0  0  0  0  0
  -13.8656  -40.6459  -11.5573 N   0  0  0  0  0  0  0  0  0  0  0  0
  -14.8599  -40.9723  -10.5978 C   0  0  0  0  0  0  0  0  0  0  0  0
  -15.2442  -42.1447  -10.4901 O   0  0  0  0  0  0  0  0  0  0  0  0
  -15.4211  -39.8475   -9.7222 C   0  0  2  0  0  0  0  0  0  0  0  0
  -14.1598  -39.2560   -9.0941 C   0  0  0  0  0  0  0  0  0  0  0  0
  -16.3349  -40.4551   -8.6987 C   0  0  0  0  0  0  0  0  0  0  0  0
  -17.1776  -39.5959   -7.8853 C   0  0  2  0  0  0  0  0  0  0  0  0
  -16.4454  -38.4483   -7.5392 O   0  0  0  0  0  0  0  0  0  0  0  0
  -18.0796  -40.0530   -6.8291 C   0  0  2  0  0  0  0  0  0  0  0  0
  -18.5991  -38.9847   -5.9037 C   0  0  0  0  0  0  0  0  0  0  0  0
  -20.1216  -38.8319   -5.9944 C   0  0  2  0  0  0  0  0  0  0  0  0
  -20.4849  -37.3816   -6.3413 C   0  0  0  0  0  0  0  0  0  0  0  0
  -20.8388  -39.2328   -4.7558 C   0  0  0  0  0  0  0  0  0  0  0  0
  -21.6080  -40.5142   -4.8778 C   0  0  0  0  0  0  0  0  0  0  0  0
  -22.9686  -40.3283   -5.5640 C   0  0  0  0  0  0  0  0  0  0  0  0
  -22.8235  -40.8530   -6.9706 C   0  0  0  0  0  0  0  0  0  0  0  0
  -23.9144  -41.7478   -7.4229 C   0  0  0  0  0  0  0  0  0  0  0  0
  -23.5076  -43.1629   -7.6855 C   0  0  0  0  0  0  0  0  0  0  0  0
  -22.8909  -43.8628   -6.5383 C   0  0  0  0  0  0  0  0  0  0  0  0
  -21.6776  -44.6915   -6.8414 C   0  0  2  0  0  0  0  0  0  0  0  0
  -22.0015  -46.0941   -7.0398 N   0  0  0  0  0  0  0  0  0  0  0  0
  -21.2597  -46.9636   -7.8565 C   0  0  0  0  0  0  0  0  0  0  0  0
  -20.4481  -46.4477   -8.6954 O   0  0  0  0  0  0  0  0  0  0  0  0
  -21.4211  -48.3930   -7.7385 C   0  0  0  0  0  0  0  0  0  0  0  0
  -20.6462  -49.2611   -8.4708 C   0  0  0  0  0  0  0  0  0  0  0  0
  -20.8133  -50.6482   -8.3641 C   0  0  0  0  0  0  0  0  0  0  0  0
  -21.7501  -51.1298   -7.5291 N   0  0  0  0  0  0  0  0  0  0  0  0
  -22.5285  -50.3157   -6.7965 C   0  0  0  0  0  0  0  0  0  0  0  0
  -22.3655  -48.9363   -6.8990 C   0  0  0  0  0  0  0  0  0  0  0  0
  -20.6511  -44.5212   -5.7872 C   0  0  0  0  0  0  0  0  0  0  0  0
  -20.7823  -45.2439   -4.7394 O   0  0  0  0  0  0  0  0  0  0  0  0
  -19.5590  -43.6392   -5.8415 N   0  0  0  0  0  0  0  0  0  0  0  0
  -18.5793  -43.4556   -6.8633 C   0  0  1  0  0  0  0  0  0  0  0  0
  -19.0759  -43.0479   -8.2104 C   0  0  0  0  0  0  0  0  0  0  0  0
  -17.4857  -42.5260   -6.4368 C   0  0  0  0  0  0  0  0  0  0  0  0
  -16.3215  -43.0121   -6.4190 O   0  0  0  0  0  0  0  0  0  0  0  0
  -17.6211  -41.1741   -6.0538 N   0  0  0  0  0  0  0  0  0  0  0  0
  1  2  1  0
  2  3  1  0
  3  4  1  0
  4  5  1  0
  5  6  1  0
  6  7  2  0
  6  8  1  0
  8  9  1  1
  8 10  1  0
 10 11  1  0
 11 12  1  1
 11 13  1  0
 13 14  1  1
 14 15  1  0
 15 16  1  1
 15 17  1  0
 17 18  1  0
 18 19  1  0
 19 20  1  0
 20 21  1  0
 21 22  1  0
 22 23  1  0
 23 24  1  0
 24 25  1  1
 25 26  1  0
 26 27  2  0
 26 28  1  0
 28 29  2  0
 29 30  1  0
 30 31  2  0
 31 32  1  0
 32 33  2  0
 24 34  1  0
 34 35  2  0
 34 36  1  0
 36 37  1  0
 37 38  1  6
 37 39  1  0
 39 40  2  0
 39 41  1  0
 33 28  1  0
 41 13  1  0
M  END
$$$$
