
     RDKit          3D

 42 45  0  0  0  0  0  0  0  0999 V2000
  -20.2612  -42.0709   -8.5950 C   0  0  0  0  0  0  0  0  0  0  0  0
  -19.2170  -43.0147   -8.1463 C   0  0  2  0  0  0  0  0  0  0  0  0
  -19.7059  -44.0597   -7.1564 C   0  0  0  0  0  0  0  0  0  0  0  0
  -19.8232  -43.6081   -5.7776 C   0  0  0  0  0  0  0  0  0  0  0  0
  -18.8554  -42.9830   -5.2212 O   0  0  0  0  0  0  0  0  0  0  0  0
  -20.9547  -43.7936   -4.9305 N   0  0  0  0  0  0  0  0  0  0  0  0
  -22.1645  -44.4632   -5.2927 C   0  0  0  0  0  0  0  0  0  0  0  0
  -23.2265  -43.4791   -5.7755 C   0  0  0  0  0  0  0  0  0  0  0  0
  -23.4515  -42.4021   -4.7169 C   0  0  0  0  0  0  0  0  0  0  0  0
  -24.1154  -41.1937   -5.2851 C   0  0  0  0  0  0  0  0  0  0  0  0
  -23.2901  -40.1457   -5.4877 O   0  0  0  0  0  0  0  0  0  0  0  0
  -22.0885  -39.7262   -5.9693 C   0  0  0  0  0  0  0  0  0  0  0  0
  -20.8017  -40.1761   -5.6818 C   0  0  0  0  0  0  0  0  0  0  0  0
  -19.7535  -39.5697   -6.3184 C   0  0  0  0  0  0  0  0  0  0  0  0
  -18.2792  -39.7854   -6.2616 C   0  0  0  0  0  0  0  0  0  0  0  0
  -17.5940  -39.9128   -7.6012 C   0  0  2  0  0  0  0  0  0  0  0  0
  -17.2783  -41.2504   -8.0196 N   0  0  0  0  0  0  0  0  0  0  0  0
  -17.9026  -42.4818   -7.7881 C   0  0  0  0  0  0  0  0  0  0  0  0
  -17.1904  -43.3566   -7.1222 O   0  0  0  0  0  0  0  0  0  0  0  0
  -16.3080  -39.0821   -7.6264 C   0  0  2  0  0  0  0  0  0  0  0  0
  -16.7477  -37.7143   -7.7254 O   0  0  0  0  0  0  0  0  0  0  0  0
  -15.4755  -39.2709   -8.8798 C   0  0  0  0  0  0  0  0  0  0  0  0
  -14.1438  -39.7092   -8.7380 N   0  0  0  0  0  0  0  0  0  0  0  0
  -13.3371  -39.6264   -9.9443 C   0  0  0  0  0  0  0  0  0  0  0  0
  -12.1027  -38.8366   -9.6688 C   0  0  0  0  0  0  0  0  0  0  0  0
  -10.8731  -39.5680   -9.3094 C   0  0  0  0  0  0  0  0  0  0  0  0
  -10.6887  -40.9200   -9.9433 C   0  0  0  0  0  0  0  0  0  0  0  0
  -11.6705  -40.9447  -11.1314 C   0  0  0  0  0  0  0  0  0  0  0  0
  -13.0432  -40.9990  -10.5062 C   0  0  0  0  0  0  0  0  0  0  0  0
  -14.1176  -38.8785  -10.9567 C   0  0  0  0  0  0  0  0  0  0  0  0
  -14.1399  -37.4979  -10.9507 C   0  0  0  0  0  0  0  0  0  0  0  0
  -14.8721  -36.7298  -11.8440 C   0  0  0  0  0  0  0  0  0  0  0  0
  -15.6260  -37.3784  -12.7998 C   0  0  0  0  0  0  0  0  0  0  0  0
  -15.6445  -38.7529  -12.8573 C   0  0  0  0  0  0  0  0  0  0  0  0
  -14.8820  -39.4844  -11.9245 C   0  0  0  0  0  0  0  0  0  0  0  0
  -14.8493  -35.2370  -11.7817 C   0  0  0  0  0  0  0  0  0  0  0  0
  -13.4472  -34.7645  -12.1107 C   0  0  0  0  0  0  0  0  0  0  0  0
  -15.7932  -34.6563  -12.8056 C   0  0  0  0  0  0  0  0  0  0  0  0
  -15.2823  -34.7505  -10.4119 C   0  0  0  0  0  0  0  0  0  0  0  0
  -19.9975  -38.5144   -7.2380 C   0  0  0  0  0  0  0  0  0  0  0  0
  -21.2449  -38.0470   -7.5436 C   0  0  0  0  0  0  0  0  0  0  0  0
  -22.2791  -38.6721   -6.8926 C   0  0  0  0  0  0  0  0  0  0  0  0
  2  1  1  1
  2  3  1  0
  3  4  1  0
  4  5  2  0
  4  6  1  0
  6  7  1  0
  7  8  1  0
  8  9  1  0
  9 10  1  0
 10 11  1  0
 11 12  1  0
 12 13  1  0
 13 14  2  0
 14 15  1  0
 16 15  1  1
 16 17  1  0
 17 18  1  0
 18 19  2  0
 16 20  1  0
 20 21  1  6
 20 22  1  0
 22 23  1  0
 23 24  1  0
 24 25  1  0
 25 26  1  0
 26 27  1  0
 27 28  1  0
 28 29  1  0
 24 30  1  0
 30 31  2  0
 31 32  1  0
 32 33  2  0
 33 34  1  0
 34 35  2  0
 32 36  1  0
 36 37  1  0
 36 38  1  0
 36 39  1  0
 14 40  1  0
 40 41  2  0
 41 42  1  0
 18  2  1  0
 29 24  1  0
 35 30  1  0
 42 12  2  0
M  END
$$$$
