
     RDKit          3D

 42 45  0  0  0  0  0  0  0  0999 V2000
  -20.1731  -42.2956   -9.2169 C   0  0  0  0  0  0  0  0  0  0  0  0
  -19.1762  -43.2324   -8.6596 C   0  0  2  0  0  0  0  0  0  0  0  0
  -19.7555  -44.2613   -7.7021 C   0  0  0  0  0  0  0  0  0  0  0  0
  -19.9978  -43.7877   -6.3472 C   0  0  0  0  0  0  0  0  0  0  0  0
  -19.0839  -43.1541   -5.7145 O   0  0  0  0  0  0  0  0  0  0  0  0
  -21.2024  -43.9593   -5.6044 N   0  0  0  0  0  0  0  0  0  0  0  0
  -22.3751  -44.6341   -6.0653 C   0  0  0  0  0  0  0  0  0  0  0  0
  -23.3868  -43.6576   -6.6589 C   0  0  0  0  0  0  0  0  0  0  0  0
  -23.7059  -42.5638   -5.6426 C   0  0  0  0  0  0  0  0  0  0  0  0
  -24.3128  -41.3644   -6.2884 C   0  0  0  0  0  0  0  0  0  0  0  0
  -23.4705  -40.3200   -6.4312 O   0  0  0  0  0  0  0  0  0  0  0  0
  -22.2291  -39.9086   -6.8072 C   0  0  0  0  0  0  0  0  0  0  0  0
  -20.9749  -40.3543   -6.3960 C   0  0  0  0  0  0  0  0  0  0  0  0
  -19.8717  -39.7584   -6.9434 C   0  0  0  0  0  0  0  0  0  0  0  0
  -18.4092  -39.9737   -6.7484 C   0  0  0  0  0  0  0  0  0  0  0  0
  -17.6044  -40.1227   -8.0174 C   0  0  2  0  0  0  0  0  0  0  0  0
  -17.2540  -41.4669   -8.3838 N   0  0  0  0  0  0  0  0  0  0  0  0
  -17.8992  -42.6942   -8.1910 C   0  0  0  0  0  0  0  0  0  0  0  0
  -17.2525  -43.5586   -7.4488 O   0  0  0  0  0  0  0  0  0  0  0  0
  -16.3200  -39.2929   -7.9379 C   0  0  2  0  0  0  0  0  0  0  0  0
  -16.7356  -37.9355   -8.1801 O   0  0  0  0  0  0  0  0  0  0  0  0
  -15.3402  -39.5623   -9.0636 C   0  0  0  0  0  0  0  0  0  0  0  0
  -13.9782  -39.2724   -8.8481 N   0  0  0  0  0  0  0  0  0  0  0  0
  -13.0936  -39.6210   -9.9475 C   0  0  0  0  0  0  0  0  0  0  0  0
  -11.6742  -39.4903   -9.5097 C   0  0  0  0  0  0  0  0  0  0  0  0
  -10.9812  -40.6978   -9.0221 C   0  0  0  0  0  0  0  0  0  0  0  0
  -11.3798  -42.0016   -9.6585 C   0  0  0  0  0  0  0  0  0  0  0  0
  -12.1142  -41.6083  -10.9555 C   0  0  0  0  0  0  0  0  0  0  0  0
  -13.4142  -40.9914  -10.4998 C   0  0  0  0  0  0  0  0  0  0  0  0
  -13.3100  -38.6330  -11.0293 C   0  0  0  0  0  0  0  0  0  0  0  0
  -13.0842  -37.2883  -10.8114 C   0  0  0  0  0  0  0  0  0  0  0  0
  -13.2956  -36.3018  -11.7633 C   0  0  0  0  0  0  0  0  0  0  0  0
  -13.7593  -36.6802  -13.0060 C   0  0  0  0  0  0  0  0  0  0  0  0
  -14.0028  -38.0054  -13.2845 C   0  0  0  0  0  0  0  0  0  0  0  0
  -13.7713  -38.9666  -12.2799 C   0  0  0  0  0  0  0  0  0  0  0  0
  -13.0286  -34.8632  -11.4602 C   0  0  0  0  0  0  0  0  0  0  0  0
  -13.8373  -34.4720  -10.2394 C   0  0  0  0  0  0  0  0  0  0  0  0
  -11.5681  -34.6580  -11.1419 C   0  0  0  0  0  0  0  0  0  0  0  0
  -13.3789  -33.9902  -12.6500 C   0  0  0  0  0  0  0  0  0  0  0  0
  -20.0286  -38.7180   -7.8982 C   0  0  0  0  0  0  0  0  0  0  0  0
  -21.2419  -38.2551   -8.3242 C   0  0  0  0  0  0  0  0  0  0  0  0
  -22.3325  -38.8694   -7.7607 C   0  0  0  0  0  0  0  0  0  0  0  0
  2  1  1  1
  2  3  1  0
  3  4  1  0
  4  5  2  0
  4  6  1  0
  6  7  1  0
  7  8  1  0
  8  9  1  0
  9 10  1  0
 10 11  1  0
 11 12  1  0
 12 13  1  0
 13 14  2  0
 14 15  1  0
 16 15  1  1
 16 17  1  0
 17 18  1  0
 18 19  2  0
 16 20  1  0
 20 21  1  6
 20 22  1  0
 22 23  1  0
 23 24  1  0
 24 25  1  0
 25 26  1  0
 26 27  1  0
 27 28  1  0
 28 29  1  0
 24 30  1  0
 30 31  2  0
 31 32  1  0
 32 33  2  0
 33 34  1  0
 34 35  2  0
 32 36  1  0
 36 37  1  0
 36 38  1  0
 36 39  1  0
 14 40  1  0
 40 41  2  0
 41 42  1  0
 18  2  1  0
 29 24  1  0
 35 30  1  0
 42 12  2  0
M  END
$$$$
