
     RDKit          3D

 42 45  0  0  0  0  0  0  0  0999 V2000
  -20.3905  -42.3031   -8.7301 C   0  0  0  0  0  0  0  0  0  0  0  0
  -19.1977  -43.1117   -8.4051 C   0  0  2  0  0  0  0  0  0  0  0  0
  -19.4716  -44.2762   -7.4671 C   0  0  0  0  0  0  0  0  0  0  0  0
  -19.5652  -43.9334   -6.0555 C   0  0  0  0  0  0  0  0  0  0  0  0
  -18.6624  -43.2106   -5.5082 O   0  0  0  0  0  0  0  0  0  0  0  0
  -20.6041  -44.3335   -5.1651 N   0  0  0  0  0  0  0  0  0  0  0  0
  -21.7276  -45.1473   -5.5094 C   0  0  0  0  0  0  0  0  0  0  0  0
  -22.9459  -44.2993   -5.8646 C   0  0  0  0  0  0  0  0  0  0  0  0
  -23.2541  -43.3346   -4.7221 C   0  0  0  0  0  0  0  0  0  0  0  0
  -24.1159  -42.2020   -5.1676 C   0  0  0  0  0  0  0  0  0  0  0  0
  -23.4610  -41.0348   -5.3389 O   0  0  0  0  0  0  0  0  0  0  0  0
  -22.3629  -40.4164   -5.8524 C   0  0  0  0  0  0  0  0  0  0  0  0
  -21.0102  -40.6922   -5.6658 C   0  0  0  0  0  0  0  0  0  0  0  0
  -20.0997  -39.9017   -6.3123 C   0  0  0  0  0  0  0  0  0  0  0  0
  -18.6091  -39.9046   -6.3488 C   0  0  0  0  0  0  0  0  0  0  0  0
  -17.9977  -39.8475   -7.7284 C   0  0  2  0  0  0  0  0  0  0  0  0
  -17.5232  -41.0965   -8.2564 N   0  0  0  0  0  0  0  0  0  0  0  0
  -17.9519  -42.4173   -8.0799 C   0  0  0  0  0  0  0  0  0  0  0  0
  -17.0833  -43.2196   -7.5161 O   0  0  0  0  0  0  0  0  0  0  0  0
  -16.8458  -38.8392   -7.7626 C   0  0  2  0  0  0  0  0  0  0  0  0
  -17.2893  -37.7364   -6.9497 O   0  0  0  0  0  0  0  0  0  0  0  0
  -16.6231  -38.2022   -9.1207 C   0  0  0  0  0  0  0  0  0  0  0  0
  -15.4982  -38.6009   -9.8697 N   0  0  0  0  0  0  0  0  0  0  0  0
  -15.4365  -38.0653  -11.2195 C   0  0  0  0  0  0  0  0  0  0  0  0
  -16.7070  -38.3695  -11.9383 C   0  0  0  0  0  0  0  0  0  0  0  0
  -17.7656  -37.3421  -11.9478 C   0  0  0  0  0  0  0  0  0  0  0  0
  -17.3077  -35.9089  -11.9519 C   0  0  0  0  0  0  0  0  0  0  0  0
  -15.8272  -35.9607  -12.3783 C   0  0  0  0  0  0  0  0  0  0  0  0
  -15.1040  -36.5903  -11.2126 C   0  0  0  0  0  0  0  0  0  0  0  0
  -14.3496  -38.7726  -11.9347 C   0  0  0  0  0  0  0  0  0  0  0  0
  -13.0555  -38.2917  -11.9035 C   0  0  0  0  0  0  0  0  0  0  0  0
  -11.9929  -38.8795  -12.5738 C   0  0  0  0  0  0  0  0  0  0  0  0
  -12.2366  -40.0144  -13.3189 C   0  0  0  0  0  0  0  0  0  0  0  0
  -13.5051  -40.5423  -13.3890 C   0  0  0  0  0  0  0  0  0  0  0  0
  -14.5485  -39.9043  -12.6882 C   0  0  0  0  0  0  0  0  0  0  0  0
  -10.6153  -38.3062  -12.4951 C   0  0  0  0  0  0  0  0  0  0  0  0
  -10.0655  -38.5678  -11.1069 C   0  0  0  0  0  0  0  0  0  0  0  0
   -9.7094  -38.9825  -13.4943 C   0  0  0  0  0  0  0  0  0  0  0  0
  -10.6334  -36.8215  -12.8044 C   0  0  0  0  0  0  0  0  0  0  0  0
  -20.5470  -38.8376   -7.1408 C   0  0  0  0  0  0  0  0  0  0  0  0
  -21.8645  -38.5378   -7.3464 C   0  0  0  0  0  0  0  0  0  0  0  0
  -22.7575  -39.3456   -6.6874 C   0  0  0  0  0  0  0  0  0  0  0  0
  2  1  1  1
  2  3  1  0
  3  4  1  0
  4  5  2  0
  4  6  1  0
  6  7  1  0
  7  8  1  0
  8  9  1  0
  9 10  1  0
 10 11  1  0
 11 12  1  0
 12 13  1  0
 13 14  2  0
 14 15  1  0
 16 15  1  1
 16 17  1  0
 17 18  1  0
 18 19  2  0
 16 20  1  0
 20 21  1  1
 20 22  1  0
 22 23  1  0
 23 24  1  0
 24 25  1  0
 25 26  1  0
 26 27  1  0
 27 28  1  0
 28 29  1  0
 24 30  1  0
 30 31  2  0
 31 32  1  0
 32 33  2  0
 33 34  1  0
 34 35  2  0
 32 36  1  0
 36 37  1  0
 36 38  1  0
 36 39  1  0
 14 40  1  0
 40 41  2  0
 41 42  1  0
 18  2  1  0
 29 24  1  0
 35 30  1  0
 42 12  2  0
M  END
$$$$
