
     RDKit          3D

 42 45  0  0  0  0  0  0  0  0999 V2000
  -20.1490  -41.7139   -9.0523 C   0  0  0  0  0  0  0  0  0  0  0  0
  -19.0369  -42.5872   -8.6246 C   0  0  2  0  0  0  0  0  0  0  0  0
  -19.4319  -43.6453   -7.6072 C   0  0  0  0  0  0  0  0  0  0  0  0
  -19.5345  -43.1822   -6.2310 C   0  0  0  0  0  0  0  0  0  0  0  0
  -18.5897  -42.4925   -5.7127 O   0  0  0  0  0  0  0  0  0  0  0  0
  -20.6267  -43.4229   -5.3471 N   0  0  0  0  0  0  0  0  0  0  0  0
  -21.8044  -44.1686   -5.6634 C   0  0  0  0  0  0  0  0  0  0  0  0
  -22.9379  -43.2567   -6.1252 C   0  0  0  0  0  0  0  0  0  0  0  0
  -23.1952  -42.1802   -5.0734 C   0  0  0  0  0  0  0  0  0  0  0  0
  -23.9475  -41.0218   -5.6357 C   0  0  0  0  0  0  0  0  0  0  0  0
  -23.1932  -39.9293   -5.8767 O   0  0  0  0  0  0  0  0  0  0  0  0
  -22.0340  -39.4456   -6.4004 C   0  0  0  0  0  0  0  0  0  0  0  0
  -20.7145  -39.8137   -6.1474 C   0  0  0  0  0  0  0  0  0  0  0  0
  -19.7243  -39.1548   -6.8235 C   0  0  0  0  0  0  0  0  0  0  0  0
  -18.2387  -39.2812   -6.8098 C   0  0  0  0  0  0  0  0  0  0  0  0
  -17.5878  -39.3864   -8.1683 C   0  0  2  0  0  0  0  0  0  0  0  0
  -17.2049  -40.7085   -8.5797 N   0  0  0  0  0  0  0  0  0  0  0  0
  -17.7468  -41.9716   -8.3139 C   0  0  0  0  0  0  0  0  0  0  0  0
  -16.9634  -42.7928   -7.6596 O   0  0  0  0  0  0  0  0  0  0  0  0
  -16.3554  -38.4807   -8.2435 C   0  0  2  0  0  0  0  0  0  0  0  0
  -16.8555  -37.2039   -8.6835 O   0  0  0  0  0  0  0  0  0  0  0  0
  -15.3735  -38.8636   -9.3339 C   0  0  0  0  0  0  0  0  0  0  0  0
  -14.5504  -39.9885   -9.1274 N   0  0  0  0  0  0  0  0  0  0  0  0
  -13.5191  -40.1890  -10.1318 C   0  0  0  0  0  0  0  0  0  0  0  0
  -12.1779  -39.9384   -9.5302 C   0  0  0  0  0  0  0  0  0  0  0  0
  -11.4182  -41.0934   -9.0153 C   0  0  0  0  0  0  0  0  0  0  0  0
  -11.6045  -42.3962   -9.7444 C   0  0  0  0  0  0  0  0  0  0  0  0
  -12.2303  -42.0129  -11.1000 C   0  0  0  0  0  0  0  0  0  0  0  0
  -13.6304  -41.5546  -10.7712 C   0  0  0  0  0  0  0  0  0  0  0  0
  -13.7196  -39.1736  -11.1911 C   0  0  0  0  0  0  0  0  0  0  0  0
  -13.1990  -37.9018  -11.0560 C   0  0  0  0  0  0  0  0  0  0  0  0
  -13.3725  -36.8893  -11.9880 C   0  0  0  0  0  0  0  0  0  0  0  0
  -14.1088  -37.1629  -13.1219 C   0  0  0  0  0  0  0  0  0  0  0  0
  -14.6531  -38.4117  -13.3142 C   0  0  0  0  0  0  0  0  0  0  0  0
  -14.4461  -39.4036  -12.3345 C   0  0  0  0  0  0  0  0  0  0  0  0
  -12.7789  -35.5341  -11.7789 C   0  0  0  0  0  0  0  0  0  0  0  0
  -13.8112  -34.4934  -12.1648 C   0  0  0  0  0  0  0  0  0  0  0  0
  -12.4310  -35.3341  -10.3245 C   0  0  0  0  0  0  0  0  0  0  0  0
  -11.5098  -35.3727  -12.5937 C   0  0  0  0  0  0  0  0  0  0  0  0
  -20.0590  -38.1292   -7.7481 C   0  0  0  0  0  0  0  0  0  0  0  0
  -21.3409  -37.7415   -8.0207 C   0  0  0  0  0  0  0  0  0  0  0  0
  -22.3155  -38.4181   -7.3302 C   0  0  0  0  0  0  0  0  0  0  0  0
  2  1  1  1
  2  3  1  0
  3  4  1  0
  4  5  2  0
  4  6  1  0
  6  7  1  0
  7  8  1  0
  8  9  1  0
  9 10  1  0
 10 11  1  0
 11 12  1  0
 12 13  1  0
 13 14  2  0
 14 15  1  0
 16 15  1  1
 16 17  1  0
 17 18  1  0
 18 19  2  0
 16 20  1  0
 20 21  1  6
 20 22  1  0
 22 23  1  0
 23 24  1  0
 24 25  1  0
 25 26  1  0
 26 27  1  0
 27 28  1  0
 28 29  1  0
 24 30  1  0
 30 31  2  0
 31 32  1  0
 32 33  2  0
 33 34  1  0
 34 35  2  0
 32 36  1  0
 36 37  1  0
 36 38  1  0
 36 39  1  0
 14 40  1  0
 40 41  2  0
 41 42  1  0
 18  2  1  0
 29 24  1  0
 35 30  1  0
 42 12  2  0
M  END
$$$$
