
     RDKit          3D

 42 45  0  0  0  0  0  0  0  0999 V2000
  -20.5811  -42.1825   -8.7597 C   0  0  0  0  0  0  0  0  0  0  0  0
  -19.3389  -42.9810   -8.7170 C   0  0  2  0  0  0  0  0  0  0  0  0
  -19.4250  -44.2203   -7.8409 C   0  0  0  0  0  0  0  0  0  0  0  0
  -19.2686  -43.9883   -6.4124 C   0  0  0  0  0  0  0  0  0  0  0  0
  -18.2918  -43.2849   -5.9785 O   0  0  0  0  0  0  0  0  0  0  0  0
  -20.1258  -44.4826   -5.3863 N   0  0  0  0  0  0  0  0  0  0  0  0
  -21.2821  -45.2981   -5.5891 C   0  0  0  0  0  0  0  0  0  0  0  0
  -22.5553  -44.4588   -5.6537 C   0  0  0  0  0  0  0  0  0  0  0  0
  -22.6663  -43.5922   -4.4016 C   0  0  0  0  0  0  0  0  0  0  0  0
  -23.6087  -42.4528   -4.5955 C   0  0  0  0  0  0  0  0  0  0  0  0
  -23.0103  -41.2588   -4.7870 O   0  0  0  0  0  0  0  0  0  0  0  0
  -22.0302  -40.5737   -5.4366 C   0  0  0  0  0  0  0  0  0  0  0  0
  -20.6624  -40.8262   -5.5158 C   0  0  0  0  0  0  0  0  0  0  0  0
  -19.8930  -39.9646   -6.2489 C   0  0  0  0  0  0  0  0  0  0  0  0
  -18.4331  -39.9244   -6.5497 C   0  0  0  0  0  0  0  0  0  0  0  0
  -18.0796  -39.7463   -8.0070 C   0  0  2  0  0  0  0  0  0  0  0  0
  -17.6912  -40.9383   -8.7085 N   0  0  0  0  0  0  0  0  0  0  0  0
  -18.0641  -42.2798   -8.5642 C   0  0  0  0  0  0  0  0  0  0  0  0
  -17.0981  -43.0988   -8.2293 O   0  0  0  0  0  0  0  0  0  0  0  0
  -16.9658  -38.7075   -8.1650 C   0  0  2  0  0  0  0  0  0  0  0  0
  -17.5297  -37.4764   -7.6751 O   0  0  0  0  0  0  0  0  0  0  0  0
  -16.6238  -38.3836   -9.6065 C   0  0  0  0  0  0  0  0  0  0  0  0
  -15.3405  -37.8759   -9.8912 N   0  0  0  0  0  0  0  0  0  0  0  0
  -15.1411  -37.4421  -11.2640 C   0  0  0  0  0  0  0  0  0  0  0  0
  -16.3201  -37.8323  -12.0894 C   0  0  0  0  0  0  0  0  0  0  0  0
  -17.3891  -36.8362  -12.2925 C   0  0  0  0  0  0  0  0  0  0  0  0
  -16.9586  -35.3960  -12.3587 C   0  0  0  0  0  0  0  0  0  0  0  0
  -15.4398  -35.4415  -12.6180 C   0  0  0  0  0  0  0  0  0  0  0  0
  -14.8373  -35.9627  -11.3360 C   0  0  0  0  0  0  0  0  0  0  0  0
  -13.9704  -38.1730  -11.8011 C   0  0  0  0  0  0  0  0  0  0  0  0
  -12.7155  -37.5969  -11.7934 C   0  0  0  0  0  0  0  0  0  0  0  0
  -11.5796  -38.2046  -12.3075 C   0  0  0  0  0  0  0  0  0  0  0  0
  -11.7038  -39.4617  -12.8614 C   0  0  0  0  0  0  0  0  0  0  0  0
  -12.9280  -40.0885  -12.8982 C   0  0  0  0  0  0  0  0  0  0  0  0
  -14.0498  -39.4249  -12.3619 C   0  0  0  0  0  0  0  0  0  0  0  0
  -10.2502  -37.5236  -12.2648 C   0  0  0  0  0  0  0  0  0  0  0  0
  -10.4533  -36.0549  -12.5798 C   0  0  0  0  0  0  0  0  0  0  0  0
   -9.6523  -37.6296  -10.8837 C   0  0  0  0  0  0  0  0  0  0  0  0
   -9.2873  -38.1644  -13.2460 C   0  0  0  0  0  0  0  0  0  0  0  0
  -20.4954  -38.8532   -6.8975 C   0  0  0  0  0  0  0  0  0  0  0  0
  -21.8321  -38.5743   -6.8412 C   0  0  0  0  0  0  0  0  0  0  0  0
  -22.5820  -39.4536   -6.1005 C   0  0  0  0  0  0  0  0  0  0  0  0
  2  1  1  1
  2  3  1  0
  3  4  1  0
  4  5  2  0
  4  6  1  0
  6  7  1  0
  7  8  1  0
  8  9  1  0
  9 10  1  0
 10 11  1  0
 11 12  1  0
 12 13  1  0
 13 14  2  0
 14 15  1  0
 16 15  1  1
 16 17  1  0
 17 18  1  0
 18 19  2  0
 16 20  1  0
 20 21  1  1
 20 22  1  0
 22 23  1  0
 23 24  1  0
 24 25  1  0
 25 26  1  0
 26 27  1  0
 27 28  1  0
 28 29  1  0
 24 30  1  0
 30 31  2  0
 31 32  1  0
 32 33  2  0
 33 34  1  0
 34 35  2  0
 32 36  1  0
 36 37  1  0
 36 38  1  0
 36 39  1  0
 14 40  1  0
 40 41  2  0
 41 42  1  0
 18  2  1  0
 29 24  1  0
 35 30  1  0
 42 12  2  0
M  END
$$$$
