
     RDKit          3D

 42 45  0  0  0  0  0  0  0  0999 V2000
  -20.0932  -42.4699   -8.8439 C   0  0  0  0  0  0  0  0  0  0  0  0
  -18.7524  -42.8318   -8.3403 C   0  0  2  0  0  0  0  0  0  0  0  0
  -18.7622  -43.5327   -6.9914 C   0  0  0  0  0  0  0  0  0  0  0  0
  -18.9091  -42.6611   -5.8349 C   0  0  0  0  0  0  0  0  0  0  0  0
  -18.1733  -41.6212   -5.7159 O   0  0  0  0  0  0  0  0  0  0  0  0
  -19.8290  -42.8443   -4.7614 N   0  0  0  0  0  0  0  0  0  0  0  0
  -20.7588  -43.9228   -4.6372 C   0  0  0  0  0  0  0  0  0  0  0  0
  -22.1332  -43.5432   -5.1816 C   0  0  0  0  0  0  0  0  0  0  0  0
  -22.6248  -42.2691   -4.4990 C   0  0  0  0  0  0  0  0  0  0  0  0
  -23.7122  -41.6063   -5.2750 C   0  0  0  0  0  0  0  0  0  0  0  0
  -23.3213  -40.5143   -5.9644 O   0  0  0  0  0  0  0  0  0  0  0  0
  -22.3853  -39.9694   -6.7884 C   0  0  0  0  0  0  0  0  0  0  0  0
  -21.0027  -39.8838   -6.6407 C   0  0  0  0  0  0  0  0  0  0  0  0
  -20.2882  -39.2760   -7.6366 C   0  0  0  0  0  0  0  0  0  0  0  0
  -18.8313  -39.0137   -7.8153 C   0  0  0  0  0  0  0  0  0  0  0  0
  -18.2625  -39.4185   -9.1542 C   0  0  2  0  0  0  0  0  0  0  0  0
  -17.5408  -40.6604   -9.1796 N   0  0  0  0  0  0  0  0  0  0  0  0
  -17.6780  -41.8447   -8.4459 C   0  0  0  0  0  0  0  0  0  0  0  0
  -16.6525  -42.1630   -7.6956 O   0  0  0  0  0  0  0  0  0  0  0  0
  -17.3507  -38.3180   -9.7040 C   0  0  2  0  0  0  0  0  0  0  0  0
  -17.8025  -38.0968  -11.0533 O   0  0  0  0  0  0  0  0  0  0  0  0
  -15.9074  -38.7462   -9.8867 C   0  0  0  0  0  0  0  0  0  0  0  0
  -15.5450  -39.3767  -11.0936 N   0  0  0  0  0  0  0  0  0  0  0  0
  -14.6220  -38.6248  -11.9276 C   0  0  0  0  0  0  0  0  0  0  0  0
  -13.2748  -38.6009  -11.2890 C   0  0  0  0  0  0  0  0  0  0  0  0
  -12.2874  -39.6142  -11.7068 C   0  0  0  0  0  0  0  0  0  0  0  0
  -12.3524  -40.0606  -13.1421 C   0  0  0  0  0  0  0  0  0  0  0  0
  -13.1877  -38.9828  -13.8613 C   0  0  0  0  0  0  0  0  0  0  0  0
  -14.5930  -39.1620  -13.3406 C   0  0  0  0  0  0  0  0  0  0  0  0
  -15.1041  -37.2256  -11.9833 C   0  0  0  0  0  0  0  0  0  0  0  0
  -14.4577  -36.2288  -11.2795 C   0  0  0  0  0  0  0  0  0  0  0  0
  -14.8685  -34.9041  -11.2560 C   0  0  0  0  0  0  0  0  0  0  0  0
  -15.9904  -34.5540  -11.9780 C   0  0  0  0  0  0  0  0  0  0  0  0
  -16.6776  -35.5023  -12.7001 C   0  0  0  0  0  0  0  0  0  0  0  0
  -16.2165  -36.8342  -12.6886 C   0  0  0  0  0  0  0  0  0  0  0  0
  -14.1198  -33.8749  -10.4731 C   0  0  0  0  0  0  0  0  0  0  0  0
  -12.6548  -33.9545  -10.8537 C   0  0  0  0  0  0  0  0  0  0  0  0
  -14.6194  -32.4927  -10.8141 C   0  0  0  0  0  0  0  0  0  0  0  0
  -14.3097  -34.0907   -8.9838 C   0  0  0  0  0  0  0  0  0  0  0  0
  -20.9606  -38.7547   -8.7745 C   0  0  0  0  0  0  0  0  0  0  0  0
  -22.3141  -38.8201   -8.9526 C   0  0  0  0  0  0  0  0  0  0  0  0
  -23.0078  -39.4350   -7.9402 C   0  0  0  0  0  0  0  0  0  0  0  0
  2  1  1  1
  2  3  1  0
  3  4  1  0
  4  5  2  0
  4  6  1  0
  6  7  1  0
  7  8  1  0
  8  9  1  0
  9 10  1  0
 10 11  1  0
 11 12  1  0
 12 13  1  0
 13 14  2  0
 14 15  1  0
 16 15  1  1
 16 17  1  0
 17 18  1  0
 18 19  2  0
 16 20  1  0
 20 21  1  6
 20 22  1  0
 22 23  1  0
 23 24  1  0
 24 25  1  0
 25 26  1  0
 26 27  1  0
 27 28  1  0
 28 29  1  0
 24 30  1  0
 30 31  2  0
 31 32  1  0
 32 33  2  0
 33 34  1  0
 34 35  2  0
 32 36  1  0
 36 37  1  0
 36 38  1  0
 36 39  1  0
 14 40  1  0
 40 41  2  0
 41 42  1  0
 18  2  1  0
 29 24  1  0
 35 30  1  0
 42 12  2  0
M  END
$$$$
