
     RDKit          3D

 42 45  0  0  0  0  0  0  0  0999 V2000
  -20.0197  -41.9589   -9.0631 C   0  0  0  0  0  0  0  0  0  0  0  0
  -19.0418  -42.8971   -8.4752 C   0  0  2  0  0  0  0  0  0  0  0  0
  -19.6512  -43.9217   -7.5319 C   0  0  0  0  0  0  0  0  0  0  0  0
  -19.9304  -43.4438   -6.1857 C   0  0  0  0  0  0  0  0  0  0  0  0
  -19.0329  -42.8112   -5.5289 O   0  0  0  0  0  0  0  0  0  0  0  0
  -21.1562  -43.6099   -5.4770 N   0  0  0  0  0  0  0  0  0  0  0  0
  -22.3174  -44.2825   -5.9693 C   0  0  0  0  0  0  0  0  0  0  0  0
  -23.3088  -43.3046   -6.5939 C   0  0  0  0  0  0  0  0  0  0  0  0
  -23.6533  -42.2071   -5.5899 C   0  0  0  0  0  0  0  0  0  0  0  0
  -24.2380  -41.0077   -6.2558 C   0  0  0  0  0  0  0  0  0  0  0  0
  -23.3889  -39.9661   -6.3773 O   0  0  0  0  0  0  0  0  0  0  0  0
  -22.1360  -39.5594   -6.7190 C   0  0  0  0  0  0  0  0  0  0  0  0
  -20.8954  -40.0077   -6.2711 C   0  0  0  0  0  0  0  0  0  0  0  0
  -19.7753  -39.4165   -6.7885 C   0  0  0  0  0  0  0  0  0  0  0  0
  -18.3196  -39.6356   -6.5515 C   0  0  0  0  0  0  0  0  0  0  0  0
  -17.4795  -39.7903   -7.7967 C   0  0  2  0  0  0  0  0  0  0  0  0
  -17.1229  -41.1365   -8.1496 N   0  0  0  0  0  0  0  0  0  0  0  0
  -17.7770  -42.3614   -7.9719 C   0  0  0  0  0  0  0  0  0  0  0  0
  -17.1542  -43.2257   -7.2095 O   0  0  0  0  0  0  0  0  0  0  0  0
  -16.1954  -38.9641   -7.6828 C   0  0  2  0  0  0  0  0  0  0  0  0
  -16.4864  -37.7252   -8.3570 O   0  0  0  0  0  0  0  0  0  0  0  0
  -15.0288  -39.5241   -8.4735 C   0  0  0  0  0  0  0  0  0  0  0  0
  -15.1867  -39.7025   -9.8623 N   0  0  0  0  0  0  0  0  0  0  0  0
  -13.9678  -40.0305  -10.5830 C   0  0  0  0  0  0  0  0  0  0  0  0
  -12.8036  -39.9690   -9.6533 C   0  0  0  0  0  0  0  0  0  0  0  0
  -12.3546  -41.2207   -9.0149 C   0  0  0  0  0  0  0  0  0  0  0  0
  -12.5140  -42.4795   -9.8236 C   0  0  0  0  0  0  0  0  0  0  0  0
  -12.7193  -42.0021  -11.2748 C   0  0  0  0  0  0  0  0  0  0  0  0
  -14.0863  -41.3624  -11.2888 C   0  0  0  0  0  0  0  0  0  0  0  0
  -13.7600  -38.9872  -11.6133 C   0  0  0  0  0  0  0  0  0  0  0  0
  -13.6635  -37.6561  -11.2591 C   0  0  0  0  0  0  0  0  0  0  0  0
  -13.5021  -36.6210  -12.1681 C   0  0  0  0  0  0  0  0  0  0  0  0
  -13.4327  -36.9333  -13.5098 C   0  0  0  0  0  0  0  0  0  0  0  0
  -13.5222  -38.2417  -13.9257 C   0  0  0  0  0  0  0  0  0  0  0  0
  -13.6862  -39.2544  -12.9591 C   0  0  0  0  0  0  0  0  0  0  0  0
  -13.4028  -35.2006  -11.7149 C   0  0  0  0  0  0  0  0  0  0  0  0
  -13.0072  -34.3448  -12.9018 C   0  0  0  0  0  0  0  0  0  0  0  0
  -14.7407  -34.7172  -11.2122 C   0  0  0  0  0  0  0  0  0  0  0  0
  -12.3986  -35.0665  -10.5861 C   0  0  0  0  0  0  0  0  0  0  0  0
  -19.9019  -38.3781   -7.7500 C   0  0  0  0  0  0  0  0  0  0  0  0
  -21.1012  -37.9129   -8.2115 C   0  0  0  0  0  0  0  0  0  0  0  0
  -22.2092  -38.5225   -7.6777 C   0  0  0  0  0  0  0  0  0  0  0  0
  2  1  1  1
  2  3  1  0
  3  4  1  0
  4  5  2  0
  4  6  1  0
  6  7  1  0
  7  8  1  0
  8  9  1  0
  9 10  1  0
 10 11  1  0
 11 12  1  0
 12 13  1  0
 13 14  2  0
 14 15  1  0
 16 15  1  1
 16 17  1  0
 17 18  1  0
 18 19  2  0
 16 20  1  0
 20 21  1  6
 20 22  1  0
 22 23  1  0
 23 24  1  0
 24 25  1  0
 25 26  1  0
 26 27  1  0
 27 28  1  0
 28 29  1  0
 24 30  1  0
 30 31  2  0
 31 32  1  0
 32 33  2  0
 33 34  1  0
 34 35  2  0
 32 36  1  0
 36 37  1  0
 36 38  1  0
 36 39  1  0
 14 40  1  0
 40 41  2  0
 41 42  1  0
 18  2  1  0
 29 24  1  0
 35 30  1  0
 42 12  2  0
M  END
$$$$
