
     RDKit          3D

 42 45  0  0  0  0  0  0  0  0999 V2000
  -20.3970  -41.9245   -9.4693 C   0  0  0  0  0  0  0  0  0  0  0  0
  -19.3626  -42.9326   -9.1593 C   0  0  2  0  0  0  0  0  0  0  0  0
  -19.8575  -44.0915   -8.3090 C   0  0  0  0  0  0  0  0  0  0  0  0
  -19.9555  -43.8227   -6.8818 C   0  0  0  0  0  0  0  0  0  0  0  0
  -18.9737  -43.2885   -6.2592 O   0  0  0  0  0  0  0  0  0  0  0  0
  -21.0818  -44.1024   -6.0538 N   0  0  0  0  0  0  0  0  0  0  0  0
  -22.3045  -44.7027   -6.4871 C   0  0  0  0  0  0  0  0  0  0  0  0
  -23.3565  -43.6500   -6.8255 C   0  0  0  0  0  0  0  0  0  0  0  0
  -23.5561  -42.7179   -5.6328 C   0  0  0  0  0  0  0  0  0  0  0  0
  -24.2076  -41.4369   -6.0310 C   0  0  0  0  0  0  0  0  0  0  0  0
  -23.3690  -40.3823   -6.1040 O   0  0  0  0  0  0  0  0  0  0  0  0
  -22.1658  -39.9194   -6.5398 C   0  0  0  0  0  0  0  0  0  0  0  0
  -20.8832  -40.4200   -6.3278 C   0  0  0  0  0  0  0  0  0  0  0  0
  -19.8321  -39.7494   -6.8911 C   0  0  0  0  0  0  0  0  0  0  0  0
  -18.3607  -39.9902   -6.8792 C   0  0  0  0  0  0  0  0  0  0  0  0
  -17.6897  -39.9503   -8.2314 C   0  0  2  0  0  0  0  0  0  0  0  0
  -17.3973  -41.2258   -8.8245 N   0  0  0  0  0  0  0  0  0  0  0  0
  -18.0374  -42.4685   -8.7490 C   0  0  0  0  0  0  0  0  0  0  0  0
  -17.3319  -43.4322   -8.2110 O   0  0  0  0  0  0  0  0  0  0  0  0
  -16.3920  -39.1405   -8.1620 C   0  0  2  0  0  0  0  0  0  0  0  0
  -16.8097  -37.7624   -8.1741 O   0  0  0  0  0  0  0  0  0  0  0  0
  -15.5274  -39.2523   -9.4029 C   0  0  0  0  0  0  0  0  0  0  0  0
  -14.1426  -39.0253   -9.2753 N   0  0  0  0  0  0  0  0  0  0  0  0
  -13.3408  -39.4619  -10.4064 C   0  0  0  0  0  0  0  0  0  0  0  0
  -11.9112  -39.5685   -9.9962 C   0  0  0  0  0  0  0  0  0  0  0  0
  -11.4052  -40.8866   -9.5688 C   0  0  0  0  0  0  0  0  0  0  0  0
  -12.0111  -42.0873  -10.2433 C   0  0  0  0  0  0  0  0  0  0  0  0
  -12.6973  -41.5346  -11.5082 C   0  0  0  0  0  0  0  0  0  0  0  0
  -13.8786  -40.7437  -11.0011 C   0  0  0  0  0  0  0  0  0  0  0  0
  -13.4199  -38.4103  -11.4462 C   0  0  0  0  0  0  0  0  0  0  0  0
  -13.0055  -37.1208  -11.1777 C   0  0  0  0  0  0  0  0  0  0  0  0
  -13.0792  -36.0767  -12.0877 C   0  0  0  0  0  0  0  0  0  0  0  0
  -13.5969  -36.3353  -13.3398 C   0  0  0  0  0  0  0  0  0  0  0  0
  -14.0264  -37.6005  -13.6679 C   0  0  0  0  0  0  0  0  0  0  0  0
  -13.9289  -38.6246  -12.7044 C   0  0  0  0  0  0  0  0  0  0  0  0
  -12.6103  -34.7036  -11.7307 C   0  0  0  0  0  0  0  0  0  0  0  0
  -12.6432  -33.8455  -12.9798 C   0  0  0  0  0  0  0  0  0  0  0  0
  -13.5336  -34.0842  -10.7108 C   0  0  0  0  0  0  0  0  0  0  0  0
  -11.2154  -34.7504  -11.1370 C   0  0  0  0  0  0  0  0  0  0  0  0
  -20.0692  -38.5798   -7.6623 C   0  0  0  0  0  0  0  0  0  0  0  0
  -21.3125  -38.0600   -7.8905 C   0  0  0  0  0  0  0  0  0  0  0  0
  -22.3496  -38.7512   -7.3153 C   0  0  0  0  0  0  0  0  0  0  0  0
  2  1  1  1
  2  3  1  0
  3  4  1  0
  4  5  2  0
  4  6  1  0
  6  7  1  0
  7  8  1  0
  8  9  1  0
  9 10  1  0
 10 11  1  0
 11 12  1  0
 12 13  1  0
 13 14  2  0
 14 15  1  0
 16 15  1  1
 16 17  1  0
 17 18  1  0
 18 19  2  0
 16 20  1  0
 20 21  1  6
 20 22  1  0
 22 23  1  0
 23 24  1  0
 24 25  1  0
 25 26  1  0
 26 27  1  0
 27 28  1  0
 28 29  1  0
 24 30  1  0
 30 31  2  0
 31 32  1  0
 32 33  2  0
 33 34  1  0
 34 35  2  0
 32 36  1  0
 36 37  1  0
 36 38  1  0
 36 39  1  0
 14 40  1  0
 40 41  2  0
 41 42  1  0
 18  2  1  0
 29 24  1  0
 35 30  1  0
 42 12  2  0
M  END
$$$$
