
     RDKit          3D

 42 45  0  0  0  0  0  0  0  0999 V2000
  -20.3976  -42.2353   -8.7963 C   0  0  0  0  0  0  0  0  0  0  0  0
  -19.4038  -43.1832   -8.2522 C   0  0  2  0  0  0  0  0  0  0  0  0
  -19.9532  -44.1182   -7.1869 C   0  0  0  0  0  0  0  0  0  0  0  0
  -20.0684  -43.5473   -5.8529 C   0  0  0  0  0  0  0  0  0  0  0  0
  -19.0807  -42.9209   -5.3341 O   0  0  0  0  0  0  0  0  0  0  0  0
  -21.2186  -43.6103   -5.0131 N   0  0  0  0  0  0  0  0  0  0  0  0
  -22.4526  -44.2537   -5.3389 C   0  0  0  0  0  0  0  0  0  0  0  0
  -23.4621  -43.2678   -5.9207 C   0  0  0  0  0  0  0  0  0  0  0  0
  -23.6520  -42.0965   -4.9600 C   0  0  0  0  0  0  0  0  0  0  0  0
  -24.2524  -40.9121   -5.6387 C   0  0  0  0  0  0  0  0  0  0  0  0
  -23.3774  -39.9225   -5.9140 O   0  0  0  0  0  0  0  0  0  0  0  0
  -22.1515  -39.5987   -6.4080 C   0  0  0  0  0  0  0  0  0  0  0  0
  -20.8906  -40.0794   -6.0617 C   0  0  0  0  0  0  0  0  0  0  0  0
  -19.8073  -39.5759   -6.7284 C   0  0  0  0  0  0  0  0  0  0  0  0
  -18.3453  -39.8512   -6.6283 C   0  0  0  0  0  0  0  0  0  0  0  0
  -17.6485  -40.1213   -7.9404 C   0  0  2  0  0  0  0  0  0  0  0  0
  -17.3885  -41.5022   -8.2399 N   0  0  0  0  0  0  0  0  0  0  0  0
  -18.0714  -42.6807   -7.9171 C   0  0  0  0  0  0  0  0  0  0  0  0
  -17.4089  -43.5270   -7.1681 O   0  0  0  0  0  0  0  0  0  0  0  0
  -16.3257  -39.3535   -8.0127 C   0  0  2  0  0  0  0  0  0  0  0  0
  -16.6764  -38.0500   -8.5145 O   0  0  0  0  0  0  0  0  0  0  0  0
  -15.3622  -39.8806   -9.0585 C   0  0  0  0  0  0  0  0  0  0  0  0
  -14.1475  -39.1941   -9.2547 N   0  0  0  0  0  0  0  0  0  0  0  0
  -13.4018  -39.5890  -10.4382 C   0  0  0  0  0  0  0  0  0  0  0  0
  -11.9394  -39.4685  -10.1729 C   0  0  0  0  0  0  0  0  0  0  0  0
  -11.2096  -40.6723   -9.7319 C   0  0  0  0  0  0  0  0  0  0  0  0
  -11.6963  -41.9875  -10.2768 C   0  0  0  0  0  0  0  0  0  0  0  0
  -12.5721  -41.6207  -11.4911 C   0  0  0  0  0  0  0  0  0  0  0  0
  -13.8021  -40.9698  -10.9066 C   0  0  0  0  0  0  0  0  0  0  0  0
  -13.7306  -38.6299  -11.5177 C   0  0  0  0  0  0  0  0  0  0  0  0
  -13.2911  -37.3223  -11.4568 C   0  0  0  0  0  0  0  0  0  0  0  0
  -13.5856  -36.3595  -12.4109 C   0  0  0  0  0  0  0  0  0  0  0  0
  -14.3645  -36.7238  -13.4894 C   0  0  0  0  0  0  0  0  0  0  0  0
  -14.8324  -38.0123  -13.6068 C   0  0  0  0  0  0  0  0  0  0  0  0
  -14.5032  -38.9506  -12.6078 C   0  0  0  0  0  0  0  0  0  0  0  0
  -13.0749  -34.9611  -12.2833 C   0  0  0  0  0  0  0  0  0  0  0  0
  -12.9721  -34.3594  -13.6707 C   0  0  0  0  0  0  0  0  0  0  0  0
  -14.0380  -34.1239  -11.4783 C   0  0  0  0  0  0  0  0  0  0  0  0
  -11.7317  -34.9426  -11.5791 C   0  0  0  0  0  0  0  0  0  0  0  0
  -19.9904  -38.5922   -7.7372 C   0  0  0  0  0  0  0  0  0  0  0  0
  -21.2110  -38.0974   -8.1025 C   0  0  0  0  0  0  0  0  0  0  0  0
  -22.2813  -38.6189   -7.4194 C   0  0  0  0  0  0  0  0  0  0  0  0
  2  1  1  1
  2  3  1  0
  3  4  1  0
  4  5  2  0
  4  6  1  0
  6  7  1  0
  7  8  1  0
  8  9  1  0
  9 10  1  0
 10 11  1  0
 11 12  1  0
 12 13  1  0
 13 14  2  0
 14 15  1  0
 16 15  1  1
 16 17  1  0
 17 18  1  0
 18 19  2  0
 16 20  1  0
 20 21  1  6
 20 22  1  0
 22 23  1  0
 23 24  1  0
 24 25  1  0
 25 26  1  0
 26 27  1  0
 27 28  1  0
 28 29  1  0
 24 30  1  0
 30 31  2  0
 31 32  1  0
 32 33  2  0
 33 34  1  0
 34 35  2  0
 32 36  1  0
 36 37  1  0
 36 38  1  0
 36 39  1  0
 14 40  1  0
 40 41  2  0
 41 42  1  0
 18  2  1  0
 29 24  1  0
 35 30  1  0
 42 12  2  0
M  END
$$$$
