
     RDKit          3D

 42 45  0  0  0  0  0  0  0  0999 V2000
  -20.2377  -41.9135   -9.1923 C   0  0  0  0  0  0  0  0  0  0  0  0
  -19.2203  -42.9046   -8.7862 C   0  0  2  0  0  0  0  0  0  0  0  0
  -19.7634  -44.0419   -7.9362 C   0  0  0  0  0  0  0  0  0  0  0  0
  -19.9558  -43.7326   -6.5269 C   0  0  0  0  0  0  0  0  0  0  0  0
  -19.0196  -43.1735   -5.8577 O   0  0  0  0  0  0  0  0  0  0  0  0
  -21.1322  -43.9964   -5.7661 N   0  0  0  0  0  0  0  0  0  0  0  0
  -22.3207  -44.6180   -6.2602 C   0  0  0  0  0  0  0  0  0  0  0  0
  -23.3541  -43.5833   -6.6971 C   0  0  0  0  0  0  0  0  0  0  0  0
  -23.6361  -42.6185   -5.5479 C   0  0  0  0  0  0  0  0  0  0  0  0
  -24.2671  -41.3543   -6.0251 C   0  0  0  0  0  0  0  0  0  0  0  0
  -23.4313  -40.2963   -6.0743 O   0  0  0  0  0  0  0  0  0  0  0  0
  -22.2048  -39.8373   -6.4443 C   0  0  0  0  0  0  0  0  0  0  0  0
  -20.9360  -40.3222   -6.1347 C   0  0  0  0  0  0  0  0  0  0  0  0
  -19.8541  -39.6606   -6.6479 C   0  0  0  0  0  0  0  0  0  0  0  0
  -18.3853  -39.8901   -6.5332 C   0  0  0  0  0  0  0  0  0  0  0  0
  -17.6277  -39.8845   -7.8395 C   0  0  2  0  0  0  0  0  0  0  0  0
  -17.2904  -41.1744   -8.3745 N   0  0  0  0  0  0  0  0  0  0  0  0
  -17.9272  -42.4191   -8.3043 C   0  0  0  0  0  0  0  0  0  0  0  0
  -17.2531  -43.3617   -7.6934 O   0  0  0  0  0  0  0  0  0  0  0  0
  -16.3417  -39.0635   -7.7096 C   0  0  2  0  0  0  0  0  0  0  0  0
  -16.7820  -37.7149   -7.4620 O   0  0  0  0  0  0  0  0  0  0  0  0
  -15.5548  -38.9406   -9.0000 C   0  0  0  0  0  0  0  0  0  0  0  0
  -14.1818  -39.2568   -8.9784 N   0  0  0  0  0  0  0  0  0  0  0  0
  -13.4905  -39.0837  -10.2452 C   0  0  0  0  0  0  0  0  0  0  0  0
  -13.7816  -37.7281  -10.7941 C   0  0  0  0  0  0  0  0  0  0  0  0
  -12.8224  -36.6426  -10.5153 C   0  0  0  0  0  0  0  0  0  0  0  0
  -11.3745  -37.0385  -10.4120 C   0  0  0  0  0  0  0  0  0  0  0  0
  -11.2915  -38.4338  -11.0619 C   0  0  0  0  0  0  0  0  0  0  0  0
  -12.0097  -39.3559  -10.1069 C   0  0  0  0  0  0  0  0  0  0  0  0
  -14.0467  -40.0702  -11.1995 C   0  0  0  0  0  0  0  0  0  0  0  0
  -14.2294  -41.3869  -10.8256 C   0  0  0  0  0  0  0  0  0  0  0  0
  -14.7132  -42.3738  -11.6718 C   0  0  0  0  0  0  0  0  0  0  0  0
  -15.0337  -42.0254  -12.9674 C   0  0  0  0  0  0  0  0  0  0  0  0
  -14.8741  -40.7291  -13.3997 C   0  0  0  0  0  0  0  0  0  0  0  0
  -14.3781  -39.7661  -12.4978 C   0  0  0  0  0  0  0  0  0  0  0  0
  -14.8882  -43.7808  -11.2003 C   0  0  0  0  0  0  0  0  0  0  0  0
  -15.0180  -44.6805  -12.4132 C   0  0  0  0  0  0  0  0  0  0  0  0
  -13.6787  -44.2233  -10.4143 C   0  0  0  0  0  0  0  0  0  0  0  0
  -16.1038  -43.8980  -10.3007 C   0  0  0  0  0  0  0  0  0  0  0  0
  -20.0467  -38.5156   -7.4668 C   0  0  0  0  0  0  0  0  0  0  0  0
  -21.2752  -38.0117   -7.7906 C   0  0  0  0  0  0  0  0  0  0  0  0
  -22.3439  -38.6935   -7.2641 C   0  0  0  0  0  0  0  0  0  0  0  0
  2  1  1  1
  2  3  1  0
  3  4  1  0
  4  5  2  0
  4  6  1  0
  6  7  1  0
  7  8  1  0
  8  9  1  0
  9 10  1  0
 10 11  1  0
 11 12  1  0
 12 13  1  0
 13 14  2  0
 14 15  1  0
 16 15  1  1
 16 17  1  0
 17 18  1  0
 18 19  2  0
 16 20  1  0
 20 21  1  6
 20 22  1  0
 22 23  1  0
 23 24  1  0
 24 25  1  0
 25 26  1  0
 26 27  1  0
 27 28  1  0
 28 29  1  0
 24 30  1  0
 30 31  2  0
 31 32  1  0
 32 33  2  0
 33 34  1  0
 34 35  2  0
 32 36  1  0
 36 37  1  0
 36 38  1  0
 36 39  1  0
 14 40  1  0
 40 41  2  0
 41 42  1  0
 18  2  1  0
 29 24  1  0
 35 30  1  0
 42 12  2  0
M  END
$$$$
