
     RDKit          3D

 42 45  0  0  0  0  0  0  0  0999 V2000
  -20.4612  -41.8976   -9.7100 C   0  0  0  0  0  0  0  0  0  0  0  0
  -19.2948  -42.7565   -9.4203 C   0  0  2  0  0  0  0  0  0  0  0  0
  -19.6321  -44.0294   -8.6607 C   0  0  0  0  0  0  0  0  0  0  0  0
  -19.8124  -43.8715   -7.2250 C   0  0  0  0  0  0  0  0  0  0  0  0
  -18.9425  -43.2373   -6.5336 O   0  0  0  0  0  0  0  0  0  0  0  0
  -20.9069  -44.3706   -6.4600 N   0  0  0  0  0  0  0  0  0  0  0  0
  -22.0102  -45.1187   -6.9759 C   0  0  0  0  0  0  0  0  0  0  0  0
  -23.2001  -44.2166   -7.2920 C   0  0  0  0  0  0  0  0  0  0  0  0
  -23.5749  -43.4044   -6.0546 C   0  0  0  0  0  0  0  0  0  0  0  0
  -24.4021  -42.2129   -6.4010 C   0  0  0  0  0  0  0  0  0  0  0  0
  -23.7325  -41.0417   -6.3780 O   0  0  0  0  0  0  0  0  0  0  0  0
  -22.6017  -40.3757   -6.7379 C   0  0  0  0  0  0  0  0  0  0  0  0
  -21.2646  -40.6904   -6.5059 C   0  0  0  0  0  0  0  0  0  0  0  0
  -20.3119  -39.8342   -6.9866 C   0  0  0  0  0  0  0  0  0  0  0  0
  -18.8219  -39.8511   -6.9314 C   0  0  0  0  0  0  0  0  0  0  0  0
  -18.1250  -39.6231   -8.2514 C   0  0  2  0  0  0  0  0  0  0  0  0
  -17.6239  -40.7988   -8.9075 N   0  0  0  0  0  0  0  0  0  0  0  0
  -18.0687  -42.1259   -8.9314 C   0  0  0  0  0  0  0  0  0  0  0  0
  -17.2407  -43.0054   -8.4245 O   0  0  0  0  0  0  0  0  0  0  0  0
  -16.9687  -38.6335   -8.0830 C   0  0  2  0  0  0  0  0  0  0  0  0
  -17.5942  -37.3398   -7.9870 O   0  0  0  0  0  0  0  0  0  0  0  0
  -16.0852  -38.5020   -9.3084 C   0  0  0  0  0  0  0  0  0  0  0  0
  -15.1861  -37.4188   -9.3712 N   0  0  0  0  0  0  0  0  0  0  0  0
  -14.5575  -37.2153  -10.6659 C   0  0  0  0  0  0  0  0  0  0  0  0
  -15.5878  -36.8125  -11.6658 C   0  0  0  0  0  0  0  0  0  0  0  0
  -15.7866  -35.3731  -11.9205 C   0  0  0  0  0  0  0  0  0  0  0  0
  -14.5671  -34.4989  -11.8099 C   0  0  0  0  0  0  0  0  0  0  0  0
  -13.3700  -35.4679  -11.8747 C   0  0  0  0  0  0  0  0  0  0  0  0
  -13.4121  -36.2326  -10.5741 C   0  0  0  0  0  0  0  0  0  0  0  0
  -14.0054  -38.5166  -11.1073 C   0  0  0  0  0  0  0  0  0  0  0  0
  -12.6621  -38.7995  -10.9579 C   0  0  0  0  0  0  0  0  0  0  0  0
  -12.0667  -39.9805  -11.3760 C   0  0  0  0  0  0  0  0  0  0  0  0
  -12.8592  -40.9353  -11.9784 C   0  0  0  0  0  0  0  0  0  0  0  0
  -14.2052  -40.7124  -12.1553 C   0  0  0  0  0  0  0  0  0  0  0  0
  -14.7584  -39.4942  -11.7119 C   0  0  0  0  0  0  0  0  0  0  0  0
  -10.6051  -40.2222  -11.1812 C   0  0  0  0  0  0  0  0  0  0  0  0
   -9.8372  -39.1787  -11.9681 C   0  0  0  0  0  0  0  0  0  0  0  0
  -10.2400  -40.0749   -9.7247 C   0  0  0  0  0  0  0  0  0  0  0  0
  -10.2296  -41.6241  -11.6220 C   0  0  0  0  0  0  0  0  0  0  0  0
  -20.7016  -38.6660   -7.6954 C   0  0  0  0  0  0  0  0  0  0  0  0
  -22.0023  -38.3255   -7.9408 C   0  0  0  0  0  0  0  0  0  0  0  0
  -22.9384  -39.2007   -7.4490 C   0  0  0  0  0  0  0  0  0  0  0  0
  2  1  1  1
  2  3  1  0
  3  4  1  0
  4  5  2  0
  4  6  1  0
  6  7  1  0
  7  8  1  0
  8  9  1  0
  9 10  1  0
 10 11  1  0
 11 12  1  0
 12 13  1  0
 13 14  2  0
 14 15  1  0
 16 15  1  1
 16 17  1  0
 17 18  1  0
 18 19  2  0
 16 20  1  0
 20 21  1  6
 20 22  1  0
 22 23  1  0
 23 24  1  0
 24 25  1  0
 25 26  1  0
 26 27  1  0
 27 28  1  0
 28 29  1  0
 24 30  1  0
 30 31  2  0
 31 32  1  0
 32 33  2  0
 33 34  1  0
 34 35  2  0
 32 36  1  0
 36 37  1  0
 36 38  1  0
 36 39  1  0
 14 40  1  0
 40 41  2  0
 41 42  1  0
 18  2  1  0
 29 24  1  0
 35 30  1  0
 42 12  2  0
M  END
$$$$
