
     RDKit          3D

 42 45  0  0  0  0  0  0  0  0999 V2000
  -19.9626  -41.9359   -9.1890 C   0  0  0  0  0  0  0  0  0  0  0  0
  -18.6865  -42.6714   -9.0753 C   0  0  2  0  0  0  0  0  0  0  0  0
  -18.7513  -43.8954   -8.1761 C   0  0  0  0  0  0  0  0  0  0  0  0
  -18.6690  -43.6270   -6.7478 C   0  0  0  0  0  0  0  0  0  0  0  0
  -17.7472  -42.8680   -6.2883 O   0  0  0  0  0  0  0  0  0  0  0  0
  -19.5457  -44.1419   -5.7485 N   0  0  0  0  0  0  0  0  0  0  0  0
  -20.6514  -45.0171   -5.9824 C   0  0  0  0  0  0  0  0  0  0  0  0
  -21.9594  -44.2427   -6.1203 C   0  0  0  0  0  0  0  0  0  0  0  0
  -22.1668  -43.3574   -4.8938 C   0  0  0  0  0  0  0  0  0  0  0  0
  -23.1535  -42.2698   -5.1533 C   0  0  0  0  0  0  0  0  0  0  0  0
  -22.6054  -41.0519   -5.3458 O   0  0  0  0  0  0  0  0  0  0  0  0
  -21.6319  -40.3329   -5.9679 C   0  0  0  0  0  0  0  0  0  0  0  0
  -20.2514  -40.5196   -5.9828 C   0  0  0  0  0  0  0  0  0  0  0  0
  -19.4929  -39.6363   -6.7013 C   0  0  0  0  0  0  0  0  0  0  0  0
  -18.0249  -39.5308   -6.9402 C   0  0  0  0  0  0  0  0  0  0  0  0
  -17.6167  -39.3651   -8.3845 C   0  0  2  0  0  0  0  0  0  0  0  0
  -17.1410  -40.5506   -9.0419 N   0  0  0  0  0  0  0  0  0  0  0  0
  -17.4549  -41.9056   -8.8838 C   0  0  0  0  0  0  0  0  0  0  0  0
  -16.4662  -42.6693   -8.4895 O   0  0  0  0  0  0  0  0  0  0  0  0
  -16.5483  -38.2764   -8.5180 C   0  0  2  0  0  0  0  0  0  0  0  0
  -17.1507  -37.0909   -7.9653 O   0  0  0  0  0  0  0  0  0  0  0  0
  -16.2482  -37.8781   -9.9501 C   0  0  0  0  0  0  0  0  0  0  0  0
  -14.9974  -38.2318  -10.4942 N   0  0  0  0  0  0  0  0  0  0  0  0
  -14.4938  -37.3295  -11.5165 C   0  0  0  0  0  0  0  0  0  0  0  0
  -14.9735  -37.7729  -12.8569 C   0  0  0  0  0  0  0  0  0  0  0  0
  -16.1972  -37.1530  -13.3994 C   0  0  0  0  0  0  0  0  0  0  0  0
  -16.4382  -35.7140  -13.0321 C   0  0  0  0  0  0  0  0  0  0  0  0
  -15.0774  -35.1940  -12.5282 C   0  0  0  0  0  0  0  0  0  0  0  0
  -14.8530  -35.8933  -11.2095 C   0  0  0  0  0  0  0  0  0  0  0  0
  -13.0168  -37.4371  -11.5233 C   0  0  0  0  0  0  0  0  0  0  0  0
  -12.3950  -38.5729  -12.0029 C   0  0  0  0  0  0  0  0  0  0  0  0
  -11.0207  -38.7603  -12.0113 C   0  0  0  0  0  0  0  0  0  0  0  0
  -10.2200  -37.7543  -11.5118 C   0  0  0  0  0  0  0  0  0  0  0  0
  -10.7803  -36.5979  -11.0200 C   0  0  0  0  0  0  0  0  0  0  0  0
  -12.1829  -36.4602  -11.0351 C   0  0  0  0  0  0  0  0  0  0  0  0
  -10.4135  -40.0158  -12.5478 C   0  0  0  0  0  0  0  0  0  0  0  0
  -10.4495  -39.9572  -14.0620 C   0  0  0  0  0  0  0  0  0  0  0  0
   -8.9720  -40.1257  -12.1160 C   0  0  0  0  0  0  0  0  0  0  0  0
  -11.1547  -41.2338  -12.0306 C   0  0  0  0  0  0  0  0  0  0  0  0
  -20.1190  -38.5692   -7.3999 C   0  0  0  0  0  0  0  0  0  0  0  0
  -21.4688  -38.3552   -7.4072 C   0  0  0  0  0  0  0  0  0  0  0  0
  -22.2073  -39.2550   -6.6797 C   0  0  0  0  0  0  0  0  0  0  0  0
  2  1  1  1
  2  3  1  0
  3  4  1  0
  4  5  2  0
  4  6  1  0
  6  7  1  0
  7  8  1  0
  8  9  1  0
  9 10  1  0
 10 11  1  0
 11 12  1  0
 12 13  1  0
 13 14  2  0
 14 15  1  0
 16 15  1  1
 16 17  1  0
 17 18  1  0
 18 19  2  0
 16 20  1  0
 20 21  1  1
 20 22  1  0
 22 23  1  0
 23 24  1  0
 24 25  1  0
 25 26  1  0
 26 27  1  0
 27 28  1  0
 28 29  1  0
 24 30  1  0
 30 31  2  0
 31 32  1  0
 32 33  2  0
 33 34  1  0
 34 35  2  0
 32 36  1  0
 36 37  1  0
 36 38  1  0
 36 39  1  0
 14 40  1  0
 40 41  2  0
 41 42  1  0
 18  2  1  0
 29 24  1  0
 35 30  1  0
 42 12  2  0
M  END
$$$$
