
     RDKit          3D

 42 45  0  0  0  0  0  0  0  0999 V2000
  -19.9537  -42.1056   -9.1829 C   0  0  0  0  0  0  0  0  0  0  0  0
  -18.9971  -43.1231   -8.7013 C   0  0  2  0  0  0  0  0  0  0  0  0
  -19.6154  -44.1850   -7.8063 C   0  0  0  0  0  0  0  0  0  0  0  0
  -19.8217  -43.7916   -6.4201 C   0  0  0  0  0  0  0  0  0  0  0  0
  -18.8725  -43.2450   -5.7589 O   0  0  0  0  0  0  0  0  0  0  0  0
  -21.0259  -43.9554   -5.6749 N   0  0  0  0  0  0  0  0  0  0  0  0
  -22.2338  -44.5425   -6.1641 C   0  0  0  0  0  0  0  0  0  0  0  0
  -23.2035  -43.4822   -6.6791 C   0  0  0  0  0  0  0  0  0  0  0  0
  -23.4602  -42.4446   -5.5889 C   0  0  0  0  0  0  0  0  0  0  0  0
  -24.0156  -41.1778   -6.1464 C   0  0  0  0  0  0  0  0  0  0  0  0
  -23.1259  -40.1669   -6.2309 O   0  0  0  0  0  0  0  0  0  0  0  0
  -21.8700  -39.7901   -6.5949 C   0  0  0  0  0  0  0  0  0  0  0  0
  -20.6345  -40.3205   -6.2301 C   0  0  0  0  0  0  0  0  0  0  0  0
  -19.5096  -39.7420   -6.7512 C   0  0  0  0  0  0  0  0  0  0  0  0
  -18.0572  -40.0381   -6.5896 C   0  0  0  0  0  0  0  0  0  0  0  0
  -17.2727  -40.1400   -7.8759 C   0  0  2  0  0  0  0  0  0  0  0  0
  -16.9904  -41.4719   -8.3346 N   0  0  0  0  0  0  0  0  0  0  0  0
  -17.6914  -42.6777   -8.2147 C   0  0  0  0  0  0  0  0  0  0  0  0
  -17.0794  -43.6188   -7.5395 O   0  0  0  0  0  0  0  0  0  0  0  0
  -15.9495  -39.3785   -7.7584 C   0  0  2  0  0  0  0  0  0  0  0  0
  -16.3223  -37.9894   -7.6853 O   0  0  0  0  0  0  0  0  0  0  0  0
  -15.0880  -39.4418   -9.0048 C   0  0  0  0  0  0  0  0  0  0  0  0
  -14.3239  -40.6039   -9.2309 N   0  0  0  0  0  0  0  0  0  0  0  0
  -13.4877  -40.5688  -10.4193 C   0  0  0  0  0  0  0  0  0  0  0  0
  -12.1876  -41.2426  -10.1377 C   0  0  0  0  0  0  0  0  0  0  0  0
  -12.0473  -42.6657  -10.4998 C   0  0  0  0  0  0  0  0  0  0  0  0
  -12.8014  -43.1240  -11.7184 C   0  0  0  0  0  0  0  0  0  0  0  0
  -13.1668  -41.8318  -12.4752 C   0  0  0  0  0  0  0  0  0  0  0  0
  -14.2050  -41.1526  -11.6155 C   0  0  0  0  0  0  0  0  0  0  0  0
  -13.1888  -39.1492  -10.7171 C   0  0  0  0  0  0  0  0  0  0  0  0
  -14.0690  -38.3835  -11.4558 C   0  0  0  0  0  0  0  0  0  0  0  0
  -13.8435  -37.0595  -11.8024 C   0  0  0  0  0  0  0  0  0  0  0  0
  -12.6704  -36.4649  -11.3867 C   0  0  0  0  0  0  0  0  0  0  0  0
  -11.7535  -37.1758  -10.6472 C   0  0  0  0  0  0  0  0  0  0  0  0
  -12.0331  -38.5187  -10.3234 C   0  0  0  0  0  0  0  0  0  0  0  0
  -14.8413  -36.2880  -12.6037 C   0  0  0  0  0  0  0  0  0  0  0  0
  -14.8773  -34.8649  -12.0832 C   0  0  0  0  0  0  0  0  0  0  0  0
  -14.4283  -36.2474  -14.0543 C   0  0  0  0  0  0  0  0  0  0  0  0
  -16.2109  -36.9345  -12.5213 C   0  0  0  0  0  0  0  0  0  0  0  0
  -19.6260  -38.6342   -7.6333 C   0  0  0  0  0  0  0  0  0  0  0  0
  -20.8200  -38.0876   -8.0122 C   0  0  0  0  0  0  0  0  0  0  0  0
  -21.9330  -38.6862   -7.4765 C   0  0  0  0  0  0  0  0  0  0  0  0
  2  1  1  1
  2  3  1  0
  3  4  1  0
  4  5  2  0
  4  6  1  0
  6  7  1  0
  7  8  1  0
  8  9  1  0
  9 10  1  0
 10 11  1  0
 11 12  1  0
 12 13  1  0
 13 14  2  0
 14 15  1  0
 16 15  1  1
 16 17  1  0
 17 18  1  0
 18 19  2  0
 16 20  1  0
 20 21  1  6
 20 22  1  0
 22 23  1  0
 23 24  1  0
 24 25  1  0
 25 26  1  0
 26 27  1  0
 27 28  1  0
 28 29  1  0
 24 30  1  0
 30 31  2  0
 31 32  1  0
 32 33  2  0
 33 34  1  0
 34 35  2  0
 32 36  1  0
 36 37  1  0
 36 38  1  0
 36 39  1  0
 14 40  1  0
 40 41  2  0
 41 42  1  0
 18  2  1  0
 29 24  1  0
 35 30  1  0
 42 12  2  0
M  END
$$$$
