
     RDKit          3D

 42 45  0  0  0  0  0  0  0  0999 V2000
  -20.4491  -41.9467   -9.1523 C   0  0  0  0  0  0  0  0  0  0  0  0
  -19.2291  -42.7725   -9.0421 C   0  0  2  0  0  0  0  0  0  0  0  0
  -19.4272  -44.0789   -8.2905 C   0  0  0  0  0  0  0  0  0  0  0  0
  -19.4279  -43.9712   -6.8389 C   0  0  0  0  0  0  0  0  0  0  0  0
  -18.4972  -43.3279   -6.2414 O   0  0  0  0  0  0  0  0  0  0  0  0
  -20.4000  -44.5315   -5.9594 N   0  0  0  0  0  0  0  0  0  0  0  0
  -21.5363  -45.3019   -6.3574 C   0  0  0  0  0  0  0  0  0  0  0  0
  -22.7842  -44.4330   -6.4892 C   0  0  0  0  0  0  0  0  0  0  0  0
  -23.0234  -43.6725   -5.1871 C   0  0  0  0  0  0  0  0  0  0  0  0
  -23.9246  -42.5009   -5.3848 C   0  0  0  0  0  0  0  0  0  0  0  0
  -23.2942  -41.3081   -5.4061 O   0  0  0  0  0  0  0  0  0  0  0  0
  -22.2397  -40.5921   -5.8827 C   0  0  0  0  0  0  0  0  0  0  0  0
  -20.8747  -40.8664   -5.8325 C   0  0  0  0  0  0  0  0  0  0  0  0
  -20.0181  -39.9630   -6.3998 C   0  0  0  0  0  0  0  0  0  0  0  0
  -18.5335  -39.9291   -6.5339 C   0  0  0  0  0  0  0  0  0  0  0  0
  -18.0178  -39.6367   -7.9227 C   0  0  2  0  0  0  0  0  0  0  0  0
  -17.5681  -40.7737   -8.6771 N   0  0  0  0  0  0  0  0  0  0  0  0
  -17.9709  -42.1142   -8.6905 C   0  0  0  0  0  0  0  0  0  0  0  0
  -17.0582  -42.9791   -8.3230 O   0  0  0  0  0  0  0  0  0  0  0  0
  -16.8808  -38.6126   -7.8676 C   0  0  2  0  0  0  0  0  0  0  0  0
  -17.4019  -37.5161   -7.0930 O   0  0  0  0  0  0  0  0  0  0  0  0
  -16.5613  -37.9724   -9.2046 C   0  0  0  0  0  0  0  0  0  0  0  0
  -15.4853  -38.4895   -9.9533 N   0  0  0  0  0  0  0  0  0  0  0  0
  -15.1886  -37.7707  -11.1813 C   0  0  0  0  0  0  0  0  0  0  0  0
  -15.9468  -38.3772  -12.3130 C   0  0  0  0  0  0  0  0  0  0  0  0
  -17.2441  -37.7798  -12.6823 C   0  0  0  0  0  0  0  0  0  0  0  0
  -17.3738  -36.2925  -12.4957 C   0  0  0  0  0  0  0  0  0  0  0  0
  -15.9274  -35.7758  -12.3642 C   0  0  0  0  0  0  0  0  0  0  0  0
  -15.4464  -36.2887  -11.0286 C   0  0  0  0  0  0  0  0  0  0  0  0
  -13.7481  -37.9536  -11.4725 C   0  0  0  0  0  0  0  0  0  0  0  0
  -12.9149  -36.8625  -11.6212 C   0  0  0  0  0  0  0  0  0  0  0  0
  -11.5649  -36.9531  -11.9265 C   0  0  0  0  0  0  0  0  0  0  0  0
  -11.0142  -38.2067  -12.0926 C   0  0  0  0  0  0  0  0  0  0  0  0
  -11.7929  -39.3329  -11.9568 C   0  0  0  0  0  0  0  0  0  0  0  0
  -13.1596  -39.1831  -11.6463 C   0  0  0  0  0  0  0  0  0  0  0  0
  -10.7199  -35.7293  -12.0715 C   0  0  0  0  0  0  0  0  0  0  0  0
   -9.8163  -35.9101  -13.2749 C   0  0  0  0  0  0  0  0  0  0  0  0
  -11.5885  -34.5196  -12.3136 C   0  0  0  0  0  0  0  0  0  0  0  0
   -9.9102  -35.4840  -10.8126 C   0  0  0  0  0  0  0  0  0  0  0  0
  -20.5311  -38.7883   -7.0129 C   0  0  0  0  0  0  0  0  0  0  0  0
  -21.8623  -38.4865   -7.0801 C   0  0  0  0  0  0  0  0  0  0  0  0
  -22.7006  -39.4086   -6.5045 C   0  0  0  0  0  0  0  0  0  0  0  0
  2  1  1  1
  2  3  1  0
  3  4  1  0
  4  5  2  0
  4  6  1  0
  6  7  1  0
  7  8  1  0
  8  9  1  0
  9 10  1  0
 10 11  1  0
 11 12  1  0
 12 13  1  0
 13 14  2  0
 14 15  1  0
 16 15  1  1
 16 17  1  0
 17 18  1  0
 18 19  2  0
 16 20  1  0
 20 21  1  1
 20 22  1  0
 22 23  1  0
 23 24  1  0
 24 25  1  0
 25 26  1  0
 26 27  1  0
 27 28  1  0
 28 29  1  0
 24 30  1  0
 30 31  2  0
 31 32  1  0
 32 33  2  0
 33 34  1  0
 34 35  2  0
 32 36  1  0
 36 37  1  0
 36 38  1  0
 36 39  1  0
 14 40  1  0
 40 41  2  0
 41 42  1  0
 18  2  1  0
 29 24  1  0
 35 30  1  0
 42 12  2  0
M  END
$$$$
