
     RDKit          3D

 42 45  0  0  0  0  0  0  0  0999 V2000
  -20.0634  -42.2037   -8.5786 C   0  0  0  0  0  0  0  0  0  0  0  0
  -19.0136  -43.1068   -8.0641 C   0  0  2  0  0  0  0  0  0  0  0  0
  -19.4839  -44.0462   -6.9654 C   0  0  0  0  0  0  0  0  0  0  0  0
  -19.5657  -43.4611   -5.6351 C   0  0  0  0  0  0  0  0  0  0  0  0
  -18.5816  -42.7918   -5.1654 O   0  0  0  0  0  0  0  0  0  0  0  0
  -20.6775  -43.5544   -4.7477 N   0  0  0  0  0  0  0  0  0  0  0  0
  -21.8991  -44.2471   -5.0141 C   0  0  0  0  0  0  0  0  0  0  0  0
  -22.9674  -43.3071   -5.5660 C   0  0  0  0  0  0  0  0  0  0  0  0
  -23.1613  -42.1301   -4.6130 C   0  0  0  0  0  0  0  0  0  0  0  0
  -23.8325  -40.9781   -5.2813 C   0  0  0  0  0  0  0  0  0  0  0  0
  -23.0069  -39.9611   -5.6048 O   0  0  0  0  0  0  0  0  0  0  0  0
  -21.8150  -39.5997   -6.1532 C   0  0  0  0  0  0  0  0  0  0  0  0
  -20.5241  -40.0290   -5.8532 C   0  0  0  0  0  0  0  0  0  0  0  0
  -19.4883  -39.4956   -6.5705 C   0  0  0  0  0  0  0  0  0  0  0  0
  -18.0143  -39.7157   -6.5273 C   0  0  0  0  0  0  0  0  0  0  0  0
  -17.3621  -39.9786   -7.8637 C   0  0  2  0  0  0  0  0  0  0  0  0
  -17.0634  -41.3531   -8.1563 N   0  0  0  0  0  0  0  0  0  0  0  0
  -17.6883  -42.5512   -7.7907 C   0  0  0  0  0  0  0  0  0  0  0  0
  -16.9648  -43.3620   -7.0591 O   0  0  0  0  0  0  0  0  0  0  0  0
  -16.0728  -39.1640   -8.0002 C   0  0  2  0  0  0  0  0  0  0  0  0
  -16.3457  -38.2021   -9.0367 O   0  0  0  0  0  0  0  0  0  0  0  0
  -14.9014  -39.9506   -8.5560 C   0  0  0  0  0  0  0  0  0  0  0  0
  -14.0207  -39.3007   -9.4435 N   0  0  0  0  0  0  0  0  0  0  0  0
  -14.1184  -39.7272  -10.8296 C   0  0  0  0  0  0  0  0  0  0  0  0
  -12.9888  -40.6454  -11.1525 C   0  0  0  0  0  0  0  0  0  0  0  0
  -13.2201  -42.0985  -11.0483 C   0  0  0  0  0  0  0  0  0  0  0  0
  -14.6059  -42.5814  -11.3802 C   0  0  0  0  0  0  0  0  0  0  0  0
  -15.2625  -41.4201  -12.1523 C   0  0  0  0  0  0  0  0  0  0  0  0
  -15.4714  -40.3336  -11.1257 C   0  0  0  0  0  0  0  0  0  0  0  0
  -13.9625  -38.5260  -11.6817 C   0  0  0  0  0  0  0  0  0  0  0  0
  -14.2876  -37.2732  -11.2003 C   0  0  0  0  0  0  0  0  0  0  0  0
  -14.1999  -36.1080  -11.9476 C   0  0  0  0  0  0  0  0  0  0  0  0
  -13.7615  -36.1988  -13.2522 C   0  0  0  0  0  0  0  0  0  0  0  0
  -13.4221  -37.4191  -13.7894 C   0  0  0  0  0  0  0  0  0  0  0  0
  -13.5305  -38.5716  -12.9853 C   0  0  0  0  0  0  0  0  0  0  0  0
  -14.5668  -34.7831  -11.3622 C   0  0  0  0  0  0  0  0  0  0  0  0
  -14.5395  -33.7462  -12.4675 C   0  0  0  0  0  0  0  0  0  0  0  0
  -15.9648  -34.8301  -10.7966 C   0  0  0  0  0  0  0  0  0  0  0  0
  -13.6166  -34.4105  -10.2403 C   0  0  0  0  0  0  0  0  0  0  0  0
  -19.7490  -38.5336   -7.5831 C   0  0  0  0  0  0  0  0  0  0  0  0
  -21.0009  -38.0890   -7.9038 C   0  0  0  0  0  0  0  0  0  0  0  0
  -22.0224  -38.6397   -7.1706 C   0  0  0  0  0  0  0  0  0  0  0  0
  2  1  1  1
  2  3  1  0
  3  4  1  0
  4  5  2  0
  4  6  1  0
  6  7  1  0
  7  8  1  0
  8  9  1  0
  9 10  1  0
 10 11  1  0
 11 12  1  0
 12 13  1  0
 13 14  2  0
 14 15  1  0
 16 15  1  1
 16 17  1  0
 17 18  1  0
 18 19  2  0
 16 20  1  0
 20 21  1  6
 20 22  1  0
 22 23  1  0
 23 24  1  0
 24 25  1  0
 25 26  1  0
 26 27  1  0
 27 28  1  0
 28 29  1  0
 24 30  1  0
 30 31  2  0
 31 32  1  0
 32 33  2  0
 33 34  1  0
 34 35  2  0
 32 36  1  0
 36 37  1  0
 36 38  1  0
 36 39  1  0
 14 40  1  0
 40 41  2  0
 41 42  1  0
 18  2  1  0
 29 24  1  0
 35 30  1  0
 42 12  2  0
M  END
$$$$
