
     RDKit          3D

 42 45  0  0  0  0  0  0  0  0999 V2000
  -19.9834  -42.6420   -8.6606 C   0  0  0  0  0  0  0  0  0  0  0  0
  -18.9275  -43.4266   -7.9885 C   0  0  2  0  0  0  0  0  0  0  0  0
  -19.4495  -44.4401   -6.9828 C   0  0  0  0  0  0  0  0  0  0  0  0
  -19.8105  -43.8995   -5.6804 C   0  0  0  0  0  0  0  0  0  0  0  0
  -19.0007  -43.1298   -5.0568 O   0  0  0  0  0  0  0  0  0  0  0  0
  -21.0293  -44.1437   -4.9825 N   0  0  0  0  0  0  0  0  0  0  0  0
  -22.1012  -44.9694   -5.4435 C   0  0  0  0  0  0  0  0  0  0  0  0
  -23.1737  -44.1494   -6.1554 C   0  0  0  0  0  0  0  0  0  0  0  0
  -23.6560  -43.0258   -5.2411 C   0  0  0  0  0  0  0  0  0  0  0  0
  -24.3464  -41.9460   -6.0035 C   0  0  0  0  0  0  0  0  0  0  0  0
  -23.6083  -40.8315   -6.1869 O   0  0  0  0  0  0  0  0  0  0  0  0
  -22.3968  -40.3195   -6.5362 C   0  0  0  0  0  0  0  0  0  0  0  0
  -21.1275  -40.6003   -6.0354 C   0  0  0  0  0  0  0  0  0  0  0  0
  -20.0630  -39.9320   -6.5757 C   0  0  0  0  0  0  0  0  0  0  0  0
  -18.5986  -39.9777   -6.2984 C   0  0  0  0  0  0  0  0  0  0  0  0
  -17.7164  -40.1310   -7.5142 C   0  0  2  0  0  0  0  0  0  0  0  0
  -17.2122  -41.4535   -7.7608 N   0  0  0  0  0  0  0  0  0  0  0  0
  -17.7386  -42.7250   -7.5045 C   0  0  0  0  0  0  0  0  0  0  0  0
  -17.0479  -43.4615   -6.6699 O   0  0  0  0  0  0  0  0  0  0  0  0
  -16.5290  -39.1670   -7.4397 C   0  0  2  0  0  0  0  0  0  0  0  0
  -17.0119  -37.9338   -8.0054 O   0  0  0  0  0  0  0  0  0  0  0  0
  -15.3744  -39.5381   -8.3501 C   0  0  0  0  0  0  0  0  0  0  0  0
  -15.0216  -38.6441   -9.3805 N   0  0  0  0  0  0  0  0  0  0  0  0
  -14.8803  -39.2462  -10.6959 C   0  0  0  0  0  0  0  0  0  0  0  0
  -13.5411  -39.8916  -10.8108 C   0  0  0  0  0  0  0  0  0  0  0  0
  -13.4348  -41.3335  -10.5178 C   0  0  0  0  0  0  0  0  0  0  0  0
  -14.6296  -42.1779  -10.8688 C   0  0  0  0  0  0  0  0  0  0  0  0
  -15.4610  -41.3153  -11.8389 C   0  0  0  0  0  0  0  0  0  0  0  0
  -16.0181  -40.1970  -10.9920 C   0  0  0  0  0  0  0  0  0  0  0  0
  -14.9273  -38.1558  -11.6970 C   0  0  0  0  0  0  0  0  0  0  0  0
  -14.0041  -37.1294  -11.6651 C   0  0  0  0  0  0  0  0  0  0  0  0
  -14.0038  -36.0584  -12.5466 C   0  0  0  0  0  0  0  0  0  0  0  0
  -14.9826  -36.0095  -13.5172 C   0  0  0  0  0  0  0  0  0  0  0  0
  -15.9307  -37.0030  -13.6006 C   0  0  0  0  0  0  0  0  0  0  0  0
  -15.8845  -38.0683  -12.6789 C   0  0  0  0  0  0  0  0  0  0  0  0
  -12.9721  -34.9813  -12.4562 C   0  0  0  0  0  0  0  0  0  0  0  0
  -11.6010  -35.6221  -12.5404 C   0  0  0  0  0  0  0  0  0  0  0  0
  -13.1143  -34.0224  -13.6123 C   0  0  0  0  0  0  0  0  0  0  0  0
  -13.1291  -34.1946  -11.1690 C   0  0  0  0  0  0  0  0  0  0  0  0
  -20.2737  -38.9844   -7.6132 C   0  0  0  0  0  0  0  0  0  0  0  0
  -21.5034  -38.6833   -8.1282 C   0  0  0  0  0  0  0  0  0  0  0  0
  -22.5543  -39.3674   -7.5699 C   0  0  0  0  0  0  0  0  0  0  0  0
  2  1  1  1
  2  3  1  0
  3  4  1  0
  4  5  2  0
  4  6  1  0
  6  7  1  0
  7  8  1  0
  8  9  1  0
  9 10  1  0
 10 11  1  0
 11 12  1  0
 12 13  1  0
 13 14  2  0
 14 15  1  0
 16 15  1  1
 16 17  1  0
 17 18  1  0
 18 19  2  0
 16 20  1  0
 20 21  1  6
 20 22  1  0
 22 23  1  0
 23 24  1  0
 24 25  1  0
 25 26  1  0
 26 27  1  0
 27 28  1  0
 28 29  1  0
 24 30  1  0
 30 31  2  0
 31 32  1  0
 32 33  2  0
 33 34  1  0
 34 35  2  0
 32 36  1  0
 36 37  1  0
 36 38  1  0
 36 39  1  0
 14 40  1  0
 40 41  2  0
 41 42  1  0
 18  2  1  0
 29 24  1  0
 35 30  1  0
 42 12  2  0
M  END
$$$$
