
     RDKit          3D

 42 45  0  0  0  0  0  0  0  0999 V2000
  -19.9576  -42.6132   -8.5036 C   0  0  0  0  0  0  0  0  0  0  0  0
  -18.9123  -43.4869   -7.9324 C   0  0  2  0  0  0  0  0  0  0  0  0
  -19.4075  -44.4146   -6.8346 C   0  0  0  0  0  0  0  0  0  0  0  0
  -19.5509  -43.8067   -5.5198 C   0  0  0  0  0  0  0  0  0  0  0  0
  -18.5978  -43.1105   -5.0259 O   0  0  0  0  0  0  0  0  0  0  0  0
  -20.6940  -43.9045   -4.6737 N   0  0  0  0  0  0  0  0  0  0  0  0
  -21.8918  -44.6248   -4.9732 C   0  0  0  0  0  0  0  0  0  0  0  0
  -22.9549  -43.7152   -5.5833 C   0  0  0  0  0  0  0  0  0  0  0  0
  -23.2065  -42.5248   -4.6611 C   0  0  0  0  0  0  0  0  0  0  0  0
  -23.8721  -41.3981   -5.3763 C   0  0  0  0  0  0  0  0  0  0  0  0
  -23.0532  -40.3719   -5.6875 O   0  0  0  0  0  0  0  0  0  0  0  0
  -21.8478  -39.9984   -6.1969 C   0  0  0  0  0  0  0  0  0  0  0  0
  -20.5619  -40.3978   -5.8398 C   0  0  0  0  0  0  0  0  0  0  0  0
  -19.5091  -39.8583   -6.5272 C   0  0  0  0  0  0  0  0  0  0  0  0
  -18.0341  -40.0499   -6.4238 C   0  0  0  0  0  0  0  0  0  0  0  0
  -17.3263  -40.3251   -7.7290 C   0  0  2  0  0  0  0  0  0  0  0  0
  -16.9919  -41.6989   -7.9837 N   0  0  0  0  0  0  0  0  0  0  0  0
  -17.6087  -42.9016   -7.6194 C   0  0  0  0  0  0  0  0  0  0  0  0
  -16.8993  -43.6851   -6.8454 O   0  0  0  0  0  0  0  0  0  0  0  0
  -16.0476  -39.4891   -7.8319 C   0  0  2  0  0  0  0  0  0  0  0  0
  -16.4948  -38.1599   -8.1593 O   0  0  0  0  0  0  0  0  0  0  0  0
  -15.1624  -39.8570   -9.0069 C   0  0  0  0  0  0  0  0  0  0  0  0
  -13.8112  -39.4584   -8.9764 N   0  0  0  0  0  0  0  0  0  0  0  0
  -13.1232  -39.5178  -10.2555 C   0  0  0  0  0  0  0  0  0  0  0  0
  -11.7890  -38.8624  -10.1381 C   0  0  0  0  0  0  0  0  0  0  0  0
  -10.6169  -39.7129   -9.8573 C   0  0  0  0  0  0  0  0  0  0  0  0
  -10.6443  -41.1023  -10.4341 C   0  0  0  0  0  0  0  0  0  0  0  0
  -11.7353  -41.0648  -11.5224 C   0  0  0  0  0  0  0  0  0  0  0  0
  -13.0374  -40.9370  -10.7698 C   0  0  0  0  0  0  0  0  0  0  0  0
  -13.9136  -38.7290  -11.2283 C   0  0  0  0  0  0  0  0  0  0  0  0
  -13.8718  -37.3488  -11.2163 C   0  0  0  0  0  0  0  0  0  0  0  0
  -14.6076  -36.5427  -12.0722 C   0  0  0  0  0  0  0  0  0  0  0  0
  -15.4335  -37.1504  -12.9948 C   0  0  0  0  0  0  0  0  0  0  0  0
  -15.5182  -38.5223  -13.0564 C   0  0  0  0  0  0  0  0  0  0  0  0
  -14.7486  -39.2935  -12.1622 C   0  0  0  0  0  0  0  0  0  0  0  0
  -14.5130  -35.0530  -12.0057 C   0  0  0  0  0  0  0  0  0  0  0  0
  -14.9176  -34.6083  -10.6143 C   0  0  0  0  0  0  0  0  0  0  0  0
  -13.0916  -34.6079  -12.2464 C   0  0  0  0  0  0  0  0  0  0  0  0
  -15.3931  -34.4117  -13.0615 C   0  0  0  0  0  0  0  0  0  0  0  0
  -19.7479  -38.9202   -7.5672 C   0  0  0  0  0  0  0  0  0  0  0  0
  -20.9945  -38.5051   -7.9438 C   0  0  0  0  0  0  0  0  0  0  0  0
  -22.0332  -39.0613   -7.2396 C   0  0  0  0  0  0  0  0  0  0  0  0
  2  1  1  1
  2  3  1  0
  3  4  1  0
  4  5  2  0
  4  6  1  0
  6  7  1  0
  7  8  1  0
  8  9  1  0
  9 10  1  0
 10 11  1  0
 11 12  1  0
 12 13  1  0
 13 14  2  0
 14 15  1  0
 16 15  1  1
 16 17  1  0
 17 18  1  0
 18 19  2  0
 16 20  1  0
 20 21  1  6
 20 22  1  0
 22 23  1  0
 23 24  1  0
 24 25  1  0
 25 26  1  0
 26 27  1  0
 27 28  1  0
 28 29  1  0
 24 30  1  0
 30 31  2  0
 31 32  1  0
 32 33  2  0
 33 34  1  0
 34 35  2  0
 32 36  1  0
 36 37  1  0
 36 38  1  0
 36 39  1  0
 14 40  1  0
 40 41  2  0
 41 42  1  0
 18  2  1  0
 29 24  1  0
 35 30  1  0
 42 12  2  0
M  END
$$$$
