
     RDKit          3D

 42 45  0  0  0  0  0  0  0  0999 V2000
  -20.4352  -42.3339   -7.9689 C   0  0  0  0  0  0  0  0  0  0  0  0
  -19.3792  -43.2995   -7.6020 C   0  0  2  0  0  0  0  0  0  0  0  0
  -19.7885  -44.2903   -6.5241 C   0  0  0  0  0  0  0  0  0  0  0  0
  -19.7357  -43.7867   -5.1594 C   0  0  0  0  0  0  0  0  0  0  0  0
  -18.6916  -43.1789   -4.7383 O   0  0  0  0  0  0  0  0  0  0  0  0
  -20.7708  -43.9001   -4.1858 N   0  0  0  0  0  0  0  0  0  0  0  0
  -22.0350  -44.5365   -4.3856 C   0  0  0  0  0  0  0  0  0  0  0  0
  -23.1113  -43.5311   -4.7859 C   0  0  0  0  0  0  0  0  0  0  0  0
  -23.1807  -42.4101   -3.7517 C   0  0  0  0  0  0  0  0  0  0  0  0
  -23.8637  -41.1984   -4.2897 C   0  0  0  0  0  0  0  0  0  0  0  0
  -23.0321  -40.1896   -4.6230 O   0  0  0  0  0  0  0  0  0  0  0  0
  -21.8786  -39.8322   -5.2505 C   0  0  0  0  0  0  0  0  0  0  0  0
  -20.5834  -40.3193   -5.0898 C   0  0  0  0  0  0  0  0  0  0  0  0
  -19.5935  -39.7750   -5.8615 C   0  0  0  0  0  0  0  0  0  0  0  0
  -18.1301  -40.0433   -5.9598 C   0  0  0  0  0  0  0  0  0  0  0  0
  -17.6037  -40.2429   -7.3610 C   0  0  2  0  0  0  0  0  0  0  0  0
  -17.3812  -41.6052   -7.7593 N   0  0  0  0  0  0  0  0  0  0  0  0
  -18.0161  -42.8036   -7.4124 C   0  0  0  0  0  0  0  0  0  0  0  0
  -17.2631  -43.6805   -6.7958 O   0  0  0  0  0  0  0  0  0  0  0  0
  -16.3018  -39.4620   -7.5606 C   0  0  2  0  0  0  0  0  0  0  0  0
  -16.5779  -38.1399   -7.0609 O   0  0  0  0  0  0  0  0  0  0  0  0
  -15.9458  -39.2166   -9.0141 C   0  0  0  0  0  0  0  0  0  0  0  0
  -14.6135  -38.8825   -9.3288 N   0  0  0  0  0  0  0  0  0  0  0  0
  -14.0972  -39.4908  -10.5439 C   0  0  0  0  0  0  0  0  0  0  0  0
  -12.6077  -39.4228  -10.5448 C   0  0  0  0  0  0  0  0  0  0  0  0
  -11.8563  -40.5918  -10.0501 C   0  0  0  0  0  0  0  0  0  0  0  0
  -12.4762  -41.9401  -10.2981 C   0  0  0  0  0  0  0  0  0  0  0  0
  -13.5343  -41.7012  -11.3933 C   0  0  0  0  0  0  0  0  0  0  0  0
  -14.6213  -40.8979  -10.7216 C   0  0  0  0  0  0  0  0  0  0  0  0
  -14.5725  -38.6809  -11.6891 C   0  0  0  0  0  0  0  0  0  0  0  0
  -13.8831  -37.5534  -12.0894 C   0  0  0  0  0  0  0  0  0  0  0  0
  -14.2833  -36.7276  -13.1295 C   0  0  0  0  0  0  0  0  0  0  0  0
  -15.4397  -37.0466  -13.8104 C   0  0  0  0  0  0  0  0  0  0  0  0
  -16.1706  -38.1581  -13.4589 C   0  0  0  0  0  0  0  0  0  0  0  0
  -15.7182  -38.9623  -12.3935 C   0  0  0  0  0  0  0  0  0  0  0  0
  -13.4874  -35.5221  -13.5115 C   0  0  0  0  0  0  0  0  0  0  0  0
  -12.0522  -35.7363  -13.0736 C   0  0  0  0  0  0  0  0  0  0  0  0
  -13.4995  -35.3404  -15.0093 C   0  0  0  0  0  0  0  0  0  0  0  0
  -14.0702  -34.2722  -12.8802 C   0  0  0  0  0  0  0  0  0  0  0  0
  -19.9039  -38.7443   -6.7889 C   0  0  0  0  0  0  0  0  0  0  0  0
  -21.1615  -38.2418   -6.9727 C   0  0  0  0  0  0  0  0  0  0  0  0
  -22.1364  -38.8048   -6.1874 C   0  0  0  0  0  0  0  0  0  0  0  0
  2  1  1  1
  2  3  1  0
  3  4  1  0
  4  5  2  0
  4  6  1  0
  6  7  1  0
  7  8  1  0
  8  9  1  0
  9 10  1  0
 10 11  1  0
 11 12  1  0
 12 13  1  0
 13 14  2  0
 14 15  1  0
 16 15  1  1
 16 17  1  0
 17 18  1  0
 18 19  2  0
 16 20  1  0
 20 21  1  1
 20 22  1  0
 22 23  1  0
 23 24  1  0
 24 25  1  0
 25 26  1  0
 26 27  1  0
 27 28  1  0
 28 29  1  0
 24 30  1  0
 30 31  2  0
 31 32  1  0
 32 33  2  0
 33 34  1  0
 34 35  2  0
 32 36  1  0
 36 37  1  0
 36 38  1  0
 36 39  1  0
 14 40  1  0
 40 41  2  0
 41 42  1  0
 18  2  1  0
 29 24  1  0
 35 30  1  0
 42 12  2  0
M  END
$$$$
