
     RDKit          3D

 42 45  0  0  0  0  0  0  0  0999 V2000
  -20.4448  -41.9189   -8.7012 C   0  0  0  0  0  0  0  0  0  0  0  0
  -19.1994  -42.7059   -8.5923 C   0  0  2  0  0  0  0  0  0  0  0  0
  -19.3659  -44.0401   -7.8831 C   0  0  0  0  0  0  0  0  0  0  0  0
  -19.3961  -43.9759   -6.4292 C   0  0  0  0  0  0  0  0  0  0  0  0
  -18.4988  -43.3198   -5.7958 O   0  0  0  0  0  0  0  0  0  0  0  0
  -20.3639  -44.5948   -5.5850 N   0  0  0  0  0  0  0  0  0  0  0  0
  -21.4658  -45.3909   -6.0266 C   0  0  0  0  0  0  0  0  0  0  0  0
  -22.7402  -44.5611   -6.1564 C   0  0  0  0  0  0  0  0  0  0  0  0
  -23.0285  -43.8485   -4.8373 C   0  0  0  0  0  0  0  0  0  0  0  0
  -23.9657  -42.7025   -5.0175 C   0  0  0  0  0  0  0  0  0  0  0  0
  -23.3764  -41.4890   -4.9920 O   0  0  0  0  0  0  0  0  0  0  0  0
  -22.3387  -40.7238   -5.4276 C   0  0  0  0  0  0  0  0  0  0  0  0
  -20.9663  -40.9533   -5.3598 C   0  0  0  0  0  0  0  0  0  0  0  0
  -20.1313  -40.0049   -5.8842 C   0  0  0  0  0  0  0  0  0  0  0  0
  -18.6465  -39.9168   -5.9893 C   0  0  0  0  0  0  0  0  0  0  0  0
  -18.1166  -39.5659   -7.3590 C   0  0  2  0  0  0  0  0  0  0  0  0
  -17.6147  -40.6639   -8.1378 N   0  0  0  0  0  0  0  0  0  0  0  0
  -17.9710  -42.0163   -8.1980 C   0  0  0  0  0  0  0  0  0  0  0  0
  -17.0358  -42.8604   -7.8389 O   0  0  0  0  0  0  0  0  0  0  0  0
  -17.0166  -38.5060   -7.2526 C   0  0  2  0  0  0  0  0  0  0  0  0
  -17.6055  -37.4296   -6.4986 O   0  0  0  0  0  0  0  0  0  0  0  0
  -16.6606  -37.8509   -8.5731 C   0  0  0  0  0  0  0  0  0  0  0  0
  -15.7915  -38.5353   -9.4460 N   0  0  0  0  0  0  0  0  0  0  0  0
  -15.8028  -38.0632  -10.8207 C   0  0  0  0  0  0  0  0  0  0  0  0
  -16.5089  -39.0523  -11.6847 C   0  0  0  0  0  0  0  0  0  0  0  0
  -17.9419  -38.8383  -11.9615 C   0  0  0  0  0  0  0  0  0  0  0  0
  -18.4006  -37.4080  -12.0495 C   0  0  0  0  0  0  0  0  0  0  0  0
  -17.1124  -36.5835  -12.2420 C   0  0  0  0  0  0  0  0  0  0  0  0
  -16.3875  -36.6724  -10.9211 C   0  0  0  0  0  0  0  0  0  0  0  0
  -14.3983  -38.0003  -11.2861 C   0  0  0  0  0  0  0  0  0  0  0  0
  -13.7248  -36.7957  -11.3339 C   0  0  0  0  0  0  0  0  0  0  0  0
  -12.4221  -36.6526  -11.7881 C   0  0  0  0  0  0  0  0  0  0  0  0
  -11.7523  -37.7785  -12.2198 C   0  0  0  0  0  0  0  0  0  0  0  0
  -12.3695  -39.0078  -12.1962 C   0  0  0  0  0  0  0  0  0  0  0  0
  -13.6950  -39.0960  -11.7250 C   0  0  0  0  0  0  0  0  0  0  0  0
  -11.7522  -35.3172  -11.8111 C   0  0  0  0  0  0  0  0  0  0  0  0
  -10.4893  -35.4282  -12.6419 C   0  0  0  0  0  0  0  0  0  0  0  0
  -12.6511  -34.2921  -12.4573 C   0  0  0  0  0  0  0  0  0  0  0  0
  -11.4399  -34.8493  -10.4025 C   0  0  0  0  0  0  0  0  0  0  0  0
  -20.6733  -38.8304   -6.4721 C   0  0  0  0  0  0  0  0  0  0  0  0
  -22.0127  -38.5718   -6.5555 C   0  0  0  0  0  0  0  0  0  0  0  0
  -22.8289  -39.5386   -6.0230 C   0  0  0  0  0  0  0  0  0  0  0  0
  2  1  1  1
  2  3  1  0
  3  4  1  0
  4  5  2  0
  4  6  1  0
  6  7  1  0
  7  8  1  0
  8  9  1  0
  9 10  1  0
 10 11  1  0
 11 12  1  0
 12 13  1  0
 13 14  2  0
 14 15  1  0
 16 15  1  1
 16 17  1  0
 17 18  1  0
 18 19  2  0
 16 20  1  0
 20 21  1  1
 20 22  1  0
 22 23  1  0
 23 24  1  0
 24 25  1  0
 25 26  1  0
 26 27  1  0
 27 28  1  0
 28 29  1  0
 24 30  1  0
 30 31  2  0
 31 32  1  0
 32 33  2  0
 33 34  1  0
 34 35  2  0
 32 36  1  0
 36 37  1  0
 36 38  1  0
 36 39  1  0
 14 40  1  0
 40 41  2  0
 41 42  1  0
 18  2  1  0
 29 24  1  0
 35 30  1  0
 42 12  2  0
M  END
$$$$
