
     RDKit          3D

 42 45  0  0  0  0  0  0  0  0999 V2000
  -20.1019  -42.4177   -8.9099 C   0  0  0  0  0  0  0  0  0  0  0  0
  -19.1299  -43.3772   -8.3470 C   0  0  2  0  0  0  0  0  0  0  0  0
  -19.7308  -44.3668   -7.3619 C   0  0  0  0  0  0  0  0  0  0  0  0
  -19.9383  -43.8590   -6.0136 C   0  0  0  0  0  0  0  0  0  0  0  0
  -18.9948  -43.2450   -5.4055 O   0  0  0  0  0  0  0  0  0  0  0  0
  -21.1378  -43.9748   -5.2521 N   0  0  0  0  0  0  0  0  0  0  0  0
  -22.3390  -44.6178   -5.6842 C   0  0  0  0  0  0  0  0  0  0  0  0
  -23.3249  -43.6188   -6.2839 C   0  0  0  0  0  0  0  0  0  0  0  0
  -23.5926  -42.4952   -5.2854 C   0  0  0  0  0  0  0  0  0  0  0  0
  -24.1671  -41.2884   -5.9470 C   0  0  0  0  0  0  0  0  0  0  0  0
  -23.2918  -40.2765   -6.1213 O   0  0  0  0  0  0  0  0  0  0  0  0
  -22.0423  -39.9153   -6.5216 C   0  0  0  0  0  0  0  0  0  0  0  0
  -20.7985  -40.3957   -6.1179 C   0  0  0  0  0  0  0  0  0  0  0  0
  -19.6833  -39.8488   -6.6912 C   0  0  0  0  0  0  0  0  0  0  0  0
  -18.2264  -40.1102   -6.5110 C   0  0  0  0  0  0  0  0  0  0  0  0
  -17.4445  -40.3113   -7.7871 C   0  0  2  0  0  0  0  0  0  0  0  0
  -17.1452  -41.6736   -8.1313 N   0  0  0  0  0  0  0  0  0  0  0  0
  -17.8290  -42.8741   -7.9058 C   0  0  0  0  0  0  0  0  0  0  0  0
  -17.2021  -43.7456   -7.1551 O   0  0  0  0  0  0  0  0  0  0  0  0
  -16.1316  -39.5247   -7.7407 C   0  0  2  0  0  0  0  0  0  0  0  0
  -16.5259  -38.1456   -7.6119 O   0  0  0  0  0  0  0  0  0  0  0  0
  -15.3543  -39.5435   -9.0427 C   0  0  0  0  0  0  0  0  0  0  0  0
  -14.0637  -38.9783   -9.0589 N   0  0  0  0  0  0  0  0  0  0  0  0
  -13.4066  -38.9819  -10.3554 C   0  0  0  0  0  0  0  0  0  0  0  0
  -11.9696  -38.6197  -10.1904 C   0  0  0  0  0  0  0  0  0  0  0  0
  -10.9847  -39.7115  -10.0721 C   0  0  0  0  0  0  0  0  0  0  0  0
  -11.2854  -40.9705  -10.8391 C   0  0  0  0  0  0  0  0  0  0  0  0
  -12.3534  -40.5656  -11.8744 C   0  0  0  0  0  0  0  0  0  0  0  0
  -13.6019  -40.3008  -11.0686 C   0  0  0  0  0  0  0  0  0  0  0  0
  -14.0325  -37.9226  -11.1797 C   0  0  0  0  0  0  0  0  0  0  0  0
  -13.2582  -37.0863  -11.9593 C   0  0  0  0  0  0  0  0  0  0  0  0
  -13.7679  -36.0525  -12.7308 C   0  0  0  0  0  0  0  0  0  0  0  0
  -15.1310  -35.8414  -12.7238 C   0  0  0  0  0  0  0  0  0  0  0  0
  -15.9556  -36.6418  -11.9673 C   0  0  0  0  0  0  0  0  0  0  0  0
  -15.3844  -37.6779  -11.2014 C   0  0  0  0  0  0  0  0  0  0  0  0
  -12.8713  -35.1854  -13.5537 C   0  0  0  0  0  0  0  0  0  0  0  0
  -12.7785  -33.8255  -12.8907 C   0  0  0  0  0  0  0  0  0  0  0  0
  -11.4837  -35.7749  -13.6128 C   0  0  0  0  0  0  0  0  0  0  0  0
  -13.3940  -35.0667  -14.9726 C   0  0  0  0  0  0  0  0  0  0  0  0
  -19.8176  -38.8222   -7.6643 C   0  0  0  0  0  0  0  0  0  0  0  0
  -21.0202  -38.3263   -8.0837 C   0  0  0  0  0  0  0  0  0  0  0  0
  -22.1233  -38.8918   -7.4941 C   0  0  0  0  0  0  0  0  0  0  0  0
  2  1  1  1
  2  3  1  0
  3  4  1  0
  4  5  2  0
  4  6  1  0
  6  7  1  0
  7  8  1  0
  8  9  1  0
  9 10  1  0
 10 11  1  0
 11 12  1  0
 12 13  1  0
 13 14  2  0
 14 15  1  0
 16 15  1  1
 16 17  1  0
 17 18  1  0
 18 19  2  0
 16 20  1  0
 20 21  1  6
 20 22  1  0
 22 23  1  0
 23 24  1  0
 24 25  1  0
 25 26  1  0
 26 27  1  0
 27 28  1  0
 28 29  1  0
 24 30  1  0
 30 31  2  0
 31 32  1  0
 32 33  2  0
 33 34  1  0
 34 35  2  0
 32 36  1  0
 36 37  1  0
 36 38  1  0
 36 39  1  0
 14 40  1  0
 40 41  2  0
 41 42  1  0
 18  2  1  0
 29 24  1  0
 35 30  1  0
 42 12  2  0
M  END
$$$$
