
     RDKit          3D

 42 45  0  0  0  0  0  0  0  0999 V2000
  -19.6446  -42.0407   -8.9010 C   0  0  0  0  0  0  0  0  0  0  0  0
  -18.4097  -42.6662   -8.3851 C   0  0  2  0  0  0  0  0  0  0  0  0
  -18.6262  -43.5754   -7.1861 C   0  0  0  0  0  0  0  0  0  0  0  0
  -18.7620  -42.8985   -5.9047 C   0  0  0  0  0  0  0  0  0  0  0  0
  -17.9135  -42.0068   -5.5554 O   0  0  0  0  0  0  0  0  0  0  0  0
  -19.7880  -43.1288   -4.9421 N   0  0  0  0  0  0  0  0  0  0  0  0
  -20.8543  -44.0718   -5.0720 C   0  0  0  0  0  0  0  0  0  0  0  0
  -22.1166  -43.4174   -5.6269 C   0  0  0  0  0  0  0  0  0  0  0  0
  -22.5005  -42.2200   -4.7610 C   0  0  0  0  0  0  0  0  0  0  0  0
  -23.4231  -41.2906   -5.4745 C   0  0  0  0  0  0  0  0  0  0  0  0
  -22.8381  -40.1640   -5.9319 O   0  0  0  0  0  0  0  0  0  0  0  0
  -21.7722  -39.6250   -6.5839 C   0  0  0  0  0  0  0  0  0  0  0  0
  -20.4081  -39.7599   -6.3351 C   0  0  0  0  0  0  0  0  0  0  0  0
  -19.5379  -39.0996   -7.1588 C   0  0  0  0  0  0  0  0  0  0  0  0
  -18.0495  -39.0177   -7.1942 C   0  0  0  0  0  0  0  0  0  0  0  0
  -17.4218  -39.2674   -8.5447 C   0  0  2  0  0  0  0  0  0  0  0  0
  -16.8639  -40.5761   -8.7447 N   0  0  0  0  0  0  0  0  0  0  0  0
  -17.2138  -41.8357   -8.2441 C   0  0  0  0  0  0  0  0  0  0  0  0
  -16.3064  -42.4160   -7.4984 O   0  0  0  0  0  0  0  0  0  0  0  0
  -16.3333  -38.2290   -8.8300 C   0  0  2  0  0  0  0  0  0  0  0  0
  -16.9216  -37.3215   -9.7809 O   0  0  0  0  0  0  0  0  0  0  0  0
  -15.1328  -38.7814   -9.5738 C   0  0  0  0  0  0  0  0  0  0  0  0
  -15.1817  -38.8276  -10.9813 N   0  0  0  0  0  0  0  0  0  0  0  0
  -14.7894  -37.5988  -11.6512 C   0  0  0  0  0  0  0  0  0  0  0  0
  -15.9641  -37.0188  -12.3633 C   0  0  0  0  0  0  0  0  0  0  0  0
  -16.7567  -35.9841  -11.6725 C   0  0  0  0  0  0  0  0  0  0  0  0
  -16.0016  -35.0687  -10.7475 C   0  0  0  0  0  0  0  0  0  0  0  0
  -14.5198  -35.2347  -11.1383 C   0  0  0  0  0  0  0  0  0  0  0  0
  -14.1477  -36.6263  -10.6876 C   0  0  0  0  0  0  0  0  0  0  0  0
  -13.7837  -37.9490  -12.6803 C   0  0  0  0  0  0  0  0  0  0  0  0
  -12.4414  -38.0109  -12.3620 C   0  0  0  0  0  0  0  0  0  0  0  0
  -11.4395  -38.2992  -13.2768 C   0  0  0  0  0  0  0  0  0  0  0  0
  -11.7988  -38.5404  -14.5865 C   0  0  0  0  0  0  0  0  0  0  0  0
  -13.1205  -38.4938  -14.9657 C   0  0  0  0  0  0  0  0  0  0  0  0
  -14.0980  -38.1956  -13.9950 C   0  0  0  0  0  0  0  0  0  0  0  0
  -10.0046  -38.3516  -12.8630 C   0  0  0  0  0  0  0  0  0  0  0  0
   -9.7105  -37.1425  -11.9976 C   0  0  0  0  0  0  0  0  0  0  0  0
   -9.7414  -39.5910  -12.0439 C   0  0  0  0  0  0  0  0  0  0  0  0
   -9.0969  -38.3876  -14.0777 C   0  0  0  0  0  0  0  0  0  0  0  0
  -20.0367  -38.3057   -8.2264 C   0  0  0  0  0  0  0  0  0  0  0  0
  -21.3668  -38.1500   -8.4995 C   0  0  0  0  0  0  0  0  0  0  0  0
  -22.2187  -38.8229   -7.6595 C   0  0  0  0  0  0  0  0  0  0  0  0
  2  1  1  1
  2  3  1  0
  3  4  1  0
  4  5  2  0
  4  6  1  0
  6  7  1  0
  7  8  1  0
  8  9  1  0
  9 10  1  0
 10 11  1  0
 11 12  1  0
 12 13  1  0
 13 14  2  0
 14 15  1  0
 16 15  1  1
 16 17  1  0
 17 18  1  0
 18 19  2  0
 16 20  1  0
 20 21  1  6
 20 22  1  0
 22 23  1  0
 23 24  1  0
 24 25  1  0
 25 26  1  0
 26 27  1  0
 27 28  1  0
 28 29  1  0
 24 30  1  0
 30 31  2  0
 31 32  1  0
 32 33  2  0
 33 34  1  0
 34 35  2  0
 32 36  1  0
 36 37  1  0
 36 38  1  0
 36 39  1  0
 14 40  1  0
 40 41  2  0
 41 42  1  0
 18  2  1  0
 29 24  1  0
 35 30  1  0
 42 12  2  0
M  END
$$$$
