
     RDKit          3D

 42 45  0  0  0  0  0  0  0  0999 V2000
  -20.1816  -42.0134   -8.7591 C   0  0  0  0  0  0  0  0  0  0  0  0
  -19.0747  -42.9741   -8.5749 C   0  0  2  0  0  0  0  0  0  0  0  0
  -19.5018  -44.3120   -7.9930 C   0  0  0  0  0  0  0  0  0  0  0  0
  -19.6966  -44.3329   -6.5506 C   0  0  0  0  0  0  0  0  0  0  0  0
  -18.8016  -43.8504   -5.7739 O   0  0  0  0  0  0  0  0  0  0  0  0
  -20.8323  -44.8585   -5.8679 N   0  0  0  0  0  0  0  0  0  0  0  0
  -21.9701  -45.4620   -6.4878 C   0  0  0  0  0  0  0  0  0  0  0  0
  -23.0973  -44.4535   -6.6926 C   0  0  0  0  0  0  0  0  0  0  0  0
  -23.4431  -43.7889   -5.3623 C   0  0  0  0  0  0  0  0  0  0  0  0
  -24.1902  -42.5128   -5.5557 C   0  0  0  0  0  0  0  0  0  0  0  0
  -23.4511  -41.3990   -5.3724 O   0  0  0  0  0  0  0  0  0  0  0  0
  -22.2759  -40.7635   -5.6312 C   0  0  0  0  0  0  0  0  0  0  0  0
  -20.9645  -41.1889   -5.4309 C   0  0  0  0  0  0  0  0  0  0  0  0
  -19.9534  -40.3384   -5.7860 C   0  0  0  0  0  0  0  0  0  0  0  0
  -18.4685  -40.4556   -5.7202 C   0  0  0  0  0  0  0  0  0  0  0  0
  -17.7365  -40.1005   -6.9924 C   0  0  2  0  0  0  0  0  0  0  0  0
  -17.2967  -41.2090   -7.7934 N   0  0  0  0  0  0  0  0  0  0  0  0
  -17.8211  -42.4911   -7.9962 C   0  0  0  0  0  0  0  0  0  0  0  0
  -17.0568  -43.4795   -7.6025 O   0  0  0  0  0  0  0  0  0  0  0  0
  -16.5252  -39.2158   -6.6846 C   0  0  2  0  0  0  0  0  0  0  0  0
  -17.0706  -37.9050   -6.4435 O   0  0  0  0  0  0  0  0  0  0  0  0
  -15.6041  -38.9962   -7.8691 C   0  0  0  0  0  0  0  0  0  0  0  0
  -16.0875  -39.3006   -9.1572 N   0  0  0  0  0  0  0  0  0  0  0  0
  -15.1467  -39.0634  -10.2394 C   0  0  0  0  0  0  0  0  0  0  0  0
  -13.8014  -38.7539   -9.6755 C   0  0  0  0  0  0  0  0  0  0  0  0
  -12.8333  -39.8582   -9.5359 C   0  0  0  0  0  0  0  0  0  0  0  0
  -12.9024  -40.9445  -10.5746 C   0  0  0  0  0  0  0  0  0  0  0  0
  -13.7132  -40.3386  -11.7373 C   0  0  0  0  0  0  0  0  0  0  0  0
  -15.1236  -40.2197  -11.2133 C   0  0  0  0  0  0  0  0  0  0  0  0
  -15.6001  -37.8599  -10.9738 C   0  0  0  0  0  0  0  0  0  0  0  0
  -16.9321  -37.6913  -11.2967 C   0  0  0  0  0  0  0  0  0  0  0  0
  -17.4267  -36.6094  -12.0100 C   0  0  0  0  0  0  0  0  0  0  0  0
  -16.5392  -35.6385  -12.4250 C   0  0  0  0  0  0  0  0  0  0  0  0
  -15.1992  -35.7495  -12.1336 C   0  0  0  0  0  0  0  0  0  0  0  0
  -14.7505  -36.8702  -11.4061 C   0  0  0  0  0  0  0  0  0  0  0  0
  -18.8826  -36.4890  -12.3238 C   0  0  0  0  0  0  0  0  0  0  0  0
  -19.6383  -37.5062  -11.4920 C   0  0  0  0  0  0  0  0  0  0  0  0
  -19.3851  -35.1148  -11.9560 C   0  0  0  0  0  0  0  0  0  0  0  0
  -19.1316  -36.7013  -13.8048 C   0  0  0  0  0  0  0  0  0  0  0  0
  -20.2593  -39.0653   -6.3378 C   0  0  0  0  0  0  0  0  0  0  0  0
  -21.5324  -38.6148   -6.5477 C   0  0  0  0  0  0  0  0  0  0  0  0
  -22.5283  -39.4867   -6.1840 C   0  0  0  0  0  0  0  0  0  0  0  0
  2  1  1  1
  2  3  1  0
  3  4  1  0
  4  5  2  0
  4  6  1  0
  6  7  1  0
  7  8  1  0
  8  9  1  0
  9 10  1  0
 10 11  1  0
 11 12  1  0
 12 13  1  0
 13 14  2  0
 14 15  1  0
 16 15  1  1
 16 17  1  0
 17 18  1  0
 18 19  2  0
 16 20  1  0
 20 21  1  6
 20 22  1  0
 22 23  1  0
 23 24  1  0
 24 25  1  0
 25 26  1  0
 26 27  1  0
 27 28  1  0
 28 29  1  0
 24 30  1  0
 30 31  2  0
 31 32  1  0
 32 33  2  0
 33 34  1  0
 34 35  2  0
 32 36  1  0
 36 37  1  0
 36 38  1  0
 36 39  1  0
 14 40  1  0
 40 41  2  0
 41 42  1  0
 18  2  1  0
 29 24  1  0
 35 30  1  0
 42 12  2  0
M  END
$$$$
