
     RDKit          3D

 42 45  0  0  0  0  0  0  0  0999 V2000
  -19.7244  -41.9061   -9.3527 C   0  0  0  0  0  0  0  0  0  0  0  0
  -18.6378  -42.8053   -8.9133 C   0  0  2  0  0  0  0  0  0  0  0  0
  -19.1166  -44.0518   -8.1866 C   0  0  0  0  0  0  0  0  0  0  0  0
  -19.4636  -43.8642   -6.7855 C   0  0  0  0  0  0  0  0  0  0  0  0
  -18.6592  -43.2536   -6.0000 O   0  0  0  0  0  0  0  0  0  0  0  0
  -20.6624  -44.3080   -6.1545 N   0  0  0  0  0  0  0  0  0  0  0  0
  -21.7243  -45.0205   -6.7931 C   0  0  0  0  0  0  0  0  0  0  0  0
  -22.8292  -44.0777   -7.2621 C   0  0  0  0  0  0  0  0  0  0  0  0
  -23.3184  -43.2320   -6.0888 C   0  0  0  0  0  0  0  0  0  0  0  0
  -24.0482  -42.0147   -6.5467 C   0  0  0  0  0  0  0  0  0  0  0  0
  -23.3392  -40.8704   -6.4549 O   0  0  0  0  0  0  0  0  0  0  0  0
  -22.1468  -40.2548   -6.6813 C   0  0  0  0  0  0  0  0  0  0  0  0
  -20.8617  -40.6178   -6.2842 C   0  0  0  0  0  0  0  0  0  0  0  0
  -19.8236  -39.8072   -6.6543 C   0  0  0  0  0  0  0  0  0  0  0  0
  -18.3534  -39.8814   -6.4172 C   0  0  0  0  0  0  0  0  0  0  0  0
  -17.4923  -39.7017   -7.6447 C   0  0  2  0  0  0  0  0  0  0  0  0
  -16.9634  -40.9064   -8.2217 N   0  0  0  0  0  0  0  0  0  0  0  0
  -17.4557  -42.2153   -8.2852 C   0  0  0  0  0  0  0  0  0  0  0  0
  -16.7320  -43.1184   -7.6713 O   0  0  0  0  0  0  0  0  0  0  0  0
  -16.3258  -38.7555   -7.3471 C   0  0  2  0  0  0  0  0  0  0  0  0
  -16.9186  -37.6327   -6.6674 O   0  0  0  0  0  0  0  0  0  0  0  0
  -15.7095  -38.1279   -8.5824 C   0  0  0  0  0  0  0  0  0  0  0  0
  -14.9085  -38.9357   -9.4138 N   0  0  0  0  0  0  0  0  0  0  0  0
  -14.4049  -38.2795  -10.6090 C   0  0  0  0  0  0  0  0  0  0  0  0
  -15.3350  -38.5288  -11.7476 C   0  0  0  0  0  0  0  0  0  0  0  0
  -16.3650  -37.5144  -12.0411 C   0  0  0  0  0  0  0  0  0  0  0  0
  -15.9917  -36.0826  -11.7682 C   0  0  0  0  0  0  0  0  0  0  0  0
  -14.4543  -36.0822  -11.6550 C   0  0  0  0  0  0  0  0  0  0  0  0
  -14.1547  -36.8083  -10.3661 C   0  0  0  0  0  0  0  0  0  0  0  0
  -13.1103  -38.9093  -10.9562 C   0  0  0  0  0  0  0  0  0  0  0  0
  -12.7702  -40.1475  -10.4484 C   0  0  0  0  0  0  0  0  0  0  0  0
  -11.5647  -40.7854  -10.7012 C   0  0  0  0  0  0  0  0  0  0  0  0
  -10.6448  -40.1497  -11.5088 C   0  0  0  0  0  0  0  0  0  0  0  0
  -10.9256  -38.9143  -12.0454 C   0  0  0  0  0  0  0  0  0  0  0  0
  -12.1661  -38.3113  -11.7555 C   0  0  0  0  0  0  0  0  0  0  0  0
  -11.2620  -42.1280  -10.1195 C   0  0  0  0  0  0  0  0  0  0  0  0
  -11.4971  -43.1776  -11.1876 C   0  0  0  0  0  0  0  0  0  0  0  0
   -9.8150  -42.2018   -9.6988 C   0  0  0  0  0  0  0  0  0  0  0  0
  -12.1221  -42.3899   -8.8979 C   0  0  0  0  0  0  0  0  0  0  0  0
  -20.0764  -38.6361   -7.4181 C   0  0  0  0  0  0  0  0  0  0  0  0
  -21.3226  -38.2489   -7.8243 C   0  0  0  0  0  0  0  0  0  0  0  0
  -22.3464  -39.0790   -7.4411 C   0  0  0  0  0  0  0  0  0  0  0  0
  2  1  1  1
  2  3  1  0
  3  4  1  0
  4  5  2  0
  4  6  1  0
  6  7  1  0
  7  8  1  0
  8  9  1  0
  9 10  1  0
 10 11  1  0
 11 12  1  0
 12 13  1  0
 13 14  2  0
 14 15  1  0
 16 15  1  1
 16 17  1  0
 17 18  1  0
 18 19  2  0
 16 20  1  0
 20 21  1  1
 20 22  1  0
 22 23  1  0
 23 24  1  0
 24 25  1  0
 25 26  1  0
 26 27  1  0
 27 28  1  0
 28 29  1  0
 24 30  1  0
 30 31  2  0
 31 32  1  0
 32 33  2  0
 33 34  1  0
 34 35  2  0
 32 36  1  0
 36 37  1  0
 36 38  1  0
 36 39  1  0
 14 40  1  0
 40 41  2  0
 41 42  1  0
 18  2  1  0
 29 24  1  0
 35 30  1  0
 42 12  2  0
M  END
$$$$
