
     RDKit          3D

 42 45  0  0  0  0  0  0  0  0999 V2000
  -19.7339  -42.1971   -8.8520 C   0  0  0  0  0  0  0  0  0  0  0  0
  -18.7175  -43.1834   -8.4317 C   0  0  2  0  0  0  0  0  0  0  0  0
  -19.2895  -44.4127   -7.7443 C   0  0  0  0  0  0  0  0  0  0  0  0
  -19.6340  -44.2406   -6.3405 C   0  0  0  0  0  0  0  0  0  0  0  0
  -18.7948  -43.7111   -5.5328 O   0  0  0  0  0  0  0  0  0  0  0  0
  -20.8665  -44.6155   -5.7301 N   0  0  0  0  0  0  0  0  0  0  0  0
  -21.9709  -45.2324   -6.3956 C   0  0  0  0  0  0  0  0  0  0  0  0
  -23.0021  -44.2004   -6.8442 C   0  0  0  0  0  0  0  0  0  0  0  0
  -23.4398  -43.3556   -5.6502 C   0  0  0  0  0  0  0  0  0  0  0  0
  -24.0775  -42.0770   -6.0774 C   0  0  0  0  0  0  0  0  0  0  0  0
  -23.2900  -40.9890   -5.9483 O   0  0  0  0  0  0  0  0  0  0  0  0
  -22.0551  -40.4538   -6.1494 C   0  0  0  0  0  0  0  0  0  0  0  0
  -20.8023  -40.9183   -5.7549 C   0  0  0  0  0  0  0  0  0  0  0  0
  -19.7063  -40.1735   -6.0949 C   0  0  0  0  0  0  0  0  0  0  0  0
  -18.2470  -40.3588   -5.8509 C   0  0  0  0  0  0  0  0  0  0  0  0
  -17.3652  -40.2063   -7.0672 C   0  0  2  0  0  0  0  0  0  0  0  0
  -16.9183  -41.4288   -7.6753 N   0  0  0  0  0  0  0  0  0  0  0  0
  -17.5017  -42.6970   -7.7795 C   0  0  0  0  0  0  0  0  0  0  0  0
  -16.8490  -43.6663   -7.1873 O   0  0  0  0  0  0  0  0  0  0  0  0
  -16.1371  -39.3542   -6.7352 C   0  0  2  0  0  0  0  0  0  0  0  0
  -16.6351  -38.0078   -6.6220 O   0  0  0  0  0  0  0  0  0  0  0  0
  -15.1290  -39.2579   -7.8641 C   0  0  0  0  0  0  0  0  0  0  0  0
  -15.3129  -40.0766   -8.9961 N   0  0  0  0  0  0  0  0  0  0  0  0
  -14.3227  -39.9058  -10.0464 C   0  0  0  0  0  0  0  0  0  0  0  0
  -13.1099  -39.2412   -9.4888 C   0  0  0  0  0  0  0  0  0  0  0  0
  -11.9901  -40.0930   -9.0455 C   0  0  0  0  0  0  0  0  0  0  0  0
  -11.7747  -41.3690   -9.8131 C   0  0  0  0  0  0  0  0  0  0  0  0
  -12.5565  -41.1840  -11.1287 C   0  0  0  0  0  0  0  0  0  0  0  0
  -14.0118  -41.2183  -10.7296 C   0  0  0  0  0  0  0  0  0  0  0  0
  -14.8956  -38.9905  -11.0599 C   0  0  0  0  0  0  0  0  0  0  0  0
  -14.3557  -37.7357  -11.2619 C   0  0  0  0  0  0  0  0  0  0  0  0
  -14.8565  -36.8121  -12.1675 C   0  0  0  0  0  0  0  0  0  0  0  0
  -15.9611  -37.1620  -12.9158 C   0  0  0  0  0  0  0  0  0  0  0  0
  -16.5441  -38.3985  -12.7604 C   0  0  0  0  0  0  0  0  0  0  0  0
  -15.9944  -39.2985  -11.8253 C   0  0  0  0  0  0  0  0  0  0  0  0
  -14.2210  -35.4704  -12.3368 C   0  0  0  0  0  0  0  0  0  0  0  0
  -15.1858  -34.4156  -11.8328 C   0  0  0  0  0  0  0  0  0  0  0  0
  -12.9580  -35.3825  -11.5160 C   0  0  0  0  0  0  0  0  0  0  0  0
  -13.8572  -35.2284  -13.7892 C   0  0  0  0  0  0  0  0  0  0  0  0
  -19.8690  -38.9663   -6.8264 C   0  0  0  0  0  0  0  0  0  0  0  0
  -21.0811  -38.4801   -7.2291 C   0  0  0  0  0  0  0  0  0  0  0  0
  -22.1644  -39.2457   -6.8763 C   0  0  0  0  0  0  0  0  0  0  0  0
  2  1  1  1
  2  3  1  0
  3  4  1  0
  4  5  2  0
  4  6  1  0
  6  7  1  0
  7  8  1  0
  8  9  1  0
  9 10  1  0
 10 11  1  0
 11 12  1  0
 12 13  1  0
 13 14  2  0
 14 15  1  0
 16 15  1  1
 16 17  1  0
 17 18  1  0
 18 19  2  0
 16 20  1  0
 20 21  1  6
 20 22  1  0
 22 23  1  0
 23 24  1  0
 24 25  1  0
 25 26  1  0
 26 27  1  0
 27 28  1  0
 28 29  1  0
 24 30  1  0
 30 31  2  0
 31 32  1  0
 32 33  2  0
 33 34  1  0
 34 35  2  0
 32 36  1  0
 36 37  1  0
 36 38  1  0
 36 39  1  0
 14 40  1  0
 40 41  2  0
 41 42  1  0
 18  2  1  0
 29 24  1  0
 35 30  1  0
 42 12  2  0
M  END
$$$$
