
     RDKit          3D

 42 45  0  0  0  0  0  0  0  0999 V2000
  -19.7742  -42.5119   -8.9538 C   0  0  0  0  0  0  0  0  0  0  0  0
  -18.7922  -43.3063   -8.1876 C   0  0  2  0  0  0  0  0  0  0  0  0
  -19.4123  -44.2433   -7.1637 C   0  0  0  0  0  0  0  0  0  0  0  0
  -19.8156  -43.6217   -5.9108 C   0  0  0  0  0  0  0  0  0  0  0  0
  -19.0050  -42.8570   -5.2823 O   0  0  0  0  0  0  0  0  0  0  0  0
  -21.0793  -43.7766   -5.2694 N   0  0  0  0  0  0  0  0  0  0  0  0
  -22.1625  -44.5773   -5.7475 C   0  0  0  0  0  0  0  0  0  0  0  0
  -23.1574  -43.7490   -6.5560 C   0  0  0  0  0  0  0  0  0  0  0  0
  -23.6345  -42.5602   -5.7252 C   0  0  0  0  0  0  0  0  0  0  0  0
  -24.2334  -41.4917   -6.5758 C   0  0  0  0  0  0  0  0  0  0  0  0
  -23.4360  -40.4212   -6.7728 O   0  0  0  0  0  0  0  0  0  0  0  0
  -22.1856  -39.9809   -7.0800 C   0  0  0  0  0  0  0  0  0  0  0  0
  -20.9585  -40.2907   -6.4976 C   0  0  0  0  0  0  0  0  0  0  0  0
  -19.8375  -39.6979   -7.0109 C   0  0  0  0  0  0  0  0  0  0  0  0
  -18.3933  -39.7930   -6.6522 C   0  0  0  0  0  0  0  0  0  0  0  0
  -17.4567  -40.0465   -7.8092 C   0  0  2  0  0  0  0  0  0  0  0  0
  -17.0019  -41.4005   -7.9631 N   0  0  0  0  0  0  0  0  0  0  0  0
  -17.5992  -42.6332   -7.6743 C   0  0  0  0  0  0  0  0  0  0  0  0
  -16.9878  -43.3554   -6.7683 O   0  0  0  0  0  0  0  0  0  0  0  0
  -16.2316  -39.1325   -7.7170 C   0  0  2  0  0  0  0  0  0  0  0  0
  -16.5531  -37.9918   -8.5352 O   0  0  0  0  0  0  0  0  0  0  0  0
  -14.9895  -39.6962   -8.3797 C   0  0  0  0  0  0  0  0  0  0  0  0
  -14.2733  -38.8708   -9.2691 N   0  0  0  0  0  0  0  0  0  0  0  0
  -14.0985  -39.4130  -10.6064 C   0  0  0  0  0  0  0  0  0  0  0  0
  -12.9731  -40.3912  -10.6076 C   0  0  0  0  0  0  0  0  0  0  0  0
  -13.2928  -41.8217  -10.4416 C   0  0  0  0  0  0  0  0  0  0  0  0
  -14.6000  -42.2875  -11.0229 C   0  0  0  0  0  0  0  0  0  0  0  0
  -15.0215  -41.1776  -12.0061 C   0  0  0  0  0  0  0  0  0  0  0  0
  -15.3874  -39.9997  -11.1361 C   0  0  0  0  0  0  0  0  0  0  0  0
  -13.7078  -38.2961  -11.4970 C   0  0  0  0  0  0  0  0  0  0  0  0
  -14.0809  -36.9989  -11.2059 C   0  0  0  0  0  0  0  0  0  0  0  0
  -13.7815  -35.9070  -12.0073 C   0  0  0  0  0  0  0  0  0  0  0  0
  -13.0672  -36.1230  -13.1673 C   0  0  0  0  0  0  0  0  0  0  0  0
  -12.6664  -37.3933  -13.5119 C   0  0  0  0  0  0  0  0  0  0  0  0
  -12.9982  -38.4670  -12.6612 C   0  0  0  0  0  0  0  0  0  0  0  0
  -14.2155  -34.5277  -11.6306 C   0  0  0  0  0  0  0  0  0  0  0  0
  -13.5417  -34.1523  -10.3258 C   0  0  0  0  0  0  0  0  0  0  0  0
  -13.7840  -33.5376  -12.6841 C   0  0  0  0  0  0  0  0  0  0  0  0
  -15.7254  -34.4556  -11.5061 C   0  0  0  0  0  0  0  0  0  0  0  0
  -19.9496  -38.7963   -8.1033 C   0  0  0  0  0  0  0  0  0  0  0  0
  -21.1354  -38.4687   -8.6987 C   0  0  0  0  0  0  0  0  0  0  0  0
  -22.2446  -39.0770   -8.1659 C   0  0  0  0  0  0  0  0  0  0  0  0
  2  1  1  1
  2  3  1  0
  3  4  1  0
  4  5  2  0
  4  6  1  0
  6  7  1  0
  7  8  1  0
  8  9  1  0
  9 10  1  0
 10 11  1  0
 11 12  1  0
 12 13  1  0
 13 14  2  0
 14 15  1  0
 16 15  1  1
 16 17  1  0
 17 18  1  0
 18 19  2  0
 16 20  1  0
 20 21  1  6
 20 22  1  0
 22 23  1  0
 23 24  1  0
 24 25  1  0
 25 26  1  0
 26 27  1  0
 27 28  1  0
 28 29  1  0
 24 30  1  0
 30 31  2  0
 31 32  1  0
 32 33  2  0
 33 34  1  0
 34 35  2  0
 32 36  1  0
 36 37  1  0
 36 38  1  0
 36 39  1  0
 14 40  1  0
 40 41  2  0
 41 42  1  0
 18  2  1  0
 29 24  1  0
 35 30  1  0
 42 12  2  0
M  END
$$$$
