
     RDKit          3D

 42 45  0  0  0  0  0  0  0  0999 V2000
  -14.5416  -43.1744  -10.7195 C   0  0  0  0  0  0  0  0  0  0  0  0
  -15.1627  -42.1255  -11.5541 C   0  0  2  0  0  0  0  0  0  0  0  0
  -14.4083  -41.8241  -12.8390 C   0  0  0  0  0  0  0  0  0  0  0  0
  -13.2491  -40.9558  -12.6943 C   0  0  0  0  0  0  0  0  0  0  0  0
  -13.3454  -39.8574  -12.0453 O   0  0  0  0  0  0  0  0  0  0  0  0
  -11.9483  -41.2030  -13.2226 N   0  0  0  0  0  0  0  0  0  0  0  0
  -11.5658  -42.3454  -13.9918 C   0  0  0  0  0  0  0  0  0  0  0  0
  -10.9464  -43.4299  -13.1143 C   0  0  0  0  0  0  0  0  0  0  0  0
   -9.7810  -42.8469  -12.3187 C   0  0  0  0  0  0  0  0  0  0  0  0
   -9.4300  -43.6955  -11.1437 C   0  0  0  0  0  0  0  0  0  0  0  0
   -9.8560  -43.2124   -9.9581 O   0  0  0  0  0  0  0  0  0  0  0  0
  -10.8880  -42.6591   -9.2647 C   0  0  0  0  0  0  0  0  0  0  0  0
  -11.6583  -41.5342   -9.5510 C   0  0  0  0  0  0  0  0  0  0  0  0
  -12.6492  -41.1950   -8.6707 C   0  0  0  0  0  0  0  0  0  0  0  0
  -13.6468  -40.0869   -8.6547 C   0  0  0  0  0  0  0  0  0  0  0  0
  -15.0748  -40.5083   -8.4029 C   0  0  2  0  0  0  0  0  0  0  0  0
  -15.9182  -40.5919   -9.5629 N   0  0  0  0  0  0  0  0  0  0  0  0
  -15.6524  -40.9124  -10.8994 C   0  0  0  0  0  0  0  0  0  0  0  0
  -15.8825  -39.9551  -11.7635 O   0  0  0  0  0  0  0  0  0  0  0  0
  -15.7387  -39.5726   -7.3888 C   0  0  2  0  0  0  0  0  0  0  0  0
  -15.4815  -40.1700   -6.1039 O   0  0  0  0  0  0  0  0  0  0  0  0
  -17.2531  -39.5533   -7.4659 C   0  0  0  0  0  0  0  0  0  0  0  0
  -17.8594  -38.8572   -8.5305 N   0  0  0  0  0  0  0  0  0  0  0  0
  -19.2462  -38.4819   -8.3097 C   0  0  0  0  0  0  0  0  0  0  0  0
  -20.1210  -39.6788   -8.4691 C   0  0  0  0  0  0  0  0  0  0  0  0
  -20.4925  -40.4366   -7.2592 C   0  0  0  0  0  0  0  0  0  0  0  0
  -20.6531  -39.6399   -5.9931 C   0  0  0  0  0  0  0  0  0  0  0  0
  -20.7911  -38.1754   -6.4540 C   0  0  0  0  0  0  0  0  0  0  0  0
  -19.4258  -37.7965   -6.9740 C   0  0  0  0  0  0  0  0  0  0  0  0
  -19.6255  -37.5190   -9.3691 C   0  0  0  0  0  0  0  0  0  0  0  0
  -18.7362  -36.5519   -9.7940 C   0  0  0  0  0  0  0  0  0  0  0  0
  -19.0299  -35.5966  -10.7559 C   0  0  0  0  0  0  0  0  0  0  0  0
  -20.2851  -35.6079  -11.3275 C   0  0  0  0  0  0  0  0  0  0  0  0
  -21.2154  -36.5472  -10.9463 C   0  0  0  0  0  0  0  0  0  0  0  0
  -20.8640  -37.4947   -9.9637 C   0  0  0  0  0  0  0  0  0  0  0  0
  -18.0178  -34.5785  -11.1704 C   0  0  0  0  0  0  0  0  0  0  0  0
  -16.8380  -35.2998  -11.7911 C   0  0  0  0  0  0  0  0  0  0  0  0
  -18.6020  -33.6530  -12.2090 C   0  0  0  0  0  0  0  0  0  0  0  0
  -17.5825  -33.7404   -9.9835 C   0  0  0  0  0  0  0  0  0  0  0  0
  -12.8632  -41.9817   -7.5070 C   0  0  0  0  0  0  0  0  0  0  0  0
  -12.1274  -43.0900   -7.1940 C   0  0  0  0  0  0  0  0  0  0  0  0
  -11.1404  -43.4094   -8.0930 C   0  0  0  0  0  0  0  0  0  0  0  0
  2  1  1  1
  2  3  1  0
  3  4  1  0
  4  5  2  0
  4  6  1  0
  6  7  1  0
  7  8  1  0
  8  9  1  0
  9 10  1  0
 10 11  1  0
 11 12  1  0
 12 13  1  0
 13 14  2  0
 14 15  1  0
 16 15  1  6
 16 17  1  0
 17 18  1  0
 18 19  2  0
 16 20  1  0
 20 21  1  1
 20 22  1  0
 22 23  1  0
 23 24  1  0
 24 25  1  0
 25 26  1  0
 26 27  1  0
 27 28  1  0
 28 29  1  0
 24 30  1  0
 30 31  2  0
 31 32  1  0
 32 33  2  0
 33 34  1  0
 34 35  2  0
 32 36  1  0
 36 37  1  0
 36 38  1  0
 36 39  1  0
 14 40  1  0
 40 41  2  0
 41 42  1  0
 18  2  1  0
 29 24  1  0
 35 30  1  0
 42 12  2  0
M  END
$$$$
