
     RDKit          3D

 42 46  0  0  0  0  0  0  0  0999 V2000
  -18.2605  -46.3925   -8.9160 C   0  0  0  0  0  0  0  0  0  0  0  0
  -19.0678  -45.1482   -8.8523 C   0  0  0  0  0  0  0  0  0  0  0  0
  -18.4590  -43.9160   -8.8365 C   0  0  0  0  0  0  0  0  0  0  0  0
  -19.1632  -42.6870   -8.7767 C   0  0  0  0  0  0  0  0  0  0  0  0
  -20.5459  -42.7194   -8.7316 C   0  0  0  0  0  0  0  0  0  0  0  0
  -21.1567  -43.9511   -8.7487 C   0  0  0  0  0  0  0  0  0  0  0  0
  -22.5333  -44.3699   -8.7505 N   0  0  0  0  0  0  0  0  0  0  0  0
  -23.6012  -44.1575   -7.8503 C   0  0  0  0  0  0  0  0  0  0  0  0
  -24.0830  -42.7413   -7.6238 C   0  0  0  0  0  0  0  0  0  0  0  0
  -23.5918  -41.7281   -7.0045 C   0  0  0  0  0  0  0  0  0  0  0  0
  -24.0223  -40.3105   -6.7454 C   0  0  0  0  0  0  0  0  0  0  0  0
  -23.1801  -39.6732   -5.7735 O   0  0  0  0  0  0  0  0  0  0  0  0
  -21.9251  -40.0538   -5.2814 C   0  0  0  0  0  0  0  0  0  0  0  0
  -20.7552  -40.2813   -5.9892 C   0  0  0  0  0  0  0  0  0  0  0  0
  -19.6502  -40.6605   -5.2784 C   0  0  0  0  0  0  0  0  0  0  0  0
  -18.2838  -41.0310   -5.7535 C   0  0  0  0  0  0  0  0  0  0  0  0
  -17.6028  -40.1449   -6.7414 C   0  0  2  0  0  0  0  0  0  0  0  0
  -18.0141  -40.3921   -8.0880 N   0  0  0  0  0  0  0  0  0  0  0  0
  -18.2002  -41.5746   -8.8134 C   0  0  0  0  0  0  0  0  0  0  0  0
  -17.2556  -41.6845   -9.7574 O   0  0  0  0  0  0  0  0  0  0  0  0
  -16.1268  -40.0027   -6.5292 C   0  0  2  0  0  0  0  0  0  0  0  0
  -15.9277  -39.4532   -5.2663 O   0  0  0  0  0  0  0  0  0  0  0  0
  -15.3925  -39.2914   -7.6062 C   0  0  0  0  0  0  0  0  0  0  0  0
  -14.1286  -39.8676   -7.9347 N   0  0  0  0  0  0  0  0  0  0  0  0
  -13.6471  -39.5958   -9.2578 C   0  0  0  0  0  0  0  0  0  0  0  0
  -12.7289  -40.4548   -9.9831 C   0  0  0  0  0  0  0  0  0  0  0  0
  -14.2036  -40.5936  -10.3330 C   0  0  0  0  0  0  0  0  0  0  0  0
  -13.8167  -38.1827   -9.6755 C   0  0  0  0  0  0  0  0  0  0  0  0
  -14.4377  -37.8575  -10.8883 C   0  0  0  0  0  0  0  0  0  0  0  0
  -14.6209  -36.5918  -11.3365 C   0  0  0  0  0  0  0  0  0  0  0  0
  -14.1753  -35.5542  -10.5653 C   0  0  0  0  0  0  0  0  0  0  0  0
  -13.5552  -35.8046   -9.3598 C   0  0  0  0  0  0  0  0  0  0  0  0
  -13.3881  -37.1020   -8.9394 C   0  0  0  0  0  0  0  0  0  0  0  0
  -15.3045  -36.3983  -12.6440 C   0  0  0  0  0  0  0  0  0  0  0  0
  -14.5734  -37.1484  -13.7365 C   0  0  0  0  0  0  0  0  0  0  0  0
  -15.2906  -34.9342  -13.0522 C   0  0  0  0  0  0  0  0  0  0  0  0
  -16.7277  -36.9046  -12.6100 C   0  0  0  0  0  0  0  0  0  0  0  0
  -19.7397  -40.7986   -3.8708 C   0  0  0  0  0  0  0  0  0  0  0  0
  -20.8774  -40.5772   -3.1430 C   0  0  0  0  0  0  0  0  0  0  0  0
  -21.9724  -40.2000   -3.8833 C   0  0  0  0  0  0  0  0  0  0  0  0
  -23.1107  -39.9465   -3.1420 F   0  0  0  0  0  0  0  0  0  0  0  0
  -20.3770  -45.1073   -8.8079 N   0  0  0  0  0  0  0  0  0  0  0  0
  1  2  1  0
  2  3  2  0
  3  4  1  0
  4  5  2  0
  5  6  1  0
  6  7  1  0
  7  8  1  0
  8  9  1  0
  9 10  2  0
 10 11  1  0
 11 12  1  0
 12 13  1  0
 13 14  2  0
 14 15  1  0
 15 16  1  0
 17 16  1  1
 17 18  1  0
 18 19  1  0
 19 20  2  0
 17 21  1  0
 21 22  1  1
 21 23  1  0
 23 24  1  0
 24 25  1  0
 25 26  1  0
 26 27  1  0
 25 28  1  0
 28 29  2  0
 29 30  1  0
 30 31  2  0
 31 32  1  0
 32 33  2  0
 30 34  1  0
 34 35  1  0
 34 36  1  0
 34 37  1  0
 15 38  2  0
 38 39  1  0
 39 40  2  0
 40 41  1  0
  6 42  2  0
 19  4  1  0
 27 25  1  0
 33 28  1  0
 40 13  1  0
 42  2  1  0
M  END
$$$$
