
     RDKit          3D

 42 46  0  0  0  0  0  0  0  0999 V2000
  -16.0242  -45.9916   -7.4958 C   0  0  0  0  0  0  0  0  0  0  0  0
  -17.2645  -45.2044   -7.7104 C   0  0  0  0  0  0  0  0  0  0  0  0
  -17.2034  -43.9040   -8.1513 C   0  0  0  0  0  0  0  0  0  0  0  0
  -18.3431  -43.0919   -8.3783 C   0  0  0  0  0  0  0  0  0  0  0  0
  -19.5958  -43.6317   -8.1456 C   0  0  0  0  0  0  0  0  0  0  0  0
  -19.6589  -44.9328   -7.7058 C   0  0  0  0  0  0  0  0  0  0  0  0
  -20.7503  -45.8193   -7.4000 N   0  0  0  0  0  0  0  0  0  0  0  0
  -21.8167  -45.7439   -6.4765 C   0  0  0  0  0  0  0  0  0  0  0  0
  -22.8289  -44.6302   -6.6326 C   0  0  0  0  0  0  0  0  0  0  0  0
  -22.7896  -43.3631   -6.4219 C   0  0  0  0  0  0  0  0  0  0  0  0
  -23.7555  -42.2179   -6.5543 C   0  0  0  0  0  0  0  0  0  0  0  0
  -23.2449  -41.0243   -5.9421 O   0  0  0  0  0  0  0  0  0  0  0  0
  -21.9447  -40.7112   -5.5254 C   0  0  0  0  0  0  0  0  0  0  0  0
  -20.7796  -40.6969   -6.2762 C   0  0  0  0  0  0  0  0  0  0  0  0
  -19.6182  -40.3670   -5.6341 C   0  0  0  0  0  0  0  0  0  0  0  0
  -18.2165  -40.3239   -6.1473 C   0  0  0  0  0  0  0  0  0  0  0  0
  -17.9462  -39.6280   -7.4386 C   0  0  2  0  0  0  0  0  0  0  0  0
  -18.2180  -40.4451   -8.5796 N   0  0  0  0  0  0  0  0  0  0  0  0
  -17.9094  -41.7773   -8.8784 C   0  0  0  0  0  0  0  0  0  0  0  0
  -16.9969  -41.8257   -9.8584 O   0  0  0  0  0  0  0  0  0  0  0  0
  -16.6532  -38.8724   -7.4743 C   0  0  2  0  0  0  0  0  0  0  0  0
  -16.5959  -38.0695   -6.3392 O   0  0  0  0  0  0  0  0  0  0  0  0
  -16.3787  -38.1360   -8.7343 C   0  0  0  0  0  0  0  0  0  0  0  0
  -16.2532  -38.9694   -9.8862 N   0  0  0  0  0  0  0  0  0  0  0  0
  -14.9439  -39.0324  -10.4677 C   0  0  0  0  0  0  0  0  0  0  0  0
  -13.8382  -39.7865   -9.9056 C   0  0  0  0  0  0  0  0  0  0  0  0
  -14.5952  -40.4474  -11.0487 C   0  0  0  0  0  0  0  0  0  0  0  0
  -14.6737  -37.9514  -11.4467 C   0  0  0  0  0  0  0  0  0  0  0  0
  -14.8839  -36.6069  -11.1145 C   0  0  0  0  0  0  0  0  0  0  0  0
  -14.6653  -35.5692  -11.9581 C   0  0  0  0  0  0  0  0  0  0  0  0
  -14.2098  -35.8368  -13.2194 C   0  0  0  0  0  0  0  0  0  0  0  0
  -13.9818  -37.1386  -13.6110 C   0  0  0  0  0  0  0  0  0  0  0  0
  -14.2152  -38.1640  -12.7266 C   0  0  0  0  0  0  0  0  0  0  0  0
  -14.9270  -34.1904  -11.4634 C   0  0  0  0  0  0  0  0  0  0  0  0
  -16.3933  -34.0207  -11.1285 C   0  0  0  0  0  0  0  0  0  0  0  0
  -14.6150  -33.1603  -12.5367 C   0  0  0  0  0  0  0  0  0  0  0  0
  -14.1309  -33.8844  -10.2162 C   0  0  0  0  0  0  0  0  0  0  0  0
  -19.6498  -40.0529   -4.2525 C   0  0  0  0  0  0  0  0  0  0  0  0
  -20.7832  -40.0535   -3.4852 C   0  0  0  0  0  0  0  0  0  0  0  0
  -21.9345  -40.3911   -4.1559 C   0  0  0  0  0  0  0  0  0  0  0  0
  -23.0814  -40.3598   -3.3856 F   0  0  0  0  0  0  0  0  0  0  0  0
  -18.4794  -45.6531   -7.5102 N   0  0  0  0  0  0  0  0  0  0  0  0
  1  2  1  0
  2  3  2  0
  3  4  1  0
  4  5  2  0
  5  6  1  0
  6  7  1  0
  7  8  1  0
  8  9  1  0
  9 10  2  0
 10 11  1  0
 11 12  1  0
 12 13  1  0
 13 14  2  0
 14 15  1  0
 15 16  1  0
 17 16  1  1
 17 18  1  0
 18 19  1  0
 19 20  2  0
 17 21  1  0
 21 22  1  1
 21 23  1  0
 23 24  1  0
 24 25  1  0
 25 26  1  0
 26 27  1  0
 25 28  1  0
 28 29  2  0
 29 30  1  0
 30 31  2  0
 31 32  1  0
 32 33  2  0
 30 34  1  0
 34 35  1  0
 34 36  1  0
 34 37  1  0
 15 38  2  0
 38 39  1  0
 39 40  2  0
 40 41  1  0
  6 42  2  0
 19  4  1  0
 27 25  1  0
 33 28  1  0
 40 13  1  0
 42  2  1  0
M  END
$$$$
