
     RDKit          3D

 42 46  0  0  0  0  0  0  0  0999 V2000
  -16.9487  -42.8260  -14.0509 C   0  0  0  0  0  0  0  0  0  0  0  0
  -15.7469  -42.2339  -13.4112 C   0  0  0  0  0  0  0  0  0  0  0  0
  -15.7348  -41.9505  -12.0663 C   0  0  0  0  0  0  0  0  0  0  0  0
  -14.6257  -41.3856  -11.3874 C   0  0  0  0  0  0  0  0  0  0  0  0
  -13.4828  -41.0995  -12.1131 C   0  0  0  0  0  0  0  0  0  0  0  0
  -13.4925  -41.3836  -13.4583 C   0  0  0  0  0  0  0  0  0  0  0  0
  -12.5072  -41.2616  -14.4998 N   0  0  0  0  0  0  0  0  0  0  0  0
  -11.7900  -40.1597  -15.0167 C   0  0  0  0  0  0  0  0  0  0  0  0
  -10.8400  -39.4224  -14.0985 C   0  0  0  0  0  0  0  0  0  0  0  0
  -11.0100  -38.6218  -13.1078 C   0  0  0  0  0  0  0  0  0  0  0  0
  -10.1129  -37.8631  -12.1688 C   0  0  0  0  0  0  0  0  0  0  0  0
  -10.8518  -36.9141  -11.3855 O   0  0  0  0  0  0  0  0  0  0  0  0
  -12.2316  -36.8031  -11.1713 C   0  0  0  0  0  0  0  0  0  0  0  0
  -13.1014  -37.7489  -10.6513 C   0  0  0  0  0  0  0  0  0  0  0  0
  -14.4212  -37.4057  -10.5506 C   0  0  0  0  0  0  0  0  0  0  0  0
  -15.5913  -38.2146  -10.0961 C   0  0  0  0  0  0  0  0  0  0  0  0
  -15.4790  -38.9880   -8.8256 C   0  0  2  0  0  0  0  0  0  0  0  0
  -14.8204  -40.2454   -8.9950 N   0  0  0  0  0  0  0  0  0  0  0  0
  -14.9491  -41.2534   -9.9577 C   0  0  0  0  0  0  0  0  0  0  0  0
  -15.5041  -42.3418   -9.4075 O   0  0  0  0  0  0  0  0  0  0  0  0
  -16.7333  -39.0173   -8.0072 C   0  0  2  0  0  0  0  0  0  0  0  0
  -16.5011  -38.2908   -6.8433 O   0  0  0  0  0  0  0  0  0  0  0  0
  -17.3023  -40.3663   -7.7589 C   0  0  0  0  0  0  0  0  0  0  0  0
  -18.3143  -40.7566   -8.6867 N   0  0  0  0  0  0  0  0  0  0  0  0
  -19.4278  -41.4673   -8.1288 C   0  0  0  0  0  0  0  0  0  0  0  0
  -19.7232  -42.8622   -8.4012 C   0  0  0  0  0  0  0  0  0  0  0  0
  -19.0012  -42.5670   -7.0944 C   0  0  0  0  0  0  0  0  0  0  0  0
  -20.4894  -40.5833   -7.5889 C   0  0  0  0  0  0  0  0  0  0  0  0
  -20.7081  -40.4764   -6.2094 C   0  0  0  0  0  0  0  0  0  0  0  0
  -21.6616  -39.6955   -5.6461 C   0  0  0  0  0  0  0  0  0  0  0  0
  -22.4708  -38.9581   -6.4655 C   0  0  0  0  0  0  0  0  0  0  0  0
  -22.3089  -39.0169   -7.8332 C   0  0  0  0  0  0  0  0  0  0  0  0
  -21.3303  -39.8207   -8.3666 C   0  0  0  0  0  0  0  0  0  0  0  0
  -21.7731  -39.6773   -4.1624 C   0  0  0  0  0  0  0  0  0  0  0  0
  -21.4892  -41.0519   -3.5962 C   0  0  0  0  0  0  0  0  0  0  0  0
  -23.1861  -39.3232   -3.7286 C   0  0  0  0  0  0  0  0  0  0  0  0
  -20.7917  -38.7111   -3.5408 C   0  0  0  0  0  0  0  0  0  0  0  0
  -14.8413  -36.1184  -10.9686 C   0  0  0  0  0  0  0  0  0  0  0  0
  -14.0076  -35.1617  -11.4813 C   0  0  0  0  0  0  0  0  0  0  0  0
  -12.6879  -35.5349  -11.5734 C   0  0  0  0  0  0  0  0  0  0  0  0
  -11.8440  -34.5555  -12.0616 F   0  0  0  0  0  0  0  0  0  0  0  0
  -14.6343  -41.9392  -14.0380 N   0  0  0  0  0  0  0  0  0  0  0  0
  1  2  1  0
  2  3  2  0
  3  4  1  0
  4  5  2  0
  5  6  1  0
  6  7  1  0
  7  8  1  0
  8  9  1  0
  9 10  2  0
 10 11  1  0
 11 12  1  0
 12 13  1  0
 13 14  2  0
 14 15  1  0
 15 16  1  0
 17 16  1  6
 17 18  1  0
 18 19  1  0
 19 20  2  0
 17 21  1  0
 21 22  1  1
 21 23  1  0
 23 24  1  0
 24 25  1  0
 25 26  1  0
 26 27  1  0
 25 28  1  0
 28 29  2  0
 29 30  1  0
 30 31  2  0
 31 32  1  0
 32 33  2  0
 30 34  1  0
 34 35  1  0
 34 36  1  0
 34 37  1  0
 15 38  2  0
 38 39  1  0
 39 40  2  0
 40 41  1  0
  6 42  2  0
 19  4  1  0
 27 25  1  0
 33 28  1  0
 40 13  1  0
 42  2  1  0
M  END
$$$$
