
     RDKit          3D

 42 46  0  0  0  0  0  0  0  0999 V2000
  -18.4523  -45.7987   -6.3099 C   0  0  0  0  0  0  0  0  0  0  0  0
  -19.1196  -44.7886   -7.1693 C   0  0  0  0  0  0  0  0  0  0  0  0
  -18.4110  -43.7336   -7.6928 C   0  0  0  0  0  0  0  0  0  0  0  0
  -18.9795  -42.7322   -8.5198 C   0  0  0  0  0  0  0  0  0  0  0  0
  -20.3269  -42.8133   -8.8241 C   0  0  0  0  0  0  0  0  0  0  0  0
  -21.0371  -43.8686   -8.3024 C   0  0  0  0  0  0  0  0  0  0  0  0
  -22.4066  -44.2929   -8.4244 N   0  0  0  0  0  0  0  0  0  0  0  0
  -23.6351  -43.6683   -8.1137 C   0  0  0  0  0  0  0  0  0  0  0  0
  -24.0109  -42.4057   -8.8577 C   0  0  0  0  0  0  0  0  0  0  0  0
  -23.5858  -41.1937   -8.8147 C   0  0  0  0  0  0  0  0  0  0  0  0
  -23.9200  -39.9083   -9.5206 C   0  0  0  0  0  0  0  0  0  0  0  0
  -23.2811  -38.7838   -8.8983 O   0  0  0  0  0  0  0  0  0  0  0  0
  -22.2303  -38.7433   -7.9729 C   0  0  0  0  0  0  0  0  0  0  0  0
  -20.9521  -39.2649   -8.0977 C   0  0  0  0  0  0  0  0  0  0  0  0
  -20.0995  -39.1075   -7.0403 C   0  0  0  0  0  0  0  0  0  0  0  0
  -18.7034  -39.6026   -6.8510 C   0  0  0  0  0  0  0  0  0  0  0  0
  -17.7146  -39.3985   -7.9489 C   0  0  2  0  0  0  0  0  0  0  0  0
  -17.8064  -40.3913   -8.9733 N   0  0  0  0  0  0  0  0  0  0  0  0
  -17.9286  -41.7849   -8.9254 C   0  0  0  0  0  0  0  0  0  0  0  0
  -16.7978  -42.3574   -9.3600 O   0  0  0  0  0  0  0  0  0  0  0  0
  -16.3289  -39.0756   -7.4803 C   0  0  2  0  0  0  0  0  0  0  0  0
  -16.4069  -37.9591   -6.6533 O   0  0  0  0  0  0  0  0  0  0  0  0
  -15.3064  -38.9493   -8.5497 C   0  0  0  0  0  0  0  0  0  0  0  0
  -14.0009  -39.3820   -8.1680 N   0  0  0  0  0  0  0  0  0  0  0  0
  -13.0974  -39.6571   -9.2470 C   0  0  0  0  0  0  0  0  0  0  0  0
  -11.8997  -40.4674   -9.1203 C   0  0  0  0  0  0  0  0  0  0  0  0
  -13.1237  -41.1572   -9.7055 C   0  0  0  0  0  0  0  0  0  0  0  0
  -13.2371  -38.7265  -10.3936 C   0  0  0  0  0  0  0  0  0  0  0  0
  -12.2578  -38.6594  -11.3929 C   0  0  0  0  0  0  0  0  0  0  0  0
  -12.3154  -37.8306  -12.4635 C   0  0  0  0  0  0  0  0  0  0  0  0
  -13.3940  -36.9996  -12.5896 C   0  0  0  0  0  0  0  0  0  0  0  0
  -14.3942  -37.0152  -11.6411 C   0  0  0  0  0  0  0  0  0  0  0  0
  -14.2998  -37.8702  -10.5695 C   0  0  0  0  0  0  0  0  0  0  0  0
  -11.2023  -37.8740  -13.4501 C   0  0  0  0  0  0  0  0  0  0  0  0
  -11.5639  -38.7733  -14.6126 C   0  0  0  0  0  0  0  0  0  0  0  0
   -9.9487  -38.4675  -12.8284 C   0  0  0  0  0  0  0  0  0  0  0  0
  -10.8956  -36.5029  -14.0061 C   0  0  0  0  0  0  0  0  0  0  0  0
  -20.5446  -38.4251   -5.8807 C   0  0  0  0  0  0  0  0  0  0  0  0
  -21.7973  -37.8951   -5.7285 C   0  0  0  0  0  0  0  0  0  0  0  0
  -22.6332  -38.0704   -6.8054 C   0  0  0  0  0  0  0  0  0  0  0  0
  -23.8866  -37.5065   -6.6608 F   0  0  0  0  0  0  0  0  0  0  0  0
  -20.3885  -44.8056   -7.4963 N   0  0  0  0  0  0  0  0  0  0  0  0
  1  2  1  0
  2  3  2  0
  3  4  1  0
  4  5  2  0
  5  6  1  0
  6  7  1  0
  7  8  1  0
  8  9  1  0
  9 10  2  0
 10 11  1  0
 11 12  1  0
 12 13  1  0
 13 14  2  0
 14 15  1  0
 15 16  1  0
 17 16  1  1
 17 18  1  0
 18 19  1  0
 19 20  2  0
 17 21  1  0
 21 22  1  6
 21 23  1  0
 23 24  1  0
 24 25  1  0
 25 26  1  0
 26 27  1  0
 25 28  1  0
 28 29  2  0
 29 30  1  0
 30 31  2  0
 31 32  1  0
 32 33  2  0
 30 34  1  0
 34 35  1  0
 34 36  1  0
 34 37  1  0
 15 38  2  0
 38 39  1  0
 39 40  2  0
 40 41  1  0
  6 42  2  0
 19  4  1  0
 27 25  1  0
 33 28  1  0
 40 13  1  0
 42  2  1  0
M  END
$$$$
