
     RDKit          3D

 42 46  0  0  0  0  0  0  0  0999 V2000
  -17.3588  -46.3435   -8.5708 C   0  0  0  0  0  0  0  0  0  0  0  0
  -18.3276  -45.2295   -8.7277 C   0  0  0  0  0  0  0  0  0  0  0  0
  -17.8949  -43.9266   -8.7937 C   0  0  0  0  0  0  0  0  0  0  0  0
  -18.7597  -42.8130   -8.9427 C   0  0  0  0  0  0  0  0  0  0  0  0
  -20.1218  -43.0412   -9.0281 C   0  0  0  0  0  0  0  0  0  0  0  0
  -20.5564  -44.3441   -8.9636 C   0  0  0  0  0  0  0  0  0  0  0  0
  -21.8556  -44.9564   -9.0507 N   0  0  0  0  0  0  0  0  0  0  0  0
  -23.0361  -44.8130   -8.2881 C   0  0  0  0  0  0  0  0  0  0  0  0
  -23.7255  -43.4663   -8.2722 C   0  0  0  0  0  0  0  0  0  0  0  0
  -23.4467  -42.3361   -7.7278 C   0  0  0  0  0  0  0  0  0  0  0  0
  -24.0895  -40.9774   -7.6748 C   0  0  0  0  0  0  0  0  0  0  0  0
  -23.4542  -40.1312   -6.7050 O   0  0  0  0  0  0  0  0  0  0  0  0
  -22.2224  -40.2749   -6.0537 C   0  0  0  0  0  0  0  0  0  0  0  0
  -20.9609  -40.3993   -6.6146 C   0  0  0  0  0  0  0  0  0  0  0  0
  -19.9015  -40.5415   -5.7617 C   0  0  0  0  0  0  0  0  0  0  0  0
  -18.4533  -40.7550   -6.0572 C   0  0  0  0  0  0  0  0  0  0  0  0
  -17.7911  -39.8820   -7.0692 C   0  0  2  0  0  0  0  0  0  0  0  0
  -18.0125  -40.3187   -8.4122 N   0  0  0  0  0  0  0  0  0  0  0  0
  -17.9563  -41.5818   -9.0127 C   0  0  0  0  0  0  0  0  0  0  0  0
  -16.9060  -41.6465   -9.8422 O   0  0  0  0  0  0  0  0  0  0  0  0
  -16.3804  -39.5066   -6.7328 C   0  0  2  0  0  0  0  0  0  0  0  0
  -16.4144  -38.6687   -5.6224 O   0  0  0  0  0  0  0  0  0  0  0  0
  -15.5782  -38.9644   -7.8587 C   0  0  0  0  0  0  0  0  0  0  0  0
  -15.0466  -39.9590   -8.7335 N   0  0  0  0  0  0  0  0  0  0  0  0
  -13.8218  -39.6142   -9.3948 C   0  0  0  0  0  0  0  0  0  0  0  0
  -12.5121  -40.0831   -8.9803 C   0  0  0  0  0  0  0  0  0  0  0  0
  -13.1608  -40.8268  -10.1389 C   0  0  0  0  0  0  0  0  0  0  0  0
  -13.9322  -38.4223  -10.2707 C   0  0  0  0  0  0  0  0  0  0  0  0
  -15.0665  -37.6012  -10.2336 C   0  0  0  0  0  0  0  0  0  0  0  0
  -15.2388  -36.5023  -11.0076 C   0  0  0  0  0  0  0  0  0  0  0  0
  -14.2492  -36.1605  -11.8873 C   0  0  0  0  0  0  0  0  0  0  0  0
  -13.1060  -36.9259  -11.9742 C   0  0  0  0  0  0  0  0  0  0  0  0
  -12.9682  -38.0331  -11.1721 C   0  0  0  0  0  0  0  0  0  0  0  0
  -16.4958  -35.7209  -10.8539 C   0  0  0  0  0  0  0  0  0  0  0  0
  -17.4873  -36.4813   -9.9998 C   0  0  0  0  0  0  0  0  0  0  0  0
  -17.1704  -35.5079  -12.1993 C   0  0  0  0  0  0  0  0  0  0  0  0
  -16.2457  -34.3858  -10.1920 C   0  0  0  0  0  0  0  0  0  0  0  0
  -20.1283  -40.5508   -4.3629 C   0  0  0  0  0  0  0  0  0  0  0  0
  -21.3595  -40.4257   -3.7784 C   0  0  0  0  0  0  0  0  0  0  0  0
  -22.4055  -40.2869   -4.6593 C   0  0  0  0  0  0  0  0  0  0  0  0
  -23.6432  -40.1290   -4.0652 F   0  0  0  0  0  0  0  0  0  0  0  0
  -19.6271  -45.3750   -8.8150 N   0  0  0  0  0  0  0  0  0  0  0  0
  1  2  1  0
  2  3  2  0
  3  4  1  0
  4  5  2  0
  5  6  1  0
  6  7  1  0
  7  8  1  0
  8  9  1  0
  9 10  2  0
 10 11  1  0
 11 12  1  0
 12 13  1  0
 13 14  2  0
 14 15  1  0
 15 16  1  0
 17 16  1  1
 17 18  1  0
 18 19  1  0
 19 20  2  0
 17 21  1  0
 21 22  1  1
 21 23  1  0
 23 24  1  0
 24 25  1  0
 25 26  1  0
 26 27  1  0
 25 28  1  0
 28 29  2  0
 29 30  1  0
 30 31  2  0
 31 32  1  0
 32 33  2  0
 30 34  1  0
 34 35  1  0
 34 36  1  0
 34 37  1  0
 15 38  2  0
 38 39  1  0
 39 40  2  0
 40 41  1  0
  6 42  2  0
 19  4  1  0
 27 25  1  0
 33 28  1  0
 40 13  1  0
 42  2  1  0
M  END
$$$$
