
     RDKit          3D

 42 46  0  0  0  0  0  0  0  0999 V2000
  -22.9781  -42.2809   -6.6626 C   0  0  0  0  0  0  0  0  0  0  0  0
  -21.6931  -42.9229   -7.0374 C   0  0  0  0  0  0  0  0  0  0  0  0
  -20.4982  -42.4253   -6.5749 C   0  0  0  0  0  0  0  0  0  0  0  0
  -19.2340  -42.9844   -6.8900 C   0  0  0  0  0  0  0  0  0  0  0  0
  -19.1901  -44.0976   -7.7109 C   0  0  0  0  0  0  0  0  0  0  0  0
  -20.3845  -44.5976   -8.1734 C   0  0  0  0  0  0  0  0  0  0  0  0
  -20.7295  -45.7283   -8.9937 N   0  0  0  0  0  0  0  0  0  0  0  0
  -20.3782  -46.1000  -10.3106 C   0  0  0  0  0  0  0  0  0  0  0  0
  -18.9238  -46.3834  -10.6165 C   0  0  0  0  0  0  0  0  0  0  0  0
  -17.8838  -45.6383  -10.7379 C   0  0  0  0  0  0  0  0  0  0  0  0
  -16.4276  -45.8610  -11.0414 C   0  0  0  0  0  0  0  0  0  0  0  0
  -15.7465  -44.6231  -11.2934 O   0  0  0  0  0  0  0  0  0  0  0  0
  -16.1440  -43.3063  -11.0284 C   0  0  0  0  0  0  0  0  0  0  0  0
  -16.4975  -42.7413   -9.8130 C   0  0  0  0  0  0  0  0  0  0  0  0
  -16.8651  -41.4242   -9.8116 C   0  0  0  0  0  0  0  0  0  0  0  0
  -17.3492  -40.5639   -8.6911 C   0  0  0  0  0  0  0  0  0  0  0  0
  -16.5966  -40.5721   -7.4033 C   0  0  2  0  0  0  0  0  0  0  0  0
  -16.9475  -41.6715   -6.5597 N   0  0  0  0  0  0  0  0  0  0  0  0
  -18.1816  -42.2236   -6.1974 C   0  0  0  0  0  0  0  0  0  0  0  0
  -18.4287  -41.9792   -4.9034 O   0  0  0  0  0  0  0  0  0  0  0  0
  -16.5120  -39.2373   -6.7287 C   0  0  2  0  0  0  0  0  0  0  0  0
  -15.2252  -38.7431   -6.9191 O   0  0  0  0  0  0  0  0  0  0  0  0
  -16.9526  -39.2094   -5.3108 C   0  0  0  0  0  0  0  0  0  0  0  0
  -18.2403  -38.6285   -5.1074 N   0  0  0  0  0  0  0  0  0  0  0  0
  -19.3364  -39.3148   -5.7270 C   0  0  0  0  0  0  0  0  0  0  0  0
  -19.9271  -40.5373   -5.2136 C   0  0  0  0  0  0  0  0  0  0  0  0
  -20.6607  -39.2439   -4.8889 C   0  0  0  0  0  0  0  0  0  0  0  0
  -19.5571  -38.9300   -7.1424 C   0  0  0  0  0  0  0  0  0  0  0  0
  -20.8110  -39.0876   -7.7467 C   0  0  0  0  0  0  0  0  0  0  0  0
  -21.0838  -38.7646   -9.0341 C   0  0  0  0  0  0  0  0  0  0  0  0
  -20.0789  -38.2504   -9.8061 C   0  0  0  0  0  0  0  0  0  0  0  0
  -18.8206  -38.0693   -9.2732 C   0  0  0  0  0  0  0  0  0  0  0  0
  -18.5833  -38.4088   -7.9630 C   0  0  0  0  0  0  0  0  0  0  0  0
  -22.4670  -38.9813   -9.5382 C   0  0  0  0  0  0  0  0  0  0  0  0
  -22.9587  -40.3593   -9.1507 C   0  0  0  0  0  0  0  0  0  0  0  0
  -22.5057  -38.9285  -11.0568 C   0  0  0  0  0  0  0  0  0  0  0  0
  -23.4336  -37.9696   -8.9681 C   0  0  0  0  0  0  0  0  0  0  0  0
  -16.8656  -40.6987  -11.0290 C   0  0  0  0  0  0  0  0  0  0  0  0
  -16.5178  -41.2257  -12.2433 C   0  0  0  0  0  0  0  0  0  0  0  0
  -16.1554  -42.5513  -12.2150 C   0  0  0  0  0  0  0  0  0  0  0  0
  -15.7744  -43.0716  -13.4373 F   0  0  0  0  0  0  0  0  0  0  0  0
  -21.5802  -43.9766   -7.8084 N   0  0  0  0  0  0  0  0  0  0  0  0
  1  2  1  0
  2  3  2  0
  3  4  1  0
  4  5  2  0
  5  6  1  0
  6  7  1  0
  7  8  1  0
  8  9  1  0
  9 10  2  0
 10 11  1  0
 11 12  1  0
 12 13  1  0
 13 14  2  0
 14 15  1  0
 15 16  1  0
 17 16  1  6
 17 18  1  0
 18 19  1  0
 19 20  2  0
 17 21  1  0
 21 22  1  1
 21 23  1  0
 23 24  1  0
 24 25  1  0
 25 26  1  0
 26 27  1  0
 25 28  1  0
 28 29  2  0
 29 30  1  0
 30 31  2  0
 31 32  1  0
 32 33  2  0
 30 34  1  0
 34 35  1  0
 34 36  1  0
 34 37  1  0
 15 38  2  0
 38 39  1  0
 39 40  2  0
 40 41  1  0
  6 42  2  0
 19  4  1  0
 27 25  1  0
 33 28  1  0
 40 13  1  0
 42  2  1  0
M  END
$$$$
