
     RDKit          3D

 42 46  0  0  0  0  0  0  0  0999 V2000
  -18.6632  -46.7154   -6.3783 C   0  0  0  0  0  0  0  0  0  0  0  0
  -19.3689  -45.6120   -7.0773 C   0  0  0  0  0  0  0  0  0  0  0  0
  -18.6710  -44.5417   -7.5840 C   0  0  0  0  0  0  0  0  0  0  0  0
  -19.2755  -43.4533   -8.2621 C   0  0  0  0  0  0  0  0  0  0  0  0
  -20.6491  -43.4599   -8.4292 C   0  0  0  0  0  0  0  0  0  0  0  0
  -21.3488  -44.5304   -7.9242 C   0  0  0  0  0  0  0  0  0  0  0  0
  -22.7410  -44.8936   -7.9365 N   0  0  0  0  0  0  0  0  0  0  0  0
  -23.9028  -44.2548   -7.4487 C   0  0  0  0  0  0  0  0  0  0  0  0
  -24.2958  -42.9202   -8.0433 C   0  0  0  0  0  0  0  0  0  0  0  0
  -23.8154  -41.7323   -7.9459 C   0  0  0  0  0  0  0  0  0  0  0  0
  -24.1622  -40.3799   -8.5052 C   0  0  0  0  0  0  0  0  0  0  0  0
  -23.4144  -39.3365   -7.8633 O   0  0  0  0  0  0  0  0  0  0  0  0
  -22.2745  -39.4132   -7.0528 C   0  0  0  0  0  0  0  0  0  0  0  0
  -21.0398  -39.9673   -7.3531 C   0  0  0  0  0  0  0  0  0  0  0  0
  -20.0783  -39.9318   -6.3815 C   0  0  0  0  0  0  0  0  0  0  0  0
  -18.6935  -40.4907   -6.3806 C   0  0  0  0  0  0  0  0  0  0  0  0
  -17.8130  -40.2282   -7.5556 C   0  0  2  0  0  0  0  0  0  0  0  0
  -18.0520  -41.1253   -8.6426 N   0  0  0  0  0  0  0  0  0  0  0  0
  -18.2303  -42.5125   -8.6965 C   0  0  0  0  0  0  0  0  0  0  0  0
  -17.1758  -43.0854   -9.2926 O   0  0  0  0  0  0  0  0  0  0  0  0
  -16.3740  -39.9962   -7.2098 C   0  0  2  0  0  0  0  0  0  0  0  0
  -16.2171  -38.6446   -6.9184 O   0  0  0  0  0  0  0  0  0  0  0  0
  -15.3897  -40.5066   -8.1976 C   0  0  0  0  0  0  0  0  0  0  0  0
  -15.3197  -39.7464   -9.4035 N   0  0  0  0  0  0  0  0  0  0  0  0
  -14.1550  -38.9230   -9.5521 C   0  0  0  0  0  0  0  0  0  0  0  0
  -13.1952  -38.6706   -8.4929 C   0  0  0  0  0  0  0  0  0  0  0  0
  -12.8150  -39.7377   -9.5094 C   0  0  0  0  0  0  0  0  0  0  0  0
  -14.2123  -38.0150  -10.7235 C   0  0  0  0  0  0  0  0  0  0  0  0
  -13.1277  -37.1922  -11.0535 C   0  0  0  0  0  0  0  0  0  0  0  0
  -13.1115  -36.3351  -12.1029 C   0  0  0  0  0  0  0  0  0  0  0  0
  -14.2194  -36.2573  -12.9006 C   0  0  0  0  0  0  0  0  0  0  0  0
  -15.3219  -37.0400  -12.6319 C   0  0  0  0  0  0  0  0  0  0  0  0
  -15.2999  -37.8973  -11.5583 C   0  0  0  0  0  0  0  0  0  0  0  0
  -11.8836  -35.5272  -12.3353 C   0  0  0  0  0  0  0  0  0  0  0  0
  -11.5268  -34.7420  -11.0916 C   0  0  0  0  0  0  0  0  0  0  0  0
  -12.1086  -34.5018  -13.4345 C   0  0  0  0  0  0  0  0  0  0  0  0
  -10.7001  -36.3988  -12.6856 C   0  0  0  0  0  0  0  0  0  0  0  0
  -20.3729  -39.3364   -5.1297 C   0  0  0  0  0  0  0  0  0  0  0  0
  -21.5790  -38.7773   -4.8042 C   0  0  0  0  0  0  0  0  0  0  0  0
  -22.5268  -38.8294   -5.7984 C   0  0  0  0  0  0  0  0  0  0  0  0
  -23.7328  -38.2359   -5.4776 F   0  0  0  0  0  0  0  0  0  0  0  0
  -20.6639  -45.5557   -7.2699 N   0  0  0  0  0  0  0  0  0  0  0  0
  1  2  1  0
  2  3  2  0
  3  4  1  0
  4  5  2  0
  5  6  1  0
  6  7  1  0
  7  8  1  0
  8  9  1  0
  9 10  2  0
 10 11  1  0
 11 12  1  0
 12 13  1  0
 13 14  2  0
 14 15  1  0
 15 16  1  0
 17 16  1  1
 17 18  1  0
 18 19  1  0
 19 20  2  0
 17 21  1  0
 21 22  1  6
 21 23  1  0
 23 24  1  0
 24 25  1  0
 25 26  1  0
 26 27  1  0
 25 28  1  0
 28 29  2  0
 29 30  1  0
 30 31  2  0
 31 32  1  0
 32 33  2  0
 30 34  1  0
 34 35  1  0
 34 36  1  0
 34 37  1  0
 15 38  2  0
 38 39  1  0
 39 40  2  0
 40 41  1  0
  6 42  2  0
 19  4  1  0
 27 25  1  0
 33 28  1  0
 40 13  1  0
 42  2  1  0
M  END
$$$$
