
     RDKit          3D

 42 46  0  0  0  0  0  0  0  0999 V2000
  -14.0894  -36.6955  -13.7522 C   0  0  0  0  0  0  0  0  0  0  0  0
  -14.1031  -38.1168  -13.3235 C   0  0  0  0  0  0  0  0  0  0  0  0
  -14.9750  -38.5492  -12.3529 C   0  0  0  0  0  0  0  0  0  0  0  0
  -15.0454  -39.8885  -11.8933 C   0  0  0  0  0  0  0  0  0  0  0  0
  -14.1899  -40.8235  -12.4491 C   0  0  0  0  0  0  0  0  0  0  0  0
  -13.3179  -40.3931  -13.4211 C   0  0  0  0  0  0  0  0  0  0  0  0
  -12.3333  -41.0617  -14.2297 N   0  0  0  0  0  0  0  0  0  0  0  0
  -11.1780  -41.8095  -13.9106 C   0  0  0  0  0  0  0  0  0  0  0  0
  -11.3439  -43.0973  -13.1340 C   0  0  0  0  0  0  0  0  0  0  0  0
  -11.6378  -43.3614  -11.9111 C   0  0  0  0  0  0  0  0  0  0  0  0
  -11.8119  -44.6091  -11.0895 C   0  0  0  0  0  0  0  0  0  0  0  0
  -11.9084  -44.3089   -9.6893 O   0  0  0  0  0  0  0  0  0  0  0  0
  -12.1429  -43.0879   -9.0440 C   0  0  0  0  0  0  0  0  0  0  0  0
  -13.2191  -42.2272   -9.1939 C   0  0  0  0  0  0  0  0  0  0  0  0
  -13.2157  -41.0767   -8.4549 C   0  0  0  0  0  0  0  0  0  0  0  0
  -14.1859  -39.9415   -8.4417 C   0  0  0  0  0  0  0  0  0  0  0  0
  -15.6435  -40.2443   -8.3500 C   0  0  2  0  0  0  0  0  0  0  0  0
  -16.2242  -40.5766   -9.6133 N   0  0  0  0  0  0  0  0  0  0  0  0
  -16.1100  -39.9986  -10.8830 C   0  0  0  0  0  0  0  0  0  0  0  0
  -17.2669  -39.4154  -11.2248 O   0  0  0  0  0  0  0  0  0  0  0  0
  -16.4234  -39.2792   -7.5108 C   0  0  2  0  0  0  0  0  0  0  0  0
  -16.4749  -39.7842   -6.2151 O   0  0  0  0  0  0  0  0  0  0  0  0
  -17.7529  -38.8945   -8.0490 C   0  0  0  0  0  0  0  0  0  0  0  0
  -18.5349  -38.0926   -7.1644 N   0  0  0  0  0  0  0  0  0  0  0  0
  -19.7730  -37.6048   -7.6988 C   0  0  0  0  0  0  0  0  0  0  0  0
  -20.0456  -36.2064   -7.9770 C   0  0  0  0  0  0  0  0  0  0  0  0
  -19.6409  -37.0657   -9.1662 C   0  0  0  0  0  0  0  0  0  0  0  0
  -20.8995  -38.5596   -7.5604 C   0  0  0  0  0  0  0  0  0  0  0  0
  -21.1208  -39.2467   -6.3599 C   0  0  0  0  0  0  0  0  0  0  0  0
  -22.1237  -40.1366   -6.1636 C   0  0  0  0  0  0  0  0  0  0  0  0
  -22.9836  -40.3909   -7.1960 C   0  0  0  0  0  0  0  0  0  0  0  0
  -22.8224  -39.7483   -8.4049 C   0  0  0  0  0  0  0  0  0  0  0  0
  -21.7931  -38.8522   -8.5651 C   0  0  0  0  0  0  0  0  0  0  0  0
  -22.2397  -40.7862   -4.8299 C   0  0  0  0  0  0  0  0  0  0  0  0
  -22.9680  -42.1076   -4.9493 C   0  0  0  0  0  0  0  0  0  0  0  0
  -23.0634  -39.9321   -3.8800 C   0  0  0  0  0  0  0  0  0  0  0  0
  -20.8834  -41.0606   -4.2229 C   0  0  0  0  0  0  0  0  0  0  0  0
  -12.1350  -40.8151   -7.5762 C   0  0  0  0  0  0  0  0  0  0  0  0
  -11.0613  -41.6458   -7.4024 C   0  0  0  0  0  0  0  0  0  0  0  0
  -11.0901  -42.7928   -8.1593 C   0  0  0  0  0  0  0  0  0  0  0  0
  -10.0204  -43.6442   -7.9578 F   0  0  0  0  0  0  0  0  0  0  0  0
  -13.3225  -39.0517  -13.8073 N   0  0  0  0  0  0  0  0  0  0  0  0
  1  2  1  0
  2  3  2  0
  3  4  1  0
  4  5  2  0
  5  6  1  0
  6  7  1  0
  7  8  1  0
  8  9  1  0
  9 10  2  0
 10 11  1  0
 11 12  1  0
 12 13  1  0
 13 14  2  0
 14 15  1  0
 15 16  1  0
 17 16  1  6
 17 18  1  0
 18 19  1  0
 19 20  2  0
 17 21  1  0
 21 22  1  1
 21 23  1  0
 23 24  1  0
 24 25  1  0
 25 26  1  0
 26 27  1  0
 25 28  1  0
 28 29  2  0
 29 30  1  0
 30 31  2  0
 31 32  1  0
 32 33  2  0
 30 34  1  0
 34 35  1  0
 34 36  1  0
 34 37  1  0
 15 38  2  0
 38 39  1  0
 39 40  2  0
 40 41  1  0
  6 42  2  0
 19  4  1  0
 27 25  1  0
 33 28  1  0
 40 13  1  0
 42  2  1  0
M  END
$$$$
