
     RDKit          3D

 42 46  0  0  0  0  0  0  0  0999 V2000
  -16.6942  -45.4362   -8.5441 C   0  0  0  0  0  0  0  0  0  0  0  0
  -17.9122  -44.5996   -8.6876 C   0  0  0  0  0  0  0  0  0  0  0  0
  -17.8155  -43.2696   -9.0207 C   0  0  0  0  0  0  0  0  0  0  0  0
  -18.9323  -42.4100   -9.1749 C   0  0  0  0  0  0  0  0  0  0  0  0
  -20.1992  -42.9318   -8.9812 C   0  0  0  0  0  0  0  0  0  0  0  0
  -20.2980  -44.2624   -8.6492 C   0  0  0  0  0  0  0  0  0  0  0  0
  -21.4133  -45.1401   -8.4119 N   0  0  0  0  0  0  0  0  0  0  0  0
  -22.4748  -45.1109   -7.4802 C   0  0  0  0  0  0  0  0  0  0  0  0
  -23.4554  -43.9603   -7.5396 C   0  0  0  0  0  0  0  0  0  0  0  0
  -23.3798  -42.7163   -7.2259 C   0  0  0  0  0  0  0  0  0  0  0  0
  -24.3132  -41.5375   -7.2594 C   0  0  0  0  0  0  0  0  0  0  0  0
  -23.7676  -40.4130   -6.5539 O   0  0  0  0  0  0  0  0  0  0  0  0
  -22.4580  -40.1716   -6.1192 C   0  0  0  0  0  0  0  0  0  0  0  0
  -21.2948  -40.1284   -6.8718 C   0  0  0  0  0  0  0  0  0  0  0  0
  -20.1230  -39.8849   -6.2104 C   0  0  0  0  0  0  0  0  0  0  0  0
  -18.7219  -39.8391   -6.7251 C   0  0  0  0  0  0  0  0  0  0  0  0
  -18.4352  -39.0474   -7.9563 C   0  0  2  0  0  0  0  0  0  0  0  0
  -18.7328  -39.7602   -9.1591 N   0  0  0  0  0  0  0  0  0  0  0  0
  -18.4629  -41.0715   -9.5676 C   0  0  0  0  0  0  0  0  0  0  0  0
  -17.5545  -41.0649  -10.5526 O   0  0  0  0  0  0  0  0  0  0  0  0
  -17.1215  -38.3279   -7.9362 C   0  0  2  0  0  0  0  0  0  0  0  0
  -17.0697  -37.5652   -6.7735 O   0  0  0  0  0  0  0  0  0  0  0  0
  -16.7963  -37.5581   -9.1637 C   0  0  0  0  0  0  0  0  0  0  0  0
  -15.5152  -37.8529   -9.7197 N   0  0  0  0  0  0  0  0  0  0  0  0
  -15.4797  -38.0214  -11.1433 C   0  0  0  0  0  0  0  0  0  0  0  0
  -16.2224  -39.0408  -11.8618 C   0  0  0  0  0  0  0  0  0  0  0  0
  -16.8335  -37.6471  -11.8420 C   0  0  0  0  0  0  0  0  0  0  0  0
  -14.3216  -37.3608  -11.7932 C   0  0  0  0  0  0  0  0  0  0  0  0
  -13.0915  -37.2459  -11.1330 C   0  0  0  0  0  0  0  0  0  0  0  0
  -11.9945  -36.6508  -11.6611 C   0  0  0  0  0  0  0  0  0  0  0  0
  -12.0791  -36.1232  -12.9198 C   0  0  0  0  0  0  0  0  0  0  0  0
  -13.2608  -36.2024  -13.6253 C   0  0  0  0  0  0  0  0  0  0  0  0
  -14.3514  -36.8140  -13.0556 C   0  0  0  0  0  0  0  0  0  0  0  0
  -10.7519  -36.6089  -10.8435 C   0  0  0  0  0  0  0  0  0  0  0  0
  -10.2416  -38.0109  -10.5891 C   0  0  0  0  0  0  0  0  0  0  0  0
  -11.0217  -36.0010   -9.4768 C   0  0  0  0  0  0  0  0  0  0  0  0
   -9.6534  -35.8372  -11.5369 C   0  0  0  0  0  0  0  0  0  0  0  0
  -20.1423  -39.6845   -4.8076 C   0  0  0  0  0  0  0  0  0  0  0  0
  -21.2732  -39.7163   -4.0375 C   0  0  0  0  0  0  0  0  0  0  0  0
  -22.4353  -39.9654   -4.7281 C   0  0  0  0  0  0  0  0  0  0  0  0
  -23.5789  -39.9653   -3.9523 F   0  0  0  0  0  0  0  0  0  0  0  0
  -19.1388  -45.0290   -8.5190 N   0  0  0  0  0  0  0  0  0  0  0  0
  1  2  1  0
  2  3  2  0
  3  4  1  0
  4  5  2  0
  5  6  1  0
  6  7  1  0
  7  8  1  0
  8  9  1  0
  9 10  2  0
 10 11  1  0
 11 12  1  0
 12 13  1  0
 13 14  2  0
 14 15  1  0
 15 16  1  0
 17 16  1  1
 17 18  1  0
 18 19  1  0
 19 20  2  0
 17 21  1  0
 21 22  1  1
 21 23  1  0
 23 24  1  0
 24 25  1  0
 25 26  1  0
 26 27  1  0
 25 28  1  0
 28 29  2  0
 29 30  1  0
 30 31  2  0
 31 32  1  0
 32 33  2  0
 30 34  1  0
 34 35  1  0
 34 36  1  0
 34 37  1  0
 15 38  2  0
 38 39  1  0
 39 40  2  0
 40 41  1  0
  6 42  2  0
 19  4  1  0
 27 25  1  0
 33 28  1  0
 40 13  1  0
 42  2  1  0
M  END
$$$$
