
     RDKit          3D

 42 46  0  0  0  0  0  0  0  0999 V2000
  -19.5204  -40.1387  -13.1626 C   0  0  0  0  0  0  0  0  0  0  0  0
  -18.1264  -40.4914  -12.7934 C   0  0  0  0  0  0  0  0  0  0  0  0
  -17.7288  -40.4989  -11.4777 C   0  0  0  0  0  0  0  0  0  0  0  0
  -16.4169  -40.8245  -11.0502 C   0  0  0  0  0  0  0  0  0  0  0  0
  -15.4736  -41.1565  -12.0067 C   0  0  0  0  0  0  0  0  0  0  0  0
  -15.8699  -41.1508  -13.3233 C   0  0  0  0  0  0  0  0  0  0  0  0
  -15.1996  -41.4661  -14.5569 N   0  0  0  0  0  0  0  0  0  0  0  0
  -14.0503  -40.9376  -15.1857 C   0  0  0  0  0  0  0  0  0  0  0  0
  -12.7171  -41.0728  -14.4832 C   0  0  0  0  0  0  0  0  0  0  0  0
  -12.1983  -40.5060  -13.4532 C   0  0  0  0  0  0  0  0  0  0  0  0
  -10.8895  -40.5964  -12.7177 C   0  0  0  0  0  0  0  0  0  0  0  0
  -10.7518  -39.5408  -11.7550 O   0  0  0  0  0  0  0  0  0  0  0  0
  -11.7151  -38.6705  -11.2289 C   0  0  0  0  0  0  0  0  0  0  0  0
  -12.8858  -38.9861  -10.5571 C   0  0  0  0  0  0  0  0  0  0  0  0
  -13.6780  -37.9497  -10.1470 C   0  0  0  0  0  0  0  0  0  0  0  0
  -15.0068  -37.9684   -9.4660 C   0  0  0  0  0  0  0  0  0  0  0  0
  -15.1937  -38.8555   -8.2815 C   0  0  2  0  0  0  0  0  0  0  0  0
  -15.4853  -40.2085   -8.6389 N   0  0  0  0  0  0  0  0  0  0  0  0
  -16.3578  -40.7662   -9.5807 C   0  0  0  0  0  0  0  0  0  0  0  0
  -17.3683  -41.3858   -8.9560 O   0  0  0  0  0  0  0  0  0  0  0  0
  -16.0501  -38.2706   -7.2005 C   0  0  2  0  0  0  0  0  0  0  0  0
  -15.2089  -37.7933   -6.2001 O   0  0  0  0  0  0  0  0  0  0  0  0
  -17.1304  -39.1543   -6.6934 C   0  0  0  0  0  0  0  0  0  0  0  0
  -18.3293  -38.4689   -6.3330 N   0  0  0  0  0  0  0  0  0  0  0  0
  -19.4966  -38.8199   -7.0884 C   0  0  0  0  0  0  0  0  0  0  0  0
  -20.2893  -37.8724   -7.8505 C   0  0  0  0  0  0  0  0  0  0  0  0
  -19.2858  -38.7021   -8.6385 C   0  0  0  0  0  0  0  0  0  0  0  0
  -20.0813  -40.1290   -6.7083 C   0  0  0  0  0  0  0  0  0  0  0  0
  -21.3748  -40.2157   -6.1779 C   0  0  0  0  0  0  0  0  0  0  0  0
  -21.9701  -41.3740   -5.8033 C   0  0  0  0  0  0  0  0  0  0  0  0
  -21.2743  -42.5426   -5.9464 C   0  0  0  0  0  0  0  0  0  0  0  0
  -19.9962  -42.5281   -6.4624 C   0  0  0  0  0  0  0  0  0  0  0  0
  -19.4268  -41.3332   -6.8311 C   0  0  0  0  0  0  0  0  0  0  0  0
  -23.3544  -41.3129   -5.2610 C   0  0  0  0  0  0  0  0  0  0  0  0
  -23.7341  -39.8818   -4.9470 C   0  0  0  0  0  0  0  0  0  0  0  0
  -23.4584  -42.0767   -3.9510 C   0  0  0  0  0  0  0  0  0  0  0  0
  -24.3644  -41.8520   -6.2471 C   0  0  0  0  0  0  0  0  0  0  0  0
  -13.2772  -36.6169  -10.4145 C   0  0  0  0  0  0  0  0  0  0  0  0
  -12.1265  -36.2725  -11.0706 C   0  0  0  0  0  0  0  0  0  0  0  0
  -11.3515  -37.3340  -11.4732 C   0  0  0  0  0  0  0  0  0  0  0  0
  -10.1751  -36.9819  -12.1071 F   0  0  0  0  0  0  0  0  0  0  0  0
  -17.1856  -40.8150  -13.6465 N   0  0  0  0  0  0  0  0  0  0  0  0
  1  2  1  0
  2  3  2  0
  3  4  1  0
  4  5  2  0
  5  6  1  0
  6  7  1  0
  7  8  1  0
  8  9  1  0
  9 10  2  0
 10 11  1  0
 11 12  1  0
 12 13  1  0
 13 14  2  0
 14 15  1  0
 15 16  1  0
 17 16  1  6
 17 18  1  0
 18 19  1  0
 19 20  2  0
 17 21  1  0
 21 22  1  1
 21 23  1  0
 23 24  1  0
 24 25  1  0
 25 26  1  0
 26 27  1  0
 25 28  1  0
 28 29  2  0
 29 30  1  0
 30 31  2  0
 31 32  1  0
 32 33  2  0
 30 34  1  0
 34 35  1  0
 34 36  1  0
 34 37  1  0
 15 38  2  0
 38 39  1  0
 39 40  2  0
 40 41  1  0
  6 42  2  0
 19  4  1  0
 27 25  1  0
 33 28  1  0
 40 13  1  0
 42  2  1  0
M  END
$$$$
