
     RDKit          3D

 42 46  0  0  0  0  0  0  0  0999 V2000
  -23.5609  -38.9312   -7.9078 C   0  0  0  0  0  0  0  0  0  0  0  0
  -22.5434  -39.3208   -8.9163 C   0  0  0  0  0  0  0  0  0  0  0  0
  -21.2873  -39.7218   -8.5281 C   0  0  0  0  0  0  0  0  0  0  0  0
  -20.2659  -40.1075   -9.4324 C   0  0  0  0  0  0  0  0  0  0  0  0
  -20.5402  -40.0827  -10.7885 C   0  0  0  0  0  0  0  0  0  0  0  0
  -21.7966  -39.6832  -11.1787 C   0  0  0  0  0  0  0  0  0  0  0  0
  -22.4420  -39.5678  -12.4595 N   0  0  0  0  0  0  0  0  0  0  0  0
  -22.1425  -38.8200  -13.6200 C   0  0  0  0  0  0  0  0  0  0  0  0
  -20.8504  -39.1100  -14.3517 C   0  0  0  0  0  0  0  0  0  0  0  0
  -19.6144  -38.8715  -14.0929 C   0  0  0  0  0  0  0  0  0  0  0  0
  -18.3003  -39.1304  -14.7771 C   0  0  0  0  0  0  0  0  0  0  0  0
  -17.2260  -38.4235  -14.1398 O   0  0  0  0  0  0  0  0  0  0  0  0
  -17.1751  -37.8038  -12.8846 C   0  0  0  0  0  0  0  0  0  0  0  0
  -17.4044  -38.3639  -11.6376 C   0  0  0  0  0  0  0  0  0  0  0  0
  -17.3064  -37.5429  -10.5485 C   0  0  0  0  0  0  0  0  0  0  0  0
  -17.5520  -37.8311   -9.1039 C   0  0  0  0  0  0  0  0  0  0  0  0
  -16.9407  -39.0511   -8.5016 C   0  0  2  0  0  0  0  0  0  0  0  0
  -17.7009  -40.2359   -8.7499 N   0  0  0  0  0  0  0  0  0  0  0  0
  -19.0715  -40.5087   -8.6716 C   0  0  0  0  0  0  0  0  0  0  0  0
  -19.3144  -41.3358   -7.6457 O   0  0  0  0  0  0  0  0  0  0  0  0
  -16.4606  -38.8709   -7.0940 C   0  0  2  0  0  0  0  0  0  0  0  0
  -15.7824  -37.6578   -7.0259 O   0  0  0  0  0  0  0  0  0  0  0  0
  -15.6929  -40.0103   -6.5305 C   0  0  0  0  0  0  0  0  0  0  0  0
  -16.3921  -41.2546   -6.5463 N   0  0  0  0  0  0  0  0  0  0  0  0
  -17.4031  -41.4118   -5.5416 C   0  0  0  0  0  0  0  0  0  0  0  0
  -17.2115  -42.1385   -4.2997 C   0  0  0  0  0  0  0  0  0  0  0  0
  -17.0886  -40.6235   -4.2223 C   0  0  0  0  0  0  0  0  0  0  0  0
  -18.7772  -41.1432   -6.0314 C   0  0  0  0  0  0  0  0  0  0  0  0
  -19.8968  -41.4604   -5.2517 C   0  0  0  0  0  0  0  0  0  0  0  0
  -21.1791  -41.2498   -5.6362 C   0  0  0  0  0  0  0  0  0  0  0  0
  -21.4104  -40.6922   -6.8631 C   0  0  0  0  0  0  0  0  0  0  0  0
  -20.3529  -40.3559   -7.6808 C   0  0  0  0  0  0  0  0  0  0  0  0
  -19.0666  -40.5848   -7.2552 C   0  0  0  0  0  0  0  0  0  0  0  0
  -22.2690  -41.6317   -4.6978 C   0  0  0  0  0  0  0  0  0  0  0  0
  -23.4857  -40.7596   -4.9211 C   0  0  0  0  0  0  0  0  0  0  0  0
  -21.8459  -41.4084   -3.2550 C   0  0  0  0  0  0  0  0  0  0  0  0
  -22.6913  -43.0699   -4.8885 C   0  0  0  0  0  0  0  0  0  0  0  0
  -16.9750  -36.1772  -10.7318 C   0  0  0  0  0  0  0  0  0  0  0  0
  -16.7385  -35.5956  -11.9479 C   0  0  0  0  0  0  0  0  0  0  0  0
  -16.8464  -36.4434  -13.0244 C   0  0  0  0  0  0  0  0  0  0  0  0
  -16.5759  -35.8602  -14.2477 F   0  0  0  0  0  0  0  0  0  0  0  0
  -22.7366  -39.3206  -10.2125 N   0  0  0  0  0  0  0  0  0  0  0  0
  1  2  1  0
  2  3  2  0
  3  4  1  0
  4  5  2  0
  5  6  1  0
  6  7  1  0
  7  8  1  0
  8  9  1  0
  9 10  2  0
 10 11  1  0
 11 12  1  0
 12 13  1  0
 13 14  2  0
 14 15  1  0
 15 16  1  0
 17 16  1  1
 17 18  1  0
 18 19  1  0
 19 20  2  0
 17 21  1  0
 21 22  1  6
 21 23  1  0
 23 24  1  0
 24 25  1  0
 25 26  1  0
 26 27  1  0
 25 28  1  0
 28 29  2  0
 29 30  1  0
 30 31  2  0
 31 32  1  0
 32 33  2  0
 30 34  1  0
 34 35  1  0
 34 36  1  0
 34 37  1  0
 15 38  2  0
 38 39  1  0
 39 40  2  0
 40 41  1  0
  6 42  2  0
 19  4  1  0
 27 25  1  0
 33 28  1  0
 40 13  1  0
 42  2  1  0
M  END
$$$$
