
     RDKit          3D

 42 46  0  0  0  0  0  0  0  0999 V2000
  -18.0652  -46.1149   -7.8413 C   0  0  0  0  0  0  0  0  0  0  0  0
  -18.8557  -44.9616   -8.3405 C   0  0  0  0  0  0  0  0  0  0  0  0
  -18.2344  -43.7951   -8.7181 C   0  0  0  0  0  0  0  0  0  0  0  0
  -18.9222  -42.6543   -9.2033 C   0  0  0  0  0  0  0  0  0  0  0  0
  -20.3010  -42.7088   -9.3070 C   0  0  0  0  0  0  0  0  0  0  0  0
  -20.9241  -43.8753   -8.9310 C   0  0  0  0  0  0  0  0  0  0  0  0
  -22.2973  -44.3053   -8.9324 N   0  0  0  0  0  0  0  0  0  0  0  0
  -23.4595  -43.8040   -8.3051 C   0  0  0  0  0  0  0  0  0  0  0  0
  -23.9431  -42.4208   -8.6818 C   0  0  0  0  0  0  0  0  0  0  0  0
  -23.5123  -41.2354   -8.4354 C   0  0  0  0  0  0  0  0  0  0  0  0
  -23.9487  -39.8371   -8.7767 C   0  0  0  0  0  0  0  0  0  0  0  0
  -23.2162  -38.8581   -8.0252 O   0  0  0  0  0  0  0  0  0  0  0  0
  -22.0330  -38.9897   -7.2870 C   0  0  0  0  0  0  0  0  0  0  0  0
  -20.7921  -39.4301   -7.7201 C   0  0  0  0  0  0  0  0  0  0  0  0
  -19.7834  -39.4832   -6.7983 C   0  0  0  0  0  0  0  0  0  0  0  0
  -18.3766  -39.9634   -6.9413 C   0  0  0  0  0  0  0  0  0  0  0  0
  -17.5718  -39.4906   -8.1047 C   0  0  2  0  0  0  0  0  0  0  0  0
  -17.8268  -40.2351   -9.2981 N   0  0  0  0  0  0  0  0  0  0  0  0
  -17.9448  -41.6080   -9.5441 C   0  0  0  0  0  0  0  0  0  0  0  0
  -16.8983  -42.0343  -10.2641 O   0  0  0  0  0  0  0  0  0  0  0  0
  -16.1286  -39.2354   -7.7947 C   0  0  2  0  0  0  0  0  0  0  0  0
  -16.0657  -38.1754   -6.8954 O   0  0  0  0  0  0  0  0  0  0  0  0
  -15.2428  -39.0639   -8.9742 C   0  0  0  0  0  0  0  0  0  0  0  0
  -14.5621  -40.2526   -9.3752 N   0  0  0  0  0  0  0  0  0  0  0  0
  -13.2814  -40.0577   -9.9900 C   0  0  0  0  0  0  0  0  0  0  0  0
  -12.0135  -40.2452   -9.3087 C   0  0  0  0  0  0  0  0  0  0  0  0
  -12.4838  -41.3939  -10.1894 C   0  0  0  0  0  0  0  0  0  0  0  0
  -13.3342  -39.2548  -11.2361 C   0  0  0  0  0  0  0  0  0  0  0  0
  -12.3017  -38.3685  -11.5686 C   0  0  0  0  0  0  0  0  0  0  0  0
  -12.2856  -37.5999  -12.6846 C   0  0  0  0  0  0  0  0  0  0  0  0
  -13.3395  -37.6842  -13.5518 C   0  0  0  0  0  0  0  0  0  0  0  0
  -14.3889  -38.5372  -13.2846 C   0  0  0  0  0  0  0  0  0  0  0  0
  -14.3687  -39.3007  -12.1424 C   0  0  0  0  0  0  0  0  0  0  0  0
  -11.1160  -36.7079  -12.9102 C   0  0  0  0  0  0  0  0  0  0  0  0
  -11.3043  -35.9034  -14.1783 C   0  0  0  0  0  0  0  0  0  0  0  0
   -9.8453  -37.5184  -13.1067 C   0  0  0  0  0  0  0  0  0  0  0  0
  -10.9286  -35.7342  -11.7701 C   0  0  0  0  0  0  0  0  0  0  0  0
  -20.0385  -39.0881   -5.4614 C   0  0  0  0  0  0  0  0  0  0  0  0
  -21.2499  -38.6448   -5.0040 C   0  0  0  0  0  0  0  0  0  0  0  0
  -22.2452  -38.6044   -5.9511 C   0  0  0  0  0  0  0  0  0  0  0  0
  -23.4584  -38.1263   -5.4934 F   0  0  0  0  0  0  0  0  0  0  0  0
  -20.1603  -44.9461   -8.4638 N   0  0  0  0  0  0  0  0  0  0  0  0
  1  2  1  0
  2  3  2  0
  3  4  1  0
  4  5  2  0
  5  6  1  0
  6  7  1  0
  7  8  1  0
  8  9  1  0
  9 10  2  0
 10 11  1  0
 11 12  1  0
 12 13  1  0
 13 14  2  0
 14 15  1  0
 15 16  1  0
 17 16  1  1
 17 18  1  0
 18 19  1  0
 19 20  2  0
 17 21  1  0
 21 22  1  1
 21 23  1  0
 23 24  1  0
 24 25  1  0
 25 26  1  0
 26 27  1  0
 25 28  1  0
 28 29  2  0
 29 30  1  0
 30 31  2  0
 31 32  1  0
 32 33  2  0
 30 34  1  0
 34 35  1  0
 34 36  1  0
 34 37  1  0
 15 38  2  0
 38 39  1  0
 39 40  2  0
 40 41  1  0
  6 42  2  0
 19  4  1  0
 27 25  1  0
 33 28  1  0
 40 13  1  0
 42  2  1  0
M  END
$$$$
