
     RDKit          3D

 42 46  0  0  0  0  0  0  0  0999 V2000
  -20.3539  -44.9414  -11.0012 C   0  0  0  0  0  0  0  0  0  0  0  0
  -18.9929  -44.6765  -10.4705 C   0  0  0  0  0  0  0  0  0  0  0  0
  -18.7721  -43.6488   -9.5850 C   0  0  0  0  0  0  0  0  0  0  0  0
  -17.5023  -43.3364   -9.0371 C   0  0  0  0  0  0  0  0  0  0  0  0
  -16.4147  -44.1066   -9.4094 C   0  0  0  0  0  0  0  0  0  0  0  0
  -16.6339  -45.1360  -10.2941 C   0  0  0  0  0  0  0  0  0  0  0  0
  -15.7809  -46.1432  -10.8672 N   0  0  0  0  0  0  0  0  0  0  0  0
  -14.6149  -46.0732  -11.6618 C   0  0  0  0  0  0  0  0  0  0  0  0
  -13.3784  -45.4299  -11.0733 C   0  0  0  0  0  0  0  0  0  0  0  0
  -13.0555  -44.2153  -10.8049 C   0  0  0  0  0  0  0  0  0  0  0  0
  -11.8516  -43.5222  -10.2284 C   0  0  0  0  0  0  0  0  0  0  0  0
  -11.9427  -42.0975  -10.3761 O   0  0  0  0  0  0  0  0  0  0  0  0
  -13.0453  -41.2935  -10.6923 C   0  0  0  0  0  0  0  0  0  0  0  0
  -14.2583  -41.1953  -10.0286 C   0  0  0  0  0  0  0  0  0  0  0  0
  -15.1928  -40.3400  -10.5435 C   0  0  0  0  0  0  0  0  0  0  0  0
  -16.5914  -40.0654  -10.0980 C   0  0  0  0  0  0  0  0  0  0  0  0
  -16.8460  -39.8066   -8.6513 C   0  0  2  0  0  0  0  0  0  0  0  0
  -16.9576  -41.0062   -7.8818 N   0  0  0  0  0  0  0  0  0  0  0  0
  -17.6420  -42.2068   -8.1040 C   0  0  0  0  0  0  0  0  0  0  0  0
  -18.6617  -42.3173   -7.2417 O   0  0  0  0  0  0  0  0  0  0  0  0
  -17.8886  -38.7646   -8.3841 C   0  0  2  0  0  0  0  0  0  0  0  0
  -17.4277  -37.5571   -8.8996 O   0  0  0  0  0  0  0  0  0  0  0  0
  -18.3496  -38.6691   -6.9757 C   0  0  0  0  0  0  0  0  0  0  0  0
  -18.8121  -39.9017   -6.4243 N   0  0  0  0  0  0  0  0  0  0  0  0
  -20.2296  -40.1124   -6.4762 C   0  0  0  0  0  0  0  0  0  0  0  0
  -20.9374  -41.0932   -5.6738 C   0  0  0  0  0  0  0  0  0  0  0  0
  -20.9683  -39.6578   -5.1690 C   0  0  0  0  0  0  0  0  0  0  0  0
  -20.8704  -39.5587   -7.6939 C   0  0  0  0  0  0  0  0  0  0  0  0
  -20.8608  -38.1821   -7.9529 C   0  0  0  0  0  0  0  0  0  0  0  0
  -21.4304  -37.6059   -9.0391 C   0  0  0  0  0  0  0  0  0  0  0  0
  -22.0596  -38.4082   -9.9504 C   0  0  0  0  0  0  0  0  0  0  0  0
  -22.1055  -39.7721   -9.7561 C   0  0  0  0  0  0  0  0  0  0  0  0
  -21.5158  -40.3190   -8.6420 C   0  0  0  0  0  0  0  0  0  0  0  0
  -21.3349  -36.1281   -9.1857 C   0  0  0  0  0  0  0  0  0  0  0  0
  -20.4716  -35.7719  -10.3767 C   0  0  0  0  0  0  0  0  0  0  0  0
  -20.6631  -35.5048   -7.9730 C   0  0  0  0  0  0  0  0  0  0  0  0
  -22.6926  -35.4993   -9.3959 C   0  0  0  0  0  0  0  0  0  0  0  0
  -14.8897  -39.5962  -11.7111 C   0  0  0  0  0  0  0  0  0  0  0  0
  -13.7012  -39.6671  -12.3862 C   0  0  0  0  0  0  0  0  0  0  0  0
  -12.7823  -40.5361  -11.8479 C   0  0  0  0  0  0  0  0  0  0  0  0
  -11.5721  -40.5816  -12.5136 F   0  0  0  0  0  0  0  0  0  0  0  0
  -17.9220  -45.3654  -10.7804 N   0  0  0  0  0  0  0  0  0  0  0  0
  1  2  1  0
  2  3  2  0
  3  4  1  0
  4  5  2  0
  5  6  1  0
  6  7  1  0
  7  8  1  0
  8  9  1  0
  9 10  2  0
 10 11  1  0
 11 12  1  0
 12 13  1  0
 13 14  2  0
 14 15  1  0
 15 16  1  0
 17 16  1  6
 17 18  1  0
 18 19  1  0
 19 20  2  0
 17 21  1  0
 21 22  1  1
 21 23  1  0
 23 24  1  0
 24 25  1  0
 25 26  1  0
 26 27  1  0
 25 28  1  0
 28 29  2  0
 29 30  1  0
 30 31  2  0
 31 32  1  0
 32 33  2  0
 30 34  1  0
 34 35  1  0
 34 36  1  0
 34 37  1  0
 15 38  2  0
 38 39  1  0
 39 40  2  0
 40 41  1  0
  6 42  2  0
 19  4  1  0
 27 25  1  0
 33 28  1  0
 40 13  1  0
 42  2  1  0
M  END
$$$$
