
     RDKit          3D

 42 46  0  0  0  0  0  0  0  0999 V2000
  -17.4295  -46.0863   -8.4098 C   0  0  0  0  0  0  0  0  0  0  0  0
  -18.5401  -45.1056   -8.5039 C   0  0  0  0  0  0  0  0  0  0  0  0
  -18.2844  -43.7749   -8.7343 C   0  0  0  0  0  0  0  0  0  0  0  0
  -19.2917  -42.7824   -8.8363 C   0  0  0  0  0  0  0  0  0  0  0  0
  -20.6138  -43.1664   -8.6974 C   0  0  0  0  0  0  0  0  0  0  0  0
  -20.8716  -44.4973   -8.4681 C   0  0  0  0  0  0  0  0  0  0  0  0
  -22.0850  -45.2546   -8.3108 N   0  0  0  0  0  0  0  0  0  0  0  0
  -23.1549  -45.1711   -7.3921 C   0  0  0  0  0  0  0  0  0  0  0  0
  -23.9954  -43.9132   -7.3759 C   0  0  0  0  0  0  0  0  0  0  0  0
  -23.7837  -42.7129   -6.9683 C   0  0  0  0  0  0  0  0  0  0  0  0
  -24.5746  -41.4344   -6.9235 C   0  0  0  0  0  0  0  0  0  0  0  0
  -23.9177  -40.4360   -6.1287 O   0  0  0  0  0  0  0  0  0  0  0  0
  -22.5983  -40.3811   -5.6617 C   0  0  0  0  0  0  0  0  0  0  0  0
  -21.4227  -40.4178   -6.3952 C   0  0  0  0  0  0  0  0  0  0  0  0
  -20.2444  -40.3616   -5.7036 C   0  0  0  0  0  0  0  0  0  0  0  0
  -18.8371  -40.4410   -6.1969 C   0  0  0  0  0  0  0  0  0  0  0  0
  -18.4363  -39.5994   -7.3613 C   0  0  2  0  0  0  0  0  0  0  0  0
  -18.7893  -40.1822   -8.6179 N   0  0  0  0  0  0  0  0  0  0  0  0
  -18.6635  -41.4822   -9.1212 C   0  0  0  0  0  0  0  0  0  0  0  0
  -17.7406  -41.5085  -10.0922 O   0  0  0  0  0  0  0  0  0  0  0  0
  -17.0492  -39.0408   -7.2715 C   0  0  2  0  0  0  0  0  0  0  0  0
  -16.9995  -38.1958   -6.1670 O   0  0  0  0  0  0  0  0  0  0  0  0
  -16.5295  -38.4190   -8.5159 C   0  0  0  0  0  0  0  0  0  0  0  0
  -15.1482  -38.6752   -8.7678 N   0  0  0  0  0  0  0  0  0  0  0  0
  -14.7090  -38.4451  -10.1133 C   0  0  0  0  0  0  0  0  0  0  0  0
  -14.8436  -39.4089  -11.1904 C   0  0  0  0  0  0  0  0  0  0  0  0
  -15.8933  -38.3083  -11.1331 C   0  0  0  0  0  0  0  0  0  0  0  0
  -13.7383  -37.3309  -10.2414 C   0  0  0  0  0  0  0  0  0  0  0  0
  -13.7828  -36.4561  -11.3345 C   0  0  0  0  0  0  0  0  0  0  0  0
  -12.9263  -35.4225  -11.5202 C   0  0  0  0  0  0  0  0  0  0  0  0
  -11.9493  -35.2075  -10.5879 C   0  0  0  0  0  0  0  0  0  0  0  0
  -11.8496  -36.0316   -9.4874 C   0  0  0  0  0  0  0  0  0  0  0  0
  -12.7372  -37.0693   -9.3342 C   0  0  0  0  0  0  0  0  0  0  0  0
  -13.0993  -34.5710  -12.7283 C   0  0  0  0  0  0  0  0  0  0  0  0
  -14.1310  -35.1763  -13.6556 C   0  0  0  0  0  0  0  0  0  0  0  0
  -11.8075  -34.4910  -13.5253 C   0  0  0  0  0  0  0  0  0  0  0  0
  -13.5633  -33.1789  -12.3681 C   0  0  0  0  0  0  0  0  0  0  0  0
  -20.2691  -40.2642   -4.2900 C   0  0  0  0  0  0  0  0  0  0  0  0
  -21.4117  -40.2211   -3.5378 C   0  0  0  0  0  0  0  0  0  0  0  0
  -22.5804  -40.2819   -4.2588 C   0  0  0  0  0  0  0  0  0  0  0  0
  -23.7320  -40.2062   -3.4987 F   0  0  0  0  0  0  0  0  0  0  0  0
  -19.8111  -45.4009   -8.3826 N   0  0  0  0  0  0  0  0  0  0  0  0
  1  2  1  0
  2  3  2  0
  3  4  1  0
  4  5  2  0
  5  6  1  0
  6  7  1  0
  7  8  1  0
  8  9  1  0
  9 10  2  0
 10 11  1  0
 11 12  1  0
 12 13  1  0
 13 14  2  0
 14 15  1  0
 15 16  1  0
 17 16  1  1
 17 18  1  0
 18 19  1  0
 19 20  2  0
 17 21  1  0
 21 22  1  1
 21 23  1  0
 23 24  1  0
 24 25  1  0
 25 26  1  0
 26 27  1  0
 25 28  1  0
 28 29  2  0
 29 30  1  0
 30 31  2  0
 31 32  1  0
 32 33  2  0
 30 34  1  0
 34 35  1  0
 34 36  1  0
 34 37  1  0
 15 38  2  0
 38 39  1  0
 39 40  2  0
 40 41  1  0
  6 42  2  0
 19  4  1  0
 27 25  1  0
 33 28  1  0
 40 13  1  0
 42  2  1  0
M  END
$$$$
