
     RDKit          3D

 42 46  0  0  0  0  0  0  0  0999 V2000
  -17.5708  -43.7214   -4.2641 C   0  0  0  0  0  0  0  0  0  0  0  0
  -18.4975  -43.2819   -5.3375 C   0  0  0  0  0  0  0  0  0  0  0  0
  -18.0203  -42.6568   -6.4649 C   0  0  0  0  0  0  0  0  0  0  0  0
  -18.8433  -42.2101   -7.5293 C   0  0  0  0  0  0  0  0  0  0  0  0
  -20.2093  -42.4111   -7.4374 C   0  0  0  0  0  0  0  0  0  0  0  0
  -20.6883  -43.0374   -6.3111 C   0  0  0  0  0  0  0  0  0  0  0  0
  -22.0040  -43.4395   -5.8896 N   0  0  0  0  0  0  0  0  0  0  0  0
  -23.2001  -42.7218   -5.6659 C   0  0  0  0  0  0  0  0  0  0  0  0
  -23.8449  -42.0116   -6.8361 C   0  0  0  0  0  0  0  0  0  0  0  0
  -23.5444  -40.9565   -7.5053 C   0  0  0  0  0  0  0  0  0  0  0  0
  -24.1432  -40.2082   -8.6644 C   0  0  0  0  0  0  0  0  0  0  0  0
  -23.5077  -38.9354   -8.8548 O   0  0  0  0  0  0  0  0  0  0  0  0
  -22.3001  -38.4458   -8.3408 C   0  0  0  0  0  0  0  0  0  0  0  0
  -21.0282  -38.9807   -8.4723 C   0  0  0  0  0  0  0  0  0  0  0  0
  -19.9985  -38.3195   -7.8621 C   0  0  0  0  0  0  0  0  0  0  0  0
  -18.5504  -38.6730   -7.7716 C   0  0  0  0  0  0  0  0  0  0  0  0
  -17.8315  -39.0779   -9.0142 C   0  0  2  0  0  0  0  0  0  0  0  0
  -18.0293  -40.4533   -9.3494 N   0  0  0  0  0  0  0  0  0  0  0  0
  -17.9981  -41.6233   -8.5817 C   0  0  0  0  0  0  0  0  0  0  0  0
  -16.9275  -42.3580   -8.9128 O   0  0  0  0  0  0  0  0  0  0  0  0
  -16.4192  -38.5856   -9.0991 C   0  0  2  0  0  0  0  0  0  0  0  0
  -16.4504  -37.1944   -9.0913 O   0  0  0  0  0  0  0  0  0  0  0  0
  -15.6110  -39.1529  -10.2082 C   0  0  0  0  0  0  0  0  0  0  0  0
  -15.0069  -40.4114   -9.9106 N   0  0  0  0  0  0  0  0  0  0  0  0
  -13.5809  -40.4649  -10.0517 C   0  0  0  0  0  0  0  0  0  0  0  0
  -12.7198  -39.2966  -10.0715 C   0  0  0  0  0  0  0  0  0  0  0  0
  -12.8165  -40.0426   -8.7485 C   0  0  0  0  0  0  0  0  0  0  0  0
  -13.0831  -41.7539  -10.5910 C   0  0  0  0  0  0  0  0  0  0  0  0
  -13.9499  -42.8357  -10.7923 C   0  0  0  0  0  0  0  0  0  0  0  0
  -13.5653  -44.0424  -11.2743 C   0  0  0  0  0  0  0  0  0  0  0  0
  -12.2479  -44.2310  -11.5888 C   0  0  0  0  0  0  0  0  0  0  0  0
  -11.3416  -43.2071  -11.4149 C   0  0  0  0  0  0  0  0  0  0  0  0
  -11.7703  -41.9975  -10.9237 C   0  0  0  0  0  0  0  0  0  0  0  0
  -14.6007  -45.0979  -11.4419 C   0  0  0  0  0  0  0  0  0  0  0  0
  -14.4958  -46.1196  -10.3302 C   0  0  0  0  0  0  0  0  0  0  0  0
  -14.3930  -45.8607  -12.7401 C   0  0  0  0  0  0  0  0  0  0  0  0
  -15.9967  -44.5208  -11.4074 C   0  0  0  0  0  0  0  0  0  0  0  0
  -20.2647  -37.1316   -7.1366 C   0  0  0  0  0  0  0  0  0  0  0  0
  -21.5071  -36.5759   -6.9921 C   0  0  0  0  0  0  0  0  0  0  0  0
  -22.5227  -37.2628   -7.6134 C   0  0  0  0  0  0  0  0  0  0  0  0
  -23.7707  -36.6818   -7.4922 F   0  0  0  0  0  0  0  0  0  0  0  0
  -19.7981  -43.4409   -5.3145 N   0  0  0  0  0  0  0  0  0  0  0  0
  1  2  1  0
  2  3  2  0
  3  4  1  0
  4  5  2  0
  5  6  1  0
  6  7  1  0
  7  8  1  0
  8  9  1  0
  9 10  2  0
 10 11  1  0
 11 12  1  0
 12 13  1  0
 13 14  2  0
 14 15  1  0
 15 16  1  0
 17 16  1  1
 17 18  1  0
 18 19  1  0
 19 20  2  0
 17 21  1  0
 21 22  1  6
 21 23  1  0
 23 24  1  0
 24 25  1  0
 25 26  1  0
 26 27  1  0
 25 28  1  0
 28 29  2  0
 29 30  1  0
 30 31  2  0
 31 32  1  0
 32 33  2  0
 30 34  1  0
 34 35  1  0
 34 36  1  0
 34 37  1  0
 15 38  2  0
 38 39  1  0
 39 40  2  0
 40 41  1  0
  6 42  2  0
 19  4  1  0
 27 25  1  0
 33 28  1  0
 40 13  1  0
 42  2  1  0
M  END
$$$$
