
     RDKit          3D

 42 46  0  0  0  0  0  0  0  0999 V2000
  -18.8600  -43.1507  -11.1928 C   0  0  0  0  0  0  0  0  0  0  0  0
  -17.4771  -42.6299  -11.0496 C   0  0  0  0  0  0  0  0  0  0  0  0
  -17.1715  -41.7064  -10.0786 C   0  0  0  0  0  0  0  0  0  0  0  0
  -15.8760  -41.1649   -9.8824 C   0  0  0  0  0  0  0  0  0  0  0  0
  -14.8516  -41.5853  -10.7123 C   0  0  0  0  0  0  0  0  0  0  0  0
  -15.1552  -42.5101  -11.6834 C   0  0  0  0  0  0  0  0  0  0  0  0
  -14.3695  -43.1893  -12.6793 N   0  0  0  0  0  0  0  0  0  0  0  0
  -13.5761  -42.7280  -13.7532 C   0  0  0  0  0  0  0  0  0  0  0  0
  -12.3609  -41.8825  -13.4412 C   0  0  0  0  0  0  0  0  0  0  0  0
  -12.2049  -40.6725  -13.0372 C   0  0  0  0  0  0  0  0  0  0  0  0
  -11.0333  -39.7857  -12.7163 C   0  0  0  0  0  0  0  0  0  0  0  0
  -11.4396  -38.4213  -12.5335 O   0  0  0  0  0  0  0  0  0  0  0  0
  -12.7164  -37.8808  -12.3338 C   0  0  0  0  0  0  0  0  0  0  0  0
  -13.6294  -38.1750  -11.3333 C   0  0  0  0  0  0  0  0  0  0  0  0
  -14.8280  -37.5173  -11.3583 C   0  0  0  0  0  0  0  0  0  0  0  0
  -16.0196  -37.6592  -10.4694 C   0  0  0  0  0  0  0  0  0  0  0  0
  -15.8158  -37.6660   -8.9918 C   0  0  2  0  0  0  0  0  0  0  0  0
  -15.4299  -38.9470   -8.4884 N   0  0  0  0  0  0  0  0  0  0  0  0
  -15.9060  -40.2393   -8.7385 C   0  0  0  0  0  0  0  0  0  0  0  0
  -16.5341  -40.7122   -7.6535 O   0  0  0  0  0  0  0  0  0  0  0  0
  -16.8860  -36.9596   -8.2174 C   0  0  2  0  0  0  0  0  0  0  0  0
  -16.3663  -35.7450   -7.7805 O   0  0  0  0  0  0  0  0  0  0  0  0
  -17.5216  -37.7543   -7.1359 C   0  0  0  0  0  0  0  0  0  0  0  0
  -18.8870  -38.0913   -7.3796 N   0  0  0  0  0  0  0  0  0  0  0  0
  -19.4970  -38.9527   -6.4089 C   0  0  0  0  0  0  0  0  0  0  0  0
  -18.7745  -39.6122   -5.3364 C   0  0  0  0  0  0  0  0  0  0  0  0
  -19.5186  -38.3372   -4.9660 C   0  0  0  0  0  0  0  0  0  0  0  0
  -20.8317  -39.4569   -6.8143 C   0  0  0  0  0  0  0  0  0  0  0  0
  -21.3848  -40.5974   -6.2180 C   0  0  0  0  0  0  0  0  0  0  0  0
  -22.5933  -41.1180   -6.5417 C   0  0  0  0  0  0  0  0  0  0  0  0
  -23.3323  -40.5005   -7.5125 C   0  0  0  0  0  0  0  0  0  0  0  0
  -22.8466  -39.3732   -8.1398 C   0  0  0  0  0  0  0  0  0  0  0  0
  -21.6165  -38.8752   -7.7835 C   0  0  0  0  0  0  0  0  0  0  0  0
  -23.0552  -42.3330   -5.8173 C   0  0  0  0  0  0  0  0  0  0  0  0
  -24.4944  -42.6412   -6.1704 C   0  0  0  0  0  0  0  0  0  0  0  0
  -23.0252  -42.1126   -4.3137 C   0  0  0  0  0  0  0  0  0  0  0  0
  -22.2240  -43.5440   -6.1718 C   0  0  0  0  0  0  0  0  0  0  0  0
  -15.0846  -36.5734  -12.3838 C   0  0  0  0  0  0  0  0  0  0  0  0
  -14.2032  -36.2575  -13.3821 C   0  0  0  0  0  0  0  0  0  0  0  0
  -13.0084  -36.9354  -13.3334 C   0  0  0  0  0  0  0  0  0  0  0  0
  -12.1087  -36.5910  -14.3242 F   0  0  0  0  0  0  0  0  0  0  0  0
  -16.4627  -42.9847  -11.7997 N   0  0  0  0  0  0  0  0  0  0  0  0
  1  2  1  0
  2  3  2  0
  3  4  1  0
  4  5  2  0
  5  6  1  0
  6  7  1  0
  7  8  1  0
  8  9  1  0
  9 10  2  0
 10 11  1  0
 11 12  1  0
 12 13  1  0
 13 14  2  0
 14 15  1  0
 15 16  1  0
 17 16  1  6
 17 18  1  0
 18 19  1  0
 19 20  2  0
 17 21  1  0
 21 22  1  1
 21 23  1  0
 23 24  1  0
 24 25  1  0
 25 26  1  0
 26 27  1  0
 25 28  1  0
 28 29  2  0
 29 30  1  0
 30 31  2  0
 31 32  1  0
 32 33  2  0
 30 34  1  0
 34 35  1  0
 34 36  1  0
 34 37  1  0
 15 38  2  0
 38 39  1  0
 39 40  2  0
 40 41  1  0
  6 42  2  0
 19  4  1  0
 27 25  1  0
 33 28  1  0
 40 13  1  0
 42  2  1  0
M  END
$$$$
