
     RDKit          3D

 42 46  0  0  0  0  0  0  0  0999 V2000
  -14.8706  -42.7697   -5.6565 C   0  0  0  0  0  0  0  0  0  0  0  0
  -16.2128  -42.7774   -6.2909 C   0  0  0  0  0  0  0  0  0  0  0  0
  -16.4440  -42.0823   -7.4539 C   0  0  0  0  0  0  0  0  0  0  0  0
  -17.6971  -42.0434   -8.1158 C   0  0  0  0  0  0  0  0  0  0  0  0
  -18.7564  -42.7440   -7.5664 C   0  0  0  0  0  0  0  0  0  0  0  0
  -18.5267  -43.4411   -6.4038 C   0  0  0  0  0  0  0  0  0  0  0  0
  -19.3494  -44.2896   -5.5830 N   0  0  0  0  0  0  0  0  0  0  0  0
  -20.5604  -44.0702   -4.8894 C   0  0  0  0  0  0  0  0  0  0  0  0
  -21.7978  -43.7263   -5.6891 C   0  0  0  0  0  0  0  0  0  0  0  0
  -22.1766  -42.6757   -6.3249 C   0  0  0  0  0  0  0  0  0  0  0  0
  -23.3851  -42.2784   -7.1273 C   0  0  0  0  0  0  0  0  0  0  0  0
  -23.3872  -40.8724   -7.4158 O   0  0  0  0  0  0  0  0  0  0  0  0
  -22.3538  -39.9317   -7.3193 C   0  0  0  0  0  0  0  0  0  0  0  0
  -21.1133  -39.9483   -7.9376 C   0  0  0  0  0  0  0  0  0  0  0  0
  -20.2618  -38.9114   -7.6736 C   0  0  0  0  0  0  0  0  0  0  0  0
  -18.8591  -38.6811   -8.1310 C   0  0  0  0  0  0  0  0  0  0  0  0
  -18.5391  -38.8508   -9.5780 C   0  0  2  0  0  0  0  0  0  0  0  0
  -18.3133  -40.2145   -9.9425 N   0  0  0  0  0  0  0  0  0  0  0  0
  -17.5724  -41.2391   -9.3421 C   0  0  0  0  0  0  0  0  0  0  0  0
  -16.5010  -41.5280  -10.0931 O   0  0  0  0  0  0  0  0  0  0  0  0
  -17.5469  -37.8634  -10.1113 C   0  0  2  0  0  0  0  0  0  0  0  0
  -17.8893  -36.6066   -9.6217 O   0  0  0  0  0  0  0  0  0  0  0  0
  -17.3466  -37.8907  -11.5825 C   0  0  0  0  0  0  0  0  0  0  0  0
  -16.6671  -39.0510  -12.0612 N   0  0  0  0  0  0  0  0  0  0  0  0
  -15.2432  -38.9316  -12.1816 C   0  0  0  0  0  0  0  0  0  0  0  0
  -14.3131  -40.0259  -11.9705 C   0  0  0  0  0  0  0  0  0  0  0  0
  -14.6622  -39.7051  -13.4167 C   0  0  0  0  0  0  0  0  0  0  0  0
  -14.7555  -37.5319  -12.1271 C   0  0  0  0  0  0  0  0  0  0  0  0
  -13.4062  -37.2279  -12.3492 C   0  0  0  0  0  0  0  0  0  0  0  0
  -12.8893  -35.9759  -12.3091 C   0  0  0  0  0  0  0  0  0  0  0  0
  -13.7277  -34.9310  -12.0347 C   0  0  0  0  0  0  0  0  0  0  0  0
  -15.0676  -35.1606  -11.8063 C   0  0  0  0  0  0  0  0  0  0  0  0
  -15.5541  -36.4446  -11.8560 C   0  0  0  0  0  0  0  0  0  0  0  0
  -11.4349  -35.8041  -12.5727 C   0  0  0  0  0  0  0  0  0  0  0  0
  -11.1225  -34.3545  -12.8762 C   0  0  0  0  0  0  0  0  0  0  0  0
  -11.0083  -36.5956  -13.7982 C   0  0  0  0  0  0  0  0  0  0  0  0
  -10.5996  -36.2165  -11.3832 C   0  0  0  0  0  0  0  0  0  0  0  0
  -20.6739  -37.8757   -6.7984 C   0  0  0  0  0  0  0  0  0  0  0  0
  -21.8922  -37.8279   -6.1766 C   0  0  0  0  0  0  0  0  0  0  0  0
  -22.7261  -38.8837   -6.4582 C   0  0  0  0  0  0  0  0  0  0  0  0
  -23.9670  -38.8161   -5.8539 F   0  0  0  0  0  0  0  0  0  0  0  0
  -17.2567  -43.4184   -5.8251 N   0  0  0  0  0  0  0  0  0  0  0  0
  1  2  1  0
  2  3  2  0
  3  4  1  0
  4  5  2  0
  5  6  1  0
  6  7  1  0
  7  8  1  0
  8  9  1  0
  9 10  2  0
 10 11  1  0
 11 12  1  0
 12 13  1  0
 13 14  2  0
 14 15  1  0
 15 16  1  0
 17 16  1  1
 17 18  1  0
 18 19  1  0
 19 20  2  0
 17 21  1  0
 21 22  1  6
 21 23  1  0
 23 24  1  0
 24 25  1  0
 25 26  1  0
 26 27  1  0
 25 28  1  0
 28 29  2  0
 29 30  1  0
 30 31  2  0
 31 32  1  0
 32 33  2  0
 30 34  1  0
 34 35  1  0
 34 36  1  0
 34 37  1  0
 15 38  2  0
 38 39  1  0
 39 40  2  0
 40 41  1  0
  6 42  2  0
 19  4  1  0
 27 25  1  0
 33 28  1  0
 40 13  1  0
 42  2  1  0
M  END
$$$$
