
     RDKit          3D

 42 46  0  0  0  0  0  0  0  0999 V2000
  -18.1256  -46.4689   -7.5427 C   0  0  0  0  0  0  0  0  0  0  0  0
  -18.7209  -45.2153   -8.0701 C   0  0  0  0  0  0  0  0  0  0  0  0
  -17.9440  -44.0995   -8.2719 C   0  0  0  0  0  0  0  0  0  0  0  0
  -18.4415  -42.8696   -8.7715 C   0  0  0  0  0  0  0  0  0  0  0  0
  -19.7879  -42.7772   -9.0777 C   0  0  0  0  0  0  0  0  0  0  0  0
  -20.5663  -43.8927   -8.8778 C   0  0  0  0  0  0  0  0  0  0  0  0
  -21.9574  -44.1795   -9.1081 N   0  0  0  0  0  0  0  0  0  0  0  0
  -23.1495  -43.5971   -8.6228 C   0  0  0  0  0  0  0  0  0  0  0  0
  -23.4399  -42.1532   -8.9689 C   0  0  0  0  0  0  0  0  0  0  0  0
  -22.9431  -41.0333   -8.5810 C   0  0  0  0  0  0  0  0  0  0  0  0
  -23.1911  -39.5812   -8.8844 C   0  0  0  0  0  0  0  0  0  0  0  0
  -22.4927  -38.7247   -7.9685 O   0  0  0  0  0  0  0  0  0  0  0  0
  -21.4521  -39.0167   -7.0774 C   0  0  0  0  0  0  0  0  0  0  0  0
  -20.2064  -39.5573   -7.3554 C   0  0  0  0  0  0  0  0  0  0  0  0
  -19.3580  -39.7634   -6.3030 C   0  0  0  0  0  0  0  0  0  0  0  0
  -17.9965  -40.3763   -6.2734 C   0  0  0  0  0  0  0  0  0  0  0  0
  -16.9847  -39.9254   -7.2721 C   0  0  2  0  0  0  0  0  0  0  0  0
  -17.1244  -40.5735   -8.5386 N   0  0  0  0  0  0  0  0  0  0  0  0
  -17.3309  -41.9115   -8.8936 C   0  0  0  0  0  0  0  0  0  0  0  0
  -16.2318  -42.4025   -9.4820 O   0  0  0  0  0  0  0  0  0  0  0  0
  -15.5875  -39.8363   -6.7391 C   0  0  2  0  0  0  0  0  0  0  0  0
  -15.6112  -39.0200   -5.6124 O   0  0  0  0  0  0  0  0  0  0  0  0
  -14.5502  -39.4488   -7.7286 C   0  0  0  0  0  0  0  0  0  0  0  0
  -14.9722  -39.5419   -9.0889 N   0  0  0  0  0  0  0  0  0  0  0  0
  -14.1797  -38.8136  -10.0364 C   0  0  0  0  0  0  0  0  0  0  0  0
  -13.0050  -38.0351   -9.6885 C   0  0  0  0  0  0  0  0  0  0  0  0
  -12.7517  -39.4281  -10.2468 C   0  0  0  0  0  0  0  0  0  0  0  0
  -14.8700  -38.5659  -11.3257 C   0  0  0  0  0  0  0  0  0  0  0  0
  -16.1033  -37.9032  -11.3691 C   0  0  0  0  0  0  0  0  0  0  0  0
  -16.7931  -37.6484  -12.5074 C   0  0  0  0  0  0  0  0  0  0  0  0
  -16.2630  -38.0596  -13.6990 C   0  0  0  0  0  0  0  0  0  0  0  0
  -15.0520  -38.7175  -13.7272 C   0  0  0  0  0  0  0  0  0  0  0  0
  -14.3824  -38.9572  -12.5515 C   0  0  0  0  0  0  0  0  0  0  0  0
  -18.0904  -36.9276  -12.3999 C   0  0  0  0  0  0  0  0  0  0  0  0
  -17.8824  -35.5568  -11.7928 C   0  0  0  0  0  0  0  0  0  0  0  0
  -19.0443  -37.6622  -11.4721 C   0  0  0  0  0  0  0  0  0  0  0  0
  -18.7380  -36.7394  -13.7521 C   0  0  0  0  0  0  0  0  0  0  0  0
  -19.7744  -39.4182   -4.9931 C   0  0  0  0  0  0  0  0  0  0  0  0
  -20.9945  -38.8791   -4.6866 C   0  0  0  0  0  0  0  0  0  0  0  0
  -21.8272  -38.6854   -5.7630 C   0  0  0  0  0  0  0  0  0  0  0  0
  -23.0458  -38.1117   -5.4540 F   0  0  0  0  0  0  0  0  0  0  0  0
  -19.9847  -45.0599   -8.3801 N   0  0  0  0  0  0  0  0  0  0  0  0
  1  2  1  0
  2  3  2  0
  3  4  1  0
  4  5  2  0
  5  6  1  0
  6  7  1  0
  7  8  1  0
  8  9  1  0
  9 10  2  0
 10 11  1  0
 11 12  1  0
 12 13  1  0
 13 14  2  0
 14 15  1  0
 15 16  1  0
 17 16  1  1
 17 18  1  0
 18 19  1  0
 19 20  2  0
 17 21  1  0
 21 22  1  1
 21 23  1  0
 23 24  1  0
 24 25  1  0
 25 26  1  0
 26 27  1  0
 25 28  1  0
 28 29  2  0
 29 30  1  0
 30 31  2  0
 31 32  1  0
 32 33  2  0
 30 34  1  0
 34 35  1  0
 34 36  1  0
 34 37  1  0
 15 38  2  0
 38 39  1  0
 39 40  2  0
 40 41  1  0
  6 42  2  0
 19  4  1  0
 27 25  1  0
 33 28  1  0
 40 13  1  0
 42  2  1  0
M  END
$$$$
