
     RDKit          3D

 42 46  0  0  0  0  0  0  0  0999 V2000
  -19.8313  -40.5059  -12.9716 C   0  0  0  0  0  0  0  0  0  0  0  0
  -18.4493  -40.8643  -12.5646 C   0  0  0  0  0  0  0  0  0  0  0  0
  -18.0829  -40.8560  -11.2399 C   0  0  0  0  0  0  0  0  0  0  0  0
  -16.7841  -41.1859  -10.7769 C   0  0  0  0  0  0  0  0  0  0  0  0
  -15.8214  -41.5389  -11.7061 C   0  0  0  0  0  0  0  0  0  0  0  0
  -16.1865  -41.5490  -13.0316 C   0  0  0  0  0  0  0  0  0  0  0  0
  -15.4900  -41.8871  -14.2445 N   0  0  0  0  0  0  0  0  0  0  0  0
  -14.3219  -41.3767  -14.8533 C   0  0  0  0  0  0  0  0  0  0  0  0
  -13.0067  -41.5124  -14.1177 C   0  0  0  0  0  0  0  0  0  0  0  0
  -12.5077  -40.9351  -13.0837 C   0  0  0  0  0  0  0  0  0  0  0  0
  -11.2173  -41.0253  -12.3163 C   0  0  0  0  0  0  0  0  0  0  0  0
  -11.0937  -39.9571  -11.3657 O   0  0  0  0  0  0  0  0  0  0  0  0
  -12.0619  -39.0718  -10.8747 C   0  0  0  0  0  0  0  0  0  0  0  0
  -13.2506  -39.3685  -10.2264 C   0  0  0  0  0  0  0  0  0  0  0  0
  -14.0437  -38.3202   -9.8499 C   0  0  0  0  0  0  0  0  0  0  0  0
  -15.3883  -38.3187   -9.2002 C   0  0  0  0  0  0  0  0  0  0  0  0
  -15.6102  -39.1872   -8.0081 C   0  0  2  0  0  0  0  0  0  0  0  0
  -15.9045  -40.5428   -8.3533 N   0  0  0  0  0  0  0  0  0  0  0  0
  -16.7592  -41.1070   -9.3074 C   0  0  0  0  0  0  0  0  0  0  0  0
  -17.7892  -41.7097   -8.6981 O   0  0  0  0  0  0  0  0  0  0  0  0
  -16.4871  -38.5802   -6.9561 C   0  0  2  0  0  0  0  0  0  0  0  0
  -15.6660  -38.0995   -5.9406 O   0  0  0  0  0  0  0  0  0  0  0  0
  -17.5891  -39.4463   -6.4657 C   0  0  0  0  0  0  0  0  0  0  0  0
  -18.8250  -39.2728   -7.1583 N   0  0  0  0  0  0  0  0  0  0  0  0
  -19.8555  -40.2165   -6.8360 C   0  0  0  0  0  0  0  0  0  0  0  0
  -19.6056  -41.5738   -6.3861 C   0  0  0  0  0  0  0  0  0  0  0  0
  -19.9270  -40.5518   -5.3051 C   0  0  0  0  0  0  0  0  0  0  0  0
  -21.1856  -39.8577   -7.3857 C   0  0  0  0  0  0  0  0  0  0  0  0
  -21.7027  -38.5641   -7.2393 C   0  0  0  0  0  0  0  0  0  0  0  0
  -22.9104  -38.1673   -7.7087 C   0  0  0  0  0  0  0  0  0  0  0  0
  -23.6861  -39.0786   -8.3704 C   0  0  0  0  0  0  0  0  0  0  0  0
  -23.2369  -40.3694   -8.5493 C   0  0  0  0  0  0  0  0  0  0  0  0
  -22.0061  -40.7337   -8.0588 C   0  0  0  0  0  0  0  0  0  0  0  0
  -23.3258  -36.7562   -7.4841 C   0  0  0  0  0  0  0  0  0  0  0  0
  -23.2644  -36.4175   -6.0103 C   0  0  0  0  0  0  0  0  0  0  0  0
  -24.7694  -36.5413   -7.9090 C   0  0  0  0  0  0  0  0  0  0  0  0
  -22.4287  -35.7868   -8.2178 C   0  0  0  0  0  0  0  0  0  0  0  0
  -13.6257  -36.9946  -10.1266 C   0  0  0  0  0  0  0  0  0  0  0  0
  -12.4571  -36.6687  -10.7601 C   0  0  0  0  0  0  0  0  0  0  0  0
  -11.6816  -37.7419  -11.1292 C   0  0  0  0  0  0  0  0  0  0  0  0
  -10.4877  -37.4082  -11.7400 F   0  0  0  0  0  0  0  0  0  0  0  0
  -17.4915  -41.2074  -13.3906 N   0  0  0  0  0  0  0  0  0  0  0  0
  1  2  1  0
  2  3  2  0
  3  4  1  0
  4  5  2  0
  5  6  1  0
  6  7  1  0
  7  8  1  0
  8  9  1  0
  9 10  2  0
 10 11  1  0
 11 12  1  0
 12 13  1  0
 13 14  2  0
 14 15  1  0
 15 16  1  0
 17 16  1  6
 17 18  1  0
 18 19  1  0
 19 20  2  0
 17 21  1  0
 21 22  1  1
 21 23  1  0
 23 24  1  0
 24 25  1  0
 25 26  1  0
 26 27  1  0
 25 28  1  0
 28 29  2  0
 29 30  1  0
 30 31  2  0
 31 32  1  0
 32 33  2  0
 30 34  1  0
 34 35  1  0
 34 36  1  0
 34 37  1  0
 15 38  2  0
 38 39  1  0
 39 40  2  0
 40 41  1  0
  6 42  2  0
 19  4  1  0
 27 25  1  0
 33 28  1  0
 40 13  1  0
 42  2  1  0
M  END
$$$$
