
     RDKit          3D

 42 46  0  0  0  0  0  0  0  0999 V2000
  -17.4419  -46.6584   -6.6258 C   0  0  0  0  0  0  0  0  0  0  0  0
  -18.4835  -45.7253   -7.1242 C   0  0  0  0  0  0  0  0  0  0  0  0
  -18.1584  -44.4413   -7.4917 C   0  0  0  0  0  0  0  0  0  0  0  0
  -19.0974  -43.4958   -7.9755 C   0  0  0  0  0  0  0  0  0  0  0  0
  -20.4223  -43.8789   -8.0885 C   0  0  0  0  0  0  0  0  0  0  0  0
  -20.7492  -45.1632   -7.7226 C   0  0  0  0  0  0  0  0  0  0  0  0
  -21.9789  -45.9102   -7.7352 N   0  0  0  0  0  0  0  0  0  0  0  0
  -23.2307  -45.7066   -7.1128 C   0  0  0  0  0  0  0  0  0  0  0  0
  -24.0302  -44.4774   -7.4855 C   0  0  0  0  0  0  0  0  0  0  0  0
  -23.8978  -43.2249   -7.2302 C   0  0  0  0  0  0  0  0  0  0  0  0
  -24.6553  -41.9700   -7.5672 C   0  0  0  0  0  0  0  0  0  0  0  0
  -24.1829  -40.8487   -6.8059 O   0  0  0  0  0  0  0  0  0  0  0  0
  -23.0065  -40.6974   -6.0607 C   0  0  0  0  0  0  0  0  0  0  0  0
  -21.6940  -40.8244   -6.4879 C   0  0  0  0  0  0  0  0  0  0  0  0
  -20.7068  -40.6398   -5.5599 C   0  0  0  0  0  0  0  0  0  0  0  0
  -19.2252  -40.7674   -5.6962 C   0  0  0  0  0  0  0  0  0  0  0  0
  -18.5514  -40.1078   -6.8519 C   0  0  2  0  0  0  0  0  0  0  0  0
  -18.6142  -40.8838   -8.0508 N   0  0  0  0  0  0  0  0  0  0  0  0
  -18.3980  -42.2433   -8.3045 C   0  0  0  0  0  0  0  0  0  0  0  0
  -17.2761  -42.4012   -9.0199 O   0  0  0  0  0  0  0  0  0  0  0  0
  -17.2132  -39.5157   -6.5312 C   0  0  2  0  0  0  0  0  0  0  0  0
  -17.3919  -38.5803   -5.5166 O   0  0  0  0  0  0  0  0  0  0  0  0
  -16.4526  -38.9901   -7.6932 C   0  0  0  0  0  0  0  0  0  0  0  0
  -15.5801  -39.9411   -8.3027 N   0  0  0  0  0  0  0  0  0  0  0  0
  -14.4251  -39.3959   -8.9548 C   0  0  0  0  0  0  0  0  0  0  0  0
  -13.0571  -39.7294   -8.6022 C   0  0  0  0  0  0  0  0  0  0  0  0
  -13.6408  -40.4549   -9.8060 C   0  0  0  0  0  0  0  0  0  0  0  0
  -14.7044  -38.1621   -9.7291 C   0  0  0  0  0  0  0  0  0  0  0  0
  -13.6619  -37.3606  -10.2118 C   0  0  0  0  0  0  0  0  0  0  0  0
  -13.8416  -36.2190  -10.9193 C   0  0  0  0  0  0  0  0  0  0  0  0
  -15.1188  -35.8100  -11.1869 C   0  0  0  0  0  0  0  0  0  0  0  0
  -16.1910  -36.5528  -10.7410 C   0  0  0  0  0  0  0  0  0  0  0  0
  -15.9678  -37.7051  -10.0266 C   0  0  0  0  0  0  0  0  0  0  0  0
  -12.6368  -35.4732  -11.3737 C   0  0  0  0  0  0  0  0  0  0  0  0
  -11.9650  -34.7930  -10.2003 C   0  0  0  0  0  0  0  0  0  0  0  0
  -13.0172  -34.3672  -12.3444 C   0  0  0  0  0  0  0  0  0  0  0  0
  -11.6228  -36.3901  -12.0173 C   0  0  0  0  0  0  0  0  0  0  0  0
  -21.0561  -40.3263   -4.2227 C   0  0  0  0  0  0  0  0  0  0  0  0
  -22.3407  -40.1897   -3.7709 C   0  0  0  0  0  0  0  0  0  0  0  0
  -23.3119  -40.3831   -4.7242 C   0  0  0  0  0  0  0  0  0  0  0  0
  -24.6065  -40.2131   -4.2719 F   0  0  0  0  0  0  0  0  0  0  0  0
  -19.7530  -46.0225   -7.2559 N   0  0  0  0  0  0  0  0  0  0  0  0
  1  2  1  0
  2  3  2  0
  3  4  1  0
  4  5  2  0
  5  6  1  0
  6  7  1  0
  7  8  1  0
  8  9  1  0
  9 10  2  0
 10 11  1  0
 11 12  1  0
 12 13  1  0
 13 14  2  0
 14 15  1  0
 15 16  1  0
 17 16  1  1
 17 18  1  0
 18 19  1  0
 19 20  2  0
 17 21  1  0
 21 22  1  1
 21 23  1  0
 23 24  1  0
 24 25  1  0
 25 26  1  0
 26 27  1  0
 25 28  1  0
 28 29  2  0
 29 30  1  0
 30 31  2  0
 31 32  1  0
 32 33  2  0
 30 34  1  0
 34 35  1  0
 34 36  1  0
 34 37  1  0
 15 38  2  0
 38 39  1  0
 39 40  2  0
 40 41  1  0
  6 42  2  0
 19  4  1  0
 27 25  1  0
 33 28  1  0
 40 13  1  0
 42  2  1  0
M  END
$$$$
