
     RDKit          3D

 42 46  0  0  0  0  0  0  0  0999 V2000
  -18.8714  -42.9557  -11.6966 C   0  0  0  0  0  0  0  0  0  0  0  0
  -17.4703  -42.4646  -11.6928 C   0  0  0  0  0  0  0  0  0  0  0  0
  -16.9022  -41.9710  -10.5426 C   0  0  0  0  0  0  0  0  0  0  0  0
  -15.5726  -41.4854  -10.4630 C   0  0  0  0  0  0  0  0  0  0  0  0
  -14.7923  -41.5059  -11.6057 C   0  0  0  0  0  0  0  0  0  0  0  0
  -15.3585  -42.0005  -12.7569 C   0  0  0  0  0  0  0  0  0  0  0  0
  -14.8612  -42.2074  -14.0911 N   0  0  0  0  0  0  0  0  0  0  0  0
  -14.3205  -41.3321  -15.0592 C   0  0  0  0  0  0  0  0  0  0  0  0
  -13.0272  -40.6144  -14.7407 C   0  0  0  0  0  0  0  0  0  0  0  0
  -12.7237  -39.6461  -13.9521 C   0  0  0  0  0  0  0  0  0  0  0  0
  -11.4688  -38.8958  -13.5995 C   0  0  0  0  0  0  0  0  0  0  0  0
  -11.7557  -37.7270  -12.8175 O   0  0  0  0  0  0  0  0  0  0  0  0
  -12.9231  -37.3658  -12.1326 C   0  0  0  0  0  0  0  0  0  0  0  0
  -13.5892  -38.0646  -11.1379 C   0  0  0  0  0  0  0  0  0  0  0  0
  -14.7277  -37.5053  -10.6271 C   0  0  0  0  0  0  0  0  0  0  0  0
  -15.6832  -38.0340   -9.6084 C   0  0  0  0  0  0  0  0  0  0  0  0
  -15.1395  -38.5976   -8.3389 C   0  0  2  0  0  0  0  0  0  0  0  0
  -14.7076  -39.9538   -8.4712 N   0  0  0  0  0  0  0  0  0  0  0  0
  -15.2899  -41.0722   -9.0790 C   0  0  0  0  0  0  0  0  0  0  0  0
  -15.6680  -41.9546   -8.1443 O   0  0  0  0  0  0  0  0  0  0  0  0
  -15.9637  -38.2942   -7.1254 C   0  0  2  0  0  0  0  0  0  0  0  0
  -15.6076  -39.1989   -6.1299 O   0  0  0  0  0  0  0  0  0  0  0  0
  -17.4289  -38.2115   -7.3529 C   0  0  0  0  0  0  0  0  0  0  0  0
  -17.9442  -39.2123   -8.2305 N   0  0  0  0  0  0  0  0  0  0  0  0
  -19.3507  -39.1376   -8.5001 C   0  0  0  0  0  0  0  0  0  0  0  0
  -20.0042  -37.9922   -9.1068 C   0  0  0  0  0  0  0  0  0  0  0  0
  -19.6863  -39.1578  -10.0324 C   0  0  0  0  0  0  0  0  0  0  0  0
  -20.1559  -40.1284   -7.7451 C   0  0  0  0  0  0  0  0  0  0  0  0
  -20.9207  -39.7435   -6.6364 C   0  0  0  0  0  0  0  0  0  0  0  0
  -21.6739  -40.5931   -5.8967 C   0  0  0  0  0  0  0  0  0  0  0  0
  -21.6984  -41.9157   -6.2433 C   0  0  0  0  0  0  0  0  0  0  0  0
  -20.9684  -42.3614   -7.3244 C   0  0  0  0  0  0  0  0  0  0  0  0
  -20.2168  -41.4688   -8.0500 C   0  0  0  0  0  0  0  0  0  0  0  0
  -22.4407  -40.0390   -4.7482 C   0  0  0  0  0  0  0  0  0  0  0  0
  -23.6891  -40.8591   -4.5039 C   0  0  0  0  0  0  0  0  0  0  0  0
  -22.9131  -38.6246   -5.0429 C   0  0  0  0  0  0  0  0  0  0  0  0
  -21.6258  -40.0497   -3.4759 C   0  0  0  0  0  0  0  0  0  0  0  0
  -15.1723  -36.2535  -11.1207 C   0  0  0  0  0  0  0  0  0  0  0  0
  -14.5353  -35.5373  -12.0977 C   0  0  0  0  0  0  0  0  0  0  0  0
  -13.3960  -36.1243  -12.5942 C   0  0  0  0  0  0  0  0  0  0  0  0
  -12.7381  -35.3837  -13.5578 F   0  0  0  0  0  0  0  0  0  0  0  0
  -16.6779  -42.4558  -12.7366 N   0  0  0  0  0  0  0  0  0  0  0  0
  1  2  1  0
  2  3  2  0
  3  4  1  0
  4  5  2  0
  5  6  1  0
  6  7  1  0
  7  8  1  0
  8  9  1  0
  9 10  2  0
 10 11  1  0
 11 12  1  0
 12 13  1  0
 13 14  2  0
 14 15  1  0
 15 16  1  0
 17 16  1  6
 17 18  1  0
 18 19  1  0
 19 20  2  0
 17 21  1  0
 21 22  1  1
 21 23  1  0
 23 24  1  0
 24 25  1  0
 25 26  1  0
 26 27  1  0
 25 28  1  0
 28 29  2  0
 29 30  1  0
 30 31  2  0
 31 32  1  0
 32 33  2  0
 30 34  1  0
 34 35  1  0
 34 36  1  0
 34 37  1  0
 15 38  2  0
 38 39  1  0
 39 40  2  0
 40 41  1  0
  6 42  2  0
 19  4  1  0
 27 25  1  0
 33 28  1  0
 40 13  1  0
 42  2  1  0
M  END
$$$$
