
     RDKit          3D

 36 38  0  0  0  0  0  0  0  0999 V2000
  -22.6957  -39.9490   -4.5650 C   0  0  0  0  0  0  0  0  0  0  0  0
  -23.1305  -40.5868   -5.8432 C   0  0  0  0  0  0  0  0  0  0  0  0
  -22.6015  -42.0261   -5.8447 C   0  0  0  0  0  0  0  0  0  0  0  0
  -22.6391  -39.8501   -7.0296 C   0  0  0  0  0  0  0  0  0  0  0  0
  -23.3817  -39.9016   -8.1892 C   0  0  0  0  0  0  0  0  0  0  0  0
  -22.9042  -39.2063   -9.2946 C   0  0  0  0  0  0  0  0  0  0  0  0
  -21.7317  -38.4832   -9.2589 C   0  0  0  0  0  0  0  0  0  0  0  0
  -20.9939  -38.4367   -8.0946 C   0  0  0  0  0  0  0  0  0  0  0  0
  -19.7423  -37.6941   -7.9717 C   0  0  0  0  0  0  0  0  0  0  0  0
  -18.9077  -38.1308   -6.8842 N   0  0  0  0  0  0  0  0  0  0  0  0
  -18.1994  -39.3520   -7.1814 C   0  0  0  0  0  0  0  0  0  0  0  0
  -16.8132  -39.1880   -7.6950 C   0  0  1  0  0  0  0  0  0  0  0  0
  -16.0541  -40.1461   -6.9452 O   0  0  0  0  0  0  0  0  0  0  0  0
  -16.5718  -39.5823   -9.1221 C   0  0  2  0  0  0  0  0  0  0  0  0
  -16.0764  -38.4843  -10.0158 C   0  0  0  0  0  0  0  0  0  0  0  0
  -14.5521  -38.4549  -10.1950 C   0  0  0  0  0  0  0  0  0  0  0  0
  -14.1720  -37.3626   -9.1684 C   0  0  0  0  0  0  0  0  0  0  0  0
  -13.7621  -39.1356  -10.9509 C   0  0  0  0  0  0  0  0  0  0  0  0
  -13.7899  -40.2389  -11.9968 C   0  0  0  0  0  0  0  0  0  0  0  0
  -12.8610  -41.3610  -11.8400 C   0  0  0  0  0  0  0  0  0  0  0  0
  -11.8927  -41.4081  -10.7325 C   0  0  0  0  0  0  0  0  0  0  0  0
  -12.2261  -42.3045   -9.5718 C   0  0  0  0  0  0  0  0  0  0  0  0
  -12.1098  -43.7704   -9.8492 C   0  0  0  0  0  0  0  0  0  0  0  0
  -12.9515  -44.5295   -8.8495 C   0  0  0  0  0  0  0  0  0  0  0  0
  -14.2145  -44.9633   -9.3655 N   0  0  0  0  0  0  0  0  0  0  0  0
  -15.5048  -44.3169   -9.3776 C   0  0  0  0  0  0  0  0  0  0  0  0
  -15.9118  -43.0718   -9.7738 C   0  0  0  0  0  0  0  0  0  0  0  0
  -17.2569  -42.7916   -9.6086 C   0  0  0  0  0  0  0  0  0  0  0  0
  -18.1171  -43.7801   -9.0583 C   0  0  0  0  0  0  0  0  0  0  0  0
  -17.6839  -45.0265   -8.6702 C   0  0  0  0  0  0  0  0  0  0  0  0
  -18.6319  -46.0201   -8.1076 C   0  0  0  0  0  0  0  0  0  0  0  0
  -16.3950  -45.2504   -8.8428 N   0  0  0  0  0  0  0  0  0  0  0  0
  -18.0304  -41.5616   -9.8875 C   0  0  0  0  0  0  0  0  0  0  0  0
  -19.2059  -41.8050  -10.4265 O   0  0  0  0  0  0  0  0  0  0  0  0
  -17.7803  -40.2088   -9.6999 N   0  0  0  0  0  0  0  0  0  0  0  0
  -21.4702  -39.1251   -7.0053 C   0  0  0  0  0  0  0  0  0  0  0  0
  1  2  1  0
  2  3  1  0
  2  4  1  0
  4  5  2  0
  5  6  1  0
  6  7  2  0
  7  8  1  0
  8  9  1  0
  9 10  1  0
 10 11  1  0
 11 12  1  0
 12 13  1  1
 12 14  1  0
 14 15  1  6
 15 16  1  0
 16 17  1  0
 16 18  2  0
 18 19  1  0
 19 20  1  0
 20 21  1  0
 21 22  1  0
 22 23  1  0
 23 24  1  0
 24 25  1  0
 25 26  1  0
 26 27  2  0
 27 28  1  0
 28 29  2  0
 29 30  1  0
 30 31  1  0
 30 32  2  0
 28 33  1  0
 33 34  2  0
 33 35  1  0
  8 36  2  0
 32 26  1  0
 35 14  1  0
 36  4  1  0
M  END
$$$$
