
     RDKit          3D

 36 38  0  0  0  0  0  0  0  0999 V2000
  -23.2781  -41.0729   -5.4191 C   0  0  0  0  0  0  0  0  0  0  0  0
  -22.3963  -39.8844   -5.2201 C   0  0  0  0  0  0  0  0  0  0  0  0
  -23.1581  -38.8859   -4.3404 C   0  0  0  0  0  0  0  0  0  0  0  0
  -22.0077  -39.2571   -6.5035 C   0  0  0  0  0  0  0  0  0  0  0  0
  -22.9104  -39.2766   -7.5444 C   0  0  0  0  0  0  0  0  0  0  0  0
  -22.5282  -38.6853   -8.7434 C   0  0  0  0  0  0  0  0  0  0  0  0
  -21.2951  -38.0937   -8.9119 C   0  0  0  0  0  0  0  0  0  0  0  0
  -20.3969  -38.0785   -7.8654 C   0  0  0  0  0  0  0  0  0  0  0  0
  -19.0714  -37.4724   -7.9597 C   0  0  0  0  0  0  0  0  0  0  0  0
  -18.0683  -38.3433   -8.5119 N   0  0  0  0  0  0  0  0  0  0  0  0
  -17.2716  -38.9890   -7.4972 C   0  0  0  0  0  0  0  0  0  0  0  0
  -16.1355  -39.8116   -7.9919 C   0  0  1  0  0  0  0  0  0  0  0  0
  -15.8510  -40.6958   -6.8993 O   0  0  0  0  0  0  0  0  0  0  0  0
  -16.4225  -40.7402   -9.1345 C   0  0  2  0  0  0  0  0  0  0  0  0
  -15.4715  -40.6475  -10.2907 C   0  0  0  0  0  0  0  0  0  0  0  0
  -14.3425  -41.6873  -10.2650 C   0  0  0  0  0  0  0  0  0  0  0  0
  -13.1976  -40.8405   -9.6620 C   0  0  0  0  0  0  0  0  0  0  0  0
  -14.3077  -42.9271  -10.6121 C   0  0  0  0  0  0  0  0  0  0  0  0
  -15.2000  -44.0183  -11.1823 C   0  0  0  0  0  0  0  0  0  0  0  0
  -15.2137  -45.3195  -10.5090 C   0  0  0  0  0  0  0  0  0  0  0  0
  -14.3589  -45.5899   -9.3416 C   0  0  0  0  0  0  0  0  0  0  0  0
  -15.0186  -45.5587   -7.9905 C   0  0  0  0  0  0  0  0  0  0  0  0
  -15.9257  -46.7132   -7.7012 C   0  0  0  0  0  0  0  0  0  0  0  0
  -16.8990  -46.3154   -6.6156 C   0  0  0  0  0  0  0  0  0  0  0  0
  -18.1987  -45.9638   -7.1021 N   0  0  0  0  0  0  0  0  0  0  0  0
  -18.7421  -44.6931   -7.5177 C   0  0  0  0  0  0  0  0  0  0  0  0
  -18.2948  -43.7357   -8.3874 C   0  0  0  0  0  0  0  0  0  0  0  0
  -19.0910  -42.6110   -8.5142 C   0  0  0  0  0  0  0  0  0  0  0  0
  -20.2935  -42.5142   -7.7628 C   0  0  0  0  0  0  0  0  0  0  0  0
  -20.7234  -43.4925   -6.8966 C   0  0  0  0  0  0  0  0  0  0  0  0
  -21.9928  -43.3374   -6.1437 C   0  0  0  0  0  0  0  0  0  0  0  0
  -19.9335  -44.5455   -6.8045 N   0  0  0  0  0  0  0  0  0  0  0  0
  -18.9094  -41.3826   -9.3186 C   0  0  0  0  0  0  0  0  0  0  0  0
  -20.0235  -40.9690   -9.8836 O   0  0  0  0  0  0  0  0  0  0  0  0
  -17.8160  -40.5749   -9.6012 N   0  0  0  0  0  0  0  0  0  0  0  0
  -20.7796  -38.6636   -6.6829 C   0  0  0  0  0  0  0  0  0  0  0  0
  1  2  1  0
  2  3  1  0
  2  4  1  0
  4  5  2  0
  5  6  1  0
  6  7  2  0
  7  8  1  0
  8  9  1  0
  9 10  1  0
 10 11  1  0
 11 12  1  0
 12 13  1  1
 12 14  1  0
 14 15  1  6
 15 16  1  0
 16 17  1  0
 16 18  2  0
 18 19  1  0
 19 20  1  0
 20 21  1  0
 21 22  1  0
 22 23  1  0
 23 24  1  0
 24 25  1  0
 25 26  1  0
 26 27  2  0
 27 28  1  0
 28 29  2  0
 29 30  1  0
 30 31  1  0
 30 32  2  0
 28 33  1  0
 33 34  2  0
 33 35  1  0
  8 36  2  0
 32 26  1  0
 35 14  1  0
 36  4  1  0
M  END
$$$$
