
     RDKit          3D

 36 38  0  0  0  0  0  0  0  0999 V2000
  -11.3704  -35.4660  -12.9894 C   0  0  0  0  0  0  0  0  0  0  0  0
  -12.5883  -35.3608  -12.1319 C   0  0  0  0  0  0  0  0  0  0  0  0
  -12.1232  -35.0412  -10.7060 C   0  0  0  0  0  0  0  0  0  0  0  0
  -13.3929  -36.6032  -12.1510 C   0  0  0  0  0  0  0  0  0  0  0  0
  -12.7859  -37.7733  -12.5527 C   0  0  0  0  0  0  0  0  0  0  0  0
  -13.5570  -38.9302  -12.5673 C   0  0  0  0  0  0  0  0  0  0  0  0
  -14.8846  -38.9344  -12.1983 C   0  0  0  0  0  0  0  0  0  0  0  0
  -15.4852  -37.7593  -11.7977 C   0  0  0  0  0  0  0  0  0  0  0  0
  -16.8853  -37.6767  -11.3904 C   0  0  0  0  0  0  0  0  0  0  0  0
  -17.6141  -38.9069  -11.5494 N   0  0  0  0  0  0  0  0  0  0  0  0
  -17.6062  -39.7172  -10.3558 C   0  0  0  0  0  0  0  0  0  0  0  0
  -18.8193  -39.6223   -9.5006 C   0  0  1  0  0  0  0  0  0  0  0  0
  -19.6383  -40.7124   -9.9449 O   0  0  0  0  0  0  0  0  0  0  0  0
  -18.6347  -39.8908   -8.0363 C   0  0  2  0  0  0  0  0  0  0  0  0
  -18.8332  -38.7068   -7.1371 C   0  0  0  0  0  0  0  0  0  0  0  0
  -20.2370  -38.6074   -6.5240 C   0  0  0  0  0  0  0  0  0  0  0  0
  -20.8900  -37.5885   -7.4868 C   0  0  0  0  0  0  0  0  0  0  0  0
  -20.7773  -39.1955   -5.5135 C   0  0  0  0  0  0  0  0  0  0  0  0
  -20.4554  -40.2109   -4.4284 C   0  0  0  0  0  0  0  0  0  0  0  0
  -21.4018  -41.3074   -4.2078 C   0  0  0  0  0  0  0  0  0  0  0  0
  -22.6535  -41.4086   -4.9757 C   0  0  0  0  0  0  0  0  0  0  0  0
  -22.6861  -42.4074   -6.0995 C   0  0  0  0  0  0  0  0  0  0  0  0
  -22.7320  -43.8409   -5.6724 C   0  0  0  0  0  0  0  0  0  0  0  0
  -22.2299  -44.7086   -6.8034 C   0  0  0  0  0  0  0  0  0  0  0  0
  -20.8759  -45.1450   -6.6427 N   0  0  0  0  0  0  0  0  0  0  0  0
  -19.6320  -44.5471   -7.0648 C   0  0  0  0  0  0  0  0  0  0  0  0
  -19.1127  -43.2898   -6.9158 C   0  0  0  0  0  0  0  0  0  0  0  0
  -17.8726  -43.0731   -7.4906 C   0  0  0  0  0  0  0  0  0  0  0  0
  -17.2233  -44.1335   -8.1789 C   0  0  0  0  0  0  0  0  0  0  0  0
  -17.7654  -45.3907   -8.3123 C   0  0  0  0  0  0  0  0  0  0  0  0
  -17.0358  -46.4604   -9.0375 C   0  0  0  0  0  0  0  0  0  0  0  0
  -18.9489  -45.5527   -7.7518 N   0  0  0  0  0  0  0  0  0  0  0  0
  -17.0377  -41.8536   -7.5591 C   0  0  0  0  0  0  0  0  0  0  0  0
  -15.7584  -42.0954   -7.3676 O   0  0  0  0  0  0  0  0  0  0  0  0
  -17.3168  -40.5122   -7.7838 N   0  0  0  0  0  0  0  0  0  0  0  0
  -14.7189  -36.6191  -11.7847 C   0  0  0  0  0  0  0  0  0  0  0  0
  1  2  1  0
  2  3  1  0
  2  4  1  0
  4  5  2  0
  5  6  1  0
  6  7  2  0
  7  8  1  0
  8  9  1  0
  9 10  1  0
 10 11  1  0
 11 12  1  0
 12 13  1  6
 12 14  1  0
 14 15  1  1
 15 16  1  0
 16 17  1  0
 16 18  2  0
 18 19  1  0
 19 20  1  0
 20 21  1  0
 21 22  1  0
 22 23  1  0
 23 24  1  0
 24 25  1  0
 25 26  1  0
 26 27  2  0
 27 28  1  0
 28 29  2  0
 29 30  1  0
 30 31  1  0
 30 32  2  0
 28 33  1  0
 33 34  2  0
 33 35  1  0
  8 36  2  0
 32 26  1  0
 35 14  1  0
 36  4  1  0
M  END
$$$$
