
     RDKit          3D

 36 38  0  0  0  0  0  0  0  0999 V2000
  -24.3697  -37.2122   -6.6034 C   0  0  0  0  0  0  0  0  0  0  0  0
  -23.8291  -38.4245   -5.9194 C   0  0  0  0  0  0  0  0  0  0  0  0
  -23.4810  -38.0263   -4.4800 C   0  0  0  0  0  0  0  0  0  0  0  0
  -22.6395  -38.9710   -6.6107 C   0  0  0  0  0  0  0  0  0  0  0  0
  -22.7643  -40.1632   -7.2904 C   0  0  0  0  0  0  0  0  0  0  0  0
  -21.6365  -40.6634   -7.9316 C   0  0  0  0  0  0  0  0  0  0  0  0
  -20.4236  -40.0100   -7.9037 C   0  0  0  0  0  0  0  0  0  0  0  0
  -20.3065  -38.8173   -7.2210 C   0  0  0  0  0  0  0  0  0  0  0  0
  -19.0594  -38.0613   -7.1427 C   0  0  0  0  0  0  0  0  0  0  0  0
  -18.0137  -38.5689   -7.9904 N   0  0  0  0  0  0  0  0  0  0  0  0
  -17.2436  -39.6134   -7.3602 C   0  0  0  0  0  0  0  0  0  0  0  0
  -15.8635  -39.8043   -7.8806 C   0  0  1  0  0  0  0  0  0  0  0  0
  -15.4022  -40.9824   -7.2054 O   0  0  0  0  0  0  0  0  0  0  0  0
  -15.7330  -40.1540   -9.3336 C   0  0  2  0  0  0  0  0  0  0  0  0
  -14.8358  -39.2550  -10.1315 C   0  0  0  0  0  0  0  0  0  0  0  0
  -13.4026  -39.7790  -10.2980 C   0  0  0  0  0  0  0  0  0  0  0  0
  -12.6840  -38.9837   -9.1833 C   0  0  0  0  0  0  0  0  0  0  0  0
  -12.8924  -40.6464  -11.1019 C   0  0  0  0  0  0  0  0  0  0  0  0
  -13.2871  -41.5808  -12.2346 C   0  0  0  0  0  0  0  0  0  0  0  0
  -12.8436  -42.9755  -12.1640 C   0  0  0  0  0  0  0  0  0  0  0  0
  -12.0015  -43.4590  -11.0578 C   0  0  0  0  0  0  0  0  0  0  0  0
  -12.6835  -44.2509   -9.9764 C   0  0  0  0  0  0  0  0  0  0  0  0
  -13.1057  -45.6310  -10.3717 C   0  0  0  0  0  0  0  0  0  0  0  0
  -14.2036  -46.0957   -9.4427 C   0  0  0  0  0  0  0  0  0  0  0  0
  -15.5180  -45.9918  -10.0004 N   0  0  0  0  0  0  0  0  0  0  0  0
  -16.4778  -44.9145   -9.9679 C   0  0  0  0  0  0  0  0  0  0  0  0
  -16.3826  -43.5817  -10.2638 C   0  0  0  0  0  0  0  0  0  0  0  0
  -17.5347  -42.8363  -10.0848 C   0  0  0  0  0  0  0  0  0  0  0  0
  -18.7180  -43.4736   -9.6225 C   0  0  0  0  0  0  0  0  0  0  0  0
  -18.7890  -44.8167   -9.3346 C   0  0  0  0  0  0  0  0  0  0  0  0
  -20.0562  -45.4270   -8.8610 C   0  0  0  0  0  0  0  0  0  0  0  0
  -17.6681  -45.4886   -9.5168 N   0  0  0  0  0  0  0  0  0  0  0  0
  -17.7898  -41.3904  -10.2673 C   0  0  0  0  0  0  0  0  0  0  0  0
  -18.9520  -41.1409  -10.8318 O   0  0  0  0  0  0  0  0  0  0  0  0
  -17.0656  -40.2442   -9.9682 N   0  0  0  0  0  0  0  0  0  0  0  0
  -21.4238  -38.3272   -6.5895 C   0  0  0  0  0  0  0  0  0  0  0  0
  1  2  1  0
  2  3  1  0
  2  4  1  0
  4  5  2  0
  5  6  1  0
  6  7  2  0
  7  8  1  0
  8  9  1  0
  9 10  1  0
 10 11  1  0
 11 12  1  0
 12 13  1  1
 12 14  1  0
 14 15  1  6
 15 16  1  0
 16 17  1  0
 16 18  2  0
 18 19  1  0
 19 20  1  0
 20 21  1  0
 21 22  1  0
 22 23  1  0
 23 24  1  0
 24 25  1  0
 25 26  1  0
 26 27  2  0
 27 28  1  0
 28 29  2  0
 29 30  1  0
 30 31  1  0
 30 32  2  0
 28 33  1  0
 33 34  2  0
 33 35  1  0
  8 36  2  0
 32 26  1  0
 35 14  1  0
 36  4  1  0
M  END
$$$$
