
     RDKit          3D

 36 38  0  0  0  0  0  0  0  0999 V2000
  -23.3943  -38.5588   -4.5400 C   0  0  0  0  0  0  0  0  0  0  0  0
  -22.8460  -39.6507   -5.3984 C   0  0  0  0  0  0  0  0  0  0  0  0
  -21.8993  -40.4890   -4.5310 C   0  0  0  0  0  0  0  0  0  0  0  0
  -22.1353  -39.1235   -6.5853 C   0  0  0  0  0  0  0  0  0  0  0  0
  -22.7771  -39.1571   -7.8042 C   0  0  0  0  0  0  0  0  0  0  0  0
  -22.0941  -38.6606   -8.9088 C   0  0  0  0  0  0  0  0  0  0  0  0
  -20.8186  -38.1474   -8.8158 C   0  0  0  0  0  0  0  0  0  0  0  0
  -20.1827  -38.1174   -7.5922 C   0  0  0  0  0  0  0  0  0  0  0  0
  -18.8334  -37.5903   -7.4064 C   0  0  0  0  0  0  0  0  0  0  0  0
  -17.7984  -38.4277   -7.9515 N   0  0  0  0  0  0  0  0  0  0  0  0
  -17.2443  -39.3348   -6.9761 C   0  0  0  0  0  0  0  0  0  0  0  0
  -16.2605  -40.3221   -7.4951 C   0  0  1  0  0  0  0  0  0  0  0  0
  -16.2636  -41.3613   -6.5070 O   0  0  0  0  0  0  0  0  0  0  0  0
  -16.6264  -41.0363   -8.7625 C   0  0  2  0  0  0  0  0  0  0  0  0
  -15.5703  -41.0344   -9.8276 C   0  0  0  0  0  0  0  0  0  0  0  0
  -14.6957  -42.2957   -9.8523 C   0  0  0  0  0  0  0  0  0  0  0  0
  -13.4608  -41.7938   -9.0684 C   0  0  0  0  0  0  0  0  0  0  0  0
  -14.8915  -43.4680  -10.3486 C   0  0  0  0  0  0  0  0  0  0  0  0
  -15.9358  -44.2663  -11.1128 C   0  0  0  0  0  0  0  0  0  0  0  0
  -16.2905  -45.5962  -10.6105 C   0  0  0  0  0  0  0  0  0  0  0  0
  -15.6294  -46.1728   -9.4285 C   0  0  0  0  0  0  0  0  0  0  0  0
  -16.3948  -46.1402   -8.1344 C   0  0  0  0  0  0  0  0  0  0  0  0
  -17.5499  -47.0884   -8.0570 C   0  0  0  0  0  0  0  0  0  0  0  0
  -18.5168  -46.6025   -7.0019 C   0  0  0  0  0  0  0  0  0  0  0  0
  -19.6590  -45.9210   -7.5315 N   0  0  0  0  0  0  0  0  0  0  0  0
  -19.8775  -44.5243   -7.8222 C   0  0  0  0  0  0  0  0  0  0  0  0
  -19.1552  -43.6031   -8.5311 C   0  0  0  0  0  0  0  0  0  0  0  0
  -19.6784  -42.3226   -8.5722 C   0  0  0  0  0  0  0  0  0  0  0  0
  -20.8997  -42.0418   -7.9018 C   0  0  0  0  0  0  0  0  0  0  0  0
  -21.6091  -42.9868   -7.1977 C   0  0  0  0  0  0  0  0  0  0  0  0
  -22.8834  -42.6348   -6.5233 C   0  0  0  0  0  0  0  0  0  0  0  0
  -21.0736  -44.1927   -7.1824 N   0  0  0  0  0  0  0  0  0  0  0  0
  -19.1633  -41.0866   -9.2015 C   0  0  0  0  0  0  0  0  0  0  0  0
  -20.1043  -40.3779   -9.7879 O   0  0  0  0  0  0  0  0  0  0  0  0
  -17.9013  -40.5167   -9.3025 N   0  0  0  0  0  0  0  0  0  0  0  0
  -20.8621  -38.6089   -6.5040 C   0  0  0  0  0  0  0  0  0  0  0  0
  1  2  1  0
  2  3  1  0
  2  4  1  0
  4  5  2  0
  5  6  1  0
  6  7  2  0
  7  8  1  0
  8  9  1  0
  9 10  1  0
 10 11  1  0
 11 12  1  0
 12 13  1  1
 12 14  1  0
 14 15  1  6
 15 16  1  0
 16 17  1  0
 16 18  2  0
 18 19  1  0
 19 20  1  0
 20 21  1  0
 21 22  1  0
 22 23  1  0
 23 24  1  0
 24 25  1  0
 25 26  1  0
 26 27  2  0
 27 28  1  0
 28 29  2  0
 29 30  1  0
 30 31  1  0
 30 32  2  0
 28 33  1  0
 33 34  2  0
 33 35  1  0
  8 36  2  0
 32 26  1  0
 35 14  1  0
 36  4  1  0
M  END
$$$$
