
     RDKit          3D

 36 38  0  0  0  0  0  0  0  0999 V2000
  -13.5043  -34.6774  -13.3801 C   0  0  0  0  0  0  0  0  0  0  0  0
  -14.4903  -35.4819  -12.5988 C   0  0  0  0  0  0  0  0  0  0  0  0
  -15.1831  -34.5332  -11.6132 C   0  0  0  0  0  0  0  0  0  0  0  0
  -13.8479  -36.6039  -11.8776 C   0  0  0  0  0  0  0  0  0  0  0  0
  -12.5343  -36.4664  -11.4846 C   0  0  0  0  0  0  0  0  0  0  0  0
  -11.9458  -37.5308  -10.8108 C   0  0  0  0  0  0  0  0  0  0  0  0
  -12.6297  -38.6944  -10.5332 C   0  0  0  0  0  0  0  0  0  0  0  0
  -13.9442  -38.8246  -10.9300 C   0  0  0  0  0  0  0  0  0  0  0  0
  -14.7403  -40.0222  -10.6751 C   0  0  0  0  0  0  0  0  0  0  0  0
  -16.1278  -39.7553  -10.4042 N   0  0  0  0  0  0  0  0  0  0  0  0
  -16.3160  -38.6383   -9.5108 C   0  0  0  0  0  0  0  0  0  0  0  0
  -15.9302  -38.8706   -8.0933 C   0  0  1  0  0  0  0  0  0  0  0  0
  -16.1198  -37.5920   -7.4724 O   0  0  0  0  0  0  0  0  0  0  0  0
  -16.8110  -39.7865   -7.2961 C   0  0  2  0  0  0  0  0  0  0  0  0
  -17.3045  -39.2290   -5.9940 C   0  0  0  0  0  0  0  0  0  0  0  0
  -18.7070  -38.6087   -6.0633 C   0  0  0  0  0  0  0  0  0  0  0  0
  -18.3431  -37.1124   -6.2050 C   0  0  0  0  0  0  0  0  0  0  0  0
  -19.8820  -39.1354   -6.0377 C   0  0  0  0  0  0  0  0  0  0  0  0
  -20.5661  -40.4899   -5.9401 C   0  0  0  0  0  0  0  0  0  0  0  0
  -21.6216  -40.8005   -6.9076 C   0  0  0  0  0  0  0  0  0  0  0  0
  -22.0485  -39.8211   -7.9201 C   0  0  0  0  0  0  0  0  0  0  0  0
  -21.5380  -40.0206   -9.3206 C   0  0  0  0  0  0  0  0  0  0  0  0
  -22.1428  -41.1741  -10.0574 C   0  0  0  0  0  0  0  0  0  0  0  0
  -21.2123  -41.5883  -11.1740 C   0  0  0  0  0  0  0  0  0  0  0  0
  -20.4222  -42.7433  -10.8722 N   0  0  0  0  0  0  0  0  0  0  0  0
  -19.1195  -42.8665  -10.2632 C   0  0  0  0  0  0  0  0  0  0  0  0
  -18.5842  -42.3541   -9.1127 C   0  0  0  0  0  0  0  0  0  0  0  0
  -17.2616  -42.6758   -8.8627 C   0  0  0  0  0  0  0  0  0  0  0  0
  -16.5537  -43.4975   -9.7811 C   0  0  0  0  0  0  0  0  0  0  0  0
  -17.1156  -44.0032  -10.9302 C   0  0  0  0  0  0  0  0  0  0  0  0
  -16.3270  -44.8621  -11.8483 C   0  0  0  0  0  0  0  0  0  0  0  0
  -18.3766  -43.6701  -11.1306 N   0  0  0  0  0  0  0  0  0  0  0  0
  -16.3619  -42.2799   -7.7569 C   0  0  0  0  0  0  0  0  0  0  0  0
  -15.6067  -43.2692   -7.3297 O   0  0  0  0  0  0  0  0  0  0  0  0
  -16.1449  -41.0885   -7.0777 N   0  0  0  0  0  0  0  0  0  0  0  0
  -14.5211  -37.7699  -11.5950 C   0  0  0  0  0  0  0  0  0  0  0  0
  1  2  1  0
  2  3  1  0
  2  4  1  0
  4  5  2  0
  5  6  1  0
  6  7  2  0
  7  8  1  0
  8  9  1  0
  9 10  1  0
 10 11  1  0
 11 12  1  0
 12 13  1  1
 12 14  1  0
 14 15  1  1
 15 16  1  0
 16 17  1  0
 16 18  2  0
 18 19  1  0
 19 20  1  0
 20 21  1  0
 21 22  1  0
 22 23  1  0
 23 24  1  0
 24 25  1  0
 25 26  1  0
 26 27  2  0
 27 28  1  0
 28 29  2  0
 29 30  1  0
 30 31  1  0
 30 32  2  0
 28 33  1  0
 33 34  2  0
 33 35  1  0
  8 36  2  0
 32 26  1  0
 35 14  1  0
 36  4  1  0
M  END
$$$$
