
     RDKit          3D

 36 38  0  0  0  0  0  0  0  0999 V2000
  -11.7618  -35.3948  -13.9178 C   0  0  0  0  0  0  0  0  0  0  0  0
  -13.1383  -35.1629  -13.3874 C   0  0  0  0  0  0  0  0  0  0  0  0
  -13.0562  -34.0128  -12.3764 C   0  0  0  0  0  0  0  0  0  0  0  0
  -13.7029  -36.3751  -12.7524 C   0  0  0  0  0  0  0  0  0  0  0  0
  -14.3227  -37.3090  -13.5540 C   0  0  0  0  0  0  0  0  0  0  0  0
  -14.8498  -38.4401  -12.9409 C   0  0  0  0  0  0  0  0  0  0  0  0
  -14.7694  -38.6448  -11.5805 C   0  0  0  0  0  0  0  0  0  0  0  0
  -14.1477  -37.7053  -10.7847 C   0  0  0  0  0  0  0  0  0  0  0  0
  -14.0187  -37.8452   -9.3367 C   0  0  0  0  0  0  0  0  0  0  0  0
  -15.2094  -37.4987   -8.6074 N   0  0  0  0  0  0  0  0  0  0  0  0
  -16.1311  -38.6022   -8.4893 C   0  0  0  0  0  0  0  0  0  0  0  0
  -17.2191  -38.4332   -7.4894 C   0  0  1  0  0  0  0  0  0  0  0  0
  -18.3823  -38.1777   -8.2883 O   0  0  0  0  0  0  0  0  0  0  0  0
  -17.5960  -39.6461   -6.6913 C   0  0  2  0  0  0  0  0  0  0  0  0
  -18.3093  -39.3688   -5.4013 C   0  0  0  0  0  0  0  0  0  0  0  0
  -19.8390  -39.4586   -5.4933 C   0  0  0  0  0  0  0  0  0  0  0  0
  -20.1970  -37.9622   -5.6484 C   0  0  0  0  0  0  0  0  0  0  0  0
  -20.6437  -40.4640   -5.4744 C   0  0  0  0  0  0  0  0  0  0  0  0
  -20.6346  -41.9808   -5.3685 C   0  0  0  0  0  0  0  0  0  0  0  0
  -21.4168  -42.7447   -6.3438 C   0  0  0  0  0  0  0  0  0  0  0  0
  -22.2286  -42.0742   -7.3724 C   0  0  0  0  0  0  0  0  0  0  0  0
  -21.6624  -42.0259   -8.7647 C   0  0  0  0  0  0  0  0  0  0  0  0
  -21.6620  -43.3322   -9.4946 C   0  0  0  0  0  0  0  0  0  0  0  0
  -20.6283  -43.2812  -10.5960 C   0  0  0  0  0  0  0  0  0  0  0  0
  -19.4023  -43.9457  -10.2721 N   0  0  0  0  0  0  0  0  0  0  0  0
  -18.1967  -43.4566   -9.6475 C   0  0  0  0  0  0  0  0  0  0  0  0
  -17.9721  -42.7500   -8.4972 C   0  0  0  0  0  0  0  0  0  0  0  0
  -16.6527  -42.4303   -8.2289 C   0  0  0  0  0  0  0  0  0  0  0  0
  -15.6337  -42.8424   -9.1299 C   0  0  0  0  0  0  0  0  0  0  0  0
  -15.8850  -43.5552  -10.2791 C   0  0  0  0  0  0  0  0  0  0  0  0
  -14.7773  -43.9635  -11.1784 C   0  0  0  0  0  0  0  0  0  0  0  0
  -17.1557  -43.8363  -10.4972 N   0  0  0  0  0  0  0  0  0  0  0  0
  -16.0502  -41.6609   -7.1180 C   0  0  0  0  0  0  0  0  0  0  0  0
  -14.9328  -42.1932   -6.6710 O   0  0  0  0  0  0  0  0  0  0  0  0
  -16.4118  -40.4985   -6.4504 N   0  0  0  0  0  0  0  0  0  0  0  0
  -13.6282  -36.5898  -11.3955 C   0  0  0  0  0  0  0  0  0  0  0  0
  1  2  1  0
  2  3  1  0
  2  4  1  0
  4  5  2  0
  5  6  1  0
  6  7  2  0
  7  8  1  0
  8  9  1  0
  9 10  1  0
 10 11  1  0
 11 12  1  0
 12 13  1  6
 12 14  1  0
 14 15  1  1
 15 16  1  0
 16 17  1  0
 16 18  2  0
 18 19  1  0
 19 20  1  0
 20 21  1  0
 21 22  1  0
 22 23  1  0
 23 24  1  0
 24 25  1  0
 25 26  1  0
 26 27  2  0
 27 28  1  0
 28 29  2  0
 29 30  1  0
 30 31  1  0
 30 32  2  0
 28 33  1  0
 33 34  2  0
 33 35  1  0
  8 36  2  0
 32 26  1  0
 35 14  1  0
 36  4  1  0
M  END
$$$$
