
     RDKit          3D

 36 38  0  0  0  0  0  0  0  0999 V2000
  -10.5462  -36.5595  -12.2596 C   0  0  0  0  0  0  0  0  0  0  0  0
  -11.5445  -37.6693  -12.2216 C   0  0  0  0  0  0  0  0  0  0  0  0
  -11.2521  -38.5947  -13.4089 C   0  0  0  0  0  0  0  0  0  0  0  0
  -12.9367  -37.1695  -12.2815 C   0  0  0  0  0  0  0  0  0  0  0  0
  -13.5022  -36.9463  -13.5181 C   0  0  0  0  0  0  0  0  0  0  0  0
  -14.8095  -36.4743  -13.5559 C   0  0  0  0  0  0  0  0  0  0  0  0
  -15.5368  -36.2293  -12.4114 C   0  0  0  0  0  0  0  0  0  0  0  0
  -14.9637  -36.4548  -11.1773 C   0  0  0  0  0  0  0  0  0  0  0  0
  -15.6643  -36.2221   -9.9172 C   0  0  0  0  0  0  0  0  0  0  0  0
  -17.0809  -36.4644   -9.9824 N   0  0  0  0  0  0  0  0  0  0  0  0
  -17.4228  -37.8421   -9.7248 C   0  0  0  0  0  0  0  0  0  0  0  0
  -17.3838  -38.2634   -8.2990 C   0  0  1  0  0  0  0  0  0  0  0  0
  -18.4141  -37.4800   -7.6816 O   0  0  0  0  0  0  0  0  0  0  0  0
  -17.7871  -39.6774   -8.0023 C   0  0  2  0  0  0  0  0  0  0  0  0
  -17.3105  -40.2178   -6.6867 C   0  0  0  0  0  0  0  0  0  0  0  0
  -18.3403  -40.1189   -5.5526 C   0  0  0  0  0  0  0  0  0  0  0  0
  -17.8521  -38.8338   -4.8443 C   0  0  0  0  0  0  0  0  0  0  0  0
  -19.3527  -40.8530   -5.2445 C   0  0  0  0  0  0  0  0  0  0  0  0
  -20.0924  -42.0978   -5.7085 C   0  0  0  0  0  0  0  0  0  0  0  0
  -21.5494  -42.0237   -5.8435 C   0  0  0  0  0  0  0  0  0  0  0  0
  -22.2920  -40.8004   -5.4990 C   0  0  0  0  0  0  0  0  0  0  0  0
  -22.7448  -39.9324   -6.6406 C   0  0  0  0  0  0  0  0  0  0  0  0
  -23.8712  -40.4900   -7.4528 C   0  0  0  0  0  0  0  0  0  0  0  0
  -23.8674  -39.8361   -8.8154 C   0  0  0  0  0  0  0  0  0  0  0  0
  -23.2865  -40.6439   -9.8448 N   0  0  0  0  0  0  0  0  0  0  0  0
  -21.9260  -40.7425  -10.3163 C   0  0  0  0  0  0  0  0  0  0  0  0
  -20.7344  -40.9300   -9.6700 C   0  0  0  0  0  0  0  0  0  0  0  0
  -19.6055  -40.9455  -10.4703 C   0  0  0  0  0  0  0  0  0  0  0  0
  -19.7389  -40.7755  -11.8750 C   0  0  0  0  0  0  0  0  0  0  0  0
  -20.9494  -40.5915  -12.5017 C   0  0  0  0  0  0  0  0  0  0  0  0
  -21.0259  -40.4261  -13.9746 C   0  0  0  0  0  0  0  0  0  0  0  0
  -21.9985  -40.5811  -11.7015 N   0  0  0  0  0  0  0  0  0  0  0  0
  -18.1745  -41.0870  -10.1221 C   0  0  0  0  0  0  0  0  0  0  0  0
  -17.5165  -41.8613  -10.9583 O   0  0  0  0  0  0  0  0  0  0  0  0
  -17.3806  -40.5760   -9.1041 N   0  0  0  0  0  0  0  0  0  0  0  0
  -13.6720  -36.9215  -11.1455 C   0  0  0  0  0  0  0  0  0  0  0  0
  1  2  1  0
  2  3  1  0
  2  4  1  0
  4  5  2  0
  5  6  1  0
  6  7  2  0
  7  8  1  0
  8  9  1  0
  9 10  1  0
 10 11  1  0
 11 12  1  0
 12 13  1  1
 12 14  1  0
 14 15  1  1
 15 16  1  0
 16 17  1  0
 16 18  2  0
 18 19  1  0
 19 20  1  0
 20 21  1  0
 21 22  1  0
 22 23  1  0
 23 24  1  0
 24 25  1  0
 25 26  1  0
 26 27  2  0
 27 28  1  0
 28 29  2  0
 29 30  1  0
 30 31  1  0
 30 32  2  0
 28 33  1  0
 33 34  2  0
 33 35  1  0
  8 36  2  0
 32 26  1  0
 35 14  1  0
 36  4  1  0
M  END
$$$$
