
     RDKit          3D

 36 38  0  0  0  0  0  0  0  0999 V2000
  -24.2409  -39.0854   -4.3942 C   0  0  0  0  0  0  0  0  0  0  0  0
  -23.6557  -38.2283   -5.4678 C   0  0  0  0  0  0  0  0  0  0  0  0
  -24.8101  -37.7450   -6.3539 C   0  0  0  0  0  0  0  0  0  0  0  0
  -22.6487  -38.9543   -6.2743 C   0  0  0  0  0  0  0  0  0  0  0  0
  -22.7663  -40.3218   -6.3965 C   0  0  0  0  0  0  0  0  0  0  0  0
  -21.8106  -40.9882   -7.1552 C   0  0  0  0  0  0  0  0  0  0  0  0
  -20.7711  -40.3282   -7.7740 C   0  0  0  0  0  0  0  0  0  0  0  0
  -20.6600  -38.9593   -7.6468 C   0  0  0  0  0  0  0  0  0  0  0  0
  -19.5908  -38.1838   -8.2700 C   0  0  0  0  0  0  0  0  0  0  0  0
  -18.4547  -37.9625   -7.4156 N   0  0  0  0  0  0  0  0  0  0  0  0
  -17.5327  -39.0720   -7.4164 C   0  0  0  0  0  0  0  0  0  0  0  0
  -16.1683  -38.7799   -7.9314 C   0  0  1  0  0  0  0  0  0  0  0  0
  -15.3397  -39.7505   -7.2772 O   0  0  0  0  0  0  0  0  0  0  0  0
  -15.9293  -39.0348   -9.3903 C   0  0  2  0  0  0  0  0  0  0  0  0
  -15.9042  -37.8124  -10.2592 C   0  0  0  0  0  0  0  0  0  0  0  0
  -14.4973  -37.2679  -10.5434 C   0  0  0  0  0  0  0  0  0  0  0  0
  -14.4185  -36.1371   -9.4914 C   0  0  0  0  0  0  0  0  0  0  0  0
  -13.5918  -37.6247  -11.3868 C   0  0  0  0  0  0  0  0  0  0  0  0
  -13.3377  -38.6469  -12.4834 C   0  0  0  0  0  0  0  0  0  0  0  0
  -12.0784  -39.3951  -12.4500 C   0  0  0  0  0  0  0  0  0  0  0  0
  -11.0608  -39.1414  -11.4171 C   0  0  0  0  0  0  0  0  0  0  0  0
  -10.9786  -40.1261  -10.2834 C   0  0  0  0  0  0  0  0  0  0  0  0
  -10.4042  -41.4603  -10.6430 C   0  0  0  0  0  0  0  0  0  0  0  0
  -10.8586  -42.4826   -9.6269 C   0  0  0  0  0  0  0  0  0  0  0  0
  -11.9433  -43.3028  -10.0743 N   0  0  0  0  0  0  0  0  0  0  0  0
  -13.3715  -43.1274   -9.9625 C   0  0  0  0  0  0  0  0  0  0  0  0
  -14.2015  -42.0822  -10.2648 C   0  0  0  0  0  0  0  0  0  0  0  0
  -15.5444  -42.2745   -9.9913 C   0  0  0  0  0  0  0  0  0  0  0  0
  -15.9771  -43.5079   -9.4332 C   0  0  0  0  0  0  0  0  0  0  0  0
  -15.1227  -44.5455   -9.1409 C   0  0  0  0  0  0  0  0  0  0  0  0
  -15.6353  -45.8134   -8.5647 C   0  0  0  0  0  0  0  0  0  0  0  0
  -13.8520  -44.3188   -9.4150 N   0  0  0  0  0  0  0  0  0  0  0  0
  -16.7038  -41.3695  -10.1517 C   0  0  0  0  0  0  0  0  0  0  0  0
  -17.7717  -41.9805  -10.6185 O   0  0  0  0  0  0  0  0  0  0  0  0
  -16.9038  -40.0165   -9.9130 N   0  0  0  0  0  0  0  0  0  0  0  0
  -21.6071  -38.3057   -6.8964 C   0  0  0  0  0  0  0  0  0  0  0  0
  1  2  1  0
  2  3  1  0
  2  4  1  0
  4  5  2  0
  5  6  1  0
  6  7  2  0
  7  8  1  0
  8  9  1  0
  9 10  1  0
 10 11  1  0
 11 12  1  0
 12 13  1  1
 12 14  1  0
 14 15  1  6
 15 16  1  0
 16 17  1  0
 16 18  2  0
 18 19  1  0
 19 20  1  0
 20 21  1  0
 21 22  1  0
 22 23  1  0
 23 24  1  0
 24 25  1  0
 25 26  1  0
 26 27  2  0
 27 28  1  0
 28 29  2  0
 29 30  1  0
 30 31  1  0
 30 32  2  0
 28 33  1  0
 33 34  2  0
 33 35  1  0
  8 36  2  0
 32 26  1  0
 35 14  1  0
 36  4  1  0
M  END
$$$$
