
     RDKit          3D

 36 38  0  0  0  0  0  0  0  0999 V2000
  -21.3802  -39.3201   -3.4743 C   0  0  0  0  0  0  0  0  0  0  0  0
  -22.2036  -40.4699   -3.9539 C   0  0  0  0  0  0  0  0  0  0  0  0
  -21.6889  -41.7318   -3.2510 C   0  0  0  0  0  0  0  0  0  0  0  0
  -22.1367  -40.6288   -5.4243 C   0  0  0  0  0  0  0  0  0  0  0  0
  -23.0824  -41.4165   -6.0439 C   0  0  0  0  0  0  0  0  0  0  0  0
  -23.0031  -41.5571   -7.4249 C   0  0  0  0  0  0  0  0  0  0  0  0
  -22.0226  -40.9415   -8.1722 C   0  0  0  0  0  0  0  0  0  0  0  0
  -21.0793  -40.1549   -7.5447 C   0  0  0  0  0  0  0  0  0  0  0  0
  -20.0085  -39.4673   -8.2615 C   0  0  0  0  0  0  0  0  0  0  0  0
  -19.0290  -38.8560   -7.4032 N   0  0  0  0  0  0  0  0  0  0  0  0
  -17.7500  -39.5212   -7.4556 C   0  0  0  0  0  0  0  0  0  0  0  0
  -16.6085  -38.6936   -7.9292 C   0  0  1  0  0  0  0  0  0  0  0  0
  -15.4627  -39.5236   -7.6951 O   0  0  0  0  0  0  0  0  0  0  0  0
  -16.5464  -38.4095   -9.4008 C   0  0  2  0  0  0  0  0  0  0  0  0
  -17.2470  -37.1591   -9.8428 C   0  0  0  0  0  0  0  0  0  0  0  0
  -16.3291  -35.9368   -9.9840 C   0  0  0  0  0  0  0  0  0  0  0  0
  -16.5941  -35.2319   -8.6333 C   0  0  0  0  0  0  0  0  0  0  0  0
  -15.5302  -35.5657  -10.9236 C   0  0  0  0  0  0  0  0  0  0  0  0
  -15.0345  -36.0041  -12.2925 C   0  0  0  0  0  0  0  0  0  0  0  0
  -13.5892  -36.0089  -12.5334 C   0  0  0  0  0  0  0  0  0  0  0  0
  -12.6371  -35.5608  -11.5041 C   0  0  0  0  0  0  0  0  0  0  0  0
  -11.9056  -36.6294  -10.7395 C   0  0  0  0  0  0  0  0  0  0  0  0
  -10.8546  -37.3581  -11.5165 C   0  0  0  0  0  0  0  0  0  0  0  0
  -10.5925  -38.6935  -10.8592 C   0  0  0  0  0  0  0  0  0  0  0  0
  -11.2353  -39.7957  -11.5085 N   0  0  0  0  0  0  0  0  0  0  0  0
  -12.5358  -40.3872  -11.3045 C   0  0  0  0  0  0  0  0  0  0  0  0
  -13.7944  -39.8539  -11.2386 C   0  0  0  0  0  0  0  0  0  0  0  0
  -14.8216  -40.7497  -10.9990 C   0  0  0  0  0  0  0  0  0  0  0  0
  -14.5259  -42.1311  -10.8432 C   0  0  0  0  0  0  0  0  0  0  0  0
  -13.2514  -42.6433  -10.9169 C   0  0  0  0  0  0  0  0  0  0  0  0
  -13.0056  -44.0977  -10.7523 C   0  0  0  0  0  0  0  0  0  0  0  0
  -12.3029  -41.7547  -11.1441 N   0  0  0  0  0  0  0  0  0  0  0  0
  -16.2757  -40.5327  -10.8325 C   0  0  0  0  0  0  0  0  0  0  0  0
  -17.0041  -41.4481  -11.4350 O   0  0  0  0  0  0  0  0  0  0  0  0
  -17.0323  -39.5716  -10.1755 N   0  0  0  0  0  0  0  0  0  0  0  0
  -21.1623  -40.0189   -6.1802 C   0  0  0  0  0  0  0  0  0  0  0  0
  1  2  1  0
  2  3  1  0
  2  4  1  0
  4  5  2  0
  5  6  1  0
  6  7  2  0
  7  8  1  0
  8  9  1  0
  9 10  1  0
 10 11  1  0
 11 12  1  0
 12 13  1  6
 12 14  1  0
 14 15  1  1
 15 16  1  0
 16 17  1  0
 16 18  2  0
 18 19  1  0
 19 20  1  0
 20 21  1  0
 21 22  1  0
 22 23  1  0
 23 24  1  0
 24 25  1  0
 25 26  1  0
 26 27  2  0
 27 28  1  0
 28 29  2  0
 29 30  1  0
 30 31  1  0
 30 32  2  0
 28 33  1  0
 33 34  2  0
 33 35  1  0
  8 36  2  0
 32 26  1  0
 35 14  1  0
 36  4  1  0
M  END
$$$$
