
     RDKit          3D

 36 38  0  0  0  0  0  0  0  0999 V2000
  -24.2343  -41.8550   -6.4658 C   0  0  0  0  0  0  0  0  0  0  0  0
  -23.2246  -41.2249   -5.5641 C   0  0  0  0  0  0  0  0  0  0  0  0
  -23.9878  -40.5275   -4.4316 C   0  0  0  0  0  0  0  0  0  0  0  0
  -22.3612  -40.2598   -6.2817 C   0  0  0  0  0  0  0  0  0  0  0  0
  -22.7793  -39.7890   -7.5075 C   0  0  0  0  0  0  0  0  0  0  0  0
  -21.9550  -38.8855   -8.1688 C   0  0  0  0  0  0  0  0  0  0  0  0
  -20.7562  -38.4594   -7.6396 C   0  0  0  0  0  0  0  0  0  0  0  0
  -20.3444  -38.9354   -6.4124 C   0  0  0  0  0  0  0  0  0  0  0  0
  -19.0900  -38.5348   -5.7807 C   0  0  0  0  0  0  0  0  0  0  0  0
  -17.9272  -39.1819   -6.3275 N   0  0  0  0  0  0  0  0  0  0  0  0
  -17.0350  -38.2596   -6.9867 C   0  0  0  0  0  0  0  0  0  0  0  0
  -15.9199  -38.8747   -7.7551 C   0  0  1  0  0  0  0  0  0  0  0  0
  -15.7749  -40.1749   -7.1678 O   0  0  0  0  0  0  0  0  0  0  0  0
  -16.1793  -39.1664   -9.2035 C   0  0  2  0  0  0  0  0  0  0  0  0
  -15.7255  -38.1061  -10.1625 C   0  0  0  0  0  0  0  0  0  0  0  0
  -14.3441  -38.3627  -10.7808 C   0  0  0  0  0  0  0  0  0  0  0  0
  -13.4627  -37.4745   -9.8720 C   0  0  0  0  0  0  0  0  0  0  0  0
  -13.9658  -39.1090  -11.7600 C   0  0  0  0  0  0  0  0  0  0  0  0
  -14.5256  -40.0760  -12.7912 C   0  0  0  0  0  0  0  0  0  0  0  0
  -13.8590  -41.3703  -12.9558 C   0  0  0  0  0  0  0  0  0  0  0  0
  -12.6545  -41.7180  -12.1845 C   0  0  0  0  0  0  0  0  0  0  0  0
  -12.8381  -42.6402  -11.0108 C   0  0  0  0  0  0  0  0  0  0  0  0
  -13.1277  -44.0654  -11.3636 C   0  0  0  0  0  0  0  0  0  0  0  0
  -13.8015  -44.7368  -10.1892 C   0  0  0  0  0  0  0  0  0  0  0  0
  -15.2214  -44.8578  -10.3265 N   0  0  0  0  0  0  0  0  0  0  0  0
  -16.2895  -43.9697   -9.9349 C   0  0  0  0  0  0  0  0  0  0  0  0
  -16.5082  -42.6357  -10.1480 C   0  0  0  0  0  0  0  0  0  0  0  0
  -17.6582  -42.1114   -9.5844 C   0  0  0  0  0  0  0  0  0  0  0  0
  -18.5250  -42.9585   -8.8421 C   0  0  0  0  0  0  0  0  0  0  0  0
  -18.2843  -44.2983   -8.6445 C   0  0  0  0  0  0  0  0  0  0  0  0
  -19.2309  -45.1341   -7.8648 C   0  0  0  0  0  0  0  0  0  0  0  0
  -17.1766  -44.7557   -9.1966 N   0  0  0  0  0  0  0  0  0  0  0  0
  -18.1900  -40.7307   -9.5782 C   0  0  0  0  0  0  0  0  0  0  0  0
  -19.4929  -40.6812   -9.7562 O   0  0  0  0  0  0  0  0  0  0  0  0
  -17.6076  -39.4800   -9.4229 N   0  0  0  0  0  0  0  0  0  0  0  0
  -21.1626  -39.8276   -5.7629 C   0  0  0  0  0  0  0  0  0  0  0  0
  1  2  1  0
  2  3  1  0
  2  4  1  0
  4  5  2  0
  5  6  1  0
  6  7  2  0
  7  8  1  0
  8  9  1  0
  9 10  1  0
 10 11  1  0
 11 12  1  0
 12 13  1  1
 12 14  1  0
 14 15  1  6
 15 16  1  0
 16 17  1  0
 16 18  2  0
 18 19  1  0
 19 20  1  0
 20 21  1  0
 21 22  1  0
 22 23  1  0
 23 24  1  0
 24 25  1  0
 25 26  1  0
 26 27  2  0
 27 28  1  0
 28 29  2  0
 29 30  1  0
 30 31  1  0
 30 32  2  0
 28 33  1  0
 33 34  2  0
 33 35  1  0
  8 36  2  0
 32 26  1  0
 35 14  1  0
 36  4  1  0
M  END
$$$$
