
     RDKit          3D

 36 38  0  0  0  0  0  0  0  0999 V2000
  -23.1807  -38.0047   -8.7798 C   0  0  0  0  0  0  0  0  0  0  0  0
  -21.8267  -37.7843   -8.1899 C   0  0  0  0  0  0  0  0  0  0  0  0
  -21.9537  -36.6687   -7.1455 C   0  0  0  0  0  0  0  0  0  0  0  0
  -20.8228  -37.4245   -9.2168 C   0  0  0  0  0  0  0  0  0  0  0  0
  -21.2673  -37.0029  -10.4511 C   0  0  0  0  0  0  0  0  0  0  0  0
  -20.3110  -36.6716  -11.4045 C   0  0  0  0  0  0  0  0  0  0  0  0
  -18.9591  -36.7536  -11.1502 C   0  0  0  0  0  0  0  0  0  0  0  0
  -18.5221  -37.1769   -9.9125 C   0  0  0  0  0  0  0  0  0  0  0  0
  -17.1091  -37.2911   -9.5608 C   0  0  0  0  0  0  0  0  0  0  0  0
  -16.6108  -38.6406   -9.5733 N   0  0  0  0  0  0  0  0  0  0  0  0
  -16.4014  -39.1693   -8.2474 C   0  0  0  0  0  0  0  0  0  0  0  0
  -15.6622  -40.4578   -8.1732 C   0  0  1  0  0  0  0  0  0  0  0  0
  -16.1737  -41.0787   -6.9861 O   0  0  0  0  0  0  0  0  0  0  0  0
  -15.9479  -41.4621   -9.2503 C   0  0  2  0  0  0  0  0  0  0  0  0
  -14.7395  -42.0369   -9.9280 C   0  0  0  0  0  0  0  0  0  0  0  0
  -14.2787  -43.3866   -9.3600 C   0  0  0  0  0  0  0  0  0  0  0  0
  -13.1415  -42.9202   -8.4216 C   0  0  0  0  0  0  0  0  0  0  0  0
  -14.6962  -44.5891   -9.5558 C   0  0  0  0  0  0  0  0  0  0  0  0
  -15.7444  -45.3610  -10.3416 C   0  0  0  0  0  0  0  0  0  0  0  0
  -16.5620  -46.3412   -9.6221 C   0  0  0  0  0  0  0  0  0  0  0  0
  -16.3535  -46.6132   -8.1906 C   0  0  0  0  0  0  0  0  0  0  0  0
  -17.3274  -45.9905   -7.2285 C   0  0  0  0  0  0  0  0  0  0  0  0
  -18.6961  -46.5954   -7.2318 C   0  0  0  0  0  0  0  0  0  0  0  0
  -19.6788  -45.5942   -6.6694 C   0  0  0  0  0  0  0  0  0  0  0  0
  -20.4419  -44.9072   -7.6671 N   0  0  0  0  0  0  0  0  0  0  0  0
  -20.1849  -43.6754   -8.3739 C   0  0  0  0  0  0  0  0  0  0  0  0
  -19.0983  -43.2166   -9.0678 C   0  0  0  0  0  0  0  0  0  0  0  0
  -19.2112  -41.9446   -9.6010 C   0  0  0  0  0  0  0  0  0  0  0  0
  -20.4113  -41.2077   -9.4098 C   0  0  0  0  0  0  0  0  0  0  0  0
  -21.4918  -41.6926   -8.7102 C   0  0  0  0  0  0  0  0  0  0  0  0
  -22.7218  -40.8778   -8.5496 C   0  0  0  0  0  0  0  0  0  0  0  0
  -21.3405  -42.9073   -8.2174 N   0  0  0  0  0  0  0  0  0  0  0  0
  -18.2443  -41.1266  -10.3659 C   0  0  0  0  0  0  0  0  0  0  0  0
  -18.7997  -40.4755  -11.3655 O   0  0  0  0  0  0  0  0  0  0  0  0
  -16.8793  -40.8997  -10.2517 N   0  0  0  0  0  0  0  0  0  0  0  0
  -19.4710  -37.5026   -8.9739 C   0  0  0  0  0  0  0  0  0  0  0  0
  1  2  1  0
  2  3  1  0
  2  4  1  0
  4  5  2  0
  5  6  1  0
  6  7  2  0
  7  8  1  0
  8  9  1  0
  9 10  1  0
 10 11  1  0
 11 12  1  0
 12 13  1  1
 12 14  1  0
 14 15  1  6
 15 16  1  0
 16 17  1  0
 16 18  2  0
 18 19  1  0
 19 20  1  0
 20 21  1  0
 21 22  1  0
 22 23  1  0
 23 24  1  0
 24 25  1  0
 25 26  1  0
 26 27  2  0
 27 28  1  0
 28 29  2  0
 29 30  1  0
 30 31  1  0
 30 32  2  0
 28 33  1  0
 33 34  2  0
 33 35  1  0
  8 36  2  0
 32 26  1  0
 35 14  1  0
 36  4  1  0
M  END
$$$$
