
     RDKit          3D

 36 38  0  0  0  0  0  0  0  0999 V2000
  -14.2316  -45.8672  -10.6178 C   0  0  0  0  0  0  0  0  0  0  0  0
  -13.8834  -44.6123   -9.8873 C   0  0  0  0  0  0  0  0  0  0  0  0
  -14.5604  -44.6747   -8.5128 C   0  0  0  0  0  0  0  0  0  0  0  0
  -14.3110  -43.4013  -10.6238 C   0  0  0  0  0  0  0  0  0  0  0  0
  -14.7139  -43.5373  -11.9346 C   0  0  0  0  0  0  0  0  0  0  0  0
  -15.1095  -42.3894  -12.6122 C   0  0  0  0  0  0  0  0  0  0  0  0
  -15.1079  -41.1464  -12.0174 C   0  0  0  0  0  0  0  0  0  0  0  0
  -14.7029  -41.0183  -10.7052 C   0  0  0  0  0  0  0  0  0  0  0  0
  -14.6721  -39.7396  -10.0003 C   0  0  0  0  0  0  0  0  0  0  0  0
  -15.3219  -39.7635   -8.7170 N   0  0  0  0  0  0  0  0  0  0  0  0
  -16.7419  -39.5254   -8.8072 C   0  0  0  0  0  0  0  0  0  0  0  0
  -17.4128  -39.1236   -7.5421 C   0  0  1  0  0  0  0  0  0  0  0  0
  -18.5273  -38.3348   -7.9805 O   0  0  0  0  0  0  0  0  0  0  0  0
  -18.0478  -40.2193   -6.7380 C   0  0  2  0  0  0  0  0  0  0  0  0
  -18.2213  -39.9250   -5.2775 C   0  0  0  0  0  0  0  0  0  0  0  0
  -19.6134  -39.3997   -4.8998 C   0  0  0  0  0  0  0  0  0  0  0  0
  -19.3336  -37.8795   -4.8509 C   0  0  0  0  0  0  0  0  0  0  0  0
  -20.7325  -40.0025   -4.6925 C   0  0  0  0  0  0  0  0  0  0  0  0
  -21.3370  -41.3976   -4.6820 C   0  0  0  0  0  0  0  0  0  0  0  0
  -22.5891  -41.6119   -5.4121 C   0  0  0  0  0  0  0  0  0  0  0  0
  -23.2759  -40.5071   -6.1009 C   0  0  0  0  0  0  0  0  0  0  0  0
  -23.1192  -40.4316   -7.5947 C   0  0  0  0  0  0  0  0  0  0  0  0
  -23.8565  -41.4828   -8.3633 C   0  0  0  0  0  0  0  0  0  0  0  0
  -23.2176  -41.6375   -9.7243 C   0  0  0  0  0  0  0  0  0  0  0  0
  -22.3484  -42.7699   -9.8317 N   0  0  0  0  0  0  0  0  0  0  0  0
  -20.9336  -42.9046   -9.5807 C   0  0  0  0  0  0  0  0  0  0  0  0
  -20.1459  -42.5585   -8.5165 C   0  0  0  0  0  0  0  0  0  0  0  0
  -18.7946  -42.8263   -8.6488 C   0  0  0  0  0  0  0  0  0  0  0  0
  -18.3126  -43.4304   -9.8415 C   0  0  0  0  0  0  0  0  0  0  0  0
  -19.1258  -43.7720  -10.8969 C   0  0  0  0  0  0  0  0  0  0  0  0
  -18.5645  -44.4072  -12.1150 C   0  0  0  0  0  0  0  0  0  0  0  0
  -20.4055  -43.4971  -10.7297 N   0  0  0  0  0  0  0  0  0  0  0  0
  -17.6618  -42.5621   -7.7345 C   0  0  0  0  0  0  0  0  0  0  0  0
  -16.7999  -43.5552   -7.6840 O   0  0  0  0  0  0  0  0  0  0  0  0
  -17.3155  -41.4907   -6.9222 N   0  0  0  0  0  0  0  0  0  0  0  0
  -14.3134  -42.1556  -10.0401 C   0  0  0  0  0  0  0  0  0  0  0  0
  1  2  1  0
  2  3  1  0
  2  4  1  0
  4  5  2  0
  5  6  1  0
  6  7  2  0
  7  8  1  0
  8  9  1  0
  9 10  1  0
 10 11  1  0
 11 12  1  0
 12 13  1  6
 12 14  1  0
 14 15  1  1
 15 16  1  0
 16 17  1  0
 16 18  2  0
 18 19  1  0
 19 20  1  0
 20 21  1  0
 21 22  1  0
 22 23  1  0
 23 24  1  0
 24 25  1  0
 25 26  1  0
 26 27  2  0
 27 28  1  0
 28 29  2  0
 29 30  1  0
 30 31  1  0
 30 32  2  0
 28 33  1  0
 33 34  2  0
 33 35  1  0
  8 36  2  0
 32 26  1  0
 35 14  1  0
 36  4  1  0
M  END
$$$$
