
     RDKit          3D

 36 38  0  0  0  0  0  0  0  0999 V2000
  -20.1497  -37.8973  -12.5028 C   0  0  0  0  0  0  0  0  0  0  0  0
  -21.4591  -38.1111  -11.8177 C   0  0  0  0  0  0  0  0  0  0  0  0
  -22.2636  -36.8117  -11.9427 C   0  0  0  0  0  0  0  0  0  0  0  0
  -21.2899  -38.4840  -10.3951 C   0  0  0  0  0  0  0  0  0  0  0  0
  -22.2456  -39.2840   -9.8072 C   0  0  0  0  0  0  0  0  0  0  0  0
  -22.0725  -39.6223   -8.4697 C   0  0  0  0  0  0  0  0  0  0  0  0
  -20.9920  -39.1859   -7.7342 C   0  0  0  0  0  0  0  0  0  0  0  0
  -20.0398  -38.3853   -8.3296 C   0  0  0  0  0  0  0  0  0  0  0  0
  -18.8654  -37.8811   -7.6228 C   0  0  0  0  0  0  0  0  0  0  0  0
  -17.7890  -38.8306   -7.5258 N   0  0  0  0  0  0  0  0  0  0  0  0
  -16.4896  -38.2113   -7.6233 C   0  0  0  0  0  0  0  0  0  0  0  0
  -15.3714  -39.1105   -8.0147 C   0  0  1  0  0  0  0  0  0  0  0  0
  -15.6207  -40.3113   -7.2714 O   0  0  0  0  0  0  0  0  0  0  0  0
  -15.3468  -39.5745   -9.4410 C   0  0  2  0  0  0  0  0  0  0  0  0
  -14.8984  -38.5504  -10.4409 C   0  0  0  0  0  0  0  0  0  0  0  0
  -13.4123  -38.6409  -10.8150 C   0  0  0  0  0  0  0  0  0  0  0  0
  -12.8267  -37.5424   -9.8974 C   0  0  0  0  0  0  0  0  0  0  0  0
  -12.7770  -39.4061  -11.6333 C   0  0  0  0  0  0  0  0  0  0  0  0
  -13.0175  -40.5425  -12.6145 C   0  0  0  0  0  0  0  0  0  0  0  0
  -12.1555  -41.7239  -12.5258 C   0  0  0  0  0  0  0  0  0  0  0  0
  -11.0559  -41.8015  -11.5504 C   0  0  0  0  0  0  0  0  0  0  0  0
  -11.2952  -42.6268  -10.3162 C   0  0  0  0  0  0  0  0  0  0  0  0
  -11.3174  -44.1066  -10.5376 C   0  0  0  0  0  0  0  0  0  0  0  0
  -12.0712  -44.7634   -9.4041 C   0  0  0  0  0  0  0  0  0  0  0  0
  -13.4177  -45.1211   -9.7334 N   0  0  0  0  0  0  0  0  0  0  0  0
  -14.6509  -44.3814   -9.6103 C   0  0  0  0  0  0  0  0  0  0  0  0
  -15.0196  -43.1252  -10.0087 C   0  0  0  0  0  0  0  0  0  0  0  0
  -16.3090  -42.7399   -9.6859 C   0  0  0  0  0  0  0  0  0  0  0  0
  -17.1556  -43.6406   -8.9846 C   0  0  0  0  0  0  0  0  0  0  0  0
  -16.7621  -44.9004   -8.5974 C   0  0  0  0  0  0  0  0  0  0  0  0
  -17.6944  -45.7992   -7.8725 C   0  0  0  0  0  0  0  0  0  0  0  0
  -15.5255  -45.2257   -8.9231 N   0  0  0  0  0  0  0  0  0  0  0  0
  -17.0259  -41.4670   -9.9204 C   0  0  0  0  0  0  0  0  0  0  0  0
  -18.2758  -41.6424  -10.2926 O   0  0  0  0  0  0  0  0  0  0  0  0
  -16.6608  -40.1306   -9.8295 N   0  0  0  0  0  0  0  0  0  0  0  0
  -20.2153  -38.0542   -9.6513 C   0  0  0  0  0  0  0  0  0  0  0  0
  1  2  1  0
  2  3  1  0
  2  4  1  0
  4  5  2  0
  5  6  1  0
  6  7  2  0
  7  8  1  0
  8  9  1  0
  9 10  1  0
 10 11  1  0
 11 12  1  0
 12 13  1  1
 12 14  1  0
 14 15  1  6
 15 16  1  0
 16 17  1  0
 16 18  2  0
 18 19  1  0
 19 20  1  0
 20 21  1  0
 21 22  1  0
 22 23  1  0
 23 24  1  0
 24 25  1  0
 25 26  1  0
 26 27  2  0
 27 28  1  0
 28 29  2  0
 29 30  1  0
 30 31  1  0
 30 32  2  0
 28 33  1  0
 33 34  2  0
 33 35  1  0
  8 36  2  0
 32 26  1  0
 35 14  1  0
 36  4  1  0
M  END
$$$$
