
     RDKit          3D

 36 38  0  0  0  0  0  0  0  0999 V2000
  -15.9542  -33.3128  -11.1597 C   0  0  0  0  0  0  0  0  0  0  0  0
  -16.7370  -34.4304  -11.7663 C   0  0  0  0  0  0  0  0  0  0  0  0
  -18.0581  -34.5408  -10.9954 C   0  0  0  0  0  0  0  0  0  0  0  0
  -16.0008  -35.7140  -11.7243 C   0  0  0  0  0  0  0  0  0  0  0  0
  -15.9437  -36.4767  -12.8706 C   0  0  0  0  0  0  0  0  0  0  0  0
  -15.2505  -37.6806  -12.8127 C   0  0  0  0  0  0  0  0  0  0  0  0
  -14.6334  -38.1199  -11.6616 C   0  0  0  0  0  0  0  0  0  0  0  0
  -14.6952  -37.3510  -10.5182 C   0  0  0  0  0  0  0  0  0  0  0  0
  -14.0688  -37.7422   -9.2582 C   0  0  0  0  0  0  0  0  0  0  0  0
  -14.9933  -37.8850   -8.1652 N   0  0  0  0  0  0  0  0  0  0  0  0
  -15.5131  -39.2255   -8.0469 C   0  0  0  0  0  0  0  0  0  0  0  0
  -16.6776  -39.3905   -7.1365 C   0  0  1  0  0  0  0  0  0  0  0  0
  -17.5447  -38.3038   -7.4883 O   0  0  0  0  0  0  0  0  0  0  0  0
  -17.5301  -40.6069   -7.3458 C   0  0  2  0  0  0  0  0  0  0  0  0
  -17.3852  -41.6783   -6.3061 C   0  0  0  0  0  0  0  0  0  0  0  0
  -18.4449  -41.6296   -5.1966 C   0  0  0  0  0  0  0  0  0  0  0  0
  -17.6570  -40.8889   -4.0910 C   0  0  0  0  0  0  0  0  0  0  0  0
  -19.6619  -42.0486   -5.1513 C   0  0  0  0  0  0  0  0  0  0  0  0
  -20.7003  -42.7522   -6.0109 C   0  0  0  0  0  0  0  0  0  0  0  0
  -22.0394  -42.1634   -6.0947 C   0  0  0  0  0  0  0  0  0  0  0  0
  -22.3952  -40.9523   -5.3374 C   0  0  0  0  0  0  0  0  0  0  0  0
  -22.4336  -39.6569   -6.1004 C   0  0  0  0  0  0  0  0  0  0  0  0
  -23.5868  -39.5102   -7.0426 C   0  0  0  0  0  0  0  0  0  0  0  0
  -23.2377  -38.4805   -8.0925 C   0  0  0  0  0  0  0  0  0  0  0  0
  -22.8338  -39.0434   -9.3453 N   0  0  0  0  0  0  0  0  0  0  0  0
  -21.5306  -39.4207   -9.8375 C   0  0  0  0  0  0  0  0  0  0  0  0
  -20.5308  -40.1925   -9.3107 C   0  0  0  0  0  0  0  0  0  0  0  0
  -19.3862  -40.3110  -10.0794 C   0  0  0  0  0  0  0  0  0  0  0  0
  -19.3131  -39.6502  -11.3356 C   0  0  0  0  0  0  0  0  0  0  0  0
  -20.3339  -38.8817  -11.8450 C   0  0  0  0  0  0  0  0  0  0  0  0
  -20.2015  -38.2210  -13.1672 C   0  0  0  0  0  0  0  0  0  0  0  0
  -21.4047  -38.7939  -11.0789 N   0  0  0  0  0  0  0  0  0  0  0  0
  -18.1150  -41.0217   -9.8190 C   0  0  0  0  0  0  0  0  0  0  0  0
  -17.6479  -41.6446  -10.8799 O   0  0  0  0  0  0  0  0  0  0  0  0
  -17.3117  -41.1688   -8.6961 N   0  0  0  0  0  0  0  0  0  0  0  0
  -15.3810  -36.1622  -10.5808 C   0  0  0  0  0  0  0  0  0  0  0  0
  1  2  1  0
  2  3  1  0
  2  4  1  0
  4  5  2  0
  5  6  1  0
  6  7  2  0
  7  8  1  0
  8  9  1  0
  9 10  1  0
 10 11  1  0
 11 12  1  0
 12 13  1  6
 12 14  1  0
 14 15  1  1
 15 16  1  0
 16 17  1  0
 16 18  2  0
 18 19  1  0
 19 20  1  0
 20 21  1  0
 21 22  1  0
 22 23  1  0
 23 24  1  0
 24 25  1  0
 25 26  1  0
 26 27  2  0
 27 28  1  0
 28 29  2  0
 29 30  1  0
 30 31  1  0
 30 32  2  0
 28 33  1  0
 33 34  2  0
 33 35  1  0
  8 36  2  0
 32 26  1  0
 35 14  1  0
 36  4  1  0
M  END
$$$$
