
     RDKit          3D

 36 38  0  0  0  0  0  0  0  0999 V2000
  -22.5596  -39.1523   -9.7112 C   0  0  0  0  0  0  0  0  0  0  0  0
  -23.2369  -38.6339   -8.4855 C   0  0  0  0  0  0  0  0  0  0  0  0
  -22.9788  -37.1237   -8.4188 C   0  0  0  0  0  0  0  0  0  0  0  0
  -22.7512  -39.3000   -7.2559 C   0  0  0  0  0  0  0  0  0  0  0  0
  -23.6770  -39.8578   -6.4011 C   0  0  0  0  0  0  0  0  0  0  0  0
  -23.2038  -40.4769   -5.2496 C   0  0  0  0  0  0  0  0  0  0  0  0
  -21.8606  -40.5442   -4.9492 C   0  0  0  0  0  0  0  0  0  0  0  0
  -20.9401  -39.9832   -5.8095 C   0  0  0  0  0  0  0  0  0  0  0  0
  -19.5001  -40.0111   -5.5669 C   0  0  0  0  0  0  0  0  0  0  0  0
  -18.7054  -40.0295   -6.7660 N   0  0  0  0  0  0  0  0  0  0  0  0
  -17.2902  -40.1012   -6.4952 C   0  0  0  0  0  0  0  0  0  0  0  0
  -16.4386  -39.1357   -7.2400 C   0  0  1  0  0  0  0  0  0  0  0  0
  -15.1011  -39.5685   -6.9565 O   0  0  0  0  0  0  0  0  0  0  0  0
  -16.5171  -39.1827   -8.7373 C   0  0  2  0  0  0  0  0  0  0  0  0
  -16.9589  -37.9100   -9.3967 C   0  0  0  0  0  0  0  0  0  0  0  0
  -15.8084  -37.0234   -9.8935 C   0  0  0  0  0  0  0  0  0  0  0  0
  -15.7096  -36.0147   -8.7255 C   0  0  0  0  0  0  0  0  0  0  0  0
  -15.0836  -37.0717  -10.9570 C   0  0  0  0  0  0  0  0  0  0  0  0
  -14.9003  -37.8925  -12.2238 C   0  0  0  0  0  0  0  0  0  0  0  0
  -13.5447  -38.3216  -12.5771 C   0  0  0  0  0  0  0  0  0  0  0  0
  -12.3802  -37.9371  -11.7631 C   0  0  0  0  0  0  0  0  0  0  0  0
  -11.8210  -38.9806  -10.8358 C   0  0  0  0  0  0  0  0  0  0  0  0
  -11.0893  -40.0995  -11.5081 C   0  0  0  0  0  0  0  0  0  0  0  0
  -11.0594  -41.2948  -10.5836 C   0  0  0  0  0  0  0  0  0  0  0  0
  -12.0270  -42.3001  -10.9037 N   0  0  0  0  0  0  0  0  0  0  0  0
  -13.3887  -42.4790  -10.4600 C   0  0  0  0  0  0  0  0  0  0  0  0
  -14.4650  -41.6349  -10.4143 C   0  0  0  0  0  0  0  0  0  0  0  0
  -15.6302  -42.1649   -9.8885 C   0  0  0  0  0  0  0  0  0  0  0  0
  -15.6485  -43.5142   -9.4423 C   0  0  0  0  0  0  0  0  0  0  0  0
  -14.5531  -44.3440   -9.5018 C   0  0  0  0  0  0  0  0  0  0  0  0
  -14.6353  -45.7474   -9.0260 C   0  0  0  0  0  0  0  0  0  0  0  0
  -13.4635  -43.7978  -10.0073 N   0  0  0  0  0  0  0  0  0  0  0  0
  -16.9548  -41.5483   -9.6557 C   0  0  0  0  0  0  0  0  0  0  0  0
  -17.9545  -42.3455   -9.9666 O   0  0  0  0  0  0  0  0  0  0  0  0
  -17.3654  -40.3108   -9.1783 N   0  0  0  0  0  0  0  0  0  0  0  0
  -21.4128  -39.3730   -6.9460 C   0  0  0  0  0  0  0  0  0  0  0  0
  1  2  1  0
  2  3  1  0
  2  4  1  0
  4  5  2  0
  5  6  1  0
  6  7  2  0
  7  8  1  0
  8  9  1  0
  9 10  1  0
 10 11  1  0
 11 12  1  0
 12 13  1  6
 12 14  1  0
 14 15  1  1
 15 16  1  0
 16 17  1  0
 16 18  2  0
 18 19  1  0
 19 20  1  0
 20 21  1  0
 21 22  1  0
 22 23  1  0
 23 24  1  0
 24 25  1  0
 25 26  1  0
 26 27  2  0
 27 28  1  0
 28 29  2  0
 29 30  1  0
 30 31  1  0
 30 32  2  0
 28 33  1  0
 33 34  2  0
 33 35  1  0
  8 36  2  0
 32 26  1  0
 35 14  1  0
 36  4  1  0
M  END
$$$$
