
     RDKit          3D

 36 38  0  0  0  0  0  0  0  0999 V2000
  -23.7505  -39.4939   -4.5975 C   0  0  0  0  0  0  0  0  0  0  0  0
  -23.3813  -40.4415   -5.6909 C   0  0  0  0  0  0  0  0  0  0  0  0
  -22.6090  -41.6033   -5.0543 C   0  0  0  0  0  0  0  0  0  0  0  0
  -22.5682  -39.7900   -6.7426 C   0  0  0  0  0  0  0  0  0  0  0  0
  -23.1970  -39.3735   -7.8958 C   0  0  0  0  0  0  0  0  0  0  0  0
  -22.4179  -38.7661   -8.8743 C   0  0  0  0  0  0  0  0  0  0  0  0
  -21.0618  -38.5753   -8.7217 C   0  0  0  0  0  0  0  0  0  0  0  0
  -20.4395  -38.9952   -7.5647 C   0  0  0  0  0  0  0  0  0  0  0  0
  -19.0086  -38.8307   -7.3228 C   0  0  0  0  0  0  0  0  0  0  0  0
  -18.1967  -39.8774   -7.8839 N   0  0  0  0  0  0  0  0  0  0  0  0
  -16.8118  -39.7787   -7.4921 C   0  0  0  0  0  0  0  0  0  0  0  0
  -16.0100  -38.7463   -8.2016 C   0  0  1  0  0  0  0  0  0  0  0  0
  -14.6837  -38.9290   -7.6875 O   0  0  0  0  0  0  0  0  0  0  0  0
  -15.8440  -38.9211   -9.6822 C   0  0  2  0  0  0  0  0  0  0  0  0
  -16.1562  -37.7099  -10.5100 C   0  0  0  0  0  0  0  0  0  0  0  0
  -14.9289  -36.8676  -10.8852 C   0  0  0  0  0  0  0  0  0  0  0  0
  -15.0089  -35.7627   -9.8063 C   0  0  0  0  0  0  0  0  0  0  0  0
  -14.0412  -37.0058  -11.8081 C   0  0  0  0  0  0  0  0  0  0  0  0
  -13.6646  -37.9316  -12.9540 C   0  0  0  0  0  0  0  0  0  0  0  0
  -12.2751  -38.3877  -13.0435 C   0  0  0  0  0  0  0  0  0  0  0  0
  -11.2539  -37.9336  -12.0856 C   0  0  0  0  0  0  0  0  0  0  0  0
  -10.8666  -38.8934  -10.9946 C   0  0  0  0  0  0  0  0  0  0  0  0
  -10.0496  -40.0648  -11.4413 C   0  0  0  0  0  0  0  0  0  0  0  0
  -10.1860  -41.1767  -10.4267 C   0  0  0  0  0  0  0  0  0  0  0  0
  -11.1013  -42.2068  -10.8146 N   0  0  0  0  0  0  0  0  0  0  0  0
  -12.5192  -42.3487  -10.5859 C   0  0  0  0  0  0  0  0  0  0  0  0
  -13.5777  -41.5052  -10.7881 C   0  0  0  0  0  0  0  0  0  0  0  0
  -14.8197  -41.9897  -10.4169 C   0  0  0  0  0  0  0  0  0  0  0  0
  -14.9277  -43.2959   -9.8673 C   0  0  0  0  0  0  0  0  0  0  0  0
  -13.8480  -44.1265   -9.6767 C   0  0  0  0  0  0  0  0  0  0  0  0
  -14.0245  -45.4842   -9.1040 C   0  0  0  0  0  0  0  0  0  0  0  0
  -12.6837  -43.6242  -10.0417 N   0  0  0  0  0  0  0  0  0  0  0  0
  -16.1565  -41.3570  -10.4566 C   0  0  0  0  0  0  0  0  0  0  0  0
  -17.1023  -42.1791  -10.8582 O   0  0  0  0  0  0  0  0  0  0  0  0
  -16.6235  -40.0838  -10.1589 N   0  0  0  0  0  0  0  0  0  0  0  0
  -21.2138  -39.5944   -6.6010 C   0  0  0  0  0  0  0  0  0  0  0  0
  1  2  1  0
  2  3  1  0
  2  4  1  0
  4  5  2  0
  5  6  1  0
  6  7  2  0
  7  8  1  0
  8  9  1  0
  9 10  1  0
 10 11  1  0
 11 12  1  0
 12 13  1  1
 12 14  1  0
 14 15  1  6
 15 16  1  0
 16 17  1  0
 16 18  2  0
 18 19  1  0
 19 20  1  0
 20 21  1  0
 21 22  1  0
 22 23  1  0
 23 24  1  0
 24 25  1  0
 25 26  1  0
 26 27  2  0
 27 28  1  0
 28 29  2  0
 29 30  1  0
 30 31  1  0
 30 32  2  0
 28 33  1  0
 33 34  2  0
 33 35  1  0
  8 36  2  0
 32 26  1  0
 35 14  1  0
 36  4  1  0
M  END
$$$$
