
     RDKit          3D

 36 38  0  0  0  0  0  0  0  0999 V2000
  -21.9455  -38.8775   -5.8374 C   0  0  0  0  0  0  0  0  0  0  0  0
  -22.6079  -38.5071   -7.1234 C   0  0  0  0  0  0  0  0  0  0  0  0
  -23.4793  -39.6936   -7.5528 C   0  0  0  0  0  0  0  0  0  0  0  0
  -21.6266  -38.1723   -8.1800 C   0  0  0  0  0  0  0  0  0  0  0  0
  -22.0098  -38.3008   -9.4974 C   0  0  0  0  0  0  0  0  0  0  0  0
  -21.0750  -37.9849  -10.4769 C   0  0  0  0  0  0  0  0  0  0  0  0
  -19.8022  -37.5562  -10.1684 C   0  0  0  0  0  0  0  0  0  0  0  0
  -19.4260  -37.4303   -8.8475 C   0  0  0  0  0  0  0  0  0  0  0  0
  -18.0986  -36.9823   -8.4346 C   0  0  0  0  0  0  0  0  0  0  0  0
  -17.0697  -37.9745   -8.5978 N   0  0  0  0  0  0  0  0  0  0  0  0
  -17.0272  -38.9175   -7.5070 C   0  0  0  0  0  0  0  0  0  0  0  0
  -16.1041  -40.0704   -7.6831 C   0  0  1  0  0  0  0  0  0  0  0  0
  -16.2548  -40.8189   -6.4692 O   0  0  0  0  0  0  0  0  0  0  0  0
  -16.4561  -41.0585   -8.7555 C   0  0  2  0  0  0  0  0  0  0  0  0
  -15.5593  -41.0468   -9.9577 C   0  0  0  0  0  0  0  0  0  0  0  0
  -14.4435  -42.1005   -9.9239 C   0  0  0  0  0  0  0  0  0  0  0  0
  -13.2610  -41.2381   -9.4245 C   0  0  0  0  0  0  0  0  0  0  0  0
  -14.4406  -43.3586  -10.1997 C   0  0  0  0  0  0  0  0  0  0  0  0
  -15.3724  -44.4669  -10.6639 C   0  0  0  0  0  0  0  0  0  0  0  0
  -15.3709  -45.7270   -9.9163 C   0  0  0  0  0  0  0  0  0  0  0  0
  -14.4656  -45.9430   -8.7759 C   0  0  0  0  0  0  0  0  0  0  0  0
  -15.0608  -45.8243   -7.3999 C   0  0  0  0  0  0  0  0  0  0  0  0
  -15.9677  -46.9463   -7.0026 C   0  0  0  0  0  0  0  0  0  0  0  0
  -16.8839  -46.4722   -5.8981 C   0  0  0  0  0  0  0  0  0  0  0  0
  -18.2005  -46.1292   -6.3437 N   0  0  0  0  0  0  0  0  0  0  0  0
  -18.7468  -44.8762   -6.8068 C   0  0  0  0  0  0  0  0  0  0  0  0
  -18.3288  -43.9773   -7.7502 C   0  0  0  0  0  0  0  0  0  0  0  0
  -19.1159  -42.8496   -7.9052 C   0  0  0  0  0  0  0  0  0  0  0  0
  -20.2804  -42.6916   -7.1060 C   0  0  0  0  0  0  0  0  0  0  0  0
  -20.6815  -43.6119   -6.1657 C   0  0  0  0  0  0  0  0  0  0  0  0
  -21.9121  -43.3945   -5.3652 C   0  0  0  0  0  0  0  0  0  0  0  0
  -19.9015  -44.6698   -6.0492 N   0  0  0  0  0  0  0  0  0  0  0  0
  -18.9567  -41.6723   -8.7870 C   0  0  0  0  0  0  0  0  0  0  0  0
  -20.0909  -41.2748   -9.3230 O   0  0  0  0  0  0  0  0  0  0  0  0
  -17.8677  -40.8990   -9.1662 N   0  0  0  0  0  0  0  0  0  0  0  0
  -20.3535  -37.7434   -7.8836 C   0  0  0  0  0  0  0  0  0  0  0  0
  1  2  1  0
  2  3  1  0
  2  4  1  0
  4  5  2  0
  5  6  1  0
  6  7  2  0
  7  8  1  0
  8  9  1  0
  9 10  1  0
 10 11  1  0
 11 12  1  0
 12 13  1  1
 12 14  1  0
 14 15  1  6
 15 16  1  0
 16 17  1  0
 16 18  2  0
 18 19  1  0
 19 20  1  0
 20 21  1  0
 21 22  1  0
 22 23  1  0
 23 24  1  0
 24 25  1  0
 25 26  1  0
 26 27  2  0
 27 28  1  0
 28 29  2  0
 29 30  1  0
 30 31  1  0
 30 32  2  0
 28 33  1  0
 33 34  2  0
 33 35  1  0
  8 36  2  0
 32 26  1  0
 35 14  1  0
 36  4  1  0
M  END
$$$$
