
     RDKit          3D

 36 38  0  0  0  0  0  0  0  0999 V2000
  -23.3697  -39.0875   -4.1805 C   0  0  0  0  0  0  0  0  0  0  0  0
  -22.6240  -40.3685   -4.3615 C   0  0  0  0  0  0  0  0  0  0  0  0
  -21.3874  -40.3152   -3.4562 C   0  0  0  0  0  0  0  0  0  0  0  0
  -22.2285  -40.5893   -5.7709 C   0  0  0  0  0  0  0  0  0  0  0  0
  -23.0210  -41.3971   -6.5571 C   0  0  0  0  0  0  0  0  0  0  0  0
  -22.6334  -41.5959   -7.8775 C   0  0  0  0  0  0  0  0  0  0  0  0
  -21.5002  -41.0175   -8.4068 C   0  0  0  0  0  0  0  0  0  0  0  0
  -20.7118  -40.2104   -7.6135 C   0  0  0  0  0  0  0  0  0  0  0  0
  -19.4967  -39.5591   -8.0955 C   0  0  0  0  0  0  0  0  0  0  0  0
  -18.3399  -40.4143   -8.1061 N   0  0  0  0  0  0  0  0  0  0  0  0
  -17.3139  -39.9748   -7.1920 C   0  0  0  0  0  0  0  0  0  0  0  0
  -16.2797  -39.0723   -7.7647 C   0  0  1  0  0  0  0  0  0  0  0  0
  -15.1264  -39.9141   -7.8991 O   0  0  0  0  0  0  0  0  0  0  0  0
  -16.5183  -38.5719   -9.1586 C   0  0  2  0  0  0  0  0  0  0  0  0
  -17.1350  -37.2079   -9.2535 C   0  0  0  0  0  0  0  0  0  0  0  0
  -16.1245  -36.0704   -9.4572 C   0  0  0  0  0  0  0  0  0  0  0  0
  -15.9825  -35.5604   -8.0042 C   0  0  0  0  0  0  0  0  0  0  0  0
  -15.5197  -35.6359  -10.5080 C   0  0  0  0  0  0  0  0  0  0  0  0
  -15.4090  -35.9027  -12.0009 C   0  0  0  0  0  0  0  0  0  0  0  0
  -14.0694  -36.0064  -12.5852 C   0  0  0  0  0  0  0  0  0  0  0  0
  -12.8587  -35.8141  -11.7706 C   0  0  0  0  0  0  0  0  0  0  0  0
  -12.1154  -37.0519  -11.3498 C   0  0  0  0  0  0  0  0  0  0  0  0
  -11.3711  -37.7478  -12.4458 C   0  0  0  0  0  0  0  0  0  0  0  0
  -11.1397  -39.1873  -12.0477 C   0  0  0  0  0  0  0  0  0  0  0  0
  -12.0492  -40.1107  -12.6557 N   0  0  0  0  0  0  0  0  0  0  0  0
  -13.3339  -40.6014  -12.2180 C   0  0  0  0  0  0  0  0  0  0  0  0
  -14.4654  -39.9684  -11.7800 C   0  0  0  0  0  0  0  0  0  0  0  0
  -15.5172  -40.7897  -11.4135 C   0  0  0  0  0  0  0  0  0  0  0  0
  -15.3732  -42.2002  -11.5117 C   0  0  0  0  0  0  0  0  0  0  0  0
  -14.2255  -42.8127  -11.9583 C   0  0  0  0  0  0  0  0  0  0  0  0
  -14.1371  -44.2916  -12.0453 C   0  0  0  0  0  0  0  0  0  0  0  0
  -13.2478  -41.9930  -12.2948 N   0  0  0  0  0  0  0  0  0  0  0  0
  -16.8550  -40.4649  -10.8714 C   0  0  0  0  0  0  0  0  0  0  0  0
  -17.8126  -41.2037  -11.3899 O   0  0  0  0  0  0  0  0  0  0  0  0
  -17.3126  -39.5496   -9.9330 N   0  0  0  0  0  0  0  0  0  0  0  0
  -21.0995  -40.0169   -6.3097 C   0  0  0  0  0  0  0  0  0  0  0  0
  1  2  1  0
  2  3  1  0
  2  4  1  0
  4  5  2  0
  5  6  1  0
  6  7  2  0
  7  8  1  0
  8  9  1  0
  9 10  1  0
 10 11  1  0
 11 12  1  0
 12 13  1  6
 12 14  1  0
 14 15  1  1
 15 16  1  0
 16 17  1  0
 16 18  2  0
 18 19  1  0
 19 20  1  0
 20 21  1  0
 21 22  1  0
 22 23  1  0
 23 24  1  0
 24 25  1  0
 25 26  1  0
 26 27  2  0
 27 28  1  0
 28 29  2  0
 29 30  1  0
 30 31  1  0
 30 32  2  0
 28 33  1  0
 33 34  2  0
 33 35  1  0
  8 36  2  0
 32 26  1  0
 35 14  1  0
 36  4  1  0
M  END
$$$$
