
     RDKit          3D

 36 38  0  0  0  0  0  0  0  0999 V2000
  -14.0814  -34.8152  -14.5586 C   0  0  0  0  0  0  0  0  0  0  0  0
  -14.2075  -34.6989  -13.0752 C   0  0  0  0  0  0  0  0  0  0  0  0
  -13.0330  -33.8482  -12.5770 C   0  0  0  0  0  0  0  0  0  0  0  0
  -14.2113  -36.0216  -12.4104 C   0  0  0  0  0  0  0  0  0  0  0  0
  -13.3718  -37.0022  -12.8928 C   0  0  0  0  0  0  0  0  0  0  0  0
  -13.3902  -38.2392  -12.2583 C   0  0  0  0  0  0  0  0  0  0  0  0
  -14.2101  -38.5025  -11.1826 C   0  0  0  0  0  0  0  0  0  0  0  0
  -15.0478  -37.5160  -10.7057 C   0  0  0  0  0  0  0  0  0  0  0  0
  -15.9466  -37.7115   -9.5712 C   0  0  0  0  0  0  0  0  0  0  0  0
  -16.1938  -39.0924   -9.2522 N   0  0  0  0  0  0  0  0  0  0  0  0
  -15.4885  -39.5260   -8.0708 C   0  0  0  0  0  0  0  0  0  0  0  0
  -15.7798  -40.9113   -7.6145 C   0  0  1  0  0  0  0  0  0  0  0  0
  -16.3313  -40.7315   -6.3030 O   0  0  0  0  0  0  0  0  0  0  0  0
  -16.8547  -41.6526   -8.3531 C   0  0  2  0  0  0  0  0  0  0  0  0
  -16.3906  -42.8476   -9.1317 C   0  0  0  0  0  0  0  0  0  0  0  0
  -16.5471  -44.1835   -8.3918 C   0  0  0  0  0  0  0  0  0  0  0  0
  -15.1109  -44.3720   -7.8503 C   0  0  0  0  0  0  0  0  0  0  0  0
  -17.5624  -44.9571   -8.2199 C   0  0  0  0  0  0  0  0  0  0  0  0
  -19.0389  -45.0609   -8.5677 C   0  0  0  0  0  0  0  0  0  0  0  0
  -19.9815  -45.3669   -7.4885 C   0  0  0  0  0  0  0  0  0  0  0  0
  -19.5206  -45.6143   -6.1127 C   0  0  0  0  0  0  0  0  0  0  0  0
  -19.6859  -44.4921   -5.1252 C   0  0  0  0  0  0  0  0  0  0  0  0
  -21.0950  -44.2273   -4.6967 C   0  0  0  0  0  0  0  0  0  0  0  0
  -21.1932  -42.8135   -4.1715 C   0  0  0  0  0  0  0  0  0  0  0  0
  -21.7516  -41.8846   -5.1068 N   0  0  0  0  0  0  0  0  0  0  0  0
  -21.1238  -41.0565   -6.1083 C   0  0  0  0  0  0  0  0  0  0  0  0
  -20.2276  -41.3301   -7.1057 C   0  0  0  0  0  0  0  0  0  0  0  0
  -19.8223  -40.2505   -7.8708 C   0  0  0  0  0  0  0  0  0  0  0  0
  -20.3438  -38.9581   -7.5923 C   0  0  0  0  0  0  0  0  0  0  0  0
  -21.2467  -38.7091   -6.5850 C   0  0  0  0  0  0  0  0  0  0  0  0
  -21.7611  -37.3376   -6.3465 C   0  0  0  0  0  0  0  0  0  0  0  0
  -21.6040  -39.7654   -5.8794 N   0  0  0  0  0  0  0  0  0  0  0  0
  -18.8579  -40.1651   -8.9895 C   0  0  0  0  0  0  0  0  0  0  0  0
  -19.2694  -39.3821   -9.9639 O   0  0  0  0  0  0  0  0  0  0  0  0
  -17.6135  -40.7329   -9.2277 N   0  0  0  0  0  0  0  0  0  0  0  0
  -15.0256  -36.2954  -11.3358 C   0  0  0  0  0  0  0  0  0  0  0  0
  1  2  1  0
  2  3  1  0
  2  4  1  0
  4  5  2  0
  5  6  1  0
  6  7  2  0
  7  8  1  0
  8  9  1  0
  9 10  1  0
 10 11  1  0
 11 12  1  0
 12 13  1  1
 12 14  1  0
 14 15  1  6
 15 16  1  0
 16 17  1  0
 16 18  2  0
 18 19  1  0
 19 20  1  0
 20 21  1  0
 21 22  1  0
 22 23  1  0
 23 24  1  0
 24 25  1  0
 25 26  1  0
 26 27  2  0
 27 28  1  0
 28 29  2  0
 29 30  1  0
 30 31  1  0
 30 32  2  0
 28 33  1  0
 33 34  2  0
 33 35  1  0
  8 36  2  0
 32 26  1  0
 35 14  1  0
 36  4  1  0
M  END
$$$$
