
     RDKit          3D

 36 38  0  0  0  0  0  0  0  0999 V2000
  -21.0124  -38.4489   -2.4029 C   0  0  0  0  0  0  0  0  0  0  0  0
  -21.4424  -39.8782   -2.4474 C   0  0  0  0  0  0  0  0  0  0  0  0
  -20.3007  -40.7225   -1.8685 C   0  0  0  0  0  0  0  0  0  0  0  0
  -21.7710  -40.3192   -3.8219 C   0  0  0  0  0  0  0  0  0  0  0  0
  -22.9022  -41.0822   -4.0145 C   0  0  0  0  0  0  0  0  0  0  0  0
  -23.1944  -41.4901   -5.3112 C   0  0  0  0  0  0  0  0  0  0  0  0
  -22.3969  -41.1572   -6.3847 C   0  0  0  0  0  0  0  0  0  0  0  0
  -21.2662  -40.3935   -6.1838 C   0  0  0  0  0  0  0  0  0  0  0  0
  -20.3685  -39.9963   -7.2652 C   0  0  0  0  0  0  0  0  0  0  0  0
  -19.1622  -39.3529   -6.8172 N   0  0  0  0  0  0  0  0  0  0  0  0
  -17.9835  -40.1485   -7.0601 C   0  0  0  0  0  0  0  0  0  0  0  0
  -16.7050  -39.3961   -7.1666 C   0  0  1  0  0  0  0  0  0  0  0  0
  -15.7081  -40.3608   -6.8033 O   0  0  0  0  0  0  0  0  0  0  0  0
  -16.2920  -38.9594   -8.5410 C   0  0  2  0  0  0  0  0  0  0  0  0
  -15.2050  -37.9268   -8.5863 C   0  0  0  0  0  0  0  0  0  0  0  0
  -13.7962  -38.5011   -8.7909 C   0  0  0  0  0  0  0  0  0  0  0  0
  -13.2873  -38.5174   -7.3306 C   0  0  0  0  0  0  0  0  0  0  0  0
  -13.1731  -38.8940   -9.8474 C   0  0  0  0  0  0  0  0  0  0  0  0
  -13.3687  -39.0351  -11.3486 C   0  0  0  0  0  0  0  0  0  0  0  0
  -13.0190  -40.3140  -11.9722 C   0  0  0  0  0  0  0  0  0  0  0  0
  -12.4507  -41.4219  -11.1871 C   0  0  0  0  0  0  0  0  0  0  0  0
  -13.3813  -42.5436  -10.8166 C   0  0  0  0  0  0  0  0  0  0  0  0
  -13.7795  -43.4371  -11.9491 C   0  0  0  0  0  0  0  0  0  0  0  0
  -15.0683  -44.1411  -11.5920 C   0  0  0  0  0  0  0  0  0  0  0  0
  -16.2309  -43.5644  -12.1964 N   0  0  0  0  0  0  0  0  0  0  0  0
  -17.1221  -42.5271  -11.7351 C   0  0  0  0  0  0  0  0  0  0  0  0
  -16.9017  -41.2662  -11.2509 C   0  0  0  0  0  0  0  0  0  0  0  0
  -18.0277  -40.5548  -10.8750 C   0  0  0  0  0  0  0  0  0  0  0  0
  -19.3112  -41.1497  -11.0108 C   0  0  0  0  0  0  0  0  0  0  0  0
  -19.5069  -42.4190  -11.5035 C   0  0  0  0  0  0  0  0  0  0  0  0
  -20.8735  -42.9842  -11.6281 C   0  0  0  0  0  0  0  0  0  0  0  0
  -18.4071  -43.0620  -11.8473 N   0  0  0  0  0  0  0  0  0  0  0  0
  -18.1675  -39.2037  -10.2885 C   0  0  0  0  0  0  0  0  0  0  0  0
  -19.1728  -38.5241  -10.7977 O   0  0  0  0  0  0  0  0  0  0  0  0
  -17.4659  -38.5036   -9.3163 N   0  0  0  0  0  0  0  0  0  0  0  0
  -20.9822  -39.9928   -4.9007 C   0  0  0  0  0  0  0  0  0  0  0  0
  1  2  1  0
  2  3  1  0
  2  4  1  0
  4  5  2  0
  5  6  1  0
  6  7  2  0
  7  8  1  0
  8  9  1  0
  9 10  1  0
 10 11  1  0
 11 12  1  0
 12 13  1  6
 12 14  1  0
 14 15  1  1
 15 16  1  0
 16 17  1  0
 16 18  2  0
 18 19  1  0
 19 20  1  0
 20 21  1  0
 21 22  1  0
 22 23  1  0
 23 24  1  0
 24 25  1  0
 25 26  1  0
 26 27  2  0
 27 28  1  0
 28 29  2  0
 29 30  1  0
 30 31  1  0
 30 32  2  0
 28 33  1  0
 33 34  2  0
 33 35  1  0
  8 36  2  0
 32 26  1  0
 35 14  1  0
 36  4  1  0
M  END
$$$$
