
     RDKit          3D

 36 38  0  0  0  0  0  0  0  0999 V2000
  -17.1518  -34.2037   -9.3593 C   0  0  0  0  0  0  0  0  0  0  0  0
  -17.2067  -34.7026  -10.7657 C   0  0  0  0  0  0  0  0  0  0  0  0
  -18.6439  -35.1638  -11.0366 C   0  0  0  0  0  0  0  0  0  0  0  0
  -16.2516  -35.8086  -11.0028 C   0  0  0  0  0  0  0  0  0  0  0  0
  -15.9428  -36.1428  -12.3035 C   0  0  0  0  0  0  0  0  0  0  0  0
  -15.0462  -37.1856  -12.5081 C   0  0  0  0  0  0  0  0  0  0  0  0
  -14.4720  -37.8779  -11.4641 C   0  0  0  0  0  0  0  0  0  0  0  0
  -14.7863  -37.5377  -10.1650 C   0  0  0  0  0  0  0  0  0  0  0  0
  -14.2226  -38.2190   -9.0026 C   0  0  0  0  0  0  0  0  0  0  0  0
  -14.7286  -39.5509   -8.8032 N   0  0  0  0  0  0  0  0  0  0  0  0
  -15.6568  -39.6350   -7.7020 C   0  0  0  0  0  0  0  0  0  0  0  0
  -16.6444  -40.7449   -7.7708 C   0  0  1  0  0  0  0  0  0  0  0  0
  -17.0267  -40.9490   -6.4038 O   0  0  0  0  0  0  0  0  0  0  0  0
  -17.9427  -40.4506   -8.4623 C   0  0  2  0  0  0  0  0  0  0  0  0
  -17.8832  -40.4404   -9.9610 C   0  0  0  0  0  0  0  0  0  0  0  0
  -18.3038  -41.7620  -10.6190 C   0  0  0  0  0  0  0  0  0  0  0  0
  -16.9179  -42.3957  -10.8820 C   0  0  0  0  0  0  0  0  0  0  0  0
  -19.4617  -42.2611  -10.8815 C   0  0  0  0  0  0  0  0  0  0  0  0
  -20.9423  -41.9433  -10.7444 C   0  0  0  0  0  0  0  0  0  0  0  0
  -21.8185  -42.9717  -10.1776 C   0  0  0  0  0  0  0  0  0  0  0  0
  -21.3012  -44.2945   -9.7912 C   0  0  0  0  0  0  0  0  0  0  0  0
  -21.0714  -44.5359   -8.3247 C   0  0  0  0  0  0  0  0  0  0  0  0
  -22.3141  -44.6876   -7.5049 C   0  0  0  0  0  0  0  0  0  0  0  0
  -21.9910  -44.3868   -6.0595 C   0  0  0  0  0  0  0  0  0  0  0  0
  -22.3820  -43.0755   -5.6385 N   0  0  0  0  0  0  0  0  0  0  0  0
  -21.6657  -41.8227   -5.6558 C   0  0  0  0  0  0  0  0  0  0  0  0
  -20.9754  -41.1655   -6.6379 C   0  0  0  0  0  0  0  0  0  0  0  0
  -20.3843  -39.9700   -6.2684 C   0  0  0  0  0  0  0  0  0  0  0  0
  -20.5240  -39.5011   -4.9341 C   0  0  0  0  0  0  0  0  0  0  0  0
  -21.2263  -40.1793   -3.9651 C   0  0  0  0  0  0  0  0  0  0  0  0
  -21.3429  -39.6353   -2.5892 C   0  0  0  0  0  0  0  0  0  0  0  0
  -21.7711  -41.3145   -4.3595 N   0  0  0  0  0  0  0  0  0  0  0  0
  -19.5479  -39.0248   -7.0405 C   0  0  0  0  0  0  0  0  0  0  0  0
  -19.8392  -37.7647   -6.7980 O   0  0  0  0  0  0  0  0  0  0  0  0
  -18.5225  -39.1852   -7.9627 N   0  0  0  0  0  0  0  0  0  0  0  0
  -15.6724  -36.5065   -9.9683 C   0  0  0  0  0  0  0  0  0  0  0  0
  1  2  1  0
  2  3  1  0
  2  4  1  0
  4  5  2  0
  5  6  1  0
  6  7  2  0
  7  8  1  0
  8  9  1  0
  9 10  1  0
 10 11  1  0
 11 12  1  0
 12 13  1  1
 12 14  1  0
 14 15  1  6
 15 16  1  0
 16 17  1  0
 16 18  2  0
 18 19  1  0
 19 20  1  0
 20 21  1  0
 21 22  1  0
 22 23  1  0
 23 24  1  0
 24 25  1  0
 25 26  1  0
 26 27  2  0
 27 28  1  0
 28 29  2  0
 29 30  1  0
 30 31  1  0
 30 32  2  0
 28 33  1  0
 33 34  2  0
 33 35  1  0
  8 36  2  0
 32 26  1  0
 35 14  1  0
 36  4  1  0
M  END
$$$$
