
     RDKit          3D

 36 38  0  0  0  0  0  0  0  0999 V2000
  -21.9689  -38.4723   -4.2750 C   0  0  0  0  0  0  0  0  0  0  0  0
  -22.5970  -39.5001   -5.1574 C   0  0  0  0  0  0  0  0  0  0  0  0
  -22.1219  -40.8760   -4.6749 C   0  0  0  0  0  0  0  0  0  0  0  0
  -22.2495  -39.2994   -6.5824 C   0  0  0  0  0  0  0  0  0  0  0  0
  -23.0043  -39.9417   -7.5397 C   0  0  0  0  0  0  0  0  0  0  0  0
  -22.6624  -39.7443   -8.8729 C   0  0  0  0  0  0  0  0  0  0  0  0
  -21.6095  -38.9398   -9.2513 C   0  0  0  0  0  0  0  0  0  0  0  0
  -20.8584  -38.3006   -8.2871 C   0  0  0  0  0  0  0  0  0  0  0  0
  -19.7281  -37.4310   -8.6021 C   0  0  0  0  0  0  0  0  0  0  0  0
  -18.6322  -37.5381   -7.6762 N   0  0  0  0  0  0  0  0  0  0  0  0
  -18.2228  -38.9034   -7.4534 C   0  0  0  0  0  0  0  0  0  0  0  0
  -16.7623  -39.1660   -7.5532 C   0  0  1  0  0  0  0  0  0  0  0  0
  -16.5376  -40.2188   -6.6057 O   0  0  0  0  0  0  0  0  0  0  0  0
  -16.2675  -39.7415   -8.8472 C   0  0  2  0  0  0  0  0  0  0  0  0
  -15.2827  -38.8905   -9.5927 C   0  0  0  0  0  0  0  0  0  0  0  0
  -13.8133  -39.2567   -9.3409 C   0  0  0  0  0  0  0  0  0  0  0  0
  -13.4417  -38.2002   -8.2746 C   0  0  0  0  0  0  0  0  0  0  0  0
  -13.0616  -40.1805   -9.8311 C   0  0  0  0  0  0  0  0  0  0  0  0
  -13.1042  -41.3367  -10.8177 C   0  0  0  0  0  0  0  0  0  0  0  0
  -12.5800  -42.6338  -10.3826 C   0  0  0  0  0  0  0  0  0  0  0  0
  -11.9848  -42.8139   -9.0485 C   0  0  0  0  0  0  0  0  0  0  0  0
  -12.8361  -43.4853   -8.0062 C   0  0  0  0  0  0  0  0  0  0  0  0
  -13.0427  -44.9539   -8.2063 C   0  0  0  0  0  0  0  0  0  0  0  0
  -14.2871  -45.3824   -7.4634 C   0  0  0  0  0  0  0  0  0  0  0  0
  -15.4382  -45.5368   -8.3005 N   0  0  0  0  0  0  0  0  0  0  0  0
  -16.4615  -44.5950   -8.6863 C   0  0  0  0  0  0  0  0  0  0  0  0
  -16.4060  -43.3314   -9.2088 C   0  0  0  0  0  0  0  0  0  0  0  0
  -17.6235  -42.7123   -9.4311 C   0  0  0  0  0  0  0  0  0  0  0  0
  -18.8276  -43.4000   -9.1194 C   0  0  0  0  0  0  0  0  0  0  0  0
  -18.8570  -44.6723   -8.5974 C   0  0  0  0  0  0  0  0  0  0  0  0
  -20.1472  -45.3420   -8.2983 C   0  0  0  0  0  0  0  0  0  0  0  0
  -17.6748  -45.2238   -8.3992 N   0  0  0  0  0  0  0  0  0  0  0  0
  -17.9430  -41.3613   -9.9426 C   0  0  0  0  0  0  0  0  0  0  0  0
  -18.9565  -41.3560  -10.7819 O   0  0  0  0  0  0  0  0  0  0  0  0
  -17.4027  -40.1011   -9.7240 N   0  0  0  0  0  0  0  0  0  0  0  0
  -21.2006  -38.4986   -6.9714 C   0  0  0  0  0  0  0  0  0  0  0  0
  1  2  1  0
  2  3  1  0
  2  4  1  0
  4  5  2  0
  5  6  1  0
  6  7  2  0
  7  8  1  0
  8  9  1  0
  9 10  1  0
 10 11  1  0
 11 12  1  0
 12 13  1  1
 12 14  1  0
 14 15  1  6
 15 16  1  0
 16 17  1  0
 16 18  2  0
 18 19  1  0
 19 20  1  0
 20 21  1  0
 21 22  1  0
 22 23  1  0
 23 24  1  0
 24 25  1  0
 25 26  1  0
 26 27  2  0
 27 28  1  0
 28 29  2  0
 29 30  1  0
 30 31  1  0
 30 32  2  0
 28 33  1  0
 33 34  2  0
 33 35  1  0
  8 36  2  0
 32 26  1  0
 35 14  1  0
 36  4  1  0
M  END
$$$$
