
     RDKit          3D

 36 38  0  0  0  0  0  0  0  0999 V2000
  -22.6710  -42.1592   -5.5397 C   0  0  0  0  0  0  0  0  0  0  0  0
  -23.0708  -40.7277   -5.3956 C   0  0  0  0  0  0  0  0  0  0  0  0
  -24.5897  -40.6502   -5.5915 C   0  0  0  0  0  0  0  0  0  0  0  0
  -22.3752  -39.8538   -6.3673 C   0  0  0  0  0  0  0  0  0  0  0  0
  -22.9371  -39.6783   -7.6132 C   0  0  0  0  0  0  0  0  0  0  0  0
  -22.2692  -38.8566   -8.5142 C   0  0  0  0  0  0  0  0  0  0  0  0
  -21.0845  -38.2278   -8.1981 C   0  0  0  0  0  0  0  0  0  0  0  0
  -20.5281  -38.4086   -6.9492 C   0  0  0  0  0  0  0  0  0  0  0  0
  -19.2775  -37.7791   -6.5335 C   0  0  0  0  0  0  0  0  0  0  0  0
  -18.1396  -38.6587   -6.5706 N   0  0  0  0  0  0  0  0  0  0  0  0
  -17.7782  -39.0456   -7.9126 C   0  0  0  0  0  0  0  0  0  0  0  0
  -16.4369  -38.6003   -8.3759 C   0  0  1  0  0  0  0  0  0  0  0  0
  -15.5267  -39.3187   -7.5322 O   0  0  0  0  0  0  0  0  0  0  0  0
  -16.0327  -39.0075   -9.7620 C   0  0  2  0  0  0  0  0  0  0  0  0
  -15.6083  -37.8853  -10.6621 C   0  0  0  0  0  0  0  0  0  0  0  0
  -14.0903  -37.6657  -10.7255 C   0  0  0  0  0  0  0  0  0  0  0  0
  -13.9352  -36.5000   -9.7212 C   0  0  0  0  0  0  0  0  0  0  0  0
  -13.1623  -38.2639  -11.3886 C   0  0  0  0  0  0  0  0  0  0  0  0
  -12.9661  -39.3958  -12.3848 C   0  0  0  0  0  0  0  0  0  0  0  0
  -11.9193  -40.3831  -12.1090 C   0  0  0  0  0  0  0  0  0  0  0  0
  -11.0459  -40.2682  -10.9297 C   0  0  0  0  0  0  0  0  0  0  0  0
  -11.3572  -41.1609   -9.7602 C   0  0  0  0  0  0  0  0  0  0  0  0
  -11.0353  -42.6081   -9.9639 C   0  0  0  0  0  0  0  0  0  0  0  0
  -11.8534  -43.4356   -8.9995 C   0  0  0  0  0  0  0  0  0  0  0  0
  -13.0057  -44.0453   -9.5910 N   0  0  0  0  0  0  0  0  0  0  0  0
  -14.3617  -43.5711   -9.7296 C   0  0  0  0  0  0  0  0  0  0  0  0
  -14.8884  -42.4027  -10.2094 C   0  0  0  0  0  0  0  0  0  0  0  0
  -16.2671  -42.2927  -10.1597 C   0  0  0  0  0  0  0  0  0  0  0  0
  -17.0380  -43.3648   -9.6342 C   0  0  0  0  0  0  0  0  0  0  0  0
  -16.4845  -44.5315   -9.1604 C   0  0  0  0  0  0  0  0  0  0  0  0
  -17.3427  -45.6196   -8.6293 C   0  0  0  0  0  0  0  0  0  0  0  0
  -15.1680  -44.5931   -9.2244 N   0  0  0  0  0  0  0  0  0  0  0  0
  -17.1638  -41.1825  -10.5499 C   0  0  0  0  0  0  0  0  0  0  0  0
  -18.2517  -41.5931  -11.1660 O   0  0  0  0  0  0  0  0  0  0  0  0
  -17.1019  -39.8033  -10.4026 N   0  0  0  0  0  0  0  0  0  0  0  0
  -21.1922  -39.2211   -6.0625 C   0  0  0  0  0  0  0  0  0  0  0  0
  1  2  1  0
  2  3  1  0
  2  4  1  0
  4  5  2  0
  5  6  1  0
  6  7  2  0
  7  8  1  0
  8  9  1  0
  9 10  1  0
 10 11  1  0
 11 12  1  0
 12 13  1  1
 12 14  1  0
 14 15  1  6
 15 16  1  0
 16 17  1  0
 16 18  2  0
 18 19  1  0
 19 20  1  0
 20 21  1  0
 21 22  1  0
 22 23  1  0
 23 24  1  0
 24 25  1  0
 25 26  1  0
 26 27  2  0
 27 28  1  0
 28 29  2  0
 29 30  1  0
 30 31  1  0
 30 32  2  0
 28 33  1  0
 33 34  2  0
 33 35  1  0
  8 36  2  0
 32 26  1  0
 35 14  1  0
 36  4  1  0
M  END
$$$$
