
     RDKit          3D

 36 38  0  0  0  0  0  0  0  0999 V2000
  -20.1349  -36.9017  -10.9738 C   0  0  0  0  0  0  0  0  0  0  0  0
  -21.2923  -36.5151  -10.1131 C   0  0  0  0  0  0  0  0  0  0  0  0
  -21.0649  -35.0693   -9.6553 C   0  0  0  0  0  0  0  0  0  0  0  0
  -21.4440  -37.4131   -8.9460 C   0  0  0  0  0  0  0  0  0  0  0  0
  -22.6829  -37.9618   -8.6955 C   0  0  0  0  0  0  0  0  0  0  0  0
  -22.8083  -38.8007   -7.5938 C   0  0  0  0  0  0  0  0  0  0  0  0
  -21.7465  -39.0897   -6.7644 C   0  0  0  0  0  0  0  0  0  0  0  0
  -20.5095  -38.5364   -7.0214 C   0  0  0  0  0  0  0  0  0  0  0  0
  -19.3333  -38.7913   -6.1940 C   0  0  0  0  0  0  0  0  0  0  0  0
  -19.0720  -40.1871   -5.9634 N   0  0  0  0  0  0  0  0  0  0  0  0
  -17.6648  -40.5031   -5.9964 C   0  0  0  0  0  0  0  0  0  0  0  0
  -16.8755  -39.8337   -7.0647 C   0  0  1  0  0  0  0  0  0  0  0  0
  -15.5278  -40.2512   -6.8080 O   0  0  0  0  0  0  0  0  0  0  0  0
  -17.1256  -40.2872   -8.4725 C   0  0  2  0  0  0  0  0  0  0  0  0
  -17.1604  -39.1961   -9.5012 C   0  0  0  0  0  0  0  0  0  0  0  0
  -15.8322  -38.9824  -10.2407 C   0  0  0  0  0  0  0  0  0  0  0  0
  -15.2608  -37.7847   -9.4466 C   0  0  0  0  0  0  0  0  0  0  0  0
  -15.2891  -39.6042  -11.2292 C   0  0  0  0  0  0  0  0  0  0  0  0
  -15.5428  -40.7687  -12.1735 C   0  0  0  0  0  0  0  0  0  0  0  0
  -14.4705  -41.7490  -12.3628 C   0  0  0  0  0  0  0  0  0  0  0  0
  -13.1649  -41.5975  -11.7001 C   0  0  0  0  0  0  0  0  0  0  0  0
  -12.9118  -42.4506  -10.4877 C   0  0  0  0  0  0  0  0  0  0  0  0
  -12.6963  -43.9044  -10.7693 C   0  0  0  0  0  0  0  0  0  0  0  0
  -12.9890  -44.6979   -9.5167 C   0  0  0  0  0  0  0  0  0  0  0  0
  -14.2765  -45.3239   -9.5143 N   0  0  0  0  0  0  0  0  0  0  0  0
  -15.5582  -44.8513   -9.0488 C   0  0  0  0  0  0  0  0  0  0  0  0
  -16.2580  -43.6980   -9.2791 C   0  0  0  0  0  0  0  0  0  0  0  0
  -17.4716  -43.5831   -8.6240 C   0  0  0  0  0  0  0  0  0  0  0  0
  -17.9145  -44.6355   -7.7778 C   0  0  0  0  0  0  0  0  0  0  0  0
  -17.1935  -45.7874   -7.5648 C   0  0  0  0  0  0  0  0  0  0  0  0
  -17.7118  -46.8554   -6.6742 C   0  0  0  0  0  0  0  0  0  0  0  0
  -16.0424  -45.8542   -8.2065 N   0  0  0  0  0  0  0  0  0  0  0  0
  -18.4621  -42.4841   -8.6076 C   0  0  0  0  0  0  0  0  0  0  0  0
  -19.7053  -42.9121   -8.6618 O   0  0  0  0  0  0  0  0  0  0  0  0
  -18.3582  -41.1010   -8.5453 N   0  0  0  0  0  0  0  0  0  0  0  0
  -20.3909  -37.7086   -8.1114 C   0  0  0  0  0  0  0  0  0  0  0  0
  1  2  1  0
  2  3  1  0
  2  4  1  0
  4  5  2  0
  5  6  1  0
  6  7  2  0
  7  8  1  0
  8  9  1  0
  9 10  1  0
 10 11  1  0
 11 12  1  0
 12 13  1  1
 12 14  1  0
 14 15  1  6
 15 16  1  0
 16 17  1  0
 16 18  2  0
 18 19  1  0
 19 20  1  0
 20 21  1  0
 21 22  1  0
 22 23  1  0
 23 24  1  0
 24 25  1  0
 25 26  1  0
 26 27  2  0
 27 28  1  0
 28 29  2  0
 29 30  1  0
 30 31  1  0
 30 32  2  0
 28 33  1  0
 33 34  2  0
 33 35  1  0
  8 36  2  0
 32 26  1  0
 35 14  1  0
 36  4  1  0
M  END
$$$$
