
     RDKit          3D

 36 38  0  0  0  0  0  0  0  0999 V2000
  -15.6836  -34.1282  -12.4283 C   0  0  0  0  0  0  0  0  0  0  0  0
  -14.8141  -34.6998  -11.3573 C   0  0  0  0  0  0  0  0  0  0  0  0
  -13.6044  -33.7708  -11.1993 C   0  0  0  0  0  0  0  0  0  0  0  0
  -14.3748  -36.0780  -11.6720 C   0  0  0  0  0  0  0  0  0  0  0  0
  -13.9165  -36.3477  -12.9433 C   0  0  0  0  0  0  0  0  0  0  0  0
  -13.5105  -37.6479  -13.2224 C   0  0  0  0  0  0  0  0  0  0  0  0
  -13.5549  -38.6512  -12.2789 C   0  0  0  0  0  0  0  0  0  0  0  0
  -14.0151  -38.3736  -11.0087 C   0  0  0  0  0  0  0  0  0  0  0  0
  -14.0937  -39.3775   -9.9509 C   0  0  0  0  0  0  0  0  0  0  0  0
  -15.0015  -39.0370   -8.8880 N   0  0  0  0  0  0  0  0  0  0  0  0
  -16.3318  -39.5509   -9.1058 C   0  0  0  0  0  0  0  0  0  0  0  0
  -17.4032  -38.9512   -8.2663 C   0  0  1  0  0  0  0  0  0  0  0  0
  -18.5230  -38.8545   -9.1569 O   0  0  0  0  0  0  0  0  0  0  0  0
  -17.9211  -39.7884   -7.1344 C   0  0  2  0  0  0  0  0  0  0  0  0
  -18.5866  -39.0276   -6.0262 C   0  0  0  0  0  0  0  0  0  0  0  0
  -20.1163  -38.9605   -6.1357 C   0  0  0  0  0  0  0  0  0  0  0  0
  -20.2887  -37.5627   -6.7745 C   0  0  0  0  0  0  0  0  0  0  0  0
  -21.0383  -39.8034   -5.8224 C   0  0  0  0  0  0  0  0  0  0  0  0
  -21.2149  -41.1948   -5.2353 C   0  0  0  0  0  0  0  0  0  0  0  0
  -22.0914  -42.1341   -5.9398 C   0  0  0  0  0  0  0  0  0  0  0  0
  -22.8213  -41.7399   -7.1556 C   0  0  0  0  0  0  0  0  0  0  0  0
  -22.2625  -42.2104   -8.4701 C   0  0  0  0  0  0  0  0  0  0  0  0
  -22.4273  -43.6727   -8.7420 C   0  0  0  0  0  0  0  0  0  0  0  0
  -21.4024  -44.1023   -9.7663 C   0  0  0  0  0  0  0  0  0  0  0  0
  -20.2652  -44.7671   -9.2054 N   0  0  0  0  0  0  0  0  0  0  0  0
  -19.0047  -44.2491   -8.7306 C   0  0  0  0  0  0  0  0  0  0  0  0
  -18.6875  -43.2412   -7.8609 C   0  0  0  0  0  0  0  0  0  0  0  0
  -17.3371  -43.0106   -7.6653 C   0  0  0  0  0  0  0  0  0  0  0  0
  -16.3823  -43.8088   -8.3517 C   0  0  0  0  0  0  0  0  0  0  0  0
  -16.7267  -44.8190   -9.2194 C   0  0  0  0  0  0  0  0  0  0  0  0
  -15.6834  -45.6236   -9.9025 C   0  0  0  0  0  0  0  0  0  0  0  0
  -18.0237  -45.0029   -9.3782 N   0  0  0  0  0  0  0  0  0  0  0  0
  -16.6374  -42.0012   -6.8403 C   0  0  0  0  0  0  0  0  0  0  0  0
  -15.5911  -42.4893   -6.2090 O   0  0  0  0  0  0  0  0  0  0  0  0
  -16.8491  -40.6514   -6.5933 N   0  0  0  0  0  0  0  0  0  0  0  0
  -14.4147  -37.0874  -10.7380 C   0  0  0  0  0  0  0  0  0  0  0  0
  1  2  1  0
  2  3  1  0
  2  4  1  0
  4  5  2  0
  5  6  1  0
  6  7  2  0
  7  8  1  0
  8  9  1  0
  9 10  1  0
 10 11  1  0
 11 12  1  0
 12 13  1  6
 12 14  1  0
 14 15  1  1
 15 16  1  0
 16 17  1  0
 16 18  2  0
 18 19  1  0
 19 20  1  0
 20 21  1  0
 21 22  1  0
 22 23  1  0
 23 24  1  0
 24 25  1  0
 25 26  1  0
 26 27  2  0
 27 28  1  0
 28 29  2  0
 29 30  1  0
 30 31  1  0
 30 32  2  0
 28 33  1  0
 33 34  2  0
 33 35  1  0
  8 36  2  0
 32 26  1  0
 35 14  1  0
 36  4  1  0
M  END
$$$$
