
     RDKit          3D

 36 38  0  0  0  0  0  0  0  0999 V2000
  -24.2264  -39.1970   -6.9590 C   0  0  0  0  0  0  0  0  0  0  0  0
  -23.6639  -40.5672   -7.1480 C   0  0  0  0  0  0  0  0  0  0  0  0
  -23.9959  -41.3804   -5.8911 C   0  0  0  0  0  0  0  0  0  0  0  0
  -22.2023  -40.5429   -7.3815 C   0  0  0  0  0  0  0  0  0  0  0  0
  -21.5925  -41.6860   -7.8509 C   0  0  0  0  0  0  0  0  0  0  0  0
  -20.2188  -41.6465   -8.0619 C   0  0  0  0  0  0  0  0  0  0  0  0
  -19.4690  -40.5164   -7.8178 C   0  0  0  0  0  0  0  0  0  0  0  0
  -20.0865  -39.3762   -7.3478 C   0  0  0  0  0  0  0  0  0  0  0  0
  -19.3666  -38.1374   -7.0645 C   0  0  0  0  0  0  0  0  0  0  0  0
  -18.0235  -38.3372   -6.5894 N   0  0  0  0  0  0  0  0  0  0  0  0
  -17.2798  -39.2719   -7.3985 C   0  0  0  0  0  0  0  0  0  0  0  0
  -16.1387  -38.7016   -8.1632 C   0  0  1  0  0  0  0  0  0  0  0  0
  -15.0048  -39.4406   -7.6892 O   0  0  0  0  0  0  0  0  0  0  0  0
  -16.1289  -38.9468   -9.6431 C   0  0  2  0  0  0  0  0  0  0  0  0
  -17.2208  -38.2655  -10.4133 C   0  0  0  0  0  0  0  0  0  0  0  0
  -16.8086  -36.9288  -11.0456 C   0  0  0  0  0  0  0  0  0  0  0  0
  -17.3641  -35.9402   -9.9941 C   0  0  0  0  0  0  0  0  0  0  0  0
  -16.1657  -36.6512  -12.1265 C   0  0  0  0  0  0  0  0  0  0  0  0
  -15.4924  -37.3331  -13.3071 C   0  0  0  0  0  0  0  0  0  0  0  0
  -14.1375  -36.9080  -13.6678 C   0  0  0  0  0  0  0  0  0  0  0  0
  -13.4548  -35.8221  -12.9457 C   0  0  0  0  0  0  0  0  0  0  0  0
  -12.4129  -36.2221  -11.9377 C   0  0  0  0  0  0  0  0  0  0  0  0
  -11.1396  -36.7519  -12.5185 C   0  0  0  0  0  0  0  0  0  0  0  0
  -10.4326  -37.5876  -11.4763 C   0  0  0  0  0  0  0  0  0  0  0  0
  -10.6028  -38.9983  -11.6508 N   0  0  0  0  0  0  0  0  0  0  0  0
  -11.6038  -39.9019  -11.1367 C   0  0  0  0  0  0  0  0  0  0  0  0
  -12.9717  -39.8634  -11.1361 C   0  0  0  0  0  0  0  0  0  0  0  0
  -13.6086  -40.9215  -10.5116 C   0  0  0  0  0  0  0  0  0  0  0  0
  -12.8345  -41.9600   -9.9268 C   0  0  0  0  0  0  0  0  0  0  0  0
  -11.4592  -41.9774   -9.9433 C   0  0  0  0  0  0  0  0  0  0  0  0
  -10.7052  -43.0938   -9.3209 C   0  0  0  0  0  0  0  0  0  0  0  0
  -10.8933  -40.9491  -10.5463 N   0  0  0  0  0  0  0  0  0  0  0  0
  -15.0466  -41.1915  -10.2915 C   0  0  0  0  0  0  0  0  0  0  0  0
  -15.3665  -42.4544  -10.4772 O   0  0  0  0  0  0  0  0  0  0  0  0
  -16.1265  -40.3975   -9.9296 N   0  0  0  0  0  0  0  0  0  0  0  0
  -21.4440  -39.4204   -7.1413 C   0  0  0  0  0  0  0  0  0  0  0  0
  1  2  1  0
  2  3  1  0
  2  4  1  0
  4  5  2  0
  5  6  1  0
  6  7  2  0
  7  8  1  0
  8  9  1  0
  9 10  1  0
 10 11  1  0
 11 12  1  0
 12 13  1  1
 12 14  1  0
 14 15  1  6
 15 16  1  0
 16 17  1  0
 16 18  2  0
 18 19  1  0
 19 20  1  0
 20 21  1  0
 21 22  1  0
 22 23  1  0
 23 24  1  0
 24 25  1  0
 25 26  1  0
 26 27  2  0
 27 28  1  0
 28 29  2  0
 29 30  1  0
 30 31  1  0
 30 32  2  0
 28 33  1  0
 33 34  2  0
 33 35  1  0
  8 36  2  0
 32 26  1  0
 35 14  1  0
 36  4  1  0
M  END
$$$$
