
     RDKit          3D

 36 38  0  0  0  0  0  0  0  0999 V2000
  -24.4028  -38.3073   -9.3954 C   0  0  0  0  0  0  0  0  0  0  0  0
  -23.6582  -39.5840   -9.1821 C   0  0  0  0  0  0  0  0  0  0  0  0
  -24.6922  -40.7130   -9.0956 C   0  0  0  0  0  0  0  0  0  0  0  0
  -22.8250  -39.5460   -7.9590 C   0  0  0  0  0  0  0  0  0  0  0  0
  -23.1913  -40.3340   -6.8895 C   0  0  0  0  0  0  0  0  0  0  0  0
  -22.3993  -40.2841   -5.7479 C   0  0  0  0  0  0  0  0  0  0  0  0
  -21.2816  -39.4827   -5.6621 C   0  0  0  0  0  0  0  0  0  0  0  0
  -20.9216  -38.6965   -6.7367 C   0  0  0  0  0  0  0  0  0  0  0  0
  -19.7530  -37.8205   -6.7290 C   0  0  0  0  0  0  0  0  0  0  0  0
  -18.6917  -38.2539   -7.5982 N   0  0  0  0  0  0  0  0  0  0  0  0
  -17.7685  -39.1502   -6.9458 C   0  0  0  0  0  0  0  0  0  0  0  0
  -16.3907  -39.1807   -7.5052 C   0  0  1  0  0  0  0  0  0  0  0  0
  -15.7820  -40.3054   -6.8563 O   0  0  0  0  0  0  0  0  0  0  0  0
  -16.2626  -39.5010   -8.9651 C   0  0  2  0  0  0  0  0  0  0  0  0
  -16.0267  -38.3221   -9.8620 C   0  0  0  0  0  0  0  0  0  0  0  0
  -14.5511  -38.0751  -10.2058 C   0  0  0  0  0  0  0  0  0  0  0  0
  -14.2085  -36.9668   -9.1832 C   0  0  0  0  0  0  0  0  0  0  0  0
  -13.7675  -38.6191  -11.0711 C   0  0  0  0  0  0  0  0  0  0  0  0
  -13.7641  -39.6885  -12.1520 C   0  0  0  0  0  0  0  0  0  0  0  0
  -12.6792  -40.6732  -12.1441 C   0  0  0  0  0  0  0  0  0  0  0  0
  -11.5933  -40.6125  -11.1523 C   0  0  0  0  0  0  0  0  0  0  0  0
  -11.6667  -41.5759   -9.9999 C   0  0  0  0  0  0  0  0  0  0  0  0
  -11.3843  -43.0035  -10.3482 C   0  0  0  0  0  0  0  0  0  0  0  0
  -11.9950  -43.8982   -9.2942 C   0  0  0  0  0  0  0  0  0  0  0  0
  -13.2378  -44.4912   -9.6859 N   0  0  0  0  0  0  0  0  0  0  0  0
  -14.5969  -44.0315   -9.5300 C   0  0  0  0  0  0  0  0  0  0  0  0
  -15.2123  -42.8460   -9.8278 C   0  0  0  0  0  0  0  0  0  0  0  0
  -16.5552  -42.7611   -9.5047 C   0  0  0  0  0  0  0  0  0  0  0  0
  -17.2042  -43.8739   -8.9044 C   0  0  0  0  0  0  0  0  0  0  0  0
  -16.5638  -45.0569   -8.6175 C   0  0  0  0  0  0  0  0  0  0  0  0
  -17.2971  -46.1874   -7.9956 C   0  0  0  0  0  0  0  0  0  0  0  0
  -15.2847  -45.0937   -8.9395 N   0  0  0  0  0  0  0  0  0  0  0  0
  -17.5158  -41.6448   -9.6465 C   0  0  0  0  0  0  0  0  0  0  0  0
  -18.7010  -42.0365  -10.0628 O   0  0  0  0  0  0  0  0  0  0  0  0
  -17.4325  -40.2755   -9.4320 N   0  0  0  0  0  0  0  0  0  0  0  0
  -21.7073  -38.7498   -7.8624 C   0  0  0  0  0  0  0  0  0  0  0  0
  1  2  1  0
  2  3  1  0
  2  4  1  0
  4  5  2  0
  5  6  1  0
  6  7  2  0
  7  8  1  0
  8  9  1  0
  9 10  1  0
 10 11  1  0
 11 12  1  0
 12 13  1  1
 12 14  1  0
 14 15  1  6
 15 16  1  0
 16 17  1  0
 16 18  2  0
 18 19  1  0
 19 20  1  0
 20 21  1  0
 21 22  1  0
 22 23  1  0
 23 24  1  0
 24 25  1  0
 25 26  1  0
 26 27  2  0
 27 28  1  0
 28 29  2  0
 29 30  1  0
 30 31  1  0
 30 32  2  0
 28 33  1  0
 33 34  2  0
 33 35  1  0
  8 36  2  0
 32 26  1  0
 35 14  1  0
 36  4  1  0
M  END
$$$$
