
     RDKit          3D

 36 38  0  0  0  0  0  0  0  0999 V2000
  -13.5027  -33.5873  -12.4528 C   0  0  0  0  0  0  0  0  0  0  0  0
  -14.9153  -33.7139  -11.9857 C   0  0  0  0  0  0  0  0  0  0  0  0
  -15.0071  -33.0499  -10.6065 C   0  0  0  0  0  0  0  0  0  0  0  0
  -15.3549  -35.1257  -11.9143 C   0  0  0  0  0  0  0  0  0  0  0  0
  -16.3349  -35.5537  -12.7833 C   0  0  0  0  0  0  0  0  0  0  0  0
  -16.7377  -36.8820  -12.7008 C   0  0  0  0  0  0  0  0  0  0  0  0
  -16.1925  -37.7610  -11.7903 C   0  0  0  0  0  0  0  0  0  0  0  0
  -15.2123  -37.3250  -10.9235 C   0  0  0  0  0  0  0  0  0  0  0  0
  -14.5823  -38.1906   -9.9301 C   0  0  0  0  0  0  0  0  0  0  0  0
  -15.4520  -39.2110   -9.4082 N   0  0  0  0  0  0  0  0  0  0  0  0
  -16.4707  -38.6813   -8.5347 C   0  0  0  0  0  0  0  0  0  0  0  0
  -16.7081  -39.4435   -7.2798 C   0  0  1  0  0  0  0  0  0  0  0  0
  -17.6133  -38.6128   -6.5401 O   0  0  0  0  0  0  0  0  0  0  0  0
  -17.4449  -40.7437   -7.4096 C   0  0  2  0  0  0  0  0  0  0  0  0
  -17.2457  -41.7094   -6.2792 C   0  0  0  0  0  0  0  0  0  0  0  0
  -18.3447  -41.6642   -5.2085 C   0  0  0  0  0  0  0  0  0  0  0  0
  -17.6634  -40.7687   -4.1476 C   0  0  0  0  0  0  0  0  0  0  0  0
  -19.5221  -42.1843   -5.1627 C   0  0  0  0  0  0  0  0  0  0  0  0
  -20.4647  -43.0450   -5.9888 C   0  0  0  0  0  0  0  0  0  0  0  0
  -21.8455  -42.5861   -6.1603 C   0  0  0  0  0  0  0  0  0  0  0  0
  -22.3310  -41.3535   -5.5187 C   0  0  0  0  0  0  0  0  0  0  0  0
  -22.4533  -40.1333   -6.3893 C   0  0  0  0  0  0  0  0  0  0  0  0
  -23.5804  -40.1670   -7.3731 C   0  0  0  0  0  0  0  0  0  0  0  0
  -23.2837  -39.1998   -8.4959 C   0  0  0  0  0  0  0  0  0  0  0  0
  -22.7883  -39.8252   -9.6846 N   0  0  0  0  0  0  0  0  0  0  0  0
  -21.4407  -40.1245  -10.1057 C   0  0  0  0  0  0  0  0  0  0  0  0
  -20.3978  -40.7590   -9.4872 C   0  0  0  0  0  0  0  0  0  0  0  0
  -19.2204  -40.8380  -10.2102 C   0  0  0  0  0  0  0  0  0  0  0  0
  -19.1595  -40.2783  -11.5152 C   0  0  0  0  0  0  0  0  0  0  0  0
  -20.2237  -39.6476  -12.1167 C   0  0  0  0  0  0  0  0  0  0  0  0
  -20.1013  -39.0881  -13.4858 C   0  0  0  0  0  0  0  0  0  0  0  0
  -21.3248  -39.5927  -11.3917 N   0  0  0  0  0  0  0  0  0  0  0  0
  -17.9030  -41.4096   -9.8545 C   0  0  0  0  0  0  0  0  0  0  0  0
  -17.3464  -42.0732  -10.8451 O   0  0  0  0  0  0  0  0  0  0  0  0
  -17.1308  -41.3926   -8.7007 N   0  0  0  0  0  0  0  0  0  0  0  0
  -14.8176  -36.0119  -11.0095 C   0  0  0  0  0  0  0  0  0  0  0  0
  1  2  1  0
  2  3  1  0
  2  4  1  0
  4  5  2  0
  5  6  1  0
  6  7  2  0
  7  8  1  0
  8  9  1  0
  9 10  1  0
 10 11  1  0
 11 12  1  0
 12 13  1  1
 12 14  1  0
 14 15  1  1
 15 16  1  0
 16 17  1  0
 16 18  2  0
 18 19  1  0
 19 20  1  0
 20 21  1  0
 21 22  1  0
 22 23  1  0
 23 24  1  0
 24 25  1  0
 25 26  1  0
 26 27  2  0
 27 28  1  0
 28 29  2  0
 29 30  1  0
 30 31  1  0
 30 32  2  0
 28 33  1  0
 33 34  2  0
 33 35  1  0
  8 36  2  0
 32 26  1  0
 35 14  1  0
 36  4  1  0
M  END
$$$$
