5514 SD file.sdf
     RDKit          3D

 56 57  0  2  1  0  0  0  0  0999 V2000
   21.0065    8.1834  -12.6412 C   0  0  0  0  0  0  0  0  0  0  0  0
   21.5120    9.4636  -12.4154 C   0  0  0  0  0  0  0  0  0  0  0  0
   21.3546   10.0497  -11.1561 C   0  0  0  0  0  0  0  0  0  0  0  0
   20.6926    9.3717  -10.1224 C   0  0  0  0  0  0  0  0  0  0  0  0
   20.1991    8.0844  -10.3577 C   0  0  0  0  0  0  0  0  0  0  0  0
   20.3539    7.4962  -11.6146 C   0  0  0  0  0  0  0  0  0  0  0  0
   20.5641   10.0521   -8.7977 C   0  0  0  0  0  0  0  0  0  0  0  0
   19.7930    9.3756   -7.6727 C   0  0  0  0  0  0  0  0  0  0  0  0
   21.1248   11.1346   -8.6201 O   0  0  0  0  0  0  0  0  0  0  0  0
   18.5665    8.8451   -8.1526 O   0  0  0  0  0  0  0  0  0  0  0  0
   17.4794    8.9588   -7.3312 C   0  0  0  0  0  0  0  0  0  0  0  0
   17.1489   10.0698   -6.5561 C   0  0  0  0  0  0  0  0  0  0  0  0
   15.9999   10.0532   -5.7570 C   0  0  0  0  0  0  0  0  0  0  0  0
   15.1665    8.9277   -5.7262 C   0  0  0  0  0  0  0  0  0  0  0  0
   15.5036    7.8173   -6.5085 C   0  0  0  0  0  0  0  0  0  0  0  0
   16.6491    7.8370   -7.3061 C   0  0  0  0  0  0  0  0  0  0  0  0
   13.9240    8.9129   -4.8684 C   0  0  0  0  0  0  0  0  0  0  0  0
   13.6214   10.1861   -4.0515 C   0  0  1  0  0  0  0  0  0  0  0  0
   12.5547    9.8996   -2.9598 C   0  0  0  0  0  0  0  0  0  0  0  0
   12.3145    8.5898   -2.5617 N   0  0  0  0  0  0  0  0  0  0  0  0
   11.9561   10.8530   -2.4431 O   0  0  0  0  0  0  0  0  0  0  0  0
   10.9394    8.2186   -2.2876 C   0  0  0  0  0  0  0  0  0  0  0  0
   14.8301   10.8634   -3.7223 O   0  0  0  0  0  0  0  0  0  0  0  0
   15.3101   11.6795   -4.7891 C   0  0  0  0  0  0  0  0  0  0  0  0
   15.7421   10.7739   -5.9256 C   0  0  0  0  0  0  0  0  0  0  0  0
   22.1703   10.2395  -13.3289 O   0  0  0  0  0  0  0  0  0  0  0  0
   22.4160    9.6660  -14.6065 C   0  0  0  0  0  0  0  0  0  0  0  0
   12.9173    7.6075   -3.3865 O   0  0  0  0  0  0  0  0  0  0  0  0
   13.8428    6.8463   -2.6179 C   0  0  0  0  0  0  0  0  0  0  0  0
   21.1043    7.6910  -13.6032 H   0  0  0  0  0  0  0  0  0  0  0  0
   21.7515   11.0492  -10.9858 H   0  0  0  0  0  0  0  0  0  0  0  0
   19.6906    7.5163   -9.5838 H   0  0  0  0  0  0  0  0  0  0  0  0
   19.9629    6.4974  -11.7962 H   0  0  0  0  0  0  0  0  0  0  0  0
   20.4372    8.5969   -7.2462 H   0  0  0  0  0  0  0  0  0  0  0  0
   19.5863   10.1406   -6.9144 H   0  0  0  0  0  0  0  0  0  0  0  0
   17.7522   10.9711   -6.5559 H   0  0  0  0  0  0  0  0  0  0  0  0
   15.7552   10.9333   -5.1657 H   0  0  0  0  0  0  0  0  0  0  0  0
   14.8641    6.9370   -6.5141 H   0  0  0  0  0  0  0  0  0  0  0  0
   16.8911    6.9708   -7.9164 H   0  0  0  0  0  0  0  0  0  0  0  0
   13.9794    8.0537   -4.1866 H   0  0  0  0  0  0  0  0  0  0  0  0
   13.0726    8.7095   -5.5326 H   0  0  0  0  0  0  0  0  0  0  0  0
   13.0931   10.8420   -4.7609 H   0  0  0  0  0  0  0  0  0  0  0  0
   10.7497    7.2160   -2.6840 H   0  0  0  0  0  0  0  0  0  0  0  0
   10.7621    8.2283   -1.2091 H   0  0  0  0  0  0  0  0  0  0  0  0
   10.2612    8.9274   -2.7715 H   0  0  0  0  0  0  0  0  0  0  0  0
   14.5115   12.3439   -5.1375 H   0  0  0  0  0  0  0  0  0  0  0  0
   16.1558   12.2859   -4.4494 H   0  0  0  0  0  0  0  0  0  0  0  0
   16.1841    9.8490   -5.5412 H   0  0  0  0  0  0  0  0  0  0  0  0
   16.4728   11.2744   -6.5669 H   0  0  0  0  0  0  0  0  0  0  0  0
   14.8792   10.4831   -6.5340 H   0  0  0  0  0  0  0  0  0  0  0  0
   22.7940    8.6423  -14.5137 H   0  0  0  0  0  0  0  0  0  0  0  0
   21.5192    9.7007  -15.2338 H   0  0  0  0  0  0  0  0  0  0  0  0
   23.1897   10.2635  -15.0982 H   0  0  0  0  0  0  0  0  0  0  0  0
   14.4681    7.4821   -1.9861 H   0  0  0  0  0  0  0  0  0  0  0  0
   13.3010    6.1298   -1.9937 H   0  0  0  0  0  0  0  0  0  0  0  0
   14.4859    6.2922   -3.3065 H   0  0  0  0  0  0  0  0  0  0  0  0
 26 27  1  0
  2 26  1  0
 28 29  1  0
 20 28  1  0
  1  2  2  0
  2  3  1  0
  3  4  2  0
  4  5  1  0
  5  6  2  0
  6  1  1  0
  4  7  1  0
  7  8  1  0
  7  9  2  0
  8 10  1  0
 10 11  1  0
 11 12  2  0
 12 13  1  0
 13 14  2  0
 14 15  1  0
 15 16  2  0
 16 11  1  0
 14 17  1  0
 17 18  1  0
 18 19  1  0
 19 20  1  0
 19 21  2  0
 20 22  1  0
 18 23  1  0
 23 24  1  0
 24 25  1  0
  1 30  1  0
  3 31  1  0
  5 32  1  0
  6 33  1  0
  8 34  1  0
  8 35  1  0
 12 36  1  0
 13 37  1  0
 15 38  1  0
 16 39  1  0
 17 40  1  0
 17 41  1  0
 18 42  1  6
 22 43  1  0
 22 44  1  0
 22 45  1  0
 24 46  1  0
 24 47  1  0
 25 48  1  0
 25 49  1  0
 25 50  1  0
 27 51  1  0
 27 52  1  0
 27 53  1  0
 29 54  1  0
 29 55  1  0
 29 56  1  0
M  STY  2   1 SUP   2 SUP
M  SLB  2   1   1   2   2
M  SAL   1  2  26  27
M  SBL   1  1   2
M  SMT   1 OCH3
M  SBV   1   2    0.7144    0.4125
M  SAL   2  2  28  29
M  SBL   2  1   4
M  SMT   2 OCH3
M  SBV   2   4   -0.7144   -0.4125
M  END
