
     RDKit          3D

 48 52  0  0  0  0  0  0  0  0999 V2000
  -13.4296  -34.6075  -13.3618 C   0  0  0  0  0  0  0  0  0  0  0  0
  -12.8257  -35.0608  -12.0393 C   0  0  0  0  0  0  0  0  0  0  0  0
  -11.3366  -35.0459  -12.0471 C   0  0  0  0  0  0  0  0  0  0  0  0
  -13.3296  -36.4169  -11.7080 C   0  0  0  0  0  0  0  0  0  0  0  0
  -13.0910  -37.0445  -10.5209 C   0  0  0  0  0  0  0  0  0  0  0  0
  -13.5484  -38.3066  -10.2227 C   0  0  0  0  0  0  0  0  0  0  0  0
  -13.2623  -38.9362   -8.8988 C   0  0  0  0  0  0  0  0  0  0  0  0
  -14.4470  -39.0147   -8.1364 N   0  0  0  0  0  0  0  0  0  0  0  0
  -15.3731  -40.0453   -8.3974 C   0  0  0  0  0  0  0  0  0  0  0  0
  -16.8368  -39.6070   -8.4399 C   0  0  1  0  0  0  0  0  0  0  0  0
  -16.8779  -38.2679   -8.7658 O   0  0  0  0  0  0  0  0  0  0  0  0
  -17.5669  -40.4226   -9.4990 C   0  0  2  0  0  0  0  0  0  0  0  0
  -18.8885  -39.8131   -9.7949 C   0  0  0  0  0  0  0  0  0  0  0  0
  -19.4351  -40.3562  -11.0909 C   0  0  2  0  0  0  0  0  0  0  0  0
  -18.2992  -40.3102  -12.1081 C   0  0  0  0  0  0  0  0  0  0  0  0
  -20.5007  -39.4302  -11.5996 C   0  0  0  0  0  0  0  0  0  0  0  0
  -21.6886  -39.4841  -10.6802 C   0  0  0  0  0  0  0  0  0  0  0  0
  -22.4496  -40.7781  -10.9805 C   0  0  0  0  0  0  0  0  0  0  0  0
  -23.4638  -40.9392   -9.8767 C   0  0  0  0  0  0  0  0  0  0  0  0
  -23.6996  -42.3975   -9.5984 C   0  0  0  0  0  0  0  0  0  0  0  0
  -24.0355  -42.6316   -8.1787 N   0  0  0  0  0  0  0  0  0  0  0  0
  -25.3090  -43.3259   -7.9678 C   0  0  2  0  0  0  0  0  0  0  0  0
  -25.2709  -44.7148   -8.5708 C   0  0  0  0  0  0  0  0  0  0  0  0
  -26.4268  -42.5989   -8.5740 C   0  0  0  0  0  0  0  0  0  0  0  0
  -27.7376  -42.8883   -8.2722 C   0  0  0  0  0  0  0  0  0  0  0  0
  -28.7882  -42.1759   -8.8658 C   0  0  0  0  0  0  0  0  0  0  0  0
  -28.5532  -41.1787   -9.7562 C   0  0  0  0  0  0  0  0  0  0  0  0
  -27.2339  -40.8787  -10.0678 C   0  0  0  0  0  0  0  0  0  0  0  0
  -26.1947  -41.5875   -9.4772 C   0  0  0  0  0  0  0  0  0  0  0  0
  -23.1678  -42.2020   -7.1474 C   0  0  0  0  0  0  0  0  0  0  0  0
  -23.9090  -41.6260   -6.2094 O   0  0  0  0  0  0  0  0  0  0  0  0
  -21.7124  -42.2799   -6.9533 C   0  0  0  0  0  0  0  0  0  0  0  0
  -20.6696  -42.3171   -7.8536 C   0  0  0  0  0  0  0  0  0  0  0  0
  -19.3730  -42.3949   -7.3812 C   0  0  0  0  0  0  0  0  0  0  0  0
  -19.1468  -42.4332   -5.9762 C   0  0  0  0  0  0  0  0  0  0  0  0
  -20.1480  -42.3976   -5.0516 C   0  0  0  0  0  0  0  0  0  0  0  0
  -21.4135  -42.3220   -5.5615 C   0  0  0  0  0  0  0  0  0  0  0  0
  -19.8879  -42.4235   -3.6185 C   0  0  0  0  0  0  0  0  0  0  0  0
  -18.8240  -43.0215   -3.0659 N   0  0  0  0  0  0  0  0  0  0  0  0
  -18.8763  -42.8626   -1.7153 C   0  0  0  0  0  0  0  0  0  0  0  0
  -20.0344  -42.1341   -1.4915 C   0  0  0  0  0  0  0  0  0  0  0  0
  -20.5776  -41.9108   -2.6465 O   0  0  0  0  0  0  0  0  0  0  0  0
  -18.0853  -42.4789   -8.0705 C   0  0  0  0  0  0  0  0  0  0  0  0
  -17.1596  -43.3079   -7.5787 O   0  0  0  0  0  0  0  0  0  0  0  0
  -17.5622  -41.8284   -9.2249 N   0  0  0  0  0  0  0  0  0  0  0  0
  -14.2938  -38.9675  -11.1953 C   0  0  0  0  0  0  0  0  0  0  0  0
  -14.5432  -38.3452  -12.4006 C   0  0  0  0  0  0  0  0  0  0  0  0
  -14.0727  -37.0777  -12.6736 C   0  0  0  0  0  0  0  0  0  0  0  0
  1  2  1  0
  2  3  1  0
  2  4  1  0
  4  5  2  0
  5  6  1  0
  6  7  1  0
  7  8  1  0
  8  9  1  0
  9 10  1  0
 10 11  1  6
 10 12  1  0
 12 13  1  1
 13 14  1  0
 14 15  1  6
 14 16  1  0
 16 17  1  0
 17 18  1  0
 18 19  1  0
 19 20  1  0
 20 21  1  0
 21 22  1  0
 22 23  1  6
 22 24  1  0
 24 25  2  0
 25 26  1  0
 26 27  2  0
 27 28  1  0
 28 29  2  0
 21 30  1  0
 30 31  2  0
 30 32  1  0
 32 33  1  0
 33 34  2  0
 34 35  1  0
 35 36  2  0
 36 37  1  0
 36 38  1  0
 38 39  2  0
 39 40  1  0
 40 41  2  0
 41 42  1  0
 34 43  1  0
 43 44  2  0
 43 45  1  0
  6 46  2  0
 46 47  1  0
 47 48  2  0
 29 24  1  0
 37 32  2  0
 42 38  1  0
 45 12  1  0
 48  4  1  0
M  END
$$$$
