
     RDKit          3D

 48 52  0  0  0  0  0  0  0  0999 V2000
   -9.7704  -36.4811   -9.6599 C   0  0  0  0  0  0  0  0  0  0  0  0
  -10.4124  -36.0686  -10.9777 C   0  0  0  0  0  0  0  0  0  0  0  0
  -10.8772  -34.6539  -10.9778 C   0  0  0  0  0  0  0  0  0  0  0  0
  -11.5387  -36.9852  -11.2841 C   0  0  0  0  0  0  0  0  0  0  0  0
  -12.5735  -37.2261  -10.4288 C   0  0  0  0  0  0  0  0  0  0  0  0
  -13.6085  -38.0864  -10.7109 C   0  0  0  0  0  0  0  0  0  0  0  0
  -14.7196  -38.2996   -9.7358 C   0  0  0  0  0  0  0  0  0  0  0  0
  -15.5583  -39.3431  -10.1814 N   0  0  0  0  0  0  0  0  0  0  0  0
  -16.0923  -40.2520   -9.2451 C   0  0  0  0  0  0  0  0  0  0  0  0
  -16.6391  -39.6195   -7.9656 C   0  0  1  0  0  0  0  0  0  0  0  0
  -15.8741  -38.5111   -7.6701 O   0  0  0  0  0  0  0  0  0  0  0  0
  -18.0865  -39.2055   -8.1978 C   0  0  2  0  0  0  0  0  0  0  0  0
  -18.8244  -39.1758   -6.9093 C   0  0  0  0  0  0  0  0  0  0  0  0
  -20.1083  -38.3999   -7.0611 C   0  0  2  0  0  0  0  0  0  0  0  0
  -19.7662  -37.1126   -7.8046 C   0  0  0  0  0  0  0  0  0  0  0  0
  -20.5971  -37.9907   -5.7027 C   0  0  0  0  0  0  0  0  0  0  0  0
  -21.0259  -39.2119   -4.9383 C   0  0  0  0  0  0  0  0  0  0  0  0
  -22.3947  -39.6386   -5.4750 C   0  0  0  0  0  0  0  0  0  0  0  0
  -22.6726  -41.0009   -4.8922 C   0  0  0  0  0  0  0  0  0  0  0  0
  -23.4895  -41.8188   -5.8532 C   0  0  0  0  0  0  0  0  0  0  0  0
  -23.1828  -43.2595   -5.7365 N   0  0  0  0  0  0  0  0  0  0  0  0
  -24.3484  -44.1025   -5.4553 C   0  0  2  0  0  0  0  0  0  0  0  0
  -25.6173  -43.4550   -5.9698 C   0  0  0  0  0  0  0  0  0  0  0  0
  -24.5100  -44.3382   -4.0186 C   0  0  0  0  0  0  0  0  0  0  0  0
  -24.5321  -45.6052   -3.4830 C   0  0  0  0  0  0  0  0  0  0  0  0
  -24.6866  -45.8024   -2.1042 C   0  0  0  0  0  0  0  0  0  0  0  0
  -24.8194  -44.7559   -1.2499 C   0  0  0  0  0  0  0  0  0  0  0  0
  -24.7984  -43.4729   -1.7803 C   0  0  0  0  0  0  0  0  0  0  0  0
  -24.6451  -43.2815   -3.1482 C   0  0  0  0  0  0  0  0  0  0  0  0
  -21.8593  -43.7345   -5.8912 C   0  0  0  0  0  0  0  0  0  0  0  0
  -21.6284  -44.6103   -4.9214 O   0  0  0  0  0  0  0  0  0  0  0  0
  -20.7902  -43.4498   -6.8596 C   0  0  0  0  0  0  0  0  0  0  0  0
  -20.5030  -42.3244   -7.6016 C   0  0  0  0  0  0  0  0  0  0  0  0
  -19.4142  -42.3374   -8.4529 C   0  0  0  0  0  0  0  0  0  0  0  0
  -18.6156  -43.5126   -8.5412 C   0  0  0  0  0  0  0  0  0  0  0  0
  -18.8630  -44.6461   -7.8253 C   0  0  0  0  0  0  0  0  0  0  0  0
  -19.9489  -44.5906   -6.9976 C   0  0  0  0  0  0  0  0  0  0  0  0
  -18.0208  -45.8306   -7.9238 C   0  0  0  0  0  0  0  0  0  0  0  0
  -17.4971  -46.4616   -6.8643 N   0  0  0  0  0  0  0  0  0  0  0  0
  -16.7661  -47.5249   -7.2968 C   0  0  0  0  0  0  0  0  0  0  0  0
  -16.8828  -47.4937   -8.6778 C   0  0  0  0  0  0  0  0  0  0  0  0
  -17.6297  -46.4782   -8.9779 O   0  0  0  0  0  0  0  0  0  0  0  0
  -18.8813  -41.3326   -9.3730 C   0  0  0  0  0  0  0  0  0  0  0  0
  -18.4464  -41.7403  -10.5692 O   0  0  0  0  0  0  0  0  0  0  0  0
  -18.7088  -39.9222   -9.2704 N   0  0  0  0  0  0  0  0  0  0  0  0
  -13.5852  -38.7402  -11.9399 C   0  0  0  0  0  0  0  0  0  0  0  0
  -12.5453  -38.5064  -12.8150 C   0  0  0  0  0  0  0  0  0  0  0  0
  -11.5193  -37.6375  -12.5070 C   0  0  0  0  0  0  0  0  0  0  0  0
  1  2  1  0
  2  3  1  0
  2  4  1  0
  4  5  2  0
  5  6  1  0
  6  7  1  0
  7  8  1  0
  8  9  1  0
  9 10  1  0
 10 11  1  6
 10 12  1  0
 12 13  1  1
 13 14  1  0
 14 15  1  6
 14 16  1  0
 16 17  1  0
 17 18  1  0
 18 19  1  0
 19 20  1  0
 20 21  1  0
 21 22  1  0
 22 23  1  1
 22 24  1  0
 24 25  2  0
 25 26  1  0
 26 27  2  0
 27 28  1  0
 28 29  2  0
 21 30  1  0
 30 31  2  0
 30 32  1  0
 32 33  1  0
 33 34  2  0
 34 35  1  0
 35 36  2  0
 36 37  1  0
 36 38  1  0
 38 39  2  0
 39 40  1  0
 40 41  2  0
 41 42  1  0
 34 43  1  0
 43 44  2  0
 43 45  1  0
  6 46  2  0
 46 47  1  0
 47 48  2  0
 29 24  1  0
 37 32  2  0
 42 38  1  0
 45 12  1  0
 48  4  1  0
M  END
$$$$
