
     RDKit          3D

 48 52  0  0  0  0  0  0  0  0999 V2000
  -12.1792  -35.7340  -14.1676 C   0  0  0  0  0  0  0  0  0  0  0  0
  -12.8390  -36.0819  -12.8400 C   0  0  0  0  0  0  0  0  0  0  0  0
  -12.6340  -35.0362  -11.7997 C   0  0  0  0  0  0  0  0  0  0  0  0
  -12.3292  -37.3926  -12.3661 C   0  0  0  0  0  0  0  0  0  0  0  0
  -13.1339  -38.4231  -11.9779 C   0  0  0  0  0  0  0  0  0  0  0  0
  -12.6575  -39.6315  -11.5267 C   0  0  0  0  0  0  0  0  0  0  0  0
  -13.5915  -40.7260  -11.1259 C   0  0  0  0  0  0  0  0  0  0  0  0
  -13.8676  -40.6424   -9.7448 N   0  0  0  0  0  0  0  0  0  0  0  0
  -14.5667  -39.5254   -9.2433 C   0  0  0  0  0  0  0  0  0  0  0  0
  -15.6588  -39.8476   -8.2236 C   0  0  1  0  0  0  0  0  0  0  0  0
  -15.2904  -39.3067   -7.0100 O   0  0  0  0  0  0  0  0  0  0  0  0
  -16.9703  -39.2301   -8.6916 C   0  0  2  0  0  0  0  0  0  0  0  0
  -17.9493  -39.1983   -7.5753 C   0  0  0  0  0  0  0  0  0  0  0  0
  -19.0770  -38.2507   -7.8971 C   0  0  2  0  0  0  0  0  0  0  0  0
  -18.4441  -36.9685   -8.4287 C   0  0  0  0  0  0  0  0  0  0  0  0
  -19.7848  -37.8818   -6.6265 C   0  0  0  0  0  0  0  0  0  0  0  0
  -20.4987  -39.0887   -6.0850 C   0  0  0  0  0  0  0  0  0  0  0  0
  -21.7674  -39.2902   -6.9179 C   0  0  0  0  0  0  0  0  0  0  0  0
  -22.3133  -40.6431   -6.5380 C   0  0  0  0  0  0  0  0  0  0  0  0
  -23.0031  -41.2729   -7.7159 C   0  0  0  0  0  0  0  0  0  0  0  0
  -22.8939  -42.7461   -7.6846 N   0  0  0  0  0  0  0  0  0  0  0  0
  -24.1811  -43.4462   -7.7209 C   0  0  2  0  0  0  0  0  0  0  0  0
  -24.9699  -43.0584   -8.9544 C   0  0  0  0  0  0  0  0  0  0  0  0
  -24.9973  -43.1362   -6.5448 C   0  0  0  0  0  0  0  0  0  0  0  0
  -25.3121  -41.8441   -6.1924 C   0  0  0  0  0  0  0  0  0  0  0  0
  -26.0962  -41.5756   -5.0625 C   0  0  0  0  0  0  0  0  0  0  0  0
  -26.5723  -42.5754   -4.2774 C   0  0  0  0  0  0  0  0  0  0  0  0
  -26.2604  -43.8832   -4.6242 C   0  0  0  0  0  0  0  0  0  0  0  0
  -25.4824  -44.1453   -5.7454 C   0  0  0  0  0  0  0  0  0  0  0  0
  -21.6302  -43.3789   -7.6244 C   0  0  0  0  0  0  0  0  0  0  0  0
  -21.7056  -44.3467   -6.7196 O   0  0  0  0  0  0  0  0  0  0  0  0
  -20.3592  -43.1673   -8.3327 C   0  0  0  0  0  0  0  0  0  0  0  0
  -19.7986  -42.0381   -8.8895 C   0  0  0  0  0  0  0  0  0  0  0  0
  -18.5666  -42.1319   -9.5091 C   0  0  0  0  0  0  0  0  0  0  0  0
  -17.9068  -43.3925   -9.5556 C   0  0  0  0  0  0  0  0  0  0  0  0
  -18.4244  -44.5331   -9.0174 C   0  0  0  0  0  0  0  0  0  0  0  0
  -19.6437  -44.3959   -8.4160 C   0  0  0  0  0  0  0  0  0  0  0  0
  -17.7211  -45.8078   -9.0663 C   0  0  0  0  0  0  0  0  0  0  0  0
  -17.3306  -46.4846   -7.9780 N   0  0  0  0  0  0  0  0  0  0  0  0
  -16.7060  -47.6295   -8.3667 C   0  0  0  0  0  0  0  0  0  0  0  0
  -16.7455  -47.5987   -9.7522 C   0  0  0  0  0  0  0  0  0  0  0  0
  -17.3528  -46.5068  -10.0955 O   0  0  0  0  0  0  0  0  0  0  0  0
  -17.7443  -41.1412  -10.2037 C   0  0  0  0  0  0  0  0  0  0  0  0
  -17.1220  -41.5134  -11.3264 O   0  0  0  0  0  0  0  0  0  0  0  0
  -17.4363  -39.7773   -9.9305 N   0  0  0  0  0  0  0  0  0  0  0  0
  -11.2764  -39.7975  -11.4680 C   0  0  0  0  0  0  0  0  0  0  0  0
  -10.4500  -38.7642  -11.8574 C   0  0  0  0  0  0  0  0  0  0  0  0
  -10.9546  -37.5617  -12.3068 C   0  0  0  0  0  0  0  0  0  0  0  0
  1  2  1  0
  2  3  1  0
  2  4  1  0
  4  5  2  0
  5  6  1  0
  6  7  1  0
  7  8  1  0
  8  9  1  0
  9 10  1  0
 10 11  1  1
 10 12  1  0
 12 13  1  1
 13 14  1  0
 14 15  1  1
 14 16  1  0
 16 17  1  0
 17 18  1  0
 18 19  1  0
 19 20  1  0
 20 21  1  0
 21 22  1  0
 22 23  1  6
 22 24  1  0
 24 25  2  0
 25 26  1  0
 26 27  2  0
 27 28  1  0
 28 29  2  0
 21 30  1  0
 30 31  2  0
 30 32  1  0
 32 33  1  0
 33 34  2  0
 34 35  1  0
 35 36  2  0
 36 37  1  0
 36 38  1  0
 38 39  2  0
 39 40  1  0
 40 41  2  0
 41 42  1  0
 34 43  1  0
 43 44  2  0
 43 45  1  0
  6 46  2  0
 46 47  1  0
 47 48  2  0
 29 24  1  0
 37 32  2  0
 42 38  1  0
 45 12  1  0
 48  4  1  0
M  END
$$$$
