
     RDKit          3D

 48 52  0  0  0  0  0  0  0  0999 V2000
  -12.5021  -35.8101  -13.3648 C   0  0  0  0  0  0  0  0  0  0  0  0
  -13.0310  -36.4111  -12.0694 C   0  0  0  0  0  0  0  0  0  0  0  0
  -12.6869  -35.5975  -10.8705 C   0  0  0  0  0  0  0  0  0  0  0  0
  -12.5156  -37.7951  -11.9230 C   0  0  0  0  0  0  0  0  0  0  0  0
  -12.9252  -38.6569  -10.9486 C   0  0  0  0  0  0  0  0  0  0  0  0
  -12.4354  -39.9341  -10.8081 C   0  0  0  0  0  0  0  0  0  0  0  0
  -12.9331  -40.8346   -9.7252 C   0  0  0  0  0  0  0  0  0  0  0  0
  -14.3275  -40.6818   -9.5742 N   0  0  0  0  0  0  0  0  0  0  0  0
  -14.8424  -39.4685   -9.0734 C   0  0  0  0  0  0  0  0  0  0  0  0
  -15.9378  -39.6151   -8.0175 C   0  0  1  0  0  0  0  0  0  0  0  0
  -15.6150  -38.8111   -6.9450 O   0  0  0  0  0  0  0  0  0  0  0  0
  -17.2660  -39.1727   -8.6178 C   0  0  2  0  0  0  0  0  0  0  0  0
  -18.2833  -39.0096   -7.5482 C   0  0  0  0  0  0  0  0  0  0  0  0
  -19.4525  -38.2057   -8.0583 C   0  0  2  0  0  0  0  0  0  0  0  0
  -18.8773  -36.9979   -8.7913 C   0  0  0  0  0  0  0  0  0  0  0  0
  -20.2242  -37.6673   -6.8895 C   0  0  0  0  0  0  0  0  0  0  0  0
  -20.8849  -38.8046   -6.1618 C   0  0  0  0  0  0  0  0  0  0  0  0
  -22.1101  -39.2278   -6.9765 C   0  0  0  0  0  0  0  0  0  0  0  0
  -22.5892  -40.5260   -6.3782 C   0  0  0  0  0  0  0  0  0  0  0  0
  -23.1998  -41.3932   -7.4435 C   0  0  0  0  0  0  0  0  0  0  0  0
  -23.0062  -42.8287   -7.1515 N   0  0  0  0  0  0  0  0  0  0  0  0
  -24.2484  -43.6046   -7.0952 C   0  0  2  0  0  0  0  0  0  0  0  0
  -25.2685  -43.0589   -8.0727 C   0  0  0  0  0  0  0  0  0  0  0  0
  -24.8424  -43.5757   -5.7566 C   0  0  0  0  0  0  0  0  0  0  0  0
  -25.2459  -42.4034   -5.1603 C   0  0  0  0  0  0  0  0  0  0  0  0
  -25.8128  -42.4043   -3.8787 C   0  0  0  0  0  0  0  0  0  0  0  0
  -25.9844  -43.5562   -3.1814 C   0  0  0  0  0  0  0  0  0  0  0  0
  -25.5805  -44.7450   -3.7742 C   0  0  0  0  0  0  0  0  0  0  0  0
  -25.0186  -44.7399   -5.0451 C   0  0  0  0  0  0  0  0  0  0  0  0
  -21.7106  -43.3600   -6.9509 C   0  0  0  0  0  0  0  0  0  0  0  0
  -21.7609  -44.1587   -5.8924 O   0  0  0  0  0  0  0  0  0  0  0  0
  -20.4303  -43.1945   -7.6547 C   0  0  0  0  0  0  0  0  0  0  0  0
  -19.9174  -42.1459   -8.3874 C   0  0  0  0  0  0  0  0  0  0  0  0
  -18.6613  -42.2677   -8.9513 C   0  0  0  0  0  0  0  0  0  0  0  0
  -17.9280  -43.4728   -8.7600 C   0  0  0  0  0  0  0  0  0  0  0  0
  -18.3967  -44.5330   -8.0425 C   0  0  0  0  0  0  0  0  0  0  0  0
  -19.6420  -44.3710   -7.5039 C   0  0  0  0  0  0  0  0  0  0  0  0
  -17.6191  -45.7497   -7.8500 C   0  0  0  0  0  0  0  0  0  0  0  0
  -16.8021  -46.2655   -8.7781 N   0  0  0  0  0  0  0  0  0  0  0  0
  -16.2281  -47.3970   -8.2858 C   0  0  0  0  0  0  0  0  0  0  0  0
  -16.7494  -47.5285   -7.0080 C   0  0  0  0  0  0  0  0  0  0  0  0
  -17.5556  -46.5322   -6.8170 O   0  0  0  0  0  0  0  0  0  0  0  0
  -17.8746  -41.3626   -9.7891 C   0  0  0  0  0  0  0  0  0  0  0  0
  -17.1931  -41.8840  -10.8138 O   0  0  0  0  0  0  0  0  0  0  0  0
  -17.6561  -39.9553   -9.7522 N   0  0  0  0  0  0  0  0  0  0  0  0
  -11.4690  -40.3564  -11.7170 C   0  0  0  0  0  0  0  0  0  0  0  0
  -11.0451  -39.4959  -12.7079 C   0  0  0  0  0  0  0  0  0  0  0  0
  -11.5537  -38.2193  -12.8265 C   0  0  0  0  0  0  0  0  0  0  0  0
  1  2  1  0
  2  3  1  0
  2  4  1  0
  4  5  2  0
  5  6  1  0
  6  7  1  0
  7  8  1  0
  8  9  1  0
  9 10  1  0
 10 11  1  1
 10 12  1  0
 12 13  1  1
 13 14  1  0
 14 15  1  6
 14 16  1  0
 16 17  1  0
 17 18  1  0
 18 19  1  0
 19 20  1  0
 20 21  1  0
 21 22  1  0
 22 23  1  6
 22 24  1  0
 24 25  2  0
 25 26  1  0
 26 27  2  0
 27 28  1  0
 28 29  2  0
 21 30  1  0
 30 31  2  0
 30 32  1  0
 32 33  1  0
 33 34  2  0
 34 35  1  0
 35 36  2  0
 36 37  1  0
 36 38  1  0
 38 39  2  0
 39 40  1  0
 40 41  2  0
 41 42  1  0
 34 43  1  0
 43 44  2  0
 43 45  1  0
  6 46  2  0
 46 47  1  0
 47 48  2  0
 29 24  1  0
 37 32  2  0
 42 38  1  0
 45 12  1  0
 48  4  1  0
M  END
$$$$
