
     RDKit          3D

 48 52  0  0  0  0  0  0  0  0999 V2000
  -14.2791  -41.7860  -12.4132 C   0  0  0  0  0  0  0  0  0  0  0  0
  -13.0587  -42.3855  -11.7276 C   0  0  0  0  0  0  0  0  0  0  0  0
  -12.7083  -43.7367  -12.2462 C   0  0  0  0  0  0  0  0  0  0  0  0
  -13.2929  -42.4362  -10.2629 C   0  0  0  0  0  0  0  0  0  0  0  0
  -13.3628  -41.3301   -9.4681 C   0  0  0  0  0  0  0  0  0  0  0  0
  -13.5667  -41.3819   -8.1092 C   0  0  0  0  0  0  0  0  0  0  0  0
  -13.6444  -40.1326   -7.2943 C   0  0  0  0  0  0  0  0  0  0  0  0
  -14.5588  -39.2314   -7.8796 N   0  0  0  0  0  0  0  0  0  0  0  0
  -15.1312  -38.2131   -7.0901 C   0  0  0  0  0  0  0  0  0  0  0  0
  -16.6566  -38.1323   -7.1413 C   0  0  1  0  0  0  0  0  0  0  0  0
  -17.0325  -36.8449   -6.8214 O   0  0  0  0  0  0  0  0  0  0  0  0
  -17.1233  -38.4755   -8.5500 C   0  0  2  0  0  0  0  0  0  0  0  0
  -18.4745  -37.9099   -8.7947 C   0  0  0  0  0  0  0  0  0  0  0  0
  -18.7726  -37.8913  -10.2726 C   0  0  2  0  0  0  0  0  0  0  0  0
  -17.5406  -37.3216  -10.9689 C   0  0  0  0  0  0  0  0  0  0  0  0
  -19.8935  -36.9286  -10.5344 C   0  0  0  0  0  0  0  0  0  0  0  0
  -21.1635  -37.4680   -9.9380 C   0  0  0  0  0  0  0  0  0  0  0  0
  -21.6821  -38.5683  -10.8675 C   0  0  0  0  0  0  0  0  0  0  0  0
  -22.7882  -39.2684  -10.1196 C   0  0  0  0  0  0  0  0  0  0  0  0
  -22.8375  -40.7201  -10.5070 C   0  0  0  0  0  0  0  0  0  0  0  0
  -23.3056  -41.5645   -9.3885 N   0  0  0  0  0  0  0  0  0  0  0  0
  -24.4783  -42.3854   -9.7036 C   0  0  2  0  0  0  0  0  0  0  0  0
  -24.7828  -42.3419  -11.1866 C   0  0  0  0  0  0  0  0  0  0  0  0
  -25.6679  -41.9260   -8.9828 C   0  0  0  0  0  0  0  0  0  0  0  0
  -25.6046  -40.9552   -8.0100 C   0  0  0  0  0  0  0  0  0  0  0  0
  -26.7588  -40.5331   -7.3366 C   0  0  0  0  0  0  0  0  0  0  0  0
  -27.9763  -41.0634   -7.6177 C   0  0  0  0  0  0  0  0  0  0  0  0
  -28.0511  -42.0440   -8.5978 C   0  0  0  0  0  0  0  0  0  0  0  0
  -26.9043  -42.4601   -9.2632 C   0  0  0  0  0  0  0  0  0  0  0  0
  -22.6433  -41.5458   -8.1386 C   0  0  0  0  0  0  0  0  0  0  0  0
  -23.5704  -41.4887   -7.1909 O   0  0  0  0  0  0  0  0  0  0  0  0
  -21.2271  -41.5780   -7.7448 C   0  0  0  0  0  0  0  0  0  0  0  0
  -20.0884  -41.1410   -8.3864 C   0  0  0  0  0  0  0  0  0  0  0  0
  -18.8619  -41.3051   -7.7705 C   0  0  0  0  0  0  0  0  0  0  0  0
  -18.8056  -41.9204   -6.4880 C   0  0  0  0  0  0  0  0  0  0  0  0
  -19.9062  -42.3658   -5.8181 C   0  0  0  0  0  0  0  0  0  0  0  0
  -21.0972  -42.1851   -6.4630 C   0  0  0  0  0  0  0  0  0  0  0  0
  -19.8218  -42.9791   -4.4995 C   0  0  0  0  0  0  0  0  0  0  0  0
  -19.2788  -44.1825   -4.2717 N   0  0  0  0  0  0  0  0  0  0  0  0
  -19.3559  -44.4606   -2.9417 C   0  0  0  0  0  0  0  0  0  0  0  0
  -19.9769  -43.3526   -2.3862 C   0  0  0  0  0  0  0  0  0  0  0  0
  -20.2222  -42.5244   -3.3521 O   0  0  0  0  0  0  0  0  0  0  0  0
  -17.5017  -40.9799   -8.1998 C   0  0  0  0  0  0  0  0  0  0  0  0
  -16.5303  -41.8596   -7.9378 O   0  0  0  0  0  0  0  0  0  0  0  0
  -16.9439  -39.8581   -8.8781 N   0  0  0  0  0  0  0  0  0  0  0  0
  -13.7074  -42.6387   -7.5270 C   0  0  0  0  0  0  0  0  0  0  0  0
  -13.6392  -43.7663   -8.3182 C   0  0  0  0  0  0  0  0  0  0  0  0
  -13.4341  -43.6858   -9.6798 C   0  0  0  0  0  0  0  0  0  0  0  0
  1  2  1  0
  2  3  1  0
  2  4  1  0
  4  5  2  0
  5  6  1  0
  6  7  1  0
  7  8  1  0
  8  9  1  0
  9 10  1  0
 10 11  1  6
 10 12  1  0
 12 13  1  1
 13 14  1  0
 14 15  1  6
 14 16  1  0
 16 17  1  0
 17 18  1  0
 18 19  1  0
 19 20  1  0
 20 21  1  0
 21 22  1  0
 22 23  1  6
 22 24  1  0
 24 25  2  0
 25 26  1  0
 26 27  2  0
 27 28  1  0
 28 29  2  0
 21 30  1  0
 30 31  2  0
 30 32  1  0
 32 33  1  0
 33 34  2  0
 34 35  1  0
 35 36  2  0
 36 37  1  0
 36 38  1  0
 38 39  2  0
 39 40  1  0
 40 41  2  0
 41 42  1  0
 34 43  1  0
 43 44  2  0
 43 45  1  0
  6 46  2  0
 46 47  1  0
 47 48  2  0
 29 24  1  0
 37 32  2  0
 42 38  1  0
 45 12  1  0
 48  4  1  0
M  END
$$$$
