
     RDKit          3D

 48 52  0  0  0  0  0  0  0  0999 V2000
  -10.0404  -36.8991  -11.9621 C   0  0  0  0  0  0  0  0  0  0  0  0
  -11.3670  -36.2513  -12.3356 C   0  0  0  0  0  0  0  0  0  0  0  0
  -11.7009  -35.0797  -11.4791 C   0  0  0  0  0  0  0  0  0  0  0  0
  -12.4465  -37.2677  -12.2686 C   0  0  0  0  0  0  0  0  0  0  0  0
  -12.5634  -38.1836  -11.2649 C   0  0  0  0  0  0  0  0  0  0  0  0
  -13.5574  -39.1324  -11.2134 C   0  0  0  0  0  0  0  0  0  0  0  0
  -13.6378  -40.1023  -10.0803 C   0  0  0  0  0  0  0  0  0  0  0  0
  -14.0662  -39.4413   -8.9097 N   0  0  0  0  0  0  0  0  0  0  0  0
  -15.2743  -38.7146   -8.9258 C   0  0  0  0  0  0  0  0  0  0  0  0
  -16.3281  -39.1850   -7.9235 C   0  0  1  0  0  0  0  0  0  0  0  0
  -16.1414  -38.4954   -6.7442 O   0  0  0  0  0  0  0  0  0  0  0  0
  -17.7125  -38.8888   -8.4855 C   0  0  2  0  0  0  0  0  0  0  0  0
  -18.7208  -38.8955   -7.3952 C   0  0  0  0  0  0  0  0  0  0  0  0
  -19.9906  -38.2247   -7.8547 C   0  0  2  0  0  0  0  0  0  0  0  0
  -19.5843  -36.9270   -8.5461 C   0  0  0  0  0  0  0  0  0  0  0  0
  -20.7999  -37.8325   -6.6536 C   0  0  0  0  0  0  0  0  0  0  0  0
  -21.2999  -39.0706   -5.9633 C   0  0  0  0  0  0  0  0  0  0  0  0
  -22.4789  -39.6114   -6.7765 C   0  0  0  0  0  0  0  0  0  0  0  0
  -22.7813  -40.9815   -6.2248 C   0  0  0  0  0  0  0  0  0  0  0  0
  -23.3005  -41.8763   -7.3155 C   0  0  0  0  0  0  0  0  0  0  0  0
  -22.9246  -43.2866   -7.0854 N   0  0  0  0  0  0  0  0  0  0  0  0
  -24.0595  -44.2130   -7.0425 C   0  0  2  0  0  0  0  0  0  0  0  0
  -25.0641  -43.8837   -8.1270 C   0  0  0  0  0  0  0  0  0  0  0  0
  -24.7511  -44.1597   -5.7523 C   0  0  0  0  0  0  0  0  0  0  0  0
  -26.1215  -44.2319   -5.6532 C   0  0  0  0  0  0  0  0  0  0  0  0
  -26.7578  -44.1799   -4.4058 C   0  0  0  0  0  0  0  0  0  0  0  0
  -26.0495  -44.0571   -3.2544 C   0  0  0  0  0  0  0  0  0  0  0  0
  -24.6658  -43.9833   -3.3433 C   0  0  0  0  0  0  0  0  0  0  0  0
  -24.0385  -44.0351   -4.5822 C   0  0  0  0  0  0  0  0  0  0  0  0
  -21.5693  -43.6594   -6.9258 C   0  0  0  0  0  0  0  0  0  0  0  0
  -21.4992  -44.4985   -5.9002 O   0  0  0  0  0  0  0  0  0  0  0  0
  -20.3336  -43.3083   -7.6411 C   0  0  0  0  0  0  0  0  0  0  0  0
  -19.9694  -42.1763   -8.3378 C   0  0  0  0  0  0  0  0  0  0  0  0
  -18.7193  -42.1185   -8.9247 C   0  0  0  0  0  0  0  0  0  0  0  0
  -17.8385  -43.2291   -8.7937 C   0  0  0  0  0  0  0  0  0  0  0  0
  -18.1577  -44.3666   -8.1133 C   0  0  0  0  0  0  0  0  0  0  0  0
  -19.4026  -44.3822   -7.5502 C   0  0  0  0  0  0  0  0  0  0  0  0
  -17.2315  -45.4833   -7.9823 C   0  0  0  0  0  0  0  0  0  0  0  0
  -16.1678  -45.4764   -7.1677 N   0  0  0  0  0  0  0  0  0  0  0  0
  -15.5144  -46.6649   -7.2796 C   0  0  0  0  0  0  0  0  0  0  0  0
  -16.2495  -47.3842   -8.2091 C   0  0  0  0  0  0  0  0  0  0  0  0
  -17.2397  -46.6351   -8.5795 O   0  0  0  0  0  0  0  0  0  0  0  0
  -18.0676  -41.0905   -9.7363 C   0  0  0  0  0  0  0  0  0  0  0  0
  -17.3471  -41.4827  -10.7914 O   0  0  0  0  0  0  0  0  0  0  0  0
  -18.0248  -39.6694   -9.6451 N   0  0  0  0  0  0  0  0  0  0  0  0
  -14.4875  -39.1470  -12.2492 C   0  0  0  0  0  0  0  0  0  0  0  0
  -14.3821  -38.2267  -13.2710 C   0  0  0  0  0  0  0  0  0  0  0  0
  -13.3748  -37.2848  -13.2979 C   0  0  0  0  0  0  0  0  0  0  0  0
  1  2  1  0
  2  3  1  0
  2  4  1  0
  4  5  2  0
  5  6  1  0
  6  7  1  0
  7  8  1  0
  8  9  1  0
  9 10  1  0
 10 11  1  1
 10 12  1  0
 12 13  1  1
 13 14  1  0
 14 15  1  1
 14 16  1  0
 16 17  1  0
 17 18  1  0
 18 19  1  0
 19 20  1  0
 20 21  1  0
 21 22  1  0
 22 23  1  6
 22 24  1  0
 24 25  2  0
 25 26  1  0
 26 27  2  0
 27 28  1  0
 28 29  2  0
 21 30  1  0
 30 31  2  0
 30 32  1  0
 32 33  1  0
 33 34  2  0
 34 35  1  0
 35 36  2  0
 36 37  1  0
 36 38  1  0
 38 39  2  0
 39 40  1  0
 40 41  2  0
 41 42  1  0
 34 43  1  0
 43 44  2  0
 43 45  1  0
  6 46  2  0
 46 47  1  0
 47 48  2  0
 29 24  1  0
 37 32  2  0
 42 38  1  0
 45 12  1  0
 48  4  1  0
M  END
$$$$
