
     RDKit          3D

 48 52  0  0  0  0  0  0  0  0999 V2000
  -19.9518  -37.8261   -1.3315 C   0  0  0  0  0  0  0  0  0  0  0  0
  -19.5749  -39.2045   -0.8053 C   0  0  0  0  0  0  0  0  0  0  0  0
  -18.1818  -39.2638   -0.2823 C   0  0  0  0  0  0  0  0  0  0  0  0
  -19.7697  -40.2108   -1.8786 C   0  0  0  0  0  0  0  0  0  0  0  0
  -19.8472  -39.8992   -3.2041 C   0  0  0  0  0  0  0  0  0  0  0  0
  -20.0412  -40.8331   -4.1947 C   0  0  0  0  0  0  0  0  0  0  0  0
  -20.1064  -40.4293   -5.6312 C   0  0  0  0  0  0  0  0  0  0  0  0
  -18.9802  -39.6470   -5.9636 N   0  0  0  0  0  0  0  0  0  0  0  0
  -18.2162  -39.9787   -7.1012 C   0  0  0  0  0  0  0  0  0  0  0  0
  -17.3955  -38.8309   -7.6890 C   0  0  1  0  0  0  0  0  0  0  0  0
  -17.3313  -37.8213   -6.7523 O   0  0  0  0  0  0  0  0  0  0  0  0
  -15.9940  -39.3364   -8.0057 C   0  0  2  0  0  0  0  0  0  0  0  0
  -15.4645  -38.6561   -9.2150 C   0  0  0  0  0  0  0  0  0  0  0  0
  -13.9706  -38.8391   -9.3046 C   0  0  2  0  0  0  0  0  0  0  0  0
  -13.4014  -38.5445   -7.9203 C   0  0  0  0  0  0  0  0  0  0  0  0
  -13.4042  -37.8009  -10.2282 C   0  0  0  0  0  0  0  0  0  0  0  0
  -13.8655  -38.0774  -11.6318 C   0  0  0  0  0  0  0  0  0  0  0  0
  -13.0313  -39.2409  -12.1741 C   0  0  0  0  0  0  0  0  0  0  0  0
  -13.6890  -39.6704  -13.4609 C   0  0  0  0  0  0  0  0  0  0  0  0
  -13.5075  -41.1483  -13.6673 C   0  0  0  0  0  0  0  0  0  0  0  0
  -14.6473  -41.7378  -14.3999 N   0  0  0  0  0  0  0  0  0  0  0  0
  -14.2725  -42.4485  -15.6258 C   0  0  2  0  0  0  0  0  0  0  0  0
  -13.2001  -43.4800  -15.3432 C   0  0  0  0  0  0  0  0  0  0  0  0
  -13.7611  -41.5308  -16.6466 C   0  0  0  0  0  0  0  0  0  0  0  0
  -14.4698  -40.4256  -17.0580 C   0  0  0  0  0  0  0  0  0  0  0  0
  -13.9564  -39.5630  -18.0358 C   0  0  0  0  0  0  0  0  0  0  0  0
  -12.7468  -39.7844  -18.6106 C   0  0  0  0  0  0  0  0  0  0  0  0
  -12.0235  -40.8971  -18.2025 C   0  0  0  0  0  0  0  0  0  0  0  0
  -12.5360  -41.7502  -17.2327 C   0  0  0  0  0  0  0  0  0  0  0  0
  -15.9697  -41.5996  -13.9171 C   0  0  0  0  0  0  0  0  0  0  0  0
  -16.7438  -41.2774  -14.9456 O   0  0  0  0  0  0  0  0  0  0  0  0
  -16.5799  -41.7416  -12.5869 C   0  0  0  0  0  0  0  0  0  0  0  0
  -16.0683  -41.5566  -11.3206 C   0  0  0  0  0  0  0  0  0  0  0  0
  -16.8846  -41.7687  -10.2256 C   0  0  0  0  0  0  0  0  0  0  0  0
  -18.2341  -42.1718  -10.4330 C   0  0  0  0  0  0  0  0  0  0  0  0
  -18.7805  -42.3651  -11.6670 C   0  0  0  0  0  0  0  0  0  0  0  0
  -17.9390  -42.1457  -12.7210 C   0  0  0  0  0  0  0  0  0  0  0  0
  -20.1694  -42.7638  -11.8515 C   0  0  0  0  0  0  0  0  0  0  0  0
  -21.2050  -42.1457  -11.2681 N   0  0  0  0  0  0  0  0  0  0  0  0
  -22.3594  -42.7595  -11.6458 C   0  0  0  0  0  0  0  0  0  0  0  0
  -21.9542  -43.7818  -12.4900 C   0  0  0  0  0  0  0  0  0  0  0  0
  -20.6619  -43.7278  -12.5669 O   0  0  0  0  0  0  0  0  0  0  0  0
  -16.6309  -41.6862   -8.7872 C   0  0  0  0  0  0  0  0  0  0  0  0
  -17.1625  -42.6247   -7.9981 O   0  0  0  0  0  0  0  0  0  0  0  0
  -15.8963  -40.7653   -7.9861 N   0  0  0  0  0  0  0  0  0  0  0  0
  -20.1637  -42.1650   -3.8084 C   0  0  0  0  0  0  0  0  0  0  0  0
  -20.0873  -42.4953   -2.4715 C   0  0  0  0  0  0  0  0  0  0  0  0
  -19.8916  -41.5381   -1.4979 C   0  0  0  0  0  0  0  0  0  0  0  0
  1  2  1  0
  2  3  1  0
  2  4  1  0
  4  5  2  0
  5  6  1  0
  6  7  1  0
  7  8  1  0
  8  9  1  0
  9 10  1  0
 10 11  1  1
 10 12  1  0
 12 13  1  6
 13 14  1  0
 14 15  1  1
 14 16  1  0
 16 17  1  0
 17 18  1  0
 18 19  1  0
 19 20  1  0
 20 21  1  0
 21 22  1  0
 22 23  1  1
 22 24  1  0
 24 25  2  0
 25 26  1  0
 26 27  2  0
 27 28  1  0
 28 29  2  0
 21 30  1  0
 30 31  2  0
 30 32  1  0
 32 33  1  0
 33 34  2  0
 34 35  1  0
 35 36  2  0
 36 37  1  0
 36 38  1  0
 38 39  2  0
 39 40  1  0
 40 41  2  0
 41 42  1  0
 34 43  1  0
 43 44  2  0
 43 45  1  0
  6 46  2  0
 46 47  1  0
 47 48  2  0
 29 24  1  0
 37 32  2  0
 42 38  1  0
 45 12  1  0
 48  4  1  0
M  END
$$$$
