
     RDKit          3D

 48 52  0  0  0  0  0  0  0  0999 V2000
  -13.0694  -35.9244  -12.3530 C   0  0  0  0  0  0  0  0  0  0  0  0
  -14.2400  -36.7460  -12.8763 C   0  0  0  0  0  0  0  0  0  0  0  0
  -15.5627  -36.1645  -12.5160 C   0  0  0  0  0  0  0  0  0  0  0  0
  -14.1293  -38.1370  -12.3708 C   0  0  0  0  0  0  0  0  0  0  0  0
  -13.7072  -38.4547  -11.1134 C   0  0  0  0  0  0  0  0  0  0  0  0
  -13.5933  -39.7455  -10.6531 C   0  0  0  0  0  0  0  0  0  0  0  0
  -13.1348  -40.0283   -9.2600 C   0  0  0  0  0  0  0  0  0  0  0  0
  -14.2466  -40.2773   -8.4278 N   0  0  0  0  0  0  0  0  0  0  0  0
  -15.2546  -39.2991   -8.3053 C   0  0  0  0  0  0  0  0  0  0  0  0
  -16.3402  -39.6114   -7.2756 C   0  0  1  0  0  0  0  0  0  0  0  0
  -16.1103  -38.8388   -6.1570 O   0  0  0  0  0  0  0  0  0  0  0  0
  -17.7000  -39.2715   -7.8719 C   0  0  2  0  0  0  0  0  0  0  0  0
  -18.7287  -39.2124   -6.8024 C   0  0  0  0  0  0  0  0  0  0  0  0
  -19.9604  -38.5006   -7.3019 C   0  0  2  0  0  0  0  0  0  0  0  0
  -19.4875  -37.2365   -8.0129 C   0  0  0  0  0  0  0  0  0  0  0  0
  -20.7759  -38.0486   -6.1262 C   0  0  0  0  0  0  0  0  0  0  0  0
  -21.3400  -39.2494   -5.4196 C   0  0  0  0  0  0  0  0  0  0  0  0
  -22.5245  -39.7596   -6.2446 C   0  0  0  0  0  0  0  0  0  0  0  0
  -22.8939  -41.1034   -5.6695 C   0  0  0  0  0  0  0  0  0  0  0  0
  -23.4285  -42.0004   -6.7509 C   0  0  0  0  0  0  0  0  0  0  0  0
  -23.1158  -43.4194   -6.4827 N   0  0  0  0  0  0  0  0  0  0  0  0
  -24.2888  -44.2974   -6.4427 C   0  0  2  0  0  0  0  0  0  0  0  0
  -25.0060  -44.2981   -7.7767 C   0  0  0  0  0  0  0  0  0  0  0  0
  -25.2435  -43.8760   -5.4148 C   0  0  0  0  0  0  0  0  0  0  0  0
  -25.5317  -44.6572   -4.3196 C   0  0  0  0  0  0  0  0  0  0  0  0
  -26.4484  -44.2292   -3.3500 C   0  0  0  0  0  0  0  0  0  0  0  0
  -27.0830  -43.0338   -3.4545 C   0  0  0  0  0  0  0  0  0  0  0  0
  -26.7993  -42.2377   -4.5561 C   0  0  0  0  0  0  0  0  0  0  0  0
  -25.8897  -42.6657   -5.5156 C   0  0  0  0  0  0  0  0  0  0  0  0
  -21.7805  -43.8438   -6.2877 C   0  0  0  0  0  0  0  0  0  0  0  0
  -21.7651  -44.6618   -5.2429 O   0  0  0  0  0  0  0  0  0  0  0  0
  -20.5177  -43.5598   -6.9852 C   0  0  0  0  0  0  0  0  0  0  0  0
  -20.0935  -42.4597   -7.6987 C   0  0  0  0  0  0  0  0  0  0  0  0
  -18.8310  -42.4663   -8.2613 C   0  0  0  0  0  0  0  0  0  0  0  0
  -17.9996  -43.6089   -8.0884 C   0  0  0  0  0  0  0  0  0  0  0  0
  -18.3787  -44.7167   -7.3901 C   0  0  0  0  0  0  0  0  0  0  0  0
  -19.6339  -44.6686   -6.8522 C   0  0  0  0  0  0  0  0  0  0  0  0
  -17.5023  -45.8671   -7.2162 C   0  0  0  0  0  0  0  0  0  0  0  0
  -17.9092  -47.1379   -7.3370 N   0  0  0  0  0  0  0  0  0  0  0  0
  -16.8522  -47.9661   -7.1163 C   0  0  0  0  0  0  0  0  0  0  0  0
  -15.7880  -47.1166   -6.8563 C   0  0  0  0  0  0  0  0  0  0  0  0
  -16.2371  -45.9034   -6.9307 O   0  0  0  0  0  0  0  0  0  0  0  0
  -18.1217  -41.4843   -9.0816 C   0  0  0  0  0  0  0  0  0  0  0  0
  -17.3978  -41.9293  -10.1132 O   0  0  0  0  0  0  0  0  0  0  0  0
  -18.0219  -40.0646   -9.0204 N   0  0  0  0  0  0  0  0  0  0  0  0
  -13.9303  -40.7734  -11.5295 C   0  0  0  0  0  0  0  0  0  0  0  0
  -14.3590  -40.4673  -12.8042 C   0  0  0  0  0  0  0  0  0  0  0  0
  -14.4646  -39.1631  -13.2404 C   0  0  0  0  0  0  0  0  0  0  0  0
  1  2  1  0
  2  3  1  0
  2  4  1  0
  4  5  2  0
  5  6  1  0
  6  7  1  0
  7  8  1  0
  8  9  1  0
  9 10  1  0
 10 11  1  1
 10 12  1  0
 12 13  1  1
 13 14  1  0
 14 15  1  1
 14 16  1  0
 16 17  1  0
 17 18  1  0
 18 19  1  0
 19 20  1  0
 20 21  1  0
 21 22  1  0
 22 23  1  6
 22 24  1  0
 24 25  2  0
 25 26  1  0
 26 27  2  0
 27 28  1  0
 28 29  2  0
 21 30  1  0
 30 31  2  0
 30 32  1  0
 32 33  1  0
 33 34  2  0
 34 35  1  0
 35 36  2  0
 36 37  1  0
 36 38  1  0
 38 39  2  0
 39 40  1  0
 40 41  2  0
 41 42  1  0
 34 43  1  0
 43 44  2  0
 43 45  1  0
  6 46  2  0
 46 47  1  0
 47 48  2  0
 29 24  1  0
 37 32  2  0
 42 38  1  0
 45 12  1  0
 48  4  1  0
M  END
$$$$
