
     RDKit          3D

 48 52  0  0  0  0  0  0  0  0999 V2000
  -12.7555  -36.2183  -14.2037 C   0  0  0  0  0  0  0  0  0  0  0  0
  -12.6819  -36.6798  -12.7544 C   0  0  0  0  0  0  0  0  0  0  0  0
  -11.3518  -36.4288  -12.1335 C   0  0  0  0  0  0  0  0  0  0  0  0
  -13.0261  -38.1215  -12.6794 C   0  0  0  0  0  0  0  0  0  0  0  0
  -12.8245  -38.8918  -11.5722 C   0  0  0  0  0  0  0  0  0  0  0  0
  -13.1325  -40.2306  -11.5110 C   0  0  0  0  0  0  0  0  0  0  0  0
  -12.8975  -41.0183  -10.2639 C   0  0  0  0  0  0  0  0  0  0  0  0
  -14.0724  -41.0464   -9.4831 N   0  0  0  0  0  0  0  0  0  0  0  0
  -14.8600  -39.8822   -9.3723 C   0  0  0  0  0  0  0  0  0  0  0  0
  -15.8466  -39.8747   -8.2049 C   0  0  1  0  0  0  0  0  0  0  0  0
  -15.3809  -38.9950   -7.2509 O   0  0  0  0  0  0  0  0  0  0  0  0
  -17.2090  -39.4193   -8.7115 C   0  0  2  0  0  0  0  0  0  0  0  0
  -18.1165  -39.1469   -7.5679 C   0  0  0  0  0  0  0  0  0  0  0  0
  -19.3000  -38.3315   -8.0238 C   0  0  2  0  0  0  0  0  0  0  0  0
  -18.7547  -37.1975   -8.8863 C   0  0  0  0  0  0  0  0  0  0  0  0
  -19.9412  -37.6882   -6.8294 C   0  0  0  0  0  0  0  0  0  0  0  0
  -20.5698  -38.7488   -5.9693 C   0  0  0  0  0  0  0  0  0  0  0  0
  -21.8788  -39.1743   -6.6393 C   0  0  0  0  0  0  0  0  0  0  0  0
  -22.3441  -40.4110   -5.9132 C   0  0  0  0  0  0  0  0  0  0  0  0
  -23.0800  -41.3202   -6.8575 C   0  0  0  0  0  0  0  0  0  0  0  0
  -22.9089  -42.7403   -6.4872 N   0  0  0  0  0  0  0  0  0  0  0  0
  -24.1661  -43.4607   -6.2662 C   0  0  2  0  0  0  0  0  0  0  0  0
  -25.0427  -43.4042   -7.5000 C   0  0  0  0  0  0  0  0  0  0  0  0
  -24.9224  -42.8952   -5.1464 C   0  0  0  0  0  0  0  0  0  0  0  0
  -25.7724  -41.8248   -5.3039 C   0  0  0  0  0  0  0  0  0  0  0  0
  -26.4852  -41.3042   -4.2155 C   0  0  0  0  0  0  0  0  0  0  0  0
  -26.3646  -41.8339   -2.9716 C   0  0  0  0  0  0  0  0  0  0  0  0
  -25.5093  -42.9144   -2.8018 C   0  0  0  0  0  0  0  0  0  0  0  0
  -24.8039  -43.4277   -3.8835 C   0  0  0  0  0  0  0  0  0  0  0  0
  -21.6190  -43.3090   -6.3687 C   0  0  0  0  0  0  0  0  0  0  0  0
  -21.5979  -44.0349   -5.2581 O   0  0  0  0  0  0  0  0  0  0  0  0
  -20.4047  -43.2407   -7.1950 C   0  0  0  0  0  0  0  0  0  0  0  0
  -19.9268  -42.2630   -8.0407 C   0  0  0  0  0  0  0  0  0  0  0  0
  -18.7333  -42.4711   -8.7061 C   0  0  0  0  0  0  0  0  0  0  0  0
  -18.0267  -43.6897   -8.5003 C   0  0  0  0  0  0  0  0  0  0  0  0
  -18.4624  -44.6817   -7.6729 C   0  0  0  0  0  0  0  0  0  0  0  0
  -19.6462  -44.4355   -7.0363 C   0  0  0  0  0  0  0  0  0  0  0  0
  -17.7120  -45.9135   -7.4691 C   0  0  0  0  0  0  0  0  0  0  0  0
  -16.6154  -46.2409   -8.1657 N   0  0  0  0  0  0  0  0  0  0  0  0
  -16.1572  -47.4469   -7.7326 C   0  0  0  0  0  0  0  0  0  0  0  0
  -17.0439  -47.8226   -6.7354 C   0  0  0  0  0  0  0  0  0  0  0  0
  -17.9283  -46.8813   -6.6323 O   0  0  0  0  0  0  0  0  0  0  0  0
  -17.9975  -41.6542   -9.6712 C   0  0  0  0  0  0  0  0  0  0  0  0
  -17.4322  -42.2676  -10.7155 O   0  0  0  0  0  0  0  0  0  0  0  0
  -17.7290  -40.2574   -9.7501 N   0  0  0  0  0  0  0  0  0  0  0  0
  -13.6787  -40.8180  -12.6489 C   0  0  0  0  0  0  0  0  0  0  0  0
  -13.8885  -40.0514  -13.7761 C   0  0  0  0  0  0  0  0  0  0  0  0
  -13.5708  -38.7096  -13.8103 C   0  0  0  0  0  0  0  0  0  0  0  0
  1  2  1  0
  2  3  1  0
  2  4  1  0
  4  5  2  0
  5  6  1  0
  6  7  1  0
  7  8  1  0
  8  9  1  0
  9 10  1  0
 10 11  1  1
 10 12  1  0
 12 13  1  1
 13 14  1  0
 14 15  1  6
 14 16  1  0
 16 17  1  0
 17 18  1  0
 18 19  1  0
 19 20  1  0
 20 21  1  0
 21 22  1  0
 22 23  1  6
 22 24  1  0
 24 25  2  0
 25 26  1  0
 26 27  2  0
 27 28  1  0
 28 29  2  0
 21 30  1  0
 30 31  2  0
 30 32  1  0
 32 33  1  0
 33 34  2  0
 34 35  1  0
 35 36  2  0
 36 37  1  0
 36 38  1  0
 38 39  2  0
 39 40  1  0
 40 41  2  0
 41 42  1  0
 34 43  1  0
 43 44  2  0
 43 45  1  0
  6 46  2  0
 46 47  1  0
 47 48  2  0
 29 24  1  0
 37 32  2  0
 42 38  1  0
 45 12  1  0
 48  4  1  0
M  END
$$$$
