
     RDKit          3D

 48 52  0  0  0  0  0  0  0  0999 V2000
  -13.0091  -33.7672  -12.5680 C   0  0  0  0  0  0  0  0  0  0  0  0
  -12.5916  -34.7540  -13.6501 C   0  0  0  0  0  0  0  0  0  0  0  0
  -13.4077  -34.6335  -14.8899 C   0  0  0  0  0  0  0  0  0  0  0  0
  -12.6664  -36.1349  -13.1115 C   0  0  0  0  0  0  0  0  0  0  0  0
  -13.6819  -36.5856  -12.3206 C   0  0  0  0  0  0  0  0  0  0  0  0
  -13.7409  -37.8620  -11.8125 C   0  0  0  0  0  0  0  0  0  0  0  0
  -14.8868  -38.2990  -10.9599 C   0  0  0  0  0  0  0  0  0  0  0  0
  -14.9480  -37.5087   -9.7927 N   0  0  0  0  0  0  0  0  0  0  0  0
  -14.6906  -38.1009   -8.5394 C   0  0  0  0  0  0  0  0  0  0  0  0
  -15.5923  -39.2824   -8.1824 C   0  0  1  0  0  0  0  0  0  0  0  0
  -14.7954  -40.3144   -7.7342 O   0  0  0  0  0  0  0  0  0  0  0  0
  -16.5563  -38.8546   -7.0834 C   0  0  2  0  0  0  0  0  0  0  0  0
  -17.1753  -40.0475   -6.4513 C   0  0  0  0  0  0  0  0  0  0  0  0
  -17.8031  -39.6726   -5.1327 C   0  0  2  0  0  0  0  0  0  0  0  0
  -16.7860  -38.8193   -4.3811 C   0  0  0  0  0  0  0  0  0  0  0  0
  -18.0047  -40.9146   -4.3152 C   0  0  0  0  0  0  0  0  0  0  0  0
  -19.0570  -41.7715   -4.9615 C   0  0  0  0  0  0  0  0  0  0  0  0
  -20.4202  -41.1519   -4.6432 C   0  0  0  0  0  0  0  0  0  0  0  0
  -21.4229  -41.8621   -5.5168 C   0  0  0  0  0  0  0  0  0  0  0  0
  -22.5395  -40.9271   -5.8894 C   0  0  0  0  0  0  0  0  0  0  0  0
  -23.0928  -41.2464   -7.2217 N   0  0  0  0  0  0  0  0  0  0  0  0
  -24.5355  -41.5052   -7.2284 C   0  0  2  0  0  0  0  0  0  0  0  0
  -25.3092  -40.2479   -6.8898 C   0  0  0  0  0  0  0  0  0  0  0  0
  -24.9028  -42.5389   -6.2578 C   0  0  0  0  0  0  0  0  0  0  0  0
  -24.3838  -42.5640   -4.9839 C   0  0  0  0  0  0  0  0  0  0  0  0
  -24.7536  -43.5640   -4.0745 C   0  0  0  0  0  0  0  0  0  0  0  0
  -25.6332  -44.5402   -4.4146 C   0  0  0  0  0  0  0  0  0  0  0  0
  -26.1629  -44.5240   -5.6980 C   0  0  0  0  0  0  0  0  0  0  0  0
  -25.7937  -43.5308   -6.5971 C   0  0  0  0  0  0  0  0  0  0  0  0
  -22.2583  -41.2867   -8.3633 C   0  0  0  0  0  0  0  0  0  0  0  0
  -22.5745  -42.3730   -9.0568 O   0  0  0  0  0  0  0  0  0  0  0  0
  -21.1950  -40.4063   -8.8694 C   0  0  0  0  0  0  0  0  0  0  0  0
  -20.3141  -39.5684   -8.2203 C   0  0  0  0  0  0  0  0  0  0  0  0
  -19.4030  -38.8413   -8.9631 C   0  0  0  0  0  0  0  0  0  0  0  0
  -19.3963  -38.9771  -10.3802 C   0  0  0  0  0  0  0  0  0  0  0  0
  -20.2483  -39.7943  -11.0619 C   0  0  0  0  0  0  0  0  0  0  0  0
  -21.1327  -40.4933  -10.2896 C   0  0  0  0  0  0  0  0  0  0  0  0
  -20.2104  -39.9256  -12.5122 C   0  0  0  0  0  0  0  0  0  0  0  0
  -20.4331  -41.0762  -13.1614 N   0  0  0  0  0  0  0  0  0  0  0  0
  -20.3254  -40.8591  -14.5006 C   0  0  0  0  0  0  0  0  0  0  0  0
  -20.0251  -39.5106  -14.6152 C   0  0  0  0  0  0  0  0  0  0  0  0
  -19.9728  -39.0247  -13.4152 O   0  0  0  0  0  0  0  0  0  0  0  0
  -18.3825  -37.8672   -8.5759 C   0  0  0  0  0  0  0  0  0  0  0  0
  -18.2277  -36.7796   -9.3371 O   0  0  0  0  0  0  0  0  0  0  0  0
  -17.4529  -37.8173   -7.4975 N   0  0  0  0  0  0  0  0  0  0  0  0
  -12.7000  -38.7302  -12.1309 C   0  0  0  0  0  0  0  0  0  0  0  0
  -11.6663  -38.2885  -12.9299 C   0  0  0  0  0  0  0  0  0  0  0  0
  -11.6322  -37.0023  -13.4270 C   0  0  0  0  0  0  0  0  0  0  0  0
  1  2  1  0
  2  3  1  0
  2  4  1  0
  4  5  2  0
  5  6  1  0
  6  7  1  0
  7  8  1  0
  8  9  1  0
  9 10  1  0
 10 11  1  1
 10 12  1  0
 12 13  1  6
 13 14  1  0
 14 15  1  1
 14 16  1  0
 16 17  1  0
 17 18  1  0
 18 19  1  0
 19 20  1  0
 20 21  1  0
 21 22  1  0
 22 23  1  1
 22 24  1  0
 24 25  2  0
 25 26  1  0
 26 27  2  0
 27 28  1  0
 28 29  2  0
 21 30  1  0
 30 31  2  0
 30 32  1  0
 32 33  1  0
 33 34  2  0
 34 35  1  0
 35 36  2  0
 36 37  1  0
 36 38  1  0
 38 39  2  0
 39 40  1  0
 40 41  2  0
 41 42  1  0
 34 43  1  0
 43 44  2  0
 43 45  1  0
  6 46  2  0
 46 47  1  0
 47 48  2  0
 29 24  1  0
 37 32  2  0
 42 38  1  0
 45 12  1  0
 48  4  1  0
M  END
$$$$
