
     RDKit          3D

 48 52  0  0  0  0  0  0  0  0999 V2000
  -17.9152  -33.1470  -11.2308 C   0  0  0  0  0  0  0  0  0  0  0  0
  -19.3432  -33.6757  -11.2506 C   0  0  0  0  0  0  0  0  0  0  0  0
  -20.2637  -32.8904  -10.3824 C   0  0  0  0  0  0  0  0  0  0  0  0
  -19.3440  -35.1046  -10.8494 C   0  0  0  0  0  0  0  0  0  0  0  0
  -18.2160  -35.8651  -10.7534 C   0  0  0  0  0  0  0  0  0  0  0  0
  -18.2222  -37.1925  -10.3942 C   0  0  0  0  0  0  0  0  0  0  0  0
  -16.9503  -37.9694  -10.2964 C   0  0  0  0  0  0  0  0  0  0  0  0
  -17.2231  -39.2906   -9.8831 N   0  0  0  0  0  0  0  0  0  0  0  0
  -17.2269  -39.6007   -8.5077 C   0  0  0  0  0  0  0  0  0  0  0  0
  -15.8693  -39.4913   -7.8140 C   0  0  1  0  0  0  0  0  0  0  0  0
  -16.0163  -38.6930   -6.6995 O   0  0  0  0  0  0  0  0  0  0  0  0
  -15.4118  -40.8838   -7.3996 C   0  0  2  0  0  0  0  0  0  0  0  0
  -15.5527  -41.8293   -8.5361 C   0  0  0  0  0  0  0  0  0  0  0  0
  -14.7497  -43.0791   -8.2778 C   0  0  2  0  0  0  0  0  0  0  0  0
  -13.3756  -42.6329   -7.7879 C   0  0  0  0  0  0  0  0  0  0  0  0
  -14.5270  -43.7958   -9.5771 C   0  0  0  0  0  0  0  0  0  0  0  0
  -15.8376  -44.3318  -10.0818 C   0  0  0  0  0  0  0  0  0  0  0  0
  -16.1714  -45.5844   -9.2675 C   0  0  0  0  0  0  0  0  0  0  0  0
  -17.5982  -45.9391   -9.6011 C   0  0  0  0  0  0  0  0  0  0  0  0
  -18.2667  -46.5710   -8.4121 C   0  0  0  0  0  0  0  0  0  0  0  0
  -19.7128  -46.2697   -8.3790 N   0  0  0  0  0  0  0  0  0  0  0  0
  -20.5741  -47.4549   -8.3397 C   0  0  2  0  0  0  0  0  0  0  0  0
  -19.9427  -48.5516   -7.5074 C   0  0  0  0  0  0  0  0  0  0  0  0
  -20.8195  -47.9885   -9.6817 C   0  0  0  0  0  0  0  0  0  0  0  0
  -20.3271  -47.3791  -10.8126 C   0  0  0  0  0  0  0  0  0  0  0  0
  -20.5757  -47.9117  -12.0847 C   0  0  0  0  0  0  0  0  0  0  0  0
  -21.3077  -49.0431  -12.2479 C   0  0  0  0  0  0  0  0  0  0  0  0
  -21.8092  -49.6659  -11.1128 C   0  0  0  0  0  0  0  0  0  0  0  0
  -21.5607  -49.1346   -9.8530 C   0  0  0  0  0  0  0  0  0  0  0  0
  -20.1759  -44.9330   -8.3865 C   0  0  0  0  0  0  0  0  0  0  0  0
  -21.1798  -44.8580   -9.2511 O   0  0  0  0  0  0  0  0  0  0  0  0
  -19.7714  -43.7193   -7.6618 C   0  0  0  0  0  0  0  0  0  0  0  0
  -18.5574  -43.3255   -7.1417 C   0  0  0  0  0  0  0  0  0  0  0  0
  -18.4641  -42.1083   -6.4935 C   0  0  0  0  0  0  0  0  0  0  0  0
  -19.6242  -41.2910   -6.3803 C   0  0  0  0  0  0  0  0  0  0  0  0
  -20.8431  -41.6412   -6.8805 C   0  0  0  0  0  0  0  0  0  0  0  0
  -20.8910  -42.8520   -7.5121 C   0  0  0  0  0  0  0  0  0  0  0  0
  -22.0115  -40.7790   -6.7635 C   0  0  0  0  0  0  0  0  0  0  0  0
  -23.2513  -41.2325   -6.5355 N   0  0  0  0  0  0  0  0  0  0  0  0
  -24.1079  -40.1765   -6.4803 C   0  0  0  0  0  0  0  0  0  0  0  0
  -23.3080  -39.0635   -6.6886 C   0  0  0  0  0  0  0  0  0  0  0  0
  -22.0936  -39.4868   -6.8470 O   0  0  0  0  0  0  0  0  0  0  0  0
  -17.3475  -41.4406   -5.8245 C   0  0  0  0  0  0  0  0  0  0  0  0
  -17.5904  -40.8044   -4.6746 O   0  0  0  0  0  0  0  0  0  0  0  0
  -15.9667  -41.3063   -6.1486 N   0  0  0  0  0  0  0  0  0  0  0  0
  -19.4543  -37.7784  -10.1169 C   0  0  0  0  0  0  0  0  0  0  0  0
  -20.6036  -37.0217  -10.2097 C   0  0  0  0  0  0  0  0  0  0  0  0
  -20.5689  -35.6913  -10.5719 C   0  0  0  0  0  0  0  0  0  0  0  0
  1  2  1  0
  2  3  1  0
  2  4  1  0
  4  5  2  0
  5  6  1  0
  6  7  1  0
  7  8  1  0
  8  9  1  0
  9 10  1  0
 10 11  1  1
 10 12  1  0
 12 13  1  6
 13 14  1  0
 14 15  1  6
 14 16  1  0
 16 17  1  0
 17 18  1  0
 18 19  1  0
 19 20  1  0
 20 21  1  0
 21 22  1  0
 22 23  1  1
 22 24  1  0
 24 25  2  0
 25 26  1  0
 26 27  2  0
 27 28  1  0
 28 29  2  0
 21 30  1  0
 30 31  2  0
 30 32  1  0
 32 33  1  0
 33 34  2  0
 34 35  1  0
 35 36  2  0
 36 37  1  0
 36 38  1  0
 38 39  2  0
 39 40  1  0
 40 41  2  0
 41 42  1  0
 34 43  1  0
 43 44  2  0
 43 45  1  0
  6 46  2  0
 46 47  1  0
 47 48  2  0
 29 24  1  0
 37 32  2  0
 42 38  1  0
 45 12  1  0
 48  4  1  0
M  END
$$$$
