
     RDKit          3D

 48 52  0  0  0  0  0  0  0  0999 V2000
  -13.7757  -35.3435  -11.2643 C   0  0  0  0  0  0  0  0  0  0  0  0
  -13.4306  -35.8854  -12.6450 C   0  0  0  0  0  0  0  0  0  0  0  0
  -14.6300  -36.0880  -13.5040 C   0  0  0  0  0  0  0  0  0  0  0  0
  -12.6752  -37.1546  -12.5003 C   0  0  0  0  0  0  0  0  0  0  0  0
  -13.1738  -38.2676  -11.8898 C   0  0  0  0  0  0  0  0  0  0  0  0
  -12.4658  -39.4376  -11.7460 C   0  0  0  0  0  0  0  0  0  0  0  0
  -13.0723  -40.6270  -11.0762 C   0  0  0  0  0  0  0  0  0  0  0  0
  -13.6876  -40.2379   -9.8676 N   0  0  0  0  0  0  0  0  0  0  0  0
  -14.8063  -39.3806   -9.9031 C   0  0  0  0  0  0  0  0  0  0  0  0
  -15.7482  -39.4927   -8.7045 C   0  0  1  0  0  0  0  0  0  0  0  0
  -15.2994  -38.6375   -7.7204 O   0  0  0  0  0  0  0  0  0  0  0  0
  -17.1523  -39.0937   -9.1395 C   0  0  2  0  0  0  0  0  0  0  0  0
  -18.0197  -38.8924   -7.9510 C   0  0  0  0  0  0  0  0  0  0  0  0
  -19.2605  -38.1263   -8.3343 C   0  0  2  0  0  0  0  0  0  0  0  0
  -18.8099  -36.9475   -9.1914 C   0  0  0  0  0  0  0  0  0  0  0  0
  -19.8778  -37.5427   -7.0975 C   0  0  0  0  0  0  0  0  0  0  0  0
  -20.4152  -38.6522   -6.2373 C   0  0  0  0  0  0  0  0  0  0  0  0
  -21.7309  -39.1265   -6.8598 C   0  0  0  0  0  0  0  0  0  0  0  0
  -22.1028  -40.4007   -6.1451 C   0  0  0  0  0  0  0  0  0  0  0  0
  -22.8356  -41.3235   -7.0785 C   0  0  0  0  0  0  0  0  0  0  0  0
  -22.5797  -42.7415   -6.7514 N   0  0  0  0  0  0  0  0  0  0  0  0
  -23.7894  -43.5279   -6.4937 C   0  0  2  0  0  0  0  0  0  0  0  0
  -24.9840  -42.9258   -7.2040 C   0  0  0  0  0  0  0  0  0  0  0  0
  -24.0972  -43.5912   -5.0630 C   0  0  0  0  0  0  0  0  0  0  0  0
  -23.1212  -43.4849   -4.0992 C   0  0  0  0  0  0  0  0  0  0  0  0
  -23.4435  -43.5475   -2.7368 C   0  0  0  0  0  0  0  0  0  0  0  0
  -24.7242  -43.7143   -2.3193 C   0  0  0  0  0  0  0  0  0  0  0  0
  -25.7169  -43.8227   -3.2840 C   0  0  0  0  0  0  0  0  0  0  0  0
  -25.3933  -43.7603   -4.6340 C   0  0  0  0  0  0  0  0  0  0  0  0
  -21.2598  -43.2484   -6.7037 C   0  0  0  0  0  0  0  0  0  0  0  0
  -21.1539  -43.9973   -5.6134 O   0  0  0  0  0  0  0  0  0  0  0  0
  -20.0885  -43.1015   -7.5802 C   0  0  0  0  0  0  0  0  0  0  0  0
  -19.6968  -42.0825   -8.4215 C   0  0  0  0  0  0  0  0  0  0  0  0
  -18.5257  -42.2163   -9.1434 C   0  0  0  0  0  0  0  0  0  0  0  0
  -17.7526  -43.4029   -8.9990 C   0  0  0  0  0  0  0  0  0  0  0  0
  -18.1023  -44.4337   -8.1782 C   0  0  0  0  0  0  0  0  0  0  0  0
  -19.2668  -44.2608   -7.4846 C   0  0  0  0  0  0  0  0  0  0  0  0
  -17.2849  -45.6313   -8.0380 C   0  0  0  0  0  0  0  0  0  0  0  0
  -15.9464  -45.6300   -8.0970 N   0  0  0  0  0  0  0  0  0  0  0  0
  -15.4927  -46.9019   -7.9284 C   0  0  0  0  0  0  0  0  0  0  0  0
  -16.6383  -47.6653   -7.7649 C   0  0  0  0  0  0  0  0  0  0  0  0
  -17.6509  -46.8602   -7.8397 O   0  0  0  0  0  0  0  0  0  0  0  0
  -17.8742  -41.3425  -10.1191 C   0  0  0  0  0  0  0  0  0  0  0  0
  -17.3274  -41.9034  -11.2020 O   0  0  0  0  0  0  0  0  0  0  0  0
  -17.6773  -39.9327  -10.1749 N   0  0  0  0  0  0  0  0  0  0  0  0
  -11.1707  -39.4731  -12.2558 C   0  0  0  0  0  0  0  0  0  0  0  0
  -10.6531  -38.3552  -12.8760 C   0  0  0  0  0  0  0  0  0  0  0  0
  -11.3856  -37.1939  -13.0073 C   0  0  0  0  0  0  0  0  0  0  0  0
  1  2  1  0
  2  3  1  0
  2  4  1  0
  4  5  2  0
  5  6  1  0
  6  7  1  0
  7  8  1  0
  8  9  1  0
  9 10  1  0
 10 11  1  1
 10 12  1  0
 12 13  1  1
 13 14  1  0
 14 15  1  6
 14 16  1  0
 16 17  1  0
 17 18  1  0
 18 19  1  0
 19 20  1  0
 20 21  1  0
 21 22  1  0
 22 23  1  6
 22 24  1  0
 24 25  2  0
 25 26  1  0
 26 27  2  0
 27 28  1  0
 28 29  2  0
 21 30  1  0
 30 31  2  0
 30 32  1  0
 32 33  1  0
 33 34  2  0
 34 35  1  0
 35 36  2  0
 36 37  1  0
 36 38  1  0
 38 39  2  0
 39 40  1  0
 40 41  2  0
 41 42  1  0
 34 43  1  0
 43 44  2  0
 43 45  1  0
  6 46  2  0
 46 47  1  0
 47 48  2  0
 29 24  1  0
 37 32  2  0
 42 38  1  0
 45 12  1  0
 48  4  1  0
M  END
$$$$
