
     RDKit          3D

 48 52  0  0  0  0  0  0  0  0999 V2000
  -12.1679  -40.8037  -14.0056 C   0  0  0  0  0  0  0  0  0  0  0  0
  -13.5447  -40.9021  -13.3623 C   0  0  0  0  0  0  0  0  0  0  0  0
  -14.6386  -41.0726  -14.3582 C   0  0  0  0  0  0  0  0  0  0  0  0
  -13.7849  -39.6981  -12.5284 C   0  0  0  0  0  0  0  0  0  0  0  0
  -13.4456  -39.6095  -11.2104 C   0  0  0  0  0  0  0  0  0  0  0  0
  -13.6819  -38.4969  -10.4376 C   0  0  0  0  0  0  0  0  0  0  0  0
  -13.2763  -38.4575   -9.0006 C   0  0  0  0  0  0  0  0  0  0  0  0
  -14.3965  -38.6967   -8.1768 N   0  0  0  0  0  0  0  0  0  0  0  0
  -15.5621  -39.2588   -8.7366 C   0  0  0  0  0  0  0  0  0  0  0  0
  -16.7532  -39.3650   -7.7846 C   0  0  1  0  0  0  0  0  0  0  0  0
  -16.7090  -38.2953   -6.9158 O   0  0  0  0  0  0  0  0  0  0  0  0
  -18.0411  -39.3223   -8.5968 C   0  0  2  0  0  0  0  0  0  0  0  0
  -19.2177  -39.2900   -7.6912 C   0  0  0  0  0  0  0  0  0  0  0  0
  -20.4460  -38.8506   -8.4472 C   0  0  2  0  0  0  0  0  0  0  0  0
  -20.0498  -37.6289   -9.2704 C   0  0  0  0  0  0  0  0  0  0  0  0
  -21.4841  -38.3865   -7.4681 C   0  0  0  0  0  0  0  0  0  0  0  0
  -21.9776  -39.5611   -6.6705 C   0  0  0  0  0  0  0  0  0  0  0  0
  -22.9422  -40.3524   -7.5577 C   0  0  0  0  0  0  0  0  0  0  0  0
  -23.2056  -41.6532   -6.8424 C   0  0  0  0  0  0  0  0  0  0  0  0
  -23.4420  -42.7537   -7.8388 C   0  0  0  0  0  0  0  0  0  0  0  0
  -22.9810  -44.0598   -7.3243 N   0  0  0  0  0  0  0  0  0  0  0  0
  -24.0143  -45.0992   -7.3075 C   0  0  2  0  0  0  0  0  0  0  0  0
  -24.4728  -45.4248   -8.7137 C   0  0  0  0  0  0  0  0  0  0  0  0
  -25.1861  -44.6827   -6.5335 C   0  0  0  0  0  0  0  0  0  0  0  0
  -26.1011  -43.7782   -7.0207 C   0  0  0  0  0  0  0  0  0  0  0  0
  -27.2145  -43.3980   -6.2595 C   0  0  0  0  0  0  0  0  0  0  0  0
  -27.4309  -43.9056   -5.0193 C   0  0  0  0  0  0  0  0  0  0  0  0
  -26.5134  -44.8192   -4.5182 C   0  0  0  0  0  0  0  0  0  0  0  0
  -25.4104  -45.1936   -5.2760 C   0  0  0  0  0  0  0  0  0  0  0  0
  -21.6449  -44.2403   -6.8960 C   0  0  0  0  0  0  0  0  0  0  0  0
  -21.6748  -44.9056   -5.7483 O   0  0  0  0  0  0  0  0  0  0  0  0
  -20.3425  -43.8523   -7.4575 C   0  0  0  0  0  0  0  0  0  0  0  0
  -19.9711  -42.7991   -8.2652 C   0  0  0  0  0  0  0  0  0  0  0  0
  -18.6493  -42.6785   -8.6511 C   0  0  0  0  0  0  0  0  0  0  0  0
  -17.7042  -43.6444   -8.2035 C   0  0  0  0  0  0  0  0  0  0  0  0
  -18.0282  -44.6999   -7.4038 C   0  0  0  0  0  0  0  0  0  0  0  0
  -19.3447  -44.7819   -7.0471 C   0  0  0  0  0  0  0  0  0  0  0  0
  -17.0380  -45.6663   -6.9481 C   0  0  0  0  0  0  0  0  0  0  0  0
  -17.1009  -46.2957   -5.7670 N   0  0  0  0  0  0  0  0  0  0  0  0
  -16.0308  -47.1282   -5.6493 C   0  0  0  0  0  0  0  0  0  0  0  0
  -15.3232  -46.9605   -6.8296 C   0  0  0  0  0  0  0  0  0  0  0  0
  -15.9670  -46.0922   -7.5441 O   0  0  0  0  0  0  0  0  0  0  0  0
  -17.9664  -41.7099   -9.5087 C   0  0  0  0  0  0  0  0  0  0  0  0
  -17.0407  -42.1632  -10.3595 O   0  0  0  0  0  0  0  0  0  0  0  0
  -18.0735  -40.2960   -9.6467 N   0  0  0  0  0  0  0  0  0  0  0  0
  -14.3023  -37.4098  -11.0472 C   0  0  0  0  0  0  0  0  0  0  0  0
  -14.6511  -37.4848  -12.3794 C   0  0  0  0  0  0  0  0  0  0  0  0
  -14.4019  -38.6135  -13.1321 C   0  0  0  0  0  0  0  0  0  0  0  0
  1  2  1  0
  2  3  1  0
  2  4  1  0
  4  5  2  0
  5  6  1  0
  6  7  1  0
  7  8  1  0
  8  9  1  0
  9 10  1  0
 10 11  1  1
 10 12  1  0
 12 13  1  1
 13 14  1  0
 14 15  1  6
 14 16  1  0
 16 17  1  0
 17 18  1  0
 18 19  1  0
 19 20  1  0
 20 21  1  0
 21 22  1  0
 22 23  1  6
 22 24  1  0
 24 25  2  0
 25 26  1  0
 26 27  2  0
 27 28  1  0
 28 29  2  0
 21 30  1  0
 30 31  2  0
 30 32  1  0
 32 33  1  0
 33 34  2  0
 34 35  1  0
 35 36  2  0
 36 37  1  0
 36 38  1  0
 38 39  2  0
 39 40  1  0
 40 41  2  0
 41 42  1  0
 34 43  1  0
 43 44  2  0
 43 45  1  0
  6 46  2  0
 46 47  1  0
 47 48  2  0
 29 24  1  0
 37 32  2  0
 42 38  1  0
 45 12  1  0
 48  4  1  0
M  END
$$$$
