
     RDKit          3D

 48 52  0  0  0  0  0  0  0  0999 V2000
  -14.4157  -40.6522  -11.4854 C   0  0  0  0  0  0  0  0  0  0  0  0
  -12.9642  -40.1933  -11.5274 C   0  0  0  0  0  0  0  0  0  0  0  0
  -11.9982  -41.3072  -11.3186 C   0  0  0  0  0  0  0  0  0  0  0  0
  -12.7557  -39.1285  -10.5148 C   0  0  0  0  0  0  0  0  0  0  0  0
  -13.4951  -39.0121   -9.3747 C   0  0  0  0  0  0  0  0  0  0  0  0
  -13.3076  -38.0161   -8.4453 C   0  0  0  0  0  0  0  0  0  0  0  0
  -14.1442  -37.9489   -7.2097 C   0  0  0  0  0  0  0  0  0  0  0  0
  -14.9674  -39.0915   -7.1222 N   0  0  0  0  0  0  0  0  0  0  0  0
  -15.7672  -39.4565   -8.2245 C   0  0  0  0  0  0  0  0  0  0  0  0
  -17.2748  -39.4013   -7.9789 C   0  0  1  0  0  0  0  0  0  0  0  0
  -17.6696  -38.0806   -8.0078 O   0  0  0  0  0  0  0  0  0  0  0  0
  -17.9842  -40.1803   -9.0790 C   0  0  2  0  0  0  0  0  0  0  0  0
  -19.3701  -39.6758   -9.2526 C   0  0  0  0  0  0  0  0  0  0  0  0
  -19.9349  -40.1447  -10.5697 C   0  0  2  0  0  0  0  0  0  0  0  0
  -18.8652  -39.8941  -11.6281 C   0  0  0  0  0  0  0  0  0  0  0  0
  -21.1068  -39.2820  -10.9354 C   0  0  0  0  0  0  0  0  0  0  0  0
  -22.2328  -39.5364   -9.9725 C   0  0  0  0  0  0  0  0  0  0  0  0
  -22.8875  -40.8637  -10.3641 C   0  0  0  0  0  0  0  0  0  0  0  0
  -23.8209  -41.2247   -9.2365 C   0  0  0  0  0  0  0  0  0  0  0  0
  -23.9066  -42.7187   -9.0932 C   0  0  0  0  0  0  0  0  0  0  0  0
  -24.1416  -43.1165   -7.6897 N   0  0  0  0  0  0  0  0  0  0  0  0
  -25.3328  -43.9470   -7.4905 C   0  0  2  0  0  0  0  0  0  0  0  0
  -25.7045  -44.6700   -8.7685 C   0  0  0  0  0  0  0  0  0  0  0  0
  -26.4852  -43.1459   -7.0712 C   0  0  0  0  0  0  0  0  0  0  0  0
  -27.7672  -43.6451   -7.0847 C   0  0  0  0  0  0  0  0  0  0  0  0
  -28.8519  -42.8572   -6.6768 C   0  0  0  0  0  0  0  0  0  0  0  0
  -28.6792  -41.5786   -6.2551 C   0  0  0  0  0  0  0  0  0  0  0  0
  -27.3894  -41.0651   -6.2377 C   0  0  0  0  0  0  0  0  0  0  0  0
  -26.3163  -41.8495   -6.6431 C   0  0  0  0  0  0  0  0  0  0  0  0
  -23.2617  -42.7042   -6.6616 C   0  0  0  0  0  0  0  0  0  0  0  0
  -24.0001  -42.2930   -5.6386 O   0  0  0  0  0  0  0  0  0  0  0  0
  -21.7969  -42.6594   -6.5427 C   0  0  0  0  0  0  0  0  0  0  0  0
  -20.8058  -42.5112   -7.4889 C   0  0  0  0  0  0  0  0  0  0  0  0
  -19.4837  -42.5077   -7.0861 C   0  0  0  0  0  0  0  0  0  0  0  0
  -19.1784  -42.6560   -5.7036 C   0  0  0  0  0  0  0  0  0  0  0  0
  -20.1266  -42.8041   -4.7353 C   0  0  0  0  0  0  0  0  0  0  0  0
  -21.4197  -42.8032   -5.1770 C   0  0  0  0  0  0  0  0  0  0  0  0
  -19.7873  -42.9395   -3.3251 C   0  0  0  0  0  0  0  0  0  0  0  0
  -20.6509  -43.3530   -2.3881 N   0  0  0  0  0  0  0  0  0  0  0  0
  -20.0227  -43.3702   -1.1810 C   0  0  0  0  0  0  0  0  0  0  0  0
  -18.7318  -42.9427   -1.4502 C   0  0  0  0  0  0  0  0  0  0  0  0
  -18.6617  -42.7078   -2.7226 O   0  0  0  0  0  0  0  0  0  0  0  0
  -18.2334  -42.4021   -7.8383 C   0  0  0  0  0  0  0  0  0  0  0  0
  -17.2101  -43.1807   -7.4736 O   0  0  0  0  0  0  0  0  0  0  0  0
  -17.8359  -41.5987   -8.9456 N   0  0  0  0  0  0  0  0  0  0  0  0
  -12.3051  -37.0829   -8.6952 C   0  0  0  0  0  0  0  0  0  0  0  0
  -11.5491  -37.1881   -9.8439 C   0  0  0  0  0  0  0  0  0  0  0  0
  -11.7580  -38.1979  -10.7600 C   0  0  0  0  0  0  0  0  0  0  0  0
  1  2  1  0
  2  3  1  0
  2  4  1  0
  4  5  2  0
  5  6  1  0
  6  7  1  0
  7  8  1  0
  8  9  1  0
  9 10  1  0
 10 11  1  6
 10 12  1  0
 12 13  1  1
 13 14  1  0
 14 15  1  6
 14 16  1  0
 16 17  1  0
 17 18  1  0
 18 19  1  0
 19 20  1  0
 20 21  1  0
 21 22  1  0
 22 23  1  6
 22 24  1  0
 24 25  2  0
 25 26  1  0
 26 27  2  0
 27 28  1  0
 28 29  2  0
 21 30  1  0
 30 31  2  0
 30 32  1  0
 32 33  1  0
 33 34  2  0
 34 35  1  0
 35 36  2  0
 36 37  1  0
 36 38  1  0
 38 39  2  0
 39 40  1  0
 40 41  2  0
 41 42  1  0
 34 43  1  0
 43 44  2  0
 43 45  1  0
  6 46  2  0
 46 47  1  0
 47 48  2  0
 29 24  1  0
 37 32  2  0
 42 38  1  0
 45 12  1  0
 48  4  1  0
M  END
$$$$
