
     RDKit          3D

 48 52  0  0  0  0  0  0  0  0999 V2000
  -11.9666  -35.8018  -11.4113 C   0  0  0  0  0  0  0  0  0  0  0  0
  -13.1412  -36.3538  -12.2080 C   0  0  0  0  0  0  0  0  0  0  0  0
  -14.4571  -35.8566  -11.7195 C   0  0  0  0  0  0  0  0  0  0  0  0
  -13.1026  -37.8371  -12.1770 C   0  0  0  0  0  0  0  0  0  0  0  0
  -13.0014  -38.5684  -11.0303 C   0  0  0  0  0  0  0  0  0  0  0  0
  -12.9525  -39.9425  -11.0066 C   0  0  0  0  0  0  0  0  0  0  0  0
  -12.8523  -40.6870   -9.7156 C   0  0  0  0  0  0  0  0  0  0  0  0
  -14.1315  -40.8198   -9.1353 N   0  0  0  0  0  0  0  0  0  0  0  0
  -14.5634  -39.8732   -8.1839 C   0  0  0  0  0  0  0  0  0  0  0  0
  -15.7410  -40.3162   -7.3159 C   0  0  1  0  0  0  0  0  0  0  0  0
  -15.5772  -39.7776   -6.0573 O   0  0  0  0  0  0  0  0  0  0  0  0
  -17.0339  -39.8034   -7.9369 C   0  0  2  0  0  0  0  0  0  0  0  0
  -18.0602  -39.5932   -6.8843 C   0  0  0  0  0  0  0  0  0  0  0  0
  -19.1774  -38.7279   -7.4103 C   0  0  2  0  0  0  0  0  0  0  0  0
  -18.5281  -37.5478   -8.1264 C   0  0  0  0  0  0  0  0  0  0  0  0
  -19.9411  -38.1560   -6.2521 C   0  0  0  0  0  0  0  0  0  0  0  0
  -20.6721  -39.2612   -5.5424 C   0  0  0  0  0  0  0  0  0  0  0  0
  -21.9027  -39.6170   -6.3808 C   0  0  0  0  0  0  0  0  0  0  0  0
  -22.4583  -40.8917   -5.7982 C   0  0  0  0  0  0  0  0  0  0  0  0
  -23.0936  -41.7214   -6.8788 C   0  0  0  0  0  0  0  0  0  0  0  0
  -22.9792  -43.1663   -6.5915 N   0  0  0  0  0  0  0  0  0  0  0  0
  -24.2603  -43.8776   -6.5611 C   0  0  2  0  0  0  0  0  0  0  0  0
  -25.1483  -43.4357   -7.7058 C   0  0  0  0  0  0  0  0  0  0  0  0
  -24.9815  -43.6373   -5.3090 C   0  0  0  0  0  0  0  0  0  0  0  0
  -25.3675  -44.6639   -4.4784 C   0  0  0  0  0  0  0  0  0  0  0  0
  -26.0553  -44.4058   -3.2851 C   0  0  0  0  0  0  0  0  0  0  0  0
  -26.3648  -43.1397   -2.9059 C   0  0  0  0  0  0  0  0  0  0  0  0
  -25.9797  -42.0964   -3.7371 C   0  0  0  0  0  0  0  0  0  0  0  0
  -25.2979  -42.3563   -4.9198 C   0  0  0  0  0  0  0  0  0  0  0  0
  -21.7163  -43.7644   -6.3712 C   0  0  0  0  0  0  0  0  0  0  0  0
  -21.8262  -44.5644   -5.3182 O   0  0  0  0  0  0  0  0  0  0  0  0
  -20.4169  -43.6617   -7.0516 C   0  0  0  0  0  0  0  0  0  0  0  0
  -19.8380  -42.6374   -7.7694 C   0  0  0  0  0  0  0  0  0  0  0  0
  -18.5800  -42.8210   -8.3119 C   0  0  0  0  0  0  0  0  0  0  0  0
  -17.9130  -44.0630   -8.1146 C   0  0  0  0  0  0  0  0  0  0  0  0
  -18.4481  -45.1011   -7.4113 C   0  0  0  0  0  0  0  0  0  0  0  0
  -19.6928  -44.8778   -6.8936 C   0  0  0  0  0  0  0  0  0  0  0  0
  -17.7375  -46.3570   -7.2120 C   0  0  0  0  0  0  0  0  0  0  0  0
  -16.4248  -46.4370   -6.9562 N   0  0  0  0  0  0  0  0  0  0  0  0
  -16.0769  -47.7459   -6.8223 C   0  0  0  0  0  0  0  0  0  0  0  0
  -17.2586  -48.4452   -7.0129 C   0  0  0  0  0  0  0  0  0  0  0  0
  -18.1902  -47.5728   -7.2362 O   0  0  0  0  0  0  0  0  0  0  0  0
  -17.7331  -41.9536   -9.1308 C   0  0  0  0  0  0  0  0  0  0  0  0
  -17.0613  -42.5045  -10.1463 O   0  0  0  0  0  0  0  0  0  0  0  0
  -17.4434  -40.5596   -9.0823 N   0  0  0  0  0  0  0  0  0  0  0  0
  -13.0100  -40.6097  -12.2272 C   0  0  0  0  0  0  0  0  0  0  0  0
  -13.1125  -39.8833  -13.3952 C   0  0  0  0  0  0  0  0  0  0  0  0
  -13.1602  -38.5049  -13.3904 C   0  0  0  0  0  0  0  0  0  0  0  0
  1  2  1  0
  2  3  1  0
  2  4  1  0
  4  5  2  0
  5  6  1  0
  6  7  1  0
  7  8  1  0
  8  9  1  0
  9 10  1  0
 10 11  1  1
 10 12  1  0
 12 13  1  1
 13 14  1  0
 14 15  1  1
 14 16  1  0
 16 17  1  0
 17 18  1  0
 18 19  1  0
 19 20  1  0
 20 21  1  0
 21 22  1  0
 22 23  1  6
 22 24  1  0
 24 25  2  0
 25 26  1  0
 26 27  2  0
 27 28  1  0
 28 29  2  0
 21 30  1  0
 30 31  2  0
 30 32  1  0
 32 33  1  0
 33 34  2  0
 34 35  1  0
 35 36  2  0
 36 37  1  0
 36 38  1  0
 38 39  2  0
 39 40  1  0
 40 41  2  0
 41 42  1  0
 34 43  1  0
 43 44  2  0
 43 45  1  0
  6 46  2  0
 46 47  1  0
 47 48  2  0
 29 24  1  0
 37 32  2  0
 42 38  1  0
 45 12  1  0
 48  4  1  0
M  END
$$$$
