
     RDKit          3D

 48 52  0  0  0  0  0  0  0  0999 V2000
  -10.2775  -38.8127  -12.9158 C   0  0  0  0  0  0  0  0  0  0  0  0
  -11.2751  -38.1565  -11.9707 C   0  0  0  0  0  0  0  0  0  0  0  0
  -10.7951  -38.1121  -10.5616 C   0  0  0  0  0  0  0  0  0  0  0  0
  -12.5740  -38.8696  -12.0544 C   0  0  0  0  0  0  0  0  0  0  0  0
  -13.7471  -38.3657  -11.5748 C   0  0  0  0  0  0  0  0  0  0  0  0
  -14.9463  -39.0353  -11.6423 C   0  0  0  0  0  0  0  0  0  0  0  0
  -16.2001  -38.4245  -11.1079 C   0  0  0  0  0  0  0  0  0  0  0  0
  -15.9782  -37.9303   -9.8050 N   0  0  0  0  0  0  0  0  0  0  0  0
  -15.3888  -38.7681   -8.8362 C   0  0  0  0  0  0  0  0  0  0  0  0
  -16.3065  -39.8514   -8.2701 C   0  0  1  0  0  0  0  0  0  0  0  0
  -16.0362  -39.9876   -6.9250 O   0  0  0  0  0  0  0  0  0  0  0  0
  -17.7555  -39.4258   -8.4689 C   0  0  2  0  0  0  0  0  0  0  0  0
  -18.4392  -39.3049   -7.1561 C   0  0  0  0  0  0  0  0  0  0  0  0
  -19.7159  -38.5164   -7.3034 C   0  0  2  0  0  0  0  0  0  0  0  0
  -19.3844  -37.2827   -8.1372 C   0  0  0  0  0  0  0  0  0  0  0  0
  -20.1419  -38.0170   -5.9540 C   0  0  0  0  0  0  0  0  0  0  0  0
  -20.5582  -39.1819   -5.1000 C   0  0  0  0  0  0  0  0  0  0  0  0
  -21.9544  -39.6151   -5.5543 C   0  0  0  0  0  0  0  0  0  0  0  0
  -22.2296  -40.9345   -4.8787 C   0  0  0  0  0  0  0  0  0  0  0  0
  -23.0981  -41.7939   -5.7545 C   0  0  0  0  0  0  0  0  0  0  0  0
  -22.8097  -43.2302   -5.5624 N   0  0  0  0  0  0  0  0  0  0  0  0
  -23.9759  -44.0333   -5.1838 C   0  0  2  0  0  0  0  0  0  0  0  0
  -25.2609  -43.3330   -5.5738 C   0  0  0  0  0  0  0  0  0  0  0  0
  -24.0147  -44.2814   -3.7407 C   0  0  0  0  0  0  0  0  0  0  0  0
  -24.1500  -45.5474   -3.2193 C   0  0  0  0  0  0  0  0  0  0  0  0
  -24.1828  -45.7568   -1.8341 C   0  0  0  0  0  0  0  0  0  0  0  0
  -24.0827  -44.7237   -0.9594 C   0  0  0  0  0  0  0  0  0  0  0  0
  -23.9458  -43.4420   -1.4752 C   0  0  0  0  0  0  0  0  0  0  0  0
  -23.9138  -43.2383   -2.8495 C   0  0  0  0  0  0  0  0  0  0  0  0
  -21.5013  -43.7377   -5.7408 C   0  0  0  0  0  0  0  0  0  0  0  0
  -21.2445  -44.5575   -4.7294 O   0  0  0  0  0  0  0  0  0  0  0  0
  -20.4685  -43.5316   -6.7669 C   0  0  0  0  0  0  0  0  0  0  0  0
  -20.1944  -42.4585   -7.5871 C   0  0  0  0  0  0  0  0  0  0  0  0
  -19.1418  -42.5427   -8.4790 C   0  0  0  0  0  0  0  0  0  0  0  0
  -18.3662  -43.7354   -8.5273 C   0  0  0  0  0  0  0  0  0  0  0  0
  -18.6018  -44.8190   -7.7342 C   0  0  0  0  0  0  0  0  0  0  0  0
  -19.6517  -44.6938   -6.8686 C   0  0  0  0  0  0  0  0  0  0  0  0
  -17.7831  -46.0224   -7.7939 C   0  0  0  0  0  0  0  0  0  0  0  0
  -17.4434  -46.7456   -6.7185 N   0  0  0  0  0  0  0  0  0  0  0  0
  -16.6805  -47.8004   -7.1149 C   0  0  0  0  0  0  0  0  0  0  0  0
  -16.5832  -47.6665   -8.4913 C   0  0  0  0  0  0  0  0  0  0  0  0
  -17.2506  -46.6065   -8.8228 O   0  0  0  0  0  0  0  0  0  0  0  0
  -18.6315  -41.6051   -9.4793 C   0  0  0  0  0  0  0  0  0  0  0  0
  -18.2526  -42.0921  -10.6649 O   0  0  0  0  0  0  0  0  0  0  0  0
  -18.4326  -40.1945   -9.4700 N   0  0  0  0  0  0  0  0  0  0  0  0
  -14.9475  -40.2952  -12.2350 C   0  0  0  0  0  0  0  0  0  0  0  0
  -13.7687  -40.8175  -12.7247 C   0  0  0  0  0  0  0  0  0  0  0  0
  -12.5792  -40.1240  -12.6444 C   0  0  0  0  0  0  0  0  0  0  0  0
  1  2  1  0
  2  3  1  0
  2  4  1  0
  4  5  2  0
  5  6  1  0
  6  7  1  0
  7  8  1  0
  8  9  1  0
  9 10  1  0
 10 11  1  1
 10 12  1  0
 12 13  1  1
 13 14  1  0
 14 15  1  6
 14 16  1  0
 16 17  1  0
 17 18  1  0
 18 19  1  0
 19 20  1  0
 20 21  1  0
 21 22  1  0
 22 23  1  1
 22 24  1  0
 24 25  2  0
 25 26  1  0
 26 27  2  0
 27 28  1  0
 28 29  2  0
 21 30  1  0
 30 31  2  0
 30 32  1  0
 32 33  1  0
 33 34  2  0
 34 35  1  0
 35 36  2  0
 36 37  1  0
 36 38  1  0
 38 39  2  0
 39 40  1  0
 40 41  2  0
 41 42  1  0
 34 43  1  0
 43 44  2  0
 43 45  1  0
  6 46  2  0
 46 47  1  0
 47 48  2  0
 29 24  1  0
 37 32  2  0
 42 38  1  0
 45 12  1  0
 48  4  1  0
M  END
$$$$
