
     RDKit          3D

 48 52  0  0  0  0  0  0  0  0999 V2000
  -10.8637  -38.1372  -14.4058 C   0  0  0  0  0  0  0  0  0  0  0  0
  -11.3162  -36.8889  -13.6602 C   0  0  0  0  0  0  0  0  0  0  0  0
  -10.1789  -36.0458  -13.1982 C   0  0  0  0  0  0  0  0  0  0  0  0
  -12.1693  -37.2843  -12.5119 C   0  0  0  0  0  0  0  0  0  0  0  0
  -12.1987  -38.5432  -11.9882 C   0  0  0  0  0  0  0  0  0  0  0  0
  -13.0005  -38.9090  -10.9326 C   0  0  0  0  0  0  0  0  0  0  0  0
  -12.9793  -40.3032  -10.3969 C   0  0  0  0  0  0  0  0  0  0  0  0
  -13.6217  -40.3469   -9.1414 N   0  0  0  0  0  0  0  0  0  0  0  0
  -14.5641  -39.3523   -8.8091 C   0  0  0  0  0  0  0  0  0  0  0  0
  -15.6991  -39.8131   -7.8951 C   0  0  1  0  0  0  0  0  0  0  0  0
  -15.5074  -39.2513   -6.6506 O   0  0  0  0  0  0  0  0  0  0  0  0
  -17.0257  -39.3441   -8.4785 C   0  0  2  0  0  0  0  0  0  0  0  0
  -18.0324  -39.1825   -7.3987 C   0  0  0  0  0  0  0  0  0  0  0  0
  -19.1943  -38.3555   -7.8881 C   0  0  2  0  0  0  0  0  0  0  0  0
  -18.6082  -37.1452   -8.6085 C   0  0  0  0  0  0  0  0  0  0  0  0
  -19.9495  -37.8234   -6.7057 C   0  0  0  0  0  0  0  0  0  0  0  0
  -20.6202  -38.9618   -5.9890 C   0  0  0  0  0  0  0  0  0  0  0  0
  -21.8573  -39.3565   -6.8000 C   0  0  0  0  0  0  0  0  0  0  0  0
  -22.3495  -40.6565   -6.2164 C   0  0  0  0  0  0  0  0  0  0  0  0
  -22.9802  -41.5000   -7.2890 C   0  0  0  0  0  0  0  0  0  0  0  0
  -22.8042  -42.9420   -7.0190 N   0  0  0  0  0  0  0  0  0  0  0  0
  -24.0564  -43.7016   -6.9638 C   0  0  2  0  0  0  0  0  0  0  0  0
  -25.1613  -42.9718   -7.6990 C   0  0  0  0  0  0  0  0  0  0  0  0
  -24.4961  -43.9177   -5.5834 C   0  0  0  0  0  0  0  0  0  0  0  0
  -25.0068  -45.1224   -5.1582 C   0  0  0  0  0  0  0  0  0  0  0  0
  -25.4189  -45.3026   -3.8310 C   0  0  0  0  0  0  0  0  0  0  0  0
  -25.3300  -44.3004   -2.9199 C   0  0  0  0  0  0  0  0  0  0  0  0
  -24.8160  -43.0805   -3.3387 C   0  0  0  0  0  0  0  0  0  0  0  0
  -24.4086  -42.9056   -4.6557 C   0  0  0  0  0  0  0  0  0  0  0  0
  -21.5145  -43.4938   -6.8361 C   0  0  0  0  0  0  0  0  0  0  0  0
  -21.5676  -44.3067   -5.7886 O   0  0  0  0  0  0  0  0  0  0  0  0
  -20.2375  -43.3357   -7.5476 C   0  0  0  0  0  0  0  0  0  0  0  0
  -19.7159  -42.2839   -8.2694 C   0  0  0  0  0  0  0  0  0  0  0  0
  -18.4660  -42.4147   -8.8448 C   0  0  0  0  0  0  0  0  0  0  0  0
  -17.7478  -43.6323   -8.6765 C   0  0  0  0  0  0  0  0  0  0  0  0
  -18.2255  -44.6962   -7.9704 C   0  0  0  0  0  0  0  0  0  0  0  0
  -19.4643  -44.5249   -7.4197 C   0  0  0  0  0  0  0  0  0  0  0  0
  -17.4633  -45.9260   -7.8013 C   0  0  0  0  0  0  0  0  0  0  0  0
  -17.2653  -46.5222   -6.6180 N   0  0  0  0  0  0  0  0  0  0  0  0
  -16.5185  -47.6444   -6.8050 C   0  0  0  0  0  0  0  0  0  0  0  0
  -16.2807  -47.6852   -8.1701 C   0  0  0  0  0  0  0  0  0  0  0  0
  -16.8611  -46.6514   -8.6928 O   0  0  0  0  0  0  0  0  0  0  0  0
  -17.6733  -41.5085   -9.6759 C   0  0  0  0  0  0  0  0  0  0  0  0
  -17.0070  -42.0244  -10.7133 O   0  0  0  0  0  0  0  0  0  0  0  0
  -17.4353  -40.1050   -9.6208 N   0  0  0  0  0  0  0  0  0  0  0  0
  -13.8216  -37.9306  -10.3788 C   0  0  0  0  0  0  0  0  0  0  0  0
  -13.8024  -36.6530  -10.8978 C   0  0  0  0  0  0  0  0  0  0  0  0
  -12.9878  -36.3126  -11.9575 C   0  0  0  0  0  0  0  0  0  0  0  0
  1  2  1  0
  2  3  1  0
  2  4  1  0
  4  5  2  0
  5  6  1  0
  6  7  1  0
  7  8  1  0
  8  9  1  0
  9 10  1  0
 10 11  1  1
 10 12  1  0
 12 13  1  1
 13 14  1  0
 14 15  1  1
 14 16  1  0
 16 17  1  0
 17 18  1  0
 18 19  1  0
 19 20  1  0
 20 21  1  0
 21 22  1  0
 22 23  1  6
 22 24  1  0
 24 25  2  0
 25 26  1  0
 26 27  2  0
 27 28  1  0
 28 29  2  0
 21 30  1  0
 30 31  2  0
 30 32  1  0
 32 33  1  0
 33 34  2  0
 34 35  1  0
 35 36  2  0
 36 37  1  0
 36 38  1  0
 38 39  2  0
 39 40  1  0
 40 41  2  0
 41 42  1  0
 34 43  1  0
 43 44  2  0
 43 45  1  0
  6 46  2  0
 46 47  1  0
 47 48  2  0
 29 24  1  0
 37 32  2  0
 42 38  1  0
 45 12  1  0
 48  4  1  0
M  END
$$$$
