
     RDKit          3D

 48 52  0  0  0  0  0  0  0  0999 V2000
  -23.0134  -42.5797   -4.1778 C   0  0  0  0  0  0  0  0  0  0  0  0
  -21.7377  -41.8017   -3.8838 C   0  0  0  0  0  0  0  0  0  0  0  0
  -21.5023  -41.6045   -2.4266 C   0  0  0  0  0  0  0  0  0  0  0  0
  -21.7872  -40.4937   -4.5833 C   0  0  0  0  0  0  0  0  0  0  0  0
  -21.1615  -40.2447   -5.7693 C   0  0  0  0  0  0  0  0  0  0  0  0
  -21.1987  -39.0274   -6.4077 C   0  0  0  0  0  0  0  0  0  0  0  0
  -20.5006  -38.8205   -7.7120 C   0  0  0  0  0  0  0  0  0  0  0  0
  -19.2049  -39.3765   -7.6586 N   0  0  0  0  0  0  0  0  0  0  0  0
  -18.1345  -38.5964   -7.1755 C   0  0  0  0  0  0  0  0  0  0  0  0
  -17.0186  -38.3292   -8.1853 C   0  0  1  0  0  0  0  0  0  0  0  0
  -16.6175  -37.0171   -8.0492 O   0  0  0  0  0  0  0  0  0  0  0  0
  -15.8515  -39.2629   -7.8917 C   0  0  2  0  0  0  0  0  0  0  0  0
  -15.0010  -39.4161   -9.0994 C   0  0  0  0  0  0  0  0  0  0  0  0
  -13.6599  -39.9935   -8.7232 C   0  0  2  0  0  0  0  0  0  0  0  0
  -13.1675  -39.2201   -7.5040 C   0  0  0  0  0  0  0  0  0  0  0  0
  -12.6809  -39.7182   -9.8266 C   0  0  0  0  0  0  0  0  0  0  0  0
  -13.0644  -40.5133  -11.0433 C   0  0  0  0  0  0  0  0  0  0  0  0
  -12.6302  -41.9622  -10.8068 C   0  0  0  0  0  0  0  0  0  0  0  0
  -13.2614  -42.7786  -11.9059 C   0  0  0  0  0  0  0  0  0  0  0  0
  -13.5786  -44.1609  -11.4077 C   0  0  0  0  0  0  0  0  0  0  0  0
  -14.7710  -44.7191  -12.0784 N   0  0  0  0  0  0  0  0  0  0  0  0
  -14.5409  -46.0041  -12.7447 C   0  0  2  0  0  0  0  0  0  0  0  0
  -13.6193  -46.8797  -11.9214 C   0  0  0  0  0  0  0  0  0  0  0  0
  -13.9356  -45.8258  -14.0666 C   0  0  0  0  0  0  0  0  0  0  0  0
  -13.3477  -46.8660  -14.7485 C   0  0  0  0  0  0  0  0  0  0  0  0
  -12.7770  -46.6680  -16.0130 C   0  0  0  0  0  0  0  0  0  0  0  0
  -12.7832  -45.4487  -16.6094 C   0  0  0  0  0  0  0  0  0  0  0  0
  -13.3741  -44.3920  -15.9296 C   0  0  0  0  0  0  0  0  0  0  0  0
  -13.9388  -44.5923  -14.6758 C   0  0  0  0  0  0  0  0  0  0  0  0
  -16.0072  -44.0319  -12.0508 C   0  0  0  0  0  0  0  0  0  0  0  0
  -16.5151  -44.0647  -13.2763 O   0  0  0  0  0  0  0  0  0  0  0  0
  -16.7605  -43.3493  -10.9886 C   0  0  0  0  0  0  0  0  0  0  0  0
  -16.3476  -42.7101   -9.8395 C   0  0  0  0  0  0  0  0  0  0  0  0
  -17.2936  -42.1477   -9.0033 C   0  0  0  0  0  0  0  0  0  0  0  0
  -18.6710  -42.2415   -9.3504 C   0  0  0  0  0  0  0  0  0  0  0  0
  -19.1226  -42.8630  -10.4767 C   0  0  0  0  0  0  0  0  0  0  0  0
  -18.1546  -43.4059  -11.2740 C   0  0  0  0  0  0  0  0  0  0  0  0
  -20.5376  -42.9320  -10.8157 C   0  0  0  0  0  0  0  0  0  0  0  0
  -21.0802  -43.9131  -11.5491 N   0  0  0  0  0  0  0  0  0  0  0  0
  -22.4151  -43.6835  -11.6808 C   0  0  0  0  0  0  0  0  0  0  0  0
  -22.6402  -42.5070  -10.9829 C   0  0  0  0  0  0  0  0  0  0  0  0
  -21.5006  -42.1210  -10.5020 O   0  0  0  0  0  0  0  0  0  0  0  0
  -17.1741  -41.4449   -7.7258 C   0  0  0  0  0  0  0  0  0  0  0  0
  -18.0727  -41.7111   -6.7730 O   0  0  0  0  0  0  0  0  0  0  0  0
  -16.2531  -40.4731   -7.2392 N   0  0  0  0  0  0  0  0  0  0  0  0
  -21.9177  -38.0027   -5.7983 C   0  0  0  0  0  0  0  0  0  0  0  0
  -22.5559  -38.2398   -4.5989 C   0  0  0  0  0  0  0  0  0  0  0  0
  -22.5027  -39.4713   -3.9799 C   0  0  0  0  0  0  0  0  0  0  0  0
  1  2  1  0
  2  3  1  0
  2  4  1  0
  4  5  2  0
  5  6  1  0
  6  7  1  0
  7  8  1  0
  8  9  1  0
  9 10  1  0
 10 11  1  1
 10 12  1  0
 12 13  1  6
 13 14  1  0
 14 15  1  1
 14 16  1  0
 16 17  1  0
 17 18  1  0
 18 19  1  0
 19 20  1  0
 20 21  1  0
 21 22  1  0
 22 23  1  1
 22 24  1  0
 24 25  2  0
 25 26  1  0
 26 27  2  0
 27 28  1  0
 28 29  2  0
 21 30  1  0
 30 31  2  0
 30 32  1  0
 32 33  1  0
 33 34  2  0
 34 35  1  0
 35 36  2  0
 36 37  1  0
 36 38  1  0
 38 39  2  0
 39 40  1  0
 40 41  2  0
 41 42  1  0
 34 43  1  0
 43 44  2  0
 43 45  1  0
  6 46  2  0
 46 47  1  0
 47 48  2  0
 29 24  1  0
 37 32  2  0
 42 38  1  0
 45 12  1  0
 48  4  1  0
M  END
$$$$
