
     RDKit          3D

 48 52  0  0  0  0  0  0  0  0999 V2000
  -13.9322  -35.0116  -13.7117 C   0  0  0  0  0  0  0  0  0  0  0  0
  -13.0257  -35.6673  -12.6786 C   0  0  0  0  0  0  0  0  0  0  0  0
  -11.5798  -35.4245  -12.9394 C   0  0  0  0  0  0  0  0  0  0  0  0
  -13.3072  -37.1237  -12.6312 C   0  0  0  0  0  0  0  0  0  0  0  0
  -13.3420  -37.8514  -11.4782 C   0  0  0  0  0  0  0  0  0  0  0  0
  -13.5901  -39.2034  -11.4397 C   0  0  0  0  0  0  0  0  0  0  0  0
  -13.6255  -39.9428  -10.1423 C   0  0  0  0  0  0  0  0  0  0  0  0
  -14.8237  -39.6539   -9.4556 N   0  0  0  0  0  0  0  0  0  0  0  0
  -15.3628  -40.6085   -8.5690 C   0  0  0  0  0  0  0  0  0  0  0  0
  -16.2161  -40.0349   -7.4380 C   0  0  1  0  0  0  0  0  0  0  0  0
  -15.5621  -38.9390   -6.9161 O   0  0  0  0  0  0  0  0  0  0  0  0
  -17.5671  -39.6143   -8.0020 C   0  0  2  0  0  0  0  0  0  0  0  0
  -18.5599  -39.4767   -6.9061 C   0  0  0  0  0  0  0  0  0  0  0  0
  -19.7565  -38.6922   -7.3817 C   0  0  2  0  0  0  0  0  0  0  0  0
  -19.2229  -37.4695   -8.1215 C   0  0  0  0  0  0  0  0  0  0  0  0
  -20.5085  -38.1752   -6.1905 C   0  0  0  0  0  0  0  0  0  0  0  0
  -21.1291  -39.3290   -5.4535 C   0  0  0  0  0  0  0  0  0  0  0  0
  -22.3662  -39.7706   -6.2397 C   0  0  0  0  0  0  0  0  0  0  0  0
  -22.8055  -41.0811   -5.6376 C   0  0  0  0  0  0  0  0  0  0  0  0
  -23.4264  -41.9537   -6.6925 C   0  0  0  0  0  0  0  0  0  0  0  0
  -23.1985  -43.3868   -6.4144 N   0  0  0  0  0  0  0  0  0  0  0  0
  -24.4241  -44.1865   -6.3316 C   0  0  2  0  0  0  0  0  0  0  0  0
  -25.5434  -43.5389   -7.1200 C   0  0  0  0  0  0  0  0  0  0  0  0
  -24.8753  -44.3407   -4.9466 C   0  0  0  0  0  0  0  0  0  0  0  0
  -24.1759  -43.8125   -3.8861 C   0  0  0  0  0  0  0  0  0  0  0  0
  -24.6309  -43.9736   -2.5705 C   0  0  0  0  0  0  0  0  0  0  0  0
  -25.7731  -44.6533   -2.2947 C   0  0  0  0  0  0  0  0  0  0  0  0
  -26.4865  -45.1904   -3.3579 C   0  0  0  0  0  0  0  0  0  0  0  0
  -26.0319  -45.0286   -4.6611 C   0  0  0  0  0  0  0  0  0  0  0  0
  -21.8885  -43.8946   -6.2497 C   0  0  0  0  0  0  0  0  0  0  0  0
  -21.8970  -44.7001   -5.1952 O   0  0  0  0  0  0  0  0  0  0  0  0
  -20.6297  -43.7009   -6.9845 C   0  0  0  0  0  0  0  0  0  0  0  0
  -20.1554  -42.6386   -7.7233 C   0  0  0  0  0  0  0  0  0  0  0  0
  -18.9119  -42.7333   -8.3194 C   0  0  0  0  0  0  0  0  0  0  0  0
  -18.1514  -43.9253   -8.1541 C   0  0  0  0  0  0  0  0  0  0  0  0
  -18.5817  -44.9983   -7.4316 C   0  0  0  0  0  0  0  0  0  0  0  0
  -19.8159  -44.8630   -6.8608 C   0  0  0  0  0  0  0  0  0  0  0  0
  -17.7768  -46.2011   -7.2662 C   0  0  0  0  0  0  0  0  0  0  0  0
  -17.6879  -46.8852   -6.1177 N   0  0  0  0  0  0  0  0  0  0  0  0
  -16.8618  -47.9515   -6.2981 C   0  0  0  0  0  0  0  0  0  0  0  0
  -16.4611  -47.8659   -7.6225 C   0  0  0  0  0  0  0  0  0  0  0  0
  -17.0326  -46.8199   -8.1305 O   0  0  0  0  0  0  0  0  0  0  0  0
  -18.1637  -41.8086   -9.1711 C   0  0  0  0  0  0  0  0  0  0  0  0
  -17.4987  -42.3111  -10.2158 O   0  0  0  0  0  0  0  0  0  0  0  0
  -17.9709  -40.3977   -9.1310 N   0  0  0  0  0  0  0  0  0  0  0  0
  -13.8158  -39.8512  -12.6512 C   0  0  0  0  0  0  0  0  0  0  0  0
  -13.7839  -39.1282  -13.8252 C   0  0  0  0  0  0  0  0  0  0  0  0
  -13.5331  -37.7720  -13.8355 C   0  0  0  0  0  0  0  0  0  0  0  0
  1  2  1  0
  2  3  1  0
  2  4  1  0
  4  5  2  0
  5  6  1  0
  6  7  1  0
  7  8  1  0
  8  9  1  0
  9 10  1  0
 10 11  1  6
 10 12  1  0
 12 13  1  1
 13 14  1  0
 14 15  1  6
 14 16  1  0
 16 17  1  0
 17 18  1  0
 18 19  1  0
 19 20  1  0
 20 21  1  0
 21 22  1  0
 22 23  1  6
 22 24  1  0
 24 25  2  0
 25 26  1  0
 26 27  2  0
 27 28  1  0
 28 29  2  0
 21 30  1  0
 30 31  2  0
 30 32  1  0
 32 33  1  0
 33 34  2  0
 34 35  1  0
 35 36  2  0
 36 37  1  0
 36 38  1  0
 38 39  2  0
 39 40  1  0
 40 41  2  0
 41 42  1  0
 34 43  1  0
 43 44  2  0
 43 45  1  0
  6 46  2  0
 46 47  1  0
 47 48  2  0
 29 24  1  0
 37 32  2  0
 42 38  1  0
 45 12  1  0
 48  4  1  0
M  END
$$$$
