
     RDKit          3D

 48 52  0  0  0  0  0  0  0  0999 V2000
  -10.3320  -37.1932  -12.1064 C   0  0  0  0  0  0  0  0  0  0  0  0
  -11.5368  -37.0162  -13.0208 C   0  0  0  0  0  0  0  0  0  0  0  0
  -12.4911  -35.9844  -12.5285 C   0  0  0  0  0  0  0  0  0  0  0  0
  -12.2237  -38.3212  -13.1873 C   0  0  0  0  0  0  0  0  0  0  0  0
  -13.0133  -38.8891  -12.2312 C   0  0  0  0  0  0  0  0  0  0  0  0
  -13.6373  -40.1050  -12.3841 C   0  0  0  0  0  0  0  0  0  0  0  0
  -14.4992  -40.6692  -11.3026 C   0  0  0  0  0  0  0  0  0  0  0  0
  -15.0178  -39.6263  -10.5062 N   0  0  0  0  0  0  0  0  0  0  0  0
  -14.6990  -39.5772   -9.1336 C   0  0  0  0  0  0  0  0  0  0  0  0
  -15.7292  -40.2190   -8.2047 C   0  0  1  0  0  0  0  0  0  0  0  0
  -15.3934  -39.9062   -6.9046 O   0  0  0  0  0  0  0  0  0  0  0  0
  -17.1079  -39.6614   -8.5342 C   0  0  2  0  0  0  0  0  0  0  0  0
  -17.9184  -39.5329   -7.2964 C   0  0  0  0  0  0  0  0  0  0  0  0
  -19.1020  -38.6309   -7.5391 C   0  0  2  0  0  0  0  0  0  0  0  0
  -18.5810  -37.3992   -8.2729 C   0  0  0  0  0  0  0  0  0  0  0  0
  -19.6300  -38.1495   -6.2196 C   0  0  0  0  0  0  0  0  0  0  0  0
  -20.2314  -39.3062   -5.4713 C   0  0  0  0  0  0  0  0  0  0  0  0
  -21.6008  -39.5981   -6.0906 C   0  0  0  0  0  0  0  0  0  0  0  0
  -22.0557  -40.9139   -5.5121 C   0  0  0  0  0  0  0  0  0  0  0  0
  -22.8914  -41.6594   -6.5149 C   0  0  0  0  0  0  0  0  0  0  0  0
  -22.7450  -43.1219   -6.3631 N   0  0  0  0  0  0  0  0  0  0  0  0
  -24.0077  -43.8345   -6.1485 C   0  0  2  0  0  0  0  0  0  0  0  0
  -25.0860  -43.3089   -7.0733 C   0  0  0  0  0  0  0  0  0  0  0  0
  -24.4820  -43.6890   -4.7703 C   0  0  0  0  0  0  0  0  0  0  0  0
  -25.8206  -43.6178   -4.4608 C   0  0  0  0  0  0  0  0  0  0  0  0
  -26.2473  -43.4801   -3.1331 C   0  0  0  0  0  0  0  0  0  0  0  0
  -25.3602  -43.4124   -2.1079 C   0  0  0  0  0  0  0  0  0  0  0  0
  -24.0067  -43.4833   -2.4094 C   0  0  0  0  0  0  0  0  0  0  0  0
  -23.5876  -43.6197   -3.7273 C   0  0  0  0  0  0  0  0  0  0  0  0
  -21.4713  -43.7340   -6.4269 C   0  0  0  0  0  0  0  0  0  0  0  0
  -21.3947  -44.6120   -5.4348 O   0  0  0  0  0  0  0  0  0  0  0  0
  -20.3194  -43.5787   -7.3274 C   0  0  0  0  0  0  0  0  0  0  0  0
  -19.8699  -42.5023   -8.0614 C   0  0  0  0  0  0  0  0  0  0  0  0
  -18.7369  -42.6429   -8.8405 C   0  0  0  0  0  0  0  0  0  0  0  0
  -18.0616  -43.8959   -8.8643 C   0  0  0  0  0  0  0  0  0  0  0  0
  -18.4708  -44.9850   -8.1537 C   0  0  0  0  0  0  0  0  0  0  0  0
  -19.5949  -44.8027   -7.3984 C   0  0  0  0  0  0  0  0  0  0  0  0
  -17.7524  -46.2518   -8.1848 C   0  0  0  0  0  0  0  0  0  0  0  0
  -16.5149  -46.3938   -8.6780 N   0  0  0  0  0  0  0  0  0  0  0  0
  -16.1346  -47.6949   -8.5569 C   0  0  0  0  0  0  0  0  0  0  0  0
  -17.2173  -48.3239   -7.9620 C   0  0  0  0  0  0  0  0  0  0  0  0
  -18.1286  -47.4228   -7.7714 O   0  0  0  0  0  0  0  0  0  0  0  0
  -18.0451  -41.7150   -9.7352 C   0  0  0  0  0  0  0  0  0  0  0  0
  -17.5806  -42.1864  -10.8963 O   0  0  0  0  0  0  0  0  0  0  0  0
  -17.7328  -40.3285   -9.6369 N   0  0  0  0  0  0  0  0  0  0  0  0
  -13.4430  -40.7816  -13.5853 C   0  0  0  0  0  0  0  0  0  0  0  0
  -12.6472  -40.2195  -14.5615 C   0  0  0  0  0  0  0  0  0  0  0  0
  -12.0331  -38.9976  -14.3822 C   0  0  0  0  0  0  0  0  0  0  0  0
  1  2  1  0
  2  3  1  0
  2  4  1  0
  4  5  2  0
  5  6  1  0
  6  7  1  0
  7  8  1  0
  8  9  1  0
  9 10  1  0
 10 11  1  1
 10 12  1  0
 12 13  1  1
 13 14  1  0
 14 15  1  6
 14 16  1  0
 16 17  1  0
 17 18  1  0
 18 19  1  0
 19 20  1  0
 20 21  1  0
 21 22  1  0
 22 23  1  6
 22 24  1  0
 24 25  2  0
 25 26  1  0
 26 27  2  0
 27 28  1  0
 28 29  2  0
 21 30  1  0
 30 31  2  0
 30 32  1  0
 32 33  1  0
 33 34  2  0
 34 35  1  0
 35 36  2  0
 36 37  1  0
 36 38  1  0
 38 39  2  0
 39 40  1  0
 40 41  2  0
 41 42  1  0
 34 43  1  0
 43 44  2  0
 43 45  1  0
  6 46  2  0
 46 47  1  0
 47 48  2  0
 29 24  1  0
 37 32  2  0
 42 38  1  0
 45 12  1  0
 48  4  1  0
M  END
$$$$
