
     RDKit          3D

 48 52  0  0  0  0  0  0  0  0999 V2000
  -14.1745  -40.6760  -14.9879 C   0  0  0  0  0  0  0  0  0  0  0  0
  -13.3680  -39.3899  -14.8677 C   0  0  0  0  0  0  0  0  0  0  0  0
  -11.9315  -39.5724  -15.2156 C   0  0  0  0  0  0  0  0  0  0  0  0
  -13.5044  -38.8507  -13.4918 C   0  0  0  0  0  0  0  0  0  0  0  0
  -13.0681  -39.5024  -12.3760 C   0  0  0  0  0  0  0  0  0  0  0  0
  -13.2084  -39.0055  -11.1015 C   0  0  0  0  0  0  0  0  0  0  0  0
  -12.6990  -39.7633   -9.9194 C   0  0  0  0  0  0  0  0  0  0  0  0
  -13.5793  -39.6031   -8.8284 N   0  0  0  0  0  0  0  0  0  0  0  0
  -14.6864  -40.4662   -8.6976 C   0  0  0  0  0  0  0  0  0  0  0  0
  -15.6217  -40.1498   -7.5308 C   0  0  1  0  0  0  0  0  0  0  0  0
  -15.0027  -39.2223   -6.7198 O   0  0  0  0  0  0  0  0  0  0  0  0
  -16.9211  -39.5753   -8.0801 C   0  0  2  0  0  0  0  0  0  0  0  0
  -17.8950  -39.3654   -6.9787 C   0  0  0  0  0  0  0  0  0  0  0  0
  -19.0031  -38.4478   -7.4299 C   0  0  2  0  0  0  0  0  0  0  0  0
  -18.3444  -37.2673   -8.1368 C   0  0  0  0  0  0  0  0  0  0  0  0
  -19.6980  -37.8884   -6.2233 C   0  0  0  0  0  0  0  0  0  0  0  0
  -20.4360  -38.9912   -5.5171 C   0  0  0  0  0  0  0  0  0  0  0  0
  -21.7118  -39.2797   -6.3126 C   0  0  0  0  0  0  0  0  0  0  0  0
  -22.2856  -40.5535   -5.7460 C   0  0  0  0  0  0  0  0  0  0  0  0
  -22.9933  -41.3271   -6.8233 C   0  0  0  0  0  0  0  0  0  0  0  0
  -22.9161  -42.7833   -6.5853 N   0  0  0  0  0  0  0  0  0  0  0  0
  -24.2184  -43.4530   -6.5220 C   0  0  2  0  0  0  0  0  0  0  0  0
  -25.3114  -42.5564   -7.0655 C   0  0  0  0  0  0  0  0  0  0  0  0
  -24.5718  -43.8169   -5.1479 C   0  0  0  0  0  0  0  0  0  0  0  0
  -24.4371  -42.9358   -4.0999 C   0  0  0  0  0  0  0  0  0  0  0  0
  -24.7842  -43.3095   -2.7947 C   0  0  0  0  0  0  0  0  0  0  0  0
  -25.2640  -44.5485   -2.5169 C   0  0  0  0  0  0  0  0  0  0  0  0
  -25.4038  -45.4454   -3.5675 C   0  0  0  0  0  0  0  0  0  0  0  0
  -25.0584  -45.0712   -4.8605 C   0  0  0  0  0  0  0  0  0  0  0  0
  -21.6662  -43.4292   -6.4375 C   0  0  0  0  0  0  0  0  0  0  0  0
  -21.7594  -44.2583   -5.4056 O   0  0  0  0  0  0  0  0  0  0  0  0
  -20.3936  -43.3473   -7.1693 C   0  0  0  0  0  0  0  0  0  0  0  0
  -19.8106  -42.3201   -7.8796 C   0  0  0  0  0  0  0  0  0  0  0  0
  -18.5833  -42.5273   -8.4806 C   0  0  0  0  0  0  0  0  0  0  0  0
  -17.9512  -43.7962   -8.3499 C   0  0  0  0  0  0  0  0  0  0  0  0
  -18.4915  -44.8381   -7.6564 C   0  0  0  0  0  0  0  0  0  0  0  0
  -19.7053  -44.5909   -7.0795 C   0  0  0  0  0  0  0  0  0  0  0  0
  -17.8164  -46.1223   -7.5260 C   0  0  0  0  0  0  0  0  0  0  0  0
  -16.5706  -46.2637   -7.0537 N   0  0  0  0  0  0  0  0  0  0  0  0
  -16.2399  -47.5838   -7.0601 C   0  0  0  0  0  0  0  0  0  0  0  0
  -17.3610  -48.2249   -7.5639 C   0  0  0  0  0  0  0  0  0  0  0  0
  -18.2455  -47.3120   -7.8157 O   0  0  0  0  0  0  0  0  0  0  0  0
  -17.7422  -41.6624   -9.3081 C   0  0  0  0  0  0  0  0  0  0  0  0
  -17.1324  -42.2023  -10.3677 O   0  0  0  0  0  0  0  0  0  0  0  0
  -17.4035  -40.2808   -9.2295 N   0  0  0  0  0  0  0  0  0  0  0  0
  -13.8320  -37.7691  -10.9578 C   0  0  0  0  0  0  0  0  0  0  0  0
  -14.2784  -37.0983  -12.0771 C   0  0  0  0  0  0  0  0  0  0  0  0
  -14.1244  -37.6196  -13.3448 C   0  0  0  0  0  0  0  0  0  0  0  0
  1  2  1  0
  2  3  1  0
  2  4  1  0
  4  5  2  0
  5  6  1  0
  6  7  1  0
  7  8  1  0
  8  9  1  0
  9 10  1  0
 10 11  1  1
 10 12  1  0
 12 13  1  1
 13 14  1  0
 14 15  1  1
 14 16  1  0
 16 17  1  0
 17 18  1  0
 18 19  1  0
 19 20  1  0
 20 21  1  0
 21 22  1  0
 22 23  1  1
 22 24  1  0
 24 25  2  0
 25 26  1  0
 26 27  2  0
 27 28  1  0
 28 29  2  0
 21 30  1  0
 30 31  2  0
 30 32  1  0
 32 33  1  0
 33 34  2  0
 34 35  1  0
 35 36  2  0
 36 37  1  0
 36 38  1  0
 38 39  2  0
 39 40  1  0
 40 41  2  0
 41 42  1  0
 34 43  1  0
 43 44  2  0
 43 45  1  0
  6 46  2  0
 46 47  1  0
 47 48  2  0
 29 24  1  0
 37 32  2  0
 42 38  1  0
 45 12  1  0
 48  4  1  0
M  END
$$$$
