
     RDKit          3D

 48 52  0  0  0  0  0  0  0  0999 V2000
  -11.9940  -37.7399  -13.1163 C   0  0  0  0  0  0  0  0  0  0  0  0
  -13.4950  -37.9761  -13.0154 C   0  0  0  0  0  0  0  0  0  0  0  0
  -14.1794  -36.9868  -12.1376 C   0  0  0  0  0  0  0  0  0  0  0  0
  -13.7441  -39.3575  -12.5334 C   0  0  0  0  0  0  0  0  0  0  0  0
  -13.3735  -39.8080  -11.3006 C   0  0  0  0  0  0  0  0  0  0  0  0
  -13.5941  -41.0927  -10.8626 C   0  0  0  0  0  0  0  0  0  0  0  0
  -13.1736  -41.5227   -9.4954 C   0  0  0  0  0  0  0  0  0  0  0  0
  -14.3044  -41.8954   -8.7382 N   0  0  0  0  0  0  0  0  0  0  0  0
  -15.5447  -41.2749   -8.9921 C   0  0  0  0  0  0  0  0  0  0  0  0
  -16.0077  -40.2877   -7.9210 C   0  0  1  0  0  0  0  0  0  0  0  0
  -15.0353  -39.3212   -7.7744 O   0  0  0  0  0  0  0  0  0  0  0  0
  -17.3143  -39.6467   -8.3705 C   0  0  2  0  0  0  0  0  0  0  0  0
  -18.2022  -39.4184   -7.2022 C   0  0  0  0  0  0  0  0  0  0  0  0
  -19.2963  -38.4448   -7.5606 C   0  0  2  0  0  0  0  0  0  0  0  0
  -18.6348  -37.2791   -8.2892 C   0  0  0  0  0  0  0  0  0  0  0  0
  -19.8835  -37.8816   -6.2999 C   0  0  0  0  0  0  0  0  0  0  0  0
  -20.6206  -38.9663   -5.5653 C   0  0  0  0  0  0  0  0  0  0  0  0
  -21.9583  -39.1830   -6.2776 C   0  0  0  0  0  0  0  0  0  0  0  0
  -22.5487  -40.4426   -5.6964 C   0  0  0  0  0  0  0  0  0  0  0  0
  -23.3603  -41.1625   -6.7371 C   0  0  0  0  0  0  0  0  0  0  0  0
  -23.3318  -42.6254   -6.5311 N   0  0  0  0  0  0  0  0  0  0  0  0
  -24.6552  -43.2398   -6.3919 C   0  0  2  0  0  0  0  0  0  0  0  0
  -25.5923  -42.7508   -7.4767 C   0  0  0  0  0  0  0  0  0  0  0  0
  -25.2610  -42.9282   -5.0951 C   0  0  0  0  0  0  0  0  0  0  0  0
  -26.4462  -42.2378   -4.9881 C   0  0  0  0  0  0  0  0  0  0  0  0
  -27.0047  -41.9542   -3.7346 C   0  0  0  0  0  0  0  0  0  0  0  0
  -26.4003  -42.3483   -2.5848 C   0  0  0  0  0  0  0  0  0  0  0  0
  -25.2037  -43.0458   -2.6816 C   0  0  0  0  0  0  0  0  0  0  0  0
  -24.6530  -43.3249   -3.9266 C   0  0  0  0  0  0  0  0  0  0  0  0
  -22.1046  -43.3271   -6.4799 C   0  0  0  0  0  0  0  0  0  0  0  0
  -22.1650  -44.1729   -5.4592 O   0  0  0  0  0  0  0  0  0  0  0  0
  -20.8813  -43.2846   -7.2947 C   0  0  0  0  0  0  0  0  0  0  0  0
  -20.3023  -42.2687   -8.0242 C   0  0  0  0  0  0  0  0  0  0  0  0
  -19.1283  -42.5157   -8.7106 C   0  0  0  0  0  0  0  0  0  0  0  0
  -18.5456  -43.8129   -8.6459 C   0  0  0  0  0  0  0  0  0  0  0  0
  -19.0838  -44.8451   -7.9362 C   0  0  0  0  0  0  0  0  0  0  0  0
  -20.2442  -44.5581   -7.2741 C   0  0  0  0  0  0  0  0  0  0  0  0
  -18.4589  -46.1595   -7.8750 C   0  0  0  0  0  0  0  0  0  0  0  0
  -18.3726  -46.8912   -6.7561 N   0  0  0  0  0  0  0  0  0  0  0  0
  -17.7370  -48.0611   -7.0378 C   0  0  0  0  0  0  0  0  0  0  0  0
  -17.4476  -47.9870   -8.3916 C   0  0  0  0  0  0  0  0  0  0  0  0
  -17.8970  -46.8495   -8.8194 O   0  0  0  0  0  0  0  0  0  0  0  0
  -18.3071  -41.6705   -9.5775 C   0  0  0  0  0  0  0  0  0  0  0  0
  -17.7939  -42.2137  -10.6855 O   0  0  0  0  0  0  0  0  0  0  0  0
  -17.9032  -40.3067   -9.4971 N   0  0  0  0  0  0  0  0  0  0  0  0
  -14.2311  -41.9701  -11.7360 C   0  0  0  0  0  0  0  0  0  0  0  0
  -14.6118  -41.5286  -12.9859 C   0  0  0  0  0  0  0  0  0  0  0  0
  -14.3786  -40.2337  -13.4001 C   0  0  0  0  0  0  0  0  0  0  0  0
  1  2  1  0
  2  3  1  0
  2  4  1  0
  4  5  2  0
  5  6  1  0
  6  7  1  0
  7  8  1  0
  8  9  1  0
  9 10  1  0
 10 11  1  6
 10 12  1  0
 12 13  1  1
 13 14  1  0
 14 15  1  6
 14 16  1  0
 16 17  1  0
 17 18  1  0
 18 19  1  0
 19 20  1  0
 20 21  1  0
 21 22  1  0
 22 23  1  6
 22 24  1  0
 24 25  2  0
 25 26  1  0
 26 27  2  0
 27 28  1  0
 28 29  2  0
 21 30  1  0
 30 31  2  0
 30 32  1  0
 32 33  1  0
 33 34  2  0
 34 35  1  0
 35 36  2  0
 36 37  1  0
 36 38  1  0
 38 39  2  0
 39 40  1  0
 40 41  2  0
 41 42  1  0
 34 43  1  0
 43 44  2  0
 43 45  1  0
  6 46  2  0
 46 47  1  0
 47 48  2  0
 29 24  1  0
 37 32  2  0
 42 38  1  0
 45 12  1  0
 48  4  1  0
M  END
$$$$
