
     RDKit          3D

 48 52  0  0  0  0  0  0  0  0999 V2000
  -11.5252  -33.9824  -12.3470 C   0  0  0  0  0  0  0  0  0  0  0  0
  -11.5915  -34.8786  -11.1176 C   0  0  0  0  0  0  0  0  0  0  0  0
  -10.2658  -35.0673  -10.4661 C   0  0  0  0  0  0  0  0  0  0  0  0
  -12.1754  -36.1895  -11.4958 C   0  0  0  0  0  0  0  0  0  0  0  0
  -13.2627  -36.7396  -10.8832 C   0  0  0  0  0  0  0  0  0  0  0  0
  -13.7927  -37.9608  -11.2277 C   0  0  0  0  0  0  0  0  0  0  0  0
  -14.9932  -38.5048  -10.5249 C   0  0  0  0  0  0  0  0  0  0  0  0
  -14.9630  -38.1360   -9.1634 N   0  0  0  0  0  0  0  0  0  0  0  0
  -14.6352  -39.1018   -8.1899 C   0  0  0  0  0  0  0  0  0  0  0  0
  -15.7827  -40.0240   -7.7786 C   0  0  1  0  0  0  0  0  0  0  0  0
  -15.8277  -40.0705   -6.4014 O   0  0  0  0  0  0  0  0  0  0  0  0
  -17.0892  -39.4612   -8.3230 C   0  0  2  0  0  0  0  0  0  0  0  0
  -18.1315  -39.4697   -7.2651 C   0  0  0  0  0  0  0  0  0  0  0  0
  -19.2768  -38.5694   -7.6538 C   0  0  2  0  0  0  0  0  0  0  0  0
  -18.6676  -37.2622   -8.1511 C   0  0  0  0  0  0  0  0  0  0  0  0
  -20.0714  -38.2298   -6.4270 C   0  0  0  0  0  0  0  0  0  0  0  0
  -20.7651  -39.4651   -5.9246 C   0  0  0  0  0  0  0  0  0  0  0  0
  -21.9741  -39.7188   -6.8287 C   0  0  0  0  0  0  0  0  0  0  0  0
  -22.4850  -41.0931   -6.4776 C   0  0  0  0  0  0  0  0  0  0  0  0
  -23.0791  -41.7508   -7.6917 C   0  0  0  0  0  0  0  0  0  0  0  0
  -22.9114  -43.2183   -7.6505 N   0  0  0  0  0  0  0  0  0  0  0  0
  -24.1644  -43.9709   -7.7592 C   0  0  2  0  0  0  0  0  0  0  0  0
  -25.2591  -43.1102   -8.3550 C   0  0  0  0  0  0  0  0  0  0  0  0
  -24.6230  -44.4472   -6.4522 C   0  0  0  0  0  0  0  0  0  0  0  0
  -24.3127  -43.7902   -5.2839 C   0  0  0  0  0  0  0  0  0  0  0  0
  -24.7657  -44.2670   -4.0465 C   0  0  0  0  0  0  0  0  0  0  0  0
  -25.5239  -45.3892   -3.9547 C   0  0  0  0  0  0  0  0  0  0  0  0
  -25.8427  -46.0598   -5.1279 C   0  0  0  0  0  0  0  0  0  0  0  0
  -25.3914  -45.5840   -6.3531 C   0  0  0  0  0  0  0  0  0  0  0  0
  -21.6283  -43.7985   -7.5159 C   0  0  0  0  0  0  0  0  0  0  0  0
  -21.7159  -44.7684   -6.6146 O   0  0  0  0  0  0  0  0  0  0  0  0
  -20.3283  -43.5347   -8.1503 C   0  0  0  0  0  0  0  0  0  0  0  0
  -19.7834  -42.3834   -8.6766 C   0  0  0  0  0  0  0  0  0  0  0  0
  -18.5149  -42.4265   -9.2239 C   0  0  0  0  0  0  0  0  0  0  0  0
  -17.8022  -43.6588   -9.2292 C   0  0  0  0  0  0  0  0  0  0  0  0
  -18.3026  -44.8197   -8.7189 C   0  0  0  0  0  0  0  0  0  0  0  0
  -19.5593  -44.7328   -8.1891 C   0  0  0  0  0  0  0  0  0  0  0  0
  -17.5459  -46.0644   -8.7239 C   0  0  0  0  0  0  0  0  0  0  0  0
  -16.7632  -46.4637   -7.7125 N   0  0  0  0  0  0  0  0  0  0  0  0
  -16.2030  -47.6625   -8.0303 C   0  0  0  0  0  0  0  0  0  0  0  0
  -16.6964  -47.9579   -9.2918 C   0  0  0  0  0  0  0  0  0  0  0  0
  -17.4754  -46.9822   -9.6384 O   0  0  0  0  0  0  0  0  0  0  0  0
  -17.6954  -41.4027   -9.8724 C   0  0  0  0  0  0  0  0  0  0  0  0
  -16.9946  -41.7491  -10.9564 O   0  0  0  0  0  0  0  0  0  0  0  0
  -17.4600  -40.0274   -9.5853 N   0  0  0  0  0  0  0  0  0  0  0  0
  -13.1751  -38.6626  -12.2594 C   0  0  0  0  0  0  0  0  0  0  0  0
  -12.0747  -38.1188  -12.8883 C   0  0  0  0  0  0  0  0  0  0  0  0
  -11.5635  -36.8909  -12.5231 C   0  0  0  0  0  0  0  0  0  0  0  0
  1  2  1  0
  2  3  1  0
  2  4  1  0
  4  5  2  0
  5  6  1  0
  6  7  1  0
  7  8  1  0
  8  9  1  0
  9 10  1  0
 10 11  1  1
 10 12  1  0
 12 13  1  1
 13 14  1  0
 14 15  1  1
 14 16  1  0
 16 17  1  0
 17 18  1  0
 18 19  1  0
 19 20  1  0
 20 21  1  0
 21 22  1  0
 22 23  1  1
 22 24  1  0
 24 25  2  0
 25 26  1  0
 26 27  2  0
 27 28  1  0
 28 29  2  0
 21 30  1  0
 30 31  2  0
 30 32  1  0
 32 33  1  0
 33 34  2  0
 34 35  1  0
 35 36  2  0
 36 37  1  0
 36 38  1  0
 38 39  2  0
 39 40  1  0
 40 41  2  0
 41 42  1  0
 34 43  1  0
 43 44  2  0
 43 45  1  0
  6 46  2  0
 46 47  1  0
 47 48  2  0
 29 24  1  0
 37 32  2  0
 42 38  1  0
 45 12  1  0
 48  4  1  0
M  END
$$$$
