
     RDKit          3D

 48 52  0  0  0  0  0  0  0  0999 V2000
  -13.9557  -38.3556  -13.3986 C   0  0  0  0  0  0  0  0  0  0  0  0
  -15.1888  -37.9605  -14.2002 C   0  0  0  0  0  0  0  0  0  0  0  0
  -14.8549  -37.2327  -15.4557 C   0  0  0  0  0  0  0  0  0  0  0  0
  -16.0870  -37.1415  -13.3487 C   0  0  0  0  0  0  0  0  0  0  0  0
  -16.1101  -37.2101  -11.9867 C   0  0  0  0  0  0  0  0  0  0  0  0
  -16.9533  -36.4592  -11.2018 C   0  0  0  0  0  0  0  0  0  0  0  0
  -16.9229  -36.5720   -9.7127 C   0  0  0  0  0  0  0  0  0  0  0  0
  -16.8563  -37.9294   -9.3334 N   0  0  0  0  0  0  0  0  0  0  0  0
  -15.6103  -38.4943   -8.9929 C   0  0  0  0  0  0  0  0  0  0  0  0
  -15.5296  -40.0151   -9.1240 C   0  0  1  0  0  0  0  0  0  0  0  0
  -14.2913  -40.3398   -9.6360 O   0  0  0  0  0  0  0  0  0  0  0  0
  -15.7029  -40.6404   -7.7459 C   0  0  2  0  0  0  0  0  0  0  0  0
  -15.7755  -42.1194   -7.8593 C   0  0  0  0  0  0  0  0  0  0  0  0
  -15.5452  -42.7578   -6.5129 C   0  0  2  0  0  0  0  0  0  0  0  0
  -14.3300  -42.0721   -5.8962 C   0  0  0  0  0  0  0  0  0  0  0  0
  -15.1680  -44.1966   -6.7108 C   0  0  0  0  0  0  0  0  0  0  0  0
  -16.3509  -44.9527   -7.2480 C   0  0  0  0  0  0  0  0  0  0  0  0
  -17.3111  -45.2018   -6.0819 C   0  0  0  0  0  0  0  0  0  0  0  0
  -18.5931  -45.7113   -6.6900 C   0  0  0  0  0  0  0  0  0  0  0  0
  -19.7693  -45.2709   -5.8639 C   0  0  0  0  0  0  0  0  0  0  0  0
  -20.9722  -45.0677   -6.6976 N   0  0  0  0  0  0  0  0  0  0  0  0
  -22.1363  -45.8525   -6.2765 C   0  0  2  0  0  0  0  0  0  0  0  0
  -22.4101  -45.6588   -4.7995 C   0  0  0  0  0  0  0  0  0  0  0  0
  -21.9379  -47.2837   -6.5170 C   0  0  0  0  0  0  0  0  0  0  0  0
  -21.7532  -48.1796   -5.4893 C   0  0  0  0  0  0  0  0  0  0  0  0
  -21.5670  -49.5443   -5.7475 C   0  0  0  0  0  0  0  0  0  0  0  0
  -21.5620  -50.0309   -7.0147 C   0  0  0  0  0  0  0  0  0  0  0  0
  -21.7475  -49.1351   -8.0591 C   0  0  0  0  0  0  0  0  0  0  0  0
  -21.9317  -47.7824   -7.7991 C   0  0  0  0  0  0  0  0  0  0  0  0
  -20.9504  -44.1797   -7.7986 C   0  0  0  0  0  0  0  0  0  0  0  0
  -21.5485  -44.7844   -8.8172 O   0  0  0  0  0  0  0  0  0  0  0  0
  -20.4260  -42.8195   -7.9896 C   0  0  0  0  0  0  0  0  0  0  0  0
  -19.3800  -42.1495   -7.3926 C   0  0  0  0  0  0  0  0  0  0  0  0
  -19.1078  -40.8486   -7.7721 C   0  0  0  0  0  0  0  0  0  0  0  0
  -19.9139  -40.2335   -8.7714 C   0  0  0  0  0  0  0  0  0  0  0  0
  -20.9564  -40.8595   -9.3877 C   0  0  0  0  0  0  0  0  0  0  0  0
  -21.1913  -42.1430   -8.9820 C   0  0  0  0  0  0  0  0  0  0  0  0
  -21.7565  -40.2114  -10.4182 C   0  0  0  0  0  0  0  0  0  0  0  0
  -21.4386  -40.2152  -11.7196 N   0  0  0  0  0  0  0  0  0  0  0  0
  -22.3875  -39.5272  -12.4112 C   0  0  0  0  0  0  0  0  0  0  0  0
  -23.2927  -39.1111  -11.4472 C   0  0  0  0  0  0  0  0  0  0  0  0
  -22.8639  -39.5449  -10.3040 O   0  0  0  0  0  0  0  0  0  0  0  0
  -18.1071  -39.8857   -7.3121 C   0  0  0  0  0  0  0  0  0  0  0  0
  -18.4812  -38.6118   -7.1589 O   0  0  0  0  0  0  0  0  0  0  0  0
  -16.7297  -40.0110   -6.9706 N   0  0  0  0  0  0  0  0  0  0  0  0
  -17.8256  -35.5862  -11.8464 C   0  0  0  0  0  0  0  0  0  0  0  0
  -17.8135  -35.5061  -13.2232 C   0  0  0  0  0  0  0  0  0  0  0  0
  -16.9565  -36.2708  -13.9869 C   0  0  0  0  0  0  0  0  0  0  0  0
  1  2  1  0
  2  3  1  0
  2  4  1  0
  4  5  2  0
  5  6  1  0
  6  7  1  0
  7  8  1  0
  8  9  1  0
  9 10  1  0
 10 11  1  1
 10 12  1  0
 12 13  1  6
 13 14  1  0
 14 15  1  6
 14 16  1  0
 16 17  1  0
 17 18  1  0
 18 19  1  0
 19 20  1  0
 20 21  1  0
 21 22  1  0
 22 23  1  1
 22 24  1  0
 24 25  2  0
 25 26  1  0
 26 27  2  0
 27 28  1  0
 28 29  2  0
 21 30  1  0
 30 31  2  0
 30 32  1  0
 32 33  1  0
 33 34  2  0
 34 35  1  0
 35 36  2  0
 36 37  1  0
 36 38  1  0
 38 39  2  0
 39 40  1  0
 40 41  2  0
 41 42  1  0
 34 43  1  0
 43 44  2  0
 43 45  1  0
  6 46  2  0
 46 47  1  0
 47 48  2  0
 29 24  1  0
 37 32  2  0
 42 38  1  0
 45 12  1  0
 48  4  1  0
M  END
$$$$
