
     RDKit          3D

 44 49  0  0  0  0  0  0  0  0999 V2000
  -15.4478  -45.3172   -5.2865 C   0  0  0  0  0  0  0  0  0  0  0  0
  -16.1619  -44.7904   -6.4904 C   0  0  0  0  0  0  0  0  0  0  0  0
  -16.1596  -45.8523   -7.5920 C   0  0  0  0  0  0  0  0  0  0  0  0
  -15.3311  -43.6328   -7.0520 C   0  0  0  0  0  0  0  0  0  0  0  0
  -17.5268  -44.3291   -6.2327 C   0  0  0  0  0  0  0  0  0  0  0  0
  -17.8928  -43.0047   -6.0724 C   0  0  0  0  0  0  0  0  0  0  0  0
  -19.1910  -42.6249   -5.8331 C   0  0  0  0  0  0  0  0  0  0  0  0
  -20.1233  -43.5858   -5.7554 N   0  0  0  0  0  0  0  0  0  0  0  0
  -19.8421  -44.8922   -5.9005 C   0  0  0  0  0  0  0  0  0  0  0  0
  -18.5317  -45.2674   -6.1414 C   0  0  0  0  0  0  0  0  0  0  0  0
  -19.6072  -41.1836   -5.6537 C   0  0  0  0  0  0  0  0  0  0  0  0
  -21.1475  -40.9960   -5.7726 C   0  0  0  0  0  0  0  0  0  0  0  0
  -20.4288  -40.8059   -4.5022 C   0  0  0  0  0  0  0  0  0  0  0  0
  -18.8781  -40.3056   -6.4893 N   0  0  0  0  0  0  0  0  0  0  0  0
  -17.5517  -39.9479   -6.1372 C   0  0  0  0  0  0  0  0  0  0  0  0
  -17.2531  -38.5631   -6.5376 C   0  0  1  0  0  0  0  0  0  0  0  0
  -16.3719  -37.9988   -5.5749 O   0  0  0  0  0  0  0  0  0  0  0  0
  -16.6034  -38.3776   -7.8991 C   0  0  2  0  0  0  0  0  0  0  0  0
  -17.0074  -37.0356   -8.4689 C   0  0  0  0  0  0  0  0  0  0  0  0
  -16.0954  -36.5065   -9.5125 C   0  0  0  0  0  0  0  0  0  0  0  0
  -16.2844  -36.2349  -10.8514 C   0  0  0  0  0  0  0  0  0  0  0  0
  -15.2108  -35.8028  -11.5886 C   0  0  0  0  0  0  0  0  0  0  0  0
  -15.1016  -35.4981  -13.0634 C   0  0  0  0  0  0  0  0  0  0  0  0
  -14.8926  -36.7153  -13.9093 C   0  0  0  0  0  0  0  0  0  0  0  0
  -15.9268  -36.9659  -14.9620 C   0  0  0  0  0  0  0  0  0  0  0  0
  -17.3387  -36.7856  -14.5789 C   0  0  0  0  0  0  0  0  0  0  0  0
  -18.0989  -37.9775  -14.2983 N   0  0  0  0  0  0  0  0  0  0  0  0
  -18.3884  -38.6638  -13.0734 C   0  0  0  0  0  0  0  0  0  0  0  0
  -17.5897  -39.0090  -12.0105 C   0  0  0  0  0  0  0  0  0  0  0  0
  -18.1560  -39.6149  -10.9133 C   0  0  0  0  0  0  0  0  0  0  0  0
  -19.5423  -39.8714  -10.9130 C   0  0  0  0  0  0  0  0  0  0  0  0
  -20.3897  -39.5529  -11.9485 C   0  0  0  0  0  0  0  0  0  0  0  0
  -19.7727  -38.9486  -13.0137 C   0  0  0  0  0  0  0  0  0  0  0  0
  -21.8044  -39.8325  -11.9095 C   0  0  0  0  0  0  0  0  0  0  0  0
  -22.7617  -39.1402  -12.5317 N   0  0  0  0  0  0  0  0  0  0  0  0
  -23.9714  -39.7216  -12.2464 C   0  0  0  0  0  0  0  0  0  0  0  0
  -23.6714  -40.7785  -11.4331 C   0  0  0  0  0  0  0  0  0  0  0  0
  -22.3808  -40.7961  -11.2679 O   0  0  0  0  0  0  0  0  0  0  0  0
  -17.5646  -40.0588   -9.6326 C   0  0  0  0  0  0  0  0  0  0  0  0
  -17.9839  -41.2422   -9.1750 O   0  0  0  0  0  0  0  0  0  0  0  0
  -16.6267  -39.5085   -8.7445 N   0  0  0  0  0  0  0  0  0  0  0  0
  -13.9402  -35.6376  -10.9792 C   0  0  0  0  0  0  0  0  0  0  0  0
  -13.7147  -35.8941   -9.6514 C   0  0  0  0  0  0  0  0  0  0  0  0
  -14.8007  -36.3233   -8.9492 C   0  0  0  0  0  0  0  0  0  0  0  0
  1  2  1  0
  2  3  1  0
  2  4  1  0
  2  5  1  0
  5  6  2  0
  6  7  1  0
  7  8  2  0
  8  9  1  0
  9 10  2  0
  7 11  1  0
 11 12  1  0
 12 13  1  0
 11 14  1  0
 14 15  1  0
 15 16  1  0
 16 17  1  1
 16 18  1  0
 18 19  1  6
 19 20  1  0
 20 21  1  0
 21 22  2  0
 22 23  1  0
 23 24  1  0
 24 25  1  0
 25 26  1  0
 26 27  1  0
 27 28  1  0
 28 29  1  0
 29 30  2  0
 30 31  1  0
 31 32  2  0
 32 33  1  0
 32 34  1  0
 34 35  2  0
 35 36  1  0
 36 37  2  0
 37 38  1  0
 30 39  1  0
 39 40  2  0
 39 41  1  0
 22 42  1  0
 42 43  2  0
 43 44  1  0
 10  5  1  0
 13 11  1  0
 33 28  2  0
 38 34  1  0
 41 18  1  0
 44 20  2  0
M  END
$$$$
