
     RDKit          3D

 44 49  0  0  0  0  0  0  0  0999 V2000
  -15.2354  -34.8146  -10.5900 C   0  0  0  0  0  0  0  0  0  0  0  0
  -15.4882  -35.4741  -11.9084 C   0  0  0  0  0  0  0  0  0  0  0  0
  -15.0202  -34.5548  -13.0384 C   0  0  0  0  0  0  0  0  0  0  0  0
  -17.0053  -35.5843  -12.0876 C   0  0  0  0  0  0  0  0  0  0  0  0
  -14.8844  -36.7998  -12.0493 C   0  0  0  0  0  0  0  0  0  0  0  0
  -14.8920  -37.7763  -11.0693 C   0  0  0  0  0  0  0  0  0  0  0  0
  -14.3107  -39.0071  -11.2538 C   0  0  0  0  0  0  0  0  0  0  0  0
  -13.7194  -39.2530  -12.4321 N   0  0  0  0  0  0  0  0  0  0  0  0
  -13.6727  -38.3534  -13.4298 C   0  0  0  0  0  0  0  0  0  0  0  0
  -14.2606  -37.1153  -13.2367 C   0  0  0  0  0  0  0  0  0  0  0  0
  -14.3083  -40.0836  -10.1937 C   0  0  0  0  0  0  0  0  0  0  0  0
  -14.3986  -41.5120  -10.8044 C   0  0  0  0  0  0  0  0  0  0  0  0
  -13.1893  -41.0249  -10.1211 C   0  0  0  0  0  0  0  0  0  0  0  0
  -15.2763  -39.8506   -9.1890 N   0  0  0  0  0  0  0  0  0  0  0  0
  -14.8653  -39.3545   -7.9256 C   0  0  0  0  0  0  0  0  0  0  0  0
  -15.7635  -39.8204   -6.8564 C   0  0  1  0  0  0  0  0  0  0  0  0
  -15.5507  -39.0096   -5.7079 O   0  0  0  0  0  0  0  0  0  0  0  0
  -17.2526  -39.7823   -7.1590 C   0  0  2  0  0  0  0  0  0  0  0  0
  -18.0269  -39.7236   -5.8607 C   0  0  0  0  0  0  0  0  0  0  0  0
  -19.4058  -39.1912   -5.9861 C   0  0  0  0  0  0  0  0  0  0  0  0
  -20.6403  -39.7667   -5.7692 C   0  0  0  0  0  0  0  0  0  0  0  0
  -21.7634  -39.0249   -6.0365 C   0  0  0  0  0  0  0  0  0  0  0  0
  -23.2225  -39.4057   -5.9613 C   0  0  0  0  0  0  0  0  0  0  0  0
  -23.7087  -40.1431   -7.1700 C   0  0  0  0  0  0  0  0  0  0  0  0
  -24.2744  -41.5064   -6.9210 C   0  0  0  0  0  0  0  0  0  0  0  0
  -23.5426  -42.3816   -5.9876 C   0  0  0  0  0  0  0  0  0  0  0  0
  -22.7147  -43.4099   -6.5659 N   0  0  0  0  0  0  0  0  0  0  0  0
  -21.3182  -43.4480   -6.8881 C   0  0  0  0  0  0  0  0  0  0  0  0
  -20.5014  -42.5380   -7.5138 C   0  0  0  0  0  0  0  0  0  0  0  0
  -19.1584  -42.8105   -7.6321 C   0  0  0  0  0  0  0  0  0  0  0  0
  -18.6580  -44.0219   -7.1128 C   0  0  0  0  0  0  0  0  0  0  0  0
  -19.4274  -44.9713   -6.4815 C   0  0  0  0  0  0  0  0  0  0  0  0
  -20.7565  -44.6463   -6.3888 C   0  0  0  0  0  0  0  0  0  0  0  0
  -18.8764  -46.1997   -5.9634 C   0  0  0  0  0  0  0  0  0  0  0  0
  -19.2491  -46.8183   -4.8403 N   0  0  0  0  0  0  0  0  0  0  0  0
  -18.4885  -47.9512   -4.6972 C   0  0  0  0  0  0  0  0  0  0  0  0
  -17.6610  -47.9600   -5.7852 C   0  0  0  0  0  0  0  0  0  0  0  0
  -17.9329  -46.9050   -6.4969 O   0  0  0  0  0  0  0  0  0  0  0  0
  -18.0518  -42.0197   -8.2126 C   0  0  0  0  0  0  0  0  0  0  0  0
  -17.1707  -42.7022   -8.9499 O   0  0  0  0  0  0  0  0  0  0  0  0
  -17.6912  -40.6635   -8.1716 N   0  0  0  0  0  0  0  0  0  0  0  0
  -21.6487  -37.6960   -6.5202 C   0  0  0  0  0  0  0  0  0  0  0  0
  -20.4399  -37.0893   -6.7446 C   0  0  0  0  0  0  0  0  0  0  0  0
  -19.3456  -37.8540   -6.4713 C   0  0  0  0  0  0  0  0  0  0  0  0
  1  2  1  0
  2  3  1  0
  2  4  1  0
  2  5  1  0
  5  6  2  0
  6  7  1  0
  7  8  2  0
  8  9  1  0
  9 10  2  0
  7 11  1  0
 11 12  1  0
 12 13  1  0
 11 14  1  0
 14 15  1  0
 15 16  1  0
 16 17  1  1
 16 18  1  0
 18 19  1  1
 19 20  1  0
 20 21  1  0
 21 22  2  0
 22 23  1  0
 23 24  1  0
 24 25  1  0
 25 26  1  0
 26 27  1  0
 27 28  1  0
 28 29  1  0
 29 30  2  0
 30 31  1  0
 31 32  2  0
 32 33  1  0
 32 34  1  0
 34 35  2  0
 35 36  1  0
 36 37  2  0
 37 38  1  0
 30 39  1  0
 39 40  2  0
 39 41  1  0
 22 42  1  0
 42 43  2  0
 43 44  1  0
 10  5  1  0
 13 11  1  0
 33 28  2  0
 38 34  1  0
 41 18  1  0
 44 20  2  0
M  END
$$$$
