
     RDKit          3D

 44 49  0  0  0  0  0  0  0  0999 V2000
  -17.9114  -43.2491  -10.5340 C   0  0  0  0  0  0  0  0  0  0  0  0
  -16.8969  -44.3122  -10.2560 C   0  0  0  0  0  0  0  0  0  0  0  0
  -17.0120  -45.4169  -11.3084 C   0  0  0  0  0  0  0  0  0  0  0  0
  -17.2788  -44.9821   -8.9327 C   0  0  0  0  0  0  0  0  0  0  0  0
  -15.5178  -43.8288  -10.1760 C   0  0  0  0  0  0  0  0  0  0  0  0
  -15.1571  -42.5106   -9.9614 C   0  0  0  0  0  0  0  0  0  0  0  0
  -13.8451  -42.1095   -9.8935 C   0  0  0  0  0  0  0  0  0  0  0  0
  -12.8936  -43.0427  -10.0428 N   0  0  0  0  0  0  0  0  0  0  0  0
  -13.1685  -44.3414  -10.2542 C   0  0  0  0  0  0  0  0  0  0  0  0
  -14.4929  -44.7382  -10.3214 C   0  0  0  0  0  0  0  0  0  0  0  0
  -13.4341  -40.6742   -9.6618 C   0  0  0  0  0  0  0  0  0  0  0  0
  -11.9263  -40.5442   -9.2998 C   0  0  0  0  0  0  0  0  0  0  0  0
  -12.4755  -40.0407  -10.5692 C   0  0  0  0  0  0  0  0  0  0  0  0
  -14.2816  -40.0143   -8.7414 N   0  0  0  0  0  0  0  0  0  0  0  0
  -15.1365  -40.7794   -7.9077 C   0  0  0  0  0  0  0  0  0  0  0  0
  -16.0423  -39.9103   -7.1388 C   0  0  1  0  0  0  0  0  0  0  0  0
  -15.5057  -38.5936   -7.1377 O   0  0  0  0  0  0  0  0  0  0  0  0
  -17.4725  -39.8083   -7.6434 C   0  0  2  0  0  0  0  0  0  0  0  0
  -18.2289  -38.8003   -6.8064 C   0  0  0  0  0  0  0  0  0  0  0  0
  -19.4345  -38.2340   -7.4595 C   0  0  0  0  0  0  0  0  0  0  0  0
  -20.7751  -38.3077   -7.1441 C   0  0  0  0  0  0  0  0  0  0  0  0
  -21.6795  -37.7202   -7.9926 C   0  0  0  0  0  0  0  0  0  0  0  0
  -23.1884  -37.6977   -7.9435 C   0  0  0  0  0  0  0  0  0  0  0  0
  -23.8211  -38.9331   -8.5042 C   0  0  0  0  0  0  0  0  0  0  0  0
  -24.7055  -39.6973   -7.5691 C   0  0  0  0  0  0  0  0  0  0  0  0
  -24.2233  -39.8914   -6.1898 C   0  0  0  0  0  0  0  0  0  0  0  0
  -23.6620  -41.1791   -5.8669 N   0  0  0  0  0  0  0  0  0  0  0  0
  -22.3122  -41.6620   -5.8598 C   0  0  0  0  0  0  0  0  0  0  0  0
  -21.2889  -41.5226   -6.7654 C   0  0  0  0  0  0  0  0  0  0  0  0
  -20.0511  -42.0423   -6.4661 C   0  0  0  0  0  0  0  0  0  0  0  0
  -19.8688  -42.7109   -5.2383 C   0  0  0  0  0  0  0  0  0  0  0  0
  -20.8558  -42.8847   -4.2963 C   0  0  0  0  0  0  0  0  0  0  0  0
  -22.0669  -42.3444   -4.6454 C   0  0  0  0  0  0  0  0  0  0  0  0
  -20.6286  -43.5759   -3.0506 C   0  0  0  0  0  0  0  0  0  0  0  0
  -21.2196  -43.3103   -1.8831 N   0  0  0  0  0  0  0  0  0  0  0  0
  -20.7361  -44.1860   -0.9440 C   0  0  0  0  0  0  0  0  0  0  0  0
  -19.8409  -44.9680   -1.6190 C   0  0  0  0  0  0  0  0  0  0  0  0
  -19.8177  -44.5643   -2.8559 O   0  0  0  0  0  0  0  0  0  0  0  0
  -18.7765  -42.0154   -7.2154 C   0  0  0  0  0  0  0  0  0  0  0  0
  -18.0771  -43.1540   -7.2187 O   0  0  0  0  0  0  0  0  0  0  0  0
  -18.0971  -41.0355   -7.9565 N   0  0  0  0  0  0  0  0  0  0  0  0
  -21.2373  -37.0506   -9.1627 C   0  0  0  0  0  0  0  0  0  0  0  0
  -19.9138  -36.9537   -9.5073 C   0  0  0  0  0  0  0  0  0  0  0  0
  -19.0430  -37.5494   -8.6449 C   0  0  0  0  0  0  0  0  0  0  0  0
  1  2  1  0
  2  3  1  0
  2  4  1  0
  2  5  1  0
  5  6  2  0
  6  7  1  0
  7  8  2  0
  8  9  1  0
  9 10  2  0
  7 11  1  0
 11 12  1  0
 12 13  1  0
 11 14  1  0
 14 15  1  0
 15 16  1  0
 16 17  1  6
 16 18  1  0
 18 19  1  1
 19 20  1  0
 20 21  1  0
 21 22  2  0
 22 23  1  0
 23 24  1  0
 24 25  1  0
 25 26  1  0
 26 27  1  0
 27 28  1  0
 28 29  1  0
 29 30  2  0
 30 31  1  0
 31 32  2  0
 32 33  1  0
 32 34  1  0
 34 35  2  0
 35 36  1  0
 36 37  2  0
 37 38  1  0
 30 39  1  0
 39 40  2  0
 39 41  1  0
 22 42  1  0
 42 43  2  0
 43 44  1  0
 10  5  1  0
 13 11  1  0
 33 28  2  0
 38 34  1  0
 41 18  1  0
 44 20  2  0
M  END
$$$$
