
     RDKit          3D

 44 49  0  0  0  0  0  0  0  0999 V2000
  -15.5101  -36.5841  -10.7065 C   0  0  0  0  0  0  0  0  0  0  0  0
  -14.3106  -36.8045  -11.5724 C   0  0  0  0  0  0  0  0  0  0  0  0
  -13.5680  -35.4806  -11.7644 C   0  0  0  0  0  0  0  0  0  0  0  0
  -14.8113  -37.1860  -12.9686 C   0  0  0  0  0  0  0  0  0  0  0  0
  -13.3928  -37.8357  -11.0864 C   0  0  0  0  0  0  0  0  0  0  0  0
  -13.7217  -38.8088  -10.1597 C   0  0  0  0  0  0  0  0  0  0  0  0
  -12.8210  -39.7562   -9.7377 C   0  0  0  0  0  0  0  0  0  0  0  0
  -11.5835  -39.7210  -10.2533 N   0  0  0  0  0  0  0  0  0  0  0  0
  -11.1924  -38.8059  -11.1568 C   0  0  0  0  0  0  0  0  0  0  0  0
  -12.1055  -37.8544  -11.5773 C   0  0  0  0  0  0  0  0  0  0  0  0
  -13.1632  -40.8241   -8.7252 C   0  0  0  0  0  0  0  0  0  0  0  0
  -12.9200  -42.2586   -9.2770 C   0  0  0  0  0  0  0  0  0  0  0  0
  -12.1039  -41.6844   -8.1951 C   0  0  0  0  0  0  0  0  0  0  0  0
  -14.4579  -40.6540   -8.1815 N   0  0  0  0  0  0  0  0  0  0  0  0
  -15.3950  -39.8299   -8.8553 C   0  0  0  0  0  0  0  0  0  0  0  0
  -16.2745  -39.1375   -7.8992 C   0  0  1  0  0  0  0  0  0  0  0  0
  -15.9592  -37.7512   -7.9238 O   0  0  0  0  0  0  0  0  0  0  0  0
  -17.7696  -39.2589   -8.1447 C   0  0  2  0  0  0  0  0  0  0  0  0
  -18.5133  -38.4009   -7.1450 C   0  0  0  0  0  0  0  0  0  0  0  0
  -19.8889  -38.0255   -7.5542 C   0  0  0  0  0  0  0  0  0  0  0  0
  -21.1242  -38.3200   -7.0162 C   0  0  0  0  0  0  0  0  0  0  0  0
  -22.2450  -37.8716   -7.6686 C   0  0  0  0  0  0  0  0  0  0  0  0
  -23.7061  -38.0938   -7.3593 C   0  0  0  0  0  0  0  0  0  0  0  0
  -24.2278  -39.4053   -7.8582 C   0  0  0  0  0  0  0  0  0  0  0  0
  -24.8023  -40.3183   -6.8204 C   0  0  0  0  0  0  0  0  0  0  0  0
  -24.0588  -40.4559   -5.5551 C   0  0  0  0  0  0  0  0  0  0  0  0
  -23.2555  -41.6415   -5.3927 N   0  0  0  0  0  0  0  0  0  0  0  0
  -21.8673  -41.9002   -5.6402 C   0  0  0  0  0  0  0  0  0  0  0  0
  -21.0552  -41.5818   -6.7013 C   0  0  0  0  0  0  0  0  0  0  0  0
  -19.7184  -41.8999   -6.6435 C   0  0  0  0  0  0  0  0  0  0  0  0
  -19.2192  -42.5515   -5.4973 C   0  0  0  0  0  0  0  0  0  0  0  0
  -19.9842  -42.8987   -4.4082 C   0  0  0  0  0  0  0  0  0  0  0  0
  -21.3072  -42.5550   -4.5184 C   0  0  0  0  0  0  0  0  0  0  0  0
  -19.4348  -43.5656   -3.2530 C   0  0  0  0  0  0  0  0  0  0  0  0
  -20.1292  -44.0708   -2.2305 N   0  0  0  0  0  0  0  0  0  0  0  0
  -19.2454  -44.6200   -1.3362 C   0  0  0  0  0  0  0  0  0  0  0  0
  -18.0115  -44.4102   -1.8859 C   0  0  0  0  0  0  0  0  0  0  0  0
  -18.1829  -43.7850   -3.0143 O   0  0  0  0  0  0  0  0  0  0  0  0
  -18.6169  -41.6547   -7.5993 C   0  0  0  0  0  0  0  0  0  0  0  0
  -17.7603  -42.6652   -7.7747 O   0  0  0  0  0  0  0  0  0  0  0  0
  -18.2408  -40.5652   -8.4010 N   0  0  0  0  0  0  0  0  0  0  0  0
  -22.1272  -37.1192   -8.8657 C   0  0  0  0  0  0  0  0  0  0  0  0
  -20.9174  -36.8040   -9.4284 C   0  0  0  0  0  0  0  0  0  0  0  0
  -19.8254  -37.2662   -8.7569 C   0  0  0  0  0  0  0  0  0  0  0  0
  1  2  1  0
  2  3  1  0
  2  4  1  0
  2  5  1  0
  5  6  2  0
  6  7  1  0
  7  8  2  0
  8  9  1  0
  9 10  2  0
  7 11  1  0
 11 12  1  0
 12 13  1  0
 11 14  1  0
 14 15  1  0
 15 16  1  0
 16 17  1  6
 16 18  1  0
 18 19  1  1
 19 20  1  0
 20 21  1  0
 21 22  2  0
 22 23  1  0
 23 24  1  0
 24 25  1  0
 25 26  1  0
 26 27  1  0
 27 28  1  0
 28 29  1  0
 29 30  2  0
 30 31  1  0
 31 32  2  0
 32 33  1  0
 32 34  1  0
 34 35  2  0
 35 36  1  0
 36 37  2  0
 37 38  1  0
 30 39  1  0
 39 40  2  0
 39 41  1  0
 22 42  1  0
 42 43  2  0
 43 44  1  0
 10  5  1  0
 13 11  1  0
 33 28  2  0
 38 34  1  0
 41 18  1  0
 44 20  2  0
M  END
$$$$
