
     RDKit          3D

 44 49  0  0  0  0  0  0  0  0999 V2000
  -22.7851  -39.9158  -10.4018 C   0  0  0  0  0  0  0  0  0  0  0  0
  -22.0653  -38.8888   -9.5870 C   0  0  0  0  0  0  0  0  0  0  0  0
  -22.5264  -37.4905  -10.0031 C   0  0  0  0  0  0  0  0  0  0  0  0
  -20.5836  -38.9494   -9.9696 C   0  0  0  0  0  0  0  0  0  0  0  0
  -22.2011  -39.0584   -8.1396 C   0  0  0  0  0  0  0  0  0  0  0  0
  -21.3696  -39.8398   -7.3574 C   0  0  0  0  0  0  0  0  0  0  0  0
  -21.5405  -39.9639   -6.0001 C   0  0  0  0  0  0  0  0  0  0  0  0
  -22.5547  -39.2966   -5.4304 N   0  0  0  0  0  0  0  0  0  0  0  0
  -23.4024  -38.5193   -6.1261 C   0  0  0  0  0  0  0  0  0  0  0  0
  -23.2239  -38.3990   -7.4935 C   0  0  0  0  0  0  0  0  0  0  0  0
  -20.6430  -40.8144   -5.1318 C   0  0  0  0  0  0  0  0  0  0  0  0
  -20.8623  -40.5438   -3.6151 C   0  0  0  0  0  0  0  0  0  0  0  0
  -21.2342  -41.8201   -4.2471 C   0  0  0  0  0  0  0  0  0  0  0  0
  -19.2847  -40.7290   -5.5170 N   0  0  0  0  0  0  0  0  0  0  0  0
  -18.9544  -40.2380   -6.8058 C   0  0  0  0  0  0  0  0  0  0  0  0
  -17.9155  -39.1981   -6.7258 C   0  0  1  0  0  0  0  0  0  0  0  0
  -17.3780  -39.2026   -5.4094 O   0  0  0  0  0  0  0  0  0  0  0  0
  -16.7449  -39.3358   -7.6855 C   0  0  2  0  0  0  0  0  0  0  0  0
  -17.2156  -39.0507   -9.0947 C   0  0  0  0  0  0  0  0  0  0  0  0
  -16.1402  -38.6606  -10.0392 C   0  0  0  0  0  0  0  0  0  0  0  0
  -15.6500  -39.2630  -11.1790 C   0  0  0  0  0  0  0  0  0  0  0  0
  -14.5845  -38.6815  -11.8190 C   0  0  0  0  0  0  0  0  0  0  0  0
  -13.8052  -39.1419  -13.0275 C   0  0  0  0  0  0  0  0  0  0  0  0
  -12.7552  -40.1595  -12.7070 C   0  0  0  0  0  0  0  0  0  0  0  0
  -12.8791  -41.4727  -13.4148 C   0  0  0  0  0  0  0  0  0  0  0  0
  -14.2251  -42.0665  -13.5068 C   0  0  0  0  0  0  0  0  0  0  0  0
  -14.5349  -43.1333  -12.5886 N   0  0  0  0  0  0  0  0  0  0  0  0
  -15.1803  -43.1393  -11.3085 C   0  0  0  0  0  0  0  0  0  0  0  0
  -15.0305  -42.3314  -10.2077 C   0  0  0  0  0  0  0  0  0  0  0  0
  -15.8451  -42.5247   -9.1165 C   0  0  0  0  0  0  0  0  0  0  0  0
  -16.8086  -43.5531   -9.1558 C   0  0  0  0  0  0  0  0  0  0  0  0
  -17.0009  -44.3946  -10.2267 C   0  0  0  0  0  0  0  0  0  0  0  0
  -16.1646  -44.1549  -11.2867 C   0  0  0  0  0  0  0  0  0  0  0  0
  -17.9990  -45.4362  -10.2275 C   0  0  0  0  0  0  0  0  0  0  0  0
  -18.1118  -46.4200   -9.3318 N   0  0  0  0  0  0  0  0  0  0  0  0
  -19.1836  -47.2023   -9.6806 C   0  0  0  0  0  0  0  0  0  0  0  0
  -19.6844  -46.6284  -10.8157 C   0  0  0  0  0  0  0  0  0  0  0  0
  -18.9478  -45.5919  -11.0923 O   0  0  0  0  0  0  0  0  0  0  0  0
  -15.9368  -41.8019   -7.8296 C   0  0  0  0  0  0  0  0  0  0  0  0
  -16.0869  -42.5632   -6.7418 O   0  0  0  0  0  0  0  0  0  0  0  0
  -15.9022  -40.4470   -7.4632 N   0  0  0  0  0  0  0  0  0  0  0  0
  -14.0091  -37.4862  -11.3161 C   0  0  0  0  0  0  0  0  0  0  0  0
  -14.4708  -36.8570  -10.1889 C   0  0  0  0  0  0  0  0  0  0  0  0
  -15.5276  -37.4614   -9.5768 C   0  0  0  0  0  0  0  0  0  0  0  0
  1  2  1  0
  2  3  1  0
  2  4  1  0
  2  5  1  0
  5  6  2  0
  6  7  1  0
  7  8  2  0
  8  9  1  0
  9 10  2  0
  7 11  1  0
 11 12  1  0
 12 13  1  0
 11 14  1  0
 14 15  1  0
 15 16  1  0
 16 17  1  1
 16 18  1  0
 18 19  1  6
 19 20  1  0
 20 21  1  0
 21 22  2  0
 22 23  1  0
 23 24  1  0
 24 25  1  0
 25 26  1  0
 26 27  1  0
 27 28  1  0
 28 29  1  0
 29 30  2  0
 30 31  1  0
 31 32  2  0
 32 33  1  0
 32 34  1  0
 34 35  2  0
 35 36  1  0
 36 37  2  0
 37 38  1  0
 30 39  1  0
 39 40  2  0
 39 41  1  0
 22 42  1  0
 42 43  2  0
 43 44  1  0
 10  5  1  0
 13 11  1  0
 33 28  2  0
 38 34  1  0
 41 18  1  0
 44 20  2  0
M  END
$$$$
