
     RDKit          3D

 44 49  0  0  0  0  0  0  0  0999 V2000
  -14.7360  -42.8639  -13.0748 C   0  0  0  0  0  0  0  0  0  0  0  0
  -14.2242  -42.9419  -11.6716 C   0  0  0  0  0  0  0  0  0  0  0  0
  -14.0654  -41.5292  -11.1057 C   0  0  0  0  0  0  0  0  0  0  0  0
  -12.8031  -43.5100  -11.7280 C   0  0  0  0  0  0  0  0  0  0  0  0
  -15.0396  -43.7601  -10.7730 C   0  0  0  0  0  0  0  0  0  0  0  0
  -15.4027  -43.3957   -9.4888 C   0  0  0  0  0  0  0  0  0  0  0  0
  -16.1722  -44.2019   -8.6859 C   0  0  0  0  0  0  0  0  0  0  0  0
  -16.5768  -45.3806   -9.1814 N   0  0  0  0  0  0  0  0  0  0  0  0
  -16.2631  -45.8011  -10.4189 C   0  0  0  0  0  0  0  0  0  0  0  0
  -15.4873  -44.9834  -11.2222 C   0  0  0  0  0  0  0  0  0  0  0  0
  -16.5758  -43.8200   -7.2809 C   0  0  0  0  0  0  0  0  0  0  0  0
  -17.8134  -44.6224   -6.7848 C   0  0  0  0  0  0  0  0  0  0  0  0
  -16.4732  -44.8077   -6.2051 C   0  0  0  0  0  0  0  0  0  0  0  0
  -16.7260  -42.4221   -7.1261 N   0  0  0  0  0  0  0  0  0  0  0  0
  -15.5727  -41.6049   -7.0106 C   0  0  0  0  0  0  0  0  0  0  0  0
  -15.9414  -40.2009   -6.7658 C   0  0  1  0  0  0  0  0  0  0  0  0
  -14.8825  -39.5783   -6.0495 O   0  0  0  0  0  0  0  0  0  0  0  0
  -16.2102  -39.3477   -7.9946 C   0  0  2  0  0  0  0  0  0  0  0  0
  -16.6362  -37.9626   -7.5601 C   0  0  0  0  0  0  0  0  0  0  0  0
  -16.4508  -36.9078   -8.5866 C   0  0  0  0  0  0  0  0  0  0  0  0
  -17.3496  -36.1048   -9.2571 C   0  0  0  0  0  0  0  0  0  0  0  0
  -16.8716  -35.2481  -10.2165 C   0  0  0  0  0  0  0  0  0  0  0  0
  -17.6115  -34.3146  -11.1443 C   0  0  0  0  0  0  0  0  0  0  0  0
  -18.1600  -34.9942  -12.3601 C   0  0  0  0  0  0  0  0  0  0  0  0
  -19.6415  -34.8980  -12.5511 C   0  0  0  0  0  0  0  0  0  0  0  0
  -20.4907  -35.1028  -11.3638 C   0  0  0  0  0  0  0  0  0  0  0  0
  -21.1249  -36.3896  -11.2258 N   0  0  0  0  0  0  0  0  0  0  0  0
  -20.7408  -37.5771  -10.5204 C   0  0  0  0  0  0  0  0  0  0  0  0
  -19.5403  -38.2392  -10.4352 C   0  0  0  0  0  0  0  0  0  0  0  0
  -19.4356  -39.3378   -9.6142 C   0  0  0  0  0  0  0  0  0  0  0  0
  -20.5676  -39.7584   -8.8868 C   0  0  0  0  0  0  0  0  0  0  0  0
  -21.7946  -39.1387   -8.9356 C   0  0  0  0  0  0  0  0  0  0  0  0
  -21.8407  -38.0486   -9.7663 C   0  0  0  0  0  0  0  0  0  0  0  0
  -22.9298  -39.6009   -8.1748 C   0  0  0  0  0  0  0  0  0  0  0  0
  -24.1965  -39.6404   -8.5951 N   0  0  0  0  0  0  0  0  0  0  0  0
  -24.9736  -40.1416   -7.5815 C   0  0  0  0  0  0  0  0  0  0  0  0
  -24.1016  -40.3894   -6.5584 C   0  0  0  0  0  0  0  0  0  0  0  0
  -22.9116  -40.0522   -6.9631 O   0  0  0  0  0  0  0  0  0  0  0  0
  -18.2851  -40.2120   -9.2995 C   0  0  0  0  0  0  0  0  0  0  0  0
  -18.5449  -41.5217   -9.2447 O   0  0  0  0  0  0  0  0  0  0  0  0
  -16.9258  -39.9833   -9.0329 N   0  0  0  0  0  0  0  0  0  0  0  0
  -15.4831  -35.1924  -10.5030 C   0  0  0  0  0  0  0  0  0  0  0  0
  -14.5596  -35.9719   -9.8556 C   0  0  0  0  0  0  0  0  0  0  0  0
  -15.0678  -36.8125   -8.9110 C   0  0  0  0  0  0  0  0  0  0  0  0
  1  2  1  0
  2  3  1  0
  2  4  1  0
  2  5  1  0
  5  6  2  0
  6  7  1  0
  7  8  2  0
  8  9  1  0
  9 10  2  0
  7 11  1  0
 11 12  1  0
 12 13  1  0
 11 14  1  0
 14 15  1  0
 15 16  1  0
 16 17  1  6
 16 18  1  0
 18 19  1  1
 19 20  1  0
 20 21  1  0
 21 22  2  0
 22 23  1  0
 23 24  1  0
 24 25  1  0
 25 26  1  0
 26 27  1  0
 27 28  1  0
 28 29  1  0
 29 30  2  0
 30 31  1  0
 31 32  2  0
 32 33  1  0
 32 34  1  0
 34 35  2  0
 35 36  1  0
 36 37  2  0
 37 38  1  0
 30 39  1  0
 39 40  2  0
 39 41  1  0
 22 42  1  0
 42 43  2  0
 43 44  1  0
 10  5  1  0
 13 11  1  0
 33 28  2  0
 38 34  1  0
 41 18  1  0
 44 20  2  0
M  END
$$$$
