
     RDKit          3D

 44 49  0  0  0  0  0  0  0  0999 V2000
  -16.3888  -35.8565  -11.2252 C   0  0  0  0  0  0  0  0  0  0  0  0
  -15.0450  -35.8098  -11.8800 C   0  0  0  0  0  0  0  0  0  0  0  0
  -14.0997  -34.9420  -11.0467 C   0  0  0  0  0  0  0  0  0  0  0  0
  -15.2029  -35.0639  -13.2083 C   0  0  0  0  0  0  0  0  0  0  0  0
  -14.4447  -37.1214  -12.1274 C   0  0  0  0  0  0  0  0  0  0  0  0
  -14.7617  -38.2755  -11.4335 C   0  0  0  0  0  0  0  0  0  0  0  0
  -14.1683  -39.4838  -11.7070 C   0  0  0  0  0  0  0  0  0  0  0  0
  -13.2514  -39.5271  -12.6847 N   0  0  0  0  0  0  0  0  0  0  0  0
  -12.8928  -38.4475  -13.4006 C   0  0  0  0  0  0  0  0  0  0  0  0
  -13.4950  -37.2333  -13.1194 C   0  0  0  0  0  0  0  0  0  0  0  0
  -14.5014  -40.7528  -10.9577 C   0  0  0  0  0  0  0  0  0  0  0  0
  -14.9535  -41.8977  -11.9097 C   0  0  0  0  0  0  0  0  0  0  0  0
  -13.6852  -41.9505  -11.1645 C   0  0  0  0  0  0  0  0  0  0  0  0
  -15.4082  -40.5275   -9.8958 N   0  0  0  0  0  0  0  0  0  0  0  0
  -15.4309  -39.2631   -9.2538 C   0  0  0  0  0  0  0  0  0  0  0  0
  -16.2131  -39.3162   -8.0078 C   0  0  1  0  0  0  0  0  0  0  0  0
  -15.9656  -38.1245   -7.2728 O   0  0  0  0  0  0  0  0  0  0  0  0
  -17.7202  -39.4412   -8.1598 C   0  0  2  0  0  0  0  0  0  0  0  0
  -18.3665  -39.4092   -6.7923 C   0  0  0  0  0  0  0  0  0  0  0  0
  -19.7992  -39.0245   -6.7938 C   0  0  0  0  0  0  0  0  0  0  0  0
  -20.9397  -39.7128   -6.4364 C   0  0  0  0  0  0  0  0  0  0  0  0
  -22.1549  -39.0998   -6.6111 C   0  0  0  0  0  0  0  0  0  0  0  0
  -23.5519  -39.6230   -6.3778 C   0  0  0  0  0  0  0  0  0  0  0  0
  -24.0734  -40.4537   -7.5087 C   0  0  0  0  0  0  0  0  0  0  0  0
  -24.4663  -41.8562   -7.1633 C   0  0  0  0  0  0  0  0  0  0  0  0
  -23.5597  -42.6147   -6.2827 C   0  0  0  0  0  0  0  0  0  0  0  0
  -22.6888  -43.5762   -6.9106 N   0  0  0  0  0  0  0  0  0  0  0  0
  -21.3340  -43.4858   -7.3708 C   0  0  0  0  0  0  0  0  0  0  0  0
  -20.6817  -42.5236   -8.1025 C   0  0  0  0  0  0  0  0  0  0  0  0
  -19.3355  -42.6633   -8.3475 C   0  0  0  0  0  0  0  0  0  0  0  0
  -18.6629  -43.7960   -7.8454 C   0  0  0  0  0  0  0  0  0  0  0  0
  -19.2636  -44.7922   -7.1116 C   0  0  0  0  0  0  0  0  0  0  0  0
  -20.6040  -44.6000   -6.8950 C   0  0  0  0  0  0  0  0  0  0  0  0
  -18.5393  -45.9368   -6.6152 C   0  0  0  0  0  0  0  0  0  0  0  0
  -19.0699  -47.0061   -6.0169 N   0  0  0  0  0  0  0  0  0  0  0  0
  -18.0542  -47.8703   -5.6943 C   0  0  0  0  0  0  0  0  0  0  0  0
  -16.9150  -47.2542   -6.1316 C   0  0  0  0  0  0  0  0  0  0  0  0
  -17.2599  -46.1187   -6.6656 O   0  0  0  0  0  0  0  0  0  0  0  0
  -18.3795  -41.7885   -9.0600 C   0  0  0  0  0  0  0  0  0  0  0  0
  -17.5077  -42.4073   -9.8617 O   0  0  0  0  0  0  0  0  0  0  0  0
  -18.1606  -40.4022   -9.0961 N   0  0  0  0  0  0  0  0  0  0  0  0
  -22.2276  -37.7867   -7.1434 C   0  0  0  0  0  0  0  0  0  0  0  0
  -21.1166  -37.0702   -7.5066 C   0  0  0  0  0  0  0  0  0  0  0  0
  -19.9269  -37.7086   -7.3223 C   0  0  0  0  0  0  0  0  0  0  0  0
  1  2  1  0
  2  3  1  0
  2  4  1  0
  2  5  1  0
  5  6  2  0
  6  7  1  0
  7  8  2  0
  8  9  1  0
  9 10  2  0
  7 11  1  0
 11 12  1  0
 12 13  1  0
 11 14  1  0
 14 15  1  0
 15 16  1  0
 16 17  1  6
 16 18  1  0
 18 19  1  1
 19 20  1  0
 20 21  1  0
 21 22  2  0
 22 23  1  0
 23 24  1  0
 24 25  1  0
 25 26  1  0
 26 27  1  0
 27 28  1  0
 28 29  1  0
 29 30  2  0
 30 31  1  0
 31 32  2  0
 32 33  1  0
 32 34  1  0
 34 35  2  0
 35 36  1  0
 36 37  2  0
 37 38  1  0
 30 39  1  0
 39 40  2  0
 39 41  1  0
 22 42  1  0
 42 43  2  0
 43 44  1  0
 10  5  1  0
 13 11  1  0
 33 28  2  0
 38 34  1  0
 41 18  1  0
 44 20  2  0
M  END
$$$$
