
     RDKit          3D

 44 49  0  0  0  0  0  0  0  0999 V2000
  -11.9190  -36.6458  -12.4910 C   0  0  0  0  0  0  0  0  0  0  0  0
  -12.3610  -37.0251  -11.1134 C   0  0  0  0  0  0  0  0  0  0  0  0
  -13.7065  -36.3639  -10.8076 C   0  0  0  0  0  0  0  0  0  0  0  0
  -11.3756  -36.3991  -10.1222 C   0  0  0  0  0  0  0  0  0  0  0  0
  -12.4385  -38.4673  -10.8767 C   0  0  0  0  0  0  0  0  0  0  0  0
  -12.9093  -39.0497   -9.7135 C   0  0  0  0  0  0  0  0  0  0  0  0
  -12.9623  -40.4117   -9.5429 C   0  0  0  0  0  0  0  0  0  0  0  0
  -12.5383  -41.1886  -10.5505 N   0  0  0  0  0  0  0  0  0  0  0  0
  -12.0683  -40.6941  -11.7086 C   0  0  0  0  0  0  0  0  0  0  0  0
  -12.0179  -39.3207  -11.8734 C   0  0  0  0  0  0  0  0  0  0  0  0
  -13.4714  -41.0638   -8.2787 C   0  0  0  0  0  0  0  0  0  0  0  0
  -13.8570  -42.5552   -8.4992 C   0  0  0  0  0  0  0  0  0  0  0  0
  -12.7087  -42.1551   -7.6698 C   0  0  0  0  0  0  0  0  0  0  0  0
  -14.5002  -40.3128   -7.6635 N   0  0  0  0  0  0  0  0  0  0  0  0
  -15.4311  -39.6117   -8.4716 C   0  0  0  0  0  0  0  0  0  0  0  0
  -16.4237  -38.9060   -7.6446 C   0  0  1  0  0  0  0  0  0  0  0  0
  -16.0742  -37.5283   -7.6037 O   0  0  0  0  0  0  0  0  0  0  0  0
  -17.8693  -38.9854   -8.1074 C   0  0  2  0  0  0  0  0  0  0  0  0
  -18.7151  -38.0484   -7.2734 C   0  0  0  0  0  0  0  0  0  0  0  0
  -19.9962  -37.6452   -7.9033 C   0  0  0  0  0  0  0  0  0  0  0  0
  -21.3098  -37.8650   -7.5450 C   0  0  0  0  0  0  0  0  0  0  0  0
  -22.2998  -37.4113   -8.3800 C   0  0  0  0  0  0  0  0  0  0  0  0
  -23.7990  -37.5629   -8.2850 C   0  0  0  0  0  0  0  0  0  0  0  0
  -24.2981  -38.8792   -8.7943 C   0  0  0  0  0  0  0  0  0  0  0  0
  -25.0608  -39.7136   -7.8133 C   0  0  0  0  0  0  0  0  0  0  0  0
  -24.5213  -39.8106   -6.4450 C   0  0  0  0  0  0  0  0  0  0  0  0
  -23.8046  -41.0144   -6.1069 N   0  0  0  0  0  0  0  0  0  0  0  0
  -22.4078  -41.3368   -6.1291 C   0  0  0  0  0  0  0  0  0  0  0  0
  -21.4332  -41.1056   -7.0690 C   0  0  0  0  0  0  0  0  0  0  0  0
  -20.1354  -41.4690   -6.7948 C   0  0  0  0  0  0  0  0  0  0  0  0
  -19.8422  -42.0762   -5.5566 C   0  0  0  0  0  0  0  0  0  0  0  0
  -20.7757  -42.3363   -4.5806 C   0  0  0  0  0  0  0  0  0  0  0  0
  -22.0509  -41.9507   -4.9058 C   0  0  0  0  0  0  0  0  0  0  0  0
  -20.4349  -42.9602   -3.3253 C   0  0  0  0  0  0  0  0  0  0  0  0
  -19.3592  -43.7144   -3.0868 N   0  0  0  0  0  0  0  0  0  0  0  0
  -19.3959  -44.1189   -1.7762 C   0  0  0  0  0  0  0  0  0  0  0  0
  -20.5385  -43.5663   -1.2686 C   0  0  0  0  0  0  0  0  0  0  0  0
  -21.1110  -42.8944   -2.2248 O   0  0  0  0  0  0  0  0  0  0  0  0
  -18.8938  -41.3159   -7.5835 C   0  0  0  0  0  0  0  0  0  0  0  0
  -18.0664  -42.3651   -7.5793 O   0  0  0  0  0  0  0  0  0  0  0  0
  -18.3545  -40.2854   -8.3698 N   0  0  0  0  0  0  0  0  0  0  0  0
  -21.9714  -36.7289   -9.5797 C   0  0  0  0  0  0  0  0  0  0  0  0
  -20.6784  -36.4888   -9.9673 C   0  0  0  0  0  0  0  0  0  0  0  0
  -19.7204  -36.9542   -9.1172 C   0  0  0  0  0  0  0  0  0  0  0  0
  1  2  1  0
  2  3  1  0
  2  4  1  0
  2  5  1  0
  5  6  2  0
  6  7  1  0
  7  8  2  0
  8  9  1  0
  9 10  2  0
  7 11  1  0
 11 12  1  0
 12 13  1  0
 11 14  1  0
 14 15  1  0
 15 16  1  0
 16 17  1  6
 16 18  1  0
 18 19  1  1
 19 20  1  0
 20 21  1  0
 21 22  2  0
 22 23  1  0
 23 24  1  0
 24 25  1  0
 25 26  1  0
 26 27  1  0
 27 28  1  0
 28 29  1  0
 29 30  2  0
 30 31  1  0
 31 32  2  0
 32 33  1  0
 32 34  1  0
 34 35  2  0
 35 36  1  0
 36 37  2  0
 37 38  1  0
 30 39  1  0
 39 40  2  0
 39 41  1  0
 22 42  1  0
 42 43  2  0
 43 44  1  0
 10  5  1  0
 13 11  1  0
 33 28  2  0
 38 34  1  0
 41 18  1  0
 44 20  2  0
M  END
$$$$
