
     RDKit          3D

 44 49  0  0  0  0  0  0  0  0999 V2000
  -21.1051  -34.3902  -10.0638 C   0  0  0  0  0  0  0  0  0  0  0  0
  -20.0615  -34.1687   -9.0157 C   0  0  0  0  0  0  0  0  0  0  0  0
  -20.7348  -33.9846   -7.6542 C   0  0  0  0  0  0  0  0  0  0  0  0
  -19.3868  -32.8258   -9.3106 C   0  0  0  0  0  0  0  0  0  0  0  0
  -19.0440  -35.2180   -8.9413 C   0  0  0  0  0  0  0  0  0  0  0  0
  -18.9526  -36.1552   -7.9278 C   0  0  0  0  0  0  0  0  0  0  0  0
  -17.9769  -37.1219   -7.9065 C   0  0  0  0  0  0  0  0  0  0  0  0
  -17.0900  -37.1424   -8.9122 N   0  0  0  0  0  0  0  0  0  0  0  0
  -17.1164  -36.2646   -9.9298 C   0  0  0  0  0  0  0  0  0  0  0  0
  -18.1026  -35.2933   -9.9445 C   0  0  0  0  0  0  0  0  0  0  0  0
  -17.8618  -38.1512   -6.8066 C   0  0  0  0  0  0  0  0  0  0  0  0
  -18.3627  -37.6083   -5.4369 C   0  0  0  0  0  0  0  0  0  0  0  0
  -19.0745  -38.6680   -6.1696 C   0  0  0  0  0  0  0  0  0  0  0  0
  -16.5684  -38.7195   -6.7355 N   0  0  0  0  0  0  0  0  0  0  0  0
  -15.6393  -38.4720   -7.7780 C   0  0  0  0  0  0  0  0  0  0  0  0
  -16.0160  -39.1930   -9.0049 C   0  0  1  0  0  0  0  0  0  0  0  0
  -15.2749  -38.6488  -10.0895 O   0  0  0  0  0  0  0  0  0  0  0  0
  -15.7747  -40.6937   -9.0089 C   0  0  2  0  0  0  0  0  0  0  0  0
  -16.2916  -41.2813  -10.3036 C   0  0  0  0  0  0  0  0  0  0  0  0
  -15.7005  -42.5923  -10.6676 C   0  0  0  0  0  0  0  0  0  0  0  0
  -16.2548  -43.8477  -10.8063 C   0  0  0  0  0  0  0  0  0  0  0  0
  -15.4242  -44.9004  -11.0974 C   0  0  0  0  0  0  0  0  0  0  0  0
  -15.7303  -46.3722  -11.2380 C   0  0  0  0  0  0  0  0  0  0  0  0
  -15.7986  -47.0942   -9.9284 C   0  0  0  0  0  0  0  0  0  0  0  0
  -17.0945  -47.7798   -9.6261 C   0  0  0  0  0  0  0  0  0  0  0  0
  -18.3351  -47.0419   -9.9244 C   0  0  0  0  0  0  0  0  0  0  0  0
  -19.0127  -46.4228   -8.8131 N   0  0  0  0  0  0  0  0  0  0  0  0
  -18.9594  -45.0941   -8.2774 C   0  0  0  0  0  0  0  0  0  0  0  0
  -17.9006  -44.2634   -8.0025 C   0  0  0  0  0  0  0  0  0  0  0  0
  -18.1468  -42.9886   -7.5485 C   0  0  0  0  0  0  0  0  0  0  0  0
  -19.4819  -42.5717   -7.3713 C   0  0  0  0  0  0  0  0  0  0  0  0
  -20.5802  -43.3596   -7.6254 C   0  0  0  0  0  0  0  0  0  0  0  0
  -20.2763  -44.6178   -8.0783 C   0  0  0  0  0  0  0  0  0  0  0  0
  -21.9321  -42.8951   -7.4309 C   0  0  0  0  0  0  0  0  0  0  0  0
  -22.8335  -43.4205   -6.5976 N   0  0  0  0  0  0  0  0  0  0  0  0
  -23.9946  -42.6972   -6.7038 C   0  0  0  0  0  0  0  0  0  0  0  0
  -23.7250  -41.7323   -7.6338 C   0  0  0  0  0  0  0  0  0  0  0  0
  -22.4959  -41.8964   -8.0284 O   0  0  0  0  0  0  0  0  0  0  0  0
  -17.2274  -41.8808   -7.2102 C   0  0  0  0  0  0  0  0  0  0  0  0
  -17.5278  -41.1892   -6.1070 O   0  0  0  0  0  0  0  0  0  0  0  0
  -16.0635  -41.3605   -7.7980 N   0  0  0  0  0  0  0  0  0  0  0  0
  -14.0295  -44.6933  -11.2549 C   0  0  0  0  0  0  0  0  0  0  0  0
  -13.4430  -43.4606  -11.1280 C   0  0  0  0  0  0  0  0  0  0  0  0
  -14.2953  -42.4381  -10.8367 C   0  0  0  0  0  0  0  0  0  0  0  0
  1  2  1  0
  2  3  1  0
  2  4  1  0
  2  5  1  0
  5  6  2  0
  6  7  1  0
  7  8  2  0
  8  9  1  0
  9 10  2  0
  7 11  1  0
 11 12  1  0
 12 13  1  0
 11 14  1  0
 14 15  1  0
 15 16  1  0
 16 17  1  6
 16 18  1  0
 18 19  1  6
 19 20  1  0
 20 21  1  0
 21 22  2  0
 22 23  1  0
 23 24  1  0
 24 25  1  0
 25 26  1  0
 26 27  1  0
 27 28  1  0
 28 29  1  0
 29 30  2  0
 30 31  1  0
 31 32  2  0
 32 33  1  0
 32 34  1  0
 34 35  2  0
 35 36  1  0
 36 37  2  0
 37 38  1  0
 30 39  1  0
 39 40  2  0
 39 41  1  0
 22 42  1  0
 42 43  2  0
 43 44  1  0
 10  5  1  0
 13 11  1  0
 33 28  2  0
 38 34  1  0
 41 18  1  0
 44 20  2  0
M  END
$$$$
