
     RDKit          3D

 44 49  0  0  0  0  0  0  0  0999 V2000
  -14.7841  -35.5559  -13.5434 C   0  0  0  0  0  0  0  0  0  0  0  0
  -14.9458  -36.2834  -12.2468 C   0  0  0  0  0  0  0  0  0  0  0  0
  -16.4336  -36.4072  -11.9117 C   0  0  0  0  0  0  0  0  0  0  0  0
  -14.3617  -35.3973  -11.1426 C   0  0  0  0  0  0  0  0  0  0  0  0
  -14.3047  -37.5985  -12.2049 C   0  0  0  0  0  0  0  0  0  0  0  0
  -14.0908  -38.3334  -11.0525 C   0  0  0  0  0  0  0  0  0  0  0  0
  -13.4845  -39.5658  -11.0688 C   0  0  0  0  0  0  0  0  0  0  0  0
  -13.0925  -40.0582  -12.2531 N   0  0  0  0  0  0  0  0  0  0  0  0
  -13.2669  -39.4016  -13.4129 C   0  0  0  0  0  0  0  0  0  0  0  0
  -13.8786  -38.1602  -13.3887 C   0  0  0  0  0  0  0  0  0  0  0  0
  -13.2416  -40.3803   -9.8197 C   0  0  0  0  0  0  0  0  0  0  0  0
  -13.3550  -41.9100  -10.0825 C   0  0  0  0  0  0  0  0  0  0  0  0
  -12.0760  -41.2633   -9.7471 C   0  0  0  0  0  0  0  0  0  0  0  0
  -14.0357  -39.9467   -8.7325 N   0  0  0  0  0  0  0  0  0  0  0  0
  -15.4492  -39.9934   -8.8385 C   0  0  0  0  0  0  0  0  0  0  0  0
  -16.0822  -39.9165   -7.5117 C   0  0  1  0  0  0  0  0  0  0  0  0
  -15.6193  -38.7393   -6.8623 O   0  0  0  0  0  0  0  0  0  0  0  0
  -17.6013  -39.8703   -7.4884 C   0  0  2  0  0  0  0  0  0  0  0  0
  -18.0851  -39.9988   -6.0607 C   0  0  0  0  0  0  0  0  0  0  0  0
  -19.4558  -39.4836   -5.8231 C   0  0  0  0  0  0  0  0  0  0  0  0
  -20.6212  -40.1084   -5.4311 C   0  0  0  0  0  0  0  0  0  0  0  0
  -21.7701  -39.3617   -5.3567 C   0  0  0  0  0  0  0  0  0  0  0  0
  -23.1835  -39.7796   -5.0292 C   0  0  0  0  0  0  0  0  0  0  0  0
  -23.9180  -40.3621   -6.1963 C   0  0  0  0  0  0  0  0  0  0  0  0
  -24.4284  -41.7579   -6.0176 C   0  0  0  0  0  0  0  0  0  0  0  0
  -23.5230  -42.7324   -5.3825 C   0  0  0  0  0  0  0  0  0  0  0  0
  -22.8424  -43.6583   -6.2524 N   0  0  0  0  0  0  0  0  0  0  0  0
  -21.5452  -43.6245   -6.8618 C   0  0  0  0  0  0  0  0  0  0  0  0
  -20.8716  -42.6233   -7.5180 C   0  0  0  0  0  0  0  0  0  0  0  0
  -19.5855  -42.8497   -7.9498 C   0  0  0  0  0  0  0  0  0  0  0  0
  -18.9957  -44.1079   -7.7121 C   0  0  0  0  0  0  0  0  0  0  0  0
  -19.6220  -45.1479   -7.0655 C   0  0  0  0  0  0  0  0  0  0  0  0
  -20.8995  -44.8658   -6.6545 C   0  0  0  0  0  0  0  0  0  0  0  0
  -18.9832  -46.4218   -6.8417 C   0  0  0  0  0  0  0  0  0  0  0  0
  -17.8927  -46.8764   -7.4640 N   0  0  0  0  0  0  0  0  0  0  0  0
  -17.6021  -48.1239   -6.9723 C   0  0  0  0  0  0  0  0  0  0  0  0
  -18.5711  -48.3700   -6.0402 C   0  0  0  0  0  0  0  0  0  0  0  0
  -19.3577  -47.3339   -6.0049 O   0  0  0  0  0  0  0  0  0  0  0  0
  -18.6200  -41.9665   -8.6388 C   0  0  0  0  0  0  0  0  0  0  0  0
  -17.9183  -42.5277   -9.6279 O   0  0  0  0  0  0  0  0  0  0  0  0
  -18.2492  -40.6201   -8.4945 N   0  0  0  0  0  0  0  0  0  0  0  0
  -21.7502  -37.9787   -5.6729 C   0  0  0  0  0  0  0  0  0  0  0  0
  -20.6113  -37.3226   -6.0627 C   0  0  0  0  0  0  0  0  0  0  0  0
  -19.4894  -38.0933   -6.1284 C   0  0  0  0  0  0  0  0  0  0  0  0
  1  2  1  0
  2  3  1  0
  2  4  1  0
  2  5  1  0
  5  6  2  0
  6  7  1  0
  7  8  2  0
  8  9  1  0
  9 10  2  0
  7 11  1  0
 11 12  1  0
 12 13  1  0
 11 14  1  0
 14 15  1  0
 15 16  1  0
 16 17  1  6
 16 18  1  0
 18 19  1  1
 19 20  1  0
 20 21  1  0
 21 22  2  0
 22 23  1  0
 23 24  1  0
 24 25  1  0
 25 26  1  0
 26 27  1  0
 27 28  1  0
 28 29  1  0
 29 30  2  0
 30 31  1  0
 31 32  2  0
 32 33  1  0
 32 34  1  0
 34 35  2  0
 35 36  1  0
 36 37  2  0
 37 38  1  0
 30 39  1  0
 39 40  2  0
 39 41  1  0
 22 42  1  0
 42 43  2  0
 43 44  1  0
 10  5  1  0
 13 11  1  0
 33 28  2  0
 38 34  1  0
 41 18  1  0
 44 20  2  0
M  END
$$$$
