
     RDKit          3D

 44 49  0  0  0  0  0  0  0  0999 V2000
  -20.7447  -35.1829   -9.7096 C   0  0  0  0  0  0  0  0  0  0  0  0
  -19.8028  -36.2976  -10.0368 C   0  0  0  0  0  0  0  0  0  0  0  0
  -18.4988  -35.7197  -10.5904 C   0  0  0  0  0  0  0  0  0  0  0  0
  -20.4103  -37.0916  -11.1970 C   0  0  0  0  0  0  0  0  0  0  0  0
  -19.5237  -37.2032   -8.9214 C   0  0  0  0  0  0  0  0  0  0  0  0
  -18.2932  -37.3341   -8.3029 C   0  0  0  0  0  0  0  0  0  0  0  0
  -18.0849  -38.1998   -7.2569 C   0  0  0  0  0  0  0  0  0  0  0  0
  -19.1228  -38.9361   -6.8337 N   0  0  0  0  0  0  0  0  0  0  0  0
  -20.3462  -38.8625   -7.3858 C   0  0  0  0  0  0  0  0  0  0  0  0
  -20.5486  -37.9879   -8.4394 C   0  0  0  0  0  0  0  0  0  0  0  0
  -16.7474  -38.3563   -6.5719 C   0  0  0  0  0  0  0  0  0  0  0  0
  -16.2887  -37.0461   -5.8686 C   0  0  0  0  0  0  0  0  0  0  0  0
  -16.6648  -38.2525   -5.1139 C   0  0  0  0  0  0  0  0  0  0  0  0
  -15.7625  -38.8947   -7.4327 N   0  0  0  0  0  0  0  0  0  0  0  0
  -15.5513  -40.2968   -7.4608 C   0  0  0  0  0  0  0  0  0  0  0  0
  -16.0665  -40.8846   -8.7083 C   0  0  1  0  0  0  0  0  0  0  0  0
  -15.0879  -40.7067   -9.7245 O   0  0  0  0  0  0  0  0  0  0  0  0
  -16.4042  -42.3660   -8.6693 C   0  0  2  0  0  0  0  0  0  0  0  0
  -17.3978  -42.6829   -9.7653 C   0  0  0  0  0  0  0  0  0  0  0  0
  -17.4386  -44.1095  -10.1699 C   0  0  0  0  0  0  0  0  0  0  0  0
  -18.4325  -45.0626  -10.0917 C   0  0  0  0  0  0  0  0  0  0  0  0
  -18.1455  -46.3413  -10.4987 C   0  0  0  0  0  0  0  0  0  0  0  0
  -18.9969  -47.5877  -10.4660 C   0  0  0  0  0  0  0  0  0  0  0  0
  -19.0079  -48.2668   -9.1319 C   0  0  0  0  0  0  0  0  0  0  0  0
  -20.3507  -48.4264   -8.4901 C   0  0  0  0  0  0  0  0  0  0  0  0
  -21.2644  -47.2706   -8.5379 C   0  0  0  0  0  0  0  0  0  0  0  0
  -21.3756  -46.4733   -7.3425 N   0  0  0  0  0  0  0  0  0  0  0  0
  -20.7084  -45.2757   -6.9233 C   0  0  0  0  0  0  0  0  0  0  0  0
  -19.3853  -44.9085   -6.9594 C   0  0  0  0  0  0  0  0  0  0  0  0
  -19.0266  -43.6467   -6.5458 C   0  0  0  0  0  0  0  0  0  0  0  0
  -20.0283  -42.7660   -6.0891 C   0  0  0  0  0  0  0  0  0  0  0  0
  -21.3661  -43.0794   -6.0264 C   0  0  0  0  0  0  0  0  0  0  0  0
  -21.6667  -44.3474   -6.4535 C   0  0  0  0  0  0  0  0  0  0  0  0
  -22.3612  -42.1488   -5.5521 C   0  0  0  0  0  0  0  0  0  0  0  0
  -22.3824  -41.5612   -4.3533 N   0  0  0  0  0  0  0  0  0  0  0  0
  -23.4865  -40.7491   -4.2887 C   0  0  0  0  0  0  0  0  0  0  0  0
  -24.1015  -40.8933   -5.5010 C   0  0  0  0  0  0  0  0  0  0  0  0
  -23.3955  -41.7293   -6.2052 O   0  0  0  0  0  0  0  0  0  0  0  0
  -17.7111  -42.9722   -6.5061 C   0  0  0  0  0  0  0  0  0  0  0  0
  -17.4590  -42.2483   -5.4115 O   0  0  0  0  0  0  0  0  0  0  0  0
  -16.6166  -42.9089   -7.3831 N   0  0  0  0  0  0  0  0  0  0  0  0
  -16.8553  -46.6661  -10.9915 C   0  0  0  0  0  0  0  0  0  0  0  0
  -15.8437  -45.7458  -11.0873 C   0  0  0  0  0  0  0  0  0  0  0  0
  -16.1613  -44.4870  -10.6730 C   0  0  0  0  0  0  0  0  0  0  0  0
  1  2  1  0
  2  3  1  0
  2  4  1  0
  2  5  1  0
  5  6  2  0
  6  7  1  0
  7  8  2  0
  8  9  1  0
  9 10  2  0
  7 11  1  0
 11 12  1  0
 12 13  1  0
 11 14  1  0
 14 15  1  0
 15 16  1  0
 16 17  1  6
 16 18  1  0
 18 19  1  6
 19 20  1  0
 20 21  1  0
 21 22  2  0
 22 23  1  0
 23 24  1  0
 24 25  1  0
 25 26  1  0
 26 27  1  0
 27 28  1  0
 28 29  1  0
 29 30  2  0
 30 31  1  0
 31 32  2  0
 32 33  1  0
 32 34  1  0
 34 35  2  0
 35 36  1  0
 36 37  2  0
 37 38  1  0
 30 39  1  0
 39 40  2  0
 39 41  1  0
 22 42  1  0
 42 43  2  0
 43 44  1  0
 10  5  1  0
 13 11  1  0
 33 28  2  0
 38 34  1  0
 41 18  1  0
 44 20  2  0
M  END
$$$$
