
     RDKit          3D

 44 49  0  0  0  0  0  0  0  0999 V2000
  -12.8065  -35.3298  -11.0399 C   0  0  0  0  0  0  0  0  0  0  0  0
  -13.8834  -35.8708  -11.9256 C   0  0  0  0  0  0  0  0  0  0  0  0
  -13.8413  -35.1556  -13.2776 C   0  0  0  0  0  0  0  0  0  0  0  0
  -15.2298  -35.4789  -11.3099 C   0  0  0  0  0  0  0  0  0  0  0  0
  -13.8399  -37.3212  -12.1169 C   0  0  0  0  0  0  0  0  0  0  0  0
  -13.6022  -38.2409  -11.1112 C   0  0  0  0  0  0  0  0  0  0  0  0
  -13.5734  -39.5942  -11.3448 C   0  0  0  0  0  0  0  0  0  0  0  0
  -13.7854  -40.0206  -12.5985 N   0  0  0  0  0  0  0  0  0  0  0  0
  -14.0224  -39.1864  -13.6254 C   0  0  0  0  0  0  0  0  0  0  0  0
  -14.0499  -37.8240  -13.3824 C   0  0  0  0  0  0  0  0  0  0  0  0
  -13.3132  -40.6117  -10.2586 C   0  0  0  0  0  0  0  0  0  0  0  0
  -13.3151  -42.0691  -10.8039 C   0  0  0  0  0  0  0  0  0  0  0  0
  -12.0933  -41.4200  -10.3017 C   0  0  0  0  0  0  0  0  0  0  0  0
  -14.1668  -40.4382   -9.1441 N   0  0  0  0  0  0  0  0  0  0  0  0
  -15.0752  -39.3493   -9.1237 C   0  0  0  0  0  0  0  0  0  0  0  0
  -15.8627  -39.3404   -7.8800 C   0  0  1  0  0  0  0  0  0  0  0  0
  -15.6784  -38.0829   -7.2424 O   0  0  0  0  0  0  0  0  0  0  0  0
  -17.3610  -39.5504   -8.0263 C   0  0  2  0  0  0  0  0  0  0  0  0
  -18.0465  -39.1956   -6.7252 C   0  0  0  0  0  0  0  0  0  0  0  0
  -19.4886  -38.8723   -6.8537 C   0  0  0  0  0  0  0  0  0  0  0  0
  -20.6195  -39.4859   -6.3570 C   0  0  0  0  0  0  0  0  0  0  0  0
  -21.8456  -38.9783   -6.7064 C   0  0  0  0  0  0  0  0  0  0  0  0
  -23.2338  -39.4723   -6.3769 C   0  0  0  0  0  0  0  0  0  0  0  0
  -23.7000  -40.5790   -7.2707 C   0  0  0  0  0  0  0  0  0  0  0  0
  -24.0640  -41.8610   -6.5892 C   0  0  0  0  0  0  0  0  0  0  0  0
  -23.1624  -42.3413   -5.5266 C   0  0  0  0  0  0  0  0  0  0  0  0
  -22.2480  -43.4004   -5.8722 N   0  0  0  0  0  0  0  0  0  0  0  0
  -20.8837  -43.3836   -6.3123 C   0  0  0  0  0  0  0  0  0  0  0  0
  -20.2374  -42.6162   -7.2504 C   0  0  0  0  0  0  0  0  0  0  0  0
  -18.8814  -42.7679   -7.4243 C   0  0  0  0  0  0  0  0  0  0  0  0
  -18.1926  -43.7135   -6.6377 C   0  0  0  0  0  0  0  0  0  0  0  0
  -18.7865  -44.5117   -5.6878 C   0  0  0  0  0  0  0  0  0  0  0  0
  -20.1372  -44.3162   -5.5547 C   0  0  0  0  0  0  0  0  0  0  0  0
  -18.0455  -45.4685   -4.9027 C   0  0  0  0  0  0  0  0  0  0  0  0
  -18.3715  -45.9099   -3.6854 N   0  0  0  0  0  0  0  0  0  0  0  0
  -17.4166  -46.8081   -3.2804 C   0  0  0  0  0  0  0  0  0  0  0  0
  -16.5256  -46.8661   -4.3156 C   0  0  0  0  0  0  0  0  0  0  0  0
  -16.9456  -46.0568   -5.2441 O   0  0  0  0  0  0  0  0  0  0  0  0
  -17.9299  -42.0699   -8.3155 C   0  0  0  0  0  0  0  0  0  0  0  0
  -17.0190  -42.8415   -8.9159 O   0  0  0  0  0  0  0  0  0  0  0  0
  -17.7481  -40.7311   -8.6973 N   0  0  0  0  0  0  0  0  0  0  0  0
  -21.9391  -37.8455   -7.5555 C   0  0  0  0  0  0  0  0  0  0  0  0
  -20.8382  -37.2071   -8.0655 C   0  0  0  0  0  0  0  0  0  0  0  0
  -19.6371  -37.7378   -7.7010 C   0  0  0  0  0  0  0  0  0  0  0  0
  1  2  1  0
  2  3  1  0
  2  4  1  0
  2  5  1  0
  5  6  2  0
  6  7  1  0
  7  8  2  0
  8  9  1  0
  9 10  2  0
  7 11  1  0
 11 12  1  0
 12 13  1  0
 11 14  1  0
 14 15  1  0
 15 16  1  0
 16 17  1  6
 16 18  1  0
 18 19  1  1
 19 20  1  0
 20 21  1  0
 21 22  2  0
 22 23  1  0
 23 24  1  0
 24 25  1  0
 25 26  1  0
 26 27  1  0
 27 28  1  0
 28 29  1  0
 29 30  2  0
 30 31  1  0
 31 32  2  0
 32 33  1  0
 32 34  1  0
 34 35  2  0
 35 36  1  0
 36 37  2  0
 37 38  1  0
 30 39  1  0
 39 40  2  0
 39 41  1  0
 22 42  1  0
 42 43  2  0
 43 44  1  0
 10  5  1  0
 13 11  1  0
 33 28  2  0
 38 34  1  0
 41 18  1  0
 44 20  2  0
M  END
$$$$
