
     RDKit          3D

 44 49  0  0  0  0  0  0  0  0999 V2000
  -13.1681  -35.3441  -11.6322 C   0  0  0  0  0  0  0  0  0  0  0  0
  -11.9191  -36.1636  -11.7048 C   0  0  0  0  0  0  0  0  0  0  0  0
  -10.9977  -35.7963  -10.5398 C   0  0  0  0  0  0  0  0  0  0  0  0
  -11.1581  -35.7374  -12.9637 C   0  0  0  0  0  0  0  0  0  0  0  0
  -12.1433  -37.6095  -11.7384 C   0  0  0  0  0  0  0  0  0  0  0  0
  -13.2892  -38.2390  -11.2862 C   0  0  0  0  0  0  0  0  0  0  0  0
  -13.4497  -39.6021  -11.3421 C   0  0  0  0  0  0  0  0  0  0  0  0
  -12.4495  -40.3325  -11.8565 N   0  0  0  0  0  0  0  0  0  0  0  0
  -11.3079  -39.7907  -12.3148 C   0  0  0  0  0  0  0  0  0  0  0  0
  -11.1533  -38.4165  -12.2553 C   0  0  0  0  0  0  0  0  0  0  0  0
  -14.6934  -40.3053  -10.8508 C   0  0  0  0  0  0  0  0  0  0  0  0
  -15.2395  -41.3294  -11.8875 C   0  0  0  0  0  0  0  0  0  0  0  0
  -14.6582  -41.7475  -10.6015 C   0  0  0  0  0  0  0  0  0  0  0  0
  -15.6802  -39.3986  -10.3982 N   0  0  0  0  0  0  0  0  0  0  0  0
  -16.9899  -39.8705  -10.1274 C   0  0  0  0  0  0  0  0  0  0  0  0
  -17.3170  -39.7331   -8.6987 C   0  0  1  0  0  0  0  0  0  0  0  0
  -16.9530  -38.4240   -8.2799 O   0  0  0  0  0  0  0  0  0  0  0  0
  -18.7740  -39.9345   -8.3157 C   0  0  2  0  0  0  0  0  0  0  0  0
  -18.8894  -40.0206   -6.8097 C   0  0  0  0  0  0  0  0  0  0  0  0
  -20.2396  -39.7187   -6.2743 C   0  0  0  0  0  0  0  0  0  0  0  0
  -21.1543  -40.4909   -5.5892 C   0  0  0  0  0  0  0  0  0  0  0  0
  -22.3706  -39.9389   -5.2750 C   0  0  0  0  0  0  0  0  0  0  0  0
  -23.5743  -40.5537   -4.6021 C   0  0  0  0  0  0  0  0  0  0  0  0
  -24.4388  -41.3441   -5.5343 C   0  0  0  0  0  0  0  0  0  0  0  0
  -24.6371  -42.7847   -5.1795 C   0  0  0  0  0  0  0  0  0  0  0  0
  -23.4517  -43.5413   -4.7375 C   0  0  0  0  0  0  0  0  0  0  0  0
  -22.8326  -44.4127   -5.7042 N   0  0  0  0  0  0  0  0  0  0  0  0
  -21.7354  -44.2180   -6.6063 C   0  0  0  0  0  0  0  0  0  0  0  0
  -21.4189  -43.1785   -7.4465 C   0  0  0  0  0  0  0  0  0  0  0  0
  -20.2456  -43.2265   -8.1625 C   0  0  0  0  0  0  0  0  0  0  0  0
  -19.4019  -44.3469   -8.0187 C   0  0  0  0  0  0  0  0  0  0  0  0
  -19.6685  -45.4176   -7.1975 C   0  0  0  0  0  0  0  0  0  0  0  0
  -20.8483  -45.3152   -6.5061 C   0  0  0  0  0  0  0  0  0  0  0  0
  -18.7783  -46.5465   -7.0782 C   0  0  0  0  0  0  0  0  0  0  0  0
  -18.2484  -47.2420   -8.0874 N   0  0  0  0  0  0  0  0  0  0  0  0
  -17.4591  -48.2338   -7.5623 C   0  0  0  0  0  0  0  0  0  0  0  0
  -17.5562  -48.0814   -6.2073 C   0  0  0  0  0  0  0  0  0  0  0  0
  -18.3459  -47.0727   -5.9789 O   0  0  0  0  0  0  0  0  0  0  0  0
  -19.6360  -42.2579   -9.0991 C   0  0  0  0  0  0  0  0  0  0  0  0
  -19.0890  -42.7774  -10.2021 O   0  0  0  0  0  0  0  0  0  0  0  0
  -19.4890  -40.8617   -9.1052 N   0  0  0  0  0  0  0  0  0  0  0  0
  -22.6708  -38.6027   -5.6457 C   0  0  0  0  0  0  0  0  0  0  0  0
  -21.7865  -37.8038   -6.3236 C   0  0  0  0  0  0  0  0  0  0  0  0
  -20.5898  -38.3832   -6.6219 C   0  0  0  0  0  0  0  0  0  0  0  0
  1  2  1  0
  2  3  1  0
  2  4  1  0
  2  5  1  0
  5  6  2  0
  6  7  1  0
  7  8  2  0
  8  9  1  0
  9 10  2  0
  7 11  1  0
 11 12  1  0
 12 13  1  0
 11 14  1  0
 14 15  1  0
 15 16  1  0
 16 17  1  6
 16 18  1  0
 18 19  1  1
 19 20  1  0
 20 21  1  0
 21 22  2  0
 22 23  1  0
 23 24  1  0
 24 25  1  0
 25 26  1  0
 26 27  1  0
 27 28  1  0
 28 29  1  0
 29 30  2  0
 30 31  1  0
 31 32  2  0
 32 33  1  0
 32 34  1  0
 34 35  2  0
 35 36  1  0
 36 37  2  0
 37 38  1  0
 30 39  1  0
 39 40  2  0
 39 41  1  0
 22 42  1  0
 42 43  2  0
 43 44  1  0
 10  5  1  0
 13 11  1  0
 33 28  2  0
 38 34  1  0
 41 18  1  0
 44 20  2  0
M  END
$$$$
