
     RDKit          3D

 44 49  0  0  0  0  0  0  0  0999 V2000
  -12.7211  -35.7401  -10.6338 C   0  0  0  0  0  0  0  0  0  0  0  0
  -12.0824  -36.6535  -11.6311 C   0  0  0  0  0  0  0  0  0  0  0  0
  -10.7895  -37.2256  -11.0463 C   0  0  0  0  0  0  0  0  0  0  0  0
  -11.6369  -35.7998  -12.8220 C   0  0  0  0  0  0  0  0  0  0  0  0
  -12.9476  -37.7348  -12.1046 C   0  0  0  0  0  0  0  0  0  0  0  0
  -13.5644  -38.6647  -11.2868 C   0  0  0  0  0  0  0  0  0  0  0  0
  -14.3694  -39.6608  -11.7835 C   0  0  0  0  0  0  0  0  0  0  0  0
  -14.5524  -39.7183  -13.1108 N   0  0  0  0  0  0  0  0  0  0  0  0
  -13.9859  -38.8501  -13.9663 C   0  0  0  0  0  0  0  0  0  0  0  0
  -13.1760  -37.8490  -13.4586 C   0  0  0  0  0  0  0  0  0  0  0  0
  -15.0486  -40.6851  -10.9048 C   0  0  0  0  0  0  0  0  0  0  0  0
  -16.5701  -40.8056  -11.2084 C   0  0  0  0  0  0  0  0  0  0  0  0
  -15.6211  -41.8900  -11.5081 C   0  0  0  0  0  0  0  0  0  0  0  0
  -14.7741  -40.4823   -9.5321 N   0  0  0  0  0  0  0  0  0  0  0  0
  -15.3711  -39.3884   -8.8552 C   0  0  0  0  0  0  0  0  0  0  0  0
  -16.1484  -39.8463   -7.6920 C   0  0  1  0  0  0  0  0  0  0  0  0
  -15.8754  -38.9767   -6.6006 O   0  0  0  0  0  0  0  0  0  0  0  0
  -17.6583  -39.8885   -7.8612 C   0  0  2  0  0  0  0  0  0  0  0  0
  -18.3166  -39.8605   -6.4993 C   0  0  0  0  0  0  0  0  0  0  0  0
  -19.7274  -39.4019   -6.5033 C   0  0  0  0  0  0  0  0  0  0  0  0
  -20.9057  -40.0395   -6.1758 C   0  0  0  0  0  0  0  0  0  0  0  0
  -22.0856  -39.3596   -6.3445 C   0  0  0  0  0  0  0  0  0  0  0  0
  -23.5102  -39.8156   -6.1387 C   0  0  0  0  0  0  0  0  0  0  0  0
  -24.0620  -40.5867   -7.2971 C   0  0  0  0  0  0  0  0  0  0  0  0
  -24.5306  -41.9758   -6.9947 C   0  0  0  0  0  0  0  0  0  0  0  0
  -23.6738  -42.8043   -6.1273 C   0  0  0  0  0  0  0  0  0  0  0  0
  -22.8472  -43.7922   -6.7738 N   0  0  0  0  0  0  0  0  0  0  0  0
  -21.4848  -43.7598   -7.2187 C   0  0  0  0  0  0  0  0  0  0  0  0
  -20.7757  -42.8131   -7.9173 C   0  0  0  0  0  0  0  0  0  0  0  0
  -19.4361  -43.0159   -8.1537 C   0  0  0  0  0  0  0  0  0  0  0  0
  -18.8283  -44.1954   -7.6772 C   0  0  0  0  0  0  0  0  0  0  0  0
  -19.4876  -45.1788   -6.9772 C   0  0  0  0  0  0  0  0  0  0  0  0
  -20.8185  -44.9231   -6.7676 C   0  0  0  0  0  0  0  0  0  0  0  0
  -18.8287  -46.3727   -6.5063 C   0  0  0  0  0  0  0  0  0  0  0  0
  -19.0318  -46.9732   -5.3311 N   0  0  0  0  0  0  0  0  0  0  0  0
  -18.2165  -48.0745   -5.2611 C   0  0  0  0  0  0  0  0  0  0  0  0
  -17.5342  -48.0839   -6.4455 C   0  0  0  0  0  0  0  0  0  0  0  0
  -17.9344  -47.0588   -7.1401 O   0  0  0  0  0  0  0  0  0  0  0  0
  -18.4285  -42.1728   -8.8327 C   0  0  0  0  0  0  0  0  0  0  0  0
  -17.5814  -42.8140   -9.6433 O   0  0  0  0  0  0  0  0  0  0  0  0
  -18.1378  -40.7993   -8.8280 N   0  0  0  0  0  0  0  0  0  0  0  0
  -22.0846  -38.0303   -6.8404 C   0  0  0  0  0  0  0  0  0  0  0  0
  -20.9342  -37.3629   -7.1733 C   0  0  0  0  0  0  0  0  0  0  0  0
  -19.7811  -38.0672   -6.9960 C   0  0  0  0  0  0  0  0  0  0  0  0
  1  2  1  0
  2  3  1  0
  2  4  1  0
  2  5  1  0
  5  6  2  0
  6  7  1  0
  7  8  2  0
  8  9  1  0
  9 10  2  0
  7 11  1  0
 11 12  1  0
 12 13  1  0
 11 14  1  0
 14 15  1  0
 15 16  1  0
 16 17  1  1
 16 18  1  0
 18 19  1  1
 19 20  1  0
 20 21  1  0
 21 22  2  0
 22 23  1  0
 23 24  1  0
 24 25  1  0
 25 26  1  0
 26 27  1  0
 27 28  1  0
 28 29  1  0
 29 30  2  0
 30 31  1  0
 31 32  2  0
 32 33  1  0
 32 34  1  0
 34 35  2  0
 35 36  1  0
 36 37  2  0
 37 38  1  0
 30 39  1  0
 39 40  2  0
 39 41  1  0
 22 42  1  0
 42 43  2  0
 43 44  1  0
 10  5  1  0
 13 11  1  0
 33 28  2  0
 38 34  1  0
 41 18  1  0
 44 20  2  0
M  END
$$$$
