
     RDKit          3D

 44 49  0  0  0  0  0  0  0  0999 V2000
  -20.1185  -45.8291   -7.7753 C   0  0  0  0  0  0  0  0  0  0  0  0
  -19.4185  -45.4845   -9.0512 C   0  0  0  0  0  0  0  0  0  0  0  0
  -19.9172  -44.1299   -9.5586 C   0  0  0  0  0  0  0  0  0  0  0  0
  -19.8645  -46.4953  -10.1118 C   0  0  0  0  0  0  0  0  0  0  0  0
  -17.9576  -45.4865   -8.9614 C   0  0  0  0  0  0  0  0  0  0  0  0
  -17.1561  -44.3744   -9.1472 C   0  0  0  0  0  0  0  0  0  0  0  0
  -15.7871  -44.4307   -9.0501 C   0  0  0  0  0  0  0  0  0  0  0  0
  -15.2251  -45.6144   -8.7645 N   0  0  0  0  0  0  0  0  0  0  0  0
  -15.9394  -46.7365   -8.5714 C   0  0  0  0  0  0  0  0  0  0  0  0
  -17.3185  -46.6721   -8.6707 C   0  0  0  0  0  0  0  0  0  0  0  0
  -14.8973  -43.2265   -9.2520 C   0  0  0  0  0  0  0  0  0  0  0  0
  -13.4626  -43.4539   -8.6941 C   0  0  0  0  0  0  0  0  0  0  0  0
  -13.7339  -43.3265  -10.1351 C   0  0  0  0  0  0  0  0  0  0  0  0
  -15.4914  -42.0337   -8.7775 N   0  0  0  0  0  0  0  0  0  0  0  0
  -14.7086  -41.1103   -8.0387 C   0  0  0  0  0  0  0  0  0  0  0  0
  -15.5205  -39.9661   -7.5928 C   0  0  1  0  0  0  0  0  0  0  0  0
  -14.6834  -38.8181   -7.5362 O   0  0  0  0  0  0  0  0  0  0  0  0
  -16.7146  -39.6045   -8.4609 C   0  0  2  0  0  0  0  0  0  0  0  0
  -17.2406  -38.2468   -8.0499 C   0  0  0  0  0  0  0  0  0  0  0  0
  -18.0462  -37.5557   -9.0863 C   0  0  0  0  0  0  0  0  0  0  0  0
  -19.3703  -37.1714   -9.1214 C   0  0  0  0  0  0  0  0  0  0  0  0
  -19.8532  -36.5942  -10.2689 C   0  0  0  0  0  0  0  0  0  0  0  0
  -21.2510  -36.1425  -10.6178 C   0  0  0  0  0  0  0  0  0  0  0  0
  -22.1372  -37.2548  -11.0851 C   0  0  0  0  0  0  0  0  0  0  0  0
  -23.3837  -37.4775  -10.2868 C   0  0  0  0  0  0  0  0  0  0  0  0
  -23.2621  -37.4374   -8.8183 C   0  0  0  0  0  0  0  0  0  0  0  0
  -23.2278  -38.7025   -8.1288 N   0  0  0  0  0  0  0  0  0  0  0  0
  -22.1394  -39.5221   -7.6828 C   0  0  0  0  0  0  0  0  0  0  0  0
  -20.9757  -39.9088   -8.3016 C   0  0  0  0  0  0  0  0  0  0  0  0
  -20.0583  -40.6565   -7.6008 C   0  0  0  0  0  0  0  0  0  0  0  0
  -20.3417  -41.0114   -6.2661 C   0  0  0  0  0  0  0  0  0  0  0  0
  -21.4900  -40.6573   -5.5970 C   0  0  0  0  0  0  0  0  0  0  0  0
  -22.3666  -39.9107   -6.3418 C   0  0  0  0  0  0  0  0  0  0  0  0
  -21.7427  -41.0409   -4.2295 C   0  0  0  0  0  0  0  0  0  0  0  0
  -21.5736  -42.2588   -3.7088 N   0  0  0  0  0  0  0  0  0  0  0  0
  -21.9218  -42.2147   -2.3824 C   0  0  0  0  0  0  0  0  0  0  0  0
  -22.2992  -40.9199   -2.1598 C   0  0  0  0  0  0  0  0  0  0  0  0
  -22.1739  -40.2734   -3.2822 O   0  0  0  0  0  0  0  0  0  0  0  0
  -18.7287  -41.1770   -7.9855 C   0  0  0  0  0  0  0  0  0  0  0  0
  -18.4559  -42.4261   -7.5968 O   0  0  0  0  0  0  0  0  0  0  0  0
  -17.6374  -40.6479   -8.6929 N   0  0  0  0  0  0  0  0  0  0  0  0
  -19.0025  -36.3967  -11.3870 C   0  0  0  0  0  0  0  0  0  0  0  0
  -17.6812  -36.7622  -11.3884 C   0  0  0  0  0  0  0  0  0  0  0  0
  -17.2346  -37.3342  -10.2350 C   0  0  0  0  0  0  0  0  0  0  0  0
  1  2  1  0
  2  3  1  0
  2  4  1  0
  2  5  1  0
  5  6  2  0
  6  7  1  0
  7  8  2  0
  8  9  1  0
  9 10  2  0
  7 11  1  0
 11 12  1  0
 12 13  1  0
 11 14  1  0
 14 15  1  0
 15 16  1  0
 16 17  1  6
 16 18  1  0
 18 19  1  1
 19 20  1  0
 20 21  1  0
 21 22  2  0
 22 23  1  0
 23 24  1  0
 24 25  1  0
 25 26  1  0
 26 27  1  0
 27 28  1  0
 28 29  1  0
 29 30  2  0
 30 31  1  0
 31 32  2  0
 32 33  1  0
 32 34  1  0
 34 35  2  0
 35 36  1  0
 36 37  2  0
 37 38  1  0
 30 39  1  0
 39 40  2  0
 39 41  1  0
 22 42  1  0
 42 43  2  0
 43 44  1  0
 10  5  1  0
 13 11  1  0
 33 28  2  0
 38 34  1  0
 41 18  1  0
 44 20  2  0
M  END
$$$$
