
     RDKit          3D

 44 49  0  0  0  0  0  0  0  0999 V2000
   -9.1169  -41.6956  -10.1217 C   0  0  0  0  0  0  0  0  0  0  0  0
  -10.5352  -41.5268  -10.5653 C   0  0  0  0  0  0  0  0  0  0  0  0
  -10.7023  -42.1003  -11.9740 C   0  0  0  0  0  0  0  0  0  0  0  0
  -10.7986  -40.0254  -10.7132 C   0  0  0  0  0  0  0  0  0  0  0  0
  -11.5274  -42.1076   -9.6596 C   0  0  0  0  0  0  0  0  0  0  0  0
  -12.6594  -41.4530   -9.2082 C   0  0  0  0  0  0  0  0  0  0  0  0
  -13.5612  -42.0456   -8.3582 C   0  0  0  0  0  0  0  0  0  0  0  0
  -13.3192  -43.3039   -7.9625 N   0  0  0  0  0  0  0  0  0  0  0  0
  -12.2412  -44.0018   -8.3595 C   0  0  0  0  0  0  0  0  0  0  0  0
  -11.3369  -43.3981   -9.2160 C   0  0  0  0  0  0  0  0  0  0  0  0
  -14.8010  -41.3443   -7.8543 C   0  0  0  0  0  0  0  0  0  0  0  0
  -15.5943  -40.6536   -9.0010 C   0  0  0  0  0  0  0  0  0  0  0  0
  -16.1212  -41.8191   -8.2727 C   0  0  0  0  0  0  0  0  0  0  0  0
  -14.5248  -40.4754   -6.7729 N   0  0  0  0  0  0  0  0  0  0  0  0
  -15.3025  -39.3013   -6.6050 C   0  0  0  0  0  0  0  0  0  0  0  0
  -15.2146  -38.4342   -7.7914 C   0  0  1  0  0  0  0  0  0  0  0  0
  -14.2535  -38.9883   -8.6807 O   0  0  0  0  0  0  0  0  0  0  0  0
  -16.4967  -38.2410   -8.5847 C   0  0  2  0  0  0  0  0  0  0  0  0
  -17.4316  -37.3350   -7.8141 C   0  0  0  0  0  0  0  0  0  0  0  0
  -18.4664  -36.6667   -8.6406 C   0  0  0  0  0  0  0  0  0  0  0  0
  -19.8428  -36.7550   -8.6446 C   0  0  0  0  0  0  0  0  0  0  0  0
  -20.5406  -36.0461   -9.5899 C   0  0  0  0  0  0  0  0  0  0  0  0
  -22.0224  -36.0016   -9.8762 C   0  0  0  0  0  0  0  0  0  0  0  0
  -22.5007  -37.1424  -10.7193 C   0  0  0  0  0  0  0  0  0  0  0  0
  -23.5638  -38.0037  -10.1124 C   0  0  0  0  0  0  0  0  0  0  0  0
  -23.4003  -38.3829   -8.6974 C   0  0  0  0  0  0  0  0  0  0  0  0
  -22.9121  -39.7118   -8.4273 N   0  0  0  0  0  0  0  0  0  0  0  0
  -21.5931  -40.2171   -8.1819 C   0  0  0  0  0  0  0  0  0  0  0  0
  -20.3946  -39.9816   -8.8104 C   0  0  0  0  0  0  0  0  0  0  0  0
  -19.2498  -40.5588   -8.3124 C   0  0  0  0  0  0  0  0  0  0  0  0
  -19.3397  -41.3832   -7.1723 C   0  0  0  0  0  0  0  0  0  0  0  0
  -20.5106  -41.6583   -6.5050 C   0  0  0  0  0  0  0  0  0  0  0  0
  -21.6185  -41.0547   -7.0424 C   0  0  0  0  0  0  0  0  0  0  0  0
  -20.5605  -42.5082   -5.3405 C   0  0  0  0  0  0  0  0  0  0  0  0
  -21.3634  -42.3522   -4.2851 N   0  0  0  0  0  0  0  0  0  0  0  0
  -21.1075  -43.3628   -3.3931 C   0  0  0  0  0  0  0  0  0  0  0  0
  -20.1227  -44.1086   -3.9785 C   0  0  0  0  0  0  0  0  0  0  0  0
  -19.8391  -43.5594   -5.1236 O   0  0  0  0  0  0  0  0  0  0  0  0
  -17.8402  -40.4598   -8.7485 C   0  0  0  0  0  0  0  0  0  0  0  0
  -17.1459  -41.6015   -8.7433 O   0  0  0  0  0  0  0  0  0  0  0  0
  -17.0225  -39.4056   -9.1858 N   0  0  0  0  0  0  0  0  0  0  0  0
  -19.8549  -35.2399  -10.5348 C   0  0  0  0  0  0  0  0  0  0  0  0
  -18.4890  -35.1245  -10.5599 C   0  0  0  0  0  0  0  0  0  0  0  0
  -17.8270  -35.8427   -9.6097 C   0  0  0  0  0  0  0  0  0  0  0  0
  1  2  1  0
  2  3  1  0
  2  4  1  0
  2  5  1  0
  5  6  2  0
  6  7  1  0
  7  8  2  0
  8  9  1  0
  9 10  2  0
  7 11  1  0
 11 12  1  0
 12 13  1  0
 11 14  1  0
 14 15  1  0
 15 16  1  0
 16 17  1  6
 16 18  1  0
 18 19  1  1
 19 20  1  0
 20 21  1  0
 21 22  2  0
 22 23  1  0
 23 24  1  0
 24 25  1  0
 25 26  1  0
 26 27  1  0
 27 28  1  0
 28 29  1  0
 29 30  2  0
 30 31  1  0
 31 32  2  0
 32 33  1  0
 32 34  1  0
 34 35  2  0
 35 36  1  0
 36 37  2  0
 37 38  1  0
 30 39  1  0
 39 40  2  0
 39 41  1  0
 22 42  1  0
 42 43  2  0
 43 44  1  0
 10  5  1  0
 13 11  1  0
 33 28  2  0
 38 34  1  0
 41 18  1  0
 44 20  2  0
M  END
$$$$
