
     RDKit          3D

 44 49  0  0  0  0  0  0  0  0999 V2000
  -12.8390  -35.3155  -13.2108 C   0  0  0  0  0  0  0  0  0  0  0  0
  -12.9162  -35.9304  -11.8496 C   0  0  0  0  0  0  0  0  0  0  0  0
  -14.0588  -35.2866  -11.0615 C   0  0  0  0  0  0  0  0  0  0  0  0
  -11.6426  -35.5418  -11.0930 C   0  0  0  0  0  0  0  0  0  0  0  0
  -13.0567  -37.3872  -11.8491 C   0  0  0  0  0  0  0  0  0  0  0  0
  -13.3051  -38.1535  -10.7244 C   0  0  0  0  0  0  0  0  0  0  0  0
  -13.4298  -39.5203  -10.7793 C   0  0  0  0  0  0  0  0  0  0  0  0
  -13.3031  -40.1158  -11.9742 N   0  0  0  0  0  0  0  0  0  0  0  0
  -13.0616  -39.4368  -13.1088 C   0  0  0  0  0  0  0  0  0  0  0  0
  -12.9372  -38.0597  -13.0457 C   0  0  0  0  0  0  0  0  0  0  0  0
  -13.6989  -40.3720   -9.5607 C   0  0  0  0  0  0  0  0  0  0  0  0
  -14.0721  -41.8355   -9.9355 C   0  0  0  0  0  0  0  0  0  0  0  0
  -12.8126  -41.4961   -9.2537 C   0  0  0  0  0  0  0  0  0  0  0  0
  -14.6307  -39.7726   -8.6813 N   0  0  0  0  0  0  0  0  0  0  0  0
  -15.7360  -39.0618   -9.2145 C   0  0  0  0  0  0  0  0  0  0  0  0
  -16.6557  -38.6354   -8.1471 C   0  0  1  0  0  0  0  0  0  0  0  0
  -16.5741  -37.2211   -8.0244 O   0  0  0  0  0  0  0  0  0  0  0  0
  -18.1230  -38.9821   -8.3397 C   0  0  2  0  0  0  0  0  0  0  0  0
  -18.9054  -38.5472   -7.1200 C   0  0  0  0  0  0  0  0  0  0  0  0
  -20.3584  -38.3589   -7.3517 C   0  0  0  0  0  0  0  0  0  0  0  0
  -21.4652  -39.0065   -6.8437 C   0  0  0  0  0  0  0  0  0  0  0  0
  -22.7050  -38.6415   -7.3049 C   0  0  0  0  0  0  0  0  0  0  0  0
  -24.0676  -39.2095   -6.9884 C   0  0  0  0  0  0  0  0  0  0  0  0
  -24.3973  -40.4401   -7.7744 C   0  0  0  0  0  0  0  0  0  0  0  0
  -24.6999  -41.6672   -6.9724 C   0  0  0  0  0  0  0  0  0  0  0  0
  -23.8250  -41.9552   -5.8216 C   0  0  0  0  0  0  0  0  0  0  0  0
  -22.8146  -42.9667   -6.0035 N   0  0  0  0  0  0  0  0  0  0  0  0
  -21.4331  -42.8853   -6.3778 C   0  0  0  0  0  0  0  0  0  0  0  0
  -20.7958  -42.1725   -7.3640 C   0  0  0  0  0  0  0  0  0  0  0  0
  -19.4246  -42.2302   -7.4556 C   0  0  0  0  0  0  0  0  0  0  0  0
  -18.7107  -43.0264   -6.5370 C   0  0  0  0  0  0  0  0  0  0  0  0
  -19.2941  -43.7641   -5.5333 C   0  0  0  0  0  0  0  0  0  0  0  0
  -20.6612  -43.6669   -5.4867 C   0  0  0  0  0  0  0  0  0  0  0  0
  -18.5272  -44.5672   -4.6124 C   0  0  0  0  0  0  0  0  0  0  0  0
  -18.3193  -44.3022   -3.3203 N   0  0  0  0  0  0  0  0  0  0  0  0
  -17.5428  -45.3028   -2.7927 C   0  0  0  0  0  0  0  0  0  0  0  0
  -17.3114  -46.1563   -3.8351 C   0  0  0  0  0  0  0  0  0  0  0  0
  -17.9147  -45.6737   -4.8822 O   0  0  0  0  0  0  0  0  0  0  0  0
  -18.4808  -41.5562   -8.3731 C   0  0  0  0  0  0  0  0  0  0  0  0
  -17.4815  -42.3104   -8.8402 O   0  0  0  0  0  0  0  0  0  0  0  0
  -18.3807  -40.2557   -8.8925 N   0  0  0  0  0  0  0  0  0  0  0  0
  -22.8370  -37.6178   -8.2783 C   0  0  0  0  0  0  0  0  0  0  0  0
  -21.7613  -36.9496   -8.8037 C   0  0  0  0  0  0  0  0  0  0  0  0
  -20.5455  -37.3379   -8.3261 C   0  0  0  0  0  0  0  0  0  0  0  0
  1  2  1  0
  2  3  1  0
  2  4  1  0
  2  5  1  0
  5  6  2  0
  6  7  1  0
  7  8  2  0
  8  9  1  0
  9 10  2  0
  7 11  1  0
 11 12  1  0
 12 13  1  0
 11 14  1  0
 14 15  1  0
 15 16  1  0
 16 17  1  6
 16 18  1  0
 18 19  1  1
 19 20  1  0
 20 21  1  0
 21 22  2  0
 22 23  1  0
 23 24  1  0
 24 25  1  0
 25 26  1  0
 26 27  1  0
 27 28  1  0
 28 29  1  0
 29 30  2  0
 30 31  1  0
 31 32  2  0
 32 33  1  0
 32 34  1  0
 34 35  2  0
 35 36  1  0
 36 37  2  0
 37 38  1  0
 30 39  1  0
 39 40  2  0
 39 41  1  0
 22 42  1  0
 42 43  2  0
 43 44  1  0
 10  5  1  0
 13 11  1  0
 33 28  2  0
 38 34  1  0
 41 18  1  0
 44 20  2  0
M  END
$$$$
