
     RDKit          3D

 44 49  0  0  0  0  0  0  0  0999 V2000
  -12.6578  -36.0245  -14.1310 C   0  0  0  0  0  0  0  0  0  0  0  0
  -11.8594  -36.9992  -13.3252 C   0  0  0  0  0  0  0  0  0  0  0  0
  -10.5291  -36.3604  -12.9211 C   0  0  0  0  0  0  0  0  0  0  0  0
  -11.4788  -38.1608  -14.2480 C   0  0  0  0  0  0  0  0  0  0  0  0
  -12.5509  -37.5216  -12.1458 C   0  0  0  0  0  0  0  0  0  0  0  0
  -13.8239  -37.1506  -11.7512 C   0  0  0  0  0  0  0  0  0  0  0  0
  -14.4286  -37.6735  -10.6342 C   0  0  0  0  0  0  0  0  0  0  0  0
  -13.7456  -38.5744   -9.9128 N   0  0  0  0  0  0  0  0  0  0  0  0
  -12.5059  -38.9823  -10.2347 C   0  0  0  0  0  0  0  0  0  0  0  0
  -11.9029  -38.4510  -11.3617 C   0  0  0  0  0  0  0  0  0  0  0  0
  -15.8169  -37.2779  -10.1883 C   0  0  0  0  0  0  0  0  0  0  0  0
  -16.0420  -35.7397  -10.2582 C   0  0  0  0  0  0  0  0  0  0  0  0
  -16.7422  -36.6774  -11.1510 C   0  0  0  0  0  0  0  0  0  0  0  0
  -16.1545  -37.8285   -8.9299 N   0  0  0  0  0  0  0  0  0  0  0  0
  -15.6164  -39.0847   -8.5509 C   0  0  0  0  0  0  0  0  0  0  0  0
  -16.3466  -39.6488   -7.4038 C   0  0  1  0  0  0  0  0  0  0  0  0
  -16.0546  -38.8616   -6.2563 O   0  0  0  0  0  0  0  0  0  0  0  0
  -17.8601  -39.7100   -7.5289 C   0  0  2  0  0  0  0  0  0  0  0  0
  -18.4677  -39.9333   -6.1615 C   0  0  0  0  0  0  0  0  0  0  0  0
  -19.8891  -39.5258   -6.0420 C   0  0  0  0  0  0  0  0  0  0  0  0
  -21.0375  -40.2469   -5.7896 C   0  0  0  0  0  0  0  0  0  0  0  0
  -22.2401  -39.5862   -5.8022 C   0  0  0  0  0  0  0  0  0  0  0  0
  -23.6437  -40.1157   -5.6310 C   0  0  0  0  0  0  0  0  0  0  0  0
  -24.2180  -40.6973   -6.8851 C   0  0  0  0  0  0  0  0  0  0  0  0
  -24.6388  -42.1317   -6.8080 C   0  0  0  0  0  0  0  0  0  0  0  0
  -23.7291  -43.0670   -6.1222 C   0  0  0  0  0  0  0  0  0  0  0  0
  -22.9018  -43.9047   -6.9534 N   0  0  0  0  0  0  0  0  0  0  0  0
  -21.5582  -43.7542   -7.4302 C   0  0  0  0  0  0  0  0  0  0  0  0
  -20.9005  -42.6810   -7.9803 C   0  0  0  0  0  0  0  0  0  0  0  0
  -19.5657  -42.7981   -8.2909 C   0  0  0  0  0  0  0  0  0  0  0  0
  -18.9102  -44.0211   -8.0416 C   0  0  0  0  0  0  0  0  0  0  0  0
  -19.5172  -45.1292   -7.4978 C   0  0  0  0  0  0  0  0  0  0  0  0
  -20.8456  -44.9551   -7.2050 C   0  0  0  0  0  0  0  0  0  0  0  0
  -18.8105  -46.3638   -7.2581 C   0  0  0  0  0  0  0  0  0  0  0  0
  -18.0561  -47.0238   -8.1403 N   0  0  0  0  0  0  0  0  0  0  0  0
  -17.5591  -48.1475   -7.5298 C   0  0  0  0  0  0  0  0  0  0  0  0
  -18.0589  -48.1082   -6.2581 C   0  0  0  0  0  0  0  0  0  0  0  0
  -18.7892  -47.0362   -6.1537 O   0  0  0  0  0  0  0  0  0  0  0  0
  -18.6064  -41.8208   -8.8490 C   0  0  0  0  0  0  0  0  0  0  0  0
  -17.7737  -42.2885   -9.7836 O   0  0  0  0  0  0  0  0  0  0  0  0
  -18.3515  -40.4592   -8.6204 N   0  0  0  0  0  0  0  0  0  0  0  0
  -22.2921  -38.1929   -6.0649 C   0  0  0  0  0  0  0  0  0  0  0  0
  -21.1726  -37.4426   -6.3165 C   0  0  0  0  0  0  0  0  0  0  0  0
  -19.9958  -38.1295   -6.2988 C   0  0  0  0  0  0  0  0  0  0  0  0
  1  2  1  0
  2  3  1  0
  2  4  1  0
  2  5  1  0
  5  6  2  0
  6  7  1  0
  7  8  2  0
  8  9  1  0
  9 10  2  0
  7 11  1  0
 11 12  1  0
 12 13  1  0
 11 14  1  0
 14 15  1  0
 15 16  1  0
 16 17  1  1
 16 18  1  0
 18 19  1  1
 19 20  1  0
 20 21  1  0
 21 22  2  0
 22 23  1  0
 23 24  1  0
 24 25  1  0
 25 26  1  0
 26 27  1  0
 27 28  1  0
 28 29  1  0
 29 30  2  0
 30 31  1  0
 31 32  2  0
 32 33  1  0
 32 34  1  0
 34 35  2  0
 35 36  1  0
 36 37  2  0
 37 38  1  0
 30 39  1  0
 39 40  2  0
 39 41  1  0
 22 42  1  0
 42 43  2  0
 43 44  1  0
 10  5  1  0
 13 11  1  0
 33 28  2  0
 38 34  1  0
 41 18  1  0
 44 20  2  0
M  END
$$$$
