
     RDKit          3D

 44 49  0  0  0  0  0  0  0  0999 V2000
  -18.5788  -40.6075   -1.1107 C   0  0  0  0  0  0  0  0  0  0  0  0
  -19.9705  -41.0467   -0.7831 C   0  0  0  0  0  0  0  0  0  0  0  0
  -20.7293  -39.8929   -0.1244 C   0  0  0  0  0  0  0  0  0  0  0  0
  -19.8726  -42.1271    0.2980 C   0  0  0  0  0  0  0  0  0  0  0  0
  -20.7268  -41.5667   -1.9231 C   0  0  0  0  0  0  0  0  0  0  0  0
  -20.3568  -41.4162   -3.2476 C   0  0  0  0  0  0  0  0  0  0  0  0
  -21.1034  -41.9262   -4.2816 C   0  0  0  0  0  0  0  0  0  0  0  0
  -22.2280  -42.5906   -3.9773 N   0  0  0  0  0  0  0  0  0  0  0  0
  -22.6501  -42.7758   -2.7147 C   0  0  0  0  0  0  0  0  0  0  0  0
  -21.8925  -42.2591   -1.6779 C   0  0  0  0  0  0  0  0  0  0  0  0
  -20.7148  -41.7692   -5.7332 C   0  0  0  0  0  0  0  0  0  0  0  0
  -19.6459  -42.8111   -6.1729 C   0  0  0  0  0  0  0  0  0  0  0  0
  -21.0256  -42.8374   -6.6849 C   0  0  0  0  0  0  0  0  0  0  0  0
  -20.3532  -40.4394   -6.0519 N   0  0  0  0  0  0  0  0  0  0  0  0
  -18.9912  -40.0504   -5.9806 C   0  0  0  0  0  0  0  0  0  0  0  0
  -18.7559  -38.8072   -6.7331 C   0  0  1  0  0  0  0  0  0  0  0  0
  -18.2960  -37.8144   -5.8250 O   0  0  0  0  0  0  0  0  0  0  0  0
  -17.7418  -38.8818   -7.8629 C   0  0  2  0  0  0  0  0  0  0  0  0
  -17.8900  -37.6660   -8.7509 C   0  0  0  0  0  0  0  0  0  0  0  0
  -16.6930  -37.3459   -9.5665 C   0  0  0  0  0  0  0  0  0  0  0  0
  -16.4838  -37.3259  -10.9297 C   0  0  0  0  0  0  0  0  0  0  0  0
  -15.2232  -37.0454  -11.3935 C   0  0  0  0  0  0  0  0  0  0  0  0
  -14.6883  -37.0201  -12.8052 C   0  0  0  0  0  0  0  0  0  0  0  0
  -14.3239  -38.3744  -13.3285 C   0  0  0  0  0  0  0  0  0  0  0  0
  -15.0357  -38.8087  -14.5716 C   0  0  0  0  0  0  0  0  0  0  0  0
  -16.4851  -38.5509  -14.6456 C   0  0  0  0  0  0  0  0  0  0  0  0
  -17.3628  -39.6649  -14.3889 N   0  0  0  0  0  0  0  0  0  0  0  0
  -18.0234  -40.1102  -13.1969 C   0  0  0  0  0  0  0  0  0  0  0  0
  -17.5755  -40.2578  -11.9068 C   0  0  0  0  0  0  0  0  0  0  0  0
  -18.4608  -40.6459  -10.9284 C   0  0  0  0  0  0  0  0  0  0  0  0
  -19.8046  -40.8883  -11.2790 C   0  0  0  0  0  0  0  0  0  0  0  0
  -20.3084  -40.7616  -12.5526 C   0  0  0  0  0  0  0  0  0  0  0  0
  -19.3835  -40.3695  -13.4861 C   0  0  0  0  0  0  0  0  0  0  0  0
  -21.6917  -41.0194  -12.8707 C   0  0  0  0  0  0  0  0  0  0  0  0
  -22.7205  -40.9546  -12.0221 N   0  0  0  0  0  0  0  0  0  0  0  0
  -23.8672  -41.2680  -12.7072 C   0  0  0  0  0  0  0  0  0  0  0  0
  -23.4564  -41.5166  -13.9871 C   0  0  0  0  0  0  0  0  0  0  0  0
  -22.1657  -41.3555  -14.0260 O   0  0  0  0  0  0  0  0  0  0  0  0
  -18.2784  -40.8486   -9.4749 C   0  0  0  0  0  0  0  0  0  0  0  0
  -18.8783  -41.9238   -8.9557 O   0  0  0  0  0  0  0  0  0  0  0  0
  -17.5951  -40.1497   -8.4672 N   0  0  0  0  0  0  0  0  0  0  0  0
  -14.1661  -36.7787  -10.4855 C   0  0  0  0  0  0  0  0  0  0  0  0
  -14.3362  -36.7861   -9.1251 C   0  0  0  0  0  0  0  0  0  0  0  0
  -15.5988  -37.0703   -8.6983 C   0  0  0  0  0  0  0  0  0  0  0  0
  1  2  1  0
  2  3  1  0
  2  4  1  0
  2  5  1  0
  5  6  2  0
  6  7  1  0
  7  8  2  0
  8  9  1  0
  9 10  2  0
  7 11  1  0
 11 12  1  0
 12 13  1  0
 11 14  1  0
 14 15  1  0
 15 16  1  0
 16 17  1  1
 16 18  1  0
 18 19  1  6
 19 20  1  0
 20 21  1  0
 21 22  2  0
 22 23  1  0
 23 24  1  0
 24 25  1  0
 25 26  1  0
 26 27  1  0
 27 28  1  0
 28 29  1  0
 29 30  2  0
 30 31  1  0
 31 32  2  0
 32 33  1  0
 32 34  1  0
 34 35  2  0
 35 36  1  0
 36 37  2  0
 37 38  1  0
 30 39  1  0
 39 40  2  0
 39 41  1  0
 22 42  1  0
 42 43  2  0
 43 44  1  0
 10  5  1  0
 13 11  1  0
 33 28  2  0
 38 34  1  0
 41 18  1  0
 44 20  2  0
M  END
$$$$
