
     RDKit          3D

 44 49  0  0  0  0  0  0  0  0999 V2000
  -12.9582  -35.5155  -14.2332 C   0  0  0  0  0  0  0  0  0  0  0  0
  -12.2873  -36.1321  -13.0473 C   0  0  0  0  0  0  0  0  0  0  0  0
  -11.3107  -35.1276  -12.4322 C   0  0  0  0  0  0  0  0  0  0  0  0
  -11.4099  -37.2795  -13.5563 C   0  0  0  0  0  0  0  0  0  0  0  0
  -13.2054  -36.6383  -12.0260 C   0  0  0  0  0  0  0  0  0  0  0  0
  -13.1657  -37.9153  -11.4954 C   0  0  0  0  0  0  0  0  0  0  0  0
  -14.0520  -38.3402  -10.5358 C   0  0  0  0  0  0  0  0  0  0  0  0
  -14.9819  -37.4726  -10.1103 N   0  0  0  0  0  0  0  0  0  0  0  0
  -15.0812  -36.2170  -10.5797 C   0  0  0  0  0  0  0  0  0  0  0  0
  -14.1846  -35.7959  -11.5466 C   0  0  0  0  0  0  0  0  0  0  0  0
  -14.0238  -39.7315   -9.9475 C   0  0  0  0  0  0  0  0  0  0  0  0
  -13.7071  -40.8169  -11.0167 C   0  0  0  0  0  0  0  0  0  0  0  0
  -12.7688  -40.4852   -9.9323 C   0  0  0  0  0  0  0  0  0  0  0  0
  -15.1862  -40.0205   -9.1951 N   0  0  0  0  0  0  0  0  0  0  0  0
  -15.9751  -38.9545   -8.6927 C   0  0  0  0  0  0  0  0  0  0  0  0
  -16.6639  -39.3451   -7.4516 C   0  0  1  0  0  0  0  0  0  0  0  0
  -16.4811  -38.3106   -6.4935 O   0  0  0  0  0  0  0  0  0  0  0  0
  -18.1594  -39.5952   -7.5576 C   0  0  2  0  0  0  0  0  0  0  0  0
  -18.7012  -39.9795   -6.1984 C   0  0  0  0  0  0  0  0  0  0  0  0
  -20.1601  -39.7688   -6.0317 C   0  0  0  0  0  0  0  0  0  0  0  0
  -21.1996  -40.6475   -5.8089 C   0  0  0  0  0  0  0  0  0  0  0  0
  -22.4775  -40.1496   -5.7610 C   0  0  0  0  0  0  0  0  0  0  0  0
  -23.7966  -40.8669   -5.6031 C   0  0  0  0  0  0  0  0  0  0  0  0
  -24.3200  -41.4402   -6.8831 C   0  0  0  0  0  0  0  0  0  0  0  0
  -24.5502  -42.9192   -6.8917 C   0  0  0  0  0  0  0  0  0  0  0  0
  -23.5117  -43.7684   -6.2809 C   0  0  0  0  0  0  0  0  0  0  0  0
  -22.6027  -44.4384   -7.1765 N   0  0  0  0  0  0  0  0  0  0  0  0
  -21.3012  -44.0850   -7.6627 C   0  0  0  0  0  0  0  0  0  0  0  0
  -20.8004  -42.9035   -8.1527 C   0  0  0  0  0  0  0  0  0  0  0  0
  -19.4693  -42.8264   -8.4902 C   0  0  0  0  0  0  0  0  0  0  0  0
  -18.6558  -43.9666   -8.3296 C   0  0  0  0  0  0  0  0  0  0  0  0
  -19.1019  -45.1756   -7.8488 C   0  0  0  0  0  0  0  0  0  0  0  0
  -20.4345  -45.1944   -7.5256 C   0  0  0  0  0  0  0  0  0  0  0  0
  -18.2364  -46.3200   -7.6993 C   0  0  0  0  0  0  0  0  0  0  0  0
  -18.5983  -47.5303   -7.2668 N   0  0  0  0  0  0  0  0  0  0  0  0
  -17.4903  -48.3395   -7.2676 C   0  0  0  0  0  0  0  0  0  0  0  0
  -16.4737  -47.5449   -7.7188 C   0  0  0  0  0  0  0  0  0  0  0  0
  -16.9701  -46.3659   -7.9576 O   0  0  0  0  0  0  0  0  0  0  0  0
  -18.6574  -41.6999   -8.9988 C   0  0  0  0  0  0  0  0  0  0  0  0
  -17.7932  -41.9967   -9.9739 O   0  0  0  0  0  0  0  0  0  0  0  0
  -18.5751  -40.3334   -8.6874 N   0  0  0  0  0  0  0  0  0  0  0  0
  -22.7149  -38.7615   -5.9332 C   0  0  0  0  0  0  0  0  0  0  0  0
  -21.7078  -37.8576   -6.1530 C   0  0  0  0  0  0  0  0  0  0  0  0
  -20.4521  -38.3852   -6.1969 C   0  0  0  0  0  0  0  0  0  0  0  0
  1  2  1  0
  2  3  1  0
  2  4  1  0
  2  5  1  0
  5  6  2  0
  6  7  1  0
  7  8  2  0
  8  9  1  0
  9 10  2  0
  7 11  1  0
 11 12  1  0
 12 13  1  0
 11 14  1  0
 14 15  1  0
 15 16  1  0
 16 17  1  1
 16 18  1  0
 18 19  1  1
 19 20  1  0
 20 21  1  0
 21 22  2  0
 22 23  1  0
 23 24  1  0
 24 25  1  0
 25 26  1  0
 26 27  1  0
 27 28  1  0
 28 29  1  0
 29 30  2  0
 30 31  1  0
 31 32  2  0
 32 33  1  0
 32 34  1  0
 34 35  2  0
 35 36  1  0
 36 37  2  0
 37 38  1  0
 30 39  1  0
 39 40  2  0
 39 41  1  0
 22 42  1  0
 42 43  2  0
 43 44  1  0
 10  5  1  0
 13 11  1  0
 33 28  2  0
 38 34  1  0
 41 18  1  0
 44 20  2  0
M  END
$$$$
