
     RDKit          3D

 39 42  0  0  0  0  0  0  0  0999 V2000
  -19.3866  -46.5472  -11.0606 C   0  0  0  0  0  0  0  0  0  0  0  0
  -18.3727  -45.5976  -10.8019 O   0  0  0  0  0  0  0  0  0  0  0  0
  -18.6490  -44.5159   -9.9667 C   0  0  0  0  0  0  0  0  0  0  0  0
  -17.9882  -43.3158  -10.1130 C   0  0  0  0  0  0  0  0  0  0  0  0
  -18.2147  -42.1765   -9.3041 C   0  0  0  0  0  0  0  0  0  0  0  0
  -19.1576  -42.2824   -8.3070 C   0  0  0  0  0  0  0  0  0  0  0  0
  -19.8199  -43.4716   -8.1574 C   0  0  0  0  0  0  0  0  0  0  0  0
  -19.5326  -44.5366   -8.9971 N   0  0  0  0  0  0  0  0  0  0  0  0
  -20.8682  -43.9042   -7.2733 N   0  0  0  0  0  0  0  0  0  0  0  0
  -20.7368  -45.2171   -6.5904 C   0  0  0  0  0  0  0  0  0  0  0  0
  -22.1183  -43.2434   -6.9610 C   0  0  0  0  0  0  0  0  0  0  0  0
  -22.0568  -41.7915   -7.3837 C   0  0  0  0  0  0  0  0  0  0  0  0
  -23.3735  -41.1360   -7.5988 C   0  0  0  0  0  0  0  0  0  0  0  0
  -23.1627  -39.6541   -7.6313 C   0  0  0  0  0  0  0  0  0  0  0  0
  -21.7925  -39.1534   -7.3244 C   0  0  0  0  0  0  0  0  0  0  0  0
  -21.6960  -38.8643   -5.9384 C   0  0  0  0  0  0  0  0  0  0  0  0
  -20.5807  -38.3318   -5.3500 C   0  0  0  0  0  0  0  0  0  0  0  0
  -19.5466  -38.0907   -6.2044 C   0  0  0  0  0  0  0  0  0  0  0  0
  -19.5619  -38.3502   -7.5990 C   0  0  0  0  0  0  0  0  0  0  0  0
  -18.3066  -37.8880   -8.2213 C   0  0  0  0  0  0  0  0  0  0  0  0
  -17.1570  -38.7755   -8.4432 C   0  0  2  0  0  0  0  0  0  0  0  0
  -17.4152  -39.6685   -9.5648 N   0  0  0  0  0  0  0  0  0  0  0  0
  -17.3707  -41.0460   -9.7371 C   0  0  0  0  0  0  0  0  0  0  0  0
  -16.2922  -41.3528  -10.4781 O   0  0  0  0  0  0  0  0  0  0  0  0
  -16.4182  -39.3749   -7.3456 C   0  0  2  0  0  0  0  0  0  0  0  0
  -16.8703  -38.9798   -6.0608 O   0  0  0  0  0  0  0  0  0  0  0  0
  -14.9724  -39.5009   -7.2616 C   0  0  0  0  0  0  0  0  0  0  0  0
  -14.2083  -40.3837   -8.0114 N   0  0  0  0  0  0  0  0  0  0  0  0
  -13.0171  -40.1164   -8.6600 C   0  0  0  0  0  0  0  0  0  0  0  0
  -13.2381  -39.5924  -10.0684 C   0  0  0  0  0  0  0  0  0  0  0  0
  -13.1647  -38.2545  -10.3606 C   0  0  0  0  0  0  0  0  0  0  0  0
  -13.3624  -37.7597  -11.6373 C   0  0  0  0  0  0  0  0  0  0  0  0
  -13.6441  -38.6669  -12.6436 C   0  0  0  0  0  0  0  0  0  0  0  0
  -13.7264  -40.0175  -12.3899 C   0  0  0  0  0  0  0  0  0  0  0  0
  -13.5204  -40.4598  -11.0966 C   0  0  0  0  0  0  0  0  0  0  0  0
  -14.0233  -40.9820  -13.4595 C   0  0  0  0  0  0  0  0  0  0  0  0
  -12.8012  -41.7779  -13.8535 C   0  0  0  0  0  0  0  0  0  0  0  0
  -15.1089  -41.9670  -13.0429 C   0  0  0  0  0  0  0  0  0  0  0  0
  -20.7180  -38.8952   -8.1335 C   0  0  0  0  0  0  0  0  0  0  0  0
  1  2  1  0
  2  3  1  0
  3  4  2  0
  4  5  1  0
  5  6  2  0
  6  7  1  0
  7  8  2  0
  7  9  1  0
  9 10  1  0
  9 11  1  0
 11 12  1  0
 12 13  1  0
 13 14  1  0
 14 15  1  0
 15 16  1  0
 16 17  2  0
 17 18  1  0
 18 19  2  0
 19 20  1  0
 21 20  1  1
 21 22  1  0
 22 23  1  0
 23 24  2  0
 21 25  1  0
 25 26  1  1
 25 27  1  0
 27 28  1  0
 28 29  1  0
 29 30  1  0
 30 31  2  0
 31 32  1  0
 32 33  2  0
 33 34  1  0
 34 35  2  0
 34 36  1  0
 36 37  1  0
 36 38  1  0
 19 39  1  0
  8  3  1  0
 23  5  1  0
 35 30  1  0
 39 15  2  0
M  END
$$$$
