
     RDKit          3D

 39 42  0  0  0  0  0  0  0  0999 V2000
  -17.5980  -47.8639   -8.7931 C   0  0  0  0  0  0  0  0  0  0  0  0
  -17.8809  -46.8002   -7.9070 O   0  0  0  0  0  0  0  0  0  0  0  0
  -17.6876  -45.4873   -8.3346 C   0  0  0  0  0  0  0  0  0  0  0  0
  -17.2855  -44.5041   -7.4570 C   0  0  0  0  0  0  0  0  0  0  0  0
  -17.0699  -43.1524   -7.8176 C   0  0  0  0  0  0  0  0  0  0  0  0
  -17.2790  -42.8044   -9.1328 C   0  0  0  0  0  0  0  0  0  0  0  0
  -17.6766  -43.7771  -10.0109 C   0  0  0  0  0  0  0  0  0  0  0  0
  -17.8636  -45.0775   -9.5684 N   0  0  0  0  0  0  0  0  0  0  0  0
  -17.9351  -43.7731  -11.4254 N   0  0  0  0  0  0  0  0  0  0  0  0
  -19.1659  -44.4321  -11.9334 C   0  0  0  0  0  0  0  0  0  0  0  0
  -17.1178  -43.2348  -12.4928 C   0  0  0  0  0  0  0  0  0  0  0  0
  -16.0821  -42.2882  -11.9255 C   0  0  0  0  0  0  0  0  0  0  0  0
  -14.8894  -42.0629  -12.7838 C   0  0  0  0  0  0  0  0  0  0  0  0
  -14.1700  -40.8496  -12.2820 C   0  0  0  0  0  0  0  0  0  0  0  0
  -14.8190  -40.0772  -11.1844 C   0  0  0  0  0  0  0  0  0  0  0  0
  -15.6137  -39.0425  -11.7426 C   0  0  0  0  0  0  0  0  0  0  0  0
  -16.2940  -38.1202  -10.9941 C   0  0  0  0  0  0  0  0  0  0  0  0
  -16.1519  -38.2648   -9.6463 C   0  0  0  0  0  0  0  0  0  0  0  0
  -15.3783  -39.2690   -9.0096 C   0  0  0  0  0  0  0  0  0  0  0  0
  -15.3832  -39.0714   -7.5475 C   0  0  0  0  0  0  0  0  0  0  0  0
  -16.3300  -39.7564   -6.6572 C   0  0  2  0  0  0  0  0  0  0  0  0
  -15.9520  -41.1537   -6.4937 N   0  0  0  0  0  0  0  0  0  0  0  0
  -16.6159  -42.3629   -6.6564 C   0  0  0  0  0  0  0  0  0  0  0  0
  -16.8703  -42.8812   -5.4429 O   0  0  0  0  0  0  0  0  0  0  0  0
  -17.7614  -39.5162   -6.7168 C   0  0  2  0  0  0  0  0  0  0  0  0
  -18.1104  -38.1997   -7.1120 O   0  0  0  0  0  0  0  0  0  0  0  0
  -18.7353  -39.9272   -5.7189 C   0  0  0  0  0  0  0  0  0  0  0  0
  -19.0429  -41.2436   -5.4059 N   0  0  0  0  0  0  0  0  0  0  0  0
  -19.9957  -41.6892   -4.5088 C   0  0  0  0  0  0  0  0  0  0  0  0
  -21.4092  -41.4639   -5.0171 C   0  0  0  0  0  0  0  0  0  0  0  0
  -22.5041  -41.9317   -4.3368 C   0  0  0  0  0  0  0  0  0  0  0  0
  -23.7982  -41.7353   -4.7845 C   0  0  0  0  0  0  0  0  0  0  0  0
  -23.9722  -41.0373   -5.9666 C   0  0  0  0  0  0  0  0  0  0  0  0
  -22.8983  -40.5520   -6.6783 C   0  0  0  0  0  0  0  0  0  0  0  0
  -21.6258  -40.7757   -6.1871 C   0  0  0  0  0  0  0  0  0  0  0  0
  -23.0830  -39.8081   -7.9333 C   0  0  0  0  0  0  0  0  0  0  0  0
  -23.5868  -40.6983   -9.0451 C   0  0  0  0  0  0  0  0  0  0  0  0
  -24.0730  -38.6616   -7.7667 C   0  0  0  0  0  0  0  0  0  0  0  0
  -14.7183  -40.1765   -9.8222 C   0  0  0  0  0  0  0  0  0  0  0  0
  1  2  1  0
  2  3  1  0
  3  4  2  0
  4  5  1  0
  5  6  2  0
  6  7  1  0
  7  8  2  0
  7  9  1  0
  9 10  1  0
  9 11  1  0
 11 12  1  0
 12 13  1  0
 13 14  1  0
 14 15  1  0
 15 16  1  0
 16 17  2  0
 17 18  1  0
 18 19  2  0
 19 20  1  0
 21 20  1  6
 21 22  1  0
 22 23  1  0
 23 24  2  0
 21 25  1  0
 25 26  1  1
 25 27  1  0
 27 28  1  0
 28 29  1  0
 29 30  1  0
 30 31  2  0
 31 32  1  0
 32 33  2  0
 33 34  1  0
 34 35  2  0
 34 36  1  0
 36 37  1  0
 36 38  1  0
 19 39  1  0
  8  3  1  0
 23  5  1  0
 35 30  1  0
 39 15  2  0
M  END
$$$$
