
     RDKit          3D

 39 42  0  0  0  0  0  0  0  0999 V2000
  -19.4060  -47.5933   -8.0105 C   0  0  0  0  0  0  0  0  0  0  0  0
  -18.5535  -46.5175   -8.3459 O   0  0  0  0  0  0  0  0  0  0  0  0
  -18.9325  -45.2179   -8.0122 C   0  0  0  0  0  0  0  0  0  0  0  0
  -18.5844  -44.1479   -8.8073 C   0  0  0  0  0  0  0  0  0  0  0  0
  -18.9322  -42.8035   -8.5328 C   0  0  0  0  0  0  0  0  0  0  0  0
  -19.6654  -42.5565   -7.3943 C   0  0  0  0  0  0  0  0  0  0  0  0
  -20.0168  -43.6157   -6.6007 C   0  0  0  0  0  0  0  0  0  0  0  0
  -19.6315  -44.9013   -6.9481 N   0  0  0  0  0  0  0  0  0  0  0  0
  -20.7961  -43.7212   -5.3969 N   0  0  0  0  0  0  0  0  0  0  0  0
  -20.2746  -44.5397   -4.2720 C   0  0  0  0  0  0  0  0  0  0  0  0
  -22.0992  -43.1582   -5.1107 C   0  0  0  0  0  0  0  0  0  0  0  0
  -22.4262  -42.0724   -6.1130 C   0  0  0  0  0  0  0  0  0  0  0  0
  -23.8725  -41.7667   -6.2694 C   0  0  0  0  0  0  0  0  0  0  0  0
  -24.0030  -40.4548   -6.9789 C   0  0  0  0  0  0  0  0  0  0  0  0
  -22.7476  -39.6970   -7.2476 C   0  0  0  0  0  0  0  0  0  0  0  0
  -22.5081  -38.7897   -6.1831 C   0  0  0  0  0  0  0  0  0  0  0  0
  -21.4624  -37.9066   -6.1592 C   0  0  0  0  0  0  0  0  0  0  0  0
  -20.6498  -37.9573   -7.2521 C   0  0  0  0  0  0  0  0  0  0  0  0
  -20.8191  -38.8321   -8.3560 C   0  0  0  0  0  0  0  0  0  0  0  0
  -19.8071  -38.5529   -9.3926 C   0  0  0  0  0  0  0  0  0  0  0  0
  -18.5368  -39.2858   -9.4796 C   0  0  2  0  0  0  0  0  0  0  0  0
  -18.7579  -40.6214  -10.0177 N   0  0  0  0  0  0  0  0  0  0  0  0
  -18.4358  -41.9035   -9.5918 C   0  0  0  0  0  0  0  0  0  0  0  0
  -17.4417  -42.3764  -10.3627 O   0  0  0  0  0  0  0  0  0  0  0  0
  -17.5253  -39.2084   -8.4399 C   0  0  2  0  0  0  0  0  0  0  0  0
  -17.7923  -38.2333   -7.4454 O   0  0  0  0  0  0  0  0  0  0  0  0
  -16.0870  -39.2108   -8.6503 C   0  0  0  0  0  0  0  0  0  0  0  0
  -15.4015  -40.1283   -9.4338 N   0  0  0  0  0  0  0  0  0  0  0  0
  -14.0468  -40.1462   -9.7087 C   0  0  0  0  0  0  0  0  0  0  0  0
  -13.7140  -39.4049  -10.9919 C   0  0  0  0  0  0  0  0  0  0  0  0
  -13.7068  -40.0364  -12.2092 C   0  0  0  0  0  0  0  0  0  0  0  0
  -13.4068  -39.3769  -13.3878 C   0  0  0  0  0  0  0  0  0  0  0  0
  -13.1051  -38.0285  -13.3131 C   0  0  0  0  0  0  0  0  0  0  0  0
  -13.1017  -37.3594  -12.1099 C   0  0  0  0  0  0  0  0  0  0  0  0
  -13.4086  -38.0651  -10.9616 C   0  0  0  0  0  0  0  0  0  0  0  0
  -12.7836  -35.9259  -12.0304 C   0  0  0  0  0  0  0  0  0  0  0  0
  -13.8939  -35.1396  -11.3736 C   0  0  0  0  0  0  0  0  0  0  0  0
  -11.5038  -35.6770  -11.2415 C   0  0  0  0  0  0  0  0  0  0  0  0
  -21.8930  -39.7065   -8.3178 C   0  0  0  0  0  0  0  0  0  0  0  0
  1  2  1  0
  2  3  1  0
  3  4  2  0
  4  5  1  0
  5  6  2  0
  6  7  1  0
  7  8  2  0
  7  9  1  0
  9 10  1  0
  9 11  1  0
 11 12  1  0
 12 13  1  0
 13 14  1  0
 14 15  1  0
 15 16  1  0
 16 17  2  0
 17 18  1  0
 18 19  2  0
 19 20  1  0
 21 20  1  1
 21 22  1  0
 22 23  1  0
 23 24  2  0
 21 25  1  0
 25 26  1  6
 25 27  1  0
 27 28  1  0
 28 29  1  0
 29 30  1  0
 30 31  2  0
 31 32  1  0
 32 33  2  0
 33 34  1  0
 34 35  2  0
 34 36  1  0
 36 37  1  0
 36 38  1  0
 19 39  1  0
  8  3  1  0
 23  5  1  0
 35 30  1  0
 39 15  2  0
M  END
$$$$
