
     RDKit          3D

 39 42  0  0  0  0  0  0  0  0999 V2000
  -19.7938  -47.4888   -9.0253 C   0  0  0  0  0  0  0  0  0  0  0  0
  -18.7274  -46.5697   -8.9049 O   0  0  0  0  0  0  0  0  0  0  0  0
  -18.9767  -45.3008   -8.3835 C   0  0  0  0  0  0  0  0  0  0  0  0
  -18.2697  -44.2007   -8.8174 C   0  0  0  0  0  0  0  0  0  0  0  0
  -18.4666  -42.8846   -8.3350 C   0  0  0  0  0  0  0  0  0  0  0  0
  -19.4287  -42.6996   -7.3681 C   0  0  0  0  0  0  0  0  0  0  0  0
  -20.1368  -43.7883   -6.9339 C   0  0  0  0  0  0  0  0  0  0  0  0
  -19.8757  -45.0425   -7.4636 N   0  0  0  0  0  0  0  0  0  0  0  0
  -21.2143  -43.9446   -5.9946 N   0  0  0  0  0  0  0  0  0  0  0  0
  -21.1425  -45.0400   -4.9936 C   0  0  0  0  0  0  0  0  0  0  0  0
  -22.4439  -43.1863   -5.8942 C   0  0  0  0  0  0  0  0  0  0  0  0
  -22.3220  -41.8955   -6.6748 C   0  0  0  0  0  0  0  0  0  0  0  0
  -23.6100  -41.2764   -7.0842 C   0  0  0  0  0  0  0  0  0  0  0  0
  -23.3440  -39.8606   -7.4919 C   0  0  0  0  0  0  0  0  0  0  0  0
  -21.9612  -39.3412   -7.2902 C   0  0  0  0  0  0  0  0  0  0  0  0
  -21.8762  -38.7073   -6.0235 C   0  0  0  0  0  0  0  0  0  0  0  0
  -20.7514  -38.0765   -5.5643 C   0  0  0  0  0  0  0  0  0  0  0  0
  -19.6957  -38.0970   -6.4260 C   0  0  0  0  0  0  0  0  0  0  0  0
  -19.6984  -38.7071   -7.7067 C   0  0  0  0  0  0  0  0  0  0  0  0
  -18.4170  -38.4613   -8.3955 C   0  0  0  0  0  0  0  0  0  0  0  0
  -17.2977  -39.4119   -8.3527 C   0  0  2  0  0  0  0  0  0  0  0  0
  -17.5709  -40.5556   -9.2127 N   0  0  0  0  0  0  0  0  0  0  0  0
  -17.5746  -41.9316   -9.0233 C   0  0  0  0  0  0  0  0  0  0  0  0
  -16.4966  -42.4532   -9.6332 O   0  0  0  0  0  0  0  0  0  0  0  0
  -16.5991  -39.7306   -7.1198 C   0  0  2  0  0  0  0  0  0  0  0  0
  -17.1310  -39.0898   -5.9719 O   0  0  0  0  0  0  0  0  0  0  0  0
  -15.1565  -39.7739   -6.9460 C   0  0  0  0  0  0  0  0  0  0  0  0
  -14.2313  -39.3387   -7.8840 N   0  0  0  0  0  0  0  0  0  0  0  0
  -13.7266  -40.0530   -8.9547 C   0  0  0  0  0  0  0  0  0  0  0  0
  -14.3449  -39.6204  -10.2729 C   0  0  0  0  0  0  0  0  0  0  0  0
  -14.8854  -40.5270  -11.1485 C   0  0  0  0  0  0  0  0  0  0  0  0
  -15.4531  -40.1510  -12.3527 C   0  0  0  0  0  0  0  0  0  0  0  0
  -15.4656  -38.8033  -12.6664 C   0  0  0  0  0  0  0  0  0  0  0  0
  -14.9328  -37.8629  -11.8136 C   0  0  0  0  0  0  0  0  0  0  0  0
  -14.3775  -38.2916  -10.6226 C   0  0  0  0  0  0  0  0  0  0  0  0
  -14.9482  -36.4304  -12.1456 C   0  0  0  0  0  0  0  0  0  0  0  0
  -15.8534  -35.6494  -11.2221 C   0  0  0  0  0  0  0  0  0  0  0  0
  -13.5547  -35.8191  -12.0622 C   0  0  0  0  0  0  0  0  0  0  0  0
  -20.8652  -39.3348   -8.1115 C   0  0  0  0  0  0  0  0  0  0  0  0
  1  2  1  0
  2  3  1  0
  3  4  2  0
  4  5  1  0
  5  6  2  0
  6  7  1  0
  7  8  2  0
  7  9  1  0
  9 10  1  0
  9 11  1  0
 11 12  1  0
 12 13  1  0
 13 14  1  0
 14 15  1  0
 15 16  1  0
 16 17  2  0
 17 18  1  0
 18 19  2  0
 19 20  1  0
 21 20  1  1
 21 22  1  0
 22 23  1  0
 23 24  2  0
 21 25  1  0
 25 26  1  1
 25 27  1  0
 27 28  1  0
 28 29  1  0
 29 30  1  0
 30 31  2  0
 31 32  1  0
 32 33  2  0
 33 34  1  0
 34 35  2  0
 34 36  1  0
 36 37  1  0
 36 38  1  0
 19 39  1  0
  8  3  1  0
 23  5  1  0
 35 30  1  0
 39 15  2  0
M  END
$$$$
