
     RDKit          3D

 39 42  0  0  0  0  0  0  0  0999 V2000
  -18.3941  -47.7476   -8.9691 C   0  0  0  0  0  0  0  0  0  0  0  0
  -18.7013  -46.5492   -9.6516 O   0  0  0  0  0  0  0  0  0  0  0  0
  -18.9791  -45.3978   -8.9159 C   0  0  0  0  0  0  0  0  0  0  0  0
  -18.4845  -44.1704   -9.2998 C   0  0  0  0  0  0  0  0  0  0  0  0
  -18.7234  -42.9610   -8.6041 C   0  0  0  0  0  0  0  0  0  0  0  0
  -19.5007  -43.0232   -7.4699 C   0  0  0  0  0  0  0  0  0  0  0  0
  -19.9974  -44.2396   -7.0838 C   0  0  0  0  0  0  0  0  0  0  0  0
  -19.7113  -45.3740   -7.8276 N   0  0  0  0  0  0  0  0  0  0  0  0
  -20.8571  -44.6490   -6.0064 N   0  0  0  0  0  0  0  0  0  0  0  0
  -20.4849  -45.8421   -5.2031 C   0  0  0  0  0  0  0  0  0  0  0  0
  -22.1181  -44.0739   -5.5869 C   0  0  0  0  0  0  0  0  0  0  0  0
  -22.2801  -42.6911   -6.1802 C   0  0  0  0  0  0  0  0  0  0  0  0
  -23.6794  -42.1970   -6.2676 C   0  0  0  0  0  0  0  0  0  0  0  0
  -23.6436  -40.7191   -6.5042 C   0  0  0  0  0  0  0  0  0  0  0  0
  -22.3092  -40.0551   -6.4695 C   0  0  0  0  0  0  0  0  0  0  0  0
  -22.0544  -39.5781   -5.1576 C   0  0  0  0  0  0  0  0  0  0  0  0
  -20.9353  -38.8697   -4.8115 C   0  0  0  0  0  0  0  0  0  0  0  0
  -20.0639  -38.6467   -5.8354 C   0  0  0  0  0  0  0  0  0  0  0  0
  -20.2434  -39.0879   -7.1716 C   0  0  0  0  0  0  0  0  0  0  0  0
  -19.1469  -38.5953   -8.0270 C   0  0  0  0  0  0  0  0  0  0  0  0
  -17.9467  -39.3916   -8.3161 C   0  0  2  0  0  0  0  0  0  0  0  0
  -18.2559  -40.4450   -9.2737 N   0  0  0  0  0  0  0  0  0  0  0  0
  -18.0807  -41.8228   -9.2891 C   0  0  0  0  0  0  0  0  0  0  0  0
  -17.0880  -42.1212  -10.1445 O   0  0  0  0  0  0  0  0  0  0  0  0
  -16.9997  -39.7687   -7.2813 C   0  0  2  0  0  0  0  0  0  0  0  0
  -16.9919  -38.8996   -6.1607 O   0  0  0  0  0  0  0  0  0  0  0  0
  -15.6244  -40.1869   -7.4980 C   0  0  0  0  0  0  0  0  0  0  0  0
  -14.6024  -39.3564   -7.9350 N   0  0  0  0  0  0  0  0  0  0  0  0
  -14.7042  -38.3002   -8.8213 C   0  0  0  0  0  0  0  0  0  0  0  0
  -15.5000  -38.6692  -10.0613 C   0  0  0  0  0  0  0  0  0  0  0  0
  -15.1431  -39.7249  -10.8604 C   0  0  0  0  0  0  0  0  0  0  0  0
  -15.8564  -40.0756  -11.9927 C   0  0  0  0  0  0  0  0  0  0  0  0
  -16.9696  -39.3186  -12.3133 C   0  0  0  0  0  0  0  0  0  0  0  0
  -17.3597  -38.2513  -11.5362 C   0  0  0  0  0  0  0  0  0  0  0  0
  -16.6121  -37.9430  -10.4151 C   0  0  0  0  0  0  0  0  0  0  0  0
  -18.5441  -37.4482  -11.8752 C   0  0  0  0  0  0  0  0  0  0  0  0
  -19.7742  -38.3075  -12.0500 C   0  0  0  0  0  0  0  0  0  0  0  0
  -18.8465  -36.4111  -10.8003 C   0  0  0  0  0  0  0  0  0  0  0  0
  -21.3937  -39.8054   -7.4571 C   0  0  0  0  0  0  0  0  0  0  0  0
  1  2  1  0
  2  3  1  0
  3  4  2  0
  4  5  1  0
  5  6  2  0
  6  7  1  0
  7  8  2  0
  7  9  1  0
  9 10  1  0
  9 11  1  0
 11 12  1  0
 12 13  1  0
 13 14  1  0
 14 15  1  0
 15 16  1  0
 16 17  2  0
 17 18  1  0
 18 19  2  0
 19 20  1  0
 21 20  1  1
 21 22  1  0
 22 23  1  0
 23 24  2  0
 21 25  1  0
 25 26  1  1
 25 27  1  0
 27 28  1  0
 28 29  1  0
 29 30  1  0
 30 31  2  0
 31 32  1  0
 32 33  2  0
 33 34  1  0
 34 35  2  0
 34 36  1  0
 36 37  1  0
 36 38  1  0
 19 39  1  0
  8  3  1  0
 23  5  1  0
 35 30  1  0
 39 15  2  0
M  END
$$$$
