
     RDKit          3D

 39 42  0  0  0  0  0  0  0  0999 V2000
  -18.6633  -47.2501   -9.4289 C   0  0  0  0  0  0  0  0  0  0  0  0
  -18.1217  -46.0081   -9.8301 O   0  0  0  0  0  0  0  0  0  0  0  0
  -18.4816  -44.8523   -9.1383 C   0  0  0  0  0  0  0  0  0  0  0  0
  -17.9023  -43.6371   -9.4314 C   0  0  0  0  0  0  0  0  0  0  0  0
  -18.2160  -42.4241   -8.7728 C   0  0  0  0  0  0  0  0  0  0  0  0
  -19.1621  -42.4695   -7.7741 C   0  0  0  0  0  0  0  0  0  0  0  0
  -19.7436  -43.6737   -7.4790 C   0  0  0  0  0  0  0  0  0  0  0  0
  -19.3738  -44.8128   -8.1773 N   0  0  0  0  0  0  0  0  0  0  0  0
  -20.7711  -44.0640   -6.5518 N   0  0  0  0  0  0  0  0  0  0  0  0
  -20.5592  -45.2690   -5.7090 C   0  0  0  0  0  0  0  0  0  0  0  0
  -22.0671  -43.4574   -6.3299 C   0  0  0  0  0  0  0  0  0  0  0  0
  -22.0994  -42.0689   -6.9312 C   0  0  0  0  0  0  0  0  0  0  0  0
  -23.4549  -41.5381   -7.2320 C   0  0  0  0  0  0  0  0  0  0  0  0
  -23.3451  -40.0609   -7.4493 C   0  0  0  0  0  0  0  0  0  0  0  0
  -22.0162  -39.4322   -7.2022 C   0  0  0  0  0  0  0  0  0  0  0  0
  -21.9571  -38.9662   -5.8631 C   0  0  0  0  0  0  0  0  0  0  0  0
  -20.8882  -38.2886   -5.3417 C   0  0  0  0  0  0  0  0  0  0  0  0
  -19.8623  -38.0851   -6.2155 C   0  0  0  0  0  0  0  0  0  0  0  0
  -19.8423  -38.5172   -7.5666 C   0  0  0  0  0  0  0  0  0  0  0  0
  -18.6136  -38.0506   -8.2370 C   0  0  0  0  0  0  0  0  0  0  0  0
  -17.4035  -38.8772   -8.3412 C   0  0  2  0  0  0  0  0  0  0  0  0
  -17.5861  -39.9191   -9.3429 N   0  0  0  0  0  0  0  0  0  0  0  0
  -17.4456  -41.3009   -9.3409 C   0  0  0  0  0  0  0  0  0  0  0  0
  -16.3395  -41.6224  -10.0332 O   0  0  0  0  0  0  0  0  0  0  0  0
  -16.6395  -39.2823   -7.1741 C   0  0  2  0  0  0  0  0  0  0  0  0
  -16.8497  -38.4657   -6.0339 O   0  0  0  0  0  0  0  0  0  0  0  0
  -15.2363  -39.6622   -7.1657 C   0  0  0  0  0  0  0  0  0  0  0  0
  -14.6244  -40.4582   -8.1235 N   0  0  0  0  0  0  0  0  0  0  0  0
  -13.4937  -40.1595   -8.8608 C   0  0  0  0  0  0  0  0  0  0  0  0
  -13.7971  -39.2256  -10.0196 C   0  0  0  0  0  0  0  0  0  0  0  0
  -13.3912  -37.9157  -10.0163 C   0  0  0  0  0  0  0  0  0  0  0  0
  -13.6580  -37.0514  -11.0630 C   0  0  0  0  0  0  0  0  0  0  0  0
  -14.3630  -37.5480  -12.1452 C   0  0  0  0  0  0  0  0  0  0  0  0
  -14.7877  -38.8569  -12.1856 C   0  0  0  0  0  0  0  0  0  0  0  0
  -14.4949  -39.6790  -11.1136 C   0  0  0  0  0  0  0  0  0  0  0  0
  -15.5347  -39.3857  -13.3366 C   0  0  0  0  0  0  0  0  0  0  0  0
  -14.8890  -40.6287  -13.9025 C   0  0  0  0  0  0  0  0  0  0  0  0
  -16.9708  -39.7329  -12.9632 C   0  0  0  0  0  0  0  0  0  0  0  0
  -20.9517  -39.2033   -8.0331 C   0  0  0  0  0  0  0  0  0  0  0  0
  1  2  1  0
  2  3  1  0
  3  4  2  0
  4  5  1  0
  5  6  2  0
  6  7  1  0
  7  8  2  0
  7  9  1  0
  9 10  1  0
  9 11  1  0
 11 12  1  0
 12 13  1  0
 13 14  1  0
 14 15  1  0
 15 16  1  0
 16 17  2  0
 17 18  1  0
 18 19  2  0
 19 20  1  0
 21 20  1  1
 21 22  1  0
 22 23  1  0
 23 24  2  0
 21 25  1  0
 25 26  1  1
 25 27  1  0
 27 28  1  0
 28 29  1  0
 29 30  1  0
 30 31  2  0
 31 32  1  0
 32 33  2  0
 33 34  1  0
 34 35  2  0
 34 36  1  0
 36 37  1  0
 36 38  1  0
 19 39  1  0
  8  3  1  0
 23  5  1  0
 35 30  1  0
 39 15  2  0
M  END
$$$$
