
     RDKit          3D

 39 42  0  0  0  0  0  0  0  0999 V2000
  -11.8310  -45.4161   -9.6942 C   0  0  0  0  0  0  0  0  0  0  0  0
  -11.4616  -44.1579   -9.1677 O   0  0  0  0  0  0  0  0  0  0  0  0
  -12.1285  -43.0139   -9.6043 C   0  0  0  0  0  0  0  0  0  0  0  0
  -12.8244  -42.2151   -8.7235 C   0  0  0  0  0  0  0  0  0  0  0  0
  -13.5245  -41.0416   -9.0929 C   0  0  0  0  0  0  0  0  0  0  0  0
  -13.5051  -40.6817  -10.4213 C   0  0  0  0  0  0  0  0  0  0  0  0
  -12.8134  -41.4700  -11.3019 C   0  0  0  0  0  0  0  0  0  0  0  0
  -12.1559  -42.6037  -10.8501 N   0  0  0  0  0  0  0  0  0  0  0  0
  -12.5546  -41.3680  -12.7127 N   0  0  0  0  0  0  0  0  0  0  0  0
  -12.7325  -42.5716  -13.5653 C   0  0  0  0  0  0  0  0  0  0  0  0
  -12.0817  -40.2248  -13.4653 C   0  0  0  0  0  0  0  0  0  0  0  0
  -12.2494  -38.9615  -12.6489 C   0  0  0  0  0  0  0  0  0  0  0  0
  -11.3780  -37.8257  -13.0496 C   0  0  0  0  0  0  0  0  0  0  0  0
  -11.9170  -36.5755  -12.4267 C   0  0  0  0  0  0  0  0  0  0  0  0
  -13.2099  -36.6823  -11.6922 C   0  0  0  0  0  0  0  0  0  0  0  0
  -14.2794  -36.3806  -12.5748 C   0  0  0  0  0  0  0  0  0  0  0  0
  -15.5920  -36.3347  -12.1890 C   0  0  0  0  0  0  0  0  0  0  0  0
  -15.8070  -36.6023  -10.8701 C   0  0  0  0  0  0  0  0  0  0  0  0
  -14.7963  -36.9118   -9.9240 C   0  0  0  0  0  0  0  0  0  0  0  0
  -15.3808  -37.0591   -8.5774 C   0  0  0  0  0  0  0  0  0  0  0  0
  -15.7808  -38.3597   -8.0237 C   0  0  2  0  0  0  0  0  0  0  0  0
  -14.6062  -39.1243   -7.6263 N   0  0  0  0  0  0  0  0  0  0  0  0
  -14.1370  -40.3996   -7.9137 C   0  0  0  0  0  0  0  0  0  0  0  0
  -14.3051  -41.1750   -6.8290 O   0  0  0  0  0  0  0  0  0  0  0  0
  -16.8547  -39.1498   -8.6004 C   0  0  2  0  0  0  0  0  0  0  0  0
  -17.9926  -38.3913   -8.9759 O   0  0  0  0  0  0  0  0  0  0  0  0
  -17.3459  -40.4191   -8.0899 C   0  0  0  0  0  0  0  0  0  0  0  0
  -18.5366  -40.5884   -7.3979 N   0  0  0  0  0  0  0  0  0  0  0  0
  -19.2462  -39.6243   -6.7062 C   0  0  0  0  0  0  0  0  0  0  0  0
  -20.7437  -39.7476   -6.9281 C   0  0  0  0  0  0  0  0  0  0  0  0
  -21.3612  -39.1832   -8.0148 C   0  0  0  0  0  0  0  0  0  0  0  0
  -22.7234  -39.2860   -8.2332 C   0  0  0  0  0  0  0  0  0  0  0  0
  -23.4733  -39.9896   -7.3072 C   0  0  0  0  0  0  0  0  0  0  0  0
  -22.8901  -40.5703   -6.2036 C   0  0  0  0  0  0  0  0  0  0  0  0
  -21.5249  -40.4379   -6.0323 C   0  0  0  0  0  0  0  0  0  0  0  0
  -23.6863  -41.3201   -5.2206 C   0  0  0  0  0  0  0  0  0  0  0  0
  -23.1006  -42.6857   -4.9474 C   0  0  0  0  0  0  0  0  0  0  0  0
  -23.7839  -40.5786   -3.8929 C   0  0  0  0  0  0  0  0  0  0  0  0
  -13.4878  -36.9487  -10.3779 C   0  0  0  0  0  0  0  0  0  0  0  0
  1  2  1  0
  2  3  1  0
  3  4  2  0
  4  5  1  0
  5  6  2  0
  6  7  1  0
  7  8  2  0
  7  9  1  0
  9 10  1  0
  9 11  1  0
 11 12  1  0
 12 13  1  0
 13 14  1  0
 14 15  1  0
 15 16  1  0
 16 17  2  0
 17 18  1  0
 18 19  2  0
 19 20  1  0
 21 20  1  6
 21 22  1  0
 22 23  1  0
 23 24  2  0
 21 25  1  0
 25 26  1  1
 25 27  1  0
 27 28  1  0
 28 29  1  0
 29 30  1  0
 30 31  2  0
 31 32  1  0
 32 33  2  0
 33 34  1  0
 34 35  2  0
 34 36  1  0
 36 37  1  0
 36 38  1  0
 19 39  1  0
  8  3  1  0
 23  5  1  0
 35 30  1  0
 39 15  2  0
M  END
$$$$
