
     RDKit          3D

 39 42  0  0  0  0  0  0  0  0999 V2000
  -18.0172  -47.1305   -7.0887 C   0  0  0  0  0  0  0  0  0  0  0  0
  -18.7349  -46.0008   -7.5417 O   0  0  0  0  0  0  0  0  0  0  0  0
  -18.0405  -44.9392   -8.1205 C   0  0  0  0  0  0  0  0  0  0  0  0
  -18.0116  -43.6974   -7.5245 C   0  0  0  0  0  0  0  0  0  0  0  0
  -17.3297  -42.5748   -8.0523 C   0  0  0  0  0  0  0  0  0  0  0  0
  -16.6544  -42.7421   -9.2399 C   0  0  0  0  0  0  0  0  0  0  0  0
  -16.6770  -43.9744   -9.8367 C   0  0  0  0  0  0  0  0  0  0  0  0
  -17.3724  -45.0187   -9.2468 N   0  0  0  0  0  0  0  0  0  0  0  0
  -16.0604  -44.4984  -11.0253 N   0  0  0  0  0  0  0  0  0  0  0  0
  -16.8798  -45.3084  -11.9633 C   0  0  0  0  0  0  0  0  0  0  0  0
  -14.6810  -44.3890  -11.4522 C   0  0  0  0  0  0  0  0  0  0  0  0
  -13.9842  -43.2915  -10.6775 C   0  0  0  0  0  0  0  0  0  0  0  0
  -12.5019  -43.3921  -10.6269 C   0  0  0  0  0  0  0  0  0  0  0  0
  -11.9550  -42.0737  -10.1749 C   0  0  0  0  0  0  0  0  0  0  0  0
  -12.9250  -40.9538  -10.0093 C   0  0  0  0  0  0  0  0  0  0  0  0
  -12.9921  -40.2067  -11.2139 C   0  0  0  0  0  0  0  0  0  0  0  0
  -13.7510  -39.0776  -11.3655 C   0  0  0  0  0  0  0  0  0  0  0  0
  -14.4519  -38.7099  -10.2560 C   0  0  0  0  0  0  0  0  0  0  0  0
  -14.4398  -39.3996   -9.0164 C   0  0  0  0  0  0  0  0  0  0  0  0
  -15.2450  -38.6729   -8.0163 C   0  0  0  0  0  0  0  0  0  0  0  0
  -16.6566  -38.9852   -7.7550 C   0  0  2  0  0  0  0  0  0  0  0  0
  -16.7693  -40.2188   -6.9883 N   0  0  0  0  0  0  0  0  0  0  0  0
  -17.4678  -41.4068   -7.1609 C   0  0  0  0  0  0  0  0  0  0  0  0
  -18.4861  -41.4390   -6.2844 O   0  0  0  0  0  0  0  0  0  0  0  0
  -17.6902  -38.7953   -8.7578 C   0  0  2  0  0  0  0  0  0  0  0  0
  -17.3135  -37.9347   -9.8201 O   0  0  0  0  0  0  0  0  0  0  0  0
  -19.0971  -38.5440   -8.4924 C   0  0  0  0  0  0  0  0  0  0  0  0
  -19.5788  -37.6870   -7.5131 N   0  0  0  0  0  0  0  0  0  0  0  0
  -20.2496  -38.0333   -6.3549 C   0  0  0  0  0  0  0  0  0  0  0  0
  -21.3585  -39.0380   -6.6153 C   0  0  0  0  0  0  0  0  0  0  0  0
  -21.9908  -39.1166   -7.8297 C   0  0  0  0  0  0  0  0  0  0  0  0
  -23.0019  -40.0257   -8.0847 C   0  0  0  0  0  0  0  0  0  0  0  0
  -23.3745  -40.8792   -7.0612 C   0  0  0  0  0  0  0  0  0  0  0  0
  -22.7638  -40.8309   -5.8283 C   0  0  0  0  0  0  0  0  0  0  0  0
  -21.7587  -39.9038   -5.6256 C   0  0  0  0  0  0  0  0  0  0  0  0
  -23.1577  -41.7394   -4.7412 C   0  0  0  0  0  0  0  0  0  0  0  0
  -22.6616  -43.1467   -4.9775 C   0  0  0  0  0  0  0  0  0  0  0  0
  -22.6174  -41.2727   -3.3949 C   0  0  0  0  0  0  0  0  0  0  0  0
  -13.6565  -40.5390   -8.9283 C   0  0  0  0  0  0  0  0  0  0  0  0
  1  2  1  0
  2  3  1  0
  3  4  2  0
  4  5  1  0
  5  6  2  0
  6  7  1  0
  7  8  2  0
  7  9  1  0
  9 10  1  0
  9 11  1  0
 11 12  1  0
 12 13  1  0
 13 14  1  0
 14 15  1  0
 15 16  1  0
 16 17  2  0
 17 18  1  0
 18 19  2  0
 19 20  1  0
 21 20  1  6
 21 22  1  0
 22 23  1  0
 23 24  2  0
 21 25  1  0
 25 26  1  1
 25 27  1  0
 27 28  1  0
 28 29  1  0
 29 30  1  0
 30 31  2  0
 31 32  1  0
 32 33  2  0
 33 34  1  0
 34 35  2  0
 34 36  1  0
 36 37  1  0
 36 38  1  0
 19 39  1  0
  8  3  1  0
 23  5  1  0
 35 30  1  0
 39 15  2  0
M  END
$$$$
