
     RDKit          3D

 39 42  0  0  0  0  0  0  0  0999 V2000
  -17.2382  -47.0613   -9.3498 C   0  0  0  0  0  0  0  0  0  0  0  0
  -18.2128  -46.2548   -9.9794 O   0  0  0  0  0  0  0  0  0  0  0  0
  -18.5593  -45.0319   -9.4062 C   0  0  0  0  0  0  0  0  0  0  0  0
  -18.2750  -43.8421  -10.0400 C   0  0  0  0  0  0  0  0  0  0  0  0
  -18.5952  -42.5649   -9.5203 C   0  0  0  0  0  0  0  0  0  0  0  0
  -19.2310  -42.5164   -8.3005 C   0  0  0  0  0  0  0  0  0  0  0  0
  -19.5186  -43.6954   -7.6660 C   0  0  0  0  0  0  0  0  0  0  0  0
  -19.1670  -44.9022   -8.2508 N   0  0  0  0  0  0  0  0  0  0  0  0
  -20.1961  -44.0058   -6.4363 N   0  0  0  0  0  0  0  0  0  0  0  0
  -19.5857  -44.9923   -5.5082 C   0  0  0  0  0  0  0  0  0  0  0  0
  -21.4695  -43.5117   -5.9554 C   0  0  0  0  0  0  0  0  0  0  0  0
  -21.8752  -42.2795   -6.7349 C   0  0  0  0  0  0  0  0  0  0  0  0
  -23.3286  -41.9680   -6.7198 C   0  0  0  0  0  0  0  0  0  0  0  0
  -23.5136  -40.5588   -7.1904 C   0  0  0  0  0  0  0  0  0  0  0  0
  -22.2826  -39.7536   -7.4326 C   0  0  0  0  0  0  0  0  0  0  0  0
  -21.9534  -39.0311   -6.2564 C   0  0  0  0  0  0  0  0  0  0  0  0
  -20.9068  -38.1526   -6.1732 C   0  0  0  0  0  0  0  0  0  0  0  0
  -20.1875  -38.0141   -7.3225 C   0  0  0  0  0  0  0  0  0  0  0  0
  -20.4498  -38.6974   -8.5377 C   0  0  0  0  0  0  0  0  0  0  0  0
  -19.5262  -38.2406   -9.5936 C   0  0  0  0  0  0  0  0  0  0  0  0
  -18.2695  -38.9354   -9.9039 C   0  0  2  0  0  0  0  0  0  0  0  0
  -18.5381  -40.1667  -10.6348 N   0  0  0  0  0  0  0  0  0  0  0  0
  -18.1855  -41.4978  -10.4537 C   0  0  0  0  0  0  0  0  0  0  0  0
  -17.2598  -41.8267  -11.3708 O   0  0  0  0  0  0  0  0  0  0  0  0
  -17.1754  -39.0190   -8.9522 C   0  0  2  0  0  0  0  0  0  0  0  0
  -17.2976  -38.1326   -7.8519 O   0  0  0  0  0  0  0  0  0  0  0  0
  -15.7617  -39.0835   -9.2846 C   0  0  0  0  0  0  0  0  0  0  0  0
  -15.2379  -38.9146  -10.5584 N   0  0  0  0  0  0  0  0  0  0  0  0
  -14.4293  -39.7945  -11.2535 C   0  0  0  0  0  0  0  0  0  0  0  0
  -13.0123  -39.2695  -11.4066 C   0  0  0  0  0  0  0  0  0  0  0  0
  -11.9203  -40.0356  -11.0882 C   0  0  0  0  0  0  0  0  0  0  0  0
  -10.6230  -39.5741  -11.2219 C   0  0  0  0  0  0  0  0  0  0  0  0
  -10.4426  -38.2870  -11.6969 C   0  0  0  0  0  0  0  0  0  0  0  0
  -11.5134  -37.4871  -12.0271 C   0  0  0  0  0  0  0  0  0  0  0  0
  -12.7893  -37.9966  -11.8749 C   0  0  0  0  0  0  0  0  0  0  0  0
  -11.3219  -36.1202  -12.5343 C   0  0  0  0  0  0  0  0  0  0  0  0
  -10.6023  -35.2457  -11.5345 C   0  0  0  0  0  0  0  0  0  0  0  0
  -10.5191  -36.1084  -13.8295 C   0  0  0  0  0  0  0  0  0  0  0  0
  -21.5194  -39.5777   -8.5562 C   0  0  0  0  0  0  0  0  0  0  0  0
  1  2  1  0
  2  3  1  0
  3  4  2  0
  4  5  1  0
  5  6  2  0
  6  7  1  0
  7  8  2  0
  7  9  1  0
  9 10  1  0
  9 11  1  0
 11 12  1  0
 12 13  1  0
 13 14  1  0
 14 15  1  0
 15 16  1  0
 16 17  2  0
 17 18  1  0
 18 19  2  0
 19 20  1  0
 21 20  1  1
 21 22  1  0
 22 23  1  0
 23 24  2  0
 21 25  1  0
 25 26  1  1
 25 27  1  0
 27 28  1  0
 28 29  1  0
 29 30  1  0
 30 31  2  0
 31 32  1  0
 32 33  2  0
 33 34  1  0
 34 35  2  0
 34 36  1  0
 36 37  1  0
 36 38  1  0
 19 39  1  0
  8  3  1  0
 23  5  1  0
 35 30  1  0
 39 15  2  0
M  END
$$$$
