
     RDKit          3D

 39 42  0  0  0  0  0  0  0  0999 V2000
  -23.2652  -43.0260  -12.4092 C   0  0  0  0  0  0  0  0  0  0  0  0
  -22.6201  -41.8148  -12.0724 O   0  0  0  0  0  0  0  0  0  0  0  0
  -22.0764  -41.6639  -10.7973 C   0  0  0  0  0  0  0  0  0  0  0  0
  -21.3013  -40.5704  -10.4782 C   0  0  0  0  0  0  0  0  0  0  0  0
  -20.7167  -40.3502   -9.2079 C   0  0  0  0  0  0  0  0  0  0  0  0
  -20.9408  -41.2955   -8.2329 C   0  0  0  0  0  0  0  0  0  0  0  0
  -21.7122  -42.3838   -8.5425 C   0  0  0  0  0  0  0  0  0  0  0  0
  -22.2450  -42.5174   -9.8154 N   0  0  0  0  0  0  0  0  0  0  0  0
  -22.1725  -43.5085   -7.7739 N   0  0  0  0  0  0  0  0  0  0  0  0
  -22.0604  -44.8711   -8.3553 C   0  0  0  0  0  0  0  0  0  0  0  0
  -22.8005  -43.5162   -6.4691 C   0  0  0  0  0  0  0  0  0  0  0  0
  -22.5788  -42.1874   -5.7793 C   0  0  0  0  0  0  0  0  0  0  0  0
  -23.5507  -41.8602   -4.7031 C   0  0  0  0  0  0  0  0  0  0  0  0
  -22.9886  -40.7392   -3.8852 C   0  0  0  0  0  0  0  0  0  0  0  0
  -21.6012  -40.2941   -4.2006 C   0  0  0  0  0  0  0  0  0  0  0  0
  -20.6828  -40.9954   -3.3769 C   0  0  0  0  0  0  0  0  0  0  0  0
  -19.3325  -40.7709   -3.3837 C   0  0  0  0  0  0  0  0  0  0  0  0
  -18.9206  -39.8053   -4.2529 C   0  0  0  0  0  0  0  0  0  0  0  0
  -19.7716  -39.0597   -5.1086 C   0  0  0  0  0  0  0  0  0  0  0  0
  -18.9961  -38.0447   -5.8470 C   0  0  0  0  0  0  0  0  0  0  0  0
  -18.4609  -38.2803   -7.1947 C   0  0  2  0  0  0  0  0  0  0  0  0
  -19.5300  -38.2202   -8.1824 N   0  0  0  0  0  0  0  0  0  0  0  0
  -19.9745  -39.0750   -9.1829 C   0  0  0  0  0  0  0  0  0  0  0  0
  -19.6183  -38.5655  -10.3744 O   0  0  0  0  0  0  0  0  0  0  0  0
  -17.4433  -39.2825   -7.4596 C   0  0  2  0  0  0  0  0  0  0  0  0
  -16.6499  -39.6127   -6.3315 O   0  0  0  0  0  0  0  0  0  0  0  0
  -16.5635  -39.3167   -8.6163 C   0  0  0  0  0  0  0  0  0  0  0  0
  -15.6704  -38.3130   -8.9634 N   0  0  0  0  0  0  0  0  0  0  0  0
  -15.4699  -37.7694  -10.2186 C   0  0  0  0  0  0  0  0  0  0  0  0
  -16.5925  -38.1204  -11.1796 C   0  0  0  0  0  0  0  0  0  0  0  0
  -17.0692  -39.4010  -11.2957 C   0  0  0  0  0  0  0  0  0  0  0  0
  -18.0911  -39.7386  -12.1650 C   0  0  0  0  0  0  0  0  0  0  0  0
  -18.6393  -38.7302  -12.9380 C   0  0  0  0  0  0  0  0  0  0  0  0
  -18.1878  -37.4326  -12.8501 C   0  0  0  0  0  0  0  0  0  0  0  0
  -17.1643  -37.1485  -11.9655 C   0  0  0  0  0  0  0  0  0  0  0  0
  -18.7718  -36.3603  -13.6696 C   0  0  0  0  0  0  0  0  0  0  0  0
  -17.9949  -35.0707  -13.5439 C   0  0  0  0  0  0  0  0  0  0  0  0
  -18.8135  -36.7396  -15.1449 C   0  0  0  0  0  0  0  0  0  0  0  0
  -21.1278  -39.3380   -5.0594 C   0  0  0  0  0  0  0  0  0  0  0  0
  1  2  1  0
  2  3  1  0
  3  4  2  0
  4  5  1  0
  5  6  2  0
  6  7  1  0
  7  8  2  0
  7  9  1  0
  9 10  1  0
  9 11  1  0
 11 12  1  0
 12 13  1  0
 13 14  1  0
 14 15  1  0
 15 16  1  0
 16 17  2  0
 17 18  1  0
 18 19  2  0
 19 20  1  0
 21 20  1  1
 21 22  1  0
 22 23  1  0
 23 24  2  0
 21 25  1  0
 25 26  1  1
 25 27  1  0
 27 28  1  0
 28 29  1  0
 29 30  1  0
 30 31  2  0
 31 32  1  0
 32 33  2  0
 33 34  1  0
 34 35  2  0
 34 36  1  0
 36 37  1  0
 36 38  1  0
 19 39  1  0
  8  3  1  0
 23  5  1  0
 35 30  1  0
 39 15  2  0
M  END
$$$$
