
     RDKit          3D

 39 42  0  0  0  0  0  0  0  0999 V2000
  -18.6595  -47.2889   -9.3799 C   0  0  0  0  0  0  0  0  0  0  0  0
  -18.7101  -45.9959   -9.9475 O   0  0  0  0  0  0  0  0  0  0  0  0
  -18.9235  -44.8954   -9.1183 C   0  0  0  0  0  0  0  0  0  0  0  0
  -18.5275  -43.6311   -9.4964 C   0  0  0  0  0  0  0  0  0  0  0  0
  -18.7098  -42.4690   -8.7089 C   0  0  0  0  0  0  0  0  0  0  0  0
  -19.3226  -42.6201   -7.4857 C   0  0  0  0  0  0  0  0  0  0  0  0
  -19.7208  -43.8737   -7.1046 C   0  0  0  0  0  0  0  0  0  0  0  0
  -19.5008  -44.9564   -7.9419 N   0  0  0  0  0  0  0  0  0  0  0  0
  -20.4114  -44.3717   -5.9458 N   0  0  0  0  0  0  0  0  0  0  0  0
  -19.8933  -45.5876   -5.2673 C   0  0  0  0  0  0  0  0  0  0  0  0
  -21.6221  -43.8705   -5.3294 C   0  0  0  0  0  0  0  0  0  0  0  0
  -21.9098  -42.4673   -5.8179 C   0  0  0  0  0  0  0  0  0  0  0  0
  -23.3238  -42.0270   -5.6889 C   0  0  0  0  0  0  0  0  0  0  0  0
  -23.3702  -40.5388   -5.8457 C   0  0  0  0  0  0  0  0  0  0  0  0
  -22.0668  -39.8235   -5.9538 C   0  0  0  0  0  0  0  0  0  0  0  0
  -21.6516  -39.4032   -4.6635 C   0  0  0  0  0  0  0  0  0  0  0  0
  -20.5202  -38.6681   -4.4322 C   0  0  0  0  0  0  0  0  0  0  0  0
  -19.8045  -38.3583   -5.5499 C   0  0  0  0  0  0  0  0  0  0  0  0
  -20.1497  -38.7385   -6.8723 C   0  0  0  0  0  0  0  0  0  0  0  0
  -19.1972  -38.1589   -7.8385 C   0  0  0  0  0  0  0  0  0  0  0  0
  -18.0216  -38.8900   -8.3301 C   0  0  2  0  0  0  0  0  0  0  0  0
  -18.4228  -39.9055   -9.2945 N   0  0  0  0  0  0  0  0  0  0  0  0
  -18.2051  -41.2724   -9.4098 C   0  0  0  0  0  0  0  0  0  0  0  0
  -17.3289  -41.4865  -10.4060 O   0  0  0  0  0  0  0  0  0  0  0  0
  -16.9301  -39.2798   -7.4544 C   0  0  2  0  0  0  0  0  0  0  0  0
  -16.9438  -38.6346   -6.1916 O   0  0  0  0  0  0  0  0  0  0  0  0
  -15.5356  -39.4155   -7.8416 C   0  0  0  0  0  0  0  0  0  0  0  0
  -15.0958  -39.8039   -9.0991 N   0  0  0  0  0  0  0  0  0  0  0  0
  -14.2040  -39.1349   -9.9167 C   0  0  0  0  0  0  0  0  0  0  0  0
  -14.8684  -38.0040  -10.6827 C   0  0  0  0  0  0  0  0  0  0  0  0
  -14.2510  -36.7926  -10.8609 C   0  0  0  0  0  0  0  0  0  0  0  0
  -14.8407  -35.7520  -11.5561 C   0  0  0  0  0  0  0  0  0  0  0  0
  -16.1025  -35.9628  -12.0838 C   0  0  0  0  0  0  0  0  0  0  0  0
  -16.7547  -37.1648  -11.9260 C   0  0  0  0  0  0  0  0  0  0  0  0
  -16.1211  -38.1721  -11.2227 C   0  0  0  0  0  0  0  0  0  0  0  0
  -18.0945  -37.3900  -12.4888 C   0  0  0  0  0  0  0  0  0  0  0  0
  -18.1043  -38.5334  -13.4761 C   0  0  0  0  0  0  0  0  0  0  0  0
  -19.1158  -37.7018  -11.4015 C   0  0  0  0  0  0  0  0  0  0  0  0
  -21.3034  -39.4870   -7.0400 C   0  0  0  0  0  0  0  0  0  0  0  0
  1  2  1  0
  2  3  1  0
  3  4  2  0
  4  5  1  0
  5  6  2  0
  6  7  1  0
  7  8  2  0
  7  9  1  0
  9 10  1  0
  9 11  1  0
 11 12  1  0
 12 13  1  0
 13 14  1  0
 14 15  1  0
 15 16  1  0
 16 17  2  0
 17 18  1  0
 18 19  2  0
 19 20  1  0
 21 20  1  1
 21 22  1  0
 22 23  1  0
 23 24  2  0
 21 25  1  0
 25 26  1  1
 25 27  1  0
 27 28  1  0
 28 29  1  0
 29 30  1  0
 30 31  2  0
 31 32  1  0
 32 33  2  0
 33 34  1  0
 34 35  2  0
 34 36  1  0
 36 37  1  0
 36 38  1  0
 19 39  1  0
  8  3  1  0
 23  5  1  0
 35 30  1  0
 39 15  2  0
M  END
$$$$
