
     RDKit          3D

 39 42  0  0  0  0  0  0  0  0999 V2000
  -12.3185  -42.8622   -8.5334 C   0  0  0  0  0  0  0  0  0  0  0  0
  -12.2234  -41.5137   -8.9445 O   0  0  0  0  0  0  0  0  0  0  0  0
  -13.3761  -40.8415   -9.3489 C   0  0  0  0  0  0  0  0  0  0  0  0
  -14.5060  -40.8271   -8.5606 C   0  0  0  0  0  0  0  0  0  0  0  0
  -15.7106  -40.1681   -8.9047 C   0  0  0  0  0  0  0  0  0  0  0  0
  -15.7485  -39.5009  -10.1080 C   0  0  0  0  0  0  0  0  0  0  0  0
  -14.6282  -39.5092  -10.8955 C   0  0  0  0  0  0  0  0  0  0  0  0
  -13.4908  -40.1825  -10.4775 N   0  0  0  0  0  0  0  0  0  0  0  0
  -14.3134  -38.8950  -12.1570 N   0  0  0  0  0  0  0  0  0  0  0  0
  -13.6511  -39.7097  -13.2081 C   0  0  0  0  0  0  0  0  0  0  0  0
  -14.5138  -37.5214  -12.5694 C   0  0  0  0  0  0  0  0  0  0  0  0
  -15.4840  -36.8352  -11.6321 C   0  0  0  0  0  0  0  0  0  0  0  0
  -15.4021  -35.3511  -11.6078 C   0  0  0  0  0  0  0  0  0  0  0  0
  -16.6397  -34.8214  -10.9525 C   0  0  0  0  0  0  0  0  0  0  0  0
  -17.7014  -35.8076  -10.6024 C   0  0  0  0  0  0  0  0  0  0  0  0
  -18.6315  -35.8975  -11.6703 C   0  0  0  0  0  0  0  0  0  0  0  0
  -19.7571  -36.6756  -11.6330 C   0  0  0  0  0  0  0  0  0  0  0  0
  -19.9291  -37.3723  -10.4743 C   0  0  0  0  0  0  0  0  0  0  0  0
  -19.0489  -37.3380   -9.3623 C   0  0  0  0  0  0  0  0  0  0  0  0
  -19.5910  -38.1458   -8.2530 C   0  0  0  0  0  0  0  0  0  0  0  0
  -19.2164  -39.5498   -8.0367 C   0  0  2  0  0  0  0  0  0  0  0  0
  -17.8737  -39.6359   -7.4783 N   0  0  0  0  0  0  0  0  0  0  0  0
  -16.7171  -40.3168   -7.8358 C   0  0  0  0  0  0  0  0  0  0  0  0
  -16.5265  -41.3265   -6.9696 O   0  0  0  0  0  0  0  0  0  0  0  0
  -19.5476  -40.5952   -8.9892 C   0  0  2  0  0  0  0  0  0  0  0  0
  -20.6305  -40.2739   -9.8467 O   0  0  0  0  0  0  0  0  0  0  0  0
  -19.6539  -42.0143   -8.6921 C   0  0  0  0  0  0  0  0  0  0  0  0
  -20.8195  -42.6576   -8.3012 N   0  0  0  0  0  0  0  0  0  0  0  0
  -21.1482  -43.0942   -7.0313 C   0  0  0  0  0  0  0  0  0  0  0  0
  -21.6884  -41.9714   -6.1627 C   0  0  0  0  0  0  0  0  0  0  0  0
  -22.2008  -40.8212   -6.7061 C   0  0  0  0  0  0  0  0  0  0  0  0
  -22.6975  -39.7889   -5.9305 C   0  0  0  0  0  0  0  0  0  0  0  0
  -22.6667  -39.9432   -4.5557 C   0  0  0  0  0  0  0  0  0  0  0  0
  -22.1601  -41.0829   -3.9726 C   0  0  0  0  0  0  0  0  0  0  0  0
  -21.6761  -42.0846   -4.7929 C   0  0  0  0  0  0  0  0  0  0  0  0
  -22.1294  -41.2482   -2.5117 C   0  0  0  0  0  0  0  0  0  0  0  0
  -21.8236  -42.6732   -2.1139 C   0  0  0  0  0  0  0  0  0  0  0  0
  -21.0837  -40.3473   -1.8658 C   0  0  0  0  0  0  0  0  0  0  0  0
  -17.9239  -36.5359   -9.4640 C   0  0  0  0  0  0  0  0  0  0  0  0
  1  2  1  0
  2  3  1  0
  3  4  2  0
  4  5  1  0
  5  6  2  0
  6  7  1  0
  7  8  2  0
  7  9  1  0
  9 10  1  0
  9 11  1  0
 11 12  1  0
 12 13  1  0
 13 14  1  0
 14 15  1  0
 15 16  1  0
 16 17  2  0
 17 18  1  0
 18 19  2  0
 19 20  1  0
 21 20  1  6
 21 22  1  0
 22 23  1  0
 23 24  2  0
 21 25  1  0
 25 26  1  1
 25 27  1  0
 27 28  1  0
 28 29  1  0
 29 30  1  0
 30 31  2  0
 31 32  1  0
 32 33  2  0
 33 34  1  0
 34 35  2  0
 34 36  1  0
 36 37  1  0
 36 38  1  0
 19 39  1  0
  8  3  1  0
 23  5  1  0
 35 30  1  0
 39 15  2  0
M  END
$$$$
