
     RDKit          3D

 39 42  0  0  0  0  0  0  0  0999 V2000
  -17.8823  -47.0833  -10.2526 C   0  0  0  0  0  0  0  0  0  0  0  0
  -18.4132  -45.8622  -10.7255 O   0  0  0  0  0  0  0  0  0  0  0  0
  -18.6478  -44.8259   -9.8227 C   0  0  0  0  0  0  0  0  0  0  0  0
  -18.0826  -43.5824  -10.0031 C   0  0  0  0  0  0  0  0  0  0  0  0
  -18.2744  -42.4846   -9.1303 C   0  0  0  0  0  0  0  0  0  0  0  0
  -19.0788  -42.6801   -8.0306 C   0  0  0  0  0  0  0  0  0  0  0  0
  -19.6456  -43.9130   -7.8464 C   0  0  0  0  0  0  0  0  0  0  0  0
  -19.4017  -44.9319   -8.7544 N   0  0  0  0  0  0  0  0  0  0  0  0
  -20.5489  -44.4378   -6.8583 N   0  0  0  0  0  0  0  0  0  0  0  0
  -20.2563  -45.7596   -6.2463 C   0  0  0  0  0  0  0  0  0  0  0  0
  -21.7878  -43.8675   -6.3715 C   0  0  0  0  0  0  0  0  0  0  0  0
  -21.8653  -42.4025   -6.7435 C   0  0  0  0  0  0  0  0  0  0  0  0
  -23.2352  -41.8259   -6.7720 C   0  0  0  0  0  0  0  0  0  0  0  0
  -23.1183  -40.3333   -6.7740 C   0  0  0  0  0  0  0  0  0  0  0  0
  -21.7528  -39.7560   -6.6174 C   0  0  0  0  0  0  0  0  0  0  0  0
  -21.5029  -39.5031   -5.2436 C   0  0  0  0  0  0  0  0  0  0  0  0
  -20.3569  -38.9188   -4.7756 C   0  0  0  0  0  0  0  0  0  0  0  0
  -19.4527  -38.5869   -5.7398 C   0  0  0  0  0  0  0  0  0  0  0  0
  -19.6251  -38.8047   -7.1309 C   0  0  0  0  0  0  0  0  0  0  0  0
  -18.4860  -38.2452   -7.8835 C   0  0  0  0  0  0  0  0  0  0  0  0
  -17.3222  -39.0507   -8.2769 C   0  0  2  0  0  0  0  0  0  0  0  0
  -17.6637  -39.9242   -9.3916 N   0  0  0  0  0  0  0  0  0  0  0  0
  -17.5591  -41.2903   -9.6199 C   0  0  0  0  0  0  0  0  0  0  0  0
  -16.5644  -41.5054  -10.4975 O   0  0  0  0  0  0  0  0  0  0  0  0
  -16.4189  -39.6347   -7.3007 C   0  0  2  0  0  0  0  0  0  0  0  0
  -16.8501  -39.4932   -5.9572 O   0  0  0  0  0  0  0  0  0  0  0  0
  -14.9715  -39.5002   -7.2936 C   0  0  0  0  0  0  0  0  0  0  0  0
  -14.1516  -39.6928   -8.3963 N   0  0  0  0  0  0  0  0  0  0  0  0
  -14.5435  -39.8482   -9.7129 C   0  0  0  0  0  0  0  0  0  0  0  0
  -14.9460  -38.5290  -10.3491 C   0  0  0  0  0  0  0  0  0  0  0  0
  -14.0312  -37.5371  -10.5941 C   0  0  0  0  0  0  0  0  0  0  0  0
  -14.3797  -36.3300  -11.1732 C   0  0  0  0  0  0  0  0  0  0  0  0
  -15.7078  -36.1366  -11.5105 C   0  0  0  0  0  0  0  0  0  0  0  0
  -16.6556  -37.1082  -11.2803 C   0  0  0  0  0  0  0  0  0  0  0  0
  -16.2547  -38.2965  -10.6991 C   0  0  0  0  0  0  0  0  0  0  0  0
  -18.0665  -36.9039  -11.6408 C   0  0  0  0  0  0  0  0  0  0  0  0
  -18.8597  -38.1868  -11.5551 C   0  0  0  0  0  0  0  0  0  0  0  0
  -18.7357  -35.8785  -10.7337 C   0  0  0  0  0  0  0  0  0  0  0  0
  -20.8040  -39.4057   -7.5410 C   0  0  0  0  0  0  0  0  0  0  0  0
  1  2  1  0
  2  3  1  0
  3  4  2  0
  4  5  1  0
  5  6  2  0
  6  7  1  0
  7  8  2  0
  7  9  1  0
  9 10  1  0
  9 11  1  0
 11 12  1  0
 12 13  1  0
 13 14  1  0
 14 15  1  0
 15 16  1  0
 16 17  2  0
 17 18  1  0
 18 19  2  0
 19 20  1  0
 21 20  1  1
 21 22  1  0
 22 23  1  0
 23 24  2  0
 21 25  1  0
 25 26  1  1
 25 27  1  0
 27 28  1  0
 28 29  1  0
 29 30  1  0
 30 31  2  0
 31 32  1  0
 32 33  2  0
 33 34  1  0
 34 35  2  0
 34 36  1  0
 36 37  1  0
 36 38  1  0
 19 39  1  0
  8  3  1  0
 23  5  1  0
 35 30  1  0
 39 15  2  0
M  END
$$$$
