
     RDKit          3D

 39 42  0  0  0  0  0  0  0  0999 V2000
  -18.1768  -47.4622   -8.8577 C   0  0  0  0  0  0  0  0  0  0  0  0
  -18.9182  -46.4859   -9.5602 O   0  0  0  0  0  0  0  0  0  0  0  0
  -19.1360  -45.2410   -8.9712 C   0  0  0  0  0  0  0  0  0  0  0  0
  -18.5976  -44.0934   -9.5110 C   0  0  0  0  0  0  0  0  0  0  0  0
  -18.7748  -42.7977   -8.9694 C   0  0  0  0  0  0  0  0  0  0  0  0
  -19.5352  -42.6847   -7.8277 C   0  0  0  0  0  0  0  0  0  0  0  0
  -20.0753  -43.8211   -7.2870 C   0  0  0  0  0  0  0  0  0  0  0  0
  -19.8486  -45.0505   -7.8863 N   0  0  0  0  0  0  0  0  0  0  0  0
  -20.9333  -44.0558   -6.1573 N   0  0  0  0  0  0  0  0  0  0  0  0
  -20.5976  -45.1545   -5.2153 C   0  0  0  0  0  0  0  0  0  0  0  0
  -22.1625  -43.3792   -5.7989 C   0  0  0  0  0  0  0  0  0  0  0  0
  -22.2769  -42.0753   -6.5587 C   0  0  0  0  0  0  0  0  0  0  0  0
  -23.6558  -41.5362   -6.6915 C   0  0  0  0  0  0  0  0  0  0  0  0
  -23.5628  -40.1021   -7.1114 C   0  0  0  0  0  0  0  0  0  0  0  0
  -22.2018  -39.4971   -7.1749 C   0  0  0  0  0  0  0  0  0  0  0  0
  -21.9059  -38.8719   -5.9359 C   0  0  0  0  0  0  0  0  0  0  0  0
  -20.7530  -38.1748   -5.6936 C   0  0  0  0  0  0  0  0  0  0  0  0
  -19.8900  -38.1187   -6.7470 C   0  0  0  0  0  0  0  0  0  0  0  0
  -20.1097  -38.7146   -8.0155 C   0  0  0  0  0  0  0  0  0  0  0  0
  -19.0080  -38.3799   -8.9380 C   0  0  0  0  0  0  0  0  0  0  0  0
  -17.8466  -39.2570   -9.1387 C   0  0  2  0  0  0  0  0  0  0  0  0
  -18.2148  -40.4071   -9.9536 N   0  0  0  0  0  0  0  0  0  0  0  0
  -18.0970  -41.7823   -9.7985 C   0  0  0  0  0  0  0  0  0  0  0  0
  -17.1317  -42.2273  -10.6209 O   0  0  0  0  0  0  0  0  0  0  0  0
  -16.8991  -39.5428   -8.0755 C   0  0  2  0  0  0  0  0  0  0  0  0
  -17.2813  -39.0332   -6.8084 O   0  0  0  0  0  0  0  0  0  0  0  0
  -15.4544  -39.4074   -8.1642 C   0  0  0  0  0  0  0  0  0  0  0  0
  -14.5537  -40.4610   -8.1007 N   0  0  0  0  0  0  0  0  0  0  0  0
  -13.5911  -40.7958   -9.0348 C   0  0  0  0  0  0  0  0  0  0  0  0
  -13.6311  -39.8840  -10.2489 C   0  0  0  0  0  0  0  0  0  0  0  0
  -14.0387  -40.3359  -11.4778 C   0  0  0  0  0  0  0  0  0  0  0  0
  -14.0820  -39.5197  -12.5939 C   0  0  0  0  0  0  0  0  0  0  0  0
  -13.6949  -38.1998  -12.4425 C   0  0  0  0  0  0  0  0  0  0  0  0
  -13.2795  -37.7088  -11.2253 C   0  0  0  0  0  0  0  0  0  0  0  0
  -13.2547  -38.5664  -10.1415 C   0  0  0  0  0  0  0  0  0  0  0  0
  -12.8704  -36.3056  -11.0635 C   0  0  0  0  0  0  0  0  0  0  0  0
  -13.5264  -35.6639   -9.8634 C   0  0  0  0  0  0  0  0  0  0  0  0
  -11.3612  -36.1756  -10.8971 C   0  0  0  0  0  0  0  0  0  0  0  0
  -21.2932  -39.4119   -8.1961 C   0  0  0  0  0  0  0  0  0  0  0  0
  1  2  1  0
  2  3  1  0
  3  4  2  0
  4  5  1  0
  5  6  2  0
  6  7  1  0
  7  8  2  0
  7  9  1  0
  9 10  1  0
  9 11  1  0
 11 12  1  0
 12 13  1  0
 13 14  1  0
 14 15  1  0
 15 16  1  0
 16 17  2  0
 17 18  1  0
 18 19  2  0
 19 20  1  0
 21 20  1  1
 21 22  1  0
 22 23  1  0
 23 24  2  0
 21 25  1  0
 25 26  1  1
 25 27  1  0
 27 28  1  0
 28 29  1  0
 29 30  1  0
 30 31  2  0
 31 32  1  0
 32 33  2  0
 33 34  1  0
 34 35  2  0
 34 36  1  0
 36 37  1  0
 36 38  1  0
 19 39  1  0
  8  3  1  0
 23  5  1  0
 35 30  1  0
 39 15  2  0
M  END
$$$$
