
     RDKit          3D

 39 42  0  0  0  0  0  0  0  0999 V2000
  -18.5267  -47.1005   -9.3007 C   0  0  0  0  0  0  0  0  0  0  0  0
  -18.5868  -45.8380   -9.9325 O   0  0  0  0  0  0  0  0  0  0  0  0
  -18.8227  -44.7006   -9.1613 C   0  0  0  0  0  0  0  0  0  0  0  0
  -18.1858  -43.5098   -9.4348 C   0  0  0  0  0  0  0  0  0  0  0  0
  -18.3741  -42.3165   -8.6971 C   0  0  0  0  0  0  0  0  0  0  0  0
  -19.2519  -42.3563   -7.6376 C   0  0  0  0  0  0  0  0  0  0  0  0
  -19.8901  -43.5360   -7.3616 C   0  0  0  0  0  0  0  0  0  0  0  0
  -19.6438  -44.6570   -8.1391 N   0  0  0  0  0  0  0  0  0  0  0  0
  -20.8764  -43.9105   -6.3845 N   0  0  0  0  0  0  0  0  0  0  0  0
  -20.6880  -45.1696   -5.6186 C   0  0  0  0  0  0  0  0  0  0  0  0
  -22.1119  -43.2372   -6.0423 C   0  0  0  0  0  0  0  0  0  0  0  0
  -22.0932  -41.8193   -6.5712 C   0  0  0  0  0  0  0  0  0  0  0  0
  -23.4281  -41.1899   -6.7495 C   0  0  0  0  0  0  0  0  0  0  0  0
  -23.2363  -39.7129   -6.9014 C   0  0  0  0  0  0  0  0  0  0  0  0
  -21.8553  -39.1821   -6.7182 C   0  0  0  0  0  0  0  0  0  0  0  0
  -21.6759  -38.7928   -5.3654 C   0  0  0  0  0  0  0  0  0  0  0  0
  -20.5321  -38.2117   -4.8881 C   0  0  0  0  0  0  0  0  0  0  0  0
  -19.5561  -38.0262   -5.8210 C   0  0  0  0  0  0  0  0  0  0  0  0
  -19.6554  -38.3859   -7.1897 C   0  0  0  0  0  0  0  0  0  0  0  0
  -18.4465  -37.9616   -7.9213 C   0  0  0  0  0  0  0  0  0  0  0  0
  -17.3031  -38.8551   -8.1509 C   0  0  2  0  0  0  0  0  0  0  0  0
  -17.6207  -39.8287   -9.1870 N   0  0  0  0  0  0  0  0  0  0  0  0
  -17.5715  -41.2147   -9.2625 C   0  0  0  0  0  0  0  0  0  0  0  0
  -16.5380  -41.5670  -10.0459 O   0  0  0  0  0  0  0  0  0  0  0  0
  -16.4906  -39.3686   -7.0618 C   0  0  2  0  0  0  0  0  0  0  0  0
  -16.3134  -38.4543   -5.9923 O   0  0  0  0  0  0  0  0  0  0  0  0
  -15.2406  -40.0970   -7.2031 C   0  0  0  0  0  0  0  0  0  0  0  0
  -14.1098  -39.6146   -7.8465 N   0  0  0  0  0  0  0  0  0  0  0  0
  -13.8786  -39.5678   -9.2087 C   0  0  0  0  0  0  0  0  0  0  0  0
  -14.6431  -38.4400   -9.8799 C   0  0  0  0  0  0  0  0  0  0  0  0
  -14.9491  -37.2800   -9.2155 C   0  0  0  0  0  0  0  0  0  0  0  0
  -15.6438  -36.2424   -9.8110 C   0  0  0  0  0  0  0  0  0  0  0  0
  -16.0358  -36.4018  -11.1285 C   0  0  0  0  0  0  0  0  0  0  0  0
  -15.7476  -37.5514  -11.8290 C   0  0  0  0  0  0  0  0  0  0  0  0
  -15.0509  -38.5581  -11.1872 C   0  0  0  0  0  0  0  0  0  0  0  0
  -16.1619  -37.7201  -13.2299 C   0  0  0  0  0  0  0  0  0  0  0  0
  -17.6568  -37.8981  -13.3561 C   0  0  0  0  0  0  0  0  0  0  0  0
  -15.7594  -36.5234  -14.0831 C   0  0  0  0  0  0  0  0  0  0  0  0
  -20.8364  -38.9759   -7.6098 C   0  0  0  0  0  0  0  0  0  0  0  0
  1  2  1  0
  2  3  1  0
  3  4  2  0
  4  5  1  0
  5  6  2  0
  6  7  1  0
  7  8  2  0
  7  9  1  0
  9 10  1  0
  9 11  1  0
 11 12  1  0
 12 13  1  0
 13 14  1  0
 14 15  1  0
 15 16  1  0
 16 17  2  0
 17 18  1  0
 18 19  2  0
 19 20  1  0
 21 20  1  1
 21 22  1  0
 22 23  1  0
 23 24  2  0
 21 25  1  0
 25 26  1  1
 25 27  1  0
 27 28  1  0
 28 29  1  0
 29 30  1  0
 30 31  2  0
 31 32  1  0
 32 33  2  0
 33 34  1  0
 34 35  2  0
 34 36  1  0
 36 37  1  0
 36 38  1  0
 19 39  1  0
  8  3  1  0
 23  5  1  0
 35 30  1  0
 39 15  2  0
M  END
$$$$
