
     RDKit          3D

 39 42  0  0  0  0  0  0  0  0999 V2000
  -19.7994  -47.4971   -8.1573 C   0  0  0  0  0  0  0  0  0  0  0  0
  -19.3503  -46.4602   -9.0057 O   0  0  0  0  0  0  0  0  0  0  0  0
  -19.4790  -45.1355   -8.5900 C   0  0  0  0  0  0  0  0  0  0  0  0
  -18.8667  -44.1104   -9.2773 C   0  0  0  0  0  0  0  0  0  0  0  0
  -18.9517  -42.7446   -8.9154 C   0  0  0  0  0  0  0  0  0  0  0  0
  -19.6958  -42.4275   -7.8016 C   0  0  0  0  0  0  0  0  0  0  0  0
  -20.3090  -43.4413   -7.1150 C   0  0  0  0  0  0  0  0  0  0  0  0
  -20.1704  -44.7526   -7.5428 N   0  0  0  0  0  0  0  0  0  0  0  0
  -21.1743  -43.4629   -5.9667 N   0  0  0  0  0  0  0  0  0  0  0  0
  -20.9088  -44.4456   -4.8846 C   0  0  0  0  0  0  0  0  0  0  0  0
  -22.3522  -42.6618   -5.7065 C   0  0  0  0  0  0  0  0  0  0  0  0
  -22.3818  -41.4669   -6.6349 C   0  0  0  0  0  0  0  0  0  0  0  0
  -23.7214  -40.8573   -6.8435 C   0  0  0  0  0  0  0  0  0  0  0  0
  -23.5332  -39.5024   -7.4519 C   0  0  0  0  0  0  0  0  0  0  0  0
  -22.1345  -39.0060   -7.5918 C   0  0  0  0  0  0  0  0  0  0  0  0
  -21.7891  -38.2419   -6.4470 C   0  0  0  0  0  0  0  0  0  0  0  0
  -20.5898  -37.5992   -6.2969 C   0  0  0  0  0  0  0  0  0  0  0  0
  -19.7314  -37.7443   -7.3454 C   0  0  0  0  0  0  0  0  0  0  0  0
  -19.9988  -38.4887   -8.5231 C   0  0  0  0  0  0  0  0  0  0  0  0
  -18.8824  -38.3571   -9.4786 C   0  0  0  0  0  0  0  0  0  0  0  0
  -17.7849  -39.3307   -9.5558 C   0  0  2  0  0  0  0  0  0  0  0  0
  -18.2356  -40.5518  -10.2099 N   0  0  0  0  0  0  0  0  0  0  0  0
  -18.2111  -41.8986   -9.8711 C   0  0  0  0  0  0  0  0  0  0  0  0
  -17.2834  -42.5151  -10.6232 O   0  0  0  0  0  0  0  0  0  0  0  0
  -16.8527  -39.5353   -8.4608 C   0  0  2  0  0  0  0  0  0  0  0  0
  -17.0693  -38.6805   -7.3501 O   0  0  0  0  0  0  0  0  0  0  0  0
  -15.4143  -39.7024   -8.5879 C   0  0  0  0  0  0  0  0  0  0  0  0
  -14.7747  -40.2624   -9.6846 N   0  0  0  0  0  0  0  0  0  0  0  0
  -15.1242  -40.1276  -11.0154 C   0  0  0  0  0  0  0  0  0  0  0  0
  -14.3676  -38.9985  -11.6935 C   0  0  0  0  0  0  0  0  0  0  0  0
  -13.4329  -39.2390  -12.6677 C   0  0  0  0  0  0  0  0  0  0  0  0
  -12.7351  -38.2232  -13.2964 C   0  0  0  0  0  0  0  0  0  0  0  0
  -13.0059  -36.9217  -12.9122 C   0  0  0  0  0  0  0  0  0  0  0  0
  -13.9369  -36.6399  -11.9380 C   0  0  0  0  0  0  0  0  0  0  0  0
  -14.6065  -37.6916  -11.3412 C   0  0  0  0  0  0  0  0  0  0  0  0
  -14.2267  -35.2567  -11.5313 C   0  0  0  0  0  0  0  0  0  0  0  0
  -13.2955  -34.7855  -10.4390 C   0  0  0  0  0  0  0  0  0  0  0  0
  -14.1026  -34.2889  -12.7018 C   0  0  0  0  0  0  0  0  0  0  0  0
  -21.2282  -39.1211   -8.6122 C   0  0  0  0  0  0  0  0  0  0  0  0
  1  2  1  0
  2  3  1  0
  3  4  2  0
  4  5  1  0
  5  6  2  0
  6  7  1  0
  7  8  2  0
  7  9  1  0
  9 10  1  0
  9 11  1  0
 11 12  1  0
 12 13  1  0
 13 14  1  0
 14 15  1  0
 15 16  1  0
 16 17  2  0
 17 18  1  0
 18 19  2  0
 19 20  1  0
 21 20  1  1
 21 22  1  0
 22 23  1  0
 23 24  2  0
 21 25  1  0
 25 26  1  1
 25 27  1  0
 27 28  1  0
 28 29  1  0
 29 30  1  0
 30 31  2  0
 31 32  1  0
 32 33  2  0
 33 34  1  0
 34 35  2  0
 34 36  1  0
 36 37  1  0
 36 38  1  0
 19 39  1  0
  8  3  1  0
 23  5  1  0
 35 30  1  0
 39 15  2  0
M  END
$$$$
