
     RDKit          3D

 39 42  0  0  0  0  0  0  0  0999 V2000
  -18.9694  -47.2621   -8.2270 C   0  0  0  0  0  0  0  0  0  0  0  0
  -18.0287  -46.2135   -8.1169 O   0  0  0  0  0  0  0  0  0  0  0  0
  -18.4819  -44.9078   -7.9325 C   0  0  0  0  0  0  0  0  0  0  0  0
  -18.0249  -43.8767   -8.7237 C   0  0  0  0  0  0  0  0  0  0  0  0
  -18.4382  -42.5289   -8.5953 C   0  0  0  0  0  0  0  0  0  0  0  0
  -19.3563  -42.2367   -7.6123 C   0  0  0  0  0  0  0  0  0  0  0  0
  -19.8165  -43.2573   -6.8236 C   0  0  0  0  0  0  0  0  0  0  0  0
  -19.3551  -44.5496   -7.0213 N   0  0  0  0  0  0  0  0  0  0  0  0
  -20.7846  -43.3143   -5.7619 N   0  0  0  0  0  0  0  0  0  0  0  0
  -20.4443  -44.0506   -4.5172 C   0  0  0  0  0  0  0  0  0  0  0  0
  -22.1273  -42.7728   -5.7321 C   0  0  0  0  0  0  0  0  0  0  0  0
  -22.3012  -41.7571   -6.8405 C   0  0  0  0  0  0  0  0  0  0  0  0
  -23.7062  -41.5022   -7.2541 C   0  0  0  0  0  0  0  0  0  0  0  0
  -23.7397  -40.2382   -8.0558 C   0  0  0  0  0  0  0  0  0  0  0  0
  -22.4710  -39.4622   -8.1586 C   0  0  0  0  0  0  0  0  0  0  0  0
  -22.4299  -38.4878   -7.1278 C   0  0  0  0  0  0  0  0  0  0  0  0
  -21.4193  -37.5755   -6.9855 C   0  0  0  0  0  0  0  0  0  0  0  0
  -20.4341  -37.6669   -7.9228 C   0  0  0  0  0  0  0  0  0  0  0  0
  -20.3999  -38.6091   -8.9827 C   0  0  0  0  0  0  0  0  0  0  0  0
  -19.2336  -38.3624   -9.8520 C   0  0  0  0  0  0  0  0  0  0  0  0
  -17.9537  -39.0628   -9.6806 C   0  0  2  0  0  0  0  0  0  0  0  0
  -18.0571  -40.4333  -10.1637 N   0  0  0  0  0  0  0  0  0  0  0  0
  -17.7877  -41.6787   -9.6110 C   0  0  0  0  0  0  0  0  0  0  0  0
  -16.6699  -42.1674  -10.1749 O   0  0  0  0  0  0  0  0  0  0  0  0
  -17.1325  -38.8962   -8.4941 C   0  0  2  0  0  0  0  0  0  0  0  0
  -17.6426  -37.9529   -7.5661 O   0  0  0  0  0  0  0  0  0  0  0  0
  -15.6848  -38.7657   -8.4728 C   0  0  0  0  0  0  0  0  0  0  0  0
  -14.9330  -38.1123   -9.4389 N   0  0  0  0  0  0  0  0  0  0  0  0
  -13.8242  -38.5986  -10.1061 C   0  0  0  0  0  0  0  0  0  0  0  0
  -13.8686  -40.1087  -10.2637 C   0  0  0  0  0  0  0  0  0  0  0  0
  -14.0425  -40.7018  -11.4879 C   0  0  0  0  0  0  0  0  0  0  0  0
  -14.0848  -42.0750  -11.6502 C   0  0  0  0  0  0  0  0  0  0  0  0
  -13.9443  -42.8621  -10.5207 C   0  0  0  0  0  0  0  0  0  0  0  0
  -13.7681  -42.3041   -9.2745 C   0  0  0  0  0  0  0  0  0  0  0  0
  -13.7332  -40.9264   -9.1673 C   0  0  0  0  0  0  0  0  0  0  0  0
  -13.6163  -43.1403   -8.0744 C   0  0  0  0  0  0  0  0  0  0  0  0
  -12.2295  -43.0308   -7.4852 C   0  0  0  0  0  0  0  0  0  0  0  0
  -14.6167  -42.7557   -6.9911 C   0  0  0  0  0  0  0  0  0  0  0  0
  -21.4490  -39.5099   -9.0692 C   0  0  0  0  0  0  0  0  0  0  0  0
  1  2  1  0
  2  3  1  0
  3  4  2  0
  4  5  1  0
  5  6  2  0
  6  7  1  0
  7  8  2  0
  7  9  1  0
  9 10  1  0
  9 11  1  0
 11 12  1  0
 12 13  1  0
 13 14  1  0
 14 15  1  0
 15 16  1  0
 16 17  2  0
 17 18  1  0
 18 19  2  0
 19 20  1  0
 21 20  1  1
 21 22  1  0
 22 23  1  0
 23 24  2  0
 21 25  1  0
 25 26  1  6
 25 27  1  0
 27 28  1  0
 28 29  1  0
 29 30  1  0
 30 31  2  0
 31 32  1  0
 32 33  2  0
 33 34  1  0
 34 35  2  0
 34 36  1  0
 36 37  1  0
 36 38  1  0
 19 39  1  0
  8  3  1  0
 23  5  1  0
 35 30  1  0
 39 15  2  0
M  END
$$$$
