
     RDKit          3D

 39 42  0  0  0  0  0  0  0  0999 V2000
  -18.5479  -47.0983   -6.4148 C   0  0  0  0  0  0  0  0  0  0  0  0
  -18.4112  -46.2500   -7.5366 O   0  0  0  0  0  0  0  0  0  0  0  0
  -18.6934  -44.8912   -7.4021 C   0  0  0  0  0  0  0  0  0  0  0  0
  -18.1309  -43.9597   -8.2471 C   0  0  0  0  0  0  0  0  0  0  0  0
  -18.3697  -42.5665   -8.1710 C   0  0  0  0  0  0  0  0  0  0  0  0
  -19.2198  -42.1204   -7.1847 C   0  0  0  0  0  0  0  0  0  0  0  0
  -19.7842  -43.0411   -6.3427 C   0  0  0  0  0  0  0  0  0  0  0  0
  -19.4926  -44.3883   -6.4913 N   0  0  0  0  0  0  0  0  0  0  0  0
  -20.7256  -42.9316   -5.2613 N   0  0  0  0  0  0  0  0  0  0  0  0
  -20.4494  -43.6520   -3.9917 C   0  0  0  0  0  0  0  0  0  0  0  0
  -21.9892  -42.2249   -5.2301 C   0  0  0  0  0  0  0  0  0  0  0  0
  -22.0622  -41.2427   -6.3792 C   0  0  0  0  0  0  0  0  0  0  0  0
  -23.4341  -40.8309   -6.7769 C   0  0  0  0  0  0  0  0  0  0  0  0
  -23.3294  -39.6074   -7.6334 C   0  0  0  0  0  0  0  0  0  0  0  0
  -21.9767  -39.0019   -7.7949 C   0  0  0  0  0  0  0  0  0  0  0  0
  -21.7893  -37.9980   -6.8096 C   0  0  0  0  0  0  0  0  0  0  0  0
  -20.6696  -37.2148   -6.7274 C   0  0  0  0  0  0  0  0  0  0  0  0
  -19.7268  -37.4684   -7.6783 C   0  0  0  0  0  0  0  0  0  0  0  0
  -19.8363  -38.4510   -8.6955 C   0  0  0  0  0  0  0  0  0  0  0  0
  -18.6700  -38.3894   -9.5970 C   0  0  0  0  0  0  0  0  0  0  0  0
  -17.4835  -39.2373   -9.4190 C   0  0  2  0  0  0  0  0  0  0  0  0
  -17.7688  -40.6029   -9.8384 N   0  0  0  0  0  0  0  0  0  0  0  0
  -17.6433  -41.8481   -9.2359 C   0  0  0  0  0  0  0  0  0  0  0  0
  -16.6094  -42.4965   -9.7986 O   0  0  0  0  0  0  0  0  0  0  0  0
  -16.6191  -39.1256   -8.2569 C   0  0  2  0  0  0  0  0  0  0  0  0
  -16.9075  -38.0122   -7.4272 O   0  0  0  0  0  0  0  0  0  0  0  0
  -15.1748  -39.2902   -8.2519 C   0  0  0  0  0  0  0  0  0  0  0  0
  -14.5081  -40.4549   -8.6047 N   0  0  0  0  0  0  0  0  0  0  0  0
  -13.9382  -40.7545   -9.8281 C   0  0  0  0  0  0  0  0  0  0  0  0
  -13.7479  -39.5173  -10.6884 C   0  0  0  0  0  0  0  0  0  0  0  0
  -13.1164  -39.5739  -11.9044 C   0  0  0  0  0  0  0  0  0  0  0  0
  -12.9350  -38.4578  -12.7013 C   0  0  0  0  0  0  0  0  0  0  0  0
  -13.4168  -37.2474  -12.2346 C   0  0  0  0  0  0  0  0  0  0  0  0
  -14.0560  -37.1500  -11.0192 C   0  0  0  0  0  0  0  0  0  0  0  0
  -14.2114  -38.2957  -10.2617 C   0  0  0  0  0  0  0  0  0  0  0  0
  -14.5703  -35.8644  -10.5241 C   0  0  0  0  0  0  0  0  0  0  0  0
  -13.5590  -34.7541  -10.6878 C   0  0  0  0  0  0  0  0  0  0  0  0
  -15.8427  -35.4497  -11.2530 C   0  0  0  0  0  0  0  0  0  0  0  0
  -20.9913  -39.2157   -8.7217 C   0  0  0  0  0  0  0  0  0  0  0  0
  1  2  1  0
  2  3  1  0
  3  4  2  0
  4  5  1  0
  5  6  2  0
  6  7  1  0
  7  8  2  0
  7  9  1  0
  9 10  1  0
  9 11  1  0
 11 12  1  0
 12 13  1  0
 13 14  1  0
 14 15  1  0
 15 16  1  0
 16 17  2  0
 17 18  1  0
 18 19  2  0
 19 20  1  0
 21 20  1  1
 21 22  1  0
 22 23  1  0
 23 24  2  0
 21 25  1  0
 25 26  1  6
 25 27  1  0
 27 28  1  0
 28 29  1  0
 29 30  1  0
 30 31  2  0
 31 32  1  0
 32 33  2  0
 33 34  1  0
 34 35  2  0
 34 36  1  0
 36 37  1  0
 36 38  1  0
 19 39  1  0
  8  3  1  0
 23  5  1  0
 35 30  1  0
 39 15  2  0
M  END
$$$$
