
     RDKit          3D

 39 42  0  0  0  0  0  0  0  0999 V2000
  -17.9368  -47.0534  -10.1671 C   0  0  0  0  0  0  0  0  0  0  0  0
  -17.5329  -45.7356  -10.4780 O   0  0  0  0  0  0  0  0  0  0  0  0
  -18.0137  -44.6761   -9.7095 C   0  0  0  0  0  0  0  0  0  0  0  0
  -17.5839  -43.3854   -9.9275 C   0  0  0  0  0  0  0  0  0  0  0  0
  -18.0260  -42.2618   -9.1887 C   0  0  0  0  0  0  0  0  0  0  0  0
  -18.9447  -42.4810   -8.1876 C   0  0  0  0  0  0  0  0  0  0  0  0
  -19.3780  -43.7613   -7.9670 C   0  0  0  0  0  0  0  0  0  0  0  0
  -18.8894  -44.8025   -8.7409 N   0  0  0  0  0  0  0  0  0  0  0  0
  -20.3386  -44.3272   -7.0590 N   0  0  0  0  0  0  0  0  0  0  0  0
  -19.9753  -45.5504   -6.2981 C   0  0  0  0  0  0  0  0  0  0  0  0
  -21.6927  -43.8916   -6.7876 C   0  0  0  0  0  0  0  0  0  0  0  0
  -21.8952  -42.4808   -7.2969 C   0  0  0  0  0  0  0  0  0  0  0  0
  -23.3077  -42.0939   -7.5517 C   0  0  0  0  0  0  0  0  0  0  0  0
  -23.3735  -40.6031   -7.6732 C   0  0  0  0  0  0  0  0  0  0  0  0
  -22.1227  -39.8405   -7.3963 C   0  0  0  0  0  0  0  0  0  0  0  0
  -22.0974  -39.4572   -6.0302 C   0  0  0  0  0  0  0  0  0  0  0  0
  -21.1063  -38.6940   -5.4743 C   0  0  0  0  0  0  0  0  0  0  0  0
  -20.1246  -38.3168   -6.3412 C   0  0  0  0  0  0  0  0  0  0  0  0
  -20.0756  -38.6565   -7.7177 C   0  0  0  0  0  0  0  0  0  0  0  0
  -18.9199  -38.0079   -8.3660 C   0  0  0  0  0  0  0  0  0  0  0  0
  -17.6239  -38.6791   -8.5336 C   0  0  2  0  0  0  0  0  0  0  0  0
  -17.6999  -39.6691   -9.5995 N   0  0  0  0  0  0  0  0  0  0  0  0
  -17.4000  -41.0224   -9.6886 C   0  0  0  0  0  0  0  0  0  0  0  0
  -16.2750  -41.1677  -10.4092 O   0  0  0  0  0  0  0  0  0  0  0  0
  -16.8000  -39.0657   -7.4015 C   0  0  2  0  0  0  0  0  0  0  0  0
  -17.2338  -38.5312   -6.1617 O   0  0  0  0  0  0  0  0  0  0  0  0
  -15.3466  -39.0731   -7.3701 C   0  0  0  0  0  0  0  0  0  0  0  0
  -14.5560  -40.2050   -7.5083 N   0  0  0  0  0  0  0  0  0  0  0  0
  -14.7433  -41.2534   -8.3899 C   0  0  0  0  0  0  0  0  0  0  0  0
  -15.0234  -40.7696   -9.8022 C   0  0  0  0  0  0  0  0  0  0  0  0
  -14.0440  -40.7368  -10.7614 C   0  0  0  0  0  0  0  0  0  0  0  0
  -14.2812  -40.3000  -12.0525 C   0  0  0  0  0  0  0  0  0  0  0  0
  -15.5631  -39.8845  -12.3670 C   0  0  0  0  0  0  0  0  0  0  0  0
  -16.5731  -39.9024  -11.4316 C   0  0  0  0  0  0  0  0  0  0  0  0
  -16.2830  -40.3481  -10.1557 C   0  0  0  0  0  0  0  0  0  0  0  0
  -17.9361  -39.4632  -11.7661 C   0  0  0  0  0  0  0  0  0  0  0  0
  -18.8216  -40.6246  -12.1525 C   0  0  0  0  0  0  0  0  0  0  0  0
  -18.5960  -38.7397  -10.5985 C   0  0  0  0  0  0  0  0  0  0  0  0
  -21.1051  -39.4364   -8.2190 C   0  0  0  0  0  0  0  0  0  0  0  0
  1  2  1  0
  2  3  1  0
  3  4  2  0
  4  5  1  0
  5  6  2  0
  6  7  1  0
  7  8  2  0
  7  9  1  0
  9 10  1  0
  9 11  1  0
 11 12  1  0
 12 13  1  0
 13 14  1  0
 14 15  1  0
 15 16  1  0
 16 17  2  0
 17 18  1  0
 18 19  2  0
 19 20  1  0
 21 20  1  1
 21 22  1  0
 22 23  1  0
 23 24  2  0
 21 25  1  0
 25 26  1  1
 25 27  1  0
 27 28  1  0
 28 29  1  0
 29 30  1  0
 30 31  2  0
 31 32  1  0
 32 33  2  0
 33 34  1  0
 34 35  2  0
 34 36  1  0
 36 37  1  0
 36 38  1  0
 19 39  1  0
  8  3  1  0
 23  5  1  0
 35 30  1  0
 39 15  2  0
M  END
$$$$
