
     RDKit          3D

 39 42  0  0  0  0  0  0  0  0999 V2000
  -18.7384  -47.7862   -8.4899 C   0  0  0  0  0  0  0  0  0  0  0  0
  -18.7685  -46.6263   -9.2962 O   0  0  0  0  0  0  0  0  0  0  0  0
  -19.0227  -45.3903   -8.7031 C   0  0  0  0  0  0  0  0  0  0  0  0
  -18.4543  -44.2347   -9.1929 C   0  0  0  0  0  0  0  0  0  0  0  0
  -18.6652  -42.9471   -8.6440 C   0  0  0  0  0  0  0  0  0  0  0  0
  -19.4928  -42.8512   -7.5483 C   0  0  0  0  0  0  0  0  0  0  0  0
  -20.0629  -43.9955   -7.0577 C   0  0  0  0  0  0  0  0  0  0  0  0
  -19.7992  -45.2159   -7.6602 N   0  0  0  0  0  0  0  0  0  0  0  0
  -20.9868  -44.2472   -5.9850 N   0  0  0  0  0  0  0  0  0  0  0  0
  -20.7067  -45.3595   -5.0407 C   0  0  0  0  0  0  0  0  0  0  0  0
  -22.2360  -43.5764   -5.6910 C   0  0  0  0  0  0  0  0  0  0  0  0
  -22.3063  -42.2615   -6.4371 C   0  0  0  0  0  0  0  0  0  0  0  0
  -23.6755  -41.7209   -6.6444 C   0  0  0  0  0  0  0  0  0  0  0  0
  -23.5593  -40.2808   -7.0369 C   0  0  0  0  0  0  0  0  0  0  0  0
  -22.1977  -39.6744   -7.0099 C   0  0  0  0  0  0  0  0  0  0  0  0
  -21.9773  -39.0674   -5.7463 C   0  0  0  0  0  0  0  0  0  0  0  0
  -20.8418  -38.3735   -5.4253 C   0  0  0  0  0  0  0  0  0  0  0  0
  -19.9174  -38.3017   -6.4242 C   0  0  0  0  0  0  0  0  0  0  0  0
  -20.0599  -38.8790   -7.7122 C   0  0  0  0  0  0  0  0  0  0  0  0
  -18.9054  -38.5304   -8.5620 C   0  0  0  0  0  0  0  0  0  0  0  0
  -17.7330  -39.4040   -8.7056 C   0  0  2  0  0  0  0  0  0  0  0  0
  -18.0503  -40.5421   -9.5577 N   0  0  0  0  0  0  0  0  0  0  0  0
  -17.9402  -41.9195   -9.4161 C   0  0  0  0  0  0  0  0  0  0  0  0
  -16.9269  -42.3520  -10.1856 O   0  0  0  0  0  0  0  0  0  0  0  0
  -16.8505  -39.7050   -7.5918 C   0  0  2  0  0  0  0  0  0  0  0  0
  -16.8882  -38.7448   -6.5488 O   0  0  0  0  0  0  0  0  0  0  0  0
  -15.4731  -40.1579   -7.6960 C   0  0  0  0  0  0  0  0  0  0  0  0
  -14.4869  -39.5322   -8.4453 N   0  0  0  0  0  0  0  0  0  0  0  0
  -13.7938  -40.0571   -9.5201 C   0  0  0  0  0  0  0  0  0  0  0  0
  -14.2191  -39.4294  -10.8362 C   0  0  0  0  0  0  0  0  0  0  0  0
  -14.5611  -40.1929  -11.9228 C   0  0  0  0  0  0  0  0  0  0  0  0
  -14.9514  -39.6384  -13.1286 C   0  0  0  0  0  0  0  0  0  0  0  0
  -14.9911  -38.2582  -13.2206 C   0  0  0  0  0  0  0  0  0  0  0  0
  -14.6549  -37.4578  -12.1521 C   0  0  0  0  0  0  0  0  0  0  0  0
  -14.2718  -38.0624  -10.9695 C   0  0  0  0  0  0  0  0  0  0  0  0
  -14.6995  -35.9912  -12.2486 C   0  0  0  0  0  0  0  0  0  0  0  0
  -15.0192  -35.3500  -10.9185 C   0  0  0  0  0  0  0  0  0  0  0  0
  -13.3740  -35.4195  -12.7371 C   0  0  0  0  0  0  0  0  0  0  0  0
  -21.2296  -39.5739   -7.9735 C   0  0  0  0  0  0  0  0  0  0  0  0
  1  2  1  0
  2  3  1  0
  3  4  2  0
  4  5  1  0
  5  6  2  0
  6  7  1  0
  7  8  2  0
  7  9  1  0
  9 10  1  0
  9 11  1  0
 11 12  1  0
 12 13  1  0
 13 14  1  0
 14 15  1  0
 15 16  1  0
 16 17  2  0
 17 18  1  0
 18 19  2  0
 19 20  1  0
 21 20  1  1
 21 22  1  0
 22 23  1  0
 23 24  2  0
 21 25  1  0
 25 26  1  1
 25 27  1  0
 27 28  1  0
 28 29  1  0
 29 30  1  0
 30 31  2  0
 31 32  1  0
 32 33  2  0
 33 34  1  0
 34 35  2  0
 34 36  1  0
 36 37  1  0
 36 38  1  0
 19 39  1  0
  8  3  1  0
 23  5  1  0
 35 30  1  0
 39 15  2  0
M  END
$$$$
