
     RDKit          3D

 39 42  0  0  0  0  0  0  0  0999 V2000
  -18.3083  -47.0119   -6.1111 C   0  0  0  0  0  0  0  0  0  0  0  0
  -18.7297  -46.2918   -7.2515 O   0  0  0  0  0  0  0  0  0  0  0  0
  -19.0258  -44.9347   -7.1297 C   0  0  0  0  0  0  0  0  0  0  0  0
  -18.3806  -43.9928   -7.9009 C   0  0  0  0  0  0  0  0  0  0  0  0
  -18.6274  -42.6006   -7.8323 C   0  0  0  0  0  0  0  0  0  0  0  0
  -19.5748  -42.1667   -6.9330 C   0  0  0  0  0  0  0  0  0  0  0  0
  -20.2215  -43.0978   -6.1649 C   0  0  0  0  0  0  0  0  0  0  0  0
  -19.9147  -44.4430   -6.2995 N   0  0  0  0  0  0  0  0  0  0  0  0
  -21.2691  -43.0016   -5.1845 N   0  0  0  0  0  0  0  0  0  0  0  0
  -21.1238  -43.7379   -3.9023 C   0  0  0  0  0  0  0  0  0  0  0  0
  -22.5299  -42.2952   -5.2742 C   0  0  0  0  0  0  0  0  0  0  0  0
  -22.4858  -41.2987   -6.4125 C   0  0  0  0  0  0  0  0  0  0  0  0
  -23.8101  -40.8817   -6.9437 C   0  0  0  0  0  0  0  0  0  0  0  0
  -23.6194  -39.6476   -7.7696 C   0  0  0  0  0  0  0  0  0  0  0  0
  -22.2580  -39.0403   -7.7839 C   0  0  0  0  0  0  0  0  0  0  0  0
  -22.1737  -38.0489   -6.7721 C   0  0  0  0  0  0  0  0  0  0  0  0
  -21.0693  -37.2670   -6.5657 C   0  0  0  0  0  0  0  0  0  0  0  0
  -20.0336  -37.5088   -7.4179 C   0  0  0  0  0  0  0  0  0  0  0  0
  -20.0371  -38.4786   -8.4532 C   0  0  0  0  0  0  0  0  0  0  0  0
  -18.7845  -38.4059   -9.2294 C   0  0  0  0  0  0  0  0  0  0  0  0
  -17.6216  -39.2561   -8.9412 C   0  0  2  0  0  0  0  0  0  0  0  0
  -17.8608  -40.6164   -9.4046 N   0  0  0  0  0  0  0  0  0  0  0  0
  -17.7964  -41.8690   -8.8080 C   0  0  0  0  0  0  0  0  0  0  0  0
  -16.7095  -42.5106   -9.2697 O   0  0  0  0  0  0  0  0  0  0  0  0
  -16.8811  -39.1591   -7.6953 C   0  0  2  0  0  0  0  0  0  0  0  0
  -17.4797  -38.3075   -6.7321 O   0  0  0  0  0  0  0  0  0  0  0  0
  -15.4429  -38.9877   -7.5714 C   0  0  0  0  0  0  0  0  0  0  0  0
  -14.4928  -39.8412   -8.1139 N   0  0  0  0  0  0  0  0  0  0  0  0
  -13.8614  -39.7199   -9.3378 C   0  0  0  0  0  0  0  0  0  0  0  0
  -14.7102  -38.9660  -10.3468 C   0  0  0  0  0  0  0  0  0  0  0  0
  -15.8191  -39.5311  -10.9227 C   0  0  0  0  0  0  0  0  0  0  0  0
  -16.6040  -38.8592  -11.8427 C   0  0  0  0  0  0  0  0  0  0  0  0
  -16.2382  -37.5681  -12.1809 C   0  0  0  0  0  0  0  0  0  0  0  0
  -15.1319  -36.9666  -11.6247 C   0  0  0  0  0  0  0  0  0  0  0  0
  -14.3816  -37.6818  -10.7103 C   0  0  0  0  0  0  0  0  0  0  0  0
  -14.7444  -35.5938  -11.9820 C   0  0  0  0  0  0  0  0  0  0  0  0
  -15.1319  -34.6033  -10.9092 C   0  0  0  0  0  0  0  0  0  0  0  0
  -13.2421  -35.4746  -12.2083 C   0  0  0  0  0  0  0  0  0  0  0  0
  -21.1824  -39.2427   -8.6073 C   0  0  0  0  0  0  0  0  0  0  0  0
  1  2  1  0
  2  3  1  0
  3  4  2  0
  4  5  1  0
  5  6  2  0
  6  7  1  0
  7  8  2  0
  7  9  1  0
  9 10  1  0
  9 11  1  0
 11 12  1  0
 12 13  1  0
 13 14  1  0
 14 15  1  0
 15 16  1  0
 16 17  2  0
 17 18  1  0
 18 19  2  0
 19 20  1  0
 21 20  1  1
 21 22  1  0
 22 23  1  0
 23 24  2  0
 21 25  1  0
 25 26  1  6
 25 27  1  0
 27 28  1  0
 28 29  1  0
 29 30  1  0
 30 31  2  0
 31 32  1  0
 32 33  2  0
 33 34  1  0
 34 35  2  0
 34 36  1  0
 36 37  1  0
 36 38  1  0
 19 39  1  0
  8  3  1  0
 23  5  1  0
 35 30  1  0
 39 15  2  0
M  END
$$$$
