
     RDKit          3D

 39 42  0  0  0  0  0  0  0  0999 V2000
  -19.5936  -47.4260   -8.4368 C   0  0  0  0  0  0  0  0  0  0  0  0
  -19.2783  -46.3695   -9.3205 O   0  0  0  0  0  0  0  0  0  0  0  0
  -19.4125  -45.0523   -8.8834 C   0  0  0  0  0  0  0  0  0  0  0  0
  -18.8170  -44.0121   -9.5628 C   0  0  0  0  0  0  0  0  0  0  0  0
  -18.9084  -42.6526   -9.1793 C   0  0  0  0  0  0  0  0  0  0  0  0
  -19.6411  -42.3582   -8.0519 C   0  0  0  0  0  0  0  0  0  0  0  0
  -20.2376  -43.3871   -7.3730 C   0  0  0  0  0  0  0  0  0  0  0  0
  -20.0938  -44.6907   -7.8222 N   0  0  0  0  0  0  0  0  0  0  0  0
  -21.0884  -43.4330   -6.2147 N   0  0  0  0  0  0  0  0  0  0  0  0
  -20.8015  -44.4294   -5.1507 C   0  0  0  0  0  0  0  0  0  0  0  0
  -22.2693  -42.6454   -5.9280 C   0  0  0  0  0  0  0  0  0  0  0  0
  -22.3200  -41.4372   -6.8379 C   0  0  0  0  0  0  0  0  0  0  0  0
  -23.6670  -40.8355   -7.0208 C   0  0  0  0  0  0  0  0  0  0  0  0
  -23.4972  -39.4702   -7.6111 C   0  0  0  0  0  0  0  0  0  0  0  0
  -22.1044  -38.9603   -7.7607 C   0  0  0  0  0  0  0  0  0  0  0  0
  -21.7509  -38.2105   -6.6089 C   0  0  0  0  0  0  0  0  0  0  0  0
  -20.5551  -37.5604   -6.4640 C   0  0  0  0  0  0  0  0  0  0  0  0
  -19.7086  -37.6828   -7.5251 C   0  0  0  0  0  0  0  0  0  0  0  0
  -19.9847  -38.4117   -8.7104 C   0  0  0  0  0  0  0  0  0  0  0  0
  -18.8813  -38.2568   -9.6774 C   0  0  0  0  0  0  0  0  0  0  0  0
  -17.7770  -39.2200   -9.7828 C   0  0  2  0  0  0  0  0  0  0  0  0
  -18.2261  -40.4349  -10.4495 N   0  0  0  0  0  0  0  0  0  0  0  0
  -18.1865  -41.7864  -10.1313 C   0  0  0  0  0  0  0  0  0  0  0  0
  -17.2634  -42.3839  -10.9039 O   0  0  0  0  0  0  0  0  0  0  0  0
  -16.8297  -39.4333   -8.7025 C   0  0  2  0  0  0  0  0  0  0  0  0
  -17.1400  -38.7252   -7.5136 O   0  0  0  0  0  0  0  0  0  0  0  0
  -15.3815  -39.4295   -8.8277 C   0  0  0  0  0  0  0  0  0  0  0  0
  -14.6227  -40.4943   -9.2923 N   0  0  0  0  0  0  0  0  0  0  0  0
  -13.2832  -40.4805   -9.6342 C   0  0  0  0  0  0  0  0  0  0  0  0
  -13.0360  -39.7595  -10.9480 C   0  0  0  0  0  0  0  0  0  0  0  0
  -13.1862  -40.3898  -12.1566 C   0  0  0  0  0  0  0  0  0  0  0  0
  -12.9660  -39.7488  -13.3626 C   0  0  0  0  0  0  0  0  0  0  0  0
  -12.5799  -38.4204  -13.3253 C   0  0  0  0  0  0  0  0  0  0  0  0
  -12.4184  -37.7532  -12.1320 C   0  0  0  0  0  0  0  0  0  0  0  0
  -12.6511  -38.4400  -10.9552 C   0  0  0  0  0  0  0  0  0  0  0  0
  -12.0105  -36.3409  -12.0921 C   0  0  0  0  0  0  0  0  0  0  0  0
  -13.0896  -35.4609  -11.5060 C   0  0  0  0  0  0  0  0  0  0  0  0
  -10.7458  -36.1442  -11.2651 C   0  0  0  0  0  0  0  0  0  0  0  0
  -21.2100  -39.0528   -8.7939 C   0  0  0  0  0  0  0  0  0  0  0  0
  1  2  1  0
  2  3  1  0
  3  4  2  0
  4  5  1  0
  5  6  2  0
  6  7  1  0
  7  8  2  0
  7  9  1  0
  9 10  1  0
  9 11  1  0
 11 12  1  0
 12 13  1  0
 13 14  1  0
 14 15  1  0
 15 16  1  0
 16 17  2  0
 17 18  1  0
 18 19  2  0
 19 20  1  0
 21 20  1  1
 21 22  1  0
 22 23  1  0
 23 24  2  0
 21 25  1  0
 25 26  1  1
 25 27  1  0
 27 28  1  0
 28 29  1  0
 29 30  1  0
 30 31  2  0
 31 32  1  0
 32 33  2  0
 33 34  1  0
 34 35  2  0
 34 36  1  0
 36 37  1  0
 36 38  1  0
 19 39  1  0
  8  3  1  0
 23  5  1  0
 35 30  1  0
 39 15  2  0
M  END
$$$$
