
     RDKit          3D

 38 40  0  0  0  0  0  0  0  0999 V2000
  -17.7500  -36.9674  -13.2376 C   0  0  0  0  0  0  0  0  0  0  0  0
  -18.8671  -37.1836  -12.4282 O   0  0  0  0  0  0  0  0  0  0  0  0
  -19.5915  -38.2812  -12.8748 C   0  0  0  0  0  0  0  0  0  0  0  0
  -19.6636  -39.3275  -11.8158 C   0  0  0  0  0  0  0  0  0  0  0  0
  -20.8034  -40.0453  -11.5884 C   0  0  0  0  0  0  0  0  0  0  0  0
  -20.9158  -41.0510  -10.5853 C   0  0  0  0  0  0  0  0  0  0  0  0
  -19.8206  -41.3277   -9.7897 C   0  0  0  0  0  0  0  0  0  0  0  0
  -18.6515  -40.6197   -9.9913 C   0  0  0  0  0  0  0  0  0  0  0  0
  -18.6064  -39.6296  -11.0107 C   0  0  0  0  0  0  0  0  0  0  0  0
  -17.3464  -40.6718   -9.3240 C   0  0  0  0  0  0  0  0  0  0  0  0
  -16.2492  -40.7553  -10.0666 O   0  0  0  0  0  0  0  0  0  0  0  0
  -16.9981  -40.6450   -7.9419 N   0  0  0  0  0  0  0  0  0  0  0  0
  -17.4335  -39.5762   -7.0164 C   0  0  1  0  0  0  0  0  0  0  0  0
  -18.0178  -40.2129   -5.7985 C   0  0  0  0  0  0  0  0  0  0  0  0
  -19.5230  -40.3150   -5.9541 C   0  0  2  0  0  0  0  0  0  0  0  0
  -20.1346  -39.0014   -6.4515 C   0  0  0  0  0  0  0  0  0  0  0  0
  -20.2058  -40.7354   -4.6918 C   0  0  0  0  0  0  0  0  0  0  0  0
  -21.1691  -41.8757   -4.8665 C   0  0  0  0  0  0  0  0  0  0  0  0
  -22.5389  -41.4496   -5.3467 C   0  0  0  0  0  0  0  0  0  0  0  0
  -22.6476  -41.7153   -6.8327 C   0  0  0  0  0  0  0  0  0  0  0  0
  -24.0071  -41.4622   -7.4039 C   0  0  0  0  0  0  0  0  0  0  0  0
  -23.8265  -40.9619   -8.8442 C   0  0  0  0  0  0  0  0  0  0  0  0
  -23.1422  -42.0489   -9.6022 C   0  0  0  0  0  0  0  0  0  0  0  0
  -22.2299  -41.6035  -10.6324 N   0  0  0  0  0  0  0  0  0  0  0  0
  -16.2850  -38.6613   -6.7714 C   0  0  2  0  0  0  0  0  0  0  0  0
  -16.4304  -37.8824   -5.6127 O   0  0  0  0  0  0  0  0  0  0  0  0
  -15.8559  -37.7963   -7.8995 C   0  0  0  0  0  0  0  0  0  0  0  0
  -15.2903  -38.5227   -8.9899 N   0  0  0  0  0  0  0  0  0  0  0  0
  -14.3266  -37.7408   -9.7489 C   0  0  0  0  0  0  0  0  0  0  0  0
  -13.8732  -38.5524  -10.9205 C   0  0  0  0  0  0  0  0  0  0  0  0
  -13.7882  -37.9635  -12.1525 C   0  0  0  0  0  0  0  0  0  0  0  0
  -13.4069  -38.6883  -13.2480 C   0  0  0  0  0  0  0  0  0  0  0  0
  -13.0964  -40.0448  -13.1291 C   0  0  0  0  0  0  0  0  0  0  0  0
  -13.1905  -40.6064  -11.8801 C   0  0  0  0  0  0  0  0  0  0  0  0
  -13.5730  -39.8853  -10.7727 C   0  0  0  0  0  0  0  0  0  0  0  0
  -13.2795  -38.0885  -14.6190 C   0  0  0  0  0  0  0  0  0  0  0  0
  -14.1361  -36.8141  -14.6515 C   0  0  0  0  0  0  0  0  0  0  0  0
  -13.8439  -39.0008  -15.6591 C   0  0  0  0  0  0  0  0  0  0  0  0
  1  2  1  0
  2  3  1  0
  3  4  1  0
  4  5  2  0
  5  6  1  0
  6  7  2  0
  7  8  1  0
  8  9  2  0
  8 10  1  0
 10 11  2  0
 10 12  1  0
 12 13  1  0
 13 14  1  1
 14 15  1  0
 15 16  1  1
 15 17  1  0
 17 18  1  0
 18 19  1  0
 19 20  1  0
 20 21  1  0
 21 22  1  0
 22 23  1  0
 23 24  1  0
 13 25  1  0
 25 26  1  1
 25 27  1  0
 27 28  1  0
 28 29  1  0
 29 30  1  0
 30 31  2  0
 31 32  1  0
 32 33  2  0
 33 34  1  0
 34 35  2  0
 32 36  1  0
 36 37  1  0
 36 38  1  0
  9  4  1  0
 24  6  1  0
 35 30  1  0
M  END
$$$$
