
     RDKit          3D

 38 40  0  0  0  0  0  0  0  0999 V2000
  -17.0496  -47.6527   -9.1161 C   0  0  0  0  0  0  0  0  0  0  0  0
  -18.3138  -47.2183   -8.7126 O   0  0  0  0  0  0  0  0  0  0  0  0
  -18.6416  -46.0195   -9.3325 C   0  0  0  0  0  0  0  0  0  0  0  0
  -18.8989  -44.9582   -8.3181 C   0  0  0  0  0  0  0  0  0  0  0  0
  -19.9292  -45.0488   -7.4258 C   0  0  0  0  0  0  0  0  0  0  0  0
  -20.2118  -44.0564   -6.4432 C   0  0  0  0  0  0  0  0  0  0  0  0
  -19.4092  -42.9338   -6.3760 C   0  0  0  0  0  0  0  0  0  0  0  0
  -18.3585  -42.8087   -7.2644 C   0  0  0  0  0  0  0  0  0  0  0  0
  -18.1310  -43.8367   -8.2199 C   0  0  0  0  0  0  0  0  0  0  0  0
  -17.3517  -41.7585   -7.4503 C   0  0  0  0  0  0  0  0  0  0  0  0
  -16.0724  -42.1035   -7.5319 O   0  0  0  0  0  0  0  0  0  0  0  0
  -17.4833  -40.3443   -7.5729 N   0  0  0  0  0  0  0  0  0  0  0  0
  -18.3527  -39.6948   -8.5783 C   0  0  1  0  0  0  0  0  0  0  0  0
  -19.2012  -38.6795   -7.8860 C   0  0  0  0  0  0  0  0  0  0  0  0
  -20.5392  -39.2978   -7.5286 C   0  0  2  0  0  0  0  0  0  0  0  0
  -21.1437  -40.0680   -8.7069 C   0  0  0  0  0  0  0  0  0  0  0  0
  -21.5266  -38.2893   -7.0341 C   0  0  0  0  0  0  0  0  0  0  0  0
  -22.1972  -38.6695   -5.7440 C   0  0  0  0  0  0  0  0  0  0  0  0
  -23.3817  -39.5937   -5.9209 C   0  0  0  0  0  0  0  0  0  0  0  0
  -22.9567  -41.0105   -5.6003 C   0  0  0  0  0  0  0  0  0  0  0  0
  -24.0759  -42.0034   -5.6059 C   0  0  0  0  0  0  0  0  0  0  0  0
  -23.5107  -43.3464   -6.0900 C   0  0  0  0  0  0  0  0  0  0  0  0
  -22.4613  -43.7569   -5.1130 C   0  0  0  0  0  0  0  0  0  0  0  0
  -21.3395  -44.4751   -5.6769 N   0  0  0  0  0  0  0  0  0  0  0  0
  -17.4986  -39.1711   -9.6793 C   0  0  2  0  0  0  0  0  0  0  0  0
  -17.7568  -39.7745  -10.9202 O   0  0  0  0  0  0  0  0  0  0  0  0
  -16.0333  -39.1353   -9.4410 C   0  0  0  0  0  0  0  0  0  0  0  0
  -15.4920  -40.3923   -9.0368 N   0  0  0  0  0  0  0  0  0  0  0  0
  -14.0413  -40.4385   -9.1325 C   0  0  0  0  0  0  0  0  0  0  0  0
  -13.6299  -39.8102  -10.4260 C   0  0  0  0  0  0  0  0  0  0  0  0
  -13.0638  -38.5647  -10.4172 C   0  0  0  0  0  0  0  0  0  0  0  0
  -12.7065  -37.9519  -11.5866 C   0  0  0  0  0  0  0  0  0  0  0  0
  -12.9127  -38.5873  -12.8132 C   0  0  0  0  0  0  0  0  0  0  0  0
  -13.4818  -39.8362  -12.7889 C   0  0  0  0  0  0  0  0  0  0  0  0
  -13.8443  -40.4603  -11.6176 C   0  0  0  0  0  0  0  0  0  0  0  0
  -12.0656  -36.5944  -11.6336 C   0  0  0  0  0  0  0  0  0  0  0  0
  -13.0274  -35.6016  -10.9641 C   0  0  0  0  0  0  0  0  0  0  0  0
  -11.8956  -36.1291  -13.0432 C   0  0  0  0  0  0  0  0  0  0  0  0
  1  2  1  0
  2  3  1  0
  3  4  1  0
  4  5  2  0
  5  6  1  0
  6  7  2  0
  7  8  1  0
  8  9  2  0
  8 10  1  0
 10 11  2  0
 10 12  1  0
 12 13  1  0
 13 14  1  1
 14 15  1  0
 15 16  1  6
 15 17  1  0
 17 18  1  0
 18 19  1  0
 19 20  1  0
 20 21  1  0
 21 22  1  0
 22 23  1  0
 23 24  1  0
 13 25  1  0
 25 26  1  6
 25 27  1  0
 27 28  1  0
 28 29  1  0
 29 30  1  0
 30 31  2  0
 31 32  1  0
 32 33  2  0
 33 34  1  0
 34 35  2  0
 32 36  1  0
 36 37  1  0
 36 38  1  0
  9  4  1  0
 24  6  1  0
 35 30  1  0
M  END
$$$$
