
     RDKit          3D

 38 40  0  0  0  0  0  0  0  0999 V2000
  -21.6847  -39.8710  -13.6974 C   0  0  0  0  0  0  0  0  0  0  0  0
  -20.4072  -39.9856  -13.1457 O   0  0  0  0  0  0  0  0  0  0  0  0
  -20.0664  -41.3205  -12.9707 C   0  0  0  0  0  0  0  0  0  0  0  0
  -19.9899  -41.6561  -11.5205 C   0  0  0  0  0  0  0  0  0  0  0  0
  -21.0744  -42.1170  -10.8294 C   0  0  0  0  0  0  0  0  0  0  0  0
  -21.0453  -42.4461   -9.4434 C   0  0  0  0  0  0  0  0  0  0  0  0
  -19.8627  -42.2962   -8.7448 C   0  0  0  0  0  0  0  0  0  0  0  0
  -18.7460  -41.8309   -9.4122 C   0  0  0  0  0  0  0  0  0  0  0  0
  -18.8433  -41.5218  -10.7966 C   0  0  0  0  0  0  0  0  0  0  0  0
  -17.3761  -41.5625   -8.9624 C   0  0  0  0  0  0  0  0  0  0  0  0
  -16.3624  -42.0524   -9.6657 O   0  0  0  0  0  0  0  0  0  0  0  0
  -16.8830  -40.8265   -7.8455 N   0  0  0  0  0  0  0  0  0  0  0  0
  -17.2523  -39.4199   -7.5741 C   0  0  1  0  0  0  0  0  0  0  0  0
  -17.6814  -39.3093   -6.1480 C   0  0  0  0  0  0  0  0  0  0  0  0
  -19.1904  -39.4359   -6.0629 C   0  0  2  0  0  0  0  0  0  0  0  0
  -19.8952  -38.5599   -7.1036 C   0  0  0  0  0  0  0  0  0  0  0  0
  -19.7200  -39.1150   -4.7016 C   0  0  0  0  0  0  0  0  0  0  0  0
  -20.6579  -40.1510   -4.1489 C   0  0  0  0  0  0  0  0  0  0  0  0
  -22.0846  -40.0012   -4.6289 C   0  0  0  0  0  0  0  0  0  0  0  0
  -22.3427  -41.0016   -5.7349 C   0  0  0  0  0  0  0  0  0  0  0  0
  -23.7632  -41.0471   -6.2026 C   0  0  0  0  0  0  0  0  0  0  0  0
  -23.7544  -41.3790   -7.7017 C   0  0  0  0  0  0  0  0  0  0  0  0
  -23.1193  -42.7204   -7.8488 C   0  0  0  0  0  0  0  0  0  0  0  0
  -22.3377  -42.9051   -9.0518 N   0  0  0  0  0  0  0  0  0  0  0  0
  -16.1153  -38.5443   -7.9697 C   0  0  2  0  0  0  0  0  0  0  0  0
  -16.4599  -37.1859   -8.0501 O   0  0  0  0  0  0  0  0  0  0  0  0
  -15.3502  -38.9341   -9.1812 C   0  0  0  0  0  0  0  0  0  0  0  0
  -15.7966  -38.2826  -10.3699 N   0  0  0  0  0  0  0  0  0  0  0  0
  -14.7114  -37.6640  -11.1153 C   0  0  0  0  0  0  0  0  0  0  0  0
  -13.9000  -38.7437  -11.7579 C   0  0  0  0  0  0  0  0  0  0  0  0
  -12.5346  -38.6844  -11.6959 C   0  0  0  0  0  0  0  0  0  0  0  0
  -11.7660  -39.6404  -12.3011 C   0  0  0  0  0  0  0  0  0  0  0  0
  -12.3617  -40.6965  -12.9942 C   0  0  0  0  0  0  0  0  0  0  0  0
  -13.7333  -40.7285  -13.0379 C   0  0  0  0  0  0  0  0  0  0  0  0
  -14.5144  -39.7716  -12.4322 C   0  0  0  0  0  0  0  0  0  0  0  0
  -10.2651  -39.6339  -12.2490 C   0  0  0  0  0  0  0  0  0  0  0  0
   -9.8361  -40.5147  -11.0662 C   0  0  0  0  0  0  0  0  0  0  0  0
   -9.7434  -38.2632  -11.9630 C   0  0  0  0  0  0  0  0  0  0  0  0
  1  2  1  0
  2  3  1  0
  3  4  1  0
  4  5  2  0
  5  6  1  0
  6  7  2  0
  7  8  1  0
  8  9  2  0
  8 10  1  0
 10 11  2  0
 10 12  1  0
 12 13  1  0
 13 14  1  1
 14 15  1  0
 15 16  1  6
 15 17  1  0
 17 18  1  0
 18 19  1  0
 19 20  1  0
 20 21  1  0
 21 22  1  0
 22 23  1  0
 23 24  1  0
 13 25  1  0
 25 26  1  6
 25 27  1  0
 27 28  1  0
 28 29  1  0
 29 30  1  0
 30 31  2  0
 31 32  1  0
 32 33  2  0
 33 34  1  0
 34 35  2  0
 32 36  1  0
 36 37  1  0
 36 38  1  0
  9  4  1  0
 24  6  1  0
 35 30  1  0
M  END
$$$$
