
     RDKit          3D

 38 40  0  0  0  0  0  0  0  0999 V2000
  -12.8123  -45.3030   -9.9167 C   0  0  0  0  0  0  0  0  0  0  0  0
  -13.9975  -44.6672   -9.5414 O   0  0  0  0  0  0  0  0  0  0  0  0
  -14.9492  -44.7699  -10.5476 C   0  0  0  0  0  0  0  0  0  0  0  0
  -15.4617  -43.4218  -10.9237 C   0  0  0  0  0  0  0  0  0  0  0  0
  -15.1455  -42.8380  -12.1177 C   0  0  0  0  0  0  0  0  0  0  0  0
  -15.6109  -41.5512  -12.5146 C   0  0  0  0  0  0  0  0  0  0  0  0
  -16.4278  -40.8409  -11.6560 C   0  0  0  0  0  0  0  0  0  0  0  0
  -16.7667  -41.4007  -10.4392 C   0  0  0  0  0  0  0  0  0  0  0  0
  -16.2686  -42.6899  -10.1052 C   0  0  0  0  0  0  0  0  0  0  0  0
  -17.5908  -40.9096   -9.3298 C   0  0  0  0  0  0  0  0  0  0  0  0
  -18.5290  -41.7033   -8.8275 O   0  0  0  0  0  0  0  0  0  0  0  0
  -17.5816  -39.6656   -8.6336 N   0  0  0  0  0  0  0  0  0  0  0  0
  -16.3732  -39.1057   -7.9894 C   0  0  1  0  0  0  0  0  0  0  0  0
  -16.2175  -37.6864   -8.4268 C   0  0  0  0  0  0  0  0  0  0  0  0
  -15.2791  -37.6241   -9.6166 C   0  0  2  0  0  0  0  0  0  0  0  0
  -14.0136  -38.4569   -9.3883 C   0  0  0  0  0  0  0  0  0  0  0  0
  -14.8954  -36.2240   -9.9756 C   0  0  0  0  0  0  0  0  0  0  0  0
  -15.0660  -35.8960  -11.4323 C   0  0  0  0  0  0  0  0  0  0  0  0
  -13.9021  -36.3292  -12.2961 C   0  0  0  0  0  0  0  0  0  0  0  0
  -14.2623  -37.6185  -13.0022 C   0  0  0  0  0  0  0  0  0  0  0  0
  -13.2428  -38.0803  -13.9951 C   0  0  0  0  0  0  0  0  0  0  0  0
  -13.2539  -39.6157  -14.0011 C   0  0  0  0  0  0  0  0  0  0  0  0
  -14.6185  -40.0414  -14.4264 C   0  0  0  0  0  0  0  0  0  0  0  0
  -15.1040  -41.2592  -13.8154 N   0  0  0  0  0  0  0  0  0  0  0  0
  -16.4775  -39.3142   -6.5191 C   0  0  2  0  0  0  0  0  0  0  0  0
  -15.5721  -40.2668   -6.0258 O   0  0  0  0  0  0  0  0  0  0  0  0
  -17.8297  -39.5834   -5.9677 C   0  0  0  0  0  0  0  0  0  0  0  0
  -18.1970  -38.7023   -4.9069 N   0  0  0  0  0  0  0  0  0  0  0  0
  -19.5472  -38.1803   -5.0495 C   0  0  0  0  0  0  0  0  0  0  0  0
  -20.1524  -38.7592   -6.2887 C   0  0  0  0  0  0  0  0  0  0  0  0
  -21.1197  -39.7204   -6.1776 C   0  0  0  0  0  0  0  0  0  0  0  0
  -21.6688  -40.2905   -7.2930 C   0  0  0  0  0  0  0  0  0  0  0  0
  -21.2521  -39.9012   -8.5679 C   0  0  0  0  0  0  0  0  0  0  0  0
  -20.2808  -38.9344   -8.6464 C   0  0  0  0  0  0  0  0  0  0  0  0
  -19.7229  -38.3554   -7.5301 C   0  0  0  0  0  0  0  0  0  0  0  0
  -22.7455  -41.3357   -7.2290 C   0  0  0  0  0  0  0  0  0  0  0  0
  -23.7745  -40.8813   -6.1833 C   0  0  0  0  0  0  0  0  0  0  0  0
  -22.2004  -42.6394   -6.7431 C   0  0  0  0  0  0  0  0  0  0  0  0
  1  2  1  0
  2  3  1  0
  3  4  1  0
  4  5  2  0
  5  6  1  0
  6  7  2  0
  7  8  1  0
  8  9  2  0
  8 10  1  0
 10 11  2  0
 10 12  1  0
 12 13  1  0
 13 14  1  1
 14 15  1  0
 15 16  1  1
 15 17  1  0
 17 18  1  0
 18 19  1  0
 19 20  1  0
 20 21  1  0
 21 22  1  0
 22 23  1  0
 23 24  1  0
 13 25  1  0
 25 26  1  6
 25 27  1  0
 27 28  1  0
 28 29  1  0
 29 30  1  0
 30 31  2  0
 31 32  1  0
 32 33  2  0
 33 34  1  0
 34 35  2  0
 32 36  1  0
 36 37  1  0
 36 38  1  0
  9  4  1  0
 24  6  1  0
 35 30  1  0
M  END
$$$$
