
     RDKit          3D

 38 40  0  0  0  0  0  0  0  0999 V2000
  -16.3000  -46.5985  -11.6046 C   0  0  0  0  0  0  0  0  0  0  0  0
  -16.9735  -46.1970  -10.4493 O   0  0  0  0  0  0  0  0  0  0  0  0
  -17.6957  -45.0337  -10.6817 C   0  0  0  0  0  0  0  0  0  0  0  0
  -18.1635  -44.4416   -9.3964 C   0  0  0  0  0  0  0  0  0  0  0  0
  -19.4178  -44.6767   -8.9090 C   0  0  0  0  0  0  0  0  0  0  0  0
  -19.9054  -44.1284   -7.6876 C   0  0  0  0  0  0  0  0  0  0  0  0
  -19.0766  -43.3113   -6.9430 C   0  0  0  0  0  0  0  0  0  0  0  0
  -17.8015  -43.0511   -7.4069 C   0  0  0  0  0  0  0  0  0  0  0  0
  -17.3771  -43.6311   -8.6337 C   0  0  0  0  0  0  0  0  0  0  0  0
  -16.7082  -42.2375   -6.8648 C   0  0  0  0  0  0  0  0  0  0  0  0
  -15.4936  -42.7671   -6.7841 O   0  0  0  0  0  0  0  0  0  0  0  0
  -16.6885  -40.8980   -6.3774 N   0  0  0  0  0  0  0  0  0  0  0  0
  -17.1641  -39.7406   -7.1667 C   0  0  1  0  0  0  0  0  0  0  0  0
  -18.1010  -38.9428   -6.3207 C   0  0  0  0  0  0  0  0  0  0  0  0
  -19.5277  -39.3735   -6.6022 C   0  0  2  0  0  0  0  0  0  0  0  0
  -19.8080  -39.4684   -8.1053 C   0  0  0  0  0  0  0  0  0  0  0  0
  -20.5379  -38.4747   -5.9633 C   0  0  0  0  0  0  0  0  0  0  0  0
  -21.5916  -39.1999   -5.1743 C   0  0  0  0  0  0  0  0  0  0  0  0
  -22.7355  -39.7198   -6.0168 C   0  0  0  0  0  0  0  0  0  0  0  0
  -22.5357  -41.1995   -6.2644 C   0  0  0  0  0  0  0  0  0  0  0  0
  -23.6741  -41.8625   -6.9736 C   0  0  0  0  0  0  0  0  0  0  0  0
  -23.0940  -42.9807   -7.8515 C   0  0  0  0  0  0  0  0  0  0  0  0
  -22.4205  -43.9487   -6.9385 C   0  0  0  0  0  0  0  0  0  0  0  0
  -21.2396  -44.5867   -7.4772 N   0  0  0  0  0  0  0  0  0  0  0  0
  -15.9817  -38.9996   -7.6851 C   0  0  2  0  0  0  0  0  0  0  0  0
  -16.1945  -37.6163   -7.7933 O   0  0  0  0  0  0  0  0  0  0  0  0
  -15.3610  -39.5049   -8.9359 C   0  0  0  0  0  0  0  0  0  0  0  0
  -13.9790  -39.1713   -9.0601 N   0  0  0  0  0  0  0  0  0  0  0  0
  -13.2365  -40.1327   -9.8603 C   0  0  0  0  0  0  0  0  0  0  0  0
  -13.2675  -39.6878  -11.2880 C   0  0  0  0  0  0  0  0  0  0  0  0
  -13.2306  -38.3507  -11.5754 C   0  0  0  0  0  0  0  0  0  0  0  0
  -13.2892  -37.9129  -12.8699 C   0  0  0  0  0  0  0  0  0  0  0  0
  -13.3875  -38.8241  -13.9239 C   0  0  0  0  0  0  0  0  0  0  0  0
  -13.4217  -40.1583  -13.6033 C   0  0  0  0  0  0  0  0  0  0  0  0
  -13.3632  -40.6078  -12.3043 C   0  0  0  0  0  0  0  0  0  0  0  0
  -13.2343  -36.4591  -13.2427 C   0  0  0  0  0  0  0  0  0  0  0  0
  -14.6771  -35.9781  -13.4566 C   0  0  0  0  0  0  0  0  0  0  0  0
  -12.5291  -36.2649  -14.5456 C   0  0  0  0  0  0  0  0  0  0  0  0
  1  2  1  0
  2  3  1  0
  3  4  1  0
  4  5  2  0
  5  6  1  0
  6  7  2  0
  7  8  1  0
  8  9  2  0
  8 10  1  0
 10 11  2  0
 10 12  1  0
 12 13  1  0
 13 14  1  1
 14 15  1  0
 15 16  1  6
 15 17  1  0
 17 18  1  0
 18 19  1  0
 19 20  1  0
 20 21  1  0
 21 22  1  0
 22 23  1  0
 23 24  1  0
 13 25  1  0
 25 26  1  6
 25 27  1  0
 27 28  1  0
 28 29  1  0
 29 30  1  0
 30 31  2  0
 31 32  1  0
 32 33  2  0
 33 34  1  0
 34 35  2  0
 32 36  1  0
 36 37  1  0
 36 38  1  0
  9  4  1  0
 24  6  1  0
 35 30  1  0
M  END
$$$$
