
     RDKit          3D

 38 40  0  0  0  0  0  0  0  0999 V2000
  -16.6318  -46.6747  -11.3377 C   0  0  0  0  0  0  0  0  0  0  0  0
  -17.0484  -45.6979  -10.4310 O   0  0  0  0  0  0  0  0  0  0  0  0
  -18.2668  -46.0447   -9.8618 C   0  0  0  0  0  0  0  0  0  0  0  0
  -18.5497  -45.1947   -8.6706 C   0  0  0  0  0  0  0  0  0  0  0  0
  -19.6281  -45.4213   -7.8632 C   0  0  0  0  0  0  0  0  0  0  0  0
  -19.9363  -44.6316   -6.7180 C   0  0  0  0  0  0  0  0  0  0  0  0
  -19.1091  -43.5741   -6.3922 C   0  0  0  0  0  0  0  0  0  0  0  0
  -18.0097  -43.3151   -7.1879 C   0  0  0  0  0  0  0  0  0  0  0  0
  -17.7588  -44.1430   -8.3163 C   0  0  0  0  0  0  0  0  0  0  0  0
  -16.9671  -42.2861   -7.1147 C   0  0  0  0  0  0  0  0  0  0  0  0
  -15.6948  -42.6546   -7.2028 O   0  0  0  0  0  0  0  0  0  0  0  0
  -17.0547  -40.8716   -6.9609 N   0  0  0  0  0  0  0  0  0  0  0  0
  -17.8520  -40.0061   -7.8574 C   0  0  1  0  0  0  0  0  0  0  0  0
  -18.7091  -39.1164   -7.0184 C   0  0  0  0  0  0  0  0  0  0  0  0
  -20.0800  -39.7438   -6.8537 C   0  0  2  0  0  0  0  0  0  0  0  0
  -20.6411  -40.2452   -8.1882 C   0  0  0  0  0  0  0  0  0  0  0  0
  -21.0654  -38.8170   -6.2162 C   0  0  0  0  0  0  0  0  0  0  0  0
  -21.8135  -39.4185   -5.0599 C   0  0  0  0  0  0  0  0  0  0  0  0
  -23.0108  -40.2464   -5.4717 C   0  0  0  0  0  0  0  0  0  0  0  0
  -22.6409  -41.7130   -5.4184 C   0  0  0  0  0  0  0  0  0  0  0  0
  -23.7840  -42.6442   -5.6731 C   0  0  0  0  0  0  0  0  0  0  0  0
  -23.2294  -43.8856   -6.3864 C   0  0  0  0  0  0  0  0  0  0  0  0
  -22.2446  -44.5178   -5.4619 C   0  0  0  0  0  0  0  0  0  0  0  0
  -21.1138  -45.1515   -6.1035 N   0  0  0  0  0  0  0  0  0  0  0  0
  -16.9270  -39.3077   -8.7916 C   0  0  2  0  0  0  0  0  0  0  0  0
  -17.2867  -39.4485  -10.1411 O   0  0  0  0  0  0  0  0  0  0  0  0
  -15.4752  -39.5776   -8.6348 C   0  0  0  0  0  0  0  0  0  0  0  0
  -14.6450  -38.5221   -9.1178 N   0  0  0  0  0  0  0  0  0  0  0  0
  -13.3990  -39.0033   -9.6937 C   0  0  0  0  0  0  0  0  0  0  0  0
  -13.2457  -38.4103  -11.0583 C   0  0  0  0  0  0  0  0  0  0  0  0
  -13.0140  -37.0679  -11.1847 C   0  0  0  0  0  0  0  0  0  0  0  0
  -12.9009  -36.4922  -12.4202 C   0  0  0  0  0  0  0  0  0  0  0  0
  -13.0194  -37.2652  -13.5774 C   0  0  0  0  0  0  0  0  0  0  0  0
  -13.2509  -38.6088  -13.4176 C   0  0  0  0  0  0  0  0  0  0  0  0
  -13.3661  -39.1965  -12.1790 C   0  0  0  0  0  0  0  0  0  0  0  0
  -12.6289  -35.0282  -12.6163 C   0  0  0  0  0  0  0  0  0  0  0  0
  -11.5569  -34.6130  -11.5979 C   0  0  0  0  0  0  0  0  0  0  0  0
  -13.8409  -34.2107  -12.3074 C   0  0  0  0  0  0  0  0  0  0  0  0
  1  2  1  0
  2  3  1  0
  3  4  1  0
  4  5  2  0
  5  6  1  0
  6  7  2  0
  7  8  1  0
  8  9  2  0
  8 10  1  0
 10 11  2  0
 10 12  1  0
 12 13  1  0
 13 14  1  1
 14 15  1  0
 15 16  1  6
 15 17  1  0
 17 18  1  0
 18 19  1  0
 19 20  1  0
 20 21  1  0
 21 22  1  0
 22 23  1  0
 23 24  1  0
 13 25  1  0
 25 26  1  6
 25 27  1  0
 27 28  1  0
 28 29  1  0
 29 30  1  0
 30 31  2  0
 31 32  1  0
 32 33  2  0
 33 34  1  0
 34 35  2  0
 32 36  1  0
 36 37  1  0
 36 38  1  0
  9  4  1  0
 24  6  1  0
 35 30  1  0
M  END
$$$$
