
     RDKit          3D

 38 40  0  0  0  0  0  0  0  0999 V2000
  -16.7401  -46.3793  -11.4897 C   0  0  0  0  0  0  0  0  0  0  0  0
  -16.6526  -45.2165  -10.7218 O   0  0  0  0  0  0  0  0  0  0  0  0
  -17.8373  -44.4948  -10.7878 C   0  0  0  0  0  0  0  0  0  0  0  0
  -18.2093  -43.9737   -9.4418 C   0  0  0  0  0  0  0  0  0  0  0  0
  -19.3735  -44.3358   -8.8254 C   0  0  0  0  0  0  0  0  0  0  0  0
  -19.7683  -43.8591   -7.5421 C   0  0  0  0  0  0  0  0  0  0  0  0
  -18.9394  -42.9811   -6.8704 C   0  0  0  0  0  0  0  0  0  0  0  0
  -17.7544  -42.5924   -7.4650 C   0  0  0  0  0  0  0  0  0  0  0  0
  -17.4199  -43.1067   -8.7477 C   0  0  0  0  0  0  0  0  0  0  0  0
  -16.6865  -41.6890   -7.0240 C   0  0  0  0  0  0  0  0  0  0  0  0
  -15.4269  -42.1025   -7.0939 O   0  0  0  0  0  0  0  0  0  0  0  0
  -16.7354  -40.3630   -6.5029 N   0  0  0  0  0  0  0  0  0  0  0  0
  -17.4019  -39.2415   -7.2006 C   0  0  1  0  0  0  0  0  0  0  0  0
  -18.3066  -38.5521   -6.2330 C   0  0  0  0  0  0  0  0  0  0  0  0
  -19.7102  -39.1109   -6.3670 C   0  0  2  0  0  0  0  0  0  0  0  0
  -20.1488  -39.2039   -7.8320 C   0  0  0  0  0  0  0  0  0  0  0  0
  -20.7202  -38.3241   -5.5942 C   0  0  0  0  0  0  0  0  0  0  0  0
  -21.6065  -39.1605   -4.7147 C   0  0  0  0  0  0  0  0  0  0  0  0
  -22.7855  -39.7708   -5.4400 C   0  0  0  0  0  0  0  0  0  0  0  0
  -22.4794  -41.2200   -5.7513 C   0  0  0  0  0  0  0  0  0  0  0  0
  -23.6247  -41.9747   -6.3489 C   0  0  0  0  0  0  0  0  0  0  0  0
  -23.0471  -43.0163   -7.3180 C   0  0  0  0  0  0  0  0  0  0  0  0
  -22.1883  -43.9328   -6.5138 C   0  0  0  0  0  0  0  0  0  0  0  0
  -21.0221  -44.4458   -7.1986 N   0  0  0  0  0  0  0  0  0  0  0  0
  -16.3591  -38.3821   -7.8250 C   0  0  2  0  0  0  0  0  0  0  0  0
  -16.8881  -37.3252   -8.5824 O   0  0  0  0  0  0  0  0  0  0  0  0
  -15.2953  -39.0658   -8.6035 C   0  0  0  0  0  0  0  0  0  0  0  0
  -13.9837  -38.5768   -8.3256 N   0  0  0  0  0  0  0  0  0  0  0  0
  -13.0047  -38.9932   -9.3177 C   0  0  0  0  0  0  0  0  0  0  0  0
  -13.4335  -38.4772  -10.6545 C   0  0  0  0  0  0  0  0  0  0  0  0
  -12.5530  -38.5111  -11.7011 C   0  0  0  0  0  0  0  0  0  0  0  0
  -12.9061  -38.0176  -12.9269 C   0  0  0  0  0  0  0  0  0  0  0  0
  -14.1740  -37.4696  -13.1334 C   0  0  0  0  0  0  0  0  0  0  0  0
  -15.0349  -37.4506  -12.0643 C   0  0  0  0  0  0  0  0  0  0  0  0
  -14.6885  -37.9447  -10.8279 C   0  0  0  0  0  0  0  0  0  0  0  0
  -11.9861  -38.0461  -14.1136 C   0  0  0  0  0  0  0  0  0  0  0  0
  -12.2226  -39.3703  -14.8548 C   0  0  0  0  0  0  0  0  0  0  0  0
  -10.5550  -38.0550  -13.6839 C   0  0  0  0  0  0  0  0  0  0  0  0
  1  2  1  0
  2  3  1  0
  3  4  1  0
  4  5  2  0
  5  6  1  0
  6  7  2  0
  7  8  1  0
  8  9  2  0
  8 10  1  0
 10 11  2  0
 10 12  1  0
 12 13  1  0
 13 14  1  1
 14 15  1  0
 15 16  1  6
 15 17  1  0
 17 18  1  0
 18 19  1  0
 19 20  1  0
 20 21  1  0
 21 22  1  0
 22 23  1  0
 23 24  1  0
 13 25  1  0
 25 26  1  6
 25 27  1  0
 27 28  1  0
 28 29  1  0
 29 30  1  0
 30 31  2  0
 31 32  1  0
 32 33  2  0
 33 34  1  0
 34 35  2  0
 32 36  1  0
 36 37  1  0
 36 38  1  0
  9  4  1  0
 24  6  1  0
 35 30  1  0
M  END
$$$$
