
     RDKit          3D

 38 40  0  0  0  0  0  0  0  0999 V2000
  -22.8614  -40.0175  -12.4686 C   0  0  0  0  0  0  0  0  0  0  0  0
  -21.5151  -39.9999  -12.0988 O   0  0  0  0  0  0  0  0  0  0  0  0
  -20.9501  -41.2603  -12.2434 C   0  0  0  0  0  0  0  0  0  0  0  0
  -20.4823  -41.7791  -10.9268 C   0  0  0  0  0  0  0  0  0  0  0  0
  -21.2815  -42.5494  -10.1306 C   0  0  0  0  0  0  0  0  0  0  0  0
  -20.8750  -43.0624   -8.8650 C   0  0  0  0  0  0  0  0  0  0  0  0
  -19.6054  -42.7740   -8.4026 C   0  0  0  0  0  0  0  0  0  0  0  0
  -18.7705  -41.9962   -9.1817 C   0  0  0  0  0  0  0  0  0  0  0  0
  -19.2385  -41.5168  -10.4358 C   0  0  0  0  0  0  0  0  0  0  0  0
  -17.3996  -41.5183   -8.9739 C   0  0  0  0  0  0  0  0  0  0  0  0
  -16.5095  -41.6810   -9.9453 O   0  0  0  0  0  0  0  0  0  0  0  0
  -16.7923  -40.8659   -7.8614 N   0  0  0  0  0  0  0  0  0  0  0  0
  -17.3216  -39.6205   -7.2636 C   0  0  1  0  0  0  0  0  0  0  0  0
  -17.4192  -39.8086   -5.7854 C   0  0  0  0  0  0  0  0  0  0  0  0
  -18.8229  -40.2554   -5.4242 C   0  0  2  0  0  0  0  0  0  0  0  0
  -19.8888  -39.4029   -6.1200 C   0  0  0  0  0  0  0  0  0  0  0  0
  -19.0675  -40.2514   -3.9489 C   0  0  0  0  0  0  0  0  0  0  0  0
  -19.6609  -41.5279   -3.4225 C   0  0  0  0  0  0  0  0  0  0  0  0
  -21.1644  -41.6084   -3.5698 C   0  0  0  0  0  0  0  0  0  0  0  0
  -21.4992  -42.4698   -4.7685 C   0  0  0  0  0  0  0  0  0  0  0  0
  -22.9606  -42.7398   -4.9416 C   0  0  0  0  0  0  0  0  0  0  0  0
  -23.2448  -42.8422   -6.4470 C   0  0  0  0  0  0  0  0  0  0  0  0
  -22.4432  -43.9875   -6.9665 C   0  0  0  0  0  0  0  0  0  0  0  0
  -21.9435  -43.8305   -8.3147 N   0  0  0  0  0  0  0  0  0  0  0  0
  -16.4737  -38.4808   -7.7087 C   0  0  2  0  0  0  0  0  0  0  0  0
  -17.0356  -37.7477   -8.7658 O   0  0  0  0  0  0  0  0  0  0  0  0
  -15.0496  -38.7739   -8.0108 C   0  0  0  0  0  0  0  0  0  0  0  0
  -14.4043  -37.7462   -8.7618 N   0  0  0  0  0  0  0  0  0  0  0  0
  -14.1347  -38.1372  -10.1367 C   0  0  0  0  0  0  0  0  0  0  0  0
  -14.7670  -37.1346  -11.0489 C   0  0  0  0  0  0  0  0  0  0  0  0
  -15.9838  -37.4110  -11.6100 C   0  0  0  0  0  0  0  0  0  0  0  0
  -16.5718  -36.5273  -12.4725 C   0  0  0  0  0  0  0  0  0  0  0  0
  -15.9404  -35.3244  -12.7966 C   0  0  0  0  0  0  0  0  0  0  0  0
  -14.7212  -35.0757  -12.2171 C   0  0  0  0  0  0  0  0  0  0  0  0
  -14.1222  -35.9586  -11.3485 C   0  0  0  0  0  0  0  0  0  0  0  0
  -17.9132  -36.7719  -13.1022 C   0  0  0  0  0  0  0  0  0  0  0  0
  -18.9810  -36.5714  -12.0167 C   0  0  0  0  0  0  0  0  0  0  0  0
  -18.0411  -38.1882  -13.5609 C   0  0  0  0  0  0  0  0  0  0  0  0
  1  2  1  0
  2  3  1  0
  3  4  1  0
  4  5  2  0
  5  6  1  0
  6  7  2  0
  7  8  1  0
  8  9  2  0
  8 10  1  0
 10 11  2  0
 10 12  1  0
 12 13  1  0
 13 14  1  1
 14 15  1  0
 15 16  1  6
 15 17  1  0
 17 18  1  0
 18 19  1  0
 19 20  1  0
 20 21  1  0
 21 22  1  0
 22 23  1  0
 23 24  1  0
 13 25  1  0
 25 26  1  6
 25 27  1  0
 27 28  1  0
 28 29  1  0
 29 30  1  0
 30 31  2  0
 31 32  1  0
 32 33  2  0
 33 34  1  0
 34 35  2  0
 32 36  1  0
 36 37  1  0
 36 38  1  0
  9  4  1  0
 24  6  1  0
 35 30  1  0
M  END
$$$$
