
     RDKit          3D

 38 40  0  0  0  0  0  0  0  0999 V2000
  -16.2889  -46.5297  -11.1152 C   0  0  0  0  0  0  0  0  0  0  0  0
  -17.3158  -46.3596  -10.1844 O   0  0  0  0  0  0  0  0  0  0  0  0
  -17.9656  -45.1490  -10.3867 C   0  0  0  0  0  0  0  0  0  0  0  0
  -18.3418  -44.5319   -9.0832 C   0  0  0  0  0  0  0  0  0  0  0  0
  -19.5363  -44.7999   -8.4771 C   0  0  0  0  0  0  0  0  0  0  0  0
  -19.9361  -44.2295   -7.2341 C   0  0  0  0  0  0  0  0  0  0  0  0
  -19.0799  -43.3547   -6.5933 C   0  0  0  0  0  0  0  0  0  0  0  0
  -17.8637  -43.0598   -7.1787 C   0  0  0  0  0  0  0  0  0  0  0  0
  -17.5260  -43.6647   -8.4204 C   0  0  0  0  0  0  0  0  0  0  0  0
  -16.7623  -42.1848   -6.7634 C   0  0  0  0  0  0  0  0  0  0  0  0
  -15.5237  -42.6624   -6.7767 O   0  0  0  0  0  0  0  0  0  0  0  0
  -16.7567  -40.8296   -6.3214 N   0  0  0  0  0  0  0  0  0  0  0  0
  -17.3502  -39.7202   -7.0998 C   0  0  1  0  0  0  0  0  0  0  0  0
  -18.2411  -38.9317   -6.1974 C   0  0  0  0  0  0  0  0  0  0  0  0
  -19.6675  -39.4285   -6.3349 C   0  0  2  0  0  0  0  0  0  0  0  0
  -20.0766  -39.5866   -7.8029 C   0  0  0  0  0  0  0  0  0  0  0  0
  -20.6543  -38.5493   -5.6352 C   0  0  0  0  0  0  0  0  0  0  0  0
  -21.6012  -39.2883   -4.7319 C   0  0  0  0  0  0  0  0  0  0  0  0
  -22.7923  -39.8823   -5.4508 C   0  0  0  0  0  0  0  0  0  0  0  0
  -22.5521  -41.3605   -5.6696 C   0  0  0  0  0  0  0  0  0  0  0  0
  -23.7197  -42.0928   -6.2518 C   0  0  0  0  0  0  0  0  0  0  0  0
  -23.1729  -43.2166   -7.1437 C   0  0  0  0  0  0  0  0  0  0  0  0
  -22.3796  -44.1246   -6.2660 C   0  0  0  0  0  0  0  0  0  0  0  0
  -21.2252  -44.7333   -6.8896 N   0  0  0  0  0  0  0  0  0  0  0  0
  -16.2516  -38.9509   -7.7459 C   0  0  2  0  0  0  0  0  0  0  0  0
  -16.7054  -37.8538   -8.4948 O   0  0  0  0  0  0  0  0  0  0  0  0
  -15.2639  -39.7211   -8.5436 C   0  0  0  0  0  0  0  0  0  0  0  0
  -13.9760  -39.1090   -8.5986 N   0  0  0  0  0  0  0  0  0  0  0  0
  -13.1461  -39.6367   -9.6704 C   0  0  0  0  0  0  0  0  0  0  0  0
  -13.4778  -38.9057  -10.9324 C   0  0  0  0  0  0  0  0  0  0  0  0
  -13.1715  -37.5765  -11.0386 C   0  0  0  0  0  0  0  0  0  0  0  0
  -13.4911  -36.8745  -12.1681 C   0  0  0  0  0  0  0  0  0  0  0  0
  -14.1366  -37.5024  -13.2357 C   0  0  0  0  0  0  0  0  0  0  0  0
  -14.4298  -38.8365  -13.0991 C   0  0  0  0  0  0  0  0  0  0  0  0
  -14.1121  -39.5506  -11.9670 C   0  0  0  0  0  0  0  0  0  0  0  0
  -13.1623  -35.4198  -12.3448 C   0  0  0  0  0  0  0  0  0  0  0  0
  -11.8831  -35.1308  -11.5455 C   0  0  0  0  0  0  0  0  0  0  0  0
  -14.2288  -34.5529  -11.7586 C   0  0  0  0  0  0  0  0  0  0  0  0
  1  2  1  0
  2  3  1  0
  3  4  1  0
  4  5  2  0
  5  6  1  0
  6  7  2  0
  7  8  1  0
  8  9  2  0
  8 10  1  0
 10 11  2  0
 10 12  1  0
 12 13  1  0
 13 14  1  1
 14 15  1  0
 15 16  1  6
 15 17  1  0
 17 18  1  0
 18 19  1  0
 19 20  1  0
 20 21  1  0
 21 22  1  0
 22 23  1  0
 23 24  1  0
 13 25  1  0
 25 26  1  6
 25 27  1  0
 27 28  1  0
 28 29  1  0
 29 30  1  0
 30 31  2  0
 31 32  1  0
 32 33  2  0
 33 34  1  0
 34 35  2  0
 32 36  1  0
 36 37  1  0
 36 38  1  0
  9  4  1  0
 24  6  1  0
 35 30  1  0
M  END
$$$$
