
     RDKit          3D

 38 40  0  0  0  0  0  0  0  0999 V2000
  -18.0322  -47.0327  -10.9940 C   0  0  0  0  0  0  0  0  0  0  0  0
  -17.5706  -45.7150  -11.0060 O   0  0  0  0  0  0  0  0  0  0  0  0
  -18.6345  -44.8224  -10.9875 C   0  0  0  0  0  0  0  0  0  0  0  0
  -18.7887  -44.2189   -9.6334 C   0  0  0  0  0  0  0  0  0  0  0  0
  -19.8347  -44.5408   -8.8159 C   0  0  0  0  0  0  0  0  0  0  0  0
  -20.0212  -43.9853   -7.5171 C   0  0  0  0  0  0  0  0  0  0  0  0
  -19.1025  -43.0686   -7.0432 C   0  0  0  0  0  0  0  0  0  0  0  0
  -18.0325  -42.7188   -7.8443 C   0  0  0  0  0  0  0  0  0  0  0  0
  -17.9051  -43.3116   -9.1304 C   0  0  0  0  0  0  0  0  0  0  0  0
  -16.9153  -41.7913   -7.6379 C   0  0  0  0  0  0  0  0  0  0  0  0
  -15.6800  -42.2098   -7.8852 O   0  0  0  0  0  0  0  0  0  0  0  0
  -16.8910  -40.4356   -7.1977 N   0  0  0  0  0  0  0  0  0  0  0  0
  -17.6712  -39.3584   -7.8455 C   0  0  1  0  0  0  0  0  0  0  0  0
  -18.4137  -38.6095   -6.7883 C   0  0  0  0  0  0  0  0  0  0  0  0
  -19.8156  -39.1737   -6.6591 C   0  0  2  0  0  0  0  0  0  0  0  0
  -20.4842  -39.3564   -8.0254 C   0  0  0  0  0  0  0  0  0  0  0  0
  -20.6943  -38.3395   -5.7826 C   0  0  0  0  0  0  0  0  0  0  0  0
  -21.4195  -39.1189   -4.7219 C   0  0  0  0  0  0  0  0  0  0  0  0
  -22.6949  -39.7713   -5.2083 C   0  0  0  0  0  0  0  0  0  0  0  0
  -22.4305  -41.2373   -5.4759 C   0  0  0  0  0  0  0  0  0  0  0  0
  -23.6506  -42.0260   -5.8332 C   0  0  0  0  0  0  0  0  0  0  0  0
  -23.2280  -43.1261   -6.8174 C   0  0  0  0  0  0  0  0  0  0  0  0
  -22.2426  -43.9924   -6.1084 C   0  0  0  0  0  0  0  0  0  0  0  0
  -21.1979  -44.5481   -6.9401 N   0  0  0  0  0  0  0  0  0  0  0  0
  -16.7504  -38.5405   -8.6818 C   0  0  2  0  0  0  0  0  0  0  0  0
  -17.3609  -37.4032   -9.2334 O   0  0  0  0  0  0  0  0  0  0  0  0
  -15.9817  -39.2506   -9.7352 C   0  0  0  0  0  0  0  0  0  0  0  0
  -14.6454  -39.5681   -9.3478 N   0  0  0  0  0  0  0  0  0  0  0  0
  -13.9507  -40.3815  -10.3334 C   0  0  0  0  0  0  0  0  0  0  0  0
  -13.4522  -39.4860  -11.4228 C   0  0  0  0  0  0  0  0  0  0  0  0
  -13.4847  -38.1299  -11.2447 C   0  0  0  0  0  0  0  0  0  0  0  0
  -13.0650  -37.2854  -12.2354 C   0  0  0  0  0  0  0  0  0  0  0  0
  -12.5943  -37.7923  -13.4487 C   0  0  0  0  0  0  0  0  0  0  0  0
  -12.5734  -39.1569  -13.5966 C   0  0  0  0  0  0  0  0  0  0  0  0
  -12.9934  -40.0140  -12.6058 C   0  0  0  0  0  0  0  0  0  0  0  0
  -13.0622  -35.7909  -12.0864 C   0  0  0  0  0  0  0  0  0  0  0  0
  -12.7043  -35.1871  -13.4524 C   0  0  0  0  0  0  0  0  0  0  0  0
  -11.9956  -35.3475  -11.1385 C   0  0  0  0  0  0  0  0  0  0  0  0
  1  2  1  0
  2  3  1  0
  3  4  1  0
  4  5  2  0
  5  6  1  0
  6  7  2  0
  7  8  1  0
  8  9  2  0
  8 10  1  0
 10 11  2  0
 10 12  1  0
 12 13  1  0
 13 14  1  1
 14 15  1  0
 15 16  1  6
 15 17  1  0
 17 18  1  0
 18 19  1  0
 19 20  1  0
 20 21  1  0
 21 22  1  0
 22 23  1  0
 23 24  1  0
 13 25  1  0
 25 26  1  6
 25 27  1  0
 27 28  1  0
 28 29  1  0
 29 30  1  0
 30 31  2  0
 31 32  1  0
 32 33  2  0
 33 34  1  0
 34 35  2  0
 32 36  1  0
 36 37  1  0
 36 38  1  0
  9  4  1  0
 24  6  1  0
 35 30  1  0
M  END
$$$$
