
     RDKit          3D

 38 40  0  0  0  0  0  0  0  0999 V2000
  -16.7735  -46.6944  -11.0296 C   0  0  0  0  0  0  0  0  0  0  0  0
  -17.2018  -45.5066  -10.4335 O   0  0  0  0  0  0  0  0  0  0  0  0
  -18.5181  -45.6195  -10.0052 C   0  0  0  0  0  0  0  0  0  0  0  0
  -18.7597  -44.7502   -8.8189 C   0  0  0  0  0  0  0  0  0  0  0  0
  -19.9331  -44.7936   -8.1207 C   0  0  0  0  0  0  0  0  0  0  0  0
  -20.2057  -43.9785   -6.9843 C   0  0  0  0  0  0  0  0  0  0  0  0
  -19.2407  -43.0894   -6.5515 C   0  0  0  0  0  0  0  0  0  0  0  0
  -18.0422  -43.0182   -7.2352 C   0  0  0  0  0  0  0  0  0  0  0  0
  -17.8341  -43.8609   -8.3613 C   0  0  0  0  0  0  0  0  0  0  0  0
  -16.8472  -42.1917   -7.0352 C   0  0  0  0  0  0  0  0  0  0  0  0
  -15.6567  -42.7789   -7.0183 O   0  0  0  0  0  0  0  0  0  0  0  0
  -16.6996  -40.7865   -6.8459 N   0  0  0  0  0  0  0  0  0  0  0  0
  -17.2437  -39.7803   -7.7840 C   0  0  1  0  0  0  0  0  0  0  0  0
  -18.0074  -38.7649   -6.9994 C   0  0  0  0  0  0  0  0  0  0  0  0
  -19.4765  -39.1413   -6.9800 C   0  0  2  0  0  0  0  0  0  0  0  0
  -19.9870  -39.5156   -8.3751 C   0  0  0  0  0  0  0  0  0  0  0  0
  -20.3402  -38.0637   -6.4065 C   0  0  0  0  0  0  0  0  0  0  0  0
  -21.2889  -38.5397   -5.3426 C   0  0  0  0  0  0  0  0  0  0  0  0
  -22.5682  -39.1357   -5.8874 C   0  0  0  0  0  0  0  0  0  0  0  0
  -22.4680  -40.6453   -5.8464 C   0  0  0  0  0  0  0  0  0  0  0  0
  -23.7271  -41.3550   -6.2332 C   0  0  0  0  0  0  0  0  0  0  0  0
  -23.3334  -42.6646   -6.9314 C   0  0  0  0  0  0  0  0  0  0  0  0
  -22.5674  -43.4750   -5.9410 C   0  0  0  0  0  0  0  0  0  0  0  0
  -21.5093  -44.2899   -6.4963 N   0  0  0  0  0  0  0  0  0  0  0  0
  -16.1258  -39.2436   -8.6077 C   0  0  2  0  0  0  0  0  0  0  0  0
  -16.4814  -39.0103   -9.9455 O   0  0  0  0  0  0  0  0  0  0  0  0
  -14.8357  -39.9774   -8.5585 C   0  0  0  0  0  0  0  0  0  0  0  0
  -13.7033  -39.1565   -8.8420 N   0  0  0  0  0  0  0  0  0  0  0  0
  -12.9952  -39.5681  -10.0441 C   0  0  0  0  0  0  0  0  0  0  0  0
  -13.2502  -38.5567  -11.1160 C   0  0  0  0  0  0  0  0  0  0  0  0
  -12.6788  -37.3174  -11.0194 C   0  0  0  0  0  0  0  0  0  0  0  0
  -12.9192  -36.3618  -11.9679 C   0  0  0  0  0  0  0  0  0  0  0  0
  -13.7533  -36.6338  -13.0546 C   0  0  0  0  0  0  0  0  0  0  0  0
  -14.3110  -37.8862  -13.1238 C   0  0  0  0  0  0  0  0  0  0  0  0
  -14.0748  -38.8536  -12.1746 C   0  0  0  0  0  0  0  0  0  0  0  0
  -12.3041  -34.9924  -11.9206 C   0  0  0  0  0  0  0  0  0  0  0  0
  -11.6534  -34.8214  -10.5400 C   0  0  0  0  0  0  0  0  0  0  0  0
  -13.3493  -33.9300  -12.0270 C   0  0  0  0  0  0  0  0  0  0  0  0
  1  2  1  0
  2  3  1  0
  3  4  1  0
  4  5  2  0
  5  6  1  0
  6  7  2  0
  7  8  1  0
  8  9  2  0
  8 10  1  0
 10 11  2  0
 10 12  1  0
 12 13  1  0
 13 14  1  1
 14 15  1  0
 15 16  1  6
 15 17  1  0
 17 18  1  0
 18 19  1  0
 19 20  1  0
 20 21  1  0
 21 22  1  0
 22 23  1  0
 23 24  1  0
 13 25  1  0
 25 26  1  6
 25 27  1  0
 27 28  1  0
 28 29  1  0
 29 30  1  0
 30 31  2  0
 31 32  1  0
 32 33  2  0
 33 34  1  0
 34 35  2  0
 32 36  1  0
 36 37  1  0
 36 38  1  0
  9  4  1  0
 24  6  1  0
 35 30  1  0
M  END
$$$$
