
     RDKit          3D

 38 40  0  0  0  0  0  0  0  0999 V2000
   -9.9624  -43.5905   -9.7203 C   0  0  0  0  0  0  0  0  0  0  0  0
  -11.3385  -43.4062   -9.8681 O   0  0  0  0  0  0  0  0  0  0  0  0
  -11.7195  -43.5945  -11.1903 C   0  0  0  0  0  0  0  0  0  0  0  0
  -12.6095  -42.4875  -11.6419 C   0  0  0  0  0  0  0  0  0  0  0  0
  -12.3568  -41.7793  -12.7824 C   0  0  0  0  0  0  0  0  0  0  0  0
  -13.1792  -40.7129  -13.2477 C   0  0  0  0  0  0  0  0  0  0  0  0
  -14.2980  -40.3627  -12.5165 C   0  0  0  0  0  0  0  0  0  0  0  0
  -14.5832  -41.0571  -11.3567 C   0  0  0  0  0  0  0  0  0  0  0  0
  -13.7212  -42.1119  -10.9491 C   0  0  0  0  0  0  0  0  0  0  0  0
  -15.6669  -40.9262  -10.3771 C   0  0  0  0  0  0  0  0  0  0  0  0
  -16.3326  -42.0137  -10.0078 O   0  0  0  0  0  0  0  0  0  0  0  0
  -16.1800  -39.7856   -9.6931 N   0  0  0  0  0  0  0  0  0  0  0  0
  -15.3365  -38.8752   -8.8880 C   0  0  1  0  0  0  0  0  0  0  0  0
  -15.6220  -37.4704   -9.3065 C   0  0  0  0  0  0  0  0  0  0  0  0
  -14.6119  -37.0394  -10.3525 C   0  0  2  0  0  0  0  0  0  0  0  0
  -13.1798  -37.3988   -9.9437 C   0  0  0  0  0  0  0  0  0  0  0  0
  -14.6895  -35.5782  -10.6611 C   0  0  0  0  0  0  0  0  0  0  0  0
  -14.7657  -35.2649  -12.1290 C   0  0  0  0  0  0  0  0  0  0  0  0
  -13.4191  -35.2362  -12.8179 C   0  0  0  0  0  0  0  0  0  0  0  0
  -13.2151  -36.5388  -13.5610 C   0  0  0  0  0  0  0  0  0  0  0  0
  -11.9756  -36.5806  -14.3979 C   0  0  0  0  0  0  0  0  0  0  0  0
  -11.4563  -38.0256  -14.3974 C   0  0  0  0  0  0  0  0  0  0  0  0
  -12.5207  -38.8730  -15.0085 C   0  0  0  0  0  0  0  0  0  0  0  0
  -12.6343  -40.2088  -14.4656 N   0  0  0  0  0  0  0  0  0  0  0  0
  -15.5587  -39.1708   -7.4460 C   0  0  2  0  0  0  0  0  0  0  0  0
  -14.3945  -39.5757   -6.7743 O   0  0  0  0  0  0  0  0  0  0  0  0
  -16.6723  -40.0930   -7.1076 C   0  0  0  0  0  0  0  0  0  0  0  0
  -17.9583  -39.4769   -7.1651 N   0  0  0  0  0  0  0  0  0  0  0  0
  -19.0355  -40.4366   -7.3508 C   0  0  0  0  0  0  0  0  0  0  0  0
  -20.3362  -39.7498   -7.0795 C   0  0  0  0  0  0  0  0  0  0  0  0
  -20.9002  -39.8469   -5.8368 C   0  0  0  0  0  0  0  0  0  0  0  0
  -22.1042  -39.2559   -5.5684 C   0  0  0  0  0  0  0  0  0  0  0  0
  -22.7809  -38.5409   -6.5591 C   0  0  0  0  0  0  0  0  0  0  0  0
  -22.1890  -38.4611   -7.7951 C   0  0  0  0  0  0  0  0  0  0  0  0
  -20.9785  -39.0521   -8.0742 C   0  0  0  0  0  0  0  0  0  0  0  0
  -22.7592  -39.3155   -4.2182 C   0  0  0  0  0  0  0  0  0  0  0  0
  -21.9349  -38.4416   -3.2614 C   0  0  0  0  0  0  0  0  0  0  0  0
  -22.7181  -40.7018   -3.6620 C   0  0  0  0  0  0  0  0  0  0  0  0
  1  2  1  0
  2  3  1  0
  3  4  1  0
  4  5  2  0
  5  6  1  0
  6  7  2  0
  7  8  1  0
  8  9  2  0
  8 10  1  0
 10 11  2  0
 10 12  1  0
 12 13  1  0
 13 14  1  1
 14 15  1  0
 15 16  1  1
 15 17  1  0
 17 18  1  0
 18 19  1  0
 19 20  1  0
 20 21  1  0
 21 22  1  0
 22 23  1  0
 23 24  1  0
 13 25  1  0
 25 26  1  6
 25 27  1  0
 27 28  1  0
 28 29  1  0
 29 30  1  0
 30 31  2  0
 31 32  1  0
 32 33  2  0
 33 34  1  0
 34 35  2  0
 32 36  1  0
 36 37  1  0
 36 38  1  0
  9  4  1  0
 24  6  1  0
 35 30  1  0
M  END
$$$$
