
     RDKit          3D

 38 40  0  0  0  0  0  0  0  0999 V2000
  -10.4065  -42.3592   -9.4704 C   0  0  0  0  0  0  0  0  0  0  0  0
  -11.6212  -42.9978   -9.2125 O   0  0  0  0  0  0  0  0  0  0  0  0
  -12.1925  -43.4597  -10.3911 C   0  0  0  0  0  0  0  0  0  0  0  0
  -13.2929  -42.5552  -10.8298 C   0  0  0  0  0  0  0  0  0  0  0  0
  -13.2557  -41.9051  -12.0307 C   0  0  0  0  0  0  0  0  0  0  0  0
  -14.2837  -41.0302  -12.4865 C   0  0  0  0  0  0  0  0  0  0  0  0
  -15.3860  -40.8162  -11.6814 C   0  0  0  0  0  0  0  0  0  0  0  0
  -15.4559  -41.4567  -10.4592 C   0  0  0  0  0  0  0  0  0  0  0  0
  -14.3955  -42.3180  -10.0651 C   0  0  0  0  0  0  0  0  0  0  0  0
  -16.4665  -41.4332   -9.3965 C   0  0  0  0  0  0  0  0  0  0  0  0
  -16.9034  -42.5848   -8.9013 O   0  0  0  0  0  0  0  0  0  0  0  0
  -17.1144  -40.3448   -8.7424 N   0  0  0  0  0  0  0  0  0  0  0  0
  -16.3809  -39.2469   -8.0752 C   0  0  1  0  0  0  0  0  0  0  0  0
  -16.9366  -37.9461   -8.5539 C   0  0  0  0  0  0  0  0  0  0  0  0
  -16.1006  -37.4347   -9.7114 C   0  0  2  0  0  0  0  0  0  0  0  0
  -14.6006  -37.5173   -9.4110 C   0  0  0  0  0  0  0  0  0  0  0  0
  -16.4534  -36.0352  -10.1032 C   0  0  0  0  0  0  0  0  0  0  0  0
  -16.6964  -35.8535  -11.5751 C   0  0  0  0  0  0  0  0  0  0  0  0
  -15.4328  -35.6538  -12.3825 C   0  0  0  0  0  0  0  0  0  0  0  0
  -15.0650  -36.9576  -13.0575 C   0  0  0  0  0  0  0  0  0  0  0  0
  -13.9057  -36.8565  -13.9979 C   0  0  0  0  0  0  0  0  0  0  0  0
  -13.1460  -38.1900  -13.9530 C   0  0  0  0  0  0  0  0  0  0  0  0
  -14.0921  -39.2479  -14.4116 C   0  0  0  0  0  0  0  0  0  0  0  0
  -13.9305  -40.5379  -13.7778 N   0  0  0  0  0  0  0  0  0  0  0  0
  -16.4360  -39.4630   -6.6033 C   0  0  2  0  0  0  0  0  0  0  0  0
  -15.1693  -39.5286   -6.0020 O   0  0  0  0  0  0  0  0  0  0  0  0
  -17.2753  -40.5864   -6.1149 C   0  0  0  0  0  0  0  0  0  0  0  0
  -18.6073  -40.5656   -6.6268 N   0  0  0  0  0  0  0  0  0  0  0  0
  -19.3746  -39.4232   -6.1557 C   0  0  0  0  0  0  0  0  0  0  0  0
  -20.7466  -39.4956   -6.7468 C   0  0  0  0  0  0  0  0  0  0  0  0
  -21.3729  -40.7081   -6.8433 C   0  0  0  0  0  0  0  0  0  0  0  0
  -22.6146  -40.8096   -7.4079 C   0  0  0  0  0  0  0  0  0  0  0  0
  -23.2673  -39.6757   -7.8968 C   0  0  0  0  0  0  0  0  0  0  0  0
  -22.6134  -38.4740   -7.7849 C   0  0  0  0  0  0  0  0  0  0  0  0
  -21.3646  -38.3623   -7.2185 C   0  0  0  0  0  0  0  0  0  0  0  0
  -23.3545  -42.1115   -7.5226 C   0  0  0  0  0  0  0  0  0  0  0  0
  -23.9035  -42.2109   -8.9536 C   0  0  0  0  0  0  0  0  0  0  0  0
  -24.5410  -42.1368   -6.6148 C   0  0  0  0  0  0  0  0  0  0  0  0
  1  2  1  0
  2  3  1  0
  3  4  1  0
  4  5  2  0
  5  6  1  0
  6  7  2  0
  7  8  1  0
  8  9  2  0
  8 10  1  0
 10 11  2  0
 10 12  1  0
 12 13  1  0
 13 14  1  1
 14 15  1  0
 15 16  1  1
 15 17  1  0
 17 18  1  0
 18 19  1  0
 19 20  1  0
 20 21  1  0
 21 22  1  0
 22 23  1  0
 23 24  1  0
 13 25  1  0
 25 26  1  6
 25 27  1  0
 27 28  1  0
 28 29  1  0
 29 30  1  0
 30 31  2  0
 31 32  1  0
 32 33  2  0
 33 34  1  0
 34 35  2  0
 32 36  1  0
 36 37  1  0
 36 38  1  0
  9  4  1  0
 24  6  1  0
 35 30  1  0
M  END
$$$$
