
     RDKit          3D

 38 40  0  0  0  0  0  0  0  0999 V2000
  -17.6961  -47.4734   -5.9012 C   0  0  0  0  0  0  0  0  0  0  0  0
  -18.9414  -46.8701   -5.7141 O   0  0  0  0  0  0  0  0  0  0  0  0
  -19.2774  -46.0881   -6.8115 C   0  0  0  0  0  0  0  0  0  0  0  0
  -19.5291  -44.6796   -6.3939 C   0  0  0  0  0  0  0  0  0  0  0  0
  -20.7303  -44.2850   -5.8766 C   0  0  0  0  0  0  0  0  0  0  0  0
  -21.0133  -42.9495   -5.4685 C   0  0  0  0  0  0  0  0  0  0  0  0
  -20.0294  -41.9880   -5.5966 C   0  0  0  0  0  0  0  0  0  0  0  0
  -18.8025  -42.3518   -6.1174 C   0  0  0  0  0  0  0  0  0  0  0  0
  -18.5856  -43.7027   -6.5045 C   0  0  0  0  0  0  0  0  0  0  0  0
  -17.5823  -41.5820   -6.3813 C   0  0  0  0  0  0  0  0  0  0  0  0
  -16.4196  -42.0548   -5.9490 O   0  0  0  0  0  0  0  0  0  0  0  0
  -17.3827  -40.3440   -7.0592 N   0  0  0  0  0  0  0  0  0  0  0  0
  -17.8453  -40.0926   -8.4417 C   0  0  1  0  0  0  0  0  0  0  0  0
  -18.5959  -38.8018   -8.4629 C   0  0  0  0  0  0  0  0  0  0  0  0
  -20.0793  -39.0770   -8.3076 C   0  0  2  0  0  0  0  0  0  0  0  0
  -20.5490  -40.2057   -9.2309 C   0  0  0  0  0  0  0  0  0  0  0  0
  -20.9186  -37.8614   -8.5408 C   0  0  0  0  0  0  0  0  0  0  0  0
  -21.9287  -37.5973   -7.4598 C   0  0  0  0  0  0  0  0  0  0  0  0
  -23.2092  -38.3877   -7.6143 C   0  0  0  0  0  0  0  0  0  0  0  0
  -23.1752  -39.5744   -6.6754 C   0  0  0  0  0  0  0  0  0  0  0  0
  -24.4469  -40.3615   -6.6345 C   0  0  0  0  0  0  0  0  0  0  0  0
  -24.0817  -41.8327   -6.3899 C   0  0  0  0  0  0  0  0  0  0  0  0
  -23.3913  -41.8982   -5.0695 C   0  0  0  0  0  0  0  0  0  0  0  0
  -22.3475  -42.8942   -4.9672 N   0  0  0  0  0  0  0  0  0  0  0  0
  -16.6734  -40.1662   -9.3568 C   0  0  2  0  0  0  0  0  0  0  0  0
  -16.3459  -41.4767   -9.7385 O   0  0  0  0  0  0  0  0  0  0  0  0
  -15.4420  -39.4492   -8.9389 C   0  0  0  0  0  0  0  0  0  0  0  0
  -15.6107  -38.0352   -8.8467 N   0  0  0  0  0  0  0  0  0  0  0  0
  -15.8781  -37.4141  -10.1345 C   0  0  0  0  0  0  0  0  0  0  0  0
  -14.5760  -36.9954  -10.7400 C   0  0  0  0  0  0  0  0  0  0  0  0
  -13.5878  -37.9250  -10.9160 C   0  0  0  0  0  0  0  0  0  0  0  0
  -12.3758  -37.5653  -11.4379 C   0  0  0  0  0  0  0  0  0  0  0  0
  -12.1242  -36.2405  -11.8018 C   0  0  0  0  0  0  0  0  0  0  0  0
  -13.1357  -35.3317  -11.6136 C   0  0  0  0  0  0  0  0  0  0  0  0
  -14.3578  -35.6844  -11.0895 C   0  0  0  0  0  0  0  0  0  0  0  0
  -11.2633  -38.5474  -11.6691 C   0  0  0  0  0  0  0  0  0  0  0  0
  -10.0355  -38.0526  -10.8902 C   0  0  0  0  0  0  0  0  0  0  0  0
  -10.8636  -38.5773  -13.1086 C   0  0  0  0  0  0  0  0  0  0  0  0
  1  2  1  0
  2  3  1  0
  3  4  1  0
  4  5  2  0
  5  6  1  0
  6  7  2  0
  7  8  1  0
  8  9  2  0
  8 10  1  0
 10 11  2  0
 10 12  1  0
 12 13  1  0
 13 14  1  1
 14 15  1  0
 15 16  1  6
 15 17  1  0
 17 18  1  0
 18 19  1  0
 19 20  1  0
 20 21  1  0
 21 22  1  0
 22 23  1  0
 23 24  1  0
 13 25  1  0
 25 26  1  1
 25 27  1  0
 27 28  1  0
 28 29  1  0
 29 30  1  0
 30 31  2  0
 31 32  1  0
 32 33  2  0
 33 34  1  0
 34 35  2  0
 32 36  1  0
 36 37  1  0
 36 38  1  0
  9  4  1  0
 24  6  1  0
 35 30  1  0
M  END
$$$$
