
     RDKit          3D

 38 40  0  0  0  0  0  0  0  0999 V2000
  -19.0559  -40.0719  -13.6271 C   0  0  0  0  0  0  0  0  0  0  0  0
  -19.7463  -41.2169  -13.2248 O   0  0  0  0  0  0  0  0  0  0  0  0
  -18.8620  -42.1963  -12.7919 C   0  0  0  0  0  0  0  0  0  0  0  0
  -19.0724  -42.4903  -11.3459 C   0  0  0  0  0  0  0  0  0  0  0  0
  -20.1810  -43.1519  -10.8990 C   0  0  0  0  0  0  0  0  0  0  0  0
  -20.4223  -43.4499   -9.5268 C   0  0  0  0  0  0  0  0  0  0  0  0
  -19.4939  -43.0547   -8.5829 C   0  0  0  0  0  0  0  0  0  0  0  0
  -18.3614  -42.3821   -8.9996 C   0  0  0  0  0  0  0  0  0  0  0  0
  -18.1813  -42.1172  -10.3849 C   0  0  0  0  0  0  0  0  0  0  0  0
  -17.2180  -41.8362   -8.2608 C   0  0  0  0  0  0  0  0  0  0  0  0
  -15.9901  -42.1202   -8.6779 O   0  0  0  0  0  0  0  0  0  0  0  0
  -17.1592  -41.0010   -7.1070 N   0  0  0  0  0  0  0  0  0  0  0  0
  -17.8475  -39.6947   -7.0154 C   0  0  1  0  0  0  0  0  0  0  0  0
  -18.6194  -39.6543   -5.7377 C   0  0  0  0  0  0  0  0  0  0  0  0
  -20.0509  -40.0824   -5.9981 C   0  0  2  0  0  0  0  0  0  0  0  0
  -20.6408  -39.3809   -7.2257 C   0  0  0  0  0  0  0  0  0  0  0  0
  -20.9434  -39.8573   -4.8195 C   0  0  0  0  0  0  0  0  0  0  0  0
  -21.7682  -41.0542   -4.4377 C   0  0  0  0  0  0  0  0  0  0  0  0
  -23.0392  -41.2024   -5.2446 C   0  0  0  0  0  0  0  0  0  0  0  0
  -22.8259  -42.2489   -6.3170 C   0  0  0  0  0  0  0  0  0  0  0  0
  -24.0562  -42.5868   -7.0985 C   0  0  0  0  0  0  0  0  0  0  0  0
  -23.6239  -42.9299   -8.5312 C   0  0  0  0  0  0  0  0  0  0  0  0
  -22.7251  -44.1169   -8.4444 C   0  0  0  0  0  0  0  0  0  0  0  0
  -21.6572  -44.1556   -9.4191 N   0  0  0  0  0  0  0  0  0  0  0  0
  -16.8401  -38.6125   -7.1886 C   0  0  2  0  0  0  0  0  0  0  0  0
  -17.3708  -37.3244   -7.0164 O   0  0  0  0  0  0  0  0  0  0  0  0
  -16.0140  -38.6475   -8.4221 C   0  0  0  0  0  0  0  0  0  0  0  0
  -15.1490  -39.7801   -8.4954 N   0  0  0  0  0  0  0  0  0  0  0  0
  -13.8020  -39.4343   -8.9219 C   0  0  0  0  0  0  0  0  0  0  0  0
  -13.8926  -38.6453  -10.1894 C   0  0  0  0  0  0  0  0  0  0  0  0
  -13.3755  -37.3793  -10.2306 C   0  0  0  0  0  0  0  0  0  0  0  0
  -13.4715  -36.6225  -11.3658 C   0  0  0  0  0  0  0  0  0  0  0  0
  -14.0996  -37.1288  -12.5058 C   0  0  0  0  0  0  0  0  0  0  0  0
  -14.6076  -38.4020  -12.4334 C   0  0  0  0  0  0  0  0  0  0  0  0
  -14.5156  -39.1706  -11.2960 C   0  0  0  0  0  0  0  0  0  0  0  0
  -12.9060  -35.2351  -11.4715 C   0  0  0  0  0  0  0  0  0  0  0  0
  -11.6993  -35.1505  -10.5253 C   0  0  0  0  0  0  0  0  0  0  0  0
  -13.8884  -34.2166  -10.9918 C   0  0  0  0  0  0  0  0  0  0  0  0
  1  2  1  0
  2  3  1  0
  3  4  1  0
  4  5  2  0
  5  6  1  0
  6  7  2  0
  7  8  1  0
  8  9  2  0
  8 10  1  0
 10 11  2  0
 10 12  1  0
 12 13  1  0
 13 14  1  1
 14 15  1  0
 15 16  1  6
 15 17  1  0
 17 18  1  0
 18 19  1  0
 19 20  1  0
 20 21  1  0
 21 22  1  0
 22 23  1  0
 23 24  1  0
 13 25  1  0
 25 26  1  6
 25 27  1  0
 27 28  1  0
 28 29  1  0
 29 30  1  0
 30 31  2  0
 31 32  1  0
 32 33  2  0
 33 34  1  0
 34 35  2  0
 32 36  1  0
 36 37  1  0
 36 38  1  0
  9  4  1  0
 24  6  1  0
 35 30  1  0
M  END
$$$$
