
     RDKit          3D

 38 40  0  0  0  0  0  0  0  0999 V2000
  -20.1866  -39.0416  -13.6281 C   0  0  0  0  0  0  0  0  0  0  0  0
  -19.1493  -39.8366  -13.1365 O   0  0  0  0  0  0  0  0  0  0  0  0
  -19.5553  -41.1602  -13.0269 C   0  0  0  0  0  0  0  0  0  0  0  0
  -19.5294  -41.6001  -11.6030 C   0  0  0  0  0  0  0  0  0  0  0  0
  -20.6256  -42.1456  -10.9973 C   0  0  0  0  0  0  0  0  0  0  0  0
  -20.6445  -42.5757   -9.6390 C   0  0  0  0  0  0  0  0  0  0  0  0
  -19.4990  -42.4403   -8.8784 C   0  0  0  0  0  0  0  0  0  0  0  0
  -18.3719  -41.8912   -9.4587 C   0  0  0  0  0  0  0  0  0  0  0  0
  -18.4204  -41.4832  -10.8199 C   0  0  0  0  0  0  0  0  0  0  0  0
  -17.0329  -41.6132   -8.9287 C   0  0  0  0  0  0  0  0  0  0  0  0
  -15.9732  -42.0167   -9.6190 O   0  0  0  0  0  0  0  0  0  0  0  0
  -16.6145  -40.9469   -7.7399 N   0  0  0  0  0  0  0  0  0  0  0  0
  -17.0445  -39.5769   -7.3838 C   0  0  1  0  0  0  0  0  0  0  0  0
  -17.5382  -39.5864   -5.9745 C   0  0  0  0  0  0  0  0  0  0  0  0
  -19.0440  -39.7672   -5.9675 C   0  0  2  0  0  0  0  0  0  0  0  0
  -19.7339  -38.8393   -6.9726 C   0  0  0  0  0  0  0  0  0  0  0  0
  -19.6425  -39.5655   -4.6119 C   0  0  0  0  0  0  0  0  0  0  0  0
  -20.5662  -40.6693   -4.1793 C   0  0  0  0  0  0  0  0  0  0  0  0
  -21.9754  -40.5300   -4.7115 C   0  0  0  0  0  0  0  0  0  0  0  0
  -22.1502  -41.4532   -5.8980 C   0  0  0  0  0  0  0  0  0  0  0  0
  -23.5468  -41.5092   -6.4319 C   0  0  0  0  0  0  0  0  0  0  0  0
  -23.4619  -41.7284   -7.9492 C   0  0  0  0  0  0  0  0  0  0  0  0
  -22.7741  -43.0340   -8.1647 C   0  0  0  0  0  0  0  0  0  0  0  0
  -21.9356  -43.1036   -9.3411 N   0  0  0  0  0  0  0  0  0  0  0  0
  -15.9232  -38.6383   -7.6625 C   0  0  2  0  0  0  0  0  0  0  0  0
  -16.2093  -37.3090   -7.3135 O   0  0  0  0  0  0  0  0  0  0  0  0
  -15.3304  -38.6767   -9.0235 C   0  0  0  0  0  0  0  0  0  0  0  0
  -14.0025  -39.1986   -9.0508 N   0  0  0  0  0  0  0  0  0  0  0  0
  -13.6677  -39.8220  -10.3218 C   0  0  0  0  0  0  0  0  0  0  0  0
  -13.5776  -38.7547  -11.3657 C   0  0  0  0  0  0  0  0  0  0  0  0
  -12.7060  -37.7150  -11.1894 C   0  0  0  0  0  0  0  0  0  0  0  0
  -12.6244  -36.7082  -12.1117 C   0  0  0  0  0  0  0  0  0  0  0  0
  -13.4302  -36.7231  -13.2524 C   0  0  0  0  0  0  0  0  0  0  0  0
  -14.2937  -37.7797  -13.4010 C   0  0  0  0  0  0  0  0  0  0  0  0
  -14.3826  -38.7967  -12.4788 C   0  0  0  0  0  0  0  0  0  0  0  0
  -11.6733  -35.5537  -11.9771 C   0  0  0  0  0  0  0  0  0  0  0  0
  -10.4450  -35.8580  -12.8474 C   0  0  0  0  0  0  0  0  0  0  0  0
  -11.1739  -35.4298  -10.5743 C   0  0  0  0  0  0  0  0  0  0  0  0
  1  2  1  0
  2  3  1  0
  3  4  1  0
  4  5  2  0
  5  6  1  0
  6  7  2  0
  7  8  1  0
  8  9  2  0
  8 10  1  0
 10 11  2  0
 10 12  1  0
 12 13  1  0
 13 14  1  1
 14 15  1  0
 15 16  1  6
 15 17  1  0
 17 18  1  0
 18 19  1  0
 19 20  1  0
 20 21  1  0
 21 22  1  0
 22 23  1  0
 23 24  1  0
 13 25  1  0
 25 26  1  6
 25 27  1  0
 27 28  1  0
 28 29  1  0
 29 30  1  0
 30 31  2  0
 31 32  1  0
 32 33  2  0
 33 34  1  0
 34 35  2  0
 32 36  1  0
 36 37  1  0
 36 38  1  0
  9  4  1  0
 24  6  1  0
 35 30  1  0
M  END
$$$$
