
     RDKit          3D

 38 40  0  0  0  0  0  0  0  0999 V2000
  -16.7610  -45.5236  -12.0559 C   0  0  0  0  0  0  0  0  0  0  0  0
  -17.4640  -44.6607  -11.2127 O   0  0  0  0  0  0  0  0  0  0  0  0
  -18.0888  -45.3701  -10.1953 C   0  0  0  0  0  0  0  0  0  0  0  0
  -18.3649  -44.4821   -9.0304 C   0  0  0  0  0  0  0  0  0  0  0  0
  -19.4381  -44.6833   -8.2094 C   0  0  0  0  0  0  0  0  0  0  0  0
  -19.7398  -43.8572   -7.0884 C   0  0  0  0  0  0  0  0  0  0  0  0
  -18.9114  -42.7891   -6.8021 C   0  0  0  0  0  0  0  0  0  0  0  0
  -17.8172  -42.5554   -7.6125 C   0  0  0  0  0  0  0  0  0  0  0  0
  -17.5727  -43.4191   -8.7151 C   0  0  0  0  0  0  0  0  0  0  0  0
  -16.7750  -41.5239   -7.5791 C   0  0  0  0  0  0  0  0  0  0  0  0
  -15.5030  -41.8944   -7.6631 O   0  0  0  0  0  0  0  0  0  0  0  0
  -16.8628  -40.1052   -7.4705 N   0  0  0  0  0  0  0  0  0  0  0  0
  -17.6663  -39.2696   -8.3895 C   0  0  1  0  0  0  0  0  0  0  0  0
  -18.5188  -38.3538   -7.5744 C   0  0  0  0  0  0  0  0  0  0  0  0
  -19.8882  -38.9764   -7.3810 C   0  0  2  0  0  0  0  0  0  0  0  0
  -20.4572  -39.5209   -8.6951 C   0  0  0  0  0  0  0  0  0  0  0  0
  -20.8704  -38.0300   -6.7677 C   0  0  0  0  0  0  0  0  0  0  0  0
  -21.6108  -38.5944   -5.5879 C   0  0  0  0  0  0  0  0  0  0  0  0
  -22.8101  -39.4358   -5.9653 C   0  0  0  0  0  0  0  0  0  0  0  0
  -22.4387  -40.8997   -5.8670 C   0  0  0  0  0  0  0  0  0  0  0  0
  -23.5826  -41.8393   -6.0844 C   0  0  0  0  0  0  0  0  0  0  0  0
  -23.0315  -43.1027   -6.7607 C   0  0  0  0  0  0  0  0  0  0  0  0
  -22.0405  -43.7042   -5.8224 C   0  0  0  0  0  0  0  0  0  0  0  0
  -20.9131  -44.3576   -6.4502 N   0  0  0  0  0  0  0  0  0  0  0  0
  -16.7476  -38.6012   -9.3515 C   0  0  2  0  0  0  0  0  0  0  0  0
  -17.2417  -38.5715  -10.6651 O   0  0  0  0  0  0  0  0  0  0  0  0
  -15.3336  -39.0545   -9.3638 C   0  0  0  0  0  0  0  0  0  0  0  0
  -14.4552  -38.1975   -8.6355 N   0  0  0  0  0  0  0  0  0  0  0  0
  -14.3083  -36.8872   -9.2498 C   0  0  0  0  0  0  0  0  0  0  0  0
  -13.7061  -37.0634  -10.6075 C   0  0  0  0  0  0  0  0  0  0  0  0
  -12.8496  -38.1064  -10.8319 C   0  0  0  0  0  0  0  0  0  0  0  0
  -12.2593  -38.2746  -12.0542 C   0  0  0  0  0  0  0  0  0  0  0  0
  -12.5206  -37.3837  -13.0976 C   0  0  0  0  0  0  0  0  0  0  0  0
  -13.3845  -36.3481  -12.8415 C   0  0  0  0  0  0  0  0  0  0  0  0
  -13.9829  -36.1711  -11.6155 C   0  0  0  0  0  0  0  0  0  0  0  0
  -11.3265  -39.4112  -12.3601 C   0  0  0  0  0  0  0  0  0  0  0  0
  -10.3266  -38.9215  -13.4181 C   0  0  0  0  0  0  0  0  0  0  0  0
  -12.0607  -40.5582  -12.9749 C   0  0  0  0  0  0  0  0  0  0  0  0
  1  2  1  0
  2  3  1  0
  3  4  1  0
  4  5  2  0
  5  6  1  0
  6  7  2  0
  7  8  1  0
  8  9  2  0
  8 10  1  0
 10 11  2  0
 10 12  1  0
 12 13  1  0
 13 14  1  1
 14 15  1  0
 15 16  1  6
 15 17  1  0
 17 18  1  0
 18 19  1  0
 19 20  1  0
 20 21  1  0
 21 22  1  0
 22 23  1  0
 23 24  1  0
 13 25  1  0
 25 26  1  6
 25 27  1  0
 27 28  1  0
 28 29  1  0
 29 30  1  0
 30 31  2  0
 31 32  1  0
 32 33  2  0
 33 34  1  0
 34 35  2  0
 32 36  1  0
 36 37  1  0
 36 38  1  0
  9  4  1  0
 24  6  1  0
 35 30  1  0
M  END
$$$$
