
     RDKit          3D

 38 40  0  0  0  0  0  0  0  0999 V2000
  -15.5251  -45.1861  -11.5429 C   0  0  0  0  0  0  0  0  0  0  0  0
  -16.1556  -44.0063  -11.1427 O   0  0  0  0  0  0  0  0  0  0  0  0
  -17.5219  -44.2062  -10.9943 C   0  0  0  0  0  0  0  0  0  0  0  0
  -17.9883  -43.6828   -9.6790 C   0  0  0  0  0  0  0  0  0  0  0  0
  -19.2241  -43.9840   -9.1808 C   0  0  0  0  0  0  0  0  0  0  0  0
  -19.7099  -43.5026   -7.9308 C   0  0  0  0  0  0  0  0  0  0  0  0
  -18.8988  -42.6844   -7.1681 C   0  0  0  0  0  0  0  0  0  0  0  0
  -17.6428  -42.3582   -7.6422 C   0  0  0  0  0  0  0  0  0  0  0  0
  -17.2191  -42.8735   -8.8978 C   0  0  0  0  0  0  0  0  0  0  0  0
  -16.5709  -41.5255   -7.0863 C   0  0  0  0  0  0  0  0  0  0  0  0
  -15.3363  -42.0116   -7.0465 O   0  0  0  0  0  0  0  0  0  0  0  0
  -16.5924  -40.2063   -6.5465 N   0  0  0  0  0  0  0  0  0  0  0  0
  -17.1247  -39.0379   -7.2814 C   0  0  1  0  0  0  0  0  0  0  0  0
  -18.0753  -38.3097   -6.3891 C   0  0  0  0  0  0  0  0  0  0  0  0
  -19.4899  -38.7828   -6.6641 C   0  0  2  0  0  0  0  0  0  0  0  0
  -19.7933  -38.8295   -8.1650 C   0  0  0  0  0  0  0  0  0  0  0  0
  -20.5212  -37.9485   -5.9736 C   0  0  0  0  0  0  0  0  0  0  0  0
  -21.5329  -38.7433   -5.1968 C   0  0  0  0  0  0  0  0  0  0  0  0
  -22.6716  -39.2728   -6.0403 C   0  0  0  0  0  0  0  0  0  0  0  0
  -22.4214  -40.7331   -6.3497 C   0  0  0  0  0  0  0  0  0  0  0  0
  -23.5468  -41.4106   -7.0658 C   0  0  0  0  0  0  0  0  0  0  0  0
  -22.9414  -42.4709   -7.9968 C   0  0  0  0  0  0  0  0  0  0  0  0
  -22.2161  -43.4476   -7.1340 C   0  0  0  0  0  0  0  0  0  0  0  0
  -21.0221  -44.0190   -7.7170 N   0  0  0  0  0  0  0  0  0  0  0  0
  -15.9801  -38.2329   -7.7893 C   0  0  2  0  0  0  0  0  0  0  0  0
  -16.3629  -37.2257   -8.6890 O   0  0  0  0  0  0  0  0  0  0  0  0
  -14.8213  -38.9782   -8.3434 C   0  0  0  0  0  0  0  0  0  0  0  0
  -15.1461  -39.7645   -9.4892 N   0  0  0  0  0  0  0  0  0  0  0  0
  -14.0071  -39.9768  -10.3687 C   0  0  0  0  0  0  0  0  0  0  0  0
  -13.4710  -38.6432  -10.7826 C   0  0  0  0  0  0  0  0  0  0  0  0
  -14.2714  -37.7878  -11.4892 C   0  0  0  0  0  0  0  0  0  0  0  0
  -13.7983  -36.5748  -11.9084 C   0  0  0  0  0  0  0  0  0  0  0  0
  -12.4878  -36.1862  -11.6220 C   0  0  0  0  0  0  0  0  0  0  0  0
  -11.7100  -37.0658  -10.9110 C   0  0  0  0  0  0  0  0  0  0  0  0
  -12.1772  -38.2878  -10.4852 C   0  0  0  0  0  0  0  0  0  0  0  0
  -14.6386  -35.5907  -12.6707 C   0  0  0  0  0  0  0  0  0  0  0  0
  -15.9439  -35.3872  -11.8873 C   0  0  0  0  0  0  0  0  0  0  0  0
  -15.0302  -36.1385  -14.0046 C   0  0  0  0  0  0  0  0  0  0  0  0
  1  2  1  0
  2  3  1  0
  3  4  1  0
  4  5  2  0
  5  6  1  0
  6  7  2  0
  7  8  1  0
  8  9  2  0
  8 10  1  0
 10 11  2  0
 10 12  1  0
 12 13  1  0
 13 14  1  1
 14 15  1  0
 15 16  1  6
 15 17  1  0
 17 18  1  0
 18 19  1  0
 19 20  1  0
 20 21  1  0
 21 22  1  0
 22 23  1  0
 23 24  1  0
 13 25  1  0
 25 26  1  6
 25 27  1  0
 27 28  1  0
 28 29  1  0
 29 30  1  0
 30 31  2  0
 31 32  1  0
 32 33  2  0
 33 34  1  0
 34 35  2  0
 32 36  1  0
 36 37  1  0
 36 38  1  0
  9  4  1  0
 24  6  1  0
 35 30  1  0
M  END
$$$$
