
     RDKit          3D

 38 40  0  0  0  0  0  0  0  0999 V2000
  -17.3707  -47.9805   -9.2529 C   0  0  0  0  0  0  0  0  0  0  0  0
  -17.0633  -46.7025   -8.7820 O   0  0  0  0  0  0  0  0  0  0  0  0
  -17.9787  -45.7718   -9.2560 C   0  0  0  0  0  0  0  0  0  0  0  0
  -18.4801  -44.9163   -8.1433 C   0  0  0  0  0  0  0  0  0  0  0  0
  -19.7218  -45.0930   -7.6017 C   0  0  0  0  0  0  0  0  0  0  0  0
  -20.2406  -44.2962   -6.5405 C   0  0  0  0  0  0  0  0  0  0  0  0
  -19.4575  -43.2843   -6.0191 C   0  0  0  0  0  0  0  0  0  0  0  0
  -18.1965  -43.0765   -6.5440 C   0  0  0  0  0  0  0  0  0  0  0  0
  -17.7392  -43.9086   -7.6023 C   0  0  0  0  0  0  0  0  0  0  0  0
  -17.1486  -42.1025   -6.2212 C   0  0  0  0  0  0  0  0  0  0  0  0
  -15.9082  -42.5348   -6.0290 O   0  0  0  0  0  0  0  0  0  0  0  0
  -17.2002  -40.6864   -6.0656 N   0  0  0  0  0  0  0  0  0  0  0  0
  -17.7334  -39.7755   -7.1022 C   0  0  1  0  0  0  0  0  0  0  0  0
  -18.7129  -38.8488   -6.4604 C   0  0  0  0  0  0  0  0  0  0  0  0
  -20.1144  -39.4066   -6.6177 C   0  0  2  0  0  0  0  0  0  0  0  0
  -20.3854  -39.8699   -8.0527 C   0  0  0  0  0  0  0  0  0  0  0  0
  -21.1718  -38.4350   -6.2004 C   0  0  0  0  0  0  0  0  0  0  0  0
  -22.1883  -39.0052   -5.2516 C   0  0  0  0  0  0  0  0  0  0  0  0
  -23.3013  -39.7682   -5.9355 C   0  0  0  0  0  0  0  0  0  0  0  0
  -23.0239  -41.2521   -5.8270 C   0  0  0  0  0  0  0  0  0  0  0  0
  -24.1243  -42.1221   -6.3475 C   0  0  0  0  0  0  0  0  0  0  0  0
  -23.4843  -43.3854   -6.9408 C   0  0  0  0  0  0  0  0  0  0  0  0
  -22.7636  -44.0731   -5.8308 C   0  0  0  0  0  0  0  0  0  0  0  0
  -21.5496  -44.7594   -6.2144 N   0  0  0  0  0  0  0  0  0  0  0  0
  -16.5899  -39.1190   -7.7932 C   0  0  2  0  0  0  0  0  0  0  0  0
  -16.6419  -37.7169   -7.7477 O   0  0  0  0  0  0  0  0  0  0  0  0
  -16.2937  -39.5593   -9.1801 C   0  0  0  0  0  0  0  0  0  0  0  0
  -14.8984  -39.6101   -9.4749 N   0  0  0  0  0  0  0  0  0  0  0  0
  -14.3366  -38.3014   -9.7711 C   0  0  0  0  0  0  0  0  0  0  0  0
  -13.0956  -38.4896  -10.5843 C   0  0  0  0  0  0  0  0  0  0  0  0
  -12.5385  -39.7355  -10.6806 C   0  0  0  0  0  0  0  0  0  0  0  0
  -11.3865  -39.9323  -11.3912 C   0  0  0  0  0  0  0  0  0  0  0  0
  -10.7567  -38.8635  -12.0329 C   0  0  0  0  0  0  0  0  0  0  0  0
  -11.3402  -37.6263  -11.9182 C   0  0  0  0  0  0  0  0  0  0  0  0
  -12.4987  -37.4190  -11.2058 C   0  0  0  0  0  0  0  0  0  0  0  0
  -10.7428  -41.2805  -11.5444 C   0  0  0  0  0  0  0  0  0  0  0  0
  -11.4548  -42.2483  -10.5878 C   0  0  0  0  0  0  0  0  0  0  0  0
   -9.3115  -41.2442  -11.1169 C   0  0  0  0  0  0  0  0  0  0  0  0
  1  2  1  0
  2  3  1  0
  3  4  1  0
  4  5  2  0
  5  6  1  0
  6  7  2  0
  7  8  1  0
  8  9  2  0
  8 10  1  0
 10 11  2  0
 10 12  1  0
 12 13  1  0
 13 14  1  1
 14 15  1  0
 15 16  1  6
 15 17  1  0
 17 18  1  0
 18 19  1  0
 19 20  1  0
 20 21  1  0
 21 22  1  0
 22 23  1  0
 23 24  1  0
 13 25  1  0
 25 26  1  6
 25 27  1  0
 27 28  1  0
 28 29  1  0
 29 30  1  0
 30 31  2  0
 31 32  1  0
 32 33  2  0
 33 34  1  0
 34 35  2  0
 32 36  1  0
 36 37  1  0
 36 38  1  0
  9  4  1  0
 24  6  1  0
 35 30  1  0
M  END
$$$$
