
     RDKit          3D

 38 40  0  0  0  0  0  0  0  0999 V2000
  -21.6443  -41.5121   -2.3817 C   0  0  0  0  0  0  0  0  0  0  0  0
  -21.1335  -42.1602   -3.5081 O   0  0  0  0  0  0  0  0  0  0  0  0
  -22.1144  -42.2981   -4.4816 C   0  0  0  0  0  0  0  0  0  0  0  0
  -21.5083  -42.6982   -5.7832 C   0  0  0  0  0  0  0  0  0  0  0  0
  -21.5452  -43.9890   -6.2289 C   0  0  0  0  0  0  0  0  0  0  0  0
  -20.9759  -44.4140   -7.4640 C   0  0  0  0  0  0  0  0  0  0  0  0
  -20.3479  -43.4816   -8.2672 C   0  0  0  0  0  0  0  0  0  0  0  0
  -20.2908  -42.1668   -7.8468 C   0  0  0  0  0  0  0  0  0  0  0  0
  -20.8802  -41.8093   -6.6032 C   0  0  0  0  0  0  0  0  0  0  0  0
  -19.7027  -40.9681   -8.4538 C   0  0  0  0  0  0  0  0  0  0  0  0
  -20.4369  -39.8651   -8.5368 O   0  0  0  0  0  0  0  0  0  0  0  0
  -18.4097  -40.7351   -9.0069 N   0  0  0  0  0  0  0  0  0  0  0  0
  -17.1538  -40.9806   -8.2646 C   0  0  1  0  0  0  0  0  0  0  0  0
  -16.2449  -41.7935   -9.1267 C   0  0  0  0  0  0  0  0  0  0  0  0
  -16.4103  -43.2632   -8.7909 C   0  0  2  0  0  0  0  0  0  0  0  0
  -16.3885  -43.5080   -7.2787 C   0  0  0  0  0  0  0  0  0  0  0  0
  -15.3803  -44.1245   -9.4494 C   0  0  0  0  0  0  0  0  0  0  0  0
  -15.9475  -45.3110  -10.1767 C   0  0  0  0  0  0  0  0  0  0  0  0
  -16.2244  -46.4998   -9.2830 C   0  0  0  0  0  0  0  0  0  0  0  0
  -17.7039  -46.5483   -8.9676 C   0  0  0  0  0  0  0  0  0  0  0  0
  -18.1286  -47.7603   -8.2001 C   0  0  0  0  0  0  0  0  0  0  0  0
  -19.2898  -47.3526   -7.2820 C   0  0  0  0  0  0  0  0  0  0  0  0
  -20.3991  -46.8837   -8.1618 C   0  0  0  0  0  0  0  0  0  0  0  0
  -21.2065  -45.8129   -7.6201 N   0  0  0  0  0  0  0  0  0  0  0  0
  -16.6052  -39.6730   -7.8113 C   0  0  2  0  0  0  0  0  0  0  0  0
  -16.1675  -39.6847   -6.4776 O   0  0  0  0  0  0  0  0  0  0  0  0
  -17.4418  -38.4692   -8.0478 C   0  0  0  0  0  0  0  0  0  0  0  0
  -16.6824  -37.2991   -8.3491 N   0  0  0  0  0  0  0  0  0  0  0  0
  -16.5917  -37.0379   -9.7772 C   0  0  0  0  0  0  0  0  0  0  0  0
  -17.9756  -37.0066  -10.3436 C   0  0  0  0  0  0  0  0  0  0  0  0
  -18.9493  -36.2943   -9.6982 C   0  0  0  0  0  0  0  0  0  0  0  0
  -20.2310  -36.2729  -10.1752 C   0  0  0  0  0  0  0  0  0  0  0  0
  -20.5701  -36.9785  -11.3319 C   0  0  0  0  0  0  0  0  0  0  0  0
  -19.5713  -37.6828  -11.9569 C   0  0  0  0  0  0  0  0  0  0  0  0
  -18.2794  -37.7099  -11.4845 C   0  0  0  0  0  0  0  0  0  0  0  0
  -21.3334  -35.4938   -9.5171 C   0  0  0  0  0  0  0  0  0  0  0  0
  -20.9463  -35.2915   -8.0447 C   0  0  0  0  0  0  0  0  0  0  0  0
  -22.6107  -36.2691   -9.5130 C   0  0  0  0  0  0  0  0  0  0  0  0
  1  2  1  0
  2  3  1  0
  3  4  1  0
  4  5  2  0
  5  6  1  0
  6  7  2  0
  7  8  1  0
  8  9  2  0
  8 10  1  0
 10 11  2  0
 10 12  1  0
 12 13  1  0
 13 14  1  6
 14 15  1  0
 15 16  1  1
 15 17  1  0
 17 18  1  0
 18 19  1  0
 19 20  1  0
 20 21  1  0
 21 22  1  0
 22 23  1  0
 23 24  1  0
 13 25  1  0
 25 26  1  1
 25 27  1  0
 27 28  1  0
 28 29  1  0
 29 30  1  0
 30 31  2  0
 31 32  1  0
 32 33  2  0
 33 34  1  0
 34 35  2  0
 32 36  1  0
 36 37  1  0
 36 38  1  0
  9  4  1  0
 24  6  1  0
 35 30  1  0
M  END
$$$$
