
     RDKit          3D

 38 40  0  0  0  0  0  0  0  0999 V2000
  -16.5342  -45.1580  -12.4180 C   0  0  0  0  0  0  0  0  0  0  0  0
  -17.1055  -44.4804  -11.3390 O   0  0  0  0  0  0  0  0  0  0  0  0
  -17.6469  -45.3774  -10.4275 C   0  0  0  0  0  0  0  0  0  0  0  0
  -18.1477  -44.6603   -9.2206 C   0  0  0  0  0  0  0  0  0  0  0  0
  -19.3855  -44.9065   -8.6979 C   0  0  0  0  0  0  0  0  0  0  0  0
  -19.9035  -44.2418   -7.5491 C   0  0  0  0  0  0  0  0  0  0  0  0
  -19.1237  -43.2925   -6.9169 C   0  0  0  0  0  0  0  0  0  0  0  0
  -17.8665  -43.0171   -7.4196 C   0  0  0  0  0  0  0  0  0  0  0  0
  -17.4098  -43.7177   -8.5694 C   0  0  0  0  0  0  0  0  0  0  0  0
  -16.8226  -42.0807   -6.9902 C   0  0  0  0  0  0  0  0  0  0  0  0
  -15.5788  -42.5246   -6.8550 O   0  0  0  0  0  0  0  0  0  0  0  0
  -16.8815  -40.6926   -6.6708 N   0  0  0  0  0  0  0  0  0  0  0  0
  -17.4252  -39.6708   -7.5921 C   0  0  1  0  0  0  0  0  0  0  0  0
  -18.4067  -38.8312   -6.8427 C   0  0  0  0  0  0  0  0  0  0  0  0
  -19.8058  -39.3757   -7.0577 C   0  0  2  0  0  0  0  0  0  0  0  0
  -20.0814  -39.6707   -8.5356 C   0  0  0  0  0  0  0  0  0  0  0  0
  -20.8666  -38.4658   -6.5256 C   0  0  0  0  0  0  0  0  0  0  0  0
  -21.8750  -39.1489   -5.6452 C   0  0  0  0  0  0  0  0  0  0  0  0
  -22.9871  -39.8341   -6.4083 C   0  0  0  0  0  0  0  0  0  0  0  0
  -22.7006  -41.3188   -6.4743 C   0  0  0  0  0  0  0  0  0  0  0  0
  -23.7986  -42.1293   -7.0877 C   0  0  0  0  0  0  0  0  0  0  0  0
  -23.1544  -43.3111   -7.8266 C   0  0  0  0  0  0  0  0  0  0  0  0
  -22.4242  -44.1186   -6.8073 C   0  0  0  0  0  0  0  0  0  0  0  0
  -21.2082  -44.7479   -7.2733 N   0  0  0  0  0  0  0  0  0  0  0  0
  -16.2889  -38.9312   -8.2070 C   0  0  2  0  0  0  0  0  0  0  0  0
  -16.6177  -37.6207   -8.5875 O   0  0  0  0  0  0  0  0  0  0  0  0
  -15.5652  -39.6026   -9.3163 C   0  0  0  0  0  0  0  0  0  0  0  0
  -14.4034  -40.3130   -8.8898 N   0  0  0  0  0  0  0  0  0  0  0  0
  -13.1658  -39.6669   -9.2981 C   0  0  0  0  0  0  0  0  0  0  0  0
  -13.2964  -39.2506  -10.7288 C   0  0  0  0  0  0  0  0  0  0  0  0
  -13.2173  -37.9235  -11.0517 C   0  0  0  0  0  0  0  0  0  0  0  0
  -13.3644  -37.5101  -12.3472 C   0  0  0  0  0  0  0  0  0  0  0  0
  -13.5979  -38.4365  -13.3660 C   0  0  0  0  0  0  0  0  0  0  0  0
  -13.6713  -39.7603  -13.0103 C   0  0  0  0  0  0  0  0  0  0  0  0
  -13.5245  -40.1852  -11.7101 C   0  0  0  0  0  0  0  0  0  0  0  0
  -13.2688  -36.0691  -12.7595 C   0  0  0  0  0  0  0  0  0  0  0  0
  -11.8780  -35.5596  -12.3535 C   0  0  0  0  0  0  0  0  0  0  0  0
  -14.2571  -35.2308  -12.0157 C   0  0  0  0  0  0  0  0  0  0  0  0
  1  2  1  0
  2  3  1  0
  3  4  1  0
  4  5  2  0
  5  6  1  0
  6  7  2  0
  7  8  1  0
  8  9  2  0
  8 10  1  0
 10 11  2  0
 10 12  1  0
 12 13  1  0
 13 14  1  1
 14 15  1  0
 15 16  1  6
 15 17  1  0
 17 18  1  0
 18 19  1  0
 19 20  1  0
 20 21  1  0
 21 22  1  0
 22 23  1  0
 23 24  1  0
 13 25  1  0
 25 26  1  6
 25 27  1  0
 27 28  1  0
 28 29  1  0
 29 30  1  0
 30 31  2  0
 31 32  1  0
 32 33  2  0
 33 34  1  0
 34 35  2  0
 32 36  1  0
 36 37  1  0
 36 38  1  0
  9  4  1  0
 24  6  1  0
 35 30  1  0
M  END
$$$$
