
     RDKit          3D

 38 40  0  0  0  0  0  0  0  0999 V2000
  -20.2332  -44.6731  -12.5073 C   0  0  0  0  0  0  0  0  0  0  0  0
  -19.0442  -44.2572  -11.9049 O   0  0  0  0  0  0  0  0  0  0  0  0
  -18.6242  -45.1823  -10.9581 C   0  0  0  0  0  0  0  0  0  0  0  0
  -18.7036  -44.6023   -9.5874 C   0  0  0  0  0  0  0  0  0  0  0  0
  -19.6463  -45.0090   -8.6863 C   0  0  0  0  0  0  0  0  0  0  0  0
  -19.7590  -44.4789   -7.3685 C   0  0  0  0  0  0  0  0  0  0  0  0
  -18.8738  -43.4983   -6.9639 C   0  0  0  0  0  0  0  0  0  0  0  0
  -17.9080  -43.0621   -7.8503 C   0  0  0  0  0  0  0  0  0  0  0  0
  -17.8500  -43.6340   -9.1507 C   0  0  0  0  0  0  0  0  0  0  0  0
  -16.8500  -42.0535   -7.7292 C   0  0  0  0  0  0  0  0  0  0  0  0
  -15.6133  -42.3749   -8.0892 O   0  0  0  0  0  0  0  0  0  0  0  0
  -16.8892  -40.7032   -7.2739 N   0  0  0  0  0  0  0  0  0  0  0  0
  -17.8023  -39.6840   -7.8360 C   0  0  1  0  0  0  0  0  0  0  0  0
  -18.5031  -39.0017   -6.7076 C   0  0  0  0  0  0  0  0  0  0  0  0
  -19.8417  -39.6721   -6.4645 C   0  0  2  0  0  0  0  0  0  0  0  0
  -20.6124  -39.8952   -7.7697 C   0  0  0  0  0  0  0  0  0  0  0  0
  -20.7001  -38.9137   -5.5031 C   0  0  0  0  0  0  0  0  0  0  0  0
  -21.2684  -39.7540   -4.3942 C   0  0  0  0  0  0  0  0  0  0  0  0
  -22.5288  -40.4982   -4.7765 C   0  0  0  0  0  0  0  0  0  0  0  0
  -22.1793  -41.9377   -5.0866 C   0  0  0  0  0  0  0  0  0  0  0  0
  -23.3633  -42.8146   -5.3471 C   0  0  0  0  0  0  0  0  0  0  0  0
  -22.9473  -43.8720   -6.3798 C   0  0  0  0  0  0  0  0  0  0  0  0
  -21.8409  -44.6658   -5.7716 C   0  0  0  0  0  0  0  0  0  0  0  0
  -20.8346  -45.1341   -6.6990 N   0  0  0  0  0  0  0  0  0  0  0  0
  -17.0231  -38.7921   -8.7378 C   0  0  2  0  0  0  0  0  0  0  0  0
  -17.8175  -37.8562   -9.4186 O   0  0  0  0  0  0  0  0  0  0  0  0
  -16.0932  -39.4428   -9.6955 C   0  0  0  0  0  0  0  0  0  0  0  0
  -14.7798  -39.6350   -9.1716 N   0  0  0  0  0  0  0  0  0  0  0  0
  -13.9559  -40.4879  -10.0140 C   0  0  0  0  0  0  0  0  0  0  0  0
  -13.6780  -39.7659  -11.2941 C   0  0  0  0  0  0  0  0  0  0  0  0
  -13.7409  -38.3995  -11.3215 C   0  0  0  0  0  0  0  0  0  0  0  0
  -13.5225  -37.7137  -12.4846 C   0  0  0  0  0  0  0  0  0  0  0  0
  -13.2305  -38.3965  -13.6675 C   0  0  0  0  0  0  0  0  0  0  0  0
  -13.1738  -39.7667  -13.6075 C   0  0  0  0  0  0  0  0  0  0  0  0
  -13.3919  -40.4649  -12.4423 C   0  0  0  0  0  0  0  0  0  0  0  0
  -13.5613  -36.2146  -12.5673 C   0  0  0  0  0  0  0  0  0  0  0  0
  -12.9644  -35.6606  -11.2652 C   0  0  0  0  0  0  0  0  0  0  0  0
  -14.9686  -35.7163  -12.6298 C   0  0  0  0  0  0  0  0  0  0  0  0
  1  2  1  0
  2  3  1  0
  3  4  1  0
  4  5  2  0
  5  6  1  0
  6  7  2  0
  7  8  1  0
  8  9  2  0
  8 10  1  0
 10 11  2  0
 10 12  1  0
 12 13  1  0
 13 14  1  1
 14 15  1  0
 15 16  1  6
 15 17  1  0
 17 18  1  0
 18 19  1  0
 19 20  1  0
 20 21  1  0
 21 22  1  0
 22 23  1  0
 23 24  1  0
 13 25  1  0
 25 26  1  6
 25 27  1  0
 27 28  1  0
 28 29  1  0
 29 30  1  0
 30 31  2  0
 31 32  1  0
 32 33  2  0
 33 34  1  0
 34 35  2  0
 32 36  1  0
 36 37  1  0
 36 38  1  0
  9  4  1  0
 24  6  1  0
 35 30  1  0
M  END
$$$$
