
     RDKit          3D

 38 40  0  0  0  0  0  0  0  0999 V2000
  -19.7114  -43.4092  -12.6887 C   0  0  0  0  0  0  0  0  0  0  0  0
  -18.5644  -43.6576  -11.9322 O   0  0  0  0  0  0  0  0  0  0  0  0
  -18.7288  -44.7938  -11.1506 C   0  0  0  0  0  0  0  0  0  0  0  0
  -18.7792  -44.4329   -9.7054 C   0  0  0  0  0  0  0  0  0  0  0  0
  -19.6514  -45.0338   -8.8426 C   0  0  0  0  0  0  0  0  0  0  0  0
  -19.7344  -44.7166   -7.4560 C   0  0  0  0  0  0  0  0  0  0  0  0
  -18.8935  -43.7496   -6.9394 C   0  0  0  0  0  0  0  0  0  0  0  0
  -17.9994  -43.1202   -7.7840 C   0  0  0  0  0  0  0  0  0  0  0  0
  -17.9676  -43.4851   -9.1579 C   0  0  0  0  0  0  0  0  0  0  0  0
  -17.0014  -42.0714   -7.5495 C   0  0  0  0  0  0  0  0  0  0  0  0
  -15.7656  -42.2497   -8.0002 O   0  0  0  0  0  0  0  0  0  0  0  0
  -17.1027  -40.8106   -6.8920 N   0  0  0  0  0  0  0  0  0  0  0  0
  -18.1027  -39.7834   -7.2572 C   0  0  1  0  0  0  0  0  0  0  0  0
  -18.7904  -39.3278   -6.0124 C   0  0  0  0  0  0  0  0  0  0  0  0
  -20.0719  -40.1170   -5.8251 C   0  0  2  0  0  0  0  0  0  0  0  0
  -20.8880  -40.1938   -7.1194 C   0  0  0  0  0  0  0  0  0  0  0  0
  -20.9294  -39.5721   -4.7277 C   0  0  0  0  0  0  0  0  0  0  0  0
  -21.3915  -40.6063   -3.7400 C   0  0  0  0  0  0  0  0  0  0  0  0
  -22.6201  -41.3690   -4.1845 C   0  0  0  0  0  0  0  0  0  0  0  0
  -22.1971  -42.7184   -4.7239 C   0  0  0  0  0  0  0  0  0  0  0  0
  -23.3354  -43.6251   -5.0711 C   0  0  0  0  0  0  0  0  0  0  0  0
  -22.9040  -44.4844   -6.2681 C   0  0  0  0  0  0  0  0  0  0  0  0
  -21.7230  -45.2830   -5.8301 C   0  0  0  0  0  0  0  0  0  0  0  0
  -20.7346  -45.5368   -6.8550 N   0  0  0  0  0  0  0  0  0  0  0  0
  -17.4236  -38.7150   -8.0404 C   0  0  2  0  0  0  0  0  0  0  0  0
  -18.3103  -37.9182   -8.7816 O   0  0  0  0  0  0  0  0  0  0  0  0
  -16.2874  -39.1265   -8.9035 C   0  0  0  0  0  0  0  0  0  0  0  0
  -15.3558  -38.0755   -9.1568 N   0  0  0  0  0  0  0  0  0  0  0  0
  -15.5284  -37.4734  -10.4696 C   0  0  0  0  0  0  0  0  0  0  0  0
  -14.3876  -37.8955  -11.3400 C   0  0  0  0  0  0  0  0  0  0  0  0
  -13.3189  -37.0563  -11.4999 C   0  0  0  0  0  0  0  0  0  0  0  0
  -12.2758  -37.4017  -12.3144 C   0  0  0  0  0  0  0  0  0  0  0  0
  -12.2819  -38.6193  -12.9985 C   0  0  0  0  0  0  0  0  0  0  0  0
  -13.3676  -39.4395  -12.8170 C   0  0  0  0  0  0  0  0  0  0  0  0
  -14.4211  -39.1005  -11.9998 C   0  0  0  0  0  0  0  0  0  0  0  0
  -11.0707  -36.5273  -12.5117 C   0  0  0  0  0  0  0  0  0  0  0  0
   -9.9974  -36.9804  -11.5110 C   0  0  0  0  0  0  0  0  0  0  0  0
  -11.3800  -35.1035  -12.1800 C   0  0  0  0  0  0  0  0  0  0  0  0
  1  2  1  0
  2  3  1  0
  3  4  1  0
  4  5  2  0
  5  6  1  0
  6  7  2  0
  7  8  1  0
  8  9  2  0
  8 10  1  0
 10 11  2  0
 10 12  1  0
 12 13  1  0
 13 14  1  1
 14 15  1  0
 15 16  1  6
 15 17  1  0
 17 18  1  0
 18 19  1  0
 19 20  1  0
 20 21  1  0
 21 22  1  0
 22 23  1  0
 23 24  1  0
 13 25  1  0
 25 26  1  6
 25 27  1  0
 27 28  1  0
 28 29  1  0
 29 30  1  0
 30 31  2  0
 31 32  1  0
 32 33  2  0
 33 34  1  0
 34 35  2  0
 32 36  1  0
 36 37  1  0
 36 38  1  0
  9  4  1  0
 24  6  1  0
 35 30  1  0
M  END
$$$$
