
     RDKit          3D

 38 40  0  0  0  0  0  0  0  0999 V2000
  -10.5721  -43.9265   -9.1874 C   0  0  0  0  0  0  0  0  0  0  0  0
  -11.0123  -43.1592  -10.2677 O   0  0  0  0  0  0  0  0  0  0  0  0
  -12.2688  -43.5770  -10.6865 C   0  0  0  0  0  0  0  0  0  0  0  0
  -13.0358  -42.4358  -11.2618 C   0  0  0  0  0  0  0  0  0  0  0  0
  -12.6885  -41.8609  -12.4514 C   0  0  0  0  0  0  0  0  0  0  0  0
  -13.3918  -40.7675  -13.0345 C   0  0  0  0  0  0  0  0  0  0  0  0
  -14.4878  -40.2478  -12.3731 C   0  0  0  0  0  0  0  0  0  0  0  0
  -14.8665  -40.8042  -11.1665 C   0  0  0  0  0  0  0  0  0  0  0  0
  -14.1213  -41.8950  -10.6405 C   0  0  0  0  0  0  0  0  0  0  0  0
  -15.9548  -40.4827  -10.2373 C   0  0  0  0  0  0  0  0  0  0  0  0
  -16.7320  -41.4641   -9.7955 O   0  0  0  0  0  0  0  0  0  0  0  0
  -16.3700  -39.2413   -9.6728 N   0  0  0  0  0  0  0  0  0  0  0  0
  -15.4607  -38.3463   -8.9241 C   0  0  1  0  0  0  0  0  0  0  0  0
  -15.5978  -36.9643   -9.4732 C   0  0  0  0  0  0  0  0  0  0  0  0
  -14.5263  -36.7277  -10.5202 C   0  0  2  0  0  0  0  0  0  0  0  0
  -13.1461  -37.1833  -10.0358 C   0  0  0  0  0  0  0  0  0  0  0  0
  -14.4536  -35.2996  -10.9581 C   0  0  0  0  0  0  0  0  0  0  0  0
  -14.4646  -35.1146  -12.4495 C   0  0  0  0  0  0  0  0  0  0  0  0
  -13.1060  -35.2765  -13.0949 C   0  0  0  0  0  0  0  0  0  0  0  0
  -13.0128  -36.6545  -13.7139 C   0  0  0  0  0  0  0  0  0  0  0  0
  -11.7640  -36.8896  -14.5038 C   0  0  0  0  0  0  0  0  0  0  0  0
  -11.3885  -38.3714  -14.3599 C   0  0  0  0  0  0  0  0  0  0  0  0
  -12.5159  -39.1654  -14.9280 C   0  0  0  0  0  0  0  0  0  0  0  0
  -12.7719  -40.4298  -14.2739 N   0  0  0  0  0  0  0  0  0  0  0  0
  -15.7443  -38.4877   -7.4696 C   0  0  2  0  0  0  0  0  0  0  0  0
  -14.5882  -38.4829   -6.6734 O   0  0  0  0  0  0  0  0  0  0  0  0
  -16.6252  -39.6099   -7.0576 C   0  0  0  0  0  0  0  0  0  0  0  0
  -17.6847  -39.2116   -6.1884 N   0  0  0  0  0  0  0  0  0  0  0  0
  -18.5974  -40.3003   -5.8763 C   0  0  0  0  0  0  0  0  0  0  0  0
  -19.9107  -40.0239   -6.5366 C   0  0  0  0  0  0  0  0  0  0  0  0
  -21.0610  -40.4989   -5.9683 C   0  0  0  0  0  0  0  0  0  0  0  0
  -22.2734  -40.2888   -6.5657 C   0  0  0  0  0  0  0  0  0  0  0  0
  -22.3598  -39.5841   -7.7684 C   0  0  0  0  0  0  0  0  0  0  0  0
  -21.1884  -39.1198   -8.3131 C   0  0  0  0  0  0  0  0  0  0  0  0
  -19.9647  -39.3262   -7.7194 C   0  0  0  0  0  0  0  0  0  0  0  0
  -23.5677  -40.7719   -5.9766 C   0  0  0  0  0  0  0  0  0  0  0  0
  -24.5844  -40.8925   -7.1215 C   0  0  0  0  0  0  0  0  0  0  0  0
  -24.1292  -39.7711   -5.0197 C   0  0  0  0  0  0  0  0  0  0  0  0
  1  2  1  0
  2  3  1  0
  3  4  1  0
  4  5  2  0
  5  6  1  0
  6  7  2  0
  7  8  1  0
  8  9  2  0
  8 10  1  0
 10 11  2  0
 10 12  1  0
 12 13  1  0
 13 14  1  6
 14 15  1  0
 15 16  1  1
 15 17  1  0
 17 18  1  0
 18 19  1  0
 19 20  1  0
 20 21  1  0
 21 22  1  0
 22 23  1  0
 23 24  1  0
 13 25  1  0
 25 26  1  1
 25 27  1  0
 27 28  1  0
 28 29  1  0
 29 30  1  0
 30 31  2  0
 31 32  1  0
 32 33  2  0
 33 34  1  0
 34 35  2  0
 32 36  1  0
 36 37  1  0
 36 38  1  0
  9  4  1  0
 24  6  1  0
 35 30  1  0
M  END
$$$$
