
     RDKit          3D

 38 40  0  0  0  0  0  0  0  0999 V2000
  -21.8457  -42.5128   -3.0945 C   0  0  0  0  0  0  0  0  0  0  0  0
  -21.5871  -41.9798   -4.3589 O   0  0  0  0  0  0  0  0  0  0  0  0
  -22.3498  -42.6204   -5.3267 C   0  0  0  0  0  0  0  0  0  0  0  0
  -21.4947  -43.0467   -6.4706 C   0  0  0  0  0  0  0  0  0  0  0  0
  -21.3981  -44.3556   -6.8496 C   0  0  0  0  0  0  0  0  0  0  0  0
  -20.5907  -44.8056   -7.9339 C   0  0  0  0  0  0  0  0  0  0  0  0
  -19.8583  -43.8800   -8.6520 C   0  0  0  0  0  0  0  0  0  0  0  0
  -19.9312  -42.5472   -8.2951 C   0  0  0  0  0  0  0  0  0  0  0  0
  -20.7574  -42.1651   -7.2029 C   0  0  0  0  0  0  0  0  0  0  0  0
  -19.2850  -41.3493   -8.8415 C   0  0  0  0  0  0  0  0  0  0  0  0
  -20.0315  -40.2863   -9.1155 O   0  0  0  0  0  0  0  0  0  0  0  0
  -17.9207  -41.0800   -9.1550 N   0  0  0  0  0  0  0  0  0  0  0  0
  -16.8188  -41.2350   -8.1801 C   0  0  1  0  0  0  0  0  0  0  0  0
  -15.7337  -42.0405   -8.8155 C   0  0  0  0  0  0  0  0  0  0  0  0
  -15.9037  -43.5008   -8.4427 C   0  0  2  0  0  0  0  0  0  0  0  0
  -16.1580  -43.6798   -6.9426 C   0  0  0  0  0  0  0  0  0  0  0  0
  -14.7362  -44.3403   -8.8533 C   0  0  0  0  0  0  0  0  0  0  0  0
  -15.1109  -45.5818   -9.6128 C   0  0  0  0  0  0  0  0  0  0  0  0
  -15.5062  -46.7432   -8.7276 C   0  0  0  0  0  0  0  0  0  0  0  0
  -17.0157  -46.8471   -8.6915 C   0  0  0  0  0  0  0  0  0  0  0  0
  -17.5313  -48.0439   -7.9564 C   0  0  0  0  0  0  0  0  0  0  0  0
  -18.8593  -47.6521   -7.2927 C   0  0  0  0  0  0  0  0  0  0  0  0
  -19.7998  -47.2732   -8.3864 C   0  0  0  0  0  0  0  0  0  0  0  0
  -20.7347  -46.2191   -8.0595 N   0  0  0  0  0  0  0  0  0  0  0  0
  -16.4153  -39.8852   -7.6990 C   0  0  2  0  0  0  0  0  0  0  0  0
  -15.9027  -39.8897   -6.3922 O   0  0  0  0  0  0  0  0  0  0  0  0
  -17.4103  -38.7917   -7.8374 C   0  0  0  0  0  0  0  0  0  0  0  0
  -17.2548  -38.0293   -9.0337 N   0  0  0  0  0  0  0  0  0  0  0  0
  -17.9674  -36.7619   -8.9913 C   0  0  0  0  0  0  0  0  0  0  0  0
  -18.2694  -36.3390  -10.3938 C   0  0  0  0  0  0  0  0  0  0  0  0
  -17.3160  -35.6728  -11.1142 C   0  0  0  0  0  0  0  0  0  0  0  0
  -17.5746  -35.2461  -12.3877 C   0  0  0  0  0  0  0  0  0  0  0  0
  -18.8183  -35.4833  -12.9774 C   0  0  0  0  0  0  0  0  0  0  0  0
  -19.7533  -36.1545  -12.2295 C   0  0  0  0  0  0  0  0  0  0  0  0
  -19.5022  -36.5875  -10.9480 C   0  0  0  0  0  0  0  0  0  0  0  0
  -16.5593  -34.5271  -13.2291 C   0  0  0  0  0  0  0  0  0  0  0  0
  -15.2914  -35.3928  -13.2707 C   0  0  0  0  0  0  0  0  0  0  0  0
  -16.1624  -33.2306  -12.6011 C   0  0  0  0  0  0  0  0  0  0  0  0
  1  2  1  0
  2  3  1  0
  3  4  1  0
  4  5  2  0
  5  6  1  0
  6  7  2  0
  7  8  1  0
  8  9  2  0
  8 10  1  0
 10 11  2  0
 10 12  1  0
 12 13  1  0
 13 14  1  6
 14 15  1  0
 15 16  1  1
 15 17  1  0
 17 18  1  0
 18 19  1  0
 19 20  1  0
 20 21  1  0
 21 22  1  0
 22 23  1  0
 23 24  1  0
 13 25  1  0
 25 26  1  1
 25 27  1  0
 27 28  1  0
 28 29  1  0
 29 30  1  0
 30 31  2  0
 31 32  1  0
 32 33  2  0
 33 34  1  0
 34 35  2  0
 32 36  1  0
 36 37  1  0
 36 38  1  0
  9  4  1  0
 24  6  1  0
 35 30  1  0
M  END
$$$$
