
     RDKit          3D

 38 40  0  0  0  0  0  0  0  0999 V2000
  -16.5183  -44.9367  -12.4031 C   0  0  0  0  0  0  0  0  0  0  0  0
  -16.9619  -44.4517  -11.1711 O   0  0  0  0  0  0  0  0  0  0  0  0
  -18.0621  -45.1736  -10.7271 C   0  0  0  0  0  0  0  0  0  0  0  0
  -18.4910  -44.7000   -9.3805 C   0  0  0  0  0  0  0  0  0  0  0  0
  -19.7374  -44.9631   -8.8873 C   0  0  0  0  0  0  0  0  0  0  0  0
  -20.1882  -44.5268   -7.6080 C   0  0  0  0  0  0  0  0  0  0  0  0
  -19.3297  -43.7956   -6.8097 C   0  0  0  0  0  0  0  0  0  0  0  0
  -18.0615  -43.5099   -7.2776 C   0  0  0  0  0  0  0  0  0  0  0  0
  -17.6746  -43.9765   -8.5638 C   0  0  0  0  0  0  0  0  0  0  0  0
  -16.9433  -42.7665   -6.6876 C   0  0  0  0  0  0  0  0  0  0  0  0
  -15.7357  -43.3181   -6.6869 O   0  0  0  0  0  0  0  0  0  0  0  0
  -16.8912  -41.4798   -6.0762 N   0  0  0  0  0  0  0  0  0  0  0  0
  -17.3662  -40.2463   -6.7406 C   0  0  1  0  0  0  0  0  0  0  0  0
  -18.2706  -39.5198   -5.8003 C   0  0  0  0  0  0  0  0  0  0  0  0
  -19.7101  -39.9022   -6.0866 C   0  0  2  0  0  0  0  0  0  0  0  0
  -20.0262  -39.8499   -7.5848 C   0  0  0  0  0  0  0  0  0  0  0  0
  -20.6910  -39.0545   -5.3412 C   0  0  0  0  0  0  0  0  0  0  0  0
  -21.7378  -39.8369   -4.5991 C   0  0  0  0  0  0  0  0  0  0  0  0
  -22.9088  -40.2586   -5.4590 C   0  0  0  0  0  0  0  0  0  0  0  0
  -22.7383  -41.7107   -5.8504 C   0  0  0  0  0  0  0  0  0  0  0  0
  -23.9030  -42.2877   -6.5914 C   0  0  0  0  0  0  0  0  0  0  0  0
  -23.3610  -43.3252   -7.5851 C   0  0  0  0  0  0  0  0  0  0  0  0
  -22.6823  -44.3847   -6.7844 C   0  0  0  0  0  0  0  0  0  0  0  0
  -21.5243  -44.9848   -7.4097 N   0  0  0  0  0  0  0  0  0  0  0  0
  -16.1842  -39.4756   -7.2150 C   0  0  2  0  0  0  0  0  0  0  0  0
  -16.1394  -38.1630   -6.7195 O   0  0  0  0  0  0  0  0  0  0  0  0
  -15.9271  -39.4624   -8.6775 C   0  0  0  0  0  0  0  0  0  0  0  0
  -15.0471  -40.4994   -9.1096 N   0  0  0  0  0  0  0  0  0  0  0  0
  -14.8418  -40.5010  -10.5497 C   0  0  0  0  0  0  0  0  0  0  0  0
  -13.7299  -39.5542  -10.8725 C   0  0  0  0  0  0  0  0  0  0  0  0
  -14.0245  -38.2578  -11.1958 C   0  0  0  0  0  0  0  0  0  0  0  0
  -13.0312  -37.3776  -11.5261 C   0  0  0  0  0  0  0  0  0  0  0  0
  -11.6957  -37.7861  -11.5392 C   0  0  0  0  0  0  0  0  0  0  0  0
  -11.4323  -39.0924  -11.2097 C   0  0  0  0  0  0  0  0  0  0  0  0
  -12.4248  -39.9847  -10.8761 C   0  0  0  0  0  0  0  0  0  0  0  0
  -13.2965  -35.9401  -11.8712 C   0  0  0  0  0  0  0  0  0  0  0  0
  -13.7039  -35.2181  -10.5783 C   0  0  0  0  0  0  0  0  0  0  0  0
  -14.4568  -35.8171  -12.8046 C   0  0  0  0  0  0  0  0  0  0  0  0
  1  2  1  0
  2  3  1  0
  3  4  1  0
  4  5  2  0
  5  6  1  0
  6  7  2  0
  7  8  1  0
  8  9  2  0
  8 10  1  0
 10 11  2  0
 10 12  1  0
 12 13  1  0
 13 14  1  1
 14 15  1  0
 15 16  1  6
 15 17  1  0
 17 18  1  0
 18 19  1  0
 19 20  1  0
 20 21  1  0
 21 22  1  0
 22 23  1  0
 23 24  1  0
 13 25  1  0
 25 26  1  6
 25 27  1  0
 27 28  1  0
 28 29  1  0
 29 30  1  0
 30 31  2  0
 31 32  1  0
 32 33  2  0
 33 34  1  0
 34 35  2  0
 32 36  1  0
 36 37  1  0
 36 38  1  0
  9  4  1  0
 24  6  1  0
 35 30  1  0
M  END
$$$$
