
     RDKit          3D

 38 40  0  0  0  0  0  0  0  0999 V2000
  -16.4009  -46.8266   -7.3261 C   0  0  0  0  0  0  0  0  0  0  0  0
  -17.7821  -46.6673   -7.1970 O   0  0  0  0  0  0  0  0  0  0  0  0
  -18.2691  -45.8022   -8.1682 C   0  0  0  0  0  0  0  0  0  0  0  0
  -18.5612  -44.4644   -7.5795 C   0  0  0  0  0  0  0  0  0  0  0  0
  -19.7401  -44.1994   -6.9423 C   0  0  0  0  0  0  0  0  0  0  0  0
  -20.0604  -42.9349   -6.3691 C   0  0  0  0  0  0  0  0  0  0  0  0
  -19.1388  -41.9091   -6.4538 C   0  0  0  0  0  0  0  0  0  0  0  0
  -17.9360  -42.1417   -7.0927 C   0  0  0  0  0  0  0  0  0  0  0  0
  -17.6792  -43.4276   -7.6424 C   0  0  0  0  0  0  0  0  0  0  0  0
  -16.7791  -41.2775   -7.3493 C   0  0  0  0  0  0  0  0  0  0  0  0
  -15.5654  -41.7253   -7.0512 O   0  0  0  0  0  0  0  0  0  0  0  0
  -16.6926  -39.9638   -7.8959 N   0  0  0  0  0  0  0  0  0  0  0  0
  -17.2668  -39.5917   -9.2076 C   0  0  1  0  0  0  0  0  0  0  0  0
  -18.0817  -38.3525   -9.0339 C   0  0  0  0  0  0  0  0  0  0  0  0
  -19.5339  -38.7295   -8.8119 C   0  0  2  0  0  0  0  0  0  0  0  0
  -20.0114  -39.7772   -9.8226 C   0  0  0  0  0  0  0  0  0  0  0  0
  -20.4489  -37.5472   -8.8509 C   0  0  0  0  0  0  0  0  0  0  0  0
  -21.3898  -37.4615   -7.6822 C   0  0  0  0  0  0  0  0  0  0  0  0
  -22.6363  -38.3043   -7.8387 C   0  0  0  0  0  0  0  0  0  0  0  0
  -22.4736  -39.5816   -7.0432 C   0  0  0  0  0  0  0  0  0  0  0  0
  -23.6972  -40.4419   -7.0061 C   0  0  0  0  0  0  0  0  0  0  0  0
  -23.2406  -41.9069   -6.9529 C   0  0  0  0  0  0  0  0  0  0  0  0
  -22.4536  -42.0743   -5.6972 C   0  0  0  0  0  0  0  0  0  0  0  0
  -21.3557  -43.0125   -5.7769 N   0  0  0  0  0  0  0  0  0  0  0  0
  -16.1623  -39.4969  -10.2012 C   0  0  2  0  0  0  0  0  0  0  0  0
  -15.7636  -40.7422  -10.7119 O   0  0  0  0  0  0  0  0  0  0  0  0
  -14.9625  -38.7156   -9.8073 C   0  0  0  0  0  0  0  0  0  0  0  0
  -15.2617  -37.3818   -9.3975 N   0  0  0  0  0  0  0  0  0  0  0  0
  -14.8133  -36.3835  -10.3558 C   0  0  0  0  0  0  0  0  0  0  0  0
  -13.4503  -36.7663  -10.8385 C   0  0  0  0  0  0  0  0  0  0  0  0
  -13.2873  -37.9341  -11.5324 C   0  0  0  0  0  0  0  0  0  0  0  0
  -12.0482  -38.3256  -11.9590 C   0  0  0  0  0  0  0  0  0  0  0  0
  -10.9247  -37.5393  -11.6942 C   0  0  0  0  0  0  0  0  0  0  0  0
  -11.1209  -36.3734  -10.9968 C   0  0  0  0  0  0  0  0  0  0  0  0
  -12.3634  -35.9715  -10.5639 C   0  0  0  0  0  0  0  0  0  0  0  0
  -11.8151  -39.5875  -12.7394 C   0  0  0  0  0  0  0  0  0  0  0  0
  -10.2975  -39.7675  -12.8919 C   0  0  0  0  0  0  0  0  0  0  0  0
  -12.3657  -39.4724  -14.1237 C   0  0  0  0  0  0  0  0  0  0  0  0
  1  2  1  0
  2  3  1  0
  3  4  1  0
  4  5  2  0
  5  6  1  0
  6  7  2  0
  7  8  1  0
  8  9  2  0
  8 10  1  0
 10 11  2  0
 10 12  1  0
 12 13  1  0
 13 14  1  1
 14 15  1  0
 15 16  1  6
 15 17  1  0
 17 18  1  0
 18 19  1  0
 19 20  1  0
 20 21  1  0
 21 22  1  0
 22 23  1  0
 23 24  1  0
 13 25  1  0
 25 26  1  1
 25 27  1  0
 27 28  1  0
 28 29  1  0
 29 30  1  0
 30 31  2  0
 31 32  1  0
 32 33  2  0
 33 34  1  0
 34 35  2  0
 32 36  1  0
 36 37  1  0
 36 38  1  0
  9  4  1  0
 24  6  1  0
 35 30  1  0
M  END
$$$$
