
     RDKit          3D

 37 39  0  0  0  0  0  0  0  0999 V2000
  -11.0821  -41.7039  -10.2082 C   0  0  0  0  0  0  0  0  0  0  0  0
  -10.8476  -41.7680  -11.6983 C   0  0  0  0  0  0  0  0  0  0  0  0
   -9.3364  -41.7630  -11.9424 C   0  0  0  0  0  0  0  0  0  0  0  0
  -11.3387  -40.4992  -12.3116 C   0  0  0  0  0  0  0  0  0  0  0  0
  -12.0878  -39.5868  -11.5826 C   0  0  0  0  0  0  0  0  0  0  0  0
  -12.5477  -38.4194  -12.1418 C   0  0  0  0  0  0  0  0  0  0  0  0
  -12.2243  -38.2068  -13.4628 C   0  0  0  0  0  0  0  0  0  0  0  0
  -11.4904  -39.0808  -14.2101 C   0  0  0  0  0  0  0  0  0  0  0  0
  -11.0315  -40.2632  -13.6230 C   0  0  0  0  0  0  0  0  0  0  0  0
  -13.3810  -37.4242  -11.3736 C   0  0  0  0  0  0  0  0  0  0  0  0
  -14.3533  -36.8130  -12.3292 C   0  0  0  0  0  0  0  0  0  0  0  0
  -12.4588  -36.3719  -10.8654 C   0  0  0  0  0  0  0  0  0  0  0  0
  -14.1174  -38.1005  -10.3308 N   0  0  0  0  0  0  0  0  0  0  0  0
  -15.4943  -38.2132  -10.7007 C   0  0  0  0  0  0  0  0  0  0  0  0
  -16.3720  -38.0207   -9.4524 C   0  0  1  0  0  0  0  0  0  0  0  0
  -17.1634  -36.8977   -9.6836 O   0  0  0  0  0  0  0  0  0  0  0  0
  -17.1245  -39.2251   -9.0484 C   0  0  2  0  0  0  0  0  0  0  0  0
  -17.2342  -39.4833   -7.5979 C   0  0  0  0  0  0  0  0  0  0  0  0
  -18.1068  -38.5486   -6.8060 C   0  0  2  0  0  0  0  0  0  0  0  0
  -17.9251  -38.9367   -5.3344 C   0  0  0  0  0  0  0  0  0  0  0  0
  -19.5410  -38.8729   -7.1475 C   0  0  0  0  0  0  0  0  0  0  0  0
  -20.5135  -38.1077   -6.2657 C   0  0  0  0  0  0  0  0  0  0  0  0
  -21.7507  -38.9479   -6.0341 C   0  0  0  0  0  0  0  0  0  0  0  0
  -22.9553  -38.4375   -6.7659 C   0  0  0  0  0  0  0  0  0  0  0  0
  -23.9002  -39.5200   -7.1720 C   0  0  0  0  0  0  0  0  0  0  0  0
  -24.0108  -39.7492   -8.6502 C   0  0  0  0  0  0  0  0  0  0  0  0
  -22.8155  -39.3540   -9.4324 C   0  0  0  0  0  0  0  0  0  0  0  0
  -22.4045  -40.3215  -10.4527 N   0  0  0  0  0  0  0  0  0  0  0  0
  -21.0914  -40.6050  -10.9575 C   0  0  0  0  0  0  0  0  0  0  0  0
  -19.8906  -40.7864  -10.3108 C   0  0  0  0  0  0  0  0  0  0  0  0
  -18.7633  -40.9777  -11.0915 C   0  0  0  0  0  0  0  0  0  0  0  0
  -18.8690  -40.9917  -12.5062 C   0  0  0  0  0  0  0  0  0  0  0  0
  -20.0512  -40.8198  -13.1740 C   0  0  0  0  0  0  0  0  0  0  0  0
  -21.1444  -40.6280  -12.3774 C   0  0  0  0  0  0  0  0  0  0  0  0
  -17.3444  -41.1123  -10.7177 C   0  0  0  0  0  0  0  0  0  0  0  0
  -16.6745  -42.0170  -11.3630 O   0  0  0  0  0  0  0  0  0  0  0  0
  -16.5845  -40.3945   -9.7517 N   0  0  0  0  0  0  0  0  0  0  0  0
  1  2  1  0
  2  3  1  0
  2  4  1  0
  4  5  2  0
  5  6  1  0
  6  7  2  0
  7  8  1  0
  8  9  2  0
  6 10  1  0
 10 11  1  0
 10 12  1  0
 10 13  1  0
 13 14  1  0
 14 15  1  0
 15 16  1  6
 15 17  1  0
 17 18  1  1
 18 19  1  0
 19 20  1  1
 19 21  1  0
 21 22  1  0
 22 23  1  0
 23 24  1  0
 24 25  1  0
 25 26  1  0
 26 27  1  0
 27 28  1  0
 28 29  1  0
 29 30  2  0
 30 31  1  0
 31 32  2  0
 32 33  1  0
 33 34  2  0
 31 35  1  0
 35 36  2  0
 35 37  1  0
  9  4  1  0
 34 29  1  0
 37 17  1  0
M  END
$$$$
