
     RDKit          3D

 37 39  0  0  0  0  0  0  0  0999 V2000
  -12.4021  -41.5368  -14.8303 C   0  0  0  0  0  0  0  0  0  0  0  0
  -13.5126  -41.5751  -13.8081 C   0  0  0  0  0  0  0  0  0  0  0  0
  -14.7741  -42.1029  -14.4962 C   0  0  0  0  0  0  0  0  0  0  0  0
  -13.8474  -40.1742  -13.4175 C   0  0  0  0  0  0  0  0  0  0  0  0
  -13.7104  -39.7369  -12.1079 C   0  0  0  0  0  0  0  0  0  0  0  0
  -14.0216  -38.4505  -11.7398 C   0  0  0  0  0  0  0  0  0  0  0  0
  -14.4760  -37.6223  -12.7410 C   0  0  0  0  0  0  0  0  0  0  0  0
  -14.6234  -38.0175  -14.0384 C   0  0  0  0  0  0  0  0  0  0  0  0
  -14.3014  -39.3305  -14.3930 C   0  0  0  0  0  0  0  0  0  0  0  0
  -13.8998  -37.9607  -10.3184 C   0  0  0  0  0  0  0  0  0  0  0  0
  -14.3033  -36.5222  -10.2982 C   0  0  0  0  0  0  0  0  0  0  0  0
  -12.4678  -38.0783   -9.9297 C   0  0  0  0  0  0  0  0  0  0  0  0
  -14.7944  -38.7059   -9.4632 N   0  0  0  0  0  0  0  0  0  0  0  0
  -16.1156  -38.1655   -9.5505 C   0  0  0  0  0  0  0  0  0  0  0  0
  -16.7394  -38.1220   -8.1452 C   0  0  1  0  0  0  0  0  0  0  0  0
  -17.7126  -37.1253   -8.1653 O   0  0  0  0  0  0  0  0  0  0  0  0
  -17.2152  -39.4299   -7.6521 C   0  0  2  0  0  0  0  0  0  0  0  0
  -17.5972  -39.5024   -6.2268 C   0  0  0  0  0  0  0  0  0  0  0  0
  -18.8527  -38.7792   -5.8228 C   0  0  2  0  0  0  0  0  0  0  0  0
  -18.9331  -38.8816   -4.2956 C   0  0  0  0  0  0  0  0  0  0  0  0
  -20.0212  -39.5731   -6.3548 C   0  0  0  0  0  0  0  0  0  0  0  0
  -21.3459  -39.0275   -5.8485 C   0  0  0  0  0  0  0  0  0  0  0  0
  -22.3302  -40.1657   -5.6871 C   0  0  0  0  0  0  0  0  0  0  0  0
  -23.4146  -40.1584   -6.7219 C   0  0  0  0  0  0  0  0  0  0  0  0
  -23.9077  -41.5246   -7.0681 C   0  0  0  0  0  0  0  0  0  0  0  0
  -23.5936  -41.9824   -8.4615 C   0  0  0  0  0  0  0  0  0  0  0  0
  -22.3965  -41.3534   -9.0683 C   0  0  0  0  0  0  0  0  0  0  0  0
  -21.5080  -42.2813   -9.7720 N   0  0  0  0  0  0  0  0  0  0  0  0
  -20.0856  -42.2159   -9.9508 C   0  0  0  0  0  0  0  0  0  0  0  0
  -19.0725  -41.9268   -9.0660 C   0  0  0  0  0  0  0  0  0  0  0  0
  -17.7817  -41.8705   -9.5638 C   0  0  0  0  0  0  0  0  0  0  0  0
  -17.5362  -42.1152  -10.9394 C   0  0  0  0  0  0  0  0  0  0  0  0
  -18.5243  -42.4105  -11.8391 C   0  0  0  0  0  0  0  0  0  0  0  0
  -19.7872  -42.4537  -11.3198 C   0  0  0  0  0  0  0  0  0  0  0  0
  -16.5121  -41.5086   -8.9094 C   0  0  0  0  0  0  0  0  0  0  0  0
  -15.4891  -42.2452   -9.2171 O   0  0  0  0  0  0  0  0  0  0  0  0
  -16.2284  -40.4637   -7.9856 N   0  0  0  0  0  0  0  0  0  0  0  0
  1  2  1  0
  2  3  1  0
  2  4  1  0
  4  5  2  0
  5  6  1  0
  6  7  2  0
  7  8  1  0
  8  9  2  0
  6 10  1  0
 10 11  1  0
 10 12  1  0
 10 13  1  0
 13 14  1  0
 14 15  1  0
 15 16  1  6
 15 17  1  0
 17 18  1  1
 18 19  1  0
 19 20  1  1
 19 21  1  0
 21 22  1  0
 22 23  1  0
 23 24  1  0
 24 25  1  0
 25 26  1  0
 26 27  1  0
 27 28  1  0
 28 29  1  0
 29 30  2  0
 30 31  1  0
 31 32  2  0
 32 33  1  0
 33 34  2  0
 31 35  1  0
 35 36  2  0
 35 37  1  0
  9  4  1  0
 34 29  1  0
 37 17  1  0
M  END
$$$$
