
     RDKit          3D

 37 39  0  0  0  0  0  0  0  0999 V2000
  -10.7382  -36.2193  -14.4275 C   0  0  0  0  0  0  0  0  0  0  0  0
  -11.8883  -37.1904  -14.3105 C   0  0  0  0  0  0  0  0  0  0  0  0
  -12.7733  -37.0307  -15.5493 C   0  0  0  0  0  0  0  0  0  0  0  0
  -12.7507  -36.7702  -13.1673 C   0  0  0  0  0  0  0  0  0  0  0  0
  -12.7592  -37.4742  -11.9717 C   0  0  0  0  0  0  0  0  0  0  0  0
  -13.5542  -37.0965  -10.9170 C   0  0  0  0  0  0  0  0  0  0  0  0
  -14.3399  -35.9834  -11.1130 C   0  0  0  0  0  0  0  0  0  0  0  0
  -14.3575  -35.2672  -12.2739 C   0  0  0  0  0  0  0  0  0  0  0  0
  -13.5413  -35.6674  -13.3356 C   0  0  0  0  0  0  0  0  0  0  0  0
  -13.5943  -37.8595   -9.6165 C   0  0  0  0  0  0  0  0  0  0  0  0
  -13.4712  -36.8685   -8.5051 C   0  0  0  0  0  0  0  0  0  0  0  0
  -12.4169  -38.7701   -9.5999 C   0  0  0  0  0  0  0  0  0  0  0  0
  -14.8586  -38.5465   -9.4882 N   0  0  0  0  0  0  0  0  0  0  0  0
  -14.6659  -39.8049   -8.8366 C   0  0  0  0  0  0  0  0  0  0  0  0
  -15.8682  -40.0911   -7.9209 C   0  0  1  0  0  0  0  0  0  0  0  0
  -16.0522  -38.9595   -7.1294 O   0  0  0  0  0  0  0  0  0  0  0  0
  -17.0803  -40.5408   -8.6341 C   0  0  2  0  0  0  0  0  0  0  0  0
  -16.9873  -41.8276   -9.3540 C   0  0  0  0  0  0  0  0  0  0  0  0
  -16.8977  -43.0713   -8.5128 C   0  0  2  0  0  0  0  0  0  0  0  0
  -16.6579  -44.2304   -9.4865 C   0  0  0  0  0  0  0  0  0  0  0  0
  -18.2620  -43.3083   -7.9120 C   0  0  0  0  0  0  0  0  0  0  0  0
  -18.3309  -44.6421   -7.1873 C   0  0  0  0  0  0  0  0  0  0  0  0
  -19.7284  -45.2097   -7.3097 C   0  0  0  0  0  0  0  0  0  0  0  0
  -20.4996  -45.1593   -6.0253 C   0  0  0  0  0  0  0  0  0  0  0  0
  -21.9697  -44.9926   -6.2271 C   0  0  0  0  0  0  0  0  0  0  0  0
  -22.5331  -43.6827   -5.7620 C   0  0  0  0  0  0  0  0  0  0  0  0
  -21.5653  -42.5603   -5.7431 C   0  0  0  0  0  0  0  0  0  0  0  0
  -22.0776  -41.3011   -6.2887 N   0  0  0  0  0  0  0  0  0  0  0  0
  -21.3701  -40.2494   -6.9617 C   0  0  0  0  0  0  0  0  0  0  0  0
  -20.4209  -40.2871   -7.9569 C   0  0  0  0  0  0  0  0  0  0  0  0
  -19.8617  -39.0853   -8.3567 C   0  0  0  0  0  0  0  0  0  0  0  0
  -20.2757  -37.8699   -7.7533 C   0  0  0  0  0  0  0  0  0  0  0  0
  -21.2214  -37.8039   -6.7663 C   0  0  0  0  0  0  0  0  0  0  0  0
  -21.7509  -39.0056   -6.3894 C   0  0  0  0  0  0  0  0  0  0  0  0
  -18.7811  -38.7978   -9.3163 C   0  0  0  0  0  0  0  0  0  0  0  0
  -18.9725  -37.7749  -10.0915 O   0  0  0  0  0  0  0  0  0  0  0  0
  -17.5450  -39.4716   -9.5255 N   0  0  0  0  0  0  0  0  0  0  0  0
  1  2  1  0
  2  3  1  0
  2  4  1  0
  4  5  2  0
  5  6  1  0
  6  7  2  0
  7  8  1  0
  8  9  2  0
  6 10  1  0
 10 11  1  0
 10 12  1  0
 10 13  1  0
 13 14  1  0
 14 15  1  0
 15 16  1  6
 15 17  1  0
 17 18  1  6
 18 19  1  0
 19 20  1  6
 19 21  1  0
 21 22  1  0
 22 23  1  0
 23 24  1  0
 24 25  1  0
 25 26  1  0
 26 27  1  0
 27 28  1  0
 28 29  1  0
 29 30  2  0
 30 31  1  0
 31 32  2  0
 32 33  1  0
 33 34  2  0
 31 35  1  0
 35 36  2  0
 35 37  1  0
  9  4  1  0
 34 29  1  0
 37 17  1  0
M  END
$$$$
