
     RDKit          3D

 37 39  0  0  0  0  0  0  0  0999 V2000
  -22.1908  -40.5212  -11.7628 C   0  0  0  0  0  0  0  0  0  0  0  0
  -23.2511  -40.1256  -10.7633 C   0  0  0  0  0  0  0  0  0  0  0  0
  -23.2747  -38.5975  -10.6750 C   0  0  0  0  0  0  0  0  0  0  0  0
  -22.8207  -40.5807   -9.4088 C   0  0  0  0  0  0  0  0  0  0  0  0
  -21.6567  -40.1046   -8.8226 C   0  0  0  0  0  0  0  0  0  0  0  0
  -21.2514  -40.5229   -7.5785 C   0  0  0  0  0  0  0  0  0  0  0  0
  -22.0630  -41.4388   -6.9482 C   0  0  0  0  0  0  0  0  0  0  0  0
  -23.2134  -41.9286   -7.4936 C   0  0  0  0  0  0  0  0  0  0  0  0
  -23.6090  -41.4907   -8.7606 C   0  0  0  0  0  0  0  0  0  0  0  0
  -19.9793  -40.0340   -6.9321 C   0  0  0  0  0  0  0  0  0  0  0  0
  -19.6336  -40.9861   -5.8337 C   0  0  0  0  0  0  0  0  0  0  0  0
  -20.2631  -38.6925   -6.3528 C   0  0  0  0  0  0  0  0  0  0  0  0
  -18.9060  -40.0312   -7.8990 N   0  0  0  0  0  0  0  0  0  0  0  0
  -17.6676  -40.3400   -7.2539 C   0  0  0  0  0  0  0  0  0  0  0  0
  -16.5514  -39.4695   -7.8557 C   0  0  1  0  0  0  0  0  0  0  0  0
  -15.3685  -39.8266   -7.2123 O   0  0  0  0  0  0  0  0  0  0  0  0
  -16.4802  -39.5084   -9.3300 C   0  0  2  0  0  0  0  0  0  0  0  0
  -16.8199  -38.2603  -10.0438 C   0  0  0  0  0  0  0  0  0  0  0  0
  -15.8427  -37.1230   -9.9253 C   0  0  2  0  0  0  0  0  0  0  0  0
  -16.4979  -35.9219  -10.6163 C   0  0  0  0  0  0  0  0  0  0  0  0
  -14.6364  -37.4764  -10.7611 C   0  0  0  0  0  0  0  0  0  0  0  0
  -13.6620  -36.3144  -10.8576 C   0  0  0  0  0  0  0  0  0  0  0  0
  -12.9733  -36.3457  -12.2048 C   0  0  0  0  0  0  0  0  0  0  0  0
  -11.5342  -36.7567  -12.1218 C   0  0  0  0  0  0  0  0  0  0  0  0
  -11.0590  -37.4862  -13.3350 C   0  0  0  0  0  0  0  0  0  0  0  0
  -10.7214  -38.9315  -13.1192 C   0  0  0  0  0  0  0  0  0  0  0  0
  -11.4328  -39.5749  -11.9893 C   0  0  0  0  0  0  0  0  0  0  0  0
  -11.9651  -40.9081  -12.2808 N   0  0  0  0  0  0  0  0  0  0  0  0
  -13.1251  -41.5595  -11.7427 C   0  0  0  0  0  0  0  0  0  0  0  0
  -14.4050  -41.1022  -11.5292 C   0  0  0  0  0  0  0  0  0  0  0  0
  -15.3005  -41.9625  -10.9167 C   0  0  0  0  0  0  0  0  0  0  0  0
  -14.8921  -43.2679  -10.5402 C   0  0  0  0  0  0  0  0  0  0  0  0
  -13.6278  -43.7495  -10.7464 C   0  0  0  0  0  0  0  0  0  0  0  0
  -12.7657  -42.8764  -11.3473 C   0  0  0  0  0  0  0  0  0  0  0  0
  -16.6912  -41.7522  -10.4776 C   0  0  0  0  0  0  0  0  0  0  0  0
  -17.5106  -42.7308  -10.7117 O   0  0  0  0  0  0  0  0  0  0  0  0
  -17.2819  -40.6331   -9.8261 N   0  0  0  0  0  0  0  0  0  0  0  0
  1  2  1  0
  2  3  1  0
  2  4  1  0
  4  5  2  0
  5  6  1  0
  6  7  2  0
  7  8  1  0
  8  9  2  0
  6 10  1  0
 10 11  1  0
 10 12  1  0
 10 13  1  0
 13 14  1  0
 14 15  1  0
 15 16  1  1
 15 17  1  0
 17 18  1  6
 18 19  1  0
 19 20  1  6
 19 21  1  0
 21 22  1  0
 22 23  1  0
 23 24  1  0
 24 25  1  0
 25 26  1  0
 26 27  1  0
 27 28  1  0
 28 29  1  0
 29 30  2  0
 30 31  1  0
 31 32  2  0
 32 33  1  0
 33 34  2  0
 31 35  1  0
 35 36  2  0
 35 37  1  0
  9  4  1  0
 34 29  1  0
 37 17  1  0
M  END
$$$$
