
     RDKit          3D

 37 39  0  0  0  0  0  0  0  0999 V2000
  -24.2160  -42.6286   -9.7400 C   0  0  0  0  0  0  0  0  0  0  0  0
  -22.7694  -42.4655   -9.3395 C   0  0  0  0  0  0  0  0  0  0  0  0
  -22.5809  -43.1118   -7.9647 C   0  0  0  0  0  0  0  0  0  0  0  0
  -22.4976  -41.0144   -9.1208 C   0  0  0  0  0  0  0  0  0  0  0  0
  -21.4493  -40.5887   -8.3177 C   0  0  0  0  0  0  0  0  0  0  0  0
  -21.1962  -39.2550   -8.1075 C   0  0  0  0  0  0  0  0  0  0  0  0
  -22.0394  -38.3673   -8.7367 C   0  0  0  0  0  0  0  0  0  0  0  0
  -23.0793  -38.7493   -9.5327 C   0  0  0  0  0  0  0  0  0  0  0  0
  -23.3205  -40.1111   -9.7343 C   0  0  0  0  0  0  0  0  0  0  0  0
  -20.0753  -38.7710   -7.2219 C   0  0  0  0  0  0  0  0  0  0  0  0
  -19.7036  -39.8923   -6.3070 C   0  0  0  0  0  0  0  0  0  0  0  0
  -20.6027  -37.6329   -6.4205 C   0  0  0  0  0  0  0  0  0  0  0  0
  -18.9258  -38.4280   -8.0268 N   0  0  0  0  0  0  0  0  0  0  0  0
  -17.7251  -38.6524   -7.2830 C   0  0  0  0  0  0  0  0  0  0  0  0
  -16.5298  -38.0832   -8.0659 C   0  0  1  0  0  0  0  0  0  0  0  0
  -15.3765  -38.5267   -7.4224 O   0  0  0  0  0  0  0  0  0  0  0  0
  -16.5657  -38.3625   -9.5154 C   0  0  2  0  0  0  0  0  0  0  0  0
  -17.0216  -37.2638  -10.3915 C   0  0  0  0  0  0  0  0  0  0  0  0
  -16.0987  -36.0851  -10.5385 C   0  0  2  0  0  0  0  0  0  0  0  0
  -16.8647  -35.0414  -11.3589 C   0  0  0  0  0  0  0  0  0  0  0  0
  -14.9407  -36.5242  -11.4014 C   0  0  0  0  0  0  0  0  0  0  0  0
  -14.0378  -35.3570  -11.7636 C   0  0  0  0  0  0  0  0  0  0  0  0
  -13.4498  -35.5835  -13.1395 C   0  0  0  0  0  0  0  0  0  0  0  0
  -11.9891  -35.9185  -13.1084 C   0  0  0  0  0  0  0  0  0  0  0  0
  -11.5675  -36.8192  -14.2223 C   0  0  0  0  0  0  0  0  0  0  0  0
  -11.1402  -38.1947  -13.8038 C   0  0  0  0  0  0  0  0  0  0  0  0
  -11.7319  -38.6698  -12.5306 C   0  0  0  0  0  0  0  0  0  0  0  0
  -12.2142  -40.0527  -12.5584 N   0  0  0  0  0  0  0  0  0  0  0  0
  -13.2959  -40.6511  -11.8295 C   0  0  0  0  0  0  0  0  0  0  0  0
  -14.5786  -40.2153  -11.5893 C   0  0  0  0  0  0  0  0  0  0  0  0
  -15.3804  -40.9969  -10.7750 C   0  0  0  0  0  0  0  0  0  0  0  0
  -14.8781  -42.2051  -10.2269 C   0  0  0  0  0  0  0  0  0  0  0  0
  -13.6091  -42.6642  -10.4546 C   0  0  0  0  0  0  0  0  0  0  0  0
  -12.8404  -41.8694  -11.2570 C   0  0  0  0  0  0  0  0  0  0  0  0
  -16.7439  -40.7716  -10.2640 C   0  0  0  0  0  0  0  0  0  0  0  0
  -17.5265  -41.8068  -10.2693 O   0  0  0  0  0  0  0  0  0  0  0  0
  -17.3423  -39.5842   -9.7562 N   0  0  0  0  0  0  0  0  0  0  0  0
  1  2  1  0
  2  3  1  0
  2  4  1  0
  4  5  2  0
  5  6  1  0
  6  7  2  0
  7  8  1  0
  8  9  2  0
  6 10  1  0
 10 11  1  0
 10 12  1  0
 10 13  1  0
 13 14  1  0
 14 15  1  0
 15 16  1  1
 15 17  1  0
 17 18  1  6
 18 19  1  0
 19 20  1  6
 19 21  1  0
 21 22  1  0
 22 23  1  0
 23 24  1  0
 24 25  1  0
 25 26  1  0
 26 27  1  0
 27 28  1  0
 28 29  1  0
 29 30  2  0
 30 31  1  0
 31 32  2  0
 32 33  1  0
 33 34  2  0
 31 35  1  0
 35 36  2  0
 35 37  1  0
  9  4  1  0
 34 29  1  0
 37 17  1  0
M  END
$$$$
