
     RDKit          3D

 37 39  0  0  0  0  0  0  0  0999 V2000
  -10.0161  -36.1128  -12.4948 C   0  0  0  0  0  0  0  0  0  0  0  0
  -11.2602  -35.2832  -12.7034 C   0  0  0  0  0  0  0  0  0  0  0  0
  -11.4065  -34.3369  -11.5090 C   0  0  0  0  0  0  0  0  0  0  0  0
  -12.4491  -36.1821  -12.6274 C   0  0  0  0  0  0  0  0  0  0  0  0
  -12.5748  -37.1305  -11.6226 C   0  0  0  0  0  0  0  0  0  0  0  0
  -13.6636  -37.9649  -11.5493 C   0  0  0  0  0  0  0  0  0  0  0  0
  -14.6200  -37.8074  -12.5266 C   0  0  0  0  0  0  0  0  0  0  0  0
  -14.5299  -36.8865  -13.5290 C   0  0  0  0  0  0  0  0  0  0  0  0
  -13.4143  -36.0466  -13.5864 C   0  0  0  0  0  0  0  0  0  0  0  0
  -13.8100  -39.0165  -10.4778 C   0  0  0  0  0  0  0  0  0  0  0  0
  -13.1291  -38.5093   -9.2484 C   0  0  0  0  0  0  0  0  0  0  0  0
  -13.1137  -40.2407  -10.9596 C   0  0  0  0  0  0  0  0  0  0  0  0
  -15.2084  -39.2252  -10.1816 N   0  0  0  0  0  0  0  0  0  0  0  0
  -15.3913  -39.3731   -8.7709 C   0  0  0  0  0  0  0  0  0  0  0  0
  -16.7892  -38.8612   -8.3844 C   0  0  1  0  0  0  0  0  0  0  0  0
  -17.5501  -38.8427   -9.5513 O   0  0  0  0  0  0  0  0  0  0  0  0
  -17.4124  -39.5888   -7.2608 C   0  0  2  0  0  0  0  0  0  0  0  0
  -17.9983  -38.7671   -6.1819 C   0  0  0  0  0  0  0  0  0  0  0  0
  -19.2504  -38.0028   -6.5143 C   0  0  2  0  0  0  0  0  0  0  0  0
  -19.5549  -37.1280   -5.2931 C   0  0  0  0  0  0  0  0  0  0  0  0
  -20.3785  -39.0020   -6.6016 C   0  0  0  0  0  0  0  0  0  0  0  0
  -21.7249  -38.3147   -6.7550 C   0  0  0  0  0  0  0  0  0  0  0  0
  -22.7920  -39.1392   -6.0682 C   0  0  0  0  0  0  0  0  0  0  0  0
  -23.7145  -39.8272   -7.0288 C   0  0  0  0  0  0  0  0  0  0  0  0
  -24.2383  -41.1273   -6.5139 C   0  0  0  0  0  0  0  0  0  0  0  0
  -23.7576  -42.3443   -7.2471 C   0  0  0  0  0  0  0  0  0  0  0  0
  -22.4487  -42.1864   -7.9243 C   0  0  0  0  0  0  0  0  0  0  0  0
  -21.5289  -43.3128   -7.7488 N   0  0  0  0  0  0  0  0  0  0  0  0
  -20.0943  -43.3155   -7.7119 C   0  0  0  0  0  0  0  0  0  0  0  0
  -19.2020  -42.4941   -7.0623 C   0  0  0  0  0  0  0  0  0  0  0  0
  -17.8524  -42.7093   -7.2838 C   0  0  0  0  0  0  0  0  0  0  0  0
  -17.4284  -43.7523   -8.1470 C   0  0  0  0  0  0  0  0  0  0  0  0
  -18.2943  -44.5869   -8.8003 C   0  0  0  0  0  0  0  0  0  0  0  0
  -19.6187  -44.3467   -8.5663 C   0  0  0  0  0  0  0  0  0  0  0  0
  -16.6692  -41.9652   -6.8175 C   0  0  0  0  0  0  0  0  0  0  0  0
  -15.6612  -42.6890   -6.4380 O   0  0  0  0  0  0  0  0  0  0  0  0
  -16.4552  -40.5614   -6.7208 N   0  0  0  0  0  0  0  0  0  0  0  0
  1  2  1  0
  2  3  1  0
  2  4  1  0
  4  5  2  0
  5  6  1  0
  6  7  2  0
  7  8  1  0
  8  9  2  0
  6 10  1  0
 10 11  1  0
 10 12  1  0
 10 13  1  0
 13 14  1  0
 14 15  1  0
 15 16  1  6
 15 17  1  0
 17 18  1  1
 18 19  1  0
 19 20  1  1
 19 21  1  0
 21 22  1  0
 22 23  1  0
 23 24  1  0
 24 25  1  0
 25 26  1  0
 26 27  1  0
 27 28  1  0
 28 29  1  0
 29 30  2  0
 30 31  1  0
 31 32  2  0
 32 33  1  0
 33 34  2  0
 31 35  1  0
 35 36  2  0
 35 37  1  0
  9  4  1  0
 34 29  1  0
 37 17  1  0
M  END
$$$$
