
     RDKit          3D

 37 39  0  0  0  0  0  0  0  0999 V2000
  -12.7181  -38.5250  -15.0653 C   0  0  0  0  0  0  0  0  0  0  0  0
  -13.6097  -37.3095  -14.9810 C   0  0  0  0  0  0  0  0  0  0  0  0
  -12.7317  -36.0645  -15.1319 C   0  0  0  0  0  0  0  0  0  0  0  0
  -14.1639  -37.2216  -13.5982 C   0  0  0  0  0  0  0  0  0  0  0  0
  -13.4976  -37.7784  -12.5160 C   0  0  0  0  0  0  0  0  0  0  0  0
  -14.0042  -37.7062  -11.2411 C   0  0  0  0  0  0  0  0  0  0  0  0
  -15.2070  -37.0522  -11.0986 C   0  0  0  0  0  0  0  0  0  0  0  0
  -15.8899  -36.4932  -12.1389 C   0  0  0  0  0  0  0  0  0  0  0  0
  -15.3579  -36.5773  -13.4286 C   0  0  0  0  0  0  0  0  0  0  0  0
  -13.3068  -38.3225  -10.0542 C   0  0  0  0  0  0  0  0  0  0  0  0
  -12.7773  -37.2088   -9.2106 C   0  0  0  0  0  0  0  0  0  0  0  0
  -12.1709  -39.1301  -10.5771 C   0  0  0  0  0  0  0  0  0  0  0  0
  -14.2499  -39.0888   -9.2730 N   0  0  0  0  0  0  0  0  0  0  0  0
  -14.6940  -38.3192   -8.1524 C   0  0  0  0  0  0  0  0  0  0  0  0
  -16.2279  -38.3909   -8.0640 C   0  0  1  0  0  0  0  0  0  0  0  0
  -16.7171  -38.1937   -9.3533 O   0  0  0  0  0  0  0  0  0  0  0  0
  -16.7409  -39.6033   -7.3952 C   0  0  2  0  0  0  0  0  0  0  0  0
  -17.4577  -39.4040   -6.1189 C   0  0  0  0  0  0  0  0  0  0  0  0
  -18.8104  -38.7505   -6.1948 C   0  0  2  0  0  0  0  0  0  0  0  0
  -19.2588  -38.5251   -4.7466 C   0  0  0  0  0  0  0  0  0  0  0  0
  -19.7683  -39.7631   -6.7740 C   0  0  0  0  0  0  0  0  0  0  0  0
  -21.2038  -39.2671   -6.7268 C   0  0  0  0  0  0  0  0  0  0  0  0
  -22.1361  -40.4424   -6.5273 C   0  0  0  0  0  0  0  0  0  0  0  0
  -22.9311  -40.7787   -7.7528 C   0  0  0  0  0  0  0  0  0  0  0  0
  -23.2510  -42.2328   -7.8667 C   0  0  0  0  0  0  0  0  0  0  0  0
  -22.5798  -42.9468   -9.0021 C   0  0  0  0  0  0  0  0  0  0  0  0
  -21.3050  -42.3396   -9.4527 C   0  0  0  0  0  0  0  0  0  0  0  0
  -20.2229  -43.2968   -9.6944 N   0  0  0  0  0  0  0  0  0  0  0  0
  -18.8057  -43.1182   -9.5555 C   0  0  0  0  0  0  0  0  0  0  0  0
  -18.0584  -42.5349   -8.5585 C   0  0  0  0  0  0  0  0  0  0  0  0
  -16.6897  -42.4490   -8.7485 C   0  0  0  0  0  0  0  0  0  0  0  0
  -16.1004  -42.9600   -9.9335 C   0  0  0  0  0  0  0  0  0  0  0  0
  -16.8195  -43.5499  -10.9375 C   0  0  0  0  0  0  0  0  0  0  0  0
  -18.1673  -43.6153  -10.7238 C   0  0  0  0  0  0  0  0  0  0  0  0
  -15.6412  -41.8176   -7.9281 C   0  0  0  0  0  0  0  0  0  0  0  0
  -14.5365  -42.4883   -7.8108 O   0  0  0  0  0  0  0  0  0  0  0  0
  -15.6492  -40.5718   -7.2399 N   0  0  0  0  0  0  0  0  0  0  0  0
  1  2  1  0
  2  3  1  0
  2  4  1  0
  4  5  2  0
  5  6  1  0
  6  7  2  0
  7  8  1  0
  8  9  2  0
  6 10  1  0
 10 11  1  0
 10 12  1  0
 10 13  1  0
 13 14  1  0
 14 15  1  0
 15 16  1  6
 15 17  1  0
 17 18  1  1
 18 19  1  0
 19 20  1  1
 19 21  1  0
 21 22  1  0
 22 23  1  0
 23 24  1  0
 24 25  1  0
 25 26  1  0
 26 27  1  0
 27 28  1  0
 28 29  1  0
 29 30  2  0
 30 31  1  0
 31 32  2  0
 32 33  1  0
 33 34  2  0
 31 35  1  0
 35 36  2  0
 35 37  1  0
  9  4  1  0
 34 29  1  0
 37 17  1  0
M  END
$$$$
