
     RDKit          3D

 37 39  0  0  0  0  0  0  0  0999 V2000
  -10.5042  -36.9389   -9.1011 C   0  0  0  0  0  0  0  0  0  0  0  0
  -10.4092  -36.7946  -10.6010 C   0  0  0  0  0  0  0  0  0  0  0  0
  -10.7148  -35.3379  -10.9588 C   0  0  0  0  0  0  0  0  0  0  0  0
  -11.5131  -37.5816  -11.2250 C   0  0  0  0  0  0  0  0  0  0  0  0
  -12.8441  -37.3049  -10.9475 C   0  0  0  0  0  0  0  0  0  0  0  0
  -13.8653  -38.0284  -11.5139 C   0  0  0  0  0  0  0  0  0  0  0  0
  -13.4943  -39.0407  -12.3697 C   0  0  0  0  0  0  0  0  0  0  0  0
  -12.1970  -39.3411  -12.6656 C   0  0  0  0  0  0  0  0  0  0  0  0
  -11.1721  -38.5934  -12.0792 C   0  0  0  0  0  0  0  0  0  0  0  0
  -15.3177  -37.7579  -11.2099 C   0  0  0  0  0  0  0  0  0  0  0  0
  -16.1385  -38.5795  -12.1499 C   0  0  0  0  0  0  0  0  0  0  0  0
  -15.5641  -36.3133  -11.4710 C   0  0  0  0  0  0  0  0  0  0  0  0
  -15.6199  -38.1607   -9.8559 N   0  0  0  0  0  0  0  0  0  0  0  0
  -16.9054  -38.7857   -9.8084 C   0  0  0  0  0  0  0  0  0  0  0  0
  -17.6028  -38.4114   -8.4896 C   0  0  1  0  0  0  0  0  0  0  0  0
  -18.7726  -37.7350   -8.8283 O   0  0  0  0  0  0  0  0  0  0  0  0
  -17.7994  -39.5453   -7.5644 C   0  0  2  0  0  0  0  0  0  0  0  0
  -18.1783  -39.2108   -6.1762 C   0  0  0  0  0  0  0  0  0  0  0  0
  -19.5638  -38.6652   -5.9634 C   0  0  2  0  0  0  0  0  0  0  0  0
  -19.6431  -38.2625   -4.4866 C   0  0  0  0  0  0  0  0  0  0  0  0
  -20.5308  -39.8116   -6.1343 C   0  0  0  0  0  0  0  0  0  0  0  0
  -21.9480  -39.4092   -5.7623 C   0  0  0  0  0  0  0  0  0  0  0  0
  -22.6725  -40.6018   -5.1766 C   0  0  0  0  0  0  0  0  0  0  0  0
  -23.7188  -41.1634   -6.0914 C   0  0  0  0  0  0  0  0  0  0  0  0
  -23.9077  -42.6364   -5.9363 C   0  0  0  0  0  0  0  0  0  0  0  0
  -23.4838  -43.4617   -7.1148 C   0  0  0  0  0  0  0  0  0  0  0  0
  -22.4375  -42.8438   -7.9634 C   0  0  0  0  0  0  0  0  0  0  0  0
  -21.3631  -43.7529   -8.3695 N   0  0  0  0  0  0  0  0  0  0  0  0
  -19.9840  -43.4635   -8.6412 C   0  0  0  0  0  0  0  0  0  0  0  0
  -19.0677  -42.6943   -7.9619 C   0  0  0  0  0  0  0  0  0  0  0  0
  -17.8106  -42.5473   -8.5234 C   0  0  0  0  0  0  0  0  0  0  0  0
  -17.4989  -43.1847   -9.7519 C   0  0  0  0  0  0  0  0  0  0  0  0
  -18.3893  -43.9595  -10.4446 C   0  0  0  0  0  0  0  0  0  0  0  0
  -19.6222  -44.0815   -9.8687 C   0  0  0  0  0  0  0  0  0  0  0  0
  -16.6555  -41.7364   -8.0999 C   0  0  0  0  0  0  0  0  0  0  0  0
  -15.4958  -42.3091   -8.2042 O   0  0  0  0  0  0  0  0  0  0  0  0
  -16.6120  -40.4074   -7.5925 N   0  0  0  0  0  0  0  0  0  0  0  0
  1  2  1  0
  2  3  1  0
  2  4  1  0
  4  5  2  0
  5  6  1  0
  6  7  2  0
  7  8  1  0
  8  9  2  0
  6 10  1  0
 10 11  1  0
 10 12  1  0
 10 13  1  0
 13 14  1  0
 14 15  1  0
 15 16  1  6
 15 17  1  0
 17 18  1  1
 18 19  1  0
 19 20  1  1
 19 21  1  0
 21 22  1  0
 22 23  1  0
 23 24  1  0
 24 25  1  0
 25 26  1  0
 26 27  1  0
 27 28  1  0
 28 29  1  0
 29 30  2  0
 30 31  1  0
 31 32  2  0
 32 33  1  0
 33 34  2  0
 31 35  1  0
 35 36  2  0
 35 37  1  0
  9  4  1  0
 34 29  1  0
 37 17  1  0
M  END
$$$$
