
     RDKit          3D

 37 39  0  0  0  0  0  0  0  0999 V2000
  -21.6886  -41.3772   -4.1188 C   0  0  0  0  0  0  0  0  0  0  0  0
  -22.7630  -40.4569   -4.6464 C   0  0  0  0  0  0  0  0  0  0  0  0
  -24.0706  -41.2490   -4.7255 C   0  0  0  0  0  0  0  0  0  0  0  0
  -22.4392  -40.1103   -6.0613 C   0  0  0  0  0  0  0  0  0  0  0  0
  -21.2077  -40.4236   -6.6183 C   0  0  0  0  0  0  0  0  0  0  0  0
  -20.9005  -40.1030   -7.9183 C   0  0  0  0  0  0  0  0  0  0  0  0
  -21.8809  -39.4550   -8.6350 C   0  0  0  0  0  0  0  0  0  0  0  0
  -23.1022  -39.1311   -8.1206 C   0  0  0  0  0  0  0  0  0  0  0  0
  -23.3957  -39.4659   -6.7958 C   0  0  0  0  0  0  0  0  0  0  0  0
  -19.5608  -40.4156   -8.5368 C   0  0  0  0  0  0  0  0  0  0  0  0
  -19.7111  -40.3141  -10.0199 C   0  0  0  0  0  0  0  0  0  0  0  0
  -19.2183  -41.8168   -8.1690 C   0  0  0  0  0  0  0  0  0  0  0  0
  -18.5806  -39.4475   -8.1021 N   0  0  0  0  0  0  0  0  0  0  0  0
  -17.2843  -40.0502   -8.0620 C   0  0  0  0  0  0  0  0  0  0  0  0
  -16.2313  -39.0176   -8.4982 C   0  0  1  0  0  0  0  0  0  0  0  0
  -15.0537  -39.3307   -7.8229 O   0  0  0  0  0  0  0  0  0  0  0  0
  -16.0797  -38.8866   -9.9611 C   0  0  2  0  0  0  0  0  0  0  0  0
  -16.5067  -37.6055  -10.5602 C   0  0  0  0  0  0  0  0  0  0  0  0
  -15.6575  -36.4002  -10.2624 C   0  0  2  0  0  0  0  0  0  0  0  0
  -16.3944  -35.1982  -10.8635 C   0  0  0  0  0  0  0  0  0  0  0  0
  -14.3797  -36.5427  -11.0532 C   0  0  0  0  0  0  0  0  0  0  0  0
  -13.5246  -35.2896  -10.9662 C   0  0  0  0  0  0  0  0  0  0  0  0
  -12.7671  -35.1063  -12.2635 C   0  0  0  0  0  0  0  0  0  0  0  0
  -11.3000  -35.3850  -12.1338 C   0  0  0  0  0  0  0  0  0  0  0  0
  -10.6906  -35.9275  -13.3844 C   0  0  0  0  0  0  0  0  0  0  0  0
  -10.2197  -37.3490  -13.3003 C   0  0  0  0  0  0  0  0  0  0  0  0
  -10.9201  -38.1780  -12.2908 C   0  0  0  0  0  0  0  0  0  0  0  0
  -11.2983  -39.5155  -12.7530 N   0  0  0  0  0  0  0  0  0  0  0  0
  -12.4127  -40.3299  -12.3600 C   0  0  0  0  0  0  0  0  0  0  0  0
  -13.7418  -40.0230  -12.1804 C   0  0  0  0  0  0  0  0  0  0  0  0
  -14.5759  -41.0270  -11.7187 C   0  0  0  0  0  0  0  0  0  0  0  0
  -14.0574  -42.3211  -11.4561 C   0  0  0  0  0  0  0  0  0  0  0  0
  -12.7416  -42.6542  -11.6317 C   0  0  0  0  0  0  0  0  0  0  0  0
  -11.9426  -41.6420  -12.0828 C   0  0  0  0  0  0  0  0  0  0  0  0
  -16.0018  -41.0000  -11.3481 C   0  0  0  0  0  0  0  0  0  0  0  0
  -16.7043  -42.0203  -11.7343 O   0  0  0  0  0  0  0  0  0  0  0  0
  -16.7362  -40.0210  -10.6215 N   0  0  0  0  0  0  0  0  0  0  0  0
  1  2  1  0
  2  3  1  0
  2  4  1  0
  4  5  2  0
  5  6  1  0
  6  7  2  0
  7  8  1  0
  8  9  2  0
  6 10  1  0
 10 11  1  0
 10 12  1  0
 10 13  1  0
 13 14  1  0
 14 15  1  0
 15 16  1  1
 15 17  1  0
 17 18  1  6
 18 19  1  0
 19 20  1  6
 19 21  1  0
 21 22  1  0
 22 23  1  0
 23 24  1  0
 24 25  1  0
 25 26  1  0
 26 27  1  0
 27 28  1  0
 28 29  1  0
 29 30  2  0
 30 31  1  0
 31 32  2  0
 32 33  1  0
 33 34  2  0
 31 35  1  0
 35 36  2  0
 35 37  1  0
  9  4  1  0
 34 29  1  0
 37 17  1  0
M  END
$$$$
