
     RDKit          3D

 37 39  0  0  0  0  0  0  0  0999 V2000
  -11.4013  -38.1871   -9.7854 C   0  0  0  0  0  0  0  0  0  0  0  0
  -11.0576  -37.2816  -10.9436 C   0  0  0  0  0  0  0  0  0  0  0  0
  -10.8412  -35.8690  -10.3948 C   0  0  0  0  0  0  0  0  0  0  0  0
  -12.2532  -37.1689  -11.8297 C   0  0  0  0  0  0  0  0  0  0  0  0
  -13.5404  -37.2807  -11.3241 C   0  0  0  0  0  0  0  0  0  0  0  0
  -14.6455  -37.1833  -12.1343 C   0  0  0  0  0  0  0  0  0  0  0  0
  -14.4040  -36.9696  -13.4726 C   0  0  0  0  0  0  0  0  0  0  0  0
  -13.1532  -36.8548  -14.0047 C   0  0  0  0  0  0  0  0  0  0  0  0
  -12.0414  -36.9567  -13.1638 C   0  0  0  0  0  0  0  0  0  0  0  0
  -16.0524  -37.3226  -11.6088 C   0  0  0  0  0  0  0  0  0  0  0  0
  -16.5664  -38.6585  -12.0369 C   0  0  0  0  0  0  0  0  0  0  0  0
  -16.8704  -36.2518  -12.2414 C   0  0  0  0  0  0  0  0  0  0  0  0
  -16.0457  -37.2685  -10.1652 N   0  0  0  0  0  0  0  0  0  0  0  0
  -17.1491  -38.0142   -9.6441 C   0  0  0  0  0  0  0  0  0  0  0  0
  -17.1220  -37.9529   -8.1075 C   0  0  1  0  0  0  0  0  0  0  0  0
  -18.0895  -37.0274   -7.7224 O   0  0  0  0  0  0  0  0  0  0  0  0
  -17.2376  -39.2679   -7.4459 C   0  0  2  0  0  0  0  0  0  0  0  0
  -17.5467  -39.2588   -6.0012 C   0  0  0  0  0  0  0  0  0  0  0  0
  -18.9315  -38.8246   -5.6059 C   0  0  2  0  0  0  0  0  0  0  0  0
  -18.9382  -38.7572   -4.0747 C   0  0  0  0  0  0  0  0  0  0  0  0
  -19.8771  -39.9411   -5.9772 C   0  0  0  0  0  0  0  0  0  0  0  0
  -21.2810  -39.6825   -5.4567 C   0  0  0  0  0  0  0  0  0  0  0  0
  -21.9410  -41.0002   -5.1129 C   0  0  0  0  0  0  0  0  0  0  0  0
  -23.0223  -41.3869   -6.0763 C   0  0  0  0  0  0  0  0  0  0  0  0
  -23.1648  -42.8642   -6.2400 C   0  0  0  0  0  0  0  0  0  0  0  0
  -22.7867  -43.3961   -7.5905 C   0  0  0  0  0  0  0  0  0  0  0  0
  -21.8055  -42.5694   -8.3327 C   0  0  0  0  0  0  0  0  0  0  0  0
  -20.7328  -43.3274   -8.9811 N   0  0  0  0  0  0  0  0  0  0  0  0
  -19.3789  -42.9348   -9.2497 C   0  0  0  0  0  0  0  0  0  0  0  0
  -18.4458  -42.2990   -8.4636 C   0  0  0  0  0  0  0  0  0  0  0  0
  -17.2263  -41.9865   -9.0400 C   0  0  0  0  0  0  0  0  0  0  0  0
  -16.9677  -42.3283  -10.3923 C   0  0  0  0  0  0  0  0  0  0  0  0
  -17.8755  -42.9657  -11.1940 C   0  0  0  0  0  0  0  0  0  0  0  0
  -19.0707  -43.2560  -10.5993 C   0  0  0  0  0  0  0  0  0  0  0  0
  -16.0703  -41.2453   -8.5057 C   0  0  0  0  0  0  0  0  0  0  0  0
  -14.9040  -41.7381   -8.7901 O   0  0  0  0  0  0  0  0  0  0  0  0
  -16.0322  -40.0584   -7.7211 N   0  0  0  0  0  0  0  0  0  0  0  0
  1  2  1  0
  2  3  1  0
  2  4  1  0
  4  5  2  0
  5  6  1  0
  6  7  2  0
  7  8  1  0
  8  9  2  0
  6 10  1  0
 10 11  1  0
 10 12  1  0
 10 13  1  0
 13 14  1  0
 14 15  1  0
 15 16  1  1
 15 17  1  0
 17 18  1  1
 18 19  1  0
 19 20  1  1
 19 21  1  0
 21 22  1  0
 22 23  1  0
 23 24  1  0
 24 25  1  0
 25 26  1  0
 26 27  1  0
 27 28  1  0
 28 29  1  0
 29 30  2  0
 30 31  1  0
 31 32  2  0
 32 33  1  0
 33 34  2  0
 31 35  1  0
 35 36  2  0
 35 37  1  0
  9  4  1  0
 34 29  1  0
 37 17  1  0
M  END
$$$$
