
     RDKit          3D

 37 39  0  0  0  0  0  0  0  0999 V2000
  -14.6184  -35.1040  -10.6485 C   0  0  0  0  0  0  0  0  0  0  0  0
  -15.0293  -35.8046  -11.9212 C   0  0  0  0  0  0  0  0  0  0  0  0
  -16.4694  -36.2950  -11.7503 C   0  0  0  0  0  0  0  0  0  0  0  0
  -14.2160  -37.0477  -12.0633 C   0  0  0  0  0  0  0  0  0  0  0  0
  -14.0743  -37.9426  -11.0125 C   0  0  0  0  0  0  0  0  0  0  0  0
  -13.3230  -39.0862  -11.1342 C   0  0  0  0  0  0  0  0  0  0  0  0
  -12.7201  -39.2933  -12.3542 C   0  0  0  0  0  0  0  0  0  0  0  0
  -12.8370  -38.4360  -13.4088 C   0  0  0  0  0  0  0  0  0  0  0  0
  -13.6060  -37.2777  -13.2653 C   0  0  0  0  0  0  0  0  0  0  0  0
  -13.1388  -40.0614   -9.9983 C   0  0  0  0  0  0  0  0  0  0  0  0
  -11.7108  -39.9886   -9.5650 C   0  0  0  0  0  0  0  0  0  0  0  0
  -13.4256  -41.4216  -10.5305 C   0  0  0  0  0  0  0  0  0  0  0  0
  -13.9812  -39.6859   -8.8864 N   0  0  0  0  0  0  0  0  0  0  0  0
  -15.2556  -39.2485   -9.3660 C   0  0  0  0  0  0  0  0  0  0  0  0
  -16.0816  -38.7053   -8.1877 C   0  0  1  0  0  0  0  0  0  0  0  0
  -16.7466  -37.5712   -8.6486 O   0  0  0  0  0  0  0  0  0  0  0  0
  -16.9563  -39.7077   -7.5471 C   0  0  2  0  0  0  0  0  0  0  0  0
  -17.7646  -39.2463   -6.3998 C   0  0  0  0  0  0  0  0  0  0  0  0
  -18.8965  -38.3030   -6.7023 C   0  0  2  0  0  0  0  0  0  0  0  0
  -19.4630  -37.8655   -5.3470 C   0  0  0  0  0  0  0  0  0  0  0  0
  -19.9867  -39.1064   -7.3690 C   0  0  0  0  0  0  0  0  0  0  0  0
  -21.2526  -38.2867   -7.5549 C   0  0  0  0  0  0  0  0  0  0  0  0
  -22.4598  -39.1922   -7.4410 C   0  0  0  0  0  0  0  0  0  0  0  0
  -23.1447  -39.4292   -8.7531 C   0  0  0  0  0  0  0  0  0  0  0  0
  -23.7897  -40.7727   -8.8468 C   0  0  0  0  0  0  0  0  0  0  0  0
  -23.1685  -41.7111   -9.8383 C   0  0  0  0  0  0  0  0  0  0  0  0
  -21.7368  -41.4559  -10.1244 C   0  0  0  0  0  0  0  0  0  0  0  0
  -20.8968  -42.6554  -10.1617 N   0  0  0  0  0  0  0  0  0  0  0  0
  -19.5095  -42.8023   -9.8251 C   0  0  0  0  0  0  0  0  0  0  0  0
  -18.7806  -42.3328   -8.7568 C   0  0  0  0  0  0  0  0  0  0  0  0
  -17.4191  -42.5843   -8.7482 C   0  0  0  0  0  0  0  0  0  0  0  0
  -16.8210  -43.3107   -9.8099 C   0  0  0  0  0  0  0  0  0  0  0  0
  -17.5235  -43.7937  -10.8805 C   0  0  0  0  0  0  0  0  0  0  0  0
  -18.8629  -43.5254  -10.8637 C   0  0  0  0  0  0  0  0  0  0  0  0
  -16.3659  -42.1525   -7.8126 C   0  0  0  0  0  0  0  0  0  0  0  0
  -15.4820  -43.0512   -7.5047 O   0  0  0  0  0  0  0  0  0  0  0  0
  -16.1620  -40.8890   -7.1900 N   0  0  0  0  0  0  0  0  0  0  0  0
  1  2  1  0
  2  3  1  0
  2  4  1  0
  4  5  2  0
  5  6  1  0
  6  7  2  0
  7  8  1  0
  8  9  2  0
  6 10  1  0
 10 11  1  0
 10 12  1  0
 10 13  1  0
 13 14  1  0
 14 15  1  0
 15 16  1  6
 15 17  1  0
 17 18  1  1
 18 19  1  0
 19 20  1  1
 19 21  1  0
 21 22  1  0
 22 23  1  0
 23 24  1  0
 24 25  1  0
 25 26  1  0
 26 27  1  0
 27 28  1  0
 28 29  1  0
 29 30  2  0
 30 31  1  0
 31 32  2  0
 32 33  1  0
 33 34  2  0
 31 35  1  0
 35 36  2  0
 35 37  1  0
  9  4  1  0
 34 29  1  0
 37 17  1  0
M  END
$$$$
