
     RDKit          3D

 37 39  0  0  0  0  0  0  0  0999 V2000
  -10.7037  -38.0238  -10.4671 C   0  0  0  0  0  0  0  0  0  0  0  0
  -10.9483  -38.0545  -11.9566 C   0  0  0  0  0  0  0  0  0  0  0  0
  -10.9016  -36.6152  -12.4758 C   0  0  0  0  0  0  0  0  0  0  0  0
  -12.3508  -38.5035  -12.1988 C   0  0  0  0  0  0  0  0  0  0  0  0
  -13.4337  -37.7816  -11.7180 C   0  0  0  0  0  0  0  0  0  0  0  0
  -14.7273  -38.1914  -11.9324 C   0  0  0  0  0  0  0  0  0  0  0  0
  -14.8877  -39.3556  -12.6490 C   0  0  0  0  0  0  0  0  0  0  0  0
  -13.8472  -40.0909  -13.1366 C   0  0  0  0  0  0  0  0  0  0  0  0
  -12.5383  -39.6573  -12.9080 C   0  0  0  0  0  0  0  0  0  0  0  0
  -15.9179  -37.4330  -11.4009 C   0  0  0  0  0  0  0  0  0  0  0  0
  -17.1493  -38.1560  -11.8406 C   0  0  0  0  0  0  0  0  0  0  0  0
  -15.8926  -36.0785  -12.0178 C   0  0  0  0  0  0  0  0  0  0  0  0
  -15.8826  -37.4116   -9.9569 N   0  0  0  0  0  0  0  0  0  0  0  0
  -16.4152  -38.6332   -9.4379 C   0  0  0  0  0  0  0  0  0  0  0  0
  -17.3727  -38.3160   -8.2767 C   0  0  1  0  0  0  0  0  0  0  0  0
  -18.4623  -37.6419   -8.8236 O   0  0  0  0  0  0  0  0  0  0  0  0
  -17.7308  -39.4852   -7.4492 C   0  0  2  0  0  0  0  0  0  0  0  0
  -18.3989  -39.2068   -6.1613 C   0  0  0  0  0  0  0  0  0  0  0  0
  -19.8109  -38.6925   -6.2261 C   0  0  2  0  0  0  0  0  0  0  0  0
  -20.2061  -38.3441   -4.7868 C   0  0  0  0  0  0  0  0  0  0  0  0
  -20.6933  -39.8481   -6.6315 C   0  0  0  0  0  0  0  0  0  0  0  0
  -22.1662  -39.4831   -6.5519 C   0  0  0  0  0  0  0  0  0  0  0  0
  -22.9682  -40.7078   -6.1685 C   0  0  0  0  0  0  0  0  0  0  0  0
  -23.7870  -41.2538   -7.2992 C   0  0  0  0  0  0  0  0  0  0  0  0
  -23.9689  -42.7345   -7.2333 C   0  0  0  0  0  0  0  0  0  0  0  0
  -23.2890  -43.5100   -8.3223 C   0  0  0  0  0  0  0  0  0  0  0  0
  -22.1037  -42.8447   -8.9133 C   0  0  0  0  0  0  0  0  0  0  0  0
  -20.9468  -43.7206   -9.1139 N   0  0  0  0  0  0  0  0  0  0  0  0
  -19.5487  -43.3987   -9.0817 C   0  0  0  0  0  0  0  0  0  0  0  0
  -18.8128  -42.6389   -8.2019 C   0  0  0  0  0  0  0  0  0  0  0  0
  -17.4702  -42.4509   -8.4830 C   0  0  0  0  0  0  0  0  0  0  0  0
  -16.8940  -43.0387   -9.6383 C   0  0  0  0  0  0  0  0  0  0  0  0
  -17.6015  -43.8032  -10.5260 C   0  0  0  0  0  0  0  0  0  0  0  0
  -18.9241  -43.9663  -10.2251 C   0  0  0  0  0  0  0  0  0  0  0  0
  -16.4485  -41.6364   -7.8019 C   0  0  0  0  0  0  0  0  0  0  0  0
  -15.2792  -42.1855   -7.6791 O   0  0  0  0  0  0  0  0  0  0  0  0
  -16.5435  -40.3257   -7.2552 N   0  0  0  0  0  0  0  0  0  0  0  0
  1  2  1  0
  2  3  1  0
  2  4  1  0
  4  5  2  0
  5  6  1  0
  6  7  2  0
  7  8  1  0
  8  9  2  0
  6 10  1  0
 10 11  1  0
 10 12  1  0
 10 13  1  0
 13 14  1  0
 14 15  1  0
 15 16  1  6
 15 17  1  0
 17 18  1  1
 18 19  1  0
 19 20  1  1
 19 21  1  0
 21 22  1  0
 22 23  1  0
 23 24  1  0
 24 25  1  0
 25 26  1  0
 26 27  1  0
 27 28  1  0
 28 29  1  0
 29 30  2  0
 30 31  1  0
 31 32  2  0
 32 33  1  0
 33 34  2  0
 31 35  1  0
 35 36  2  0
 35 37  1  0
  9  4  1  0
 34 29  1  0
 37 17  1  0
M  END
$$$$
