
     RDKit          3D

 37 39  0  0  0  0  0  0  0  0999 V2000
  -12.3025  -34.7204  -11.1209 C   0  0  0  0  0  0  0  0  0  0  0  0
  -11.7619  -35.5633  -12.2508 C   0  0  0  0  0  0  0  0  0  0  0  0
  -12.2940  -34.9914  -13.5673 C   0  0  0  0  0  0  0  0  0  0  0  0
  -12.3616  -36.9266  -12.1557 C   0  0  0  0  0  0  0  0  0  0  0  0
  -13.3984  -37.2001  -11.2751 C   0  0  0  0  0  0  0  0  0  0  0  0
  -13.9518  -38.4536  -11.1782 C   0  0  0  0  0  0  0  0  0  0  0  0
  -13.4209  -39.4204  -12.0017 C   0  0  0  0  0  0  0  0  0  0  0  0
  -12.4024  -39.1881  -12.8790 C   0  0  0  0  0  0  0  0  0  0  0  0
  -11.8525  -37.9058  -12.9628 C   0  0  0  0  0  0  0  0  0  0  0  0
  -15.0649  -38.7774  -10.2131 C   0  0  0  0  0  0  0  0  0  0  0  0
  -15.5972  -40.1268  -10.5708 C   0  0  0  0  0  0  0  0  0  0  0  0
  -16.1315  -37.7574  -10.4076 C   0  0  0  0  0  0  0  0  0  0  0  0
  -14.5485  -38.8244   -8.8648 N   0  0  0  0  0  0  0  0  0  0  0  0
  -15.2812  -39.7814   -8.0951 C   0  0  0  0  0  0  0  0  0  0  0  0
  -16.7501  -39.3360   -7.9973 C   0  0  1  0  0  0  0  0  0  0  0  0
  -17.1683  -39.0341   -9.2915 O   0  0  0  0  0  0  0  0  0  0  0  0
  -17.6249  -40.2839   -7.2786 C   0  0  2  0  0  0  0  0  0  0  0  0
  -18.4152  -39.7371   -6.1565 C   0  0  0  0  0  0  0  0  0  0  0  0
  -19.5431  -38.8069   -6.5101 C   0  0  2  0  0  0  0  0  0  0  0  0
  -20.0892  -38.2718   -5.1818 C   0  0  0  0  0  0  0  0  0  0  0  0
  -20.6479  -39.6447   -7.1067 C   0  0  0  0  0  0  0  0  0  0  0  0
  -21.9093  -38.8285   -7.3339 C   0  0  0  0  0  0  0  0  0  0  0  0
  -23.1223  -39.7132   -7.1434 C   0  0  0  0  0  0  0  0  0  0  0  0
  -23.8253  -40.0341   -8.4278 C   0  0  0  0  0  0  0  0  0  0  0  0
  -24.4823  -41.3750   -8.4207 C   0  0  0  0  0  0  0  0  0  0  0  0
  -23.8810  -42.3852   -9.3522 C   0  0  0  0  0  0  0  0  0  0  0  0
  -22.4510  -42.1631   -9.6722 C   0  0  0  0  0  0  0  0  0  0  0  0
  -21.6212  -43.3698   -9.6363 N   0  0  0  0  0  0  0  0  0  0  0  0
  -20.2311  -43.5055   -9.3068 C   0  0  0  0  0  0  0  0  0  0  0  0
  -19.4853  -42.9699   -8.2823 C   0  0  0  0  0  0  0  0  0  0  0  0
  -18.1258  -43.2323   -8.2724 C   0  0  0  0  0  0  0  0  0  0  0  0
  -17.5468  -44.0356   -9.2882 C   0  0  0  0  0  0  0  0  0  0  0  0
  -18.2664  -44.5851  -10.3145 C   0  0  0  0  0  0  0  0  0  0  0  0
  -19.6033  -44.3043  -10.3005 C   0  0  0  0  0  0  0  0  0  0  0  0
  -17.0576  -42.7463   -7.3813 C   0  0  0  0  0  0  0  0  0  0  0  0
  -16.1772  -43.6295   -7.0225 O   0  0  0  0  0  0  0  0  0  0  0  0
  -16.8358  -41.4447   -6.8501 N   0  0  0  0  0  0  0  0  0  0  0  0
  1  2  1  0
  2  3  1  0
  2  4  1  0
  4  5  2  0
  5  6  1  0
  6  7  2  0
  7  8  1  0
  8  9  2  0
  6 10  1  0
 10 11  1  0
 10 12  1  0
 10 13  1  0
 13 14  1  0
 14 15  1  0
 15 16  1  6
 15 17  1  0
 17 18  1  1
 18 19  1  0
 19 20  1  1
 19 21  1  0
 21 22  1  0
 22 23  1  0
 23 24  1  0
 24 25  1  0
 25 26  1  0
 26 27  1  0
 27 28  1  0
 28 29  1  0
 29 30  2  0
 30 31  1  0
 31 32  2  0
 32 33  1  0
 33 34  2  0
 31 35  1  0
 35 36  2  0
 35 37  1  0
  9  4  1  0
 34 29  1  0
 37 17  1  0
M  END
$$$$
