
     RDKit          3D

 37 39  0  0  0  0  0  0  0  0999 V2000
  -22.0091  -41.0556   -3.6284 C   0  0  0  0  0  0  0  0  0  0  0  0
  -21.5223  -42.0368   -4.6676 C   0  0  0  0  0  0  0  0  0  0  0  0
  -20.1537  -42.5595   -4.2237 C   0  0  0  0  0  0  0  0  0  0  0  0
  -21.2559  -41.2941   -5.9344 C   0  0  0  0  0  0  0  0  0  0  0  0
  -20.6900  -40.0274   -5.9240 C   0  0  0  0  0  0  0  0  0  0  0  0
  -20.4467  -39.3356   -7.0856 C   0  0  0  0  0  0  0  0  0  0  0  0
  -20.7956  -39.9685   -8.2572 C   0  0  0  0  0  0  0  0  0  0  0  0
  -21.3536  -41.2124   -8.3056 C   0  0  0  0  0  0  0  0  0  0  0  0
  -21.5933  -41.9002   -7.1127 C   0  0  0  0  0  0  0  0  0  0  0  0
  -19.8518  -37.9496   -7.0958 C   0  0  0  0  0  0  0  0  0  0  0  0
  -19.8438  -37.4490   -5.6881 C   0  0  0  0  0  0  0  0  0  0  0  0
  -20.7436  -37.0901   -7.9215 C   0  0  0  0  0  0  0  0  0  0  0  0
  -18.4909  -38.0022   -7.5777 N   0  0  0  0  0  0  0  0  0  0  0  0
  -17.7386  -38.9472   -6.8120 C   0  0  0  0  0  0  0  0  0  0  0  0
  -16.3029  -39.0151   -7.3594 C   0  0  1  0  0  0  0  0  0  0  0  0
  -15.5835  -39.8485   -6.5058 O   0  0  0  0  0  0  0  0  0  0  0  0
  -16.2147  -39.3811   -8.7872 C   0  0  2  0  0  0  0  0  0  0  0  0
  -16.3205  -38.2767   -9.7628 C   0  0  0  0  0  0  0  0  0  0  0  0
  -15.1628  -37.3189   -9.8323 C   0  0  2  0  0  0  0  0  0  0  0  0
  -15.5878  -36.2026  -10.7927 C   0  0  0  0  0  0  0  0  0  0  0  0
  -14.0224  -38.0388  -10.5102 C   0  0  0  0  0  0  0  0  0  0  0  0
  -12.8595  -37.1031  -10.7949 C   0  0  0  0  0  0  0  0  0  0  0  0
  -12.1643  -37.5369  -12.0672 C   0  0  0  0  0  0  0  0  0  0  0  0
  -10.8200  -38.1536  -11.8234 C   0  0  0  0  0  0  0  0  0  0  0  0
  -10.4584  -39.1951  -12.8304 C   0  0  0  0  0  0  0  0  0  0  0  0
  -10.3805  -40.5959  -12.3000 C   0  0  0  0  0  0  0  0  0  0  0  0
  -11.2117  -40.8543  -11.1004 C   0  0  0  0  0  0  0  0  0  0  0  0
  -11.9624  -42.1117  -11.1353 N   0  0  0  0  0  0  0  0  0  0  0  0
  -13.2268  -42.4305  -10.5359 C   0  0  0  0  0  0  0  0  0  0  0  0
  -14.4112  -41.7319  -10.4912 C   0  0  0  0  0  0  0  0  0  0  0  0
  -15.4526  -42.2796   -9.7614 C   0  0  0  0  0  0  0  0  0  0  0  0
  -15.2835  -43.5230   -9.0995 C   0  0  0  0  0  0  0  0  0  0  0  0
  -14.1187  -44.2407   -9.1328 C   0  0  0  0  0  0  0  0  0  0  0  0
  -13.1082  -43.6726   -9.8558 C   0  0  0  0  0  0  0  0  0  0  0  0
  -16.7928  -41.7520   -9.4508 C   0  0  0  0  0  0  0  0  0  0  0  0
  -17.7657  -42.6081   -9.5190 O   0  0  0  0  0  0  0  0  0  0  0  0
  -17.1911  -40.4370   -9.0797 N   0  0  0  0  0  0  0  0  0  0  0  0
  1  2  1  0
  2  3  1  0
  2  4  1  0
  4  5  2  0
  5  6  1  0
  6  7  2  0
  7  8  1  0
  8  9  2  0
  6 10  1  0
 10 11  1  0
 10 12  1  0
 10 13  1  0
 13 14  1  0
 14 15  1  0
 15 16  1  1
 15 17  1  0
 17 18  1  6
 18 19  1  0
 19 20  1  6
 19 21  1  0
 21 22  1  0
 22 23  1  0
 23 24  1  0
 24 25  1  0
 25 26  1  0
 26 27  1  0
 27 28  1  0
 28 29  1  0
 29 30  2  0
 30 31  1  0
 31 32  2  0
 32 33  1  0
 33 34  2  0
 31 35  1  0
 35 36  2  0
 35 37  1  0
  9  4  1  0
 34 29  1  0
 37 17  1  0
M  END
$$$$
