
     RDKit          3D

 37 39  0  0  0  0  0  0  0  0999 V2000
  -15.9088  -34.7577  -11.7824 C   0  0  0  0  0  0  0  0  0  0  0  0
  -14.6879  -35.2010  -12.5520 C   0  0  0  0  0  0  0  0  0  0  0  0
  -14.8933  -34.8315  -14.0233 C   0  0  0  0  0  0  0  0  0  0  0  0
  -14.6317  -36.6923  -12.5361 C   0  0  0  0  0  0  0  0  0  0  0  0
  -14.0560  -37.3824  -11.4791 C   0  0  0  0  0  0  0  0  0  0  0  0
  -13.9958  -38.7547  -11.4599 C   0  0  0  0  0  0  0  0  0  0  0  0
  -14.5373  -39.4044  -12.5460 C   0  0  0  0  0  0  0  0  0  0  0  0
  -15.1108  -38.7593  -13.6023 C   0  0  0  0  0  0  0  0  0  0  0  0
  -15.1624  -37.3626  -13.6032 C   0  0  0  0  0  0  0  0  0  0  0  0
  -13.3561  -39.5237  -10.3310 C   0  0  0  0  0  0  0  0  0  0  0  0
  -11.9917  -38.9559  -10.1114 C   0  0  0  0  0  0  0  0  0  0  0  0
  -13.2373  -40.9408  -10.7709 C   0  0  0  0  0  0  0  0  0  0  0  0
  -14.1289  -39.3562   -9.1220 N   0  0  0  0  0  0  0  0  0  0  0  0
  -15.4554  -39.8532   -9.3184 C   0  0  0  0  0  0  0  0  0  0  0  0
  -16.3946  -39.2158   -8.2805 C   0  0  1  0  0  0  0  0  0  0  0  0
  -17.2964  -38.4213   -8.9849 O   0  0  0  0  0  0  0  0  0  0  0  0
  -17.0235  -40.1817   -7.3575 C   0  0  2  0  0  0  0  0  0  0  0  0
  -17.6323  -39.6273   -6.1309 C   0  0  0  0  0  0  0  0  0  0  0  0
  -18.8888  -38.8185   -6.3024 C   0  0  2  0  0  0  0  0  0  0  0  0
  -19.2186  -38.2418   -4.9211 C   0  0  0  0  0  0  0  0  0  0  0  0
  -20.0042  -39.7821   -6.6278 C   0  0  0  0  0  0  0  0  0  0  0  0
  -21.3564  -39.0891   -6.6435 C   0  0  0  0  0  0  0  0  0  0  0  0
  -22.4226  -40.0553   -6.1746 C   0  0  0  0  0  0  0  0  0  0  0  0
  -23.3249  -40.5183   -7.2783 C   0  0  0  0  0  0  0  0  0  0  0  0
  -23.8403  -41.9050   -7.0753 C   0  0  0  0  0  0  0  0  0  0  0  0
  -23.3364  -42.9229   -8.0549 C   0  0  0  0  0  0  0  0  0  0  0  0
  -22.0210  -42.6065   -8.6601 C   0  0  0  0  0  0  0  0  0  0  0  0
  -21.0907  -43.7360   -8.7275 N   0  0  0  0  0  0  0  0  0  0  0  0
  -19.6567  -43.7350   -8.6708 C   0  0  0  0  0  0  0  0  0  0  0  0
  -18.7822  -43.0724   -7.8407 C   0  0  0  0  0  0  0  0  0  0  0  0
  -17.4275  -43.2214   -8.0848 C   0  0  0  0  0  0  0  0  0  0  0  0
  -16.9808  -44.0410   -9.1530 C   0  0  0  0  0  0  0  0  0  0  0  0
  -17.8287  -44.7154   -9.9893 C   0  0  0  0  0  0  0  0  0  0  0  0
  -19.1586  -44.5447   -9.7272 C   0  0  0  0  0  0  0  0  0  0  0  0
  -16.2589  -42.5908   -7.4462 C   0  0  0  0  0  0  0  0  0  0  0  0
  -15.2475  -43.3727   -7.2234 O   0  0  0  0  0  0  0  0  0  0  0  0
  -16.0622  -41.2425   -7.0347 N   0  0  0  0  0  0  0  0  0  0  0  0
  1  2  1  0
  2  3  1  0
  2  4  1  0
  4  5  2  0
  5  6  1  0
  6  7  2  0
  7  8  1  0
  8  9  2  0
  6 10  1  0
 10 11  1  0
 10 12  1  0
 10 13  1  0
 13 14  1  0
 14 15  1  0
 15 16  1  6
 15 17  1  0
 17 18  1  1
 18 19  1  0
 19 20  1  1
 19 21  1  0
 21 22  1  0
 22 23  1  0
 23 24  1  0
 24 25  1  0
 25 26  1  0
 26 27  1  0
 27 28  1  0
 28 29  1  0
 29 30  2  0
 30 31  1  0
 31 32  2  0
 32 33  1  0
 33 34  2  0
 31 35  1  0
 35 36  2  0
 35 37  1  0
  9  4  1  0
 34 29  1  0
 37 17  1  0
M  END
$$$$
