
     RDKit          3D

 37 39  0  0  0  0  0  0  0  0999 V2000
  -21.7872  -36.7573   -9.5704 C   0  0  0  0  0  0  0  0  0  0  0  0
  -22.4665  -38.0467   -9.9648 C   0  0  0  0  0  0  0  0  0  0  0  0
  -23.7246  -38.2031   -9.1069 C   0  0  0  0  0  0  0  0  0  0  0  0
  -21.5887  -39.1867   -9.5685 C   0  0  0  0  0  0  0  0  0  0  0  0
  -20.8642  -39.1635   -8.3854 C   0  0  0  0  0  0  0  0  0  0  0  0
  -20.0502  -40.2068   -8.0165 C   0  0  0  0  0  0  0  0  0  0  0  0
  -19.9939  -41.2734   -8.8848 C   0  0  0  0  0  0  0  0  0  0  0  0
  -20.6915  -41.3307  -10.0557 C   0  0  0  0  0  0  0  0  0  0  0  0
  -21.5145  -40.2592  -10.4135 C   0  0  0  0  0  0  0  0  0  0  0  0
  -19.2382  -40.1929   -6.7455 C   0  0  0  0  0  0  0  0  0  0  0  0
  -18.7299  -41.5791   -6.5168 C   0  0  0  0  0  0  0  0  0  0  0  0
  -20.1560  -39.8133   -5.6368 C   0  0  0  0  0  0  0  0  0  0  0  0
  -18.1098  -39.3029   -6.8926 N   0  0  0  0  0  0  0  0  0  0  0  0
  -17.1133  -39.9112   -7.7184 C   0  0  0  0  0  0  0  0  0  0  0  0
  -16.1161  -38.8370   -8.1845 C   0  0  1  0  0  0  0  0  0  0  0  0
  -14.8932  -39.1337   -7.5868 O   0  0  0  0  0  0  0  0  0  0  0  0
  -16.0532  -38.6624   -9.6493 C   0  0  2  0  0  0  0  0  0  0  0  0
  -16.1150  -37.2758  -10.1554 C   0  0  0  0  0  0  0  0  0  0  0  0
  -14.9157  -36.4051   -9.8983 C   0  0  2  0  0  0  0  0  0  0  0  0
  -15.2957  -35.0001  -10.3787 C   0  0  0  0  0  0  0  0  0  0  0  0
  -13.8130  -36.8744  -10.8160 C   0  0  0  0  0  0  0  0  0  0  0  0
  -12.6109  -35.9462  -10.7675 C   0  0  0  0  0  0  0  0  0  0  0  0
  -11.9436  -35.9155  -12.1255 C   0  0  0  0  0  0  0  0  0  0  0  0
  -10.6271  -36.6317  -12.1516 C   0  0  0  0  0  0  0  0  0  0  0  0
  -10.3189  -37.2497  -13.4755 C   0  0  0  0  0  0  0  0  0  0  0  0
  -10.3011  -38.7493  -13.4912 C   0  0  0  0  0  0  0  0  0  0  0  0
  -11.1358  -39.3926  -12.4489 C   0  0  0  0  0  0  0  0  0  0  0  0
  -11.9427  -40.5204  -12.9209 N   0  0  0  0  0  0  0  0  0  0  0  0
  -13.2165  -40.9845  -12.4503 C   0  0  0  0  0  0  0  0  0  0  0  0
  -14.3679  -40.3034  -12.1292 C   0  0  0  0  0  0  0  0  0  0  0  0
  -15.4285  -41.0368  -11.6250 C   0  0  0  0  0  0  0  0  0  0  0  0
  -15.3117  -42.4414  -11.4630 C   0  0  0  0  0  0  0  0  0  0  0  0
  -14.1806  -43.1437  -11.7799 C   0  0  0  0  0  0  0  0  0  0  0  0
  -13.1499  -42.3925  -12.2697 C   0  0  0  0  0  0  0  0  0  0  0  0
  -16.7417  -40.6052  -11.1147 C   0  0  0  0  0  0  0  0  0  0  0  0
  -17.7525  -41.3385  -11.4673 O   0  0  0  0  0  0  0  0  0  0  0  0
  -17.0779  -39.5001  -10.2833 N   0  0  0  0  0  0  0  0  0  0  0  0
  1  2  1  0
  2  3  1  0
  2  4  1  0
  4  5  2  0
  5  6  1  0
  6  7  2  0
  7  8  1  0
  8  9  2  0
  6 10  1  0
 10 11  1  0
 10 12  1  0
 10 13  1  0
 13 14  1  0
 14 15  1  0
 15 16  1  6
 15 17  1  0
 17 18  1  1
 18 19  1  0
 19 20  1  6
 19 21  1  0
 21 22  1  0
 22 23  1  0
 23 24  1  0
 24 25  1  0
 25 26  1  0
 26 27  1  0
 27 28  1  0
 28 29  1  0
 29 30  2  0
 30 31  1  0
 31 32  2  0
 32 33  1  0
 33 34  2  0
 31 35  1  0
 35 36  2  0
 35 37  1  0
  9  4  1  0
 34 29  1  0
 37 17  1  0
M  END
$$$$
