
     RDKit          3D

 37 39  0  0  0  0  0  0  0  0999 V2000
  -13.0091  -33.6840  -10.9536 C   0  0  0  0  0  0  0  0  0  0  0  0
  -14.2874  -34.2555  -11.5184 C   0  0  0  0  0  0  0  0  0  0  0  0
  -15.2868  -34.4115  -10.3694 C   0  0  0  0  0  0  0  0  0  0  0  0
  -14.0201  -35.6477  -11.9848 C   0  0  0  0  0  0  0  0  0  0  0  0
  -14.0212  -36.7182  -11.1021 C   0  0  0  0  0  0  0  0  0  0  0  0
  -13.7708  -38.0016  -11.5232 C   0  0  0  0  0  0  0  0  0  0  0  0
  -13.5192  -38.1649  -12.8666 C   0  0  0  0  0  0  0  0  0  0  0  0
  -13.5097  -37.1366  -13.7629 C   0  0  0  0  0  0  0  0  0  0  0  0
  -13.7669  -35.8379  -13.3149 C   0  0  0  0  0  0  0  0  0  0  0  0
  -13.7466  -39.1763  -10.5773 C   0  0  0  0  0  0  0  0  0  0  0  0
  -12.3456  -39.3310  -10.0819 C   0  0  0  0  0  0  0  0  0  0  0  0
  -14.1311  -40.3833  -11.3590 C   0  0  0  0  0  0  0  0  0  0  0  0
  -14.6120  -38.9176   -9.4498 N   0  0  0  0  0  0  0  0  0  0  0  0
  -15.6079  -39.9396   -9.3549 C   0  0  0  0  0  0  0  0  0  0  0  0
  -16.9451  -39.3069   -8.9339 C   0  0  1  0  0  0  0  0  0  0  0  0
  -17.7859  -39.3625  -10.0432 O   0  0  0  0  0  0  0  0  0  0  0  0
  -17.5236  -39.8760   -7.7003 C   0  0  2  0  0  0  0  0  0  0  0  0
  -17.9546  -38.9145   -6.6648 C   0  0  0  0  0  0  0  0  0  0  0  0
  -19.1704  -38.0843   -6.9730 C   0  0  2  0  0  0  0  0  0  0  0  0
  -19.3058  -37.0800   -5.8231 C   0  0  0  0  0  0  0  0  0  0  0  0
  -20.3725  -38.9921   -6.8759 C   0  0  0  0  0  0  0  0  0  0  0  0
  -21.6726  -38.2143   -6.9919 C   0  0  0  0  0  0  0  0  0  0  0  0
  -22.7362  -38.8832   -6.1483 C   0  0  0  0  0  0  0  0  0  0  0  0
  -23.7844  -39.5784   -6.9638 C   0  0  0  0  0  0  0  0  0  0  0  0
  -24.3576  -40.7792   -6.2862 C   0  0  0  0  0  0  0  0  0  0  0  0
  -24.0312  -42.0930   -6.9321 C   0  0  0  0  0  0  0  0  0  0  0  0
  -22.7758  -42.1045   -7.7198 C   0  0  0  0  0  0  0  0  0  0  0  0
  -21.9302  -43.2814   -7.5065 N   0  0  0  0  0  0  0  0  0  0  0  0
  -20.5017  -43.3976   -7.5796 C   0  0  0  0  0  0  0  0  0  0  0  0
  -19.4998  -42.5957   -7.0834 C   0  0  0  0  0  0  0  0  0  0  0  0
  -18.1931  -42.9395   -7.3857 C   0  0  0  0  0  0  0  0  0  0  0  0
  -17.9213  -44.0878   -8.1731 C   0  0  0  0  0  0  0  0  0  0  0  0
  -18.8982  -44.9051   -8.6738 C   0  0  0  0  0  0  0  0  0  0  0  0
  -20.1769  -44.5376   -8.3635 C   0  0  0  0  0  0  0  0  0  0  0  0
  -16.9233  -42.2548   -7.0860 C   0  0  0  0  0  0  0  0  0  0  0  0
  -15.9432  -43.0206   -6.7163 O   0  0  0  0  0  0  0  0  0  0  0  0
  -16.5989  -40.8701   -7.1431 N   0  0  0  0  0  0  0  0  0  0  0  0
  1  2  1  0
  2  3  1  0
  2  4  1  0
  4  5  2  0
  5  6  1  0
  6  7  2  0
  7  8  1  0
  8  9  2  0
  6 10  1  0
 10 11  1  0
 10 12  1  0
 10 13  1  0
 13 14  1  0
 14 15  1  0
 15 16  1  6
 15 17  1  0
 17 18  1  1
 18 19  1  0
 19 20  1  1
 19 21  1  0
 21 22  1  0
 22 23  1  0
 23 24  1  0
 24 25  1  0
 25 26  1  0
 26 27  1  0
 27 28  1  0
 28 29  1  0
 29 30  2  0
 30 31  1  0
 31 32  2  0
 32 33  1  0
 33 34  2  0
 31 35  1  0
 35 36  2  0
 35 37  1  0
  9  4  1  0
 34 29  1  0
 37 17  1  0
M  END
$$$$
