
     RDKit          3D

 37 39  0  0  0  0  0  0  0  0999 V2000
  -23.7712  -39.8731   -9.5891 C   0  0  0  0  0  0  0  0  0  0  0  0
  -23.5911  -41.2965  -10.0592 C   0  0  0  0  0  0  0  0  0  0  0  0
  -24.7500  -42.1300   -9.5064 C   0  0  0  0  0  0  0  0  0  0  0  0
  -22.3708  -41.8602   -9.4109 C   0  0  0  0  0  0  0  0  0  0  0  0
  -21.7794  -41.2388   -8.3204 C   0  0  0  0  0  0  0  0  0  0  0  0
  -20.6531  -41.7489   -7.7218 C   0  0  0  0  0  0  0  0  0  0  0  0
  -20.1457  -42.9080   -8.2638 C   0  0  0  0  0  0  0  0  0  0  0  0
  -20.7000  -43.5460   -9.3346 C   0  0  0  0  0  0  0  0  0  0  0  0
  -21.8460  -43.0112   -9.9298 C   0  0  0  0  0  0  0  0  0  0  0  0
  -19.9824  -41.0782   -6.5490 C   0  0  0  0  0  0  0  0  0  0  0  0
  -20.2938  -41.8814   -5.3282 C   0  0  0  0  0  0  0  0  0  0  0  0
  -20.5786  -39.7210   -6.4135 C   0  0  0  0  0  0  0  0  0  0  0  0
  -18.5509  -41.0644   -6.7431 N   0  0  0  0  0  0  0  0  0  0  0  0
  -18.0979  -39.7216   -6.9357 C   0  0  0  0  0  0  0  0  0  0  0  0
  -16.7351  -39.7436   -7.6483 C   0  0  1  0  0  0  0  0  0  0  0  0
  -16.8423  -40.6529   -8.6983 O   0  0  0  0  0  0  0  0  0  0  0  0
  -16.2355  -38.4114   -8.0431 C   0  0  2  0  0  0  0  0  0  0  0  0
  -14.8996  -38.0285   -7.5416 C   0  0  0  0  0  0  0  0  0  0  0  0
  -13.7205  -38.7562   -8.1269 C   0  0  2  0  0  0  0  0  0  0  0  0
  -12.4933  -38.2878   -7.3370 C   0  0  0  0  0  0  0  0  0  0  0  0
  -13.5289  -38.2453   -9.5343 C   0  0  0  0  0  0  0  0  0  0  0  0
  -12.2516  -38.7838  -10.1567 C   0  0  0  0  0  0  0  0  0  0  0  0
  -11.6776  -37.7504  -11.1015 C   0  0  0  0  0  0  0  0  0  0  0  0
  -11.8221  -38.1269  -12.5452 C   0  0  0  0  0  0  0  0  0  0  0  0
  -11.9748  -36.9482  -13.4490 C   0  0  0  0  0  0  0  0  0  0  0  0
  -13.3155  -36.8195  -14.1089 C   0  0  0  0  0  0  0  0  0  0  0  0
  -14.4355  -37.4505  -13.3712 C   0  0  0  0  0  0  0  0  0  0  0  0
  -15.6520  -36.6382  -13.2936 N   0  0  0  0  0  0  0  0  0  0  0  0
  -16.6513  -36.5969  -12.2644 C   0  0  0  0  0  0  0  0  0  0  0  0
  -16.5405  -36.5505  -10.8939 C   0  0  0  0  0  0  0  0  0  0  0  0
  -17.7096  -36.5932  -10.1533 C   0  0  0  0  0  0  0  0  0  0  0  0
  -18.9660  -36.6724  -10.8073 C   0  0  0  0  0  0  0  0  0  0  0  0
  -19.1045  -36.7140  -12.1682 C   0  0  0  0  0  0  0  0  0  0  0  0
  -17.9338  -36.6757  -12.8714 C   0  0  0  0  0  0  0  0  0  0  0  0
  -17.9255  -36.6471   -8.6967 C   0  0  0  0  0  0  0  0  0  0  0  0
  -18.8893  -35.9069   -8.2417 O   0  0  0  0  0  0  0  0  0  0  0  0
  -17.2373  -37.3952   -7.7005 N   0  0  0  0  0  0  0  0  0  0  0  0
  1  2  1  0
  2  3  1  0
  2  4  1  0
  4  5  2  0
  5  6  1  0
  6  7  2  0
  7  8  1  0
  8  9  2  0
  6 10  1  0
 10 11  1  0
 10 12  1  0
 10 13  1  0
 13 14  1  0
 14 15  1  0
 15 16  1  6
 15 17  1  0
 17 18  1  1
 18 19  1  0
 19 20  1  1
 19 21  1  0
 21 22  1  0
 22 23  1  0
 23 24  1  0
 24 25  1  0
 25 26  1  0
 26 27  1  0
 27 28  1  0
 28 29  1  0
 29 30  2  0
 30 31  1  0
 31 32  2  0
 32 33  1  0
 33 34  2  0
 31 35  1  0
 35 36  2  0
 35 37  1  0
  9  4  1  0
 34 29  1  0
 37 17  1  0
M  END
$$$$
