
     RDKit          3D

 37 39  0  0  0  0  0  0  0  0999 V2000
  -24.3712  -39.8353   -7.5364 C   0  0  0  0  0  0  0  0  0  0  0  0
  -24.2956  -40.8031   -6.3801 C   0  0  0  0  0  0  0  0  0  0  0  0
  -25.2766  -40.3340   -5.3026 C   0  0  0  0  0  0  0  0  0  0  0  0
  -22.9485  -40.6850   -5.7488 C   0  0  0  0  0  0  0  0  0  0  0  0
  -21.9646  -39.8717   -6.2924 C   0  0  0  0  0  0  0  0  0  0  0  0
  -20.7206  -39.7620   -5.7200 C   0  0  0  0  0  0  0  0  0  0  0  0
  -20.5061  -40.5029   -4.5798 C   0  0  0  0  0  0  0  0  0  0  0  0
  -21.4491  -41.3125   -4.0176 C   0  0  0  0  0  0  0  0  0  0  0  0
  -22.7089  -41.4107   -4.6150 C   0  0  0  0  0  0  0  0  0  0  0  0
  -19.6302  -38.9003   -6.3061 C   0  0  0  0  0  0  0  0  0  0  0  0
  -19.9984  -37.4733   -6.0602 C   0  0  0  0  0  0  0  0  0  0  0  0
  -19.6006  -39.1580   -7.7718 C   0  0  0  0  0  0  0  0  0  0  0  0
  -18.3760  -39.1768   -5.6447 N   0  0  0  0  0  0  0  0  0  0  0  0
  -17.5305  -39.9457   -6.5045 C   0  0  0  0  0  0  0  0  0  0  0  0
  -16.5621  -39.0029   -7.2387 C   0  0  1  0  0  0  0  0  0  0  0  0
  -15.2771  -39.3307   -6.8121 O   0  0  0  0  0  0  0  0  0  0  0  0
  -16.7315  -38.9814   -8.7054 C   0  0  2  0  0  0  0  0  0  0  0  0
  -16.9218  -37.6571   -9.3319 C   0  0  0  0  0  0  0  0  0  0  0  0
  -15.7304  -36.7392   -9.3543 C   0  0  2  0  0  0  0  0  0  0  0  0
  -16.2316  -35.4006   -9.9077 C   0  0  0  0  0  0  0  0  0  0  0  0
  -14.7651  -37.2787  -10.3818 C   0  0  0  0  0  0  0  0  0  0  0  0
  -13.6051  -36.3254  -10.6154 C   0  0  0  0  0  0  0  0  0  0  0  0
  -13.1560  -36.4230  -12.0573 C   0  0  0  0  0  0  0  0  0  0  0  0
  -11.8335  -37.1101  -12.2174 C   0  0  0  0  0  0  0  0  0  0  0  0
  -11.7096  -37.8567  -13.5046 C   0  0  0  0  0  0  0  0  0  0  0  0
  -11.6387  -39.3491  -13.3725 C   0  0  0  0  0  0  0  0  0  0  0  0
  -12.2789  -39.8971  -12.1532 C   0  0  0  0  0  0  0  0  0  0  0  0
  -13.1062  -41.0849  -12.3776 N   0  0  0  0  0  0  0  0  0  0  0  0
  -14.2745  -41.5239  -11.6691 C   0  0  0  0  0  0  0  0  0  0  0  0
  -15.3875  -40.8373  -11.2415 C   0  0  0  0  0  0  0  0  0  0  0  0
  -16.3300  -41.5361  -10.5065 C   0  0  0  0  0  0  0  0  0  0  0  0
  -16.1376  -42.9132  -10.2249 C   0  0  0  0  0  0  0  0  0  0  0  0
  -15.0433  -43.6209  -10.6431 C   0  0  0  0  0  0  0  0  0  0  0  0
  -14.1288  -42.9035  -11.3610 C   0  0  0  0  0  0  0  0  0  0  0  0
  -17.5643  -41.0812   -9.8427 C   0  0  0  0  0  0  0  0  0  0  0  0
  -18.5894  -41.8686   -9.9573 O   0  0  0  0  0  0  0  0  0  0  0  0
  -17.8097  -39.9024   -9.0839 N   0  0  0  0  0  0  0  0  0  0  0  0
  1  2  1  0
  2  3  1  0
  2  4  1  0
  4  5  2  0
  5  6  1  0
  6  7  2  0
  7  8  1  0
  8  9  2  0
  6 10  1  0
 10 11  1  0
 10 12  1  0
 10 13  1  0
 13 14  1  0
 14 15  1  0
 15 16  1  6
 15 17  1  0
 17 18  1  1
 18 19  1  0
 19 20  1  6
 19 21  1  0
 21 22  1  0
 22 23  1  0
 23 24  1  0
 24 25  1  0
 25 26  1  0
 26 27  1  0
 27 28  1  0
 28 29  1  0
 29 30  2  0
 30 31  1  0
 31 32  2  0
 32 33  1  0
 33 34  2  0
 31 35  1  0
 35 36  2  0
 35 37  1  0
  9  4  1  0
 34 29  1  0
 37 17  1  0
M  END
$$$$
