
     RDKit          3D

 37 39  0  0  0  0  0  0  0  0999 V2000
  -13.4742  -34.5230  -12.6595 C   0  0  0  0  0  0  0  0  0  0  0  0
  -14.4545  -35.6418  -12.9176 C   0  0  0  0  0  0  0  0  0  0  0  0
  -15.4935  -35.6323  -11.7935 C   0  0  0  0  0  0  0  0  0  0  0  0
  -13.7402  -36.9435  -12.7677 C   0  0  0  0  0  0  0  0  0  0  0  0
  -13.8914  -37.7238  -11.6304 C   0  0  0  0  0  0  0  0  0  0  0  0
  -13.2331  -38.9205  -11.4830 C   0  0  0  0  0  0  0  0  0  0  0  0
  -12.4170  -39.3004  -12.5244 C   0  0  0  0  0  0  0  0  0  0  0  0
  -12.2442  -38.5593  -13.6566 C   0  0  0  0  0  0  0  0  0  0  0  0
  -12.9228  -37.3445  -13.7878 C   0  0  0  0  0  0  0  0  0  0  0  0
  -13.3669  -39.7739  -10.2465 C   0  0  0  0  0  0  0  0  0  0  0  0
  -12.0154  -39.8772   -9.6181 C   0  0  0  0  0  0  0  0  0  0  0  0
  -13.8129  -41.1245  -10.6856 C   0  0  0  0  0  0  0  0  0  0  0  0
  -14.2678  -39.1437   -9.3093 N   0  0  0  0  0  0  0  0  0  0  0  0
  -15.5356  -39.8053   -9.3315 C   0  0  0  0  0  0  0  0  0  0  0  0
  -16.4886  -39.1081   -8.3459 C   0  0  1  0  0  0  0  0  0  0  0  0
  -17.0859  -38.0559   -9.0364 O   0  0  0  0  0  0  0  0  0  0  0  0
  -17.4402  -40.0171   -7.6764 C   0  0  2  0  0  0  0  0  0  0  0  0
  -18.2027  -39.4599   -6.5403 C   0  0  0  0  0  0  0  0  0  0  0  0
  -19.2541  -38.4347   -6.8659 C   0  0  2  0  0  0  0  0  0  0  0  0
  -19.7767  -37.9156   -5.5218 C   0  0  0  0  0  0  0  0  0  0  0  0
  -20.4099  -39.1629   -7.5082 C   0  0  0  0  0  0  0  0  0  0  0  0
  -21.6046  -38.2467   -7.7136 C   0  0  0  0  0  0  0  0  0  0  0  0
  -22.8819  -39.0459   -7.5726 C   0  0  0  0  0  0  0  0  0  0  0  0
  -23.5897  -39.2607   -8.8764 C   0  0  0  0  0  0  0  0  0  0  0  0
  -24.3438  -40.5483   -8.9321 C   0  0  0  0  0  0  0  0  0  0  0  0
  -23.8066  -41.5612   -9.8991 C   0  0  0  0  0  0  0  0  0  0  0  0
  -22.3599  -41.4329  -10.1952 C   0  0  0  0  0  0  0  0  0  0  0  0
  -21.6220  -42.6983  -10.2016 N   0  0  0  0  0  0  0  0  0  0  0  0
  -20.2501  -42.9503   -9.8641 C   0  0  0  0  0  0  0  0  0  0  0  0
  -19.4803  -42.5141   -8.8105 C   0  0  0  0  0  0  0  0  0  0  0  0
  -18.1442  -42.8769   -8.7980 C   0  0  0  0  0  0  0  0  0  0  0  0
  -17.6127  -43.6786   -9.8408 C   0  0  0  0  0  0  0  0  0  0  0  0
  -18.3573  -44.1304  -10.8965 C   0  0  0  0  0  0  0  0  0  0  0  0
  -19.6700  -43.7520  -10.8841 C   0  0  0  0  0  0  0  0  0  0  0  0
  -17.0549  -42.5086   -7.8767 C   0  0  0  0  0  0  0  0  0  0  0  0
  -16.2468  -43.4687   -7.5464 O   0  0  0  0  0  0  0  0  0  0  0  0
  -16.7446  -41.2500   -7.2891 N   0  0  0  0  0  0  0  0  0  0  0  0
  1  2  1  0
  2  3  1  0
  2  4  1  0
  4  5  2  0
  5  6  1  0
  6  7  2  0
  7  8  1  0
  8  9  2  0
  6 10  1  0
 10 11  1  0
 10 12  1  0
 10 13  1  0
 13 14  1  0
 14 15  1  0
 15 16  1  6
 15 17  1  0
 17 18  1  1
 18 19  1  0
 19 20  1  1
 19 21  1  0
 21 22  1  0
 22 23  1  0
 23 24  1  0
 24 25  1  0
 25 26  1  0
 26 27  1  0
 27 28  1  0
 28 29  1  0
 29 30  2  0
 30 31  1  0
 31 32  2  0
 32 33  1  0
 33 34  2  0
 31 35  1  0
 35 36  2  0
 35 37  1  0
  9  4  1  0
 34 29  1  0
 37 17  1  0
M  END
$$$$
