
     RDKit          3D

 37 39  0  0  0  0  0  0  0  0999 V2000
  -15.6562  -33.6403  -11.8587 C   0  0  0  0  0  0  0  0  0  0  0  0
  -17.1571  -33.5174  -11.7494 C   0  0  0  0  0  0  0  0  0  0  0  0
  -17.4782  -32.1598  -11.1192 C   0  0  0  0  0  0  0  0  0  0  0  0
  -17.6456  -34.5233  -10.7612 C   0  0  0  0  0  0  0  0  0  0  0  0
  -18.1929  -35.7310  -11.1699 C   0  0  0  0  0  0  0  0  0  0  0  0
  -18.6495  -36.6594  -10.2662 C   0  0  0  0  0  0  0  0  0  0  0  0
  -18.5338  -36.3246   -8.9361 C   0  0  0  0  0  0  0  0  0  0  0  0
  -18.0016  -35.1475   -8.4979 C   0  0  0  0  0  0  0  0  0  0  0  0
  -17.5425  -34.2156   -9.4329 C   0  0  0  0  0  0  0  0  0  0  0  0
  -19.2668  -37.9690  -10.6894 C   0  0  0  0  0  0  0  0  0  0  0  0
  -19.8637  -37.7721  -12.0448 C   0  0  0  0  0  0  0  0  0  0  0  0
  -20.3464  -38.2861   -9.7148 C   0  0  0  0  0  0  0  0  0  0  0  0
  -18.2469  -38.9885  -10.7747 N   0  0  0  0  0  0  0  0  0  0  0  0
  -18.0248  -39.5653   -9.4850 C   0  0  0  0  0  0  0  0  0  0  0  0
  -16.5516  -39.9913   -9.3670 C   0  0  1  0  0  0  0  0  0  0  0  0
  -16.3390  -40.3484   -8.0374 O   0  0  0  0  0  0  0  0  0  0  0  0
  -16.1354  -41.0136  -10.3477 C   0  0  2  0  0  0  0  0  0  0  0  0
  -14.7246  -40.9782  -10.7847 C   0  0  0  0  0  0  0  0  0  0  0  0
  -13.6895  -41.3830   -9.7713 C   0  0  2  0  0  0  0  0  0  0  0  0
  -12.3271  -41.1120  -10.4190 C   0  0  0  0  0  0  0  0  0  0  0  0
  -13.7813  -42.8807   -9.6069 C   0  0  0  0  0  0  0  0  0  0  0  0
  -12.6566  -43.4189   -8.7384 C   0  0  0  0  0  0  0  0  0  0  0  0
  -12.2788  -44.8073   -9.2073 C   0  0  0  0  0  0  0  0  0  0  0  0
  -12.7109  -45.8867   -8.2613 C   0  0  0  0  0  0  0  0  0  0  0  0
  -13.0364  -47.1737   -8.9451 C   0  0  0  0  0  0  0  0  0  0  0  0
  -14.4814  -47.5727   -8.8998 C   0  0  0  0  0  0  0  0  0  0  0  0
  -15.4339  -46.4466   -8.7533 C   0  0  0  0  0  0  0  0  0  0  0  0
  -16.6067  -46.5192   -9.6278 N   0  0  0  0  0  0  0  0  0  0  0  0
  -17.3797  -45.4537  -10.1993 C   0  0  0  0  0  0  0  0  0  0  0  0
  -16.9967  -44.2874  -10.8205 C   0  0  0  0  0  0  0  0  0  0  0  0
  -17.9941  -43.4088  -11.2080 C   0  0  0  0  0  0  0  0  0  0  0  0
  -19.3563  -43.7261  -10.9708 C   0  0  0  0  0  0  0  0  0  0  0  0
  -19.7645  -44.8812  -10.3607 C   0  0  0  0  0  0  0  0  0  0  0  0
  -18.7581  -45.7253   -9.9851 C   0  0  0  0  0  0  0  0  0  0  0  0
  -17.9145  -42.0645  -11.8061 C   0  0  0  0  0  0  0  0  0  0  0  0
  -18.7646  -41.8181  -12.7550 O   0  0  0  0  0  0  0  0  0  0  0  0
  -17.0441  -40.9809  -11.4997 N   0  0  0  0  0  0  0  0  0  0  0  0
  1  2  1  0
  2  3  1  0
  2  4  1  0
  4  5  2  0
  5  6  1  0
  6  7  2  0
  7  8  1  0
  8  9  2  0
  6 10  1  0
 10 11  1  0
 10 12  1  0
 10 13  1  0
 13 14  1  0
 14 15  1  0
 15 16  1  1
 15 17  1  0
 17 18  1  6
 18 19  1  0
 19 20  1  6
 19 21  1  0
 21 22  1  0
 22 23  1  0
 23 24  1  0
 24 25  1  0
 25 26  1  0
 26 27  1  0
 27 28  1  0
 28 29  1  0
 29 30  2  0
 30 31  1  0
 31 32  2  0
 32 33  1  0
 33 34  2  0
 31 35  1  0
 35 36  2  0
 35 37  1  0
  9  4  1  0
 34 29  1  0
 37 17  1  0
M  END
$$$$
