
     RDKit          3D

 37 39  0  0  0  0  0  0  0  0999 V2000
  -11.0918  -40.6819   -9.2700 C   0  0  0  0  0  0  0  0  0  0  0  0
  -10.5668  -40.5111  -10.6752 C   0  0  0  0  0  0  0  0  0  0  0  0
   -9.1901  -39.8468  -10.5910 C   0  0  0  0  0  0  0  0  0  0  0  0
  -11.4268  -39.5204  -11.3867 C   0  0  0  0  0  0  0  0  0  0  0  0
  -12.5712  -39.0023  -10.7975 C   0  0  0  0  0  0  0  0  0  0  0  0
  -13.3705  -38.0942  -11.4483 C   0  0  0  0  0  0  0  0  0  0  0  0
  -12.9732  -37.7286  -12.7145 C   0  0  0  0  0  0  0  0  0  0  0  0
  -11.8552  -38.2170  -13.3249 C   0  0  0  0  0  0  0  0  0  0  0  0
  -11.0548  -39.1402  -12.6463 C   0  0  0  0  0  0  0  0  0  0  0  0
  -14.6296  -37.5345  -10.8346 C   0  0  0  0  0  0  0  0  0  0  0  0
  -15.7686  -37.8873  -11.7348 C   0  0  0  0  0  0  0  0  0  0  0  0
  -14.4788  -36.0545  -10.7844 C   0  0  0  0  0  0  0  0  0  0  0  0
  -14.8561  -38.1370   -9.5412 N   0  0  0  0  0  0  0  0  0  0  0  0
  -16.0921  -38.8563   -9.5481 C   0  0  0  0  0  0  0  0  0  0  0  0
  -16.8845  -38.5149   -8.2748 C   0  0  1  0  0  0  0  0  0  0  0  0
  -17.7603  -37.4840   -8.6076 O   0  0  0  0  0  0  0  0  0  0  0  0
  -17.5271  -39.6776   -7.6302 C   0  0  2  0  0  0  0  0  0  0  0  0
  -18.3989  -39.3958   -6.4713 C   0  0  0  0  0  0  0  0  0  0  0  0
  -19.7038  -38.7039   -6.7557 C   0  0  2  0  0  0  0  0  0  0  0  0
  -20.3316  -38.3965   -5.3917 C   0  0  0  0  0  0  0  0  0  0  0  0
  -20.6140  -39.7117   -7.4148 C   0  0  0  0  0  0  0  0  0  0  0  0
  -22.0233  -39.1686   -7.5819 C   0  0  0  0  0  0  0  0  0  0  0  0
  -23.0175  -40.3030   -7.4597 C   0  0  0  0  0  0  0  0  0  0  0  0
  -23.6550  -40.6711   -8.7655 C   0  0  0  0  0  0  0  0  0  0  0  0
  -24.0118  -42.1180   -8.8597 C   0  0  0  0  0  0  0  0  0  0  0  0
  -23.2233  -42.9056   -9.8634 C   0  0  0  0  0  0  0  0  0  0  0  0
  -21.8780  -42.3610  -10.1641 C   0  0  0  0  0  0  0  0  0  0  0  0
  -20.8103  -43.3625  -10.2176 N   0  0  0  0  0  0  0  0  0  0  0  0
  -19.4184  -43.2227   -9.8974 C   0  0  0  0  0  0  0  0  0  0  0  0
  -18.7885  -42.6172   -8.8347 C   0  0  0  0  0  0  0  0  0  0  0  0
  -17.4043  -42.5839   -8.8427 C   0  0  0  0  0  0  0  0  0  0  0  0
  -16.6828  -43.1686   -9.9151 C   0  0  0  0  0  0  0  0  0  0  0  0
  -17.2841  -43.7818  -10.9806 C   0  0  0  0  0  0  0  0  0  0  0  0
  -18.6498  -43.7942  -10.9473 C   0  0  0  0  0  0  0  0  0  0  0  0
  -16.4509  -41.9483   -7.9164 C   0  0  0  0  0  0  0  0  0  0  0  0
  -15.3977  -42.6475   -7.6236 O   0  0  0  0  0  0  0  0  0  0  0  0
  -16.5030  -40.6719   -7.2889 N   0  0  0  0  0  0  0  0  0  0  0  0
  1  2  1  0
  2  3  1  0
  2  4  1  0
  4  5  2  0
  5  6  1  0
  6  7  2  0
  7  8  1  0
  8  9  2  0
  6 10  1  0
 10 11  1  0
 10 12  1  0
 10 13  1  0
 13 14  1  0
 14 15  1  0
 15 16  1  6
 15 17  1  0
 17 18  1  1
 18 19  1  0
 19 20  1  1
 19 21  1  0
 21 22  1  0
 22 23  1  0
 23 24  1  0
 24 25  1  0
 25 26  1  0
 26 27  1  0
 27 28  1  0
 28 29  1  0
 29 30  2  0
 30 31  1  0
 31 32  2  0
 32 33  1  0
 33 34  2  0
 31 35  1  0
 35 36  2  0
 35 37  1  0
  9  4  1  0
 34 29  1  0
 37 17  1  0
M  END
$$$$
