
     RDKit          3D

 37 39  0  0  0  0  0  0  0  0999 V2000
  -19.6401  -38.1302   -3.1532 C   0  0  0  0  0  0  0  0  0  0  0  0
  -20.6847  -39.1208   -3.6086 C   0  0  0  0  0  0  0  0  0  0  0  0
  -20.3254  -40.4910   -3.0283 C   0  0  0  0  0  0  0  0  0  0  0  0
  -20.5681  -39.2885   -5.0869 C   0  0  0  0  0  0  0  0  0  0  0  0
  -19.3439  -39.1840   -5.7316 C   0  0  0  0  0  0  0  0  0  0  0  0
  -19.2296  -39.3320   -7.0925 C   0  0  0  0  0  0  0  0  0  0  0  0
  -20.3951  -39.5888   -7.7785 C   0  0  0  0  0  0  0  0  0  0  0  0
  -21.6153  -39.6980   -7.1784 C   0  0  0  0  0  0  0  0  0  0  0  0
  -21.7110  -39.5443   -5.7925 C   0  0  0  0  0  0  0  0  0  0  0  0
  -17.9123  -39.2016   -7.8156 C   0  0  0  0  0  0  0  0  0  0  0  0
  -16.9278  -38.6082   -6.8613 C   0  0  0  0  0  0  0  0  0  0  0  0
  -18.1222  -38.2669   -8.9549 C   0  0  0  0  0  0  0  0  0  0  0  0
  -17.4408  -40.5067   -8.2175 N   0  0  0  0  0  0  0  0  0  0  0  0
  -18.1220  -41.5214   -7.4748 C   0  0  0  0  0  0  0  0  0  0  0  0
  -19.1904  -42.1731   -8.3689 C   0  0  1  0  0  0  0  0  0  0  0  0
  -18.5226  -43.0405   -9.2305 O   0  0  0  0  0  0  0  0  0  0  0  0
  -20.3080  -42.7901   -7.6270 C   0  0  2  0  0  0  0  0  0  0  0  0
  -21.4125  -41.8947   -7.2258 C   0  0  0  0  0  0  0  0  0  0  0  0
  -22.2967  -41.3728   -8.3249 C   0  0  2  0  0  0  0  0  0  0  0  0
  -23.2456  -40.3640   -7.6684 C   0  0  0  0  0  0  0  0  0  0  0  0
  -23.1635  -42.5183   -8.7884 C   0  0  0  0  0  0  0  0  0  0  0  0
  -24.2227  -42.0559   -9.7749 C   0  0  0  0  0  0  0  0  0  0  0  0
  -25.4686  -42.8985   -9.6074 C   0  0  0  0  0  0  0  0  0  0  0  0
  -25.6926  -43.8514  -10.7427 C   0  0  0  0  0  0  0  0  0  0  0  0
  -26.3772  -45.1118  -10.3275 C   0  0  0  0  0  0  0  0  0  0  0  0
  -25.5397  -46.3527  -10.4185 C   0  0  0  0  0  0  0  0  0  0  0  0
  -24.0788  -46.1270  -10.3100 C   0  0  0  0  0  0  0  0  0  0  0  0
  -23.3762  -47.0737   -9.4407 N   0  0  0  0  0  0  0  0  0  0  0  0
  -22.1981  -46.8735   -8.6460 C   0  0  0  0  0  0  0  0  0  0  0  0
  -21.8322  -45.8441   -7.8098 C   0  0  0  0  0  0  0  0  0  0  0  0
  -20.5773  -45.9046   -7.2279 C   0  0  0  0  0  0  0  0  0  0  0  0
  -19.7206  -47.0040   -7.4920 C   0  0  0  0  0  0  0  0  0  0  0  0
  -20.0620  -48.0433   -8.3144 C   0  0  0  0  0  0  0  0  0  0  0  0
  -21.3033  -47.9529   -8.8779 C   0  0  0  0  0  0  0  0  0  0  0  0
  -19.8656  -44.9402   -6.3709 C   0  0  0  0  0  0  0  0  0  0  0  0
  -19.2123  -45.4486   -5.3716 O   0  0  0  0  0  0  0  0  0  0  0  0
  -19.7785  -43.5231   -6.4711 N   0  0  0  0  0  0  0  0  0  0  0  0
  1  2  1  0
  2  3  1  0
  2  4  1  0
  4  5  2  0
  5  6  1  0
  6  7  2  0
  7  8  1  0
  8  9  2  0
  6 10  1  0
 10 11  1  0
 10 12  1  0
 10 13  1  0
 13 14  1  0
 14 15  1  0
 15 16  1  1
 15 17  1  0
 17 18  1  1
 18 19  1  0
 19 20  1  1
 19 21  1  0
 21 22  1  0
 22 23  1  0
 23 24  1  0
 24 25  1  0
 25 26  1  0
 26 27  1  0
 27 28  1  0
 28 29  1  0
 29 30  2  0
 30 31  1  0
 31 32  2  0
 32 33  1  0
 33 34  2  0
 31 35  1  0
 35 36  2  0
 35 37  1  0
  9  4  1  0
 34 29  1  0
 37 17  1  0
M  END
$$$$
