
     RDKit          3D

 37 39  0  0  0  0  0  0  0  0999 V2000
  -18.7439  -36.4346  -12.7608 C   0  0  0  0  0  0  0  0  0  0  0  0
  -20.1937  -36.1944  -12.4146 C   0  0  0  0  0  0  0  0  0  0  0  0
  -20.3317  -34.7523  -11.9201 C   0  0  0  0  0  0  0  0  0  0  0  0
  -20.5470  -37.0387  -11.2358 C   0  0  0  0  0  0  0  0  0  0  0  0
  -19.8465  -36.9423  -10.0421 C   0  0  0  0  0  0  0  0  0  0  0  0
  -20.1625  -37.7199   -8.9546 C   0  0  0  0  0  0  0  0  0  0  0  0
  -21.2103  -38.5979   -9.1160 C   0  0  0  0  0  0  0  0  0  0  0  0
  -21.9210  -38.7198  -10.2740 C   0  0  0  0  0  0  0  0  0  0  0  0
  -21.5841  -37.9197  -11.3694 C   0  0  0  0  0  0  0  0  0  0  0  0
  -19.4009  -37.6460   -7.6548 C   0  0  0  0  0  0  0  0  0  0  0  0
  -20.0649  -38.5702   -6.6867 C   0  0  0  0  0  0  0  0  0  0  0  0
  -19.5082  -36.2474   -7.1566 C   0  0  0  0  0  0  0  0  0  0  0  0
  -18.0395  -38.0850   -7.8569 N   0  0  0  0  0  0  0  0  0  0  0  0
  -18.0191  -39.4785   -8.1780 C   0  0  0  0  0  0  0  0  0  0  0  0
  -16.5637  -39.9288   -8.3897 C   0  0  1  0  0  0  0  0  0  0  0  0
  -16.1571  -40.5503   -7.2110 O   0  0  0  0  0  0  0  0  0  0  0  0
  -16.3489  -40.7329   -9.6093 C   0  0  2  0  0  0  0  0  0  0  0  0
  -15.3889  -40.1975  -10.5963 C   0  0  0  0  0  0  0  0  0  0  0  0
  -13.9359  -40.2130  -10.2078 C   0  0  2  0  0  0  0  0  0  0  0  0
  -13.1868  -39.4736  -11.3220 C   0  0  0  0  0  0  0  0  0  0  0  0
  -13.4675  -41.6465  -10.2722 C   0  0  0  0  0  0  0  0  0  0  0  0
  -11.9649  -41.7543  -10.0730 C   0  0  0  0  0  0  0  0  0  0  0  0
  -11.4320  -42.9164  -10.8827 C   0  0  0  0  0  0  0  0  0  0  0  0
  -11.0177  -44.0829  -10.0374 C   0  0  0  0  0  0  0  0  0  0  0  0
  -11.1996  -45.3988  -10.7195 C   0  0  0  0  0  0  0  0  0  0  0  0
  -12.2544  -46.2847  -10.1261 C   0  0  0  0  0  0  0  0  0  0  0  0
  -13.3310  -45.5703   -9.3999 C   0  0  0  0  0  0  0  0  0  0  0  0
  -14.6850  -46.0506   -9.6856 N   0  0  0  0  0  0  0  0  0  0  0  0
  -15.9239  -45.3262   -9.6840 C   0  0  0  0  0  0  0  0  0  0  0  0
  -16.2567  -44.0973  -10.2054 C   0  0  0  0  0  0  0  0  0  0  0  0
  -17.5388  -43.6281   -9.9753 C   0  0  0  0  0  0  0  0  0  0  0  0
  -18.4621  -44.4090   -9.2335 C   0  0  0  0  0  0  0  0  0  0  0  0
  -18.1588  -45.6363   -8.7093 C   0  0  0  0  0  0  0  0  0  0  0  0
  -16.8855  -46.0700   -8.9480 C   0  0  0  0  0  0  0  0  0  0  0  0
  -18.1688  -42.3405  -10.3164 C   0  0  0  0  0  0  0  0  0  0  0  0
  -19.3888  -42.4077  -10.7534 O   0  0  0  0  0  0  0  0  0  0  0  0
  -17.6441  -41.0198  -10.2370 N   0  0  0  0  0  0  0  0  0  0  0  0
  1  2  1  0
  2  3  1  0
  2  4  1  0
  4  5  2  0
  5  6  1  0
  6  7  2  0
  7  8  1  0
  8  9  2  0
  6 10  1  0
 10 11  1  0
 10 12  1  0
 10 13  1  0
 13 14  1  0
 14 15  1  0
 15 16  1  1
 15 17  1  0
 17 18  1  6
 18 19  1  0
 19 20  1  6
 19 21  1  0
 21 22  1  0
 22 23  1  0
 23 24  1  0
 24 25  1  0
 25 26  1  0
 26 27  1  0
 27 28  1  0
 28 29  1  0
 29 30  2  0
 30 31  1  0
 31 32  2  0
 32 33  1  0
 33 34  2  0
 31 35  1  0
 35 36  2  0
 35 37  1  0
  9  4  1  0
 34 29  1  0
 37 17  1  0
M  END
$$$$
