
     RDKit          3D

 37 39  0  0  0  0  0  0  0  0999 V2000
  -13.9187  -34.0178  -10.2436 C   0  0  0  0  0  0  0  0  0  0  0  0
  -12.8441  -34.8076  -10.9514 C   0  0  0  0  0  0  0  0  0  0  0  0
  -12.5198  -34.0959  -12.2674 C   0  0  0  0  0  0  0  0  0  0  0  0
  -13.4135  -36.1254  -11.3592 C   0  0  0  0  0  0  0  0  0  0  0  0
  -13.2227  -37.2641  -10.5898 C   0  0  0  0  0  0  0  0  0  0  0  0
  -13.7392  -38.4816  -10.9615 C   0  0  0  0  0  0  0  0  0  0  0  0
  -14.4546  -38.5077  -12.1372 C   0  0  0  0  0  0  0  0  0  0  0  0
  -14.6621  -37.4091  -12.9187 C   0  0  0  0  0  0  0  0  0  0  0  0
  -14.1284  -36.1793  -12.5235 C   0  0  0  0  0  0  0  0  0  0  0  0
  -13.5261  -39.7356  -10.1508 C   0  0  0  0  0  0  0  0  0  0  0  0
  -12.1842  -39.6337   -9.5019 C   0  0  0  0  0  0  0  0  0  0  0  0
  -13.5312  -40.8831  -11.0990 C   0  0  0  0  0  0  0  0  0  0  0  0
  -14.5341  -39.8323   -9.1205 N   0  0  0  0  0  0  0  0  0  0  0  0
  -15.5707  -38.8769   -9.3612 C   0  0  0  0  0  0  0  0  0  0  0  0
  -16.9264  -39.6016   -9.4116 C   0  0  1  0  0  0  0  0  0  0  0  0
  -16.8340  -40.5631  -10.4154 O   0  0  0  0  0  0  0  0  0  0  0  0
  -17.3848  -40.1221   -8.1081 C   0  0  2  0  0  0  0  0  0  0  0  0
  -17.7797  -39.1212   -7.0958 C   0  0  0  0  0  0  0  0  0  0  0  0
  -19.0513  -38.3602   -7.3535 C   0  0  2  0  0  0  0  0  0  0  0  0
  -19.1451  -37.2980   -6.2526 C   0  0  0  0  0  0  0  0  0  0  0  0
  -20.2007  -39.3091   -7.1149 C   0  0  0  0  0  0  0  0  0  0  0  0
  -21.5395  -38.5928   -7.1719 C   0  0  0  0  0  0  0  0  0  0  0  0
  -22.5058  -39.2550   -6.2138 C   0  0  0  0  0  0  0  0  0  0  0  0
  -23.5798  -40.0378   -6.9070 C   0  0  0  0  0  0  0  0  0  0  0  0
  -24.0461  -41.2201   -6.1233 C   0  0  0  0  0  0  0  0  0  0  0  0
  -23.7104  -42.5544   -6.7205 C   0  0  0  0  0  0  0  0  0  0  0  0
  -22.5182  -42.5599   -7.6011 C   0  0  0  0  0  0  0  0  0  0  0  0
  -21.6070  -43.6873   -7.3905 N   0  0  0  0  0  0  0  0  0  0  0  0
  -20.1842  -43.7492   -7.5674 C   0  0  0  0  0  0  0  0  0  0  0  0
  -19.1850  -42.8802   -7.1941 C   0  0  0  0  0  0  0  0  0  0  0  0
  -17.8905  -43.1872   -7.5775 C   0  0  0  0  0  0  0  0  0  0  0  0
  -17.6271  -44.3667   -8.3205 C   0  0  0  0  0  0  0  0  0  0  0  0
  -18.6010  -45.2505   -8.6992 C   0  0  0  0  0  0  0  0  0  0  0  0
  -19.8681  -44.9181   -8.3113 C   0  0  0  0  0  0  0  0  0  0  0  0
  -16.6338  -42.4354   -7.4144 C   0  0  0  0  0  0  0  0  0  0  0  0
  -15.5953  -43.1383   -7.0806 O   0  0  0  0  0  0  0  0  0  0  0  0
  -16.3772  -41.0442   -7.5711 N   0  0  0  0  0  0  0  0  0  0  0  0
  1  2  1  0
  2  3  1  0
  2  4  1  0
  4  5  2  0
  5  6  1  0
  6  7  2  0
  7  8  1  0
  8  9  2  0
  6 10  1  0
 10 11  1  0
 10 12  1  0
 10 13  1  0
 13 14  1  0
 14 15  1  0
 15 16  1  6
 15 17  1  0
 17 18  1  1
 18 19  1  0
 19 20  1  1
 19 21  1  0
 21 22  1  0
 22 23  1  0
 23 24  1  0
 24 25  1  0
 25 26  1  0
 26 27  1  0
 27 28  1  0
 28 29  1  0
 29 30  2  0
 30 31  1  0
 31 32  2  0
 32 33  1  0
 33 34  2  0
 31 35  1  0
 35 36  2  0
 35 37  1  0
  9  4  1  0
 34 29  1  0
 37 17  1  0
M  END
$$$$
