
     RDKit          3D

 37 39  0  0  0  0  0  0  0  0999 V2000
  -21.9890  -43.0909   -3.6405 C   0  0  0  0  0  0  0  0  0  0  0  0
  -22.2435  -41.6070   -3.7538 C   0  0  0  0  0  0  0  0  0  0  0  0
  -23.6610  -41.3277   -3.2478 C   0  0  0  0  0  0  0  0  0  0  0  0
  -22.2739  -41.2390   -5.1998 C   0  0  0  0  0  0  0  0  0  0  0  0
  -21.2241  -40.5525   -5.7929 C   0  0  0  0  0  0  0  0  0  0  0  0
  -21.2474  -40.2058   -7.1220 C   0  0  0  0  0  0  0  0  0  0  0  0
  -22.3681  -40.5768   -7.8299 C   0  0  0  0  0  0  0  0  0  0  0  0
  -23.4185  -41.2518   -7.2804 C   0  0  0  0  0  0  0  0  0  0  0  0
  -23.3760  -41.5956   -5.9263 C   0  0  0  0  0  0  0  0  0  0  0  0
  -20.1266  -39.4416   -7.7815 C   0  0  0  0  0  0  0  0  0  0  0  0
  -20.6329  -38.0702   -8.0901 C   0  0  0  0  0  0  0  0  0  0  0  0
  -19.7973  -40.1448   -9.0514 C   0  0  0  0  0  0  0  0  0  0  0  0
  -19.0074  -39.3303   -6.8749 N   0  0  0  0  0  0  0  0  0  0  0  0
  -17.9202  -40.1338   -7.3415 C   0  0  0  0  0  0  0  0  0  0  0  0
  -16.8198  -39.2194   -7.9061 C   0  0  1  0  0  0  0  0  0  0  0  0
  -15.6920  -39.4042   -7.1094 O   0  0  0  0  0  0  0  0  0  0  0  0
  -16.5782  -39.3837   -9.3535 C   0  0  2  0  0  0  0  0  0  0  0  0
  -17.0305  -38.2842  -10.2305 C   0  0  0  0  0  0  0  0  0  0  0  0
  -16.2670  -36.9909  -10.1467 C   0  0  2  0  0  0  0  0  0  0  0  0
  -17.0238  -35.9893  -11.0259 C   0  0  0  0  0  0  0  0  0  0  0  0
  -14.9337  -37.2103  -10.8194 C   0  0  0  0  0  0  0  0  0  0  0  0
  -14.1527  -35.9136  -10.9513 C   0  0  0  0  0  0  0  0  0  0  0  0
  -13.3211  -35.9531  -12.2150 C   0  0  0  0  0  0  0  0  0  0  0  0
  -11.8534  -36.1033  -11.9503 C   0  0  0  0  0  0  0  0  0  0  0  0
  -11.1346  -36.8515  -13.0242 C   0  0  0  0  0  0  0  0  0  0  0  0
  -10.5969  -38.1915  -12.6181 C   0  0  0  0  0  0  0  0  0  0  0  0
  -11.3188  -38.8380  -11.4966 C   0  0  0  0  0  0  0  0  0  0  0  0
  -11.5952  -40.2638  -11.6875 N   0  0  0  0  0  0  0  0  0  0  0  0
  -12.6893  -41.0500  -11.1932 C   0  0  0  0  0  0  0  0  0  0  0  0
  -14.0416  -40.7995  -11.1546 C   0  0  0  0  0  0  0  0  0  0  0  0
  -14.8512  -41.7385  -10.5383 C   0  0  0  0  0  0  0  0  0  0  0  0
  -14.2845  -42.9142   -9.9821 C   0  0  0  0  0  0  0  0  0  0  0  0
  -12.9444  -43.1904  -10.0122 C   0  0  0  0  0  0  0  0  0  0  0  0
  -12.1709  -42.2434  -10.6217 C   0  0  0  0  0  0  0  0  0  0  0  0
  -16.2980  -41.7282  -10.2596 C   0  0  0  0  0  0  0  0  0  0  0  0
  -16.9191  -42.8497  -10.4605 O   0  0  0  0  0  0  0  0  0  0  0  0
  -17.1291  -40.6701   -9.7956 N   0  0  0  0  0  0  0  0  0  0  0  0
  1  2  1  0
  2  3  1  0
  2  4  1  0
  4  5  2  0
  5  6  1  0
  6  7  2  0
  7  8  1  0
  8  9  2  0
  6 10  1  0
 10 11  1  0
 10 12  1  0
 10 13  1  0
 13 14  1  0
 14 15  1  0
 15 16  1  1
 15 17  1  0
 17 18  1  6
 18 19  1  0
 19 20  1  6
 19 21  1  0
 21 22  1  0
 22 23  1  0
 23 24  1  0
 24 25  1  0
 25 26  1  0
 26 27  1  0
 27 28  1  0
 28 29  1  0
 29 30  2  0
 30 31  1  0
 31 32  2  0
 32 33  1  0
 33 34  2  0
 31 35  1  0
 35 36  2  0
 35 37  1  0
  9  4  1  0
 34 29  1  0
 37 17  1  0
M  END
$$$$
