
     RDKit          3D

 37 39  0  0  0  0  0  0  0  0999 V2000
  -22.9181  -37.9333  -11.3984 C   0  0  0  0  0  0  0  0  0  0  0  0
  -23.0594  -38.0879   -9.9031 C   0  0  0  0  0  0  0  0  0  0  0  0
  -22.6722  -36.7591   -9.2491 C   0  0  0  0  0  0  0  0  0  0  0  0
  -22.0338  -39.0620   -9.4271 C   0  0  0  0  0  0  0  0  0  0  0  0
  -21.3677  -38.8796   -8.2237 C   0  0  0  0  0  0  0  0  0  0  0  0
  -20.4188  -39.7691   -7.7816 C   0  0  0  0  0  0  0  0  0  0  0  0
  -20.1666  -40.8483   -8.5980 C   0  0  0  0  0  0  0  0  0  0  0  0
  -20.8014  -41.0597   -9.7868 C   0  0  0  0  0  0  0  0  0  0  0  0
  -21.7640  -40.1432  -10.2194 C   0  0  0  0  0  0  0  0  0  0  0  0
  -19.6682  -39.5789   -6.4872 C   0  0  0  0  0  0  0  0  0  0  0  0
  -19.7641  -40.8547   -5.7156 C   0  0  0  0  0  0  0  0  0  0  0  0
  -20.3518  -38.4924   -5.7334 C   0  0  0  0  0  0  0  0  0  0  0  0
  -18.2765  -39.3055   -6.7613 N   0  0  0  0  0  0  0  0  0  0  0  0
  -17.9170  -39.8393   -8.0384 C   0  0  0  0  0  0  0  0  0  0  0  0
  -16.6524  -39.1273   -8.5479 C   0  0  1  0  0  0  0  0  0  0  0  0
  -15.6131  -39.4876   -7.6930 O   0  0  0  0  0  0  0  0  0  0  0  0
  -16.3683  -39.3464   -9.9802 C   0  0  2  0  0  0  0  0  0  0  0  0
  -16.3709  -38.1505  -10.8475 C   0  0  0  0  0  0  0  0  0  0  0  0
  -15.2371  -37.1786  -10.6672 C   0  0  2  0  0  0  0  0  0  0  0  0
  -15.5583  -35.9755  -11.5608 C   0  0  0  0  0  0  0  0  0  0  0  0
  -14.0006  -37.8146  -11.2545 C   0  0  0  0  0  0  0  0  0  0  0  0
  -12.8329  -36.8428  -11.2878 C   0  0  0  0  0  0  0  0  0  0  0  0
  -11.9660  -37.1388  -12.4925 C   0  0  0  0  0  0  0  0  0  0  0  0
  -10.6514  -37.7630  -12.1335 C   0  0  0  0  0  0  0  0  0  0  0  0
  -10.1356  -38.6938  -13.1811 C   0  0  0  0  0  0  0  0  0  0  0  0
  -10.0951  -40.1401  -12.7858 C   0  0  0  0  0  0  0  0  0  0  0  0
  -11.0707  -40.5268  -11.7392 C   0  0  0  0  0  0  0  0  0  0  0  0
  -11.7803  -41.7820  -11.9977 N   0  0  0  0  0  0  0  0  0  0  0  0
  -13.1047  -42.1727  -11.6067 C   0  0  0  0  0  0  0  0  0  0  0  0
  -14.3009  -41.4946  -11.6518 C   0  0  0  0  0  0  0  0  0  0  0  0
  -15.4160  -42.1239  -11.1251 C   0  0  0  0  0  0  0  0  0  0  0  0
  -15.3062  -43.4258  -10.5724 C   0  0  0  0  0  0  0  0  0  0  0  0
  -14.1304  -44.1244  -10.5205 C   0  0  0  0  0  0  0  0  0  0  0  0
  -13.0473  -43.4758  -11.0427 C   0  0  0  0  0  0  0  0  0  0  0  0
  -16.7976  -41.6443  -10.9455 C   0  0  0  0  0  0  0  0  0  0  0  0
  -17.7325  -42.4991  -11.2270 O   0  0  0  0  0  0  0  0  0  0  0  0
  -17.2723  -40.3775  -10.5031 N   0  0  0  0  0  0  0  0  0  0  0  0
  1  2  1  0
  2  3  1  0
  2  4  1  0
  4  5  2  0
  5  6  1  0
  6  7  2  0
  7  8  1  0
  8  9  2  0
  6 10  1  0
 10 11  1  0
 10 12  1  0
 10 13  1  0
 13 14  1  0
 14 15  1  0
 15 16  1  1
 15 17  1  0
 17 18  1  6
 18 19  1  0
 19 20  1  6
 19 21  1  0
 21 22  1  0
 22 23  1  0
 23 24  1  0
 24 25  1  0
 25 26  1  0
 26 27  1  0
 27 28  1  0
 28 29  1  0
 29 30  2  0
 30 31  1  0
 31 32  2  0
 32 33  1  0
 33 34  2  0
 31 35  1  0
 35 36  2  0
 35 37  1  0
  9  4  1  0
 34 29  1  0
 37 17  1  0
M  END
$$$$
