
     RDKit          3D

 37 39  0  0  0  0  0  0  0  0999 V2000
  -20.7178  -42.9412   -6.1332 C   0  0  0  0  0  0  0  0  0  0  0  0
  -21.8560  -42.4664   -5.2333 C   0  0  0  0  0  0  0  0  0  0  0  0
  -21.2979  -42.4136   -3.8274 C   0  0  0  0  0  0  0  0  0  0  0  0
  -22.2318  -41.0959   -5.6729 C   0  0  0  0  0  0  0  0  0  0  0  0
  -21.2702  -40.1414   -5.9028 C   0  0  0  0  0  0  0  0  0  0  0  0
  -21.6419  -38.8843   -6.3057 C   0  0  0  0  0  0  0  0  0  0  0  0
  -20.6189  -37.8562   -6.5503 C   0  0  0  0  0  0  0  0  0  0  0  0
  -19.3122  -38.2733   -6.0668 N   0  0  0  0  0  0  0  0  0  0  0  0
  -18.8248  -39.3739   -6.8672 C   0  0  0  0  0  0  0  0  0  0  0  0
  -17.3215  -39.5164   -6.8268 C   0  0  1  0  0  0  0  0  0  0  0  0
  -16.9197  -40.0905   -5.6273 O   0  0  0  0  0  0  0  0  0  0  0  0
  -16.9298  -40.5131   -7.9478 C   0  0  2  0  0  0  0  0  0  0  0  0
  -16.3642  -39.7915   -9.0890 C   0  0  0  0  0  0  0  0  0  0  0  0
  -15.2322  -40.3377   -9.8850 C   0  0  0  0  0  0  0  0  0  0  0  0
  -14.0847  -40.9859   -9.5198 C   0  0  0  0  0  0  0  0  0  0  0  0
  -13.2139  -41.3889  -10.5198 C   0  0  0  0  0  0  0  0  0  0  0  0
  -13.5070  -41.1310  -11.8684 C   0  0  0  0  0  0  0  0  0  0  0  0
  -14.6442  -40.4835  -12.2760 C   0  0  0  0  0  0  0  0  0  0  0  0
  -15.4796  -40.1038  -11.2653 C   0  0  0  0  0  0  0  0  0  0  0  0
  -12.0074  -42.0565  -10.4006 O   0  0  0  0  0  0  0  0  0  0  0  0
  -11.5610  -43.2392   -9.8471 C   0  0  0  0  0  0  0  0  0  0  0  0
  -12.1814  -44.4969  -10.4143 C   0  0  0  0  0  0  0  0  0  0  0  0
  -13.6222  -44.6885   -9.9561 C   0  0  0  0  0  0  0  0  0  0  0  0
  -14.5136  -44.7545  -11.1505 C   0  0  0  0  0  0  0  0  0  0  0  0
  -15.7754  -45.5387  -10.9684 C   0  0  0  0  0  0  0  0  0  0  0  0
  -16.4530  -45.3667   -9.6847 C   0  0  0  0  0  0  0  0  0  0  0  0
  -16.3892  -46.3523   -8.8669 O   0  0  0  0  0  0  0  0  0  0  0  0
  -17.1674  -44.2556   -9.2306 N   0  0  0  0  0  0  0  0  0  0  0  0
  -17.5634  -44.1331   -7.8408 C   0  0  0  0  0  0  0  0  0  0  0  0
  -17.5809  -43.1318  -10.0867 C   0  0  1  0  0  0  0  0  0  0  0  0
  -18.3645  -43.6232  -11.2764 C   0  0  0  0  0  0  0  0  0  0  0  0
  -18.3651  -42.1204   -9.3516 C   0  0  0  0  0  0  0  0  0  0  0  0
  -19.5261  -41.8566   -9.8428 O   0  0  0  0  0  0  0  0  0  0  0  0
  -18.0302  -41.4108   -8.2028 N   0  0  0  0  0  0  0  0  0  0  0  0
  -22.9702  -38.5755   -6.4806 C   0  0  0  0  0  0  0  0  0  0  0  0
  -23.9302  -39.5203   -6.2537 C   0  0  0  0  0  0  0  0  0  0  0  0
  -23.5727  -40.7940   -5.8464 C   0  0  0  0  0  0  0  0  0  0  0  0
  1  2  1  0
  2  3  1  0
  2  4  1  0
  4  5  2  0
  5  6  1  0
  6  7  1  0
  7  8  1  0
  8  9  1  0
  9 10  1  0
 10 11  1  1
 10 12  1  0
 12 13  1  6
 13 14  1  0
 14 15  2  0
 15 16  1  0
 16 17  2  0
 17 18  1  0
 18 19  2  0
 16 20  1  0
 20 21  1  0
 21 22  1  0
 22 23  1  0
 23 24  1  0
 24 25  1  0
 25 26  1  0
 26 27  2  0
 26 28  1  0
 28 29  1  0
 28 30  1  0
 30 31  1  6
 30 32  1  0
 32 33  2  0
 32 34  1  0
  6 35  2  0
 35 36  1  0
 36 37  2  0
 19 14  1  0
 34 12  1  0
 37  4  1  0
M  END
$$$$
