
     RDKit          3D

 37 39  0  0  0  0  0  0  0  0999 V2000
  -24.4757  -37.4792   -6.6511 C   0  0  0  0  0  0  0  0  0  0  0  0
  -23.4916  -38.4421   -5.9914 C   0  0  0  0  0  0  0  0  0  0  0  0
  -24.0796  -39.8283   -6.1445 C   0  0  0  0  0  0  0  0  0  0  0  0
  -22.2109  -38.3574   -6.7432 C   0  0  0  0  0  0  0  0  0  0  0  0
  -21.1346  -37.6767   -6.2268 C   0  0  0  0  0  0  0  0  0  0  0  0
  -19.9650  -37.6110   -6.9401 C   0  0  0  0  0  0  0  0  0  0  0  0
  -18.8098  -36.8814   -6.3957 C   0  0  0  0  0  0  0  0  0  0  0  0
  -17.5665  -37.2980   -7.0247 N   0  0  0  0  0  0  0  0  0  0  0  0
  -17.3310  -38.6991   -6.7581 C   0  0  0  0  0  0  0  0  0  0  0  0
  -15.9934  -39.1828   -7.2668 C   0  0  1  0  0  0  0  0  0  0  0  0
  -15.2245  -39.6753   -6.2198 O   0  0  0  0  0  0  0  0  0  0  0  0
  -16.2731  -40.3796   -8.2118 C   0  0  2  0  0  0  0  0  0  0  0  0
  -16.7954  -39.8994   -9.4922 C   0  0  0  0  0  0  0  0  0  0  0  0
  -16.4245  -40.5369  -10.7843 C   0  0  0  0  0  0  0  0  0  0  0  0
  -15.2341  -41.0100  -11.2634 C   0  0  0  0  0  0  0  0  0  0  0  0
  -15.2151  -41.5712  -12.5304 C   0  0  0  0  0  0  0  0  0  0  0  0
  -16.3893  -41.6443  -13.2966 C   0  0  0  0  0  0  0  0  0  0  0  0
  -17.6010  -41.1808  -12.8542 C   0  0  0  0  0  0  0  0  0  0  0  0
  -17.5830  -40.6375  -11.6020 C   0  0  0  0  0  0  0  0  0  0  0  0
  -14.1460  -42.1149  -13.2210 O   0  0  0  0  0  0  0  0  0  0  0  0
  -13.2133  -43.1104  -13.0122 C   0  0  0  0  0  0  0  0  0  0  0  0
  -13.7784  -44.5013  -12.8259 C   0  0  0  0  0  0  0  0  0  0  0  0
  -14.4453  -44.6774  -11.4669 C   0  0  0  0  0  0  0  0  0  0  0  0
  -15.8710  -45.0692  -11.6657 C   0  0  0  0  0  0  0  0  0  0  0  0
  -16.4775  -45.8721  -10.5577 C   0  0  0  0  0  0  0  0  0  0  0  0
  -16.1204  -45.4588   -9.2019 C   0  0  0  0  0  0  0  0  0  0  0  0
  -15.3190  -46.2278   -8.5611 O   0  0  0  0  0  0  0  0  0  0  0  0
  -16.5443  -44.3225   -8.5087 N   0  0  0  0  0  0  0  0  0  0  0  0
  -15.9064  -43.9150   -7.2716 C   0  0  0  0  0  0  0  0  0  0  0  0
  -17.6468  -43.4505   -8.9456 C   0  0  1  0  0  0  0  0  0  0  0  0
  -18.9061  -44.2478   -9.1680 C   0  0  0  0  0  0  0  0  0  0  0  0
  -17.9089  -42.3521   -7.9953 C   0  0  0  0  0  0  0  0  0  0  0  0
  -19.1155  -42.2821   -7.5503 O   0  0  0  0  0  0  0  0  0  0  0  0
  -17.0388  -41.3810   -7.5102 N   0  0  0  0  0  0  0  0  0  0  0  0
  -19.8648  -38.2227   -8.1673 C   0  0  0  0  0  0  0  0  0  0  0  0
  -20.9313  -38.9008   -8.6854 C   0  0  0  0  0  0  0  0  0  0  0  0
  -22.1194  -38.9767   -7.9791 C   0  0  0  0  0  0  0  0  0  0  0  0
  1  2  1  0
  2  3  1  0
  2  4  1  0
  4  5  2  0
  5  6  1  0
  6  7  1  0
  7  8  1  0
  8  9  1  0
  9 10  1  0
 10 11  1  1
 10 12  1  0
 12 13  1  6
 13 14  1  0
 14 15  2  0
 15 16  1  0
 16 17  2  0
 17 18  1  0
 18 19  2  0
 16 20  1  0
 20 21  1  0
 21 22  1  0
 22 23  1  0
 23 24  1  0
 24 25  1  0
 25 26  1  0
 26 27  2  0
 26 28  1  0
 28 29  1  0
 28 30  1  0
 30 31  1  1
 30 32  1  0
 32 33  2  0
 32 34  1  0
  6 35  2  0
 35 36  1  0
 36 37  2  0
 19 14  1  0
 34 12  1  0
 37  4  1  0
M  END
$$$$
