
     RDKit          3D

 37 39  0  0  0  0  0  0  0  0999 V2000
   -9.9470  -36.6380  -13.2111 C   0  0  0  0  0  0  0  0  0  0  0  0
  -11.4673  -36.5025  -13.2453 C   0  0  0  0  0  0  0  0  0  0  0  0
  -11.8545  -36.3799  -14.7034 C   0  0  0  0  0  0  0  0  0  0  0  0
  -12.0407  -37.7533  -12.6801 C   0  0  0  0  0  0  0  0  0  0  0  0
  -12.6717  -37.7501  -11.4593 C   0  0  0  0  0  0  0  0  0  0  0  0
  -13.1905  -38.9167  -10.9584 C   0  0  0  0  0  0  0  0  0  0  0  0
  -13.8641  -38.9221   -9.6509 C   0  0  0  0  0  0  0  0  0  0  0  0
  -15.0723  -38.1126   -9.6659 N   0  0  0  0  0  0  0  0  0  0  0  0
  -16.2095  -38.9274   -9.3019 C   0  0  0  0  0  0  0  0  0  0  0  0
  -16.6111  -38.7719   -7.8540 C   0  0  1  0  0  0  0  0  0  0  0  0
  -17.0629  -37.4809   -7.6109 O   0  0  0  0  0  0  0  0  0  0  0  0
  -17.8174  -39.7157   -7.6138 C   0  0  2  0  0  0  0  0  0  0  0  0
  -18.5002  -39.3546   -6.3704 C   0  0  0  0  0  0  0  0  0  0  0  0
  -19.9804  -39.4206   -6.2356 C   0  0  0  0  0  0  0  0  0  0  0  0
  -20.9937  -39.0683   -7.0837 C   0  0  0  0  0  0  0  0  0  0  0  0
  -22.2989  -39.2675   -6.6626 C   0  0  0  0  0  0  0  0  0  0  0  0
  -22.5653  -39.8127   -5.3965 C   0  0  0  0  0  0  0  0  0  0  0  0
  -21.5794  -40.1773   -4.5168 C   0  0  0  0  0  0  0  0  0  0  0  0
  -20.3070  -39.9696   -4.9656 C   0  0  0  0  0  0  0  0  0  0  0  0
  -23.4773  -38.9970   -7.3362 O   0  0  0  0  0  0  0  0  0  0  0  0
  -24.0517  -39.3464   -8.5414 C   0  0  0  0  0  0  0  0  0  0  0  0
  -24.2985  -40.8259   -8.7388 C   0  0  0  0  0  0  0  0  0  0  0  0
  -23.0096  -41.5982   -8.9939 C   0  0  0  0  0  0  0  0  0  0  0  0
  -22.8525  -42.6516   -7.9493 C   0  0  0  0  0  0  0  0  0  0  0  0
  -22.0630  -43.8542   -8.3628 C   0  0  0  0  0  0  0  0  0  0  0  0
  -20.8768  -43.5894   -9.1747 C   0  0  0  0  0  0  0  0  0  0  0  0
  -20.9481  -43.9098  -10.4143 O   0  0  0  0  0  0  0  0  0  0  0  0
  -19.6643  -43.0266   -8.7692 N   0  0  0  0  0  0  0  0  0  0  0  0
  -18.6764  -42.5912   -9.7377 C   0  0  0  0  0  0  0  0  0  0  0  0
  -19.2748  -42.8254   -7.3640 C   0  0  1  0  0  0  0  0  0  0  0  0
  -19.3687  -44.1154   -6.5908 C   0  0  0  0  0  0  0  0  0  0  0  0
  -17.9196  -42.2565   -7.2294 C   0  0  0  0  0  0  0  0  0  0  0  0
  -17.1022  -42.9403   -6.5062 O   0  0  0  0  0  0  0  0  0  0  0  0
  -17.3976  -41.0869   -7.7726 N   0  0  0  0  0  0  0  0  0  0  0  0
  -13.0827  -40.0872  -11.6715 C   0  0  0  0  0  0  0  0  0  0  0  0
  -12.4568  -40.0962  -12.8855 C   0  0  0  0  0  0  0  0  0  0  0  0
  -11.9271  -38.9279  -13.4057 C   0  0  0  0  0  0  0  0  0  0  0  0
  1  2  1  0
  2  3  1  0
  2  4  1  0
  4  5  2  0
  5  6  1  0
  6  7  1  0
  7  8  1  0
  8  9  1  0
  9 10  1  0
 10 11  1  6
 10 12  1  0
 12 13  1  1
 13 14  1  0
 14 15  2  0
 15 16  1  0
 16 17  2  0
 17 18  1  0
 18 19  2  0
 16 20  1  0
 20 21  1  0
 21 22  1  0
 22 23  1  0
 23 24  1  0
 24 25  1  0
 25 26  1  0
 26 27  2  0
 26 28  1  0
 28 29  1  0
 28 30  1  0
 30 31  1  1
 30 32  1  0
 32 33  2  0
 32 34  1  0
  6 35  2  0
 35 36  1  0
 36 37  2  0
 19 14  1  0
 34 12  1  0
 37  4  1  0
M  END
$$$$
