
     RDKit          3D

 37 39  0  0  0  0  0  0  0  0999 V2000
  -10.1480  -38.3191   -8.5223 C   0  0  0  0  0  0  0  0  0  0  0  0
  -11.1500  -39.4658   -8.6307 C   0  0  0  0  0  0  0  0  0  0  0  0
  -11.9487  -39.4606   -7.3451 C   0  0  0  0  0  0  0  0  0  0  0  0
  -12.0488  -39.1674   -9.7779 C   0  0  0  0  0  0  0  0  0  0  0  0
  -13.1849  -38.4138   -9.6051 C   0  0  0  0  0  0  0  0  0  0  0  0
  -13.9988  -38.1539  -10.6780 C   0  0  0  0  0  0  0  0  0  0  0  0
  -15.2183  -37.3511  -10.5004 C   0  0  0  0  0  0  0  0  0  0  0  0
  -16.2678  -37.7580  -11.4214 N   0  0  0  0  0  0  0  0  0  0  0  0
  -17.2680  -38.5243  -10.7127 C   0  0  0  0  0  0  0  0  0  0  0  0
  -17.5306  -38.0093   -9.3171 C   0  0  1  0  0  0  0  0  0  0  0  0
  -18.3141  -36.8630   -9.3614 O   0  0  0  0  0  0  0  0  0  0  0  0
  -18.3675  -39.0896   -8.5849 C   0  0  2  0  0  0  0  0  0  0  0  0
  -18.8868  -38.5563   -7.3244 C   0  0  0  0  0  0  0  0  0  0  0  0
  -20.2423  -38.9044   -6.8196 C   0  0  0  0  0  0  0  0  0  0  0  0
  -21.4493  -39.0316   -7.4497 C   0  0  0  0  0  0  0  0  0  0  0  0
  -22.5512  -39.3868   -6.6880 C   0  0  0  0  0  0  0  0  0  0  0  0
  -22.4244  -39.6041   -5.3068 C   0  0  0  0  0  0  0  0  0  0  0  0
  -21.2342  -39.4855   -4.6373 C   0  0  0  0  0  0  0  0  0  0  0  0
  -20.1705  -39.1374   -5.4190 C   0  0  0  0  0  0  0  0  0  0  0  0
  -23.8602  -39.5783   -7.0949 O   0  0  0  0  0  0  0  0  0  0  0  0
  -24.5247  -40.3650   -8.0136 C   0  0  0  0  0  0  0  0  0  0  0  0
  -24.3875  -41.8578   -7.8104 C   0  0  0  0  0  0  0  0  0  0  0  0
  -23.0043  -42.3692   -8.1954 C   0  0  0  0  0  0  0  0  0  0  0  0
  -22.3781  -43.0307   -7.0141 C   0  0  0  0  0  0  0  0  0  0  0  0
  -21.3772  -44.0977   -7.3304 C   0  0  0  0  0  0  0  0  0  0  0  0
  -20.4762  -43.8157   -8.4462 C   0  0  0  0  0  0  0  0  0  0  0  0
  -20.6797  -44.4747   -9.5273 O   0  0  0  0  0  0  0  0  0  0  0  0
  -19.4122  -42.9115   -8.4861 N   0  0  0  0  0  0  0  0  0  0  0  0
  -18.7737  -42.5566   -9.7390 C   0  0  0  0  0  0  0  0  0  0  0  0
  -18.8455  -42.2484   -7.3003 C   0  0  1  0  0  0  0  0  0  0  0  0
  -18.4405  -43.2614   -6.2608 C   0  0  0  0  0  0  0  0  0  0  0  0
  -17.6974  -41.3824   -7.6321 C   0  0  0  0  0  0  0  0  0  0  0  0
  -16.6070  -41.6428   -6.9980 O   0  0  0  0  0  0  0  0  0  0  0  0
  -17.6235  -40.3246   -8.5327 N   0  0  0  0  0  0  0  0  0  0  0  0
  -13.6831  -38.6430  -11.9235 C   0  0  0  0  0  0  0  0  0  0  0  0
  -12.5551  -39.3925  -12.1011 C   0  0  0  0  0  0  0  0  0  0  0  0
  -11.7227  -39.6646  -11.0291 C   0  0  0  0  0  0  0  0  0  0  0  0
  1  2  1  0
  2  3  1  0
  2  4  1  0
  4  5  2  0
  5  6  1  0
  6  7  1  0
  7  8  1  0
  8  9  1  0
  9 10  1  0
 10 11  1  6
 10 12  1  0
 12 13  1  1
 13 14  1  0
 14 15  2  0
 15 16  1  0
 16 17  2  0
 17 18  1  0
 18 19  2  0
 16 20  1  0
 20 21  1  0
 21 22  1  0
 22 23  1  0
 23 24  1  0
 24 25  1  0
 25 26  1  0
 26 27  2  0
 26 28  1  0
 28 29  1  0
 28 30  1  0
 30 31  1  1
 30 32  1  0
 32 33  2  0
 32 34  1  0
  6 35  2  0
 35 36  1  0
 36 37  2  0
 19 14  1  0
 34 12  1  0
 37  4  1  0
M  END
$$$$
