
     RDKit          3D

 37 39  0  0  0  0  0  0  0  0999 V2000
  -23.0931  -43.4466   -2.3250 C   0  0  0  0  0  0  0  0  0  0  0  0
  -23.3662  -43.2743   -3.8172 C   0  0  0  0  0  0  0  0  0  0  0  0
  -24.7563  -42.6869   -3.9339 C   0  0  0  0  0  0  0  0  0  0  0  0
  -22.3689  -42.3052   -4.3454 C   0  0  0  0  0  0  0  0  0  0  0  0
  -21.0224  -42.5101   -4.1627 C   0  0  0  0  0  0  0  0  0  0  0  0
  -20.1225  -41.6012   -4.6575 C   0  0  0  0  0  0  0  0  0  0  0  0
  -18.6798  -41.8116   -4.4629 C   0  0  0  0  0  0  0  0  0  0  0  0
  -17.9597  -40.5508   -4.3797 N   0  0  0  0  0  0  0  0  0  0  0  0
  -17.2003  -40.3423   -5.5919 C   0  0  0  0  0  0  0  0  0  0  0  0
  -17.1705  -38.8975   -6.0317 C   0  0  1  0  0  0  0  0  0  0  0  0
  -15.8717  -38.4056   -5.9970 O   0  0  0  0  0  0  0  0  0  0  0  0
  -17.6165  -38.8658   -7.5162 C   0  0  2  0  0  0  0  0  0  0  0  0
  -18.2684  -37.5907   -7.8195 C   0  0  0  0  0  0  0  0  0  0  0  0
  -18.0863  -36.9029   -9.1261 C   0  0  0  0  0  0  0  0  0  0  0  0
  -16.9855  -36.7123   -9.9149 C   0  0  0  0  0  0  0  0  0  0  0  0
  -17.1458  -36.0248  -11.1075 C   0  0  0  0  0  0  0  0  0  0  0  0
  -18.4066  -35.5366  -11.4862 C   0  0  0  0  0  0  0  0  0  0  0  0
  -19.5334  -35.7049  -10.7242 C   0  0  0  0  0  0  0  0  0  0  0  0
  -19.3389  -36.3884   -9.5587 C   0  0  0  0  0  0  0  0  0  0  0  0
  -16.1941  -35.7149  -12.0633 O   0  0  0  0  0  0  0  0  0  0  0  0
  -15.2887  -36.4043  -12.8440 C   0  0  0  0  0  0  0  0  0  0  0  0
  -15.8890  -37.4166  -13.7946 C   0  0  0  0  0  0  0  0  0  0  0  0
  -16.3931  -38.6603  -13.0721 C   0  0  0  0  0  0  0  0  0  0  0  0
  -17.8485  -38.8343  -13.3496 C   0  0  0  0  0  0  0  0  0  0  0  0
  -18.3514  -40.2426  -13.2848 C   0  0  0  0  0  0  0  0  0  0  0  0
  -17.8140  -41.0619  -12.2002 C   0  0  0  0  0  0  0  0  0  0  0  0
  -16.9760  -41.9739  -12.5325 O   0  0  0  0  0  0  0  0  0  0  0  0
  -18.0989  -40.9774  -10.8353 N   0  0  0  0  0  0  0  0  0  0  0  0
  -17.2977  -41.6847   -9.8548 C   0  0  0  0  0  0  0  0  0  0  0  0
  -19.2060  -40.1899  -10.2687 C   0  0  1  0  0  0  0  0  0  0  0  0
  -20.5175  -40.5728  -10.9044 C   0  0  0  0  0  0  0  0  0  0  0  0
  -19.3009  -40.3229   -8.8019 C   0  0  0  0  0  0  0  0  0  0  0  0
  -20.4401  -40.7254   -8.3557 O   0  0  0  0  0  0  0  0  0  0  0  0
  -18.3355  -40.0763   -7.8310 N   0  0  0  0  0  0  0  0  0  0  0  0
  -20.5610  -40.4879   -5.3347 C   0  0  0  0  0  0  0  0  0  0  0  0
  -21.8982  -40.2793   -5.5195 C   0  0  0  0  0  0  0  0  0  0  0  0
  -22.8202  -41.1864   -5.0264 C   0  0  0  0  0  0  0  0  0  0  0  0
  1  2  1  0
  2  3  1  0
  2  4  1  0
  4  5  2  0
  5  6  1  0
  6  7  1  0
  7  8  1  0
  8  9  1  0
  9 10  1  0
 10 11  1  6
 10 12  1  0
 12 13  1  1
 13 14  1  0
 14 15  2  0
 15 16  1  0
 16 17  2  0
 17 18  1  0
 18 19  2  0
 16 20  1  0
 20 21  1  0
 21 22  1  0
 22 23  1  0
 23 24  1  0
 24 25  1  0
 25 26  1  0
 26 27  2  0
 26 28  1  0
 28 29  1  0
 28 30  1  0
 30 31  1  6
 30 32  1  0
 32 33  2  0
 32 34  1  0
  6 35  2  0
 35 36  1  0
 36 37  2  0
 19 14  1  0
 34 12  1  0
 37  4  1  0
M  END
$$$$
