
     RDKit          3D

 37 39  0  0  0  0  0  0  0  0999 V2000
  -24.3903  -39.4446   -5.9908 C   0  0  0  0  0  0  0  0  0  0  0  0
  -22.9787  -39.7832   -5.5178 C   0  0  0  0  0  0  0  0  0  0  0  0
  -22.8344  -41.2850   -5.6388 C   0  0  0  0  0  0  0  0  0  0  0  0
  -22.0246  -39.1141   -6.4424 C   0  0  0  0  0  0  0  0  0  0  0  0
  -20.8485  -38.5789   -5.9747 C   0  0  0  0  0  0  0  0  0  0  0  0
  -19.9859  -37.9652   -6.8465 C   0  0  0  0  0  0  0  0  0  0  0  0
  -18.7268  -37.3869   -6.3530 C   0  0  0  0  0  0  0  0  0  0  0  0
  -17.6824  -37.4323   -7.3641 N   0  0  0  0  0  0  0  0  0  0  0  0
  -17.7496  -38.6874   -8.0781 C   0  0  0  0  0  0  0  0  0  0  0  0
  -16.5528  -39.5752   -7.8305 C   0  0  1  0  0  0  0  0  0  0  0  0
  -16.4572  -39.8974   -6.4826 O   0  0  0  0  0  0  0  0  0  0  0  0
  -16.8097  -40.9043   -8.5863 C   0  0  2  0  0  0  0  0  0  0  0  0
  -16.3499  -40.7935   -9.9716 C   0  0  0  0  0  0  0  0  0  0  0  0
  -15.7027  -41.9298  -10.6811 C   0  0  0  0  0  0  0  0  0  0  0  0
  -14.7784  -42.8537  -10.2783 C   0  0  0  0  0  0  0  0  0  0  0  0
  -14.3738  -43.8156  -11.1903 C   0  0  0  0  0  0  0  0  0  0  0  0
  -14.9001  -43.8315  -12.4918 C   0  0  0  0  0  0  0  0  0  0  0  0
  -15.8261  -42.9235  -12.9352 C   0  0  0  0  0  0  0  0  0  0  0  0
  -16.2034  -41.9932  -12.0101 C   0  0  0  0  0  0  0  0  0  0  0  0
  -13.4650  -44.8450  -11.0177 O   0  0  0  0  0  0  0  0  0  0  0  0
  -13.3055  -45.9148  -10.1607 C   0  0  0  0  0  0  0  0  0  0  0  0
  -14.4271  -46.9300  -10.1730 C   0  0  0  0  0  0  0  0  0  0  0  0
  -15.6834  -46.4120   -9.4829 C   0  0  0  0  0  0  0  0  0  0  0  0
  -16.8208  -46.4377  -10.4480 C   0  0  0  0  0  0  0  0  0  0  0  0
  -18.1791  -46.5853   -9.8369 C   0  0  0  0  0  0  0  0  0  0  0  0
  -18.4112  -45.8274   -8.6089 C   0  0  0  0  0  0  0  0  0  0  0  0
  -18.4677  -46.5034   -7.5207 O   0  0  0  0  0  0  0  0  0  0  0  0
  -18.5807  -44.4480   -8.4678 N   0  0  0  0  0  0  0  0  0  0  0  0
  -18.5459  -43.8159   -7.1629 C   0  0  0  0  0  0  0  0  0  0  0  0
  -18.8068  -43.5234   -9.5906 C   0  0  1  0  0  0  0  0  0  0  0  0
  -19.9844  -43.9647  -10.4208 C   0  0  0  0  0  0  0  0  0  0  0  0
  -19.0006  -42.1299   -9.1445 C   0  0  0  0  0  0  0  0  0  0  0  0
  -20.0955  -41.5727   -9.5314 O   0  0  0  0  0  0  0  0  0  0  0  0
  -18.1700  -41.3312   -8.3650 N   0  0  0  0  0  0  0  0  0  0  0  0
  -20.2922  -37.8836   -8.1844 C   0  0  0  0  0  0  0  0  0  0  0  0
  -21.4597  -38.4140   -8.6548 C   0  0  0  0  0  0  0  0  0  0  0  0
  -22.3419  -39.0366   -7.7887 C   0  0  0  0  0  0  0  0  0  0  0  0
  1  2  1  0
  2  3  1  0
  2  4  1  0
  4  5  2  0
  5  6  1  0
  6  7  1  0
  7  8  1  0
  8  9  1  0
  9 10  1  0
 10 11  1  1
 10 12  1  0
 12 13  1  6
 13 14  1  0
 14 15  2  0
 15 16  1  0
 16 17  2  0
 17 18  1  0
 18 19  2  0
 16 20  1  0
 20 21  1  0
 21 22  1  0
 22 23  1  0
 23 24  1  0
 24 25  1  0
 25 26  1  0
 26 27  2  0
 26 28  1  0
 28 29  1  0
 28 30  1  0
 30 31  1  1
 30 32  1  0
 32 33  2  0
 32 34  1  0
  6 35  2  0
 35 36  1  0
 36 37  2  0
 19 14  1  0
 34 12  1  0
 37  4  1  0
M  END
$$$$
