
     RDKit          3D

 37 39  0  0  0  0  0  0  0  0999 V2000
  -13.2257  -34.2687  -11.9823 C   0  0  0  0  0  0  0  0  0  0  0  0
  -14.5626  -34.9090  -11.6170 C   0  0  0  0  0  0  0  0  0  0  0  0
  -15.5624  -34.4334  -12.6490 C   0  0  0  0  0  0  0  0  0  0  0  0
  -14.3968  -36.3834  -11.7251 C   0  0  0  0  0  0  0  0  0  0  0  0
  -14.2856  -37.1641  -10.5997 C   0  0  0  0  0  0  0  0  0  0  0  0
  -14.1315  -38.5211  -10.7253 C   0  0  0  0  0  0  0  0  0  0  0  0
  -14.0083  -39.3630   -9.5256 C   0  0  0  0  0  0  0  0  0  0  0  0
  -14.9319  -40.4859   -9.5605 N   0  0  0  0  0  0  0  0  0  0  0  0
  -16.2926  -39.9980   -9.5545 C   0  0  0  0  0  0  0  0  0  0  0  0
  -16.7174  -39.4424   -8.2156 C   0  0  1  0  0  0  0  0  0  0  0  0
  -17.0866  -38.1087   -8.3378 O   0  0  0  0  0  0  0  0  0  0  0  0
  -17.9902  -40.2165   -7.7862 C   0  0  2  0  0  0  0  0  0  0  0  0
  -18.7817  -39.4090   -6.8565 C   0  0  0  0  0  0  0  0  0  0  0  0
  -20.2692  -39.4068   -6.8830 C   0  0  0  0  0  0  0  0  0  0  0  0
  -21.1666  -39.3900   -7.9148 C   0  0  0  0  0  0  0  0  0  0  0  0
  -22.5179  -39.4053   -7.6074 C   0  0  0  0  0  0  0  0  0  0  0  0
  -22.9457  -39.4329   -6.2705 C   0  0  0  0  0  0  0  0  0  0  0  0
  -22.0796  -39.4489   -5.2083 C   0  0  0  0  0  0  0  0  0  0  0  0
  -20.7575  -39.4360   -5.5481 C   0  0  0  0  0  0  0  0  0  0  0  0
  -23.6020  -39.3974   -8.4677 O   0  0  0  0  0  0  0  0  0  0  0  0
  -24.0624  -40.1688   -9.5153 C   0  0  0  0  0  0  0  0  0  0  0  0
  -24.3639  -41.6119   -9.1760 C   0  0  0  0  0  0  0  0  0  0  0  0
  -23.0974  -42.4346   -8.9711 C   0  0  0  0  0  0  0  0  0  0  0  0
  -23.1078  -43.0200   -7.5990 C   0  0  0  0  0  0  0  0  0  0  0  0
  -22.3429  -44.2966   -7.4390 C   0  0  0  0  0  0  0  0  0  0  0  0
  -21.0647  -44.3663   -8.1446 C   0  0  0  0  0  0  0  0  0  0  0  0
  -21.0203  -45.1280   -9.1751 O   0  0  0  0  0  0  0  0  0  0  0  0
  -19.8745  -43.7029   -7.8371 N   0  0  0  0  0  0  0  0  0  0  0  0
  -18.7677  -43.6716   -8.7738 C   0  0  0  0  0  0  0  0  0  0  0  0
  -19.6268  -42.9921   -6.5721 C   0  0  1  0  0  0  0  0  0  0  0  0
  -19.8699  -43.8965   -5.3915 C   0  0  0  0  0  0  0  0  0  0  0  0
  -18.2657  -42.4260   -6.4994 C   0  0  0  0  0  0  0  0  0  0  0  0
  -17.5668  -42.7953   -5.4825 O   0  0  0  0  0  0  0  0  0  0  0  0
  -17.6283  -41.5505   -7.3728 N   0  0  0  0  0  0  0  0  0  0  0  0
  -14.0882  -39.1026  -11.9704 C   0  0  0  0  0  0  0  0  0  0  0  0
  -14.1984  -38.3315  -13.0924 C   0  0  0  0  0  0  0  0  0  0  0  0
  -14.3541  -36.9604  -12.9838 C   0  0  0  0  0  0  0  0  0  0  0  0
  1  2  1  0
  2  3  1  0
  2  4  1  0
  4  5  2  0
  5  6  1  0
  6  7  1  0
  7  8  1  0
  8  9  1  0
  9 10  1  0
 10 11  1  6
 10 12  1  0
 12 13  1  1
 13 14  1  0
 14 15  2  0
 15 16  1  0
 16 17  2  0
 17 18  1  0
 18 19  2  0
 16 20  1  0
 20 21  1  0
 21 22  1  0
 22 23  1  0
 23 24  1  0
 24 25  1  0
 25 26  1  0
 26 27  2  0
 26 28  1  0
 28 29  1  0
 28 30  1  0
 30 31  1  1
 30 32  1  0
 32 33  2  0
 32 34  1  0
  6 35  2  0
 35 36  1  0
 36 37  2  0
 19 14  1  0
 34 12  1  0
 37  4  1  0
M  END
$$$$
