
     RDKit          3D

 37 39  0  0  0  0  0  0  0  0999 V2000
  -14.1707  -36.6072  -14.6942 C   0  0  0  0  0  0  0  0  0  0  0  0
  -12.6893  -36.9681  -14.7717 C   0  0  0  0  0  0  0  0  0  0  0  0
  -11.9237  -35.7282  -14.3626 C   0  0  0  0  0  0  0  0  0  0  0  0
  -12.4417  -38.0552  -13.7870 C   0  0  0  0  0  0  0  0  0  0  0  0
  -12.7385  -37.8817  -12.4566 C   0  0  0  0  0  0  0  0  0  0  0  0
  -12.4993  -38.8983  -11.5676 C   0  0  0  0  0  0  0  0  0  0  0  0
  -12.8110  -38.7188  -10.1415 C   0  0  0  0  0  0  0  0  0  0  0  0
  -14.2424  -38.7848   -9.8923 N   0  0  0  0  0  0  0  0  0  0  0  0
  -14.5646  -38.0336   -8.7001 C   0  0  0  0  0  0  0  0  0  0  0  0
  -15.0357  -38.9049   -7.5595 C   0  0  1  0  0  0  0  0  0  0  0  0
  -15.2350  -38.1424   -6.4155 O   0  0  0  0  0  0  0  0  0  0  0  0
  -16.4222  -39.4695   -7.9624 C   0  0  2  0  0  0  0  0  0  0  0  0
  -16.7929  -40.5751   -7.0774 C   0  0  0  0  0  0  0  0  0  0  0  0
  -18.1941  -40.7872   -6.6247 C   0  0  0  0  0  0  0  0  0  0  0  0
  -19.1639  -39.9169   -6.2096 C   0  0  0  0  0  0  0  0  0  0  0  0
  -20.4000  -40.4343   -5.8562 C   0  0  0  0  0  0  0  0  0  0  0  0
  -20.6407  -41.8160   -5.9212 C   0  0  0  0  0  0  0  0  0  0  0  0
  -19.6962  -42.7212   -6.3298 C   0  0  0  0  0  0  0  0  0  0  0  0
  -18.4923  -42.1764   -6.6726 C   0  0  0  0  0  0  0  0  0  0  0  0
  -21.5264  -39.7619   -5.4149 O   0  0  0  0  0  0  0  0  0  0  0  0
  -22.3364  -38.7435   -5.8746 C   0  0  0  0  0  0  0  0  0  0  0  0
  -23.0326  -39.0109   -7.1908 C   0  0  0  0  0  0  0  0  0  0  0  0
  -22.0756  -38.9445   -8.3751 C   0  0  0  0  0  0  0  0  0  0  0  0
  -22.0956  -40.2496   -9.0974 C   0  0  0  0  0  0  0  0  0  0  0  0
  -21.7594  -40.1833  -10.5544 C   0  0  0  0  0  0  0  0  0  0  0  0
  -20.6696  -39.2790  -10.9164 C   0  0  0  0  0  0  0  0  0  0  0  0
  -20.9997  -38.1973  -11.5208 O   0  0  0  0  0  0  0  0  0  0  0  0
  -19.3018  -39.4438  -10.6856 N   0  0  0  0  0  0  0  0  0  0  0  0
  -18.3705  -38.3476  -10.8715 C   0  0  0  0  0  0  0  0  0  0  0  0
  -18.6832  -40.7053  -10.2465 C   0  0  1  0  0  0  0  0  0  0  0  0
  -19.0471  -41.8339  -11.1764 C   0  0  0  0  0  0  0  0  0  0  0  0
  -17.2154  -40.6041  -10.1298 C   0  0  0  0  0  0  0  0  0  0  0  0
  -16.5455  -41.4635  -10.8164 O   0  0  0  0  0  0  0  0  0  0  0  0
  -16.4508  -39.7124   -9.3843 N   0  0  0  0  0  0  0  0  0  0  0  0
  -11.9649  -40.0885  -12.0014 C   0  0  0  0  0  0  0  0  0  0  0  0
  -11.6681  -40.2667  -13.3227 C   0  0  0  0  0  0  0  0  0  0  0  0
  -11.9029  -39.2510  -14.2333 C   0  0  0  0  0  0  0  0  0  0  0  0
  1  2  1  0
  2  3  1  0
  2  4  1  0
  4  5  2  0
  5  6  1  0
  6  7  1  0
  7  8  1  0
  8  9  1  0
  9 10  1  0
 10 11  1  1
 10 12  1  0
 12 13  1  1
 13 14  1  0
 14 15  2  0
 15 16  1  0
 16 17  2  0
 17 18  1  0
 18 19  2  0
 16 20  1  0
 20 21  1  0
 21 22  1  0
 22 23  1  0
 23 24  1  0
 24 25  1  0
 25 26  1  0
 26 27  2  0
 26 28  1  0
 28 29  1  0
 28 30  1  0
 30 31  1  6
 30 32  1  0
 32 33  2  0
 32 34  1  0
  6 35  2  0
 35 36  1  0
 36 37  2  0
 19 14  1  0
 34 12  1  0
 37  4  1  0
M  END
$$$$
