
     RDKit          3D

 37 39  0  0  0  0  0  0  0  0999 V2000
  -12.0381  -35.8381  -13.3111 C   0  0  0  0  0  0  0  0  0  0  0  0
  -13.0546  -35.9064  -12.1741 C   0  0  0  0  0  0  0  0  0  0  0  0
  -14.3537  -35.3607  -12.7266 C   0  0  0  0  0  0  0  0  0  0  0  0
  -13.2279  -37.3393  -11.8145 C   0  0  0  0  0  0  0  0  0  0  0  0
  -13.1232  -37.7556  -10.5091 C   0  0  0  0  0  0  0  0  0  0  0  0
  -13.2852  -39.0827  -10.2029 C   0  0  0  0  0  0  0  0  0  0  0  0
  -13.1711  -39.5365   -8.8085 C   0  0  0  0  0  0  0  0  0  0  0  0
  -14.3954  -40.1730   -8.3491 N   0  0  0  0  0  0  0  0  0  0  0  0
  -15.5400  -39.4781   -8.8938 C   0  0  0  0  0  0  0  0  0  0  0  0
  -16.4109  -38.8475   -7.8328 C   0  0  1  0  0  0  0  0  0  0  0  0
  -16.9378  -37.6453   -8.2878 O   0  0  0  0  0  0  0  0  0  0  0  0
  -17.6128  -39.8004   -7.6069 C   0  0  2  0  0  0  0  0  0  0  0  0
  -18.4608  -39.2948   -6.5261 C   0  0  0  0  0  0  0  0  0  0  0  0
  -19.9436  -39.4076   -6.5685 C   0  0  0  0  0  0  0  0  0  0  0  0
  -20.8471  -39.2277   -7.5793 C   0  0  0  0  0  0  0  0  0  0  0  0
  -22.1902  -39.4231   -7.2992 C   0  0  0  0  0  0  0  0  0  0  0  0
  -22.6044  -39.7912   -6.0092 C   0  0  0  0  0  0  0  0  0  0  0  0
  -21.7319  -39.9799   -4.9691 C   0  0  0  0  0  0  0  0  0  0  0  0
  -20.4179  -39.7818   -5.2816 C   0  0  0  0  0  0  0  0  0  0  0  0
  -23.2778  -39.3063   -8.1473 O   0  0  0  0  0  0  0  0  0  0  0  0
  -23.6812  -39.8517   -9.3490 C   0  0  0  0  0  0  0  0  0  0  0  0
  -23.8610  -41.3538   -9.3529 C   0  0  0  0  0  0  0  0  0  0  0  0
  -22.5299  -42.0957   -9.3274 C   0  0  0  0  0  0  0  0  0  0  0  0
  -22.4821  -42.9790   -8.1262 C   0  0  0  0  0  0  0  0  0  0  0  0
  -21.6141  -44.1917   -8.2542 C   0  0  0  0  0  0  0  0  0  0  0  0
  -20.3398  -43.9935   -8.9422 C   0  0  0  0  0  0  0  0  0  0  0  0
  -20.2409  -44.4923  -10.1193 O   0  0  0  0  0  0  0  0  0  0  0  0
  -19.2056  -43.3237   -8.4772 N   0  0  0  0  0  0  0  0  0  0  0  0
  -18.1121  -42.9884   -9.3690 C   0  0  0  0  0  0  0  0  0  0  0  0
  -19.0075  -42.9042   -7.0802 C   0  0  1  0  0  0  0  0  0  0  0  0
  -19.1670  -44.0719   -6.1412 C   0  0  0  0  0  0  0  0  0  0  0  0
  -17.6968  -42.2610   -6.8640 C   0  0  0  0  0  0  0  0  0  0  0  0
  -16.9626  -42.7955   -5.9508 O   0  0  0  0  0  0  0  0  0  0  0  0
  -17.1398  -41.1596   -7.5060 N   0  0  0  0  0  0  0  0  0  0  0  0
  -13.5518  -39.9966  -11.1948 C   0  0  0  0  0  0  0  0  0  0  0  0
  -13.6571  -39.5884  -12.4940 C   0  0  0  0  0  0  0  0  0  0  0  0
  -13.4962  -38.2530  -12.8207 C   0  0  0  0  0  0  0  0  0  0  0  0
  1  2  1  0
  2  3  1  0
  2  4  1  0
  4  5  2  0
  5  6  1  0
  6  7  1  0
  7  8  1  0
  8  9  1  0
  9 10  1  0
 10 11  1  6
 10 12  1  0
 12 13  1  1
 13 14  1  0
 14 15  2  0
 15 16  1  0
 16 17  2  0
 17 18  1  0
 18 19  2  0
 16 20  1  0
 20 21  1  0
 21 22  1  0
 22 23  1  0
 23 24  1  0
 24 25  1  0
 25 26  1  0
 26 27  2  0
 26 28  1  0
 28 29  1  0
 28 30  1  0
 30 31  1  1
 30 32  1  0
 32 33  2  0
 32 34  1  0
  6 35  2  0
 35 36  1  0
 36 37  2  0
 19 14  1  0
 34 12  1  0
 37  4  1  0
M  END
$$$$
