
     RDKit          3D

 37 39  0  0  0  0  0  0  0  0999 V2000
  -20.9194  -41.8285   -8.6597 C   0  0  0  0  0  0  0  0  0  0  0  0
  -19.7504  -42.4466   -7.8966 C   0  0  0  0  0  0  0  0  0  0  0  0
  -18.4929  -41.8126   -8.4511 C   0  0  0  0  0  0  0  0  0  0  0  0
  -19.9059  -42.0769   -6.4642 C   0  0  0  0  0  0  0  0  0  0  0  0
  -18.9720  -41.2898   -5.8344 C   0  0  0  0  0  0  0  0  0  0  0  0
  -19.1365  -40.9642   -4.5123 C   0  0  0  0  0  0  0  0  0  0  0  0
  -18.1395  -40.1251   -3.8304 C   0  0  0  0  0  0  0  0  0  0  0  0
  -16.9380  -39.9594   -4.6329 N   0  0  0  0  0  0  0  0  0  0  0  0
  -16.9189  -38.6360   -5.2142 C   0  0  0  0  0  0  0  0  0  0  0  0
  -16.1681  -38.5743   -6.5235 C   0  0  1  0  0  0  0  0  0  0  0  0
  -15.3853  -39.7100   -6.6889 O   0  0  0  0  0  0  0  0  0  0  0  0
  -17.2271  -38.5978   -7.6555 C   0  0  2  0  0  0  0  0  0  0  0  0
  -16.8205  -37.7084   -8.7448 C   0  0  0  0  0  0  0  0  0  0  0  0
  -17.0619  -38.0488  -10.1728 C   0  0  0  0  0  0  0  0  0  0  0  0
  -16.9407  -39.2202  -10.8680 C   0  0  0  0  0  0  0  0  0  0  0  0
  -17.2588  -39.2169  -12.2168 C   0  0  0  0  0  0  0  0  0  0  0  0
  -17.6888  -38.0378  -12.8461 C   0  0  0  0  0  0  0  0  0  0  0  0
  -17.8220  -36.8438  -12.1862 C   0  0  0  0  0  0  0  0  0  0  0  0
  -17.5031  -36.8848  -10.8595 C   0  0  0  0  0  0  0  0  0  0  0  0
  -17.2200  -40.2662  -13.1185 O   0  0  0  0  0  0  0  0  0  0  0  0
  -17.7734  -41.5261  -13.2224 C   0  0  0  0  0  0  0  0  0  0  0  0
  -19.2850  -41.5705  -13.2618 C   0  0  0  0  0  0  0  0  0  0  0  0
  -19.9078  -41.2797  -11.9015 C   0  0  0  0  0  0  0  0  0  0  0  0
  -20.8086  -40.0960  -12.0159 C   0  0  0  0  0  0  0  0  0  0  0  0
  -21.9375  -40.0501  -11.0343 C   0  0  0  0  0  0  0  0  0  0  0  0
  -21.6141  -40.4669   -9.6711 C   0  0  0  0  0  0  0  0  0  0  0  0
  -22.0776  -41.6014   -9.2940 O   0  0  0  0  0  0  0  0  0  0  0  0
  -20.8574  -39.7811   -8.7180 N   0  0  0  0  0  0  0  0  0  0  0  0
  -20.4090  -40.4335   -7.5028 C   0  0  0  0  0  0  0  0  0  0  0  0
  -20.4515  -38.3716   -8.8423 C   0  0  1  0  0  0  0  0  0  0  0  0
  -21.6482  -37.4873   -9.0808 C   0  0  0  0  0  0  0  0  0  0  0  0
  -19.7007  -37.8941   -7.6648 C   0  0  0  0  0  0  0  0  0  0  0  0
  -20.1878  -36.8533   -7.0832 O   0  0  0  0  0  0  0  0  0  0  0  0
  -18.5415  -38.4077   -7.0919 N   0  0  0  0  0  0  0  0  0  0  0  0
  -20.2303  -41.4209   -3.8157 C   0  0  0  0  0  0  0  0  0  0  0  0
  -21.1619  -42.2035   -4.4366 C   0  0  0  0  0  0  0  0  0  0  0  0
  -21.0112  -42.5419   -5.7703 C   0  0  0  0  0  0  0  0  0  0  0  0
  1  2  1  0
  2  3  1  0
  2  4  1  0
  4  5  2  0
  5  6  1  0
  6  7  1  0
  7  8  1  0
  8  9  1  0
  9 10  1  0
 10 11  1  6
 10 12  1  0
 12 13  1  6
 13 14  1  0
 14 15  2  0
 15 16  1  0
 16 17  2  0
 17 18  1  0
 18 19  2  0
 16 20  1  0
 20 21  1  0
 21 22  1  0
 22 23  1  0
 23 24  1  0
 24 25  1  0
 25 26  1  0
 26 27  2  0
 26 28  1  0
 28 29  1  0
 28 30  1  0
 30 31  1  1
 30 32  1  0
 32 33  2  0
 32 34  1  0
  6 35  2  0
 35 36  1  0
 36 37  2  0
 19 14  1  0
 34 12  1  0
 37  4  1  0
M  END
$$$$
