
     RDKit          3D

 37 39  0  0  0  0  0  0  0  0999 V2000
  -12.2551  -33.9164  -12.0789 C   0  0  0  0  0  0  0  0  0  0  0  0
  -13.3680  -34.5006  -11.2124 C   0  0  0  0  0  0  0  0  0  0  0  0
  -14.6243  -33.7259  -11.5477 C   0  0  0  0  0  0  0  0  0  0  0  0
  -13.5401  -35.9249  -11.6056 C   0  0  0  0  0  0  0  0  0  0  0  0
  -13.4730  -36.9275  -10.6682 C   0  0  0  0  0  0  0  0  0  0  0  0
  -13.6329  -38.2333  -11.0558 C   0  0  0  0  0  0  0  0  0  0  0  0
  -13.5590  -39.3122  -10.0590 C   0  0  0  0  0  0  0  0  0  0  0  0
  -14.3610  -39.0129   -8.8833 N   0  0  0  0  0  0  0  0  0  0  0  0
  -15.4517  -39.9565   -8.7842 C   0  0  0  0  0  0  0  0  0  0  0  0
  -16.7464  -39.4282   -9.3554 C   0  0  1  0  0  0  0  0  0  0  0  0
  -16.8979  -39.8362  -10.6747 O   0  0  0  0  0  0  0  0  0  0  0  0
  -17.8983  -40.0865   -8.5534 C   0  0  2  0  0  0  0  0  0  0  0  0
  -18.6059  -39.0758   -7.7655 C   0  0  0  0  0  0  0  0  0  0  0  0
  -20.0804  -39.1164   -7.5723 C   0  0  0  0  0  0  0  0  0  0  0  0
  -21.1085  -39.4020   -8.4278 C   0  0  0  0  0  0  0  0  0  0  0  0
  -22.4021  -39.3654   -7.9320 C   0  0  0  0  0  0  0  0  0  0  0  0
  -22.6425  -39.0387   -6.5879 C   0  0  0  0  0  0  0  0  0  0  0  0
  -21.6414  -38.7447   -5.6991 C   0  0  0  0  0  0  0  0  0  0  0  0
  -20.3808  -38.7932   -6.2209 C   0  0  0  0  0  0  0  0  0  0  0  0
  -23.5910  -39.6175   -8.5941 O   0  0  0  0  0  0  0  0  0  0  0  0
  -24.1395  -40.6554   -9.3197 C   0  0  0  0  0  0  0  0  0  0  0  0
  -24.3012  -41.9587   -8.5687 C   0  0  0  0  0  0  0  0  0  0  0  0
  -22.9696  -42.6642   -8.3414 C   0  0  0  0  0  0  0  0  0  0  0  0
  -22.7575  -42.8547   -6.8771 C   0  0  0  0  0  0  0  0  0  0  0  0
  -21.8994  -44.0211   -6.4982 C   0  0  0  0  0  0  0  0  0  0  0  0
  -20.7266  -44.2495   -7.3401 C   0  0  0  0  0  0  0  0  0  0  0  0
  -20.7744  -45.2614   -8.1263 O   0  0  0  0  0  0  0  0  0  0  0  0
  -19.5497  -43.4994   -7.3986 N   0  0  0  0  0  0  0  0  0  0  0  0
  -18.5840  -43.6975   -8.4623 C   0  0  0  0  0  0  0  0  0  0  0  0
  -19.1782  -42.4658   -6.4185 C   0  0  1  0  0  0  0  0  0  0  0  0
  -19.2022  -43.0207   -5.0177 C   0  0  0  0  0  0  0  0  0  0  0  0
  -17.8580  -41.8690   -6.7000 C   0  0  0  0  0  0  0  0  0  0  0  0
  -17.0063  -41.9311   -5.7358 O   0  0  0  0  0  0  0  0  0  0  0  0
  -17.4009  -41.2489   -7.8584 N   0  0  0  0  0  0  0  0  0  0  0  0
  -13.8600  -38.5429  -12.3759 C   0  0  0  0  0  0  0  0  0  0  0  0
  -13.9277  -37.5505  -13.3120 C   0  0  0  0  0  0  0  0  0  0  0  0
  -13.7683  -36.2273  -12.9382 C   0  0  0  0  0  0  0  0  0  0  0  0
  1  2  1  0
  2  3  1  0
  2  4  1  0
  4  5  2  0
  5  6  1  0
  6  7  1  0
  7  8  1  0
  8  9  1  0
  9 10  1  0
 10 11  1  6
 10 12  1  0
 12 13  1  1
 13 14  1  0
 14 15  2  0
 15 16  1  0
 16 17  2  0
 17 18  1  0
 18 19  2  0
 16 20  1  0
 20 21  1  0
 21 22  1  0
 22 23  1  0
 23 24  1  0
 24 25  1  0
 25 26  1  0
 26 27  2  0
 26 28  1  0
 28 29  1  0
 28 30  1  0
 30 31  1  1
 30 32  1  0
 32 33  2  0
 32 34  1  0
  6 35  2  0
 35 36  1  0
 36 37  2  0
 19 14  1  0
 34 12  1  0
 37  4  1  0
M  END
$$$$
