
     RDKit          3D

 37 39  0  0  0  0  0  0  0  0999 V2000
  -10.5152  -36.7493  -12.0041 C   0  0  0  0  0  0  0  0  0  0  0  0
  -11.6086  -36.6801  -13.0674 C   0  0  0  0  0  0  0  0  0  0  0  0
  -11.3521  -37.8265  -14.0218 C   0  0  0  0  0  0  0  0  0  0  0  0
  -12.9129  -36.8838  -12.3817 C   0  0  0  0  0  0  0  0  0  0  0  0
  -12.9654  -37.3746  -11.0992 C   0  0  0  0  0  0  0  0  0  0  0  0
  -14.1802  -37.5556  -10.4890 C   0  0  0  0  0  0  0  0  0  0  0  0
  -14.2447  -38.0838   -9.1178 C   0  0  0  0  0  0  0  0  0  0  0  0
  -14.3915  -39.5307   -9.1062 N   0  0  0  0  0  0  0  0  0  0  0  0
  -15.7946  -39.8782   -9.0950 C   0  0  0  0  0  0  0  0  0  0  0  0
  -16.6062  -39.0369   -8.1382 C   0  0  1  0  0  0  0  0  0  0  0  0
  -17.1023  -37.9104   -8.7823 O   0  0  0  0  0  0  0  0  0  0  0  0
  -17.8349  -39.8842   -7.7188 C   0  0  2  0  0  0  0  0  0  0  0  0
  -18.5606  -39.2183   -6.6359 C   0  0  0  0  0  0  0  0  0  0  0  0
  -20.0457  -39.2415   -6.5507 C   0  0  0  0  0  0  0  0  0  0  0  0
  -21.0196  -39.1098   -7.5016 C   0  0  0  0  0  0  0  0  0  0  0  0
  -22.3431  -39.1906   -7.0988 C   0  0  0  0  0  0  0  0  0  0  0  0
  -22.6670  -39.3979   -5.7485 C   0  0  0  0  0  0  0  0  0  0  0  0
  -21.7220  -39.5334   -4.7650 C   0  0  0  0  0  0  0  0  0  0  0  0
  -20.4300  -39.4513   -5.1981 C   0  0  0  0  0  0  0  0  0  0  0  0
  -23.4900  -39.0934   -7.8674 O   0  0  0  0  0  0  0  0  0  0  0  0
  -24.0218  -39.7327   -8.9688 C   0  0  0  0  0  0  0  0  0  0  0  0
  -24.2826  -41.2130   -8.7976 C   0  0  0  0  0  0  0  0  0  0  0  0
  -22.9963  -42.0304   -8.7961 C   0  0  0  0  0  0  0  0  0  0  0  0
  -22.8960  -42.7873   -7.5145 C   0  0  0  0  0  0  0  0  0  0  0  0
  -22.1089  -44.0587   -7.5787 C   0  0  0  0  0  0  0  0  0  0  0  0
  -20.8879  -44.0125   -8.3808 C   0  0  0  0  0  0  0  0  0  0  0  0
  -20.9152  -44.6346   -9.5018 O   0  0  0  0  0  0  0  0  0  0  0  0
  -19.6840  -43.3711   -8.0798 N   0  0  0  0  0  0  0  0  0  0  0  0
  -18.6525  -43.1983   -9.0846 C   0  0  0  0  0  0  0  0  0  0  0  0
  -19.3470  -42.8239   -6.7555 C   0  0  1  0  0  0  0  0  0  0  0  0
  -19.4903  -43.8770   -5.6872 C   0  0  0  0  0  0  0  0  0  0  0  0
  -17.9898  -42.2456   -6.7120 C   0  0  0  0  0  0  0  0  0  0  0  0
  -17.2116  -42.7287   -5.8065 O   0  0  0  0  0  0  0  0  0  0  0  0
  -17.4296  -41.2530   -7.5098 N   0  0  0  0  0  0  0  0  0  0  0  0
  -15.3437  -37.2481  -11.1537 C   0  0  0  0  0  0  0  0  0  0  0  0
  -15.2976  -36.7598  -12.4285 C   0  0  0  0  0  0  0  0  0  0  0  0
  -14.0800  -36.5713  -13.0594 C   0  0  0  0  0  0  0  0  0  0  0  0
  1  2  1  0
  2  3  1  0
  2  4  1  0
  4  5  2  0
  5  6  1  0
  6  7  1  0
  7  8  1  0
  8  9  1  0
  9 10  1  0
 10 11  1  6
 10 12  1  0
 12 13  1  1
 13 14  1  0
 14 15  2  0
 15 16  1  0
 16 17  2  0
 17 18  1  0
 18 19  2  0
 16 20  1  0
 20 21  1  0
 21 22  1  0
 22 23  1  0
 23 24  1  0
 24 25  1  0
 25 26  1  0
 26 27  2  0
 26 28  1  0
 28 29  1  0
 28 30  1  0
 30 31  1  1
 30 32  1  0
 32 33  2  0
 32 34  1  0
  6 35  2  0
 35 36  1  0
 36 37  2  0
 19 14  1  0
 34 12  1  0
 37  4  1  0
M  END
$$$$
