
     RDKit          3D

 37 39  0  0  0  0  0  0  0  0999 V2000
  -22.4680  -37.4646   -9.3625 C   0  0  0  0  0  0  0  0  0  0  0  0
  -21.6914  -36.3953   -8.5980 C   0  0  0  0  0  0  0  0  0  0  0  0
  -22.6444  -35.8261   -7.5692 C   0  0  0  0  0  0  0  0  0  0  0  0
  -20.5592  -37.0713   -7.9095 C   0  0  0  0  0  0  0  0  0  0  0  0
  -20.6781  -38.3652   -7.4624 C   0  0  0  0  0  0  0  0  0  0  0  0
  -19.6207  -38.9661   -6.8286 C   0  0  0  0  0  0  0  0  0  0  0  0
  -19.7415  -40.3496   -6.3440 C   0  0  0  0  0  0  0  0  0  0  0  0
  -18.6494  -40.7029   -5.4509 N   0  0  0  0  0  0  0  0  0  0  0  0
  -17.4638  -40.9976   -6.2236 C   0  0  0  0  0  0  0  0  0  0  0  0
  -17.7116  -40.9962   -7.7137 C   0  0  1  0  0  0  0  0  0  0  0  0
  -16.5246  -40.7847   -8.4037 O   0  0  0  0  0  0  0  0  0  0  0  0
  -18.1975  -42.4184   -8.0942 C   0  0  2  0  0  0  0  0  0  0  0  0
  -18.6538  -42.4399   -9.4849 C   0  0  0  0  0  0  0  0  0  0  0  0
  -18.4118  -43.6061  -10.3765 C   0  0  0  0  0  0  0  0  0  0  0  0
  -17.3222  -44.4137  -10.5523 C   0  0  0  0  0  0  0  0  0  0  0  0
  -17.4145  -45.4466  -11.4717 C   0  0  0  0  0  0  0  0  0  0  0  0
  -18.5964  -45.6490  -12.2019 C   0  0  0  0  0  0  0  0  0  0  0  0
  -19.7092  -44.8620  -12.0567 C   0  0  0  0  0  0  0  0  0  0  0  0
  -19.5835  -43.8570  -11.1414 C   0  0  0  0  0  0  0  0  0  0  0  0
  -16.4593  -46.3866  -11.8171 O   0  0  0  0  0  0  0  0  0  0  0  0
  -15.6987  -47.3363  -11.1658 C   0  0  0  0  0  0  0  0  0  0  0  0
  -16.4805  -48.4176  -10.4531 C   0  0  0  0  0  0  0  0  0  0  0  0
  -17.1465  -47.9067   -9.1809 C   0  0  0  0  0  0  0  0  0  0  0  0
  -18.6198  -48.1199   -9.2774 C   0  0  0  0  0  0  0  0  0  0  0  0
  -19.3324  -48.2845   -7.9715 C   0  0  0  0  0  0  0  0  0  0  0  0
  -18.8919  -47.4054   -6.8899 C   0  0  0  0  0  0  0  0  0  0  0  0
  -18.2172  -47.9520   -5.9464 O   0  0  0  0  0  0  0  0  0  0  0  0
  -19.1138  -46.0331   -6.7517 N   0  0  0  0  0  0  0  0  0  0  0  0
  -18.3991  -45.2522   -5.7604 C   0  0  0  0  0  0  0  0  0  0  0  0
  -20.0656  -45.2628   -7.5686 C   0  0  1  0  0  0  0  0  0  0  0  0
  -21.4414  -45.8747   -7.5102 C   0  0  0  0  0  0  0  0  0  0  0  0
  -20.1301  -43.8426   -7.1721 C   0  0  0  0  0  0  0  0  0  0  0  0
  -21.3021  -43.4079   -6.8619 O   0  0  0  0  0  0  0  0  0  0  0  0
  -19.1057  -42.9054   -7.0845 N   0  0  0  0  0  0  0  0  0  0  0  0
  -18.4440  -38.2807   -6.6395 C   0  0  0  0  0  0  0  0  0  0  0  0
  -18.3201  -36.9944   -7.0820 C   0  0  0  0  0  0  0  0  0  0  0  0
  -19.3775  -36.3726   -7.7233 C   0  0  0  0  0  0  0  0  0  0  0  0
  1  2  1  0
  2  3  1  0
  2  4  1  0
  4  5  2  0
  5  6  1  0
  6  7  1  0
  7  8  1  0
  8  9  1  0
  9 10  1  0
 10 11  1  6
 10 12  1  0
 12 13  1  6
 13 14  1  0
 14 15  2  0
 15 16  1  0
 16 17  2  0
 17 18  1  0
 18 19  2  0
 16 20  1  0
 20 21  1  0
 21 22  1  0
 22 23  1  0
 23 24  1  0
 24 25  1  0
 25 26  1  0
 26 27  2  0
 26 28  1  0
 28 29  1  0
 28 30  1  0
 30 31  1  1
 30 32  1  0
 32 33  2  0
 32 34  1  0
  6 35  2  0
 35 36  1  0
 36 37  2  0
 19 14  1  0
 34 12  1  0
 37  4  1  0
M  END
$$$$
