
     RDKit          3D

 37 39  0  0  0  0  0  0  0  0999 V2000
  -14.0572  -34.7653  -11.5638 C   0  0  0  0  0  0  0  0  0  0  0  0
  -12.8714  -35.4719  -12.2160 C   0  0  0  0  0  0  0  0  0  0  0  0
  -11.6398  -35.0389  -11.4502 C   0  0  0  0  0  0  0  0  0  0  0  0
  -13.0750  -36.9357  -12.0473 C   0  0  0  0  0  0  0  0  0  0  0  0
  -13.1754  -37.4933  -10.7954 C   0  0  0  0  0  0  0  0  0  0  0  0
  -13.3610  -38.8460  -10.6658 C   0  0  0  0  0  0  0  0  0  0  0  0
  -13.4659  -39.4507   -9.3291 C   0  0  0  0  0  0  0  0  0  0  0  0
  -14.7913  -39.9997   -9.0906 N   0  0  0  0  0  0  0  0  0  0  0  0
  -15.3792  -39.3679   -7.9310 C   0  0  0  0  0  0  0  0  0  0  0  0
  -16.6292  -38.5833   -8.2530 C   0  0  1  0  0  0  0  0  0  0  0  0
  -16.7333  -38.3755   -9.6227 O   0  0  0  0  0  0  0  0  0  0  0  0
  -17.8367  -39.4665   -7.8462 C   0  0  2  0  0  0  0  0  0  0  0  0
  -18.7256  -38.7239   -6.9512 C   0  0  0  0  0  0  0  0  0  0  0  0
  -20.2056  -38.8601   -7.0181 C   0  0  0  0  0  0  0  0  0  0  0  0
  -21.0710  -38.9403   -8.0740 C   0  0  0  0  0  0  0  0  0  0  0  0
  -22.4232  -39.0770   -7.8033 C   0  0  0  0  0  0  0  0  0  0  0  0
  -22.8846  -39.1266   -6.4782 C   0  0  0  0  0  0  0  0  0  0  0  0
  -22.0513  -39.0481   -5.3928 C   0  0  0  0  0  0  0  0  0  0  0  0
  -20.7270  -38.9169   -5.6967 C   0  0  0  0  0  0  0  0  0  0  0  0
  -23.4785  -39.1811   -8.6928 O   0  0  0  0  0  0  0  0  0  0  0  0
  -23.8355  -40.0056   -9.7402 C   0  0  0  0  0  0  0  0  0  0  0  0
  -24.0119  -41.4659   -9.3865 C   0  0  0  0  0  0  0  0  0  0  0  0
  -22.6811  -42.1646   -9.1344 C   0  0  0  0  0  0  0  0  0  0  0  0
  -22.6764  -42.7304   -7.7540 C   0  0  0  0  0  0  0  0  0  0  0  0
  -21.8017  -43.9282   -7.5532 C   0  0  0  0  0  0  0  0  0  0  0  0
  -20.5029  -43.8883   -8.2226 C   0  0  0  0  0  0  0  0  0  0  0  0
  -20.3589  -44.6561   -9.2395 O   0  0  0  0  0  0  0  0  0  0  0  0
  -19.3883  -43.1132   -7.8934 N   0  0  0  0  0  0  0  0  0  0  0  0
  -18.2629  -42.9916   -8.8000 C   0  0  0  0  0  0  0  0  0  0  0  0
  -19.2436  -42.3659   -6.6335 C   0  0  1  0  0  0  0  0  0  0  0  0
  -19.4356  -43.2734   -5.4459 C   0  0  0  0  0  0  0  0  0  0  0  0
  -17.9433  -41.6750   -6.5327 C   0  0  0  0  0  0  0  0  0  0  0  0
  -17.2426  -41.9643   -5.4915 O   0  0  0  0  0  0  0  0  0  0  0  0
  -17.3650  -40.7556   -7.4021 N   0  0  0  0  0  0  0  0  0  0  0  0
  -13.4474  -39.6450  -11.7812 C   0  0  0  0  0  0  0  0  0  0  0  0
  -13.3485  -39.0962  -13.0281 C   0  0  0  0  0  0  0  0  0  0  0  0
  -13.1607  -37.7329  -13.1771 C   0  0  0  0  0  0  0  0  0  0  0  0
  1  2  1  0
  2  3  1  0
  2  4  1  0
  4  5  2  0
  5  6  1  0
  6  7  1  0
  7  8  1  0
  8  9  1  0
  9 10  1  0
 10 11  1  6
 10 12  1  0
 12 13  1  1
 13 14  1  0
 14 15  2  0
 15 16  1  0
 16 17  2  0
 17 18  1  0
 18 19  2  0
 16 20  1  0
 20 21  1  0
 21 22  1  0
 22 23  1  0
 23 24  1  0
 24 25  1  0
 25 26  1  0
 26 27  2  0
 26 28  1  0
 28 29  1  0
 28 30  1  0
 30 31  1  1
 30 32  1  0
 32 33  2  0
 32 34  1  0
  6 35  2  0
 35 36  1  0
 36 37  2  0
 19 14  1  0
 34 12  1  0
 37  4  1  0
M  END
$$$$
