
     RDKit          3D

 37 39  0  0  0  0  0  0  0  0999 V2000
  -11.4880  -37.9648   -9.8668 C   0  0  0  0  0  0  0  0  0  0  0  0
  -11.4285  -36.9715  -11.0247 C   0  0  0  0  0  0  0  0  0  0  0  0
  -10.6326  -37.6413  -12.1241 C   0  0  0  0  0  0  0  0  0  0  0  0
  -12.8231  -36.7405  -11.4879 C   0  0  0  0  0  0  0  0  0  0  0  0
  -13.8529  -37.5361  -11.0464 C   0  0  0  0  0  0  0  0  0  0  0  0
  -15.1300  -37.3044  -11.4896 C   0  0  0  0  0  0  0  0  0  0  0  0
  -16.2369  -38.1538  -11.0244 C   0  0  0  0  0  0  0  0  0  0  0  0
  -15.8250  -39.0229   -9.9333 N   0  0  0  0  0  0  0  0  0  0  0  0
  -15.2020  -38.2366   -8.8926 C   0  0  0  0  0  0  0  0  0  0  0  0
  -16.1258  -37.9507   -7.7321 C   0  0  1  0  0  0  0  0  0  0  0  0
  -16.8540  -36.7907   -7.9649 O   0  0  0  0  0  0  0  0  0  0  0  0
  -17.1509  -39.1122   -7.6712 C   0  0  2  0  0  0  0  0  0  0  0  0
  -17.9920  -38.9803   -6.4804 C   0  0  0  0  0  0  0  0  0  0  0  0
  -19.4398  -39.3221   -6.4957 C   0  0  0  0  0  0  0  0  0  0  0  0
  -20.4255  -39.0911   -7.4151 C   0  0  0  0  0  0  0  0  0  0  0  0
  -21.7016  -39.5549   -7.1373 C   0  0  0  0  0  0  0  0  0  0  0  0
  -21.9679  -40.2386   -5.9403 C   0  0  0  0  0  0  0  0  0  0  0  0
  -21.0095  -40.4889   -4.9929 C   0  0  0  0  0  0  0  0  0  0  0  0
  -19.7647  -40.0206   -5.3009 C   0  0  0  0  0  0  0  0  0  0  0  0
  -22.8483  -39.4478   -7.9048 O   0  0  0  0  0  0  0  0  0  0  0  0
  -23.2433  -39.7974   -9.1800 C   0  0  0  0  0  0  0  0  0  0  0  0
  -23.1922  -41.2765   -9.4934 C   0  0  0  0  0  0  0  0  0  0  0  0
  -21.7650  -41.7815   -9.6692 C   0  0  0  0  0  0  0  0  0  0  0  0
  -21.5033  -42.8695   -8.6827 C   0  0  0  0  0  0  0  0  0  0  0  0
  -20.4713  -43.8735   -9.0917 C   0  0  0  0  0  0  0  0  0  0  0  0
  -19.2908  -43.3357   -9.7652 C   0  0  0  0  0  0  0  0  0  0  0  0
  -19.1958  -43.5635  -11.0235 O   0  0  0  0  0  0  0  0  0  0  0  0
  -18.2433  -42.5982   -9.2082 N   0  0  0  0  0  0  0  0  0  0  0  0
  -17.2755  -41.9162  -10.0459 C   0  0  0  0  0  0  0  0  0  0  0  0
  -18.0186  -42.4431   -7.7618 C   0  0  1  0  0  0  0  0  0  0  0  0
  -17.9355  -43.7866   -7.0842 C   0  0  0  0  0  0  0  0  0  0  0  0
  -16.8097  -41.6524   -7.4595 C   0  0  0  0  0  0  0  0  0  0  0  0
  -15.9433  -42.2336   -6.7042 O   0  0  0  0  0  0  0  0  0  0  0  0
  -16.4709  -40.3683   -7.8741 N   0  0  0  0  0  0  0  0  0  0  0  0
  -15.3839  -36.2810  -12.3718 C   0  0  0  0  0  0  0  0  0  0  0  0
  -14.3642  -35.4869  -12.8139 C   0  0  0  0  0  0  0  0  0  0  0  0
  -13.0693  -35.7070  -12.3770 C   0  0  0  0  0  0  0  0  0  0  0  0
  1  2  1  0
  2  3  1  0
  2  4  1  0
  4  5  2  0
  5  6  1  0
  6  7  1  0
  7  8  1  0
  8  9  1  0
  9 10  1  0
 10 11  1  6
 10 12  1  0
 12 13  1  1
 13 14  1  0
 14 15  2  0
 15 16  1  0
 16 17  2  0
 17 18  1  0
 18 19  2  0
 16 20  1  0
 20 21  1  0
 21 22  1  0
 22 23  1  0
 23 24  1  0
 24 25  1  0
 25 26  1  0
 26 27  2  0
 26 28  1  0
 28 29  1  0
 28 30  1  0
 30 31  1  1
 30 32  1  0
 32 33  2  0
 32 34  1  0
  6 35  2  0
 35 36  1  0
 36 37  2  0
 19 14  1  0
 34 12  1  0
 37  4  1  0
M  END
$$$$
