
     RDKit          3D

 37 39  0  0  0  0  0  0  0  0999 V2000
  -16.4367  -34.0723  -10.1737 C   0  0  0  0  0  0  0  0  0  0  0  0
  -17.7117  -34.8540  -10.4809 C   0  0  0  0  0  0  0  0  0  0  0  0
  -17.5626  -35.3807  -11.8919 C   0  0  0  0  0  0  0  0  0  0  0  0
  -17.7782  -35.9937   -9.5272 C   0  0  0  0  0  0  0  0  0  0  0  0
  -16.6600  -36.7397   -9.2419 C   0  0  0  0  0  0  0  0  0  0  0  0
  -16.7471  -37.7869   -8.3606 C   0  0  0  0  0  0  0  0  0  0  0  0
  -15.5555  -38.5923   -8.0529 C   0  0  0  0  0  0  0  0  0  0  0  0
  -15.8173  -39.5564   -6.9960 N   0  0  0  0  0  0  0  0  0  0  0  0
  -16.2114  -40.8204   -7.5760 C   0  0  0  0  0  0  0  0  0  0  0  0
  -16.9913  -40.6659   -8.8604 C   0  0  1  0  0  0  0  0  0  0  0  0
  -16.4063  -41.4106   -9.8768 O   0  0  0  0  0  0  0  0  0  0  0  0
  -18.3949  -41.2770   -8.6155 C   0  0  2  0  0  0  0  0  0  0  0  0
  -19.3765  -40.6593   -9.5086 C   0  0  0  0  0  0  0  0  0  0  0  0
  -20.4838  -41.4395  -10.1239 C   0  0  0  0  0  0  0  0  0  0  0  0
  -20.5255  -42.6889  -10.6786 C   0  0  0  0  0  0  0  0  0  0  0  0
  -21.7384  -43.1482  -11.1667 C   0  0  0  0  0  0  0  0  0  0  0  0
  -22.8876  -42.3450  -11.0940 C   0  0  0  0  0  0  0  0  0  0  0  0
  -22.8880  -41.0879  -10.5477 C   0  0  0  0  0  0  0  0  0  0  0  0
  -21.6777  -40.6694  -10.0748 C   0  0  0  0  0  0  0  0  0  0  0  0
  -22.0285  -44.3639  -11.7613 O   0  0  0  0  0  0  0  0  0  0  0  0
  -21.9121  -45.6992  -11.4327 C   0  0  0  0  0  0  0  0  0  0  0  0
  -22.6810  -46.1355  -10.2050 C   0  0  0  0  0  0  0  0  0  0  0  0
  -22.0395  -45.6399   -8.9144 C   0  0  0  0  0  0  0  0  0  0  0  0
  -23.0235  -44.8064   -8.1645 C   0  0  0  0  0  0  0  0  0  0  0  0
  -22.8383  -44.7731   -6.6797 C   0  0  0  0  0  0  0  0  0  0  0  0
  -21.4560  -44.6907   -6.2116 C   0  0  0  0  0  0  0  0  0  0  0  0
  -20.9665  -45.7511   -5.6822 O   0  0  0  0  0  0  0  0  0  0  0  0
  -20.5920  -43.5945   -6.2681 N   0  0  0  0  0  0  0  0  0  0  0  0
  -19.1743  -43.7401   -5.9995 C   0  0  0  0  0  0  0  0  0  0  0  0
  -21.0163  -42.2229   -6.5931 C   0  0  1  0  0  0  0  0  0  0  0  0
  -22.1324  -41.7766   -5.6844 C   0  0  0  0  0  0  0  0  0  0  0  0
  -19.9018  -41.2574   -6.5315 C   0  0  0  0  0  0  0  0  0  0  0  0
  -20.0823  -40.2540   -5.7445 O   0  0  0  0  0  0  0  0  0  0  0  0
  -18.6827  -41.2757   -7.2017 N   0  0  0  0  0  0  0  0  0  0  0  0
  -17.9465  -38.0927   -7.7621 C   0  0  0  0  0  0  0  0  0  0  0  0
  -19.0612  -37.3545   -8.0417 C   0  0  0  0  0  0  0  0  0  0  0  0
  -18.9911  -36.2945   -8.9290 C   0  0  0  0  0  0  0  0  0  0  0  0
  1  2  1  0
  2  3  1  0
  2  4  1  0
  4  5  2  0
  5  6  1  0
  6  7  1  0
  7  8  1  0
  8  9  1  0
  9 10  1  0
 10 11  1  6
 10 12  1  0
 12 13  1  6
 13 14  1  0
 14 15  2  0
 15 16  1  0
 16 17  2  0
 17 18  1  0
 18 19  2  0
 16 20  1  0
 20 21  1  0
 21 22  1  0
 22 23  1  0
 23 24  1  0
 24 25  1  0
 25 26  1  0
 26 27  2  0
 26 28  1  0
 28 29  1  0
 28 30  1  0
 30 31  1  1
 30 32  1  0
 32 33  2  0
 32 34  1  0
  6 35  2  0
 35 36  1  0
 36 37  2  0
 19 14  1  0
 34 12  1  0
 37  4  1  0
M  END
$$$$
