
     RDKit          3D

 37 39  0  0  0  0  0  0  0  0999 V2000
  -14.3928  -34.9953  -11.9368 C   0  0  0  0  0  0  0  0  0  0  0  0
  -13.3659  -35.6880  -12.8293 C   0  0  0  0  0  0  0  0  0  0  0  0
  -12.0056  -35.3614  -12.2516 C   0  0  0  0  0  0  0  0  0  0  0  0
  -13.6088  -37.1527  -12.7370 C   0  0  0  0  0  0  0  0  0  0  0  0
  -13.3763  -37.8328  -11.5659 C   0  0  0  0  0  0  0  0  0  0  0  0
  -13.6060  -39.1836  -11.5062 C   0  0  0  0  0  0  0  0  0  0  0  0
  -13.3560  -39.9193  -10.2574 C   0  0  0  0  0  0  0  0  0  0  0  0
  -14.1290  -39.3773   -9.1510 N   0  0  0  0  0  0  0  0  0  0  0  0
  -15.5105  -39.7840   -9.2763 C   0  0  0  0  0  0  0  0  0  0  0  0
  -16.4822  -38.7509   -8.7564 C   0  0  1  0  0  0  0  0  0  0  0  0
  -16.9680  -37.9723   -9.7993 O   0  0  0  0  0  0  0  0  0  0  0  0
  -17.6962  -39.5212   -8.1763 C   0  0  2  0  0  0  0  0  0  0  0  0
  -18.4147  -38.6808   -7.2169 C   0  0  0  0  0  0  0  0  0  0  0  0
  -19.8982  -38.7009   -7.1070 C   0  0  0  0  0  0  0  0  0  0  0  0
  -20.8859  -38.7467   -8.0518 C   0  0  0  0  0  0  0  0  0  0  0  0
  -22.2031  -38.7661   -7.6216 C   0  0  0  0  0  0  0  0  0  0  0  0
  -22.5071  -38.7349   -6.2512 C   0  0  0  0  0  0  0  0  0  0  0  0
  -21.5478  -38.6873   -5.2733 C   0  0  0  0  0  0  0  0  0  0  0  0
  -20.2626  -38.6722   -5.7331 C   0  0  0  0  0  0  0  0  0  0  0  0
  -23.3609  -38.8151   -8.3783 O   0  0  0  0  0  0  0  0  0  0  0  0
  -23.9002  -39.6428   -9.3419 C   0  0  0  0  0  0  0  0  0  0  0  0
  -24.1430  -41.0718   -8.9090 C   0  0  0  0  0  0  0  0  0  0  0  0
  -22.8481  -41.8657   -8.7827 C   0  0  0  0  0  0  0  0  0  0  0  0
  -22.7230  -42.3841   -7.3894 C   0  0  0  0  0  0  0  0  0  0  0  0
  -21.9233  -43.6405   -7.2404 C   0  0  0  0  0  0  0  0  0  0  0  0
  -20.7135  -43.7264   -8.0561 C   0  0  0  0  0  0  0  0  0  0  0  0
  -20.7488  -44.5364   -9.0496 O   0  0  0  0  0  0  0  0  0  0  0  0
  -19.5126  -43.0322   -7.8905 N   0  0  0  0  0  0  0  0  0  0  0  0
  -18.4963  -43.0306   -8.9252 C   0  0  0  0  0  0  0  0  0  0  0  0
  -19.1641  -42.2575   -6.6884 C   0  0  1  0  0  0  0  0  0  0  0  0
  -19.2823  -43.1070   -5.4493 C   0  0  0  0  0  0  0  0  0  0  0  0
  -17.8128  -41.6695   -6.7674 C   0  0  0  0  0  0  0  0  0  0  0  0
  -17.0177  -41.9791   -5.8026 O   0  0  0  0  0  0  0  0  0  0  0  0
  -17.2737  -40.8283   -7.7356 N   0  0  0  0  0  0  0  0  0  0  0  0
  -14.0676  -39.8589  -12.6113 C   0  0  0  0  0  0  0  0  0  0  0  0
  -14.3007  -39.1879  -13.7780 C   0  0  0  0  0  0  0  0  0  0  0  0
  -14.0738  -37.8246  -13.8557 C   0  0  0  0  0  0  0  0  0  0  0  0
  1  2  1  0
  2  3  1  0
  2  4  1  0
  4  5  2  0
  5  6  1  0
  6  7  1  0
  7  8  1  0
  8  9  1  0
  9 10  1  0
 10 11  1  6
 10 12  1  0
 12 13  1  1
 13 14  1  0
 14 15  2  0
 15 16  1  0
 16 17  2  0
 17 18  1  0
 18 19  2  0
 16 20  1  0
 20 21  1  0
 21 22  1  0
 22 23  1  0
 23 24  1  0
 24 25  1  0
 25 26  1  0
 26 27  2  0
 26 28  1  0
 28 29  1  0
 28 30  1  0
 30 31  1  1
 30 32  1  0
 32 33  2  0
 32 34  1  0
  6 35  2  0
 35 36  1  0
 36 37  2  0
 19 14  1  0
 34 12  1  0
 37  4  1  0
M  END
$$$$
