
     RDKit          3D

 37 39  0  0  0  0  0  0  0  0999 V2000
  -11.4017  -40.6423  -13.2285 C   0  0  0  0  0  0  0  0  0  0  0  0
  -12.4995  -39.8479  -13.9319 C   0  0  0  0  0  0  0  0  0  0  0  0
  -13.7147  -40.7487  -13.9841 C   0  0  0  0  0  0  0  0  0  0  0  0
  -12.7971  -38.6564  -13.0925 C   0  0  0  0  0  0  0  0  0  0  0  0
  -12.7858  -38.7404  -11.7209 C   0  0  0  0  0  0  0  0  0  0  0  0
  -13.0654  -37.6282  -10.9687 C   0  0  0  0  0  0  0  0  0  0  0  0
  -13.0587  -37.7110   -9.5002 C   0  0  0  0  0  0  0  0  0  0  0  0
  -13.8806  -38.8108   -9.0206 N   0  0  0  0  0  0  0  0  0  0  0  0
  -15.2576  -38.5930   -9.4028 C   0  0  0  0  0  0  0  0  0  0  0  0
  -16.1330  -38.1662   -8.2482 C   0  0  1  0  0  0  0  0  0  0  0  0
  -16.7411  -36.9479   -8.5237 O   0  0  0  0  0  0  0  0  0  0  0  0
  -17.2711  -39.2125   -8.1306 C   0  0  2  0  0  0  0  0  0  0  0  0
  -18.1642  -38.8637   -7.0245 C   0  0  0  0  0  0  0  0  0  0  0  0
  -19.6355  -39.0693   -7.1040 C   0  0  0  0  0  0  0  0  0  0  0  0
  -20.5366  -38.8582   -8.1108 C   0  0  0  0  0  0  0  0  0  0  0  0
  -21.8669  -39.1658   -7.8740 C   0  0  0  0  0  0  0  0  0  0  0  0
  -22.2713  -39.6758   -6.6300 C   0  0  0  0  0  0  0  0  0  0  0  0
  -21.4010  -39.9003   -5.5952 C   0  0  0  0  0  0  0  0  0  0  0  0
  -20.0994  -39.5889   -5.8646 C   0  0  0  0  0  0  0  0  0  0  0  0
  -22.9494  -39.0443   -8.7279 O   0  0  0  0  0  0  0  0  0  0  0  0
  -23.3006  -39.5039   -9.9809 C   0  0  0  0  0  0  0  0  0  0  0  0
  -23.3793  -41.0080  -10.1227 C   0  0  0  0  0  0  0  0  0  0  0  0
  -22.0019  -41.6601  -10.1394 C   0  0  0  0  0  0  0  0  0  0  0  0
  -21.9097  -42.6437   -9.0216 C   0  0  0  0  0  0  0  0  0  0  0  0
  -20.9609  -43.7801   -9.2418 C   0  0  0  0  0  0  0  0  0  0  0  0
  -19.6944  -43.4372   -9.8859 C   0  0  0  0  0  0  0  0  0  0  0  0
  -19.5478  -43.8197  -11.1010 O   0  0  0  0  0  0  0  0  0  0  0  0
  -18.6134  -42.7393   -9.3421 N   0  0  0  0  0  0  0  0  0  0  0  0
  -17.5340  -42.2535  -10.1801 C   0  0  0  0  0  0  0  0  0  0  0  0
  -18.4610  -42.4361   -7.9097 C   0  0  1  0  0  0  0  0  0  0  0  0
  -18.5534  -43.6920   -7.0822 C   0  0  0  0  0  0  0  0  0  0  0  0
  -17.1992  -41.7305   -7.6129 C   0  0  0  0  0  0  0  0  0  0  0  0
  -16.4420  -42.2962   -6.7379 O   0  0  0  0  0  0  0  0  0  0  0  0
  -16.7094  -40.5413   -8.1433 N   0  0  0  0  0  0  0  0  0  0  0  0
  -13.3562  -36.4316  -11.5800 C   0  0  0  0  0  0  0  0  0  0  0  0
  -13.3688  -36.3422  -12.9429 C   0  0  0  0  0  0  0  0  0  0  0  0
  -13.0892  -37.4549  -13.7173 C   0  0  0  0  0  0  0  0  0  0  0  0
  1  2  1  0
  2  3  1  0
  2  4  1  0
  4  5  2  0
  5  6  1  0
  6  7  1  0
  7  8  1  0
  8  9  1  0
  9 10  1  0
 10 11  1  6
 10 12  1  0
 12 13  1  1
 13 14  1  0
 14 15  2  0
 15 16  1  0
 16 17  2  0
 17 18  1  0
 18 19  2  0
 16 20  1  0
 20 21  1  0
 21 22  1  0
 22 23  1  0
 23 24  1  0
 24 25  1  0
 25 26  1  0
 26 27  2  0
 26 28  1  0
 28 29  1  0
 28 30  1  0
 30 31  1  1
 30 32  1  0
 32 33  2  0
 32 34  1  0
  6 35  2  0
 35 36  1  0
 36 37  2  0
 19 14  1  0
 34 12  1  0
 37  4  1  0
M  END
$$$$
