
     RDKit          3D

 37 39  0  0  0  0  0  0  0  0999 V2000
  -10.6124  -35.0958  -12.2821 C   0  0  0  0  0  0  0  0  0  0  0  0
  -10.6426  -36.6029  -12.0402 C   0  0  0  0  0  0  0  0  0  0  0  0
  -10.3159  -36.8091  -10.5768 C   0  0  0  0  0  0  0  0  0  0  0  0
  -12.0275  -37.0722  -12.3134 C   0  0  0  0  0  0  0  0  0  0  0  0
  -12.7003  -37.8500  -11.4020 C   0  0  0  0  0  0  0  0  0  0  0  0
  -13.9758  -38.2720  -11.6777 C   0  0  0  0  0  0  0  0  0  0  0  0
  -14.7011  -39.1078  -10.7088 C   0  0  0  0  0  0  0  0  0  0  0  0
  -15.6559  -38.3287   -9.9364 N   0  0  0  0  0  0  0  0  0  0  0  0
  -15.4165  -38.5254   -8.5245 C   0  0  0  0  0  0  0  0  0  0  0  0
  -16.5481  -38.0277   -7.6563 C   0  0  1  0  0  0  0  0  0  0  0  0
  -17.1442  -36.9106   -8.2278 O   0  0  0  0  0  0  0  0  0  0  0  0
  -17.6261  -39.1417   -7.6333 C   0  0  2  0  0  0  0  0  0  0  0  0
  -18.5691  -38.9081   -6.5383 C   0  0  0  0  0  0  0  0  0  0  0  0
  -20.0231  -39.1917   -6.6756 C   0  0  0  0  0  0  0  0  0  0  0  0
  -20.9059  -38.9744   -7.6972 C   0  0  0  0  0  0  0  0  0  0  0  0
  -22.2223  -39.3699   -7.5201 C   0  0  0  0  0  0  0  0  0  0  0  0
  -22.6314  -39.9725   -6.3198 C   0  0  0  0  0  0  0  0  0  0  0  0
  -21.7793  -40.2064   -5.2721 C   0  0  0  0  0  0  0  0  0  0  0  0
  -20.4909  -39.8069   -5.4824 C   0  0  0  0  0  0  0  0  0  0  0  0
  -23.2853  -39.2610   -8.3997 O   0  0  0  0  0  0  0  0  0  0  0  0
  -23.5734  -39.6670   -9.6868 C   0  0  0  0  0  0  0  0  0  0  0  0
  -23.5603  -41.1625   -9.9146 C   0  0  0  0  0  0  0  0  0  0  0  0
  -22.1473  -41.7337   -9.9240 C   0  0  0  0  0  0  0  0  0  0  0  0
  -22.0298  -42.7730   -8.8603 C   0  0  0  0  0  0  0  0  0  0  0  0
  -21.0105  -43.8394   -9.1133 C   0  0  0  0  0  0  0  0  0  0  0  0
  -19.7483  -43.3890   -9.6969 C   0  0  0  0  0  0  0  0  0  0  0  0
  -19.5453  -43.6922  -10.9262 O   0  0  0  0  0  0  0  0  0  0  0  0
  -18.7257  -42.6635   -9.0811 N   0  0  0  0  0  0  0  0  0  0  0  0
  -17.6531  -42.0701   -9.8562 C   0  0  0  0  0  0  0  0  0  0  0  0
  -18.6320  -42.4348   -7.6300 C   0  0  1  0  0  0  0  0  0  0  0  0
  -18.6745  -43.7394   -6.8770 C   0  0  0  0  0  0  0  0  0  0  0  0
  -17.4223  -41.6772   -7.2545 C   0  0  0  0  0  0  0  0  0  0  0  0
  -16.6586  -42.2485   -6.3889 O   0  0  0  0  0  0  0  0  0  0  0  0
  -16.9878  -40.4337   -7.7021 N   0  0  0  0  0  0  0  0  0  0  0  0
  -14.5832  -37.9203  -12.8598 C   0  0  0  0  0  0  0  0  0  0  0  0
  -13.9193  -37.1471  -13.7693 C   0  0  0  0  0  0  0  0  0  0  0  0
  -12.6314  -36.7129  -13.5073 C   0  0  0  0  0  0  0  0  0  0  0  0
  1  2  1  0
  2  3  1  0
  2  4  1  0
  4  5  2  0
  5  6  1  0
  6  7  1  0
  7  8  1  0
  8  9  1  0
  9 10  1  0
 10 11  1  6
 10 12  1  0
 12 13  1  1
 13 14  1  0
 14 15  2  0
 15 16  1  0
 16 17  2  0
 17 18  1  0
 18 19  2  0
 16 20  1  0
 20 21  1  0
 21 22  1  0
 22 23  1  0
 23 24  1  0
 24 25  1  0
 25 26  1  0
 26 27  2  0
 26 28  1  0
 28 29  1  0
 28 30  1  0
 30 31  1  1
 30 32  1  0
 32 33  2  0
 32 34  1  0
  6 35  2  0
 35 36  1  0
 36 37  2  0
 19 14  1  0
 34 12  1  0
 37  4  1  0
M  END
$$$$
