
     RDKit          3D

 37 39  0  0  0  0  0  0  0  0999 V2000
  -23.1133  -39.9712   -5.5213 C   0  0  0  0  0  0  0  0  0  0  0  0
  -23.3090  -38.5034   -5.8930 C   0  0  0  0  0  0  0  0  0  0  0  0
  -23.0990  -37.7075   -4.6230 C   0  0  0  0  0  0  0  0  0  0  0  0
  -22.2576  -38.1489   -6.8838 C   0  0  0  0  0  0  0  0  0  0  0  0
  -20.9507  -37.9800   -6.4941 C   0  0  0  0  0  0  0  0  0  0  0  0
  -19.9997  -37.6513   -7.4261 C   0  0  0  0  0  0  0  0  0  0  0  0
  -18.5995  -37.4653   -7.0162 C   0  0  0  0  0  0  0  0  0  0  0  0
  -18.1315  -38.5659   -6.1887 N   0  0  0  0  0  0  0  0  0  0  0  0
  -18.4038  -39.8224   -6.8494 C   0  0  0  0  0  0  0  0  0  0  0  0
  -17.1523  -40.5964   -7.1907 C   0  0  1  0  0  0  0  0  0  0  0  0
  -16.5562  -41.0899   -6.0370 O   0  0  0  0  0  0  0  0  0  0  0  0
  -17.5931  -41.8279   -8.0229 C   0  0  2  0  0  0  0  0  0  0  0  0
  -18.0530  -41.4037   -9.3463 C   0  0  0  0  0  0  0  0  0  0  0  0
  -17.7762  -42.2020  -10.5708 C   0  0  0  0  0  0  0  0  0  0  0  0
  -16.6616  -42.8715  -10.9949 C   0  0  0  0  0  0  0  0  0  0  0  0
  -16.7234  -43.5455  -12.2042 C   0  0  0  0  0  0  0  0  0  0  0  0
  -17.9005  -43.5328  -12.9694 C   0  0  0  0  0  0  0  0  0  0  0  0
  -19.0376  -42.8734  -12.5812 C   0  0  0  0  0  0  0  0  0  0  0  0
  -18.9416  -42.2234  -11.3846 C   0  0  0  0  0  0  0  0  0  0  0  0
  -15.7393  -44.2882  -12.8332 O   0  0  0  0  0  0  0  0  0  0  0  0
  -14.9463  -45.3750  -12.5258 C   0  0  0  0  0  0  0  0  0  0  0  0
  -15.6904  -46.6552  -12.2158 C   0  0  0  0  0  0  0  0  0  0  0  0
  -16.3685  -46.6140  -10.8515 C   0  0  0  0  0  0  0  0  0  0  0  0
  -17.8345  -46.8298  -11.0241 C   0  0  0  0  0  0  0  0  0  0  0  0
  -18.5372  -47.4386   -9.8511 C   0  0  0  0  0  0  0  0  0  0  0  0
  -18.1219  -46.9522   -8.5368 C   0  0  0  0  0  0  0  0  0  0  0  0
  -17.4269  -47.7580   -7.8213 O   0  0  0  0  0  0  0  0  0  0  0  0
  -18.3876  -45.7102   -7.9552 N   0  0  0  0  0  0  0  0  0  0  0  0
  -17.6953  -45.2780   -6.7563 C   0  0  0  0  0  0  0  0  0  0  0  0
  -19.3665  -44.7439   -8.4795 C   0  0  1  0  0  0  0  0  0  0  0  0
  -20.7216  -45.3840   -8.6367 C   0  0  0  0  0  0  0  0  0  0  0  0
  -19.4756  -43.5370   -7.6371 C   0  0  0  0  0  0  0  0  0  0  0  0
  -20.6601  -43.2662   -7.2098 O   0  0  0  0  0  0  0  0  0  0  0  0
  -18.4818  -42.6493   -7.2374 N   0  0  0  0  0  0  0  0  0  0  0  0
  -20.3478  -37.4908   -8.7464 C   0  0  0  0  0  0  0  0  0  0  0  0
  -21.6452  -37.6577   -9.1395 C   0  0  0  0  0  0  0  0  0  0  0  0
  -22.6178  -37.9891   -8.2120 C   0  0  0  0  0  0  0  0  0  0  0  0
  1  2  1  0
  2  3  1  0
  2  4  1  0
  4  5  2  0
  5  6  1  0
  6  7  1  0
  7  8  1  0
  8  9  1  0
  9 10  1  0
 10 11  1  1
 10 12  1  0
 12 13  1  6
 13 14  1  0
 14 15  2  0
 15 16  1  0
 16 17  2  0
 17 18  1  0
 18 19  2  0
 16 20  1  0
 20 21  1  0
 21 22  1  0
 22 23  1  0
 23 24  1  0
 24 25  1  0
 25 26  1  0
 26 27  2  0
 26 28  1  0
 28 29  1  0
 28 30  1  0
 30 31  1  1
 30 32  1  0
 32 33  2  0
 32 34  1  0
  6 35  2  0
 35 36  1  0
 36 37  2  0
 19 14  1  0
 34 12  1  0
 37  4  1  0
M  END
$$$$
