
     RDKit          3D

 37 39  0  0  0  0  0  0  0  0999 V2000
  -12.7195  -35.4352  -11.9274 C   0  0  0  0  0  0  0  0  0  0  0  0
  -11.5088  -36.3335  -12.1691 C   0  0  0  0  0  0  0  0  0  0  0  0
  -10.5302  -36.0446  -11.0513 C   0  0  0  0  0  0  0  0  0  0  0  0
  -11.9724  -37.7438  -12.0746 C   0  0  0  0  0  0  0  0  0  0  0  0
  -12.4560  -38.2485  -10.8915 C   0  0  0  0  0  0  0  0  0  0  0  0
  -12.8756  -39.5527  -10.8289 C   0  0  0  0  0  0  0  0  0  0  0  0
  -13.3912  -40.1012   -9.5654 C   0  0  0  0  0  0  0  0  0  0  0  0
  -14.5804  -39.3933   -9.1183 N   0  0  0  0  0  0  0  0  0  0  0  0
  -15.6738  -40.3262   -8.9640 C   0  0  0  0  0  0  0  0  0  0  0  0
  -16.9635  -39.8350   -9.5782 C   0  0  1  0  0  0  0  0  0  0  0  0
  -17.1563  -40.4096  -10.8282 O   0  0  0  0  0  0  0  0  0  0  0  0
  -18.1178  -40.3412   -8.6754 C   0  0  2  0  0  0  0  0  0  0  0  0
  -18.7014  -39.2247   -7.9299 C   0  0  0  0  0  0  0  0  0  0  0  0
  -20.1621  -39.1324   -7.6630 C   0  0  0  0  0  0  0  0  0  0  0  0
  -21.2539  -39.3920   -8.4446 C   0  0  0  0  0  0  0  0  0  0  0  0
  -22.5121  -39.2168   -7.8906 C   0  0  0  0  0  0  0  0  0  0  0  0
  -22.6535  -38.7800   -6.5638 C   0  0  0  0  0  0  0  0  0  0  0  0
  -21.5860  -38.5077   -5.7484 C   0  0  0  0  0  0  0  0  0  0  0  0
  -20.3630  -38.6937   -6.3258 C   0  0  0  0  0  0  0  0  0  0  0  0
  -23.7510  -39.4167   -8.4743 O   0  0  0  0  0  0  0  0  0  0  0  0
  -24.4166  -40.4542   -9.0948 C   0  0  0  0  0  0  0  0  0  0  0  0
  -24.6377  -41.6854   -8.2440 C   0  0  0  0  0  0  0  0  0  0  0  0
  -23.3542  -42.4792   -8.0307 C   0  0  0  0  0  0  0  0  0  0  0  0
  -23.0786  -42.5850   -6.5684 C   0  0  0  0  0  0  0  0  0  0  0  0
  -22.2941  -43.7882   -6.1476 C   0  0  0  0  0  0  0  0  0  0  0  0
  -21.1897  -44.1682   -7.0265 C   0  0  0  0  0  0  0  0  0  0  0  0
  -21.3580  -45.2246   -7.7336 O   0  0  0  0  0  0  0  0  0  0  0  0
  -19.9632  -43.5216   -7.1964 N   0  0  0  0  0  0  0  0  0  0  0  0
  -19.0746  -43.8699   -8.2884 C   0  0  0  0  0  0  0  0  0  0  0  0
  -19.4604  -42.4565   -6.3134 C   0  0  1  0  0  0  0  0  0  0  0  0
  -19.4514  -42.9100   -4.8764 C   0  0  0  0  0  0  0  0  0  0  0  0
  -18.1152  -41.9893   -6.7012 C   0  0  0  0  0  0  0  0  0  0  0  0
  -17.2199  -42.0538   -5.7776 O   0  0  0  0  0  0  0  0  0  0  0  0
  -17.6748  -41.4894   -7.9225 N   0  0  0  0  0  0  0  0  0  0  0  0
  -12.8149  -40.3559  -11.9432 C   0  0  0  0  0  0  0  0  0  0  0  0
  -12.3352  -39.8595  -13.1218 C   0  0  0  0  0  0  0  0  0  0  0  0
  -11.9072  -38.5456  -13.2025 C   0  0  0  0  0  0  0  0  0  0  0  0
  1  2  1  0
  2  3  1  0
  2  4  1  0
  4  5  2  0
  5  6  1  0
  6  7  1  0
  7  8  1  0
  8  9  1  0
  9 10  1  0
 10 11  1  6
 10 12  1  0
 12 13  1  1
 13 14  1  0
 14 15  2  0
 15 16  1  0
 16 17  2  0
 17 18  1  0
 18 19  2  0
 16 20  1  0
 20 21  1  0
 21 22  1  0
 22 23  1  0
 23 24  1  0
 24 25  1  0
 25 26  1  0
 26 27  2  0
 26 28  1  0
 28 29  1  0
 28 30  1  0
 30 31  1  1
 30 32  1  0
 32 33  2  0
 32 34  1  0
  6 35  2  0
 35 36  1  0
 36 37  2  0
 19 14  1  0
 34 12  1  0
 37  4  1  0
M  END
$$$$
