
     RDKit          3D

 37 39  0  0  0  0  0  0  0  0999 V2000
  -20.3010  -36.6223  -12.2647 C   0  0  0  0  0  0  0  0  0  0  0  0
  -19.3068  -36.1150  -11.2230 C   0  0  0  0  0  0  0  0  0  0  0  0
  -19.6617  -34.6673  -10.9604 C   0  0  0  0  0  0  0  0  0  0  0  0
  -19.5117  -36.9119   -9.9838 C   0  0  0  0  0  0  0  0  0  0  0  0
  -18.5758  -36.9030   -8.9777 C   0  0  0  0  0  0  0  0  0  0  0  0
  -18.7866  -37.6477   -7.8455 C   0  0  0  0  0  0  0  0  0  0  0  0
  -17.7878  -37.6462   -6.7658 C   0  0  0  0  0  0  0  0  0  0  0  0
  -18.0362  -38.7076   -5.8031 N   0  0  0  0  0  0  0  0  0  0  0  0
  -17.0113  -39.7204   -5.9190 C   0  0  0  0  0  0  0  0  0  0  0  0
  -16.5983  -39.9852   -7.3477 C   0  0  1  0  0  0  0  0  0  0  0  0
  -15.2470  -40.3008   -7.4126 O   0  0  0  0  0  0  0  0  0  0  0  0
  -17.3703  -41.2451   -7.8172 C   0  0  2  0  0  0  0  0  0  0  0  0
  -17.6166  -41.1774   -9.2586 C   0  0  0  0  0  0  0  0  0  0  0  0
  -17.5550  -42.3840  -10.1267 C   0  0  0  0  0  0  0  0  0  0  0  0
  -16.6923  -43.4446  -10.1606 C   0  0  0  0  0  0  0  0  0  0  0  0
  -16.9129  -44.4382  -11.1012 C   0  0  0  0  0  0  0  0  0  0  0  0
  -17.9925  -44.3488  -11.9943 C   0  0  0  0  0  0  0  0  0  0  0  0
  -18.8783  -43.3028  -11.9944 C   0  0  0  0  0  0  0  0  0  0  0  0
  -18.6322  -42.3448  -11.0536 C   0  0  0  0  0  0  0  0  0  0  0  0
  -16.1885  -45.5962  -11.3242 O   0  0  0  0  0  0  0  0  0  0  0  0
  -15.7932  -46.6946  -10.5882 C   0  0  0  0  0  0  0  0  0  0  0  0
  -16.9159  -47.5285  -10.0115 C   0  0  0  0  0  0  0  0  0  0  0  0
  -17.6030  -46.8407   -8.8376 C   0  0  0  0  0  0  0  0  0  0  0  0
  -19.0534  -46.6754   -9.1448 C   0  0  0  0  0  0  0  0  0  0  0  0
  -19.9611  -46.6285   -7.9556 C   0  0  0  0  0  0  0  0  0  0  0  0
  -19.4691  -45.8688   -6.8079 C   0  0  0  0  0  0  0  0  0  0  0  0
  -19.0949  -46.5499   -5.7880 O   0  0  0  0  0  0  0  0  0  0  0  0
  -19.3529  -44.4827   -6.6791 N   0  0  0  0  0  0  0  0  0  0  0  0
  -18.6105  -43.8890   -5.5837 C   0  0  0  0  0  0  0  0  0  0  0  0
  -19.9534  -43.5124   -7.6091 C   0  0  1  0  0  0  0  0  0  0  0  0
  -21.4334  -43.7545   -7.7559 C   0  0  0  0  0  0  0  0  0  0  0  0
  -19.7109  -42.1148   -7.2015 C   0  0  0  0  0  0  0  0  0  0  0  0
  -20.7660  -41.3913   -7.0527 O   0  0  0  0  0  0  0  0  0  0  0  0
  -18.5052  -41.4662   -6.9543 N   0  0  0  0  0  0  0  0  0  0  0  0
  -19.9287  -38.4015   -7.7129 C   0  0  0  0  0  0  0  0  0  0  0  0
  -20.8626  -38.4140   -8.7096 C   0  0  0  0  0  0  0  0  0  0  0  0
  -20.6655  -37.6685   -9.8592 C   0  0  0  0  0  0  0  0  0  0  0  0
  1  2  1  0
  2  3  1  0
  2  4  1  0
  4  5  2  0
  5  6  1  0
  6  7  1  0
  7  8  1  0
  8  9  1  0
  9 10  1  0
 10 11  1  1
 10 12  1  0
 12 13  1  6
 13 14  1  0
 14 15  2  0
 15 16  1  0
 16 17  2  0
 17 18  1  0
 18 19  2  0
 16 20  1  0
 20 21  1  0
 21 22  1  0
 22 23  1  0
 23 24  1  0
 24 25  1  0
 25 26  1  0
 26 27  2  0
 26 28  1  0
 28 29  1  0
 28 30  1  0
 30 31  1  1
 30 32  1  0
 32 33  2  0
 32 34  1  0
  6 35  2  0
 35 36  1  0
 36 37  2  0
 19 14  1  0
 34 12  1  0
 37  4  1  0
M  END
$$$$
