
     RDKit          3D

 37 39  0  0  0  0  0  0  0  0999 V2000
  -13.5128  -33.9603  -12.2153 C   0  0  0  0  0  0  0  0  0  0  0  0
  -14.8876  -34.2981  -11.6437 C   0  0  0  0  0  0  0  0  0  0  0  0
  -15.8947  -33.5126  -12.4558 C   0  0  0  0  0  0  0  0  0  0  0  0
  -15.1105  -35.7548  -11.8461 C   0  0  0  0  0  0  0  0  0  0  0  0
  -14.5366  -36.6787  -11.0062 C   0  0  0  0  0  0  0  0  0  0  0  0
  -14.7555  -38.0164  -11.2146 C   0  0  0  0  0  0  0  0  0  0  0  0
  -14.1418  -39.0115  -10.3220 C   0  0  0  0  0  0  0  0  0  0  0  0
  -14.5683  -38.8315   -8.9433 N   0  0  0  0  0  0  0  0  0  0  0  0
  -15.9333  -39.2827   -8.7925 C   0  0  0  0  0  0  0  0  0  0  0  0
  -16.5191  -38.9578   -7.4386 C   0  0  1  0  0  0  0  0  0  0  0  0
  -16.9865  -37.6498   -7.4124 O   0  0  0  0  0  0  0  0  0  0  0  0
  -17.7553  -39.8736   -7.2473 C   0  0  2  0  0  0  0  0  0  0  0  0
  -18.5388  -39.4285   -6.0937 C   0  0  0  0  0  0  0  0  0  0  0  0
  -20.0258  -39.4726   -6.0859 C   0  0  0  0  0  0  0  0  0  0  0  0
  -20.9561  -39.1654   -7.0401 C   0  0  0  0  0  0  0  0  0  0  0  0
  -22.2958  -39.3260   -6.7240 C   0  0  0  0  0  0  0  0  0  0  0  0
  -22.6795  -39.7876   -5.4548 C   0  0  0  0  0  0  0  0  0  0  0  0
  -21.7796  -40.1047   -4.4708 C   0  0  0  0  0  0  0  0  0  0  0  0
  -20.4700  -39.9373   -4.8179 C   0  0  0  0  0  0  0  0  0  0  0  0
  -23.4068  -39.0880   -7.5143 O   0  0  0  0  0  0  0  0  0  0  0  0
  -23.8788  -39.5077   -8.7413 C   0  0  0  0  0  0  0  0  0  0  0  0
  -24.1288  -40.9944   -8.8672 C   0  0  0  0  0  0  0  0  0  0  0  0
  -22.8339  -41.7928   -8.9594 C   0  0  0  0  0  0  0  0  0  0  0  0
  -22.7839  -42.7795   -7.8416 C   0  0  0  0  0  0  0  0  0  0  0  0
  -21.9789  -44.0128   -8.1083 C   0  0  0  0  0  0  0  0  0  0  0  0
  -20.7226  -43.8106   -8.8275 C   0  0  0  0  0  0  0  0  0  0  0  0
  -20.6900  -44.2080  -10.0463 O   0  0  0  0  0  0  0  0  0  0  0  0
  -19.5421  -43.2342   -8.3527 N   0  0  0  0  0  0  0  0  0  0  0  0
  -18.4672  -42.8698   -9.2556 C   0  0  0  0  0  0  0  0  0  0  0  0
  -19.2738  -42.9481   -6.9339 C   0  0  1  0  0  0  0  0  0  0  0  0
  -19.4536  -44.1857   -6.0932 C   0  0  0  0  0  0  0  0  0  0  0  0
  -17.9275  -42.3840   -6.7162 C   0  0  0  0  0  0  0  0  0  0  0  0
  -17.1863  -43.0281   -5.8827 O   0  0  0  0  0  0  0  0  0  0  0  0
  -17.3432  -41.2558   -7.2830 N   0  0  0  0  0  0  0  0  0  0  0  0
  -15.5458  -38.4364  -12.2583 C   0  0  0  0  0  0  0  0  0  0  0  0
  -16.1189  -37.5225  -13.0963 C   0  0  0  0  0  0  0  0  0  0  0  0
  -15.9082  -36.1685  -12.9006 C   0  0  0  0  0  0  0  0  0  0  0  0
  1  2  1  0
  2  3  1  0
  2  4  1  0
  4  5  2  0
  5  6  1  0
  6  7  1  0
  7  8  1  0
  8  9  1  0
  9 10  1  0
 10 11  1  6
 10 12  1  0
 12 13  1  1
 13 14  1  0
 14 15  2  0
 15 16  1  0
 16 17  2  0
 17 18  1  0
 18 19  2  0
 16 20  1  0
 20 21  1  0
 21 22  1  0
 22 23  1  0
 23 24  1  0
 24 25  1  0
 25 26  1  0
 26 27  2  0
 26 28  1  0
 28 29  1  0
 28 30  1  0
 30 31  1  1
 30 32  1  0
 32 33  2  0
 32 34  1  0
  6 35  2  0
 35 36  1  0
 36 37  2  0
 19 14  1  0
 34 12  1  0
 37  4  1  0
M  END
$$$$
