
     RDKit          3D

 37 39  0  0  0  0  0  0  0  0999 V2000
   -9.5226  -38.7199  -11.9876 C   0  0  0  0  0  0  0  0  0  0  0  0
  -10.4487  -37.6654  -11.3866 C   0  0  0  0  0  0  0  0  0  0  0  0
  -10.3080  -36.4293  -12.2485 C   0  0  0  0  0  0  0  0  0  0  0  0
  -11.8394  -38.1848  -11.4821 C   0  0  0  0  0  0  0  0  0  0  0  0
  -12.8959  -37.4664  -10.9761 C   0  0  0  0  0  0  0  0  0  0  0  0
  -14.1688  -37.9673  -11.0745 C   0  0  0  0  0  0  0  0  0  0  0  0
  -15.3044  -37.2060  -10.5322 C   0  0  0  0  0  0  0  0  0  0  0  0
  -16.5779  -37.7868  -10.9272 N   0  0  0  0  0  0  0  0  0  0  0  0
  -17.0242  -38.7173   -9.9151 C   0  0  0  0  0  0  0  0  0  0  0  0
  -17.8166  -38.0575   -8.8111 C   0  0  1  0  0  0  0  0  0  0  0  0
  -18.8335  -37.2750   -9.3436 O   0  0  0  0  0  0  0  0  0  0  0  0
  -18.5046  -39.1904   -8.0069 C   0  0  2  0  0  0  0  0  0  0  0  0
  -18.9732  -38.6802   -6.7173 C   0  0  0  0  0  0  0  0  0  0  0  0
  -20.2543  -39.1303   -6.1094 C   0  0  0  0  0  0  0  0  0  0  0  0
  -21.4893  -39.3675   -6.6468 C   0  0  0  0  0  0  0  0  0  0  0  0
  -22.4991  -39.7993   -5.8016 C   0  0  0  0  0  0  0  0  0  0  0  0
  -22.2539  -39.9816   -4.4312 C   0  0  0  0  0  0  0  0  0  0  0  0
  -21.0321  -39.7537   -3.8533 C   0  0  0  0  0  0  0  0  0  0  0  0
  -20.0612  -39.3324   -4.7156 C   0  0  0  0  0  0  0  0  0  0  0  0
  -23.8136  -40.1051   -6.1081 O   0  0  0  0  0  0  0  0  0  0  0  0
  -24.4754  -40.9596   -6.9662 C   0  0  0  0  0  0  0  0  0  0  0  0
  -24.1994  -42.4323   -6.7572 C   0  0  0  0  0  0  0  0  0  0  0  0
  -22.8102  -42.8343   -7.2382 C   0  0  0  0  0  0  0  0  0  0  0  0
  -22.0462  -43.4215   -6.0993 C   0  0  0  0  0  0  0  0  0  0  0  0
  -20.9855  -44.4075   -6.4772 C   0  0  0  0  0  0  0  0  0  0  0  0
  -20.1951  -44.0713   -7.6599 C   0  0  0  0  0  0  0  0  0  0  0  0
  -20.4212  -44.7633   -8.7155 O   0  0  0  0  0  0  0  0  0  0  0  0
  -19.2161  -43.0832   -7.7886 N   0  0  0  0  0  0  0  0  0  0  0  0
  -18.7028  -42.6984   -9.0893 C   0  0  0  0  0  0  0  0  0  0  0  0
  -18.6218  -42.3553   -6.6556 C   0  0  1  0  0  0  0  0  0  0  0  0
  -18.0586  -43.3134   -5.6379 C   0  0  0  0  0  0  0  0  0  0  0  0
  -17.5773  -41.4033   -7.0812 C   0  0  0  0  0  0  0  0  0  0  0  0
  -16.4256  -41.5619   -6.5270 O   0  0  0  0  0  0  0  0  0  0  0  0
  -17.6581  -40.3587   -7.9965 N   0  0  0  0  0  0  0  0  0  0  0  0
  -14.3920  -39.1830  -11.6767 C   0  0  0  0  0  0  0  0  0  0  0  0
  -13.3456  -39.9013  -12.1815 C   0  0  0  0  0  0  0  0  0  0  0  0
  -12.0545  -39.4107  -12.0904 C   0  0  0  0  0  0  0  0  0  0  0  0
  1  2  1  0
  2  3  1  0
  2  4  1  0
  4  5  2  0
  5  6  1  0
  6  7  1  0
  7  8  1  0
  8  9  1  0
  9 10  1  0
 10 11  1  6
 10 12  1  0
 12 13  1  1
 13 14  1  0
 14 15  2  0
 15 16  1  0
 16 17  2  0
 17 18  1  0
 18 19  2  0
 16 20  1  0
 20 21  1  0
 21 22  1  0
 22 23  1  0
 23 24  1  0
 24 25  1  0
 25 26  1  0
 26 27  2  0
 26 28  1  0
 28 29  1  0
 28 30  1  0
 30 31  1  1
 30 32  1  0
 32 33  2  0
 32 34  1  0
  6 35  2  0
 35 36  1  0
 36 37  2  0
 19 14  1  0
 34 12  1  0
 37  4  1  0
M  END
$$$$
