
     RDKit          3D

 37 39  0  0  0  0  0  0  0  0999 V2000
  -13.7539  -35.4515  -13.2989 C   0  0  0  0  0  0  0  0  0  0  0  0
  -12.7417  -35.9979  -12.2950 C   0  0  0  0  0  0  0  0  0  0  0  0
  -12.8089  -35.0942  -11.0828 C   0  0  0  0  0  0  0  0  0  0  0  0
  -13.1792  -37.3693  -11.9200 C   0  0  0  0  0  0  0  0  0  0  0  0
  -12.8153  -37.9200  -10.7148 C   0  0  0  0  0  0  0  0  0  0  0  0
  -13.2296  -39.1871  -10.3926 C   0  0  0  0  0  0  0  0  0  0  0  0
  -12.8412  -39.7846   -9.1060 C   0  0  0  0  0  0  0  0  0  0  0  0
  -13.7119  -39.3474   -8.0263 N   0  0  0  0  0  0  0  0  0  0  0  0
  -15.0934  -39.5367   -8.4071 C   0  0  0  0  0  0  0  0  0  0  0  0
  -16.0625  -38.8136   -7.5017 C   0  0  1  0  0  0  0  0  0  0  0  0
  -16.4080  -37.5822   -8.0441 O   0  0  0  0  0  0  0  0  0  0  0  0
  -17.3614  -39.6590   -7.4596 C   0  0  2  0  0  0  0  0  0  0  0  0
  -18.2994  -39.0939   -6.4882 C   0  0  0  0  0  0  0  0  0  0  0  0
  -19.7675  -39.0744   -6.7287 C   0  0  0  0  0  0  0  0  0  0  0  0
  -20.5089  -38.8024   -7.8452 C   0  0  0  0  0  0  0  0  0  0  0  0
  -21.8892  -38.8814   -7.7497 C   0  0  0  0  0  0  0  0  0  0  0  0
  -22.5022  -39.2277   -6.5349 C   0  0  0  0  0  0  0  0  0  0  0  0
  -21.7960  -39.5059   -5.3936 C   0  0  0  0  0  0  0  0  0  0  0  0
  -20.4399  -39.4212   -5.5251 C   0  0  0  0  0  0  0  0  0  0  0  0
  -22.8396  -38.6581   -8.7307 O   0  0  0  0  0  0  0  0  0  0  0  0
  -23.1244  -39.1505   -9.9881 C   0  0  0  0  0  0  0  0  0  0  0  0
  -23.4308  -40.6306  -10.0521 C   0  0  0  0  0  0  0  0  0  0  0  0
  -22.1839  -41.4877   -9.8692 C   0  0  0  0  0  0  0  0  0  0  0  0
  -22.3733  -42.3869   -8.6940 C   0  0  0  0  0  0  0  0  0  0  0  0
  -21.6037  -43.6700   -8.7356 C   0  0  0  0  0  0  0  0  0  0  0  0
  -20.2367  -43.5768   -9.2444 C   0  0  0  0  0  0  0  0  0  0  0  0
  -20.0247  -44.0676  -10.4099 O   0  0  0  0  0  0  0  0  0  0  0  0
  -19.1213  -43.0161   -8.6177 N   0  0  0  0  0  0  0  0  0  0  0  0
  -17.8936  -42.7678   -9.3489 C   0  0  0  0  0  0  0  0  0  0  0  0
  -19.0762  -42.6334   -7.1970 C   0  0  1  0  0  0  0  0  0  0  0  0
  -19.4597  -43.7941   -6.3158 C   0  0  0  0  0  0  0  0  0  0  0  0
  -17.7556  -42.1117   -6.7942 C   0  0  0  0  0  0  0  0  0  0  0  0
  -17.1988  -42.7206   -5.8052 O   0  0  0  0  0  0  0  0  0  0  0  0
  -17.0250  -41.0560   -7.3302 N   0  0  0  0  0  0  0  0  0  0  0  0
  -14.0065  -39.9073  -11.2689 C   0  0  0  0  0  0  0  0  0  0  0  0
  -14.3714  -39.3650  -12.4682 C   0  0  0  0  0  0  0  0  0  0  0  0
  -13.9618  -38.0876  -12.8094 C   0  0  0  0  0  0  0  0  0  0  0  0
  1  2  1  0
  2  3  1  0
  2  4  1  0
  4  5  2  0
  5  6  1  0
  6  7  1  0
  7  8  1  0
  8  9  1  0
  9 10  1  0
 10 11  1  6
 10 12  1  0
 12 13  1  1
 13 14  1  0
 14 15  2  0
 15 16  1  0
 16 17  2  0
 17 18  1  0
 18 19  2  0
 16 20  1  0
 20 21  1  0
 21 22  1  0
 22 23  1  0
 23 24  1  0
 24 25  1  0
 25 26  1  0
 26 27  2  0
 26 28  1  0
 28 29  1  0
 28 30  1  0
 30 31  1  1
 30 32  1  0
 32 33  2  0
 32 34  1  0
  6 35  2  0
 35 36  1  0
 36 37  2  0
 19 14  1  0
 34 12  1  0
 37  4  1  0
M  END
$$$$
