
     RDKit          3D

 37 39  0  0  0  0  0  0  0  0999 V2000
  -12.6097  -36.1274  -14.9250 C   0  0  0  0  0  0  0  0  0  0  0  0
  -12.3213  -37.3425  -14.0468 C   0  0  0  0  0  0  0  0  0  0  0  0
  -11.1139  -36.9874  -13.2060 C   0  0  0  0  0  0  0  0  0  0  0  0
  -13.5013  -37.5469  -13.1644 C   0  0  0  0  0  0  0  0  0  0  0  0
  -13.3456  -37.7339  -11.8120 C   0  0  0  0  0  0  0  0  0  0  0  0
  -14.4490  -37.9223  -11.0195 C   0  0  0  0  0  0  0  0  0  0  0  0
  -14.2903  -38.1267   -9.5717 C   0  0  0  0  0  0  0  0  0  0  0  0
  -15.3086  -39.0190   -9.0405 N   0  0  0  0  0  0  0  0  0  0  0  0
  -16.3655  -38.2441   -8.4304 C   0  0  0  0  0  0  0  0  0  0  0  0
  -16.5625  -38.5596   -6.9664 C   0  0  1  0  0  0  0  0  0  0  0  0
  -16.9659  -37.4244   -6.2745 O   0  0  0  0  0  0  0  0  0  0  0  0
  -17.7320  -39.5732   -6.8740 C   0  0  2  0  0  0  0  0  0  0  0  0
  -18.5210  -39.3238   -5.6665 C   0  0  0  0  0  0  0  0  0  0  0  0
  -20.0015  -39.4689   -5.6478 C   0  0  0  0  0  0  0  0  0  0  0  0
  -20.9679  -39.1130   -6.5477 C   0  0  0  0  0  0  0  0  0  0  0  0
  -22.2879  -39.4005   -6.2388 C   0  0  0  0  0  0  0  0  0  0  0  0
  -22.6163  -40.0361   -5.0308 C   0  0  0  0  0  0  0  0  0  0  0  0
  -21.6790  -40.4075   -4.1022 C   0  0  0  0  0  0  0  0  0  0  0  0
  -20.3900  -40.1115   -4.4407 C   0  0  0  0  0  0  0  0  0  0  0  0
  -23.4270  -39.1450   -6.9823 O   0  0  0  0  0  0  0  0  0  0  0  0
  -23.8935  -39.4452   -8.2459 C   0  0  0  0  0  0  0  0  0  0  0  0
  -24.0476  -40.9195   -8.5482 C   0  0  0  0  0  0  0  0  0  0  0  0
  -22.7049  -41.6118   -8.7504 C   0  0  0  0  0  0  0  0  0  0  0  0
  -22.5689  -42.7199   -7.7610 C   0  0  0  0  0  0  0  0  0  0  0  0
  -21.6897  -43.8550   -8.1838 C   0  0  0  0  0  0  0  0  0  0  0  0
  -20.4633  -43.4834   -8.8869 C   0  0  0  0  0  0  0  0  0  0  0  0
  -20.4278  -43.7285  -10.1451 O   0  0  0  0  0  0  0  0  0  0  0  0
  -19.3144  -42.8898   -8.3586 N   0  0  0  0  0  0  0  0  0  0  0  0
  -18.2832  -42.3478   -9.2224 C   0  0  0  0  0  0  0  0  0  0  0  0
  -19.0388  -42.7586   -6.9186 C   0  0  1  0  0  0  0  0  0  0  0  0
  -19.1207  -44.0975   -6.2321 C   0  0  0  0  0  0  0  0  0  0  0  0
  -17.7285  -42.1351   -6.6489 C   0  0  0  0  0  0  0  0  0  0  0  0
  -16.9309  -42.8230   -5.9076 O   0  0  0  0  0  0  0  0  0  0  0  0
  -17.2306  -40.9101   -7.0812 N   0  0  0  0  0  0  0  0  0  0  0  0
  -15.7082  -37.9243  -11.5716 C   0  0  0  0  0  0  0  0  0  0  0  0
  -15.8689  -37.7387  -12.9152 C   0  0  0  0  0  0  0  0  0  0  0  0
  -14.7661  -37.5476  -13.7297 C   0  0  0  0  0  0  0  0  0  0  0  0
  1  2  1  0
  2  3  1  0
  2  4  1  0
  4  5  2  0
  5  6  1  0
  6  7  1  0
  7  8  1  0
  8  9  1  0
  9 10  1  0
 10 11  1  1
 10 12  1  0
 12 13  1  1
 13 14  1  0
 14 15  2  0
 15 16  1  0
 16 17  2  0
 17 18  1  0
 18 19  2  0
 16 20  1  0
 20 21  1  0
 21 22  1  0
 22 23  1  0
 23 24  1  0
 24 25  1  0
 25 26  1  0
 26 27  2  0
 26 28  1  0
 28 29  1  0
 28 30  1  0
 30 31  1  1
 30 32  1  0
 32 33  2  0
 32 34  1  0
  6 35  2  0
 35 36  1  0
 36 37  2  0
 19 14  1  0
 34 12  1  0
 37  4  1  0
M  END
$$$$
