
     RDKit          3D

 37 39  0  0  0  0  0  0  0  0999 V2000
  -14.5792  -36.8646  -14.4271 C   0  0  0  0  0  0  0  0  0  0  0  0
  -14.4185  -35.7914  -13.3533 C   0  0  0  0  0  0  0  0  0  0  0  0
  -15.8077  -35.4964  -12.8301 C   0  0  0  0  0  0  0  0  0  0  0  0
  -13.5872  -36.3698  -12.2637 C   0  0  0  0  0  0  0  0  0  0  0  0
  -13.8203  -37.6421  -11.7996 C   0  0  0  0  0  0  0  0  0  0  0  0
  -13.0414  -38.1525  -10.7927 C   0  0  0  0  0  0  0  0  0  0  0  0
  -13.2870  -39.5120  -10.2881 C   0  0  0  0  0  0  0  0  0  0  0  0
  -14.1684  -39.5044   -9.1313 N   0  0  0  0  0  0  0  0  0  0  0  0
  -15.5263  -39.2469   -9.5548 C   0  0  0  0  0  0  0  0  0  0  0  0
  -16.3091  -38.4175   -8.5643 C   0  0  1  0  0  0  0  0  0  0  0  0
  -16.9323  -37.3544   -9.2057 O   0  0  0  0  0  0  0  0  0  0  0  0
  -17.4384  -39.3219   -8.0073 C   0  0  2  0  0  0  0  0  0  0  0  0
  -18.2026  -38.6032   -6.9864 C   0  0  0  0  0  0  0  0  0  0  0  0
  -19.6759  -38.7581   -6.8493 C   0  0  0  0  0  0  0  0  0  0  0  0
  -20.6786  -38.8354   -7.7760 C   0  0  0  0  0  0  0  0  0  0  0  0
  -21.9785  -38.9936   -7.3224 C   0  0  0  0  0  0  0  0  0  0  0  0
  -22.2508  -39.0671   -5.9470 C   0  0  0  0  0  0  0  0  0  0  0  0
  -21.2757  -38.9923   -4.9867 C   0  0  0  0  0  0  0  0  0  0  0  0
  -20.0079  -38.8396   -5.4694 C   0  0  0  0  0  0  0  0  0  0  0  0
  -23.1459  -39.0996   -8.0583 O   0  0  0  0  0  0  0  0  0  0  0  0
  -23.6358  -39.9146   -9.0584 C   0  0  0  0  0  0  0  0  0  0  0  0
  -23.7449  -41.3817   -8.7059 C   0  0  0  0  0  0  0  0  0  0  0  0
  -22.3842  -42.0662   -8.6515 C   0  0  0  0  0  0  0  0  0  0  0  0
  -22.1815  -42.6504   -7.2939 C   0  0  0  0  0  0  0  0  0  0  0  0
  -21.2739  -43.8391   -7.2346 C   0  0  0  0  0  0  0  0  0  0  0  0
  -20.0813  -43.7730   -8.0771 C   0  0  0  0  0  0  0  0  0  0  0  0
  -20.0714  -44.5251   -9.1157 O   0  0  0  0  0  0  0  0  0  0  0  0
  -18.9406  -42.9879   -7.8940 N   0  0  0  0  0  0  0  0  0  0  0  0
  -17.9535  -42.8391   -8.9461 C   0  0  0  0  0  0  0  0  0  0  0  0
  -18.6305  -42.2557   -6.6552 C   0  0  1  0  0  0  0  0  0  0  0  0
  -18.6455  -43.1816   -5.4663 C   0  0  0  0  0  0  0  0  0  0  0  0
  -17.3367  -41.5491   -6.7254 C   0  0  0  0  0  0  0  0  0  0  0  0
  -16.4949  -41.8432   -5.7960 O   0  0  0  0  0  0  0  0  0  0  0  0
  -16.8951  -40.6106   -7.6526 N   0  0  0  0  0  0  0  0  0  0  0  0
  -12.0299  -37.3981  -10.2469 C   0  0  0  0  0  0  0  0  0  0  0  0
  -11.7936  -36.1330  -10.7044 C   0  0  0  0  0  0  0  0  0  0  0  0
  -12.5703  -35.6021  -11.7198 C   0  0  0  0  0  0  0  0  0  0  0  0
  1  2  1  0
  2  3  1  0
  2  4  1  0
  4  5  2  0
  5  6  1  0
  6  7  1  0
  7  8  1  0
  8  9  1  0
  9 10  1  0
 10 11  1  6
 10 12  1  0
 12 13  1  1
 13 14  1  0
 14 15  2  0
 15 16  1  0
 16 17  2  0
 17 18  1  0
 18 19  2  0
 16 20  1  0
 20 21  1  0
 21 22  1  0
 22 23  1  0
 23 24  1  0
 24 25  1  0
 25 26  1  0
 26 27  2  0
 26 28  1  0
 28 29  1  0
 28 30  1  0
 30 31  1  1
 30 32  1  0
 32 33  2  0
 32 34  1  0
  6 35  2  0
 35 36  1  0
 36 37  2  0
 19 14  1  0
 34 12  1  0
 37  4  1  0
M  END
$$$$
