
     RDKit          3D

 36 38  0  0  0  0  0  0  0  0999 V2000
  -15.4961  -34.2409  -10.8938 C   0  0  0  0  0  0  0  0  0  0  0  0
  -14.6967  -34.8295  -12.0063 C   0  0  0  0  0  0  0  0  0  0  0  0
  -13.2303  -34.4712  -11.8609 C   0  0  0  0  0  0  0  0  0  0  0  0
  -14.8863  -36.3032  -12.0141 C   0  0  0  0  0  0  0  0  0  0  0  0
  -15.7686  -36.8465  -12.9201 C   0  0  0  0  0  0  0  0  0  0  0  0
  -15.9448  -38.2242  -12.9196 C   0  0  0  0  0  0  0  0  0  0  0  0
  -15.2416  -39.0228  -12.0218 C   0  0  0  0  0  0  0  0  0  0  0  0
  -14.3551  -38.4815  -11.1116 C   0  0  0  0  0  0  0  0  0  0  0  0
  -13.6533  -39.3882  -10.1942 C   0  0  0  0  0  0  0  0  0  0  0  0
  -13.6516  -38.9082   -8.8264 N   0  0  0  0  0  0  0  0  0  0  0  0
  -14.6159  -39.5805   -8.0049 C   0  0  0  0  0  0  0  0  0  0  0  0
  -15.8122  -38.7519   -7.6860 C   0  0  1  0  0  0  0  0  0  0  0  0
  -15.8127  -37.6162   -8.4764 O   0  0  0  0  0  0  0  0  0  0  0  0
  -17.1330  -39.5388   -7.8325 C   0  0  2  0  0  0  0  0  0  0  0  0
  -18.2172  -38.5565   -7.9213 C   0  0  0  0  0  0  0  0  0  0  0  0
  -19.6159  -38.9147   -7.5855 C   0  0  0  0  0  0  0  0  0  0  0  0
  -20.4765  -38.6057   -8.6542 C   0  0  0  0  0  0  0  0  0  0  0  0
  -21.8299  -38.8280   -8.6504 C   0  0  0  0  0  0  0  0  0  0  0  0
  -22.3057  -39.3901   -7.4994 C   0  0  0  0  0  0  0  0  0  0  0  0
  -21.5008  -39.7272   -6.3866 C   0  0  0  0  0  0  0  0  0  0  0  0
  -20.1393  -39.4766   -6.4513 C   0  0  0  0  0  0  0  0  0  0  0  0
  -22.2646  -40.2690   -5.3952 O   0  0  0  0  0  0  0  0  0  0  0  0
  -22.3026  -41.1821   -4.3972 C   0  0  0  0  0  0  0  0  0  0  0  0
  -22.2748  -42.6120   -4.7676 C   0  0  0  0  0  0  0  0  0  0  0  0
  -22.6281  -42.9567   -6.1723 C   0  0  0  0  0  0  0  0  0  0  0  0
  -21.9886  -44.2911   -6.5855 C   0  0  0  0  0  0  0  0  0  0  0  0
  -20.6422  -43.8750   -7.7057 S   0  0  0  0  0  6  0  0  0  0  0  0
  -21.2312  -42.9224   -8.6957 O   0  0  0  0  0  0  0  0  0  0  0  0
  -20.1066  -45.1033   -8.3723 O   0  0  0  0  0  0  0  0  0  0  0  0
  -19.3831  -43.1722   -6.7153 C   0  0  0  0  0  0  0  0  0  0  0  0
  -18.1565  -42.7147   -7.4672 C   0  0  1  0  0  0  0  0  0  0  0  0
  -18.4251  -42.2914   -8.8571 C   0  0  0  0  0  0  0  0  0  0  0  0
  -17.4774  -41.7541   -6.5843 C   0  0  0  0  0  0  0  0  0  0  0  0
  -17.0061  -42.3449   -5.5213 O   0  0  0  0  0  0  0  0  0  0  0  0
  -17.2508  -40.4001   -6.6612 N   0  0  0  0  0  0  0  0  0  0  0  0
  -14.2007  -37.1169  -11.1346 C   0  0  0  0  0  0  0  0  0  0  0  0
  1  2  1  0
  2  3  1  0
  2  4  1  0
  4  5  2  0
  5  6  1  0
  6  7  2  0
  7  8  1  0
  8  9  1  0
  9 10  1  0
 10 11  1  0
 11 12  1  0
 12 13  1  6
 12 14  1  0
 14 15  1  1
 15 16  1  0
 16 17  1  0
 17 18  2  0
 18 19  1  0
 19 20  2  0
 20 21  1  0
 20 22  1  0
 22 23  1  0
 23 24  1  0
 24 25  1  0
 25 26  1  0
 26 27  1  0
 27 28  2  0
 27 29  2  0
 27 30  1  0
 30 31  1  0
 31 32  1  6
 31 33  1  0
 33 34  2  0
 33 35  1  0
  8 36  2  0
 21 16  2  0
 35 14  1  0
 36  4  1  0
M  END
$$$$
