
     RDKit          3D

 36 38  0  0  0  0  0  0  0  0999 V2000
  -23.9836  -40.9422   -4.0191 C   0  0  0  0  0  0  0  0  0  0  0  0
  -23.7488  -40.6003   -5.4513 C   0  0  0  0  0  0  0  0  0  0  0  0
  -24.3168  -39.2322   -5.7760 C   0  0  0  0  0  0  0  0  0  0  0  0
  -22.2903  -40.6511   -5.7301 C   0  0  0  0  0  0  0  0  0  0  0  0
  -21.7656  -41.8017   -6.2735 C   0  0  0  0  0  0  0  0  0  0  0  0
  -20.4009  -41.8446   -6.5279 C   0  0  0  0  0  0  0  0  0  0  0  0
  -19.5964  -40.7463   -6.2366 C   0  0  0  0  0  0  0  0  0  0  0  0
  -20.1190  -39.5899   -5.6919 C   0  0  0  0  0  0  0  0  0  0  0  0
  -19.2062  -38.4750   -5.4088 C   0  0  0  0  0  0  0  0  0  0  0  0
  -17.9732  -38.9074   -4.7813 N   0  0  0  0  0  0  0  0  0  0  0  0
  -17.0740  -39.5341   -5.7063 C   0  0  0  0  0  0  0  0  0  0  0  0
  -16.1681  -38.5775   -6.4019 C   0  0  1  0  0  0  0  0  0  0  0  0
  -15.0018  -38.4306   -5.6722 O   0  0  0  0  0  0  0  0  0  0  0  0
  -15.8706  -38.9969   -7.8582 C   0  0  2  0  0  0  0  0  0  0  0  0
  -14.7980  -38.1279   -8.3507 C   0  0  0  0  0  0  0  0  0  0  0  0
  -14.5881  -37.9033   -9.8008 C   0  0  0  0  0  0  0  0  0  0  0  0
  -13.2641  -38.2104  -10.1630 C   0  0  0  0  0  0  0  0  0  0  0  0
  -12.7648  -38.1118  -11.4366 C   0  0  0  0  0  0  0  0  0  0  0  0
  -13.6698  -37.6805  -12.3652 C   0  0  0  0  0  0  0  0  0  0  0  0
  -15.0147  -37.3545  -12.0740 C   0  0  0  0  0  0  0  0  0  0  0  0
  -15.4591  -37.4738  -10.7667 C   0  0  0  0  0  0  0  0  0  0  0  0
  -15.6626  -36.9575  -13.2065 O   0  0  0  0  0  0  0  0  0  0  0  0
  -16.8409  -36.9671  -13.8719 C   0  0  0  0  0  0  0  0  0  0  0  0
  -17.3343  -38.2618  -14.3846 C   0  0  0  0  0  0  0  0  0  0  0  0
  -16.3419  -39.3644  -14.5123 C   0  0  0  0  0  0  0  0  0  0  0  0
  -17.0340  -40.7342  -14.4418 C   0  0  0  0  0  0  0  0  0  0  0  0
  -16.6252  -41.4189  -12.8279 S   0  0  0  0  0  6  0  0  0  0  0  0
  -15.1456  -41.2551  -12.6918 O   0  0  0  0  0  0  0  0  0  0  0  0
  -17.0320  -42.8566  -12.7419 O   0  0  0  0  0  0  0  0  0  0  0  0
  -17.5459  -40.4980  -11.6598 C   0  0  0  0  0  0  0  0  0  0  0  0
  -17.3259  -40.8888  -10.2183 C   0  0  1  0  0  0  0  0  0  0  0  0
  -15.9815  -41.4353   -9.9409 C   0  0  0  0  0  0  0  0  0  0  0  0
  -17.7696  -39.7383   -9.4164 C   0  0  0  0  0  0  0  0  0  0  0  0
  -19.0588  -39.5668   -9.5141 O   0  0  0  0  0  0  0  0  0  0  0  0
  -17.1101  -38.8401   -8.6109 N   0  0  0  0  0  0  0  0  0  0  0  0
  -21.4712  -39.5754   -5.4510 C   0  0  0  0  0  0  0  0  0  0  0  0
  1  2  1  0
  2  3  1  0
  2  4  1  0
  4  5  2  0
  5  6  1  0
  6  7  2  0
  7  8  1  0
  8  9  1  0
  9 10  1  0
 10 11  1  0
 11 12  1  0
 12 13  1  1
 12 14  1  0
 14 15  1  6
 15 16  1  0
 16 17  1  0
 17 18  2  0
 18 19  1  0
 19 20  2  0
 20 21  1  0
 20 22  1  0
 22 23  1  0
 23 24  1  0
 24 25  1  0
 25 26  1  0
 26 27  1  0
 27 28  2  0
 27 29  2  0
 27 30  1  0
 30 31  1  0
 31 32  1  6
 31 33  1  0
 33 34  2  0
 33 35  1  0
  8 36  2  0
 21 16  2  0
 35 14  1  0
 36  4  1  0
M  END
$$$$
