
     RDKit          3D

 36 38  0  0  0  0  0  0  0  0999 V2000
  -15.8950  -35.8828  -13.1090 C   0  0  0  0  0  0  0  0  0  0  0  0
  -14.8958  -36.9679  -13.3266 C   0  0  0  0  0  0  0  0  0  0  0  0
  -14.1048  -36.7215  -14.5968 C   0  0  0  0  0  0  0  0  0  0  0  0
  -13.9969  -37.0446  -12.1461 C   0  0  0  0  0  0  0  0  0  0  0  0
  -13.3587  -35.8977  -11.7316 C   0  0  0  0  0  0  0  0  0  0  0  0
  -12.5163  -35.9767  -10.6301 C   0  0  0  0  0  0  0  0  0  0  0  0
  -12.3313  -37.1894   -9.9718 C   0  0  0  0  0  0  0  0  0  0  0  0
  -12.9702  -38.3422  -10.3843 C   0  0  0  0  0  0  0  0  0  0  0  0
  -12.7217  -39.5841   -9.6413 C   0  0  0  0  0  0  0  0  0  0  0  0
  -13.4666  -39.6514   -8.3997 N   0  0  0  0  0  0  0  0  0  0  0  0
  -14.8193  -40.0878   -8.5911 C   0  0  0  0  0  0  0  0  0  0  0  0
  -15.8298  -39.2097   -7.9374 C   0  0  1  0  0  0  0  0  0  0  0  0
  -15.8062  -37.9583   -8.5272 O   0  0  0  0  0  0  0  0  0  0  0  0
  -17.2492  -39.8178   -7.9665 C   0  0  2  0  0  0  0  0  0  0  0  0
  -18.2008  -38.7044   -7.9101 C   0  0  0  0  0  0  0  0  0  0  0  0
  -19.5926  -38.8988   -7.4387 C   0  0  0  0  0  0  0  0  0  0  0  0
  -20.5101  -38.4382   -8.4002 C   0  0  0  0  0  0  0  0  0  0  0  0
  -21.8734  -38.4891   -8.2595 C   0  0  0  0  0  0  0  0  0  0  0  0
  -22.2987  -39.0367   -7.0819 C   0  0  0  0  0  0  0  0  0  0  0  0
  -21.4354  -39.5201   -6.0716 C   0  0  0  0  0  0  0  0  0  0  0  0
  -20.0665  -39.4395   -6.2728 C   0  0  0  0  0  0  0  0  0  0  0  0
  -22.1582  -40.0045   -5.0215 O   0  0  0  0  0  0  0  0  0  0  0  0
  -22.2124  -40.9482   -4.0531 C   0  0  0  0  0  0  0  0  0  0  0  0
  -22.4073  -42.3528   -4.4674 C   0  0  0  0  0  0  0  0  0  0  0  0
  -22.9427  -42.5891   -5.8364 C   0  0  0  0  0  0  0  0  0  0  0  0
  -22.5262  -43.9739   -6.3552 C   0  0  0  0  0  0  0  0  0  0  0  0
  -21.2580  -43.6815   -7.5989 S   0  0  0  0  0  6  0  0  0  0  0  0
  -21.8163  -42.6204   -8.4916 O   0  0  0  0  0  0  0  0  0  0  0  0
  -20.9558  -44.9370   -8.3554 O   0  0  0  0  0  0  0  0  0  0  0  0
  -19.8247  -43.1857   -6.7271 C   0  0  0  0  0  0  0  0  0  0  0  0
  -18.6320  -42.8532   -7.5908 C   0  0  1  0  0  0  0  0  0  0  0  0
  -18.9832  -42.3396   -8.9309 C   0  0  0  0  0  0  0  0  0  0  0  0
  -17.7484  -42.0246   -6.7563 C   0  0  0  0  0  0  0  0  0  0  0  0
  -17.2520  -42.7155   -5.7677 O   0  0  0  0  0  0  0  0  0  0  0  0
  -17.3578  -40.7076   -6.8159 N   0  0  0  0  0  0  0  0  0  0  0  0
  -13.7970  -38.2348  -11.4758 C   0  0  0  0  0  0  0  0  0  0  0  0
  1  2  1  0
  2  3  1  0
  2  4  1  0
  4  5  2  0
  5  6  1  0
  6  7  2  0
  7  8  1  0
  8  9  1  0
  9 10  1  0
 10 11  1  0
 11 12  1  0
 12 13  1  6
 12 14  1  0
 14 15  1  1
 15 16  1  0
 16 17  1  0
 17 18  2  0
 18 19  1  0
 19 20  2  0
 20 21  1  0
 20 22  1  0
 22 23  1  0
 23 24  1  0
 24 25  1  0
 25 26  1  0
 26 27  1  0
 27 28  2  0
 27 29  2  0
 27 30  1  0
 30 31  1  0
 31 32  1  6
 31 33  1  0
 33 34  2  0
 33 35  1  0
  8 36  2  0
 21 16  2  0
 35 14  1  0
 36  4  1  0
M  END
$$$$
