
     RDKit          3D

 36 38  0  0  0  0  0  0  0  0999 V2000
  -13.9474  -35.8603  -14.1297 C   0  0  0  0  0  0  0  0  0  0  0  0
  -13.1245  -36.3209  -12.9748 C   0  0  0  0  0  0  0  0  0  0  0  0
  -13.4541  -35.5216  -11.7288 C   0  0  0  0  0  0  0  0  0  0  0  0
  -13.3632  -37.7710  -12.7556 C   0  0  0  0  0  0  0  0  0  0  0  0
  -14.0244  -38.4820  -13.7312 C   0  0  0  0  0  0  0  0  0  0  0  0
  -14.2483  -39.8362  -13.5186 C   0  0  0  0  0  0  0  0  0  0  0  0
  -13.8105  -40.4458  -12.3460 C   0  0  0  0  0  0  0  0  0  0  0  0
  -13.1463  -39.7360  -11.3651 C   0  0  0  0  0  0  0  0  0  0  0  0
  -12.7186  -40.4481  -10.1542 C   0  0  0  0  0  0  0  0  0  0  0  0
  -13.6641  -40.3143   -9.0637 N   0  0  0  0  0  0  0  0  0  0  0  0
  -15.0262  -40.3081   -9.5125 C   0  0  0  0  0  0  0  0  0  0  0  0
  -15.9306  -39.4771   -8.6692 C   0  0  1  0  0  0  0  0  0  0  0  0
  -16.0083  -38.1992   -9.1941 O   0  0  0  0  0  0  0  0  0  0  0  0
  -17.3325  -40.1048   -8.5089 C   0  0  2  0  0  0  0  0  0  0  0  0
  -18.3042  -39.0075   -8.5188 C   0  0  0  0  0  0  0  0  0  0  0  0
  -19.6508  -39.1606   -7.9181 C   0  0  0  0  0  0  0  0  0  0  0  0
  -20.6502  -38.8405   -8.8546 C   0  0  0  0  0  0  0  0  0  0  0  0
  -21.9971  -38.8931   -8.6013 C   0  0  0  0  0  0  0  0  0  0  0  0
  -22.3173  -39.2916   -7.3340 C   0  0  0  0  0  0  0  0  0  0  0  0
  -21.3676  -39.6289   -6.3421 C   0  0  0  0  0  0  0  0  0  0  0  0
  -20.0206  -39.5545   -6.6594 C   0  0  0  0  0  0  0  0  0  0  0  0
  -21.9958  -39.9855   -5.1853 O   0  0  0  0  0  0  0  0  0  0  0  0
  -21.9524  -40.7981   -4.1042 C   0  0  0  0  0  0  0  0  0  0  0  0
  -22.1436  -42.2470   -4.3207 C   0  0  0  0  0  0  0  0  0  0  0  0
  -22.7762  -42.6645   -5.6022 C   0  0  0  0  0  0  0  0  0  0  0  0
  -22.3664  -44.0979   -5.9731 C   0  0  0  0  0  0  0  0  0  0  0  0
  -21.2047  -43.9484   -7.3400 S   0  0  0  0  0  6  0  0  0  0  0  0
  -21.8557  -43.0188   -8.3129 O   0  0  0  0  0  0  0  0  0  0  0  0
  -20.9303  -45.2859   -7.9531 O   0  0  0  0  0  0  0  0  0  0  0  0
  -19.7216  -43.3240   -6.6539 C   0  0  0  0  0  0  0  0  0  0  0  0
  -18.6070  -43.0873   -7.6442 C   0  0  1  0  0  0  0  0  0  0  0  0
  -19.0723  -42.7547   -9.0065 C   0  0  0  0  0  0  0  0  0  0  0  0
  -17.6830  -42.1457   -6.9937 C   0  0  0  0  0  0  0  0  0  0  0  0
  -17.0955  -42.6968   -5.9680 O   0  0  0  0  0  0  0  0  0  0  0  0
  -17.3308  -40.8415   -7.2501 N   0  0  0  0  0  0  0  0  0  0  0  0
  -12.9386  -38.3991  -11.6019 C   0  0  0  0  0  0  0  0  0  0  0  0
  1  2  1  0
  2  3  1  0
  2  4  1  0
  4  5  2  0
  5  6  1  0
  6  7  2  0
  7  8  1  0
  8  9  1  0
  9 10  1  0
 10 11  1  0
 11 12  1  0
 12 13  1  6
 12 14  1  0
 14 15  1  1
 15 16  1  0
 16 17  1  0
 17 18  2  0
 18 19  1  0
 19 20  2  0
 20 21  1  0
 20 22  1  0
 22 23  1  0
 23 24  1  0
 24 25  1  0
 25 26  1  0
 26 27  1  0
 27 28  2  0
 27 29  2  0
 27 30  1  0
 30 31  1  0
 31 32  1  6
 31 33  1  0
 33 34  2  0
 33 35  1  0
  8 36  2  0
 21 16  2  0
 35 14  1  0
 36  4  1  0
M  END
$$$$
