
     RDKit          3D

 36 38  0  0  0  0  0  0  0  0999 V2000
  -11.9980  -35.0600  -13.2792 C   0  0  0  0  0  0  0  0  0  0  0  0
  -11.8844  -36.4835  -13.7084 C   0  0  0  0  0  0  0  0  0  0  0  0
  -10.4877  -37.0128  -13.4459 C   0  0  0  0  0  0  0  0  0  0  0  0
  -12.9035  -37.2906  -12.9889 C   0  0  0  0  0  0  0  0  0  0  0  0
  -13.4774  -38.3572  -13.6429 C   0  0  0  0  0  0  0  0  0  0  0  0
  -14.4324  -39.1052  -12.9667 C   0  0  0  0  0  0  0  0  0  0  0  0
  -14.7906  -38.7747  -11.6625 C   0  0  0  0  0  0  0  0  0  0  0  0
  -14.2169  -37.7057  -11.0028 C   0  0  0  0  0  0  0  0  0  0  0  0
  -14.6492  -37.4171   -9.6294 C   0  0  0  0  0  0  0  0  0  0  0  0
  -14.1931  -38.4121   -8.6790 N   0  0  0  0  0  0  0  0  0  0  0  0
  -15.1506  -39.4602   -8.4757 C   0  0  0  0  0  0  0  0  0  0  0  0
  -16.1264  -39.1766   -7.3862 C   0  0  1  0  0  0  0  0  0  0  0  0
  -16.3507  -37.8135   -7.3090 O   0  0  0  0  0  0  0  0  0  0  0  0
  -17.4491  -39.9547   -7.5593 C   0  0  2  0  0  0  0  0  0  0  0  0
  -18.5243  -38.9652   -7.6731 C   0  0  0  0  0  0  0  0  0  0  0  0
  -19.9323  -39.3132   -7.3666 C   0  0  0  0  0  0  0  0  0  0  0  0
  -20.7678  -39.0004   -8.4539 C   0  0  0  0  0  0  0  0  0  0  0  0
  -22.1225  -39.2134   -8.4786 C   0  0  0  0  0  0  0  0  0  0  0  0
  -22.6266  -39.7699   -7.3369 C   0  0  0  0  0  0  0  0  0  0  0  0
  -21.8480  -40.1103   -6.2067 C   0  0  0  0  0  0  0  0  0  0  0  0
  -20.4837  -39.8692   -6.2428 C   0  0  0  0  0  0  0  0  0  0  0  0
  -22.6365  -40.6450   -5.2308 O   0  0  0  0  0  0  0  0  0  0  0  0
  -22.7020  -41.5558   -4.2322 C   0  0  0  0  0  0  0  0  0  0  0  0
  -22.6762  -42.9866   -4.5993 C   0  0  0  0  0  0  0  0  0  0  0  0
  -23.0018  -43.3316   -6.0106 C   0  0  0  0  0  0  0  0  0  0  0  0
  -22.3629  -44.6712   -6.4076 C   0  0  0  0  0  0  0  0  0  0  0  0
  -20.9901  -44.2665   -7.4996 S   0  0  0  0  0  6  0  0  0  0  0  0
  -21.5512  -43.3118   -8.5037 O   0  0  0  0  0  0  0  0  0  0  0  0
  -20.4488  -45.4997   -8.1524 O   0  0  0  0  0  0  0  0  0  0  0  0
  -19.7476  -43.5704   -6.4839 C   0  0  0  0  0  0  0  0  0  0  0  0
  -18.5021  -43.1228   -7.2102 C   0  0  1  0  0  0  0  0  0  0  0  0
  -18.7381  -42.7004   -8.6063 C   0  0  0  0  0  0  0  0  0  0  0  0
  -17.8353  -42.1652   -6.3148 C   0  0  0  0  0  0  0  0  0  0  0  0
  -17.3909  -42.7571   -5.2409 O   0  0  0  0  0  0  0  0  0  0  0  0
  -17.5978  -40.8129   -6.3893 N   0  0  0  0  0  0  0  0  0  0  0  0
  -13.2756  -36.9839  -11.6954 C   0  0  0  0  0  0  0  0  0  0  0  0
  1  2  1  0
  2  3  1  0
  2  4  1  0
  4  5  2  0
  5  6  1  0
  6  7  2  0
  7  8  1  0
  8  9  1  0
  9 10  1  0
 10 11  1  0
 11 12  1  0
 12 13  1  6
 12 14  1  0
 14 15  1  1
 15 16  1  0
 16 17  1  0
 17 18  2  0
 18 19  1  0
 19 20  2  0
 20 21  1  0
 20 22  1  0
 22 23  1  0
 23 24  1  0
 24 25  1  0
 25 26  1  0
 26 27  1  0
 27 28  2  0
 27 29  2  0
 27 30  1  0
 30 31  1  0
 31 32  1  6
 31 33  1  0
 33 34  2  0
 33 35  1  0
  8 36  2  0
 21 16  2  0
 35 14  1  0
 36  4  1  0
M  END
$$$$
