
     RDKit          3D

 36 38  0  0  0  0  0  0  0  0999 V2000
  -14.1080  -34.5501  -11.7362 C   0  0  0  0  0  0  0  0  0  0  0  0
  -13.0312  -35.3883  -12.3372 C   0  0  0  0  0  0  0  0  0  0  0  0
  -11.6981  -35.1070  -11.6713 C   0  0  0  0  0  0  0  0  0  0  0  0
  -13.4003  -36.8215  -12.2052 C   0  0  0  0  0  0  0  0  0  0  0  0
  -14.0023  -37.4453  -13.2743 C   0  0  0  0  0  0  0  0  0  0  0  0
  -14.3489  -38.7839  -13.1432 C   0  0  0  0  0  0  0  0  0  0  0  0
  -14.0887  -39.4648  -11.9570 C   0  0  0  0  0  0  0  0  0  0  0  0
  -13.4845  -38.8426  -10.8824 C   0  0  0  0  0  0  0  0  0  0  0  0
  -13.2462  -39.6261   -9.6634 C   0  0  0  0  0  0  0  0  0  0  0  0
  -13.7296  -38.9624   -8.4689 N   0  0  0  0  0  0  0  0  0  0  0  0
  -14.9368  -39.5483   -7.9628 C   0  0  0  0  0  0  0  0  0  0  0  0
  -16.1283  -38.6620   -8.0825 C   0  0  1  0  0  0  0  0  0  0  0  0
  -16.0174  -37.8891   -9.2247 O   0  0  0  0  0  0  0  0  0  0  0  0
  -17.4562  -39.4504   -8.0645 C   0  0  2  0  0  0  0  0  0  0  0  0
  -18.5430  -38.4703   -7.9820 C   0  0  0  0  0  0  0  0  0  0  0  0
  -19.8823  -38.8411   -7.4660 C   0  0  0  0  0  0  0  0  0  0  0  0
  -20.8813  -38.5117   -8.3996 C   0  0  0  0  0  0  0  0  0  0  0  0
  -22.2213  -38.7390   -8.2156 C   0  0  0  0  0  0  0  0  0  0  0  0
  -22.5347  -39.3283   -7.0231 C   0  0  0  0  0  0  0  0  0  0  0  0
  -21.5848  -39.6870   -6.0389 C   0  0  0  0  0  0  0  0  0  0  0  0
  -20.2451  -39.4300   -6.2838 C   0  0  0  0  0  0  0  0  0  0  0  0
  -22.2053  -40.2535   -4.9647 O   0  0  0  0  0  0  0  0  0  0  0  0
  -22.1057  -41.1887   -3.9917 C   0  0  0  0  0  0  0  0  0  0  0  0
  -22.1280  -42.6099   -4.3946 C   0  0  0  0  0  0  0  0  0  0  0  0
  -22.6701  -42.9246   -5.7450 C   0  0  0  0  0  0  0  0  0  0  0  0
  -22.0924  -44.2471   -6.2718 C   0  0  0  0  0  0  0  0  0  0  0  0
  -20.9123  -43.8013   -7.5561 S   0  0  0  0  0  6  0  0  0  0  0  0
  -21.6319  -42.8291   -8.4345 O   0  0  0  0  0  0  0  0  0  0  0  0
  -20.4722  -45.0124   -8.3172 O   0  0  0  0  0  0  0  0  0  0  0  0
  -19.5299  -43.1159   -6.7319 C   0  0  0  0  0  0  0  0  0  0  0  0
  -18.4181  -42.6374   -7.6341 C   0  0  1  0  0  0  0  0  0  0  0  0
  -18.8748  -42.1843   -8.9643 C   0  0  0  0  0  0  0  0  0  0  0  0
  -17.6251  -41.6941   -6.8311 C   0  0  0  0  0  0  0  0  0  0  0  0
  -17.0123  -42.3066   -5.8562 O   0  0  0  0  0  0  0  0  0  0  0  0
  -17.4120  -40.3379   -6.9078 N   0  0  0  0  0  0  0  0  0  0  0  0
  -13.1526  -37.5191  -11.0399 C   0  0  0  0  0  0  0  0  0  0  0  0
  1  2  1  0
  2  3  1  0
  2  4  1  0
  4  5  2  0
  5  6  1  0
  6  7  2  0
  7  8  1  0
  8  9  1  0
  9 10  1  0
 10 11  1  0
 11 12  1  0
 12 13  1  6
 12 14  1  0
 14 15  1  1
 15 16  1  0
 16 17  1  0
 17 18  2  0
 18 19  1  0
 19 20  2  0
 20 21  1  0
 20 22  1  0
 22 23  1  0
 23 24  1  0
 24 25  1  0
 25 26  1  0
 26 27  1  0
 27 28  2  0
 27 29  2  0
 27 30  1  0
 30 31  1  0
 31 32  1  6
 31 33  1  0
 33 34  2  0
 33 35  1  0
  8 36  2  0
 21 16  2  0
 35 14  1  0
 36  4  1  0
M  END
$$$$
