
     RDKit          3D

 36 38  0  0  0  0  0  0  0  0999 V2000
  -23.5674  -42.3004   -5.1315 C   0  0  0  0  0  0  0  0  0  0  0  0
  -23.2300  -41.2737   -4.1042 C   0  0  0  0  0  0  0  0  0  0  0  0
  -22.1951  -41.8072   -3.1326 C   0  0  0  0  0  0  0  0  0  0  0  0
  -22.7386  -40.0480   -4.7854 C   0  0  0  0  0  0  0  0  0  0  0  0
  -23.6599  -39.2039   -5.3627 C   0  0  0  0  0  0  0  0  0  0  0  0
  -23.1941  -38.0620   -6.0016 C   0  0  0  0  0  0  0  0  0  0  0  0
  -21.8296  -37.7900   -6.0495 C   0  0  0  0  0  0  0  0  0  0  0  0
  -20.9021  -38.6341   -5.4711 C   0  0  0  0  0  0  0  0  0  0  0  0
  -19.4798  -38.2817   -5.5664 C   0  0  0  0  0  0  0  0  0  0  0  0
  -18.6418  -39.4205   -5.8856 N   0  0  0  0  0  0  0  0  0  0  0  0
  -17.3671  -39.0353   -6.4178 C   0  0  0  0  0  0  0  0  0  0  0  0
  -17.3475  -38.9232   -7.9033 C   0  0  1  0  0  0  0  0  0  0  0  0
  -16.1938  -38.2726   -8.3033 O   0  0  0  0  0  0  0  0  0  0  0  0
  -17.4910  -40.2931   -8.6018 C   0  0  2  0  0  0  0  0  0  0  0  0
  -17.4581  -40.0503  -10.0468 C   0  0  0  0  0  0  0  0  0  0  0  0
  -18.0392  -41.0178  -11.0079 C   0  0  0  0  0  0  0  0  0  0  0  0
  -17.0852  -41.3932  -11.9707 C   0  0  0  0  0  0  0  0  0  0  0  0
  -17.3182  -42.2816  -12.9894 C   0  0  0  0  0  0  0  0  0  0  0  0
  -18.5833  -42.7978  -13.0090 C   0  0  0  0  0  0  0  0  0  0  0  0
  -19.5921  -42.4671  -12.0749 C   0  0  0  0  0  0  0  0  0  0  0  0
  -19.2949  -41.5615  -11.0688 C   0  0  0  0  0  0  0  0  0  0  0  0
  -20.7417  -43.1438  -12.3586 O   0  0  0  0  0  0  0  0  0  0  0  0
  -21.8294  -43.7528  -11.8321 C   0  0  0  0  0  0  0  0  0  0  0  0
  -21.6206  -44.9991  -11.0667 C   0  0  0  0  0  0  0  0  0  0  0  0
  -20.3327  -45.7164  -11.2751 C   0  0  0  0  0  0  0  0  0  0  0  0
  -19.9789  -46.5725  -10.0495 C   0  0  0  0  0  0  0  0  0  0  0  0
  -18.6288  -45.7209   -9.2173 S   0  0  0  0  0  6  0  0  0  0  0  0
  -17.6392  -45.4031  -10.2917 O   0  0  0  0  0  0  0  0  0  0  0  0
  -18.0299  -46.5864   -8.1533 O   0  0  0  0  0  0  0  0  0  0  0  0
  -19.3330  -44.3058   -8.4677 C   0  0  0  0  0  0  0  0  0  0  0  0
  -18.3581  -43.4174   -7.7331 C   0  0  1  0  0  0  0  0  0  0  0  0
  -16.9864  -43.4458   -8.2815 C   0  0  0  0  0  0  0  0  0  0  0  0
  -19.0157  -42.1068   -7.6170 C   0  0  0  0  0  0  0  0  0  0  0  0
  -20.0544  -42.1703   -6.8308 O   0  0  0  0  0  0  0  0  0  0  0  0
  -18.7551  -40.8700   -8.1583 N   0  0  0  0  0  0  0  0  0  0  0  0
  -21.3909  -39.7554   -4.8462 C   0  0  0  0  0  0  0  0  0  0  0  0
  1  2  1  0
  2  3  1  0
  2  4  1  0
  4  5  2  0
  5  6  1  0
  6  7  2  0
  7  8  1  0
  8  9  1  0
  9 10  1  0
 10 11  1  0
 11 12  1  0
 12 13  1  1
 12 14  1  0
 14 15  1  6
 15 16  1  0
 16 17  1  0
 17 18  2  0
 18 19  1  0
 19 20  2  0
 20 21  1  0
 20 22  1  0
 22 23  1  0
 23 24  1  0
 24 25  1  0
 25 26  1  0
 26 27  1  0
 27 28  2  0
 27 29  2  0
 27 30  1  0
 30 31  1  0
 31 32  1  6
 31 33  1  0
 33 34  2  0
 33 35  1  0
  8 36  2  0
 21 16  2  0
 35 14  1  0
 36  4  1  0
M  END
$$$$
