
     RDKit          3D

 36 38  0  0  0  0  0  0  0  0999 V2000
  -24.2838  -40.5228   -4.5492 C   0  0  0  0  0  0  0  0  0  0  0  0
  -23.5000  -41.7646   -4.2907 C   0  0  0  0  0  0  0  0  0  0  0  0
  -23.0423  -42.3908   -5.5939 C   0  0  0  0  0  0  0  0  0  0  0  0
  -22.3403  -41.4353   -3.4221 C   0  0  0  0  0  0  0  0  0  0  0  0
  -22.3515  -41.8750   -2.1179 C   0  0  0  0  0  0  0  0  0  0  0  0
  -21.2666  -41.5603   -1.3097 C   0  0  0  0  0  0  0  0  0  0  0  0
  -20.2028  -40.8196   -1.8176 C   0  0  0  0  0  0  0  0  0  0  0  0
  -20.1877  -40.3770   -3.1257 C   0  0  0  0  0  0  0  0  0  0  0  0
  -19.0320  -39.5976   -3.5874 C   0  0  0  0  0  0  0  0  0  0  0  0
  -18.6879  -39.8726   -4.9684 N   0  0  0  0  0  0  0  0  0  0  0  0
  -19.0757  -38.8139   -5.8547 C   0  0  0  0  0  0  0  0  0  0  0  0
  -17.9325  -38.1894   -6.5776 C   0  0  1  0  0  0  0  0  0  0  0  0
  -16.8050  -38.2216   -5.7763 O   0  0  0  0  0  0  0  0  0  0  0  0
  -17.6670  -38.8504   -7.9479 C   0  0  2  0  0  0  0  0  0  0  0  0
  -17.4735  -37.7717   -8.9212 C   0  0  0  0  0  0  0  0  0  0  0  0
  -17.6791  -37.9925  -10.3725 C   0  0  0  0  0  0  0  0  0  0  0  0
  -16.5337  -37.6178  -11.0976 C   0  0  0  0  0  0  0  0  0  0  0  0
  -16.4123  -37.7118  -12.4605 C   0  0  0  0  0  0  0  0  0  0  0  0
  -17.5164  -38.2118  -13.0918 C   0  0  0  0  0  0  0  0  0  0  0  0
  -18.7006  -38.6086  -12.4286 C   0  0  0  0  0  0  0  0  0  0  0  0
  -18.7619  -38.4881  -11.0493 C   0  0  0  0  0  0  0  0  0  0  0  0
  -19.6189  -39.0634  -13.3286 O   0  0  0  0  0  0  0  0  0  0  0  0
  -20.6127  -39.9560  -13.5449 C   0  0  0  0  0  0  0  0  0  0  0  0
  -20.2524  -41.3868  -13.6188 C   0  0  0  0  0  0  0  0  0  0  0  0
  -18.8223  -41.7148  -13.8720 C   0  0  0  0  0  0  0  0  0  0  0  0
  -18.4759  -43.1086  -13.3265 C   0  0  0  0  0  0  0  0  0  0  0  0
  -17.4843  -42.8355  -11.8491 S   0  0  0  0  0  6  0  0  0  0  0  0
  -16.4398  -41.8445  -12.2512 O   0  0  0  0  0  0  0  0  0  0  0  0
  -16.8755  -44.1171  -11.3731 O   0  0  0  0  0  0  0  0  0  0  0  0
  -18.5847  -42.2414  -10.6258 C   0  0  0  0  0  0  0  0  0  0  0  0
  -17.9484  -41.9111   -9.2973 C   0  0  1  0  0  0  0  0  0  0  0  0
  -16.5378  -41.4823   -9.3951 C   0  0  0  0  0  0  0  0  0  0  0  0
  -18.8867  -41.0073   -8.6145 C   0  0  0  0  0  0  0  0  0  0  0  0
  -19.9914  -41.6260   -8.3015 O   0  0  0  0  0  0  0  0  0  0  0  0
  -18.8257  -39.6816   -8.2544 N   0  0  0  0  0  0  0  0  0  0  0  0
  -21.2731  -40.7027   -3.9018 C   0  0  0  0  0  0  0  0  0  0  0  0
  1  2  1  0
  2  3  1  0
  2  4  1  0
  4  5  2  0
  5  6  1  0
  6  7  2  0
  7  8  1  0
  8  9  1  0
  9 10  1  0
 10 11  1  0
 11 12  1  0
 12 13  1  1
 12 14  1  0
 14 15  1  6
 15 16  1  0
 16 17  1  0
 17 18  2  0
 18 19  1  0
 19 20  2  0
 20 21  1  0
 20 22  1  0
 22 23  1  0
 23 24  1  0
 24 25  1  0
 25 26  1  0
 26 27  1  0
 27 28  2  0
 27 29  2  0
 27 30  1  0
 30 31  1  0
 31 32  1  6
 31 33  1  0
 33 34  2  0
 33 35  1  0
  8 36  2  0
 21 16  2  0
 35 14  1  0
 36  4  1  0
M  END
$$$$
