
     RDKit          3D

 36 38  0  0  0  0  0  0  0  0999 V2000
  -16.3807  -34.2325  -11.4307 C   0  0  0  0  0  0  0  0  0  0  0  0
  -15.8385  -35.2632  -12.3618 C   0  0  0  0  0  0  0  0  0  0  0  0
  -15.6239  -34.6773  -13.7441 C   0  0  0  0  0  0  0  0  0  0  0  0
  -14.5682  -35.7986  -11.8075 C   0  0  0  0  0  0  0  0  0  0  0  0
  -13.4635  -34.9778  -11.7872 C   0  0  0  0  0  0  0  0  0  0  0  0
  -12.2779  -35.4855  -11.2718 C   0  0  0  0  0  0  0  0  0  0  0  0
  -12.2218  -36.7911  -10.7916 C   0  0  0  0  0  0  0  0  0  0  0  0
  -13.3281  -37.6176  -10.8099 C   0  0  0  0  0  0  0  0  0  0  0  0
  -13.1897  -38.9836  -10.2892 C   0  0  0  0  0  0  0  0  0  0  0  0
  -13.7918  -39.1469   -8.9808 N   0  0  0  0  0  0  0  0  0  0  0  0
  -15.1324  -39.6516   -9.0498 C   0  0  0  0  0  0  0  0  0  0  0  0
  -15.9643  -39.3052   -7.8634 C   0  0  1  0  0  0  0  0  0  0  0  0
  -16.0321  -37.9296   -7.7313 O   0  0  0  0  0  0  0  0  0  0  0  0
  -17.3736  -39.9338   -7.9252 C   0  0  2  0  0  0  0  0  0  0  0  0
  -18.3382  -38.8683   -7.6377 C   0  0  0  0  0  0  0  0  0  0  0  0
  -19.7008  -39.1716   -7.1389 C   0  0  0  0  0  0  0  0  0  0  0  0
  -20.6736  -38.5798   -7.9645 C   0  0  0  0  0  0  0  0  0  0  0  0
  -22.0269  -38.6859   -7.7687 C   0  0  0  0  0  0  0  0  0  0  0  0
  -22.3824  -39.4315   -6.6800 C   0  0  0  0  0  0  0  0  0  0  0  0
  -21.4607  -40.0552   -5.8075 C   0  0  0  0  0  0  0  0  0  0  0  0
  -20.1055  -39.9096   -6.0583 C   0  0  0  0  0  0  0  0  0  0  0  0
  -22.1209  -40.7245   -4.8195 O   0  0  0  0  0  0  0  0  0  0  0  0
  -22.1104  -41.8169   -4.0210 C   0  0  0  0  0  0  0  0  0  0  0  0
  -22.3045  -43.1375   -4.6543 C   0  0  0  0  0  0  0  0  0  0  0  0
  -22.9061  -43.1558   -6.0161 C   0  0  0  0  0  0  0  0  0  0  0  0
  -22.4954  -44.4248   -6.7785 C   0  0  0  0  0  0  0  0  0  0  0  0
  -21.2976  -43.8996   -8.0155 S   0  0  0  0  0  6  0  0  0  0  0  0
  -21.9177  -42.7186   -8.6904 O   0  0  0  0  0  0  0  0  0  0  0  0
  -21.0154  -45.0044   -8.9849 O   0  0  0  0  0  0  0  0  0  0  0  0
  -19.8293  -43.5214   -7.1432 C   0  0  0  0  0  0  0  0  0  0  0  0
  -18.6879  -43.0217   -7.9957 C   0  0  1  0  0  0  0  0  0  0  0  0
  -19.1157  -42.3011   -9.2126 C   0  0  0  0  0  0  0  0  0  0  0  0
  -17.7755  -42.3223   -7.0781 C   0  0  0  0  0  0  0  0  0  0  0  0
  -17.2181  -43.1557   -6.2440 O   0  0  0  0  0  0  0  0  0  0  0  0
  -17.4090  -41.0047   -6.9356 N   0  0  0  0  0  0  0  0  0  0  0  0
  -14.4867  -37.0894  -11.3248 C   0  0  0  0  0  0  0  0  0  0  0  0
  1  2  1  0
  2  3  1  0
  2  4  1  0
  4  5  2  0
  5  6  1  0
  6  7  2  0
  7  8  1  0
  8  9  1  0
  9 10  1  0
 10 11  1  0
 11 12  1  0
 12 13  1  6
 12 14  1  0
 14 15  1  1
 15 16  1  0
 16 17  1  0
 17 18  2  0
 18 19  1  0
 19 20  2  0
 20 21  1  0
 20 22  1  0
 22 23  1  0
 23 24  1  0
 24 25  1  0
 25 26  1  0
 26 27  1  0
 27 28  2  0
 27 29  2  0
 27 30  1  0
 30 31  1  0
 31 32  1  6
 31 33  1  0
 33 34  2  0
 33 35  1  0
  8 36  2  0
 21 16  2  0
 35 14  1  0
 36  4  1  0
M  END
$$$$
