
     RDKit          3D

 36 38  0  0  0  0  0  0  0  0999 V2000
  -22.4654  -41.5647   -4.2114 C   0  0  0  0  0  0  0  0  0  0  0  0
  -23.0073  -40.1848   -4.3705 C   0  0  0  0  0  0  0  0  0  0  0  0
  -22.6405  -39.3238   -3.1772 C   0  0  0  0  0  0  0  0  0  0  0  0
  -22.4825  -39.5990   -5.6311 C   0  0  0  0  0  0  0  0  0  0  0  0
  -23.1167  -39.9089   -6.8127 C   0  0  0  0  0  0  0  0  0  0  0  0
  -22.6187  -39.3616   -7.9881 C   0  0  0  0  0  0  0  0  0  0  0  0
  -21.5074  -38.5236   -7.9582 C   0  0  0  0  0  0  0  0  0  0  0  0
  -20.8686  -38.2099   -6.7746 C   0  0  0  0  0  0  0  0  0  0  0  0
  -19.7001  -37.3219   -6.8241 C   0  0  0  0  0  0  0  0  0  0  0  0
  -18.5531  -37.8679   -6.1261 N   0  0  0  0  0  0  0  0  0  0  0  0
  -18.3066  -39.2407   -6.4598 C   0  0  0  0  0  0  0  0  0  0  0  0
  -17.5298  -39.4207   -7.7183 C   0  0  1  0  0  0  0  0  0  0  0  0
  -16.2484  -38.9281   -7.5457 O   0  0  0  0  0  0  0  0  0  0  0  0
  -17.5075  -40.8896   -8.1948 C   0  0  2  0  0  0  0  0  0  0  0  0
  -16.7506  -40.9286   -9.4494 C   0  0  0  0  0  0  0  0  0  0  0  0
  -16.9255  -42.0308  -10.4250 C   0  0  0  0  0  0  0  0  0  0  0  0
  -15.6884  -42.6308  -10.7214 C   0  0  0  0  0  0  0  0  0  0  0  0
  -15.5232  -43.6841  -11.5842 C   0  0  0  0  0  0  0  0  0  0  0  0
  -16.6806  -44.1297  -12.1582 C   0  0  0  0  0  0  0  0  0  0  0  0
  -17.9575  -43.5763  -11.9074 C   0  0  0  0  0  0  0  0  0  0  0  0
  -18.0587  -42.5118  -11.0257 C   0  0  0  0  0  0  0  0  0  0  0  0
  -18.9100  -44.2354  -12.6271 O   0  0  0  0  0  0  0  0  0  0  0  0
  -20.1891  -44.6770  -12.6323 C   0  0  0  0  0  0  0  0  0  0  0  0
  -20.5487  -45.7635  -11.6980 C   0  0  0  0  0  0  0  0  0  0  0  0
  -19.4326  -46.5718  -11.1344 C   0  0  0  0  0  0  0  0  0  0  0  0
  -19.8339  -47.1954   -9.7889 C   0  0  0  0  0  0  0  0  0  0  0  0
  -18.9473  -46.2703   -8.5245 S   0  0  0  0  0  6  0  0  0  0  0  0
  -17.5300  -46.2137   -8.9962 O   0  0  0  0  0  0  0  0  0  0  0  0
  -19.0600  -46.9464   -7.1941 O   0  0  0  0  0  0  0  0  0  0  0  0
  -19.7218  -44.7044   -8.4325 C   0  0  0  0  0  0  0  0  0  0  0  0
  -19.1080  -43.7429   -7.4436 C   0  0  1  0  0  0  0  0  0  0  0  0
  -17.6606  -43.9448   -7.2261 C   0  0  0  0  0  0  0  0  0  0  0  0
  -19.5520  -42.4026   -7.8558 C   0  0  0  0  0  0  0  0  0  0  0  0
  -20.8382  -42.2623   -7.6909 O   0  0  0  0  0  0  0  0  0  0  0  0
  -18.8951  -41.3065   -8.3634 N   0  0  0  0  0  0  0  0  0  0  0  0
  -21.3824  -38.7649   -5.6281 C   0  0  0  0  0  0  0  0  0  0  0  0
  1  2  1  0
  2  3  1  0
  2  4  1  0
  4  5  2  0
  5  6  1  0
  6  7  2  0
  7  8  1  0
  8  9  1  0
  9 10  1  0
 10 11  1  0
 11 12  1  0
 12 13  1  1
 12 14  1  0
 14 15  1  6
 15 16  1  0
 16 17  1  0
 17 18  2  0
 18 19  1  0
 19 20  2  0
 20 21  1  0
 20 22  1  0
 22 23  1  0
 23 24  1  0
 24 25  1  0
 25 26  1  0
 26 27  1  0
 27 28  2  0
 27 29  2  0
 27 30  1  0
 30 31  1  0
 31 32  1  6
 31 33  1  0
 33 34  2  0
 33 35  1  0
  8 36  2  0
 21 16  2  0
 35 14  1  0
 36  4  1  0
M  END
$$$$
