
     RDKit          3D

 36 38  0  0  0  0  0  0  0  0999 V2000
  -10.0945  -35.7119  -12.7926 C   0  0  0  0  0  0  0  0  0  0  0  0
  -11.3082  -35.7138  -13.6588 C   0  0  0  0  0  0  0  0  0  0  0  0
  -11.1646  -36.7240  -14.7807 C   0  0  0  0  0  0  0  0  0  0  0  0
  -12.5006  -36.0114  -12.8238 C   0  0  0  0  0  0  0  0  0  0  0  0
  -13.7109  -35.4681  -13.1907 C   0  0  0  0  0  0  0  0  0  0  0  0
  -14.8209  -35.7464  -12.4037 C   0  0  0  0  0  0  0  0  0  0  0  0
  -14.6992  -36.5548  -11.2767 C   0  0  0  0  0  0  0  0  0  0  0  0
  -13.4868  -37.1021  -10.9056 C   0  0  0  0  0  0  0  0  0  0  0  0
  -13.4372  -37.9416   -9.7018 C   0  0  0  0  0  0  0  0  0  0  0  0
  -14.2197  -39.1546   -9.8335 N   0  0  0  0  0  0  0  0  0  0  0  0
  -15.6265  -38.9229   -9.6786 C   0  0  0  0  0  0  0  0  0  0  0  0
  -16.1344  -39.2165   -8.3092 C   0  0  1  0  0  0  0  0  0  0  0  0
  -16.1384  -38.0546   -7.5580 O   0  0  0  0  0  0  0  0  0  0  0  0
  -17.5289  -39.8801   -8.3251 C   0  0  2  0  0  0  0  0  0  0  0  0
  -18.5222  -38.8039   -8.3837 C   0  0  0  0  0  0  0  0  0  0  0  0
  -19.9189  -39.0142   -7.9338 C   0  0  0  0  0  0  0  0  0  0  0  0
  -20.8247  -38.6685   -8.9526 C   0  0  0  0  0  0  0  0  0  0  0  0
  -22.1888  -38.7613   -8.8432 C   0  0  0  0  0  0  0  0  0  0  0  0
  -22.6271  -39.2289   -7.6363 C   0  0  0  0  0  0  0  0  0  0  0  0
  -21.7758  -39.5955   -6.5683 C   0  0  0  0  0  0  0  0  0  0  0  0
  -20.4056  -39.4778   -6.7404 C   0  0  0  0  0  0  0  0  0  0  0  0
  -22.5100  -40.0221   -5.5011 O   0  0  0  0  0  0  0  0  0  0  0  0
  -22.5570  -40.8865   -4.4611 C   0  0  0  0  0  0  0  0  0  0  0  0
  -22.6879  -42.3264   -4.7647 C   0  0  0  0  0  0  0  0  0  0  0  0
  -23.1748  -42.6925   -6.1233 C   0  0  0  0  0  0  0  0  0  0  0  0
  -22.6927  -44.0970   -6.5171 C   0  0  0  0  0  0  0  0  0  0  0  0
  -21.4010  -43.8558   -7.7476 S   0  0  0  0  0  6  0  0  0  0  0  0
  -21.9724  -42.8924   -8.7376 O   0  0  0  0  0  0  0  0  0  0  0  0
  -21.0312  -45.1551   -8.3917 O   0  0  0  0  0  0  0  0  0  0  0  0
  -20.0127  -43.2360   -6.8825 C   0  0  0  0  0  0  0  0  0  0  0  0
  -18.8088  -42.9275   -7.7396 C   0  0  1  0  0  0  0  0  0  0  0  0
  -19.1402  -42.5370   -9.1255 C   0  0  0  0  0  0  0  0  0  0  0  0
  -17.9807  -42.0007   -6.9529 C   0  0  0  0  0  0  0  0  0  0  0  0
  -17.4876  -42.5901   -5.8990 O   0  0  0  0  0  0  0  0  0  0  0  0
  -17.6375  -40.6784   -7.1092 N   0  0  0  0  0  0  0  0  0  0  0  0
  -12.4064  -36.8103  -11.7019 C   0  0  0  0  0  0  0  0  0  0  0  0
  1  2  1  0
  2  3  1  0
  2  4  1  0
  4  5  2  0
  5  6  1  0
  6  7  2  0
  7  8  1  0
  8  9  1  0
  9 10  1  0
 10 11  1  0
 11 12  1  0
 12 13  1  1
 12 14  1  0
 14 15  1  1
 15 16  1  0
 16 17  1  0
 17 18  2  0
 18 19  1  0
 19 20  2  0
 20 21  1  0
 20 22  1  0
 22 23  1  0
 23 24  1  0
 24 25  1  0
 25 26  1  0
 26 27  1  0
 27 28  2  0
 27 29  2  0
 27 30  1  0
 30 31  1  0
 31 32  1  6
 31 33  1  0
 33 34  2  0
 33 35  1  0
  8 36  2  0
 21 16  2  0
 35 14  1  0
 36  4  1  0
M  END
$$$$
