
     RDKit          3D

 36 38  0  0  0  0  0  0  0  0999 V2000
   -9.4584  -42.1193  -10.6642 C   0  0  0  0  0  0  0  0  0  0  0  0
  -10.7151  -41.7180   -9.9694 C   0  0  0  0  0  0  0  0  0  0  0  0
  -10.4086  -41.1195   -8.6101 C   0  0  0  0  0  0  0  0  0  0  0  0
  -11.4544  -40.7516  -10.8222 C   0  0  0  0  0  0  0  0  0  0  0  0
  -10.9556  -40.4642  -12.0724 C   0  0  0  0  0  0  0  0  0  0  0  0
  -11.6488  -39.5568  -12.8631 C   0  0  0  0  0  0  0  0  0  0  0  0
  -12.8157  -38.9612  -12.3919 C   0  0  0  0  0  0  0  0  0  0  0  0
  -13.3196  -39.2472  -11.1384 C   0  0  0  0  0  0  0  0  0  0  0  0
  -14.5535  -38.5760  -10.7102 C   0  0  0  0  0  0  0  0  0  0  0  0
  -15.3529  -39.3918   -9.8178 N   0  0  0  0  0  0  0  0  0  0  0  0
  -15.0402  -39.1670   -8.4364 C   0  0  0  0  0  0  0  0  0  0  0  0
  -16.1737  -38.6050   -7.6497 C   0  0  1  0  0  0  0  0  0  0  0  0
  -16.3983  -37.2946   -8.0330 O   0  0  0  0  0  0  0  0  0  0  0  0
  -17.4577  -39.4543   -7.7727 C   0  0  2  0  0  0  0  0  0  0  0  0
  -18.5971  -38.5399   -7.6553 C   0  0  0  0  0  0  0  0  0  0  0  0
  -19.9375  -39.0220   -7.2450 C   0  0  0  0  0  0  0  0  0  0  0  0
  -20.9082  -38.6535   -8.1938 C   0  0  0  0  0  0  0  0  0  0  0  0
  -22.2415  -38.9614   -8.1004 C   0  0  0  0  0  0  0  0  0  0  0  0
  -22.5783  -39.6758   -6.9853 C   0  0  0  0  0  0  0  0  0  0  0  0
  -21.6575  -40.0806   -5.9914 C   0  0  0  0  0  0  0  0  0  0  0  0
  -20.3233  -39.7374   -6.1426 C   0  0  0  0  0  0  0  0  0  0  0  0
  -22.2965  -40.7759   -5.0074 O   0  0  0  0  0  0  0  0  0  0  0  0
  -22.1930  -41.7936   -4.1215 C   0  0  0  0  0  0  0  0  0  0  0  0
  -22.1218  -43.1694   -4.6550 C   0  0  0  0  0  0  0  0  0  0  0  0
  -22.5834  -43.3798   -6.0547 C   0  0  0  0  0  0  0  0  0  0  0  0
  -21.9132  -44.6169   -6.6717 C   0  0  0  0  0  0  0  0  0  0  0  0
  -20.7000  -43.9948   -7.8471 S   0  0  0  0  0  6  0  0  0  0  0  0
  -21.4282  -42.9790   -8.6672 O   0  0  0  0  0  0  0  0  0  0  0  0
  -20.1620  -45.1054   -8.6938 O   0  0  0  0  0  0  0  0  0  0  0  0
  -19.3952  -43.3254   -6.8933 C   0  0  0  0  0  0  0  0  0  0  0  0
  -18.2695  -42.7103   -7.6894 C   0  0  1  0  0  0  0  0  0  0  0  0
  -18.6872  -42.1551   -8.9933 C   0  0  0  0  0  0  0  0  0  0  0  0
  -17.5652  -41.8108   -6.7629 C   0  0  0  0  0  0  0  0  0  0  0  0
  -16.9669  -42.4831   -5.8189 O   0  0  0  0  0  0  0  0  0  0  0  0
  -17.4204  -40.4447   -6.7025 N   0  0  0  0  0  0  0  0  0  0  0  0
  -12.6139  -40.1478  -10.3784 C   0  0  0  0  0  0  0  0  0  0  0  0
  1  2  1  0
  2  3  1  0
  2  4  1  0
  4  5  2  0
  5  6  1  0
  6  7  2  0
  7  8  1  0
  8  9  1  0
  9 10  1  0
 10 11  1  0
 11 12  1  0
 12 13  1  6
 12 14  1  0
 14 15  1  1
 15 16  1  0
 16 17  1  0
 17 18  2  0
 18 19  1  0
 19 20  2  0
 20 21  1  0
 20 22  1  0
 22 23  1  0
 23 24  1  0
 24 25  1  0
 25 26  1  0
 26 27  1  0
 27 28  2  0
 27 29  2  0
 27 30  1  0
 30 31  1  0
 31 32  1  6
 31 33  1  0
 33 34  2  0
 33 35  1  0
  8 36  2  0
 21 16  2  0
 35 14  1  0
 36  4  1  0
M  END
$$$$
