
     RDKit          3D

 36 38  0  0  0  0  0  0  0  0999 V2000
  -23.1844  -38.2233   -7.2161 C   0  0  0  0  0  0  0  0  0  0  0  0
  -21.7587  -38.0258   -7.6057 C   0  0  0  0  0  0  0  0  0  0  0  0
  -20.9681  -37.4243   -6.4598 C   0  0  0  0  0  0  0  0  0  0  0  0
  -21.1835  -39.3309   -8.0220 C   0  0  0  0  0  0  0  0  0  0  0  0
  -21.8160  -40.0389   -9.0186 C   0  0  0  0  0  0  0  0  0  0  0  0
  -21.2759  -41.2602   -9.4004 C   0  0  0  0  0  0  0  0  0  0  0  0
  -20.1251  -41.7439   -8.7838 C   0  0  0  0  0  0  0  0  0  0  0  0
  -19.4874  -41.0363   -7.7839 C   0  0  0  0  0  0  0  0  0  0  0  0
  -18.2803  -41.6136   -7.1788 C   0  0  0  0  0  0  0  0  0  0  0  0
  -17.3031  -40.6078   -6.8121 N   0  0  0  0  0  0  0  0  0  0  0  0
  -16.1091  -40.6849   -7.6028 C   0  0  0  0  0  0  0  0  0  0  0  0
  -15.6510  -39.3670   -8.1252 C   0  0  1  0  0  0  0  0  0  0  0  0
  -15.2180  -38.5778   -7.0745 O   0  0  0  0  0  0  0  0  0  0  0  0
  -14.5600  -39.5073   -9.2093 C   0  0  2  0  0  0  0  0  0  0  0  0
  -13.9926  -38.1741   -9.4306 C   0  0  0  0  0  0  0  0  0  0  0  0
  -13.2957  -37.8292  -10.6927 C   0  0  0  0  0  0  0  0  0  0  0  0
  -12.0059  -37.3352  -10.4271 C   0  0  0  0  0  0  0  0  0  0  0  0
  -11.1130  -36.9384  -11.3896 C   0  0  0  0  0  0  0  0  0  0  0  0
  -11.5740  -37.0588  -12.6704 C   0  0  0  0  0  0  0  0  0  0  0  0
  -12.8566  -37.5468  -13.0117 C   0  0  0  0  0  0  0  0  0  0  0  0
  -13.7140  -37.9310  -11.9930 C   0  0  0  0  0  0  0  0  0  0  0  0
  -13.0195  -37.5464  -14.3658 O   0  0  0  0  0  0  0  0  0  0  0  0
  -13.5760  -38.1925  -15.4165 C   0  0  0  0  0  0  0  0  0  0  0  0
  -13.0471  -39.5271  -15.7657 C   0  0  0  0  0  0  0  0  0  0  0  0
  -11.7023  -39.8845  -15.2363 C   0  0  0  0  0  0  0  0  0  0  0  0
  -11.5451  -41.4088  -15.1263 C   0  0  0  0  0  0  0  0  0  0  0  0
  -11.6294  -41.7950  -13.3700 S   0  0  0  0  0  6  0  0  0  0  0  0
  -10.6906  -40.8378  -12.7089 O   0  0  0  0  0  0  0  0  0  0  0  0
  -11.2358  -43.2169  -13.1190 O   0  0  0  0  0  0  0  0  0  0  0  0
  -13.3011  -41.5780  -12.9025 C   0  0  0  0  0  0  0  0  0  0  0  0
  -13.5948  -41.8208  -11.4417 C   0  0  1  0  0  0  0  0  0  0  0  0
  -12.4581  -41.5322  -10.5428 C   0  0  0  0  0  0  0  0  0  0  0  0
  -14.8678  -41.1368  -11.1673 C   0  0  0  0  0  0  0  0  0  0  0  0
  -15.8548  -41.7108  -11.7975 O   0  0  0  0  0  0  0  0  0  0  0  0
  -15.2062  -40.0470  -10.4004 N   0  0  0  0  0  0  0  0  0  0  0  0
  -20.0432  -39.8321   -7.4267 C   0  0  0  0  0  0  0  0  0  0  0  0
  1  2  1  0
  2  3  1  0
  2  4  1  0
  4  5  2  0
  5  6  1  0
  6  7  2  0
  7  8  1  0
  8  9  1  0
  9 10  1  0
 10 11  1  0
 11 12  1  0
 12 13  1  1
 12 14  1  0
 14 15  1  6
 15 16  1  0
 16 17  1  0
 17 18  2  0
 18 19  1  0
 19 20  2  0
 20 21  1  0
 20 22  1  0
 22 23  1  0
 23 24  1  0
 24 25  1  0
 25 26  1  0
 26 27  1  0
 27 28  2  0
 27 29  2  0
 27 30  1  0
 30 31  1  0
 31 32  1  1
 31 33  1  0
 33 34  2  0
 33 35  1  0
  8 36  2  0
 21 16  2  0
 35 14  1  0
 36  4  1  0
M  END
$$$$
