
     RDKit          3D

 36 38  0  0  0  0  0  0  0  0999 V2000
  -23.4047  -36.2530   -6.6051 C   0  0  0  0  0  0  0  0  0  0  0  0
  -24.0122  -37.2333   -5.6601 C   0  0  0  0  0  0  0  0  0  0  0  0
  -25.4130  -37.6085   -6.1037 C   0  0  0  0  0  0  0  0  0  0  0  0
  -23.1403  -38.4337   -5.5782 C   0  0  0  0  0  0  0  0  0  0  0  0
  -23.4849  -39.4365   -4.7006 C   0  0  0  0  0  0  0  0  0  0  0  0
  -22.6637  -40.5540   -4.6255 C   0  0  0  0  0  0  0  0  0  0  0  0
  -21.5255  -40.6452   -5.4222 C   0  0  0  0  0  0  0  0  0  0  0  0
  -21.1767  -39.6415   -6.3042 C   0  0  0  0  0  0  0  0  0  0  0  0
  -19.9592  -39.8083   -7.1082 C   0  0  0  0  0  0  0  0  0  0  0  0
  -18.9884  -40.6810   -6.4782 N   0  0  0  0  0  0  0  0  0  0  0  0
  -17.8165  -39.9786   -6.0423 C   0  0  0  0  0  0  0  0  0  0  0  0
  -17.1005  -39.2699   -7.1398 C   0  0  1  0  0  0  0  0  0  0  0  0
  -16.2195  -38.3499   -6.5994 O   0  0  0  0  0  0  0  0  0  0  0  0
  -16.3794  -40.2413   -8.0998 C   0  0  2  0  0  0  0  0  0  0  0  0
  -15.8858  -39.4496   -9.2302 C   0  0  0  0  0  0  0  0  0  0  0  0
  -15.5877  -40.0741  -10.5411 C   0  0  0  0  0  0  0  0  0  0  0  0
  -14.2707  -39.7831  -10.9402 C   0  0  0  0  0  0  0  0  0  0  0  0
  -13.6964  -40.2262  -12.1043 C   0  0  0  0  0  0  0  0  0  0  0  0
  -14.5161  -40.9972  -12.8796 C   0  0  0  0  0  0  0  0  0  0  0  0
  -15.8483  -41.3303  -12.5423 C   0  0  0  0  0  0  0  0  0  0  0  0
  -16.3720  -40.8507  -11.3521 C   0  0  0  0  0  0  0  0  0  0  0  0
  -16.4032  -42.1096  -13.5142 O   0  0  0  0  0  0  0  0  0  0  0  0
  -17.2529  -43.1323  -13.7660 C   0  0  0  0  0  0  0  0  0  0  0  0
  -16.8674  -44.4809  -13.3021 C   0  0  0  0  0  0  0  0  0  0  0  0
  -15.4309  -44.7037  -12.9805 C   0  0  0  0  0  0  0  0  0  0  0  0
  -15.2675  -45.8519  -11.9729 C   0  0  0  0  0  0  0  0  0  0  0  0
  -14.8351  -45.0828  -10.4038 S   0  0  0  0  0  6  0  0  0  0  0  0
  -13.7311  -44.1267  -10.7226 O   0  0  0  0  0  0  0  0  0  0  0  0
  -14.4029  -46.1132   -9.4081 O   0  0  0  0  0  0  0  0  0  0  0  0
  -16.2917  -44.3079   -9.8225 C   0  0  0  0  0  0  0  0  0  0  0  0
  -16.1446  -43.5637   -8.5172 C   0  0  1  0  0  0  0  0  0  0  0  0
  -14.7900  -43.0228   -8.2816 C   0  0  0  0  0  0  0  0  0  0  0  0
  -17.2714  -42.6198   -8.4622 C   0  0  0  0  0  0  0  0  0  0  0  0
  -18.4076  -43.2505   -8.3511 O   0  0  0  0  0  0  0  0  0  0  0  0
  -17.3549  -41.2479   -8.5032 N   0  0  0  0  0  0  0  0  0  0  0  0
  -22.0067  -38.5484   -6.3577 C   0  0  0  0  0  0  0  0  0  0  0  0
  1  2  1  0
  2  3  1  0
  2  4  1  0
  4  5  2  0
  5  6  1  0
  6  7  2  0
  7  8  1  0
  8  9  1  0
  9 10  1  0
 10 11  1  0
 11 12  1  0
 12 13  1  1
 12 14  1  0
 14 15  1  6
 15 16  1  0
 16 17  1  0
 17 18  2  0
 18 19  1  0
 19 20  2  0
 20 21  1  0
 20 22  1  0
 22 23  1  0
 23 24  1  0
 24 25  1  0
 25 26  1  0
 26 27  1  0
 27 28  2  0
 27 29  2  0
 27 30  1  0
 30 31  1  0
 31 32  1  6
 31 33  1  0
 33 34  2  0
 33 35  1  0
  8 36  2  0
 21 16  2  0
 35 14  1  0
 36  4  1  0
M  END
$$$$
