
     RDKit          3D

 36 38  0  0  0  0  0  0  0  0999 V2000
  -16.0602  -34.3876  -11.0028 C   0  0  0  0  0  0  0  0  0  0  0  0
  -15.0524  -34.3863  -12.1017 C   0  0  0  0  0  0  0  0  0  0  0  0
  -13.9009  -33.4562  -11.7720 C   0  0  0  0  0  0  0  0  0  0  0  0
  -14.5698  -35.7745  -12.3200 C   0  0  0  0  0  0  0  0  0  0  0  0
  -14.6220  -36.2948  -13.5932 C   0  0  0  0  0  0  0  0  0  0  0  0
  -14.1734  -37.5945  -13.7901 C   0  0  0  0  0  0  0  0  0  0  0  0
  -13.6862  -38.3400  -12.7200 C   0  0  0  0  0  0  0  0  0  0  0  0
  -13.6317  -37.8213  -11.4412 C   0  0  0  0  0  0  0  0  0  0  0  0
  -13.1085  -38.6703  -10.3634 C   0  0  0  0  0  0  0  0  0  0  0  0
  -14.0632  -39.6689   -9.9248 N   0  0  0  0  0  0  0  0  0  0  0  0
  -15.4059  -39.1669   -9.8820 C   0  0  0  0  0  0  0  0  0  0  0  0
  -15.9321  -38.9815   -8.5006 C   0  0  1  0  0  0  0  0  0  0  0  0
  -15.9545  -37.6331   -8.1909 O   0  0  0  0  0  0  0  0  0  0  0  0
  -17.3219  -39.6259   -8.3055 C   0  0  2  0  0  0  0  0  0  0  0  0
  -18.2904  -38.5355   -8.1592 C   0  0  0  0  0  0  0  0  0  0  0  0
  -19.5960  -38.7445   -7.4891 C   0  0  0  0  0  0  0  0  0  0  0  0
  -20.6527  -38.3492   -8.3290 C   0  0  0  0  0  0  0  0  0  0  0  0
  -21.9808  -38.4284   -7.9956 C   0  0  0  0  0  0  0  0  0  0  0  0
  -22.2200  -38.9352   -6.7493 C   0  0  0  0  0  0  0  0  0  0  0  0
  -21.2094  -39.3525   -5.8526 C   0  0  0  0  0  0  0  0  0  0  0  0
  -19.8853  -39.2461   -6.2478 C   0  0  0  0  0  0  0  0  0  0  0  0
  -21.7629  -39.8092   -4.6929 O   0  0  0  0  0  0  0  0  0  0  0  0
  -21.6519  -40.7113   -3.6903 C   0  0  0  0  0  0  0  0  0  0  0  0
  -21.8589  -42.1370   -4.0176 C   0  0  0  0  0  0  0  0  0  0  0  0
  -22.5729  -42.4456   -5.2871 C   0  0  0  0  0  0  0  0  0  0  0  0
  -22.1901  -43.8405   -5.8048 C   0  0  0  0  0  0  0  0  0  0  0  0
  -21.1179  -43.5702   -7.2253 S   0  0  0  0  0  6  0  0  0  0  0  0
  -21.8283  -42.5631   -8.0713 O   0  0  0  0  0  0  0  0  0  0  0  0
  -20.8857  -44.8491   -7.9670 O   0  0  0  0  0  0  0  0  0  0  0  0
  -19.5930  -43.0011   -6.5843 C   0  0  0  0  0  0  0  0  0  0  0  0
  -18.5436  -42.6763   -7.6198 C   0  0  1  0  0  0  0  0  0  0  0  0
  -19.0945  -42.2300   -8.9161 C   0  0  0  0  0  0  0  0  0  0  0  0
  -17.5783  -41.7903   -6.9514 C   0  0  0  0  0  0  0  0  0  0  0  0
  -16.9273  -42.4251   -6.0163 O   0  0  0  0  0  0  0  0  0  0  0  0
  -17.2410  -40.4677   -7.1171 N   0  0  0  0  0  0  0  0  0  0  0  0
  -14.0817  -36.5342  -11.2758 C   0  0  0  0  0  0  0  0  0  0  0  0
  1  2  1  0
  2  3  1  0
  2  4  1  0
  4  5  2  0
  5  6  1  0
  6  7  2  0
  7  8  1  0
  8  9  1  0
  9 10  1  0
 10 11  1  0
 11 12  1  0
 12 13  1  6
 12 14  1  0
 14 15  1  1
 15 16  1  0
 16 17  1  0
 17 18  2  0
 18 19  1  0
 19 20  2  0
 20 21  1  0
 20 22  1  0
 22 23  1  0
 23 24  1  0
 24 25  1  0
 25 26  1  0
 26 27  1  0
 27 28  2  0
 27 29  2  0
 27 30  1  0
 30 31  1  0
 31 32  1  6
 31 33  1  0
 33 34  2  0
 33 35  1  0
  8 36  2  0
 21 16  2  0
 35 14  1  0
 36  4  1  0
M  END
$$$$
