
     RDKit          3D

 36 38  0  0  0  0  0  0  0  0999 V2000
  -14.1565  -34.2120  -11.5142 C   0  0  0  0  0  0  0  0  0  0  0  0
  -13.5443  -35.1425  -12.5055 C   0  0  0  0  0  0  0  0  0  0  0  0
  -12.0729  -34.8292  -12.6973 C   0  0  0  0  0  0  0  0  0  0  0  0
  -13.7347  -36.5410  -12.0413 C   0  0  0  0  0  0  0  0  0  0  0  0
  -14.3259  -37.4419  -12.8976 C   0  0  0  0  0  0  0  0  0  0  0  0
  -14.5051  -38.7467  -12.4564 C   0  0  0  0  0  0  0  0  0  0  0  0
  -14.0931  -39.1203  -11.1800 C   0  0  0  0  0  0  0  0  0  0  0  0
  -13.4991  -38.2194  -10.3182 C   0  0  0  0  0  0  0  0  0  0  0  0
  -13.0948  -38.6874   -8.9863 C   0  0  0  0  0  0  0  0  0  0  0  0
  -13.8742  -39.8221   -8.5321 N   0  0  0  0  0  0  0  0  0  0  0  0
  -15.2398  -39.7623   -8.9661 C   0  0  0  0  0  0  0  0  0  0  0  0
  -16.1909  -39.3526   -7.8952 C   0  0  1  0  0  0  0  0  0  0  0  0
  -16.3561  -37.9791   -7.9234 O   0  0  0  0  0  0  0  0  0  0  0  0
  -17.5474  -40.0837   -7.9972 C   0  0  2  0  0  0  0  0  0  0  0  0
  -18.5923  -39.0571   -8.0481 C   0  0  0  0  0  0  0  0  0  0  0  0
  -19.9924  -39.3580   -7.6651 C   0  0  0  0  0  0  0  0  0  0  0  0
  -20.8754  -39.0110   -8.7035 C   0  0  0  0  0  0  0  0  0  0  0  0
  -22.2359  -39.1771   -8.6537 C   0  0  0  0  0  0  0  0  0  0  0  0
  -22.6952  -39.7218   -7.4876 C   0  0  0  0  0  0  0  0  0  0  0  0
  -21.8675  -40.0946   -6.4034 C   0  0  0  0  0  0  0  0  0  0  0  0
  -20.4998  -39.9005   -6.5142 C   0  0  0  0  0  0  0  0  0  0  0  0
  -22.6189  -40.6068   -5.3870 O   0  0  0  0  0  0  0  0  0  0  0  0
  -22.6607  -41.5199   -4.3892 C   0  0  0  0  0  0  0  0  0  0  0  0
  -22.7049  -42.9488   -4.7618 C   0  0  0  0  0  0  0  0  0  0  0  0
  -23.1198  -43.2752   -6.1540 C   0  0  0  0  0  0  0  0  0  0  0  0
  -22.5506  -44.6339   -6.5901 C   0  0  0  0  0  0  0  0  0  0  0  0
  -21.2271  -44.2712   -7.7552 S   0  0  0  0  0  6  0  0  0  0  0  0
  -21.8094  -43.2926   -8.7236 O   0  0  0  0  0  0  0  0  0  0  0  0
  -20.7658  -45.5190   -8.4409 O   0  0  0  0  0  0  0  0  0  0  0  0
  -19.9069  -43.6235   -6.8076 C   0  0  0  0  0  0  0  0  0  0  0  0
  -18.6887  -43.2154   -7.6005 C   0  0  1  0  0  0  0  0  0  0  0  0
  -18.9867  -42.7780   -8.9800 C   0  0  0  0  0  0  0  0  0  0  0  0
  -17.9407  -42.2859   -6.7403 C   0  0  0  0  0  0  0  0  0  0  0  0
  -17.4584  -42.8983   -5.6946 O   0  0  0  0  0  0  0  0  0  0  0  0
  -17.6609  -40.9422   -6.8235 N   0  0  0  0  0  0  0  0  0  0  0  0
  -13.3344  -36.9366  -10.7807 C   0  0  0  0  0  0  0  0  0  0  0  0
  1  2  1  0
  2  3  1  0
  2  4  1  0
  4  5  2  0
  5  6  1  0
  6  7  2  0
  7  8  1  0
  8  9  1  0
  9 10  1  0
 10 11  1  0
 11 12  1  0
 12 13  1  6
 12 14  1  0
 14 15  1  1
 15 16  1  0
 16 17  1  0
 17 18  2  0
 18 19  1  0
 19 20  2  0
 20 21  1  0
 20 22  1  0
 22 23  1  0
 23 24  1  0
 24 25  1  0
 25 26  1  0
 26 27  1  0
 27 28  2  0
 27 29  2  0
 27 30  1  0
 30 31  1  0
 31 32  1  6
 31 33  1  0
 33 34  2  0
 33 35  1  0
  8 36  2  0
 21 16  2  0
 35 14  1  0
 36  4  1  0
M  END
$$$$
