
     RDKit          3D

 36 38  0  0  0  0  0  0  0  0999 V2000
  -14.6179  -34.4526  -11.5485 C   0  0  0  0  0  0  0  0  0  0  0  0
  -13.3655  -35.0480  -12.0964 C   0  0  0  0  0  0  0  0  0  0  0  0
  -12.1471  -34.4523  -11.4179 C   0  0  0  0  0  0  0  0  0  0  0  0
  -13.4084  -36.5221  -11.9150 C   0  0  0  0  0  0  0  0  0  0  0  0
  -13.8594  -37.2989  -12.9579 C   0  0  0  0  0  0  0  0  0  0  0  0
  -13.9013  -38.6758  -12.7806 C   0  0  0  0  0  0  0  0  0  0  0  0
  -13.4948  -39.2424  -11.5756 C   0  0  0  0  0  0  0  0  0  0  0  0
  -13.0412  -38.4665  -10.5271 C   0  0  0  0  0  0  0  0  0  0  0  0
  -12.6335  -39.1368   -9.2858 C   0  0  0  0  0  0  0  0  0  0  0  0
  -13.7530  -39.4205   -8.4099 N   0  0  0  0  0  0  0  0  0  0  0  0
  -14.9941  -39.5324   -9.1198 C   0  0  0  0  0  0  0  0  0  0  0  0
  -16.1206  -38.8010   -8.4752 C   0  0  1  0  0  0  0  0  0  0  0  0
  -16.3465  -37.6132   -9.1479 O   0  0  0  0  0  0  0  0  0  0  0  0
  -17.4066  -39.6518   -8.3900 C   0  0  2  0  0  0  0  0  0  0  0  0
  -18.5433  -38.7272   -8.4282 C   0  0  0  0  0  0  0  0  0  0  0  0
  -19.8715  -39.1108   -7.8932 C   0  0  0  0  0  0  0  0  0  0  0  0
  -20.8682  -38.9362   -8.8702 C   0  0  0  0  0  0  0  0  0  0  0  0
  -22.1981  -39.2129   -8.6807 C   0  0  0  0  0  0  0  0  0  0  0  0
  -22.5036  -39.6870   -7.4360 C   0  0  0  0  0  0  0  0  0  0  0  0
  -21.5555  -39.8879   -6.4062 C   0  0  0  0  0  0  0  0  0  0  0  0
  -20.2262  -39.5882   -6.6594 C   0  0  0  0  0  0  0  0  0  0  0  0
  -22.1665  -40.3682   -5.2856 O   0  0  0  0  0  0  0  0  0  0  0  0
  -22.0379  -41.1874   -4.2163 C   0  0  0  0  0  0  0  0  0  0  0  0
  -21.9800  -42.6427   -4.4639 C   0  0  0  0  0  0  0  0  0  0  0  0
  -22.4796  -43.1282   -5.7797 C   0  0  0  0  0  0  0  0  0  0  0  0
  -21.8253  -44.4671   -6.1531 C   0  0  0  0  0  0  0  0  0  0  0  0
  -20.6454  -44.0996   -7.4621 S   0  0  0  0  0  6  0  0  0  0  0  0
  -21.3969  -43.2662   -8.4497 O   0  0  0  0  0  0  0  0  0  0  0  0
  -20.1298  -45.3602   -8.0823 O   0  0  0  0  0  0  0  0  0  0  0  0
  -19.3156  -43.2581   -6.6981 C   0  0  0  0  0  0  0  0  0  0  0  0
  -18.2128  -42.8208   -7.6316 C   0  0  1  0  0  0  0  0  0  0  0  0
  -18.6666  -42.5372   -9.0089 C   0  0  0  0  0  0  0  0  0  0  0  0
  -17.4842  -41.7565   -6.9244 C   0  0  0  0  0  0  0  0  0  0  0  0
  -16.8596  -42.2281   -5.8811 O   0  0  0  0  0  0  0  0  0  0  0  0
  -17.3391  -40.4069   -7.1440 N   0  0  0  0  0  0  0  0  0  0  0  0
  -13.0105  -37.1084  -10.7302 C   0  0  0  0  0  0  0  0  0  0  0  0
  1  2  1  0
  2  3  1  0
  2  4  1  0
  4  5  2  0
  5  6  1  0
  6  7  2  0
  7  8  1  0
  8  9  1  0
  9 10  1  0
 10 11  1  0
 11 12  1  0
 12 13  1  6
 12 14  1  0
 14 15  1  1
 15 16  1  0
 16 17  1  0
 17 18  2  0
 18 19  1  0
 19 20  2  0
 20 21  1  0
 20 22  1  0
 22 23  1  0
 23 24  1  0
 24 25  1  0
 25 26  1  0
 26 27  1  0
 27 28  2  0
 27 29  2  0
 27 30  1  0
 30 31  1  0
 31 32  1  6
 31 33  1  0
 33 34  2  0
 33 35  1  0
  8 36  2  0
 21 16  2  0
 35 14  1  0
 36  4  1  0
M  END
$$$$
