
     RDKit          3D

 36 38  0  0  0  0  0  0  0  0999 V2000
  -11.5186  -35.2404  -11.4638 C   0  0  0  0  0  0  0  0  0  0  0  0
  -12.9360  -35.3322  -11.9174 C   0  0  0  0  0  0  0  0  0  0  0  0
  -13.1651  -34.4645  -13.1398 C   0  0  0  0  0  0  0  0  0  0  0  0
  -13.2633  -36.7529  -12.2041 C   0  0  0  0  0  0  0  0  0  0  0  0
  -13.5766  -37.1062  -13.4970 C   0  0  0  0  0  0  0  0  0  0  0  0
  -13.8858  -38.4349  -13.7578 C   0  0  0  0  0  0  0  0  0  0  0  0
  -13.8754  -39.3742  -12.7303 C   0  0  0  0  0  0  0  0  0  0  0  0
  -13.5612  -39.0238  -11.4320 C   0  0  0  0  0  0  0  0  0  0  0  0
  -13.5752  -40.0702  -10.4018 C   0  0  0  0  0  0  0  0  0  0  0  0
  -13.8499  -39.5477   -9.0779 N   0  0  0  0  0  0  0  0  0  0  0  0
  -14.9006  -40.2605   -8.4109 C   0  0  0  0  0  0  0  0  0  0  0  0
  -16.0119  -39.3868   -7.9406 C   0  0  1  0  0  0  0  0  0  0  0  0
  -16.0280  -38.2188   -8.6822 O   0  0  0  0  0  0  0  0  0  0  0  0
  -17.3821  -40.0981   -7.9829 C   0  0  2  0  0  0  0  0  0  0  0  0
  -18.4137  -39.0573   -7.9543 C   0  0  0  0  0  0  0  0  0  0  0  0
  -19.7946  -39.3484   -7.5009 C   0  0  0  0  0  0  0  0  0  0  0  0
  -20.7284  -38.9676   -8.4813 C   0  0  0  0  0  0  0  0  0  0  0  0
  -22.0864  -39.1172   -8.3599 C   0  0  0  0  0  0  0  0  0  0  0  0
  -22.4884  -39.6812   -7.1820 C   0  0  0  0  0  0  0  0  0  0  0  0
  -21.6077  -40.0881   -6.1532 C   0  0  0  0  0  0  0  0  0  0  0  0
  -20.2455  -39.9092   -6.3354 C   0  0  0  0  0  0  0  0  0  0  0  0
  -22.3092  -40.6125   -5.1078 O   0  0  0  0  0  0  0  0  0  0  0  0
  -22.3089  -41.5465   -4.1286 C   0  0  0  0  0  0  0  0  0  0  0  0
  -22.3935  -42.9663   -4.5281 C   0  0  0  0  0  0  0  0  0  0  0  0
  -22.8888  -43.2570   -5.9017 C   0  0  0  0  0  0  0  0  0  0  0  0
  -22.3637  -44.6131   -6.3971 C   0  0  0  0  0  0  0  0  0  0  0  0
  -21.1012  -44.2422   -7.6257 S   0  0  0  0  0  6  0  0  0  0  0  0
  -21.7222  -43.2354   -8.5397 O   0  0  0  0  0  0  0  0  0  0  0  0
  -20.6960  -45.4806   -8.3619 O   0  0  0  0  0  0  0  0  0  0  0  0
  -19.7220  -43.6323   -6.7392 C   0  0  0  0  0  0  0  0  0  0  0  0
  -18.5437  -43.2227   -7.5895 C   0  0  1  0  0  0  0  0  0  0  0  0
  -18.9109  -42.7516   -8.9409 C   0  0  0  0  0  0  0  0  0  0  0  0
  -17.7365  -42.3218   -6.7526 C   0  0  0  0  0  0  0  0  0  0  0  0
  -17.2060  -42.9629   -5.7483 O   0  0  0  0  0  0  0  0  0  0  0  0
  -17.4428  -40.9804   -6.8229 N   0  0  0  0  0  0  0  0  0  0  0  0
  -13.2595  -37.7035  -11.2030 C   0  0  0  0  0  0  0  0  0  0  0  0
  1  2  1  0
  2  3  1  0
  2  4  1  0
  4  5  2  0
  5  6  1  0
  6  7  2  0
  7  8  1  0
  8  9  1  0
  9 10  1  0
 10 11  1  0
 11 12  1  0
 12 13  1  6
 12 14  1  0
 14 15  1  1
 15 16  1  0
 16 17  1  0
 17 18  2  0
 18 19  1  0
 19 20  2  0
 20 21  1  0
 20 22  1  0
 22 23  1  0
 23 24  1  0
 24 25  1  0
 25 26  1  0
 26 27  1  0
 27 28  2  0
 27 29  2  0
 27 30  1  0
 30 31  1  0
 31 32  1  6
 31 33  1  0
 33 34  2  0
 33 35  1  0
  8 36  2  0
 21 16  2  0
 35 14  1  0
 36  4  1  0
M  END
$$$$
