
     RDKit          3D

 36 38  0  0  0  0  0  0  0  0999 V2000
  -23.1652  -41.4048   -5.2877 C   0  0  0  0  0  0  0  0  0  0  0  0
  -23.0936  -39.9399   -5.0189 C   0  0  0  0  0  0  0  0  0  0  0  0
  -22.5019  -39.6746   -3.6481 C   0  0  0  0  0  0  0  0  0  0  0  0
  -22.2851  -39.2897   -6.0826 C   0  0  0  0  0  0  0  0  0  0  0  0
  -22.7922  -39.2521   -7.3617 C   0  0  0  0  0  0  0  0  0  0  0  0
  -22.0299  -38.6468   -8.3524 C   0  0  0  0  0  0  0  0  0  0  0  0
  -20.7881  -38.0966   -8.0468 C   0  0  0  0  0  0  0  0  0  0  0  0
  -20.2761  -38.1320   -6.7646 C   0  0  0  0  0  0  0  0  0  0  0  0
  -18.9574  -37.5337   -6.5209 C   0  0  0  0  0  0  0  0  0  0  0  0
  -18.2455  -38.1741   -5.4327 N   0  0  0  0  0  0  0  0  0  0  0  0
  -17.2677  -39.1171   -5.8927 C   0  0  0  0  0  0  0  0  0  0  0  0
  -16.9963  -39.0328   -7.3552 C   0  0  1  0  0  0  0  0  0  0  0  0
  -15.8552  -38.2810   -7.5717 O   0  0  0  0  0  0  0  0  0  0  0  0
  -16.8869  -40.4236   -8.0177 C   0  0  2  0  0  0  0  0  0  0  0  0
  -16.2644  -40.2323   -9.3307 C   0  0  0  0  0  0  0  0  0  0  0  0
  -16.4363  -41.2224  -10.4205 C   0  0  0  0  0  0  0  0  0  0  0  0
  -15.1862  -41.6487  -10.9041 C   0  0  0  0  0  0  0  0  0  0  0  0
  -15.0142  -42.5679  -11.9074 C   0  0  0  0  0  0  0  0  0  0  0  0
  -16.1784  -43.0614  -12.4256 C   0  0  0  0  0  0  0  0  0  0  0  0
  -17.4683  -42.6798  -11.9895 C   0  0  0  0  0  0  0  0  0  0  0  0
  -17.5760  -41.7449  -10.9721 C   0  0  0  0  0  0  0  0  0  0  0  0
  -18.4249  -43.3450  -12.6982 O   0  0  0  0  0  0  0  0  0  0  0  0
  -19.6509  -43.9153  -12.6432 C   0  0  0  0  0  0  0  0  0  0  0  0
  -19.8084  -45.1374  -11.8283 C   0  0  0  0  0  0  0  0  0  0  0  0
  -18.5692  -45.8850  -11.4786 C   0  0  0  0  0  0  0  0  0  0  0  0
  -18.7684  -46.7037  -10.1940 C   0  0  0  0  0  0  0  0  0  0  0  0
  -17.8452  -45.8480   -8.9071 S   0  0  0  0  0  6  0  0  0  0  0  0
  -16.4961  -45.5863   -9.4953 O   0  0  0  0  0  0  0  0  0  0  0  0
  -17.7553  -46.6864   -7.6706 O   0  0  0  0  0  0  0  0  0  0  0  0
  -18.7485  -44.3949   -8.5428 C   0  0  0  0  0  0  0  0  0  0  0  0
  -18.1275  -43.4991   -7.4983 C   0  0  1  0  0  0  0  0  0  0  0  0
  -16.6528  -43.5717   -7.4422 C   0  0  0  0  0  0  0  0  0  0  0  0
  -18.7350  -42.1735   -7.6913 C   0  0  0  0  0  0  0  0  0  0  0  0
  -20.0045  -42.1904   -7.3926 O   0  0  0  0  0  0  0  0  0  0  0  0
  -18.2395  -40.9614   -8.1109 N   0  0  0  0  0  0  0  0  0  0  0  0
  -21.0512  -38.7364   -5.8052 C   0  0  0  0  0  0  0  0  0  0  0  0
  1  2  1  0
  2  3  1  0
  2  4  1  0
  4  5  2  0
  5  6  1  0
  6  7  2  0
  7  8  1  0
  8  9  1  0
  9 10  1  0
 10 11  1  0
 11 12  1  0
 12 13  1  1
 12 14  1  0
 14 15  1  6
 15 16  1  0
 16 17  1  0
 17 18  2  0
 18 19  1  0
 19 20  2  0
 20 21  1  0
 20 22  1  0
 22 23  1  0
 23 24  1  0
 24 25  1  0
 25 26  1  0
 26 27  1  0
 27 28  2  0
 27 29  2  0
 27 30  1  0
 30 31  1  0
 31 32  1  6
 31 33  1  0
 33 34  2  0
 33 35  1  0
  8 36  2  0
 21 16  2  0
 35 14  1  0
 36  4  1  0
M  END
$$$$
