
     RDKit          3D

 36 38  0  0  0  0  0  0  0  0999 V2000
  -13.5704  -35.3068  -12.8884 C   0  0  0  0  0  0  0  0  0  0  0  0
  -13.4202  -36.3310  -13.9615 C   0  0  0  0  0  0  0  0  0  0  0  0
  -12.2571  -35.9872  -14.8719 C   0  0  0  0  0  0  0  0  0  0  0  0
  -13.2304  -37.6655  -13.3364 C   0  0  0  0  0  0  0  0  0  0  0  0
  -13.2798  -38.7806  -14.1418 C   0  0  0  0  0  0  0  0  0  0  0  0
  -13.1059  -40.0254  -13.5509 C   0  0  0  0  0  0  0  0  0  0  0  0
  -12.8882  -40.1288  -12.1797 C   0  0  0  0  0  0  0  0  0  0  0  0
  -12.8375  -39.0125  -11.3683 C   0  0  0  0  0  0  0  0  0  0  0  0
  -12.6076  -39.2023   -9.9304 C   0  0  0  0  0  0  0  0  0  0  0  0
  -13.6730  -38.6513   -9.1165 N   0  0  0  0  0  0  0  0  0  0  0  0
  -14.8371  -39.4885   -9.0913 C   0  0  0  0  0  0  0  0  0  0  0  0
  -15.7587  -39.1985   -7.9572 C   0  0  1  0  0  0  0  0  0  0  0  0
  -15.9033  -37.8297   -7.8167 O   0  0  0  0  0  0  0  0  0  0  0  0
  -17.1281  -39.8949   -8.1149 C   0  0  2  0  0  0  0  0  0  0  0  0
  -18.1454  -38.8423   -8.1896 C   0  0  0  0  0  0  0  0  0  0  0  0
  -19.5649  -39.1128   -7.8589 C   0  0  0  0  0  0  0  0  0  0  0  0
  -20.4024  -38.7327   -8.9231 C   0  0  0  0  0  0  0  0  0  0  0  0
  -21.7675  -38.8657   -8.9224 C   0  0  0  0  0  0  0  0  0  0  0  0
  -22.2802  -39.4118   -7.7795 C   0  0  0  0  0  0  0  0  0  0  0  0
  -21.5002  -39.8168   -6.6717 C   0  0  0  0  0  0  0  0  0  0  0  0
  -20.1251  -39.6552   -6.7329 C   0  0  0  0  0  0  0  0  0  0  0  0
  -22.2988  -40.3214   -5.6881 O   0  0  0  0  0  0  0  0  0  0  0  0
  -22.3975  -41.2442   -4.7033 C   0  0  0  0  0  0  0  0  0  0  0  0
  -22.4633  -42.6674   -5.0942 C   0  0  0  0  0  0  0  0  0  0  0  0
  -22.8372  -42.9681   -6.5036 C   0  0  0  0  0  0  0  0  0  0  0  0
  -22.2863  -44.3355   -6.9359 C   0  0  0  0  0  0  0  0  0  0  0  0
  -20.9145  -43.9927   -8.0501 S   0  0  0  0  0  6  0  0  0  0  0  0
  -21.4388  -42.9894   -9.0264 O   0  0  0  0  0  0  0  0  0  0  0  0
  -20.4600  -45.2438   -8.7343 O   0  0  0  0  0  0  0  0  0  0  0  0
  -19.6129  -43.3883   -7.0498 C   0  0  0  0  0  0  0  0  0  0  0  0
  -18.3582  -43.0016   -7.7951 C   0  0  1  0  0  0  0  0  0  0  0  0
  -18.5972  -42.5418   -9.1788 C   0  0  0  0  0  0  0  0  0  0  0  0
  -17.6183  -42.1004   -6.8986 C   0  0  0  0  0  0  0  0  0  0  0  0
  -17.1878  -42.7360   -5.8442 O   0  0  0  0  0  0  0  0  0  0  0  0
  -17.3032  -40.7632   -6.9561 N   0  0  0  0  0  0  0  0  0  0  0  0
  -13.0125  -37.7948  -11.9793 C   0  0  0  0  0  0  0  0  0  0  0  0
  1  2  1  0
  2  3  1  0
  2  4  1  0
  4  5  2  0
  5  6  1  0
  6  7  2  0
  7  8  1  0
  8  9  1  0
  9 10  1  0
 10 11  1  0
 11 12  1  0
 12 13  1  6
 12 14  1  0
 14 15  1  1
 15 16  1  0
 16 17  1  0
 17 18  2  0
 18 19  1  0
 19 20  2  0
 20 21  1  0
 20 22  1  0
 22 23  1  0
 23 24  1  0
 24 25  1  0
 25 26  1  0
 26 27  1  0
 27 28  2  0
 27 29  2  0
 27 30  1  0
 30 31  1  0
 31 32  1  6
 31 33  1  0
 33 34  2  0
 33 35  1  0
  8 36  2  0
 21 16  2  0
 35 14  1  0
 36  4  1  0
M  END
$$$$
