
     RDKit          3D

 36 38  0  0  0  0  0  0  0  0999 V2000
  -11.4194  -34.9940  -13.4311 C   0  0  0  0  0  0  0  0  0  0  0  0
  -11.8704  -36.2479  -14.1000 C   0  0  0  0  0  0  0  0  0  0  0  0
  -10.6882  -37.1470  -14.4068 C   0  0  0  0  0  0  0  0  0  0  0  0
  -12.8521  -36.9394  -13.2250 C   0  0  0  0  0  0  0  0  0  0  0  0
  -13.9611  -37.5110  -13.8066 C   0  0  0  0  0  0  0  0  0  0  0  0
  -14.8773  -38.1522  -12.9829 C   0  0  0  0  0  0  0  0  0  0  0  0
  -14.6678  -38.2084  -11.6077 C   0  0  0  0  0  0  0  0  0  0  0  0
  -13.5563  -37.6366  -11.0205 C   0  0  0  0  0  0  0  0  0  0  0  0
  -13.4067  -37.7339   -9.5629 C   0  0  0  0  0  0  0  0  0  0  0  0
  -13.5639  -39.0894   -9.0741 N   0  0  0  0  0  0  0  0  0  0  0  0
  -14.9132  -39.5626   -9.1850 C   0  0  0  0  0  0  0  0  0  0  0  0
  -15.7657  -39.2211   -8.0120 C   0  0  1  0  0  0  0  0  0  0  0  0
  -15.8398  -37.8459   -7.8784 O   0  0  0  0  0  0  0  0  0  0  0  0
  -17.1719  -39.8537   -8.0985 C   0  0  2  0  0  0  0  0  0  0  0  0
  -18.1456  -38.7597   -8.0386 C   0  0  0  0  0  0  0  0  0  0  0  0
  -19.5463  -38.9925   -7.6127 C   0  0  0  0  0  0  0  0  0  0  0  0
  -20.4448  -38.5217   -8.5870 C   0  0  0  0  0  0  0  0  0  0  0  0
  -21.8104  -38.6012   -8.4868 C   0  0  0  0  0  0  0  0  0  0  0  0
  -22.2582  -39.1893   -7.3375 C   0  0  0  0  0  0  0  0  0  0  0  0
  -21.4146  -39.6852   -6.3166 C   0  0  0  0  0  0  0  0  0  0  0  0
  -20.0424  -39.5743   -6.4763 C   0  0  0  0  0  0  0  0  0  0  0  0
  -22.1574  -40.2120   -5.3014 O   0  0  0  0  0  0  0  0  0  0  0  0
  -22.2210  -41.1834   -4.3614 C   0  0  0  0  0  0  0  0  0  0  0  0
  -22.3776  -42.5791   -4.8198 C   0  0  0  0  0  0  0  0  0  0  0  0
  -22.8698  -42.7864   -6.2095 C   0  0  0  0  0  0  0  0  0  0  0  0
  -22.4128  -44.1482   -6.7543 C   0  0  0  0  0  0  0  0  0  0  0  0
  -21.1159  -43.7980   -7.9527 S   0  0  0  0  0  6  0  0  0  0  0  0
  -21.6688  -42.7225   -8.8313 O   0  0  0  0  0  0  0  0  0  0  0  0
  -20.7689  -45.0261   -8.7346 O   0  0  0  0  0  0  0  0  0  0  0  0
  -19.7173  -43.3011   -7.0268 C   0  0  0  0  0  0  0  0  0  0  0  0
  -18.5072  -42.9230   -7.8465 C   0  0  1  0  0  0  0  0  0  0  0  0
  -18.8303  -42.3783   -9.1814 C   0  0  0  0  0  0  0  0  0  0  0  0
  -17.6633  -42.1024   -6.9645 C   0  0  0  0  0  0  0  0  0  0  0  0
  -17.1819  -42.8117   -5.9816 O   0  0  0  0  0  0  0  0  0  0  0  0
  -17.2961  -40.7774   -6.9765 N   0  0  0  0  0  0  0  0  0  0  0  0
  -12.6672  -37.0094  -11.8588 C   0  0  0  0  0  0  0  0  0  0  0  0
  1  2  1  0
  2  3  1  0
  2  4  1  0
  4  5  2  0
  5  6  1  0
  6  7  2  0
  7  8  1  0
  8  9  1  0
  9 10  1  0
 10 11  1  0
 11 12  1  0
 12 13  1  6
 12 14  1  0
 14 15  1  1
 15 16  1  0
 16 17  1  0
 17 18  2  0
 18 19  1  0
 19 20  2  0
 20 21  1  0
 20 22  1  0
 22 23  1  0
 23 24  1  0
 24 25  1  0
 25 26  1  0
 26 27  1  0
 27 28  2  0
 27 29  2  0
 27 30  1  0
 30 31  1  0
 31 32  1  6
 31 33  1  0
 33 34  2  0
 33 35  1  0
  8 36  2  0
 21 16  2  0
 35 14  1  0
 36  4  1  0
M  END
$$$$
