
     RDKit          3D

 36 38  0  0  0  0  0  0  0  0999 V2000
  -14.9689  -34.8333  -12.0380 C   0  0  0  0  0  0  0  0  0  0  0  0
  -13.7784  -35.3616  -12.7639 C   0  0  0  0  0  0  0  0  0  0  0  0
  -12.5034  -34.7417  -12.2255 C   0  0  0  0  0  0  0  0  0  0  0  0
  -13.7471  -36.8414  -12.6337 C   0  0  0  0  0  0  0  0  0  0  0  0
  -13.9760  -37.6040  -13.7565 C   0  0  0  0  0  0  0  0  0  0  0  0
  -13.9497  -38.9867  -13.6275 C   0  0  0  0  0  0  0  0  0  0  0  0
  -13.6972  -39.5729  -12.3902 C   0  0  0  0  0  0  0  0  0  0  0  0
  -13.4666  -38.8112  -11.2615 C   0  0  0  0  0  0  0  0  0  0  0  0
  -13.2112  -39.5021   -9.9912 C   0  0  0  0  0  0  0  0  0  0  0  0
  -14.0130  -38.9825   -8.9011 N   0  0  0  0  0  0  0  0  0  0  0  0
  -15.1813  -39.7751   -8.6492 C   0  0  0  0  0  0  0  0  0  0  0  0
  -16.3431  -38.9873   -8.1503 C   0  0  1  0  0  0  0  0  0  0  0  0
  -16.4993  -37.8517   -8.9251 O   0  0  0  0  0  0  0  0  0  0  0  0
  -17.6443  -39.8179   -8.1022 C   0  0  2  0  0  0  0  0  0  0  0  0
  -18.7637  -38.8721   -8.0818 C   0  0  0  0  0  0  0  0  0  0  0  0
  -20.0955  -39.2600   -7.5589 C   0  0  0  0  0  0  0  0  0  0  0  0
  -21.0948  -39.0143   -8.5176 C   0  0  0  0  0  0  0  0  0  0  0  0
  -22.4284  -39.2766   -8.3338 C   0  0  0  0  0  0  0  0  0  0  0  0
  -22.7349  -39.8122   -7.1146 C   0  0  0  0  0  0  0  0  0  0  0  0
  -21.7843  -40.0861   -6.1042 C   0  0  0  0  0  0  0  0  0  0  0  0
  -20.4513  -39.7974   -6.3503 C   0  0  0  0  0  0  0  0  0  0  0  0
  -22.3972  -40.6156   -5.0069 O   0  0  0  0  0  0  0  0  0  0  0  0
  -22.2770  -41.4940   -3.9846 C   0  0  0  0  0  0  0  0  0  0  0  0
  -22.2478  -42.9345   -4.3114 C   0  0  0  0  0  0  0  0  0  0  0  0
  -22.7646  -43.3384   -5.6480 C   0  0  0  0  0  0  0  0  0  0  0  0
  -22.1377  -44.6667   -6.0984 C   0  0  0  0  0  0  0  0  0  0  0  0
  -20.9593  -44.2499   -7.3939 S   0  0  0  0  0  6  0  0  0  0  0  0
  -21.7013  -43.3504   -8.3293 O   0  0  0  0  0  0  0  0  0  0  0  0
  -20.4711  -45.4841   -8.0855 O   0  0  0  0  0  0  0  0  0  0  0  0
  -19.6094  -43.4757   -6.5950 C   0  0  0  0  0  0  0  0  0  0  0  0
  -18.5044  -43.0083   -7.5114 C   0  0  1  0  0  0  0  0  0  0  0  0
  -18.9615  -42.6419   -8.8678 C   0  0  0  0  0  0  0  0  0  0  0  0
  -17.7518  -41.9977   -6.7526 C   0  0  0  0  0  0  0  0  0  0  0  0
  -17.1296  -42.5367   -5.7410 O   0  0  0  0  0  0  0  0  0  0  0  0
  -17.5830  -40.6410   -6.8995 N   0  0  0  0  0  0  0  0  0  0  0  0
  -13.4984  -37.4471  -11.4183 C   0  0  0  0  0  0  0  0  0  0  0  0
  1  2  1  0
  2  3  1  0
  2  4  1  0
  4  5  2  0
  5  6  1  0
  6  7  2  0
  7  8  1  0
  8  9  1  0
  9 10  1  0
 10 11  1  0
 11 12  1  0
 12 13  1  6
 12 14  1  0
 14 15  1  1
 15 16  1  0
 16 17  1  0
 17 18  2  0
 18 19  1  0
 19 20  2  0
 20 21  1  0
 20 22  1  0
 22 23  1  0
 23 24  1  0
 24 25  1  0
 25 26  1  0
 26 27  1  0
 27 28  2  0
 27 29  2  0
 27 30  1  0
 30 31  1  0
 31 32  1  6
 31 33  1  0
 33 34  2  0
 33 35  1  0
  8 36  2  0
 21 16  2  0
 35 14  1  0
 36  4  1  0
M  END
$$$$
