
     RDKit          3D

 36 38  0  0  0  0  0  0  0  0999 V2000
  -13.1216  -33.7241  -11.2500 C   0  0  0  0  0  0  0  0  0  0  0  0
  -14.3409  -33.9007  -12.0899 C   0  0  0  0  0  0  0  0  0  0  0  0
  -14.0779  -33.4588  -13.5166 C   0  0  0  0  0  0  0  0  0  0  0  0
  -14.7613  -35.3250  -12.0426 C   0  0  0  0  0  0  0  0  0  0  0  0
  -15.8776  -35.7037  -12.7534 C   0  0  0  0  0  0  0  0  0  0  0  0
  -16.2680  -37.0356  -12.7018 C   0  0  0  0  0  0  0  0  0  0  0  0
  -15.5411  -37.9529  -11.9478 C   0  0  0  0  0  0  0  0  0  0  0  0
  -14.4204  -37.5769  -11.2338 C   0  0  0  0  0  0  0  0  0  0  0  0
  -13.7082  -38.6010  -10.4590 C   0  0  0  0  0  0  0  0  0  0  0  0
  -14.6025  -39.4388   -9.6847 N   0  0  0  0  0  0  0  0  0  0  0  0
  -15.5772  -38.6795   -8.9566 C   0  0  0  0  0  0  0  0  0  0  0  0
  -15.9980  -39.3160   -7.6770 C   0  0  1  0  0  0  0  0  0  0  0  0
  -16.0828  -38.3531   -6.6871 O   0  0  0  0  0  0  0  0  0  0  0  0
  -17.3218  -40.0996   -7.8133 C   0  0  2  0  0  0  0  0  0  0  0  0
  -18.3969  -39.1148   -7.9640 C   0  0  0  0  0  0  0  0  0  0  0  0
  -19.8039  -39.4489   -7.6384 C   0  0  0  0  0  0  0  0  0  0  0  0
  -20.6431  -39.1805   -8.7348 C   0  0  0  0  0  0  0  0  0  0  0  0
  -21.9980  -39.3934   -8.7460 C   0  0  0  0  0  0  0  0  0  0  0  0
  -22.4984  -39.9021   -7.5806 C   0  0  0  0  0  0  0  0  0  0  0  0
  -21.7159  -40.1963   -6.4400 C   0  0  0  0  0  0  0  0  0  0  0  0
  -20.3516  -39.9578   -6.4908 C   0  0  0  0  0  0  0  0  0  0  0  0
  -22.5013  -40.6897   -5.4402 O   0  0  0  0  0  0  0  0  0  0  0  0
  -22.5638  -41.5586   -4.4047 C   0  0  0  0  0  0  0  0  0  0  0  0
  -22.5401  -43.0033   -4.7126 C   0  0  0  0  0  0  0  0  0  0  0  0
  -22.8709  -43.4059   -6.1073 C   0  0  0  0  0  0  0  0  0  0  0  0
  -22.2341  -44.7611   -6.4511 C   0  0  0  0  0  0  0  0  0  0  0  0
  -20.8650  -44.4028   -7.5636 S   0  0  0  0  0  6  0  0  0  0  0  0
  -21.4291  -43.4898   -8.6042 O   0  0  0  0  0  0  0  0  0  0  0  0
  -20.3267  -45.6622   -8.1670 O   0  0  0  0  0  0  0  0  0  0  0  0
  -19.6185  -43.6663   -6.5818 C   0  0  0  0  0  0  0  0  0  0  0  0
  -18.3753  -43.2499   -7.3304 C   0  0  1  0  0  0  0  0  0  0  0  0
  -18.6160  -42.8852   -8.7418 C   0  0  0  0  0  0  0  0  0  0  0  0
  -17.7049  -42.2566   -6.4774 C   0  0  0  0  0  0  0  0  0  0  0  0
  -17.2570  -42.8041   -5.3817 O   0  0  0  0  0  0  0  0  0  0  0  0
  -17.4668  -40.9087   -6.6084 N   0  0  0  0  0  0  0  0  0  0  0  0
  -14.0574  -36.2541  -11.3030 C   0  0  0  0  0  0  0  0  0  0  0  0
  1  2  1  0
  2  3  1  0
  2  4  1  0
  4  5  2  0
  5  6  1  0
  6  7  2  0
  7  8  1  0
  8  9  1  0
  9 10  1  0
 10 11  1  0
 11 12  1  0
 12 13  1  1
 12 14  1  0
 14 15  1  1
 15 16  1  0
 16 17  1  0
 17 18  2  0
 18 19  1  0
 19 20  2  0
 20 21  1  0
 20 22  1  0
 22 23  1  0
 23 24  1  0
 24 25  1  0
 25 26  1  0
 26 27  1  0
 27 28  2  0
 27 29  2  0
 27 30  1  0
 30 31  1  0
 31 32  1  6
 31 33  1  0
 33 34  2  0
 33 35  1  0
  8 36  2  0
 21 16  2  0
 35 14  1  0
 36  4  1  0
M  END
$$$$
