
     RDKit          3D

 36 38  0  0  0  0  0  0  0  0999 V2000
  -16.8325  -38.1153  -15.1881 C   0  0  0  0  0  0  0  0  0  0  0  0
  -17.6446  -36.9755  -14.6738 C   0  0  0  0  0  0  0  0  0  0  0  0
  -19.0354  -36.9922  -15.2783 C   0  0  0  0  0  0  0  0  0  0  0  0
  -17.7076  -37.0537  -13.1913 C   0  0  0  0  0  0  0  0  0  0  0  0
  -18.9165  -36.8286  -12.5730 C   0  0  0  0  0  0  0  0  0  0  0  0
  -18.9680  -36.8989  -11.1868 C   0  0  0  0  0  0  0  0  0  0  0  0
  -17.8205  -37.1902  -10.4543 C   0  0  0  0  0  0  0  0  0  0  0  0
  -16.6058  -37.4171  -11.0710 C   0  0  0  0  0  0  0  0  0  0  0  0
  -15.4391  -37.7150  -10.2305 C   0  0  0  0  0  0  0  0  0  0  0  0
  -15.6905  -37.4818   -8.8221 N   0  0  0  0  0  0  0  0  0  0  0  0
  -16.8066  -38.2353   -8.3290 C   0  0  0  0  0  0  0  0  0  0  0  0
  -16.4438  -39.5983   -7.8493 C   0  0  1  0  0  0  0  0  0  0  0  0
  -15.7962  -39.5028   -6.6303 O   0  0  0  0  0  0  0  0  0  0  0  0
  -17.6648  -40.5401   -7.7645 C   0  0  2  0  0  0  0  0  0  0  0  0
  -18.8657  -39.7049   -7.8565 C   0  0  0  0  0  0  0  0  0  0  0  0
  -20.1741  -40.1707   -7.3381 C   0  0  0  0  0  0  0  0  0  0  0  0
  -21.1575  -40.1009   -8.3412 C   0  0  0  0  0  0  0  0  0  0  0  0
  -22.4673  -40.4706   -8.1715 C   0  0  0  0  0  0  0  0  0  0  0  0
  -22.7662  -40.9284   -6.9191 C   0  0  0  0  0  0  0  0  0  0  0  0
  -21.8305  -41.0263   -5.8634 C   0  0  0  0  0  0  0  0  0  0  0  0
  -20.5215  -40.6357   -6.0975 C   0  0  0  0  0  0  0  0  0  0  0  0
  -22.4306  -41.5170   -4.7413 O   0  0  0  0  0  0  0  0  0  0  0  0
  -22.2668  -42.2915   -3.6438 C   0  0  0  0  0  0  0  0  0  0  0  0
  -22.0953  -43.7452   -3.8434 C   0  0  0  0  0  0  0  0  0  0  0  0
  -22.5261  -44.3064   -5.1535 C   0  0  0  0  0  0  0  0  0  0  0  0
  -21.7655  -45.6032   -5.4698 C   0  0  0  0  0  0  0  0  0  0  0  0
  -20.5855  -45.1880   -6.7643 S   0  0  0  0  0  6  0  0  0  0  0  0
  -21.3731  -44.4436   -7.7939 O   0  0  0  0  0  0  0  0  0  0  0  0
  -19.9631  -46.4247   -7.3327 O   0  0  0  0  0  0  0  0  0  0  0  0
  -19.3403  -44.2265   -5.9993 C   0  0  0  0  0  0  0  0  0  0  0  0
  -18.2511  -43.7362   -6.9226 C   0  0  1  0  0  0  0  0  0  0  0  0
  -18.6920  -43.5293   -8.3176 C   0  0  0  0  0  0  0  0  0  0  0  0
  -17.6206  -42.5994   -6.2343 C   0  0  0  0  0  0  0  0  0  0  0  0
  -16.9876  -42.9910   -5.1634 O   0  0  0  0  0  0  0  0  0  0  0  0
  -17.5710  -41.2500   -6.4938 N   0  0  0  0  0  0  0  0  0  0  0  0
  -16.5842  -37.3414  -12.4422 C   0  0  0  0  0  0  0  0  0  0  0  0
  1  2  1  0
  2  3  1  0
  2  4  1  0
  4  5  2  0
  5  6  1  0
  6  7  2  0
  7  8  1  0
  8  9  1  0
  9 10  1  0
 10 11  1  0
 11 12  1  0
 12 13  1  1
 12 14  1  0
 14 15  1  1
 15 16  1  0
 16 17  1  0
 17 18  2  0
 18 19  1  0
 19 20  2  0
 20 21  1  0
 20 22  1  0
 22 23  1  0
 23 24  1  0
 24 25  1  0
 25 26  1  0
 26 27  1  0
 27 28  2  0
 27 29  2  0
 27 30  1  0
 30 31  1  0
 31 32  1  6
 31 33  1  0
 33 34  2  0
 33 35  1  0
  8 36  2  0
 21 16  2  0
 35 14  1  0
 36  4  1  0
M  END
$$$$
