
     RDKit          3D

 36 38  0  0  0  0  0  0  0  0999 V2000
  -22.9547  -41.7875   -4.1556 C   0  0  0  0  0  0  0  0  0  0  0  0
  -22.8830  -40.3009   -4.2445 C   0  0  0  0  0  0  0  0  0  0  0  0
  -21.8555  -39.7545   -3.2721 C   0  0  0  0  0  0  0  0  0  0  0  0
  -22.5538  -39.9129   -5.6405 C   0  0  0  0  0  0  0  0  0  0  0  0
  -23.5582  -39.9329   -6.5814 C   0  0  0  0  0  0  0  0  0  0  0  0
  -23.2432  -39.5734   -7.8855 C   0  0  0  0  0  0  0  0  0  0  0  0
  -21.9428  -39.2045   -8.2188 C   0  0  0  0  0  0  0  0  0  0  0  0
  -20.9324  -39.1827   -7.2775 C   0  0  0  0  0  0  0  0  0  0  0  0
  -19.5851  -38.7862   -7.7062 C   0  0  0  0  0  0  0  0  0  0  0  0
  -18.6584  -39.9003   -7.7394 N   0  0  0  0  0  0  0  0  0  0  0  0
  -17.6585  -39.8165   -6.7148 C   0  0  0  0  0  0  0  0  0  0  0  0
  -16.3597  -39.2624   -7.1897 C   0  0  1  0  0  0  0  0  0  0  0  0
  -15.6175  -38.8283   -6.1056 O   0  0  0  0  0  0  0  0  0  0  0  0
  -15.5644  -40.2709   -8.0473 C   0  0  2  0  0  0  0  0  0  0  0  0
  -14.1470  -39.9149   -7.9351 C   0  0  0  0  0  0  0  0  0  0  0  0
  -13.1619  -40.3259   -8.9638 C   0  0  0  0  0  0  0  0  0  0  0  0
  -12.0933  -41.0254   -8.3746 C   0  0  0  0  0  0  0  0  0  0  0  0
  -11.0278  -41.5420   -9.0668 C   0  0  0  0  0  0  0  0  0  0  0  0
  -11.0732  -41.3256  -10.4153 C   0  0  0  0  0  0  0  0  0  0  0  0
  -12.1141  -40.6325  -11.0753 C   0  0  0  0  0  0  0  0  0  0  0  0
  -13.1631  -40.1330  -10.3198 C   0  0  0  0  0  0  0  0  0  0  0  0
  -11.8742  -40.5815  -12.4169 O   0  0  0  0  0  0  0  0  0  0  0  0
  -12.4389  -40.5986  -13.6465 C   0  0  0  0  0  0  0  0  0  0  0  0
  -13.0774  -41.8526  -14.0963 C   0  0  0  0  0  0  0  0  0  0  0  0
  -12.7011  -43.1016  -13.3786 C   0  0  0  0  0  0  0  0  0  0  0  0
  -13.8166  -44.1524  -13.4875 C   0  0  0  0  0  0  0  0  0  0  0  0
  -14.5987  -44.2215  -11.8676 S   0  0  0  0  0  6  0  0  0  0  0  0
  -13.4740  -44.3379  -10.8898 O   0  0  0  0  0  0  0  0  0  0  0  0
  -15.5320  -45.3879  -11.7772 O   0  0  0  0  0  0  0  0  0  0  0  0
  -15.5207  -42.7435  -11.7075 C   0  0  0  0  0  0  0  0  0  0  0  0
  -16.2408  -42.5766  -10.3912 C   0  0  1  0  0  0  0  0  0  0  0  0
  -15.5771  -43.2447   -9.2527 C   0  0  0  0  0  0  0  0  0  0  0  0
  -16.5212  -41.1382  -10.2646 C   0  0  0  0  0  0  0  0  0  0  0  0
  -17.3851  -40.7473  -11.1601 O   0  0  0  0  0  0  0  0  0  0  0  0
  -16.0644  -40.1600   -9.4131 N   0  0  0  0  0  0  0  0  0  0  0  0
  -21.2723  -39.5428   -5.9964 C   0  0  0  0  0  0  0  0  0  0  0  0
  1  2  1  0
  2  3  1  0
  2  4  1  0
  4  5  2  0
  5  6  1  0
  6  7  2  0
  7  8  1  0
  8  9  1  0
  9 10  1  0
 10 11  1  0
 11 12  1  0
 12 13  1  1
 12 14  1  0
 14 15  1  6
 15 16  1  0
 16 17  1  0
 17 18  2  0
 18 19  1  0
 19 20  2  0
 20 21  1  0
 20 22  1  0
 22 23  1  0
 23 24  1  0
 24 25  1  0
 25 26  1  0
 26 27  1  0
 27 28  2  0
 27 29  2  0
 27 30  1  0
 30 31  1  0
 31 32  1  1
 31 33  1  0
 33 34  2  0
 33 35  1  0
  8 36  2  0
 21 16  2  0
 35 14  1  0
 36  4  1  0
M  END
$$$$
