
     RDKit          3D

 38 40  0  0  0  0  0  0  0  0999 V2000
  -13.6485  -36.7514   -9.5325 C   0  0  0  0  0  0  0  0  0  0  0  0
  -13.9696  -37.8000  -10.5771 C   0  0  2  0  0  0  0  0  0  0  0  0
  -13.8812  -37.1161  -11.9333 C   0  0  0  0  0  0  0  0  0  0  0  0
  -12.8556  -37.8832  -12.7411 C   0  0  0  0  0  0  0  0  0  0  0  0
  -12.2669  -37.1258  -13.8782 C   0  0  0  0  0  0  0  0  0  0  0  0
  -12.4726  -37.7056  -15.2309 C   0  0  0  0  0  0  0  0  0  0  0  0
  -12.4505  -39.1951  -15.3214 C   0  0  0  0  0  0  0  0  0  0  0  0
  -11.1569  -39.8423  -14.9410 C   0  0  0  0  0  0  0  0  0  0  0  0
  -10.9993  -40.1285  -13.6105 O   0  0  0  0  0  0  0  0  0  0  0  0
  -11.7294  -41.2323  -13.1725 C   0  0  0  0  0  0  0  0  0  0  0  0
  -11.9581  -41.0477  -11.7180 C   0  0  0  0  0  0  0  0  0  0  0  0
  -11.0125  -40.5027  -11.0518 O   0  0  0  0  0  0  0  0  0  0  0  0
  -13.1013  -41.4089  -11.0005 N   0  0  0  0  0  0  0  0  0  0  0  0
  -12.9633  -41.7773   -9.5817 C   0  0  0  0  0  0  0  0  0  0  0  0
  -14.4555  -41.4650  -11.5152 C   0  0  1  0  0  0  0  0  0  0  0  0
  -14.5418  -42.8227  -12.2354 C   0  0  0  0  0  0  0  0  0  0  0  0
  -15.4761  -41.3812  -10.4434 C   0  0  0  0  0  0  0  0  0  0  0  0
  -16.5113  -42.1236  -10.6436 O   0  0  0  0  0  0  0  0  0  0  0  0
  -15.4673  -40.6291   -9.2807 N   0  0  0  0  0  0  0  0  0  0  0  0
  -15.3277  -39.2002   -9.0821 C   0  0  1  0  0  0  0  0  0  0  0  0
  -15.3466  -38.3899  -10.3196 C   0  0  0  0  0  0  0  0  0  0  0  0
  -16.4658  -38.7968   -8.1584 C   0  0  2  0  0  0  0  0  0  0  0  0
  -16.0428  -38.5998   -6.8556 O   0  0  0  0  0  0  0  0  0  0  0  0
  -17.6879  -39.6647   -8.2859 C   0  0  0  0  0  0  0  0  0  0  0  0
  -18.1328  -39.9257   -6.9329 N   0  0  0  0  0  0  0  0  0  0  0  0
  -19.4963  -39.6049   -6.6632 C   0  0  0  0  0  0  0  0  0  0  0  0
  -19.8801  -39.4290   -5.2313 C   0  0  0  0  0  0  0  0  0  0  0  0
  -19.6554  -38.2128   -6.0691 C   0  0  0  0  0  0  0  0  0  0  0  0
  -20.5313  -40.0169   -7.6533 C   0  0  0  0  0  0  0  0  0  0  0  0
  -21.8033  -39.4346   -7.5838 C   0  0  0  0  0  0  0  0  0  0  0  0
  -22.8038  -39.7815   -8.4638 C   0  0  0  0  0  0  0  0  0  0  0  0
  -22.5019  -40.7275   -9.4185 C   0  0  0  0  0  0  0  0  0  0  0  0
  -21.2595  -41.3102   -9.5020 C   0  0  0  0  0  0  0  0  0  0  0  0
  -20.2401  -40.9581   -8.6066 C   0  0  0  0  0  0  0  0  0  0  0  0
  -24.1518  -39.1724   -8.3998 C   0  0  0  0  0  0  0  0  0  0  0  0
  -25.2322  -40.1150   -8.8202 C   0  0  0  0  0  0  0  0  0  0  0  0
  -24.4735  -38.6595   -7.0119 C   0  0  0  0  0  0  0  0  0  0  0  0
  -24.1759  -37.9696   -9.3252 C   0  0  0  0  0  0  0  0  0  0  0  0
  2  1  1  1
  2  3  1  0
  3  4  1  0
  4  5  1  0
  5  6  1  0
  6  7  1  0
  7  8  1  0
  8  9  1  0
  9 10  1  0
 10 11  1  0
 11 12  2  0
 11 13  1  0
 13 14  1  0
 13 15  1  0
 15 16  1  1
 15 17  1  0
 17 18  2  0
 17 19  1  0
 19 20  1  0
 20 21  1  6
 20 22  1  0
 22 23  1  1
 22 24  1  0
 24 25  1  0
 25 26  1  0
 26 27  1  0
 27 28  1  0
 26 29  1  0
 29 30  2  0
 30 31  1  0
 31 32  2  0
 32 33  1  0
 33 34  2  0
 31 35  1  0
 35 36  1  0
 35 37  1  0
 35 38  1  0
 21  2  1  0
 28 26  1  0
 34 29  1  0
M  END
$$$$
