
     RDKit          3D

 38 40  0  0  0  0  0  0  0  0999 V2000
  -12.8085  -37.2849   -8.8401 C   0  0  0  0  0  0  0  0  0  0  0  0
  -13.3336  -38.0804  -10.0171 C   0  0  2  0  0  0  0  0  0  0  0  0
  -12.8521  -37.3773  -11.2775 C   0  0  0  0  0  0  0  0  0  0  0  0
  -12.0549  -38.3952  -12.0657 C   0  0  0  0  0  0  0  0  0  0  0  0
  -11.1090  -37.8127  -13.0553 C   0  0  0  0  0  0  0  0  0  0  0  0
  -11.3298  -38.1888  -14.4759 C   0  0  0  0  0  0  0  0  0  0  0  0
  -11.8018  -39.5826  -14.7244 C   0  0  0  0  0  0  0  0  0  0  0  0
  -10.8609  -40.6646  -14.2990 C   0  0  0  0  0  0  0  0  0  0  0  0
  -10.9752  -41.0798  -12.9983 O   0  0  0  0  0  0  0  0  0  0  0  0
  -12.0838  -41.8880  -12.7513 C   0  0  0  0  0  0  0  0  0  0  0  0
  -12.4145  -41.7373  -11.3126 C   0  0  0  0  0  0  0  0  0  0  0  0
  -11.4303  -41.6035  -10.5072 O   0  0  0  0  0  0  0  0  0  0  0  0
  -13.6919  -41.7269  -10.7465 N   0  0  0  0  0  0  0  0  0  0  0  0
  -13.8631  -42.2184   -9.3692 C   0  0  0  0  0  0  0  0  0  0  0  0
  -14.9106  -41.2720  -11.3866 C   0  0  1  0  0  0  0  0  0  0  0  0
  -15.3612  -42.4609  -12.2543 C   0  0  0  0  0  0  0  0  0  0  0  0
  -15.9669  -40.9130  -10.4105 C   0  0  0  0  0  0  0  0  0  0  0  0
  -17.1590  -41.2326  -10.7841 O   0  0  0  0  0  0  0  0  0  0  0  0
  -15.8480  -40.2941   -9.1774 N   0  0  0  0  0  0  0  0  0  0  0  0
  -15.2590  -39.0208   -8.8135 C   0  0  1  0  0  0  0  0  0  0  0  0
  -14.8496  -38.1704   -9.9526 C   0  0  0  0  0  0  0  0  0  0  0  0
  -16.2984  -38.3119   -7.9602 C   0  0  2  0  0  0  0  0  0  0  0  0
  -15.7476  -37.7343   -6.8297 O   0  0  0  0  0  0  0  0  0  0  0  0
  -17.5299  -39.1344   -7.6954 C   0  0  0  0  0  0  0  0  0  0  0  0
  -18.3569  -39.0033   -8.8767 N   0  0  0  0  0  0  0  0  0  0  0  0
  -19.6296  -39.6440   -8.8083 C   0  0  0  0  0  0  0  0  0  0  0  0
  -20.2451  -40.0667  -10.1010 C   0  0  0  0  0  0  0  0  0  0  0  0
  -19.5693  -41.0972   -9.2566 C   0  0  0  0  0  0  0  0  0  0  0  0
  -20.5075  -39.3550   -7.6392 C   0  0  0  0  0  0  0  0  0  0  0  0
  -21.4954  -40.2843   -7.2894 C   0  0  0  0  0  0  0  0  0  0  0  0
  -22.3433  -40.0689   -6.2261 C   0  0  0  0  0  0  0  0  0  0  0  0
  -22.1799  -38.8986   -5.5180 C   0  0  0  0  0  0  0  0  0  0  0  0
  -21.2163  -37.9747   -5.8467 C   0  0  0  0  0  0  0  0  0  0  0  0
  -20.3525  -38.1926   -6.9291 C   0  0  0  0  0  0  0  0  0  0  0  0
  -23.3909  -41.0442   -5.8471 C   0  0  0  0  0  0  0  0  0  0  0  0
  -24.5064  -40.4218   -5.0721 C   0  0  0  0  0  0  0  0  0  0  0  0
  -23.9759  -41.7419   -7.0570 C   0  0  0  0  0  0  0  0  0  0  0  0
  -22.7518  -42.1212   -4.9897 C   0  0  0  0  0  0  0  0  0  0  0  0
  2  1  1  1
  2  3  1  0
  3  4  1  0
  4  5  1  0
  5  6  1  0
  6  7  1  0
  7  8  1  0
  8  9  1  0
  9 10  1  0
 10 11  1  0
 11 12  2  0
 11 13  1  0
 13 14  1  0
 13 15  1  0
 15 16  1  6
 15 17  1  0
 17 18  2  0
 17 19  1  0
 19 20  1  0
 20 21  1  6
 20 22  1  0
 22 23  1  1
 22 24  1  0
 24 25  1  0
 25 26  1  0
 26 27  1  0
 27 28  1  0
 26 29  1  0
 29 30  2  0
 30 31  1  0
 31 32  2  0
 32 33  1  0
 33 34  2  0
 31 35  1  0
 35 36  1  0
 35 37  1  0
 35 38  1  0
 21  2  1  0
 28 26  1  0
 34 29  1  0
M  END
$$$$
