
     RDKit          3D

 38 40  0  0  0  0  0  0  0  0999 V2000
  -20.4401  -38.0527   -8.1670 C   0  0  0  0  0  0  0  0  0  0  0  0
  -20.2367  -39.2841   -7.3091 C   0  0  2  0  0  0  0  0  0  0  0  0
  -20.9696  -39.0375   -5.9989 C   0  0  0  0  0  0  0  0  0  0  0  0
  -21.9693  -40.1637   -5.8411 C   0  0  0  0  0  0  0  0  0  0  0  0
  -23.0953  -39.8700   -4.9141 C   0  0  0  0  0  0  0  0  0  0  0  0
  -23.2272  -40.7657   -3.7357 C   0  0  0  0  0  0  0  0  0  0  0  0
  -22.8834  -42.2012   -3.9555 C   0  0  0  0  0  0  0  0  0  0  0  0
  -23.7426  -42.9231   -4.9443 C   0  0  0  0  0  0  0  0  0  0  0  0
  -23.3454  -42.8432   -6.2530 O   0  0  0  0  0  0  0  0  0  0  0  0
  -22.2437  -43.6378   -6.5660 C   0  0  0  0  0  0  0  0  0  0  0  0
  -21.5809  -43.0131   -7.7374 C   0  0  0  0  0  0  0  0  0  0  0  0
  -22.3440  -42.4696   -8.6077 O   0  0  0  0  0  0  0  0  0  0  0  0
  -20.2074  -42.9577   -7.9880 N   0  0  0  0  0  0  0  0  0  0  0  0
  -19.7401  -42.9272   -9.3839 C   0  0  0  0  0  0  0  0  0  0  0  0
  -19.1540  -42.9278   -6.9924 C   0  0  1  0  0  0  0  0  0  0  0  0
  -18.9669  -44.3988   -6.5797 C   0  0  0  0  0  0  0  0  0  0  0  0
  -17.8855  -42.3727   -7.5219 C   0  0  0  0  0  0  0  0  0  0  0  0
  -16.8274  -42.9554   -7.0705 O   0  0  0  0  0  0  0  0  0  0  0  0
  -17.6884  -41.3349   -8.4173 N   0  0  0  0  0  0  0  0  0  0  0  0
  -18.1238  -39.9532   -8.3713 C   0  0  1  0  0  0  0  0  0  0  0  0
  -18.7524  -39.5355   -7.0990 C   0  0  0  0  0  0  0  0  0  0  0  0
  -16.8861  -39.1186   -8.6585 C   0  0  2  0  0  0  0  0  0  0  0  0
  -17.1231  -38.1298   -9.5973 O   0  0  0  0  0  0  0  0  0  0  0  0
  -15.6505  -39.9355   -8.9212 C   0  0  0  0  0  0  0  0  0  0  0  0
  -14.7511  -39.0706   -9.6558 N   0  0  0  0  0  0  0  0  0  0  0  0
  -13.3873  -39.4878   -9.6857 C   0  0  0  0  0  0  0  0  0  0  0  0
  -12.8987  -40.2888   -8.5246 C   0  0  0  0  0  0  0  0  0  0  0  0
  -13.2481  -40.9996   -9.7911 C   0  0  0  0  0  0  0  0  0  0  0  0
  -12.4166  -38.6835  -10.4806 C   0  0  0  0  0  0  0  0  0  0  0  0
  -12.7978  -37.4118  -10.9273 C   0  0  0  0  0  0  0  0  0  0  0  0
  -11.9489  -36.6258  -11.6739 C   0  0  0  0  0  0  0  0  0  0  0  0
  -10.7055  -37.1426  -11.9646 C   0  0  0  0  0  0  0  0  0  0  0  0
  -10.3139  -38.3885  -11.5353 C   0  0  0  0  0  0  0  0  0  0  0  0
  -11.1771  -39.1899  -10.7753 C   0  0  0  0  0  0  0  0  0  0  0  0
  -12.3411  -35.2802  -12.1512 C   0  0  0  0  0  0  0  0  0  0  0  0
  -11.1665  -34.4292  -12.5093 C   0  0  0  0  0  0  0  0  0  0  0  0
  -13.2652  -35.3538  -13.3484 C   0  0  0  0  0  0  0  0  0  0  0  0
  -13.1163  -34.5891  -11.0444 C   0  0  0  0  0  0  0  0  0  0  0  0
  2  1  1  6
  2  3  1  0
  3  4  1  0
  4  5  1  0
  5  6  1  0
  6  7  1  0
  7  8  1  0
  8  9  1  0
  9 10  1  0
 10 11  1  0
 11 12  2  0
 11 13  1  0
 13 14  1  0
 13 15  1  0
 15 16  1  6
 15 17  1  0
 17 18  2  0
 17 19  1  0
 19 20  1  0
 20 21  1  1
 20 22  1  0
 22 23  1  6
 22 24  1  0
 24 25  1  0
 25 26  1  0
 26 27  1  0
 27 28  1  0
 26 29  1  0
 29 30  2  0
 30 31  1  0
 31 32  2  0
 32 33  1  0
 33 34  2  0
 31 35  1  0
 35 36  1  0
 35 37  1  0
 35 38  1  0
 21  2  1  0
 28 26  1  0
 34 29  1  0
M  END
$$$$
