
     RDKit          3D

 38 40  0  0  0  0  0  0  0  0999 V2000
  -12.9541  -37.6274   -8.1427 C   0  0  0  0  0  0  0  0  0  0  0  0
  -13.4822  -38.0114   -9.5093 C   0  0  2  0  0  0  0  0  0  0  0  0
  -12.8372  -37.0690  -10.5145 C   0  0  0  0  0  0  0  0  0  0  0  0
  -12.1071  -37.9369  -11.5178 C   0  0  0  0  0  0  0  0  0  0  0  0
  -11.0343  -37.2404  -12.2778 C   0  0  0  0  0  0  0  0  0  0  0  0
  -11.1963  -37.1982  -13.7543 C   0  0  0  0  0  0  0  0  0  0  0  0
  -11.8044  -38.4053  -14.3869 C   0  0  0  0  0  0  0  0  0  0  0  0
  -11.0240  -39.6721  -14.2343 C   0  0  0  0  0  0  0  0  0  0  0  0
  -11.2754  -40.3968  -13.0990 O   0  0  0  0  0  0  0  0  0  0  0  0
  -12.4828  -41.0930  -13.1204 C   0  0  0  0  0  0  0  0  0  0  0  0
  -12.8943  -41.2851  -11.7077 C   0  0  0  0  0  0  0  0  0  0  0  0
  -11.9601  -41.4947  -10.8601 O   0  0  0  0  0  0  0  0  0  0  0  0
  -14.1988  -41.2609  -11.2077 N   0  0  0  0  0  0  0  0  0  0  0  0
  -14.5205  -42.0713  -10.0214 C   0  0  0  0  0  0  0  0  0  0  0  0
  -15.3103  -40.5018  -11.7463 C   0  0  1  0  0  0  0  0  0  0  0  0
  -15.8307  -41.3529  -12.9186 C   0  0  0  0  0  0  0  0  0  0  0  0
  -16.3850  -40.2803  -10.7495 C   0  0  0  0  0  0  0  0  0  0  0  0
  -17.5765  -40.3354  -11.2396 O   0  0  0  0  0  0  0  0  0  0  0  0
  -16.2835  -40.0280   -9.3917 N   0  0  0  0  0  0  0  0  0  0  0  0
  -15.5811  -38.9813   -8.6763 C   0  0  1  0  0  0  0  0  0  0  0  0
  -14.9994  -37.9208   -9.5278 C   0  0  0  0  0  0  0  0  0  0  0  0
  -16.5908  -38.3951   -7.7027 C   0  0  2  0  0  0  0  0  0  0  0  0
  -16.0225  -38.0763   -6.4819 O   0  0  0  0  0  0  0  0  0  0  0  0
  -17.8666  -39.1858   -7.6017 C   0  0  0  0  0  0  0  0  0  0  0  0
  -18.8862  -38.2440   -7.1892 N   0  0  0  0  0  0  0  0  0  0  0  0
  -20.1685  -38.4278   -7.7867 C   0  0  0  0  0  0  0  0  0  0  0  0
  -20.9640  -37.1977   -8.0741 C   0  0  0  0  0  0  0  0  0  0  0  0
  -20.2349  -37.8600   -9.1972 C   0  0  0  0  0  0  0  0  0  0  0  0
  -20.8745  -39.7218   -7.5674 C   0  0  0  0  0  0  0  0  0  0  0  0
  -21.3004  -40.0490   -6.2738 C   0  0  0  0  0  0  0  0  0  0  0  0
  -21.9487  -41.2340   -6.0067 C   0  0  0  0  0  0  0  0  0  0  0  0
  -22.1622  -42.0873   -7.0668 C   0  0  0  0  0  0  0  0  0  0  0  0
  -21.7513  -41.7834   -8.3431 C   0  0  0  0  0  0  0  0  0  0  0  0
  -21.0909  -40.5775   -8.6164 C   0  0  0  0  0  0  0  0  0  0  0  0
  -22.4033  -41.5903   -4.6434 C   0  0  0  0  0  0  0  0  0  0  0  0
  -23.4039  -42.6998   -4.6396 C   0  0  0  0  0  0  0  0  0  0  0  0
  -21.2469  -41.9817   -3.7476 C   0  0  0  0  0  0  0  0  0  0  0  0
  -23.0427  -40.3638   -4.0184 C   0  0  0  0  0  0  0  0  0  0  0  0
  2  1  1  1
  2  3  1  0
  3  4  1  0
  4  5  1  0
  5  6  1  0
  6  7  1  0
  7  8  1  0
  8  9  1  0
  9 10  1  0
 10 11  1  0
 11 12  2  0
 11 13  1  0
 13 14  1  0
 13 15  1  0
 15 16  1  6
 15 17  1  0
 17 18  2  0
 17 19  1  0
 19 20  1  0
 20 21  1  6
 20 22  1  0
 22 23  1  1
 22 24  1  0
 24 25  1  0
 25 26  1  0
 26 27  1  0
 27 28  1  0
 26 29  1  0
 29 30  2  0
 30 31  1  0
 31 32  2  0
 32 33  1  0
 33 34  2  0
 31 35  1  0
 35 36  1  0
 35 37  1  0
 35 38  1  0
 21  2  1  0
 28 26  1  0
 34 29  1  0
M  END
$$$$
