
     RDKit          3D

 38 40  0  0  0  0  0  0  0  0999 V2000
  -12.8828  -37.3000   -8.6550 C   0  0  0  0  0  0  0  0  0  0  0  0
  -13.3635  -37.7541  -10.0176 C   0  0  2  0  0  0  0  0  0  0  0  0
  -12.8825  -36.7200  -11.0245 C   0  0  0  0  0  0  0  0  0  0  0  0
  -12.0416  -37.4621  -12.0419 C   0  0  0  0  0  0  0  0  0  0  0  0
  -11.0973  -36.6069  -12.8103 C   0  0  0  0  0  0  0  0  0  0  0  0
  -11.2826  -36.5834  -14.2845 C   0  0  0  0  0  0  0  0  0  0  0  0
  -11.7077  -37.8663  -14.9173 C   0  0  0  0  0  0  0  0  0  0  0  0
  -10.7415  -39.0000  -14.7819 C   0  0  0  0  0  0  0  0  0  0  0  0
  -10.8650  -39.7595  -13.6483 O   0  0  0  0  0  0  0  0  0  0  0  0
  -11.9524  -40.6315  -13.6597 C   0  0  0  0  0  0  0  0  0  0  0  0
  -12.3118  -40.8903  -12.2434 C   0  0  0  0  0  0  0  0  0  0  0  0
  -11.3458  -40.9587  -11.4083 O   0  0  0  0  0  0  0  0  0  0  0  0
  -13.5982  -41.0674  -11.7277 N   0  0  0  0  0  0  0  0  0  0  0  0
  -13.7776  -41.9226  -10.5427 C   0  0  0  0  0  0  0  0  0  0  0  0
  -14.8192  -40.4843  -12.2482 C   0  0  1  0  0  0  0  0  0  0  0  0
  -15.2188  -41.3996  -13.4195 C   0  0  0  0  0  0  0  0  0  0  0  0
  -15.9023  -40.4336  -11.2373 C   0  0  0  0  0  0  0  0  0  0  0  0
  -17.0776  -40.6675  -11.7134 O   0  0  0  0  0  0  0  0  0  0  0  0
  -15.8231  -40.1747   -9.8792 N   0  0  0  0  0  0  0  0  0  0  0  0
  -15.2794  -39.0363   -9.1657 C   0  0  1  0  0  0  0  0  0  0  0  0
  -14.8769  -37.8958  -10.0175 C   0  0  0  0  0  0  0  0  0  0  0  0
  -16.3541  -38.6151   -8.1765 C   0  0  2  0  0  0  0  0  0  0  0  0
  -15.8231  -38.0558   -7.0274 O   0  0  0  0  0  0  0  0  0  0  0  0
  -17.3949  -39.6717   -7.9244 C   0  0  0  0  0  0  0  0  0  0  0  0
  -18.5960  -38.9618   -7.5369 N   0  0  0  0  0  0  0  0  0  0  0  0
  -19.7205  -39.1454   -8.3951 C   0  0  0  0  0  0  0  0  0  0  0  0
  -19.6120  -38.5980   -9.7798 C   0  0  0  0  0  0  0  0  0  0  0  0
  -19.4076  -40.0626   -9.5686 C   0  0  0  0  0  0  0  0  0  0  0  0
  -21.0662  -39.3095   -7.7761 C   0  0  0  0  0  0  0  0  0  0  0  0
  -21.1528  -39.7960   -6.4654 C   0  0  0  0  0  0  0  0  0  0  0  0
  -22.3675  -39.9786   -5.8433 C   0  0  0  0  0  0  0  0  0  0  0  0
  -23.4977  -39.6623   -6.5646 C   0  0  0  0  0  0  0  0  0  0  0  0
  -23.4325  -39.1841   -7.8518 C   0  0  0  0  0  0  0  0  0  0  0  0
  -22.1965  -38.9979   -8.4865 C   0  0  0  0  0  0  0  0  0  0  0  0
  -22.4711  -40.4920   -4.4584 C   0  0  0  0  0  0  0  0  0  0  0  0
  -21.6681  -41.7330   -4.2407 C   0  0  0  0  0  0  0  0  0  0  0  0
  -22.0428  -39.4566   -3.4398 C   0  0  0  0  0  0  0  0  0  0  0  0
  -23.9285  -40.8060   -4.1741 C   0  0  0  0  0  0  0  0  0  0  0  0
  2  1  1  1
  2  3  1  0
  3  4  1  0
  4  5  1  0
  5  6  1  0
  6  7  1  0
  7  8  1  0
  8  9  1  0
  9 10  1  0
 10 11  1  0
 11 12  2  0
 11 13  1  0
 13 14  1  0
 13 15  1  0
 15 16  1  6
 15 17  1  0
 17 18  2  0
 17 19  1  0
 19 20  1  0
 20 21  1  6
 20 22  1  0
 22 23  1  1
 22 24  1  0
 24 25  1  0
 25 26  1  0
 26 27  1  0
 27 28  1  0
 26 29  1  0
 29 30  2  0
 30 31  1  0
 31 32  2  0
 32 33  1  0
 33 34  2  0
 31 35  1  0
 35 36  1  0
 35 37  1  0
 35 38  1  0
 21  2  1  0
 28 26  1  0
 34 29  1  0
M  END
$$$$
