
     RDKit          3D

 38 40  0  0  0  0  0  0  0  0999 V2000
  -20.2739  -37.9999   -7.2713 C   0  0  0  0  0  0  0  0  0  0  0  0
  -20.0039  -39.3608   -6.6637 C   0  0  2  0  0  0  0  0  0  0  0  0
  -20.8303  -39.4491   -5.3894 C   0  0  0  0  0  0  0  0  0  0  0  0
  -21.7262  -40.6610   -5.5351 C   0  0  0  0  0  0  0  0  0  0  0  0
  -22.9259  -40.6567   -4.6552 C   0  0  0  0  0  0  0  0  0  0  0  0
  -23.0392  -41.7831   -3.6927 C   0  0  0  0  0  0  0  0  0  0  0  0
  -22.5490  -43.1101   -4.1683 C   0  0  0  0  0  0  0  0  0  0  0  0
  -23.2782  -43.6806   -5.3429 C   0  0  0  0  0  0  0  0  0  0  0  0
  -22.8164  -43.3014   -6.5758 O   0  0  0  0  0  0  0  0  0  0  0  0
  -21.6284  -43.9226   -6.9576 C   0  0  0  0  0  0  0  0  0  0  0  0
  -20.9622  -43.0187   -7.9276 C   0  0  0  0  0  0  0  0  0  0  0  0
  -21.7225  -42.3717   -8.7266 O   0  0  0  0  0  0  0  0  0  0  0  0
  -19.5881  -42.8016   -8.0583 N   0  0  0  0  0  0  0  0  0  0  0  0
  -19.0471  -42.4469   -9.3809 C   0  0  0  0  0  0  0  0  0  0  0  0
  -18.6006  -42.8915   -7.0006 C   0  0  1  0  0  0  0  0  0  0  0  0
  -18.2988  -44.3958   -6.8772 C   0  0  0  0  0  0  0  0  0  0  0  0
  -17.3624  -42.1383   -7.3119 C   0  0  0  0  0  0  0  0  0  0  0  0
  -16.2812  -42.7135   -6.9079 O   0  0  0  0  0  0  0  0  0  0  0  0
  -17.2138  -40.9261   -7.9648 N   0  0  0  0  0  0  0  0  0  0  0  0
  -17.7801  -39.6234   -7.6766 C   0  0  1  0  0  0  0  0  0  0  0  0
  -18.5169  -39.5286   -6.3973 C   0  0  0  0  0  0  0  0  0  0  0  0
  -16.6128  -38.6499   -7.6976 C   0  0  2  0  0  0  0  0  0  0  0  0
  -16.5884  -37.8315   -6.5819 O   0  0  0  0  0  0  0  0  0  0  0  0
  -16.4556  -37.9186   -9.0029 C   0  0  0  0  0  0  0  0  0  0  0  0
  -15.4644  -38.6582   -9.7559 N   0  0  0  0  0  0  0  0  0  0  0  0
  -14.5799  -37.8672  -10.5477 C   0  0  0  0  0  0  0  0  0  0  0  0
  -14.9857  -36.4545  -10.8093 C   0  0  0  0  0  0  0  0  0  0  0  0
  -13.9619  -36.7241   -9.7555 C   0  0  0  0  0  0  0  0  0  0  0  0
  -13.6776  -38.5601  -11.5104 C   0  0  0  0  0  0  0  0  0  0  0  0
  -12.7800  -37.7953  -12.2662 C   0  0  0  0  0  0  0  0  0  0  0  0
  -11.9285  -38.3768  -13.1787 C   0  0  0  0  0  0  0  0  0  0  0  0
  -11.9954  -39.7456  -13.3185 C   0  0  0  0  0  0  0  0  0  0  0  0
  -12.8700  -40.5125  -12.5858 C   0  0  0  0  0  0  0  0  0  0  0  0
  -13.7377  -39.9219  -11.6566 C   0  0  0  0  0  0  0  0  0  0  0  0
  -10.9755  -37.5785  -13.9829 C   0  0  0  0  0  0  0  0  0  0  0  0
  -10.0575  -36.7539  -13.1403 C   0  0  0  0  0  0  0  0  0  0  0  0
  -10.1385  -38.4505  -14.8950 C   0  0  0  0  0  0  0  0  0  0  0  0
  -11.7712  -36.6478  -14.8797 C   0  0  0  0  0  0  0  0  0  0  0  0
  2  1  1  1
  2  3  1  0
  3  4  1  0
  4  5  1  0
  5  6  1  0
  6  7  1  0
  7  8  1  0
  8  9  1  0
  9 10  1  0
 10 11  1  0
 11 12  2  0
 11 13  1  0
 13 14  1  0
 13 15  1  0
 15 16  1  6
 15 17  1  0
 17 18  2  0
 17 19  1  0
 19 20  1  0
 20 21  1  1
 20 22  1  0
 22 23  1  1
 22 24  1  0
 24 25  1  0
 25 26  1  0
 26 27  1  0
 27 28  1  0
 26 29  1  0
 29 30  2  0
 30 31  1  0
 31 32  2  0
 32 33  1  0
 33 34  2  0
 31 35  1  0
 35 36  1  0
 35 37  1  0
 35 38  1  0
 21  2  1  0
 28 26  1  0
 34 29  1  0
M  END
$$$$
