
     RDKit          3D

 38 40  0  0  0  0  0  0  0  0999 V2000
  -12.8928  -37.8131   -9.7295 C   0  0  0  0  0  0  0  0  0  0  0  0
  -13.4976  -38.8971  -10.5973 C   0  0  2  0  0  0  0  0  0  0  0  0
  -13.3365  -38.4494  -12.0424 C   0  0  0  0  0  0  0  0  0  0  0  0
  -12.5545  -39.5361  -12.7497 C   0  0  0  0  0  0  0  0  0  0  0  0
  -11.8778  -39.1008  -14.0011 C   0  0  0  0  0  0  0  0  0  0  0  0
  -12.2836  -39.8030  -15.2463 C   0  0  0  0  0  0  0  0  0  0  0  0
  -12.5982  -41.2557  -15.1128 C   0  0  0  0  0  0  0  0  0  0  0  0
  -11.4613  -42.1208  -14.6700 C   0  0  0  0  0  0  0  0  0  0  0  0
  -11.2960  -42.2451  -13.3156 O   0  0  0  0  0  0  0  0  0  0  0  0
  -12.2271  -43.0802  -12.7002 C   0  0  0  0  0  0  0  0  0  0  0  0
  -12.3261  -42.6455  -11.2848 C   0  0  0  0  0  0  0  0  0  0  0  0
  -11.2468  -42.2423  -10.7302 O   0  0  0  0  0  0  0  0  0  0  0  0
  -13.4784  -42.6315  -10.4947 N   0  0  0  0  0  0  0  0  0  0  0  0
  -13.3454  -42.8182   -9.0403 C   0  0  0  0  0  0  0  0  0  0  0  0
  -14.8382  -42.4492  -10.9634 C   0  0  1  0  0  0  0  0  0  0  0  0
  -15.2647  -43.8388  -11.4696 C   0  0  0  0  0  0  0  0  0  0  0  0
  -15.7522  -41.9846   -9.8928 C   0  0  0  0  0  0  0  0  0  0  0  0
  -16.9361  -42.4919   -9.9551 O   0  0  0  0  0  0  0  0  0  0  0  0
  -15.5105  -41.0984   -8.8565 N   0  0  0  0  0  0  0  0  0  0  0  0
  -15.0459  -39.7256   -8.8779 C   0  0  1  0  0  0  0  0  0  0  0  0
  -14.9544  -39.1150  -10.2221 C   0  0  0  0  0  0  0  0  0  0  0  0
  -16.0115  -38.9473   -7.9988 C   0  0  2  0  0  0  0  0  0  0  0  0
  -15.6401  -38.9623   -6.6657 O   0  0  0  0  0  0  0  0  0  0  0  0
  -17.4579  -39.2833   -8.2402 C   0  0  0  0  0  0  0  0  0  0  0  0
  -18.0571  -39.4248   -6.9296 N   0  0  0  0  0  0  0  0  0  0  0  0
  -19.4006  -38.9590   -6.8162 C   0  0  0  0  0  0  0  0  0  0  0  0
  -19.7010  -38.0262   -5.6900 C   0  0  0  0  0  0  0  0  0  0  0  0
  -19.5149  -37.4611   -7.0602 C   0  0  0  0  0  0  0  0  0  0  0  0
  -20.4933  -39.8001   -7.3816 C   0  0  0  0  0  0  0  0  0  0  0  0
  -21.7791  -39.2552   -7.4894 C   0  0  0  0  0  0  0  0  0  0  0  0
  -22.8314  -39.9859   -7.9940 C   0  0  0  0  0  0  0  0  0  0  0  0
  -22.5673  -41.2786   -8.3899 C   0  0  0  0  0  0  0  0  0  0  0  0
  -21.3120  -41.8305   -8.2913 C   0  0  0  0  0  0  0  0  0  0  0  0
  -20.2398  -41.0879   -7.7776 C   0  0  0  0  0  0  0  0  0  0  0  0
  -24.1946  -39.4203   -8.1128 C   0  0  0  0  0  0  0  0  0  0  0  0
  -24.7414  -39.5170   -9.4999 C   0  0  0  0  0  0  0  0  0  0  0  0
  -25.1671  -40.0891   -7.1642 C   0  0  0  0  0  0  0  0  0  0  0  0
  -24.1390  -37.9557   -7.7186 C   0  0  0  0  0  0  0  0  0  0  0  0
  2  1  1  1
  2  3  1  0
  3  4  1  0
  4  5  1  0
  5  6  1  0
  6  7  1  0
  7  8  1  0
  8  9  1  0
  9 10  1  0
 10 11  1  0
 11 12  2  0
 11 13  1  0
 13 14  1  0
 13 15  1  0
 15 16  1  1
 15 17  1  0
 17 18  2  0
 17 19  1  0
 19 20  1  0
 20 21  1  6
 20 22  1  0
 22 23  1  1
 22 24  1  0
 24 25  1  0
 25 26  1  0
 26 27  1  0
 27 28  1  0
 26 29  1  0
 29 30  2  0
 30 31  1  0
 31 32  2  0
 32 33  1  0
 33 34  2  0
 31 35  1  0
 35 36  1  0
 35 37  1  0
 35 38  1  0
 21  2  1  0
 28 26  1  0
 34 29  1  0
M  END
$$$$
