
     RDKit          3D

 38 40  0  0  0  0  0  0  0  0999 V2000
  -19.6140  -38.1080   -7.9753 C   0  0  0  0  0  0  0  0  0  0  0  0
  -19.7637  -39.4308   -7.2530 C   0  0  2  0  0  0  0  0  0  0  0  0
  -20.9249  -39.2768   -6.2822 C   0  0  0  0  0  0  0  0  0  0  0  0
  -21.9313  -40.3520   -6.6339 C   0  0  0  0  0  0  0  0  0  0  0  0
  -23.3151  -40.0888   -6.1552 C   0  0  0  0  0  0  0  0  0  0  0  0
  -23.8890  -41.0912   -5.2202 C   0  0  0  0  0  0  0  0  0  0  0  0
  -23.5130  -42.5145   -5.4656 C   0  0  0  0  0  0  0  0  0  0  0  0
  -23.9577  -43.0790   -6.7773 C   0  0  0  0  0  0  0  0  0  0  0  0
  -23.1031  -42.8890   -7.8312 O   0  0  0  0  0  0  0  0  0  0  0  0
  -21.9777  -43.7113   -7.8104 C   0  0  0  0  0  0  0  0  0  0  0  0
  -20.9179  -43.0100   -8.5766 C   0  0  0  0  0  0  0  0  0  0  0  0
  -21.2954  -42.3360   -9.5956 O   0  0  0  0  0  0  0  0  0  0  0  0
  -19.5484  -43.0107   -8.2993 N   0  0  0  0  0  0  0  0  0  0  0  0
  -18.5974  -42.8649   -9.4138 C   0  0  0  0  0  0  0  0  0  0  0  0
  -18.9377  -43.1453   -6.9914 C   0  0  1  0  0  0  0  0  0  0  0  0
  -18.9419  -44.6594   -6.7142 C   0  0  0  0  0  0  0  0  0  0  0  0
  -17.5540  -42.6150   -6.9515 C   0  0  0  0  0  0  0  0  0  0  0  0
  -16.7482  -43.3025   -6.2162 O   0  0  0  0  0  0  0  0  0  0  0  0
  -17.0218  -41.5044   -7.5847 N   0  0  0  0  0  0  0  0  0  0  0  0
  -17.4196  -40.1114   -7.5396 C   0  0  1  0  0  0  0  0  0  0  0  0
  -18.4670  -39.7898   -6.5457 C   0  0  0  0  0  0  0  0  0  0  0  0
  -16.1493  -39.3264   -7.2546 C   0  0  2  0  0  0  0  0  0  0  0  0
  -16.0902  -38.8756   -5.9475 O   0  0  0  0  0  0  0  0  0  0  0  0
  -15.8418  -38.2741   -8.2847 C   0  0  0  0  0  0  0  0  0  0  0  0
  -14.4138  -38.0471   -8.2068 N   0  0  0  0  0  0  0  0  0  0  0  0
  -13.8669  -37.2235   -9.2352 C   0  0  0  0  0  0  0  0  0  0  0  0
  -13.2265  -35.9441   -8.8092 C   0  0  0  0  0  0  0  0  0  0  0  0
  -12.3523  -37.1096   -9.1393 C   0  0  0  0  0  0  0  0  0  0  0  0
  -14.4295  -37.3383  -10.6105 C   0  0  0  0  0  0  0  0  0  0  0  0
  -13.8235  -36.6226  -11.6509 C   0  0  0  0  0  0  0  0  0  0  0  0
  -14.3033  -36.6802  -12.9402 C   0  0  0  0  0  0  0  0  0  0  0  0
  -15.4070  -37.4728  -13.1660 C   0  0  0  0  0  0  0  0  0  0  0  0
  -16.0154  -38.1821  -12.1576 C   0  0  0  0  0  0  0  0  0  0  0  0
  -15.5281  -38.1243  -10.8445 C   0  0  0  0  0  0  0  0  0  0  0  0
  -13.6706  -35.9282  -14.0477 C   0  0  0  0  0  0  0  0  0  0  0  0
  -13.9792  -34.4669  -14.0041 C   0  0  0  0  0  0  0  0  0  0  0  0
  -12.1666  -36.1025  -14.0607 C   0  0  0  0  0  0  0  0  0  0  0  0
  -14.1856  -36.4896  -15.3604 C   0  0  0  0  0  0  0  0  0  0  0  0
  2  1  1  1
  2  3  1  0
  3  4  1  0
  4  5  1  0
  5  6  1  0
  6  7  1  0
  7  8  1  0
  8  9  1  0
  9 10  1  0
 10 11  1  0
 11 12  2  0
 11 13  1  0
 13 14  1  0
 13 15  1  0
 15 16  1  6
 15 17  1  0
 17 18  2  0
 17 19  1  0
 19 20  1  0
 20 21  1  1
 20 22  1  0
 22 23  1  1
 22 24  1  0
 24 25  1  0
 25 26  1  0
 26 27  1  0
 27 28  1  0
 26 29  1  0
 29 30  2  0
 30 31  1  0
 31 32  2  0
 32 33  1  0
 33 34  2  0
 31 35  1  0
 35 36  1  0
 35 37  1  0
 35 38  1  0
 21  2  1  0
 28 26  1  0
 34 29  1  0
M  END
$$$$
