
     RDKit          3D

 38 40  0  0  0  0  0  0  0  0999 V2000
  -20.4915  -37.6957   -7.8970 C   0  0  0  0  0  0  0  0  0  0  0  0
  -20.0906  -38.9975   -7.2349 C   0  0  2  0  0  0  0  0  0  0  0  0
  -20.5738  -38.9290   -5.7939 C   0  0  0  0  0  0  0  0  0  0  0  0
  -21.4885  -40.1175   -5.5849 C   0  0  0  0  0  0  0  0  0  0  0  0
  -22.4308  -39.9833   -4.4415 C   0  0  0  0  0  0  0  0  0  0  0  0
  -22.3105  -41.0032   -3.3675 C   0  0  0  0  0  0  0  0  0  0  0  0
  -21.9661  -42.3873   -3.8065 C   0  0  0  0  0  0  0  0  0  0  0  0
  -22.9702  -43.0467   -4.6976 C   0  0  0  0  0  0  0  0  0  0  0  0
  -22.8271  -42.8091   -6.0393 O   0  0  0  0  0  0  0  0  0  0  0  0
  -21.7773  -43.5064   -6.6349 C   0  0  0  0  0  0  0  0  0  0  0  0
  -21.3660  -42.7279   -7.8293 C   0  0  0  0  0  0  0  0  0  0  0  0
  -22.2957  -42.1380   -8.4794 O   0  0  0  0  0  0  0  0  0  0  0  0
  -20.0660  -42.5730   -8.3176 N   0  0  0  0  0  0  0  0  0  0  0  0
  -19.8687  -42.3715   -9.7626 C   0  0  0  0  0  0  0  0  0  0  0  0
  -18.8469  -42.5909   -7.5332 C   0  0  1  0  0  0  0  0  0  0  0  0
  -18.5371  -44.0849   -7.3300 C   0  0  0  0  0  0  0  0  0  0  0  0
  -17.7187  -41.9163   -8.2185 C   0  0  0  0  0  0  0  0  0  0  0  0
  -16.5761  -42.4854   -8.0357 O   0  0  0  0  0  0  0  0  0  0  0  0
  -17.7269  -40.7814   -9.0120 N   0  0  0  0  0  0  0  0  0  0  0  0
  -18.1920  -39.4375   -8.7321 C   0  0  1  0  0  0  0  0  0  0  0  0
  -18.5856  -39.1895   -7.3279 C   0  0  0  0  0  0  0  0  0  0  0  0
  -17.0581  -38.5122   -9.1436 C   0  0  2  0  0  0  0  0  0  0  0  0
  -17.4333  -37.1802   -9.1301 O   0  0  0  0  0  0  0  0  0  0  0  0
  -16.3500  -38.9411  -10.3996 C   0  0  0  0  0  0  0  0  0  0  0  0
  -15.1989  -38.0715  -10.5235 N   0  0  0  0  0  0  0  0  0  0  0  0
  -14.7546  -37.8287  -11.8571 C   0  0  0  0  0  0  0  0  0  0  0  0
  -15.7821  -37.9044  -12.9374 C   0  0  0  0  0  0  0  0  0  0  0  0
  -15.3565  -36.5601  -12.4443 C   0  0  0  0  0  0  0  0  0  0  0  0
  -13.3247  -38.0889  -12.1871 C   0  0  0  0  0  0  0  0  0  0  0  0
  -12.3302  -37.4496  -11.4360 C   0  0  0  0  0  0  0  0  0  0  0  0
  -10.9925  -37.6421  -11.6995 C   0  0  0  0  0  0  0  0  0  0  0  0
  -10.6710  -38.4917  -12.7350 C   0  0  0  0  0  0  0  0  0  0  0  0
  -11.6331  -39.1277  -13.4833 C   0  0  0  0  0  0  0  0  0  0  0  0
  -12.9954  -38.9325  -13.2164 C   0  0  0  0  0  0  0  0  0  0  0  0
   -9.9328  -36.9718  -10.9120 C   0  0  0  0  0  0  0  0  0  0  0  0
  -10.1588  -37.0697   -9.4383 C   0  0  0  0  0  0  0  0  0  0  0  0
   -8.5599  -37.5274  -11.2266 C   0  0  0  0  0  0  0  0  0  0  0  0
   -9.9079  -35.5043  -11.2984 C   0  0  0  0  0  0  0  0  0  0  0  0
  2  1  1  6
  2  3  1  0
  3  4  1  0
  4  5  1  0
  5  6  1  0
  6  7  1  0
  7  8  1  0
  8  9  1  0
  9 10  1  0
 10 11  1  0
 11 12  2  0
 11 13  1  0
 13 14  1  0
 13 15  1  0
 15 16  1  6
 15 17  1  0
 17 18  2  0
 17 19  1  0
 19 20  1  0
 20 21  1  1
 20 22  1  0
 22 23  1  6
 22 24  1  0
 24 25  1  0
 25 26  1  0
 26 27  1  0
 27 28  1  0
 26 29  1  0
 29 30  2  0
 30 31  1  0
 31 32  2  0
 32 33  1  0
 33 34  2  0
 31 35  1  0
 35 36  1  0
 35 37  1  0
 35 38  1  0
 21  2  1  0
 28 26  1  0
 34 29  1  0
M  END
$$$$
