
     RDKit          3D

 38 40  0  0  0  0  0  0  0  0999 V2000
  -20.9104  -38.0090   -7.8379 C   0  0  0  0  0  0  0  0  0  0  0  0
  -20.5456  -39.2297   -7.0190 C   0  0  2  0  0  0  0  0  0  0  0  0
  -21.3224  -39.1363   -5.7141 C   0  0  0  0  0  0  0  0  0  0  0  0
  -22.1547  -40.3972   -5.6124 C   0  0  0  0  0  0  0  0  0  0  0  0
  -23.3224  -40.2989   -4.6958 C   0  0  0  0  0  0  0  0  0  0  0  0
  -23.3410  -41.2463   -3.5510 C   0  0  0  0  0  0  0  0  0  0  0  0
  -22.7948  -42.6101   -3.8134 C   0  0  0  0  0  0  0  0  0  0  0  0
  -23.5308  -43.4096   -4.8411 C   0  0  0  0  0  0  0  0  0  0  0  0
  -23.1324  -43.2273   -6.1392 O   0  0  0  0  0  0  0  0  0  0  0  0
  -21.9255  -43.8469   -6.4596 C   0  0  0  0  0  0  0  0  0  0  0  0
  -21.3431  -43.0930   -7.5973 C   0  0  0  0  0  0  0  0  0  0  0  0
  -22.1644  -42.6315   -8.4619 O   0  0  0  0  0  0  0  0  0  0  0  0
  -19.9882  -42.8356   -7.8217 N   0  0  0  0  0  0  0  0  0  0  0  0
  -19.5125  -42.6890   -9.2073 C   0  0  0  0  0  0  0  0  0  0  0  0
  -18.9623  -42.6933   -6.8074 C   0  0  1  0  0  0  0  0  0  0  0  0
  -18.5741  -44.1373   -6.4417 C   0  0  0  0  0  0  0  0  0  0  0  0
  -17.7785  -41.9463   -7.2953 C   0  0  0  0  0  0  0  0  0  0  0  0
  -16.6544  -42.3899   -6.8455 O   0  0  0  0  0  0  0  0  0  0  0  0
  -17.7190  -40.8594   -8.1513 N   0  0  0  0  0  0  0  0  0  0  0  0
  -18.3461  -39.5554   -8.0660 C   0  0  1  0  0  0  0  0  0  0  0  0
  -19.0434  -39.2768   -6.7915 C   0  0  0  0  0  0  0  0  0  0  0  0
  -17.2355  -38.5449   -8.3029 C   0  0  2  0  0  0  0  0  0  0  0  0
  -17.6653  -37.4504   -9.0326 O   0  0  0  0  0  0  0  0  0  0  0  0
  -15.9551  -39.1560   -8.8034 C   0  0  0  0  0  0  0  0  0  0  0  0
  -15.0944  -38.0451   -9.1523 N   0  0  0  0  0  0  0  0  0  0  0  0
  -14.0068  -38.3610  -10.0196 C   0  0  0  0  0  0  0  0  0  0  0  0
  -12.9842  -39.3177   -9.5023 C   0  0  0  0  0  0  0  0  0  0  0  0
  -14.0200  -39.8194  -10.4546 C   0  0  0  0  0  0  0  0  0  0  0  0
  -13.6203  -37.3697  -11.0631 C   0  0  0  0  0  0  0  0  0  0  0  0
  -12.7752  -37.7773  -12.1030 C   0  0  0  0  0  0  0  0  0  0  0  0
  -12.3751  -36.9050  -13.0904 C   0  0  0  0  0  0  0  0  0  0  0  0
  -12.8414  -35.6111  -13.0138 C   0  0  0  0  0  0  0  0  0  0  0  0
  -13.6711  -35.1927  -12.0006 C   0  0  0  0  0  0  0  0  0  0  0  0
  -14.0791  -36.0796  -10.9946 C   0  0  0  0  0  0  0  0  0  0  0  0
  -11.4822  -37.3248  -14.1944 C   0  0  0  0  0  0  0  0  0  0  0  0
  -10.1355  -37.7594  -13.7148 C   0  0  0  0  0  0  0  0  0  0  0  0
  -12.0866  -38.4461  -15.0131 C   0  0  0  0  0  0  0  0  0  0  0  0
  -11.3010  -36.1474  -15.1349 C   0  0  0  0  0  0  0  0  0  0  0  0
  2  1  1  6
  2  3  1  0
  3  4  1  0
  4  5  1  0
  5  6  1  0
  6  7  1  0
  7  8  1  0
  8  9  1  0
  9 10  1  0
 10 11  1  0
 11 12  2  0
 11 13  1  0
 13 14  1  0
 13 15  1  0
 15 16  1  6
 15 17  1  0
 17 18  2  0
 17 19  1  0
 19 20  1  0
 20 21  1  1
 20 22  1  0
 22 23  1  6
 22 24  1  0
 24 25  1  0
 25 26  1  0
 26 27  1  0
 27 28  1  0
 26 29  1  0
 29 30  2  0
 30 31  1  0
 31 32  2  0
 32 33  1  0
 33 34  2  0
 31 35  1  0
 35 36  1  0
 35 37  1  0
 35 38  1  0
 21  2  1  0
 28 26  1  0
 34 29  1  0
M  END
$$$$
