
     RDKit          3D

 38 40  0  0  0  0  0  0  0  0999 V2000
  -11.9531  -38.6280   -8.3768 C   0  0  0  0  0  0  0  0  0  0  0  0
  -12.3813  -39.5409   -9.5070 C   0  0  2  0  0  0  0  0  0  0  0  0
  -11.4950  -39.2152  -10.6999 C   0  0  0  0  0  0  0  0  0  0  0  0
  -10.8004  -40.5028  -11.0900 C   0  0  0  0  0  0  0  0  0  0  0  0
   -9.5579  -40.3218  -11.8881 C   0  0  0  0  0  0  0  0  0  0  0  0
   -9.5498  -40.9379  -13.2404 C   0  0  0  0  0  0  0  0  0  0  0  0
  -10.2617  -42.2424  -13.3762 C   0  0  0  0  0  0  0  0  0  0  0  0
   -9.7042  -43.3659  -12.5612 C   0  0  0  0  0  0  0  0  0  0  0  0
  -10.1849  -43.4739  -11.2828 O   0  0  0  0  0  0  0  0  0  0  0  0
  -11.4745  -43.9963  -11.1988 C   0  0  0  0  0  0  0  0  0  0  0  0
  -12.0618  -43.4921   -9.9328 C   0  0  0  0  0  0  0  0  0  0  0  0
  -11.2683  -43.3763   -8.9368 O   0  0  0  0  0  0  0  0  0  0  0  0
  -13.3941  -43.1308   -9.7165 N   0  0  0  0  0  0  0  0  0  0  0  0
  -13.9625  -43.2857   -8.3671 C   0  0  0  0  0  0  0  0  0  0  0  0
  -14.3120  -42.6037  -10.7071 C   0  0  1  0  0  0  0  0  0  0  0  0
  -14.8249  -43.8439  -11.4609 C   0  0  0  0  0  0  0  0  0  0  0  0
  -15.4426  -41.8627  -10.0987 C   0  0  0  0  0  0  0  0  0  0  0  0
  -16.5681  -42.0293  -10.7057 O   0  0  0  0  0  0  0  0  0  0  0  0
  -15.4525  -41.0336   -8.9896 N   0  0  0  0  0  0  0  0  0  0  0  0
  -14.6814  -39.8422   -8.6951 C   0  0  1  0  0  0  0  0  0  0  0  0
  -13.8560  -39.3366   -9.8138 C   0  0  0  0  0  0  0  0  0  0  0  0
  -15.6902  -38.7936   -8.2552 C   0  0  2  0  0  0  0  0  0  0  0  0
  -15.7491  -38.6633   -6.8787 O   0  0  0  0  0  0  0  0  0  0  0  0
  -17.0330  -38.9261   -8.9204 C   0  0  0  0  0  0  0  0  0  0  0  0
  -17.8126  -39.8020   -8.0709 N   0  0  0  0  0  0  0  0  0  0  0  0
  -19.1238  -40.1065   -8.5430 C   0  0  0  0  0  0  0  0  0  0  0  0
  -19.2288  -40.7283   -9.8961 C   0  0  0  0  0  0  0  0  0  0  0  0
  -19.3506  -41.6040   -8.6921 C   0  0  0  0  0  0  0  0  0  0  0  0
  -20.2711  -39.3203   -8.0075 C   0  0  0  0  0  0  0  0  0  0  0  0
  -21.0988  -38.6346   -8.9056 C   0  0  0  0  0  0  0  0  0  0  0  0
  -22.1678  -37.8836   -8.4709 C   0  0  0  0  0  0  0  0  0  0  0  0
  -22.3910  -37.8339   -7.1125 C   0  0  0  0  0  0  0  0  0  0  0  0
  -21.5893  -38.4998   -6.2159 C   0  0  0  0  0  0  0  0  0  0  0  0
  -20.5005  -39.2646   -6.6571 C   0  0  0  0  0  0  0  0  0  0  0  0
  -23.0495  -37.1548   -9.4111 C   0  0  0  0  0  0  0  0  0  0  0  0
  -22.5661  -37.2183  -10.8234 C   0  0  0  0  0  0  0  0  0  0  0  0
  -24.4721  -37.6715   -9.3655 C   0  0  0  0  0  0  0  0  0  0  0  0
  -23.1009  -35.6989   -8.9852 C   0  0  0  0  0  0  0  0  0  0  0  0
  2  1  1  1
  2  3  1  0
  3  4  1  0
  4  5  1  0
  5  6  1  0
  6  7  1  0
  7  8  1  0
  8  9  1  0
  9 10  1  0
 10 11  1  0
 11 12  2  0
 11 13  1  0
 13 14  1  0
 13 15  1  0
 15 16  1  1
 15 17  1  0
 17 18  2  0
 17 19  1  0
 19 20  1  0
 20 21  1  6
 20 22  1  0
 22 23  1  1
 22 24  1  0
 24 25  1  0
 25 26  1  0
 26 27  1  0
 27 28  1  0
 26 29  1  0
 29 30  2  0
 30 31  1  0
 31 32  2  0
 32 33  1  0
 33 34  2  0
 31 35  1  0
 35 36  1  0
 35 37  1  0
 35 38  1  0
 21  2  1  0
 28 26  1  0
 34 29  1  0
M  END
$$$$
