
     RDKit          3D

 38 40  0  0  0  0  0  0  0  0999 V2000
  -20.3203  -38.1112   -7.7124 C   0  0  0  0  0  0  0  0  0  0  0  0
  -20.0288  -39.4583   -7.0845 C   0  0  2  0  0  0  0  0  0  0  0  0
  -20.8812  -39.5555   -5.8281 C   0  0  0  0  0  0  0  0  0  0  0  0
  -21.7417  -40.7920   -5.9809 C   0  0  0  0  0  0  0  0  0  0  0  0
  -22.9607  -40.8103   -5.1282 C   0  0  0  0  0  0  0  0  0  0  0  0
  -23.0664  -41.9296   -4.1565 C   0  0  0  0  0  0  0  0  0  0  0  0
  -22.5311  -43.2479   -4.6068 C   0  0  0  0  0  0  0  0  0  0  0  0
  -23.2185  -43.8492   -5.7913 C   0  0  0  0  0  0  0  0  0  0  0  0
  -22.7389  -43.4704   -7.0175 O   0  0  0  0  0  0  0  0  0  0  0  0
  -21.5268  -44.0640   -7.3659 C   0  0  0  0  0  0  0  0  0  0  0  0
  -20.8625  -43.1527   -8.3304 C   0  0  0  0  0  0  0  0  0  0  0  0
  -21.6211  -42.5340   -9.1531 O   0  0  0  0  0  0  0  0  0  0  0  0
  -19.4919  -42.9009   -8.4326 N   0  0  0  0  0  0  0  0  0  0  0  0
  -18.9305  -42.5455   -9.7465 C   0  0  0  0  0  0  0  0  0  0  0  0
  -18.5267  -42.9541   -7.3522 C   0  0  1  0  0  0  0  0  0  0  0  0
  -18.1886  -44.4487   -7.2060 C   0  0  0  0  0  0  0  0  0  0  0  0
  -17.3017  -42.1718   -7.6437 C   0  0  0  0  0  0  0  0  0  0  0  0
  -16.2154  -42.7142   -7.2095 O   0  0  0  0  0  0  0  0  0  0  0  0
  -17.1700  -40.9628   -8.3060 N   0  0  0  0  0  0  0  0  0  0  0  0
  -17.7765  -39.6726   -8.0444 C   0  0  1  0  0  0  0  0  0  0  0  0
  -18.5443  -39.5843   -6.7831 C   0  0  0  0  0  0  0  0  0  0  0  0
  -16.6347  -38.6690   -8.0498 C   0  0  2  0  0  0  0  0  0  0  0  0
  -16.8286  -37.6546   -8.9710 O   0  0  0  0  0  0  0  0  0  0  0  0
  -15.2708  -39.3013   -8.1060 C   0  0  0  0  0  0  0  0  0  0  0  0
  -15.0071  -39.5530   -9.5074 N   0  0  0  0  0  0  0  0  0  0  0  0
  -13.9413  -38.7946  -10.0765 C   0  0  0  0  0  0  0  0  0  0  0  0
  -13.5087  -37.5729   -9.3355 C   0  0  0  0  0  0  0  0  0  0  0  0
  -12.6903  -38.8162   -9.2100 C   0  0  0  0  0  0  0  0  0  0  0  0
  -13.7203  -38.8748  -11.5482 C   0  0  0  0  0  0  0  0  0  0  0  0
  -12.9286  -37.8993  -12.1673 C   0  0  0  0  0  0  0  0  0  0  0  0
  -12.6964  -37.9143  -13.5244 C   0  0  0  0  0  0  0  0  0  0  0  0
  -13.2761  -38.9311  -14.2507 C   0  0  0  0  0  0  0  0  0  0  0  0
  -14.0564  -39.8970  -13.6607 C   0  0  0  0  0  0  0  0  0  0  0  0
  -14.2938  -39.8829  -12.2792 C   0  0  0  0  0  0  0  0  0  0  0  0
  -11.8611  -36.8884  -14.1894 C   0  0  0  0  0  0  0  0  0  0  0  0
  -11.6576  -35.6728  -13.3449 C   0  0  0  0  0  0  0  0  0  0  0  0
  -10.5045  -37.4341  -14.5826 C   0  0  0  0  0  0  0  0  0  0  0  0
  -12.5521  -36.4711  -15.4747 C   0  0  0  0  0  0  0  0  0  0  0  0
  2  1  1  1
  2  3  1  0
  3  4  1  0
  4  5  1  0
  5  6  1  0
  6  7  1  0
  7  8  1  0
  8  9  1  0
  9 10  1  0
 10 11  1  0
 11 12  2  0
 11 13  1  0
 13 14  1  0
 13 15  1  0
 15 16  1  6
 15 17  1  0
 17 18  2  0
 17 19  1  0
 19 20  1  0
 20 21  1  1
 20 22  1  0
 22 23  1  6
 22 24  1  0
 24 25  1  0
 25 26  1  0
 26 27  1  0
 27 28  1  0
 26 29  1  0
 29 30  2  0
 30 31  1  0
 31 32  2  0
 32 33  1  0
 33 34  2  0
 31 35  1  0
 35 36  1  0
 35 37  1  0
 35 38  1  0
 21  2  1  0
 28 26  1  0
 34 29  1  0
M  END
$$$$
