
     RDKit          3D

 38 40  0  0  0  0  0  0  0  0999 V2000
  -20.6067  -38.6709   -7.1147 C   0  0  0  0  0  0  0  0  0  0  0  0
  -20.1866  -40.0229   -6.5767 C   0  0  2  0  0  0  0  0  0  0  0  0
  -21.0635  -40.3105   -5.3672 C   0  0  0  0  0  0  0  0  0  0  0  0
  -21.7744  -41.6180   -5.6464 C   0  0  0  0  0  0  0  0  0  0  0  0
  -23.0110  -41.8360   -4.8484 C   0  0  0  0  0  0  0  0  0  0  0  0
  -23.0222  -43.0326   -3.9674 C   0  0  0  0  0  0  0  0  0  0  0  0
  -22.3280  -44.2452   -4.4915 C   0  0  0  0  0  0  0  0  0  0  0  0
  -22.9044  -44.8237   -5.7446 C   0  0  0  0  0  0  0  0  0  0  0  0
  -22.4304  -44.3002   -6.9186 O   0  0  0  0  0  0  0  0  0  0  0  0
  -21.1485  -44.7286   -7.2597 C   0  0  0  0  0  0  0  0  0  0  0  0
  -20.5594  -43.6776   -8.1259 C   0  0  0  0  0  0  0  0  0  0  0  0
  -21.3552  -43.0833   -8.9311 O   0  0  0  0  0  0  0  0  0  0  0  0
  -19.2231  -43.2703   -8.1525 N   0  0  0  0  0  0  0  0  0  0  0  0
  -18.6623  -42.7541   -9.4122 C   0  0  0  0  0  0  0  0  0  0  0  0
  -18.2939  -43.3019   -7.0402 C   0  0  1  0  0  0  0  0  0  0  0  0
  -17.7953  -44.7573   -6.9911 C   0  0  0  0  0  0  0  0  0  0  0  0
  -17.1556  -42.3700   -7.2222 C   0  0  0  0  0  0  0  0  0  0  0  0
  -16.0301  -42.8226   -6.7849 O   0  0  0  0  0  0  0  0  0  0  0  0
  -17.1387  -41.1058   -7.7872 N   0  0  0  0  0  0  0  0  0  0  0  0
  -17.8943  -39.9140   -7.4562 C   0  0  1  0  0  0  0  0  0  0  0  0
  -18.7080  -40.0090   -6.2245 C   0  0  0  0  0  0  0  0  0  0  0  0
  -16.8727  -38.7943   -7.3401 C   0  0  2  0  0  0  0  0  0  0  0  0
  -17.3814  -37.6813   -6.6937 O   0  0  0  0  0  0  0  0  0  0  0  0
  -16.1595  -38.4872   -8.6286 C   0  0  0  0  0  0  0  0  0  0  0  0
  -14.8086  -38.1211   -8.2575 N   0  0  0  0  0  0  0  0  0  0  0  0
  -13.9459  -37.7806   -9.3414 C   0  0  0  0  0  0  0  0  0  0  0  0
  -12.4816  -37.9796   -9.1295 C   0  0  0  0  0  0  0  0  0  0  0  0
  -13.2377  -38.9972   -9.9198 C   0  0  0  0  0  0  0  0  0  0  0  0
  -14.4117  -36.7638  -10.3264 C   0  0  0  0  0  0  0  0  0  0  0  0
  -14.1265  -36.9574  -11.6841 C   0  0  0  0  0  0  0  0  0  0  0  0
  -14.5215  -36.0486  -12.6401 C   0  0  0  0  0  0  0  0  0  0  0  0
  -15.2107  -34.9379  -12.2057 C   0  0  0  0  0  0  0  0  0  0  0  0
  -15.4994  -34.7307  -10.8777 C   0  0  0  0  0  0  0  0  0  0  0  0
  -15.0978  -35.6550   -9.9032 C   0  0  0  0  0  0  0  0  0  0  0  0
  -14.2257  -36.2430  -14.0778 C   0  0  0  0  0  0  0  0  0  0  0  0
  -15.0313  -35.3455  -14.9598 C   0  0  0  0  0  0  0  0  0  0  0  0
  -12.7585  -36.0298  -14.3855 C   0  0  0  0  0  0  0  0  0  0  0  0
  -14.5419  -37.6828  -14.4392 C   0  0  0  0  0  0  0  0  0  0  0  0
  2  1  1  1
  2  3  1  0
  3  4  1  0
  4  5  1  0
  5  6  1  0
  6  7  1  0
  7  8  1  0
  8  9  1  0
  9 10  1  0
 10 11  1  0
 11 12  2  0
 11 13  1  0
 13 14  1  0
 13 15  1  0
 15 16  1  6
 15 17  1  0
 17 18  2  0
 17 19  1  0
 19 20  1  0
 20 21  1  1
 20 22  1  0
 22 23  1  6
 22 24  1  0
 24 25  1  0
 25 26  1  0
 26 27  1  0
 27 28  1  0
 26 29  1  0
 29 30  2  0
 30 31  1  0
 31 32  2  0
 32 33  1  0
 33 34  2  0
 31 35  1  0
 35 36  1  0
 35 37  1  0
 35 38  1  0
 21  2  1  0
 28 26  1  0
 34 29  1  0
M  END
$$$$
