
     RDKit          3D

 38 40  0  0  0  0  0  0  0  0999 V2000
  -21.0887  -38.7150   -7.8228 C   0  0  0  0  0  0  0  0  0  0  0  0
  -20.5630  -39.8544   -6.9746 C   0  0  2  0  0  0  0  0  0  0  0  0
  -20.9888  -39.5731   -5.5414 C   0  0  0  0  0  0  0  0  0  0  0  0
  -21.8014  -40.7672   -5.0868 C   0  0  0  0  0  0  0  0  0  0  0  0
  -22.7020  -40.5031   -3.9325 C   0  0  0  0  0  0  0  0  0  0  0  0
  -22.4597  -41.3138   -2.7108 C   0  0  0  0  0  0  0  0  0  0  0  0
  -22.0305  -42.7262   -2.9298 C   0  0  0  0  0  0  0  0  0  0  0  0
  -23.0186  -43.5945   -3.6418 C   0  0  0  0  0  0  0  0  0  0  0  0
  -22.9506  -43.5808   -5.0101 O   0  0  0  0  0  0  0  0  0  0  0  0
  -21.8772  -44.2974   -5.5366 C   0  0  0  0  0  0  0  0  0  0  0  0
  -21.5767  -43.7087   -6.8652 C   0  0  0  0  0  0  0  0  0  0  0  0
  -22.5750  -43.3028   -7.5534 O   0  0  0  0  0  0  0  0  0  0  0  0
  -20.3139  -43.5525   -7.4425 N   0  0  0  0  0  0  0  0  0  0  0  0
  -20.1935  -43.5884   -8.9095 C   0  0  0  0  0  0  0  0  0  0  0  0
  -19.0649  -43.3538   -6.7338 C   0  0  1  0  0  0  0  0  0  0  0  0
  -18.6347  -44.7668   -6.3003 C   0  0  0  0  0  0  0  0  0  0  0  0
  -18.0209  -42.7319   -7.5828 C   0  0  0  0  0  0  0  0  0  0  0  0
  -16.8318  -43.1832   -7.3697 O   0  0  0  0  0  0  0  0  0  0  0  0
  -18.1483  -41.7527   -8.5537 N   0  0  0  0  0  0  0  0  0  0  0  0
  -18.7014  -40.4151   -8.4780 C   0  0  1  0  0  0  0  0  0  0  0  0
  -19.0531  -39.9577   -7.1159 C   0  0  0  0  0  0  0  0  0  0  0  0
  -17.6592  -39.4997   -9.0998 C   0  0  2  0  0  0  0  0  0  0  0  0
  -18.2208  -38.3673   -9.6632 O   0  0  0  0  0  0  0  0  0  0  0  0
  -16.6803  -40.2123   -9.9926 C   0  0  0  0  0  0  0  0  0  0  0  0
  -15.4230  -39.5095   -9.8445 N   0  0  0  0  0  0  0  0  0  0  0  0
  -14.9104  -38.9127  -11.0345 C   0  0  0  0  0  0  0  0  0  0  0  0
  -15.2793  -39.5585  -12.3289 C   0  0  0  0  0  0  0  0  0  0  0  0
  -16.0111  -38.3265  -11.9068 C   0  0  0  0  0  0  0  0  0  0  0  0
  -13.6526  -38.1183  -10.9449 C   0  0  0  0  0  0  0  0  0  0  0  0
  -13.3484  -37.2156  -11.9717 C   0  0  0  0  0  0  0  0  0  0  0  0
  -12.1968  -36.4611  -11.9503 C   0  0  0  0  0  0  0  0  0  0  0  0
  -11.3534  -36.6307  -10.8744 C   0  0  0  0  0  0  0  0  0  0  0  0
  -11.6350  -37.5121   -9.8576 C   0  0  0  0  0  0  0  0  0  0  0  0
  -12.8069  -38.2810   -9.8782 C   0  0  0  0  0  0  0  0  0  0  0  0
  -11.8651  -35.5038  -13.0300 C   0  0  0  0  0  0  0  0  0  0  0  0
  -12.2981  -34.1082  -12.7178 C   0  0  0  0  0  0  0  0  0  0  0  0
  -10.3822  -35.4907  -13.3361 C   0  0  0  0  0  0  0  0  0  0  0  0
  -12.5678  -35.9531  -14.2980 C   0  0  0  0  0  0  0  0  0  0  0  0
  2  1  1  6
  2  3  1  0
  3  4  1  0
  4  5  1  0
  5  6  1  0
  6  7  1  0
  7  8  1  0
  8  9  1  0
  9 10  1  0
 10 11  1  0
 11 12  2  0
 11 13  1  0
 13 14  1  0
 13 15  1  0
 15 16  1  6
 15 17  1  0
 17 18  2  0
 17 19  1  0
 19 20  1  0
 20 21  1  1
 20 22  1  0
 22 23  1  6
 22 24  1  0
 24 25  1  0
 25 26  1  0
 26 27  1  0
 27 28  1  0
 26 29  1  0
 29 30  2  0
 30 31  1  0
 31 32  2  0
 32 33  1  0
 33 34  2  0
 31 35  1  0
 35 36  1  0
 35 37  1  0
 35 38  1  0
 21  2  1  0
 28 26  1  0
 34 29  1  0
M  END
$$$$
