
     RDKit          3D

 38 40  0  0  0  0  0  0  0  0999 V2000
  -13.7268  -42.0746   -7.3149 C   0  0  0  0  0  0  0  0  0  0  0  0
  -14.6705  -42.6962   -8.3233 C   0  0  2  0  0  0  0  0  0  0  0  0
  -13.8289  -43.5797   -9.2321 C   0  0  0  0  0  0  0  0  0  0  0  0
  -14.4070  -44.9760   -9.1381 C   0  0  0  0  0  0  0  0  0  0  0  0
  -13.4754  -46.0630   -9.5428 C   0  0  0  0  0  0  0  0  0  0  0  0
  -13.9098  -46.9099  -10.6840 C   0  0  0  0  0  0  0  0  0  0  0  0
  -15.3714  -47.1977  -10.7743 C   0  0  0  0  0  0  0  0  0  0  0  0
  -15.9460  -47.9684   -9.6284 C   0  0  0  0  0  0  0  0  0  0  0  0
  -16.3702  -47.2240   -8.5593 O   0  0  0  0  0  0  0  0  0  0  0  0
  -17.5754  -46.5560   -8.7697 C   0  0  0  0  0  0  0  0  0  0  0  0
  -17.5810  -45.3818   -7.8623 C   0  0  0  0  0  0  0  0  0  0  0  0
  -17.0385  -45.5389   -6.7152 O   0  0  0  0  0  0  0  0  0  0  0  0
  -18.1189  -44.1208   -8.1325 N   0  0  0  0  0  0  0  0  0  0  0  0
  -18.6364  -43.3144   -7.0147 C   0  0  0  0  0  0  0  0  0  0  0  0
  -18.2299  -43.4966   -9.4363 C   0  0  1  0  0  0  0  0  0  0  0  0
  -19.4972  -44.1127  -10.0558 C   0  0  0  0  0  0  0  0  0  0  0  0
  -18.3581  -42.0221   -9.3527 C   0  0  0  0  0  0  0  0  0  0  0  0
  -19.1576  -41.5132  -10.2272 O   0  0  0  0  0  0  0  0  0  0  0  0
  -17.7480  -41.1366   -8.4801 N   0  0  0  0  0  0  0  0  0  0  0  0
  -16.3451  -40.9015   -8.2021 C   0  0  1  0  0  0  0  0  0  0  0  0
  -15.4013  -41.6092   -9.0946 C   0  0  0  0  0  0  0  0  0  0  0  0
  -16.1499  -39.3969   -8.2982 C   0  0  2  0  0  0  0  0  0  0  0  0
  -15.0637  -38.9580   -7.5616 O   0  0  0  0  0  0  0  0  0  0  0  0
  -17.4092  -38.6056   -8.0721 C   0  0  0  0  0  0  0  0  0  0  0  0
  -17.1835  -37.3148   -8.6882 N   0  0  0  0  0  0  0  0  0  0  0  0
  -18.0781  -36.9756   -9.7462 C   0  0  0  0  0  0  0  0  0  0  0  0
  -17.8023  -35.7086  -10.4860 C   0  0  0  0  0  0  0  0  0  0  0  0
  -17.3994  -37.0055  -11.1082 C   0  0  0  0  0  0  0  0  0  0  0  0
  -19.4699  -37.5060   -9.6961 C   0  0  0  0  0  0  0  0  0  0  0  0
  -20.2313  -37.2987   -8.5388 C   0  0  0  0  0  0  0  0  0  0  0  0
  -21.5191  -37.7733   -8.4288 C   0  0  0  0  0  0  0  0  0  0  0  0
  -22.0300  -38.4623   -9.5067 C   0  0  0  0  0  0  0  0  0  0  0  0
  -21.2978  -38.6758  -10.6505 C   0  0  0  0  0  0  0  0  0  0  0  0
  -19.9865  -38.1935  -10.7638 C   0  0  0  0  0  0  0  0  0  0  0  0
  -22.3331  -37.5599   -7.2105 C   0  0  0  0  0  0  0  0  0  0  0  0
  -23.6973  -38.1604   -7.3148 C   0  0  0  0  0  0  0  0  0  0  0  0
  -21.6557  -38.1153   -5.9754 C   0  0  0  0  0  0  0  0  0  0  0  0
  -22.4809  -36.0653   -6.9916 C   0  0  0  0  0  0  0  0  0  0  0  0
  2  1  1  1
  2  3  1  0
  3  4  1  0
  4  5  1  0
  5  6  1  0
  6  7  1  0
  7  8  1  0
  8  9  1  0
  9 10  1  0
 10 11  1  0
 11 12  2  0
 11 13  1  0
 13 14  1  0
 13 15  1  0
 15 16  1  1
 15 17  1  0
 17 18  2  0
 17 19  1  0
 19 20  1  0
 20 21  1  6
 20 22  1  0
 22 23  1  1
 22 24  1  0
 24 25  1  0
 25 26  1  0
 26 27  1  0
 27 28  1  0
 26 29  1  0
 29 30  2  0
 30 31  1  0
 31 32  2  0
 32 33  1  0
 33 34  2  0
 31 35  1  0
 35 36  1  0
 35 37  1  0
 35 38  1  0
 21  2  1  0
 28 26  1  0
 34 29  1  0
M  END
$$$$
