
     RDKit          3D

 38 40  0  0  0  0  0  0  0  0999 V2000
  -20.7487  -39.5762   -9.3939 C   0  0  0  0  0  0  0  0  0  0  0  0
  -20.6211  -40.3669   -8.1085 C   0  0  2  0  0  0  0  0  0  0  0  0
  -21.6416  -39.7972   -7.1345 C   0  0  0  0  0  0  0  0  0  0  0  0
  -22.5403  -40.9451   -6.7254 C   0  0  0  0  0  0  0  0  0  0  0  0
  -23.8637  -40.5357   -6.1829 C   0  0  0  0  0  0  0  0  0  0  0  0
  -24.1634  -40.9605   -4.7908 C   0  0  0  0  0  0  0  0  0  0  0  0
  -23.6454  -42.2993   -4.3828 C   0  0  0  0  0  0  0  0  0  0  0  0
  -24.1964  -43.4610   -5.1471 C   0  0  0  0  0  0  0  0  0  0  0  0
  -23.5331  -43.7871   -6.3007 O   0  0  0  0  0  0  0  0  0  0  0  0
  -22.3195  -44.4419   -6.0972 C   0  0  0  0  0  0  0  0  0  0  0  0
  -21.4799  -44.1734   -7.2909 C   0  0  0  0  0  0  0  0  0  0  0  0
  -22.0832  -44.1141   -8.4168 O   0  0  0  0  0  0  0  0  0  0  0  0
  -20.0964  -43.9789   -7.3116 N   0  0  0  0  0  0  0  0  0  0  0  0
  -19.3415  -44.3695   -8.5138 C   0  0  0  0  0  0  0  0  0  0  0  0
  -19.2926  -43.4174   -6.2436 C   0  0  1  0  0  0  0  0  0  0  0  0
  -19.0612  -44.5899   -5.2735 C   0  0  0  0  0  0  0  0  0  0  0  0
  -17.9978  -42.8812   -6.7267 C   0  0  0  0  0  0  0  0  0  0  0  0
  -17.0130  -43.0759   -5.9174 O   0  0  0  0  0  0  0  0  0  0  0  0
  -17.7098  -42.2138   -7.9054 N   0  0  0  0  0  0  0  0  0  0  0  0
  -18.2740  -41.0020   -8.4658 C   0  0  1  0  0  0  0  0  0  0  0  0
  -19.2011  -40.2710   -7.5746 C   0  0  0  0  0  0  0  0  0  0  0  0
  -17.0883  -40.1277   -8.8411 C   0  0  2  0  0  0  0  0  0  0  0  0
  -16.2594  -40.7334   -9.7691 O   0  0  0  0  0  0  0  0  0  0  0  0
  -16.3665  -39.5430   -7.6578 C   0  0  0  0  0  0  0  0  0  0  0  0
  -15.6723  -38.3731   -8.1542 N   0  0  0  0  0  0  0  0  0  0  0  0
  -16.2754  -37.1206   -7.8341 C   0  0  0  0  0  0  0  0  0  0  0  0
  -17.4546  -37.1511   -6.9191 C   0  0  0  0  0  0  0  0  0  0  0  0
  -16.1231  -36.7659   -6.3619 C   0  0  0  0  0  0  0  0  0  0  0  0
  -16.1257  -35.9941   -8.7982 C   0  0  0  0  0  0  0  0  0  0  0  0
  -15.3924  -36.2026   -9.9733 C   0  0  0  0  0  0  0  0  0  0  0  0
  -15.2108  -35.1981  -10.8972 C   0  0  0  0  0  0  0  0  0  0  0  0
  -15.7814  -33.9757  -10.6182 C   0  0  0  0  0  0  0  0  0  0  0  0
  -16.5041  -33.7522   -9.4702 C   0  0  0  0  0  0  0  0  0  0  0  0
  -16.6897  -34.7740   -8.5286 C   0  0  0  0  0  0  0  0  0  0  0  0
  -14.4378  -35.4071  -12.1427 C   0  0  0  0  0  0  0  0  0  0  0  0
  -15.2466  -35.1560  -13.3736 C   0  0  0  0  0  0  0  0  0  0  0  0
  -13.2017  -34.5340  -12.1924 C   0  0  0  0  0  0  0  0  0  0  0  0
  -13.9561  -36.8462  -12.1688 C   0  0  0  0  0  0  0  0  0  0  0  0
  2  1  1  6
  2  3  1  0
  3  4  1  0
  4  5  1  0
  5  6  1  0
  6  7  1  0
  7  8  1  0
  8  9  1  0
  9 10  1  0
 10 11  1  0
 11 12  2  0
 11 13  1  0
 13 14  1  0
 13 15  1  0
 15 16  1  1
 15 17  1  0
 17 18  2  0
 17 19  1  0
 19 20  1  0
 20 21  1  1
 20 22  1  0
 22 23  1  1
 22 24  1  0
 24 25  1  0
 25 26  1  0
 26 27  1  0
 27 28  1  0
 26 29  1  0
 29 30  2  0
 30 31  1  0
 31 32  2  0
 32 33  1  0
 33 34  2  0
 31 35  1  0
 35 36  1  0
 35 37  1  0
 35 38  1  0
 21  2  1  0
 28 26  1  0
 34 29  1  0
M  END
$$$$
