
     RDKit          3D

 38 40  0  0  0  0  0  0  0  0999 V2000
  -12.2768  -38.6141   -9.2712 C   0  0  0  0  0  0  0  0  0  0  0  0
  -13.0773  -39.0765  -10.4709 C   0  0  2  0  0  0  0  0  0  0  0  0
  -12.6791  -38.1867  -11.6390 C   0  0  0  0  0  0  0  0  0  0  0  0
  -12.1641  -39.1037  -12.7284 C   0  0  0  0  0  0  0  0  0  0  0  0
  -11.2913  -38.4431  -13.7359 C   0  0  0  0  0  0  0  0  0  0  0  0
  -11.7655  -38.4835  -15.1437 C   0  0  0  0  0  0  0  0  0  0  0  0
  -12.4723  -39.7278  -15.5672 C   0  0  0  0  0  0  0  0  0  0  0  0
  -11.6543  -40.9790  -15.5189 C   0  0  0  0  0  0  0  0  0  0  0  0
  -11.6442  -41.6415  -14.3197 O   0  0  0  0  0  0  0  0  0  0  0  0
  -12.8154  -42.3459  -14.0455 C   0  0  0  0  0  0  0  0  0  0  0  0
  -12.9122  -42.4625  -12.5694 C   0  0  0  0  0  0  0  0  0  0  0  0
  -11.8150  -42.6188  -11.9316 O   0  0  0  0  0  0  0  0  0  0  0  0
  -14.0802  -42.4194  -11.8036 N   0  0  0  0  0  0  0  0  0  0  0  0
  -14.1264  -43.1653  -10.5350 C   0  0  0  0  0  0  0  0  0  0  0  0
  -15.2948  -41.6987  -12.1308 C   0  0  1  0  0  0  0  0  0  0  0  0
  -16.0378  -42.6166  -13.1181 C   0  0  0  0  0  0  0  0  0  0  0  0
  -16.1358  -41.4297  -10.9401 C   0  0  0  0  0  0  0  0  0  0  0  0
  -17.4033  -41.5197  -11.1600 O   0  0  0  0  0  0  0  0  0  0  0  0
  -15.7515  -41.1022   -9.6506 N   0  0  0  0  0  0  0  0  0  0  0  0
  -14.9319  -40.0129   -9.1581 C   0  0  1  0  0  0  0  0  0  0  0  0
  -14.5649  -38.9971  -10.1689 C   0  0  0  0  0  0  0  0  0  0  0  0
  -15.7211  -39.3806   -8.0231 C   0  0  2  0  0  0  0  0  0  0  0  0
  -14.9145  -39.0148   -6.9598 O   0  0  0  0  0  0  0  0  0  0  0  0
  -16.9467  -40.1587   -7.6286 C   0  0  0  0  0  0  0  0  0  0  0  0
  -17.8127  -39.2183   -6.9486 N   0  0  0  0  0  0  0  0  0  0  0  0
  -19.2115  -39.4304   -7.1310 C   0  0  0  0  0  0  0  0  0  0  0  0
  -19.8486  -40.4956   -6.3015 C   0  0  0  0  0  0  0  0  0  0  0  0
  -20.0168  -39.0691   -5.8911 C   0  0  0  0  0  0  0  0  0  0  0  0
  -19.8208  -39.0585   -8.4392 C   0  0  0  0  0  0  0  0  0  0  0  0
  -21.1941  -38.7879   -8.4930 C   0  0  0  0  0  0  0  0  0  0  0  0
  -21.8161  -38.4491   -9.6737 C   0  0  0  0  0  0  0  0  0  0  0  0
  -21.0305  -38.3867  -10.8035 C   0  0  0  0  0  0  0  0  0  0  0  0
  -19.6815  -38.6491  -10.7702 C   0  0  0  0  0  0  0  0  0  0  0  0
  -19.0468  -38.9945   -9.5690 C   0  0  0  0  0  0  0  0  0  0  0  0
  -23.2669  -38.1609   -9.7423 C   0  0  0  0  0  0  0  0  0  0  0  0
  -23.9166  -38.1435   -8.3970 C   0  0  0  0  0  0  0  0  0  0  0  0
  -23.5477  -36.8412  -10.4297 C   0  0  0  0  0  0  0  0  0  0  0  0
  -23.9278  -39.2387  -10.5818 C   0  0  0  0  0  0  0  0  0  0  0  0
  2  1  1  1
  2  3  1  0
  3  4  1  0
  4  5  1  0
  5  6  1  0
  6  7  1  0
  7  8  1  0
  8  9  1  0
  9 10  1  0
 10 11  1  0
 11 12  2  0
 11 13  1  0
 13 14  1  0
 13 15  1  0
 15 16  1  6
 15 17  1  0
 17 18  2  0
 17 19  1  0
 19 20  1  0
 20 21  1  6
 20 22  1  0
 22 23  1  1
 22 24  1  0
 24 25  1  0
 25 26  1  0
 26 27  1  0
 27 28  1  0
 26 29  1  0
 29 30  2  0
 30 31  1  0
 31 32  2  0
 32 33  1  0
 33 34  2  0
 31 35  1  0
 35 36  1  0
 35 37  1  0
 35 38  1  0
 21  2  1  0
 28 26  1  0
 34 29  1  0
M  END
$$$$
