
     RDKit          3D

 38 40  0  0  0  0  0  0  0  0999 V2000
  -19.9206  -38.3587   -8.3065 C   0  0  0  0  0  0  0  0  0  0  0  0
  -19.9593  -39.5903   -7.4259 C   0  0  2  0  0  0  0  0  0  0  0  0
  -21.0302  -39.3486   -6.3725 C   0  0  0  0  0  0  0  0  0  0  0  0
  -22.0290  -40.4794   -6.5004 C   0  0  0  0  0  0  0  0  0  0  0  0
  -23.3705  -40.1919   -5.9248 C   0  0  0  0  0  0  0  0  0  0  0  0
  -23.8222  -41.0897   -4.8302 C   0  0  0  0  0  0  0  0  0  0  0  0
  -23.4241  -42.5234   -4.9451 C   0  0  0  0  0  0  0  0  0  0  0  0
  -23.9696  -43.2477   -6.1346 C   0  0  0  0  0  0  0  0  0  0  0  0
  -23.2228  -43.1644   -7.2803 O   0  0  0  0  0  0  0  0  0  0  0  0
  -22.0740  -43.9538   -7.2730 C   0  0  0  0  0  0  0  0  0  0  0  0
  -21.1132  -43.3246   -8.2126 C   0  0  0  0  0  0  0  0  0  0  0  0
  -21.6052  -42.7835   -9.2615 O   0  0  0  0  0  0  0  0  0  0  0  0
  -19.7247  -43.2629   -8.0695 N   0  0  0  0  0  0  0  0  0  0  0  0
  -18.8862  -43.2285   -9.2792 C   0  0  0  0  0  0  0  0  0  0  0  0
  -18.9914  -43.2295   -6.8193 C   0  0  1  0  0  0  0  0  0  0  0  0
  -18.9203  -44.7003   -6.3707 C   0  0  0  0  0  0  0  0  0  0  0  0
  -17.6281  -42.6682   -6.9733 C   0  0  0  0  0  0  0  0  0  0  0  0
  -16.7356  -43.2468   -6.2443 O   0  0  0  0  0  0  0  0  0  0  0  0
  -17.1934  -41.6284   -7.7780 N   0  0  0  0  0  0  0  0  0  0  0  0
  -17.6308  -40.2487   -7.8555 C   0  0  1  0  0  0  0  0  0  0  0  0
  -18.5917  -39.8354   -6.8094 C   0  0  0  0  0  0  0  0  0  0  0  0
  -16.3660  -39.4083   -7.7855 C   0  0  2  0  0  0  0  0  0  0  0  0
  -16.6365  -38.0612   -7.6203 O   0  0  0  0  0  0  0  0  0  0  0  0
  -15.3757  -39.7095   -8.8772 C   0  0  0  0  0  0  0  0  0  0  0  0
  -14.1027  -39.2016   -8.4101 N   0  0  0  0  0  0  0  0  0  0  0  0
  -12.9667  -39.5945   -9.1782 C   0  0  0  0  0  0  0  0  0  0  0  0
  -11.8987  -40.3568   -8.4662 C   0  0  0  0  0  0  0  0  0  0  0  0
  -12.8640  -41.1058   -9.3256 C   0  0  0  0  0  0  0  0  0  0  0  0
  -12.6142  -38.7932  -10.3843 C   0  0  0  0  0  0  0  0  0  0  0  0
  -13.3201  -37.6109  -10.6407 C   0  0  0  0  0  0  0  0  0  0  0  0
  -13.0472  -36.8335  -11.7439 C   0  0  0  0  0  0  0  0  0  0  0  0
  -12.0484  -37.2670  -12.5877 C   0  0  0  0  0  0  0  0  0  0  0  0
  -11.3451  -38.4246  -12.3527 C   0  0  0  0  0  0  0  0  0  0  0  0
  -11.6220  -39.2173  -11.2301 C   0  0  0  0  0  0  0  0  0  0  0  0
  -13.7867  -35.5819  -12.0247 C   0  0  0  0  0  0  0  0  0  0  0  0
  -13.6463  -35.1337  -13.4431 C   0  0  0  0  0  0  0  0  0  0  0  0
  -15.2609  -35.7143  -11.7054 C   0  0  0  0  0  0  0  0  0  0  0  0
  -13.2411  -34.4924  -11.1198 C   0  0  0  0  0  0  0  0  0  0  0  0
  2  1  1  6
  2  3  1  0
  3  4  1  0
  4  5  1  0
  5  6  1  0
  6  7  1  0
  7  8  1  0
  8  9  1  0
  9 10  1  0
 10 11  1  0
 11 12  2  0
 11 13  1  0
 13 14  1  0
 13 15  1  0
 15 16  1  6
 15 17  1  0
 17 18  2  0
 17 19  1  0
 19 20  1  0
 20 21  1  1
 20 22  1  0
 22 23  1  6
 22 24  1  0
 24 25  1  0
 25 26  1  0
 26 27  1  0
 27 28  1  0
 26 29  1  0
 29 30  2  0
 30 31  1  0
 31 32  2  0
 32 33  1  0
 33 34  2  0
 31 35  1  0
 35 36  1  0
 35 37  1  0
 35 38  1  0
 21  2  1  0
 28 26  1  0
 34 29  1  0
M  END
$$$$
