
     RDKit          3D

 38 40  0  0  0  0  0  0  0  0999 V2000
  -15.1265  -43.9541   -7.6149 C   0  0  0  0  0  0  0  0  0  0  0  0
  -16.4594  -43.6163   -8.2499 C   0  0  2  0  0  0  0  0  0  0  0  0
  -16.6965  -44.6373   -9.3526 C   0  0  0  0  0  0  0  0  0  0  0  0
  -18.0099  -45.3215   -9.0366 C   0  0  0  0  0  0  0  0  0  0  0  0
  -18.1912  -46.6484   -9.6845 C   0  0  0  0  0  0  0  0  0  0  0  0
  -19.3536  -46.7790  -10.6010 C   0  0  0  0  0  0  0  0  0  0  0  0
  -20.5887  -46.0378  -10.2111 C   0  0  0  0  0  0  0  0  0  0  0  0
  -21.2112  -46.4622   -8.9189 C   0  0  0  0  0  0  0  0  0  0  0  0
  -20.7348  -45.8430   -7.7934 O   0  0  0  0  0  0  0  0  0  0  0  0
  -21.1825  -44.5333   -7.6281 C   0  0  0  0  0  0  0  0  0  0  0  0
  -20.1680  -43.8324   -6.8025 C   0  0  0  0  0  0  0  0  0  0  0  0
  -19.6004  -44.5180   -5.8844 O   0  0  0  0  0  0  0  0  0  0  0  0
  -19.7689  -42.4990   -6.9249 N   0  0  0  0  0  0  0  0  0  0  0  0
  -19.3036  -41.7833   -5.7253 C   0  0  0  0  0  0  0  0  0  0  0  0
  -19.7632  -41.7132   -8.1432 C   0  0  1  0  0  0  0  0  0  0  0  0
  -21.2184  -41.2386   -8.3067 C   0  0  0  0  0  0  0  0  0  0  0  0
  -18.8448  -40.5521   -8.0678 C   0  0  0  0  0  0  0  0  0  0  0  0
  -19.2864  -39.4930   -8.6562 O   0  0  0  0  0  0  0  0  0  0  0  0
  -17.6029  -40.4539   -7.4630 N   0  0  0  0  0  0  0  0  0  0  0  0
  -16.3956  -41.2326   -7.6547 C   0  0  1  0  0  0  0  0  0  0  0  0
  -16.4398  -42.1918   -8.7800 C   0  0  0  0  0  0  0  0  0  0  0  0
  -15.2776  -40.2221   -7.8538 C   0  0  2  0  0  0  0  0  0  0  0  0
  -14.2424  -40.3965   -6.9520 O   0  0  0  0  0  0  0  0  0  0  0  0
  -15.7577  -38.8015   -7.9748 C   0  0  0  0  0  0  0  0  0  0  0  0
  -15.8246  -38.5242   -9.3944 N   0  0  0  0  0  0  0  0  0  0  0  0
  -15.8151  -37.1429   -9.7505 C   0  0  0  0  0  0  0  0  0  0  0  0
  -14.7818  -36.2834   -9.1007 C   0  0  0  0  0  0  0  0  0  0  0  0
  -14.5512  -36.7489  -10.5013 C   0  0  0  0  0  0  0  0  0  0  0  0
  -17.0829  -36.5258  -10.2329 C   0  0  0  0  0  0  0  0  0  0  0  0
  -18.2299  -37.3240  -10.3285 C   0  0  0  0  0  0  0  0  0  0  0  0
  -19.4277  -36.8138  -10.7767 C   0  0  0  0  0  0  0  0  0  0  0  0
  -19.4522  -35.4821  -11.1283 C   0  0  0  0  0  0  0  0  0  0  0  0
  -18.3367  -34.6833  -11.0415 C   0  0  0  0  0  0  0  0  0  0  0  0
  -17.1166  -35.2014  -10.5856 C   0  0  0  0  0  0  0  0  0  0  0  0
  -20.6464  -37.6481  -10.8817 C   0  0  0  0  0  0  0  0  0  0  0  0
  -20.4600  -39.0171  -10.3131 C   0  0  0  0  0  0  0  0  0  0  0  0
  -21.8332  -37.0009  -10.1996 C   0  0  0  0  0  0  0  0  0  0  0  0
  -21.0074  -37.7820  -12.3498 C   0  0  0  0  0  0  0  0  0  0  0  0
  2  1  1  6
  2  3  1  0
  3  4  1  0
  4  5  1  0
  5  6  1  0
  6  7  1  0
  7  8  1  0
  8  9  1  0
  9 10  1  0
 10 11  1  0
 11 12  2  0
 11 13  1  0
 13 14  1  0
 13 15  1  0
 15 16  1  1
 15 17  1  0
 17 18  2  0
 17 19  1  0
 19 20  1  0
 20 21  1  6
 20 22  1  0
 22 23  1  1
 22 24  1  0
 24 25  1  0
 25 26  1  0
 26 27  1  0
 27 28  1  0
 26 29  1  0
 29 30  2  0
 30 31  1  0
 31 32  2  0
 32 33  1  0
 33 34  2  0
 31 35  1  0
 35 36  1  0
 35 37  1  0
 35 38  1  0
 21  2  1  0
 28 26  1  0
 34 29  1  0
M  END
$$$$
