
     RDKit          3D

 38 40  0  0  0  0  0  0  0  0999 V2000
  -20.5162  -37.9907   -7.7977 C   0  0  0  0  0  0  0  0  0  0  0  0
  -20.3597  -39.2816   -7.0211 C   0  0  2  0  0  0  0  0  0  0  0  0
  -21.2450  -39.1676   -5.7890 C   0  0  0  0  0  0  0  0  0  0  0  0
  -22.2086  -40.3347   -5.8365 C   0  0  0  0  0  0  0  0  0  0  0  0
  -23.4429  -40.1550   -5.0256 C   0  0  0  0  0  0  0  0  0  0  0  0
  -23.6693  -41.1487   -3.9442 C   0  0  0  0  0  0  0  0  0  0  0  0
  -23.2438  -42.5494   -4.2345 C   0  0  0  0  0  0  0  0  0  0  0  0
  -23.9556  -43.2145   -5.3694 C   0  0  0  0  0  0  0  0  0  0  0  0
  -23.4172  -43.0140   -6.6132 O   0  0  0  0  0  0  0  0  0  0  0  0
  -22.2553  -43.7442   -6.8580 C   0  0  0  0  0  0  0  0  0  0  0  0
  -21.4914  -43.0038   -7.8926 C   0  0  0  0  0  0  0  0  0  0  0  0
  -22.1735  -42.4153   -8.7999 O   0  0  0  0  0  0  0  0  0  0  0  0
  -20.1019  -42.8837   -7.9777 N   0  0  0  0  0  0  0  0  0  0  0  0
  -19.4822  -42.7230   -9.3035 C   0  0  0  0  0  0  0  0  0  0  0  0
  -19.1694  -42.9021   -6.8678 C   0  0  1  0  0  0  0  0  0  0  0  0
  -18.9691  -44.3954   -6.5528 C   0  0  0  0  0  0  0  0  0  0  0  0
  -17.8735  -42.2646   -7.2021 C   0  0  0  0  0  0  0  0  0  0  0  0
  -16.8496  -42.8481   -6.6785 O   0  0  0  0  0  0  0  0  0  0  0  0
  -17.6200  -41.1506   -7.9847 N   0  0  0  0  0  0  0  0  0  0  0  0
  -18.1148  -39.7922   -7.8812 C   0  0  1  0  0  0  0  0  0  0  0  0
  -18.8994  -39.5014   -6.6613 C   0  0  0  0  0  0  0  0  0  0  0  0
  -16.8884  -38.8972   -7.9573 C   0  0  2  0  0  0  0  0  0  0  0  0
  -17.1977  -37.5616   -7.7689 O   0  0  0  0  0  0  0  0  0  0  0  0
  -16.0141  -39.1656   -9.1518 C   0  0  0  0  0  0  0  0  0  0  0  0
  -14.7409  -39.6064   -8.6213 N   0  0  0  0  0  0  0  0  0  0  0  0
  -13.5903  -39.1518   -9.3314 C   0  0  0  0  0  0  0  0  0  0  0  0
  -12.2586  -39.4627   -8.7327 C   0  0  0  0  0  0  0  0  0  0  0  0
  -12.7499  -40.3024   -9.8663 C   0  0  0  0  0  0  0  0  0  0  0  0
  -13.7316  -37.9710  -10.2297 C   0  0  0  0  0  0  0  0  0  0  0  0
  -12.6775  -37.6489  -11.0940 C   0  0  0  0  0  0  0  0  0  0  0  0
  -12.7448  -36.5646  -11.9399 C   0  0  0  0  0  0  0  0  0  0  0  0
  -13.8947  -35.8071  -11.9016 C   0  0  0  0  0  0  0  0  0  0  0  0
  -14.9394  -36.1075  -11.0599 C   0  0  0  0  0  0  0  0  0  0  0  0
  -14.8721  -37.2110  -10.1980 C   0  0  0  0  0  0  0  0  0  0  0  0
  -11.6368  -36.2148  -12.8577 C   0  0  0  0  0  0  0  0  0  0  0  0
  -11.4417  -37.2265  -13.9397 C   0  0  0  0  0  0  0  0  0  0  0  0
  -11.8423  -34.8583  -13.4984 C   0  0  0  0  0  0  0  0  0  0  0  0
  -10.3569  -36.1244  -12.0471 C   0  0  0  0  0  0  0  0  0  0  0  0
  2  1  1  1
  2  3  1  0
  3  4  1  0
  4  5  1  0
  5  6  1  0
  6  7  1  0
  7  8  1  0
  8  9  1  0
  9 10  1  0
 10 11  1  0
 11 12  2  0
 11 13  1  0
 13 14  1  0
 13 15  1  0
 15 16  1  6
 15 17  1  0
 17 18  2  0
 17 19  1  0
 19 20  1  0
 20 21  1  1
 20 22  1  0
 22 23  1  6
 22 24  1  0
 24 25  1  0
 25 26  1  0
 26 27  1  0
 27 28  1  0
 26 29  1  0
 29 30  2  0
 30 31  1  0
 31 32  2  0
 32 33  1  0
 33 34  2  0
 31 35  1  0
 35 36  1  0
 35 37  1  0
 35 38  1  0
 21  2  1  0
 28 26  1  0
 34 29  1  0
M  END
$$$$
