
     RDKit          3D

 38 40  0  0  0  0  0  0  0  0999 V2000
  -19.8537  -37.7433   -7.2729 C   0  0  0  0  0  0  0  0  0  0  0  0
  -19.5585  -39.1602   -6.8267 C   0  0  2  0  0  0  0  0  0  0  0  0
  -20.3169  -39.3825   -5.5266 C   0  0  0  0  0  0  0  0  0  0  0  0
  -21.2250  -40.5732   -5.7509 C   0  0  0  0  0  0  0  0  0  0  0  0
  -22.3765  -40.6622   -4.8131 C   0  0  0  0  0  0  0  0  0  0  0  0
  -22.4441  -41.8836   -3.9694 C   0  0  0  0  0  0  0  0  0  0  0  0
  -21.9861  -43.1528   -4.6068 C   0  0  0  0  0  0  0  0  0  0  0  0
  -22.7790  -43.5975   -5.7945 C   0  0  0  0  0  0  0  0  0  0  0  0
  -22.3812  -43.0905   -7.0036 O   0  0  0  0  0  0  0  0  0  0  0  0
  -21.2180  -43.6672   -7.5108 C   0  0  0  0  0  0  0  0  0  0  0  0
  -20.5996  -42.6659   -8.4147 C   0  0  0  0  0  0  0  0  0  0  0  0
  -21.3979  -41.9393   -9.0999 O   0  0  0  0  0  0  0  0  0  0  0  0
  -19.2333  -42.4352   -8.5945 N   0  0  0  0  0  0  0  0  0  0  0  0
  -18.7612  -41.9432   -9.8994 C   0  0  0  0  0  0  0  0  0  0  0  0
  -18.1918  -42.6349   -7.6060 C   0  0  1  0  0  0  0  0  0  0  0  0
  -17.8910  -44.1436   -7.6572 C   0  0  0  0  0  0  0  0  0  0  0  0
  -16.9682  -41.8522   -7.9018 C   0  0  0  0  0  0  0  0  0  0  0  0
  -15.8699  -42.4657   -7.6182 O   0  0  0  0  0  0  0  0  0  0  0  0
  -16.8485  -40.5780   -8.4308 N   0  0  0  0  0  0  0  0  0  0  0  0
  -17.3926  -39.3132   -7.9779 C   0  0  1  0  0  0  0  0  0  0  0  0
  -18.0603  -39.3539   -6.6585 C   0  0  0  0  0  0  0  0  0  0  0  0
  -16.2233  -38.3419   -7.9586 C   0  0  2  0  0  0  0  0  0  0  0  0
  -16.5804  -37.0965   -7.4722 O   0  0  0  0  0  0  0  0  0  0  0  0
  -15.4460  -38.3019   -9.2460 C   0  0  0  0  0  0  0  0  0  0  0  0
  -14.8058  -39.5953   -9.3640 N   0  0  0  0  0  0  0  0  0  0  0  0
  -13.4518  -39.5706   -9.8124 C   0  0  0  0  0  0  0  0  0  0  0  0
  -12.4553  -40.3283   -8.9992 C   0  0  0  0  0  0  0  0  0  0  0  0
  -12.9672  -40.9416  -10.2614 C   0  0  0  0  0  0  0  0  0  0  0  0
  -12.9978  -38.4136  -10.6348 C   0  0  0  0  0  0  0  0  0  0  0  0
  -13.9416  -37.4628  -11.0436 C   0  0  0  0  0  0  0  0  0  0  0  0
  -13.5850  -36.3779  -11.8128 C   0  0  0  0  0  0  0  0  0  0  0  0
  -12.2580  -36.2652  -12.1650 C   0  0  0  0  0  0  0  0  0  0  0  0
  -11.3176  -37.1884  -11.7735 C   0  0  0  0  0  0  0  0  0  0  0  0
  -11.6793  -38.2935  -10.9905 C   0  0  0  0  0  0  0  0  0  0  0  0
  -14.5740  -35.3667  -12.2506 C   0  0  0  0  0  0  0  0  0  0  0  0
  -14.9301  -34.4005  -11.1680 C   0  0  0  0  0  0  0  0  0  0  0  0
  -14.0869  -34.5850  -13.4525 C   0  0  0  0  0  0  0  0  0  0  0  0
  -15.8358  -36.0904  -12.6838 C   0  0  0  0  0  0  0  0  0  0  0  0
  2  1  1  1
  2  3  1  0
  3  4  1  0
  4  5  1  0
  5  6  1  0
  6  7  1  0
  7  8  1  0
  8  9  1  0
  9 10  1  0
 10 11  1  0
 11 12  2  0
 11 13  1  0
 13 14  1  0
 13 15  1  0
 15 16  1  6
 15 17  1  0
 17 18  2  0
 17 19  1  0
 19 20  1  0
 20 21  1  1
 20 22  1  0
 22 23  1  6
 22 24  1  0
 24 25  1  0
 25 26  1  0
 26 27  1  0
 27 28  1  0
 26 29  1  0
 29 30  2  0
 30 31  1  0
 31 32  2  0
 32 33  1  0
 33 34  2  0
 31 35  1  0
 35 36  1  0
 35 37  1  0
 35 38  1  0
 21  2  1  0
 28 26  1  0
 34 29  1  0
M  END
$$$$
