
     RDKit          3D

 38 40  0  0  0  0  0  0  0  0999 V2000
  -19.7351  -38.1535   -8.2898 C   0  0  0  0  0  0  0  0  0  0  0  0
  -19.7331  -39.4490   -7.5053 C   0  0  2  0  0  0  0  0  0  0  0  0
  -20.7775  -39.3045   -6.4084 C   0  0  0  0  0  0  0  0  0  0  0  0
  -21.7644  -40.4375   -6.5957 C   0  0  0  0  0  0  0  0  0  0  0  0
  -23.0931  -40.2152   -5.9643 C   0  0  0  0  0  0  0  0  0  0  0  0
  -23.5023  -41.2004   -4.9299 C   0  0  0  0  0  0  0  0  0  0  0  0
  -23.0886  -42.6150   -5.1646 C   0  0  0  0  0  0  0  0  0  0  0  0
  -23.6572  -43.2551   -6.3911 C   0  0  0  0  0  0  0  0  0  0  0  0
  -22.9437  -43.0734   -7.5465 O   0  0  0  0  0  0  0  0  0  0  0  0
  -21.7847  -43.8434   -7.6301 C   0  0  0  0  0  0  0  0  0  0  0  0
  -20.8587  -43.1299   -8.5442 C   0  0  0  0  0  0  0  0  0  0  0  0
  -21.3867  -42.5181   -9.5351 O   0  0  0  0  0  0  0  0  0  0  0  0
  -19.4677  -43.0580   -8.4337 N   0  0  0  0  0  0  0  0  0  0  0  0
  -18.6635  -42.9188   -9.6592 C   0  0  0  0  0  0  0  0  0  0  0  0
  -18.7006  -43.1085   -7.2046 C   0  0  1  0  0  0  0  0  0  0  0  0
  -18.5976  -44.6079   -6.8718 C   0  0  0  0  0  0  0  0  0  0  0  0
  -17.3497  -42.5163   -7.3514 C   0  0  0  0  0  0  0  0  0  0  0  0
  -16.4297  -43.1349   -6.6928 O   0  0  0  0  0  0  0  0  0  0  0  0
  -16.9513  -41.4118   -8.0856 N   0  0  0  0  0  0  0  0  0  0  0  0
  -17.4088  -40.0370   -8.0457 C   0  0  1  0  0  0  0  0  0  0  0  0
  -18.3458  -39.7193   -6.9460 C   0  0  0  0  0  0  0  0  0  0  0  0
  -16.1538  -39.1851   -7.9453 C   0  0  2  0  0  0  0  0  0  0  0  0
  -16.4071  -37.9342   -7.4101 O   0  0  0  0  0  0  0  0  0  0  0  0
  -15.3331  -39.1622   -9.2059 C   0  0  0  0  0  0  0  0  0  0  0  0
  -14.1018  -39.8559   -8.8911 N   0  0  0  0  0  0  0  0  0  0  0  0
  -12.9841  -39.5249   -9.7133 C   0  0  0  0  0  0  0  0  0  0  0  0
  -11.6766  -40.1554   -9.3645 C   0  0  0  0  0  0  0  0  0  0  0  0
  -12.4684  -40.7237  -10.4966 C   0  0  0  0  0  0  0  0  0  0  0  0
  -12.9988  -38.2243  -10.4407 C   0  0  0  0  0  0  0  0  0  0  0  0
  -12.6969  -38.2110  -11.8084 C   0  0  0  0  0  0  0  0  0  0  0  0
  -12.6844  -37.0398  -12.5323 C   0  0  0  0  0  0  0  0  0  0  0  0
  -12.9820  -35.8780  -11.8546 C   0  0  0  0  0  0  0  0  0  0  0  0
  -13.2803  -35.8714  -10.5126 C   0  0  0  0  0  0  0  0  0  0  0  0
  -13.2932  -37.0629   -9.7743 C   0  0  0  0  0  0  0  0  0  0  0  0
  -12.3670  -37.0138  -13.9783 C   0  0  0  0  0  0  0  0  0  0  0  0
  -11.5172  -38.1666  -14.4040 C   0  0  0  0  0  0  0  0  0  0  0  0
  -13.6187  -36.9980  -14.8302 C   0  0  0  0  0  0  0  0  0  0  0  0
  -11.6190  -35.7279  -14.2791 C   0  0  0  0  0  0  0  0  0  0  0  0
  2  1  1  1
  2  3  1  0
  3  4  1  0
  4  5  1  0
  5  6  1  0
  6  7  1  0
  7  8  1  0
  8  9  1  0
  9 10  1  0
 10 11  1  0
 11 12  2  0
 11 13  1  0
 13 14  1  0
 13 15  1  0
 15 16  1  6
 15 17  1  0
 17 18  2  0
 17 19  1  0
 19 20  1  0
 20 21  1  1
 20 22  1  0
 22 23  1  6
 22 24  1  0
 24 25  1  0
 25 26  1  0
 26 27  1  0
 27 28  1  0
 26 29  1  0
 29 30  2  0
 30 31  1  0
 31 32  2  0
 32 33  1  0
 33 34  2  0
 31 35  1  0
 35 36  1  0
 35 37  1  0
 35 38  1  0
 21  2  1  0
 28 26  1  0
 34 29  1  0
M  END
$$$$
