
     RDKit          3D

 38 40  0  0  0  0  0  0  0  0999 V2000
  -20.5020  -38.5813   -7.6083 C   0  0  0  0  0  0  0  0  0  0  0  0
  -20.1643  -39.8624   -6.8745 C   0  0  2  0  0  0  0  0  0  0  0  0
  -21.1044  -39.9510   -5.6816 C   0  0  0  0  0  0  0  0  0  0  0  0
  -21.8581  -41.2573   -5.8180 C   0  0  0  0  0  0  0  0  0  0  0  0
  -23.1363  -41.3195   -5.0594 C   0  0  0  0  0  0  0  0  0  0  0  0
  -23.2373  -42.3845   -4.0279 C   0  0  0  0  0  0  0  0  0  0  0  0
  -22.5737  -43.6817   -4.3507 C   0  0  0  0  0  0  0  0  0  0  0  0
  -23.1194  -44.4031   -5.5419 C   0  0  0  0  0  0  0  0  0  0  0  0
  -22.5728  -44.0612   -6.7508 O   0  0  0  0  0  0  0  0  0  0  0  0
  -21.2969  -44.5787   -6.9685 C   0  0  0  0  0  0  0  0  0  0  0  0
  -20.6261  -43.6772   -7.9376 C   0  0  0  0  0  0  0  0  0  0  0  0
  -21.3599  -43.1686   -8.8529 O   0  0  0  0  0  0  0  0  0  0  0  0
  -19.2736  -43.3266   -7.9531 N   0  0  0  0  0  0  0  0  0  0  0  0
  -18.6369  -43.0068   -9.2416 C   0  0  0  0  0  0  0  0  0  0  0  0
  -18.3959  -43.2412   -6.8024 C   0  0  1  0  0  0  0  0  0  0  0  0
  -17.9629  -44.6939   -6.5349 C   0  0  0  0  0  0  0  0  0  0  0  0
  -17.2117  -42.3850   -7.0516 C   0  0  0  0  0  0  0  0  0  0  0  0
  -16.1267  -42.8152   -6.5032 O   0  0  0  0  0  0  0  0  0  0  0  0
  -17.1159  -41.2105   -7.7790 N   0  0  0  0  0  0  0  0  0  0  0  0
  -17.8333  -39.9580   -7.6475 C   0  0  1  0  0  0  0  0  0  0  0  0
  -18.7031  -39.8552   -6.4555 C   0  0  0  0  0  0  0  0  0  0  0  0
  -16.7706  -38.8711   -7.6325 C   0  0  2  0  0  0  0  0  0  0  0  0
  -17.2317  -37.6904   -7.0770 O   0  0  0  0  0  0  0  0  0  0  0  0
  -16.0601  -38.6983   -8.9472 C   0  0  0  0  0  0  0  0  0  0  0  0
  -14.8448  -39.4792   -8.8478 N   0  0  0  0  0  0  0  0  0  0  0  0
  -13.8670  -39.2224   -9.8542 C   0  0  0  0  0  0  0  0  0  0  0  0
  -12.4451  -39.1298   -9.4088 C   0  0  0  0  0  0  0  0  0  0  0  0
  -12.9163  -40.3950  -10.0481 C   0  0  0  0  0  0  0  0  0  0  0  0
  -14.2937  -38.5132  -11.0935 C   0  0  0  0  0  0  0  0  0  0  0  0
  -13.4403  -37.5522  -11.6506 C   0  0  0  0  0  0  0  0  0  0  0  0
  -13.7833  -36.8568  -12.7884 C   0  0  0  0  0  0  0  0  0  0  0  0
  -15.0036  -37.1455  -13.3585 C   0  0  0  0  0  0  0  0  0  0  0  0
  -15.8544  -38.0849  -12.8260 C   0  0  0  0  0  0  0  0  0  0  0  0
  -15.5067  -38.7935  -11.6675 C   0  0  0  0  0  0  0  0  0  0  0  0
  -12.8891  -35.8391  -13.3860 C   0  0  0  0  0  0  0  0  0  0  0  0
  -13.4335  -35.2645  -14.6532 C   0  0  0  0  0  0  0  0  0  0  0  0
  -12.6056  -34.7037  -12.4252 C   0  0  0  0  0  0  0  0  0  0  0  0
  -11.5551  -36.4961  -13.6899 C   0  0  0  0  0  0  0  0  0  0  0  0
  2  1  1  1
  2  3  1  0
  3  4  1  0
  4  5  1  0
  5  6  1  0
  6  7  1  0
  7  8  1  0
  8  9  1  0
  9 10  1  0
 10 11  1  0
 11 12  2  0
 11 13  1  0
 13 14  1  0
 13 15  1  0
 15 16  1  6
 15 17  1  0
 17 18  2  0
 17 19  1  0
 19 20  1  0
 20 21  1  1
 20 22  1  0
 22 23  1  6
 22 24  1  0
 24 25  1  0
 25 26  1  0
 26 27  1  0
 27 28  1  0
 26 29  1  0
 29 30  2  0
 30 31  1  0
 31 32  2  0
 32 33  1  0
 33 34  2  0
 31 35  1  0
 35 36  1  0
 35 37  1  0
 35 38  1  0
 21  2  1  0
 28 26  1  0
 34 29  1  0
M  END
$$$$
