
     RDKit          3D

 38 40  0  0  0  0  0  0  0  0999 V2000
  -14.4049  -43.6563   -9.1865 C   0  0  0  0  0  0  0  0  0  0  0  0
  -15.8945  -43.7626   -9.4386 C   0  0  2  0  0  0  0  0  0  0  0  0
  -16.0710  -44.5585  -10.7232 C   0  0  0  0  0  0  0  0  0  0  0  0
  -16.9294  -45.7571  -10.3776 C   0  0  0  0  0  0  0  0  0  0  0  0
  -16.8242  -46.8930  -11.3325 C   0  0  0  0  0  0  0  0  0  0  0  0
  -18.0810  -47.2964  -12.0151 C   0  0  0  0  0  0  0  0  0  0  0  0
  -19.3318  -47.2008  -11.2067 C   0  0  0  0  0  0  0  0  0  0  0  0
  -19.3837  -48.0799   -9.9978 C   0  0  0  0  0  0  0  0  0  0  0  0
  -18.8497  -47.5531   -8.8513 O   0  0  0  0  0  0  0  0  0  0  0  0
  -19.6493  -46.5901   -8.2379 C   0  0  0  0  0  0  0  0  0  0  0  0
  -18.7443  -45.7170   -7.4500 C   0  0  0  0  0  0  0  0  0  0  0  0
  -17.7443  -46.2827   -6.8888 O   0  0  0  0  0  0  0  0  0  0  0  0
  -18.8725  -44.3390   -7.2578 N   0  0  0  0  0  0  0  0  0  0  0  0
  -18.3604  -43.7444   -6.0120 C   0  0  0  0  0  0  0  0  0  0  0  0
  -19.4762  -43.3965   -8.1791 C   0  0  1  0  0  0  0  0  0  0  0  0
  -20.9895  -43.5202   -7.9263 C   0  0  0  0  0  0  0  0  0  0  0  0
  -19.0242  -42.0039   -7.9470 C   0  0  0  0  0  0  0  0  0  0  0  0
  -19.9451  -41.1170   -8.1148 O   0  0  0  0  0  0  0  0  0  0  0  0
  -17.7726  -41.5374   -7.5814 N   0  0  0  0  0  0  0  0  0  0  0  0
  -16.4784  -41.7163   -8.2090 C   0  0  1  0  0  0  0  0  0  0  0  0
  -16.5089  -42.3754   -9.5330 C   0  0  0  0  0  0  0  0  0  0  0  0
  -15.8733  -40.3258   -8.3150 C   0  0  2  0  0  0  0  0  0  0  0  0
  -14.5033  -40.3602   -8.5077 O   0  0  0  0  0  0  0  0  0  0  0  0
  -16.3202  -39.3848   -7.2296 C   0  0  0  0  0  0  0  0  0  0  0  0
  -17.6403  -38.9317   -7.6153 N   0  0  0  0  0  0  0  0  0  0  0  0
  -17.6710  -37.7952   -8.4769 C   0  0  0  0  0  0  0  0  0  0  0  0
  -16.4172  -36.9920   -8.5830 C   0  0  0  0  0  0  0  0  0  0  0  0
  -16.7478  -37.9547   -9.6762 C   0  0  0  0  0  0  0  0  0  0  0  0
  -18.9838  -37.1419   -8.7430 C   0  0  0  0  0  0  0  0  0  0  0  0
  -20.1380  -37.6817   -8.1614 C   0  0  0  0  0  0  0  0  0  0  0  0
  -21.3803  -37.1289   -8.3780 C   0  0  0  0  0  0  0  0  0  0  0  0
  -21.4421  -36.0197   -9.1925 C   0  0  0  0  0  0  0  0  0  0  0  0
  -20.3203  -35.4761   -9.7723 C   0  0  0  0  0  0  0  0  0  0  0  0
  -19.0550  -36.0380   -9.5528 C   0  0  0  0  0  0  0  0  0  0  0  0
  -22.6070  -37.6909   -7.7683 C   0  0  0  0  0  0  0  0  0  0  0  0
  -22.4481  -37.9786   -6.3108 C   0  0  0  0  0  0  0  0  0  0  0  0
  -23.7984  -36.7744   -7.9511 C   0  0  0  0  0  0  0  0  0  0  0  0
  -22.9421  -38.9884   -8.4809 C   0  0  0  0  0  0  0  0  0  0  0  0
  2  1  1  6
  2  3  1  0
  3  4  1  0
  4  5  1  0
  5  6  1  0
  6  7  1  0
  7  8  1  0
  8  9  1  0
  9 10  1  0
 10 11  1  0
 11 12  2  0
 11 13  1  0
 13 14  1  0
 13 15  1  0
 15 16  1  1
 15 17  1  0
 17 18  2  0
 17 19  1  0
 19 20  1  0
 20 21  1  6
 20 22  1  0
 22 23  1  1
 22 24  1  0
 24 25  1  0
 25 26  1  0
 26 27  1  0
 27 28  1  0
 26 29  1  0
 29 30  2  0
 30 31  1  0
 31 32  2  0
 32 33  1  0
 33 34  2  0
 31 35  1  0
 35 36  1  0
 35 37  1  0
 35 38  1  0
 21  2  1  0
 28 26  1  0
 34 29  1  0
M  END
$$$$
