
     RDKit          3D

 38 40  0  0  0  0  0  0  0  0999 V2000
  -20.2268  -37.9894   -7.8468 C   0  0  0  0  0  0  0  0  0  0  0  0
  -20.0709  -39.2681   -7.0503 C   0  0  2  0  0  0  0  0  0  0  0  0
  -20.8951  -39.1036   -5.7820 C   0  0  0  0  0  0  0  0  0  0  0  0
  -21.8920  -40.2431   -5.7604 C   0  0  0  0  0  0  0  0  0  0  0  0
  -23.0822  -40.0114   -4.8984 C   0  0  0  0  0  0  0  0  0  0  0  0
  -23.2863  -40.9759   -3.7865 C   0  0  0  0  0  0  0  0  0  0  0  0
  -22.9137  -42.3938   -4.0653 C   0  0  0  0  0  0  0  0  0  0  0  0
  -23.6952  -43.0612   -5.1520 C   0  0  0  0  0  0  0  0  0  0  0  0
  -23.2092  -42.9018   -6.4231 O   0  0  0  0  0  0  0  0  0  0  0  0
  -22.0806  -43.6700   -6.7044 C   0  0  0  0  0  0  0  0  0  0  0  0
  -21.3447  -42.9733   -7.7884 C   0  0  0  0  0  0  0  0  0  0  0  0
  -22.0512  -42.3839   -8.6765 O   0  0  0  0  0  0  0  0  0  0  0  0
  -19.9578  -42.8950   -7.9390 N   0  0  0  0  0  0  0  0  0  0  0  0
  -19.3955  -42.7793   -9.2948 C   0  0  0  0  0  0  0  0  0  0  0  0
  -18.9761  -42.9175   -6.8725 C   0  0  1  0  0  0  0  0  0  0  0  0
  -18.8032  -44.4093   -6.5345 C   0  0  0  0  0  0  0  0  0  0  0  0
  -17.6797  -42.3246   -7.2790 C   0  0  0  0  0  0  0  0  0  0  0  0
  -16.6495  -42.9266   -6.7899 O   0  0  0  0  0  0  0  0  0  0  0  0
  -17.4315  -41.2347   -8.0963 N   0  0  0  0  0  0  0  0  0  0  0  0
  -17.8830  -39.8607   -8.0000 C   0  0  1  0  0  0  0  0  0  0  0  0
  -18.6022  -39.5226   -6.7524 C   0  0  0  0  0  0  0  0  0  0  0  0
  -16.6369  -39.0032   -8.1511 C   0  0  2  0  0  0  0  0  0  0  0  0
  -16.9086  -37.6519   -8.0277 O   0  0  0  0  0  0  0  0  0  0  0  0
  -15.7978  -39.3572   -9.3485 C   0  0  0  0  0  0  0  0  0  0  0  0
  -14.6830  -40.1279   -8.8387 N   0  0  0  0  0  0  0  0  0  0  0  0
  -13.4643  -40.0000   -9.5689 C   0  0  0  0  0  0  0  0  0  0  0  0
  -12.1944  -40.1459   -8.7977 C   0  0  0  0  0  0  0  0  0  0  0  0
  -12.6772  -41.3019   -9.6114 C   0  0  0  0  0  0  0  0  0  0  0  0
  -13.4703  -39.1969  -10.8244 C   0  0  0  0  0  0  0  0  0  0  0  0
  -12.9455  -37.8985  -10.7991 C   0  0  0  0  0  0  0  0  0  0  0  0
  -12.9323  -37.1045  -11.9239 C   0  0  0  0  0  0  0  0  0  0  0  0
  -13.4578  -37.6407  -13.0788 C   0  0  0  0  0  0  0  0  0  0  0  0
  -13.9776  -38.9127  -13.1228 C   0  0  0  0  0  0  0  0  0  0  0  0
  -13.9919  -39.7221  -11.9783 C   0  0  0  0  0  0  0  0  0  0  0  0
  -12.3800  -35.7308  -11.9088 C   0  0  0  0  0  0  0  0  0  0  0  0
  -12.8948  -34.8888  -13.0306 C   0  0  0  0  0  0  0  0  0  0  0  0
  -12.6686  -35.0214  -10.6026 C   0  0  0  0  0  0  0  0  0  0  0  0
  -10.8699  -35.8228  -12.0302 C   0  0  0  0  0  0  0  0  0  0  0  0
  2  1  1  6
  2  3  1  0
  3  4  1  0
  4  5  1  0
  5  6  1  0
  6  7  1  0
  7  8  1  0
  8  9  1  0
  9 10  1  0
 10 11  1  0
 11 12  2  0
 11 13  1  0
 13 14  1  0
 13 15  1  0
 15 16  1  6
 15 17  1  0
 17 18  2  0
 17 19  1  0
 19 20  1  0
 20 21  1  1
 20 22  1  0
 22 23  1  6
 22 24  1  0
 24 25  1  0
 25 26  1  0
 26 27  1  0
 27 28  1  0
 26 29  1  0
 29 30  2  0
 30 31  1  0
 31 32  2  0
 32 33  1  0
 33 34  2  0
 31 35  1  0
 35 36  1  0
 35 37  1  0
 35 38  1  0
 21  2  1  0
 28 26  1  0
 34 29  1  0
M  END
$$$$
