
     RDKit          3D

 42 46  0  0  0  0  0  0  0  0999 V2000
  -19.5696  -35.1996  -11.2378 C   0  0  0  0  0  0  0  0  0  0  0  0
  -20.0763  -36.4632  -10.6226 C   0  0  0  0  0  0  0  0  0  0  0  0
  -20.1268  -36.2767   -9.0953 C   0  0  0  0  0  0  0  0  0  0  0  0
  -19.2407  -37.6541  -10.9473 C   0  0  0  0  0  0  0  0  0  0  0  0
  -17.9620  -37.7965  -10.3930 C   0  0  0  0  0  0  0  0  0  0  0  0
  -17.1901  -38.8927  -10.6628 C   0  0  0  0  0  0  0  0  0  0  0  0
  -17.7058  -39.8463  -11.4927 C   0  0  0  0  0  0  0  0  0  0  0  0
  -18.9603  -39.7345  -12.0544 C   0  0  0  0  0  0  0  0  0  0  0  0
  -19.7478  -38.6145  -11.7769 C   0  0  0  0  0  0  0  0  0  0  0  0
  -15.8371  -39.0132  -10.0497 C   0  0  0  0  0  0  0  0  0  0  0  0
  -14.7347  -38.2121  -10.7591 C   0  0  0  0  0  0  0  0  0  0  0  0
  -14.7912  -39.7059  -10.8294 C   0  0  0  0  0  0  0  0  0  0  0  0
  -15.7268  -38.9143   -8.6124 N   0  0  0  0  0  0  0  0  0  0  0  0
  -16.9296  -38.4857   -7.9865 C   0  0  0  0  0  0  0  0  0  0  0  0
  -17.2262  -39.1758   -6.6554 C   0  0  1  0  0  0  0  0  0  0  0  0
  -18.2497  -38.5006   -5.9867 O   0  0  0  0  0  0  0  0  0  0  0  0
  -17.7137  -40.5432   -7.0097 C   0  0  2  0  0  0  0  0  0  0  0  0
  -18.0184  -41.4612   -5.8879 C   0  0  0  0  0  0  0  0  0  0  0  0
  -19.3443  -41.3106   -5.2042 C   0  0  0  0  0  0  0  0  0  0  0  0
  -20.6129  -41.4334   -5.6882 C   0  0  0  0  0  0  0  0  0  0  0  0
  -21.6799  -41.2521   -4.8290 C   0  0  0  0  0  0  0  0  0  0  0  0
  -21.4263  -40.9437   -3.4786 C   0  0  0  0  0  0  0  0  0  0  0  0
  -20.1750  -40.8092   -2.9420 C   0  0  0  0  0  0  0  0  0  0  0  0
  -19.1562  -41.0018   -3.8429 C   0  0  0  0  0  0  0  0  0  0  0  0
  -23.0261  -41.3275   -5.0954 O   0  0  0  0  0  0  0  0  0  0  0  0
  -23.9497  -42.1937   -5.6125 C   0  0  0  0  0  0  0  0  0  0  0  0
  -24.1417  -42.1715   -7.0926 C   0  0  0  0  0  0  0  0  0  0  0  0
  -23.4941  -43.2481   -7.8702 C   0  0  0  0  0  0  0  0  0  0  0  0
  -22.9824  -42.8289   -9.2223 C   0  0  0  0  0  0  0  0  0  0  0  0
  -21.9373  -43.7642   -9.5970 N   0  0  0  0  0  0  0  0  0  0  0  0
  -20.5538  -43.8328   -9.2438 C   0  0  0  0  0  0  0  0  0  0  0  0
  -20.2213  -45.1881   -8.9686 C   0  0  0  0  0  0  0  0  0  0  0  0
  -18.9770  -45.6039   -8.5948 C   0  0  0  0  0  0  0  0  0  0  0  0
  -18.0379  -44.6143   -8.4964 C   0  0  0  0  0  0  0  0  0  0  0  0
  -18.3092  -43.2443   -8.7586 C   0  0  0  0  0  0  0  0  0  0  0  0
  -19.5820  -42.8665   -9.1354 C   0  0  0  0  0  0  0  0  0  0  0  0
  -17.0804  -42.4584   -8.5581 C   0  0  0  0  0  0  0  0  0  0  0  0
  -15.9673  -43.0022   -9.0100 O   0  0  0  0  0  0  0  0  0  0  0  0
  -16.8205  -41.2113   -7.9665 N   0  0  0  0  0  0  0  0  0  0  0  0
  -18.6737  -47.0060   -8.3281 C   0  0  0  0  0  0  0  0  0  0  0  0
  -17.3060  -47.4755   -8.0292 C   0  0  0  0  0  0  0  0  0  0  0  0
  -19.6634  -47.8095   -8.3670 O   0  0  0  0  0  0  0  0  0  0  0  0
  1  2  1  0
  2  3  1  0
  2  4  1  0
  4  5  2  0
  5  6  1  0
  6  7  2  0
  7  8  1  0
  8  9  2  0
  6 10  1  0
 10 11  1  0
 11 12  1  0
 10 13  1  0
 13 14  1  0
 14 15  1  0
 15 16  1  6
 15 17  1  0
 17 18  1  1
 18 19  1  0
 19 20  2  0
 20 21  1  0
 21 22  2  0
 22 23  1  0
 23 24  2  0
 21 25  1  0
 25 26  1  0
 26 27  1  0
 27 28  1  0
 28 29  1  0
 29 30  1  0
 30 31  1  0
 31 32  2  0
 32 33  1  0
 33 34  2  0
 34 35  1  0
 35 36  2  0
 35 37  1  0
 37 38  2  0
 37 39  1  0
 33 40  1  0
 40 41  1  0
 40 42  2  0
  9  4  1  0
 12 10  1  0
 24 19  1  0
 36 31  1  0
 39 17  1  0
M  END
$$$$
