
     RDKit          3D

 42 46  0  0  0  0  0  0  0  0999 V2000
  -24.2151  -41.2555   -7.1267 C   0  0  0  0  0  0  0  0  0  0  0  0
  -23.2543  -41.5025   -6.0097 C   0  0  0  0  0  0  0  0  0  0  0  0
  -23.8145  -40.8531   -4.7312 C   0  0  0  0  0  0  0  0  0  0  0  0
  -21.8886  -40.9686   -6.2771 C   0  0  0  0  0  0  0  0  0  0  0  0
  -21.7146  -39.8344   -7.0806 C   0  0  0  0  0  0  0  0  0  0  0  0
  -20.4708  -39.3182   -7.3192 C   0  0  0  0  0  0  0  0  0  0  0  0
  -19.4007  -39.9455   -6.7487 C   0  0  0  0  0  0  0  0  0  0  0  0
  -19.5393  -41.0639   -5.9539 C   0  0  0  0  0  0  0  0  0  0  0  0
  -20.8107  -41.5892   -5.7105 C   0  0  0  0  0  0  0  0  0  0  0  0
  -20.3248  -38.1061   -8.1738 C   0  0  0  0  0  0  0  0  0  0  0  0
  -21.5284  -37.1516   -8.1491 C   0  0  0  0  0  0  0  0  0  0  0  0
  -21.2106  -37.9866   -9.3497 C   0  0  0  0  0  0  0  0  0  0  0  0
  -19.0727  -37.3862   -8.1307 N   0  0  0  0  0  0  0  0  0  0  0  0
  -18.1273  -37.9599   -7.2368 C   0  0  0  0  0  0  0  0  0  0  0  0
  -16.7011  -38.0192   -7.7830 C   0  0  1  0  0  0  0  0  0  0  0  0
  -15.7899  -38.1011   -6.7278 O   0  0  0  0  0  0  0  0  0  0  0  0
  -16.6244  -39.2846   -8.5741 C   0  0  2  0  0  0  0  0  0  0  0  0
  -16.8111  -39.1752  -10.0395 C   0  0  0  0  0  0  0  0  0  0  0  0
  -15.6335  -38.7459  -10.8623 C   0  0  0  0  0  0  0  0  0  0  0  0
  -14.4099  -39.3228  -11.0316 C   0  0  0  0  0  0  0  0  0  0  0  0
  -13.4923  -38.7179  -11.8694 C   0  0  0  0  0  0  0  0  0  0  0  0
  -13.8469  -37.5220  -12.5228 C   0  0  0  0  0  0  0  0  0  0  0  0
  -15.0591  -36.9019  -12.3883 C   0  0  0  0  0  0  0  0  0  0  0  0
  -15.9284  -37.5498  -11.5450 C   0  0  0  0  0  0  0  0  0  0  0  0
  -12.2159  -39.1178  -12.1852 O   0  0  0  0  0  0  0  0  0  0  0  0
  -11.5461  -40.1980  -12.6901 C   0  0  0  0  0  0  0  0  0  0  0  0
  -11.1231  -41.2462  -11.7152 C   0  0  0  0  0  0  0  0  0  0  0  0
  -11.9467  -42.4710  -11.6462 C   0  0  0  0  0  0  0  0  0  0  0  0
  -12.0754  -43.0675  -10.2702 C   0  0  0  0  0  0  0  0  0  0  0  0
  -13.2898  -43.8626  -10.2565 N   0  0  0  0  0  0  0  0  0  0  0  0
  -14.6608  -43.4984  -10.0803 C   0  0  0  0  0  0  0  0  0  0  0  0
  -15.4469  -44.2153  -11.0242 C   0  0  0  0  0  0  0  0  0  0  0  0
  -16.8017  -44.0963  -11.1305 C   0  0  0  0  0  0  0  0  0  0  0  0
  -17.3799  -43.2222  -10.2516 C   0  0  0  0  0  0  0  0  0  0  0  0
  -16.6483  -42.4785   -9.2868 C   0  0  0  0  0  0  0  0  0  0  0  0
  -15.2786  -42.6296   -9.2122 C   0  0  0  0  0  0  0  0  0  0  0  0
  -17.5784  -41.6411   -8.5113 C   0  0  0  0  0  0  0  0  0  0  0  0
  -18.7194  -42.2080   -8.1714 O   0  0  0  0  0  0  0  0  0  0  0  0
  -17.5188  -40.3200   -8.0378 N   0  0  0  0  0  0  0  0  0  0  0  0
  -17.5741  -44.8556  -12.1083 C   0  0  0  0  0  0  0  0  0  0  0  0
  -19.0411  -44.9976  -12.0182 C   0  0  0  0  0  0  0  0  0  0  0  0
  -16.9066  -45.3932  -13.0528 O   0  0  0  0  0  0  0  0  0  0  0  0
  1  2  1  0
  2  3  1  0
  2  4  1  0
  4  5  2  0
  5  6  1  0
  6  7  2  0
  7  8  1  0
  8  9  2  0
  6 10  1  0
 10 11  1  0
 11 12  1  0
 10 13  1  0
 13 14  1  0
 14 15  1  0
 15 16  1  1
 15 17  1  0
 17 18  1  6
 18 19  1  0
 19 20  2  0
 20 21  1  0
 21 22  2  0
 22 23  1  0
 23 24  2  0
 21 25  1  0
 25 26  1  0
 26 27  1  0
 27 28  1  0
 28 29  1  0
 29 30  1  0
 30 31  1  0
 31 32  2  0
 32 33  1  0
 33 34  2  0
 34 35  1  0
 35 36  2  0
 35 37  1  0
 37 38  2  0
 37 39  1  0
 33 40  1  0
 40 41  1  0
 40 42  2  0
  9  4  1  0
 12 10  1  0
 24 19  1  0
 36 31  1  0
 39 17  1  0
M  END
$$$$
