
     RDKit          3D

 42 46  0  0  0  0  0  0  0  0999 V2000
  -10.9455  -36.8141  -10.6771 C   0  0  0  0  0  0  0  0  0  0  0  0
  -11.5449  -37.9918   -9.9802 C   0  0  0  0  0  0  0  0  0  0  0  0
  -10.4120  -38.9619   -9.5984 C   0  0  0  0  0  0  0  0  0  0  0  0
  -12.5562  -38.7133  -10.8039 C   0  0  0  0  0  0  0  0  0  0  0  0
  -13.9249  -38.5285  -10.5697 C   0  0  0  0  0  0  0  0  0  0  0  0
  -14.8668  -39.1657  -11.3295 C   0  0  0  0  0  0  0  0  0  0  0  0
  -14.4299  -39.9909  -12.3255 C   0  0  0  0  0  0  0  0  0  0  0  0
  -13.0899  -40.1941  -12.5801 C   0  0  0  0  0  0  0  0  0  0  0  0
  -12.1292  -39.5416  -11.8036 C   0  0  0  0  0  0  0  0  0  0  0  0
  -16.3141  -38.9397  -11.0556 C   0  0  0  0  0  0  0  0  0  0  0  0
  -17.2148  -40.1596  -11.3029 C   0  0  0  0  0  0  0  0  0  0  0  0
  -17.2409  -38.9662  -12.2054 C   0  0  0  0  0  0  0  0  0  0  0  0
  -16.6799  -38.2444   -9.8429 N   0  0  0  0  0  0  0  0  0  0  0  0
  -18.0290  -38.4692   -9.4536 C   0  0  0  0  0  0  0  0  0  0  0  0
  -18.2346  -38.5991   -7.9447 C   0  0  1  0  0  0  0  0  0  0  0  0
  -19.3608  -37.8718   -7.5532 O   0  0  0  0  0  0  0  0  0  0  0  0
  -18.4976  -40.0490   -7.6967 C   0  0  2  0  0  0  0  0  0  0  0  0
  -18.4023  -40.5209   -6.2959 C   0  0  0  0  0  0  0  0  0  0  0  0
  -19.5827  -40.2902   -5.4006 C   0  0  0  0  0  0  0  0  0  0  0  0
  -20.8686  -40.7334   -5.4935 C   0  0  0  0  0  0  0  0  0  0  0  0
  -21.7737  -40.3790   -4.5112 C   0  0  0  0  0  0  0  0  0  0  0  0
  -21.3422  -39.5687   -3.4434 C   0  0  0  0  0  0  0  0  0  0  0  0
  -20.0656  -39.0974   -3.3023 C   0  0  0  0  0  0  0  0  0  0  0  0
  -19.2124  -39.4833   -4.3071 C   0  0  0  0  0  0  0  0  0  0  0  0
  -23.1037  -40.7080   -4.4025 O   0  0  0  0  0  0  0  0  0  0  0  0
  -23.9160  -41.8076   -4.3631 C   0  0  0  0  0  0  0  0  0  0  0  0
  -24.3778  -42.3532   -5.6736 C   0  0  0  0  0  0  0  0  0  0  0  0
  -23.6837  -43.5539   -6.1833 C   0  0  0  0  0  0  0  0  0  0  0  0
  -23.5232  -43.6019   -7.6792 C   0  0  0  0  0  0  0  0  0  0  0  0
  -22.4005  -44.4766   -7.9648 N   0  0  0  0  0  0  0  0  0  0  0  0
  -20.9900  -44.2443   -7.9557 C   0  0  0  0  0  0  0  0  0  0  0  0
  -20.3503  -45.3536   -7.3366 C   0  0  0  0  0  0  0  0  0  0  0  0
  -19.0011  -45.4506   -7.1600 C   0  0  0  0  0  0  0  0  0  0  0  0
  -18.2754  -44.3889   -7.6258 C   0  0  0  0  0  0  0  0  0  0  0  0
  -18.8568  -43.2539   -8.2526 C   0  0  0  0  0  0  0  0  0  0  0  0
  -20.2263  -43.1964   -8.4125 C   0  0  0  0  0  0  0  0  0  0  0  0
  -17.7929  -42.3079   -8.6282 C   0  0  0  0  0  0  0  0  0  0  0  0
  -16.6966  -42.8417   -9.1303 O   0  0  0  0  0  0  0  0  0  0  0  0
  -17.6813  -40.9091   -8.5647 N   0  0  0  0  0  0  0  0  0  0  0  0
  -18.3817  -46.6098   -6.5262 C   0  0  0  0  0  0  0  0  0  0  0  0
  -16.9170  -46.7811   -6.4519 C   0  0  0  0  0  0  0  0  0  0  0  0
  -19.1821  -47.4731   -6.0353 O   0  0  0  0  0  0  0  0  0  0  0  0
  1  2  1  0
  2  3  1  0
  2  4  1  0
  4  5  2  0
  5  6  1  0
  6  7  2  0
  7  8  1  0
  8  9  2  0
  6 10  1  0
 10 11  1  0
 11 12  1  0
 10 13  1  0
 13 14  1  0
 14 15  1  0
 15 16  1  6
 15 17  1  0
 17 18  1  1
 18 19  1  0
 19 20  2  0
 20 21  1  0
 21 22  2  0
 22 23  1  0
 23 24  2  0
 21 25  1  0
 25 26  1  0
 26 27  1  0
 27 28  1  0
 28 29  1  0
 29 30  1  0
 30 31  1  0
 31 32  2  0
 32 33  1  0
 33 34  2  0
 34 35  1  0
 35 36  2  0
 35 37  1  0
 37 38  2  0
 37 39  1  0
 33 40  1  0
 40 41  1  0
 40 42  2  0
  9  4  1  0
 12 10  1  0
 24 19  1  0
 36 31  1  0
 39 17  1  0
M  END
$$$$
