
     RDKit          3D

 42 46  0  0  0  0  0  0  0  0999 V2000
  -22.9499  -37.4062  -10.2601 C   0  0  0  0  0  0  0  0  0  0  0  0
  -22.7669  -37.8956   -8.8605 C   0  0  0  0  0  0  0  0  0  0  0  0
  -22.5124  -36.6818   -7.9481 C   0  0  0  0  0  0  0  0  0  0  0  0
  -21.6442  -38.8655   -8.7164 C   0  0  0  0  0  0  0  0  0  0  0  0
  -20.9865  -39.0126   -7.4883 C   0  0  0  0  0  0  0  0  0  0  0  0
  -19.9688  -39.9127   -7.3322 C   0  0  0  0  0  0  0  0  0  0  0  0
  -19.6122  -40.6650   -8.4143 C   0  0  0  0  0  0  0  0  0  0  0  0
  -20.2396  -40.5428   -9.6362 C   0  0  0  0  0  0  0  0  0  0  0  0
  -21.2796  -39.6235   -9.7936 C   0  0  0  0  0  0  0  0  0  0  0  0
  -19.2966  -40.0465   -6.0089 C   0  0  0  0  0  0  0  0  0  0  0  0
  -19.1035  -41.4928   -5.5276 C   0  0  0  0  0  0  0  0  0  0  0  0
  -20.0959  -40.5753   -4.8850 C   0  0  0  0  0  0  0  0  0  0  0  0
  -18.1264  -39.2387   -5.7520 N   0  0  0  0  0  0  0  0  0  0  0  0
  -17.8483  -38.3091   -6.7915 C   0  0  0  0  0  0  0  0  0  0  0  0
  -16.4026  -38.3338   -7.2870 C   0  0  1  0  0  0  0  0  0  0  0  0
  -15.5343  -38.5375   -6.2122 O   0  0  0  0  0  0  0  0  0  0  0  0
  -16.3095  -39.5123   -8.2009 C   0  0  2  0  0  0  0  0  0  0  0  0
  -16.9380  -39.3808   -9.5357 C   0  0  0  0  0  0  0  0  0  0  0  0
  -16.1671  -38.6613  -10.6016 C   0  0  0  0  0  0  0  0  0  0  0  0
  -14.9580  -38.9408  -11.1659 C   0  0  0  0  0  0  0  0  0  0  0  0
  -14.4698  -38.1079  -12.1547 C   0  0  0  0  0  0  0  0  0  0  0  0
  -15.2345  -36.9935  -12.5498 C   0  0  0  0  0  0  0  0  0  0  0  0
  -16.4519  -36.6678  -12.0172 C   0  0  0  0  0  0  0  0  0  0  0  0
  -16.8848  -37.5319  -11.0412 C   0  0  0  0  0  0  0  0  0  0  0  0
  -13.2901  -38.1966  -12.8543 O   0  0  0  0  0  0  0  0  0  0  0  0
  -12.5958  -39.0749  -13.6398 C   0  0  0  0  0  0  0  0  0  0  0  0
  -11.7021  -40.0449  -12.9409 C   0  0  0  0  0  0  0  0  0  0  0  0
  -12.2045  -41.4250  -12.7793 C   0  0  0  0  0  0  0  0  0  0  0  0
  -11.7989  -42.0974  -11.4951 C   0  0  0  0  0  0  0  0  0  0  0  0
  -12.7691  -43.1444  -11.2311 N   0  0  0  0  0  0  0  0  0  0  0  0
  -14.0711  -43.1052  -10.6423 C   0  0  0  0  0  0  0  0  0  0  0  0
  -14.9394  -43.9363  -11.4028 C   0  0  0  0  0  0  0  0  0  0  0  0
  -16.2602  -44.1195  -11.1148 C   0  0  0  0  0  0  0  0  0  0  0  0
  -16.7171  -43.4383  -10.0202 C   0  0  0  0  0  0  0  0  0  0  0  0
  -15.8989  -42.5943   -9.2217 C   0  0  0  0  0  0  0  0  0  0  0  0
  -14.5671  -42.4376   -9.5476 C   0  0  0  0  0  0  0  0  0  0  0  0
  -16.7076  -42.0230   -8.1321 C   0  0  0  0  0  0  0  0  0  0  0  0
  -17.5590  -42.8463   -7.5523 O   0  0  0  0  0  0  0  0  0  0  0  0
  -16.7783  -40.7452   -7.5531 N   0  0  0  0  0  0  0  0  0  0  0  0
  -17.1171  -44.9872  -11.9160 C   0  0  0  0  0  0  0  0  0  0  0  0
  -18.5186  -45.2714  -11.5480 C   0  0  0  0  0  0  0  0  0  0  0  0
  -16.5844  -45.4896  -12.9603 O   0  0  0  0  0  0  0  0  0  0  0  0
  1  2  1  0
  2  3  1  0
  2  4  1  0
  4  5  2  0
  5  6  1  0
  6  7  2  0
  7  8  1  0
  8  9  2  0
  6 10  1  0
 10 11  1  0
 11 12  1  0
 10 13  1  0
 13 14  1  0
 14 15  1  0
 15 16  1  1
 15 17  1  0
 17 18  1  6
 18 19  1  0
 19 20  2  0
 20 21  1  0
 21 22  2  0
 22 23  1  0
 23 24  2  0
 21 25  1  0
 25 26  1  0
 26 27  1  0
 27 28  1  0
 28 29  1  0
 29 30  1  0
 30 31  1  0
 31 32  2  0
 32 33  1  0
 33 34  2  0
 34 35  1  0
 35 36  2  0
 35 37  1  0
 37 38  2  0
 37 39  1  0
 33 40  1  0
 40 41  1  0
 40 42  2  0
  9  4  1  0
 12 10  1  0
 24 19  1  0
 36 31  1  0
 39 17  1  0
M  END
$$$$
