
     RDKit          3D

 42 46  0  0  0  0  0  0  0  0999 V2000
  -13.8423  -35.7139  -13.2796 C   0  0  0  0  0  0  0  0  0  0  0  0
  -15.2445  -36.0348  -12.8762 C   0  0  0  0  0  0  0  0  0  0  0  0
  -15.7018  -34.9988  -11.8332 C   0  0  0  0  0  0  0  0  0  0  0  0
  -15.3968  -37.4054  -12.3105 C   0  0  0  0  0  0  0  0  0  0  0  0
  -14.7089  -37.7736  -11.1471 C   0  0  0  0  0  0  0  0  0  0  0  0
  -14.8532  -39.0196  -10.6021 C   0  0  0  0  0  0  0  0  0  0  0  0
  -15.6904  -39.8964  -11.2301 C   0  0  0  0  0  0  0  0  0  0  0  0
  -16.3807  -39.5642  -12.3768 C   0  0  0  0  0  0  0  0  0  0  0  0
  -16.2327  -38.2906  -12.9315 C   0  0  0  0  0  0  0  0  0  0  0  0
  -14.1104  -39.3737   -9.3597 C   0  0  0  0  0  0  0  0  0  0  0  0
  -12.6810  -38.8157   -9.2825 C   0  0  0  0  0  0  0  0  0  0  0  0
  -12.9465  -40.2737   -9.4906 C   0  0  0  0  0  0  0  0  0  0  0  0
  -14.7982  -39.2541   -8.0946 N   0  0  0  0  0  0  0  0  0  0  0  0
  -15.9422  -38.4117   -8.1565 C   0  0  0  0  0  0  0  0  0  0  0  0
  -16.9010  -38.5654   -6.9762 C   0  0  1  0  0  0  0  0  0  0  0  0
  -17.9070  -37.5997   -7.0510 O   0  0  0  0  0  0  0  0  0  0  0  0
  -17.5256  -39.9134   -7.1369 C   0  0  2  0  0  0  0  0  0  0  0  0
  -18.2933  -40.4415   -5.9855 C   0  0  0  0  0  0  0  0  0  0  0  0
  -19.7009  -39.9576   -5.8050 C   0  0  0  0  0  0  0  0  0  0  0  0
  -20.7894  -40.0667   -6.6186 C   0  0  0  0  0  0  0  0  0  0  0  0
  -21.9947  -39.5337   -6.2028 C   0  0  0  0  0  0  0  0  0  0  0  0
  -22.0636  -38.8916   -4.9515 C   0  0  0  0  0  0  0  0  0  0  0  0
  -21.0035  -38.7546   -4.0976 C   0  0  0  0  0  0  0  0  0  0  0  0
  -19.8345  -39.3045   -4.5642 C   0  0  0  0  0  0  0  0  0  0  0  0
  -23.2065  -39.5282   -6.8512 O   0  0  0  0  0  0  0  0  0  0  0  0
  -24.1025  -40.3944   -7.4147 C   0  0  0  0  0  0  0  0  0  0  0  0
  -23.8772  -40.7645   -8.8431 C   0  0  0  0  0  0  0  0  0  0  0  0
  -23.2607  -42.0811   -9.1066 C   0  0  0  0  0  0  0  0  0  0  0  0
  -22.3305  -42.1163  -10.2896 C   0  0  0  0  0  0  0  0  0  0  0  0
  -21.4216  -43.2306  -10.0906 N   0  0  0  0  0  0  0  0  0  0  0  0
  -20.2258  -43.3536   -9.3172 C   0  0  0  0  0  0  0  0  0  0  0  0
  -20.2459  -44.6067   -8.6446 C   0  0  0  0  0  0  0  0  0  0  0  0
  -19.2532  -45.0392   -7.8149 C   0  0  0  0  0  0  0  0  0  0  0  0
  -18.2051  -44.1740   -7.6610 C   0  0  0  0  0  0  0  0  0  0  0  0
  -18.1281  -42.9100   -8.3057 C   0  0  0  0  0  0  0  0  0  0  0  0
  -19.1540  -42.5113   -9.1383 C   0  0  0  0  0  0  0  0  0  0  0  0
  -16.8734  -42.2433   -7.9199 C   0  0  0  0  0  0  0  0  0  0  0  0
  -15.8046  -43.0134   -7.8619 O   0  0  0  0  0  0  0  0  0  0  0  0
  -16.5508  -40.9182   -7.5837 N   0  0  0  0  0  0  0  0  0  0  0  0
  -19.3075  -46.3362   -7.1485 C   0  0  0  0  0  0  0  0  0  0  0  0
  -18.1053  -46.9910   -6.5952 C   0  0  0  0  0  0  0  0  0  0  0  0
  -20.4601  -46.8764   -7.0692 O   0  0  0  0  0  0  0  0  0  0  0  0
  1  2  1  0
  2  3  1  0
  2  4  1  0
  4  5  2  0
  5  6  1  0
  6  7  2  0
  7  8  1  0
  8  9  2  0
  6 10  1  0
 10 11  1  0
 11 12  1  0
 10 13  1  0
 13 14  1  0
 14 15  1  0
 15 16  1  6
 15 17  1  0
 17 18  1  1
 18 19  1  0
 19 20  2  0
 20 21  1  0
 21 22  2  0
 22 23  1  0
 23 24  2  0
 21 25  1  0
 25 26  1  0
 26 27  1  0
 27 28  1  0
 28 29  1  0
 29 30  1  0
 30 31  1  0
 31 32  2  0
 32 33  1  0
 33 34  2  0
 34 35  1  0
 35 36  2  0
 35 37  1  0
 37 38  2  0
 37 39  1  0
 33 40  1  0
 40 41  1  0
 40 42  2  0
  9  4  1  0
 12 10  1  0
 24 19  1  0
 36 31  1  0
 39 17  1  0
M  END
$$$$
