
     RDKit          3D

 42 46  0  0  0  0  0  0  0  0999 V2000
  -10.8587  -40.4321  -11.3249 C   0  0  0  0  0  0  0  0  0  0  0  0
  -12.2171  -40.2546  -10.7289 C   0  0  0  0  0  0  0  0  0  0  0  0
  -12.8955  -41.6338  -10.6404 C   0  0  0  0  0  0  0  0  0  0  0  0
  -13.0860  -39.3259  -11.5063 C   0  0  0  0  0  0  0  0  0  0  0  0
  -14.2058  -38.7337  -10.9082 C   0  0  0  0  0  0  0  0  0  0  0  0
  -15.0018  -37.8628  -11.5996 C   0  0  0  0  0  0  0  0  0  0  0  0
  -14.6705  -37.5886  -12.8954 C   0  0  0  0  0  0  0  0  0  0  0  0
  -13.5754  -38.1560  -13.5123 C   0  0  0  0  0  0  0  0  0  0  0  0
  -12.7628  -39.0446  -12.8040 C   0  0  0  0  0  0  0  0  0  0  0  0
  -16.1813  -37.2469  -10.9285 C   0  0  0  0  0  0  0  0  0  0  0  0
  -17.3423  -36.8872  -11.8683 C   0  0  0  0  0  0  0  0  0  0  0  0
  -16.4852  -35.8349  -11.2376 C   0  0  0  0  0  0  0  0  0  0  0  0
  -16.6551  -37.8402   -9.6991 N   0  0  0  0  0  0  0  0  0  0  0  0
  -18.0231  -37.5581   -9.4320 C   0  0  0  0  0  0  0  0  0  0  0  0
  -18.4329  -37.7572   -7.9731 C   0  0  1  0  0  0  0  0  0  0  0  0
  -19.6797  -37.1711   -7.7444 O   0  0  0  0  0  0  0  0  0  0  0  0
  -18.5631  -39.2344   -7.7886 C   0  0  2  0  0  0  0  0  0  0  0  0
  -18.7192  -39.7287   -6.4010 C   0  0  0  0  0  0  0  0  0  0  0  0
  -20.0861  -39.6657   -5.7881 C   0  0  0  0  0  0  0  0  0  0  0  0
  -21.2559  -40.2577   -6.1620 C   0  0  0  0  0  0  0  0  0  0  0  0
  -22.3906  -40.0411   -5.4036 C   0  0  0  0  0  0  0  0  0  0  0  0
  -22.3064  -39.2136   -4.2673 C   0  0  0  0  0  0  0  0  0  0  0  0
  -21.1597  -38.5962   -3.8483 C   0  0  0  0  0  0  0  0  0  0  0  0
  -20.0664  -38.8497   -4.6402 C   0  0  0  0  0  0  0  0  0  0  0  0
  -23.6612  -40.5304   -5.5906 O   0  0  0  0  0  0  0  0  0  0  0  0
  -24.3207  -41.7203   -5.7309 C   0  0  0  0  0  0  0  0  0  0  0  0
  -24.4136  -42.2823   -7.1107 C   0  0  0  0  0  0  0  0  0  0  0  0
  -23.4824  -43.3767   -7.4544 C   0  0  0  0  0  0  0  0  0  0  0  0
  -22.9938  -43.3650   -8.8781 C   0  0  0  0  0  0  0  0  0  0  0  0
  -21.7367  -44.0904   -8.9087 N   0  0  0  0  0  0  0  0  0  0  0  0
  -20.4021  -43.6905   -8.5890 C   0  0  0  0  0  0  0  0  0  0  0  0
  -19.7817  -44.7310   -7.8436 C   0  0  0  0  0  0  0  0  0  0  0  0
  -18.5024  -44.6698   -7.3739 C   0  0  0  0  0  0  0  0  0  0  0  0
  -17.8288  -43.5164   -7.6687 C   0  0  0  0  0  0  0  0  0  0  0  0
  -18.3942  -42.4431   -8.4087 C   0  0  0  0  0  0  0  0  0  0  0  0
  -19.6920  -42.5465   -8.8666 C   0  0  0  0  0  0  0  0  0  0  0  0
  -17.3988  -41.3664   -8.5409 C   0  0  0  0  0  0  0  0  0  0  0  0
  -16.1620  -41.7508   -8.7887 O   0  0  0  0  0  0  0  0  0  0  0  0
  -17.4770  -39.9666   -8.4549 N   0  0  0  0  0  0  0  0  0  0  0  0
  -17.8988  -45.7626   -6.6187 C   0  0  0  0  0  0  0  0  0  0  0  0
  -16.4604  -45.7934   -6.2863 C   0  0  0  0  0  0  0  0  0  0  0  0
  -18.6890  -46.6966   -6.2580 O   0  0  0  0  0  0  0  0  0  0  0  0
  1  2  1  0
  2  3  1  0
  2  4  1  0
  4  5  2  0
  5  6  1  0
  6  7  2  0
  7  8  1  0
  8  9  2  0
  6 10  1  0
 10 11  1  0
 11 12  1  0
 10 13  1  0
 13 14  1  0
 14 15  1  0
 15 16  1  6
 15 17  1  0
 17 18  1  1
 18 19  1  0
 19 20  2  0
 20 21  1  0
 21 22  2  0
 22 23  1  0
 23 24  2  0
 21 25  1  0
 25 26  1  0
 26 27  1  0
 27 28  1  0
 28 29  1  0
 29 30  1  0
 30 31  1  0
 31 32  2  0
 32 33  1  0
 33 34  2  0
 34 35  1  0
 35 36  2  0
 35 37  1  0
 37 38  2  0
 37 39  1  0
 33 40  1  0
 40 41  1  0
 40 42  2  0
  9  4  1  0
 12 10  1  0
 24 19  1  0
 36 31  1  0
 39 17  1  0
M  END
$$$$
