
     RDKit          3D

 42 46  0  0  0  0  0  0  0  0999 V2000
  -24.1689  -40.9852   -4.6862 C   0  0  0  0  0  0  0  0  0  0  0  0
  -23.7859  -41.5504   -6.0150 C   0  0  0  0  0  0  0  0  0  0  0  0
  -23.0335  -42.8736   -5.7843 C   0  0  0  0  0  0  0  0  0  0  0  0
  -22.9340  -40.6325   -6.8234 C   0  0  0  0  0  0  0  0  0  0  0  0
  -21.7056  -40.1804   -6.3244 C   0  0  0  0  0  0  0  0  0  0  0  0
  -20.9013  -39.3551   -7.0608 C   0  0  0  0  0  0  0  0  0  0  0  0
  -21.3350  -38.9836   -8.3010 C   0  0  0  0  0  0  0  0  0  0  0  0
  -22.5392  -39.4110   -8.8196 C   0  0  0  0  0  0  0  0  0  0  0  0
  -23.3590  -40.2548   -8.0662 C   0  0  0  0  0  0  0  0  0  0  0  0
  -19.5979  -38.8996   -6.5000 C   0  0  0  0  0  0  0  0  0  0  0  0
  -19.0325  -39.7877   -5.3809 C   0  0  0  0  0  0  0  0  0  0  0  0
  -19.5828  -38.4243   -5.1015 C   0  0  0  0  0  0  0  0  0  0  0  0
  -18.5661  -38.4816   -7.4211 N   0  0  0  0  0  0  0  0  0  0  0  0
  -17.3260  -38.2023   -6.7837 C   0  0  0  0  0  0  0  0  0  0  0  0
  -16.1179  -38.2291   -7.7196 C   0  0  1  0  0  0  0  0  0  0  0  0
  -14.9375  -38.2362   -6.9734 O   0  0  0  0  0  0  0  0  0  0  0  0
  -16.2142  -39.5202   -8.4658 C   0  0  2  0  0  0  0  0  0  0  0  0
  -16.6787  -39.4532   -9.8707 C   0  0  0  0  0  0  0  0  0  0  0  0
  -15.6759  -39.0753  -10.9194 C   0  0  0  0  0  0  0  0  0  0  0  0
  -14.5168  -39.6832  -11.3007 C   0  0  0  0  0  0  0  0  0  0  0  0
  -13.7694  -39.1247  -12.3201 C   0  0  0  0  0  0  0  0  0  0  0  0
  -14.2257  -37.9428  -12.9346 C   0  0  0  0  0  0  0  0  0  0  0  0
  -15.3797  -37.2931  -12.5912 C   0  0  0  0  0  0  0  0  0  0  0  0
  -16.0794  -37.8953  -11.5741 C   0  0  0  0  0  0  0  0  0  0  0  0
  -12.5841  -39.5615  -12.8615 O   0  0  0  0  0  0  0  0  0  0  0  0
  -12.0404  -40.6712  -13.4477 C   0  0  0  0  0  0  0  0  0  0  0  0
  -11.4527  -41.6969  -12.5362 C   0  0  0  0  0  0  0  0  0  0  0  0
  -12.2656  -42.9010  -12.2670 C   0  0  0  0  0  0  0  0  0  0  0  0
  -12.1350  -43.4509  -10.8719 C   0  0  0  0  0  0  0  0  0  0  0  0
  -13.3356  -44.2191  -10.5968 N   0  0  0  0  0  0  0  0  0  0  0  0
  -14.6412  -43.8203  -10.1728 C   0  0  0  0  0  0  0  0  0  0  0  0
  -15.6053  -44.5498  -10.9221 C   0  0  0  0  0  0  0  0  0  0  0  0
  -16.9532  -44.4054  -10.7697 C   0  0  0  0  0  0  0  0  0  0  0  0
  -17.3378  -43.4917   -9.8272 C   0  0  0  0  0  0  0  0  0  0  0  0
  -16.4227  -42.7337   -9.0479 C   0  0  0  0  0  0  0  0  0  0  0  0
  -15.0667  -42.9115   -9.2331 C   0  0  0  0  0  0  0  0  0  0  0  0
  -17.1730  -41.8526   -8.1378 C   0  0  0  0  0  0  0  0  0  0  0  0
  -18.2352  -42.3841   -7.5649 O   0  0  0  0  0  0  0  0  0  0  0  0
  -17.0035  -40.5187   -7.7313 N   0  0  0  0  0  0  0  0  0  0  0  0
  -17.9111  -45.1785  -11.5532 C   0  0  0  0  0  0  0  0  0  0  0  0
  -19.3519  -45.2100  -11.2320 C   0  0  0  0  0  0  0  0  0  0  0  0
  -17.4309  -45.8298  -12.5391 O   0  0  0  0  0  0  0  0  0  0  0  0
  1  2  1  0
  2  3  1  0
  2  4  1  0
  4  5  2  0
  5  6  1  0
  6  7  2  0
  7  8  1  0
  8  9  2  0
  6 10  1  0
 10 11  1  0
 11 12  1  0
 10 13  1  0
 13 14  1  0
 14 15  1  0
 15 16  1  1
 15 17  1  0
 17 18  1  6
 18 19  1  0
 19 20  2  0
 20 21  1  0
 21 22  2  0
 22 23  1  0
 23 24  2  0
 21 25  1  0
 25 26  1  0
 26 27  1  0
 27 28  1  0
 28 29  1  0
 29 30  1  0
 30 31  1  0
 31 32  2  0
 32 33  1  0
 33 34  2  0
 34 35  1  0
 35 36  2  0
 35 37  1  0
 37 38  2  0
 37 39  1  0
 33 40  1  0
 40 41  1  0
 40 42  2  0
  9  4  1  0
 12 10  1  0
 24 19  1  0
 36 31  1  0
 39 17  1  0
M  END
$$$$
