
     RDKit          3D

 42 46  0  0  0  0  0  0  0  0999 V2000
  -24.7925  -40.0631   -8.8478 C   0  0  0  0  0  0  0  0  0  0  0  0
  -23.5674  -40.8807   -8.5976 C   0  0  0  0  0  0  0  0  0  0  0  0
  -23.9797  -42.3608   -8.4991 C   0  0  0  0  0  0  0  0  0  0  0  0
  -22.8385  -40.4877   -7.3582 C   0  0  0  0  0  0  0  0  0  0  0  0
  -21.6364  -39.7728   -7.4382 C   0  0  0  0  0  0  0  0  0  0  0  0
  -20.9652  -39.3854   -6.3113 C   0  0  0  0  0  0  0  0  0  0  0  0
  -21.5045  -39.7193   -5.1023 C   0  0  0  0  0  0  0  0  0  0  0  0
  -22.6853  -40.4230   -4.9907 C   0  0  0  0  0  0  0  0  0  0  0  0
  -23.3700  -40.8170   -6.1429 C   0  0  0  0  0  0  0  0  0  0  0  0
  -19.6925  -38.6202   -6.4352 C   0  0  0  0  0  0  0  0  0  0  0  0
  -18.6435  -38.9359   -5.3579 C   0  0  0  0  0  0  0  0  0  0  0  0
  -19.3810  -37.6340   -5.3806 C   0  0  0  0  0  0  0  0  0  0  0  0
  -19.0924  -38.4989   -7.7440 N   0  0  0  0  0  0  0  0  0  0  0  0
  -17.6722  -38.5665   -7.7174 C   0  0  0  0  0  0  0  0  0  0  0  0
  -17.0628  -39.4253   -8.8251 C   0  0  1  0  0  0  0  0  0  0  0  0
  -15.7177  -39.6775   -8.5466 O   0  0  0  0  0  0  0  0  0  0  0  0
  -17.8056  -40.7213   -8.7857 C   0  0  2  0  0  0  0  0  0  0  0  0
  -18.3489  -41.2255  -10.0682 C   0  0  0  0  0  0  0  0  0  0  0  0
  -17.4093  -41.9448  -10.9888 C   0  0  0  0  0  0  0  0  0  0  0  0
  -16.6915  -43.0898  -10.8089 C   0  0  0  0  0  0  0  0  0  0  0  0
  -15.8955  -43.5524  -11.8396 C   0  0  0  0  0  0  0  0  0  0  0  0
  -15.8474  -42.8268  -13.0454 C   0  0  0  0  0  0  0  0  0  0  0  0
  -16.5464  -41.6740  -13.2782 C   0  0  0  0  0  0  0  0  0  0  0  0
  -17.3196  -41.2650  -12.2191 C   0  0  0  0  0  0  0  0  0  0  0  0
  -15.0968  -44.6701  -11.8795 O   0  0  0  0  0  0  0  0  0  0  0  0
  -15.1720  -46.0242  -11.7025 C   0  0  0  0  0  0  0  0  0  0  0  0
  -15.0002  -46.5338  -10.3100 C   0  0  0  0  0  0  0  0  0  0  0  0
  -16.2260  -46.9139   -9.5778 C   0  0  0  0  0  0  0  0  0  0  0  0
  -16.1947  -46.6218   -8.1015 C   0  0  0  0  0  0  0  0  0  0  0  0
  -17.5714  -46.5153   -7.6535 N   0  0  0  0  0  0  0  0  0  0  0  0
  -18.5072  -45.4363   -7.7105 C   0  0  0  0  0  0  0  0  0  0  0  0
  -19.7731  -45.9523   -8.1032 C   0  0  0  0  0  0  0  0  0  0  0  0
  -20.8903  -45.1853   -8.2602 C   0  0  0  0  0  0  0  0  0  0  0  0
  -20.7199  -43.8512   -8.0114 C   0  0  0  0  0  0  0  0  0  0  0  0
  -19.4815  -43.2772   -7.6162 C   0  0  0  0  0  0  0  0  0  0  0  0
  -18.3758  -44.0895   -7.4678 C   0  0  0  0  0  0  0  0  0  0  0  0
  -19.6545  -41.8264   -7.4340 C   0  0  0  0  0  0  0  0  0  0  0  0
  -20.7692  -41.4480   -6.8399 O   0  0  0  0  0  0  0  0  0  0  0  0
  -18.8663  -40.7130   -7.7687 N   0  0  0  0  0  0  0  0  0  0  0  0
  -22.1738  -45.7542   -8.6577 C   0  0  0  0  0  0  0  0  0  0  0  0
  -23.3324  -44.9135   -9.0197 C   0  0  0  0  0  0  0  0  0  0  0  0
  -22.2395  -47.0278   -8.6759 O   0  0  0  0  0  0  0  0  0  0  0  0
  1  2  1  0
  2  3  1  0
  2  4  1  0
  4  5  2  0
  5  6  1  0
  6  7  2  0
  7  8  1  0
  8  9  2  0
  6 10  1  0
 10 11  1  0
 11 12  1  0
 10 13  1  0
 13 14  1  0
 14 15  1  0
 15 16  1  1
 15 17  1  0
 17 18  1  6
 18 19  1  0
 19 20  2  0
 20 21  1  0
 21 22  2  0
 22 23  1  0
 23 24  2  0
 21 25  1  0
 25 26  1  0
 26 27  1  0
 27 28  1  0
 28 29  1  0
 29 30  1  0
 30 31  1  0
 31 32  2  0
 32 33  1  0
 33 34  2  0
 34 35  1  0
 35 36  2  0
 35 37  1  0
 37 38  2  0
 37 39  1  0
 33 40  1  0
 40 41  1  0
 40 42  2  0
  9  4  1  0
 12 10  1  0
 24 19  1  0
 36 31  1  0
 39 17  1  0
M  END
$$$$
