
     RDKit          3D

 42 46  0  0  0  0  0  0  0  0999 V2000
  -20.8556  -44.2323   -9.1353 C   0  0  0  0  0  0  0  0  0  0  0  0
  -20.9981  -43.3957   -7.9059 C   0  0  0  0  0  0  0  0  0  0  0  0
  -22.2931  -43.8076   -7.1823 C   0  0  0  0  0  0  0  0  0  0  0  0
  -21.0343  -41.9326   -8.1885 C   0  0  0  0  0  0  0  0  0  0  0  0
  -20.5789  -41.0138   -7.2341 C   0  0  0  0  0  0  0  0  0  0  0  0
  -20.5849  -39.6694   -7.4845 C   0  0  0  0  0  0  0  0  0  0  0  0
  -21.0509  -39.2494   -8.6971 C   0  0  0  0  0  0  0  0  0  0  0  0
  -21.5066  -40.1287   -9.6567 C   0  0  0  0  0  0  0  0  0  0  0  0
  -21.4988  -41.5019   -9.3995 C   0  0  0  0  0  0  0  0  0  0  0  0
  -20.0865  -38.7220   -6.4477 C   0  0  0  0  0  0  0  0  0  0  0  0
  -20.8162  -38.8019   -5.0980 C   0  0  0  0  0  0  0  0  0  0  0  0
  -20.9922  -37.6363   -6.0200 C   0  0  0  0  0  0  0  0  0  0  0  0
  -18.6583  -38.5879   -6.2743 N   0  0  0  0  0  0  0  0  0  0  0  0
  -18.0321  -37.8632   -7.3253 C   0  0  0  0  0  0  0  0  0  0  0  0
  -16.5874  -38.2785   -7.6017 C   0  0  1  0  0  0  0  0  0  0  0  0
  -15.9228  -38.5205   -6.3974 O   0  0  0  0  0  0  0  0  0  0  0  0
  -16.6750  -39.5628   -8.3606 C   0  0  2  0  0  0  0  0  0  0  0  0
  -17.2241  -39.4971   -9.7347 C   0  0  0  0  0  0  0  0  0  0  0  0
  -16.3013  -39.0644  -10.8344 C   0  0  0  0  0  0  0  0  0  0  0  0
  -15.1429  -39.6188  -11.2921 C   0  0  0  0  0  0  0  0  0  0  0  0
  -14.4804  -39.0167  -12.3449 C   0  0  0  0  0  0  0  0  0  0  0  0
  -15.0199  -37.8469  -12.9135 C   0  0  0  0  0  0  0  0  0  0  0  0
  -16.1771  -37.2501  -12.4932 C   0  0  0  0  0  0  0  0  0  0  0  0
  -16.7904  -37.8938  -11.4462 C   0  0  0  0  0  0  0  0  0  0  0  0
  -13.3124  -39.3969  -12.9613 O   0  0  0  0  0  0  0  0  0  0  0  0
  -12.7596  -40.4755  -13.5951 C   0  0  0  0  0  0  0  0  0  0  0  0
  -12.0778  -41.4875  -12.7354 C   0  0  0  0  0  0  0  0  0  0  0  0
  -12.8237  -42.7276  -12.4375 C   0  0  0  0  0  0  0  0  0  0  0  0
  -12.5886  -43.2895  -11.0610 C   0  0  0  0  0  0  0  0  0  0  0  0
  -13.7386  -44.1104  -10.7279 N   0  0  0  0  0  0  0  0  0  0  0  0
  -15.0320  -43.7716  -10.2222 C   0  0  0  0  0  0  0  0  0  0  0  0
  -16.0083  -44.5308  -10.9248 C   0  0  0  0  0  0  0  0  0  0  0  0
  -17.3496  -44.4444  -10.6916 C   0  0  0  0  0  0  0  0  0  0  0  0
  -17.7146  -43.5597   -9.7144 C   0  0  0  0  0  0  0  0  0  0  0  0
  -16.7867  -42.7745   -8.9785 C   0  0  0  0  0  0  0  0  0  0  0  0
  -15.4379  -42.8934   -9.2454 C   0  0  0  0  0  0  0  0  0  0  0  0
  -17.5171  -41.9370   -8.0127 C   0  0  0  0  0  0  0  0  0  0  0  0
  -18.5211  -42.5194   -7.3868 O   0  0  0  0  0  0  0  0  0  0  0  0
  -17.3783  -40.6026   -7.5965 N   0  0  0  0  0  0  0  0  0  0  0  0
  -18.3198  -45.2465  -11.4295 C   0  0  0  0  0  0  0  0  0  0  0  0
  -19.7600  -45.2412  -11.1038 C   0  0  0  0  0  0  0  0  0  0  0  0
  -17.8512  -45.9571  -12.3793 O   0  0  0  0  0  0  0  0  0  0  0  0
  1  2  1  0
  2  3  1  0
  2  4  1  0
  4  5  2  0
  5  6  1  0
  6  7  2  0
  7  8  1  0
  8  9  2  0
  6 10  1  0
 10 11  1  0
 11 12  1  0
 10 13  1  0
 13 14  1  0
 14 15  1  0
 15 16  1  1
 15 17  1  0
 17 18  1  6
 18 19  1  0
 19 20  2  0
 20 21  1  0
 21 22  2  0
 22 23  1  0
 23 24  2  0
 21 25  1  0
 25 26  1  0
 26 27  1  0
 27 28  1  0
 28 29  1  0
 29 30  1  0
 30 31  1  0
 31 32  2  0
 32 33  1  0
 33 34  2  0
 34 35  1  0
 35 36  2  0
 35 37  1  0
 37 38  2  0
 37 39  1  0
 33 40  1  0
 40 41  1  0
 40 42  2  0
  9  4  1  0
 12 10  1  0
 24 19  1  0
 36 31  1  0
 39 17  1  0
M  END
$$$$
