
     RDKit          3D

 42 46  0  0  0  0  0  0  0  0999 V2000
  -25.0260  -38.4745   -5.3307 C   0  0  0  0  0  0  0  0  0  0  0  0
  -24.7537  -39.3553   -6.5062 C   0  0  0  0  0  0  0  0  0  0  0  0
  -25.5202  -40.6767   -6.3142 C   0  0  0  0  0  0  0  0  0  0  0  0
  -23.3053  -39.6486   -6.7010 C   0  0  0  0  0  0  0  0  0  0  0  0
  -22.5361  -40.1577   -5.6468 C   0  0  0  0  0  0  0  0  0  0  0  0
  -21.2111  -40.4526   -5.8135 C   0  0  0  0  0  0  0  0  0  0  0  0
  -20.6596  -40.2334   -7.0431 C   0  0  0  0  0  0  0  0  0  0  0  0
  -21.3901  -39.7325   -8.1001 C   0  0  0  0  0  0  0  0  0  0  0  0
  -22.7437  -39.4328   -7.9281 C   0  0  0  0  0  0  0  0  0  0  0  0
  -20.4258  -40.9991   -4.6709 C   0  0  0  0  0  0  0  0  0  0  0  0
  -21.0100  -42.2713   -4.0377 C   0  0  0  0  0  0  0  0  0  0  0  0
  -21.0444  -40.9529   -3.3304 C   0  0  0  0  0  0  0  0  0  0  0  0
  -18.9897  -41.0824   -4.8064 N   0  0  0  0  0  0  0  0  0  0  0  0
  -18.3820  -39.8324   -5.1069 C   0  0  0  0  0  0  0  0  0  0  0  0
  -18.4443  -39.4418   -6.5832 C   0  0  1  0  0  0  0  0  0  0  0  0
  -17.3510  -38.6362   -6.9092 O   0  0  0  0  0  0  0  0  0  0  0  0
  -18.3324  -40.7227   -7.3445 C   0  0  2  0  0  0  0  0  0  0  0  0
  -19.1925  -40.8724   -8.5411 C   0  0  0  0  0  0  0  0  0  0  0  0
  -18.7326  -40.2295   -9.8152 C   0  0  0  0  0  0  0  0  0  0  0  0
  -17.6097  -40.4364  -10.5601 C   0  0  0  0  0  0  0  0  0  0  0  0
  -17.4289  -39.7063  -11.7195 C   0  0  0  0  0  0  0  0  0  0  0  0
  -18.4089  -38.7684  -12.0972 C   0  0  0  0  0  0  0  0  0  0  0  0
  -19.5522  -38.5220  -11.3873 C   0  0  0  0  0  0  0  0  0  0  0  0
  -19.6767  -39.2776  -10.2471 C   0  0  0  0  0  0  0  0  0  0  0  0
  -16.3866  -39.7499  -12.6142 O   0  0  0  0  0  0  0  0  0  0  0  0
  -15.7126  -40.6418  -13.4021 C   0  0  0  0  0  0  0  0  0  0  0  0
  -14.5767  -41.3764  -12.7710 C   0  0  0  0  0  0  0  0  0  0  0  0
  -14.8304  -42.7688  -12.3465 C   0  0  0  0  0  0  0  0  0  0  0  0
  -14.1144  -43.1851  -11.0896 C   0  0  0  0  0  0  0  0  0  0  0  0
  -14.8563  -44.2941  -10.5177 N   0  0  0  0  0  0  0  0  0  0  0  0
  -16.0292  -44.3310   -9.7014 C   0  0  0  0  0  0  0  0  0  0  0  0
  -16.8795  -45.3688  -10.1735 C   0  0  0  0  0  0  0  0  0  0  0  0
  -18.0887  -45.6711   -9.6190 C   0  0  0  0  0  0  0  0  0  0  0  0
  -18.4490  -44.8965   -8.5508 C   0  0  0  0  0  0  0  0  0  0  0  0
  -17.6429  -43.8466   -8.0337 C   0  0  0  0  0  0  0  0  0  0  0  0
  -16.4255  -43.5746   -8.6240 C   0  0  0  0  0  0  0  0  0  0  0  0
  -18.3300  -43.2247   -6.8897 C   0  0  0  0  0  0  0  0  0  0  0  0
  -18.9358  -44.0522   -6.0608 O   0  0  0  0  0  0  0  0  0  0  0  0
  -18.4923  -41.8937   -6.4712 N   0  0  0  0  0  0  0  0  0  0  0  0
  -18.9294  -46.7495  -10.1283 C   0  0  0  0  0  0  0  0  0  0  0  0
  -20.3561  -46.8757   -9.7694 C   0  0  0  0  0  0  0  0  0  0  0  0
  -18.3591  -47.5828  -10.9075 O   0  0  0  0  0  0  0  0  0  0  0  0
  1  2  1  0
  2  3  1  0
  2  4  1  0
  4  5  2  0
  5  6  1  0
  6  7  2  0
  7  8  1  0
  8  9  2  0
  6 10  1  0
 10 11  1  0
 11 12  1  0
 10 13  1  0
 13 14  1  0
 14 15  1  0
 15 16  1  6
 15 17  1  0
 17 18  1  6
 18 19  1  0
 19 20  2  0
 20 21  1  0
 21 22  2  0
 22 23  1  0
 23 24  2  0
 21 25  1  0
 25 26  1  0
 26 27  1  0
 27 28  1  0
 28 29  1  0
 29 30  1  0
 30 31  1  0
 31 32  2  0
 32 33  1  0
 33 34  2  0
 34 35  1  0
 35 36  2  0
 35 37  1  0
 37 38  2  0
 37 39  1  0
 33 40  1  0
 40 41  1  0
 40 42  2  0
  9  4  1  0
 12 10  1  0
 24 19  1  0
 36 31  1  0
 39 17  1  0
M  END
$$$$
