
     RDKit          3D

 42 46  0  0  0  0  0  0  0  0999 V2000
  -20.7586  -36.9825  -10.9795 C   0  0  0  0  0  0  0  0  0  0  0  0
  -20.0263  -37.3212  -12.2368 C   0  0  0  0  0  0  0  0  0  0  0  0
  -20.2899  -38.8005  -12.5720 C   0  0  0  0  0  0  0  0  0  0  0  0
  -18.5566  -37.0901  -12.1444 C   0  0  0  0  0  0  0  0  0  0  0  0
  -17.7793  -37.8191  -11.2352 C   0  0  0  0  0  0  0  0  0  0  0  0
  -16.4266  -37.6355  -11.1517 C   0  0  0  0  0  0  0  0  0  0  0  0
  -15.8561  -36.7158  -11.9840 C   0  0  0  0  0  0  0  0  0  0  0  0
  -16.5943  -35.9821  -12.8887 C   0  0  0  0  0  0  0  0  0  0  0  0
  -17.9758  -36.1718  -12.9733 C   0  0  0  0  0  0  0  0  0  0  0  0
  -15.6309  -38.4340  -10.1770 C   0  0  0  0  0  0  0  0  0  0  0  0
  -14.1261  -38.1239  -10.1665 C   0  0  0  0  0  0  0  0  0  0  0  0
  -14.6613  -39.4076  -10.7191 C   0  0  0  0  0  0  0  0  0  0  0  0
  -16.1512  -38.5945   -8.8387 N   0  0  0  0  0  0  0  0  0  0  0  0
  -17.4790  -38.1070   -8.6918 C   0  0  0  0  0  0  0  0  0  0  0  0
  -18.0961  -38.3676   -7.3180 C   0  0  1  0  0  0  0  0  0  0  0  0
  -19.3264  -37.7144   -7.2170 O   0  0  0  0  0  0  0  0  0  0  0  0
  -18.3359  -39.8412   -7.2564 C   0  0  2  0  0  0  0  0  0  0  0  0
  -18.4361  -40.4516   -5.9105 C   0  0  0  0  0  0  0  0  0  0  0  0
  -19.7472  -40.3426   -5.1912 C   0  0  0  0  0  0  0  0  0  0  0  0
  -20.9853  -40.8050   -5.5255 C   0  0  0  0  0  0  0  0  0  0  0  0
  -22.0427  -40.5750   -4.6658 C   0  0  0  0  0  0  0  0  0  0  0  0
  -21.8111  -39.8681   -3.4702 C   0  0  0  0  0  0  0  0  0  0  0  0
  -20.5906  -39.3830   -3.0872 C   0  0  0  0  0  0  0  0  0  0  0  0
  -19.5798  -39.6431   -3.9802 C   0  0  0  0  0  0  0  0  0  0  0  0
  -23.3596  -40.9456   -4.7977 O   0  0  0  0  0  0  0  0  0  0  0  0
  -24.1241  -42.0628   -4.9923 C   0  0  0  0  0  0  0  0  0  0  0  0
  -24.3591  -42.4824   -6.4054 C   0  0  0  0  0  0  0  0  0  0  0  0
  -23.5484  -43.6074   -6.9157 C   0  0  0  0  0  0  0  0  0  0  0  0
  -23.1604  -43.4981   -8.3660 C   0  0  0  0  0  0  0  0  0  0  0  0
  -21.9734  -44.3115   -8.5575 N   0  0  0  0  0  0  0  0  0  0  0  0
  -20.5912  -44.0472   -8.3068 C   0  0  0  0  0  0  0  0  0  0  0  0
  -20.0094  -45.1982   -7.7070 C   0  0  0  0  0  0  0  0  0  0  0  0
  -18.7000  -45.2800   -7.3333 C   0  0  0  0  0  0  0  0  0  0  0  0
  -17.9547  -44.1589   -7.5750 C   0  0  0  0  0  0  0  0  0  0  0  0
  -18.4786  -42.9801   -8.1709 C   0  0  0  0  0  0  0  0  0  0  0  0
  -19.8091  -42.9398   -8.5352 C   0  0  0  0  0  0  0  0  0  0  0  0
  -17.4085  -41.9751   -8.2827 C   0  0  0  0  0  0  0  0  0  0  0  0
  -16.2282  -42.4279   -8.6580 O   0  0  0  0  0  0  0  0  0  0  0  0
  -17.3635  -40.5879   -8.0666 N   0  0  0  0  0  0  0  0  0  0  0  0
  -18.1387  -46.4827   -6.7269 C   0  0  0  0  0  0  0  0  0  0  0  0
  -16.6842  -46.7273   -6.6574 C   0  0  0  0  0  0  0  0  0  0  0  0
  -18.9808  -47.3168   -6.2560 O   0  0  0  0  0  0  0  0  0  0  0  0
  1  2  1  0
  2  3  1  0
  2  4  1  0
  4  5  2  0
  5  6  1  0
  6  7  2  0
  7  8  1  0
  8  9  2  0
  6 10  1  0
 10 11  1  0
 11 12  1  0
 10 13  1  0
 13 14  1  0
 14 15  1  0
 15 16  1  6
 15 17  1  0
 17 18  1  1
 18 19  1  0
 19 20  2  0
 20 21  1  0
 21 22  2  0
 22 23  1  0
 23 24  2  0
 21 25  1  0
 25 26  1  0
 26 27  1  0
 27 28  1  0
 28 29  1  0
 29 30  1  0
 30 31  1  0
 31 32  2  0
 32 33  1  0
 33 34  2  0
 34 35  1  0
 35 36  2  0
 35 37  1  0
 37 38  2  0
 37 39  1  0
 33 40  1  0
 40 41  1  0
 40 42  2  0
  9  4  1  0
 12 10  1  0
 24 19  1  0
 36 31  1  0
 39 17  1  0
M  END
$$$$
