
     RDKit          3D

 42 46  0  0  0  0  0  0  0  0999 V2000
  -21.9479  -38.5950   -9.9564 C   0  0  0  0  0  0  0  0  0  0  0  0
  -22.7581  -39.1160   -8.8145 C   0  0  0  0  0  0  0  0  0  0  0  0
  -23.3188  -37.9178   -8.0269 C   0  0  0  0  0  0  0  0  0  0  0  0
  -21.9827  -39.9937   -7.8925 C   0  0  0  0  0  0  0  0  0  0  0  0
  -21.1888  -39.4361   -6.8819 C   0  0  0  0  0  0  0  0  0  0  0  0
  -20.4876  -40.2264   -6.0136 C   0  0  0  0  0  0  0  0  0  0  0  0
  -20.5849  -41.5799   -6.1637 C   0  0  0  0  0  0  0  0  0  0  0  0
  -21.3570  -42.1588   -7.1488 C   0  0  0  0  0  0  0  0  0  0  0  0
  -22.0735  -41.3499   -8.0342 C   0  0  0  0  0  0  0  0  0  0  0  0
  -19.6586  -39.5979   -4.9465 C   0  0  0  0  0  0  0  0  0  0  0  0
  -18.9299  -40.5909   -4.0280 C   0  0  0  0  0  0  0  0  0  0  0  0
  -20.0918  -39.7801   -3.5462 C   0  0  0  0  0  0  0  0  0  0  0  0
  -18.8111  -38.4843   -5.3062 N   0  0  0  0  0  0  0  0  0  0  0  0
  -17.4402  -38.8410   -5.4302 C   0  0  0  0  0  0  0  0  0  0  0  0
  -16.7502  -38.2657   -6.6668 C   0  0  1  0  0  0  0  0  0  0  0  0
  -15.3645  -38.2916   -6.4942 O   0  0  0  0  0  0  0  0  0  0  0  0
  -17.1045  -39.1846   -7.7906 C   0  0  2  0  0  0  0  0  0  0  0  0
  -17.3992  -38.5622   -9.1021 C   0  0  0  0  0  0  0  0  0  0  0  0
  -16.2371  -38.1707   -9.9649 C   0  0  0  0  0  0  0  0  0  0  0  0
  -15.2432  -38.9257  -10.5133 C   0  0  0  0  0  0  0  0  0  0  0  0
  -14.2828  -38.3084  -11.2920 C   0  0  0  0  0  0  0  0  0  0  0  0
  -14.3575  -36.9170  -11.4953 C   0  0  0  0  0  0  0  0  0  0  0  0
  -15.3320  -36.1137  -10.9692 C   0  0  0  0  0  0  0  0  0  0  0  0
  -16.2576  -36.7832  -10.2064 C   0  0  0  0  0  0  0  0  0  0  0  0
  -13.2042  -38.8653  -11.9364 O   0  0  0  0  0  0  0  0  0  0  0  0
  -12.9119  -39.8445  -12.8454 C   0  0  0  0  0  0  0  0  0  0  0  0
  -12.6991  -41.2214  -12.3097 C   0  0  0  0  0  0  0  0  0  0  0  0
  -13.8173  -42.1771  -12.4499 C   0  0  0  0  0  0  0  0  0  0  0  0
  -13.9673  -43.1441  -11.3062 C   0  0  0  0  0  0  0  0  0  0  0  0
  -15.3462  -43.5980  -11.3032 N   0  0  0  0  0  0  0  0  0  0  0  0
  -16.5390  -43.0063  -10.7830 C   0  0  0  0  0  0  0  0  0  0  0  0
  -17.5824  -43.1738  -11.7350 C   0  0  0  0  0  0  0  0  0  0  0  0
  -18.8555  -42.7183  -11.5544 C   0  0  0  0  0  0  0  0  0  0  0  0
  -19.0796  -42.0714  -10.3703 C   0  0  0  0  0  0  0  0  0  0  0  0
  -18.0789  -41.8735   -9.3810 C   0  0  0  0  0  0  0  0  0  0  0  0
  -16.8035  -42.3516   -9.6034 C   0  0  0  0  0  0  0  0  0  0  0  0
  -18.6599  -41.1455   -8.2408 C   0  0  0  0  0  0  0  0  0  0  0  0
  -19.8731  -41.5138   -7.8784 O   0  0  0  0  0  0  0  0  0  0  0  0
  -18.1915  -40.1031   -7.4240 N   0  0  0  0  0  0  0  0  0  0  0  0
  -19.9008  -42.9168  -12.5529 C   0  0  0  0  0  0  0  0  0  0  0  0
  -21.2406  -42.3094  -12.4255 C   0  0  0  0  0  0  0  0  0  0  0  0
  -19.5902  -43.6491  -13.5499 O   0  0  0  0  0  0  0  0  0  0  0  0
  1  2  1  0
  2  3  1  0
  2  4  1  0
  4  5  2  0
  5  6  1  0
  6  7  2  0
  7  8  1  0
  8  9  2  0
  6 10  1  0
 10 11  1  0
 11 12  1  0
 10 13  1  0
 13 14  1  0
 14 15  1  0
 15 16  1  1
 15 17  1  0
 17 18  1  6
 18 19  1  0
 19 20  2  0
 20 21  1  0
 21 22  2  0
 22 23  1  0
 23 24  2  0
 21 25  1  0
 25 26  1  0
 26 27  1  0
 27 28  1  0
 28 29  1  0
 29 30  1  0
 30 31  1  0
 31 32  2  0
 32 33  1  0
 33 34  2  0
 34 35  1  0
 35 36  2  0
 35 37  1  0
 37 38  2  0
 37 39  1  0
 33 40  1  0
 40 41  1  0
 40 42  2  0
  9  4  1  0
 12 10  1  0
 24 19  1  0
 36 31  1  0
 39 17  1  0
M  END
$$$$
