
     RDKit          3D

 42 46  0  0  0  0  0  0  0  0999 V2000
  -20.9455  -39.8149   -3.1522 C   0  0  0  0  0  0  0  0  0  0  0  0
  -21.1315  -41.1013   -3.8887 C   0  0  0  0  0  0  0  0  0  0  0  0
  -19.7673  -41.8077   -3.9900 C   0  0  0  0  0  0  0  0  0  0  0  0
  -21.6976  -40.9221   -5.2559 C   0  0  0  0  0  0  0  0  0  0  0  0
  -21.1978  -39.9274   -6.1063 C   0  0  0  0  0  0  0  0  0  0  0  0
  -21.6905  -39.7626   -7.3714 C   0  0  0  0  0  0  0  0  0  0  0  0
  -22.6884  -40.5997   -7.7803 C   0  0  0  0  0  0  0  0  0  0  0  0
  -23.2019  -41.5876   -6.9666 C   0  0  0  0  0  0  0  0  0  0  0  0
  -22.6967  -41.7551   -5.6750 C   0  0  0  0  0  0  0  0  0  0  0  0
  -21.1295  -38.6979   -8.2504 C   0  0  0  0  0  0  0  0  0  0  0  0
  -21.8320  -37.3358   -8.1411 C   0  0  0  0  0  0  0  0  0  0  0  0
  -21.9785  -38.2020   -9.3527 C   0  0  0  0  0  0  0  0  0  0  0  0
  -19.6934  -38.5529   -8.3171 N   0  0  0  0  0  0  0  0  0  0  0  0
  -19.0198  -39.1320   -7.2066 C   0  0  0  0  0  0  0  0  0  0  0  0
  -17.4994  -39.1866   -7.3522 C   0  0  1  0  0  0  0  0  0  0  0  0
  -16.9094  -39.4100   -6.1062 O   0  0  0  0  0  0  0  0  0  0  0  0
  -17.2200  -40.3658   -8.2266 C   0  0  2  0  0  0  0  0  0  0  0  0
  -17.1871  -40.1277   -9.6882 C   0  0  0  0  0  0  0  0  0  0  0  0
  -15.9282  -39.5626  -10.2745 C   0  0  0  0  0  0  0  0  0  0  0  0
  -14.6580  -40.0573  -10.2968 C   0  0  0  0  0  0  0  0  0  0  0  0
  -13.6647  -39.3295  -10.9239 C   0  0  0  0  0  0  0  0  0  0  0  0
  -13.9927  -38.0968  -11.5204 C   0  0  0  0  0  0  0  0  0  0  0  0
  -15.2491  -37.5552  -11.5268 C   0  0  0  0  0  0  0  0  0  0  0  0
  -16.1929  -38.3238  -10.8903 C   0  0  0  0  0  0  0  0  0  0  0  0
  -12.3316  -39.6317  -11.0668 O   0  0  0  0  0  0  0  0  0  0  0  0
  -11.5232  -40.6234  -11.5500 C   0  0  0  0  0  0  0  0  0  0  0  0
  -11.1866  -41.7363  -10.6137 C   0  0  0  0  0  0  0  0  0  0  0  0
  -11.9292  -43.0026  -10.7810 C   0  0  0  0  0  0  0  0  0  0  0  0
  -12.2275  -43.7327   -9.4989 C   0  0  0  0  0  0  0  0  0  0  0  0
  -13.3750  -44.5868   -9.7457 N   0  0  0  0  0  0  0  0  0  0  0  0
  -14.7777  -44.3116   -9.7581 C   0  0  0  0  0  0  0  0  0  0  0  0
  -15.3616  -44.9752  -10.8724 C   0  0  0  0  0  0  0  0  0  0  0  0
  -16.6891  -44.9163  -11.1812 C   0  0  0  0  0  0  0  0  0  0  0  0
  -17.4508  -44.1602  -10.3333 C   0  0  0  0  0  0  0  0  0  0  0  0
  -16.9256  -43.4747   -9.2047 C   0  0  0  0  0  0  0  0  0  0  0  0
  -15.5765  -43.5618   -8.9275 C   0  0  0  0  0  0  0  0  0  0  0  0
  -18.0161  -42.7634   -8.5174 C   0  0  0  0  0  0  0  0  0  0  0  0
  -19.1561  -43.4178   -8.4122 O   0  0  0  0  0  0  0  0  0  0  0  0
  -18.1162  -41.4918   -7.9292 N   0  0  0  0  0  0  0  0  0  0  0  0
  -17.2515  -45.6181  -12.3302 C   0  0  0  0  0  0  0  0  0  0  0  0
  -18.7058  -45.7977  -12.5120 C   0  0  0  0  0  0  0  0  0  0  0  0
  -16.4106  -46.0705  -13.1757 O   0  0  0  0  0  0  0  0  0  0  0  0
  1  2  1  0
  2  3  1  0
  2  4  1  0
  4  5  2  0
  5  6  1  0
  6  7  2  0
  7  8  1  0
  8  9  2  0
  6 10  1  0
 10 11  1  0
 11 12  1  0
 10 13  1  0
 13 14  1  0
 14 15  1  0
 15 16  1  1
 15 17  1  0
 17 18  1  6
 18 19  1  0
 19 20  2  0
 20 21  1  0
 21 22  2  0
 22 23  1  0
 23 24  2  0
 21 25  1  0
 25 26  1  0
 26 27  1  0
 27 28  1  0
 28 29  1  0
 29 30  1  0
 30 31  1  0
 31 32  2  0
 32 33  1  0
 33 34  2  0
 34 35  1  0
 35 36  2  0
 35 37  1  0
 37 38  2  0
 37 39  1  0
 33 40  1  0
 40 41  1  0
 40 42  2  0
  9  4  1  0
 12 10  1  0
 24 19  1  0
 36 31  1  0
 39 17  1  0
M  END
$$$$
