
     RDKit          3D

 42 46  0  0  0  0  0  0  0  0999 V2000
  -12.2093  -41.3894  -13.3789 C   0  0  0  0  0  0  0  0  0  0  0  0
  -13.5568  -40.8484  -13.7305 C   0  0  0  0  0  0  0  0  0  0  0  0
  -13.6854  -40.8169  -15.2643 C   0  0  0  0  0  0  0  0  0  0  0  0
  -13.8051  -39.4832  -13.1860 C   0  0  0  0  0  0  0  0  0  0  0  0
  -14.8621  -39.2558  -12.2952 C   0  0  0  0  0  0  0  0  0  0  0  0
  -15.0917  -38.0144  -11.7692 C   0  0  0  0  0  0  0  0  0  0  0  0
  -14.2565  -37.0005  -12.1415 C   0  0  0  0  0  0  0  0  0  0  0  0
  -13.2083  -37.1924  -13.0167 C   0  0  0  0  0  0  0  0  0  0  0  0
  -12.9747  -38.4614  -13.5522 C   0  0  0  0  0  0  0  0  0  0  0  0
  -16.2218  -37.8114  -10.8192 C   0  0  0  0  0  0  0  0  0  0  0  0
  -16.9499  -36.4660  -10.9622 C   0  0  0  0  0  0  0  0  0  0  0  0
  -16.0704  -36.7642   -9.7887 C   0  0  0  0  0  0  0  0  0  0  0  0
  -17.1496  -38.9007  -10.6180 N   0  0  0  0  0  0  0  0  0  0  0  0
  -18.3542  -38.4992   -9.9778 C   0  0  0  0  0  0  0  0  0  0  0  0
  -18.2778  -38.4766   -8.4515 C   0  0  1  0  0  0  0  0  0  0  0  0
  -19.3852  -37.8048   -7.9292 O   0  0  0  0  0  0  0  0  0  0  0  0
  -18.3461  -39.9065   -8.0230 C   0  0  2  0  0  0  0  0  0  0  0  0
  -18.2973  -40.1765   -6.5674 C   0  0  0  0  0  0  0  0  0  0  0  0
  -19.5676  -40.0203   -5.7863 C   0  0  0  0  0  0  0  0  0  0  0  0
  -20.7634  -40.6659   -5.8959 C   0  0  0  0  0  0  0  0  0  0  0  0
  -21.7873  -40.3346   -5.0290 C   0  0  0  0  0  0  0  0  0  0  0  0
  -21.5668  -39.3384   -4.0585 C   0  0  0  0  0  0  0  0  0  0  0  0
  -20.3882  -38.6607   -3.9056 C   0  0  0  0  0  0  0  0  0  0  0  0
  -19.4090  -39.0337   -4.7937 C   0  0  0  0  0  0  0  0  0  0  0  0
  -23.0596  -40.8496   -4.9578 O   0  0  0  0  0  0  0  0  0  0  0  0
  -23.7035  -42.0481   -4.8173 C   0  0  0  0  0  0  0  0  0  0  0  0
  -23.9726  -42.8204   -6.0660 C   0  0  0  0  0  0  0  0  0  0  0  0
  -23.0719  -43.9536   -6.3622 C   0  0  0  0  0  0  0  0  0  0  0  0
  -22.7849  -44.1653   -7.8246 C   0  0  0  0  0  0  0  0  0  0  0  0
  -21.5272  -44.8842   -7.9177 N   0  0  0  0  0  0  0  0  0  0  0  0
  -20.1711  -44.4365   -7.8543 C   0  0  0  0  0  0  0  0  0  0  0  0
  -19.4291  -45.3454   -7.0505 C   0  0  0  0  0  0  0  0  0  0  0  0
  -18.0990  -45.2087   -6.7800 C   0  0  0  0  0  0  0  0  0  0  0  0
  -17.5003  -44.1149   -7.3420 C   0  0  0  0  0  0  0  0  0  0  0  0
  -18.1879  -43.1726   -8.1535 C   0  0  0  0  0  0  0  0  0  0  0  0
  -19.5337  -43.3491   -8.4034 C   0  0  0  0  0  0  0  0  0  0  0  0
  -17.2463  -42.1282   -8.5898 C   0  0  0  0  0  0  0  0  0  0  0  0
  -16.0467  -42.5446   -8.9456 O   0  0  0  0  0  0  0  0  0  0  0  0
  -17.3452  -40.7325   -8.7126 N   0  0  0  0  0  0  0  0  0  0  0  0
  -17.3710  -46.1679   -5.9559 C   0  0  0  0  0  0  0  0  0  0  0  0
  -15.9221  -46.0485   -5.6981 C   0  0  0  0  0  0  0  0  0  0  0  0
  -18.0614  -47.1219   -5.4661 O   0  0  0  0  0  0  0  0  0  0  0  0
  1  2  1  0
  2  3  1  0
  2  4  1  0
  4  5  2  0
  5  6  1  0
  6  7  2  0
  7  8  1  0
  8  9  2  0
  6 10  1  0
 10 11  1  0
 11 12  1  0
 10 13  1  0
 13 14  1  0
 14 15  1  0
 15 16  1  1
 15 17  1  0
 17 18  1  1
 18 19  1  0
 19 20  2  0
 20 21  1  0
 21 22  2  0
 22 23  1  0
 23 24  2  0
 21 25  1  0
 25 26  1  0
 26 27  1  0
 27 28  1  0
 28 29  1  0
 29 30  1  0
 30 31  1  0
 31 32  2  0
 32 33  1  0
 33 34  2  0
 34 35  1  0
 35 36  2  0
 35 37  1  0
 37 38  2  0
 37 39  1  0
 33 40  1  0
 40 41  1  0
 40 42  2  0
  9  4  1  0
 12 10  1  0
 24 19  1  0
 36 31  1  0
 39 17  1  0
M  END
$$$$
