
     RDKit          3D

 42 46  0  0  0  0  0  0  0  0999 V2000
  -25.7537  -42.0238   -1.3809 C   0  0  0  0  0  0  0  0  0  0  0  0
  -24.2692  -42.0525   -1.5457 C   0  0  0  0  0  0  0  0  0  0  0  0
  -23.6204  -41.8060   -0.1715 C   0  0  0  0  0  0  0  0  0  0  0  0
  -23.7638  -41.0426   -2.5186 C   0  0  0  0  0  0  0  0  0  0  0  0
  -22.9277  -41.4300   -3.5738 C   0  0  0  0  0  0  0  0  0  0  0  0
  -22.4719  -40.5207   -4.4880 C   0  0  0  0  0  0  0  0  0  0  0  0
  -22.8576  -39.2195   -4.3390 C   0  0  0  0  0  0  0  0  0  0  0  0
  -23.6787  -38.8071   -3.3108 C   0  0  0  0  0  0  0  0  0  0  0  0
  -24.1442  -39.7375   -2.3784 C   0  0  0  0  0  0  0  0  0  0  0  0
  -21.5893  -40.9705   -5.6013 C   0  0  0  0  0  0  0  0  0  0  0  0
  -22.2445  -40.9514   -6.9909 C   0  0  0  0  0  0  0  0  0  0  0  0
  -21.9370  -42.2337   -6.2833 C   0  0  0  0  0  0  0  0  0  0  0  0
  -20.2344  -40.4703   -5.6442 N   0  0  0  0  0  0  0  0  0  0  0  0
  -20.1610  -39.0728   -5.8966 C   0  0  0  0  0  0  0  0  0  0  0  0
  -19.9149  -38.7104   -7.3609 C   0  0  1  0  0  0  0  0  0  0  0  0
  -18.8154  -37.8551   -7.4615 O   0  0  0  0  0  0  0  0  0  0  0  0
  -19.5784  -39.9963   -8.0437 C   0  0  2  0  0  0  0  0  0  0  0  0
  -20.2121  -40.2464   -9.3590 C   0  0  0  0  0  0  0  0  0  0  0  0
  -19.5966  -39.5998  -10.5637 C   0  0  0  0  0  0  0  0  0  0  0  0
  -18.3523  -39.7317  -11.1049 C   0  0  0  0  0  0  0  0  0  0  0  0
  -18.0372  -39.0184  -12.2458 C   0  0  0  0  0  0  0  0  0  0  0  0
  -19.0098  -38.1743  -12.8155 C   0  0  0  0  0  0  0  0  0  0  0  0
  -20.2713  -38.0056  -12.3136 C   0  0  0  0  0  0  0  0  0  0  0  0
  -20.5259  -38.7403  -11.1813 C   0  0  0  0  0  0  0  0  0  0  0  0
  -16.8597  -38.9980  -12.9543 O   0  0  0  0  0  0  0  0  0  0  0  0
  -15.9964  -39.8506  -13.5856 C   0  0  0  0  0  0  0  0  0  0  0  0
  -14.9288  -40.4728  -12.7482 C   0  0  0  0  0  0  0  0  0  0  0  0
  -15.1414  -41.8703  -12.3182 C   0  0  0  0  0  0  0  0  0  0  0  0
  -14.6158  -42.1945  -10.9455 C   0  0  0  0  0  0  0  0  0  0  0  0
  -15.3549  -43.3464  -10.4615 N   0  0  0  0  0  0  0  0  0  0  0  0
  -16.6413  -43.4597   -9.8488 C   0  0  0  0  0  0  0  0  0  0  0  0
  -17.3179  -44.5757  -10.4143 C   0  0  0  0  0  0  0  0  0  0  0  0
  -18.5757  -44.9629  -10.0553 C   0  0  0  0  0  0  0  0  0  0  0  0
  -19.1684  -44.1943   -9.0916 C   0  0  0  0  0  0  0  0  0  0  0  0
  -18.5439  -43.0688   -8.4895 C   0  0  0  0  0  0  0  0  0  0  0  0
  -17.2696  -42.7119   -8.8812 C   0  0  0  0  0  0  0  0  0  0  0  0
  -19.4587  -42.4774   -7.4990 C   0  0  0  0  0  0  0  0  0  0  0  0
  -20.1288  -43.3312   -6.7501 O   0  0  0  0  0  0  0  0  0  0  0  0
  -19.7912  -41.1544   -7.1644 N   0  0  0  0  0  0  0  0  0  0  0  0
  -19.2334  -46.1195  -10.6544 C   0  0  0  0  0  0  0  0  0  0  0  0
  -20.4074  -46.7683  -10.0372 C   0  0  0  0  0  0  0  0  0  0  0  0
  -18.7344  -46.5415  -11.7497 O   0  0  0  0  0  0  0  0  0  0  0  0
  1  2  1  0
  2  3  1  0
  2  4  1  0
  4  5  2  0
  5  6  1  0
  6  7  2  0
  7  8  1  0
  8  9  2  0
  6 10  1  0
 10 11  1  0
 11 12  1  0
 10 13  1  0
 13 14  1  0
 14 15  1  0
 15 16  1  1
 15 17  1  0
 17 18  1  6
 18 19  1  0
 19 20  2  0
 20 21  1  0
 21 22  2  0
 22 23  1  0
 23 24  2  0
 21 25  1  0
 25 26  1  0
 26 27  1  0
 27 28  1  0
 28 29  1  0
 29 30  1  0
 30 31  1  0
 31 32  2  0
 32 33  1  0
 33 34  2  0
 34 35  1  0
 35 36  2  0
 35 37  1  0
 37 38  2  0
 37 39  1  0
 33 40  1  0
 40 41  1  0
 40 42  2  0
  9  4  1  0
 12 10  1  0
 24 19  1  0
 36 31  1  0
 39 17  1  0
M  END
$$$$
