
     RDKit          3D

 42 46  0  0  0  0  0  0  0  0999 V2000
  -11.0277  -35.8646  -11.9727 C   0  0  0  0  0  0  0  0  0  0  0  0
  -12.3827  -35.4412  -12.4382 C   0  0  0  0  0  0  0  0  0  0  0  0
  -12.9563  -34.4368  -11.4221 C   0  0  0  0  0  0  0  0  0  0  0  0
  -13.3333  -36.5779  -12.5995 C   0  0  0  0  0  0  0  0  0  0  0  0
  -13.6204  -37.4218  -11.5188 C   0  0  0  0  0  0  0  0  0  0  0  0
  -14.5061  -38.4565  -11.6427 C   0  0  0  0  0  0  0  0  0  0  0  0
  -15.1027  -38.6423  -12.8566 C   0  0  0  0  0  0  0  0  0  0  0  0
  -14.8403  -37.8294  -13.9393 C   0  0  0  0  0  0  0  0  0  0  0  0
  -13.9360  -36.7724  -13.8105 C   0  0  0  0  0  0  0  0  0  0  0  0
  -14.7919  -39.3296  -10.4693 C   0  0  0  0  0  0  0  0  0  0  0  0
  -13.7820  -39.2118   -9.3175 C   0  0  0  0  0  0  0  0  0  0  0  0
  -13.8460  -40.4283  -10.1868 C   0  0  0  0  0  0  0  0  0  0  0  0
  -16.1505  -39.3966   -9.9820 N   0  0  0  0  0  0  0  0  0  0  0  0
  -16.3459  -38.6823   -8.7680 C   0  0  0  0  0  0  0  0  0  0  0  0
  -17.7738  -38.7421   -8.2261 C   0  0  1  0  0  0  0  0  0  0  0  0
  -18.6820  -38.4374   -9.2424 O   0  0  0  0  0  0  0  0  0  0  0  0
  -17.9880  -40.1610   -7.8094 C   0  0  2  0  0  0  0  0  0  0  0  0
  -18.6068  -40.3873   -6.4828 C   0  0  0  0  0  0  0  0  0  0  0  0
  -20.0982  -40.2716   -6.3801 C   0  0  0  0  0  0  0  0  0  0  0  0
  -21.0889  -40.9777   -6.9954 C   0  0  0  0  0  0  0  0  0  0  0  0
  -22.4066  -40.6726   -6.7119 C   0  0  0  0  0  0  0  0  0  0  0  0
  -22.6881  -39.6400   -5.7968 C   0  0  0  0  0  0  0  0  0  0  0  0
  -21.7336  -38.9014   -5.1525 C   0  0  0  0  0  0  0  0  0  0  0  0
  -20.4446  -39.2509   -5.4734 C   0  0  0  0  0  0  0  0  0  0  0  0
  -23.5523  -41.2470   -7.2080 O   0  0  0  0  0  0  0  0  0  0  0  0
  -24.1517  -42.4711   -7.3221 C   0  0  0  0  0  0  0  0  0  0  0  0
  -23.7920  -43.2904   -8.5168 C   0  0  0  0  0  0  0  0  0  0  0  0
  -22.8219  -44.3861   -8.3126 C   0  0  0  0  0  0  0  0  0  0  0  0
  -21.8875  -44.6244   -9.4684 C   0  0  0  0  0  0  0  0  0  0  0  0
  -20.7069  -45.2833   -8.9398 N   0  0  0  0  0  0  0  0  0  0  0  0
  -19.5468  -44.7683   -8.2825 C   0  0  0  0  0  0  0  0  0  0  0  0
  -19.2308  -45.6170   -7.1857 C   0  0  0  0  0  0  0  0  0  0  0  0
  -18.1796  -45.4078   -6.3419 C   0  0  0  0  0  0  0  0  0  0  0  0
  -17.4230  -44.3022   -6.6177 C   0  0  0  0  0  0  0  0  0  0  0  0
  -17.6881  -43.4178   -7.6979 C   0  0  0  0  0  0  0  0  0  0  0  0
  -18.7615  -43.6669   -8.5287 C   0  0  0  0  0  0  0  0  0  0  0  0
  -16.6836  -42.3414   -7.7024 C   0  0  0  0  0  0  0  0  0  0  0  0
  -15.4429  -42.7085   -7.4479 O   0  0  0  0  0  0  0  0  0  0  0  0
  -16.7574  -40.9561   -7.9229 N   0  0  0  0  0  0  0  0  0  0  0  0
  -17.8840  -46.3068   -5.2312 C   0  0  0  0  0  0  0  0  0  0  0  0
  -16.8516  -46.0011   -4.2207 C   0  0  0  0  0  0  0  0  0  0  0  0
  -18.5728  -47.3790   -5.1809 O   0  0  0  0  0  0  0  0  0  0  0  0
  1  2  1  0
  2  3  1  0
  2  4  1  0
  4  5  2  0
  5  6  1  0
  6  7  2  0
  7  8  1  0
  8  9  2  0
  6 10  1  0
 10 11  1  0
 11 12  1  0
 10 13  1  0
 13 14  1  0
 14 15  1  0
 15 16  1  6
 15 17  1  0
 17 18  1  1
 18 19  1  0
 19 20  2  0
 20 21  1  0
 21 22  2  0
 22 23  1  0
 23 24  2  0
 21 25  1  0
 25 26  1  0
 26 27  1  0
 27 28  1  0
 28 29  1  0
 29 30  1  0
 30 31  1  0
 31 32  2  0
 32 33  1  0
 33 34  2  0
 34 35  1  0
 35 36  2  0
 35 37  1  0
 37 38  2  0
 37 39  1  0
 33 40  1  0
 40 41  1  0
 40 42  2  0
  9  4  1  0
 12 10  1  0
 24 19  1  0
 36 31  1  0
 39 17  1  0
M  END
$$$$
