
     RDKit          3D

 42 46  0  0  0  0  0  0  0  0999 V2000
  -21.7194  -41.8000   -3.4151 C   0  0  0  0  0  0  0  0  0  0  0  0
  -21.1117  -40.6428   -4.1385 C   0  0  0  0  0  0  0  0  0  0  0  0
  -21.4515  -39.3531   -3.3695 C   0  0  0  0  0  0  0  0  0  0  0  0
  -21.5806  -40.5156   -5.5477 C   0  0  0  0  0  0  0  0  0  0  0  0
  -20.9197  -39.6629   -6.4414 C   0  0  0  0  0  0  0  0  0  0  0  0
  -21.3229  -39.5498   -7.7433 C   0  0  0  0  0  0  0  0  0  0  0  0
  -22.3935  -40.2954   -8.1456 C   0  0  0  0  0  0  0  0  0  0  0  0
  -23.0652  -41.1428   -7.2898 C   0  0  0  0  0  0  0  0  0  0  0  0
  -22.6513  -41.2577   -5.9604 C   0  0  0  0  0  0  0  0  0  0  0  0
  -20.5914  -38.6376   -8.6672 C   0  0  0  0  0  0  0  0  0  0  0  0
  -21.4725  -37.9396   -9.7147 C   0  0  0  0  0  0  0  0  0  0  0  0
  -20.5121  -39.0240  -10.0906 C   0  0  0  0  0  0  0  0  0  0  0  0
  -19.6153  -37.7332   -8.1040 N   0  0  0  0  0  0  0  0  0  0  0  0
  -18.4917  -38.4004   -7.5432 C   0  0  0  0  0  0  0  0  0  0  0  0
  -17.2066  -38.2619   -8.3588 C   0  0  1  0  0  0  0  0  0  0  0  0
  -16.1191  -38.0669   -7.5046 O   0  0  0  0  0  0  0  0  0  0  0  0
  -17.0302  -39.5702   -9.0589 C   0  0  2  0  0  0  0  0  0  0  0  0
  -16.4294  -39.5343  -10.4123 C   0  0  0  0  0  0  0  0  0  0  0  0
  -14.9367  -39.4320  -10.5101 C   0  0  0  0  0  0  0  0  0  0  0  0
  -13.9574  -40.2699  -10.0655 C   0  0  0  0  0  0  0  0  0  0  0  0
  -12.6355  -39.9417  -10.2994 C   0  0  0  0  0  0  0  0  0  0  0  0
  -12.3379  -38.7504  -10.9886 C   0  0  0  0  0  0  0  0  0  0  0  0
  -13.2806  -37.8756  -11.4555 C   0  0  0  0  0  0  0  0  0  0  0  0
  -14.5745  -38.2555  -11.1946 C   0  0  0  0  0  0  0  0  0  0  0  0
  -11.4992  -40.6297   -9.9468 O   0  0  0  0  0  0  0  0  0  0  0  0
  -10.9281  -41.8638  -10.0930 C   0  0  0  0  0  0  0  0  0  0  0  0
  -11.2962  -42.9018   -9.0853 C   0  0  0  0  0  0  0  0  0  0  0  0
  -12.2939  -43.9117   -9.4950 C   0  0  0  0  0  0  0  0  0  0  0  0
  -13.2229  -44.3608   -8.3991 C   0  0  0  0  0  0  0  0  0  0  0  0
  -14.4237  -44.8725   -9.0342 N   0  0  0  0  0  0  0  0  0  0  0  0
  -15.5774  -44.2094   -9.5565 C   0  0  0  0  0  0  0  0  0  0  0  0
  -15.9237  -44.8095  -10.7987 C   0  0  0  0  0  0  0  0  0  0  0  0
  -16.9774  -44.4100  -11.5674 C   0  0  0  0  0  0  0  0  0  0  0  0
  -17.7049  -43.3680  -11.0615 C   0  0  0  0  0  0  0  0  0  0  0  0
  -17.4087  -42.7286   -9.8276 C   0  0  0  0  0  0  0  0  0  0  0  0
  -16.3338  -43.1649   -9.0801 C   0  0  0  0  0  0  0  0  0  0  0  0
  -18.3871  -41.6544   -9.5898 C   0  0  0  0  0  0  0  0  0  0  0  0
  -19.6386  -41.9351   -9.8963 O   0  0  0  0  0  0  0  0  0  0  0  0
  -18.2783  -40.3452   -9.0926 N   0  0  0  0  0  0  0  0  0  0  0  0
  -17.3048  -45.0569  -12.8337 C   0  0  0  0  0  0  0  0  0  0  0  0
  -18.4556  -44.6399  -13.6596 C   0  0  0  0  0  0  0  0  0  0  0  0
  -16.5351  -46.0092  -13.1907 O   0  0  0  0  0  0  0  0  0  0  0  0
  1  2  1  0
  2  3  1  0
  2  4  1  0
  4  5  2  0
  5  6  1  0
  6  7  2  0
  7  8  1  0
  8  9  2  0
  6 10  1  0
 10 11  1  0
 11 12  1  0
 10 13  1  0
 13 14  1  0
 14 15  1  0
 15 16  1  1
 15 17  1  0
 17 18  1  6
 18 19  1  0
 19 20  2  0
 20 21  1  0
 21 22  2  0
 22 23  1  0
 23 24  2  0
 21 25  1  0
 25 26  1  0
 26 27  1  0
 27 28  1  0
 28 29  1  0
 29 30  1  0
 30 31  1  0
 31 32  2  0
 32 33  1  0
 33 34  2  0
 34 35  1  0
 35 36  2  0
 35 37  1  0
 37 38  2  0
 37 39  1  0
 33 40  1  0
 40 41  1  0
 40 42  2  0
  9  4  1  0
 12 10  1  0
 24 19  1  0
 36 31  1  0
 39 17  1  0
M  END
$$$$
