
     RDKit          3D

 42 46  0  0  0  0  0  0  0  0999 V2000
  -12.1583  -36.4094  -11.6784 C   0  0  0  0  0  0  0  0  0  0  0  0
  -13.5653  -36.8137  -11.9765 C   0  0  0  0  0  0  0  0  0  0  0  0
  -14.5148  -35.9043  -11.1755 C   0  0  0  0  0  0  0  0  0  0  0  0
  -13.8521  -38.2389  -11.6476 C   0  0  0  0  0  0  0  0  0  0  0  0
  -13.9448  -38.6546  -10.3130 C   0  0  0  0  0  0  0  0  0  0  0  0
  -14.2284  -39.9536   -9.9928 C   0  0  0  0  0  0  0  0  0  0  0  0
  -14.4178  -40.8354  -11.0178 C   0  0  0  0  0  0  0  0  0  0  0  0
  -14.3323  -40.4572  -12.3411 C   0  0  0  0  0  0  0  0  0  0  0  0
  -14.0435  -39.1296  -12.6663 C   0  0  0  0  0  0  0  0  0  0  0  0
  -14.3257  -40.3580   -8.5618 C   0  0  0  0  0  0  0  0  0  0  0  0
  -13.1960  -41.2781   -8.0741 C   0  0  0  0  0  0  0  0  0  0  0  0
  -14.5919  -41.7811   -8.2689 C   0  0  0  0  0  0  0  0  0  0  0  0
  -14.6452  -39.3426   -7.5848 N   0  0  0  0  0  0  0  0  0  0  0  0
  -15.7811  -38.5633   -7.9379 C   0  0  0  0  0  0  0  0  0  0  0  0
  -16.9887  -38.7612   -7.0222 C   0  0  1  0  0  0  0  0  0  0  0  0
  -17.8990  -37.7175   -7.2024 O   0  0  0  0  0  0  0  0  0  0  0  0
  -17.6316  -40.0331   -7.4713 C   0  0  2  0  0  0  0  0  0  0  0  0
  -18.8555  -40.4591   -6.7540 C   0  0  0  0  0  0  0  0  0  0  0  0
  -20.1531  -39.8197   -7.1483 C   0  0  0  0  0  0  0  0  0  0  0  0
  -20.8166  -39.8167   -8.3393 C   0  0  0  0  0  0  0  0  0  0  0  0
  -22.0223  -39.1482   -8.4346 C   0  0  0  0  0  0  0  0  0  0  0  0
  -22.5301  -38.4877   -7.2994 C   0  0  0  0  0  0  0  0  0  0  0  0
  -21.9058  -38.4594   -6.0823 C   0  0  0  0  0  0  0  0  0  0  0  0
  -20.7140  -39.1413   -6.0488 C   0  0  0  0  0  0  0  0  0  0  0  0
  -22.8531  -39.0157   -9.5214 O   0  0  0  0  0  0  0  0  0  0  0  0
  -23.5253  -39.7834  -10.4321 C   0  0  0  0  0  0  0  0  0  0  0  0
  -22.7743  -40.1931  -11.6553 C   0  0  0  0  0  0  0  0  0  0  0  0
  -22.2475  -41.5731  -11.6894 C   0  0  0  0  0  0  0  0  0  0  0  0
  -20.9233  -41.7253  -12.3887 C   0  0  0  0  0  0  0  0  0  0  0  0
  -20.3000  -42.9313  -11.8745 N   0  0  0  0  0  0  0  0  0  0  0  0
  -19.5474  -43.1773  -10.6843 C   0  0  0  0  0  0  0  0  0  0  0  0
  -19.9746  -44.4124  -10.1231 C   0  0  0  0  0  0  0  0  0  0  0  0
  -19.4620  -44.9428   -8.9756 C   0  0  0  0  0  0  0  0  0  0  0  0
  -18.4841  -44.1976   -8.3762 C   0  0  0  0  0  0  0  0  0  0  0  0
  -18.0156  -42.9577   -8.8884 C   0  0  0  0  0  0  0  0  0  0  0  0
  -18.5608  -42.4573  -10.0533 C   0  0  0  0  0  0  0  0  0  0  0  0
  -16.9668  -42.4301   -8.0000 C   0  0  0  0  0  0  0  0  0  0  0  0
  -16.1043  -43.3135   -7.5368 O   0  0  0  0  0  0  0  0  0  0  0  0
  -16.6719  -41.1452   -7.5151 N   0  0  0  0  0  0  0  0  0  0  0  0
  -19.9223  -46.2178   -8.4355 C   0  0  0  0  0  0  0  0  0  0  0  0
  -19.1194  -47.0071   -7.4802 C   0  0  0  0  0  0  0  0  0  0  0  0
  -21.0659  -46.6151   -8.8370 O   0  0  0  0  0  0  0  0  0  0  0  0
  1  2  1  0
  2  3  1  0
  2  4  1  0
  4  5  2  0
  5  6  1  0
  6  7  2  0
  7  8  1  0
  8  9  2  0
  6 10  1  0
 10 11  1  0
 11 12  1  0
 10 13  1  0
 13 14  1  0
 14 15  1  0
 15 16  1  6
 15 17  1  0
 17 18  1  1
 18 19  1  0
 19 20  2  0
 20 21  1  0
 21 22  2  0
 22 23  1  0
 23 24  2  0
 21 25  1  0
 25 26  1  0
 26 27  1  0
 27 28  1  0
 28 29  1  0
 29 30  1  0
 30 31  1  0
 31 32  2  0
 32 33  1  0
 33 34  2  0
 34 35  1  0
 35 36  2  0
 35 37  1  0
 37 38  2  0
 37 39  1  0
 33 40  1  0
 40 41  1  0
 40 42  2  0
  9  4  1  0
 12 10  1  0
 24 19  1  0
 36 31  1  0
 39 17  1  0
M  END
$$$$
