
     RDKit          3D

 42 46  0  0  0  0  0  0  0  0999 V2000
  -15.0735  -37.4640  -10.6670 C   0  0  0  0  0  0  0  0  0  0  0  0
  -15.0994  -38.6078  -11.6277 C   0  0  0  0  0  0  0  0  0  0  0  0
  -16.4498  -38.5942  -12.3669 C   0  0  0  0  0  0  0  0  0  0  0  0
  -14.9083  -39.9331  -10.9727 C   0  0  0  0  0  0  0  0  0  0  0  0
  -14.6764  -40.0165   -9.5937 C   0  0  0  0  0  0  0  0  0  0  0  0
  -14.5200  -41.2248   -8.9725 C   0  0  0  0  0  0  0  0  0  0  0  0
  -14.5963  -42.3506   -9.7411 C   0  0  0  0  0  0  0  0  0  0  0  0
  -14.8225  -42.3014  -11.1005 C   0  0  0  0  0  0  0  0  0  0  0  0
  -14.9829  -41.0662  -11.7332 C   0  0  0  0  0  0  0  0  0  0  0  0
  -14.2814  -41.2750   -7.5024 C   0  0  0  0  0  0  0  0  0  0  0  0
  -12.8317  -41.5801   -7.0951 C   0  0  0  0  0  0  0  0  0  0  0  0
  -13.9285  -42.5813   -6.9101 C   0  0  0  0  0  0  0  0  0  0  0  0
  -14.8584  -40.2361   -6.6804 N   0  0  0  0  0  0  0  0  0  0  0  0
  -15.4094  -39.1651   -7.4363 C   0  0  0  0  0  0  0  0  0  0  0  0
  -16.8529  -38.8172   -7.0741 C   0  0  1  0  0  0  0  0  0  0  0  0
  -17.2152  -37.6074   -7.6703 O   0  0  0  0  0  0  0  0  0  0  0  0
  -17.6903  -39.9052   -7.6638 C   0  0  2  0  0  0  0  0  0  0  0  0
  -19.1375  -39.8873   -7.3486 C   0  0  0  0  0  0  0  0  0  0  0  0
  -20.0128  -38.9650   -8.1432 C   0  0  0  0  0  0  0  0  0  0  0  0
  -20.2734  -38.9197   -9.4806 C   0  0  0  0  0  0  0  0  0  0  0  0
  -21.1423  -37.9596   -9.9634 C   0  0  0  0  0  0  0  0  0  0  0  0
  -21.7321  -37.0545   -9.0603 C   0  0  0  0  0  0  0  0  0  0  0  0
  -21.5053  -37.0559   -7.7111 C   0  0  0  0  0  0  0  0  0  0  0  0
  -20.6353  -38.0322   -7.2910 C   0  0  0  0  0  0  0  0  0  0  0  0
  -21.5461  -37.7322  -11.2573 O   0  0  0  0  0  0  0  0  0  0  0  0
  -22.1264  -38.3861  -12.3090 C   0  0  0  0  0  0  0  0  0  0  0  0
  -21.2147  -39.1299  -13.2276 C   0  0  0  0  0  0  0  0  0  0  0  0
  -21.1397  -40.5958  -13.0578 C   0  0  0  0  0  0  0  0  0  0  0  0
  -19.7800  -41.1908  -13.3083 C   0  0  0  0  0  0  0  0  0  0  0  0
  -19.7225  -42.4523  -12.5924 N   0  0  0  0  0  0  0  0  0  0  0  0
  -19.4536  -42.7540  -11.2212 C   0  0  0  0  0  0  0  0  0  0  0  0
  -20.3739  -43.7468  -10.7849 C   0  0  0  0  0  0  0  0  0  0  0  0
  -20.3963  -44.2583   -9.5205 C   0  0  0  0  0  0  0  0  0  0  0  0
  -19.4554  -43.7475   -8.6693 C   0  0  0  0  0  0  0  0  0  0  0  0
  -18.5100  -42.7558   -9.0464 C   0  0  0  0  0  0  0  0  0  0  0  0
  -18.5213  -42.2659  -10.3366 C   0  0  0  0  0  0  0  0  0  0  0  0
  -17.6529  -42.4377   -7.8924 C   0  0  0  0  0  0  0  0  0  0  0  0
  -17.2664  -43.4639   -7.1601 O   0  0  0  0  0  0  0  0  0  0  0  0
  -17.1384  -41.2366   -7.3768 N   0  0  0  0  0  0  0  0  0  0  0  0
  -21.3527  -45.2824   -9.1134 C   0  0  0  0  0  0  0  0  0  0  0  0
  -21.4553  -45.7580   -7.7193 C   0  0  0  0  0  0  0  0  0  0  0  0
  -22.1014  -45.7467  -10.0357 O   0  0  0  0  0  0  0  0  0  0  0  0
  1  2  1  0
  2  3  1  0
  2  4  1  0
  4  5  2  0
  5  6  1  0
  6  7  2  0
  7  8  1  0
  8  9  2  0
  6 10  1  0
 10 11  1  0
 11 12  1  0
 10 13  1  0
 13 14  1  0
 14 15  1  0
 15 16  1  6
 15 17  1  0
 17 18  1  1
 18 19  1  0
 19 20  2  0
 20 21  1  0
 21 22  2  0
 22 23  1  0
 23 24  2  0
 21 25  1  0
 25 26  1  0
 26 27  1  0
 27 28  1  0
 28 29  1  0
 29 30  1  0
 30 31  1  0
 31 32  2  0
 32 33  1  0
 33 34  2  0
 34 35  1  0
 35 36  2  0
 35 37  1  0
 37 38  2  0
 37 39  1  0
 33 40  1  0
 40 41  1  0
 40 42  2  0
  9  4  1  0
 12 10  1  0
 24 19  1  0
 36 31  1  0
 39 17  1  0
M  END
$$$$
