
     RDKit          3D

 42 46  0  0  0  0  0  0  0  0999 V2000
   -9.8141  -36.7705  -11.6125 C   0  0  0  0  0  0  0  0  0  0  0  0
  -10.9932  -36.7043  -12.5275 C   0  0  0  0  0  0  0  0  0  0  0  0
  -11.9261  -35.5802  -12.0413 C   0  0  0  0  0  0  0  0  0  0  0  0
  -11.7564  -37.9826  -12.6001 C   0  0  0  0  0  0  0  0  0  0  0  0
  -12.8320  -38.2173  -11.7339 C   0  0  0  0  0  0  0  0  0  0  0  0
  -13.5568  -39.3751  -11.8006 C   0  0  0  0  0  0  0  0  0  0  0  0
  -13.1974  -40.2983  -12.7400 C   0  0  0  0  0  0  0  0  0  0  0  0
  -12.1434  -40.0970  -13.6061 C   0  0  0  0  0  0  0  0  0  0  0  0
  -11.4048  -38.9132  -13.5371 C   0  0  0  0  0  0  0  0  0  0  0  0
  -14.6989  -39.5873  -10.8670 C   0  0  0  0  0  0  0  0  0  0  0  0
  -14.4498  -40.6360   -9.7722 C   0  0  0  0  0  0  0  0  0  0  0  0
  -15.3857  -40.8942  -10.9110 C   0  0  0  0  0  0  0  0  0  0  0  0
  -15.3809  -38.4248  -10.3461 N   0  0  0  0  0  0  0  0  0  0  0  0
  -16.6934  -38.7084   -9.8781 C   0  0  0  0  0  0  0  0  0  0  0  0
  -16.8132  -38.7966   -8.3569 C   0  0  1  0  0  0  0  0  0  0  0  0
  -17.5769  -37.7304   -7.8768 O   0  0  0  0  0  0  0  0  0  0  0  0
  -17.5497  -40.0676   -8.0833 C   0  0  2  0  0  0  0  0  0  0  0  0
  -18.2196  -40.1881   -6.7677 C   0  0  0  0  0  0  0  0  0  0  0  0
  -19.5584  -39.5330   -6.6044 C   0  0  0  0  0  0  0  0  0  0  0  0
  -20.7366  -39.7443   -7.2568 C   0  0  0  0  0  0  0  0  0  0  0  0
  -21.8448  -38.9998   -6.8997 C   0  0  0  0  0  0  0  0  0  0  0  0
  -21.7247  -38.0432   -5.8734 C   0  0  0  0  0  0  0  0  0  0  0  0
  -20.5679  -37.7916   -5.1876 C   0  0  0  0  0  0  0  0  0  0  0  0
  -19.5027  -38.5621   -5.5855 C   0  0  0  0  0  0  0  0  0  0  0  0
  -23.1182  -39.0446   -7.4148 O   0  0  0  0  0  0  0  0  0  0  0  0
  -24.1335  -39.9340   -7.6357 C   0  0  0  0  0  0  0  0  0  0  0  0
  -24.0985  -40.6932   -8.9205 C   0  0  0  0  0  0  0  0  0  0  0  0
  -23.6143  -42.0880   -8.8635 C   0  0  0  0  0  0  0  0  0  0  0  0
  -22.8285  -42.5324  -10.0679 C   0  0  0  0  0  0  0  0  0  0  0  0
  -21.9876  -43.6394   -9.6500 N   0  0  0  0  0  0  0  0  0  0  0  0
  -20.7246  -43.6722   -8.9814 C   0  0  0  0  0  0  0  0  0  0  0  0
  -20.7611  -44.6913   -7.9899 C   0  0  0  0  0  0  0  0  0  0  0  0
  -19.7159  -44.9851   -7.1640 C   0  0  0  0  0  0  0  0  0  0  0  0
  -18.5962  -44.2214   -7.3481 C   0  0  0  0  0  0  0  0  0  0  0  0
  -18.4994  -43.1903   -8.3211 C   0  0  0  0  0  0  0  0  0  0  0  0
  -19.5804  -42.9263   -9.1374 C   0  0  0  0  0  0  0  0  0  0  0  0
  -17.1634  -42.5758   -8.2467 C   0  0  0  0  0  0  0  0  0  0  0  0
  -16.1546  -43.4070   -8.0729 O   0  0  0  0  0  0  0  0  0  0  0  0
  -16.7082  -41.2490   -8.3194 N   0  0  0  0  0  0  0  0  0  0  0  0
  -19.7902  -46.0444   -6.1632 C   0  0  0  0  0  0  0  0  0  0  0  0
  -18.5870  -46.6111   -5.5219 C   0  0  0  0  0  0  0  0  0  0  0  0
  -20.9614  -46.4560   -5.8704 O   0  0  0  0  0  0  0  0  0  0  0  0
  1  2  1  0
  2  3  1  0
  2  4  1  0
  4  5  2  0
  5  6  1  0
  6  7  2  0
  7  8  1  0
  8  9  2  0
  6 10  1  0
 10 11  1  0
 11 12  1  0
 10 13  1  0
 13 14  1  0
 14 15  1  0
 15 16  1  6
 15 17  1  0
 17 18  1  1
 18 19  1  0
 19 20  2  0
 20 21  1  0
 21 22  2  0
 22 23  1  0
 23 24  2  0
 21 25  1  0
 25 26  1  0
 26 27  1  0
 27 28  1  0
 28 29  1  0
 29 30  1  0
 30 31  1  0
 31 32  2  0
 32 33  1  0
 33 34  2  0
 34 35  1  0
 35 36  2  0
 35 37  1  0
 37 38  2  0
 37 39  1  0
 33 40  1  0
 40 41  1  0
 40 42  2  0
  9  4  1  0
 12 10  1  0
 24 19  1  0
 36 31  1  0
 39 17  1  0
M  END
$$$$
