
     RDKit          3D

 42 46  0  0  0  0  0  0  0  0999 V2000
  -23.7757  -41.8616   -7.4510 C   0  0  0  0  0  0  0  0  0  0  0  0
  -24.1359  -40.6885   -6.5990 C   0  0  0  0  0  0  0  0  0  0  0  0
  -24.6916  -39.5770   -7.5079 C   0  0  0  0  0  0  0  0  0  0  0  0
  -22.9873  -40.1552   -5.8127 C   0  0  0  0  0  0  0  0  0  0  0  0
  -22.0611  -39.2889   -6.4078 C   0  0  0  0  0  0  0  0  0  0  0  0
  -21.0134  -38.7733   -5.6959 C   0  0  0  0  0  0  0  0  0  0  0  0
  -20.8975  -39.1311   -4.3835 C   0  0  0  0  0  0  0  0  0  0  0  0
  -21.7923  -39.9822   -3.7696 C   0  0  0  0  0  0  0  0  0  0  0  0
  -22.8624  -40.5072   -4.4981 C   0  0  0  0  0  0  0  0  0  0  0  0
  -20.0514  -37.8493   -6.3606 C   0  0  0  0  0  0  0  0  0  0  0  0
  -20.3979  -36.3579   -6.2332 C   0  0  0  0  0  0  0  0  0  0  0  0
  -20.5309  -37.0886   -7.5324 C   0  0  0  0  0  0  0  0  0  0  0  0
  -18.6380  -38.0856   -6.1759 N   0  0  0  0  0  0  0  0  0  0  0  0
  -18.2914  -39.4643   -6.2106 C   0  0  0  0  0  0  0  0  0  0  0  0
  -17.5231  -39.8883   -7.4620 C   0  0  1  0  0  0  0  0  0  0  0  0
  -16.1575  -39.9640   -7.1794 O   0  0  0  0  0  0  0  0  0  0  0  0
  -18.0151  -41.2601   -7.7920 C   0  0  2  0  0  0  0  0  0  0  0  0
  -18.7033  -41.4341   -9.0921 C   0  0  0  0  0  0  0  0  0  0  0  0
  -17.8519  -41.5892  -10.3165 C   0  0  0  0  0  0  0  0  0  0  0  0
  -16.9304  -42.5391  -10.6437 C   0  0  0  0  0  0  0  0  0  0  0  0
  -16.2825  -42.4550  -11.8614 C   0  0  0  0  0  0  0  0  0  0  0  0
  -16.5914  -41.3893  -12.7286 C   0  0  0  0  0  0  0  0  0  0  0  0
  -17.5062  -40.4110  -12.4499 C   0  0  0  0  0  0  0  0  0  0  0  0
  -18.1176  -40.5485  -11.2276 C   0  0  0  0  0  0  0  0  0  0  0  0
  -15.3299  -43.2911  -12.3928 O   0  0  0  0  0  0  0  0  0  0  0  0
  -15.1402  -44.6106  -12.6986 C   0  0  0  0  0  0  0  0  0  0  0  0
  -14.6191  -45.4880  -11.6092 C   0  0  0  0  0  0  0  0  0  0  0  0
  -15.5983  -46.3481  -10.9131 C   0  0  0  0  0  0  0  0  0  0  0  0
  -15.3317  -46.5466   -9.4450 C   0  0  0  0  0  0  0  0  0  0  0  0
  -16.5937  -46.9017   -8.8216 N   0  0  0  0  0  0  0  0  0  0  0  0
  -17.6910  -46.1008   -8.3767 C   0  0  0  0  0  0  0  0  0  0  0  0
  -18.9036  -46.7338   -8.7667 C   0  0  0  0  0  0  0  0  0  0  0  0
  -20.1430  -46.2286   -8.5026 C   0  0  0  0  0  0  0  0  0  0  0  0
  -20.1550  -45.0429   -7.8209 C   0  0  0  0  0  0  0  0  0  0  0  0
  -18.9783  -44.3635   -7.4047 C   0  0  0  0  0  0  0  0  0  0  0  0
  -17.7439  -44.9102   -7.6915 C   0  0  0  0  0  0  0  0  0  0  0  0
  -19.3546  -43.1262   -6.7011 C   0  0  0  0  0  0  0  0  0  0  0  0
  -20.3809  -43.2193   -5.8784 O   0  0  0  0  0  0  0  0  0  0  0  0
  -18.8451  -41.8173   -6.7149 N   0  0  0  0  0  0  0  0  0  0  0  0
  -21.3646  -46.9126   -8.9135 C   0  0  0  0  0  0  0  0  0  0  0  0
  -22.6805  -46.6050   -8.3185 C   0  0  0  0  0  0  0  0  0  0  0  0
  -21.2316  -47.7971   -9.8227 O   0  0  0  0  0  0  0  0  0  0  0  0
  1  2  1  0
  2  3  1  0
  2  4  1  0
  4  5  2  0
  5  6  1  0
  6  7  2  0
  7  8  1  0
  8  9  2  0
  6 10  1  0
 10 11  1  0
 11 12  1  0
 10 13  1  0
 13 14  1  0
 14 15  1  0
 15 16  1  1
 15 17  1  0
 17 18  1  6
 18 19  1  0
 19 20  2  0
 20 21  1  0
 21 22  2  0
 22 23  1  0
 23 24  2  0
 21 25  1  0
 25 26  1  0
 26 27  1  0
 27 28  1  0
 28 29  1  0
 29 30  1  0
 30 31  1  0
 31 32  2  0
 32 33  1  0
 33 34  2  0
 34 35  1  0
 35 36  2  0
 35 37  1  0
 37 38  2  0
 37 39  1  0
 33 40  1  0
 40 41  1  0
 40 42  2  0
  9  4  1  0
 12 10  1  0
 24 19  1  0
 36 31  1  0
 39 17  1  0
M  END
$$$$
