
     RDKit          3D

 42 46  0  0  0  0  0  0  0  0999 V2000
  -23.7536  -43.1615   -6.9260 C   0  0  0  0  0  0  0  0  0  0  0  0
  -23.0466  -42.3025   -5.9289 C   0  0  0  0  0  0  0  0  0  0  0  0
  -24.0642  -41.8490   -4.8664 C   0  0  0  0  0  0  0  0  0  0  0  0
  -22.3991  -41.1048   -6.5355 C   0  0  0  0  0  0  0  0  0  0  0  0
  -21.2548  -40.5449   -5.9527 C   0  0  0  0  0  0  0  0  0  0  0  0
  -20.6353  -39.4592   -6.5074 C   0  0  0  0  0  0  0  0  0  0  0  0
  -21.1692  -38.9358   -7.6498 C   0  0  0  0  0  0  0  0  0  0  0  0
  -22.2947  -39.4636   -8.2467 C   0  0  0  0  0  0  0  0  0  0  0  0
  -22.9257  -40.5733   -7.6791 C   0  0  0  0  0  0  0  0  0  0  0  0
  -19.4158  -38.8946   -5.8632 C   0  0  0  0  0  0  0  0  0  0  0  0
  -18.3617  -39.9356   -5.4560 C   0  0  0  0  0  0  0  0  0  0  0  0
  -19.1853  -39.2102   -4.4387 C   0  0  0  0  0  0  0  0  0  0  0  0
  -18.8086  -37.7252   -6.4562 N   0  0  0  0  0  0  0  0  0  0  0  0
  -17.3911  -37.8082   -6.5329 C   0  0  0  0  0  0  0  0  0  0  0  0
  -16.8158  -37.4818   -7.9108 C   0  0  1  0  0  0  0  0  0  0  0  0
  -15.4376  -37.2777   -7.8153 O   0  0  0  0  0  0  0  0  0  0  0  0
  -17.0578  -38.6963   -8.7470 C   0  0  2  0  0  0  0  0  0  0  0  0
  -17.0897  -38.5073  -10.2158 C   0  0  0  0  0  0  0  0  0  0  0  0
  -15.7778  -38.4344  -10.9381 C   0  0  0  0  0  0  0  0  0  0  0  0
  -14.7718  -39.3479  -11.0479 C   0  0  0  0  0  0  0  0  0  0  0  0
  -13.6540  -39.0293  -11.7954 C   0  0  0  0  0  0  0  0  0  0  0  0
  -13.5855  -37.7695  -12.4209 C   0  0  0  0  0  0  0  0  0  0  0  0
  -14.5651  -36.8176  -12.3432 C   0  0  0  0  0  0  0  0  0  0  0  0
  -15.6502  -37.1917  -11.5887 C   0  0  0  0  0  0  0  0  0  0  0  0
  -12.5337  -39.7868  -12.0403 O   0  0  0  0  0  0  0  0  0  0  0  0
  -12.1783  -41.0080  -12.5432 C   0  0  0  0  0  0  0  0  0  0  0  0
  -12.1627  -42.1537  -11.5865 C   0  0  0  0  0  0  0  0  0  0  0  0
  -13.3159  -43.0766  -11.6248 C   0  0  0  0  0  0  0  0  0  0  0  0
  -13.7220  -43.6340  -10.2869 C   0  0  0  0  0  0  0  0  0  0  0  0
  -15.1152  -44.0290  -10.3890 N   0  0  0  0  0  0  0  0  0  0  0  0
  -16.3253  -43.2744  -10.2911 C   0  0  0  0  0  0  0  0  0  0  0  0
  -17.2135  -43.7043  -11.3154 C   0  0  0  0  0  0  0  0  0  0  0  0
  -18.4593  -43.1829  -11.5084 C   0  0  0  0  0  0  0  0  0  0  0  0
  -18.8176  -42.1931  -10.6351 C   0  0  0  0  0  0  0  0  0  0  0  0
  -17.9749  -41.7217   -9.5925 C   0  0  0  0  0  0  0  0  0  0  0  0
  -16.7220  -42.2776   -9.4315 C   0  0  0  0  0  0  0  0  0  0  0  0
  -18.6711  -40.6595   -8.8477 C   0  0  0  0  0  0  0  0  0  0  0  0
  -19.9517  -40.8653   -8.6100 O   0  0  0  0  0  0  0  0  0  0  0  0
  -18.2582  -39.4265   -8.3164 N   0  0  0  0  0  0  0  0  0  0  0  0
  -19.3444  -43.6567  -12.5673 C   0  0  0  0  0  0  0  0  0  0  0  0
  -20.7219  -43.1507  -12.7308 C   0  0  0  0  0  0  0  0  0  0  0  0
  -18.8581  -44.5382  -13.3502 O   0  0  0  0  0  0  0  0  0  0  0  0
  1  2  1  0
  2  3  1  0
  2  4  1  0
  4  5  2  0
  5  6  1  0
  6  7  2  0
  7  8  1  0
  8  9  2  0
  6 10  1  0
 10 11  1  0
 11 12  1  0
 10 13  1  0
 13 14  1  0
 14 15  1  0
 15 16  1  1
 15 17  1  0
 17 18  1  6
 18 19  1  0
 19 20  2  0
 20 21  1  0
 21 22  2  0
 22 23  1  0
 23 24  2  0
 21 25  1  0
 25 26  1  0
 26 27  1  0
 27 28  1  0
 28 29  1  0
 29 30  1  0
 30 31  1  0
 31 32  2  0
 32 33  1  0
 33 34  2  0
 34 35  1  0
 35 36  2  0
 35 37  1  0
 37 38  2  0
 37 39  1  0
 33 40  1  0
 40 41  1  0
 40 42  2  0
  9  4  1  0
 12 10  1  0
 24 19  1  0
 36 31  1  0
 39 17  1  0
M  END
$$$$
