
     RDKit          3D

 42 46  0  0  0  0  0  0  0  0999 V2000
  -12.1561  -42.1462  -13.3514 C   0  0  0  0  0  0  0  0  0  0  0  0
  -13.4653  -41.5256  -13.7156 C   0  0  0  0  0  0  0  0  0  0  0  0
  -13.7040  -41.7376  -15.2217 C   0  0  0  0  0  0  0  0  0  0  0  0
  -13.5350  -40.0695  -13.4048 C   0  0  0  0  0  0  0  0  0  0  0  0
  -13.9734  -39.6321  -12.1482 C   0  0  0  0  0  0  0  0  0  0  0  0
  -14.0235  -38.3010  -11.8383 C   0  0  0  0  0  0  0  0  0  0  0  0
  -13.6328  -37.4091  -12.7952 C   0  0  0  0  0  0  0  0  0  0  0  0
  -13.1974  -37.8082  -14.0414 C   0  0  0  0  0  0  0  0  0  0  0  0
  -13.1460  -39.1684  -14.3558 C   0  0  0  0  0  0  0  0  0  0  0  0
  -14.4890  -37.8731  -10.4888 C   0  0  0  0  0  0  0  0  0  0  0  0
  -15.0175  -36.4323  -10.4165 C   0  0  0  0  0  0  0  0  0  0  0  0
  -13.7125  -36.8239   -9.7974 C   0  0  0  0  0  0  0  0  0  0  0  0
  -15.3170  -38.7831   -9.7311 N   0  0  0  0  0  0  0  0  0  0  0  0
  -16.5398  -38.1998   -9.2989 C   0  0  0  0  0  0  0  0  0  0  0  0
  -16.9416  -38.5674   -7.8708 C   0  0  1  0  0  0  0  0  0  0  0  0
  -18.0444  -37.8070   -7.4757 O   0  0  0  0  0  0  0  0  0  0  0  0
  -17.3513  -40.0035   -7.9240 C   0  0  2  0  0  0  0  0  0  0  0  0
  -17.7028  -40.6517   -6.6393 C   0  0  0  0  0  0  0  0  0  0  0  0
  -19.0795  -40.4170   -6.0937 C   0  0  0  0  0  0  0  0  0  0  0  0
  -20.3041  -40.7153   -6.6131 C   0  0  0  0  0  0  0  0  0  0  0  0
  -21.4368  -40.3966   -5.8884 C   0  0  0  0  0  0  0  0  0  0  0  0
  -21.2935  -39.7711   -4.6349 C   0  0  0  0  0  0  0  0  0  0  0  0
  -20.0903  -39.4501   -4.0682 C   0  0  0  0  0  0  0  0  0  0  0  0
  -19.0023  -39.7920   -4.8338 C   0  0  0  0  0  0  0  0  0  0  0  0
  -22.7563  -40.6026   -6.2127 O   0  0  0  0  0  0  0  0  0  0  0  0
  -23.6074  -41.6124   -6.5684 C   0  0  0  0  0  0  0  0  0  0  0  0
  -23.6920  -41.9436   -8.0215 C   0  0  0  0  0  0  0  0  0  0  0  0
  -22.9504  -43.1353   -8.4831 C   0  0  0  0  0  0  0  0  0  0  0  0
  -22.3576  -43.0141   -9.8614 C   0  0  0  0  0  0  0  0  0  0  0  0
  -21.2543  -43.9542   -9.9406 N   0  0  0  0  0  0  0  0  0  0  0  0
  -19.8986  -43.8661   -9.4961 C   0  0  0  0  0  0  0  0  0  0  0  0
  -19.5373  -45.1013   -8.8905 C   0  0  0  0  0  0  0  0  0  0  0  0
  -18.3089  -45.3531   -8.3532 C   0  0  0  0  0  0  0  0  0  0  0  0
  -17.4165  -44.3194   -8.4315 C   0  0  0  0  0  0  0  0  0  0  0  0
  -17.7184  -43.0636   -9.0241 C   0  0  0  0  0  0  0  0  0  0  0  0
  -18.9734  -42.8510   -9.5572 C   0  0  0  0  0  0  0  0  0  0  0  0
  -16.5371  -42.1890   -8.9377 C   0  0  0  0  0  0  0  0  0  0  0  0
  -15.3748  -42.7631   -9.1794 O   0  0  0  0  0  0  0  0  0  0  0  0
  -16.3670  -40.8268   -8.6401 N   0  0  0  0  0  0  0  0  0  0  0  0
  -17.9744  -46.6374   -7.7467 C   0  0  0  0  0  0  0  0  0  0  0  0
  -16.5951  -46.9913   -7.3563 C   0  0  0  0  0  0  0  0  0  0  0  0
  -18.9473  -47.4430   -7.5705 O   0  0  0  0  0  0  0  0  0  0  0  0
  1  2  1  0
  2  3  1  0
  2  4  1  0
  4  5  2  0
  5  6  1  0
  6  7  2  0
  7  8  1  0
  8  9  2  0
  6 10  1  0
 10 11  1  0
 11 12  1  0
 10 13  1  0
 13 14  1  0
 14 15  1  0
 15 16  1  6
 15 17  1  0
 17 18  1  1
 18 19  1  0
 19 20  2  0
 20 21  1  0
 21 22  2  0
 22 23  1  0
 23 24  2  0
 21 25  1  0
 25 26  1  0
 26 27  1  0
 27 28  1  0
 28 29  1  0
 29 30  1  0
 30 31  1  0
 31 32  2  0
 32 33  1  0
 33 34  2  0
 34 35  1  0
 35 36  2  0
 35 37  1  0
 37 38  2  0
 37 39  1  0
 33 40  1  0
 40 41  1  0
 40 42  2  0
  9  4  1  0
 12 10  1  0
 24 19  1  0
 36 31  1  0
 39 17  1  0
M  END
$$$$
