
     RDKit          3D

 43 46  0  0  0  0  0  0  0  0999 V2000
  -19.8398  -35.2720  -12.3325 C   0  0  0  0  0  0  0  0  0  0  0  0
  -19.7969  -35.3651  -13.7300 O   0  0  0  0  0  0  0  0  0  0  0  0
  -19.0654  -36.4894  -14.0961 C   0  0  0  0  0  0  0  0  0  0  0  0
  -18.1373  -36.8692  -13.0008 C   0  0  0  0  0  0  0  0  0  0  0  0
  -16.8175  -36.5410  -12.9990 C   0  0  0  0  0  0  0  0  0  0  0  0
  -15.9184  -36.8971  -11.9500 C   0  0  0  0  0  0  0  0  0  0  0  0
  -16.3802  -37.6143  -10.8657 C   0  0  0  0  0  0  0  0  0  0  0  0
  -17.7316  -37.9662  -10.8397 C   0  0  0  0  0  0  0  0  0  0  0  0
  -18.5730  -37.5798  -11.9145 C   0  0  0  0  0  0  0  0  0  0  0  0
  -18.5215  -38.7191   -9.8528 C   0  0  0  0  0  0  0  0  0  0  0  0
  -19.7053  -38.1908   -9.6177 O   0  0  0  0  0  0  0  0  0  0  0  0
  -18.3103  -39.8696   -9.1037 N   0  0  0  0  0  0  0  0  0  0  0  0
  -17.4933  -41.0322   -9.4111 C   0  0  1  0  0  0  0  0  0  0  0  0
  -16.5204  -41.3444   -8.3290 C   0  0  0  0  0  0  0  0  0  0  0  0
  -15.3400  -40.4615   -8.1533 C   0  0  0  0  0  0  0  0  0  0  0  0
  -14.2430  -40.2403   -8.9574 C   0  0  0  0  0  0  0  0  0  0  0  0
  -13.2738  -39.3441   -8.5408 C   0  0  0  0  0  0  0  0  0  0  0  0
  -13.4128  -38.6704   -7.3064 C   0  0  0  0  0  0  0  0  0  0  0  0
  -14.4871  -38.8642   -6.4822 C   0  0  0  0  0  0  0  0  0  0  0  0
  -15.4221  -39.7561   -6.9308 C   0  0  0  0  0  0  0  0  0  0  0  0
  -12.1038  -38.9636   -9.1657 O   0  0  0  0  0  0  0  0  0  0  0  0
  -11.7210  -38.4221  -10.3784 C   0  0  0  0  0  0  0  0  0  0  0  0
  -11.7361  -36.9148  -10.3746 C   0  0  0  0  0  0  0  0  0  0  0  0
  -12.2501  -36.3124  -11.6261 C   0  0  0  0  0  0  0  0  0  0  0  0
  -13.6187  -35.6961  -11.4957 C   0  0  0  0  0  0  0  0  0  0  0  0
  -14.6224  -36.3907  -12.2836 N   0  0  0  0  0  0  0  0  0  0  0  0
  -18.3852  -42.1666   -9.7868 C   0  0  2  0  0  0  0  0  0  0  0  0
  -17.8390  -42.8847  -10.8204 O   0  0  0  0  0  0  0  0  0  0  0  0
  -19.8097  -41.8924   -9.9888 C   0  0  0  0  0  0  0  0  0  0  0  0
  -20.8340  -42.6994   -9.5869 N   0  0  0  0  0  0  0  0  0  0  0  0
  -21.9003  -42.5145   -8.7701 C   0  0  0  0  0  0  0  0  0  0  0  0
  -22.7619  -41.3179   -9.0282 C   0  0  0  0  0  0  0  0  0  0  0  0
  -22.8809  -43.6947   -8.6682 C   0  0  0  0  0  0  0  0  0  0  0  0
  -21.4529  -42.3613   -7.3131 C   0  0  0  0  0  0  0  0  0  0  0  0
  -22.2885  -42.1716   -6.2260 C   0  0  0  0  0  0  0  0  0  0  0  0
  -21.4971  -42.0814   -5.0951 C   0  0  0  0  0  0  0  0  0  0  0  0
  -21.9019  -41.8814   -3.6933 C   0  0  0  0  0  0  0  0  0  0  0  0
  -21.4056  -40.6167   -3.0675 C   0  0  0  0  0  0  0  0  0  0  0  0
  -22.1567  -39.3960   -3.5503 C   0  0  0  0  0  0  0  0  0  0  0  0
  -19.9394  -40.3644   -3.3166 C   0  0  0  0  0  0  0  0  0  0  0  0
  -21.6248  -40.7338   -1.5734 C   0  0  0  0  0  0  0  0  0  0  0  0
  -20.2639  -42.2122   -5.5093 O   0  0  0  0  0  0  0  0  0  0  0  0
  -20.2257  -42.3769   -6.8098 N   0  0  0  0  0  0  0  0  0  0  0  0
  1  2  1  0
  2  3  1  0
  3  4  1  0
  4  5  2  0
  5  6  1  0
  6  7  2  0
  7  8  1  0
  8  9  2  0
  8 10  1  0
 10 11  2  0
 10 12  1  0
 12 13  1  0
 13 14  1  1
 14 15  1  0
 15 16  2  0
 16 17  1  0
 17 18  2  0
 18 19  1  0
 19 20  2  0
 17 21  1  0
 21 22  1  0
 22 23  1  0
 23 24  1  0
 24 25  1  0
 25 26  1  0
 13 27  1  0
 27 28  1  6
 27 29  1  0
 29 30  1  0
 30 31  1  0
 31 32  1  0
 31 33  1  0
 31 34  1  0
 34 35  1  0
 35 36  2  0
 36 37  1  0
 37 38  1  0
 38 39  1  0
 38 40  1  0
 38 41  1  0
 36 42  1  0
 42 43  1  0
  9  4  1  0
 20 15  1  0
 26  6  1  0
 43 34  2  0
M  END
$$$$
