
     RDKit          3D

 43 46  0  0  0  0  0  0  0  0999 V2000
  -16.9886  -46.9608  -10.5031 C   0  0  0  0  0  0  0  0  0  0  0  0
  -16.6748  -45.6084  -10.6929 O   0  0  0  0  0  0  0  0  0  0  0  0
  -15.5120  -45.3015   -9.9952 C   0  0  0  0  0  0  0  0  0  0  0  0
  -14.9945  -43.9789  -10.4290 C   0  0  0  0  0  0  0  0  0  0  0  0
  -13.7209  -43.7871  -10.8658 C   0  0  0  0  0  0  0  0  0  0  0  0
  -13.2151  -42.5219  -11.2887 C   0  0  0  0  0  0  0  0  0  0  0  0
  -14.0354  -41.4130  -11.2641 C   0  0  0  0  0  0  0  0  0  0  0  0
  -15.3492  -41.5790  -10.8198 C   0  0  0  0  0  0  0  0  0  0  0  0
  -15.7903  -42.8648  -10.4141 C   0  0  0  0  0  0  0  0  0  0  0  0
  -16.4532  -40.6182  -10.6687 C   0  0  0  0  0  0  0  0  0  0  0  0
  -17.6139  -41.0866  -11.0798 O   0  0  0  0  0  0  0  0  0  0  0  0
  -16.5603  -39.3196  -10.1875 N   0  0  0  0  0  0  0  0  0  0  0  0
  -15.7674  -38.6445   -9.1731 C   0  0  1  0  0  0  0  0  0  0  0  0
  -15.1989  -37.3582   -9.6600 C   0  0  0  0  0  0  0  0  0  0  0  0
  -14.0744  -37.3955  -10.6284 C   0  0  0  0  0  0  0  0  0  0  0  0
  -12.7707  -37.8202  -10.4911 C   0  0  0  0  0  0  0  0  0  0  0  0
  -11.9200  -37.7426  -11.5803 C   0  0  0  0  0  0  0  0  0  0  0  0
  -12.3880  -37.2322  -12.8121 C   0  0  0  0  0  0  0  0  0  0  0  0
  -13.6745  -36.8016  -12.9861 C   0  0  0  0  0  0  0  0  0  0  0  0
  -14.4826  -36.8962  -11.8865 C   0  0  0  0  0  0  0  0  0  0  0  0
  -10.5918  -38.1020  -11.6837 O   0  0  0  0  0  0  0  0  0  0  0  0
   -9.8184  -39.2296  -11.4825 C   0  0  0  0  0  0  0  0  0  0  0  0
   -9.7338  -40.1047  -12.7070 C   0  0  0  0  0  0  0  0  0  0  0  0
   -9.7954  -41.5560  -12.4181 C   0  0  0  0  0  0  0  0  0  0  0  0
  -11.0933  -42.2085  -12.8175 C   0  0  0  0  0  0  0  0  0  0  0  0
  -11.8488  -42.6959  -11.6763 N   0  0  0  0  0  0  0  0  0  0  0  0
  -16.5732  -38.5306   -7.9235 C   0  0  2  0  0  0  0  0  0  0  0  0
  -16.5206  -39.7013   -7.2101 O   0  0  0  0  0  0  0  0  0  0  0  0
  -17.9335  -37.9965   -8.0208 C   0  0  0  0  0  0  0  0  0  0  0  0
  -19.0457  -38.5629   -7.4694 N   0  0  0  0  0  0  0  0  0  0  0  0
  -20.3298  -38.6910   -7.8856 C   0  0  0  0  0  0  0  0  0  0  0  0
  -21.3307  -37.7289   -7.3260 C   0  0  0  0  0  0  0  0  0  0  0  0
  -20.5497  -38.6519   -9.4071 C   0  0  0  0  0  0  0  0  0  0  0  0
  -20.8838  -40.0745   -7.5315 C   0  0  0  0  0  0  0  0  0  0  0  0
  -21.7357  -40.3594   -6.4783 C   0  0  0  0  0  0  0  0  0  0  0  0
  -21.9992  -41.7170   -6.5030 C   0  0  0  0  0  0  0  0  0  0  0  0
  -22.8464  -42.5141   -5.5998 C   0  0  0  0  0  0  0  0  0  0  0  0
  -22.2819  -42.7291   -4.2313 C   0  0  0  0  0  0  0  0  0  0  0  0
  -23.2058  -43.5300   -3.3411 C   0  0  0  0  0  0  0  0  0  0  0  0
  -21.9700  -41.4433   -3.5069 C   0  0  0  0  0  0  0  0  0  0  0  0
  -20.9964  -43.5143   -4.3895 C   0  0  0  0  0  0  0  0  0  0  0  0
  -21.3312  -42.1933   -7.5211 O   0  0  0  0  0  0  0  0  0  0  0  0
  -20.6725  -41.2381   -8.1322 N   0  0  0  0  0  0  0  0  0  0  0  0
  1  2  1  0
  2  3  1  0
  3  4  1  0
  4  5  2  0
  5  6  1  0
  6  7  2  0
  7  8  1  0
  8  9  2  0
  8 10  1  0
 10 11  2  0
 10 12  1  0
 12 13  1  0
 13 14  1  6
 14 15  1  0
 15 16  2  0
 16 17  1  0
 17 18  2  0
 18 19  1  0
 19 20  2  0
 17 21  1  0
 21 22  1  0
 22 23  1  0
 23 24  1  0
 24 25  1  0
 25 26  1  0
 13 27  1  0
 27 28  1  6
 27 29  1  0
 29 30  1  0
 30 31  1  0
 31 32  1  0
 31 33  1  0
 31 34  1  0
 34 35  1  0
 35 36  2  0
 36 37  1  0
 37 38  1  0
 38 39  1  0
 38 40  1  0
 38 41  1  0
 36 42  1  0
 42 43  1  0
  9  4  1  0
 20 15  1  0
 26  6  1  0
 43 34  2  0
M  END
$$$$
