
     RDKit          3D

 43 46  0  0  0  0  0  0  0  0999 V2000
  -19.8699  -36.2105  -13.3758 C   0  0  0  0  0  0  0  0  0  0  0  0
  -19.3644  -37.0374  -12.3637 O   0  0  0  0  0  0  0  0  0  0  0  0
  -19.8495  -36.6103  -11.1327 C   0  0  0  0  0  0  0  0  0  0  0  0
  -20.0562  -37.7765  -10.2369 C   0  0  0  0  0  0  0  0  0  0  0  0
  -21.2625  -38.0897   -9.6925 C   0  0  0  0  0  0  0  0  0  0  0  0
  -21.4728  -39.2099   -8.8344 C   0  0  0  0  0  0  0  0  0  0  0  0
  -20.4164  -40.0390   -8.5187 C   0  0  0  0  0  0  0  0  0  0  0  0
  -19.1646  -39.7424   -9.0627 C   0  0  0  0  0  0  0  0  0  0  0  0
  -19.0231  -38.6137   -9.9103 C   0  0  0  0  0  0  0  0  0  0  0  0
  -17.8604  -40.4084   -8.9212 C   0  0  0  0  0  0  0  0  0  0  0  0
  -17.1962  -40.5037  -10.0549 O   0  0  0  0  0  0  0  0  0  0  0  0
  -17.1566  -40.9649   -7.8608 N   0  0  0  0  0  0  0  0  0  0  0  0
  -17.1877  -40.6158   -6.4499 C   0  0  1  0  0  0  0  0  0  0  0  0
  -17.4718  -41.7900   -5.5807 C   0  0  0  0  0  0  0  0  0  0  0  0
  -18.8488  -42.3440   -5.5563 C   0  0  0  0  0  0  0  0  0  0  0  0
  -20.0317  -41.8176   -5.0844 C   0  0  0  0  0  0  0  0  0  0  0  0
  -21.1911  -42.5660   -5.1927 C   0  0  0  0  0  0  0  0  0  0  0  0
  -21.1547  -43.8515   -5.7783 C   0  0  0  0  0  0  0  0  0  0  0  0
  -20.0000  -44.4065   -6.2575 C   0  0  0  0  0  0  0  0  0  0  0  0
  -18.8777  -43.6346   -6.1325 C   0  0  0  0  0  0  0  0  0  0  0  0
  -22.4762  -42.2551   -4.7979 O   0  0  0  0  0  0  0  0  0  0  0  0
  -23.4030  -41.2554   -5.0260 C   0  0  0  0  0  0  0  0  0  0  0  0
  -24.2692  -41.5269   -6.2295 C   0  0  0  0  0  0  0  0  0  0  0  0
  -24.5515  -40.3292   -7.0535 C   0  0  0  0  0  0  0  0  0  0  0  0
  -23.8238  -40.3039   -8.3724 C   0  0  0  0  0  0  0  0  0  0  0  0
  -22.8523  -39.2269   -8.4548 N   0  0  0  0  0  0  0  0  0  0  0  0
  -15.9382  -39.8788   -6.1046 C   0  0  2  0  0  0  0  0  0  0  0  0
  -16.1245  -39.1201   -4.9769 O   0  0  0  0  0  0  0  0  0  0  0  0
  -15.2512  -39.1410   -7.1670 C   0  0  0  0  0  0  0  0  0  0  0  0
  -14.7681  -39.6852   -8.3213 N   0  0  0  0  0  0  0  0  0  0  0  0
  -13.6670  -39.4449   -9.0751 C   0  0  0  0  0  0  0  0  0  0  0  0
  -12.6946  -38.4285   -8.5633 C   0  0  0  0  0  0  0  0  0  0  0  0
  -12.8101  -40.6736   -9.4231 C   0  0  0  0  0  0  0  0  0  0  0  0
  -14.0572  -38.9394  -10.4675 C   0  0  0  0  0  0  0  0  0  0  0  0
  -13.2155  -38.3002  -11.3612 C   0  0  0  0  0  0  0  0  0  0  0  0
  -13.9486  -38.0073  -12.4970 C   0  0  0  0  0  0  0  0  0  0  0  0
  -13.5147  -37.3350  -13.7334 C   0  0  0  0  0  0  0  0  0  0  0  0
  -14.0692  -35.9600  -13.9320 C   0  0  0  0  0  0  0  0  0  0  0  0
  -14.0826  -35.5434  -15.3858 C   0  0  0  0  0  0  0  0  0  0  0  0
  -13.3147  -34.8980  -13.1716 C   0  0  0  0  0  0  0  0  0  0  0  0
  -15.5021  -35.9740  -13.4415 C   0  0  0  0  0  0  0  0  0  0  0  0
  -15.1557  -38.4553  -12.2698 O   0  0  0  0  0  0  0  0  0  0  0  0
  -15.2313  -39.0043  -11.0813 N   0  0  0  0  0  0  0  0  0  0  0  0
  1  2  1  0
  2  3  1  0
  3  4  1  0
  4  5  2  0
  5  6  1  0
  6  7  2  0
  7  8  1  0
  8  9  2  0
  8 10  1  0
 10 11  2  0
 10 12  1  0
 12 13  1  0
 13 14  1  1
 14 15  1  0
 15 16  2  0
 16 17  1  0
 17 18  2  0
 18 19  1  0
 19 20  2  0
 17 21  1  0
 21 22  1  0
 22 23  1  0
 23 24  1  0
 24 25  1  0
 25 26  1  0
 13 27  1  0
 27 28  1  1
 27 29  1  0
 29 30  1  0
 30 31  1  0
 31 32  1  0
 31 33  1  0
 31 34  1  0
 34 35  1  0
 35 36  2  0
 36 37  1  0
 37 38  1  0
 38 39  1  0
 38 40  1  0
 38 41  1  0
 36 42  1  0
 42 43  1  0
  9  4  1  0
 20 15  1  0
 26  6  1  0
 43 34  2  0
M  END
$$$$
