
     RDKit          3D

 43 46  0  0  0  0  0  0  0  0999 V2000
  -19.8964  -36.8655  -12.4251 C   0  0  0  0  0  0  0  0  0  0  0  0
  -21.0801  -37.3679  -11.8685 O   0  0  0  0  0  0  0  0  0  0  0  0
  -21.2011  -38.7174  -12.1805 C   0  0  0  0  0  0  0  0  0  0  0  0
  -21.1423  -39.5319  -10.9402 C   0  0  0  0  0  0  0  0  0  0  0  0
  -22.1500  -39.5684  -10.0277 C   0  0  0  0  0  0  0  0  0  0  0  0
  -22.1054  -40.3506   -8.8354 C   0  0  0  0  0  0  0  0  0  0  0  0
  -20.9942  -41.1213   -8.5627 C   0  0  0  0  0  0  0  0  0  0  0  0
  -19.9425  -41.1040   -9.4816 C   0  0  0  0  0  0  0  0  0  0  0  0
  -20.0504  -40.3052  -10.6490 C   0  0  0  0  0  0  0  0  0  0  0  0
  -18.6424  -41.7927   -9.4846 C   0  0  0  0  0  0  0  0  0  0  0  0
  -18.3131  -42.2831  -10.6622 O   0  0  0  0  0  0  0  0  0  0  0  0
  -17.6693  -42.0487   -8.5270 N   0  0  0  0  0  0  0  0  0  0  0  0
  -17.3165  -41.2812   -7.3438 C   0  0  1  0  0  0  0  0  0  0  0  0
  -17.3392  -42.1055   -6.1048 C   0  0  0  0  0  0  0  0  0  0  0  0
  -18.6510  -42.5171   -5.5449 C   0  0  0  0  0  0  0  0  0  0  0  0
  -19.6649  -41.7814   -4.9706 C   0  0  0  0  0  0  0  0  0  0  0  0
  -20.8018  -42.4350   -4.5272 C   0  0  0  0  0  0  0  0  0  0  0  0
  -20.9135  -43.8371   -4.6629 C   0  0  0  0  0  0  0  0  0  0  0  0
  -19.9284  -44.6000   -5.2274 C   0  0  0  0  0  0  0  0  0  0  0  0
  -18.8230  -43.9161   -5.6533 C   0  0  0  0  0  0  0  0  0  0  0  0
  -21.9328  -41.9195   -3.9280 O   0  0  0  0  0  0  0  0  0  0  0  0
  -22.8971  -40.9701   -4.2090 C   0  0  0  0  0  0  0  0  0  0  0  0
  -24.0568  -41.5309   -4.9919 C   0  0  0  0  0  0  0  0  0  0  0  0
  -24.5667  -40.6267   -6.0481 C   0  0  0  0  0  0  0  0  0  0  0  0
  -24.2283  -41.0645   -7.4494 C   0  0  0  0  0  0  0  0  0  0  0  0
  -23.3279  -40.1434   -8.1213 N   0  0  0  0  0  0  0  0  0  0  0  0
  -16.0280  -40.5725   -7.5913 C   0  0  2  0  0  0  0  0  0  0  0  0
  -16.0986  -39.2778   -7.1431 O   0  0  0  0  0  0  0  0  0  0  0  0
  -15.4264  -40.6706   -8.9230 C   0  0  0  0  0  0  0  0  0  0  0  0
  -14.4651  -39.8387   -9.4186 N   0  0  0  0  0  0  0  0  0  0  0  0
  -13.8386  -39.7487  -10.6177 C   0  0  0  0  0  0  0  0  0  0  0  0
  -12.8016  -40.7825  -10.9284 C   0  0  0  0  0  0  0  0  0  0  0  0
  -14.7539  -39.7213  -11.8533 C   0  0  0  0  0  0  0  0  0  0  0  0
  -13.1034  -38.4115  -10.7515 C   0  0  0  0  0  0  0  0  0  0  0  0
  -12.4947  -37.9345  -11.8995 C   0  0  0  0  0  0  0  0  0  0  0  0
  -11.9468  -36.6990  -11.6053 C   0  0  0  0  0  0  0  0  0  0  0  0
  -11.1977  -35.7837  -12.4829 C   0  0  0  0  0  0  0  0  0  0  0  0
  -11.9614  -34.5814  -12.9398 C   0  0  0  0  0  0  0  0  0  0  0  0
  -11.3328  -33.9171  -14.1443 C   0  0  0  0  0  0  0  0  0  0  0  0
  -12.1033  -33.5250  -11.8724 C   0  0  0  0  0  0  0  0  0  0  0  0
  -13.3458  -35.0486  -13.3389 C   0  0  0  0  0  0  0  0  0  0  0  0
  -12.2252  -36.4737  -10.3478 O   0  0  0  0  0  0  0  0  0  0  0  0
  -12.9037  -37.4725   -9.8362 N   0  0  0  0  0  0  0  0  0  0  0  0
  1  2  1  0
  2  3  1  0
  3  4  1  0
  4  5  2  0
  5  6  1  0
  6  7  2  0
  7  8  1  0
  8  9  2  0
  8 10  1  0
 10 11  2  0
 10 12  1  0
 12 13  1  0
 13 14  1  1
 14 15  1  0
 15 16  2  0
 16 17  1  0
 17 18  2  0
 18 19  1  0
 19 20  2  0
 17 21  1  0
 21 22  1  0
 22 23  1  0
 23 24  1  0
 24 25  1  0
 25 26  1  0
 13 27  1  0
 27 28  1  6
 27 29  1  0
 29 30  1  0
 30 31  1  0
 31 32  1  0
 31 33  1  0
 31 34  1  0
 34 35  1  0
 35 36  2  0
 36 37  1  0
 37 38  1  0
 38 39  1  0
 38 40  1  0
 38 41  1  0
 36 42  1  0
 42 43  1  0
  9  4  1  0
 20 15  1  0
 26  6  1  0
 43 34  2  0
M  END
$$$$
