
     RDKit          3D

 43 46  0  0  0  0  0  0  0  0999 V2000
  -19.4088  -40.5944  -14.4065 C   0  0  0  0  0  0  0  0  0  0  0  0
  -18.8079  -40.3067  -13.1738 O   0  0  0  0  0  0  0  0  0  0  0  0
  -18.3746  -41.4888  -12.5838 C   0  0  0  0  0  0  0  0  0  0  0  0
  -18.8965  -41.5843  -11.1968 C   0  0  0  0  0  0  0  0  0  0  0  0
  -20.1228  -42.0909  -10.8984 C   0  0  0  0  0  0  0  0  0  0  0  0
  -20.6318  -42.1911   -9.5694 C   0  0  0  0  0  0  0  0  0  0  0  0
  -19.8649  -41.7583   -8.5074 C   0  0  0  0  0  0  0  0  0  0  0  0
  -18.6005  -41.2325   -8.7829 C   0  0  0  0  0  0  0  0  0  0  0  0
  -18.1531  -41.1620  -10.1273 C   0  0  0  0  0  0  0  0  0  0  0  0
  -17.5594  -40.6890   -7.8968 C   0  0  0  0  0  0  0  0  0  0  0  0
  -16.3431  -41.0810   -8.2173 O   0  0  0  0  0  0  0  0  0  0  0  0
  -17.5576  -39.8492   -6.7904 N   0  0  0  0  0  0  0  0  0  0  0  0
  -18.4815  -38.7820   -6.4422 C   0  0  1  0  0  0  0  0  0  0  0  0
  -19.0469  -38.9443   -5.0751 C   0  0  0  0  0  0  0  0  0  0  0  0
  -20.0587  -40.0051   -4.8420 C   0  0  0  0  0  0  0  0  0  0  0  0
  -21.3512  -40.1443   -5.2994 C   0  0  0  0  0  0  0  0  0  0  0  0
  -22.0829  -41.2561   -4.9191 C   0  0  0  0  0  0  0  0  0  0  0  0
  -21.5071  -42.2298   -4.0722 C   0  0  0  0  0  0  0  0  0  0  0  0
  -20.2280  -42.1257   -3.5988 C   0  0  0  0  0  0  0  0  0  0  0  0
  -19.5391  -41.0138   -3.9987 C   0  0  0  0  0  0  0  0  0  0  0  0
  -23.3766  -41.6086   -5.2450 O   0  0  0  0  0  0  0  0  0  0  0  0
  -24.1202  -41.8264   -6.3894 C   0  0  0  0  0  0  0  0  0  0  0  0
  -24.0374  -43.2507   -6.8763 C   0  0  0  0  0  0  0  0  0  0  0  0
  -23.9477  -43.3818   -8.3487 C   0  0  0  0  0  0  0  0  0  0  0  0
  -22.5889  -43.7994   -8.8478 C   0  0  0  0  0  0  0  0  0  0  0  0
  -21.9405  -42.7656   -9.6362 N   0  0  0  0  0  0  0  0  0  0  0  0
  -17.8194  -37.4682   -6.6855 C   0  0  2  0  0  0  0  0  0  0  0  0
  -18.5112  -36.4597   -6.0639 O   0  0  0  0  0  0  0  0  0  0  0  0
  -17.4435  -37.1239   -8.0586 C   0  0  0  0  0  0  0  0  0  0  0  0
  -16.1807  -37.1877   -8.5713 N   0  0  0  0  0  0  0  0  0  0  0  0
  -15.6867  -37.4955   -9.7959 C   0  0  0  0  0  0  0  0  0  0  0  0
  -16.6642  -37.9492  -10.8349 C   0  0  0  0  0  0  0  0  0  0  0  0
  -14.8601  -36.3954  -10.4826 C   0  0  0  0  0  0  0  0  0  0  0  0
  -14.6654  -38.6334   -9.7034 C   0  0  0  0  0  0  0  0  0  0  0  0
  -14.1287  -39.3276  -10.7738 C   0  0  0  0  0  0  0  0  0  0  0  0
  -13.2504  -40.2696  -10.2692 C   0  0  0  0  0  0  0  0  0  0  0  0
  -12.4277  -41.2529  -10.9940 C   0  0  0  0  0  0  0  0  0  0  0  0
  -11.7450  -42.2643  -10.1288 C   0  0  0  0  0  0  0  0  0  0  0  0
  -12.4010  -43.6253  -10.1978 C   0  0  0  0  0  0  0  0  0  0  0  0
  -11.6952  -41.8675   -8.6744 C   0  0  0  0  0  0  0  0  0  0  0  0
  -10.3249  -42.4091  -10.6351 C   0  0  0  0  0  0  0  0  0  0  0  0
  -13.2791  -40.1265   -8.9699 O   0  0  0  0  0  0  0  0  0  0  0  0
  -14.1065  -39.1690   -8.6262 N   0  0  0  0  0  0  0  0  0  0  0  0
  1  2  1  0
  2  3  1  0
  3  4  1  0
  4  5  2  0
  5  6  1  0
  6  7  2  0
  7  8  1  0
  8  9  2  0
  8 10  1  0
 10 11  2  0
 10 12  1  0
 12 13  1  0
 13 14  1  1
 14 15  1  0
 15 16  2  0
 16 17  1  0
 17 18  2  0
 18 19  1  0
 19 20  2  0
 17 21  1  0
 21 22  1  0
 22 23  1  0
 23 24  1  0
 24 25  1  0
 25 26  1  0
 13 27  1  0
 27 28  1  6
 27 29  1  0
 29 30  1  0
 30 31  1  0
 31 32  1  0
 31 33  1  0
 31 34  1  0
 34 35  1  0
 35 36  2  0
 36 37  1  0
 37 38  1  0
 38 39  1  0
 38 40  1  0
 38 41  1  0
 36 42  1  0
 42 43  1  0
  9  4  1  0
 20 15  1  0
 26  6  1  0
 43 34  2  0
M  END
$$$$
