
     RDKit          3D

 43 46  0  0  0  0  0  0  0  0999 V2000
  -19.9416  -39.9423  -14.6126 C   0  0  0  0  0  0  0  0  0  0  0  0
  -20.1213  -39.9286  -13.2229 O   0  0  0  0  0  0  0  0  0  0  0  0
  -20.4492  -41.2074  -12.7867 C   0  0  0  0  0  0  0  0  0  0  0  0
  -20.5457  -41.2286  -11.3050 C   0  0  0  0  0  0  0  0  0  0  0  0
  -21.7303  -41.1970  -10.6378 C   0  0  0  0  0  0  0  0  0  0  0  0
  -21.8343  -41.2213   -9.2151 C   0  0  0  0  0  0  0  0  0  0  0  0
  -20.6909  -41.2781   -8.4454 C   0  0  0  0  0  0  0  0  0  0  0  0
  -19.4589  -41.3113   -9.1027 C   0  0  0  0  0  0  0  0  0  0  0  0
  -19.4248  -41.2858  -10.5207 C   0  0  0  0  0  0  0  0  0  0  0  0
  -18.0823  -41.3652   -8.5860 C   0  0  0  0  0  0  0  0  0  0  0  0
  -17.3067  -42.1974   -9.2505 O   0  0  0  0  0  0  0  0  0  0  0  0
  -17.4008  -40.7366   -7.5517 N   0  0  0  0  0  0  0  0  0  0  0  0
  -17.6229  -39.4252   -6.9649 C   0  0  1  0  0  0  0  0  0  0  0  0
  -17.7915  -39.4856   -5.4875 C   0  0  0  0  0  0  0  0  0  0  0  0
  -19.0547  -40.0355   -4.9347 C   0  0  0  0  0  0  0  0  0  0  0  0
  -20.3475  -39.5602   -4.9760 C   0  0  0  0  0  0  0  0  0  0  0  0
  -21.3525  -40.2914   -4.3666 C   0  0  0  0  0  0  0  0  0  0  0  0
  -21.0497  -41.5063   -3.7116 C   0  0  0  0  0  0  0  0  0  0  0  0
  -19.7792  -42.0093   -3.6500 C   0  0  0  0  0  0  0  0  0  0  0  0
  -18.8161  -41.2576   -4.2652 C   0  0  0  0  0  0  0  0  0  0  0  0
  -22.7029  -40.0221   -4.2774 O   0  0  0  0  0  0  0  0  0  0  0  0
  -23.7554  -39.7727   -5.1377 C   0  0  0  0  0  0  0  0  0  0  0  0
  -24.4467  -41.0322   -5.5939 C   0  0  0  0  0  0  0  0  0  0  0  0
  -24.8424  -41.0216   -7.0209 C   0  0  0  0  0  0  0  0  0  0  0  0
  -24.0066  -41.9170   -7.8982 C   0  0  0  0  0  0  0  0  0  0  0  0
  -23.2220  -41.1743   -8.8695 N   0  0  0  0  0  0  0  0  0  0  0  0
  -16.5501  -38.4984   -7.4274 C   0  0  2  0  0  0  0  0  0  0  0  0
  -16.9943  -37.2007   -7.4047 O   0  0  0  0  0  0  0  0  0  0  0  0
  -15.8379  -38.8235   -8.6652 C   0  0  0  0  0  0  0  0  0  0  0  0
  -15.2627  -40.0269   -8.9527 N   0  0  0  0  0  0  0  0  0  0  0  0
  -14.4473  -40.4560   -9.9475 C   0  0  0  0  0  0  0  0  0  0  0  0
  -13.0742  -40.9094   -9.5605 C   0  0  0  0  0  0  0  0  0  0  0  0
  -15.0032  -41.5847  -10.8318 C   0  0  0  0  0  0  0  0  0  0  0  0
  -14.2119  -39.3473  -10.9779 C   0  0  0  0  0  0  0  0  0  0  0  0
  -13.0416  -38.6254  -11.1363 C   0  0  0  0  0  0  0  0  0  0  0  0
  -13.2366  -37.7248  -12.1679 C   0  0  0  0  0  0  0  0  0  0  0  0
  -12.2994  -36.7343  -12.7242 C   0  0  0  0  0  0  0  0  0  0  0  0
  -12.5712  -35.3173  -12.3295 C   0  0  0  0  0  0  0  0  0  0  0  0
  -12.6348  -35.1341  -10.8296 C   0  0  0  0  0  0  0  0  0  0  0  0
  -13.8593  -34.7770  -12.8989 C   0  0  0  0  0  0  0  0  0  0  0  0
  -11.4259  -34.4741  -12.8504 C   0  0  0  0  0  0  0  0  0  0  0  0
  -14.4609  -37.9171  -12.5848 O   0  0  0  0  0  0  0  0  0  0  0  0
  -15.0432  -38.8670  -11.8932 N   0  0  0  0  0  0  0  0  0  0  0  0
  1  2  1  0
  2  3  1  0
  3  4  1  0
  4  5  2  0
  5  6  1  0
  6  7  2  0
  7  8  1  0
  8  9  2  0
  8 10  1  0
 10 11  2  0
 10 12  1  0
 12 13  1  0
 13 14  1  1
 14 15  1  0
 15 16  2  0
 16 17  1  0
 17 18  2  0
 18 19  1  0
 19 20  2  0
 17 21  1  0
 21 22  1  0
 22 23  1  0
 23 24  1  0
 24 25  1  0
 25 26  1  0
 13 27  1  0
 27 28  1  6
 27 29  1  0
 29 30  1  0
 30 31  1  0
 31 32  1  0
 31 33  1  0
 31 34  1  0
 34 35  1  0
 35 36  2  0
 36 37  1  0
 37 38  1  0
 38 39  1  0
 38 40  1  0
 38 41  1  0
 36 42  1  0
 42 43  1  0
  9  4  1  0
 20 15  1  0
 26  6  1  0
 43 34  2  0
M  END
$$$$
