
     RDKit          3D

 43 46  0  0  0  0  0  0  0  0999 V2000
  -23.6309  -38.9469  -13.7865 C   0  0  0  0  0  0  0  0  0  0  0  0
  -22.4234  -39.5641  -13.4335 O   0  0  0  0  0  0  0  0  0  0  0  0
  -21.7389  -38.7581  -12.5308 C   0  0  0  0  0  0  0  0  0  0  0  0
  -21.5784  -39.4689  -11.2369 C   0  0  0  0  0  0  0  0  0  0  0  0
  -22.5937  -39.6273  -10.3460 C   0  0  0  0  0  0  0  0  0  0  0  0
  -22.4513  -40.3120   -9.1025 C   0  0  0  0  0  0  0  0  0  0  0  0
  -21.2310  -40.8528   -8.7539 C   0  0  0  0  0  0  0  0  0  0  0  0
  -20.1688  -40.7056   -9.6489 C   0  0  0  0  0  0  0  0  0  0  0  0
  -20.3773  -40.0144  -10.8700 C   0  0  0  0  0  0  0  0  0  0  0  0
  -18.7679  -41.1495   -9.5766 C   0  0  0  0  0  0  0  0  0  0  0  0
  -18.3177  -41.6464  -10.7107 O   0  0  0  0  0  0  0  0  0  0  0  0
  -17.7975  -41.1662   -8.5829 N   0  0  0  0  0  0  0  0  0  0  0  0
  -17.6260  -40.2747   -7.4474 C   0  0  1  0  0  0  0  0  0  0  0  0
  -17.5439  -41.0099   -6.1560 C   0  0  0  0  0  0  0  0  0  0  0  0
  -18.7800  -41.6133   -5.5979 C   0  0  0  0  0  0  0  0  0  0  0  0
  -19.9269  -41.0361   -5.0972 C   0  0  0  0  0  0  0  0  0  0  0  0
  -20.9442  -41.8532   -4.6351 C   0  0  0  0  0  0  0  0  0  0  0  0
  -20.8013  -43.2584   -4.6773 C   0  0  0  0  0  0  0  0  0  0  0  0
  -19.6784  -43.8668   -5.1669 C   0  0  0  0  0  0  0  0  0  0  0  0
  -18.6979  -43.0245   -5.6144 C   0  0  0  0  0  0  0  0  0  0  0  0
  -22.1681  -41.5115   -4.0971 O   0  0  0  0  0  0  0  0  0  0  0  0
  -23.2753  -40.7696   -4.4629 C   0  0  0  0  0  0  0  0  0  0  0  0
  -24.2905  -41.5772   -5.2308 C   0  0  0  0  0  0  0  0  0  0  0  0
  -24.9168  -40.8473   -6.3570 C   0  0  0  0  0  0  0  0  0  0  0  0
  -24.4595  -41.3052   -7.7175 C   0  0  0  0  0  0  0  0  0  0  0  0
  -23.7144  -40.2822   -8.4309 N   0  0  0  0  0  0  0  0  0  0  0  0
  -16.4758  -39.3641   -7.7146 C   0  0  2  0  0  0  0  0  0  0  0  0
  -16.2143  -38.5859   -6.6155 O   0  0  0  0  0  0  0  0  0  0  0  0
  -16.4766  -38.5912   -8.9587 C   0  0  0  0  0  0  0  0  0  0  0  0
  -15.5411  -38.6853   -9.9475 N   0  0  0  0  0  0  0  0  0  0  0  0
  -14.6343  -39.6353  -10.2848 C   0  0  0  0  0  0  0  0  0  0  0  0
  -13.9486  -40.3559   -9.1662 C   0  0  0  0  0  0  0  0  0  0  0  0
  -15.1411  -40.7456  -11.2203 C   0  0  0  0  0  0  0  0  0  0  0  0
  -13.4946  -39.0336  -11.1128 C   0  0  0  0  0  0  0  0  0  0  0  0
  -12.5555  -38.1251  -10.6564 C   0  0  0  0  0  0  0  0  0  0  0  0
  -11.7045  -37.8327  -11.7070 C   0  0  0  0  0  0  0  0  0  0  0  0
  -10.5439  -36.9266  -11.7361 C   0  0  0  0  0  0  0  0  0  0  0  0
  -10.2647  -36.3013  -13.0661 C   0  0  0  0  0  0  0  0  0  0  0  0
  -10.6437  -37.2004  -14.2217 C   0  0  0  0  0  0  0  0  0  0  0  0
   -8.8169  -35.9219  -13.2537 C   0  0  0  0  0  0  0  0  0  0  0  0
  -11.1057  -35.0454  -13.1619 C   0  0  0  0  0  0  0  0  0  0  0  0
  -12.1322  -38.5381  -12.7215 O   0  0  0  0  0  0  0  0  0  0  0  0
  -13.1828  -39.2468  -12.3844 N   0  0  0  0  0  0  0  0  0  0  0  0
  1  2  1  0
  2  3  1  0
  3  4  1  0
  4  5  2  0
  5  6  1  0
  6  7  2  0
  7  8  1  0
  8  9  2  0
  8 10  1  0
 10 11  2  0
 10 12  1  0
 12 13  1  0
 13 14  1  1
 14 15  1  0
 15 16  2  0
 16 17  1  0
 17 18  2  0
 18 19  1  0
 19 20  2  0
 17 21  1  0
 21 22  1  0
 22 23  1  0
 23 24  1  0
 24 25  1  0
 25 26  1  0
 13 27  1  0
 27 28  1  1
 27 29  1  0
 29 30  1  0
 30 31  1  0
 31 32  1  0
 31 33  1  0
 31 34  1  0
 34 35  1  0
 35 36  2  0
 36 37  1  0
 37 38  1  0
 38 39  1  0
 38 40  1  0
 38 41  1  0
 36 42  1  0
 42 43  1  0
  9  4  1  0
 20 15  1  0
 26  6  1  0
 43 34  2  0
M  END
$$$$
