
     RDKit          3D

 43 46  0  0  0  0  0  0  0  0999 V2000
  -22.5789  -40.4713   -3.3186 C   0  0  0  0  0  0  0  0  0  0  0  0
  -23.4774  -41.3154   -3.9849 O   0  0  0  0  0  0  0  0  0  0  0  0
  -23.5084  -40.9839   -5.3349 C   0  0  0  0  0  0  0  0  0  0  0  0
  -22.4684  -41.7488   -6.0688 C   0  0  0  0  0  0  0  0  0  0  0  0
  -22.4513  -43.1073   -6.1306 C   0  0  0  0  0  0  0  0  0  0  0  0
  -21.4596  -43.8515   -6.8363 C   0  0  0  0  0  0  0  0  0  0  0  0
  -20.4490  -43.1881   -7.5010 C   0  0  0  0  0  0  0  0  0  0  0  0
  -20.4401  -41.7921   -7.4553 C   0  0  0  0  0  0  0  0  0  0  0  0
  -21.4567  -41.1121   -6.7365 C   0  0  0  0  0  0  0  0  0  0  0  0
  -19.5177  -40.8060   -8.0397 C   0  0  0  0  0  0  0  0  0  0  0  0
  -20.1304  -39.7675   -8.5705 O   0  0  0  0  0  0  0  0  0  0  0  0
  -18.1375  -40.7112   -8.1630 N   0  0  0  0  0  0  0  0  0  0  0  0
  -17.0964  -41.2496   -7.3029 C   0  0  1  0  0  0  0  0  0  0  0  0
  -16.1104  -42.0743   -8.0531 C   0  0  0  0  0  0  0  0  0  0  0  0
  -16.5209  -43.4179   -8.5323 C   0  0  0  0  0  0  0  0  0  0  0  0
  -16.8332  -44.5713   -7.8457 C   0  0  0  0  0  0  0  0  0  0  0  0
  -17.1919  -45.7021   -8.5590 C   0  0  0  0  0  0  0  0  0  0  0  0
  -17.2334  -45.6678   -9.9710 C   0  0  0  0  0  0  0  0  0  0  0  0
  -16.9302  -44.5420  -10.6864 C   0  0  0  0  0  0  0  0  0  0  0  0
  -16.5822  -43.4469   -9.9444 C   0  0  0  0  0  0  0  0  0  0  0  0
  -17.5421  -46.9551   -8.0992 O   0  0  0  0  0  0  0  0  0  0  0  0
  -18.4787  -47.5068   -7.2457 C   0  0  0  0  0  0  0  0  0  0  0  0
  -19.7745  -47.8411   -7.9397 C   0  0  0  0  0  0  0  0  0  0  0  0
  -20.9839  -47.5372   -7.1407 C   0  0  0  0  0  0  0  0  0  0  0  0
  -21.7621  -46.3442   -7.6316 C   0  0  0  0  0  0  0  0  0  0  0  0
  -21.7552  -45.2432   -6.6838 N   0  0  0  0  0  0  0  0  0  0  0  0
  -16.4969  -40.1369   -6.5116 C   0  0  2  0  0  0  0  0  0  0  0  0
  -17.0885  -40.0531   -5.2767 O   0  0  0  0  0  0  0  0  0  0  0  0
  -16.3540  -38.8277   -7.1525 C   0  0  0  0  0  0  0  0  0  0  0  0
  -17.3713  -37.9505   -7.3921 N   0  0  0  0  0  0  0  0  0  0  0  0
  -17.7556  -37.2454   -8.4846 C   0  0  0  0  0  0  0  0  0  0  0  0
  -18.7306  -37.8987   -9.4138 C   0  0  0  0  0  0  0  0  0  0  0  0
  -18.3418  -35.8501   -8.2115 C   0  0  0  0  0  0  0  0  0  0  0  0
  -16.5506  -36.9040   -9.3667 C   0  0  0  0  0  0  0  0  0  0  0  0
  -15.9104  -37.7731  -10.2331 C   0  0  0  0  0  0  0  0  0  0  0  0
  -14.8768  -37.0814  -10.8386 C   0  0  0  0  0  0  0  0  0  0  0  0
  -13.9032  -37.5551  -11.8370 C   0  0  0  0  0  0  0  0  0  0  0  0
  -13.5538  -36.5610  -12.8987 C   0  0  0  0  0  0  0  0  0  0  0  0
  -14.7710  -36.0395  -13.6293 C   0  0  0  0  0  0  0  0  0  0  0  0
  -12.6104  -37.1090  -13.9403 C   0  0  0  0  0  0  0  0  0  0  0  0
  -12.8847  -35.3858  -12.2167 C   0  0  0  0  0  0  0  0  0  0  0  0
  -14.9181  -35.8713  -10.3452 O   0  0  0  0  0  0  0  0  0  0  0  0
  -15.8965  -35.7556   -9.4799 N   0  0  0  0  0  0  0  0  0  0  0  0
  1  2  1  0
  2  3  1  0
  3  4  1  0
  4  5  2  0
  5  6  1  0
  6  7  2  0
  7  8  1  0
  8  9  2  0
  8 10  1  0
 10 11  2  0
 10 12  1  0
 12 13  1  0
 13 14  1  6
 14 15  1  0
 15 16  2  0
 16 17  1  0
 17 18  2  0
 18 19  1  0
 19 20  2  0
 17 21  1  0
 21 22  1  0
 22 23  1  0
 23 24  1  0
 24 25  1  0
 25 26  1  0
 13 27  1  0
 27 28  1  1
 27 29  1  0
 29 30  1  0
 30 31  1  0
 31 32  1  0
 31 33  1  0
 31 34  1  0
 34 35  1  0
 35 36  2  0
 36 37  1  0
 37 38  1  0
 38 39  1  0
 38 40  1  0
 38 41  1  0
 36 42  1  0
 42 43  1  0
  9  4  1  0
 20 15  1  0
 26  6  1  0
 43 34  2  0
M  END
$$$$
