
     RDKit          3D

 43 46  0  0  0  0  0  0  0  0999 V2000
  -16.4060  -46.7475   -8.2036 C   0  0  0  0  0  0  0  0  0  0  0  0
  -16.1956  -45.4655   -8.7286 O   0  0  0  0  0  0  0  0  0  0  0  0
  -15.4990  -45.5657   -9.9277 C   0  0  0  0  0  0  0  0  0  0  0  0
  -15.1644  -44.2106  -10.4346 C   0  0  0  0  0  0  0  0  0  0  0  0
  -13.9847  -43.9164  -11.0440 C   0  0  0  0  0  0  0  0  0  0  0  0
  -13.6551  -42.6193  -11.5383 C   0  0  0  0  0  0  0  0  0  0  0  0
  -14.5587  -41.5853  -11.4053 C   0  0  0  0  0  0  0  0  0  0  0  0
  -15.7793  -41.8571  -10.7830 C   0  0  0  0  0  0  0  0  0  0  0  0
  -16.0456  -43.1694  -10.3147 C   0  0  0  0  0  0  0  0  0  0  0  0
  -16.9323  -40.9932  -10.4850 C   0  0  0  0  0  0  0  0  0  0  0  0
  -18.0927  -41.5670  -10.7298 O   0  0  0  0  0  0  0  0  0  0  0  0
  -17.0863  -39.7010   -9.9993 N   0  0  0  0  0  0  0  0  0  0  0  0
  -16.2242  -38.9431   -9.1071 C   0  0  1  0  0  0  0  0  0  0  0  0
  -15.8434  -37.6206   -9.6736 C   0  0  0  0  0  0  0  0  0  0  0  0
  -14.8636  -37.5764  -10.7879 C   0  0  0  0  0  0  0  0  0  0  0  0
  -13.5211  -37.8842  -10.8302 C   0  0  0  0  0  0  0  0  0  0  0  0
  -12.8381  -37.7512  -12.0268 C   0  0  0  0  0  0  0  0  0  0  0  0
  -13.5139  -37.3036  -13.1844 C   0  0  0  0  0  0  0  0  0  0  0  0
  -14.8450  -36.9889  -13.1808 C   0  0  0  0  0  0  0  0  0  0  0  0
  -15.4830  -37.1351  -11.9797 C   0  0  0  0  0  0  0  0  0  0  0  0
  -11.5102  -37.9959  -12.3112 O   0  0  0  0  0  0  0  0  0  0  0  0
  -10.6203  -39.0489  -12.2138 C   0  0  0  0  0  0  0  0  0  0  0  0
  -10.6279  -39.9334  -13.4345 C   0  0  0  0  0  0  0  0  0  0  0  0
  -10.5212  -41.3795  -13.1336 C   0  0  0  0  0  0  0  0  0  0  0  0
  -11.7991  -42.1485  -13.3469 C   0  0  0  0  0  0  0  0  0  0  0  0
  -12.3449  -42.6806  -12.1102 N   0  0  0  0  0  0  0  0  0  0  0  0
  -16.8577  -38.8789   -7.7587 C   0  0  2  0  0  0  0  0  0  0  0  0
  -15.9338  -39.1482   -6.7810 O   0  0  0  0  0  0  0  0  0  0  0  0
  -18.1179  -39.5952   -7.5488 C   0  0  0  0  0  0  0  0  0  0  0  0
  -19.1787  -39.5953   -8.4071 N   0  0  0  0  0  0  0  0  0  0  0  0
  -20.4935  -39.2968   -8.2633 C   0  0  0  0  0  0  0  0  0  0  0  0
  -20.8328  -37.9868   -7.6233 C   0  0  0  0  0  0  0  0  0  0  0  0
  -21.3365  -39.3404   -9.5488 C   0  0  0  0  0  0  0  0  0  0  0  0
  -21.2005  -40.3444   -7.3977 C   0  0  0  0  0  0  0  0  0  0  0  0
  -21.8221  -40.1050   -6.1844 C   0  0  0  0  0  0  0  0  0  0  0  0
  -22.3350  -41.3058   -5.7280 C   0  0  0  0  0  0  0  0  0  0  0  0
  -23.0836  -41.5843   -4.4906 C   0  0  0  0  0  0  0  0  0  0  0  0
  -22.2383  -41.9314   -3.3064 C   0  0  0  0  0  0  0  0  0  0  0  0
  -21.5094  -43.2455   -3.4781 C   0  0  0  0  0  0  0  0  0  0  0  0
  -23.0224  -42.0221   -2.0209 C   0  0  0  0  0  0  0  0  0  0  0  0
  -21.1976  -40.8412   -3.1571 C   0  0  0  0  0  0  0  0  0  0  0  0
  -22.0241  -42.1958   -6.6339 O   0  0  0  0  0  0  0  0  0  0  0  0
  -21.3576  -41.6428   -7.6187 N   0  0  0  0  0  0  0  0  0  0  0  0
  1  2  1  0
  2  3  1  0
  3  4  1  0
  4  5  2  0
  5  6  1  0
  6  7  2  0
  7  8  1  0
  8  9  2  0
  8 10  1  0
 10 11  2  0
 10 12  1  0
 12 13  1  0
 13 14  1  6
 14 15  1  0
 15 16  2  0
 16 17  1  0
 17 18  2  0
 18 19  1  0
 19 20  2  0
 17 21  1  0
 21 22  1  0
 22 23  1  0
 23 24  1  0
 24 25  1  0
 25 26  1  0
 13 27  1  0
 27 28  1  1
 27 29  1  0
 29 30  1  0
 30 31  1  0
 31 32  1  0
 31 33  1  0
 31 34  1  0
 34 35  1  0
 35 36  2  0
 36 37  1  0
 37 38  1  0
 38 39  1  0
 38 40  1  0
 38 41  1  0
 36 42  1  0
 42 43  1  0
  9  4  1  0
 20 15  1  0
 26  6  1  0
 43 34  2  0
M  END
$$$$
