
     RDKit          3D

 43 46  0  0  0  0  0  0  0  0999 V2000
  -20.8694  -41.7128   -1.2181 C   0  0  0  0  0  0  0  0  0  0  0  0
  -21.6048  -42.5551   -2.0627 O   0  0  0  0  0  0  0  0  0  0  0  0
  -20.7611  -43.0920   -3.0286 C   0  0  0  0  0  0  0  0  0  0  0  0
  -21.1528  -42.6003   -4.3740 C   0  0  0  0  0  0  0  0  0  0  0  0
  -22.1446  -43.1673   -5.1117 C   0  0  0  0  0  0  0  0  0  0  0  0
  -22.5317  -42.7002   -6.4030 C   0  0  0  0  0  0  0  0  0  0  0  0
  -21.8841  -41.6184   -6.9628 C   0  0  0  0  0  0  0  0  0  0  0  0
  -20.8604  -41.0150   -6.2286 C   0  0  0  0  0  0  0  0  0  0  0  0
  -20.5251  -41.5278   -4.9492 C   0  0  0  0  0  0  0  0  0  0  0  0
  -19.9866  -39.8720   -6.5365 C   0  0  0  0  0  0  0  0  0  0  0  0
  -19.8115  -39.0579   -5.5156 O   0  0  0  0  0  0  0  0  0  0  0  0
  -19.2942  -39.4460   -7.6628 N   0  0  0  0  0  0  0  0  0  0  0  0
  -18.7370  -40.2298   -8.7530 C   0  0  1  0  0  0  0  0  0  0  0  0
  -19.2063  -39.7624  -10.0858 C   0  0  0  0  0  0  0  0  0  0  0  0
  -20.6060  -40.0467  -10.4902 C   0  0  0  0  0  0  0  0  0  0  0  0
  -21.2457  -41.2330  -10.7772 C   0  0  0  0  0  0  0  0  0  0  0  0
  -22.5832  -41.2068  -11.1329 C   0  0  0  0  0  0  0  0  0  0  0  0
  -23.2762  -39.9771  -11.2005 C   0  0  0  0  0  0  0  0  0  0  0  0
  -22.6749  -38.7803  -10.9228 C   0  0  0  0  0  0  0  0  0  0  0  0
  -21.3539  -38.8500  -10.5745 C   0  0  0  0  0  0  0  0  0  0  0  0
  -23.4248  -42.2502  -11.4600 O   0  0  0  0  0  0  0  0  0  0  0  0
  -23.8628  -43.4294  -10.8875 C   0  0  0  0  0  0  0  0  0  0  0  0
  -25.0876  -43.2411  -10.0291 C   0  0  0  0  0  0  0  0  0  0  0  0
  -25.0770  -44.0346   -8.7787 C   0  0  0  0  0  0  0  0  0  0  0  0
  -24.8541  -43.2172   -7.5329 C   0  0  0  0  0  0  0  0  0  0  0  0
  -23.5968  -43.5304   -6.8758 N   0  0  0  0  0  0  0  0  0  0  0  0
  -17.2543  -40.2839   -8.6036 C   0  0  2  0  0  0  0  0  0  0  0  0
  -16.7243  -41.2491   -9.4219 O   0  0  0  0  0  0  0  0  0  0  0  0
  -16.6939  -40.3289   -7.2512 C   0  0  0  0  0  0  0  0  0  0  0  0
  -15.8087  -39.4292   -6.7328 N   0  0  0  0  0  0  0  0  0  0  0  0
  -14.4668  -39.2713   -6.8460 C   0  0  0  0  0  0  0  0  0  0  0  0
  -13.7172  -38.8726   -5.6131 C   0  0  0  0  0  0  0  0  0  0  0  0
  -13.6938  -40.4762   -7.4079 C   0  0  0  0  0  0  0  0  0  0  0  0
  -14.1287  -38.1851   -7.8719 C   0  0  0  0  0  0  0  0  0  0  0  0
  -15.0441  -37.3890   -8.5383 C   0  0  0  0  0  0  0  0  0  0  0  0
  -14.3383  -36.5405   -9.3722 C   0  0  0  0  0  0  0  0  0  0  0  0
  -14.8467  -35.5048  -10.2875 C   0  0  0  0  0  0  0  0  0  0  0  0
  -14.4610  -35.6854  -11.7214 C   0  0  0  0  0  0  0  0  0  0  0  0
  -12.9621  -35.7284  -11.9187 C   0  0  0  0  0  0  0  0  0  0  0  0
  -14.9977  -34.6022  -12.6236 C   0  0  0  0  0  0  0  0  0  0  0  0
  -15.0261  -37.0140  -12.1789 C   0  0  0  0  0  0  0  0  0  0  0  0
  -13.0761  -36.8330   -9.1960 O   0  0  0  0  0  0  0  0  0  0  0  0
  -12.9411  -37.7973   -8.3176 N   0  0  0  0  0  0  0  0  0  0  0  0
  1  2  1  0
  2  3  1  0
  3  4  1  0
  4  5  2  0
  5  6  1  0
  6  7  2  0
  7  8  1  0
  8  9  2  0
  8 10  1  0
 10 11  2  0
 10 12  1  0
 12 13  1  0
 13 14  1  6
 14 15  1  0
 15 16  2  0
 16 17  1  0
 17 18  2  0
 18 19  1  0
 19 20  2  0
 17 21  1  0
 21 22  1  0
 22 23  1  0
 23 24  1  0
 24 25  1  0
 25 26  1  0
 13 27  1  0
 27 28  1  6
 27 29  1  0
 29 30  1  0
 30 31  1  0
 31 32  1  0
 31 33  1  0
 31 34  1  0
 34 35  1  0
 35 36  2  0
 36 37  1  0
 37 38  1  0
 38 39  1  0
 38 40  1  0
 38 41  1  0
 36 42  1  0
 42 43  1  0
  9  4  1  0
 20 15  1  0
 26  6  1  0
 43 34  2  0
M  END
$$$$
