
     RDKit          3D

 43 46  0  0  0  0  0  0  0  0999 V2000
  -15.7849  -45.6792  -11.7886 C   0  0  0  0  0  0  0  0  0  0  0  0
  -16.3647  -44.9019  -10.7771 O   0  0  0  0  0  0  0  0  0  0  0  0
  -17.1349  -45.7152   -9.9533 C   0  0  0  0  0  0  0  0  0  0  0  0
  -18.0846  -44.8870   -9.1677 C   0  0  0  0  0  0  0  0  0  0  0  0
  -19.4353  -45.0140   -9.2634 C   0  0  0  0  0  0  0  0  0  0  0  0
  -20.3562  -44.2266   -8.5102 C   0  0  0  0  0  0  0  0  0  0  0  0
  -19.8841  -43.2752   -7.6297 C   0  0  0  0  0  0  0  0  0  0  0  0
  -18.5010  -43.1214   -7.5100 C   0  0  0  0  0  0  0  0  0  0  0  0
  -17.6394  -43.9375   -8.2872 C   0  0  0  0  0  0  0  0  0  0  0  0
  -17.6918  -42.2120   -6.6838 C   0  0  0  0  0  0  0  0  0  0  0  0
  -16.6479  -42.7963   -6.1320 O   0  0  0  0  0  0  0  0  0  0  0  0
  -17.7701  -40.8667   -6.3465 N   0  0  0  0  0  0  0  0  0  0  0  0
  -18.3363  -39.7595   -7.0995 C   0  0  1  0  0  0  0  0  0  0  0  0
  -19.3405  -38.9928   -6.3129 C   0  0  0  0  0  0  0  0  0  0  0  0
  -20.6689  -39.6054   -6.0605 C   0  0  0  0  0  0  0  0  0  0  0  0
  -21.7037  -39.9158   -6.9160 C   0  0  0  0  0  0  0  0  0  0  0  0
  -22.8512  -40.4940   -6.4013 C   0  0  0  0  0  0  0  0  0  0  0  0
  -22.9541  -40.7577   -5.0168 C   0  0  0  0  0  0  0  0  0  0  0  0
  -21.9484  -40.4636   -4.1376 C   0  0  0  0  0  0  0  0  0  0  0  0
  -20.8320  -39.8948   -4.6864 C   0  0  0  0  0  0  0  0  0  0  0  0
  -24.0028  -40.8878   -7.0514 O   0  0  0  0  0  0  0  0  0  0  0  0
  -24.3542  -41.7254   -8.0932 C   0  0  0  0  0  0  0  0  0  0  0  0
  -24.6043  -43.1422   -7.6433 C   0  0  0  0  0  0  0  0  0  0  0  0
  -24.0840  -44.1719   -8.5719 C   0  0  0  0  0  0  0  0  0  0  0  0
  -22.8642  -44.8972   -8.0658 C   0  0  0  0  0  0  0  0  0  0  0  0
  -21.6820  -44.6298   -8.8667 N   0  0  0  0  0  0  0  0  0  0  0  0
  -17.2267  -38.9341   -7.6573 C   0  0  2  0  0  0  0  0  0  0  0  0
  -17.7277  -37.8979   -8.4038 O   0  0  0  0  0  0  0  0  0  0  0  0
  -16.1195  -39.6206   -8.3267 C   0  0  0  0  0  0  0  0  0  0  0  0
  -15.7038  -39.3882   -9.6054 N   0  0  0  0  0  0  0  0  0  0  0  0
  -14.5217  -39.5609  -10.2467 C   0  0  0  0  0  0  0  0  0  0  0  0
  -13.2773  -39.5052   -9.4166 C   0  0  0  0  0  0  0  0  0  0  0  0
  -14.3888  -40.8499  -11.0747 C   0  0  0  0  0  0  0  0  0  0  0  0
  -14.3193  -38.4858  -11.3190 C   0  0  0  0  0  0  0  0  0  0  0  0
  -14.1433  -37.1330  -11.0849 C   0  0  0  0  0  0  0  0  0  0  0  0
  -13.9957  -36.5077  -12.3099 C   0  0  0  0  0  0  0  0  0  0  0  0
  -13.7817  -35.0803  -12.6030 C   0  0  0  0  0  0  0  0  0  0  0  0
  -12.3527  -34.6836  -12.7984 C   0  0  0  0  0  0  0  0  0  0  0  0
  -11.7396  -35.3091  -14.0314 C   0  0  0  0  0  0  0  0  0  0  0  0
  -11.4693  -35.0446  -11.6301 C   0  0  0  0  0  0  0  0  0  0  0  0
  -12.3202  -33.1800  -12.9774 C   0  0  0  0  0  0  0  0  0  0  0  0
  -14.0828  -37.4539  -13.2081 O   0  0  0  0  0  0  0  0  0  0  0  0
  -14.2731  -38.6194  -12.6379 N   0  0  0  0  0  0  0  0  0  0  0  0
  1  2  1  0
  2  3  1  0
  3  4  1  0
  4  5  2  0
  5  6  1  0
  6  7  2  0
  7  8  1  0
  8  9  2  0
  8 10  1  0
 10 11  2  0
 10 12  1  0
 12 13  1  0
 13 14  1  1
 14 15  1  0
 15 16  2  0
 16 17  1  0
 17 18  2  0
 18 19  1  0
 19 20  2  0
 17 21  1  0
 21 22  1  0
 22 23  1  0
 23 24  1  0
 24 25  1  0
 25 26  1  0
 13 27  1  0
 27 28  1  6
 27 29  1  0
 29 30  1  0
 30 31  1  0
 31 32  1  0
 31 33  1  0
 31 34  1  0
 34 35  1  0
 35 36  2  0
 36 37  1  0
 37 38  1  0
 38 39  1  0
 38 40  1  0
 38 41  1  0
 36 42  1  0
 42 43  1  0
  9  4  1  0
 20 15  1  0
 26  6  1  0
 43 34  2  0
M  END
$$$$
