
     RDKit          3D

 43 46  0  0  0  0  0  0  0  0999 V2000
  -22.9114  -38.9604   -4.5624 C   0  0  0  0  0  0  0  0  0  0  0  0
  -22.0788  -38.7950   -5.6772 O   0  0  0  0  0  0  0  0  0  0  0  0
  -22.6686  -39.3901   -6.7868 C   0  0  0  0  0  0  0  0  0  0  0  0
  -21.9937  -40.6775   -7.0906 C   0  0  0  0  0  0  0  0  0  0  0  0
  -22.3750  -41.8627   -6.5434 C   0  0  0  0  0  0  0  0  0  0  0  0
  -21.7364  -43.1054   -6.8318 C   0  0  0  0  0  0  0  0  0  0  0  0
  -20.6707  -43.1413   -7.7071 C   0  0  0  0  0  0  0  0  0  0  0  0
  -20.2559  -41.9392   -8.2849 C   0  0  0  0  0  0  0  0  0  0  0  0
  -20.9349  -40.7377   -7.9568 C   0  0  0  0  0  0  0  0  0  0  0  0
  -19.1712  -41.6393   -9.2327 C   0  0  0  0  0  0  0  0  0  0  0  0
  -19.5222  -40.7911  -10.1776 O   0  0  0  0  0  0  0  0  0  0  0  0
  -17.8490  -42.0437   -9.3654 N   0  0  0  0  0  0  0  0  0  0  0  0
  -16.9060  -42.4616   -8.3409 C   0  0  1  0  0  0  0  0  0  0  0  0
  -16.3015  -43.7897   -8.6335 C   0  0  0  0  0  0  0  0  0  0  0  0
  -17.1376  -45.0058   -8.4732 C   0  0  0  0  0  0  0  0  0  0  0  0
  -17.6780  -45.5955   -7.3510 C   0  0  0  0  0  0  0  0  0  0  0  0
  -18.4335  -46.7465   -7.4940 C   0  0  0  0  0  0  0  0  0  0  0  0
  -18.6420  -47.3046   -8.7754 C   0  0  0  0  0  0  0  0  0  0  0  0
  -18.1218  -46.7478   -9.9113 C   0  0  0  0  0  0  0  0  0  0  0  0
  -17.3831  -45.6114   -9.7268 C   0  0  0  0  0  0  0  0  0  0  0  0
  -19.0672  -47.5053   -6.5315 O   0  0  0  0  0  0  0  0  0  0  0  0
  -20.0067  -47.3175   -5.5353 C   0  0  0  0  0  0  0  0  0  0  0  0
  -21.4210  -47.4904   -6.0277 C   0  0  0  0  0  0  0  0  0  0  0  0
  -22.3809  -46.5137   -5.4638 C   0  0  0  0  0  0  0  0  0  0  0  0
  -22.8397  -45.4654   -6.4438 C   0  0  0  0  0  0  0  0  0  0  0  0
  -22.3971  -44.1297   -6.0824 N   0  0  0  0  0  0  0  0  0  0  0  0
  -15.9171  -41.3682   -8.1165 C   0  0  2  0  0  0  0  0  0  0  0  0
  -15.5226  -41.3401   -6.8029 O   0  0  0  0  0  0  0  0  0  0  0  0
  -16.2276  -40.0341   -8.6351 C   0  0  0  0  0  0  0  0  0  0  0  0
  -16.1369  -39.6542   -9.9425 N   0  0  0  0  0  0  0  0  0  0  0  0
  -15.5784  -38.5877  -10.5662 C   0  0  0  0  0  0  0  0  0  0  0  0
  -14.8081  -37.6240   -9.7184 C   0  0  0  0  0  0  0  0  0  0  0  0
  -14.6459  -38.9117  -11.7454 C   0  0  0  0  0  0  0  0  0  0  0  0
  -16.6492  -37.7311  -11.2489 C   0  0  0  0  0  0  0  0  0  0  0  0
  -17.0211  -36.4514  -10.8749 C   0  0  0  0  0  0  0  0  0  0  0  0
  -18.0145  -36.0298  -11.7402 C   0  0  0  0  0  0  0  0  0  0  0  0
  -18.7388  -34.7478  -11.7670 C   0  0  0  0  0  0  0  0  0  0  0  0
  -18.1895  -33.7325  -12.7184 C   0  0  0  0  0  0  0  0  0  0  0  0
  -17.7702  -32.4549  -12.0262 C   0  0  0  0  0  0  0  0  0  0  0  0
  -19.1604  -33.3505  -13.8077 C   0  0  0  0  0  0  0  0  0  0  0  0
  -16.9584  -34.3349  -13.3631 C   0  0  0  0  0  0  0  0  0  0  0  0
  -18.2073  -37.0188  -12.5735 O   0  0  0  0  0  0  0  0  0  0  0  0
  -17.4115  -38.0230  -12.2945 N   0  0  0  0  0  0  0  0  0  0  0  0
  1  2  1  0
  2  3  1  0
  3  4  1  0
  4  5  2  0
  5  6  1  0
  6  7  2  0
  7  8  1  0
  8  9  2  0
  8 10  1  0
 10 11  2  0
 10 12  1  0
 12 13  1  0
 13 14  1  6
 14 15  1  0
 15 16  2  0
 16 17  1  0
 17 18  2  0
 18 19  1  0
 19 20  2  0
 17 21  1  0
 21 22  1  0
 22 23  1  0
 23 24  1  0
 24 25  1  0
 25 26  1  0
 13 27  1  0
 27 28  1  1
 27 29  1  0
 29 30  1  0
 30 31  1  0
 31 32  1  0
 31 33  1  0
 31 34  1  0
 34 35  1  0
 35 36  2  0
 36 37  1  0
 37 38  1  0
 38 39  1  0
 38 40  1  0
 38 41  1  0
 36 42  1  0
 42 43  1  0
  9  4  1  0
 20 15  1  0
 26  6  1  0
 43 34  2  0
M  END
$$$$
