
     RDKit          3D

 43 46  0  0  0  0  0  0  0  0999 V2000
  -19.6389  -47.3189   -9.8114 C   0  0  0  0  0  0  0  0  0  0  0  0
  -19.1750  -45.9992   -9.8946 O   0  0  0  0  0  0  0  0  0  0  0  0
  -18.1329  -45.8180   -8.9922 C   0  0  0  0  0  0  0  0  0  0  0  0
  -17.2123  -44.7626   -9.4860 C   0  0  0  0  0  0  0  0  0  0  0  0
  -16.0145  -45.0359  -10.0692 C   0  0  0  0  0  0  0  0  0  0  0  0
  -15.1248  -44.0299  -10.5508 C   0  0  0  0  0  0  0  0  0  0  0  0
  -15.4670  -42.6987  -10.4324 C   0  0  0  0  0  0  0  0  0  0  0  0
  -16.6915  -42.3869   -9.8371 C   0  0  0  0  0  0  0  0  0  0  0  0
  -17.5311  -43.4351   -9.3802 C   0  0  0  0  0  0  0  0  0  0  0  0
  -17.3364  -41.0939   -9.5596 C   0  0  0  0  0  0  0  0  0  0  0  0
  -18.6256  -41.0837   -9.8312 O   0  0  0  0  0  0  0  0  0  0  0  0
  -16.9007  -39.8686   -9.0717 N   0  0  0  0  0  0  0  0  0  0  0  0
  -15.8080  -39.5764   -8.1583 C   0  0  1  0  0  0  0  0  0  0  0  0
  -14.8597  -38.5713   -8.7108 C   0  0  0  0  0  0  0  0  0  0  0  0
  -13.9426  -38.9802   -9.8041 C   0  0  0  0  0  0  0  0  0  0  0  0
  -12.8829  -39.8611   -9.8195 C   0  0  0  0  0  0  0  0  0  0  0  0
  -12.1888  -40.0573  -11.0010 C   0  0  0  0  0  0  0  0  0  0  0  0
  -12.5657  -39.3594  -12.1705 C   0  0  0  0  0  0  0  0  0  0  0  0
  -13.6113  -38.4778  -12.1935 C   0  0  0  0  0  0  0  0  0  0  0  0
  -14.2713  -38.3136  -11.0067 C   0  0  0  0  0  0  0  0  0  0  0  0
  -11.1087  -40.8765  -11.2584 O   0  0  0  0  0  0  0  0  0  0  0  0
  -10.7920  -42.2172  -11.1470 C   0  0  0  0  0  0  0  0  0  0  0  0
  -11.1727  -43.0099  -12.3714 C   0  0  0  0  0  0  0  0  0  0  0  0
  -11.7365  -44.3469  -12.0746 C   0  0  0  0  0  0  0  0  0  0  0  0
  -13.2191  -44.4575  -12.3180 C   0  0  0  0  0  0  0  0  0  0  0  0
  -13.9718  -44.6791  -11.0954 N   0  0  0  0  0  0  0  0  0  0  0  0
  -16.3721  -39.2257   -6.8232 C   0  0  2  0  0  0  0  0  0  0  0  0
  -15.6852  -39.8721   -5.8270 O   0  0  0  0  0  0  0  0  0  0  0  0
  -17.8234  -39.3016   -6.6410 C   0  0  0  0  0  0  0  0  0  0  0  0
  -18.6999  -38.2763   -6.8468 N   0  0  0  0  0  0  0  0  0  0  0  0
  -19.8232  -38.1469   -7.5952 C   0  0  0  0  0  0  0  0  0  0  0  0
  -20.4111  -36.7757   -7.7172 C   0  0  0  0  0  0  0  0  0  0  0  0
  -19.7324  -38.6693   -9.0387 C   0  0  0  0  0  0  0  0  0  0  0  0
  -20.9588  -39.0053   -7.0296 C   0  0  0  0  0  0  0  0  0  0  0  0
  -21.2668  -39.1577   -5.6888 C   0  0  0  0  0  0  0  0  0  0  0  0
  -22.3531  -40.0093   -5.5987 C   0  0  0  0  0  0  0  0  0  0  0  0
  -23.0614  -40.4856   -4.3985 C   0  0  0  0  0  0  0  0  0  0  0  0
  -22.4231  -41.6498   -3.7096 C   0  0  0  0  0  0  0  0  0  0  0  0
  -22.1639  -42.8085   -4.6464 C   0  0  0  0  0  0  0  0  0  0  0  0
  -23.2402  -42.1821   -2.5588 C   0  0  0  0  0  0  0  0  0  0  0  0
  -21.0867  -41.1814   -3.1723 C   0  0  0  0  0  0  0  0  0  0  0  0
  -22.6574  -40.3334   -6.8284 O   0  0  0  0  0  0  0  0  0  0  0  0
  -21.8454  -39.7500   -7.6769 N   0  0  0  0  0  0  0  0  0  0  0  0
  1  2  1  0
  2  3  1  0
  3  4  1  0
  4  5  2  0
  5  6  1  0
  6  7  2  0
  7  8  1  0
  8  9  2  0
  8 10  1  0
 10 11  2  0
 10 12  1  0
 12 13  1  0
 13 14  1  6
 14 15  1  0
 15 16  2  0
 16 17  1  0
 17 18  2  0
 18 19  1  0
 19 20  2  0
 17 21  1  0
 21 22  1  0
 22 23  1  0
 23 24  1  0
 24 25  1  0
 25 26  1  0
 13 27  1  0
 27 28  1  1
 27 29  1  0
 29 30  1  0
 30 31  1  0
 31 32  1  0
 31 33  1  0
 31 34  1  0
 34 35  1  0
 35 36  2  0
 36 37  1  0
 37 38  1  0
 38 39  1  0
 38 40  1  0
 38 41  1  0
 36 42  1  0
 42 43  1  0
  9  4  1  0
 20 15  1  0
 26  6  1  0
 43 34  2  0
M  END
$$$$
