
     RDKit          3D

 43 46  0  0  0  0  0  0  0  0999 V2000
  -19.7143  -47.7222   -9.6177 C   0  0  0  0  0  0  0  0  0  0  0  0
  -18.3281  -47.5229   -9.5692 O   0  0  0  0  0  0  0  0  0  0  0  0
  -18.0238  -46.6411   -8.5381 C   0  0  0  0  0  0  0  0  0  0  0  0
  -17.3384  -45.4416   -9.0824 C   0  0  0  0  0  0  0  0  0  0  0  0
  -16.1043  -45.4864   -9.6522 C   0  0  0  0  0  0  0  0  0  0  0  0
  -15.4389  -44.3410  -10.1819 C   0  0  0  0  0  0  0  0  0  0  0  0
  -16.0518  -43.1063  -10.1277 C   0  0  0  0  0  0  0  0  0  0  0  0
  -17.3201  -43.0288   -9.5477 C   0  0  0  0  0  0  0  0  0  0  0  0
  -17.9275  -44.2062   -9.0406 C   0  0  0  0  0  0  0  0  0  0  0  0
  -18.2228  -41.8870   -9.3326 C   0  0  0  0  0  0  0  0  0  0  0  0
  -19.4831  -42.1584   -9.6040 O   0  0  0  0  0  0  0  0  0  0  0  0
  -18.0564  -40.5761   -8.9044 N   0  0  0  0  0  0  0  0  0  0  0  0
  -17.0575  -40.0199   -8.0064 C   0  0  1  0  0  0  0  0  0  0  0  0
  -16.3338  -38.8664   -8.6070 C   0  0  0  0  0  0  0  0  0  0  0  0
  -15.3410  -39.1264   -9.6797 C   0  0  0  0  0  0  0  0  0  0  0  0
  -14.1211  -39.7668   -9.6529 C   0  0  0  0  0  0  0  0  0  0  0  0
  -13.3899  -39.8695  -10.8237 C   0  0  0  0  0  0  0  0  0  0  0  0
  -13.8924  -39.3214  -12.0254 C   0  0  0  0  0  0  0  0  0  0  0  0
  -15.0983  -38.6792  -12.0905 C   0  0  0  0  0  0  0  0  0  0  0  0
  -15.7895  -38.6003  -10.9128 C   0  0  0  0  0  0  0  0  0  0  0  0
  -12.1605  -40.4569  -11.0417 O   0  0  0  0  0  0  0  0  0  0  0  0
  -11.5727  -41.6954  -10.8660 C   0  0  0  0  0  0  0  0  0  0  0  0
  -11.7681  -42.6069  -12.0506 C   0  0  0  0  0  0  0  0  0  0  0  0
  -12.0441  -44.0164  -11.6896 C   0  0  0  0  0  0  0  0  0  0  0  0
  -13.4688  -44.4450  -11.9271 C   0  0  0  0  0  0  0  0  0  0  0  0
  -14.1707  -44.7607  -10.6949 N   0  0  0  0  0  0  0  0  0  0  0  0
  -17.6952  -39.7318   -6.6896 C   0  0  2  0  0  0  0  0  0  0  0  0
  -16.8249  -40.0048   -5.6649 O   0  0  0  0  0  0  0  0  0  0  0  0
  -19.0378  -40.2604   -6.4380 C   0  0  0  0  0  0  0  0  0  0  0  0
  -20.1552  -39.5077   -6.2219 N   0  0  0  0  0  0  0  0  0  0  0  0
  -20.9568  -38.7756   -7.0343 C   0  0  0  0  0  0  0  0  0  0  0  0
  -22.4291  -39.0354   -6.9592 C   0  0  0  0  0  0  0  0  0  0  0  0
  -20.8170  -37.2486   -6.9171 C   0  0  0  0  0  0  0  0  0  0  0  0
  -20.5987  -39.0040   -8.5060 C   0  0  0  0  0  0  0  0  0  0  0  0
  -21.2029  -38.3910   -9.5900 C   0  0  0  0  0  0  0  0  0  0  0  0
  -20.5941  -38.8658  -10.7377 C   0  0  0  0  0  0  0  0  0  0  0  0
  -20.8709  -38.5250  -12.1435 C   0  0  0  0  0  0  0  0  0  0  0  0
  -19.8980  -37.5742  -12.7656 C   0  0  0  0  0  0  0  0  0  0  0  0
  -18.5387  -37.6184  -12.1042 C   0  0  0  0  0  0  0  0  0  0  0  0
  -20.3629  -36.1396  -12.7320 C   0  0  0  0  0  0  0  0  0  0  0  0
  -19.7223  -37.9874  -14.2121 C   0  0  0  0  0  0  0  0  0  0  0  0
  -19.6826  -39.7126  -10.3358 O   0  0  0  0  0  0  0  0  0  0  0  0
  -19.6764  -39.8020   -9.0275 N   0  0  0  0  0  0  0  0  0  0  0  0
  1  2  1  0
  2  3  1  0
  3  4  1  0
  4  5  2  0
  5  6  1  0
  6  7  2  0
  7  8  1  0
  8  9  2  0
  8 10  1  0
 10 11  2  0
 10 12  1  0
 12 13  1  0
 13 14  1  6
 14 15  1  0
 15 16  2  0
 16 17  1  0
 17 18  2  0
 18 19  1  0
 19 20  2  0
 17 21  1  0
 21 22  1  0
 22 23  1  0
 23 24  1  0
 24 25  1  0
 25 26  1  0
 13 27  1  0
 27 28  1  1
 27 29  1  0
 29 30  1  0
 30 31  1  0
 31 32  1  0
 31 33  1  0
 31 34  1  0
 34 35  1  0
 35 36  2  0
 36 37  1  0
 37 38  1  0
 38 39  1  0
 38 40  1  0
 38 41  1  0
 36 42  1  0
 42 43  1  0
  9  4  1  0
 20 15  1  0
 26  6  1  0
 43 34  2  0
M  END
$$$$
