
     RDKit          3D

 43 46  0  0  0  0  0  0  0  0999 V2000
  -22.1939  -43.4278   -8.7824 C   0  0  0  0  0  0  0  0  0  0  0  0
  -20.8678  -43.1132   -9.1084 O   0  0  0  0  0  0  0  0  0  0  0  0
  -20.3014  -44.1706   -9.8114 C   0  0  0  0  0  0  0  0  0  0  0  0
  -18.8473  -43.9342   -9.9983 C   0  0  0  0  0  0  0  0  0  0  0  0
  -17.9432  -44.9409  -10.1348 C   0  0  0  0  0  0  0  0  0  0  0  0
  -16.5451  -44.7248  -10.3191 C   0  0  0  0  0  0  0  0  0  0  0  0
  -16.0508  -43.4376  -10.3642 C   0  0  0  0  0  0  0  0  0  0  0  0
  -16.9557  -42.3825  -10.2264 C   0  0  0  0  0  0  0  0  0  0  0  0
  -18.3341  -42.6657  -10.0472 C   0  0  0  0  0  0  0  0  0  0  0  0
  -16.7562  -40.9248  -10.2226 C   0  0  0  0  0  0  0  0  0  0  0  0
  -17.6678  -40.2705  -10.9131 O   0  0  0  0  0  0  0  0  0  0  0  0
  -15.8231  -40.0670   -9.6544 N   0  0  0  0  0  0  0  0  0  0  0  0
  -15.0469  -40.2267   -8.4356 C   0  0  1  0  0  0  0  0  0  0  0  0
  -13.5863  -40.0592   -8.6668 C   0  0  0  0  0  0  0  0  0  0  0  0
  -12.8471  -41.1350   -9.3738 C   0  0  0  0  0  0  0  0  0  0  0  0
  -12.5524  -42.4294   -9.0039 C   0  0  0  0  0  0  0  0  0  0  0  0
  -11.8359  -43.2312   -9.8755 C   0  0  0  0  0  0  0  0  0  0  0  0
  -11.4140  -42.7225  -11.1246 C   0  0  0  0  0  0  0  0  0  0  0  0
  -11.6877  -41.4439  -11.5259 C   0  0  0  0  0  0  0  0  0  0  0  0
  -12.3984  -40.6854  -10.6367 C   0  0  0  0  0  0  0  0  0  0  0  0
  -11.4274  -44.5410   -9.7283 O   0  0  0  0  0  0  0  0  0  0  0  0
  -12.0055  -45.7706   -9.4753 C   0  0  0  0  0  0  0  0  0  0  0  0
  -12.4531  -46.4739  -10.7313 C   0  0  0  0  0  0  0  0  0  0  0  0
  -13.7502  -47.1767  -10.6008 C   0  0  0  0  0  0  0  0  0  0  0  0
  -14.8885  -46.5076  -11.3263 C   0  0  0  0  0  0  0  0  0  0  0  0
  -15.9073  -46.0013  -10.4228 N   0  0  0  0  0  0  0  0  0  0  0  0
  -15.6118  -39.3373   -7.3803 C   0  0  2  0  0  0  0  0  0  0  0  0
  -15.3257  -39.8310   -6.1328 O   0  0  0  0  0  0  0  0  0  0  0  0
  -17.0074  -38.9109   -7.5057 C   0  0  0  0  0  0  0  0  0  0  0  0
  -17.5000  -38.0987   -8.4852 N   0  0  0  0  0  0  0  0  0  0  0  0
  -18.6859  -37.4653   -8.6614 C   0  0  0  0  0  0  0  0  0  0  0  0
  -19.4832  -37.1498   -7.4344 C   0  0  0  0  0  0  0  0  0  0  0  0
  -18.6320  -36.1458   -9.4494 C   0  0  0  0  0  0  0  0  0  0  0  0
  -19.6292  -38.3028   -9.5304 C   0  0  0  0  0  0  0  0  0  0  0  0
  -20.5278  -39.2489   -9.0688 C   0  0  0  0  0  0  0  0  0  0  0  0
  -21.1861  -39.7770  -10.1648 C   0  0  0  0  0  0  0  0  0  0  0  0
  -22.2337  -40.8112  -10.2082 C   0  0  0  0  0  0  0  0  0  0  0  0
  -23.6305  -40.2897  -10.3286 C   0  0  0  0  0  0  0  0  0  0  0  0
  -24.6723  -41.3673  -10.1261 C   0  0  0  0  0  0  0  0  0  0  0  0
  -23.9121  -39.6434  -11.6621 C   0  0  0  0  0  0  0  0  0  0  0  0
  -23.8218  -39.2514   -9.2427 C   0  0  0  0  0  0  0  0  0  0  0  0
  -20.6909  -39.1655  -11.2091 O   0  0  0  0  0  0  0  0  0  0  0  0
  -19.7759  -38.2980  -10.8487 N   0  0  0  0  0  0  0  0  0  0  0  0
  1  2  1  0
  2  3  1  0
  3  4  1  0
  4  5  2  0
  5  6  1  0
  6  7  2  0
  7  8  1  0
  8  9  2  0
  8 10  1  0
 10 11  2  0
 10 12  1  0
 12 13  1  0
 13 14  1  6
 14 15  1  0
 15 16  2  0
 16 17  1  0
 17 18  2  0
 18 19  1  0
 19 20  2  0
 17 21  1  0
 21 22  1  0
 22 23  1  0
 23 24  1  0
 24 25  1  0
 25 26  1  0
 13 27  1  0
 27 28  1  1
 27 29  1  0
 29 30  1  0
 30 31  1  0
 31 32  1  0
 31 33  1  0
 31 34  1  0
 34 35  1  0
 35 36  2  0
 36 37  1  0
 37 38  1  0
 38 39  1  0
 38 40  1  0
 38 41  1  0
 36 42  1  0
 42 43  1  0
  9  4  1  0
 20 15  1  0
 26  6  1  0
 43 34  2  0
M  END
$$$$
