
     RDKit          3D

 43 46  0  0  0  0  0  0  0  0999 V2000
  -16.2666  -47.6269   -8.6939 C   0  0  0  0  0  0  0  0  0  0  0  0
  -17.4329  -47.1311   -9.2918 O   0  0  0  0  0  0  0  0  0  0  0  0
  -17.1901  -45.8567   -9.7918 C   0  0  0  0  0  0  0  0  0  0  0  0
  -18.0801  -44.8724   -9.1252 C   0  0  0  0  0  0  0  0  0  0  0  0
  -19.4344  -44.8943   -9.2476 C   0  0  0  0  0  0  0  0  0  0  0  0
  -20.2986  -43.9563   -8.6082 C   0  0  0  0  0  0  0  0  0  0  0  0
  -19.7638  -42.9602   -7.8177 C   0  0  0  0  0  0  0  0  0  0  0  0
  -18.3754  -42.9121   -7.6733 C   0  0  0  0  0  0  0  0  0  0  0  0
  -17.5722  -43.8760   -8.3354 C   0  0  0  0  0  0  0  0  0  0  0  0
  -17.5072  -41.9918   -6.9222 C   0  0  0  0  0  0  0  0  0  0  0  0
  -16.5301  -42.6004   -6.2817 O   0  0  0  0  0  0  0  0  0  0  0  0
  -17.4749  -40.6166   -6.7292 N   0  0  0  0  0  0  0  0  0  0  0  0
  -17.9265  -39.5517   -7.6097 C   0  0  1  0  0  0  0  0  0  0  0  0
  -18.8762  -38.6236   -6.9375 C   0  0  0  0  0  0  0  0  0  0  0  0
  -20.2579  -39.0914   -6.6627 C   0  0  0  0  0  0  0  0  0  0  0  0
  -21.2978  -39.4022   -7.5118 C   0  0  0  0  0  0  0  0  0  0  0  0
  -22.5018  -39.8234   -6.9743 C   0  0  0  0  0  0  0  0  0  0  0  0
  -22.6562  -39.9290   -5.5736 C   0  0  0  0  0  0  0  0  0  0  0  0
  -21.6472  -39.6294   -4.7001 C   0  0  0  0  0  0  0  0  0  0  0  0
  -20.4743  -39.2185   -5.2714 C   0  0  0  0  0  0  0  0  0  0  0  0
  -23.6696  -40.1852   -7.6142 O   0  0  0  0  0  0  0  0  0  0  0  0
  -24.0710  -41.0958   -8.5733 C   0  0  0  0  0  0  0  0  0  0  0  0
  -24.4530  -42.4307   -7.9862 C   0  0  0  0  0  0  0  0  0  0  0  0
  -24.0053  -43.5934   -8.7868 C   0  0  0  0  0  0  0  0  0  0  0  0
  -22.8643  -44.3614   -8.1718 C   0  0  0  0  0  0  0  0  0  0  0  0
  -21.6468  -44.2815   -8.9604 N   0  0  0  0  0  0  0  0  0  0  0  0
  -16.7378  -38.8869   -8.2168 C   0  0  2  0  0  0  0  0  0  0  0  0
  -16.7697  -37.5361   -7.9793 O   0  0  0  0  0  0  0  0  0  0  0  0
  -16.4007  -39.2018   -9.6070 C   0  0  0  0  0  0  0  0  0  0  0  0
  -15.1922  -39.6627  -10.0416 N   0  0  0  0  0  0  0  0  0  0  0  0
  -13.9103  -39.3070   -9.7796 C   0  0  0  0  0  0  0  0  0  0  0  0
  -13.6959  -38.0867   -8.9395 C   0  0  0  0  0  0  0  0  0  0  0  0
  -13.0306  -40.3915   -9.1355 C   0  0  0  0  0  0  0  0  0  0  0  0
  -13.1459  -39.0226  -11.0762 C   0  0  0  0  0  0  0  0  0  0  0  0
  -12.6241  -37.7979  -11.4555 C   0  0  0  0  0  0  0  0  0  0  0  0
  -12.0124  -37.9616  -12.6853 C   0  0  0  0  0  0  0  0  0  0  0  0
  -11.3104  -36.9653  -13.5121 C   0  0  0  0  0  0  0  0  0  0  0  0
  -11.1664  -37.3318  -14.9552 C   0  0  0  0  0  0  0  0  0  0  0  0
  -11.0838  -36.1203  -15.8568 C   0  0  0  0  0  0  0  0  0  0  0  0
  -12.2954  -38.1913  -15.4670 C   0  0  0  0  0  0  0  0  0  0  0  0
   -9.8720  -38.1049  -15.0995 C   0  0  0  0  0  0  0  0  0  0  0  0
  -12.1736  -39.2201  -13.0011 O   0  0  0  0  0  0  0  0  0  0  0  0
  -12.8380  -39.8527  -12.0639 N   0  0  0  0  0  0  0  0  0  0  0  0
  1  2  1  0
  2  3  1  0
  3  4  1  0
  4  5  2  0
  5  6  1  0
  6  7  2  0
  7  8  1  0
  8  9  2  0
  8 10  1  0
 10 11  2  0
 10 12  1  0
 12 13  1  0
 13 14  1  1
 14 15  1  0
 15 16  2  0
 16 17  1  0
 17 18  2  0
 18 19  1  0
 19 20  2  0
 17 21  1  0
 21 22  1  0
 22 23  1  0
 23 24  1  0
 24 25  1  0
 25 26  1  0
 13 27  1  0
 27 28  1  6
 27 29  1  0
 29 30  1  0
 30 31  1  0
 31 32  1  0
 31 33  1  0
 31 34  1  0
 34 35  1  0
 35 36  2  0
 36 37  1  0
 37 38  1  0
 38 39  1  0
 38 40  1  0
 38 41  1  0
 36 42  1  0
 42 43  1  0
  9  4  1  0
 20 15  1  0
 26  6  1  0
 43 34  2  0
M  END
$$$$
