
     RDKit          3D

 43 46  0  0  0  0  0  0  0  0999 V2000
  -15.6840  -46.2622   -9.0627 C   0  0  0  0  0  0  0  0  0  0  0  0
  -16.1825  -45.1082   -9.6819 O   0  0  0  0  0  0  0  0  0  0  0  0
  -17.5008  -45.3236  -10.0677 C   0  0  0  0  0  0  0  0  0  0  0  0
  -18.4234  -44.6517   -9.1177 C   0  0  0  0  0  0  0  0  0  0  0  0
  -19.7346  -44.9899   -8.9916 C   0  0  0  0  0  0  0  0  0  0  0  0
  -20.6282  -44.3539   -8.0793 C   0  0  0  0  0  0  0  0  0  0  0  0
  -20.1699  -43.3365   -7.2681 C   0  0  0  0  0  0  0  0  0  0  0  0
  -18.8273  -42.9667   -7.3752 C   0  0  0  0  0  0  0  0  0  0  0  0
  -17.9909  -43.6404   -8.3021 C   0  0  0  0  0  0  0  0  0  0  0  0
  -18.0431  -41.9380   -6.6741 C   0  0  0  0  0  0  0  0  0  0  0  0
  -16.8438  -42.3487   -6.3156 O   0  0  0  0  0  0  0  0  0  0  0  0
  -18.2726  -40.6204   -6.2989 N   0  0  0  0  0  0  0  0  0  0  0  0
  -19.1217  -39.6190   -6.9231 C   0  0  1  0  0  0  0  0  0  0  0  0
  -20.0876  -39.0165   -5.9645 C   0  0  0  0  0  0  0  0  0  0  0  0
  -21.2436  -39.8292   -5.5097 C   0  0  0  0  0  0  0  0  0  0  0  0
  -22.3454  -40.3019   -6.1891 C   0  0  0  0  0  0  0  0  0  0  0  0
  -23.2868  -41.0512   -5.5047 C   0  0  0  0  0  0  0  0  0  0  0  0
  -23.1152  -41.3220   -4.1284 C   0  0  0  0  0  0  0  0  0  0  0  0
  -22.0352  -40.8699   -3.4213 C   0  0  0  0  0  0  0  0  0  0  0  0
  -21.1283  -40.1349   -4.1342 C   0  0  0  0  0  0  0  0  0  0  0  0
  -24.4552  -41.6237   -5.9641 O   0  0  0  0  0  0  0  0  0  0  0  0
  -24.8407  -42.5104   -6.9518 C   0  0  0  0  0  0  0  0  0  0  0  0
  -24.7886  -43.9471   -6.4983 C   0  0  0  0  0  0  0  0  0  0  0  0
  -24.2765  -44.8860   -7.5227 C   0  0  0  0  0  0  0  0  0  0  0  0
  -22.8917  -45.4085   -7.2414 C   0  0  0  0  0  0  0  0  0  0  0  0
  -21.9157  -44.9619   -8.2206 N   0  0  0  0  0  0  0  0  0  0  0  0
  -18.2628  -38.6318   -7.6382 C   0  0  2  0  0  0  0  0  0  0  0  0
  -19.0341  -37.7716   -8.3779 O   0  0  0  0  0  0  0  0  0  0  0  0
  -17.1075  -39.1309   -8.3873 C   0  0  0  0  0  0  0  0  0  0  0  0
  -16.3008  -38.3772   -9.1892 N   0  0  0  0  0  0  0  0  0  0  0  0
  -16.2747  -38.1382  -10.5237 C   0  0  0  0  0  0  0  0  0  0  0  0
  -16.2454  -39.3273  -11.4324 C   0  0  0  0  0  0  0  0  0  0  0  0
  -17.4055  -37.2500  -11.0691 C   0  0  0  0  0  0  0  0  0  0  0  0
  -15.0343  -37.3264  -10.9096 C   0  0  0  0  0  0  0  0  0  0  0  0
  -13.9038  -37.8243  -11.5339 C   0  0  0  0  0  0  0  0  0  0  0  0
  -13.0189  -36.7751  -11.7057 C   0  0  0  0  0  0  0  0  0  0  0  0
  -11.6797  -36.7818  -12.3184 C   0  0  0  0  0  0  0  0  0  0  0  0
  -11.1111  -35.4287  -12.6072 C   0  0  0  0  0  0  0  0  0  0  0  0
  -11.4587  -34.9366  -13.9944 C   0  0  0  0  0  0  0  0  0  0  0  0
   -9.6091  -35.3741  -12.4790 C   0  0  0  0  0  0  0  0  0  0  0  0
  -11.7129  -34.4617  -11.6089 C   0  0  0  0  0  0  0  0  0  0  0  0
  -13.6099  -35.7221  -11.2040 O   0  0  0  0  0  0  0  0  0  0  0  0
  -14.7936  -36.0339  -10.7335 N   0  0  0  0  0  0  0  0  0  0  0  0
  1  2  1  0
  2  3  1  0
  3  4  1  0
  4  5  2  0
  5  6  1  0
  6  7  2  0
  7  8  1  0
  8  9  2  0
  8 10  1  0
 10 11  2  0
 10 12  1  0
 12 13  1  0
 13 14  1  1
 14 15  1  0
 15 16  2  0
 16 17  1  0
 17 18  2  0
 18 19  1  0
 19 20  2  0
 17 21  1  0
 21 22  1  0
 22 23  1  0
 23 24  1  0
 24 25  1  0
 25 26  1  0
 13 27  1  0
 27 28  1  6
 27 29  1  0
 29 30  1  0
 30 31  1  0
 31 32  1  0
 31 33  1  0
 31 34  1  0
 34 35  1  0
 35 36  2  0
 36 37  1  0
 37 38  1  0
 38 39  1  0
 38 40  1  0
 38 41  1  0
 36 42  1  0
 42 43  1  0
  9  4  1  0
 20 15  1  0
 26  6  1  0
 43 34  2  0
M  END
$$$$
