
     RDKit          3D

 43 46  0  0  0  0  0  0  0  0999 V2000
  -22.1297  -41.4599   -4.7574 C   0  0  0  0  0  0  0  0  0  0  0  0
  -23.2948  -40.7752   -5.1279 O   0  0  0  0  0  0  0  0  0  0  0  0
  -23.5029  -40.9233   -6.4946 C   0  0  0  0  0  0  0  0  0  0  0  0
  -22.3275  -41.5826   -7.1181 C   0  0  0  0  0  0  0  0  0  0  0  0
  -22.2152  -42.9318   -7.2475 C   0  0  0  0  0  0  0  0  0  0  0  0
  -21.0925  -43.5750   -7.8486 C   0  0  0  0  0  0  0  0  0  0  0  0
  -20.0468  -42.8168   -8.3332 C   0  0  0  0  0  0  0  0  0  0  0  0
  -20.1336  -41.4278   -8.2141 C   0  0  0  0  0  0  0  0  0  0  0  0
  -21.2785  -40.8508   -7.6069 C   0  0  0  0  0  0  0  0  0  0  0  0
  -19.2066  -40.3578   -8.6146 C   0  0  0  0  0  0  0  0  0  0  0  0
  -19.8082  -39.3255   -9.1696 O   0  0  0  0  0  0  0  0  0  0  0  0
  -17.8311  -40.1780   -8.5427 N   0  0  0  0  0  0  0  0  0  0  0  0
  -16.8819  -40.7076   -7.5773 C   0  0  1  0  0  0  0  0  0  0  0  0
  -15.7538  -41.4286   -8.2273 C   0  0  0  0  0  0  0  0  0  0  0  0
  -16.0096  -42.7620   -8.8275 C   0  0  0  0  0  0  0  0  0  0  0  0
  -16.3362  -43.9703   -8.2511 C   0  0  0  0  0  0  0  0  0  0  0  0
  -16.5233  -45.0746   -9.0646 C   0  0  0  0  0  0  0  0  0  0  0  0
  -16.3779  -44.9577  -10.4654 C   0  0  0  0  0  0  0  0  0  0  0  0
  -16.0548  -43.7756  -11.0729 C   0  0  0  0  0  0  0  0  0  0  0  0
  -15.8798  -42.7092  -10.2343 C   0  0  0  0  0  0  0  0  0  0  0  0
  -16.8507  -46.3708   -8.7229 O   0  0  0  0  0  0  0  0  0  0  0  0
  -17.8556  -47.0249   -8.0356 C   0  0  0  0  0  0  0  0  0  0  0  0
  -19.0230  -47.3894   -8.9169 C   0  0  0  0  0  0  0  0  0  0  0  0
  -20.3452  -47.2029   -8.2764 C   0  0  0  0  0  0  0  0  0  0  0  0
  -21.1257  -46.0283   -8.8065 C   0  0  0  0  0  0  0  0  0  0  0  0
  -21.3160  -44.9878   -7.8106 N   0  0  0  0  0  0  0  0  0  0  0  0
  -16.4659  -39.6125   -6.6546 C   0  0  2  0  0  0  0  0  0  0  0  0
  -16.2121  -40.1108   -5.4019 O   0  0  0  0  0  0  0  0  0  0  0  0
  -17.2744  -38.3918   -6.6169 C   0  0  0  0  0  0  0  0  0  0  0  0
  -18.0082  -37.8981   -7.6559 N   0  0  0  0  0  0  0  0  0  0  0  0
  -17.9249  -36.7687   -8.4016 C   0  0  0  0  0  0  0  0  0  0  0  0
  -19.1924  -36.2536   -9.0090 C   0  0  0  0  0  0  0  0  0  0  0  0
  -17.2943  -35.5502   -7.7068 C   0  0  0  0  0  0  0  0  0  0  0  0
  -16.9794  -36.9668   -9.5904 C   0  0  0  0  0  0  0  0  0  0  0  0
  -16.6839  -36.0196  -10.5554 C   0  0  0  0  0  0  0  0  0  0  0  0
  -15.7943  -36.5892  -11.4485 C   0  0  0  0  0  0  0  0  0  0  0  0
  -15.1764  -35.9974  -12.6472 C   0  0  0  0  0  0  0  0  0  0  0  0
  -13.7445  -35.5959  -12.4860 C   0  0  0  0  0  0  0  0  0  0  0  0
  -13.1479  -35.0466  -13.7626 C   0  0  0  0  0  0  0  0  0  0  0  0
  -12.8564  -36.7270  -12.0305 C   0  0  0  0  0  0  0  0  0  0  0  0
  -13.6961  -34.4987  -11.4431 C   0  0  0  0  0  0  0  0  0  0  0  0
  -15.5866  -37.8069  -11.0200 O   0  0  0  0  0  0  0  0  0  0  0  0
  -16.2774  -38.0398   -9.9299 N   0  0  0  0  0  0  0  0  0  0  0  0
  1  2  1  0
  2  3  1  0
  3  4  1  0
  4  5  2  0
  5  6  1  0
  6  7  2  0
  7  8  1  0
  8  9  2  0
  8 10  1  0
 10 11  2  0
 10 12  1  0
 12 13  1  0
 13 14  1  6
 14 15  1  0
 15 16  2  0
 16 17  1  0
 17 18  2  0
 18 19  1  0
 19 20  2  0
 17 21  1  0
 21 22  1  0
 22 23  1  0
 23 24  1  0
 24 25  1  0
 25 26  1  0
 13 27  1  0
 27 28  1  1
 27 29  1  0
 29 30  1  0
 30 31  1  0
 31 32  1  0
 31 33  1  0
 31 34  1  0
 34 35  1  0
 35 36  2  0
 36 37  1  0
 37 38  1  0
 38 39  1  0
 38 40  1  0
 38 41  1  0
 36 42  1  0
 42 43  1  0
  9  4  1  0
 20 15  1  0
 26  6  1  0
 43 34  2  0
M  END
$$$$
