
     RDKit          3D

 43 46  0  0  0  0  0  0  0  0999 V2000
  -15.3566  -45.7770  -10.1317 C   0  0  0  0  0  0  0  0  0  0  0  0
  -15.4515  -44.4207  -10.4710 O   0  0  0  0  0  0  0  0  0  0  0  0
  -16.6874  -44.1770  -11.0596 C   0  0  0  0  0  0  0  0  0  0  0  0
  -17.6390  -43.6581  -10.0446 C   0  0  0  0  0  0  0  0  0  0  0  0
  -18.8967  -44.1506   -9.8860 C   0  0  0  0  0  0  0  0  0  0  0  0
  -19.8171  -43.6623   -8.9114 C   0  0  0  0  0  0  0  0  0  0  0  0
  -19.4432  -42.6350   -8.0700 C   0  0  0  0  0  0  0  0  0  0  0  0
  -18.1571  -42.1083   -8.2094 C   0  0  0  0  0  0  0  0  0  0  0  0
  -17.2899  -42.6400   -9.1981 C   0  0  0  0  0  0  0  0  0  0  0  0
  -17.4658  -41.0272   -7.4895 C   0  0  0  0  0  0  0  0  0  0  0  0
  -16.2134  -41.3118   -7.1962 O   0  0  0  0  0  0  0  0  0  0  0  0
  -17.8273  -39.7625   -7.0431 N   0  0  0  0  0  0  0  0  0  0  0  0
  -18.8107  -38.8398   -7.5864 C   0  0  1  0  0  0  0  0  0  0  0  0
  -19.7971  -38.3951   -6.5645 C   0  0  0  0  0  0  0  0  0  0  0  0
  -20.8327  -39.3548   -6.1063 C   0  0  0  0  0  0  0  0  0  0  0  0
  -21.9016  -39.9217   -6.7659 C   0  0  0  0  0  0  0  0  0  0  0  0
  -22.7217  -40.8037   -6.0835 C   0  0  0  0  0  0  0  0  0  0  0  0
  -22.4618  -41.1124   -4.7293 C   0  0  0  0  0  0  0  0  0  0  0  0
  -21.4110  -40.5697   -4.0421 C   0  0  0  0  0  0  0  0  0  0  0  0
  -20.6247  -39.7046   -4.7524 C   0  0  0  0  0  0  0  0  0  0  0  0
  -23.8359  -41.4870   -6.5259 O   0  0  0  0  0  0  0  0  0  0  0  0
  -24.1598  -42.3685   -7.5399 C   0  0  0  0  0  0  0  0  0  0  0  0
  -23.9255  -43.8079   -7.1581 C   0  0  0  0  0  0  0  0  0  0  0  0
  -23.3542  -44.6360   -8.2449 C   0  0  0  0  0  0  0  0  0  0  0  0
  -21.9082  -45.0067   -8.0410 C   0  0  0  0  0  0  0  0  0  0  0  0
  -21.0320  -44.4083   -9.0334 N   0  0  0  0  0  0  0  0  0  0  0  0
  -18.1009  -37.7299   -8.2848 C   0  0  2  0  0  0  0  0  0  0  0  0
  -18.7446  -36.5377   -8.0692 O   0  0  0  0  0  0  0  0  0  0  0  0
  -17.7297  -37.9181   -9.6891 C   0  0  0  0  0  0  0  0  0  0  0  0
  -16.4568  -38.0724  -10.1556 N   0  0  0  0  0  0  0  0  0  0  0  0
  -15.6765  -37.3447  -10.9923 C   0  0  0  0  0  0  0  0  0  0  0  0
  -15.9745  -37.4321  -12.4567 C   0  0  0  0  0  0  0  0  0  0  0  0
  -15.5940  -35.8383  -10.6937 C   0  0  0  0  0  0  0  0  0  0  0  0
  -14.2076  -37.7618  -10.8714 C   0  0  0  0  0  0  0  0  0  0  0  0
  -13.1162  -36.9155  -10.9635 C   0  0  0  0  0  0  0  0  0  0  0  0
  -11.9743  -37.6788  -10.8004 C   0  0  0  0  0  0  0  0  0  0  0  0
  -10.5644  -37.2533  -10.8129 C   0  0  0  0  0  0  0  0  0  0  0  0
   -9.9695  -37.0807  -12.1745 C   0  0  0  0  0  0  0  0  0  0  0  0
  -10.0332  -38.3458  -13.0009 C   0  0  0  0  0  0  0  0  0  0  0  0
   -8.5266  -36.6421  -12.1427 C   0  0  0  0  0  0  0  0  0  0  0  0
  -10.7776  -36.0189  -12.8909 C   0  0  0  0  0  0  0  0  0  0  0  0
  -12.3865  -38.9069  -10.6231 O   0  0  0  0  0  0  0  0  0  0  0  0
  -13.6958  -38.9677  -10.6631 N   0  0  0  0  0  0  0  0  0  0  0  0
  1  2  1  0
  2  3  1  0
  3  4  1  0
  4  5  2  0
  5  6  1  0
  6  7  2  0
  7  8  1  0
  8  9  2  0
  8 10  1  0
 10 11  2  0
 10 12  1  0
 12 13  1  0
 13 14  1  1
 14 15  1  0
 15 16  2  0
 16 17  1  0
 17 18  2  0
 18 19  1  0
 19 20  2  0
 17 21  1  0
 21 22  1  0
 22 23  1  0
 23 24  1  0
 24 25  1  0
 25 26  1  0
 13 27  1  0
 27 28  1  6
 27 29  1  0
 29 30  1  0
 30 31  1  0
 31 32  1  0
 31 33  1  0
 31 34  1  0
 34 35  1  0
 35 36  2  0
 36 37  1  0
 37 38  1  0
 38 39  1  0
 38 40  1  0
 38 41  1  0
 36 42  1  0
 42 43  1  0
  9  4  1  0
 20 15  1  0
 26  6  1  0
 43 34  2  0
M  END
$$$$
