
     RDKit          3D

 43 46  0  0  0  0  0  0  0  0999 V2000
  -19.4222  -35.3211  -11.7308 C   0  0  0  0  0  0  0  0  0  0  0  0
  -18.9231  -36.1642  -10.7290 O   0  0  0  0  0  0  0  0  0  0  0  0
  -19.9024  -36.3633   -9.7623 C   0  0  0  0  0  0  0  0  0  0  0  0
  -19.9739  -37.8021   -9.4018 C   0  0  0  0  0  0  0  0  0  0  0  0
  -21.0817  -38.3780   -8.8626 C   0  0  0  0  0  0  0  0  0  0  0  0
  -21.1624  -39.7598   -8.5168 C   0  0  0  0  0  0  0  0  0  0  0  0
  -20.0755  -40.5832   -8.7263 C   0  0  0  0  0  0  0  0  0  0  0  0
  -18.9229  -40.0199   -9.2787 C   0  0  0  0  0  0  0  0  0  0  0  0
  -18.9084  -38.6386   -9.6015 C   0  0  0  0  0  0  0  0  0  0  0  0
  -17.6175  -40.6096   -9.6148 C   0  0  0  0  0  0  0  0  0  0  0  0
  -17.1409  -40.1992  -10.7724 O   0  0  0  0  0  0  0  0  0  0  0  0
  -16.7596  -41.5060   -8.9904 N   0  0  0  0  0  0  0  0  0  0  0  0
  -16.5656  -41.7603   -7.5723 C   0  0  1  0  0  0  0  0  0  0  0  0
  -16.7177  -43.2001   -7.2278 C   0  0  0  0  0  0  0  0  0  0  0  0
  -18.0777  -43.7952   -7.2302 C   0  0  0  0  0  0  0  0  0  0  0  0
  -19.1677  -43.5742   -6.4165 C   0  0  0  0  0  0  0  0  0  0  0  0
  -20.3351  -44.2803   -6.6500 C   0  0  0  0  0  0  0  0  0  0  0  0
  -20.4008  -45.2144   -7.7083 C   0  0  0  0  0  0  0  0  0  0  0  0
  -19.3400  -45.4601   -8.5362 C   0  0  0  0  0  0  0  0  0  0  0  0
  -18.2065  -44.7414   -8.2727 C   0  0  0  0  0  0  0  0  0  0  0  0
  -21.5397  -44.2308   -5.9787 O   0  0  0  0  0  0  0  0  0  0  0  0
  -22.4835  -43.2798   -5.6395 C   0  0  0  0  0  0  0  0  0  0  0  0
  -23.5304  -43.0905   -6.7076 C   0  0  0  0  0  0  0  0  0  0  0  0
  -23.9303  -41.6802   -6.9186 C   0  0  0  0  0  0  0  0  0  0  0  0
  -23.4192  -41.0811   -8.2031 C   0  0  0  0  0  0  0  0  0  0  0  0
  -22.4649  -40.0088   -7.9794 N   0  0  0  0  0  0  0  0  0  0  0  0
  -15.2719  -41.1553   -7.1432 C   0  0  2  0  0  0  0  0  0  0  0  0
  -15.4461  -40.4049   -6.0081 O   0  0  0  0  0  0  0  0  0  0  0  0
  -14.4602  -40.4664   -8.1491 C   0  0  0  0  0  0  0  0  0  0  0  0
  -14.3156  -39.1138   -8.2560 N   0  0  0  0  0  0  0  0  0  0  0  0
  -13.7256  -38.3096   -9.1746 C   0  0  0  0  0  0  0  0  0  0  0  0
  -13.3790  -36.9181   -8.7452 C   0  0  0  0  0  0  0  0  0  0  0  0
  -12.4417  -38.8568   -9.8204 C   0  0  0  0  0  0  0  0  0  0  0  0
  -14.6283  -38.1229  -10.3980 C   0  0  0  0  0  0  0  0  0  0  0  0
  -14.5464  -37.0876  -11.3131 C   0  0  0  0  0  0  0  0  0  0  0  0
  -15.5339  -37.2828  -12.2618 C   0  0  0  0  0  0  0  0  0  0  0  0
  -15.8621  -36.4641  -13.4412 C   0  0  0  0  0  0  0  0  0  0  0  0
  -15.2597  -36.9382  -14.7257 C   0  0  0  0  0  0  0  0  0  0  0  0
  -13.7495  -36.9989  -14.6717 C   0  0  0  0  0  0  0  0  0  0  0  0
  -15.6285  -36.0788  -15.9093 C   0  0  0  0  0  0  0  0  0  0  0  0
  -15.7706  -38.3421  -14.9750 C   0  0  0  0  0  0  0  0  0  0  0  0
  -16.1564  -38.3778  -11.9110 O   0  0  0  0  0  0  0  0  0  0  0  0
  -15.6335  -38.8795  -10.8180 N   0  0  0  0  0  0  0  0  0  0  0  0
  1  2  1  0
  2  3  1  0
  3  4  1  0
  4  5  2  0
  5  6  1  0
  6  7  2  0
  7  8  1  0
  8  9  2  0
  8 10  1  0
 10 11  2  0
 10 12  1  0
 12 13  1  0
 13 14  1  6
 14 15  1  0
 15 16  2  0
 16 17  1  0
 17 18  2  0
 18 19  1  0
 19 20  2  0
 17 21  1  0
 21 22  1  0
 22 23  1  0
 23 24  1  0
 24 25  1  0
 25 26  1  0
 13 27  1  0
 27 28  1  1
 27 29  1  0
 29 30  1  0
 30 31  1  0
 31 32  1  0
 31 33  1  0
 31 34  1  0
 34 35  1  0
 35 36  2  0
 36 37  1  0
 37 38  1  0
 38 39  1  0
 38 40  1  0
 38 41  1  0
 36 42  1  0
 42 43  1  0
  9  4  1  0
 20 15  1  0
 26  6  1  0
 43 34  2  0
M  END
$$$$
