
     RDKit          3D

 43 46  0  0  0  0  0  0  0  0999 V2000
  -24.5456  -39.4351   -6.5871 C   0  0  0  0  0  0  0  0  0  0  0  0
  -24.3083  -40.7911   -6.3255 O   0  0  0  0  0  0  0  0  0  0  0  0
  -23.1632  -40.9181   -5.5472 C   0  0  0  0  0  0  0  0  0  0  0  0
  -22.2301  -41.8894   -6.1727 C   0  0  0  0  0  0  0  0  0  0  0  0
  -22.2593  -43.2230   -5.9077 C   0  0  0  0  0  0  0  0  0  0  0  0
  -21.3706  -44.1649   -6.5062 C   0  0  0  0  0  0  0  0  0  0  0  0
  -20.4175  -43.7325   -7.4050 C   0  0  0  0  0  0  0  0  0  0  0  0
  -20.3629  -42.3676   -7.6969 C   0  0  0  0  0  0  0  0  0  0  0  0
  -21.2769  -41.4835   -7.0680 C   0  0  0  0  0  0  0  0  0  0  0  0
  -19.4796  -41.5983   -8.5872 C   0  0  0  0  0  0  0  0  0  0  0  0
  -20.1146  -40.6829   -9.2903 O   0  0  0  0  0  0  0  0  0  0  0  0
  -18.1181  -41.6097   -8.8621 N   0  0  0  0  0  0  0  0  0  0  0  0
  -17.0076  -41.9853   -8.0023 C   0  0  1  0  0  0  0  0  0  0  0  0
  -16.1316  -43.0155   -8.6238 C   0  0  0  0  0  0  0  0  0  0  0  0
  -16.6299  -44.4102   -8.7245 C   0  0  0  0  0  0  0  0  0  0  0  0
  -16.9010  -45.3505   -7.7542 C   0  0  0  0  0  0  0  0  0  0  0  0
  -17.3666  -46.5966   -8.1370 C   0  0  0  0  0  0  0  0  0  0  0  0
  -17.5570  -46.8942   -9.5052 C   0  0  0  0  0  0  0  0  0  0  0  0
  -17.2989  -45.9870  -10.4957 C   0  0  0  0  0  0  0  0  0  0  0  0
  -16.8420  -44.7681  -10.0756 C   0  0  0  0  0  0  0  0  0  0  0  0
  -17.7023  -47.6851   -7.3581 O   0  0  0  0  0  0  0  0  0  0  0  0
  -18.5585  -47.9687   -6.3110 C   0  0  0  0  0  0  0  0  0  0  0  0
  -19.9300  -48.3870   -6.7761 C   0  0  0  0  0  0  0  0  0  0  0  0
  -21.0381  -47.8385   -5.9609 C   0  0  0  0  0  0  0  0  0  0  0  0
  -21.8289  -46.7549   -6.6466 C   0  0  0  0  0  0  0  0  0  0  0  0
  -21.6889  -45.4634   -5.9962 N   0  0  0  0  0  0  0  0  0  0  0  0
  -16.2949  -40.7513   -7.5629 C   0  0  2  0  0  0  0  0  0  0  0  0
  -15.8496  -40.8879   -6.2726 O   0  0  0  0  0  0  0  0  0  0  0  0
  -16.9390  -39.4569   -7.7975 C   0  0  0  0  0  0  0  0  0  0  0  0
  -16.5464  -38.5360   -8.7246 N   0  0  0  0  0  0  0  0  0  0  0  0
  -16.6169  -38.4878  -10.0779 C   0  0  0  0  0  0  0  0  0  0  0  0
  -15.8491  -39.5216  -10.8412 C   0  0  0  0  0  0  0  0  0  0  0  0
  -18.0323  -38.5213  -10.6783 C   0  0  0  0  0  0  0  0  0  0  0  0
  -16.0919  -37.1489  -10.6054 C   0  0  0  0  0  0  0  0  0  0  0  0
  -16.6416  -35.9056  -10.3452 C   0  0  0  0  0  0  0  0  0  0  0  0
  -15.8767  -34.9591  -11.0030 C   0  0  0  0  0  0  0  0  0  0  0  0
  -16.0431  -33.4964  -11.0425 C   0  0  0  0  0  0  0  0  0  0  0  0
  -14.9217  -32.7512  -11.6943 C   0  0  0  0  0  0  0  0  0  0  0  0
  -15.3011  -31.3334  -12.0594 C   0  0  0  0  0  0  0  0  0  0  0  0
  -14.4171  -33.4146  -12.9515 C   0  0  0  0  0  0  0  0  0  0  0  0
  -13.7830  -32.6834  -10.6979 C   0  0  0  0  0  0  0  0  0  0  0  0
  -14.9312  -35.6242  -11.6140 O   0  0  0  0  0  0  0  0  0  0  0  0
  -15.0478  -36.9107  -11.3880 N   0  0  0  0  0  0  0  0  0  0  0  0
  1  2  1  0
  2  3  1  0
  3  4  1  0
  4  5  2  0
  5  6  1  0
  6  7  2  0
  7  8  1  0
  8  9  2  0
  8 10  1  0
 10 11  2  0
 10 12  1  0
 12 13  1  0
 13 14  1  6
 14 15  1  0
 15 16  2  0
 16 17  1  0
 17 18  2  0
 18 19  1  0
 19 20  2  0
 17 21  1  0
 21 22  1  0
 22 23  1  0
 23 24  1  0
 24 25  1  0
 25 26  1  0
 13 27  1  0
 27 28  1  1
 27 29  1  0
 29 30  1  0
 30 31  1  0
 31 32  1  0
 31 33  1  0
 31 34  1  0
 34 35  1  0
 35 36  2  0
 36 37  1  0
 37 38  1  0
 38 39  1  0
 38 40  1  0
 38 41  1  0
 36 42  1  0
 42 43  1  0
  9  4  1  0
 20 15  1  0
 26  6  1  0
 43 34  2  0
M  END
$$$$
