
     RDKit          3D

 43 46  0  0  0  0  0  0  0  0999 V2000
  -19.5983  -39.8514   -1.0187 C   0  0  0  0  0  0  0  0  0  0  0  0
  -19.8547  -41.2164   -1.2044 O   0  0  0  0  0  0  0  0  0  0  0  0
  -19.0632  -41.6985   -2.2409 C   0  0  0  0  0  0  0  0  0  0  0  0
  -19.7936  -41.5901   -3.5293 C   0  0  0  0  0  0  0  0  0  0  0  0
  -20.9454  -42.2651   -3.7886 C   0  0  0  0  0  0  0  0  0  0  0  0
  -21.6571  -42.1648   -5.0210 C   0  0  0  0  0  0  0  0  0  0  0  0
  -21.1772  -41.3492   -6.0249 C   0  0  0  0  0  0  0  0  0  0  0  0
  -19.9955  -40.6433   -5.7878 C   0  0  0  0  0  0  0  0  0  0  0  0
  -19.3370  -40.7865   -4.5395 C   0  0  0  0  0  0  0  0  0  0  0  0
  -19.2312  -39.7145   -6.6350 C   0  0  0  0  0  0  0  0  0  0  0  0
  -18.7925  -38.6553   -5.9859 O   0  0  0  0  0  0  0  0  0  0  0  0
  -18.8580  -39.6928   -7.9727 N   0  0  0  0  0  0  0  0  0  0  0  0
  -18.6082  -40.8028   -8.8777 C   0  0  1  0  0  0  0  0  0  0  0  0
  -19.4101  -40.7075  -10.1278 C   0  0  0  0  0  0  0  0  0  0  0  0
  -20.8674  -40.9828  -10.0642 C   0  0  0  0  0  0  0  0  0  0  0  0
  -21.5623  -42.1453   -9.8096 C   0  0  0  0  0  0  0  0  0  0  0  0
  -22.9462  -42.1153   -9.8106 C   0  0  0  0  0  0  0  0  0  0  0  0
  -23.6303  -40.9067  -10.0718 C   0  0  0  0  0  0  0  0  0  0  0  0
  -22.9749  -39.7339  -10.3285 C   0  0  0  0  0  0  0  0  0  0  0  0
  -21.6090  -39.8060  -10.3169 C   0  0  0  0  0  0  0  0  0  0  0  0
  -23.8461  -43.1369   -9.5857 O   0  0  0  0  0  0  0  0  0  0  0  0
  -24.1206  -44.0585   -8.5930 C   0  0  0  0  0  0  0  0  0  0  0  0
  -25.0766  -43.5295   -7.5545 C   0  0  0  0  0  0  0  0  0  0  0  0
  -24.7395  -43.9222   -6.1669 C   0  0  0  0  0  0  0  0  0  0  0  0
  -24.1957  -42.7982   -5.3239 C   0  0  0  0  0  0  0  0  0  0  0  0
  -22.8106  -43.0074   -4.9387 N   0  0  0  0  0  0  0  0  0  0  0  0
  -17.1384  -40.9312   -9.0943 C   0  0  2  0  0  0  0  0  0  0  0  0
  -16.6822  -42.1251   -8.5959 O   0  0  0  0  0  0  0  0  0  0  0  0
  -16.2804  -39.8050   -8.7192 C   0  0  0  0  0  0  0  0  0  0  0  0
  -15.6522  -38.9656   -9.5925 N   0  0  0  0  0  0  0  0  0  0  0  0
  -15.0626  -37.7520   -9.4577 C   0  0  0  0  0  0  0  0  0  0  0  0
  -15.6911  -36.7873   -8.5011 C   0  0  0  0  0  0  0  0  0  0  0  0
  -13.5713  -37.7677   -9.0827 C   0  0  0  0  0  0  0  0  0  0  0  0
  -15.0342  -37.0064  -10.7955 C   0  0  0  0  0  0  0  0  0  0  0  0
  -14.3874  -35.8073  -11.0396 C   0  0  0  0  0  0  0  0  0  0  0  0
  -14.6029  -35.4726  -12.3643 C   0  0  0  0  0  0  0  0  0  0  0  0
  -14.1277  -34.2969  -13.1132 C   0  0  0  0  0  0  0  0  0  0  0  0
  -13.0198  -34.5704  -14.0803 C   0  0  0  0  0  0  0  0  0  0  0  0
  -13.5272  -34.9990  -15.4390 C   0  0  0  0  0  0  0  0  0  0  0  0
  -12.0644  -35.6368  -13.6054 C   0  0  0  0  0  0  0  0  0  0  0  0
  -12.2470  -33.2804  -14.2608 C   0  0  0  0  0  0  0  0  0  0  0  0
  -15.3392  -36.4321  -12.8611 O   0  0  0  0  0  0  0  0  0  0  0  0
  -15.5988  -37.3380  -11.9491 N   0  0  0  0  0  0  0  0  0  0  0  0
  1  2  1  0
  2  3  1  0
  3  4  1  0
  4  5  2  0
  5  6  1  0
  6  7  2  0
  7  8  1  0
  8  9  2  0
  8 10  1  0
 10 11  2  0
 10 12  1  0
 12 13  1  0
 13 14  1  6
 14 15  1  0
 15 16  2  0
 16 17  1  0
 17 18  2  0
 18 19  1  0
 19 20  2  0
 17 21  1  0
 21 22  1  0
 22 23  1  0
 23 24  1  0
 24 25  1  0
 25 26  1  0
 13 27  1  0
 27 28  1  1
 27 29  1  0
 29 30  1  0
 30 31  1  0
 31 32  1  0
 31 33  1  0
 31 34  1  0
 34 35  1  0
 35 36  2  0
 36 37  1  0
 37 38  1  0
 38 39  1  0
 38 40  1  0
 38 41  1  0
 36 42  1  0
 42 43  1  0
  9  4  1  0
 20 15  1  0
 26  6  1  0
 43 34  2  0
M  END
$$$$
