
     RDKit          3D

 43 46  0  0  0  0  0  0  0  0999 V2000
  -19.2086  -44.3246   -0.7008 C   0  0  0  0  0  0  0  0  0  0  0  0
  -18.5702  -43.7380   -1.8016 O   0  0  0  0  0  0  0  0  0  0  0  0
  -18.9373  -44.4112   -2.9615 C   0  0  0  0  0  0  0  0  0  0  0  0
  -19.6579  -43.4896   -3.8761 C   0  0  0  0  0  0  0  0  0  0  0  0
  -20.9798  -43.6179   -4.1689 C   0  0  0  0  0  0  0  0  0  0  0  0
  -21.6826  -42.7358   -5.0426 C   0  0  0  0  0  0  0  0  0  0  0  0
  -21.0144  -41.6872   -5.6403 C   0  0  0  0  0  0  0  0  0  0  0  0
  -19.6553  -41.5301   -5.3588 C   0  0  0  0  0  0  0  0  0  0  0  0
  -19.0159  -42.4417   -4.4798 C   0  0  0  0  0  0  0  0  0  0  0  0
  -18.6732  -40.5402   -5.8282 C   0  0  0  0  0  0  0  0  0  0  0  0
  -17.8765  -40.1016   -4.8751 O   0  0  0  0  0  0  0  0  0  0  0  0
  -18.3848  -39.9543   -7.0542 N   0  0  0  0  0  0  0  0  0  0  0  0
  -18.5628  -40.4875   -8.3949 C   0  0  1  0  0  0  0  0  0  0  0  0
  -19.3532  -39.5772   -9.2675 C   0  0  0  0  0  0  0  0  0  0  0  0
  -20.8143  -39.4556   -9.0353 C   0  0  0  0  0  0  0  0  0  0  0  0
  -21.8390  -40.3622   -9.1998 C   0  0  0  0  0  0  0  0  0  0  0  0
  -23.1338  -39.9752   -8.8998 C   0  0  0  0  0  0  0  0  0  0  0  0
  -23.3941  -38.6668   -8.4338 C   0  0  0  0  0  0  0  0  0  0  0  0
  -22.4033  -37.7402   -8.2582 C   0  0  0  0  0  0  0  0  0  0  0  0
  -21.1389  -38.1627   -8.5646 C   0  0  0  0  0  0  0  0  0  0  0  0
  -24.3069  -40.6968   -8.9833 O   0  0  0  0  0  0  0  0  0  0  0  0
  -24.8171  -41.8813   -8.4863 C   0  0  0  0  0  0  0  0  0  0  0  0
  -25.4892  -41.7105   -7.1478 C   0  0  0  0  0  0  0  0  0  0  0  0
  -25.2278  -42.8138   -6.1951 C   0  0  0  0  0  0  0  0  0  0  0  0
  -24.3003  -42.4455   -5.0664 C   0  0  0  0  0  0  0  0  0  0  0  0
  -23.0433  -43.1722   -5.1155 N   0  0  0  0  0  0  0  0  0  0  0  0
  -17.2310  -40.8701   -8.9458 C   0  0  2  0  0  0  0  0  0  0  0  0
  -17.2237  -42.1932   -9.3084 O   0  0  0  0  0  0  0  0  0  0  0  0
  -16.0332  -40.4905   -8.1932 C   0  0  0  0  0  0  0  0  0  0  0  0
  -14.8809  -40.0020   -8.7366 N   0  0  0  0  0  0  0  0  0  0  0  0
  -14.2531  -38.8023   -8.6661 C   0  0  0  0  0  0  0  0  0  0  0  0
  -15.1024  -37.5991   -8.3983 C   0  0  0  0  0  0  0  0  0  0  0  0
  -13.0991  -38.7065   -7.6541 C   0  0  0  0  0  0  0  0  0  0  0  0
  -13.5346  -38.4831   -9.9809 C   0  0  0  0  0  0  0  0  0  0  0  0
  -13.7855  -37.3927  -10.7956 C   0  0  0  0  0  0  0  0  0  0  0  0
  -12.9291  -37.4686  -11.8792 C   0  0  0  0  0  0  0  0  0  0  0  0
  -12.7989  -36.5522  -13.0247 C   0  0  0  0  0  0  0  0  0  0  0  0
  -11.5124  -35.7911  -13.0808 C   0  0  0  0  0  0  0  0  0  0  0  0
  -10.4056  -36.5702  -13.7557 C   0  0  0  0  0  0  0  0  0  0  0  0
  -11.0031  -35.3812  -11.7214 C   0  0  0  0  0  0  0  0  0  0  0  0
  -11.7613  -34.5397  -13.8969 C   0  0  0  0  0  0  0  0  0  0  0  0
  -12.2183  -38.5511  -11.6990 O   0  0  0  0  0  0  0  0  0  0  0  0
  -12.5654  -39.1550  -10.5879 N   0  0  0  0  0  0  0  0  0  0  0  0
  1  2  1  0
  2  3  1  0
  3  4  1  0
  4  5  2  0
  5  6  1  0
  6  7  2  0
  7  8  1  0
  8  9  2  0
  8 10  1  0
 10 11  2  0
 10 12  1  0
 12 13  1  0
 13 14  1  6
 14 15  1  0
 15 16  2  0
 16 17  1  0
 17 18  2  0
 18 19  1  0
 19 20  2  0
 17 21  1  0
 21 22  1  0
 22 23  1  0
 23 24  1  0
 24 25  1  0
 25 26  1  0
 13 27  1  0
 27 28  1  1
 27 29  1  0
 29 30  1  0
 30 31  1  0
 31 32  1  0
 31 33  1  0
 31 34  1  0
 34 35  1  0
 35 36  2  0
 36 37  1  0
 37 38  1  0
 38 39  1  0
 38 40  1  0
 38 41  1  0
 36 42  1  0
 42 43  1  0
  9  4  1  0
 20 15  1  0
 26  6  1  0
 43 34  2  0
M  END
$$$$
