
     RDKit          3D

 43 46  0  0  0  0  0  0  0  0999 V2000
  -22.6236  -38.5357   -4.9927 C   0  0  0  0  0  0  0  0  0  0  0  0
  -22.2380  -39.7949   -4.5140 O   0  0  0  0  0  0  0  0  0  0  0  0
  -22.9651  -40.7815   -5.1707 C   0  0  0  0  0  0  0  0  0  0  0  0
  -22.0417  -41.7152   -5.8639 C   0  0  0  0  0  0  0  0  0  0  0  0
  -22.0065  -43.0506   -5.6084 C   0  0  0  0  0  0  0  0  0  0  0  0
  -21.1265  -43.9568   -6.2715 C   0  0  0  0  0  0  0  0  0  0  0  0
  -20.2505  -43.4855   -7.2274 C   0  0  0  0  0  0  0  0  0  0  0  0
  -20.2634  -42.1179   -7.5113 C   0  0  0  0  0  0  0  0  0  0  0  0
  -21.1644  -41.2706   -6.8166 C   0  0  0  0  0  0  0  0  0  0  0  0
  -19.4682  -41.3125   -8.4514 C   0  0  0  0  0  0  0  0  0  0  0  0
  -20.1800  -40.4163   -9.1039 O   0  0  0  0  0  0  0  0  0  0  0  0
  -18.1282  -41.2738   -8.8152 N   0  0  0  0  0  0  0  0  0  0  0  0
  -16.9510  -41.6145   -8.0332 C   0  0  1  0  0  0  0  0  0  0  0  0
  -16.0822  -42.6092   -8.7192 C   0  0  0  0  0  0  0  0  0  0  0  0
  -16.5366  -44.0202   -8.7982 C   0  0  0  0  0  0  0  0  0  0  0  0
  -16.7099  -44.9751   -7.8198 C   0  0  0  0  0  0  0  0  0  0  0  0
  -17.1555  -46.2348   -8.1812 C   0  0  0  0  0  0  0  0  0  0  0  0
  -17.4252  -46.5311   -9.5364 C   0  0  0  0  0  0  0  0  0  0  0  0
  -17.2650  -45.6096  -10.5344 C   0  0  0  0  0  0  0  0  0  0  0  0
  -16.8245  -44.3776  -10.1353 C   0  0  0  0  0  0  0  0  0  0  0  0
  -17.4007  -47.3390   -7.3909 O   0  0  0  0  0  0  0  0  0  0  0  0
  -18.1755  -47.6589   -6.2920 C   0  0  0  0  0  0  0  0  0  0  0  0
  -19.5591  -48.1232   -6.6695 C   0  0  0  0  0  0  0  0  0  0  0  0
  -20.6297  -47.6193   -5.7789 C   0  0  0  0  0  0  0  0  0  0  0  0
  -21.5016  -46.5606   -6.4024 C   0  0  0  0  0  0  0  0  0  0  0  0
  -21.3646  -45.2686   -5.7522 N   0  0  0  0  0  0  0  0  0  0  0  0
  -16.2548  -40.3584   -7.6317 C   0  0  2  0  0  0  0  0  0  0  0  0
  -15.6315  -40.5212   -6.4204 O   0  0  0  0  0  0  0  0  0  0  0  0
  -16.9954  -39.0974   -7.7137 C   0  0  0  0  0  0  0  0  0  0  0  0
  -16.9245  -38.2055   -8.7439 N   0  0  0  0  0  0  0  0  0  0  0  0
  -16.5045  -38.2987  -10.0298 C   0  0  0  0  0  0  0  0  0  0  0  0
  -15.1597  -38.9112  -10.2687 C   0  0  0  0  0  0  0  0  0  0  0  0
  -17.4515  -39.0325  -10.9941 C   0  0  0  0  0  0  0  0  0  0  0  0
  -16.4191  -36.9138  -10.6788 C   0  0  0  0  0  0  0  0  0  0  0  0
  -15.2526  -36.2397  -10.9958 C   0  0  0  0  0  0  0  0  0  0  0  0
  -15.6051  -35.0284  -11.5631 C   0  0  0  0  0  0  0  0  0  0  0  0
  -14.7354  -33.9530  -12.0694 C   0  0  0  0  0  0  0  0  0  0  0  0
  -14.8169  -33.7174  -13.5443 C   0  0  0  0  0  0  0  0  0  0  0  0
  -15.9309  -32.7659  -13.9199 C   0  0  0  0  0  0  0  0  0  0  0  0
  -15.0253  -34.9825  -14.3390 C   0  0  0  0  0  0  0  0  0  0  0  0
  -13.5076  -33.0903  -13.9761 C   0  0  0  0  0  0  0  0  0  0  0  0
  -16.9124  -35.0041  -11.5727 O   0  0  0  0  0  0  0  0  0  0  0  0
  -17.4011  -36.1057  -11.0557 N   0  0  0  0  0  0  0  0  0  0  0  0
  1  2  1  0
  2  3  1  0
  3  4  1  0
  4  5  2  0
  5  6  1  0
  6  7  2  0
  7  8  1  0
  8  9  2  0
  8 10  1  0
 10 11  2  0
 10 12  1  0
 12 13  1  0
 13 14  1  6
 14 15  1  0
 15 16  2  0
 16 17  1  0
 17 18  2  0
 18 19  1  0
 19 20  2  0
 17 21  1  0
 21 22  1  0
 22 23  1  0
 23 24  1  0
 24 25  1  0
 25 26  1  0
 13 27  1  0
 27 28  1  1
 27 29  1  0
 29 30  1  0
 30 31  1  0
 31 32  1  0
 31 33  1  0
 31 34  1  0
 34 35  1  0
 35 36  2  0
 36 37  1  0
 37 38  1  0
 38 39  1  0
 38 40  1  0
 38 41  1  0
 36 42  1  0
 42 43  1  0
  9  4  1  0
 20 15  1  0
 26  6  1  0
 43 34  2  0
M  END
$$$$
