
     RDKit          3D

 43 46  0  0  0  0  0  0  0  0999 V2000
  -22.7920  -41.0487   -5.4012 C   0  0  0  0  0  0  0  0  0  0  0  0
  -21.8865  -42.1177   -5.3702 O   0  0  0  0  0  0  0  0  0  0  0  0
  -22.1995  -43.0178   -6.3827 C   0  0  0  0  0  0  0  0  0  0  0  0
  -20.9839  -43.3315   -7.1759 C   0  0  0  0  0  0  0  0  0  0  0  0
  -20.5510  -44.6011   -7.4001 C   0  0  0  0  0  0  0  0  0  0  0  0
  -19.3874  -44.9135   -8.1641 C   0  0  0  0  0  0  0  0  0  0  0  0
  -18.6376  -43.8963   -8.7176 C   0  0  0  0  0  0  0  0  0  0  0  0
  -19.0574  -42.5814   -8.5041 C   0  0  0  0  0  0  0  0  0  0  0  0
  -20.2249  -42.3388   -7.7356 C   0  0  0  0  0  0  0  0  0  0  0  0
  -18.4898  -41.2964   -8.9415 C   0  0  0  0  0  0  0  0  0  0  0  0
  -19.3983  -40.4387   -9.3595 O   0  0  0  0  0  0  0  0  0  0  0  0
  -17.2069  -40.7690   -9.0165 N   0  0  0  0  0  0  0  0  0  0  0  0
  -16.0404  -41.0637   -8.2005 C   0  0  1  0  0  0  0  0  0  0  0  0
  -14.8580  -41.4483   -9.0184 C   0  0  0  0  0  0  0  0  0  0  0  0
  -14.8418  -42.7839   -9.6663 C   0  0  0  0  0  0  0  0  0  0  0  0
  -14.7763  -44.0523   -9.1317 C   0  0  0  0  0  0  0  0  0  0  0  0
  -14.7790  -45.1424   -9.9848 C   0  0  0  0  0  0  0  0  0  0  0  0
  -14.8462  -44.9499  -11.3832 C   0  0  0  0  0  0  0  0  0  0  0  0
  -14.9123  -43.7067  -11.9498 C   0  0  0  0  0  0  0  0  0  0  0  0
  -14.9084  -42.6571  -11.0727 C   0  0  0  0  0  0  0  0  0  0  0  0
  -14.7217  -46.4888   -9.6883 O   0  0  0  0  0  0  0  0  0  0  0  0
  -15.4331  -47.4011   -8.9321 C   0  0  0  0  0  0  0  0  0  0  0  0
  -16.5719  -48.0286   -9.6948 C   0  0  0  0  0  0  0  0  0  0  0  0
  -17.8063  -48.2099   -8.8969 C   0  0  0  0  0  0  0  0  0  0  0  0
  -18.9193  -47.2620   -9.2610 C   0  0  0  0  0  0  0  0  0  0  0  0
  -19.2393  -46.3365   -8.1878 N   0  0  0  0  0  0  0  0  0  0  0  0
  -15.8021  -39.9265   -7.2658 C   0  0  2  0  0  0  0  0  0  0  0  0
  -14.9986  -40.3202   -6.2259 O   0  0  0  0  0  0  0  0  0  0  0  0
  -16.9557  -39.1446   -6.8153 C   0  0  0  0  0  0  0  0  0  0  0  0
  -17.6036  -38.1965   -7.5522 N   0  0  0  0  0  0  0  0  0  0  0  0
  -17.1887  -37.2744   -8.4556 C   0  0  0  0  0  0  0  0  0  0  0  0
  -16.1548  -36.2902   -8.0048 C   0  0  0  0  0  0  0  0  0  0  0  0
  -16.6536  -37.8306   -9.7857 C   0  0  0  0  0  0  0  0  0  0  0  0
  -18.3607  -36.4116   -8.9338 C   0  0  0  0  0  0  0  0  0  0  0  0
  -18.4286  -35.7363  -10.1401 C   0  0  0  0  0  0  0  0  0  0  0  0
  -19.6445  -35.0787  -10.1886 C   0  0  0  0  0  0  0  0  0  0  0  0
  -20.1967  -34.2272  -11.2559 C   0  0  0  0  0  0  0  0  0  0  0  0
  -21.0032  -33.0611  -10.7790 C   0  0  0  0  0  0  0  0  0  0  0  0
  -20.8252  -31.8370  -11.6491 C   0  0  0  0  0  0  0  0  0  0  0  0
  -20.6795  -32.6521   -9.3637 C   0  0  0  0  0  0  0  0  0  0  0  0
  -22.4620  -33.4638  -10.8399 C   0  0  0  0  0  0  0  0  0  0  0  0
  -20.2494  -35.3602   -9.0641 O   0  0  0  0  0  0  0  0  0  0  0  0
  -19.5049  -36.1418   -8.3194 N   0  0  0  0  0  0  0  0  0  0  0  0
  1  2  1  0
  2  3  1  0
  3  4  1  0
  4  5  2  0
  5  6  1  0
  6  7  2  0
  7  8  1  0
  8  9  2  0
  8 10  1  0
 10 11  2  0
 10 12  1  0
 12 13  1  0
 13 14  1  6
 14 15  1  0
 15 16  2  0
 16 17  1  0
 17 18  2  0
 18 19  1  0
 19 20  2  0
 17 21  1  0
 21 22  1  0
 22 23  1  0
 23 24  1  0
 24 25  1  0
 25 26  1  0
 13 27  1  0
 27 28  1  1
 27 29  1  0
 29 30  1  0
 30 31  1  0
 31 32  1  0
 31 33  1  0
 31 34  1  0
 34 35  1  0
 35 36  2  0
 36 37  1  0
 37 38  1  0
 38 39  1  0
 38 40  1  0
 38 41  1  0
 36 42  1  0
 42 43  1  0
  9  4  1  0
 20 15  1  0
 26  6  1  0
 43 34  2  0
M  END
$$$$
