
     RDKit          3D

 43 46  0  0  0  0  0  0  0  0999 V2000
  -12.2573  -41.5156  -12.5138 C   0  0  0  0  0  0  0  0  0  0  0  0
  -13.3694  -41.9329  -11.7704 O   0  0  0  0  0  0  0  0  0  0  0  0
  -14.4723  -42.0412  -12.6101 C   0  0  0  0  0  0  0  0  0  0  0  0
  -15.6272  -41.3123  -12.0269 C   0  0  0  0  0  0  0  0  0  0  0  0
  -16.2484  -40.2798  -12.6575 C   0  0  0  0  0  0  0  0  0  0  0  0
  -17.3611  -39.5758  -12.1081 C   0  0  0  0  0  0  0  0  0  0  0  0
  -17.8569  -39.9355  -10.8720 C   0  0  0  0  0  0  0  0  0  0  0  0
  -17.2390  -40.9925  -10.1998 C   0  0  0  0  0  0  0  0  0  0  0  0
  -16.1369  -41.6521  -10.8023 C   0  0  0  0  0  0  0  0  0  0  0  0
  -17.5139  -41.6057   -8.8910 C   0  0  0  0  0  0  0  0  0  0  0  0
  -17.4500  -42.9215   -8.9063 O   0  0  0  0  0  0  0  0  0  0  0  0
  -17.8268  -41.1175   -7.6288 N   0  0  0  0  0  0  0  0  0  0  0  0
  -17.4645  -39.8503   -7.0151 C   0  0  1  0  0  0  0  0  0  0  0  0
  -18.6492  -39.1065   -6.5070 C   0  0  0  0  0  0  0  0  0  0  0  0
  -19.5621  -38.4634   -7.4851 C   0  0  0  0  0  0  0  0  0  0  0  0
  -19.3723  -37.4024   -8.3437 C   0  0  0  0  0  0  0  0  0  0  0  0
  -20.4150  -37.0058   -9.1631 C   0  0  0  0  0  0  0  0  0  0  0  0
  -21.6545  -37.6826   -9.1134 C   0  0  0  0  0  0  0  0  0  0  0  0
  -21.8798  -38.7392   -8.2746 C   0  0  0  0  0  0  0  0  0  0  0  0
  -20.8244  -39.1001   -7.4829 C   0  0  0  0  0  0  0  0  0  0  0  0
  -20.4624  -35.9858  -10.0913 O   0  0  0  0  0  0  0  0  0  0  0  0
  -19.7647  -35.5952  -11.2186 C   0  0  0  0  0  0  0  0  0  0  0  0
  -20.2957  -36.2257  -12.4807 C   0  0  0  0  0  0  0  0  0  0  0  0
  -19.2441  -36.6442  -13.4359 C   0  0  0  0  0  0  0  0  0  0  0  0
  -19.0515  -38.1358  -13.5246 C   0  0  0  0  0  0  0  0  0  0  0  0
  -17.7499  -38.5616  -13.0395 N   0  0  0  0  0  0  0  0  0  0  0  0
  -16.4019  -40.0904   -5.9969 C   0  0  2  0  0  0  0  0  0  0  0  0
  -16.0620  -38.9173   -5.3720 O   0  0  0  0  0  0  0  0  0  0  0  0
  -15.2286  -40.8744   -6.3894 C   0  0  0  0  0  0  0  0  0  0  0  0
  -15.2595  -42.1352   -6.9102 N   0  0  0  0  0  0  0  0  0  0  0  0
  -15.4563  -42.6224   -8.1601 C   0  0  0  0  0  0  0  0  0  0  0  0
  -14.2904  -42.5932   -9.0985 C   0  0  0  0  0  0  0  0  0  0  0  0
  -15.9965  -44.0599   -8.2433 C   0  0  0  0  0  0  0  0  0  0  0  0
  -16.5555  -41.8397   -8.8852 C   0  0  0  0  0  0  0  0  0  0  0  0
  -17.2110  -40.7234   -8.3953 C   0  0  0  0  0  0  0  0  0  0  0  0
  -18.1267  -40.3180   -9.3495 C   0  0  0  0  0  0  0  0  0  0  0  0
  -19.0656  -39.1841   -9.3114 C   0  0  0  0  0  0  0  0  0  0  0  0
  -20.5041  -39.5612   -9.1495 C   0  0  0  0  0  0  0  0  0  0  0  0
  -21.3433  -38.4286   -8.6014 C   0  0  0  0  0  0  0  0  0  0  0  0
  -20.7101  -40.7477   -8.2412 C   0  0  0  0  0  0  0  0  0  0  0  0
  -21.0385  -39.9104  -10.5229 C   0  0  0  0  0  0  0  0  0  0  0  0
  -18.0061  -41.1602  -10.3424 O   0  0  0  0  0  0  0  0  0  0  0  0
  -17.0868  -42.0581  -10.0808 N   0  0  0  0  0  0  0  0  0  0  0  0
  1  2  1  0
  2  3  1  0
  3  4  1  0
  4  5  2  0
  5  6  1  0
  6  7  2  0
  7  8  1  0
  8  9  2  0
  8 10  1  0
 10 11  2  0
 10 12  1  0
 12 13  1  0
 13 14  1  1
 14 15  1  0
 15 16  2  0
 16 17  1  0
 17 18  2  0
 18 19  1  0
 19 20  2  0
 17 21  1  0
 21 22  1  0
 22 23  1  0
 23 24  1  0
 24 25  1  0
 25 26  1  0
 13 27  1  0
 27 28  1  6
 27 29  1  0
 29 30  1  0
 30 31  1  0
 31 32  1  0
 31 33  1  0
 31 34  1  0
 34 35  1  0
 35 36  2  0
 36 37  1  0
 37 38  1  0
 38 39  1  0
 38 40  1  0
 38 41  1  0
 36 42  1  0
 42 43  1  0
  9  4  1  0
 20 15  1  0
 26  6  1  0
 43 34  2  0
M  END
$$$$
