
     RDKit          3D

 43 46  0  0  0  0  0  0  0  0999 V2000
  -23.6524  -39.5314   -6.0474 C   0  0  0  0  0  0  0  0  0  0  0  0
  -23.9868  -40.7493   -6.6545 O   0  0  0  0  0  0  0  0  0  0  0  0
  -23.6524  -40.7005   -8.0032 C   0  0  0  0  0  0  0  0  0  0  0  0
  -22.3950  -41.4539   -8.2414 C   0  0  0  0  0  0  0  0  0  0  0  0
  -22.3119  -42.8080   -8.1470 C   0  0  0  0  0  0  0  0  0  0  0  0
  -21.1103  -43.5417   -8.3781 C   0  0  0  0  0  0  0  0  0  0  0  0
  -19.9525  -42.8717   -8.7154 C   0  0  0  0  0  0  0  0  0  0  0  0
  -20.0069  -41.4799   -8.8196 C   0  0  0  0  0  0  0  0  0  0  0  0
  -21.2342  -40.8106   -8.5783 C   0  0  0  0  0  0  0  0  0  0  0  0
  -18.9707  -40.4882   -9.1476 C   0  0  0  0  0  0  0  0  0  0  0  0
  -19.3899  -39.5457   -9.9671 O   0  0  0  0  0  0  0  0  0  0  0  0
  -17.6402  -40.3097   -8.7909 N   0  0  0  0  0  0  0  0  0  0  0  0
  -16.9540  -40.6965   -7.5690 C   0  0  1  0  0  0  0  0  0  0  0  0
  -15.7394  -41.5144   -7.8348 C   0  0  0  0  0  0  0  0  0  0  0  0
  -15.9085  -42.9204   -8.2799 C   0  0  0  0  0  0  0  0  0  0  0  0
  -16.4051  -44.0270   -7.6259 C   0  0  0  0  0  0  0  0  0  0  0  0
  -16.4501  -45.2387   -8.2936 C   0  0  0  0  0  0  0  0  0  0  0  0
  -15.9898  -45.3328   -9.6264 C   0  0  0  0  0  0  0  0  0  0  0  0
  -15.4906  -44.2567  -10.3074 C   0  0  0  0  0  0  0  0  0  0  0  0
  -15.4646  -43.0787   -9.6128 C   0  0  0  0  0  0  0  0  0  0  0  0
  -16.8984  -46.4672   -7.8533 O   0  0  0  0  0  0  0  0  0  0  0  0
  -18.0577  -47.0044   -7.3264 C   0  0  0  0  0  0  0  0  0  0  0  0
  -19.0118  -47.4876   -8.3888 C   0  0  0  0  0  0  0  0  0  0  0  0
  -20.4352  -47.1982   -8.0997 C   0  0  0  0  0  0  0  0  0  0  0  0
  -21.0283  -46.1100   -8.9564 C   0  0  0  0  0  0  0  0  0  0  0  0
  -21.3942  -44.9314   -8.1898 N   0  0  0  0  0  0  0  0  0  0  0  0
  -16.7110  -39.4792   -6.7426 C   0  0  2  0  0  0  0  0  0  0  0  0
  -16.5668  -39.8173   -5.4209 O   0  0  0  0  0  0  0  0  0  0  0  0
  -17.5927  -38.3249   -6.9309 C   0  0  0  0  0  0  0  0  0  0  0  0
  -17.3175  -37.2399   -7.7110 N   0  0  0  0  0  0  0  0  0  0  0  0
  -17.8591  -36.7533   -8.8549 C   0  0  0  0  0  0  0  0  0  0  0  0
  -19.0048  -37.5127   -9.4477 C   0  0  0  0  0  0  0  0  0  0  0  0
  -18.3358  -35.2921   -8.8038 C   0  0  0  0  0  0  0  0  0  0  0  0
  -16.8139  -36.6956   -9.9733 C   0  0  0  0  0  0  0  0  0  0  0  0
  -15.9675  -35.6322  -10.2352 C   0  0  0  0  0  0  0  0  0  0  0  0
  -15.1816  -35.9748  -11.3207 C   0  0  0  0  0  0  0  0  0  0  0  0
  -14.1276  -35.1912  -11.9870 C   0  0  0  0  0  0  0  0  0  0  0  0
  -13.2019  -35.9862  -12.8522 C   0  0  0  0  0  0  0  0  0  0  0  0
  -12.2270  -36.8180  -12.0491 C   0  0  0  0  0  0  0  0  0  0  0  0
  -12.3889  -35.1343  -13.7949 C   0  0  0  0  0  0  0  0  0  0  0  0
  -14.0511  -36.9337  -13.6739 C   0  0  0  0  0  0  0  0  0  0  0  0
  -15.5567  -37.1779  -11.6691 O   0  0  0  0  0  0  0  0  0  0  0  0
  -16.5146  -37.6111  -10.8853 N   0  0  0  0  0  0  0  0  0  0  0  0
  1  2  1  0
  2  3  1  0
  3  4  1  0
  4  5  2  0
  5  6  1  0
  6  7  2  0
  7  8  1  0
  8  9  2  0
  8 10  1  0
 10 11  2  0
 10 12  1  0
 12 13  1  0
 13 14  1  6
 14 15  1  0
 15 16  2  0
 16 17  1  0
 17 18  2  0
 18 19  1  0
 19 20  2  0
 17 21  1  0
 21 22  1  0
 22 23  1  0
 23 24  1  0
 24 25  1  0
 25 26  1  0
 13 27  1  0
 27 28  1  1
 27 29  1  0
 29 30  1  0
 30 31  1  0
 31 32  1  0
 31 33  1  0
 31 34  1  0
 34 35  1  0
 35 36  2  0
 36 37  1  0
 37 38  1  0
 38 39  1  0
 38 40  1  0
 38 41  1  0
 36 42  1  0
 42 43  1  0
  9  4  1  0
 20 15  1  0
 26  6  1  0
 43 34  2  0
M  END
$$$$
