
     RDKit          3D

 38 41  0  0  0  0  0  0  0  0999 V2000
  -23.8628  -38.9859   -5.1080 C   0  0  0  0  0  0  0  0  0  0  0  0
  -24.2034  -39.0921   -6.5953 C   0  0  0  0  0  0  0  0  0  0  0  0
  -24.9262  -37.8183   -6.9631 C   0  0  0  0  0  0  0  0  0  0  0  0
  -22.9708  -39.1824   -7.4086 C   0  0  0  0  0  0  0  0  0  0  0  0
  -21.8452  -38.3991   -7.1626 C   0  0  0  0  0  0  0  0  0  0  0  0
  -20.7103  -38.5180   -7.9374 C   0  0  0  0  0  0  0  0  0  0  0  0
  -19.5088  -37.6875   -7.6855 C   0  0  0  0  0  0  0  0  0  0  0  0
  -18.3591  -38.1429   -8.3930 N   0  0  0  0  0  0  0  0  0  0  0  0
  -17.4206  -38.8481   -7.5942 C   0  0  0  0  0  0  0  0  0  0  0  0
  -16.0012  -38.8523   -8.1081 C   0  0  1  0  0  0  0  0  0  0  0  0
  -15.2179  -37.9137   -7.4641 O   0  0  0  0  0  0  0  0  0  0  0  0
  -15.3971  -40.2110   -8.2343 C   0  0  2  0  0  0  0  0  0  0  0  0
  -14.7579  -40.4914   -9.5764 C   0  0  0  0  0  0  0  0  0  0  0  0
  -13.4899  -41.3004   -9.4877 C   0  0  0  0  0  0  0  0  0  0  0  0
  -13.3114  -42.6073   -9.1524 C   0  0  0  0  0  0  0  0  0  0  0  0
  -12.0112  -43.1161   -9.1584 C   0  0  0  0  0  0  0  0  0  0  0  0
  -10.9407  -42.2802   -9.5016 C   0  0  0  0  0  0  0  0  0  0  0  0
  -11.0857  -40.9548   -9.8452 C   0  0  0  0  0  0  0  0  0  0  0  0
  -12.3741  -40.4989   -9.8277 C   0  0  0  0  0  0  0  0  0  0  0  0
  -11.5764  -44.3831   -8.8643 O   0  0  0  0  0  0  0  0  0  0  0  0
  -11.6966  -45.6865   -9.1944 C   0  0  0  0  0  0  0  0  0  0  0  0
  -12.9961  -45.9682   -9.9080 C   0  0  0  0  0  0  0  0  0  0  0  0
  -12.9147  -45.3079  -11.2740 C   0  0  0  0  0  0  0  0  0  0  0  0
  -14.2500  -45.0689  -11.9050 C   0  0  0  0  0  0  0  0  0  0  0  0
  -15.3286  -45.2709  -11.0448 O   0  0  0  0  0  0  0  0  0  0  0  0
  -16.0543  -44.1189  -11.0199 C   0  0  1  0  0  0  0  0  0  0  0  0
  -17.0261  -43.9488  -12.1721 C   0  0  0  0  0  0  0  0  0  0  0  0
  -18.2561  -43.2326  -11.5916 C   0  0  0  0  0  0  0  0  0  0  0  0
  -17.8009  -42.9584  -10.1917 N   0  0  0  0  0  0  0  0  0  0  0  0
  -18.1208  -41.7570   -9.4955 C   0  0  0  0  0  0  0  0  0  0  0  0
  -17.5685  -41.5651   -8.1468 C   0  0  0  0  0  0  0  0  0  0  0  0
  -18.4302  -41.6800   -7.1903 O   0  0  0  0  0  0  0  0  0  0  0  0
  -16.2347  -41.2774   -7.7846 N   0  0  0  0  0  0  0  0  0  0  0  0
  -17.0655  -44.0784   -9.8688 C   0  0  0  0  0  0  0  0  0  0  0  0
  -16.9852  -45.0046   -8.9838 O   0  0  0  0  0  0  0  0  0  0  0  0
  -20.7001  -39.4247   -8.9648 C   0  0  0  0  0  0  0  0  0  0  0  0
  -21.8139  -40.2245   -9.2364 C   0  0  0  0  0  0  0  0  0  0  0  0
  -22.9261  -40.0800   -8.4451 C   0  0  0  0  0  0  0  0  0  0  0  0
  1  2  1  0
  2  3  1  0
  2  4  1  0
  4  5  2  0
  5  6  1  0
  6  7  1  0
  7  8  1  0
  8  9  1  0
  9 10  1  0
 10 11  1  1
 10 12  1  0
 12 13  1  6
 13 14  1  0
 14 15  1  0
 15 16  2  0
 16 17  1  0
 17 18  2  0
 18 19  1  0
 16 20  1  0
 20 21  1  0
 21 22  1  0
 22 23  1  0
 23 24  1  0
 24 25  1  0
 25 26  1  0
 26 27  1  6
 27 28  1  0
 28 29  1  0
 29 30  1  0
 30 31  1  0
 31 32  2  0
 31 33  1  0
 29 34  1  0
 34 35  2  0
  6 36  2  0
 36 37  1  0
 37 38  2  0
 19 14  2  0
 33 12  1  0
 34 26  1  0
 38  4  1  0
M  END
$$$$
