
     RDKit          3D

 38 41  0  0  0  0  0  0  0  0999 V2000
  -10.5314  -38.1185  -11.4810 C   0  0  0  0  0  0  0  0  0  0  0  0
  -11.5594  -37.9284  -12.5974 C   0  0  0  0  0  0  0  0  0  0  0  0
  -11.9958  -39.3106  -13.0204 C   0  0  0  0  0  0  0  0  0  0  0  0
  -12.7438  -37.1959  -12.0981 C   0  0  0  0  0  0  0  0  0  0  0  0
  -13.9827  -37.8043  -11.9082 C   0  0  0  0  0  0  0  0  0  0  0  0
  -15.0626  -37.0902  -11.4321 C   0  0  0  0  0  0  0  0  0  0  0  0
  -16.3852  -37.7275  -11.2292 C   0  0  0  0  0  0  0  0  0  0  0  0
  -16.2924  -39.0422  -10.6880 N   0  0  0  0  0  0  0  0  0  0  0  0
  -15.4630  -39.1461   -9.5401 C   0  0  0  0  0  0  0  0  0  0  0  0
  -16.1667  -38.9974   -8.2128 C   0  0  1  0  0  0  0  0  0  0  0  0
  -16.0001  -37.7331   -7.6808 O   0  0  0  0  0  0  0  0  0  0  0  0
  -17.5649  -39.5187   -8.1965 C   0  0  2  0  0  0  0  0  0  0  0  0
  -18.0532  -39.9627   -6.8353 C   0  0  0  0  0  0  0  0  0  0  0  0
  -19.4994  -39.6321   -6.5717 C   0  0  0  0  0  0  0  0  0  0  0  0
  -20.6279  -40.1548   -7.1246 C   0  0  0  0  0  0  0  0  0  0  0  0
  -21.8610  -39.6679   -6.6869 C   0  0  0  0  0  0  0  0  0  0  0  0
  -21.9038  -38.6676   -5.7071 C   0  0  0  0  0  0  0  0  0  0  0  0
  -20.7826  -38.1170   -5.1277 C   0  0  0  0  0  0  0  0  0  0  0  0
  -19.5979  -38.6233   -5.5839 C   0  0  0  0  0  0  0  0  0  0  0  0
  -23.1236  -40.0287   -7.0823 O   0  0  0  0  0  0  0  0  0  0  0  0
  -23.9835  -41.0637   -7.1909 C   0  0  0  0  0  0  0  0  0  0  0  0
  -23.2656  -42.3909   -7.2149 C   0  0  0  0  0  0  0  0  0  0  0  0
  -22.6826  -42.6151   -5.8297 C   0  0  0  0  0  0  0  0  0  0  0  0
  -21.5610  -43.6049   -5.8043 C   0  0  0  0  0  0  0  0  0  0  0  0
  -21.0938  -43.9660   -7.0674 O   0  0  0  0  0  0  0  0  0  0  0  0
  -19.7596  -43.6963   -7.1034 C   0  0  1  0  0  0  0  0  0  0  0  0
  -18.8735  -44.7629   -6.4888 C   0  0  0  0  0  0  0  0  0  0  0  0
  -17.5917  -44.7946   -7.3367 C   0  0  0  0  0  0  0  0  0  0  0  0
  -17.8327  -43.6516   -8.2734 N   0  0  0  0  0  0  0  0  0  0  0  0
  -16.7985  -42.7683   -8.6984 C   0  0  0  0  0  0  0  0  0  0  0  0
  -17.1594  -41.6411   -9.5702 C   0  0  0  0  0  0  0  0  0  0  0  0
  -16.7797  -41.7674  -10.7992 O   0  0  0  0  0  0  0  0  0  0  0  0
  -17.8584  -40.4636   -9.2271 N   0  0  0  0  0  0  0  0  0  0  0  0
  -19.1860  -43.7230   -8.5245 C   0  0  0  0  0  0  0  0  0  0  0  0
  -20.0233  -43.8006   -9.4942 O   0  0  0  0  0  0  0  0  0  0  0  0
  -14.9037  -35.7599  -11.1443 C   0  0  0  0  0  0  0  0  0  0  0  0
  -13.6733  -35.1215  -11.3246 C   0  0  0  0  0  0  0  0  0  0  0  0
  -12.6202  -35.8625  -11.7998 C   0  0  0  0  0  0  0  0  0  0  0  0
  1  2  1  0
  2  3  1  0
  2  4  1  0
  4  5  2  0
  5  6  1  0
  6  7  1  0
  7  8  1  0
  8  9  1  0
  9 10  1  0
 10 11  1  6
 10 12  1  0
 12 13  1  1
 13 14  1  0
 14 15  1  0
 15 16  2  0
 16 17  1  0
 17 18  2  0
 18 19  1  0
 16 20  1  0
 20 21  1  0
 21 22  1  0
 22 23  1  0
 23 24  1  0
 24 25  1  0
 25 26  1  0
 26 27  1  1
 27 28  1  0
 28 29  1  0
 29 30  1  0
 30 31  1  0
 31 32  2  0
 31 33  1  0
 29 34  1  0
 34 35  2  0
  6 36  2  0
 36 37  1  0
 37 38  2  0
 19 14  2  0
 33 12  1  0
 34 26  1  0
 38  4  1  0
M  END
$$$$
