
     RDKit          3D

 38 41  0  0  0  0  0  0  0  0999 V2000
   -9.5117  -40.6794  -13.0097 C   0  0  0  0  0  0  0  0  0  0  0  0
  -10.8417  -41.2586  -12.5249 C   0  0  0  0  0  0  0  0  0  0  0  0
  -10.5675  -41.9056  -11.1884 C   0  0  0  0  0  0  0  0  0  0  0  0
  -11.8392  -40.1838  -12.3288 C   0  0  0  0  0  0  0  0  0  0  0  0
  -12.1897  -39.6998  -11.0703 C   0  0  0  0  0  0  0  0  0  0  0  0
  -13.1182  -38.6898  -10.9277 C   0  0  0  0  0  0  0  0  0  0  0  0
  -13.4998  -38.1699   -9.5933 C   0  0  0  0  0  0  0  0  0  0  0  0
  -14.5024  -38.9560   -8.9555 N   0  0  0  0  0  0  0  0  0  0  0  0
  -15.7425  -38.2887   -8.7735 C   0  0  0  0  0  0  0  0  0  0  0  0
  -16.5534  -38.7356   -7.5811 C   0  0  1  0  0  0  0  0  0  0  0  0
  -16.4918  -37.8228   -6.5456 O   0  0  0  0  0  0  0  0  0  0  0  0
  -17.9208  -39.2292   -7.9178 C   0  0  2  0  0  0  0  0  0  0  0  0
  -18.7515  -39.6406   -6.7222 C   0  0  0  0  0  0  0  0  0  0  0  0
  -20.2089  -39.2775   -6.8419 C   0  0  0  0  0  0  0  0  0  0  0  0
  -21.1700  -39.7874   -7.6596 C   0  0  0  0  0  0  0  0  0  0  0  0
  -22.4624  -39.2693   -7.5582 C   0  0  0  0  0  0  0  0  0  0  0  0
  -22.7315  -38.2519   -6.6334 C   0  0  0  0  0  0  0  0  0  0  0  0
  -21.7835  -37.7136   -5.7923 C   0  0  0  0  0  0  0  0  0  0  0  0
  -20.5336  -38.2505   -5.9238 C   0  0  0  0  0  0  0  0  0  0  0  0
  -23.5898  -39.6121   -8.2599 O   0  0  0  0  0  0  0  0  0  0  0  0
  -24.4169  -40.6318   -8.5734 C   0  0  0  0  0  0  0  0  0  0  0  0
  -23.7477  -41.9730   -8.3976 C   0  0  0  0  0  0  0  0  0  0  0  0
  -23.5441  -42.1850   -6.9069 C   0  0  0  0  0  0  0  0  0  0  0  0
  -22.4896  -43.1959   -6.5836 C   0  0  0  0  0  0  0  0  0  0  0  0
  -21.7231  -43.5873   -7.6806 O   0  0  0  0  0  0  0  0  0  0  0  0
  -20.4182  -43.3442   -7.3764 C   0  0  1  0  0  0  0  0  0  0  0  0
  -19.7439  -44.4174   -6.5432 C   0  0  0  0  0  0  0  0  0  0  0  0
  -18.2889  -44.4884   -7.0339 C   0  0  0  0  0  0  0  0  0  0  0  0
  -18.2556  -43.3568   -8.0139 N   0  0  0  0  0  0  0  0  0  0  0  0
  -17.1268  -42.5012   -8.1697 C   0  0  0  0  0  0  0  0  0  0  0  0
  -17.2264  -41.3820   -9.1175 C   0  0  0  0  0  0  0  0  0  0  0  0
  -16.5477  -41.5364  -10.2067 O   0  0  0  0  0  0  0  0  0  0  0  0
  -17.9625  -40.1855   -8.9784 N   0  0  0  0  0  0  0  0  0  0  0  0
  -19.5008  -43.4061   -8.6027 C   0  0  0  0  0  0  0  0  0  0  0  0
  -20.0635  -43.4837   -9.7537 O   0  0  0  0  0  0  0  0  0  0  0  0
  -13.7005  -38.1604  -12.0495 C   0  0  0  0  0  0  0  0  0  0  0  0
  -13.3697  -38.6251  -13.3256 C   0  0  0  0  0  0  0  0  0  0  0  0
  -12.4417  -39.6310  -13.4305 C   0  0  0  0  0  0  0  0  0  0  0  0
  1  2  1  0
  2  3  1  0
  2  4  1  0
  4  5  2  0
  5  6  1  0
  6  7  1  0
  7  8  1  0
  8  9  1  0
  9 10  1  0
 10 11  1  1
 10 12  1  0
 12 13  1  1
 13 14  1  0
 14 15  1  0
 15 16  2  0
 16 17  1  0
 17 18  2  0
 18 19  1  0
 16 20  1  0
 20 21  1  0
 21 22  1  0
 22 23  1  0
 23 24  1  0
 24 25  1  0
 25 26  1  0
 26 27  1  1
 27 28  1  0
 28 29  1  0
 29 30  1  0
 30 31  1  0
 31 32  2  0
 31 33  1  0
 29 34  1  0
 34 35  2  0
  6 36  2  0
 36 37  1  0
 37 38  2  0
 19 14  2  0
 33 12  1  0
 34 26  1  0
 38  4  1  0
M  END
$$$$
