
     RDKit          3D

 38 41  0  0  0  0  0  0  0  0999 V2000
  -24.0479  -43.8398   -7.2039 C   0  0  0  0  0  0  0  0  0  0  0  0
  -22.5625  -43.4809   -7.1397 C   0  0  0  0  0  0  0  0  0  0  0  0
  -22.1399  -43.1441   -8.5497 C   0  0  0  0  0  0  0  0  0  0  0  0
  -22.3492  -42.2888   -6.2898 C   0  0  0  0  0  0  0  0  0  0  0  0
  -21.0957  -41.7106   -6.1016 C   0  0  0  0  0  0  0  0  0  0  0  0
  -20.9374  -40.5933   -5.3084 C   0  0  0  0  0  0  0  0  0  0  0  0
  -19.6079  -39.9724   -5.0998 C   0  0  0  0  0  0  0  0  0  0  0  0
  -18.6304  -40.4233   -6.0331 N   0  0  0  0  0  0  0  0  0  0  0  0
  -17.3138  -39.9593   -5.7729 C   0  0  0  0  0  0  0  0  0  0  0  0
  -16.9616  -38.6242   -6.3832 C   0  0  1  0  0  0  0  0  0  0  0  0
  -15.9844  -37.9689   -5.6587 O   0  0  0  0  0  0  0  0  0  0  0  0
  -16.7466  -38.6606   -7.8594 C   0  0  2  0  0  0  0  0  0  0  0  0
  -17.3701  -37.5066   -8.6131 C   0  0  0  0  0  0  0  0  0  0  0  0
  -16.5300  -37.0053   -9.7590 C   0  0  0  0  0  0  0  0  0  0  0  0
  -16.2364  -37.5973  -10.9488 C   0  0  0  0  0  0  0  0  0  0  0  0
  -15.4298  -36.8988  -11.8494 C   0  0  0  0  0  0  0  0  0  0  0  0
  -14.9492  -35.6278  -11.5089 C   0  0  0  0  0  0  0  0  0  0  0  0
  -15.2263  -35.0006  -10.3148 C   0  0  0  0  0  0  0  0  0  0  0  0
  -16.0197  -35.7185   -9.4644 C   0  0  0  0  0  0  0  0  0  0  0  0
  -14.9994  -37.2739  -13.0963 O   0  0  0  0  0  0  0  0  0  0  0  0
  -15.4047  -37.6608  -14.3245 C   0  0  0  0  0  0  0  0  0  0  0  0
  -16.8044  -38.2245  -14.3029 C   0  0  0  0  0  0  0  0  0  0  0  0
  -17.7516  -37.0726  -14.0116 C   0  0  0  0  0  0  0  0  0  0  0  0
  -19.0811  -37.5088  -13.4820 C   0  0  0  0  0  0  0  0  0  0  0  0
  -19.1367  -38.8563  -13.1279 O   0  0  0  0  0  0  0  0  0  0  0  0
  -19.5195  -38.9216  -11.8227 C   0  0  1  0  0  0  0  0  0  0  0  0
  -21.0141  -38.8150  -11.5872 C   0  0  0  0  0  0  0  0  0  0  0  0
  -21.3263  -39.7373  -10.3978 C   0  0  0  0  0  0  0  0  0  0  0  0
  -19.9514  -40.1779  -10.0009 N   0  0  0  0  0  0  0  0  0  0  0  0
  -19.5583  -40.3576   -8.6431 C   0  0  0  0  0  0  0  0  0  0  0  0
  -18.1643  -40.7320   -8.3650 C   0  0  0  0  0  0  0  0  0  0  0  0
  -18.0012  -41.9558   -7.9824 O   0  0  0  0  0  0  0  0  0  0  0  0
  -17.0092  -39.9269   -8.4667 N   0  0  0  0  0  0  0  0  0  0  0  0
  -19.2959  -40.3071  -11.2065 C   0  0  0  0  0  0  0  0  0  0  0  0
  -18.6255  -41.1558  -11.8975 O   0  0  0  0  0  0  0  0  0  0  0  0
  -22.0383  -40.0506   -4.6991 C   0  0  0  0  0  0  0  0  0  0  0  0
  -23.3088  -40.6081   -4.8686 C   0  0  0  0  0  0  0  0  0  0  0  0
  -23.4298  -41.7196   -5.6648 C   0  0  0  0  0  0  0  0  0  0  0  0
  1  2  1  0
  2  3  1  0
  2  4  1  0
  4  5  2  0
  5  6  1  0
  6  7  1  0
  7  8  1  0
  8  9  1  0
  9 10  1  0
 10 11  1  1
 10 12  1  0
 12 13  1  6
 13 14  1  0
 14 15  1  0
 15 16  2  0
 16 17  1  0
 17 18  2  0
 18 19  1  0
 16 20  1  0
 20 21  1  0
 21 22  1  0
 22 23  1  0
 23 24  1  0
 24 25  1  0
 25 26  1  0
 26 27  1  6
 27 28  1  0
 28 29  1  0
 29 30  1  0
 30 31  1  0
 31 32  2  0
 31 33  1  0
 29 34  1  0
 34 35  2  0
  6 36  2  0
 36 37  1  0
 37 38  2  0
 19 14  2  0
 33 12  1  0
 34 26  1  0
 38  4  1  0
M  END
$$$$
