
     RDKit          3D

 38 41  0  0  0  0  0  0  0  0999 V2000
  -24.8593  -39.7609   -5.2036 C   0  0  0  0  0  0  0  0  0  0  0  0
  -23.3800  -39.3729   -5.1819 C   0  0  0  0  0  0  0  0  0  0  0  0
  -22.7932  -39.9839   -3.9320 C   0  0  0  0  0  0  0  0  0  0  0  0
  -22.6747  -39.9365   -6.3540 C   0  0  0  0  0  0  0  0  0  0  0  0
  -21.3256  -40.2833   -6.3281 C   0  0  0  0  0  0  0  0  0  0  0  0
  -20.7043  -40.8149   -7.4389 C   0  0  0  0  0  0  0  0  0  0  0  0
  -19.2691  -41.1845   -7.4223 C   0  0  0  0  0  0  0  0  0  0  0  0
  -18.4999  -40.4731   -8.3877 N   0  0  0  0  0  0  0  0  0  0  0  0
  -17.4573  -39.6810   -7.8383 C   0  0  0  0  0  0  0  0  0  0  0  0
  -17.0804  -38.4563   -8.6364 C   0  0  1  0  0  0  0  0  0  0  0  0
  -17.2827  -37.2925   -7.9197 O   0  0  0  0  0  0  0  0  0  0  0  0
  -15.7646  -38.5576   -9.3330 C   0  0  2  0  0  0  0  0  0  0  0  0
  -15.8128  -38.2494  -10.8133 C   0  0  0  0  0  0  0  0  0  0  0  0
  -14.6111  -37.4916  -11.3150 C   0  0  0  0  0  0  0  0  0  0  0  0
  -13.3216  -37.9011  -11.4628 C   0  0  0  0  0  0  0  0  0  0  0  0
  -12.3946  -36.9861  -11.9658 C   0  0  0  0  0  0  0  0  0  0  0  0
  -12.8092  -35.6897  -12.2976 C   0  0  0  0  0  0  0  0  0  0  0  0
  -14.1043  -35.2429  -12.1601 C   0  0  0  0  0  0  0  0  0  0  0  0
  -14.9781  -36.1706  -11.6663 C   0  0  0  0  0  0  0  0  0  0  0  0
  -11.0549  -37.1547  -12.2057 O   0  0  0  0  0  0  0  0  0  0  0  0
  -10.1475  -37.8900  -12.8826 C   0  0  0  0  0  0  0  0  0  0  0  0
  -10.7007  -39.2355  -13.2839 C   0  0  0  0  0  0  0  0  0  0  0  0
  -11.7582  -38.9911  -14.3472 C   0  0  0  0  0  0  0  0  0  0  0  0
  -12.7261  -40.1215  -14.5013 C   0  0  0  0  0  0  0  0  0  0  0  0
  -12.6379  -41.0852  -13.4973 O   0  0  0  0  0  0  0  0  0  0  0  0
  -13.8690  -41.1958  -12.9261 C   0  0  1  0  0  0  0  0  0  0  0  0
  -14.8440  -42.0863  -13.6725 C   0  0  0  0  0  0  0  0  0  0  0  0
  -15.6893  -42.7894  -12.5983 C   0  0  0  0  0  0  0  0  0  0  0  0
  -15.1872  -42.1279  -11.3523 N   0  0  0  0  0  0  0  0  0  0  0  0
  -16.0363  -41.7933  -10.2580 C   0  0  0  0  0  0  0  0  0  0  0  0
  -15.4482  -41.0886   -9.1098 C   0  0  0  0  0  0  0  0  0  0  0  0
  -15.3100  -41.8114   -8.0472 O   0  0  0  0  0  0  0  0  0  0  0  0
  -15.0254  -39.7437   -9.0366 N   0  0  0  0  0  0  0  0  0  0  0  0
  -13.8414  -41.9608  -11.5983 C   0  0  0  0  0  0  0  0  0  0  0  0
  -12.6898  -42.2301  -11.0996 O   0  0  0  0  0  0  0  0  0  0  0  0
  -21.4354  -41.0008   -8.5829 C   0  0  0  0  0  0  0  0  0  0  0  0
  -22.7904  -40.6625   -8.6398 C   0  0  0  0  0  0  0  0  0  0  0  0
  -23.3765  -40.1360   -7.5158 C   0  0  0  0  0  0  0  0  0  0  0  0
  1  2  1  0
  2  3  1  0
  2  4  1  0
  4  5  2  0
  5  6  1  0
  6  7  1  0
  7  8  1  0
  8  9  1  0
  9 10  1  0
 10 11  1  1
 10 12  1  0
 12 13  1  6
 13 14  1  0
 14 15  1  0
 15 16  2  0
 16 17  1  0
 17 18  2  0
 18 19  1  0
 16 20  1  0
 20 21  1  0
 21 22  1  0
 22 23  1  0
 23 24  1  0
 24 25  1  0
 25 26  1  0
 26 27  1  6
 27 28  1  0
 28 29  1  0
 29 30  1  0
 30 31  1  0
 31 32  2  0
 31 33  1  0
 29 34  1  0
 34 35  2  0
  6 36  2  0
 36 37  1  0
 37 38  2  0
 19 14  2  0
 33 12  1  0
 34 26  1  0
 38  4  1  0
M  END
$$$$
