
     RDKit          3D

 38 41  0  0  0  0  0  0  0  0999 V2000
  -13.1342  -34.9958  -14.0115 C   0  0  0  0  0  0  0  0  0  0  0  0
  -11.9658  -35.8851  -13.5834 C   0  0  0  0  0  0  0  0  0  0  0  0
  -11.2105  -35.1217  -12.5219 C   0  0  0  0  0  0  0  0  0  0  0  0
  -12.4596  -37.1472  -12.9901 C   0  0  0  0  0  0  0  0  0  0  0  0
  -12.8779  -37.2453  -11.6649 C   0  0  0  0  0  0  0  0  0  0  0  0
  -13.3410  -38.4381  -11.1494 C   0  0  0  0  0  0  0  0  0  0  0  0
  -13.7856  -38.5533   -9.7403 C   0  0  0  0  0  0  0  0  0  0  0  0
  -15.2028  -38.5152   -9.5989 N   0  0  0  0  0  0  0  0  0  0  0  0
  -15.6528  -38.2198   -8.2849 C   0  0  0  0  0  0  0  0  0  0  0  0
  -16.2217  -39.3865   -7.5140 C   0  0  1  0  0  0  0  0  0  0  0  0
  -16.0608  -39.2300   -6.1506 O   0  0  0  0  0  0  0  0  0  0  0  0
  -17.5845  -39.8073   -7.9528 C   0  0  2  0  0  0  0  0  0  0  0  0
  -18.4637  -40.3418   -6.8438 C   0  0  0  0  0  0  0  0  0  0  0  0
  -19.9097  -39.9365   -6.9668 C   0  0  0  0  0  0  0  0  0  0  0  0
  -20.8497  -40.3243   -7.8714 C   0  0  0  0  0  0  0  0  0  0  0  0
  -22.1360  -39.7950   -7.7509 C   0  0  0  0  0  0  0  0  0  0  0  0
  -22.4204  -38.8907   -6.7195 C   0  0  0  0  0  0  0  0  0  0  0  0
  -21.4939  -38.4772   -5.7887 C   0  0  0  0  0  0  0  0  0  0  0  0
  -20.2493  -39.0206   -5.9427 C   0  0  0  0  0  0  0  0  0  0  0  0
  -23.2435  -40.0274   -8.5257 O   0  0  0  0  0  0  0  0  0  0  0  0
  -24.0761  -40.9845   -8.9873 C   0  0  0  0  0  0  0  0  0  0  0  0
  -23.4362  -42.3509   -8.9526 C   0  0  0  0  0  0  0  0  0  0  0  0
  -23.2890  -42.7446   -7.4925 C   0  0  0  0  0  0  0  0  0  0  0  0
  -22.2638  -43.8089   -7.2589 C   0  0  0  0  0  0  0  0  0  0  0  0
  -21.4657  -44.0817   -8.3692 O   0  0  0  0  0  0  0  0  0  0  0  0
  -20.1684  -43.9043   -7.9950 C   0  0  1  0  0  0  0  0  0  0  0  0
  -19.5422  -45.0837   -7.2756 C   0  0  0  0  0  0  0  0  0  0  0  0
  -18.0721  -45.1257   -7.7229 C   0  0  0  0  0  0  0  0  0  0  0  0
  -17.9851  -43.8856   -8.5575 N   0  0  0  0  0  0  0  0  0  0  0  0
  -16.8373  -43.0413   -8.5715 C   0  0  0  0  0  0  0  0  0  0  0  0
  -16.8845  -41.8146   -9.3800 C   0  0  0  0  0  0  0  0  0  0  0  0
  -16.1704  -41.8513  -10.4568 O   0  0  0  0  0  0  0  0  0  0  0  0
  -17.6048  -40.6283   -9.1219 N   0  0  0  0  0  0  0  0  0  0  0  0
  -19.2094  -43.8377   -9.1888 C   0  0  0  0  0  0  0  0  0  0  0  0
  -19.7323  -43.7648  -10.3587 O   0  0  0  0  0  0  0  0  0  0  0  0
  -13.3859  -39.5397  -11.9631 C   0  0  0  0  0  0  0  0  0  0  0  0
  -12.9731  -39.4727  -13.2969 C   0  0  0  0  0  0  0  0  0  0  0  0
  -12.5182  -38.2698  -13.7767 C   0  0  0  0  0  0  0  0  0  0  0  0
  1  2  1  0
  2  3  1  0
  2  4  1  0
  4  5  2  0
  5  6  1  0
  6  7  1  0
  7  8  1  0
  8  9  1  0
  9 10  1  0
 10 11  1  1
 10 12  1  0
 12 13  1  1
 13 14  1  0
 14 15  1  0
 15 16  2  0
 16 17  1  0
 17 18  2  0
 18 19  1  0
 16 20  1  0
 20 21  1  0
 21 22  1  0
 22 23  1  0
 23 24  1  0
 24 25  1  0
 25 26  1  0
 26 27  1  1
 27 28  1  0
 28 29  1  0
 29 30  1  0
 30 31  1  0
 31 32  2  0
 31 33  1  0
 29 34  1  0
 34 35  2  0
  6 36  2  0
 36 37  1  0
 37 38  2  0
 19 14  2  0
 33 12  1  0
 34 26  1  0
 38  4  1  0
M  END
$$$$
