
     RDKit          3D

 38 41  0  0  0  0  0  0  0  0999 V2000
  -22.4858  -36.6591   -8.4638 C   0  0  0  0  0  0  0  0  0  0  0  0
  -23.2384  -37.8848   -7.9436 C   0  0  0  0  0  0  0  0  0  0  0  0
  -24.4521  -38.0512   -8.8264 C   0  0  0  0  0  0  0  0  0  0  0  0
  -22.4032  -39.1001   -8.0621 C   0  0  0  0  0  0  0  0  0  0  0  0
  -21.2782  -39.3229   -7.2711 C   0  0  0  0  0  0  0  0  0  0  0  0
  -20.5288  -40.4733   -7.4045 C   0  0  0  0  0  0  0  0  0  0  0  0
  -19.3290  -40.7183   -6.5697 C   0  0  0  0  0  0  0  0  0  0  0  0
  -18.5029  -39.5658   -6.4304 N   0  0  0  0  0  0  0  0  0  0  0  0
  -17.2176  -39.6913   -7.0205 C   0  0  0  0  0  0  0  0  0  0  0  0
  -16.8896  -38.6762   -8.0886 C   0  0  1  0  0  0  0  0  0  0  0  0
  -16.9809  -37.3818   -7.6139 O   0  0  0  0  0  0  0  0  0  0  0  0
  -15.6574  -38.9844   -8.8720 C   0  0  2  0  0  0  0  0  0  0  0  0
  -15.8523  -38.9888  -10.3722 C   0  0  0  0  0  0  0  0  0  0  0  0
  -14.6895  -38.4117  -11.1371 C   0  0  0  0  0  0  0  0  0  0  0  0
  -13.4344  -38.9056  -11.3189 C   0  0  0  0  0  0  0  0  0  0  0  0
  -12.5406  -38.1617  -12.0917 C   0  0  0  0  0  0  0  0  0  0  0  0
  -12.9520  -36.9440  -12.6489 C   0  0  0  0  0  0  0  0  0  0  0  0
  -14.2128  -36.4156  -12.4845 C   0  0  0  0  0  0  0  0  0  0  0  0
  -15.0550  -37.1763  -11.7231 C   0  0  0  0  0  0  0  0  0  0  0  0
  -11.2386  -38.4419  -12.4190 O   0  0  0  0  0  0  0  0  0  0  0  0
  -10.4278  -39.3454  -13.0093 C   0  0  0  0  0  0  0  0  0  0  0  0
  -11.0568  -40.7163  -13.0609 C   0  0  0  0  0  0  0  0  0  0  0  0
  -12.2130  -40.6468  -14.0443 C   0  0  0  0  0  0  0  0  0  0  0  0
  -13.2224  -41.7359  -13.8609 C   0  0  0  0  0  0  0  0  0  0  0  0
  -13.0557  -42.4727  -12.6889 O   0  0  0  0  0  0  0  0  0  0  0  0
  -14.2227  -42.4017  -11.9908 C   0  0  1  0  0  0  0  0  0  0  0  0
  -15.2947  -43.3792  -12.4335 C   0  0  0  0  0  0  0  0  0  0  0  0
  -16.0415  -43.8012  -11.1580 C   0  0  0  0  0  0  0  0  0  0  0  0
  -15.3935  -42.9205  -10.1350 N   0  0  0  0  0  0  0  0  0  0  0  0
  -16.1135  -42.3245   -9.0596 C   0  0  0  0  0  0  0  0  0  0  0  0
  -15.3890  -41.4260   -8.1493 C   0  0  0  0  0  0  0  0  0  0  0  0
  -15.1599  -41.9179   -6.9761 O   0  0  0  0  0  0  0  0  0  0  0  0
  -14.9241  -40.1176   -8.4040 N   0  0  0  0  0  0  0  0  0  0  0  0
  -14.0769  -42.8743  -10.5400 C   0  0  0  0  0  0  0  0  0  0  0  0
  -12.8871  -43.0900  -10.1095 O   0  0  0  0  0  0  0  0  0  0  0  0
  -20.9056  -41.4066   -8.3343 C   0  0  0  0  0  0  0  0  0  0  0  0
  -22.0291  -41.2115   -9.1427 C   0  0  0  0  0  0  0  0  0  0  0  0
  -22.7518  -40.0555   -8.9830 C   0  0  0  0  0  0  0  0  0  0  0  0
  1  2  1  0
  2  3  1  0
  2  4  1  0
  4  5  2  0
  5  6  1  0
  6  7  1  0
  7  8  1  0
  8  9  1  0
  9 10  1  0
 10 11  1  1
 10 12  1  0
 12 13  1  6
 13 14  1  0
 14 15  1  0
 15 16  2  0
 16 17  1  0
 17 18  2  0
 18 19  1  0
 16 20  1  0
 20 21  1  0
 21 22  1  0
 22 23  1  0
 23 24  1  0
 24 25  1  0
 25 26  1  0
 26 27  1  6
 27 28  1  0
 28 29  1  0
 29 30  1  0
 30 31  1  0
 31 32  2  0
 31 33  1  0
 29 34  1  0
 34 35  2  0
  6 36  2  0
 36 37  1  0
 37 38  2  0
 19 14  2  0
 33 12  1  0
 34 26  1  0
 38  4  1  0
M  END
$$$$
