
     RDKit          3D

 38 41  0  0  0  0  0  0  0  0999 V2000
  -14.7789  -34.6801  -11.8360 C   0  0  0  0  0  0  0  0  0  0  0  0
  -13.4479  -35.1478  -12.4269 C   0  0  0  0  0  0  0  0  0  0  0  0
  -12.3604  -34.4899  -11.6117 C   0  0  0  0  0  0  0  0  0  0  0  0
  -13.3062  -36.6149  -12.2989 C   0  0  0  0  0  0  0  0  0  0  0  0
  -13.2784  -37.2659  -11.0675 C   0  0  0  0  0  0  0  0  0  0  0  0
  -13.1538  -38.6374  -10.9884 C   0  0  0  0  0  0  0  0  0  0  0  0
  -13.1206  -39.3390   -9.6833 C   0  0  0  0  0  0  0  0  0  0  0  0
  -14.2587  -40.1686   -9.4682 N   0  0  0  0  0  0  0  0  0  0  0  0
  -15.5029  -39.4893   -9.5496 C   0  0  0  0  0  0  0  0  0  0  0  0
  -16.2449  -39.3310   -8.2445 C   0  0  1  0  0  0  0  0  0  0  0  0
  -15.9608  -38.1245   -7.6338 O   0  0  0  0  0  0  0  0  0  0  0  0
  -17.6923  -39.6875   -8.3131 C   0  0  2  0  0  0  0  0  0  0  0  0
  -18.3837  -39.7661   -6.9699 C   0  0  0  0  0  0  0  0  0  0  0  0
  -19.7944  -39.2370   -6.9813 C   0  0  0  0  0  0  0  0  0  0  0  0
  -20.9127  -39.7488   -7.5642 C   0  0  0  0  0  0  0  0  0  0  0  0
  -22.1125  -39.0516   -7.4100 C   0  0  0  0  0  0  0  0  0  0  0  0
  -22.1329  -37.8604   -6.6730 C   0  0  0  0  0  0  0  0  0  0  0  0
  -21.0211  -37.3149   -6.0713 C   0  0  0  0  0  0  0  0  0  0  0  0
  -19.8696  -38.0300   -6.2460 C   0  0  0  0  0  0  0  0  0  0  0  0
  -23.3594  -39.3577   -7.8921 O   0  0  0  0  0  0  0  0  0  0  0  0
  -24.3300  -40.2959   -7.9018 C   0  0  0  0  0  0  0  0  0  0  0  0
  -23.7941  -41.6628   -7.5526 C   0  0  0  0  0  0  0  0  0  0  0  0
  -23.4040  -41.6343   -6.0844 C   0  0  0  0  0  0  0  0  0  0  0  0
  -22.4318  -42.7051   -5.7014 C   0  0  0  0  0  0  0  0  0  0  0  0
  -21.8778  -43.3832   -6.7865 O   0  0  0  0  0  0  0  0  0  0  0  0
  -20.5241  -43.2684   -6.6937 C   0  0  1  0  0  0  0  0  0  0  0  0
  -19.8598  -44.2588   -5.7565 C   0  0  0  0  0  0  0  0  0  0  0  0
  -18.5066  -44.6104   -6.3954 C   0  0  0  0  0  0  0  0  0  0  0  0
  -18.4895  -43.6842   -7.5718 N   0  0  0  0  0  0  0  0  0  0  0  0
  -17.3074  -43.0293   -8.0237 C   0  0  0  0  0  0  0  0  0  0  0  0
  -17.4177  -42.0916   -9.1504 C   0  0  0  0  0  0  0  0  0  0  0  0
  -16.9229  -42.5255  -10.2628 O   0  0  0  0  0  0  0  0  0  0  0  0
  -17.9903  -40.8013   -9.1569 N   0  0  0  0  0  0  0  0  0  0  0  0
  -19.8038  -43.6683   -7.9862 C   0  0  0  0  0  0  0  0  0  0  0  0
  -20.5304  -43.8710   -9.0247 O   0  0  0  0  0  0  0  0  0  0  0  0
  -13.0558  -39.3628  -12.1467 C   0  0  0  0  0  0  0  0  0  0  0  0
  -13.0804  -38.7383  -13.3970 C   0  0  0  0  0  0  0  0  0  0  0  0
  -13.2058  -37.3720  -13.4386 C   0  0  0  0  0  0  0  0  0  0  0  0
  1  2  1  0
  2  3  1  0
  2  4  1  0
  4  5  2  0
  5  6  1  0
  6  7  1  0
  7  8  1  0
  8  9  1  0
  9 10  1  0
 10 11  1  6
 10 12  1  0
 12 13  1  1
 13 14  1  0
 14 15  1  0
 15 16  2  0
 16 17  1  0
 17 18  2  0
 18 19  1  0
 16 20  1  0
 20 21  1  0
 21 22  1  0
 22 23  1  0
 23 24  1  0
 24 25  1  0
 25 26  1  0
 26 27  1  1
 27 28  1  0
 28 29  1  0
 29 30  1  0
 30 31  1  0
 31 32  2  0
 31 33  1  0
 29 34  1  0
 34 35  2  0
  6 36  2  0
 36 37  1  0
 37 38  2  0
 19 14  2  0
 33 12  1  0
 34 26  1  0
 38  4  1  0
M  END
$$$$
