
     RDKit          3D

 38 41  0  0  0  0  0  0  0  0999 V2000
  -20.9276  -41.6584   -3.4423 C   0  0  0  0  0  0  0  0  0  0  0  0
  -22.3314  -41.5941   -4.0460 C   0  0  0  0  0  0  0  0  0  0  0  0
  -23.0732  -40.5135   -3.2961 C   0  0  0  0  0  0  0  0  0  0  0  0
  -22.2691  -41.2140   -5.4745 C   0  0  0  0  0  0  0  0  0  0  0  0
  -21.6400  -40.0534   -5.9199 C   0  0  0  0  0  0  0  0  0  0  0  0
  -21.5945  -39.7368   -7.2617 C   0  0  0  0  0  0  0  0  0  0  0  0
  -20.9302  -38.5033   -7.7452 C   0  0  0  0  0  0  0  0  0  0  0  0
  -19.7692  -38.1645   -6.9922 N   0  0  0  0  0  0  0  0  0  0  0  0
  -18.6053  -38.8954   -7.3492 C   0  0  0  0  0  0  0  0  0  0  0  0
  -17.3533  -38.0736   -7.5393 C   0  0  1  0  0  0  0  0  0  0  0  0
  -16.9407  -37.4837   -6.3598 O   0  0  0  0  0  0  0  0  0  0  0  0
  -16.2818  -38.7575   -8.3209 C   0  0  2  0  0  0  0  0  0  0  0  0
  -16.4529  -38.6794   -9.8220 C   0  0  0  0  0  0  0  0  0  0  0  0
  -15.1581  -38.5041  -10.5722 C   0  0  0  0  0  0  0  0  0  0  0  0
  -14.1313  -39.3786  -10.7551 C   0  0  0  0  0  0  0  0  0  0  0  0
  -13.0362  -38.9579  -11.5121 C   0  0  0  0  0  0  0  0  0  0  0  0
  -13.0219  -37.6658  -12.0530 C   0  0  0  0  0  0  0  0  0  0  0  0
  -14.0426  -36.7566  -11.8871 C   0  0  0  0  0  0  0  0  0  0  0  0
  -15.0944  -37.2099  -11.1415 C   0  0  0  0  0  0  0  0  0  0  0  0
  -11.8940  -39.6440  -11.8370 O   0  0  0  0  0  0  0  0  0  0  0  0
  -11.4170  -40.7553  -12.4367 C   0  0  0  0  0  0  0  0  0  0  0  0
  -12.4586  -41.8447  -12.5119 C   0  0  0  0  0  0  0  0  0  0  0  0
  -13.5192  -41.3891  -13.5001 C   0  0  0  0  0  0  0  0  0  0  0  0
  -14.8306  -42.0909  -13.3381 C   0  0  0  0  0  0  0  0  0  0  0  0
  -14.9250  -42.8564  -12.1765 O   0  0  0  0  0  0  0  0  0  0  0  0
  -16.0116  -42.4168  -11.4833 C   0  0  1  0  0  0  0  0  0  0  0  0
  -17.3396  -42.9849  -11.9460 C   0  0  0  0  0  0  0  0  0  0  0  0
  -18.1957  -43.1557  -10.6808 C   0  0  0  0  0  0  0  0  0  0  0  0
  -17.3055  -42.5478   -9.6415 N   0  0  0  0  0  0  0  0  0  0  0  0
  -17.8018  -41.7628   -8.5608 C   0  0  0  0  0  0  0  0  0  0  0  0
  -16.8324  -41.1618   -7.6335 C   0  0  0  0  0  0  0  0  0  0  0  0
  -16.7879  -41.7161   -6.4667 O   0  0  0  0  0  0  0  0  0  0  0  0
  -15.9633  -40.0740   -7.8662 N   0  0  0  0  0  0  0  0  0  0  0  0
  -16.0421  -42.9292  -10.0390 C   0  0  0  0  0  0  0  0  0  0  0  0
  -14.9922  -43.5271   -9.6058 O   0  0  0  0  0  0  0  0  0  0  0  0
  -22.1815  -40.5848   -8.1639 C   0  0  0  0  0  0  0  0  0  0  0  0
  -22.8202  -41.7564   -7.7477 C   0  0  0  0  0  0  0  0  0  0  0  0
  -22.8464  -42.0404   -6.4050 C   0  0  0  0  0  0  0  0  0  0  0  0
  1  2  1  0
  2  3  1  0
  2  4  1  0
  4  5  2  0
  5  6  1  0
  6  7  1  0
  7  8  1  0
  8  9  1  0
  9 10  1  0
 10 11  1  1
 10 12  1  0
 12 13  1  6
 13 14  1  0
 14 15  1  0
 15 16  2  0
 16 17  1  0
 17 18  2  0
 18 19  1  0
 16 20  1  0
 20 21  1  0
 21 22  1  0
 22 23  1  0
 23 24  1  0
 24 25  1  0
 25 26  1  0
 26 27  1  6
 27 28  1  0
 28 29  1  0
 29 30  1  0
 30 31  1  0
 31 32  2  0
 31 33  1  0
 29 34  1  0
 34 35  2  0
  6 36  2  0
 36 37  1  0
 37 38  2  0
 19 14  2  0
 33 12  1  0
 34 26  1  0
 38  4  1  0
M  END
$$$$
