
     RDKit          3D

 38 41  0  0  0  0  0  0  0  0999 V2000
  -14.2839  -35.2035  -12.0060 C   0  0  0  0  0  0  0  0  0  0  0  0
  -12.9304  -35.8010  -12.3938 C   0  0  0  0  0  0  0  0  0  0  0  0
  -11.8840  -35.0325  -11.6228 C   0  0  0  0  0  0  0  0  0  0  0  0
  -12.8540  -37.2239  -11.9960 C   0  0  0  0  0  0  0  0  0  0  0  0
  -12.9278  -37.6415  -10.6689 C   0  0  0  0  0  0  0  0  0  0  0  0
  -12.8617  -38.9788  -10.3372 C   0  0  0  0  0  0  0  0  0  0  0  0
  -12.9366  -39.4329   -8.9284 C   0  0  0  0  0  0  0  0  0  0  0  0
  -14.0734  -40.2509   -8.6668 N   0  0  0  0  0  0  0  0  0  0  0  0
  -15.3128  -39.6697   -9.0441 C   0  0  0  0  0  0  0  0  0  0  0  0
  -16.2691  -39.3832   -7.9117 C   0  0  1  0  0  0  0  0  0  0  0  0
  -16.0591  -38.1319   -7.3647 O   0  0  0  0  0  0  0  0  0  0  0  0
  -17.6921  -39.7206   -8.2086 C   0  0  2  0  0  0  0  0  0  0  0  0
  -18.5831  -39.8113   -6.9893 C   0  0  0  0  0  0  0  0  0  0  0  0
  -19.9698  -39.2645   -7.2088 C   0  0  0  0  0  0  0  0  0  0  0  0
  -20.9899  -39.7532   -7.9657 C   0  0  0  0  0  0  0  0  0  0  0  0
  -22.1921  -39.0435   -7.9861 C   0  0  0  0  0  0  0  0  0  0  0  0
  -22.3141  -37.8638   -7.2405 C   0  0  0  0  0  0  0  0  0  0  0  0
  -21.3029  -37.3416   -6.4654 C   0  0  0  0  0  0  0  0  0  0  0  0
  -20.1454  -38.0682   -6.4731 C   0  0  0  0  0  0  0  0  0  0  0  0
  -23.3527  -39.3265   -8.6596 O   0  0  0  0  0  0  0  0  0  0  0  0
  -24.3195  -40.2523   -8.8349 C   0  0  0  0  0  0  0  0  0  0  0  0
  -23.8575  -41.6310   -8.4310 C   0  0  0  0  0  0  0  0  0  0  0  0
  -23.6982  -41.6302   -6.9199 C   0  0  0  0  0  0  0  0  0  0  0  0
  -22.8074  -42.7188   -6.4103 C   0  0  0  0  0  0  0  0  0  0  0  0
  -22.0994  -43.3869   -7.4087 O   0  0  0  0  0  0  0  0  0  0  0  0
  -20.7752  -43.2904   -7.1066 C   0  0  1  0  0  0  0  0  0  0  0  0
  -20.2732  -44.3036   -6.0955 C   0  0  0  0  0  0  0  0  0  0  0  0
  -18.8412  -44.6621   -6.5243 C   0  0  0  0  0  0  0  0  0  0  0  0
  -18.6337  -43.7180   -7.6679 N   0  0  0  0  0  0  0  0  0  0  0  0
  -17.3896  -43.0710   -7.9210 C   0  0  0  0  0  0  0  0  0  0  0  0
  -17.3156  -42.1146   -9.0349 C   0  0  0  0  0  0  0  0  0  0  0  0
  -16.6595  -42.5373  -10.0652 O   0  0  0  0  0  0  0  0  0  0  0  0
  -17.8674  -40.8173   -9.1073 N   0  0  0  0  0  0  0  0  0  0  0  0
  -19.8683  -43.6793   -8.2795 C   0  0  0  0  0  0  0  0  0  0  0  0
  -20.4280  -43.8567   -9.4208 O   0  0  0  0  0  0  0  0  0  0  0  0
  -12.7206  -39.9045  -11.3376 C   0  0  0  0  0  0  0  0  0  0  0  0
  -12.6436  -39.5164  -12.6783 C   0  0  0  0  0  0  0  0  0  0  0  0
  -12.7129  -38.1774  -12.9722 C   0  0  0  0  0  0  0  0  0  0  0  0
  1  2  1  0
  2  3  1  0
  2  4  1  0
  4  5  2  0
  5  6  1  0
  6  7  1  0
  7  8  1  0
  8  9  1  0
  9 10  1  0
 10 11  1  6
 10 12  1  0
 12 13  1  1
 13 14  1  0
 14 15  1  0
 15 16  2  0
 16 17  1  0
 17 18  2  0
 18 19  1  0
 16 20  1  0
 20 21  1  0
 21 22  1  0
 22 23  1  0
 23 24  1  0
 24 25  1  0
 25 26  1  0
 26 27  1  1
 27 28  1  0
 28 29  1  0
 29 30  1  0
 30 31  1  0
 31 32  2  0
 31 33  1  0
 29 34  1  0
 34 35  2  0
  6 36  2  0
 36 37  1  0
 37 38  2  0
 19 14  2  0
 33 12  1  0
 34 26  1  0
 38  4  1  0
M  END
$$$$
