
     RDKit          3D

 38 41  0  0  0  0  0  0  0  0999 V2000
  -21.7672  -40.8231   -2.2310 C   0  0  0  0  0  0  0  0  0  0  0  0
  -21.3662  -41.9213   -3.2171 C   0  0  0  0  0  0  0  0  0  0  0  0
  -22.0626  -43.1820   -2.7636 C   0  0  0  0  0  0  0  0  0  0  0  0
  -21.8332  -41.5938   -4.5822 C   0  0  0  0  0  0  0  0  0  0  0  0
  -21.7633  -40.3088   -5.1159 C   0  0  0  0  0  0  0  0  0  0  0  0
  -22.2007  -40.0436   -6.3969 C   0  0  0  0  0  0  0  0  0  0  0  0
  -22.1331  -38.6796   -6.9726 C   0  0  0  0  0  0  0  0  0  0  0  0
  -21.2459  -38.5876   -8.0835 N   0  0  0  0  0  0  0  0  0  0  0  0
  -19.8692  -38.6434   -7.7402 C   0  0  0  0  0  0  0  0  0  0  0  0
  -18.9482  -37.8182   -8.6061 C   0  0  1  0  0  0  0  0  0  0  0  0
  -18.9357  -36.4903   -8.2247 O   0  0  0  0  0  0  0  0  0  0  0  0
  -17.6066  -38.4305   -8.8343 C   0  0  2  0  0  0  0  0  0  0  0  0
  -17.2477  -38.6309  -10.2902 C   0  0  0  0  0  0  0  0  0  0  0  0
  -15.7973  -38.3653  -10.5999 C   0  0  0  0  0  0  0  0  0  0  0  0
  -14.6877  -39.0716  -10.2501 C   0  0  0  0  0  0  0  0  0  0  0  0
  -13.4460  -38.6024  -10.6829 C   0  0  0  0  0  0  0  0  0  0  0  0
  -13.3755  -37.4336  -11.4519 C   0  0  0  0  0  0  0  0  0  0  0  0
  -14.4770  -36.6953  -11.8228 C   0  0  0  0  0  0  0  0  0  0  0  0
  -15.6711  -37.1908  -11.3795 C   0  0  0  0  0  0  0  0  0  0  0  0
  -12.1985  -39.1295  -10.4667 O   0  0  0  0  0  0  0  0  0  0  0  0
  -11.4302  -40.2276  -10.6287 C   0  0  0  0  0  0  0  0  0  0  0  0
  -12.2618  -41.4747  -10.8036 C   0  0  0  0  0  0  0  0  0  0  0  0
  -12.9494  -41.3742  -12.1549 C   0  0  0  0  0  0  0  0  0  0  0  0
  -14.1550  -42.2512  -12.2808 C   0  0  0  0  0  0  0  0  0  0  0  0
  -14.5717  -42.8195  -11.0777 O   0  0  0  0  0  0  0  0  0  0  0  0
  -15.8713  -42.4618  -10.8839 C   0  0  1  0  0  0  0  0  0  0  0  0
  -16.8871  -43.3147  -11.6197 C   0  0  0  0  0  0  0  0  0  0  0  0
  -18.1101  -43.4169  -10.6940 C   0  0  0  0  0  0  0  0  0  0  0  0
  -17.7080  -42.5044   -9.5769 N   0  0  0  0  0  0  0  0  0  0  0  0
  -18.6294  -41.6474   -8.9084 C   0  0  0  0  0  0  0  0  0  0  0  0
  -18.1137  -40.7466   -7.8675 C   0  0  0  0  0  0  0  0  0  0  0  0
  -18.4245  -41.0854   -6.6594 O   0  0  0  0  0  0  0  0  0  0  0  0
  -17.3346  -39.5809   -8.0320 N   0  0  0  0  0  0  0  0  0  0  0  0
  -16.3535  -42.7269   -9.4533 C   0  0  0  0  0  0  0  0  0  0  0  0
  -15.4667  -43.0589   -8.5868 O   0  0  0  0  0  0  0  0  0  0  0  0
  -22.7115  -41.0687   -7.1493 C   0  0  0  0  0  0  0  0  0  0  0  0
  -22.7948  -42.3684   -6.6416 C   0  0  0  0  0  0  0  0  0  0  0  0
  -22.3501  -42.5964   -5.3632 C   0  0  0  0  0  0  0  0  0  0  0  0
  1  2  1  0
  2  3  1  0
  2  4  1  0
  4  5  2  0
  5  6  1  0
  6  7  1  0
  7  8  1  0
  8  9  1  0
  9 10  1  0
 10 11  1  1
 10 12  1  0
 12 13  1  6
 13 14  1  0
 14 15  1  0
 15 16  2  0
 16 17  1  0
 17 18  2  0
 18 19  1  0
 16 20  1  0
 20 21  1  0
 21 22  1  0
 22 23  1  0
 23 24  1  0
 24 25  1  0
 25 26  1  0
 26 27  1  6
 27 28  1  0
 28 29  1  0
 29 30  1  0
 30 31  1  0
 31 32  2  0
 31 33  1  0
 29 34  1  0
 34 35  2  0
  6 36  2  0
 36 37  1  0
 37 38  2  0
 19 14  2  0
 33 12  1  0
 34 26  1  0
 38  4  1  0
M  END
$$$$
