
     RDKit          3D

 38 41  0  0  0  0  0  0  0  0999 V2000
  -13.5166  -34.8006  -10.0341 C   0  0  0  0  0  0  0  0  0  0  0  0
  -12.6001  -35.5430  -11.0080 C   0  0  0  0  0  0  0  0  0  0  0  0
  -11.2937  -35.7659  -10.2843 C   0  0  0  0  0  0  0  0  0  0  0  0
  -13.1708  -36.8616  -11.3606 C   0  0  0  0  0  0  0  0  0  0  0  0
  -13.1629  -37.9458  -10.4858 C   0  0  0  0  0  0  0  0  0  0  0  0
  -13.7130  -39.1580  -10.8472 C   0  0  0  0  0  0  0  0  0  0  0  0
  -13.7072  -40.3180   -9.9247 C   0  0  0  0  0  0  0  0  0  0  0  0
  -15.0163  -40.7472   -9.5618 N   0  0  0  0  0  0  0  0  0  0  0  0
  -15.3172  -40.6074   -8.1812 C   0  0  0  0  0  0  0  0  0  0  0  0
  -16.2992  -39.5139   -7.8363 C   0  0  1  0  0  0  0  0  0  0  0  0
  -15.8778  -38.2804   -8.2945 O   0  0  0  0  0  0  0  0  0  0  0  0
  -17.7231  -39.8520   -8.1281 C   0  0  2  0  0  0  0  0  0  0  0  0
  -18.6844  -39.5467   -7.0006 C   0  0  0  0  0  0  0  0  0  0  0  0
  -20.0167  -39.0183   -7.4651 C   0  0  0  0  0  0  0  0  0  0  0  0
  -21.0239  -39.6525   -8.1251 C   0  0  0  0  0  0  0  0  0  0  0  0
  -22.1725  -38.9204   -8.4318 C   0  0  0  0  0  0  0  0  0  0  0  0
  -22.2558  -37.5722   -8.0603 C   0  0  0  0  0  0  0  0  0  0  0  0
  -21.2562  -36.9003   -7.3930 C   0  0  0  0  0  0  0  0  0  0  0  0
  -20.1517  -37.6545   -7.1116 C   0  0  0  0  0  0  0  0  0  0  0  0
  -23.3105  -39.3270   -9.0803 O   0  0  0  0  0  0  0  0  0  0  0  0
  -24.3263  -40.2158   -9.0567 C   0  0  0  0  0  0  0  0  0  0  0  0
  -23.9815  -41.4423   -8.2479 C   0  0  0  0  0  0  0  0  0  0  0  0
  -23.9066  -41.0173   -6.7910 C   0  0  0  0  0  0  0  0  0  0  0  0
  -23.1208  -41.9570   -5.9319 C   0  0  0  0  0  0  0  0  0  0  0  0
  -22.4053  -42.9164   -6.6473 O   0  0  0  0  0  0  0  0  0  0  0  0
  -21.0963  -42.8025   -6.2897 C   0  0  1  0  0  0  0  0  0  0  0  0
  -20.7207  -43.5075   -5.0003 C   0  0  0  0  0  0  0  0  0  0  0  0
  -19.2947  -44.0432   -5.2058 C   0  0  0  0  0  0  0  0  0  0  0  0
  -18.9608  -43.4769   -6.5511 N   0  0  0  0  0  0  0  0  0  0  0  0
  -17.6638  -42.9910   -6.8858 C   0  0  0  0  0  0  0  0  0  0  0  0
  -17.4637  -42.3978   -8.2159 C   0  0  0  0  0  0  0  0  0  0  0  0
  -16.7816  -43.1291   -9.0348 O   0  0  0  0  0  0  0  0  0  0  0  0
  -17.9219  -41.1500   -8.6911 N   0  0  0  0  0  0  0  0  0  0  0  0
  -20.1541  -43.5543   -7.2364 C   0  0  0  0  0  0  0  0  0  0  0  0
  -20.6605  -44.0231   -8.3187 O   0  0  0  0  0  0  0  0  0  0  0  0
  -14.2740  -39.2879  -12.0906 C   0  0  0  0  0  0  0  0  0  0  0  0
  -14.2970  -38.2184  -12.9904 C   0  0  0  0  0  0  0  0  0  0  0  0
  -13.7408  -37.0266  -12.5976 C   0  0  0  0  0  0  0  0  0  0  0  0
  1  2  1  0
  2  3  1  0
  2  4  1  0
  4  5  2  0
  5  6  1  0
  6  7  1  0
  7  8  1  0
  8  9  1  0
  9 10  1  0
 10 11  1  6
 10 12  1  0
 12 13  1  1
 13 14  1  0
 14 15  1  0
 15 16  2  0
 16 17  1  0
 17 18  2  0
 18 19  1  0
 16 20  1  0
 20 21  1  0
 21 22  1  0
 22 23  1  0
 23 24  1  0
 24 25  1  0
 25 26  1  0
 26 27  1  1
 27 28  1  0
 28 29  1  0
 29 30  1  0
 30 31  1  0
 31 32  2  0
 31 33  1  0
 29 34  1  0
 34 35  2  0
  6 36  2  0
 36 37  1  0
 37 38  2  0
 19 14  2  0
 33 12  1  0
 34 26  1  0
 38  4  1  0
M  END
$$$$
