
     RDKit          3D

 38 41  0  0  0  0  0  0  0  0999 V2000
  -17.8528  -34.3054  -10.4816 C   0  0  0  0  0  0  0  0  0  0  0  0
  -16.5224  -34.0219  -11.1808 C   0  0  0  0  0  0  0  0  0  0  0  0
  -15.6749  -33.2513  -10.1969 C   0  0  0  0  0  0  0  0  0  0  0  0
  -15.8257  -35.2847  -11.5102 C   0  0  0  0  0  0  0  0  0  0  0  0
  -15.4341  -36.2057  -10.5410 C   0  0  0  0  0  0  0  0  0  0  0  0
  -14.7941  -37.3774  -10.8877 C   0  0  0  0  0  0  0  0  0  0  0  0
  -14.3712  -38.3622   -9.8640 C   0  0  0  0  0  0  0  0  0  0  0  0
  -14.7871  -39.6913  -10.1648 N   0  0  0  0  0  0  0  0  0  0  0  0
  -15.1314  -40.4691   -9.0278 C   0  0  0  0  0  0  0  0  0  0  0  0
  -16.0591  -39.8035   -8.0403 C   0  0  1  0  0  0  0  0  0  0  0  0
  -15.8973  -38.4313   -8.0262 O   0  0  0  0  0  0  0  0  0  0  0  0
  -17.4717  -40.2799   -8.1066 C   0  0  2  0  0  0  0  0  0  0  0  0
  -18.1681  -40.3674   -6.7664 C   0  0  0  0  0  0  0  0  0  0  0  0
  -19.6171  -39.9566   -6.8074 C   0  0  0  0  0  0  0  0  0  0  0  0
  -20.6838  -40.5790   -7.3795 C   0  0  0  0  0  0  0  0  0  0  0  0
  -21.9381  -39.9777   -7.2594 C   0  0  0  0  0  0  0  0  0  0  0  0
  -22.0635  -38.7668   -6.5661 C   0  0  0  0  0  0  0  0  0  0  0  0
  -21.0063  -38.1108   -5.9765 C   0  0  0  0  0  0  0  0  0  0  0  0
  -19.7984  -38.7346   -6.1168 C   0  0  0  0  0  0  0  0  0  0  0  0
  -23.1507  -40.4021   -7.7391 O   0  0  0  0  0  0  0  0  0  0  0  0
  -24.0411  -41.4166   -7.7220 C   0  0  0  0  0  0  0  0  0  0  0  0
  -23.3988  -42.7216   -7.3196 C   0  0  0  0  0  0  0  0  0  0  0  0
  -23.0274  -42.6091   -5.8506 C   0  0  0  0  0  0  0  0  0  0  0  0
  -21.9748  -43.5821   -5.4220 C   0  0  0  0  0  0  0  0  0  0  0  0
  -21.3561  -44.2505   -6.4778 O   0  0  0  0  0  0  0  0  0  0  0  0
  -20.0173  -44.0216   -6.3793 C   0  0  1  0  0  0  0  0  0  0  0  0
  -19.2838  -44.9203   -5.4020 C   0  0  0  0  0  0  0  0  0  0  0  0
  -17.8999  -45.1819   -6.0179 C   0  0  0  0  0  0  0  0  0  0  0  0
  -17.9466  -44.2997   -7.2268 N   0  0  0  0  0  0  0  0  0  0  0  0
  -16.8175  -43.5664   -7.6936 C   0  0  0  0  0  0  0  0  0  0  0  0
  -16.9926  -42.6815   -8.8542 C   0  0  0  0  0  0  0  0  0  0  0  0
  -16.4526  -43.1125   -9.9466 O   0  0  0  0  0  0  0  0  0  0  0  0
  -17.6688  -41.4436   -8.9117 N   0  0  0  0  0  0  0  0  0  0  0  0
  -19.2535  -44.4067   -7.6512 C   0  0  0  0  0  0  0  0  0  0  0  0
  -19.9504  -44.7051   -8.6869 O   0  0  0  0  0  0  0  0  0  0  0  0
  -14.5432  -37.6302  -12.2109 C   0  0  0  0  0  0  0  0  0  0  0  0
  -14.9237  -36.7255  -13.2062 C   0  0  0  0  0  0  0  0  0  0  0  0
  -15.5588  -35.5697  -12.8255 C   0  0  0  0  0  0  0  0  0  0  0  0
  1  2  1  0
  2  3  1  0
  2  4  1  0
  4  5  2  0
  5  6  1  0
  6  7  1  0
  7  8  1  0
  8  9  1  0
  9 10  1  0
 10 11  1  6
 10 12  1  0
 12 13  1  1
 13 14  1  0
 14 15  1  0
 15 16  2  0
 16 17  1  0
 17 18  2  0
 18 19  1  0
 16 20  1  0
 20 21  1  0
 21 22  1  0
 22 23  1  0
 23 24  1  0
 24 25  1  0
 25 26  1  0
 26 27  1  1
 27 28  1  0
 28 29  1  0
 29 30  1  0
 30 31  1  0
 31 32  2  0
 31 33  1  0
 29 34  1  0
 34 35  2  0
  6 36  2  0
 36 37  1  0
 37 38  2  0
 19 14  2  0
 33 12  1  0
 34 26  1  0
 38  4  1  0
M  END
$$$$
