
     RDKit          3D

 38 41  0  0  0  0  0  0  0  0999 V2000
  -12.6633  -38.4867  -14.5661 C   0  0  0  0  0  0  0  0  0  0  0  0
  -12.4799  -36.9836  -14.3501 C   0  0  0  0  0  0  0  0  0  0  0  0
  -13.6535  -36.3068  -15.0168 C   0  0  0  0  0  0  0  0  0  0  0  0
  -12.5080  -36.6557  -12.9077 C   0  0  0  0  0  0  0  0  0  0  0  0
  -12.6764  -37.6210  -11.9173 C   0  0  0  0  0  0  0  0  0  0  0  0
  -12.6883  -37.2778  -10.5814 C   0  0  0  0  0  0  0  0  0  0  0  0
  -12.8695  -38.2968   -9.5206 C   0  0  0  0  0  0  0  0  0  0  0  0
  -14.1980  -38.8081   -9.4609 N   0  0  0  0  0  0  0  0  0  0  0  0
  -14.9974  -38.2438   -8.4319 C   0  0  0  0  0  0  0  0  0  0  0  0
  -15.7621  -39.2325   -7.5853 C   0  0  1  0  0  0  0  0  0  0  0  0
  -15.5767  -39.0055   -6.2350 O   0  0  0  0  0  0  0  0  0  0  0  0
  -17.1774  -39.4403   -8.0103 C   0  0  2  0  0  0  0  0  0  0  0  0
  -18.1355  -39.7370   -6.8778 C   0  0  0  0  0  0  0  0  0  0  0  0
  -19.4893  -39.0970   -7.0447 C   0  0  0  0  0  0  0  0  0  0  0  0
  -20.4827  -39.3775   -7.9318 C   0  0  0  0  0  0  0  0  0  0  0  0
  -21.6577  -38.6266   -7.8623 C   0  0  0  0  0  0  0  0  0  0  0  0
  -21.7805  -37.6179   -6.8979 C   0  0  0  0  0  0  0  0  0  0  0  0
  -20.7959  -37.3080   -5.9866 C   0  0  0  0  0  0  0  0  0  0  0  0
  -19.6645  -38.0679   -6.0891 C   0  0  0  0  0  0  0  0  0  0  0  0
  -22.7890  -38.7165   -8.6323 O   0  0  0  0  0  0  0  0  0  0  0  0
  -23.7752  -39.5445   -9.0375 C   0  0  0  0  0  0  0  0  0  0  0  0
  -23.3820  -40.9953   -8.9029 C   0  0  0  0  0  0  0  0  0  0  0  0
  -23.3047  -41.3072   -7.4178 C   0  0  0  0  0  0  0  0  0  0  0  0
  -22.4795  -42.5143   -7.1008 C   0  0  0  0  0  0  0  0  0  0  0  0
  -21.7413  -42.9968   -8.1808 O   0  0  0  0  0  0  0  0  0  0  0  0
  -20.4328  -43.0213   -7.8045 C   0  0  1  0  0  0  0  0  0  0  0  0
  -20.0204  -44.2390   -6.9997 C   0  0  0  0  0  0  0  0  0  0  0  0
  -18.5800  -44.5654   -7.4261 C   0  0  0  0  0  0  0  0  0  0  0  0
  -18.2796  -43.4194   -8.3418 N   0  0  0  0  0  0  0  0  0  0  0  0
  -17.0027  -42.7896   -8.3997 C   0  0  0  0  0  0  0  0  0  0  0  0
  -16.8367  -41.6317   -9.2900 C   0  0  0  0  0  0  0  0  0  0  0  0
  -16.1403  -41.8655  -10.3535 O   0  0  0  0  0  0  0  0  0  0  0  0
  -17.3403  -40.3238   -9.1212 N   0  0  0  0  0  0  0  0  0  0  0  0
  -19.4772  -43.2039   -8.9889 C   0  0  0  0  0  0  0  0  0  0  0  0
  -19.9800  -43.1222  -10.1670 O   0  0  0  0  0  0  0  0  0  0  0  0
  -12.5315  -35.9619  -10.2328 C   0  0  0  0  0  0  0  0  0  0  0  0
  -12.3608  -34.9706  -11.2034 C   0  0  0  0  0  0  0  0  0  0  0  0
  -12.3538  -35.3478  -12.5232 C   0  0  0  0  0  0  0  0  0  0  0  0
  1  2  1  0
  2  3  1  0
  2  4  1  0
  4  5  2  0
  5  6  1  0
  6  7  1  0
  7  8  1  0
  8  9  1  0
  9 10  1  0
 10 11  1  1
 10 12  1  0
 12 13  1  1
 13 14  1  0
 14 15  1  0
 15 16  2  0
 16 17  1  0
 17 18  2  0
 18 19  1  0
 16 20  1  0
 20 21  1  0
 21 22  1  0
 22 23  1  0
 23 24  1  0
 24 25  1  0
 25 26  1  0
 26 27  1  1
 27 28  1  0
 28 29  1  0
 29 30  1  0
 30 31  1  0
 31 32  2  0
 31 33  1  0
 29 34  1  0
 34 35  2  0
  6 36  2  0
 36 37  1  0
 37 38  2  0
 19 14  2  0
 33 12  1  0
 34 26  1  0
 38  4  1  0
M  END
$$$$
