
     RDKit          3D

 38 41  0  0  0  0  0  0  0  0999 V2000
  -23.4794  -41.7574   -5.0239 C   0  0  0  0  0  0  0  0  0  0  0  0
  -22.8183  -40.7396   -4.0931 C   0  0  0  0  0  0  0  0  0  0  0  0
  -21.8866  -41.5188   -3.1959 C   0  0  0  0  0  0  0  0  0  0  0  0
  -22.0171  -39.7664   -4.8675 C   0  0  0  0  0  0  0  0  0  0  0  0
  -21.8277  -39.8703   -6.2439 C   0  0  0  0  0  0  0  0  0  0  0  0
  -21.0810  -38.9378   -6.9335 C   0  0  0  0  0  0  0  0  0  0  0  0
  -20.8714  -39.0410   -8.3971 C   0  0  0  0  0  0  0  0  0  0  0  0
  -20.0504  -37.9989   -8.9167 N   0  0  0  0  0  0  0  0  0  0  0  0
  -18.6574  -38.2689   -8.8637 C   0  0  0  0  0  0  0  0  0  0  0  0
  -17.8163  -37.5560   -9.8949 C   0  0  1  0  0  0  0  0  0  0  0  0
  -17.8903  -36.1829   -9.7596 O   0  0  0  0  0  0  0  0  0  0  0  0
  -16.4397  -38.1094  -10.0546 C   0  0  2  0  0  0  0  0  0  0  0  0
  -15.9843  -38.2546  -11.4900 C   0  0  0  0  0  0  0  0  0  0  0  0
  -14.5295  -37.9247  -11.7016 C   0  0  0  0  0  0  0  0  0  0  0  0
  -13.4160  -38.5973  -11.3015 C   0  0  0  0  0  0  0  0  0  0  0  0
  -12.1699  -38.0686  -11.6436 C   0  0  0  0  0  0  0  0  0  0  0  0
  -12.0995  -36.8766  -12.3763 C   0  0  0  0  0  0  0  0  0  0  0  0
  -13.2050  -36.1711  -12.7960 C   0  0  0  0  0  0  0  0  0  0  0  0
  -14.4031  -36.7246  -12.4411 C   0  0  0  0  0  0  0  0  0  0  0  0
  -10.9179  -38.5530  -11.3636 O   0  0  0  0  0  0  0  0  0  0  0  0
  -10.0976  -39.6157  -11.5057 C   0  0  0  0  0  0  0  0  0  0  0  0
  -10.8661  -40.8885  -11.7643 C   0  0  0  0  0  0  0  0  0  0  0  0
  -11.4729  -40.7764  -13.1528 C   0  0  0  0  0  0  0  0  0  0  0  0
  -12.6322  -41.6953  -13.3764 C   0  0  0  0  0  0  0  0  0  0  0  0
  -13.0988  -42.3131  -12.2167 O   0  0  0  0  0  0  0  0  0  0  0  0
  -14.4211  -42.0113  -12.0952 C   0  0  1  0  0  0  0  0  0  0  0  0
  -15.3548  -42.8816  -12.9148 C   0  0  0  0  0  0  0  0  0  0  0  0
  -16.6271  -43.0569  -12.0703 C   0  0  0  0  0  0  0  0  0  0  0  0
  -16.3314  -42.1616  -10.9071 N   0  0  0  0  0  0  0  0  0  0  0  0
  -17.3258  -41.3599  -10.2754 C   0  0  0  0  0  0  0  0  0  0  0  0
  -16.9117  -40.4697   -9.1815 C   0  0  0  0  0  0  0  0  0  0  0  0
  -17.2821  -40.8543   -8.0044 O   0  0  0  0  0  0  0  0  0  0  0  0
  -16.1714  -39.2707   -9.2669 N   0  0  0  0  0  0  0  0  0  0  0  0
  -14.9792  -42.3351  -10.7049 C   0  0  0  0  0  0  0  0  0  0  0  0
  -14.1346  -42.6571   -9.7936 O   0  0  0  0  0  0  0  0  0  0  0  0
  -20.5197  -37.8953   -6.2437 C   0  0  0  0  0  0  0  0  0  0  0  0
  -20.6917  -37.7642   -4.8627 C   0  0  0  0  0  0  0  0  0  0  0  0
  -21.4409  -38.7101   -4.2084 C   0  0  0  0  0  0  0  0  0  0  0  0
  1  2  1  0
  2  3  1  0
  2  4  1  0
  4  5  2  0
  5  6  1  0
  6  7  1  0
  7  8  1  0
  8  9  1  0
  9 10  1  0
 10 11  1  1
 10 12  1  0
 12 13  1  6
 13 14  1  0
 14 15  1  0
 15 16  2  0
 16 17  1  0
 17 18  2  0
 18 19  1  0
 16 20  1  0
 20 21  1  0
 21 22  1  0
 22 23  1  0
 23 24  1  0
 24 25  1  0
 25 26  1  0
 26 27  1  6
 27 28  1  0
 28 29  1  0
 29 30  1  0
 30 31  1  0
 31 32  2  0
 31 33  1  0
 29 34  1  0
 34 35  2  0
  6 36  2  0
 36 37  1  0
 37 38  2  0
 19 14  2  0
 33 12  1  0
 34 26  1  0
 38  4  1  0
M  END
$$$$
