
     RDKit          3D

 38 41  0  0  0  0  0  0  0  0999 V2000
   -9.4529  -36.6322  -11.7502 C   0  0  0  0  0  0  0  0  0  0  0  0
   -9.8723  -38.1025  -11.7894 C   0  0  0  0  0  0  0  0  0  0  0  0
   -9.5111  -38.6890  -10.4457 C   0  0  0  0  0  0  0  0  0  0  0  0
  -11.3350  -38.2240  -11.9752 C   0  0  0  0  0  0  0  0  0  0  0  0
  -12.2565  -37.5876  -11.1464 C   0  0  0  0  0  0  0  0  0  0  0  0
  -13.6135  -37.7174  -11.3565 C   0  0  0  0  0  0  0  0  0  0  0  0
  -14.6017  -37.0467  -10.4789 C   0  0  0  0  0  0  0  0  0  0  0  0
  -14.9110  -37.8011   -9.3105 N   0  0  0  0  0  0  0  0  0  0  0  0
  -16.0978  -38.5744   -9.4094 C   0  0  0  0  0  0  0  0  0  0  0  0
  -16.8553  -38.7722   -8.1187 C   0  0  1  0  0  0  0  0  0  0  0  0
  -16.8097  -37.6474   -7.3175 O   0  0  0  0  0  0  0  0  0  0  0  0
  -18.2064  -39.3833   -8.2864 C   0  0  2  0  0  0  0  0  0  0  0  0
  -18.8665  -39.8110   -6.9942 C   0  0  0  0  0  0  0  0  0  0  0  0
  -20.3530  -39.5672   -6.9621 C   0  0  0  0  0  0  0  0  0  0  0  0
  -21.3522  -40.1816   -7.6524 C   0  0  0  0  0  0  0  0  0  0  0  0
  -22.6640  -39.7618   -7.4237 C   0  0  0  0  0  0  0  0  0  0  0  0
  -22.9133  -38.7332   -6.5058 C   0  0  0  0  0  0  0  0  0  0  0  0
  -21.9269  -38.0905   -5.7918 C   0  0  0  0  0  0  0  0  0  0  0  0
  -20.6590  -38.5335   -6.0451 C   0  0  0  0  0  0  0  0  0  0  0  0
  -23.8290  -40.2182   -7.9852 O   0  0  0  0  0  0  0  0  0  0  0  0
  -24.5994  -41.3105   -8.1741 C   0  0  0  0  0  0  0  0  0  0  0  0
  -23.8081  -42.5878   -8.0333 C   0  0  0  0  0  0  0  0  0  0  0  0
  -23.4277  -42.7252   -6.5686 C   0  0  0  0  0  0  0  0  0  0  0  0
  -22.2656  -43.6378   -6.3341 C   0  0  0  0  0  0  0  0  0  0  0  0
  -21.5930  -44.0109   -7.4972 O   0  0  0  0  0  0  0  0  0  0  0  0
  -20.2870  -43.6556   -7.3472 C   0  0  1  0  0  0  0  0  0  0  0  0
  -19.4413  -44.6400   -6.5621 C   0  0  0  0  0  0  0  0  0  0  0  0
  -18.0471  -44.6168   -7.2089 C   0  0  0  0  0  0  0  0  0  0  0  0
  -18.2123  -43.5250   -8.2203 N   0  0  0  0  0  0  0  0  0  0  0  0
  -17.1805  -42.5910   -8.5261 C   0  0  0  0  0  0  0  0  0  0  0  0
  -17.4729  -41.5207   -9.4903 C   0  0  0  0  0  0  0  0  0  0  0  0
  -16.9059  -41.6642  -10.6429 O   0  0  0  0  0  0  0  0  0  0  0  0
  -18.2847  -40.3805   -9.3065 N   0  0  0  0  0  0  0  0  0  0  0  0
  -19.5058  -43.6937   -8.6654 C   0  0  0  0  0  0  0  0  0  0  0  0
  -20.1816  -43.8595   -9.7439 O   0  0  0  0  0  0  0  0  0  0  0  0
  -14.0527  -38.4881  -12.4009 C   0  0  0  0  0  0  0  0  0  0  0  0
  -13.1527  -39.1391  -13.2496 C   0  0  0  0  0  0  0  0  0  0  0  0
  -11.8094  -38.9878  -13.0114 C   0  0  0  0  0  0  0  0  0  0  0  0
  1  2  1  0
  2  3  1  0
  2  4  1  0
  4  5  2  0
  5  6  1  0
  6  7  1  0
  7  8  1  0
  8  9  1  0
  9 10  1  0
 10 11  1  6
 10 12  1  0
 12 13  1  1
 13 14  1  0
 14 15  1  0
 15 16  2  0
 16 17  1  0
 17 18  2  0
 18 19  1  0
 16 20  1  0
 20 21  1  0
 21 22  1  0
 22 23  1  0
 23 24  1  0
 24 25  1  0
 25 26  1  0
 26 27  1  1
 27 28  1  0
 28 29  1  0
 29 30  1  0
 30 31  1  0
 31 32  2  0
 31 33  1  0
 29 34  1  0
 34 35  2  0
  6 36  2  0
 36 37  1  0
 37 38  2  0
 19 14  2  0
 33 12  1  0
 34 26  1  0
 38  4  1  0
M  END
$$$$
