
     RDKit          3D

 38 41  0  0  0  0  0  0  0  0999 V2000
  -14.3746  -35.1697  -11.8059 C   0  0  0  0  0  0  0  0  0  0  0  0
  -13.2046  -35.8777  -12.4909 C   0  0  0  0  0  0  0  0  0  0  0  0
  -11.9479  -35.3853  -11.8139 C   0  0  0  0  0  0  0  0  0  0  0  0
  -13.2959  -37.3419  -12.3003 C   0  0  0  0  0  0  0  0  0  0  0  0
  -13.0224  -37.9632  -11.0837 C   0  0  0  0  0  0  0  0  0  0  0  0
  -13.1271  -39.3313  -10.9420 C   0  0  0  0  0  0  0  0  0  0  0  0
  -12.8357  -40.0019   -9.6528 C   0  0  0  0  0  0  0  0  0  0  0  0
  -13.6738  -39.5549   -8.5909 N   0  0  0  0  0  0  0  0  0  0  0  0
  -15.0478  -39.8732   -8.7550 C   0  0  0  0  0  0  0  0  0  0  0  0
  -15.9618  -39.4019   -7.6498 C   0  0  1  0  0  0  0  0  0  0  0  0
  -15.6971  -38.0958   -7.2848 O   0  0  0  0  0  0  0  0  0  0  0  0
  -17.4026  -39.7265   -7.8633 C   0  0  2  0  0  0  0  0  0  0  0  0
  -18.2780  -39.5270   -6.6457 C   0  0  0  0  0  0  0  0  0  0  0  0
  -19.6425  -38.9728   -6.9634 C   0  0  0  0  0  0  0  0  0  0  0  0
  -20.6945  -39.5574   -7.5989 C   0  0  0  0  0  0  0  0  0  0  0  0
  -21.8646  -38.8120   -7.7559 C   0  0  0  0  0  0  0  0  0  0  0  0
  -21.9234  -37.5012   -7.2651 C   0  0  0  0  0  0  0  0  0  0  0  0
  -20.8786  -36.8798   -6.6185 C   0  0  0  0  0  0  0  0  0  0  0  0
  -19.7543  -37.6454   -6.4852 C   0  0  0  0  0  0  0  0  0  0  0  0
  -23.0467  -39.1720   -8.3508 O   0  0  0  0  0  0  0  0  0  0  0  0
  -24.0557  -40.0685   -8.3284 C   0  0  0  0  0  0  0  0  0  0  0  0
  -23.6486  -41.3564   -7.6554 C   0  0  0  0  0  0  0  0  0  0  0  0
  -23.4663  -41.0565   -6.1770 C   0  0  0  0  0  0  0  0  0  0  0  0
  -22.6164  -42.0590   -5.4621 C   0  0  0  0  0  0  0  0  0  0  0  0
  -21.9538  -42.9476   -6.3081 O   0  0  0  0  0  0  0  0  0  0  0  0
  -20.6221  -42.8529   -6.0399 C   0  0  1  0  0  0  0  0  0  0  0  0
  -20.1496  -43.6619   -4.8470 C   0  0  0  0  0  0  0  0  0  0  0  0
  -18.7415  -44.1654   -5.2027 C   0  0  0  0  0  0  0  0  0  0  0  0
  -18.5103  -43.4835   -6.5155 N   0  0  0  0  0  0  0  0  0  0  0  0
  -17.2430  -42.9593   -6.9024 C   0  0  0  0  0  0  0  0  0  0  0  0
  -17.1441  -42.2532   -8.1879 C   0  0  0  0  0  0  0  0  0  0  0  0
  -16.5230  -42.9058   -9.1147 O   0  0  0  0  0  0  0  0  0  0  0  0
  -17.6396  -40.9735   -8.5192 N   0  0  0  0  0  0  0  0  0  0  0  0
  -19.7511  -43.5128   -7.1147 C   0  0  0  0  0  0  0  0  0  0  0  0
  -20.3355  -43.8921   -8.1927 O   0  0  0  0  0  0  0  0  0  0  0  0
  -13.5071  -40.0833  -12.0226 C   0  0  0  0  0  0  0  0  0  0  0  0
  -13.7880  -39.4890  -13.2562 C   0  0  0  0  0  0  0  0  0  0  0  0
  -13.6738  -38.1252  -13.3615 C   0  0  0  0  0  0  0  0  0  0  0  0
  1  2  1  0
  2  3  1  0
  2  4  1  0
  4  5  2  0
  5  6  1  0
  6  7  1  0
  7  8  1  0
  8  9  1  0
  9 10  1  0
 10 11  1  6
 10 12  1  0
 12 13  1  1
 13 14  1  0
 14 15  1  0
 15 16  2  0
 16 17  1  0
 17 18  2  0
 18 19  1  0
 16 20  1  0
 20 21  1  0
 21 22  1  0
 22 23  1  0
 23 24  1  0
 24 25  1  0
 25 26  1  0
 26 27  1  1
 27 28  1  0
 28 29  1  0
 29 30  1  0
 30 31  1  0
 31 32  2  0
 31 33  1  0
 29 34  1  0
 34 35  2  0
  6 36  2  0
 36 37  1  0
 37 38  2  0
 19 14  2  0
 33 12  1  0
 34 26  1  0
 38  4  1  0
M  END
$$$$
