
     RDKit          3D

 38 41  0  0  0  0  0  0  0  0999 V2000
  -23.3746  -42.0454   -5.0405 C   0  0  0  0  0  0  0  0  0  0  0  0
  -23.5378  -41.1287   -6.2539 C   0  0  0  0  0  0  0  0  0  0  0  0
  -24.7331  -40.2502   -5.9718 C   0  0  0  0  0  0  0  0  0  0  0  0
  -22.3493  -40.2631   -6.4185 C   0  0  0  0  0  0  0  0  0  0  0  0
  -21.3421  -40.5318   -7.3428 C   0  0  0  0  0  0  0  0  0  0  0  0
  -20.2526  -39.6961   -7.4738 C   0  0  0  0  0  0  0  0  0  0  0  0
  -19.1747  -39.9747   -8.4521 C   0  0  0  0  0  0  0  0  0  0  0  0
  -17.9351  -40.3087   -7.8344 N   0  0  0  0  0  0  0  0  0  0  0  0
  -17.1202  -39.1909   -7.5138 C   0  0  0  0  0  0  0  0  0  0  0  0
  -17.0295  -38.1245   -8.5785 C   0  0  1  0  0  0  0  0  0  0  0  0
  -17.4416  -36.8921   -8.1090 O   0  0  0  0  0  0  0  0  0  0  0  0
  -15.7453  -38.1224   -9.3386 C   0  0  2  0  0  0  0  0  0  0  0  0
  -15.9051  -38.2001  -10.8409 C   0  0  0  0  0  0  0  0  0  0  0  0
  -14.9129  -37.3589  -11.6013 C   0  0  0  0  0  0  0  0  0  0  0  0
  -13.5704  -37.5209  -11.7559 C   0  0  0  0  0  0  0  0  0  0  0  0
  -12.8804  -36.5870  -12.5312 C   0  0  0  0  0  0  0  0  0  0  0  0
  -13.5768  -35.5226  -13.1183 C   0  0  0  0  0  0  0  0  0  0  0  0
  -14.9332  -35.3289  -12.9818 C   0  0  0  0  0  0  0  0  0  0  0  0
  -15.5689  -36.2663  -12.2169 C   0  0  0  0  0  0  0  0  0  0  0  0
  -11.5442  -36.5327  -12.8350 O   0  0  0  0  0  0  0  0  0  0  0  0
  -10.5201  -37.2102  -13.3959 C   0  0  0  0  0  0  0  0  0  0  0  0
  -10.7799  -38.6964  -13.4285 C   0  0  0  0  0  0  0  0  0  0  0  0
  -11.8977  -38.9384  -14.4289 C   0  0  0  0  0  0  0  0  0  0  0  0
  -12.6012  -40.2449  -14.2374 C   0  0  0  0  0  0  0  0  0  0  0  0
  -12.2747  -40.8965  -13.0487 O   0  0  0  0  0  0  0  0  0  0  0  0
  -13.4342  -41.1129  -12.3682 C   0  0  1  0  0  0  0  0  0  0  0  0
  -14.2150  -42.3374  -12.8059 C   0  0  0  0  0  0  0  0  0  0  0  0
  -14.8537  -42.9148  -11.5324 C   0  0  0  0  0  0  0  0  0  0  0  0
  -14.4690  -41.8822  -10.5186 N   0  0  0  0  0  0  0  0  0  0  0  0
  -15.3362  -41.4714   -9.4653 C   0  0  0  0  0  0  0  0  0  0  0  0
  -14.8800  -40.4040   -8.5634 C   0  0  0  0  0  0  0  0  0  0  0  0
  -14.5552  -40.8029   -7.3776 O   0  0  0  0  0  0  0  0  0  0  0  0
  -14.7574  -39.0248   -8.8379 N   0  0  0  0  0  0  0  0  0  0  0  0
  -13.1999  -41.5098  -10.9064 C   0  0  0  0  0  0  0  0  0  0  0  0
  -12.0024  -41.4096  -10.4554 O   0  0  0  0  0  0  0  0  0  0  0  0
  -20.1687  -38.5852   -6.6759 C   0  0  0  0  0  0  0  0  0  0  0  0
  -21.1631  -38.2890   -5.7393 C   0  0  0  0  0  0  0  0  0  0  0  0
  -22.2333  -39.1423   -5.6359 C   0  0  0  0  0  0  0  0  0  0  0  0
  1  2  1  0
  2  3  1  0
  2  4  1  0
  4  5  2  0
  5  6  1  0
  6  7  1  0
  7  8  1  0
  8  9  1  0
  9 10  1  0
 10 11  1  1
 10 12  1  0
 12 13  1  6
 13 14  1  0
 14 15  1  0
 15 16  2  0
 16 17  1  0
 17 18  2  0
 18 19  1  0
 16 20  1  0
 20 21  1  0
 21 22  1  0
 22 23  1  0
 23 24  1  0
 24 25  1  0
 25 26  1  0
 26 27  1  6
 27 28  1  0
 28 29  1  0
 29 30  1  0
 30 31  1  0
 31 32  2  0
 31 33  1  0
 29 34  1  0
 34 35  2  0
  6 36  2  0
 36 37  1  0
 37 38  2  0
 19 14  2  0
 33 12  1  0
 34 26  1  0
 38  4  1  0
M  END
$$$$
