
     RDKit          3D

 38 41  0  0  0  0  0  0  0  0999 V2000
  -16.8697  -34.7453  -12.0204 C   0  0  0  0  0  0  0  0  0  0  0  0
  -15.4661  -35.2229  -12.3961 C   0  0  0  0  0  0  0  0  0  0  0  0
  -14.5010  -34.2076  -11.8326 C   0  0  0  0  0  0  0  0  0  0  0  0
  -15.1780  -36.5359  -11.7781 C   0  0  0  0  0  0  0  0  0  0  0  0
  -14.7572  -36.6722  -10.4570 C   0  0  0  0  0  0  0  0  0  0  0  0
  -14.5067  -37.9146   -9.9128 C   0  0  0  0  0  0  0  0  0  0  0  0
  -14.0561  -38.0699   -8.5094 C   0  0  0  0  0  0  0  0  0  0  0  0
  -15.0775  -37.7748   -7.5609 N   0  0  0  0  0  0  0  0  0  0  0  0
  -15.5797  -38.9083   -6.8687 C   0  0  0  0  0  0  0  0  0  0  0  0
  -15.8497  -40.1247   -7.7210 C   0  0  1  0  0  0  0  0  0  0  0  0
  -15.2297  -41.2529   -7.2190 O   0  0  0  0  0  0  0  0  0  0  0  0
  -17.2807  -40.2998   -8.1066 C   0  0  2  0  0  0  0  0  0  0  0  0
  -18.2027  -40.6433   -6.9575 C   0  0  0  0  0  0  0  0  0  0  0  0
  -19.5550  -39.9847   -7.0466 C   0  0  0  0  0  0  0  0  0  0  0  0
  -20.5806  -40.2133   -7.9115 C   0  0  0  0  0  0  0  0  0  0  0  0
  -21.7450  -39.4570   -7.7654 C   0  0  0  0  0  0  0  0  0  0  0  0
  -21.8249  -38.4955   -6.7496 C   0  0  0  0  0  0  0  0  0  0  0  0
  -20.8069  -38.2386   -5.8588 C   0  0  0  0  0  0  0  0  0  0  0  0
  -19.6873  -39.0019   -6.0368 C   0  0  0  0  0  0  0  0  0  0  0  0
  -22.9027  -39.4998   -8.4995 O   0  0  0  0  0  0  0  0  0  0  0  0
  -23.9102  -40.2988   -8.9101 C   0  0  0  0  0  0  0  0  0  0  0  0
  -23.5272  -41.7577   -8.8595 C   0  0  0  0  0  0  0  0  0  0  0  0
  -23.4027  -42.1423   -7.3948 C   0  0  0  0  0  0  0  0  0  0  0  0
  -22.5793  -43.3702   -7.1652 C   0  0  0  0  0  0  0  0  0  0  0  0
  -21.8830  -43.8056   -8.2921 O   0  0  0  0  0  0  0  0  0  0  0  0
  -20.5628  -43.8593   -7.9626 C   0  0  1  0  0  0  0  0  0  0  0  0
  -20.1355  -45.1182   -7.2323 C   0  0  0  0  0  0  0  0  0  0  0  0
  -18.7138  -45.4354   -7.7233 C   0  0  0  0  0  0  0  0  0  0  0  0
  -18.4332  -44.2487   -8.5923 N   0  0  0  0  0  0  0  0  0  0  0  0
  -17.1528  -43.6274   -8.6634 C   0  0  0  0  0  0  0  0  0  0  0  0
  -17.0055  -42.4290   -9.5019 C   0  0  0  0  0  0  0  0  0  0  0  0
  -16.3480  -42.6164  -10.5988 O   0  0  0  0  0  0  0  0  0  0  0  0
  -17.4900  -41.1267   -9.2527 N   0  0  0  0  0  0  0  0  0  0  0  0
  -19.6499  -43.9920   -9.1866 C   0  0  0  0  0  0  0  0  0  0  0  0
  -20.1916  -43.8487  -10.3414 O   0  0  0  0  0  0  0  0  0  0  0  0
  -14.6771  -39.0278  -10.6935 C   0  0  0  0  0  0  0  0  0  0  0  0
  -15.0980  -38.9232  -12.0223 C   0  0  0  0  0  0  0  0  0  0  0  0
  -15.3384  -37.6713  -12.5313 C   0  0  0  0  0  0  0  0  0  0  0  0
  1  2  1  0
  2  3  1  0
  2  4  1  0
  4  5  2  0
  5  6  1  0
  6  7  1  0
  7  8  1  0
  8  9  1  0
  9 10  1  0
 10 11  1  1
 10 12  1  0
 12 13  1  1
 13 14  1  0
 14 15  1  0
 15 16  2  0
 16 17  1  0
 17 18  2  0
 18 19  1  0
 16 20  1  0
 20 21  1  0
 21 22  1  0
 22 23  1  0
 23 24  1  0
 24 25  1  0
 25 26  1  0
 26 27  1  1
 27 28  1  0
 28 29  1  0
 29 30  1  0
 30 31  1  0
 31 32  2  0
 31 33  1  0
 29 34  1  0
 34 35  2  0
  6 36  2  0
 36 37  1  0
 37 38  2  0
 19 14  2  0
 33 12  1  0
 34 26  1  0
 38  4  1  0
M  END
$$$$
