
     RDKit          3D

 38 41  0  0  0  0  0  0  0  0999 V2000
  -21.1162  -36.4773   -9.4433 C   0  0  0  0  0  0  0  0  0  0  0  0
  -22.0847  -37.6610   -9.4522 C   0  0  0  0  0  0  0  0  0  0  0  0
  -21.7074  -38.5168  -10.6377 C   0  0  0  0  0  0  0  0  0  0  0  0
  -21.9321  -38.4703   -8.2232 C   0  0  0  0  0  0  0  0  0  0  0  0
  -20.7734  -39.1862   -7.9299 C   0  0  0  0  0  0  0  0  0  0  0  0
  -20.6648  -39.9229   -6.7688 C   0  0  0  0  0  0  0  0  0  0  0  0
  -19.4375  -40.6899   -6.4491 C   0  0  0  0  0  0  0  0  0  0  0  0
  -18.3819  -40.4641   -7.3789 N   0  0  0  0  0  0  0  0  0  0  0  0
  -17.2870  -39.7274   -6.8549 C   0  0  0  0  0  0  0  0  0  0  0  0
  -16.8265  -38.5600   -7.6940 C   0  0  1  0  0  0  0  0  0  0  0  0
  -16.7516  -37.3939   -6.9566 O   0  0  0  0  0  0  0  0  0  0  0  0
  -15.6414  -38.8502   -8.5533 C   0  0  2  0  0  0  0  0  0  0  0  0
  -15.8117  -38.4679  -10.0070 C   0  0  0  0  0  0  0  0  0  0  0  0
  -14.5649  -37.9024  -10.6361 C   0  0  0  0  0  0  0  0  0  0  0  0
  -13.3938  -38.5177  -10.9560 C   0  0  0  0  0  0  0  0  0  0  0  0
  -12.3882  -37.7508  -11.5475 C   0  0  0  0  0  0  0  0  0  0  0  0
  -12.6065  -36.3884  -11.7900 C   0  0  0  0  0  0  0  0  0  0  0  0
  -13.7778  -35.7349  -11.4787 C   0  0  0  0  0  0  0  0  0  0  0  0
  -14.7348  -36.5230  -10.9033 C   0  0  0  0  0  0  0  0  0  0  0  0
  -11.1370  -38.1332  -11.9587 O   0  0  0  0  0  0  0  0  0  0  0  0
  -10.4595  -38.9789  -12.7638 C   0  0  0  0  0  0  0  0  0  0  0  0
  -11.2833  -40.1900  -13.1275 C   0  0  0  0  0  0  0  0  0  0  0  0
  -12.4013  -39.7186  -14.0422 C   0  0  0  0  0  0  0  0  0  0  0  0
  -13.5631  -40.6593  -14.1028 C   0  0  0  0  0  0  0  0  0  0  0  0
  -13.5252  -41.6707  -13.1438 O   0  0  0  0  0  0  0  0  0  0  0  0
  -14.6795  -41.5975  -12.4251 C   0  0  1  0  0  0  0  0  0  0  0  0
  -15.8771  -42.2725  -13.0659 C   0  0  0  0  0  0  0  0  0  0  0  0
  -16.6977  -42.8721  -11.9126 C   0  0  0  0  0  0  0  0  0  0  0  0
  -15.9425  -42.3660  -10.7228 N   0  0  0  0  0  0  0  0  0  0  0  0
  -16.5830  -41.9446   -9.5217 C   0  0  0  0  0  0  0  0  0  0  0  0
  -15.7478  -41.4059   -8.4386 C   0  0  0  0  0  0  0  0  0  0  0  0
  -15.6120  -42.1917   -7.4214 O   0  0  0  0  0  0  0  0  0  0  0  0
  -15.0908  -40.1576   -8.3838 N   0  0  0  0  0  0  0  0  0  0  0  0
  -14.6274  -42.4187  -11.1319 C   0  0  0  0  0  0  0  0  0  0  0  0
  -13.4893  -42.9035  -10.7897 O   0  0  0  0  0  0  0  0  0  0  0  0
  -21.7205  -39.9448   -5.8955 C   0  0  0  0  0  0  0  0  0  0  0  0
  -22.8961  -39.2371   -6.1620 C   0  0  0  0  0  0  0  0  0  0  0  0
  -22.9697  -38.5144   -7.3267 C   0  0  0  0  0  0  0  0  0  0  0  0
  1  2  1  0
  2  3  1  0
  2  4  1  0
  4  5  2  0
  5  6  1  0
  6  7  1  0
  7  8  1  0
  8  9  1  0
  9 10  1  0
 10 11  1  1
 10 12  1  0
 12 13  1  6
 13 14  1  0
 14 15  1  0
 15 16  2  0
 16 17  1  0
 17 18  2  0
 18 19  1  0
 16 20  1  0
 20 21  1  0
 21 22  1  0
 22 23  1  0
 23 24  1  0
 24 25  1  0
 25 26  1  0
 26 27  1  6
 27 28  1  0
 28 29  1  0
 29 30  1  0
 30 31  1  0
 31 32  2  0
 31 33  1  0
 29 34  1  0
 34 35  2  0
  6 36  2  0
 36 37  1  0
 37 38  2  0
 19 14  2  0
 33 12  1  0
 34 26  1  0
 38  4  1  0
M  END
$$$$
