
     RDKit          3D

 38 41  0  0  0  0  0  0  0  0999 V2000
  -14.6411  -36.2283  -14.1940 C   0  0  0  0  0  0  0  0  0  0  0  0
  -14.5013  -35.4398  -12.8909 C   0  0  0  0  0  0  0  0  0  0  0  0
  -15.8906  -35.3140  -12.3129 C   0  0  0  0  0  0  0  0  0  0  0  0
  -13.6567  -36.1745  -11.9235 C   0  0  0  0  0  0  0  0  0  0  0  0
  -13.9397  -37.4743  -11.5094 C   0  0  0  0  0  0  0  0  0  0  0  0
  -13.1232  -38.1307  -10.6120 C   0  0  0  0  0  0  0  0  0  0  0  0
  -13.4171  -39.5122  -10.1632 C   0  0  0  0  0  0  0  0  0  0  0  0
  -14.0824  -39.5589   -8.9042 N   0  0  0  0  0  0  0  0  0  0  0  0
  -15.4892  -39.3802   -8.9779 C   0  0  0  0  0  0  0  0  0  0  0  0
  -16.2168  -39.3899   -7.6552 C   0  0  1  0  0  0  0  0  0  0  0  0
  -15.9674  -38.2455   -6.9222 O   0  0  0  0  0  0  0  0  0  0  0  0
  -17.6513  -39.7912   -7.7457 C   0  0  2  0  0  0  0  0  0  0  0  0
  -18.2868  -40.1518   -6.4211 C   0  0  0  0  0  0  0  0  0  0  0  0
  -19.7159  -39.6932   -6.2887 C   0  0  0  0  0  0  0  0  0  0  0  0
  -20.8357  -40.1355   -6.9234 C   0  0  0  0  0  0  0  0  0  0  0  0
  -22.0542  -39.5339   -6.6029 C   0  0  0  0  0  0  0  0  0  0  0  0
  -22.0913  -38.5048   -5.6531 C   0  0  0  0  0  0  0  0  0  0  0  0
  -20.9785  -38.0333   -4.9933 C   0  0  0  0  0  0  0  0  0  0  0  0
  -19.8083  -38.6508   -5.3359 C   0  0  0  0  0  0  0  0  0  0  0  0
  -23.3062  -39.7990   -7.0957 O   0  0  0  0  0  0  0  0  0  0  0  0
  -24.2402  -40.7608   -7.2534 C   0  0  0  0  0  0  0  0  0  0  0  0
  -23.6399  -42.1438   -7.1864 C   0  0  0  0  0  0  0  0  0  0  0  0
  -23.1948  -42.3748   -5.7520 C   0  0  0  0  0  0  0  0  0  0  0  0
  -22.1687  -43.4542   -5.6092 C   0  0  0  0  0  0  0  0  0  0  0  0
  -21.6317  -43.8906   -6.8197 O   0  0  0  0  0  0  0  0  0  0  0  0
  -20.2807  -43.7352   -6.7484 C   0  0  1  0  0  0  0  0  0  0  0  0
  -19.5437  -44.8538   -6.0369 C   0  0  0  0  0  0  0  0  0  0  0  0
  -18.2038  -45.0183   -6.7722 C   0  0  0  0  0  0  0  0  0  0  0  0
  -18.2672  -43.8873   -7.7515 N   0  0  0  0  0  0  0  0  0  0  0  0
  -17.1291  -43.1072   -8.1072 C   0  0  0  0  0  0  0  0  0  0  0  0
  -17.3183  -41.9801   -9.0317 C   0  0  0  0  0  0  0  0  0  0  0  0
  -16.8507  -42.1744  -10.2209 O   0  0  0  0  0  0  0  0  0  0  0  0
  -17.9391  -40.7383   -8.7758 N   0  0  0  0  0  0  0  0  0  0  0  0
  -19.5963  -43.8523   -8.1149 C   0  0  0  0  0  0  0  0  0  0  0  0
  -20.3542  -43.8881   -9.1501 O   0  0  0  0  0  0  0  0  0  0  0  0
  -12.0174  -37.4842  -10.1251 C   0  0  0  0  0  0  0  0  0  0  0  0
  -11.7073  -36.1802  -10.5216 C   0  0  0  0  0  0  0  0  0  0  0  0
  -12.5415  -35.5572  -11.4161 C   0  0  0  0  0  0  0  0  0  0  0  0
  1  2  1  0
  2  3  1  0
  2  4  1  0
  4  5  2  0
  5  6  1  0
  6  7  1  0
  7  8  1  0
  8  9  1  0
  9 10  1  0
 10 11  1  6
 10 12  1  0
 12 13  1  1
 13 14  1  0
 14 15  1  0
 15 16  2  0
 16 17  1  0
 17 18  2  0
 18 19  1  0
 16 20  1  0
 20 21  1  0
 21 22  1  0
 22 23  1  0
 23 24  1  0
 24 25  1  0
 25 26  1  0
 26 27  1  1
 27 28  1  0
 28 29  1  0
 29 30  1  0
 30 31  1  0
 31 32  2  0
 31 33  1  0
 29 34  1  0
 34 35  2  0
  6 36  2  0
 36 37  1  0
 37 38  2  0
 19 14  2  0
 33 12  1  0
 34 26  1  0
 38  4  1  0
M  END
$$$$
