
     RDKit          3D

 38 41  0  0  0  0  0  0  0  0999 V2000
  -14.4053  -36.5014  -15.0261 C   0  0  0  0  0  0  0  0  0  0  0  0
  -14.1595  -37.7654  -14.2008 C   0  0  0  0  0  0  0  0  0  0  0  0
  -13.0863  -38.5470  -14.9202 C   0  0  0  0  0  0  0  0  0  0  0  0
  -13.6615  -37.4198  -12.8512 C   0  0  0  0  0  0  0  0  0  0  0  0
  -13.5131  -38.3633  -11.8370 C   0  0  0  0  0  0  0  0  0  0  0  0
  -13.0370  -38.0046  -10.5931 C   0  0  0  0  0  0  0  0  0  0  0  0
  -12.8781  -39.0002   -9.5068 C   0  0  0  0  0  0  0  0  0  0  0  0
  -14.0862  -39.6928   -9.2054 N   0  0  0  0  0  0  0  0  0  0  0  0
  -15.2327  -38.8598   -9.1168 C   0  0  0  0  0  0  0  0  0  0  0  0
  -16.0760  -39.0425   -7.8780 C   0  0  1  0  0  0  0  0  0  0  0  0
  -15.9182  -37.9966   -6.9891 O   0  0  0  0  0  0  0  0  0  0  0  0
  -17.4875  -39.4438   -8.1490 C   0  0  2  0  0  0  0  0  0  0  0  0
  -18.3746  -39.4845   -6.9242 C   0  0  0  0  0  0  0  0  0  0  0  0
  -19.7783  -38.9978   -7.1749 C   0  0  0  0  0  0  0  0  0  0  0  0
  -20.7824  -39.5668   -7.8962 C   0  0  0  0  0  0  0  0  0  0  0  0
  -22.0069  -38.8989   -7.9592 C   0  0  0  0  0  0  0  0  0  0  0  0
  -22.1665  -37.6782   -7.2908 C   0  0  0  0  0  0  0  0  0  0  0  0
  -21.1724  -37.0749   -6.5534 C   0  0  0  0  0  0  0  0  0  0  0  0
  -19.9920  -37.7629   -6.5173 C   0  0  0  0  0  0  0  0  0  0  0  0
  -23.1581  -39.2618   -8.6102 O   0  0  0  0  0  0  0  0  0  0  0  0
  -24.0946  -40.2275   -8.7231 C   0  0  0  0  0  0  0  0  0  0  0  0
  -23.5882  -41.5619   -8.2326 C   0  0  0  0  0  0  0  0  0  0  0  0
  -23.4284  -41.4587   -6.7251 C   0  0  0  0  0  0  0  0  0  0  0  0
  -22.5026  -42.4831   -6.1488 C   0  0  0  0  0  0  0  0  0  0  0  0
  -21.7740  -43.1909   -7.1039 O   0  0  0  0  0  0  0  0  0  0  0  0
  -20.4534  -43.0326   -6.8119 C   0  0  1  0  0  0  0  0  0  0  0  0
  -19.9185  -43.9619   -5.7391 C   0  0  0  0  0  0  0  0  0  0  0  0
  -18.4760  -44.3010   -6.1476 C   0  0  0  0  0  0  0  0  0  0  0  0
  -18.2995  -43.4263   -7.3500 N   0  0  0  0  0  0  0  0  0  0  0  0
  -17.0770  -42.7573   -7.6474 C   0  0  0  0  0  0  0  0  0  0  0  0
  -17.0344  -41.8727   -8.8206 C   0  0  0  0  0  0  0  0  0  0  0  0
  -16.3654  -42.3396   -9.8232 O   0  0  0  0  0  0  0  0  0  0  0  0
  -17.6278  -40.6012   -8.9749 N   0  0  0  0  0  0  0  0  0  0  0  0
  -19.5349  -43.4668   -7.9597 C   0  0  0  0  0  0  0  0  0  0  0  0
  -20.0892  -43.7353   -9.0858 O   0  0  0  0  0  0  0  0  0  0  0  0
  -12.7075  -36.6949  -10.3610 C   0  0  0  0  0  0  0  0  0  0  0  0
  -12.8455  -35.7253  -11.3584 C   0  0  0  0  0  0  0  0  0  0  0  0
  -13.3221  -36.1175  -12.5845 C   0  0  0  0  0  0  0  0  0  0  0  0
  1  2  1  0
  2  3  1  0
  2  4  1  0
  4  5  2  0
  5  6  1  0
  6  7  1  0
  7  8  1  0
  8  9  1  0
  9 10  1  0
 10 11  1  6
 10 12  1  0
 12 13  1  1
 13 14  1  0
 14 15  1  0
 15 16  2  0
 16 17  1  0
 17 18  2  0
 18 19  1  0
 16 20  1  0
 20 21  1  0
 21 22  1  0
 22 23  1  0
 23 24  1  0
 24 25  1  0
 25 26  1  0
 26 27  1  1
 27 28  1  0
 28 29  1  0
 29 30  1  0
 30 31  1  0
 31 32  2  0
 31 33  1  0
 29 34  1  0
 34 35  2  0
  6 36  2  0
 36 37  1  0
 37 38  2  0
 19 14  2  0
 33 12  1  0
 34 26  1  0
 38  4  1  0
M  END
$$$$
