
     RDKit          3D

 38 41  0  0  0  0  0  0  0  0999 V2000
  -12.3133  -34.7625  -11.8264 C   0  0  0  0  0  0  0  0  0  0  0  0
  -13.7153  -35.2092  -12.2438 C   0  0  0  0  0  0  0  0  0  0  0  0
  -13.9735  -34.6026  -13.6023 C   0  0  0  0  0  0  0  0  0  0  0  0
  -13.7788  -36.6820  -12.3691 C   0  0  0  0  0  0  0  0  0  0  0  0
  -13.6731  -37.5379  -11.2749 C   0  0  0  0  0  0  0  0  0  0  0  0
  -13.7460  -38.9065  -11.4302 C   0  0  0  0  0  0  0  0  0  0  0  0
  -13.6319  -39.8254  -10.2729 C   0  0  0  0  0  0  0  0  0  0  0  0
  -14.3206  -39.3543   -9.1181 N   0  0  0  0  0  0  0  0  0  0  0  0
  -15.7072  -39.1221   -9.3168 C   0  0  0  0  0  0  0  0  0  0  0  0
  -16.5635  -39.1921   -8.0755 C   0  0  1  0  0  0  0  0  0  0  0  0
  -16.4960  -38.0261   -7.3372 O   0  0  0  0  0  0  0  0  0  0  0  0
  -17.9386  -39.7238   -8.3065 C   0  0  2  0  0  0  0  0  0  0  0  0
  -18.7386  -39.9642   -7.0452 C   0  0  0  0  0  0  0  0  0  0  0  0
  -20.1988  -39.6173   -7.1772 C   0  0  0  0  0  0  0  0  0  0  0  0
  -21.1798  -40.2325   -7.8925 C   0  0  0  0  0  0  0  0  0  0  0  0
  -22.4697  -39.7019   -7.8311 C   0  0  0  0  0  0  0  0  0  0  0  0
  -22.7162  -38.5660   -7.0490 C   0  0  0  0  0  0  0  0  0  0  0  0
  -21.7479  -37.9193   -6.3142 C   0  0  0  0  0  0  0  0  0  0  0  0
  -20.5012  -38.4726   -6.4017 C   0  0  0  0  0  0  0  0  0  0  0  0
  -23.6141  -40.1352   -8.4504 O   0  0  0  0  0  0  0  0  0  0  0  0
  -24.4480  -41.1862   -8.5995 C   0  0  0  0  0  0  0  0  0  0  0  0
  -23.7735  -42.4921   -8.2572 C   0  0  0  0  0  0  0  0  0  0  0  0
  -23.5322  -42.4971   -6.7570 C   0  0  0  0  0  0  0  0  0  0  0  0
  -22.4691  -43.4566   -6.3239 C   0  0  0  0  0  0  0  0  0  0  0  0
  -21.7301  -43.9975   -7.3754 O   0  0  0  0  0  0  0  0  0  0  0  0
  -20.4182  -43.7183   -7.1405 C   0  0  1  0  0  0  0  0  0  0  0  0
  -19.7222  -44.6681   -6.1844 C   0  0  0  0  0  0  0  0  0  0  0  0
  -18.2799  -44.8099   -6.6969 C   0  0  0  0  0  0  0  0  0  0  0  0
  -18.2723  -43.8243   -7.8241 N   0  0  0  0  0  0  0  0  0  0  0  0
  -17.1485  -43.0013   -8.1246 C   0  0  0  0  0  0  0  0  0  0  0  0
  -17.2728  -42.0233   -9.2149 C   0  0  0  0  0  0  0  0  0  0  0  0
  -16.6216  -42.3282  -10.2890 O   0  0  0  0  0  0  0  0  0  0  0  0
  -18.0062  -40.8171   -9.2237 N   0  0  0  0  0  0  0  0  0  0  0  0
  -19.5318  -43.9510   -8.3691 C   0  0  0  0  0  0  0  0  0  0  0  0
  -20.1233  -44.1851   -9.4839 O   0  0  0  0  0  0  0  0  0  0  0  0
  -13.9252  -39.4233  -12.6865 C   0  0  0  0  0  0  0  0  0  0  0  0
  -14.0346  -38.5904  -13.8038 C   0  0  0  0  0  0  0  0  0  0  0  0
  -13.9578  -37.2333  -13.6126 C   0  0  0  0  0  0  0  0  0  0  0  0
  1  2  1  0
  2  3  1  0
  2  4  1  0
  4  5  2  0
  5  6  1  0
  6  7  1  0
  7  8  1  0
  8  9  1  0
  9 10  1  0
 10 11  1  6
 10 12  1  0
 12 13  1  1
 13 14  1  0
 14 15  1  0
 15 16  2  0
 16 17  1  0
 17 18  2  0
 18 19  1  0
 16 20  1  0
 20 21  1  0
 21 22  1  0
 22 23  1  0
 23 24  1  0
 24 25  1  0
 25 26  1  0
 26 27  1  1
 27 28  1  0
 28 29  1  0
 29 30  1  0
 30 31  1  0
 31 32  2  0
 31 33  1  0
 29 34  1  0
 34 35  2  0
  6 36  2  0
 36 37  1  0
 37 38  2  0
 19 14  2  0
 33 12  1  0
 34 26  1  0
 38  4  1  0
M  END
$$$$
