
     RDKit          3D

 38 41  0  0  0  0  0  0  0  0999 V2000
  -23.5609  -40.9798   -3.9559 C   0  0  0  0  0  0  0  0  0  0  0  0
  -22.1742  -40.4300   -4.2938 C   0  0  0  0  0  0  0  0  0  0  0  0
  -21.1836  -41.5124   -3.9372 C   0  0  0  0  0  0  0  0  0  0  0  0
  -22.0614  -40.1510   -5.7423 C   0  0  0  0  0  0  0  0  0  0  0  0
  -21.1335  -39.2547   -6.2682 C   0  0  0  0  0  0  0  0  0  0  0  0
  -21.0520  -39.0271   -7.6263 C   0  0  0  0  0  0  0  0  0  0  0  0
  -20.0703  -38.0737   -8.1952 C   0  0  0  0  0  0  0  0  0  0  0  0
  -18.9515  -37.8510   -7.3417 N   0  0  0  0  0  0  0  0  0  0  0  0
  -17.9219  -38.8218   -7.4598 C   0  0  0  0  0  0  0  0  0  0  0  0
  -16.5139  -38.2994   -7.3066 C   0  0  1  0  0  0  0  0  0  0  0  0
  -16.0735  -38.3823   -5.9996 O   0  0  0  0  0  0  0  0  0  0  0  0
  -15.5571  -38.8000   -8.3366 C   0  0  2  0  0  0  0  0  0  0  0  0
  -16.0004  -38.5775   -9.7658 C   0  0  0  0  0  0  0  0  0  0  0  0
  -14.8764  -38.2110  -10.6999 C   0  0  0  0  0  0  0  0  0  0  0  0
  -13.8430  -38.9680  -11.1595 C   0  0  0  0  0  0  0  0  0  0  0  0
  -12.9327  -38.3751  -12.0365 C   0  0  0  0  0  0  0  0  0  0  0  0
  -13.1028  -37.0363  -12.4125 C   0  0  0  0  0  0  0  0  0  0  0  0
  -14.1356  -36.2426  -11.9663 C   0  0  0  0  0  0  0  0  0  0  0  0
  -15.0033  -36.8629  -11.1117 C   0  0  0  0  0  0  0  0  0  0  0  0
  -11.8242  -38.9202  -12.6322 O   0  0  0  0  0  0  0  0  0  0  0  0
  -11.3894  -39.9154  -13.4340 C   0  0  0  0  0  0  0  0  0  0  0  0
  -12.3521  -41.0773  -13.4604 C   0  0  0  0  0  0  0  0  0  0  0  0
  -13.6013  -40.6133  -14.1904 C   0  0  0  0  0  0  0  0  0  0  0  0
  -14.8120  -41.4401  -13.8921 C   0  0  0  0  0  0  0  0  0  0  0  0
  -14.6443  -42.3304  -12.8321 O   0  0  0  0  0  0  0  0  0  0  0  0
  -15.6153  -42.0637  -11.9155 C   0  0  1  0  0  0  0  0  0  0  0  0
  -16.9638  -42.6930  -12.2092 C   0  0  0  0  0  0  0  0  0  0  0  0
  -17.5648  -43.0717  -10.8460 C   0  0  0  0  0  0  0  0  0  0  0  0
  -16.5449  -42.5028   -9.9088 N   0  0  0  0  0  0  0  0  0  0  0  0
  -16.8903  -41.8837   -8.6727 C   0  0  0  0  0  0  0  0  0  0  0  0
  -15.8124  -41.3026   -7.8594 C   0  0  0  0  0  0  0  0  0  0  0  0
  -15.5216  -41.9722   -6.7928 O   0  0  0  0  0  0  0  0  0  0  0  0
  -15.0743  -40.1245   -8.1048 N   0  0  0  0  0  0  0  0  0  0  0  0
  -15.3510  -42.7278  -10.5596 C   0  0  0  0  0  0  0  0  0  0  0  0
  -14.2026  -43.2746  -10.3875 O   0  0  0  0  0  0  0  0  0  0  0  0
  -21.9032  -39.6990   -8.4640 C   0  0  0  0  0  0  0  0  0  0  0  0
  -22.8449  -40.6043   -7.9663 C   0  0  0  0  0  0  0  0  0  0  0  0
  -22.8981  -40.8065   -6.6097 C   0  0  0  0  0  0  0  0  0  0  0  0
  1  2  1  0
  2  3  1  0
  2  4  1  0
  4  5  2  0
  5  6  1  0
  6  7  1  0
  7  8  1  0
  8  9  1  0
  9 10  1  0
 10 11  1  1
 10 12  1  0
 12 13  1  6
 13 14  1  0
 14 15  1  0
 15 16  2  0
 16 17  1  0
 17 18  2  0
 18 19  1  0
 16 20  1  0
 20 21  1  0
 21 22  1  0
 22 23  1  0
 23 24  1  0
 24 25  1  0
 25 26  1  0
 26 27  1  6
 27 28  1  0
 28 29  1  0
 29 30  1  0
 30 31  1  0
 31 32  2  0
 31 33  1  0
 29 34  1  0
 34 35  2  0
  6 36  2  0
 36 37  1  0
 37 38  2  0
 19 14  2  0
 33 12  1  0
 34 26  1  0
 38  4  1  0
M  END
$$$$
