
     RDKit          3D

 38 41  0  0  0  0  0  0  0  0999 V2000
  -16.1702  -35.0156   -9.3250 C   0  0  0  0  0  0  0  0  0  0  0  0
  -16.3322  -35.4736  -10.7753 C   0  0  0  0  0  0  0  0  0  0  0  0
  -15.9269  -34.3061  -11.6429 C   0  0  0  0  0  0  0  0  0  0  0  0
  -15.4309  -36.6096  -11.0683 C   0  0  0  0  0  0  0  0  0  0  0  0
  -14.6907  -37.2595  -10.0830 C   0  0  0  0  0  0  0  0  0  0  0  0
  -13.8672  -38.3216  -10.3936 C   0  0  0  0  0  0  0  0  0  0  0  0
  -13.0737  -39.0177   -9.3531 C   0  0  0  0  0  0  0  0  0  0  0  0
  -13.8786  -39.5663   -8.3134 N   0  0  0  0  0  0  0  0  0  0  0  0
  -15.2168  -39.8488   -8.6953 C   0  0  0  0  0  0  0  0  0  0  0  0
  -16.2598  -39.6240   -7.6274 C   0  0  1  0  0  0  0  0  0  0  0  0
  -16.1006  -38.4026   -7.0014 O   0  0  0  0  0  0  0  0  0  0  0  0
  -17.6534  -39.9482   -8.0514 C   0  0  2  0  0  0  0  0  0  0  0  0
  -18.6162  -40.1909   -6.9101 C   0  0  0  0  0  0  0  0  0  0  0  0
  -19.9989  -39.6450   -7.1558 C   0  0  0  0  0  0  0  0  0  0  0  0
  -20.9583  -40.0611   -8.0269 C   0  0  0  0  0  0  0  0  0  0  0  0
  -22.1730  -39.3731   -8.0450 C   0  0  0  0  0  0  0  0  0  0  0  0
  -22.3685  -38.2875   -7.1813 C   0  0  0  0  0  0  0  0  0  0  0  0
  -21.4200  -37.8405   -6.2890 C   0  0  0  0  0  0  0  0  0  0  0  0
  -20.2477  -38.5429   -6.3034 C   0  0  0  0  0  0  0  0  0  0  0  0
  -23.2826  -39.5964   -8.8195 O   0  0  0  0  0  0  0  0  0  0  0  0
  -24.2148  -40.5117   -9.1594 C   0  0  0  0  0  0  0  0  0  0  0  0
  -23.7470  -41.9198   -8.8837 C   0  0  0  0  0  0  0  0  0  0  0  0
  -23.6821  -42.0877   -7.3750 C   0  0  0  0  0  0  0  0  0  0  0  0
  -22.7997  -43.2127   -6.9343 C   0  0  0  0  0  0  0  0  0  0  0  0
  -22.0157  -43.7518   -7.9536 O   0  0  0  0  0  0  0  0  0  0  0  0
  -20.7154  -43.6690   -7.5578 C   0  0  1  0  0  0  0  0  0  0  0  0
  -20.2540  -44.7821   -6.6364 C   0  0  0  0  0  0  0  0  0  0  0  0
  -18.7901  -45.0666   -7.0095 C   0  0  0  0  0  0  0  0  0  0  0  0
  -18.5338  -43.9957   -8.0242 N   0  0  0  0  0  0  0  0  0  0  0  0
  -17.2917  -43.3044   -8.1225 C   0  0  0  0  0  0  0  0  0  0  0  0
  -17.1707  -42.2268   -9.1150 C   0  0  0  0  0  0  0  0  0  0  0  0
  -16.4421  -42.5194  -10.1417 O   0  0  0  0  0  0  0  0  0  0  0  0
  -17.7469  -40.9386   -9.0768 N   0  0  0  0  0  0  0  0  0  0  0  0
  -19.7284  -43.9077   -8.7060 C   0  0  0  0  0  0  0  0  0  0  0  0
  -20.2118  -43.9636   -9.8937 O   0  0  0  0  0  0  0  0  0  0  0  0
  -13.7824  -38.7367  -11.6967 C   0  0  0  0  0  0  0  0  0  0  0  0
  -14.5126  -38.1048  -12.7074 C   0  0  0  0  0  0  0  0  0  0  0  0
  -15.3222  -37.0514  -12.3626 C   0  0  0  0  0  0  0  0  0  0  0  0
  1  2  1  0
  2  3  1  0
  2  4  1  0
  4  5  2  0
  5  6  1  0
  6  7  1  0
  7  8  1  0
  8  9  1  0
  9 10  1  0
 10 11  1  6
 10 12  1  0
 12 13  1  1
 13 14  1  0
 14 15  1  0
 15 16  2  0
 16 17  1  0
 17 18  2  0
 18 19  1  0
 16 20  1  0
 20 21  1  0
 21 22  1  0
 22 23  1  0
 23 24  1  0
 24 25  1  0
 25 26  1  0
 26 27  1  1
 27 28  1  0
 28 29  1  0
 29 30  1  0
 30 31  1  0
 31 32  2  0
 31 33  1  0
 29 34  1  0
 34 35  2  0
  6 36  2  0
 36 37  1  0
 37 38  2  0
 19 14  2  0
 33 12  1  0
 34 26  1  0
 38  4  1  0
M  END
$$$$
