
     RDKit          3D

 38 41  0  0  0  0  0  0  0  0999 V2000
  -14.8245  -33.0277  -10.1579 C   0  0  0  0  0  0  0  0  0  0  0  0
  -14.5634  -33.5188  -11.5827 C   0  0  0  0  0  0  0  0  0  0  0  0
  -13.1008  -33.2688  -11.8626 C   0  0  0  0  0  0  0  0  0  0  0  0
  -14.8186  -34.9721  -11.6895 C   0  0  0  0  0  0  0  0  0  0  0  0
  -14.2379  -35.9054  -10.8334 C   0  0  0  0  0  0  0  0  0  0  0  0
  -14.5071  -37.2524  -10.9584 C   0  0  0  0  0  0  0  0  0  0  0  0
  -13.8923  -38.2532  -10.0545 C   0  0  0  0  0  0  0  0  0  0  0  0
  -14.6299  -38.4433   -8.8505 N   0  0  0  0  0  0  0  0  0  0  0  0
  -15.7904  -39.2486   -8.9953 C   0  0  0  0  0  0  0  0  0  0  0  0
  -16.6265  -39.4156   -7.7494 C   0  0  1  0  0  0  0  0  0  0  0  0
  -16.4612  -38.3601   -6.8733 O   0  0  0  0  0  0  0  0  0  0  0  0
  -18.0404  -39.8170   -8.0073 C   0  0  2  0  0  0  0  0  0  0  0  0
  -18.8805  -39.9914   -6.7612 C   0  0  0  0  0  0  0  0  0  0  0  0
  -20.3002  -39.5107   -6.9141 C   0  0  0  0  0  0  0  0  0  0  0  0
  -21.3212  -40.0282   -7.6505 C   0  0  0  0  0  0  0  0  0  0  0  0
  -22.5578  -39.3816   -7.6057 C   0  0  0  0  0  0  0  0  0  0  0  0
  -22.7122  -38.2333   -6.8182 C   0  0  0  0  0  0  0  0  0  0  0  0
  -21.7012  -37.6834   -6.0624 C   0  0  0  0  0  0  0  0  0  0  0  0
  -20.5093  -38.3484   -6.1342 C   0  0  0  0  0  0  0  0  0  0  0  0
  -23.7265  -39.7036   -8.2471 O   0  0  0  0  0  0  0  0  0  0  0  0
  -24.6508  -40.6724   -8.4186 C   0  0  0  0  0  0  0  0  0  0  0  0
  -24.1050  -42.0371   -8.0763 C   0  0  0  0  0  0  0  0  0  0  0  0
  -23.8907  -42.0745   -6.5724 C   0  0  0  0  0  0  0  0  0  0  0  0
  -22.9277  -43.1306   -6.1301 C   0  0  0  0  0  0  0  0  0  0  0  0
  -22.2238  -43.7300   -7.1739 O   0  0  0  0  0  0  0  0  0  0  0  0
  -20.8960  -43.5743   -6.9152 C   0  0  1  0  0  0  0  0  0  0  0  0
  -20.3066  -44.5906   -5.9559 C   0  0  0  0  0  0  0  0  0  0  0  0
  -18.8749  -44.8610   -6.4459 C   0  0  0  0  0  0  0  0  0  0  0  0
  -18.7576  -43.8726   -7.5647 N   0  0  0  0  0  0  0  0  0  0  0  0
  -17.5580  -43.1545   -7.8399 C   0  0  0  0  0  0  0  0  0  0  0  0
  -17.5734  -42.1617   -8.9239 C   0  0  0  0  0  0  0  0  0  0  0  0
  -16.9348  -42.5179   -9.9897 O   0  0  0  0  0  0  0  0  0  0  0  0
  -18.1926  -40.8932   -8.9346 N   0  0  0  0  0  0  0  0  0  0  0  0
  -20.0140  -43.8793   -8.1311 C   0  0  0  0  0  0  0  0  0  0  0  0
  -20.6054  -44.0503   -9.2574 O   0  0  0  0  0  0  0  0  0  0  0  0
  -15.3614  -37.6697  -11.9452 C   0  0  0  0  0  0  0  0  0  0  0  0
  -15.9594  -36.7575  -12.8194 C   0  0  0  0  0  0  0  0  0  0  0  0
  -15.6692  -35.4247  -12.6662 C   0  0  0  0  0  0  0  0  0  0  0  0
  1  2  1  0
  2  3  1  0
  2  4  1  0
  4  5  2  0
  5  6  1  0
  6  7  1  0
  7  8  1  0
  8  9  1  0
  9 10  1  0
 10 11  1  6
 10 12  1  0
 12 13  1  1
 13 14  1  0
 14 15  1  0
 15 16  2  0
 16 17  1  0
 17 18  2  0
 18 19  1  0
 16 20  1  0
 20 21  1  0
 21 22  1  0
 22 23  1  0
 23 24  1  0
 24 25  1  0
 25 26  1  0
 26 27  1  1
 27 28  1  0
 28 29  1  0
 29 30  1  0
 30 31  1  0
 31 32  2  0
 31 33  1  0
 29 34  1  0
 34 35  2  0
  6 36  2  0
 36 37  1  0
 37 38  2  0
 19 14  2  0
 33 12  1  0
 34 26  1  0
 38  4  1  0
M  END
$$$$
