
     RDKit          3D

 38 41  0  0  0  0  0  0  0  0999 V2000
  -23.1668  -42.3700   -4.9540 C   0  0  0  0  0  0  0  0  0  0  0  0
  -23.8360  -41.1825   -5.6479 C   0  0  0  0  0  0  0  0  0  0  0  0
  -24.4477  -40.3358   -4.5574 C   0  0  0  0  0  0  0  0  0  0  0  0
  -22.8344  -40.3659   -6.3682 C   0  0  0  0  0  0  0  0  0  0  0  0
  -21.6784  -39.8805   -5.7608 C   0  0  0  0  0  0  0  0  0  0  0  0
  -20.7627  -39.1294   -6.4679 C   0  0  0  0  0  0  0  0  0  0  0  0
  -19.5313  -38.6063   -5.8301 C   0  0  0  0  0  0  0  0  0  0  0  0
  -18.6997  -37.8846   -6.7342 N   0  0  0  0  0  0  0  0  0  0  0  0
  -17.8484  -38.7001   -7.5257 C   0  0  0  0  0  0  0  0  0  0  0  0
  -16.9248  -37.9602   -8.4629 C   0  0  1  0  0  0  0  0  0  0  0  0
  -16.6906  -36.6660   -8.0394 O   0  0  0  0  0  0  0  0  0  0  0  0
  -15.7118  -38.7304   -8.8658 C   0  0  2  0  0  0  0  0  0  0  0  0
  -15.5799  -38.9594  -10.3553 C   0  0  0  0  0  0  0  0  0  0  0  0
  -14.1630  -38.8711  -10.8600 C   0  0  0  0  0  0  0  0  0  0  0  0
  -13.1118  -39.7116  -10.6581 C   0  0  0  0  0  0  0  0  0  0  0  0
  -11.8916  -39.3943  -11.2580 C   0  0  0  0  0  0  0  0  0  0  0  0
  -11.7823  -38.2357  -12.0378 C   0  0  0  0  0  0  0  0  0  0  0  0
  -12.8245  -37.3642  -12.2619 C   0  0  0  0  0  0  0  0  0  0  0  0
  -13.9997  -37.7135  -11.6578 C   0  0  0  0  0  0  0  0  0  0  0  0
  -10.7007  -40.0726  -11.2084 O   0  0  0  0  0  0  0  0  0  0  0  0
  -10.1022  -41.2552  -11.4648 C   0  0  0  0  0  0  0  0  0  0  0  0
  -11.0968  -42.3890  -11.5168 C   0  0  0  0  0  0  0  0  0  0  0  0
  -11.9427  -42.1919  -12.7635 C   0  0  0  0  0  0  0  0  0  0  0  0
  -13.2529  -42.9130  -12.7193 C   0  0  0  0  0  0  0  0  0  0  0  0
  -13.5702  -43.4373  -11.4668 O   0  0  0  0  0  0  0  0  0  0  0  0
  -14.7778  -42.9246  -11.1019 C   0  0  1  0  0  0  0  0  0  0  0  0
  -15.9807  -43.6392  -11.6876 C   0  0  0  0  0  0  0  0  0  0  0  0
  -17.0708  -43.5992  -10.6045 C   0  0  0  0  0  0  0  0  0  0  0  0
  -16.4127  -42.7537   -9.5586 N   0  0  0  0  0  0  0  0  0  0  0  0
  -17.1230  -41.7964   -8.7779 C   0  0  0  0  0  0  0  0  0  0  0  0
  -16.3648  -40.9757   -7.8227 C   0  0  0  0  0  0  0  0  0  0  0  0
  -16.5491  -41.2853   -6.5814 O   0  0  0  0  0  0  0  0  0  0  0  0
  -15.4776  -39.9131   -8.0993 N   0  0  0  0  0  0  0  0  0  0  0  0
  -15.0915  -43.1420   -9.6174 C   0  0  0  0  0  0  0  0  0  0  0  0
  -14.1436  -43.5887   -8.8762 O   0  0  0  0  0  0  0  0  0  0  0  0
  -21.0037  -38.8612   -7.7899 C   0  0  0  0  0  0  0  0  0  0  0  0
  -22.1544  -39.3342   -8.4270 C   0  0  0  0  0  0  0  0  0  0  0  0
  -23.0441  -40.0786   -7.6933 C   0  0  0  0  0  0  0  0  0  0  0  0
  1  2  1  0
  2  3  1  0
  2  4  1  0
  4  5  2  0
  5  6  1  0
  6  7  1  0
  7  8  1  0
  8  9  1  0
  9 10  1  0
 10 11  1  1
 10 12  1  0
 12 13  1  6
 13 14  1  0
 14 15  1  0
 15 16  2  0
 16 17  1  0
 17 18  2  0
 18 19  1  0
 16 20  1  0
 20 21  1  0
 21 22  1  0
 22 23  1  0
 23 24  1  0
 24 25  1  0
 25 26  1  0
 26 27  1  6
 27 28  1  0
 28 29  1  0
 29 30  1  0
 30 31  1  0
 31 32  2  0
 31 33  1  0
 29 34  1  0
 34 35  2  0
  6 36  2  0
 36 37  1  0
 37 38  2  0
 19 14  2  0
 33 12  1  0
 34 26  1  0
 38  4  1  0
M  END
$$$$
