
     RDKit          3D

 38 41  0  0  0  0  0  0  0  0999 V2000
  -11.9486  -34.2825  -12.3927 C   0  0  0  0  0  0  0  0  0  0  0  0
  -12.6032  -34.9619  -11.1889 C   0  0  0  0  0  0  0  0  0  0  0  0
  -13.2070  -33.8615  -10.3495 C   0  0  0  0  0  0  0  0  0  0  0  0
  -13.6892  -35.8666  -11.6260 C   0  0  0  0  0  0  0  0  0  0  0  0
  -13.9200  -37.1081  -11.0375 C   0  0  0  0  0  0  0  0  0  0  0  0
  -14.9488  -37.9207  -11.4667 C   0  0  0  0  0  0  0  0  0  0  0  0
  -15.2008  -39.2441  -10.8490 C   0  0  0  0  0  0  0  0  0  0  0  0
  -14.5025  -39.4273   -9.6207 N   0  0  0  0  0  0  0  0  0  0  0  0
  -14.9963  -38.6448   -8.5436 C   0  0  0  0  0  0  0  0  0  0  0  0
  -15.8318  -39.3874   -7.5290 C   0  0  1  0  0  0  0  0  0  0  0  0
  -15.7738  -38.7952   -6.2820 O   0  0  0  0  0  0  0  0  0  0  0  0
  -17.2005  -39.7455   -8.0036 C   0  0  2  0  0  0  0  0  0  0  0  0
  -18.1441  -40.2004   -6.9122 C   0  0  0  0  0  0  0  0  0  0  0  0
  -19.5606  -39.7208   -7.0955 C   0  0  0  0  0  0  0  0  0  0  0  0
  -20.4902  -40.0817   -8.0218 C   0  0  0  0  0  0  0  0  0  0  0  0
  -21.7486  -39.4802   -7.9595 C   0  0  0  0  0  0  0  0  0  0  0  0
  -22.0165  -38.5335   -6.9622 C   0  0  0  0  0  0  0  0  0  0  0  0
  -21.0998  -38.1454   -6.0110 C   0  0  0  0  0  0  0  0  0  0  0  0
  -19.8828  -38.7597   -6.1078 C   0  0  0  0  0  0  0  0  0  0  0  0
  -22.8410  -39.6734   -8.7659 O   0  0  0  0  0  0  0  0  0  0  0  0
  -23.7095  -40.5962   -9.2310 C   0  0  0  0  0  0  0  0  0  0  0  0
  -23.1476  -41.9938   -9.1390 C   0  0  0  0  0  0  0  0  0  0  0  0
  -23.0708  -42.3544   -7.6649 C   0  0  0  0  0  0  0  0  0  0  0  0
  -22.1142  -43.4660   -7.3687 C   0  0  0  0  0  0  0  0  0  0  0  0
  -21.2961  -43.8124   -8.4434 O   0  0  0  0  0  0  0  0  0  0  0  0
  -20.0041  -43.6955   -8.0292 C   0  0  1  0  0  0  0  0  0  0  0  0
  -19.4682  -44.8869   -7.2584 C   0  0  0  0  0  0  0  0  0  0  0  0
  -17.9887  -45.0211   -7.6534 C   0  0  0  0  0  0  0  0  0  0  0  0
  -17.8057  -43.8111   -8.5163 N   0  0  0  0  0  0  0  0  0  0  0  0
  -16.6132  -43.0312   -8.5123 C   0  0  0  0  0  0  0  0  0  0  0  0
  -16.5657  -41.8266   -9.3534 C   0  0  0  0  0  0  0  0  0  0  0  0
  -15.8195  -41.9319  -10.4036 O   0  0  0  0  0  0  0  0  0  0  0  0
  -17.2275  -40.5962   -9.1511 N   0  0  0  0  0  0  0  0  0  0  0  0
  -19.0039  -43.7143   -9.1905 C   0  0  0  0  0  0  0  0  0  0  0  0
  -19.4830  -43.6454  -10.3792 O   0  0  0  0  0  0  0  0  0  0  0  0
  -15.7515  -37.4903  -12.4904 C   0  0  0  0  0  0  0  0  0  0  0  0
  -15.5448  -36.2499  -13.1009 C   0  0  0  0  0  0  0  0  0  0  0  0
  -14.5121  -35.4670  -12.6485 C   0  0  0  0  0  0  0  0  0  0  0  0
  1  2  1  0
  2  3  1  0
  2  4  1  0
  4  5  2  0
  5  6  1  0
  6  7  1  0
  7  8  1  0
  8  9  1  0
  9 10  1  0
 10 11  1  1
 10 12  1  0
 12 13  1  1
 13 14  1  0
 14 15  1  0
 15 16  2  0
 16 17  1  0
 17 18  2  0
 18 19  1  0
 16 20  1  0
 20 21  1  0
 21 22  1  0
 22 23  1  0
 23 24  1  0
 24 25  1  0
 25 26  1  0
 26 27  1  1
 27 28  1  0
 28 29  1  0
 29 30  1  0
 30 31  1  0
 31 32  2  0
 31 33  1  0
 29 34  1  0
 34 35  2  0
  6 36  2  0
 36 37  1  0
 37 38  2  0
 19 14  2  0
 33 12  1  0
 34 26  1  0
 38  4  1  0
M  END
$$$$
