
     RDKit          3D

 36 39  0  0  0  0  0  0  0  0999 V2000
  -19.4801  -44.0085   -6.8619 C   0  0  0  0  0  0  0  0  0  0  0  0
  -19.3782  -42.5655   -7.3465 C   0  0  2  0  0  0  0  0  0  0  0  0
  -19.6481  -42.4447   -8.8102 C   0  0  0  0  0  0  0  0  0  0  0  0
  -20.6360  -43.6504   -9.5500 S   0  0  0  0  0  6  0  0  0  0  0  0
  -19.7649  -44.8717   -9.8311 O   0  0  0  0  0  0  0  0  0  0  0  0
  -21.0028  -43.1398  -10.9427 O   0  0  0  0  0  0  0  0  0  0  0  0
  -22.0725  -44.1759   -8.7641 C   0  0  0  0  0  0  0  0  0  0  0  0
  -22.8376  -43.2034   -7.9425 C   0  0  0  0  0  0  0  0  0  0  0  0
  -23.2809  -41.9713   -8.7022 C   0  0  0  0  0  0  0  0  0  0  0  0
  -24.3225  -41.2043   -7.9163 C   0  0  0  0  0  0  0  0  0  0  0  0
  -23.7550  -40.4925   -6.9024 O   0  0  0  0  0  0  0  0  0  0  0  0
  -22.5168  -40.0981   -6.4363 C   0  0  0  0  0  0  0  0  0  0  0  0
  -22.3816  -40.4416   -5.0743 C   0  0  0  0  0  0  0  0  0  0  0  0
  -21.2547  -40.1743   -4.3426 C   0  0  0  0  0  0  0  0  0  0  0  0
  -20.2543  -39.5398   -5.0368 C   0  0  0  0  0  0  0  0  0  0  0  0
  -20.3441  -39.1760   -6.3966 C   0  0  0  0  0  0  0  0  0  0  0  0
  -19.0719  -38.5300   -6.8180 C   0  0  0  0  0  0  0  0  0  0  0  0
  -18.0603  -39.4867   -7.3510 C   0  0  2  0  0  0  0  0  0  0  0  0
  -17.7948  -40.6565   -6.5957 N   0  0  0  0  0  0  0  0  0  0  0  0
  -18.0777  -41.9995   -6.9145 C   0  0  0  0  0  0  0  0  0  0  0  0
  -17.1348  -42.8821   -6.8391 O   0  0  0  0  0  0  0  0  0  0  0  0
  -16.7886  -38.7467   -7.7455 C   0  0  2  0  0  0  0  0  0  0  0  0
  -17.3005  -37.5738   -8.4186 O   0  0  0  0  0  0  0  0  0  0  0  0
  -15.9911  -39.4404   -8.7712 C   0  0  0  0  0  0  0  0  0  0  0  0
  -14.7016  -39.8768   -8.5673 N   0  0  0  0  0  0  0  0  0  0  0  0
  -13.6417  -39.7561   -9.4530 C   0  0  0  0  0  0  0  0  0  0  0  0
  -12.9900  -40.9921  -10.0510 C   0  0  0  0  0  0  0  0  0  0  0  0
  -12.2348  -40.0809   -9.1392 C   0  0  0  0  0  0  0  0  0  0  0  0
  -13.8084  -38.5809  -10.4032 C   0  0  0  0  0  0  0  0  0  0  0  0
  -12.7288  -37.7416  -10.5534 C   0  0  0  0  0  0  0  0  0  0  0  0
  -12.8422  -36.6617  -11.4204 C   0  0  0  0  0  0  0  0  0  0  0  0
  -13.9984  -36.4136  -12.1262 C   0  0  0  0  0  0  0  0  0  0  0  0
  -15.0581  -37.2814  -11.9456 C   0  0  0  0  0  0  0  0  0  0  0  0
  -16.6792  -36.9780  -12.9016 Br  0  0  0  0  0  0  0  0  0  0  0  0
  -14.9833  -38.3841  -11.0789 C   0  0  0  0  0  0  0  0  0  0  0  0
  -21.4915  -39.4593   -7.1062 C   0  0  0  0  0  0  0  0  0  0  0  0
  2  1  1  6
  2  3  1  0
  3  4  1  0
  4  5  2  0
  4  6  2  0
  4  7  1  0
  7  8  1  0
  8  9  1  0
  9 10  1  0
 10 11  1  0
 11 12  1  0
 12 13  2  0
 13 14  1  0
 14 15  2  0
 15 16  1  0
 16 17  1  0
 18 17  1  1
 18 19  1  0
 19 20  1  0
 20 21  2  0
 18 22  1  0
 22 23  1  6
 22 24  1  0
 24 25  1  0
 25 26  1  0
 26 27  1  0
 27 28  1  0
 26 29  1  0
 29 30  2  0
 30 31  1  0
 31 32  2  0
 32 33  1  0
 33 34  1  0
 33 35  2  0
 16 36  2  0
 20  2  1  0
 28 26  1  0
 35 29  1  0
 36 12  1  0
M  END
$$$$
