
     RDKit          3D

 36 39  0  0  0  0  0  0  0  0999 V2000
  -18.3549  -40.9905   -5.1203 C   0  0  0  0  0  0  0  0  0  0  0  0
  -18.5079  -40.9749   -6.6381 C   0  0  2  0  0  0  0  0  0  0  0  0
  -18.9154  -42.3074   -7.1748 C   0  0  0  0  0  0  0  0  0  0  0  0
  -19.7741  -43.3719   -6.1228 S   0  0  0  0  0  6  0  0  0  0  0  0
  -18.7596  -44.0676   -5.2195 O   0  0  0  0  0  0  0  0  0  0  0  0
  -20.3285  -44.5058   -6.9841 O   0  0  0  0  0  0  0  0  0  0  0  0
  -21.0460  -42.7583   -5.1414 C   0  0  0  0  0  0  0  0  0  0  0  0
  -21.8736  -41.6380   -5.6574 C   0  0  0  0  0  0  0  0  0  0  0  0
  -22.5561  -41.9343   -6.9758 C   0  0  0  0  0  0  0  0  0  0  0  0
  -23.6291  -40.9068   -7.2654 C   0  0  0  0  0  0  0  0  0  0  0  0
  -23.0888  -39.7333   -7.6989 O   0  0  0  0  0  0  0  0  0  0  0  0
  -21.8872  -39.2027   -8.1238 C   0  0  0  0  0  0  0  0  0  0  0  0
  -21.5883  -38.0353   -7.3895 C   0  0  0  0  0  0  0  0  0  0  0  0
  -20.4552  -37.2924   -7.5923 C   0  0  0  0  0  0  0  0  0  0  0  0
  -19.6214  -37.7698   -8.5732 C   0  0  0  0  0  0  0  0  0  0  0  0
  -19.8784  -38.9298   -9.3332 C   0  0  0  0  0  0  0  0  0  0  0  0
  -18.7554  -39.1546  -10.2829 C   0  0  0  0  0  0  0  0  0  0  0  0
  -17.6627  -40.0051   -9.7303 C   0  0  2  0  0  0  0  0  0  0  0  0
  -17.1651  -39.6868   -8.4417 N   0  0  0  0  0  0  0  0  0  0  0  0
  -17.2731  -40.4217   -7.2444 C   0  0  0  0  0  0  0  0  0  0  0  0
  -16.2076  -40.6717   -6.5545 O   0  0  0  0  0  0  0  0  0  0  0  0
  -16.5518  -40.1734  -10.7588 C   0  0  2  0  0  0  0  0  0  0  0  0
  -16.1055  -41.5286  -10.5241 O   0  0  0  0  0  0  0  0  0  0  0  0
  -15.3642  -39.3440  -10.4923 C   0  0  0  0  0  0  0  0  0  0  0  0
  -14.7308  -38.5893  -11.4535 N   0  0  0  0  0  0  0  0  0  0  0  0
  -14.0770  -37.3829  -11.2547 C   0  0  0  0  0  0  0  0  0  0  0  0
  -12.6562  -37.1823  -11.7557 C   0  0  0  0  0  0  0  0  0  0  0  0
  -12.9738  -37.1655  -10.2960 C   0  0  0  0  0  0  0  0  0  0  0  0
  -15.0016  -36.1866  -11.4158 C   0  0  0  0  0  0  0  0  0  0  0  0
  -16.2395  -36.4241  -11.9668 C   0  0  0  0  0  0  0  0  0  0  0  0
  -17.1142  -35.3556  -12.1213 C   0  0  0  0  0  0  0  0  0  0  0  0
  -16.7750  -34.0766  -11.7399 C   0  0  0  0  0  0  0  0  0  0  0  0
  -15.5222  -33.8827  -11.1910 C   0  0  0  0  0  0  0  0  0  0  0  0
  -15.0082  -32.1292  -10.6480 Br  0  0  0  0  0  0  0  0  0  0  0  0
  -14.6094  -34.9362  -11.0178 C   0  0  0  0  0  0  0  0  0  0  0  0
  -21.0275  -39.6564   -9.1051 C   0  0  0  0  0  0  0  0  0  0  0  0
  2  1  1  1
  2  3  1  0
  3  4  1  0
  4  5  2  0
  4  6  2  0
  4  7  1  0
  7  8  1  0
  8  9  1  0
  9 10  1  0
 10 11  1  0
 11 12  1  0
 12 13  2  0
 13 14  1  0
 14 15  2  0
 15 16  1  0
 16 17  1  0
 18 17  1  6
 18 19  1  0
 19 20  1  0
 20 21  2  0
 18 22  1  0
 22 23  1  1
 22 24  1  0
 24 25  1  0
 25 26  1  0
 26 27  1  0
 27 28  1  0
 26 29  1  0
 29 30  2  0
 30 31  1  0
 31 32  2  0
 32 33  1  0
 33 34  1  0
 33 35  2  0
 16 36  2  0
 20  2  1  0
 28 26  1  0
 35 29  1  0
 36 12  1  0
M  END
$$$$
