
     RDKit          3D

 36 39  0  0  0  0  0  0  0  0999 V2000
  -14.7569  -41.3903  -12.3363 C   0  0  0  0  0  0  0  0  0  0  0  0
  -14.7375  -40.3938  -11.1813 C   0  0  2  0  0  0  0  0  0  0  0  0
  -13.6756  -40.7141  -10.1816 C   0  0  0  0  0  0  0  0  0  0  0  0
  -12.2973  -41.5986  -10.7248 S   0  0  0  0  0  6  0  0  0  0  0  0
  -12.6707  -43.0776  -10.7733 O   0  0  0  0  0  0  0  0  0  0  0  0
  -11.2498  -41.5265   -9.6146 O   0  0  0  0  0  0  0  0  0  0  0  0
  -11.5464  -41.1777  -12.2135 C   0  0  0  0  0  0  0  0  0  0  0  0
  -11.5442  -39.7544  -12.6387 C   0  0  0  0  0  0  0  0  0  0  0  0
  -10.9007  -38.8156  -11.6406 C   0  0  0  0  0  0  0  0  0  0  0  0
  -10.6304  -37.4669  -12.2721 C   0  0  0  0  0  0  0  0  0  0  0  0
  -11.7714  -36.7293  -12.3754 O   0  0  0  0  0  0  0  0  0  0  0  0
  -13.0845  -36.7269  -11.9490 C   0  0  0  0  0  0  0  0  0  0  0  0
  -13.9505  -36.5764  -13.0530 C   0  0  0  0  0  0  0  0  0  0  0  0
  -15.3149  -36.5398  -12.9352 C   0  0  0  0  0  0  0  0  0  0  0  0
  -15.7855  -36.6604  -11.6511 C   0  0  0  0  0  0  0  0  0  0  0  0
  -14.9597  -36.8113  -10.5177 C   0  0  0  0  0  0  0  0  0  0  0  0
  -15.8095  -36.9327   -9.3024 C   0  0  0  0  0  0  0  0  0  0  0  0
  -16.1805  -38.3370   -8.9669 C   0  0  2  0  0  0  0  0  0  0  0  0
  -16.6874  -39.1536  -10.0088 N   0  0  0  0  0  0  0  0  0  0  0  0
  -16.1021  -40.2844  -10.6121 C   0  0  0  0  0  0  0  0  0  0  0  0
  -16.7860  -41.3784  -10.7078 O   0  0  0  0  0  0  0  0  0  0  0  0
  -17.0577  -38.3694   -7.7219 C   0  0  2  0  0  0  0  0  0  0  0  0
  -16.2576  -37.6554   -6.7520 O   0  0  0  0  0  0  0  0  0  0  0  0
  -17.2212  -39.7147   -7.1448 C   0  0  0  0  0  0  0  0  0  0  0  0
  -18.4406  -40.2539   -6.8031 N   0  0  0  0  0  0  0  0  0  0  0  0
  -19.6737  -39.6269   -6.8974 C   0  0  0  0  0  0  0  0  0  0  0  0
  -20.1327  -38.6586   -5.8195 C   0  0  0  0  0  0  0  0  0  0  0  0
  -20.8516  -39.9453   -6.0640 C   0  0  0  0  0  0  0  0  0  0  0  0
  -20.0151  -39.2263   -8.3239 C   0  0  0  0  0  0  0  0  0  0  0  0
  -20.1333  -40.2404   -9.2458 C   0  0  0  0  0  0  0  0  0  0  0  0
  -20.4528  -39.9121  -10.5577 C   0  0  0  0  0  0  0  0  0  0  0  0
  -20.6521  -38.6082  -10.9535 C   0  0  0  0  0  0  0  0  0  0  0  0
  -20.5236  -37.6211   -9.9955 C   0  0  0  0  0  0  0  0  0  0  0  0
  -20.7904  -35.8014  -10.4968 Br  0  0  0  0  0  0  0  0  0  0  0  0
  -20.2021  -37.9117   -8.6595 C   0  0  0  0  0  0  0  0  0  0  0  0
  -13.5900  -36.8450  -10.6689 C   0  0  0  0  0  0  0  0  0  0  0  0
  2  1  1  6
  2  3  1  0
  3  4  1  0
  4  5  2  0
  4  6  2  0
  4  7  1  0
  7  8  1  0
  8  9  1  0
  9 10  1  0
 10 11  1  0
 11 12  1  0
 12 13  2  0
 13 14  1  0
 14 15  2  0
 15 16  1  0
 16 17  1  0
 18 17  1  6
 18 19  1  0
 19 20  1  0
 20 21  2  0
 18 22  1  0
 22 23  1  1
 22 24  1  0
 24 25  1  0
 25 26  1  0
 26 27  1  0
 27 28  1  0
 26 29  1  0
 29 30  2  0
 30 31  1  0
 31 32  2  0
 32 33  1  0
 33 34  1  0
 33 35  2  0
 16 36  2  0
 20  2  1  0
 28 26  1  0
 35 29  1  0
 36 12  1  0
M  END
$$$$
