
     RDKit          3D

 36 39  0  0  0  0  0  0  0  0999 V2000
  -18.9447  -43.7272   -6.5367 C   0  0  0  0  0  0  0  0  0  0  0  0
  -19.1035  -42.3367   -7.1440 C   0  0  2  0  0  0  0  0  0  0  0  0
  -19.4847  -42.3946   -8.5865 C   0  0  0  0  0  0  0  0  0  0  0  0
  -20.3169  -43.7992   -9.1448 S   0  0  0  0  0  6  0  0  0  0  0  0
  -19.2846  -44.8955   -9.3935 O   0  0  0  0  0  0  0  0  0  0  0  0
  -20.8503  -43.4815  -10.5410 O   0  0  0  0  0  0  0  0  0  0  0  0
  -21.5978  -44.4605   -8.2071 C   0  0  0  0  0  0  0  0  0  0  0  0
  -22.4508  -43.5426   -7.4094 C   0  0  0  0  0  0  0  0  0  0  0  0
  -23.1317  -42.4677   -8.2296 C   0  0  0  0  0  0  0  0  0  0  0  0
  -24.2272  -41.7973   -7.4287 C   0  0  0  0  0  0  0  0  0  0  0  0
  -23.7134  -40.9168   -6.5245 O   0  0  0  0  0  0  0  0  0  0  0  0
  -22.5249  -40.2982   -6.1919 C   0  0  0  0  0  0  0  0  0  0  0  0
  -22.2480  -40.4894   -4.8214 C   0  0  0  0  0  0  0  0  0  0  0  0
  -21.1316  -39.9880   -4.2057 C   0  0  0  0  0  0  0  0  0  0  0  0
  -20.2915  -39.2769   -5.0266 C   0  0  0  0  0  0  0  0  0  0  0  0
  -20.5267  -39.0587   -6.4001 C   0  0  0  0  0  0  0  0  0  0  0  0
  -19.4026  -38.2698   -6.9724 C   0  0  0  0  0  0  0  0  0  0  0  0
  -18.2903  -39.1079   -7.5041 C   0  0  2  0  0  0  0  0  0  0  0  0
  -17.7947  -40.1489   -6.6794 N   0  0  0  0  0  0  0  0  0  0  0  0
  -17.8828  -41.5430   -6.8641 C   0  0  0  0  0  0  0  0  0  0  0  0
  -16.8098  -42.2620   -6.7921 O   0  0  0  0  0  0  0  0  0  0  0  0
  -17.1798  -38.2241   -8.0574 C   0  0  2  0  0  0  0  0  0  0  0  0
  -17.9073  -37.2666   -8.8604 O   0  0  0  0  0  0  0  0  0  0  0  0
  -16.2953  -38.9101   -9.0148 C   0  0  0  0  0  0  0  0  0  0  0  0
  -15.0649  -39.4276   -8.6792 N   0  0  0  0  0  0  0  0  0  0  0  0
  -14.0701  -39.8237   -9.5601 C   0  0  0  0  0  0  0  0  0  0  0  0
  -13.8811  -41.2925   -9.9024 C   0  0  0  0  0  0  0  0  0  0  0  0
  -12.8270  -40.5235   -9.1745 C   0  0  0  0  0  0  0  0  0  0  0  0
  -13.9009  -38.8555  -10.7201 C   0  0  0  0  0  0  0  0  0  0  0  0
  -13.9911  -39.3796  -11.9888 C   0  0  0  0  0  0  0  0  0  0  0  0
  -13.8499  -38.5226  -13.0735 C   0  0  0  0  0  0  0  0  0  0  0  0
  -13.6240  -37.1739  -12.9105 C   0  0  0  0  0  0  0  0  0  0  0  0
  -13.5405  -36.6896  -11.6194 C   0  0  0  0  0  0  0  0  0  0  0  0
  -13.2287  -34.8293  -11.3445 Br  0  0  0  0  0  0  0  0  0  0  0  0
  -13.6777  -37.5228  -10.4969 C   0  0  0  0  0  0  0  0  0  0  0  0
  -21.6593  -39.5768   -6.9909 C   0  0  0  0  0  0  0  0  0  0  0  0
  2  1  1  6
  2  3  1  0
  3  4  1  0
  4  5  2  0
  4  6  2  0
  4  7  1  0
  7  8  1  0
  8  9  1  0
  9 10  1  0
 10 11  1  0
 11 12  1  0
 12 13  2  0
 13 14  1  0
 14 15  2  0
 15 16  1  0
 16 17  1  0
 18 17  1  1
 18 19  1  0
 19 20  1  0
 20 21  2  0
 18 22  1  0
 22 23  1  6
 22 24  1  0
 24 25  1  0
 25 26  1  0
 26 27  1  0
 27 28  1  0
 26 29  1  0
 29 30  2  0
 30 31  1  0
 31 32  2  0
 32 33  1  0
 33 34  1  0
 33 35  2  0
 16 36  2  0
 20  2  1  0
 28 26  1  0
 35 29  1  0
 36 12  1  0
M  END
$$$$
