
     RDKit          3D

 36 39  0  0  0  0  0  0  0  0999 V2000
  -19.7300  -43.4983   -7.5913 C   0  0  0  0  0  0  0  0  0  0  0  0
  -19.2046  -42.1622   -8.1075 C   0  0  2  0  0  0  0  0  0  0  0  0
  -18.9438  -42.1919   -9.5774 C   0  0  0  0  0  0  0  0  0  0  0  0
  -19.8357  -43.3191  -10.5319 S   0  0  0  0  0  6  0  0  0  0  0  0
  -19.1653  -44.6843  -10.4050 O   0  0  0  0  0  0  0  0  0  0  0  0
  -19.6152  -42.9429  -11.9964 O   0  0  0  0  0  0  0  0  0  0  0  0
  -21.5234  -43.5147  -10.2655 C   0  0  0  0  0  0  0  0  0  0  0  0
  -22.3223  -42.3395   -9.8332 C   0  0  0  0  0  0  0  0  0  0  0  0
  -22.2485  -41.1630  -10.7829 C   0  0  0  0  0  0  0  0  0  0  0  0
  -23.3296  -40.1518  -10.4670 C   0  0  0  0  0  0  0  0  0  0  0  0
  -23.0099  -39.4095   -9.3700 O   0  0  0  0  0  0  0  0  0  0  0  0
  -21.9471  -39.1506   -8.5276 C   0  0  0  0  0  0  0  0  0  0  0  0
  -22.3402  -39.3319   -7.1845 C   0  0  0  0  0  0  0  0  0  0  0  0
  -21.4926  -39.1464   -6.1243 C   0  0  0  0  0  0  0  0  0  0  0  0
  -20.2182  -38.7660   -6.4656 C   0  0  0  0  0  0  0  0  0  0  0  0
  -19.7801  -38.5715   -7.7921 C   0  0  0  0  0  0  0  0  0  0  0  0
  -18.3432  -38.1858   -7.7841 C   0  0  0  0  0  0  0  0  0  0  0  0
  -17.4096  -39.3456   -7.8613 C   0  0  2  0  0  0  0  0  0  0  0  0
  -17.6346  -40.4347   -6.9824 N   0  0  0  0  0  0  0  0  0  0  0  0
  -18.0409  -41.7490   -7.2869 C   0  0  0  0  0  0  0  0  0  0  0  0
  -17.3597  -42.7472   -6.8252 O   0  0  0  0  0  0  0  0  0  0  0  0
  -15.9646  -38.8642   -7.8348 C   0  0  2  0  0  0  0  0  0  0  0  0
  -16.0639  -37.5330   -8.3906 O   0  0  0  0  0  0  0  0  0  0  0  0
  -15.0804  -39.5862   -8.7656 C   0  0  0  0  0  0  0  0  0  0  0  0
  -14.3956  -40.7324   -8.4313 N   0  0  0  0  0  0  0  0  0  0  0  0
  -13.2526  -41.2181   -9.0478 C   0  0  0  0  0  0  0  0  0  0  0  0
  -12.6726  -42.5652   -8.6491 C   0  0  0  0  0  0  0  0  0  0  0  0
  -11.9185  -41.2965   -8.4172 C   0  0  0  0  0  0  0  0  0  0  0  0
  -13.2164  -40.9058  -10.5355 C   0  0  0  0  0  0  0  0  0  0  0  0
  -12.6397  -39.7140  -10.9092 C   0  0  0  0  0  0  0  0  0  0  0  0
  -12.5815  -39.3992  -12.2614 C   0  0  0  0  0  0  0  0  0  0  0  0
  -13.0824  -40.2434  -13.2272 C   0  0  0  0  0  0  0  0  0  0  0  0
  -13.6529  -41.4297  -12.8080 C   0  0  0  0  0  0  0  0  0  0  0  0
  -14.3598  -42.6302  -14.1091 Br  0  0  0  0  0  0  0  0  0  0  0  0
  -13.7309  -41.7846  -11.4512 C   0  0  0  0  0  0  0  0  0  0  0  0
  -20.6570  -38.7666   -8.8377 C   0  0  0  0  0  0  0  0  0  0  0  0
  2  1  1  1
  2  3  1  0
  3  4  1  0
  4  5  2  0
  4  6  2  0
  4  7  1  0
  7  8  1  0
  8  9  1  0
  9 10  1  0
 10 11  1  0
 11 12  1  0
 12 13  2  0
 13 14  1  0
 14 15  2  0
 15 16  1  0
 16 17  1  0
 18 17  1  1
 18 19  1  0
 19 20  1  0
 20 21  2  0
 18 22  1  0
 22 23  1  6
 22 24  1  0
 24 25  1  0
 25 26  1  0
 26 27  1  0
 27 28  1  0
 26 29  1  0
 29 30  2  0
 30 31  1  0
 31 32  2  0
 32 33  1  0
 33 34  1  0
 33 35  2  0
 16 36  2  0
 20  2  1  0
 28 26  1  0
 35 29  1  0
 36 12  1  0
M  END
$$$$
