
     RDKit          3D

 36 39  0  0  0  0  0  0  0  0999 V2000
  -18.8502  -42.6898   -5.1282 C   0  0  0  0  0  0  0  0  0  0  0  0
  -19.0873  -42.1224   -6.5244 C   0  0  2  0  0  0  0  0  0  0  0  0
  -19.7096  -43.1250   -7.4394 C   0  0  0  0  0  0  0  0  0  0  0  0
  -20.6477  -44.3888   -6.7323 S   0  0  0  0  0  6  0  0  0  0  0  0
  -19.6911  -45.4677   -6.2322 O   0  0  0  0  0  0  0  0  0  0  0  0
  -21.4059  -45.0758   -7.8672 O   0  0  0  0  0  0  0  0  0  0  0  0
  -21.7608  -44.0226   -5.4737 C   0  0  0  0  0  0  0  0  0  0  0  0
  -22.4503  -42.7069   -5.4861 C   0  0  0  0  0  0  0  0  0  0  0  0
  -23.2432  -42.4402   -6.7478 C   0  0  0  0  0  0  0  0  0  0  0  0
  -24.1751  -41.2631   -6.5551 C   0  0  0  0  0  0  0  0  0  0  0  0
  -23.5004  -40.0808   -6.6143 O   0  0  0  0  0  0  0  0  0  0  0  0
  -22.2625  -39.5727   -6.9542 C   0  0  0  0  0  0  0  0  0  0  0  0
  -21.7594  -38.7810   -5.8999 C   0  0  0  0  0  0  0  0  0  0  0  0
  -20.5463  -38.1465   -5.9526 C   0  0  0  0  0  0  0  0  0  0  0  0
  -19.8468  -38.3372   -7.1186 C   0  0  0  0  0  0  0  0  0  0  0  0
  -20.3090  -39.1177   -8.1987 C   0  0  0  0  0  0  0  0  0  0  0  0
  -19.2860  -39.1172   -9.2791 C   0  0  0  0  0  0  0  0  0  0  0  0
  -18.2944  -40.2248   -9.1677 C   0  0  2  0  0  0  0  0  0  0  0  0
  -17.6828  -40.4399   -7.9071 N   0  0  0  0  0  0  0  0  0  0  0  0
  -17.8239  -41.5331   -7.0294 C   0  0  0  0  0  0  0  0  0  0  0  0
  -16.7663  -42.1283   -6.5813 O   0  0  0  0  0  0  0  0  0  0  0  0
  -17.2800  -40.1428  -10.3011 C   0  0  2  0  0  0  0  0  0  0  0  0
  -17.5028  -41.3799  -11.0158 O   0  0  0  0  0  0  0  0  0  0  0  0
  -15.8794  -40.2245   -9.8526 C   0  0  0  0  0  0  0  0  0  0  0  0
  -14.8316  -39.6248  -10.5137 N   0  0  0  0  0  0  0  0  0  0  0  0
  -13.9389  -38.7073   -9.9810 C   0  0  0  0  0  0  0  0  0  0  0  0
  -12.5830  -39.1593   -9.4639 C   0  0  0  0  0  0  0  0  0  0  0  0
  -13.6101  -38.5808   -8.5460 C   0  0  0  0  0  0  0  0  0  0  0  0
  -13.9438  -37.3862  -10.7336 C   0  0  0  0  0  0  0  0  0  0  0  0
  -13.0549  -37.2581  -11.7757 C   0  0  0  0  0  0  0  0  0  0  0  0
  -13.0374  -36.0673  -12.4916 C   0  0  0  0  0  0  0  0  0  0  0  0
  -13.8803  -35.0221  -12.1860 C   0  0  0  0  0  0  0  0  0  0  0  0
  -14.7571  -35.1932  -11.1322 C   0  0  0  0  0  0  0  0  0  0  0  0
  -15.9433  -33.7736  -10.6722 Br  0  0  0  0  0  0  0  0  0  0  0  0
  -14.8060  -36.3810  -10.3842 C   0  0  0  0  0  0  0  0  0  0  0  0
  -21.5340  -39.7441   -8.1152 C   0  0  0  0  0  0  0  0  0  0  0  0
  2  1  1  1
  2  3  1  0
  3  4  1  0
  4  5  2  0
  4  6  2  0
  4  7  1  0
  7  8  1  0
  8  9  1  0
  9 10  1  0
 10 11  1  0
 11 12  1  0
 12 13  2  0
 13 14  1  0
 14 15  2  0
 15 16  1  0
 16 17  1  0
 18 17  1  1
 18 19  1  0
 19 20  1  0
 20 21  2  0
 18 22  1  0
 22 23  1  6
 22 24  1  0
 24 25  1  0
 25 26  1  0
 26 27  1  0
 27 28  1  0
 26 29  1  0
 29 30  2  0
 30 31  1  0
 31 32  2  0
 32 33  1  0
 33 34  1  0
 33 35  2  0
 16 36  2  0
 20  2  1  0
 28 26  1  0
 35 29  1  0
 36 12  1  0
M  END
$$$$
