
     RDKit          3D

 36 39  0  0  0  0  0  0  0  0999 V2000
  -16.8702  -41.5081  -11.8876 C   0  0  0  0  0  0  0  0  0  0  0  0
  -16.1694  -40.9298  -10.6621 C   0  0  2  0  0  0  0  0  0  0  0  0
  -15.6808  -41.9971   -9.7392 C   0  0  0  0  0  0  0  0  0  0  0  0
  -15.3401  -43.5496  -10.4106 S   0  0  0  0  0  6  0  0  0  0  0  0
  -16.6586  -44.3046  -10.5546 O   0  0  0  0  0  0  0  0  0  0  0  0
  -14.5831  -44.3439   -9.3471 O   0  0  0  0  0  0  0  0  0  0  0  0
  -14.4810  -43.6666  -11.8957 C   0  0  0  0  0  0  0  0  0  0  0  0
  -13.4506  -42.6442  -12.2108 C   0  0  0  0  0  0  0  0  0  0  0  0
  -12.3522  -42.5386  -11.1745 C   0  0  0  0  0  0  0  0  0  0  0  0
  -11.1834  -41.7419  -11.7131 C   0  0  0  0  0  0  0  0  0  0  0  0
  -11.4488  -40.4054  -11.7077 O   0  0  0  0  0  0  0  0  0  0  0  0
  -12.3729  -39.5015  -11.2229 C   0  0  0  0  0  0  0  0  0  0  0  0
  -12.8441  -38.6831  -12.2715 C   0  0  0  0  0  0  0  0  0  0  0  0
  -13.7724  -37.6922  -12.0891 C   0  0  0  0  0  0  0  0  0  0  0  0
  -14.2164  -37.5497  -10.7977 C   0  0  0  0  0  0  0  0  0  0  0  0
  -13.7741  -38.3422   -9.7179 C   0  0  0  0  0  0  0  0  0  0  0  0
  -14.4816  -37.9231   -8.4780 C   0  0  0  0  0  0  0  0  0  0  0  0
  -15.7537  -38.6610   -8.2338 C   0  0  2  0  0  0  0  0  0  0  0  0
  -16.6684  -38.7757   -9.3107 N   0  0  0  0  0  0  0  0  0  0  0  0
  -17.0561  -39.9270  -10.0244 C   0  0  0  0  0  0  0  0  0  0  0  0
  -18.3144  -40.1888  -10.1719 O   0  0  0  0  0  0  0  0  0  0  0  0
  -16.4173  -38.1632   -6.9562 C   0  0  2  0  0  0  0  0  0  0  0  0
  -16.0024  -39.1461   -5.9801 O   0  0  0  0  0  0  0  0  0  0  0  0
  -17.8869  -38.2596   -6.9731 C   0  0  0  0  0  0  0  0  0  0  0  0
  -18.5910  -39.2724   -6.3621 N   0  0  0  0  0  0  0  0  0  0  0  0
  -19.9674  -39.4395   -6.3700 C   0  0  0  0  0  0  0  0  0  0  0  0
  -20.8492  -38.6306   -5.4329 C   0  0  0  0  0  0  0  0  0  0  0  0
  -20.7444  -40.1160   -5.3108 C   0  0  0  0  0  0  0  0  0  0  0  0
  -20.5203  -39.6467   -7.7712 C   0  0  0  0  0  0  0  0  0  0  0  0
  -20.4272  -40.9141   -8.2978 C   0  0  0  0  0  0  0  0  0  0  0  0
  -20.9299  -41.1425   -9.5730 C   0  0  0  0  0  0  0  0  0  0  0  0
  -21.5136  -40.1400  -10.3152 C   0  0  0  0  0  0  0  0  0  0  0  0
  -21.5865  -38.8824   -9.7482 C   0  0  0  0  0  0  0  0  0  0  0  0
  -22.3861  -37.4631  -10.7381 Br  0  0  0  0  0  0  0  0  0  0  0  0
  -21.0904  -38.6109   -8.4625 C   0  0  0  0  0  0  0  0  0  0  0  0
  -12.8393  -39.3319   -9.9337 C   0  0  0  0  0  0  0  0  0  0  0  0
  2  1  1  6
  2  3  1  0
  3  4  1  0
  4  5  2  0
  4  6  2  0
  4  7  1  0
  7  8  1  0
  8  9  1  0
  9 10  1  0
 10 11  1  0
 11 12  1  0
 12 13  2  0
 13 14  1  0
 14 15  2  0
 15 16  1  0
 16 17  1  0
 18 17  1  6
 18 19  1  0
 19 20  1  0
 20 21  2  0
 18 22  1  0
 22 23  1  1
 22 24  1  0
 24 25  1  0
 25 26  1  0
 26 27  1  0
 27 28  1  0
 26 29  1  0
 29 30  2  0
 30 31  1  0
 31 32  2  0
 32 33  1  0
 33 34  1  0
 33 35  2  0
 16 36  2  0
 20  2  1  0
 28 26  1  0
 35 29  1  0
 36 12  1  0
M  END
$$$$
