
     RDKit          3D

 36 39  0  0  0  0  0  0  0  0999 V2000
  -19.4434  -42.8795   -7.2752 C   0  0  0  0  0  0  0  0  0  0  0  0
  -19.2405  -41.4738   -7.8323 C   0  0  2  0  0  0  0  0  0  0  0  0
  -19.6614  -41.3703   -9.2612 C   0  0  0  0  0  0  0  0  0  0  0  0
  -20.8535  -42.4790   -9.8329 S   0  0  0  0  0  6  0  0  0  0  0  0
  -20.1591  -43.7998  -10.1532 O   0  0  0  0  0  0  0  0  0  0  0  0
  -21.3193  -41.9751  -11.1981 O   0  0  0  0  0  0  0  0  0  0  0  0
  -22.2393  -42.8122   -8.8707 C   0  0  0  0  0  0  0  0  0  0  0  0
  -22.7943  -41.7330   -8.0141 C   0  0  0  0  0  0  0  0  0  0  0  0
  -23.1842  -40.4836   -8.7748 C   0  0  0  0  0  0  0  0  0  0  0  0
  -24.0389  -39.5782   -7.9141 C   0  0  0  0  0  0  0  0  0  0  0  0
  -23.2845  -38.9033   -7.0018 O   0  0  0  0  0  0  0  0  0  0  0  0
  -21.9654  -38.6375   -6.6931 C   0  0  0  0  0  0  0  0  0  0  0  0
  -21.7135  -38.9501   -5.3403 C   0  0  0  0  0  0  0  0  0  0  0  0
  -20.4877  -38.7892   -4.7500 C   0  0  0  0  0  0  0  0  0  0  0  0
  -19.5102  -38.2953   -5.5780 C   0  0  0  0  0  0  0  0  0  0  0  0
  -19.7148  -37.9677   -6.9345 C   0  0  0  0  0  0  0  0  0  0  0  0
  -18.4362  -37.4844   -7.5221 C   0  0  0  0  0  0  0  0  0  0  0  0
  -17.6030  -38.5665   -8.1199 C   0  0  2  0  0  0  0  0  0  0  0  0
  -17.3823  -39.7340   -7.3469 N   0  0  0  0  0  0  0  0  0  0  0  0
  -17.8450  -41.0457   -7.5720 C   0  0  0  0  0  0  0  0  0  0  0  0
  -17.0019  -42.0269   -7.5616 O   0  0  0  0  0  0  0  0  0  0  0  0
  -16.3117  -37.9890   -8.6849 C   0  0  2  0  0  0  0  0  0  0  0  0
  -16.7683  -36.7970   -9.3642 O   0  0  0  0  0  0  0  0  0  0  0  0
  -15.7087  -38.8101   -9.7488 C   0  0  0  0  0  0  0  0  0  0  0  0
  -14.5522  -39.5385   -9.5857 N   0  0  0  0  0  0  0  0  0  0  0  0
  -13.8299  -40.1715  -10.5857 C   0  0  0  0  0  0  0  0  0  0  0  0
  -13.3387  -39.3929  -11.7951 C   0  0  0  0  0  0  0  0  0  0  0  0
  -14.3468  -40.4868  -11.9337 C   0  0  0  0  0  0  0  0  0  0  0  0
  -12.8604  -41.2064  -10.0371 C   0  0  0  0  0  0  0  0  0  0  0  0
  -12.0708  -41.8673  -10.9493 C   0  0  0  0  0  0  0  0  0  0  0  0
  -11.1668  -42.8141  -10.4831 C   0  0  0  0  0  0  0  0  0  0  0  0
  -11.0436  -43.1040   -9.1425 C   0  0  0  0  0  0  0  0  0  0  0  0
  -11.8557  -42.4170   -8.2610 C   0  0  0  0  0  0  0  0  0  0  0  0
  -11.7205  -42.7847   -6.3955 Br  0  0  0  0  0  0  0  0  0  0  0  0
  -12.7816  -41.4528   -8.6922 C   0  0  0  0  0  0  0  0  0  0  0  0
  -20.9599  -38.1413   -7.4999 C   0  0  0  0  0  0  0  0  0  0  0  0
  2  1  1  6
  2  3  1  0
  3  4  1  0
  4  5  2  0
  4  6  2  0
  4  7  1  0
  7  8  1  0
  8  9  1  0
  9 10  1  0
 10 11  1  0
 11 12  1  0
 12 13  2  0
 13 14  1  0
 14 15  2  0
 15 16  1  0
 16 17  1  0
 18 17  1  1
 18 19  1  0
 19 20  1  0
 20 21  2  0
 18 22  1  0
 22 23  1  6
 22 24  1  0
 24 25  1  0
 25 26  1  0
 26 27  1  0
 27 28  1  0
 26 29  1  0
 29 30  2  0
 30 31  1  0
 31 32  2  0
 32 33  1  0
 33 34  1  0
 33 35  2  0
 16 36  2  0
 20  2  1  0
 28 26  1  0
 35 29  1  0
 36 12  1  0
M  END
$$$$
