
     RDKit          3D

 36 39  0  0  0  0  0  0  0  0999 V2000
  -19.2046  -43.0849   -5.7872 C   0  0  0  0  0  0  0  0  0  0  0  0
  -19.2410  -41.9535   -6.8100 C   0  0  2  0  0  0  0  0  0  0  0  0
  -19.3884  -42.4633   -8.2057 C   0  0  0  0  0  0  0  0  0  0  0  0
  -20.1446  -43.9982   -8.4277 S   0  0  0  0  0  6  0  0  0  0  0  0
  -19.1047  -45.0831   -8.1619 O   0  0  0  0  0  0  0  0  0  0  0  0
  -20.4432  -44.1415   -9.9194 O   0  0  0  0  0  0  0  0  0  0  0  0
  -21.5697  -44.3824   -7.5451 C   0  0  0  0  0  0  0  0  0  0  0  0
  -22.5232  -43.2931   -7.2128 C   0  0  0  0  0  0  0  0  0  0  0  0
  -23.0464  -42.5444   -8.4201 C   0  0  0  0  0  0  0  0  0  0  0  0
  -24.2440  -41.6975   -8.0467 C   0  0  0  0  0  0  0  0  0  0  0  0
  -23.8661  -40.5658   -7.3886 O   0  0  0  0  0  0  0  0  0  0  0  0
  -22.7354  -39.8360   -7.0804 C   0  0  0  0  0  0  0  0  0  0  0  0
  -22.6838  -39.5886   -5.6921 C   0  0  0  0  0  0  0  0  0  0  0  0
  -21.6714  -38.8859   -5.0935 C   0  0  0  0  0  0  0  0  0  0  0  0
  -20.6994  -38.4332   -5.9510 C   0  0  0  0  0  0  0  0  0  0  0  0
  -20.7089  -38.6544   -7.3440 C   0  0  0  0  0  0  0  0  0  0  0  0
  -19.4948  -38.0420   -7.9477 C   0  0  0  0  0  0  0  0  0  0  0  0
  -18.3262  -38.9653   -8.0142 C   0  0  2  0  0  0  0  0  0  0  0  0
  -17.9862  -39.6864   -6.8422 N   0  0  0  0  0  0  0  0  0  0  0  0
  -18.0673  -41.0722   -6.6002 C   0  0  0  0  0  0  0  0  0  0  0  0
  -17.0318  -41.6986   -6.1430 O   0  0  0  0  0  0  0  0  0  0  0  0
  -17.1269  -38.2573   -8.6313 C   0  0  2  0  0  0  0  0  0  0  0  0
  -17.6982  -37.6273   -9.8008 O   0  0  0  0  0  0  0  0  0  0  0  0
  -16.1072  -39.1741   -9.1689 C   0  0  0  0  0  0  0  0  0  0  0  0
  -14.8143  -39.2344   -8.7005 N   0  0  0  0  0  0  0  0  0  0  0  0
  -13.6740  -39.4578   -9.4571 C   0  0  0  0  0  0  0  0  0  0  0  0
  -12.2940  -39.2560   -8.8528 C   0  0  0  0  0  0  0  0  0  0  0  0
  -12.7818  -38.4006   -9.9765 C   0  0  0  0  0  0  0  0  0  0  0  0
  -13.8139  -40.6580  -10.3799 C   0  0  0  0  0  0  0  0  0  0  0  0
  -14.4282  -40.4450  -11.5923 C   0  0  0  0  0  0  0  0  0  0  0  0
  -14.5660  -41.5175  -12.4650 C   0  0  0  0  0  0  0  0  0  0  0  0
  -14.1067  -42.7766  -12.1486 C   0  0  0  0  0  0  0  0  0  0  0  0
  -13.4961  -42.9462  -10.9211 C   0  0  0  0  0  0  0  0  0  0  0  0
  -12.8445  -44.6716  -10.4393 Br  0  0  0  0  0  0  0  0  0  0  0  0
  -13.3374  -41.8880  -10.0112 C   0  0  0  0  0  0  0  0  0  0  0  0
  -21.7415  -39.3658   -7.9165 C   0  0  0  0  0  0  0  0  0  0  0  0
  2  1  1  1
  2  3  1  0
  3  4  1  0
  4  5  2  0
  4  6  2  0
  4  7  1  0
  7  8  1  0
  8  9  1  0
  9 10  1  0
 10 11  1  0
 11 12  1  0
 12 13  2  0
 13 14  1  0
 14 15  2  0
 15 16  1  0
 16 17  1  0
 18 17  1  1
 18 19  1  0
 19 20  1  0
 20 21  2  0
 18 22  1  0
 22 23  1  6
 22 24  1  0
 24 25  1  0
 25 26  1  0
 26 27  1  0
 27 28  1  0
 26 29  1  0
 29 30  2  0
 30 31  1  0
 31 32  2  0
 32 33  1  0
 33 34  1  0
 33 35  2  0
 16 36  2  0
 20  2  1  0
 28 26  1  0
 35 29  1  0
 36 12  1  0
M  END
$$$$
