
     RDKit          3D

 36 39  0  0  0  0  0  0  0  0999 V2000
  -19.0318  -43.4314   -6.6666 C   0  0  0  0  0  0  0  0  0  0  0  0
  -18.8475  -42.1268   -7.4356 C   0  0  2  0  0  0  0  0  0  0  0  0
  -18.8690  -42.3388   -8.9135 C   0  0  0  0  0  0  0  0  0  0  0  0
  -19.7219  -43.7111   -9.5189 S   0  0  0  0  0  6  0  0  0  0  0  0
  -18.8186  -44.9329   -9.3762 O   0  0  0  0  0  0  0  0  0  0  0  0
  -19.8499  -43.5308  -11.0308 O   0  0  0  0  0  0  0  0  0  0  0  0
  -21.2706  -44.1018   -8.8814 C   0  0  0  0  0  0  0  0  0  0  0  0
  -22.1601  -43.0004   -8.4320 C   0  0  0  0  0  0  0  0  0  0  0  0
  -22.4678  -41.9808   -9.5078 C   0  0  0  0  0  0  0  0  0  0  0  0
  -23.6245  -41.0974   -9.0924 C   0  0  0  0  0  0  0  0  0  0  0  0
  -23.2328  -40.1615   -8.1828 O   0  0  0  0  0  0  0  0  0  0  0  0
  -22.0890  -39.6315   -7.6199 C   0  0  0  0  0  0  0  0  0  0  0  0
  -22.1838  -39.6637   -6.2123 C   0  0  0  0  0  0  0  0  0  0  0  0
  -21.1943  -39.2033   -5.3842 C   0  0  0  0  0  0  0  0  0  0  0  0
  -20.0908  -38.7015   -6.0289 C   0  0  0  0  0  0  0  0  0  0  0  0
  -19.9515  -38.6476   -7.4314 C   0  0  0  0  0  0  0  0  0  0  0  0
  -18.6254  -38.0652   -7.7720 C   0  0  0  0  0  0  0  0  0  0  0  0
  -17.5410  -39.0793   -7.9071 C   0  0  2  0  0  0  0  0  0  0  0  0
  -17.4078  -40.0454   -6.8784 N   0  0  0  0  0  0  0  0  0  0  0  0
  -17.6362  -41.4347   -6.9334 C   0  0  0  0  0  0  0  0  0  0  0  0
  -16.7210  -42.2458   -6.5114 O   0  0  0  0  0  0  0  0  0  0  0  0
  -16.2198  -38.3995   -8.2428 C   0  0  2  0  0  0  0  0  0  0  0  0
  -16.5754  -37.5485   -9.3564 O   0  0  0  0  0  0  0  0  0  0  0  0
  -15.2027  -39.3140   -8.7891 C   0  0  0  0  0  0  0  0  0  0  0  0
  -13.9004  -38.9439   -9.0378 N   0  0  0  0  0  0  0  0  0  0  0  0
  -13.1553  -39.2597  -10.1636 C   0  0  0  0  0  0  0  0  0  0  0  0
  -11.6484  -39.0614  -10.1735 C   0  0  0  0  0  0  0  0  0  0  0  0
  -12.5407  -38.2734  -11.0763 C   0  0  0  0  0  0  0  0  0  0  0  0
  -13.6533  -40.5180  -10.8568 C   0  0  0  0  0  0  0  0  0  0  0  0
  -14.0418  -40.3947  -12.1707 C   0  0  0  0  0  0  0  0  0  0  0  0
  -14.4945  -41.5259  -12.8388 C   0  0  0  0  0  0  0  0  0  0  0  0
  -14.5630  -42.7558  -12.2232 C   0  0  0  0  0  0  0  0  0  0  0  0
  -14.1630  -42.8348  -10.9032 C   0  0  0  0  0  0  0  0  0  0  0  0
  -14.2401  -44.5167  -10.0093 Br  0  0  0  0  0  0  0  0  0  0  0  0
  -13.6993  -41.7151  -10.1932 C   0  0  0  0  0  0  0  0  0  0  0  0
  -20.9649  -39.1192   -8.2381 C   0  0  0  0  0  0  0  0  0  0  0  0
  2  1  1  1
  2  3  1  0
  3  4  1  0
  4  5  2  0
  4  6  2  0
  4  7  1  0
  7  8  1  0
  8  9  1  0
  9 10  1  0
 10 11  1  0
 11 12  1  0
 12 13  2  0
 13 14  1  0
 14 15  2  0
 15 16  1  0
 16 17  1  0
 18 17  1  1
 18 19  1  0
 19 20  1  0
 20 21  2  0
 18 22  1  0
 22 23  1  6
 22 24  1  0
 24 25  1  0
 25 26  1  0
 26 27  1  0
 27 28  1  0
 26 29  1  0
 29 30  2  0
 30 31  1  0
 31 32  2  0
 32 33  1  0
 33 34  1  0
 33 35  2  0
 16 36  2  0
 20  2  1  0
 28 26  1  0
 35 29  1  0
 36 12  1  0
M  END
$$$$
