
     RDKit          3D

 36 39  0  0  0  0  0  0  0  0999 V2000
  -19.3952  -43.3077   -6.4155 C   0  0  0  0  0  0  0  0  0  0  0  0
  -19.1700  -42.1259   -7.3536 C   0  0  2  0  0  0  0  0  0  0  0  0
  -19.2831  -42.5197   -8.7895 C   0  0  0  0  0  0  0  0  0  0  0  0
  -20.2517  -43.8947   -9.1745 S   0  0  0  0  0  6  0  0  0  0  0  0
  -19.4209  -45.1486   -8.9160 O   0  0  0  0  0  0  0  0  0  0  0  0
  -20.4480  -43.8972  -10.6899 O   0  0  0  0  0  0  0  0  0  0  0  0
  -21.7859  -44.0942   -8.4238 C   0  0  0  0  0  0  0  0  0  0  0  0
  -22.5793  -42.8861   -8.0808 C   0  0  0  0  0  0  0  0  0  0  0  0
  -22.8786  -41.9908   -9.2641 C   0  0  0  0  0  0  0  0  0  0  0  0
  -23.9537  -40.9842   -8.9149 C   0  0  0  0  0  0  0  0  0  0  0  0
  -23.4562  -39.9710   -8.1517 O   0  0  0  0  0  0  0  0  0  0  0  0
  -22.2530  -39.4550   -7.7132 C   0  0  0  0  0  0  0  0  0  0  0  0
  -22.2750  -39.3036   -6.3104 C   0  0  0  0  0  0  0  0  0  0  0  0
  -21.2160  -38.8126   -5.5932 C   0  0  0  0  0  0  0  0  0  0  0  0
  -20.1188  -38.4733   -6.3456 C   0  0  0  0  0  0  0  0  0  0  0  0
  -20.0508  -38.6056   -7.7482 C   0  0  0  0  0  0  0  0  0  0  0  0
  -18.7106  -38.1638   -8.2196 C   0  0  0  0  0  0  0  0  0  0  0  0
  -17.7009  -39.2595   -8.2712 C   0  0  2  0  0  0  0  0  0  0  0  0
  -17.5746  -40.0957   -7.1336 N   0  0  0  0  0  0  0  0  0  0  0  0
  -17.8927  -41.4618   -6.9991 C   0  0  0  0  0  0  0  0  0  0  0  0
  -17.0093  -42.2749   -6.5173 O   0  0  0  0  0  0  0  0  0  0  0  0
  -16.3592  -38.7203   -8.7501 C   0  0  2  0  0  0  0  0  0  0  0  0
  -16.7337  -37.8918   -9.8744 O   0  0  0  0  0  0  0  0  0  0  0  0
  -15.4776  -39.7487   -9.3287 C   0  0  0  0  0  0  0  0  0  0  0  0
  -14.2170  -40.0276   -8.8515 N   0  0  0  0  0  0  0  0  0  0  0  0
  -13.0204  -39.8356   -9.5250 C   0  0  0  0  0  0  0  0  0  0  0  0
  -11.9311  -40.8947   -9.4823 C   0  0  0  0  0  0  0  0  0  0  0  0
  -11.7233  -39.5431   -8.8804 C   0  0  0  0  0  0  0  0  0  0  0  0
  -13.2124  -39.1497  -10.8683 C   0  0  0  0  0  0  0  0  0  0  0  0
  -13.0993  -39.9351  -11.9920 C   0  0  0  0  0  0  0  0  0  0  0  0
  -13.2770  -39.3437  -13.2368 C   0  0  0  0  0  0  0  0  0  0  0  0
  -13.5610  -38.0029  -13.3715 C   0  0  0  0  0  0  0  0  0  0  0  0
  -13.6659  -37.2511  -12.2172 C   0  0  0  0  0  0  0  0  0  0  0  0
  -14.0578  -35.3906  -12.3539 Br  0  0  0  0  0  0  0  0  0  0  0  0
  -13.4934  -37.8112  -10.9407 C   0  0  0  0  0  0  0  0  0  0  0  0
  -21.1332  -39.1035   -8.4416 C   0  0  0  0  0  0  0  0  0  0  0  0
  2  1  1  1
  2  3  1  0
  3  4  1  0
  4  5  2  0
  4  6  2  0
  4  7  1  0
  7  8  1  0
  8  9  1  0
  9 10  1  0
 10 11  1  0
 11 12  1  0
 12 13  2  0
 13 14  1  0
 14 15  2  0
 15 16  1  0
 16 17  1  0
 18 17  1  1
 18 19  1  0
 19 20  1  0
 20 21  2  0
 18 22  1  0
 22 23  1  6
 22 24  1  0
 24 25  1  0
 25 26  1  0
 26 27  1  0
 27 28  1  0
 26 29  1  0
 29 30  2  0
 30 31  1  0
 31 32  2  0
 32 33  1  0
 33 34  1  0
 33 35  2  0
 16 36  2  0
 20  2  1  0
 28 26  1  0
 35 29  1  0
 36 12  1  0
M  END
$$$$
