
     RDKit          3D

 36 39  0  0  0  0  0  0  0  0999 V2000
  -20.2964  -43.5610   -6.7299 C   0  0  0  0  0  0  0  0  0  0  0  0
  -19.8590  -42.4114   -7.6325 C   0  0  2  0  0  0  0  0  0  0  0  0
  -20.0698  -42.7214   -9.0779 C   0  0  0  0  0  0  0  0  0  0  0  0
  -21.2949  -43.8655   -9.4867 S   0  0  0  0  0  6  0  0  0  0  0  0
  -20.7217  -45.2662   -9.2898 O   0  0  0  0  0  0  0  0  0  0  0  0
  -21.5120  -43.7728  -10.9964 O   0  0  0  0  0  0  0  0  0  0  0  0
  -22.8264  -43.7898   -8.7082 C   0  0  0  0  0  0  0  0  0  0  0  0
  -23.3622  -42.4639   -8.3065 C   0  0  0  0  0  0  0  0  0  0  0  0
  -23.4992  -41.4836   -9.4518 C   0  0  0  0  0  0  0  0  0  0  0  0
  -24.3507  -40.3004   -9.0443 C   0  0  0  0  0  0  0  0  0  0  0  0
  -23.6523  -39.4331   -8.2590 O   0  0  0  0  0  0  0  0  0  0  0  0
  -22.3646  -39.1787   -7.8310 C   0  0  0  0  0  0  0  0  0  0  0  0
  -22.3342  -39.0787   -6.4238 C   0  0  0  0  0  0  0  0  0  0  0  0
  -21.1883  -38.8310   -5.7150 C   0  0  0  0  0  0  0  0  0  0  0  0
  -20.0580  -38.6844   -6.4805 C   0  0  0  0  0  0  0  0  0  0  0  0
  -20.0395  -38.7746   -7.8879 C   0  0  0  0  0  0  0  0  0  0  0  0
  -18.6464  -38.5855   -8.3748 C   0  0  0  0  0  0  0  0  0  0  0  0
  -17.8718  -39.8544   -8.4864 C   0  0  2  0  0  0  0  0  0  0  0  0
  -17.8936  -40.7413   -7.3809 N   0  0  0  0  0  0  0  0  0  0  0  0
  -18.4708  -42.0231   -7.2852 C   0  0  0  0  0  0  0  0  0  0  0  0
  -17.7563  -43.0105   -6.8514 O   0  0  0  0  0  0  0  0  0  0  0  0
  -16.4582  -39.5699   -8.9775 C   0  0  2  0  0  0  0  0  0  0  0  0
  -16.6776  -38.6067  -10.0335 O   0  0  0  0  0  0  0  0  0  0  0  0
  -15.8210  -40.7146   -9.6506 C   0  0  0  0  0  0  0  0  0  0  0  0
  -14.4677  -40.9632   -9.6135 N   0  0  0  0  0  0  0  0  0  0  0  0
  -13.5656  -40.7658  -10.6477 C   0  0  0  0  0  0  0  0  0  0  0  0
  -13.8190  -39.6997  -11.7011 C   0  0  0  0  0  0  0  0  0  0  0  0
  -13.7943  -41.1508  -12.0559 C   0  0  0  0  0  0  0  0  0  0  0  0
  -12.1210  -40.9062  -10.1946 C   0  0  0  0  0  0  0  0  0  0  0  0
  -11.1470  -40.7247  -11.1489 C   0  0  0  0  0  0  0  0  0  0  0  0
   -9.8151  -40.8370  -10.7689 C   0  0  0  0  0  0  0  0  0  0  0  0
   -9.4502  -41.1231   -9.4722 C   0  0  0  0  0  0  0  0  0  0  0  0
  -10.4602  -41.2977   -8.5459 C   0  0  0  0  0  0  0  0  0  0  0  0
  -10.0032  -41.6952   -6.7385 Br  0  0  0  0  0  0  0  0  0  0  0  0
  -11.8179  -41.1922   -8.8899 C   0  0  0  0  0  0  0  0  0  0  0  0
  -21.2093  -39.0253   -8.5727 C   0  0  0  0  0  0  0  0  0  0  0  0
  2  1  1  1
  2  3  1  0
  3  4  1  0
  4  5  2  0
  4  6  2  0
  4  7  1  0
  7  8  1  0
  8  9  1  0
  9 10  1  0
 10 11  1  0
 11 12  1  0
 12 13  2  0
 13 14  1  0
 14 15  2  0
 15 16  1  0
 16 17  1  0
 18 17  1  1
 18 19  1  0
 19 20  1  0
 20 21  2  0
 18 22  1  0
 22 23  1  6
 22 24  1  0
 24 25  1  0
 25 26  1  0
 26 27  1  0
 27 28  1  0
 26 29  1  0
 29 30  2  0
 30 31  1  0
 31 32  2  0
 32 33  1  0
 33 34  1  0
 33 35  2  0
 16 36  2  0
 20  2  1  0
 28 26  1  0
 35 29  1  0
 36 12  1  0
M  END
$$$$
