
     RDKit          3D

 36 39  0  0  0  0  0  0  0  0999 V2000
  -16.1168  -42.4562  -12.1236 C   0  0  0  0  0  0  0  0  0  0  0  0
  -15.7039  -41.8635  -10.7797 C   0  0  2  0  0  0  0  0  0  0  0  0
  -15.4610  -42.9190   -9.7519 C   0  0  0  0  0  0  0  0  0  0  0  0
  -15.0065  -44.4902  -10.3014 S   0  0  0  0  0  6  0  0  0  0  0  0
  -16.2717  -45.2274  -10.7315 O   0  0  0  0  0  0  0  0  0  0  0  0
  -14.5291  -45.2739   -9.0796 O   0  0  0  0  0  0  0  0  0  0  0  0
  -13.8326  -44.6511  -11.5477 C   0  0  0  0  0  0  0  0  0  0  0  0
  -12.7373  -43.6516  -11.6349 C   0  0  0  0  0  0  0  0  0  0  0  0
  -11.9036  -43.5417  -10.3762 C   0  0  0  0  0  0  0  0  0  0  0  0
  -10.6269  -42.7745  -10.6455 C   0  0  0  0  0  0  0  0  0  0  0  0
  -10.8600  -41.4342  -10.7232 O   0  0  0  0  0  0  0  0  0  0  0  0
  -11.8524  -40.5062  -10.4783 C   0  0  0  0  0  0  0  0  0  0  0  0
  -12.0545  -39.7025  -11.6204 C   0  0  0  0  0  0  0  0  0  0  0  0
  -12.9801  -38.6938  -11.6723 C   0  0  0  0  0  0  0  0  0  0  0  0
  -13.7051  -38.5177  -10.5197 C   0  0  0  0  0  0  0  0  0  0  0  0
  -13.5378  -39.2944   -9.3544 C   0  0  0  0  0  0  0  0  0  0  0  0
  -14.5020  -38.8389   -8.3168 C   0  0  0  0  0  0  0  0  0  0  0  0
  -15.8106  -39.5518   -8.3588 C   0  0  2  0  0  0  0  0  0  0  0  0
  -16.4563  -39.6745   -9.6147 N   0  0  0  0  0  0  0  0  0  0  0  0
  -16.6931  -40.8342  -10.3792 C   0  0  0  0  0  0  0  0  0  0  0  0
  -17.8891  -41.0794  -10.8070 O   0  0  0  0  0  0  0  0  0  0  0  0
  -16.7391  -39.0174   -7.2759 C   0  0  2  0  0  0  0  0  0  0  0  0
  -16.5257  -39.9467   -6.1888 O   0  0  0  0  0  0  0  0  0  0  0  0
  -18.1697  -39.1527   -7.5995 C   0  0  0  0  0  0  0  0  0  0  0  0
  -19.0590  -38.1024   -7.5741 N   0  0  0  0  0  0  0  0  0  0  0  0
  -20.4386  -38.1939   -7.4709 C   0  0  0  0  0  0  0  0  0  0  0  0
  -21.2547  -37.0190   -6.9573 C   0  0  0  0  0  0  0  0  0  0  0  0
  -21.1873  -38.3062   -6.2019 C   0  0  0  0  0  0  0  0  0  0  0  0
  -21.0585  -38.9651   -8.6254 C   0  0  0  0  0  0  0  0  0  0  0  0
  -21.6850  -40.1509   -8.3190 C   0  0  0  0  0  0  0  0  0  0  0  0
  -22.2704  -40.8784   -9.3481 C   0  0  0  0  0  0  0  0  0  0  0  0
  -22.2388  -40.4451  -10.6549 C   0  0  0  0  0  0  0  0  0  0  0  0
  -21.5994  -39.2491  -10.9180 C   0  0  0  0  0  0  0  0  0  0  0  0
  -21.5302  -38.6091  -12.7123 Br  0  0  0  0  0  0  0  0  0  0  0  0
  -20.9958  -38.4843   -9.9063 C   0  0  0  0  0  0  0  0  0  0  0  0
  -12.5982  -40.3028   -9.3335 C   0  0  0  0  0  0  0  0  0  0  0  0
  2  1  1  6
  2  3  1  0
  3  4  1  0
  4  5  2  0
  4  6  2  0
  4  7  1  0
  7  8  1  0
  8  9  1  0
  9 10  1  0
 10 11  1  0
 11 12  1  0
 12 13  2  0
 13 14  1  0
 14 15  2  0
 15 16  1  0
 16 17  1  0
 18 17  1  6
 18 19  1  0
 19 20  1  0
 20 21  2  0
 18 22  1  0
 22 23  1  1
 22 24  1  0
 24 25  1  0
 25 26  1  0
 26 27  1  0
 27 28  1  0
 26 29  1  0
 29 30  2  0
 30 31  1  0
 31 32  2  0
 32 33  1  0
 33 34  1  0
 33 35  2  0
 16 36  2  0
 20  2  1  0
 28 26  1  0
 35 29  1  0
 36 12  1  0
M  END
$$$$
