
     RDKit          3D

 36 39  0  0  0  0  0  0  0  0999 V2000
  -19.6837  -43.7203   -6.6116 C   0  0  0  0  0  0  0  0  0  0  0  0
  -19.2542  -42.4388   -7.3194 C   0  0  2  0  0  0  0  0  0  0  0  0
  -19.1429  -42.6242   -8.7968 C   0  0  0  0  0  0  0  0  0  0  0  0
  -20.0921  -43.8661   -9.5274 S   0  0  0  0  0  6  0  0  0  0  0  0
  -19.3710  -45.1959   -9.3257 O   0  0  0  0  0  0  0  0  0  0  0  0
  -20.0326  -43.6482  -11.0387 O   0  0  0  0  0  0  0  0  0  0  0  0
  -21.7373  -44.0639   -9.0675 C   0  0  0  0  0  0  0  0  0  0  0  0
  -22.5238  -42.8641   -8.6826 C   0  0  0  0  0  0  0  0  0  0  0  0
  -22.5825  -41.7974   -9.7551 C   0  0  0  0  0  0  0  0  0  0  0  0
  -23.6564  -40.7788   -9.4383 C   0  0  0  0  0  0  0  0  0  0  0  0
  -23.2500  -39.9149   -8.4662 O   0  0  0  0  0  0  0  0  0  0  0  0
  -22.1158  -39.5449   -7.7714 C   0  0  0  0  0  0  0  0  0  0  0  0
  -22.3651  -39.5856   -6.3830 C   0  0  0  0  0  0  0  0  0  0  0  0
  -21.4204  -39.2688   -5.4427 C   0  0  0  0  0  0  0  0  0  0  0  0
  -20.1994  -38.9036   -5.9534 C   0  0  0  0  0  0  0  0  0  0  0  0
  -19.9041  -38.8470   -7.3314 C   0  0  0  0  0  0  0  0  0  0  0  0
  -18.4861  -38.4350   -7.5141 C   0  0  0  0  0  0  0  0  0  0  0  0
  -17.5303  -39.5780   -7.5636 C   0  0  2  0  0  0  0  0  0  0  0  0
  -17.6318  -40.5685   -6.5547 N   0  0  0  0  0  0  0  0  0  0  0  0
  -18.0265  -41.9159   -6.6732 C   0  0  0  0  0  0  0  0  0  0  0  0
  -17.2719  -42.8442   -6.1808 O   0  0  0  0  0  0  0  0  0  0  0  0
  -16.1054  -39.0688   -7.7392 C   0  0  2  0  0  0  0  0  0  0  0  0
  -16.2567  -38.0461   -8.7502 O   0  0  0  0  0  0  0  0  0  0  0  0
  -15.1928  -40.0531   -8.3457 C   0  0  0  0  0  0  0  0  0  0  0  0
  -13.8307  -39.8758   -8.4337 N   0  0  0  0  0  0  0  0  0  0  0  0
  -12.9060  -40.8084   -8.8784 C   0  0  0  0  0  0  0  0  0  0  0  0
  -12.6814  -42.1006   -8.1103 C   0  0  0  0  0  0  0  0  0  0  0  0
  -11.6006  -41.0773   -8.2403 C   0  0  0  0  0  0  0  0  0  0  0  0
  -12.8928  -40.9380  -10.3932 C   0  0  0  0  0  0  0  0  0  0  0  0
  -13.4019  -39.8830  -11.1145 C   0  0  0  0  0  0  0  0  0  0  0  0
  -13.3982  -39.9630  -12.5017 C   0  0  0  0  0  0  0  0  0  0  0  0
  -12.9019  -41.0626  -13.1657 C   0  0  0  0  0  0  0  0  0  0  0  0
  -12.4001  -42.0993  -12.4028 C   0  0  0  0  0  0  0  0  0  0  0  0
  -11.7022  -43.6423  -13.2780 Br  0  0  0  0  0  0  0  0  0  0  0  0
  -12.3857  -42.0569  -10.9989 C   0  0  0  0  0  0  0  0  0  0  0  0
  -20.8760  -39.1722   -8.2532 C   0  0  0  0  0  0  0  0  0  0  0  0
  2  1  1  1
  2  3  1  0
  3  4  1  0
  4  5  2  0
  4  6  2  0
  4  7  1  0
  7  8  1  0
  8  9  1  0
  9 10  1  0
 10 11  1  0
 11 12  1  0
 12 13  2  0
 13 14  1  0
 14 15  2  0
 15 16  1  0
 16 17  1  0
 18 17  1  1
 18 19  1  0
 19 20  1  0
 20 21  2  0
 18 22  1  0
 22 23  1  6
 22 24  1  0
 24 25  1  0
 25 26  1  0
 26 27  1  0
 27 28  1  0
 26 29  1  0
 29 30  2  0
 30 31  1  0
 31 32  2  0
 32 33  1  0
 33 34  1  0
 33 35  2  0
 16 36  2  0
 20  2  1  0
 28 26  1  0
 35 29  1  0
 36 12  1  0
M  END
$$$$
