
     RDKit          3D

 36 39  0  0  0  0  0  0  0  0999 V2000
  -17.5806  -43.1411  -10.9796 C   0  0  0  0  0  0  0  0  0  0  0  0
  -16.8700  -42.3341   -9.8972 C   0  0  2  0  0  0  0  0  0  0  0  0
  -16.8086  -43.0689   -8.5988 C   0  0  0  0  0  0  0  0  0  0  0  0
  -16.8672  -44.7927   -8.6443 S   0  0  0  0  0  6  0  0  0  0  0  0
  -18.3265  -45.2147   -8.7920 O   0  0  0  0  0  0  0  0  0  0  0  0
  -16.4853  -45.2933   -7.2520 O   0  0  0  0  0  0  0  0  0  0  0  0
  -15.9331  -45.6473   -9.8082 C   0  0  0  0  0  0  0  0  0  0  0  0
  -14.6238  -45.0863  -10.2293 C   0  0  0  0  0  0  0  0  0  0  0  0
  -13.6531  -44.8678   -9.0884 C   0  0  0  0  0  0  0  0  0  0  0  0
  -12.2550  -44.6246   -9.6149 C   0  0  0  0  0  0  0  0  0  0  0  0
  -12.1200  -43.3582  -10.0992 O   0  0  0  0  0  0  0  0  0  0  0  0
  -12.7859  -42.1492  -10.1297 C   0  0  0  0  0  0  0  0  0  0  0  0
  -12.8904  -41.6888  -11.4595 C   0  0  0  0  0  0  0  0  0  0  0  0
  -13.5044  -40.5120  -11.7988 C   0  0  0  0  0  0  0  0  0  0  0  0
  -14.0164  -39.8035  -10.7400 C   0  0  0  0  0  0  0  0  0  0  0  0
  -13.9352  -40.2224   -9.3957 C   0  0  0  0  0  0  0  0  0  0  0  0
  -14.6124  -39.2221   -8.5270 C   0  0  0  0  0  0  0  0  0  0  0  0
  -16.0619  -39.4966   -8.3124 C   0  0  2  0  0  0  0  0  0  0  0  0
  -16.8563  -39.7814   -9.4513 N   0  0  0  0  0  0  0  0  0  0  0  0
  -17.4872  -40.9888   -9.8114 C   0  0  0  0  0  0  0  0  0  0  0  0
  -18.7456  -40.9826  -10.1115 O   0  0  0  0  0  0  0  0  0  0  0  0
  -16.6783  -38.4220   -7.4259 C   0  0  2  0  0  0  0  0  0  0  0  0
  -16.6154  -39.0212   -6.1115 O   0  0  0  0  0  0  0  0  0  0  0  0
  -18.1160  -38.2077   -7.6638 C   0  0  0  0  0  0  0  0  0  0  0  0
  -19.0250  -37.9575   -6.6610 N   0  0  0  0  0  0  0  0  0  0  0  0
  -20.4063  -37.9661   -6.7807 C   0  0  0  0  0  0  0  0  0  0  0  0
  -21.0707  -37.5767   -8.0911 C   0  0  0  0  0  0  0  0  0  0  0  0
  -21.2575  -36.7605   -6.8537 C   0  0  0  0  0  0  0  0  0  0  0  0
  -21.0468  -39.1322   -6.0446 C   0  0  0  0  0  0  0  0  0  0  0  0
  -20.4917  -39.4892   -4.8376 C   0  0  0  0  0  0  0  0  0  0  0  0
  -21.0564  -40.5452   -4.1328 C   0  0  0  0  0  0  0  0  0  0  0  0
  -22.1481  -41.2366   -4.6089 C   0  0  0  0  0  0  0  0  0  0  0  0
  -22.6740  -40.8450   -5.8249 C   0  0  0  0  0  0  0  0  0  0  0  0
  -24.1853  -41.7727   -6.5243 Br  0  0  0  0  0  0  0  0  0  0  0  0
  -22.1325  -39.7830   -6.5677 C   0  0  0  0  0  0  0  0  0  0  0  0
  -13.3112  -41.4119   -9.0863 C   0  0  0  0  0  0  0  0  0  0  0  0
  2  1  1  6
  2  3  1  0
  3  4  1  0
  4  5  2  0
  4  6  2  0
  4  7  1  0
  7  8  1  0
  8  9  1  0
  9 10  1  0
 10 11  1  0
 11 12  1  0
 12 13  2  0
 13 14  1  0
 14 15  2  0
 15 16  1  0
 16 17  1  0
 18 17  1  6
 18 19  1  0
 19 20  1  0
 20 21  2  0
 18 22  1  0
 22 23  1  1
 22 24  1  0
 24 25  1  0
 25 26  1  0
 26 27  1  0
 27 28  1  0
 26 29  1  0
 29 30  2  0
 30 31  1  0
 31 32  2  0
 32 33  1  0
 33 34  1  0
 33 35  2  0
 16 36  2  0
 20  2  1  0
 28 26  1  0
 35 29  1  0
 36 12  1  0
M  END
$$$$
