
     RDKit          3D

 36 39  0  0  0  0  0  0  0  0999 V2000
  -19.3475  -43.3166   -7.2397 C   0  0  0  0  0  0  0  0  0  0  0  0
  -18.9418  -42.0134   -7.9213 C   0  0  2  0  0  0  0  0  0  0  0  0
  -18.7707  -42.1807   -9.3952 C   0  0  0  0  0  0  0  0  0  0  0  0
  -19.6454  -43.4506  -10.1694 S   0  0  0  0  0  6  0  0  0  0  0  0
  -18.8821  -44.7542   -9.9524 O   0  0  0  0  0  0  0  0  0  0  0  0
  -19.5401  -43.2166  -11.6758 O   0  0  0  0  0  0  0  0  0  0  0  0
  -21.2973  -43.7144   -9.7709 C   0  0  0  0  0  0  0  0  0  0  0  0
  -22.1421  -42.5486   -9.4051 C   0  0  0  0  0  0  0  0  0  0  0  0
  -22.2027  -41.4750  -10.4706 C   0  0  0  0  0  0  0  0  0  0  0  0
  -23.3250  -40.5005  -10.1847 C   0  0  0  0  0  0  0  0  0  0  0  0
  -22.9867  -39.6309   -9.1917 O   0  0  0  0  0  0  0  0  0  0  0  0
  -21.8930  -39.2250   -8.4535 C   0  0  0  0  0  0  0  0  0  0  0  0
  -22.1901  -39.2880   -7.0754 C   0  0  0  0  0  0  0  0  0  0  0  0
  -21.2925  -38.9447   -6.0991 C   0  0  0  0  0  0  0  0  0  0  0  0
  -20.0687  -38.5290   -6.5624 C   0  0  0  0  0  0  0  0  0  0  0  0
  -19.7265  -38.4485   -7.9284 C   0  0  0  0  0  0  0  0  0  0  0  0
  -18.3196  -37.9819   -8.0564 C   0  0  0  0  0  0  0  0  0  0  0  0
  -17.3199  -39.0876   -8.0804 C   0  0  2  0  0  0  0  0  0  0  0  0
  -17.4199  -40.0906   -7.0837 N   0  0  0  0  0  0  0  0  0  0  0  0
  -17.7588  -41.4507   -7.2270 C   0  0  0  0  0  0  0  0  0  0  0  0
  -16.9876  -42.3545   -6.7151 O   0  0  0  0  0  0  0  0  0  0  0  0
  -15.9100  -38.5236   -8.2003 C   0  0  2  0  0  0  0  0  0  0  0  0
  -16.1406  -37.2103   -8.7596 O   0  0  0  0  0  0  0  0  0  0  0  0
  -15.0786  -39.2097   -9.2040 C   0  0  0  0  0  0  0  0  0  0  0  0
  -13.8974  -39.8503   -8.9055 N   0  0  0  0  0  0  0  0  0  0  0  0
  -12.8760  -40.1502   -9.7939 C   0  0  0  0  0  0  0  0  0  0  0  0
  -12.7544  -41.5432  -10.3897 C   0  0  0  0  0  0  0  0  0  0  0  0
  -11.7028  -40.9928   -9.4823 C   0  0  0  0  0  0  0  0  0  0  0  0
  -12.5787  -39.0036  -10.7472 C   0  0  0  0  0  0  0  0  0  0  0  0
  -11.8173  -39.2947  -11.8554 C   0  0  0  0  0  0  0  0  0  0  0  0
  -11.5328  -38.2730  -12.7532 C   0  0  0  0  0  0  0  0  0  0  0  0
  -11.9902  -36.9882  -12.5622 C   0  0  0  0  0  0  0  0  0  0  0  0
  -12.7514  -36.7398  -11.4363 C   0  0  0  0  0  0  0  0  0  0  0  0
  -13.4067  -34.9762  -11.1298 Br  0  0  0  0  0  0  0  0  0  0  0  0
  -13.0611  -37.7448  -10.5053 C   0  0  0  0  0  0  0  0  0  0  0  0
  -20.6518  -38.8016   -8.8872 C   0  0  0  0  0  0  0  0  0  0  0  0
  2  1  1  1
  2  3  1  0
  3  4  1  0
  4  5  2  0
  4  6  2  0
  4  7  1  0
  7  8  1  0
  8  9  1  0
  9 10  1  0
 10 11  1  0
 11 12  1  0
 12 13  2  0
 13 14  1  0
 14 15  2  0
 15 16  1  0
 16 17  1  0
 18 17  1  1
 18 19  1  0
 19 20  1  0
 20 21  2  0
 18 22  1  0
 22 23  1  6
 22 24  1  0
 24 25  1  0
 25 26  1  0
 26 27  1  0
 27 28  1  0
 26 29  1  0
 29 30  2  0
 30 31  1  0
 31 32  2  0
 32 33  1  0
 33 34  1  0
 33 35  2  0
 16 36  2  0
 20  2  1  0
 28 26  1  0
 35 29  1  0
 36 12  1  0
M  END
$$$$
