
     RDKit          3D

 36 39  0  0  0  0  0  0  0  0999 V2000
  -17.3738  -42.3431  -11.3237 C   0  0  0  0  0  0  0  0  0  0  0  0
  -16.5812  -41.4678  -10.3577 C   0  0  2  0  0  0  0  0  0  0  0  0
  -15.5397  -42.2449   -9.6220 C   0  0  0  0  0  0  0  0  0  0  0  0
  -14.9233  -43.6737  -10.3673 S   0  0  0  0  0  6  0  0  0  0  0  0
  -15.9162  -44.8057  -10.1184 O   0  0  0  0  0  0  0  0  0  0  0  0
  -13.6867  -44.0969   -9.5758 O   0  0  0  0  0  0  0  0  0  0  0  0
  -14.5235  -43.6585  -12.0398 C   0  0  0  0  0  0  0  0  0  0  0  0
  -14.0053  -42.4035  -12.6422 C   0  0  0  0  0  0  0  0  0  0  0  0
  -12.7546  -41.8721  -11.9751 C   0  0  0  0  0  0  0  0  0  0  0  0
  -12.1016  -40.8092  -12.8323 C   0  0  0  0  0  0  0  0  0  0  0  0
  -12.7673  -39.6234  -12.7459 O   0  0  0  0  0  0  0  0  0  0  0  0
  -13.7570  -39.0048  -12.0085 C   0  0  0  0  0  0  0  0  0  0  0  0
  -14.7384  -38.4700  -12.8700 C   0  0  0  0  0  0  0  0  0  0  0  0
  -15.8443  -37.7982  -12.4201 C   0  0  0  0  0  0  0  0  0  0  0  0
  -15.9305  -37.6800  -11.0549 C   0  0  0  0  0  0  0  0  0  0  0  0
  -14.9750  -38.1963  -10.1551 C   0  0  0  0  0  0  0  0  0  0  0  0
  -15.4025  -37.9014   -8.7608 C   0  0  0  0  0  0  0  0  0  0  0  0
  -16.2502  -38.9673   -8.1545 C   0  0  2  0  0  0  0  0  0  0  0  0
  -17.3429  -39.4548   -8.9145 N   0  0  0  0  0  0  0  0  0  0  0  0
  -17.5259  -40.7301   -9.4849 C   0  0  0  0  0  0  0  0  0  0  0  0
  -18.6228  -41.3767   -9.2559 O   0  0  0  0  0  0  0  0  0  0  0  0
  -16.6526  -38.5809   -6.7370 C   0  0  2  0  0  0  0  0  0  0  0  0
  -15.7997  -39.4206   -5.9256 O   0  0  0  0  0  0  0  0  0  0  0  0
  -18.0210  -38.9885   -6.3754 C   0  0  0  0  0  0  0  0  0  0  0  0
  -19.0607  -38.1022   -6.2082 N   0  0  0  0  0  0  0  0  0  0  0  0
  -20.2233  -38.0450   -6.9616 C   0  0  0  0  0  0  0  0  0  0  0  0
  -20.1717  -37.6747   -8.4349 C   0  0  0  0  0  0  0  0  0  0  0  0
  -20.8627  -36.8013   -7.4389 C   0  0  0  0  0  0  0  0  0  0  0  0
  -21.2066  -39.1465   -6.5988 C   0  0  0  0  0  0  0  0  0  0  0  0
  -22.1749  -39.4496   -7.5277 C   0  0  0  0  0  0  0  0  0  0  0  0
  -23.0857  -40.4570   -7.2336 C   0  0  0  0  0  0  0  0  0  0  0  0
  -23.0428  -41.1528   -6.0459 C   0  0  0  0  0  0  0  0  0  0  0  0
  -22.0541  -40.8162   -5.1416 C   0  0  0  0  0  0  0  0  0  0  0  0
  -21.9552  -41.7520   -3.4838 Br  0  0  0  0  0  0  0  0  0  0  0  0
  -21.1149  -39.8046   -5.4012 C   0  0  0  0  0  0  0  0  0  0  0  0
  -13.8728  -38.8681  -10.6388 C   0  0  0  0  0  0  0  0  0  0  0  0
  2  1  1  1
  2  3  1  0
  3  4  1  0
  4  5  2  0
  4  6  2  0
  4  7  1  0
  7  8  1  0
  8  9  1  0
  9 10  1  0
 10 11  1  0
 11 12  1  0
 12 13  2  0
 13 14  1  0
 14 15  2  0
 15 16  1  0
 16 17  1  0
 18 17  1  6
 18 19  1  0
 19 20  1  0
 20 21  2  0
 18 22  1  0
 22 23  1  1
 22 24  1  0
 24 25  1  0
 25 26  1  0
 26 27  1  0
 27 28  1  0
 26 29  1  0
 29 30  2  0
 30 31  1  0
 31 32  2  0
 32 33  1  0
 33 34  1  0
 33 35  2  0
 16 36  2  0
 20  2  1  0
 28 26  1  0
 35 29  1  0
 36 12  1  0
M  END
$$$$
