
     RDKit          3D

 36 39  0  0  0  0  0  0  0  0999 V2000
  -21.2270  -44.5128   -6.9743 C   0  0  0  0  0  0  0  0  0  0  0  0
  -19.9280  -43.9177   -7.5090 C   0  0  2  0  0  0  0  0  0  0  0  0
  -18.7598  -44.8175   -7.2738 C   0  0  0  0  0  0  0  0  0  0  0  0
  -19.0630  -46.5093   -7.1218 S   0  0  0  0  0  6  0  0  0  0  0  0
  -19.5349  -46.7812   -5.6961 O   0  0  0  0  0  0  0  0  0  0  0  0
  -17.7111  -47.2175   -7.1963 O   0  0  0  0  0  0  0  0  0  0  0  0
  -20.1465  -47.2826   -8.2105 C   0  0  0  0  0  0  0  0  0  0  0  0
  -20.2352  -46.7865   -9.6078 C   0  0  0  0  0  0  0  0  0  0  0  0
  -18.9163  -46.8026  -10.3508 C   0  0  0  0  0  0  0  0  0  0  0  0
  -19.1369  -46.6145  -11.8363 C   0  0  0  0  0  0  0  0  0  0  0  0
  -19.4008  -45.3122  -12.1381 O   0  0  0  0  0  0  0  0  0  0  0  0
  -19.3786  -44.0567  -11.5645 C   0  0  0  0  0  0  0  0  0  0  0  0
  -20.6246  -43.4201  -11.7472 C   0  0  0  0  0  0  0  0  0  0  0  0
  -20.8977  -42.1607  -11.2821 C   0  0  0  0  0  0  0  0  0  0  0  0
  -19.8600  -41.5543  -10.6183 C   0  0  0  0  0  0  0  0  0  0  0  0
  -18.5981  -42.1498  -10.4125 C   0  0  0  0  0  0  0  0  0  0  0  0
  -17.7336  -41.2164   -9.6412 C   0  0  0  0  0  0  0  0  0  0  0  0
  -17.8301  -41.3905   -8.1638 C   0  0  2  0  0  0  0  0  0  0  0  0
  -19.1243  -41.4553   -7.5892 N   0  0  0  0  0  0  0  0  0  0  0  0
  -19.7641  -42.5467   -6.9687 C   0  0  0  0  0  0  0  0  0  0  0  0
  -20.2858  -42.3932   -5.7948 O   0  0  0  0  0  0  0  0  0  0  0  0
  -16.9265  -40.3911   -7.4531 C   0  0  2  0  0  0  0  0  0  0  0  0
  -16.5908  -41.0827   -6.2284 O   0  0  0  0  0  0  0  0  0  0  0  0
  -17.6228  -39.1720   -7.0078 C   0  0  0  0  0  0  0  0  0  0  0  0
  -17.0042  -37.9507   -6.8646 N   0  0  0  0  0  0  0  0  0  0  0  0
  -17.5967  -36.7056   -7.0095 C   0  0  0  0  0  0  0  0  0  0  0  0
  -16.8845  -35.4507   -6.5320 C   0  0  0  0  0  0  0  0  0  0  0  0
  -18.1628  -35.9035   -5.9052 C   0  0  0  0  0  0  0  0  0  0  0  0
  -18.3506  -36.5692   -8.3229 C   0  0  0  0  0  0  0  0  0  0  0  0
  -19.7245  -36.5989   -8.2601 C   0  0  0  0  0  0  0  0  0  0  0  0
  -20.4467  -36.4685   -9.4400 C   0  0  0  0  0  0  0  0  0  0  0  0
  -19.8261  -36.3119  -10.6593 C   0  0  0  0  0  0  0  0  0  0  0  0
  -18.4449  -36.2875  -10.6769 C   0  0  0  0  0  0  0  0  0  0  0  0
  -17.5417  -36.0727  -12.3418 Br  0  0  0  0  0  0  0  0  0  0  0  0
  -17.6789  -36.4158   -9.5066 C   0  0  0  0  0  0  0  0  0  0  0  0
  -18.3541  -43.4188  -10.8924 C   0  0  0  0  0  0  0  0  0  0  0  0
  2  1  1  1
  2  3  1  0
  3  4  1  0
  4  5  2  0
  4  6  2  0
  4  7  1  0
  7  8  1  0
  8  9  1  0
  9 10  1  0
 10 11  1  0
 11 12  1  0
 12 13  2  0
 13 14  1  0
 14 15  2  0
 15 16  1  0
 16 17  1  0
 18 17  1  6
 18 19  1  0
 19 20  1  0
 20 21  2  0
 18 22  1  0
 22 23  1  1
 22 24  1  0
 24 25  1  0
 25 26  1  0
 26 27  1  0
 27 28  1  0
 26 29  1  0
 29 30  2  0
 30 31  1  0
 31 32  2  0
 32 33  1  0
 33 34  1  0
 33 35  2  0
 16 36  2  0
 20  2  1  0
 28 26  1  0
 35 29  1  0
 36 12  1  0
M  END
$$$$
