
     RDKit          3D

 36 39  0  0  0  0  0  0  0  0999 V2000
  -15.9473  -42.8555  -11.7261 C   0  0  0  0  0  0  0  0  0  0  0  0
  -15.5867  -42.0333  -10.4927 C   0  0  2  0  0  0  0  0  0  0  0  0
  -15.1024  -42.8895   -9.3694 C   0  0  0  0  0  0  0  0  0  0  0  0
  -14.3914  -44.4113   -9.7642 S   0  0  0  0  0  6  0  0  0  0  0  0
  -15.5172  -45.4108  -10.0151 O   0  0  0  0  0  0  0  0  0  0  0  0
  -13.7179  -44.9361   -8.4970 O   0  0  0  0  0  0  0  0  0  0  0  0
  -13.2701  -44.5171  -11.0637 C   0  0  0  0  0  0  0  0  0  0  0  0
  -12.3849  -43.3576  -11.3436 C   0  0  0  0  0  0  0  0  0  0  0  0
  -11.5258  -42.9421  -10.1684 C   0  0  0  0  0  0  0  0  0  0  0  0
  -10.4284  -42.0000  -10.6147 C   0  0  0  0  0  0  0  0  0  0  0  0
  -10.9097  -40.7437  -10.8303 O   0  0  0  0  0  0  0  0  0  0  0  0
  -12.0440  -39.9840  -10.6246 C   0  0  0  0  0  0  0  0  0  0  0  0
  -12.4472  -39.3806  -11.8349 C   0  0  0  0  0  0  0  0  0  0  0  0
  -13.5453  -38.5679  -11.9373 C   0  0  0  0  0  0  0  0  0  0  0  0
  -14.2335  -38.3792  -10.7643 C   0  0  0  0  0  0  0  0  0  0  0  0
  -13.8684  -38.9595   -9.5317 C   0  0  0  0  0  0  0  0  0  0  0  0
  -14.8487  -38.5554   -8.4881 C   0  0  0  0  0  0  0  0  0  0  0  0
  -16.0028  -39.4896   -8.3542 C   0  0  2  0  0  0  0  0  0  0  0  0
  -16.6748  -39.8837   -9.5384 N   0  0  0  0  0  0  0  0  0  0  0  0
  -16.7291  -41.1544  -10.1447 C   0  0  0  0  0  0  0  0  0  0  0  0
  -17.8782  -41.6612  -10.4553 O   0  0  0  0  0  0  0  0  0  0  0  0
  -16.9605  -38.9964   -7.2772 C   0  0  2  0  0  0  0  0  0  0  0  0
  -16.1525  -39.0634   -6.0799 O   0  0  0  0  0  0  0  0  0  0  0  0
  -18.0831  -39.9132   -7.0148 C   0  0  0  0  0  0  0  0  0  0  0  0
  -19.0426  -40.2296   -7.9496 N   0  0  0  0  0  0  0  0  0  0  0  0
  -20.3153  -40.7156   -7.6912 C   0  0  0  0  0  0  0  0  0  0  0  0
  -20.5050  -42.0576   -7.0035 C   0  0  0  0  0  0  0  0  0  0  0  0
  -20.9561  -41.8360   -8.4104 C   0  0  0  0  0  0  0  0  0  0  0  0
  -21.2807  -39.6209   -7.2652 C   0  0  0  0  0  0  0  0  0  0  0  0
  -21.3870  -38.5261   -8.0914 C   0  0  0  0  0  0  0  0  0  0  0  0
  -22.2661  -37.5096   -7.7379 C   0  0  0  0  0  0  0  0  0  0  0  0
  -23.0263  -37.5712   -6.5913 C   0  0  0  0  0  0  0  0  0  0  0  0
  -22.8885  -38.6884   -5.7904 C   0  0  0  0  0  0  0  0  0  0  0  0
  -23.9205  -38.8179   -4.1929 Br  0  0  0  0  0  0  0  0  0  0  0  0
  -22.0114  -39.7370   -6.1126 C   0  0  0  0  0  0  0  0  0  0  0  0
  -12.7580  -39.7734   -9.4611 C   0  0  0  0  0  0  0  0  0  0  0  0
  2  1  1  6
  2  3  1  0
  3  4  1  0
  4  5  2  0
  4  6  2  0
  4  7  1  0
  7  8  1  0
  8  9  1  0
  9 10  1  0
 10 11  1  0
 11 12  1  0
 12 13  2  0
 13 14  1  0
 14 15  2  0
 15 16  1  0
 16 17  1  0
 18 17  1  6
 18 19  1  0
 19 20  1  0
 20 21  2  0
 18 22  1  0
 22 23  1  1
 22 24  1  0
 24 25  1  0
 25 26  1  0
 26 27  1  0
 27 28  1  0
 26 29  1  0
 29 30  2  0
 30 31  1  0
 31 32  2  0
 32 33  1  0
 33 34  1  0
 33 35  2  0
 16 36  2  0
 20  2  1  0
 28 26  1  0
 35 29  1  0
 36 12  1  0
M  END
$$$$
