
     RDKit          3D

 36 39  0  0  0  0  0  0  0  0999 V2000
  -18.4316  -42.6196   -6.7043 C   0  0  0  0  0  0  0  0  0  0  0  0
  -18.5751  -41.4922   -7.7221 C   0  0  2  0  0  0  0  0  0  0  0  0
  -18.7197  -42.0092   -9.1155 C   0  0  0  0  0  0  0  0  0  0  0  0
  -19.3680  -43.5945   -9.3240 S   0  0  0  0  0  6  0  0  0  0  0  0
  -18.2459  -44.6016   -9.0874 O   0  0  0  0  0  0  0  0  0  0  0  0
  -19.6923  -43.7568  -10.8084 O   0  0  0  0  0  0  0  0  0  0  0  0
  -20.7392  -44.0823   -8.4079 C   0  0  0  0  0  0  0  0  0  0  0  0
  -21.7606  -43.0654   -8.0487 C   0  0  0  0  0  0  0  0  0  0  0  0
  -22.3663  -42.3548   -9.2402 C   0  0  0  0  0  0  0  0  0  0  0  0
  -23.6125  -41.5975   -8.8347 C   0  0  0  0  0  0  0  0  0  0  0  0
  -23.3014  -40.4424   -8.1824 O   0  0  0  0  0  0  0  0  0  0  0  0
  -22.2192  -39.6330   -7.8996 C   0  0  0  0  0  0  0  0  0  0  0  0
  -22.1513  -39.3847   -6.5122 C   0  0  0  0  0  0  0  0  0  0  0  0
  -21.1780  -38.6114   -5.9363 C   0  0  0  0  0  0  0  0  0  0  0  0
  -20.2628  -38.0881   -6.8159 C   0  0  0  0  0  0  0  0  0  0  0  0
  -20.2907  -38.3073   -8.2090 C   0  0  0  0  0  0  0  0  0  0  0  0
  -19.1394  -37.6076   -8.8403 C   0  0  0  0  0  0  0  0  0  0  0  0
  -17.9091  -38.4437   -8.9385 C   0  0  2  0  0  0  0  0  0  0  0  0
  -17.4888  -39.1401   -7.7776 N   0  0  0  0  0  0  0  0  0  0  0  0
  -17.4634  -40.5284   -7.5384 C   0  0  0  0  0  0  0  0  0  0  0  0
  -16.3743  -41.0788   -7.1088 O   0  0  0  0  0  0  0  0  0  0  0  0
  -16.7799  -37.6497   -9.5826 C   0  0  2  0  0  0  0  0  0  0  0  0
  -17.3200  -37.3305  -10.8854 O   0  0  0  0  0  0  0  0  0  0  0  0
  -15.5779  -38.4512   -9.8693 C   0  0  0  0  0  0  0  0  0  0  0  0
  -14.5183  -38.5733   -8.9992 N   0  0  0  0  0  0  0  0  0  0  0  0
  -13.3436  -37.8370   -9.0238 C   0  0  0  0  0  0  0  0  0  0  0  0
  -12.0677  -38.3974   -8.4170 C   0  0  0  0  0  0  0  0  0  0  0  0
  -12.7290  -37.1837   -7.8495 C   0  0  0  0  0  0  0  0  0  0  0  0
  -13.1661  -37.0679  -10.3233 C   0  0  0  0  0  0  0  0  0  0  0  0
  -14.2474  -36.3472  -10.7748 C   0  0  0  0  0  0  0  0  0  0  0  0
  -14.1188  -35.6250  -11.9550 C   0  0  0  0  0  0  0  0  0  0  0  0
  -12.9461  -35.6135  -12.6768 C   0  0  0  0  0  0  0  0  0  0  0  0
  -11.8852  -36.3509  -12.1874 C   0  0  0  0  0  0  0  0  0  0  0  0
  -10.2415  -36.3653  -13.1526 Br  0  0  0  0  0  0  0  0  0  0  0  0
  -11.9749  -37.0938  -10.9987 C   0  0  0  0  0  0  0  0  0  0  0  0
  -21.2829  -39.0908   -8.7584 C   0  0  0  0  0  0  0  0  0  0  0  0
  2  1  1  1
  2  3  1  0
  3  4  1  0
  4  5  2  0
  4  6  2  0
  4  7  1  0
  7  8  1  0
  8  9  1  0
  9 10  1  0
 10 11  1  0
 11 12  1  0
 12 13  2  0
 13 14  1  0
 14 15  2  0
 15 16  1  0
 16 17  1  0
 18 17  1  1
 18 19  1  0
 19 20  1  0
 20 21  2  0
 18 22  1  0
 22 23  1  6
 22 24  1  0
 24 25  1  0
 25 26  1  0
 26 27  1  0
 27 28  1  0
 26 29  1  0
 29 30  2  0
 30 31  1  0
 31 32  2  0
 32 33  1  0
 33 34  1  0
 33 35  2  0
 16 36  2  0
 20  2  1  0
 28 26  1  0
 35 29  1  0
 36 12  1  0
M  END
$$$$
