
     RDKit          3D

 37 39  0  0  0  0  0  0  0  0999 V2000
  -13.5353  -34.3116  -14.0769 C   0  0  0  0  0  0  0  0  0  0  0  0
  -13.8826  -34.9007  -12.7489 C   0  0  0  0  0  0  0  0  0  0  0  0
  -13.3312  -36.2677  -12.5063 C   0  0  0  0  0  0  0  0  0  0  0  0
  -14.3392  -37.3249  -12.2184 C   0  0  0  0  0  0  0  0  0  0  0  0
  -14.5029  -37.6611  -10.8277 N   0  0  0  0  0  0  0  0  0  0  0  0
  -14.8690  -38.9774  -10.3882 C   0  0  0  0  0  0  0  0  0  0  0  0
  -15.5896  -39.6439  -11.1977 O   0  0  0  0  0  0  0  0  0  0  0  0
  -14.4632  -39.5637   -9.0945 C   0  0  2  0  0  0  0  0  0  0  0  0
  -13.0098  -39.9543   -9.1866 C   0  0  0  0  0  0  0  0  0  0  0  0
  -15.3718  -40.5732   -8.5095 C   0  0  0  0  0  0  0  0  0  0  0  0
  -16.2610  -40.1407   -7.4109 C   0  0  2  0  0  0  0  0  0  0  0  0
  -15.9235  -40.8947   -6.2634 O   0  0  0  0  0  0  0  0  0  0  0  0
  -17.7619  -40.4024   -7.7058 C   0  0  2  0  0  0  0  0  0  0  0  0
  -18.4194  -40.7543   -6.4057 C   0  0  0  0  0  0  0  0  0  0  0  0
  -19.7817  -40.2027   -6.1639 C   0  0  0  0  0  0  0  0  0  0  0  0
  -20.9500  -40.7856   -5.7307 C   0  0  0  0  0  0  0  0  0  0  0  0
  -22.0626  -39.9976   -5.5987 C   0  0  0  0  0  0  0  0  0  0  0  0
  -23.4444  -40.3159   -5.1456 C   0  0  0  0  0  0  0  0  0  0  0  0
  -24.3383  -40.7552   -6.2718 C   0  0  0  0  0  0  0  0  0  0  0  0
  -23.7589  -41.9523   -6.9739 C   0  0  0  0  0  0  0  0  0  0  0  0
  -24.0929  -43.2662   -6.3069 C   0  0  0  0  0  0  0  0  0  0  0  0
  -23.3495  -44.4445   -6.8848 C   0  0  0  0  0  0  0  0  0  0  0  0
  -22.0519  -44.6226   -6.2919 N   0  0  0  0  0  0  0  0  0  0  0  0
  -20.7302  -44.4839   -6.8253 C   0  0  0  0  0  0  0  0  0  0  0  0
  -20.1375  -43.5091   -7.5882 C   0  0  0  0  0  0  0  0  0  0  0  0
  -18.8034  -43.6706   -7.8818 C   0  0  0  0  0  0  0  0  0  0  0  0
  -18.1234  -44.8117   -7.3967 C   0  0  0  0  0  0  0  0  0  0  0  0
  -18.7179  -45.7891   -6.6338 C   0  0  0  0  0  0  0  0  0  0  0  0
  -19.9914  -45.5802   -6.3835 N   0  0  0  0  0  0  0  0  0  0  0  0
  -17.9863  -46.8798   -6.1940 O   0  0  0  0  0  0  0  0  0  0  0  0
  -18.6081  -48.1582   -6.4200 C   0  0  0  0  0  0  0  0  0  0  0  0
  -17.8610  -42.8099   -8.6333 C   0  0  0  0  0  0  0  0  0  0  0  0
  -16.9465  -43.4040   -9.3795 O   0  0  0  0  0  0  0  0  0  0  0  0
  -17.7294  -41.4235   -8.7200 N   0  0  0  0  0  0  0  0  0  0  0  0
  -21.9843  -38.6179   -5.9086 C   0  0  0  0  0  0  0  0  0  0  0  0
  -20.8472  -37.9945   -6.3406 C   0  0  0  0  0  0  0  0  0  0  0  0
  -19.7592  -38.8097   -6.4590 C   0  0  0  0  0  0  0  0  0  0  0  0
  1  2  1  0
  2  3  1  0
  3  4  1  0
  4  5  1  0
  5  6  1  0
  6  7  2  0
  6  8  1  0
  8  9  1  6
  8 10  1  0
 10 11  1  0
 11 12  1  1
 11 13  1  0
 13 14  1  1
 14 15  1  0
 15 16  1  0
 16 17  2  0
 17 18  1  0
 18 19  1  0
 19 20  1  0
 20 21  1  0
 21 22  1  0
 22 23  1  0
 23 24  1  0
 24 25  1  0
 25 26  2  0
 26 27  1  0
 27 28  2  0
 28 29  1  0
 28 30  1  0
 30 31  1  0
 26 32  1  0
 32 33  2  0
 32 34  1  0
 17 35  1  0
 35 36  2  0
 36 37  1  0
 29 24  2  0
 34 13  1  0
 37 15  2  0
M  END
$$$$
