
     RDKit          3D

 37 39  0  0  0  0  0  0  0  0999 V2000
  -12.7293  -34.8214  -13.7433 C   0  0  0  0  0  0  0  0  0  0  0  0
  -13.5822  -36.0219  -13.9936 C   0  0  0  0  0  0  0  0  0  0  0  0
  -13.9037  -36.8268  -12.7769 C   0  0  0  0  0  0  0  0  0  0  0  0
  -14.2385  -38.2566  -13.0228 C   0  0  0  0  0  0  0  0  0  0  0  0
  -14.5937  -39.0185  -11.8537 N   0  0  0  0  0  0  0  0  0  0  0  0
  -15.3164  -38.4513  -10.7510 C   0  0  0  0  0  0  0  0  0  0  0  0
  -16.3351  -37.7561  -11.0640 O   0  0  0  0  0  0  0  0  0  0  0  0
  -14.9440  -38.6322   -9.3331 C   0  0  2  0  0  0  0  0  0  0  0  0
  -13.5086  -38.2037   -9.1620 C   0  0  0  0  0  0  0  0  0  0  0  0
  -15.3170  -39.9196   -8.7082 C   0  0  0  0  0  0  0  0  0  0  0  0
  -16.2400  -39.8798   -7.5545 C   0  0  2  0  0  0  0  0  0  0  0  0
  -15.8308  -40.8800   -6.6427 O   0  0  0  0  0  0  0  0  0  0  0  0
  -17.7106  -40.1878   -7.9426 C   0  0  2  0  0  0  0  0  0  0  0  0
  -18.4353  -40.5681   -6.6869 C   0  0  0  0  0  0  0  0  0  0  0  0
  -19.8270  -40.0618   -6.5277 C   0  0  0  0  0  0  0  0  0  0  0  0
  -21.0004  -40.6844   -6.1697 C   0  0  0  0  0  0  0  0  0  0  0  0
  -22.1439  -39.9333   -6.1037 C   0  0  0  0  0  0  0  0  0  0  0  0
  -23.5399  -40.2983   -5.7380 C   0  0  0  0  0  0  0  0  0  0  0  0
  -24.3480  -40.7596   -6.9190 C   0  0  0  0  0  0  0  0  0  0  0  0
  -23.6880  -41.9333   -7.5885 C   0  0  0  0  0  0  0  0  0  0  0  0
  -24.0198  -43.2611   -6.9485 C   0  0  0  0  0  0  0  0  0  0  0  0
  -23.2045  -44.4117   -7.4838 C   0  0  0  0  0  0  0  0  0  0  0  0
  -21.9408  -44.5514   -6.8125 N   0  0  0  0  0  0  0  0  0  0  0  0
  -20.5940  -44.3674   -7.2627 C   0  0  0  0  0  0  0  0  0  0  0  0
  -19.9872  -43.3697   -7.9839 C   0  0  0  0  0  0  0  0  0  0  0  0
  -18.6330  -43.4866   -8.1950 C   0  0  0  0  0  0  0  0  0  0  0  0
  -17.9477  -44.6082   -7.6732 C   0  0  0  0  0  0  0  0  0  0  0  0
  -18.5561  -45.6085   -6.9523 C   0  0  0  0  0  0  0  0  0  0  0  0
  -19.8488  -45.4420   -6.7803 N   0  0  0  0  0  0  0  0  0  0  0  0
  -17.8181  -46.6777   -6.4722 O   0  0  0  0  0  0  0  0  0  0  0  0
  -18.4887  -47.9504   -6.5260 C   0  0  0  0  0  0  0  0  0  0  0  0
  -17.6745  -42.5918   -8.8836 C   0  0  0  0  0  0  0  0  0  0  0  0
  -16.6970  -43.1520   -9.5741 O   0  0  0  0  0  0  0  0  0  0  0  0
  -17.5827  -41.2015   -8.9567 N   0  0  0  0  0  0  0  0  0  0  0  0
  -22.0913  -38.5500   -6.4029 C   0  0  0  0  0  0  0  0  0  0  0  0
  -20.9505  -37.8880   -6.7614 C   0  0  0  0  0  0  0  0  0  0  0  0
  -19.8315  -38.6671   -6.8155 C   0  0  0  0  0  0  0  0  0  0  0  0
  1  2  1  0
  2  3  1  0
  3  4  1  0
  4  5  1  0
  5  6  1  0
  6  7  2  0
  6  8  1  0
  8  9  1  6
  8 10  1  0
 10 11  1  0
 11 12  1  1
 11 13  1  0
 13 14  1  1
 14 15  1  0
 15 16  1  0
 16 17  2  0
 17 18  1  0
 18 19  1  0
 19 20  1  0
 20 21  1  0
 21 22  1  0
 22 23  1  0
 23 24  1  0
 24 25  1  0
 25 26  2  0
 26 27  1  0
 27 28  2  0
 28 29  1  0
 28 30  1  0
 30 31  1  0
 26 32  1  0
 32 33  2  0
 32 34  1  0
 17 35  1  0
 35 36  2  0
 36 37  1  0
 29 24  2  0
 34 13  1  0
 37 15  2  0
M  END
$$$$
