
     RDKit          3D

 37 39  0  0  0  0  0  0  0  0999 V2000
  -15.0094  -41.0463  -15.4186 C   0  0  0  0  0  0  0  0  0  0  0  0
  -14.5875  -39.8297  -14.6615 C   0  0  0  0  0  0  0  0  0  0  0  0
  -14.0093  -40.1012  -13.3112 C   0  0  0  0  0  0  0  0  0  0  0  0
  -13.5529  -38.9025  -12.5552 C   0  0  0  0  0  0  0  0  0  0  0  0
  -14.4716  -38.4116  -11.5608 N   0  0  0  0  0  0  0  0  0  0  0  0
  -14.8368  -39.1749  -10.4015 C   0  0  0  0  0  0  0  0  0  0  0  0
  -14.5980  -40.4227  -10.4704 O   0  0  0  0  0  0  0  0  0  0  0  0
  -15.4506  -38.5989   -9.1876 C   0  0  2  0  0  0  0  0  0  0  0  0
  -15.1379  -37.1244   -9.1528 C   0  0  0  0  0  0  0  0  0  0  0  0
  -15.2412  -39.3379   -7.9239 C   0  0  0  0  0  0  0  0  0  0  0  0
  -16.3564  -39.3680   -6.9544 C   0  0  2  0  0  0  0  0  0  0  0  0
  -16.0332  -40.3174   -5.9577 O   0  0  0  0  0  0  0  0  0  0  0  0
  -17.7013  -39.8105   -7.5895 C   0  0  2  0  0  0  0  0  0  0  0  0
  -18.6083  -40.2294   -6.4722 C   0  0  0  0  0  0  0  0  0  0  0  0
  -20.0428  -39.8438   -6.5829 C   0  0  0  0  0  0  0  0  0  0  0  0
  -21.2062  -40.5599   -6.4205 C   0  0  0  0  0  0  0  0  0  0  0  0
  -22.4008  -39.9105   -6.5865 C   0  0  0  0  0  0  0  0  0  0  0  0
  -23.8050  -40.3893   -6.4654 C   0  0  0  0  0  0  0  0  0  0  0  0
  -24.3439  -40.9412   -7.7559 C   0  0  0  0  0  0  0  0  0  0  0  0
  -23.4785  -42.0650   -8.2556 C   0  0  0  0  0  0  0  0  0  0  0  0
  -23.8103  -43.4046   -7.6407 C   0  0  0  0  0  0  0  0  0  0  0  0
  -22.8190  -44.4892   -7.9813 C   0  0  0  0  0  0  0  0  0  0  0  0
  -21.6914  -44.5055   -7.0897 N   0  0  0  0  0  0  0  0  0  0  0  0
  -20.3050  -44.2128   -7.2966 C   0  0  0  0  0  0  0  0  0  0  0  0
  -19.6617  -43.1794   -7.9306 C   0  0  0  0  0  0  0  0  0  0  0  0
  -18.2867  -43.1815   -7.8910 C   0  0  0  0  0  0  0  0  0  0  0  0
  -17.6175  -44.2289   -7.2167 C   0  0  0  0  0  0  0  0  0  0  0  0
  -18.2621  -45.2651   -6.5831 C   0  0  0  0  0  0  0  0  0  0  0  0
  -19.5737  -45.2091   -6.6519 N   0  0  0  0  0  0  0  0  0  0  0  0
  -17.5380  -46.2566   -5.9422 O   0  0  0  0  0  0  0  0  0  0  0  0
  -17.7829  -47.5920   -6.4206 C   0  0  0  0  0  0  0  0  0  0  0  0
  -17.2962  -42.2192   -8.4263 C   0  0  0  0  0  0  0  0  0  0  0  0
  -16.1665  -42.7045   -8.9105 O   0  0  0  0  0  0  0  0  0  0  0  0
  -17.3078  -40.8278   -8.5291 N   0  0  0  0  0  0  0  0  0  0  0  0
  -22.4090  -38.5336   -6.9184 C   0  0  0  0  0  0  0  0  0  0  0  0
  -21.2808  -37.7812   -7.0885 C   0  0  0  0  0  0  0  0  0  0  0  0
  -20.1101  -38.4604   -6.9142 C   0  0  0  0  0  0  0  0  0  0  0  0
  1  2  1  0
  2  3  1  0
  3  4  1  0
  4  5  1  0
  5  6  1  0
  6  7  2  0
  6  8  1  0
  8  9  1  1
  8 10  1  0
 10 11  1  0
 11 12  1  1
 11 13  1  0
 13 14  1  1
 14 15  1  0
 15 16  1  0
 16 17  2  0
 17 18  1  0
 18 19  1  0
 19 20  1  0
 20 21  1  0
 21 22  1  0
 22 23  1  0
 23 24  1  0
 24 25  1  0
 25 26  2  0
 26 27  1  0
 27 28  2  0
 28 29  1  0
 28 30  1  0
 30 31  1  0
 26 32  1  0
 32 33  2  0
 32 34  1  0
 17 35  1  0
 35 36  2  0
 36 37  1  0
 29 24  2  0
 34 13  1  0
 37 15  2  0
M  END
$$$$
