
     RDKit          3D

 37 39  0  0  0  0  0  0  0  0999 V2000
  -13.2146  -44.9115  -12.8931 C   0  0  0  0  0  0  0  0  0  0  0  0
  -12.7536  -43.6273  -12.2854 C   0  0  0  0  0  0  0  0  0  0  0  0
  -13.4444  -42.4069  -12.8002 C   0  0  0  0  0  0  0  0  0  0  0  0
  -13.0299  -41.1217  -12.1730 C   0  0  0  0  0  0  0  0  0  0  0  0
  -13.6220  -40.8399  -10.8910 N   0  0  0  0  0  0  0  0  0  0  0  0
  -14.8247  -40.0700  -10.7470 C   0  0  0  0  0  0  0  0  0  0  0  0
  -15.7382  -40.3178  -11.5973 O   0  0  0  0  0  0  0  0  0  0  0  0
  -15.0365  -39.0485   -9.7012 C   0  0  2  0  0  0  0  0  0  0  0  0
  -13.9163  -38.0430   -9.7874 C   0  0  0  0  0  0  0  0  0  0  0  0
  -15.3627  -39.5438   -8.3465 C   0  0  0  0  0  0  0  0  0  0  0  0
  -16.3909  -38.8115   -7.5778 C   0  0  2  0  0  0  0  0  0  0  0  0
  -16.1641  -39.0667   -6.2057 O   0  0  0  0  0  0  0  0  0  0  0  0
  -17.8357  -39.2787   -7.8978 C   0  0  2  0  0  0  0  0  0  0  0  0
  -18.3960  -39.8900   -6.6493 C   0  0  0  0  0  0  0  0  0  0  0  0
  -19.8238  -39.6039   -6.3362 C   0  0  0  0  0  0  0  0  0  0  0  0
  -20.8709  -40.4196   -5.9748 C   0  0  0  0  0  0  0  0  0  0  0  0
  -22.0936  -39.8476   -5.7421 C   0  0  0  0  0  0  0  0  0  0  0  0
  -23.3938  -40.4419   -5.3273 C   0  0  0  0  0  0  0  0  0  0  0  0
  -24.2307  -40.8817   -6.4964 C   0  0  0  0  0  0  0  0  0  0  0  0
  -23.4809  -41.8723   -7.3438 C   0  0  0  0  0  0  0  0  0  0  0  0
  -23.5804  -43.2947   -6.8441 C   0  0  0  0  0  0  0  0  0  0  0  0
  -22.6689  -44.2552   -7.5664 C   0  0  0  0  0  0  0  0  0  0  0  0
  -21.3459  -44.2881   -7.0046 N   0  0  0  0  0  0  0  0  0  0  0  0
  -20.0776  -43.8697   -7.5212 C   0  0  0  0  0  0  0  0  0  0  0  0
  -19.6699  -42.7250   -8.1591 C   0  0  0  0  0  0  0  0  0  0  0  0
  -18.3346  -42.6276   -8.4750 C   0  0  0  0  0  0  0  0  0  0  0  0
  -17.4665  -43.6917   -8.1377 C   0  0  0  0  0  0  0  0  0  0  0  0
  -17.8755  -44.8393   -7.5002 C   0  0  0  0  0  0  0  0  0  0  0  0
  -19.1597  -44.8751   -7.2215 N   0  0  0  0  0  0  0  0  0  0  0  0
  -16.9657  -45.8401   -7.2017 O   0  0  0  0  0  0  0  0  0  0  0  0
  -17.5128  -46.9637   -6.4874 C   0  0  0  0  0  0  0  0  0  0  0  0
  -17.5633  -41.5383   -9.1169 C   0  0  0  0  0  0  0  0  0  0  0  0
  -16.5822  -41.8783   -9.9342 O   0  0  0  0  0  0  0  0  0  0  0  0
  -17.6614  -40.1491   -9.0311 N   0  0  0  0  0  0  0  0  0  0  0  0
  -22.2485  -38.4464   -5.8785 C   0  0  0  0  0  0  0  0  0  0  0  0
  -21.2388  -37.5964   -6.2335 C   0  0  0  0  0  0  0  0  0  0  0  0
  -20.0357  -38.2007   -6.4559 C   0  0  0  0  0  0  0  0  0  0  0  0
  1  2  1  0
  2  3  1  0
  3  4  1  0
  4  5  1  0
  5  6  1  0
  6  7  2  0
  6  8  1  0
  8  9  1  1
  8 10  1  0
 10 11  1  0
 11 12  1  1
 11 13  1  0
 13 14  1  1
 14 15  1  0
 15 16  1  0
 16 17  2  0
 17 18  1  0
 18 19  1  0
 19 20  1  0
 20 21  1  0
 21 22  1  0
 22 23  1  0
 23 24  1  0
 24 25  1  0
 25 26  2  0
 26 27  1  0
 27 28  2  0
 28 29  1  0
 28 30  1  0
 30 31  1  0
 26 32  1  0
 32 33  2  0
 32 34  1  0
 17 35  1  0
 35 36  2  0
 36 37  1  0
 29 24  2  0
 34 13  1  0
 37 15  2  0
M  END
$$$$
