
     RDKit          3D

 37 39  0  0  0  0  0  0  0  0999 V2000
  -19.6128  -34.7135   -9.9955 C   0  0  0  0  0  0  0  0  0  0  0  0
  -18.4439  -35.4667   -9.4499 C   0  0  0  0  0  0  0  0  0  0  0  0
  -17.3599  -35.7439  -10.4396 C   0  0  0  0  0  0  0  0  0  0  0  0
  -16.3048  -36.6922   -9.9876 C   0  0  0  0  0  0  0  0  0  0  0  0
  -16.1526  -37.8772  -10.7915 N   0  0  0  0  0  0  0  0  0  0  0  0
  -15.9811  -39.1826  -10.2201 C   0  0  0  0  0  0  0  0  0  0  0  0
  -16.9964  -39.9466  -10.2862 O   0  0  0  0  0  0  0  0  0  0  0  0
  -14.7326  -39.6545   -9.5872 C   0  0  2  0  0  0  0  0  0  0  0  0
  -13.8693  -40.2817  -10.6524 C   0  0  0  0  0  0  0  0  0  0  0  0
  -14.8745  -40.4211   -8.3306 C   0  0  0  0  0  0  0  0  0  0  0  0
  -15.8684  -39.9454   -7.3457 C   0  0  2  0  0  0  0  0  0  0  0  0
  -15.6493  -40.6505   -6.1399 O   0  0  0  0  0  0  0  0  0  0  0  0
  -17.3327  -40.2222   -7.7785 C   0  0  2  0  0  0  0  0  0  0  0  0
  -18.1547  -40.3381   -6.5306 C   0  0  0  0  0  0  0  0  0  0  0  0
  -19.5125  -39.7262   -6.5541 C   0  0  0  0  0  0  0  0  0  0  0  0
  -20.7470  -40.2046   -6.1804 C   0  0  0  0  0  0  0  0  0  0  0  0
  -21.8344  -39.3832   -6.3188 C   0  0  0  0  0  0  0  0  0  0  0  0
  -23.2722  -39.5930   -5.9956 C   0  0  0  0  0  0  0  0  0  0  0  0
  -24.0422  -40.1964   -7.1373 C   0  0  0  0  0  0  0  0  0  0  0  0
  -23.4323  -41.5055   -7.5564 C   0  0  0  0  0  0  0  0  0  0  0  0
  -23.8969  -42.6822   -6.7303 C   0  0  0  0  0  0  0  0  0  0  0  0
  -23.1384  -43.9555   -7.0104 C   0  0  0  0  0  0  0  0  0  0  0  0
  -21.9294  -44.0582   -6.2393 N   0  0  0  0  0  0  0  0  0  0  0  0
  -20.5489  -44.0376   -6.6192 C   0  0  0  0  0  0  0  0  0  0  0  0
  -19.8300  -43.2165   -7.4514 C   0  0  0  0  0  0  0  0  0  0  0  0
  -18.4780  -43.4519   -7.5460 C   0  0  0  0  0  0  0  0  0  0  0  0
  -17.9080  -44.5093   -6.7998 C   0  0  0  0  0  0  0  0  0  0  0  0
  -18.6287  -45.3330   -5.9674 C   0  0  0  0  0  0  0  0  0  0  0  0
  -19.9135  -45.0593   -5.9154 N   0  0  0  0  0  0  0  0  0  0  0  0
  -18.0000  -46.3493   -5.2674 O   0  0  0  0  0  0  0  0  0  0  0  0
  -18.4340  -47.6789   -5.6079 C   0  0  0  0  0  0  0  0  0  0  0  0
  -17.4183  -42.7484   -8.3047 C   0  0  0  0  0  0  0  0  0  0  0  0
  -16.4461  -43.4776   -8.8237 O   0  0  0  0  0  0  0  0  0  0  0  0
  -17.2209  -41.3991   -8.5999 N   0  0  0  0  0  0  0  0  0  0  0  0
  -21.6634  -38.0766   -6.8381 C   0  0  0  0  0  0  0  0  0  0  0  0
  -20.4585  -37.5576   -7.2210 C   0  0  0  0  0  0  0  0  0  0  0  0
  -19.3982  -38.4030   -7.0679 C   0  0  0  0  0  0  0  0  0  0  0  0
  1  2  1  0
  2  3  1  0
  3  4  1  0
  4  5  1  0
  5  6  1  0
  6  7  2  0
  6  8  1  0
  8  9  1  6
  8 10  1  0
 10 11  1  0
 11 12  1  1
 11 13  1  0
 13 14  1  1
 14 15  1  0
 15 16  1  0
 16 17  2  0
 17 18  1  0
 18 19  1  0
 19 20  1  0
 20 21  1  0
 21 22  1  0
 22 23  1  0
 23 24  1  0
 24 25  1  0
 25 26  2  0
 26 27  1  0
 27 28  2  0
 28 29  1  0
 28 30  1  0
 30 31  1  0
 26 32  1  0
 32 33  2  0
 32 34  1  0
 17 35  1  0
 35 36  2  0
 36 37  1  0
 29 24  2  0
 34 13  1  0
 37 15  2  0
M  END
$$$$
