
     RDKit          3D

 37 39  0  0  0  0  0  0  0  0999 V2000
  -21.4488  -37.8557  -12.0936 C   0  0  0  0  0  0  0  0  0  0  0  0
  -21.0833  -39.1169  -11.3816 C   0  0  0  0  0  0  0  0  0  0  0  0
  -19.6495  -39.2130  -10.9734 C   0  0  0  0  0  0  0  0  0  0  0  0
  -19.0844  -37.9991  -10.3223 C   0  0  0  0  0  0  0  0  0  0  0  0
  -17.7216  -37.6891  -10.6688 N   0  0  0  0  0  0  0  0  0  0  0  0
  -16.6259  -38.5609  -10.3536 C   0  0  0  0  0  0  0  0  0  0  0  0
  -16.2111  -39.2871  -11.3125 O   0  0  0  0  0  0  0  0  0  0  0  0
  -15.9892  -38.6469   -9.0235 C   0  0  2  0  0  0  0  0  0  0  0  0
  -15.1341  -37.4207   -8.8276 C   0  0  0  0  0  0  0  0  0  0  0  0
  -15.3632  -39.9393   -8.6700 C   0  0  0  0  0  0  0  0  0  0  0  0
  -16.0677  -40.7985   -7.6954 C   0  0  2  0  0  0  0  0  0  0  0  0
  -15.4832  -42.0845   -7.7557 O   0  0  0  0  0  0  0  0  0  0  0  0
  -17.5772  -40.9661   -8.0136 C   0  0  2  0  0  0  0  0  0  0  0  0
  -18.3044  -41.0500   -6.7057 C   0  0  0  0  0  0  0  0  0  0  0  0
  -19.6139  -40.3465   -6.6118 C   0  0  0  0  0  0  0  0  0  0  0  0
  -20.8454  -40.7466   -6.1474 C   0  0  0  0  0  0  0  0  0  0  0  0
  -21.8805  -39.8502   -6.1867 C   0  0  0  0  0  0  0  0  0  0  0  0
  -23.2994  -39.9676   -5.7525 C   0  0  0  0  0  0  0  0  0  0  0  0
  -24.1972  -40.4945   -6.8374 C   0  0  0  0  0  0  0  0  0  0  0  0
  -23.7149  -41.8339   -7.3222 C   0  0  0  0  0  0  0  0  0  0  0  0
  -24.1938  -42.9920   -6.4784 C   0  0  0  0  0  0  0  0  0  0  0  0
  -23.5503  -44.3084   -6.8361 C   0  0  0  0  0  0  0  0  0  0  0  0
  -22.2943  -44.5085   -6.1657 N   0  0  0  0  0  0  0  0  0  0  0  0
  -20.9499  -44.5749   -6.6545 C   0  0  0  0  0  0  0  0  0  0  0  0
  -20.2434  -43.7886   -7.5299 C   0  0  0  0  0  0  0  0  0  0  0  0
  -18.9228  -44.1140   -7.7356 C   0  0  0  0  0  0  0  0  0  0  0  0
  -18.3708  -45.2223   -7.0524 C   0  0  0  0  0  0  0  0  0  0  0  0
  -19.0793  -46.0109   -6.1767 C   0  0  0  0  0  0  0  0  0  0  0  0
  -20.3338  -45.6512   -6.0183 N   0  0  0  0  0  0  0  0  0  0  0  0
  -18.4697  -47.0813   -5.5436 O   0  0  0  0  0  0  0  0  0  0  0  0
  -19.3065  -48.2395   -5.3693 C   0  0  0  0  0  0  0  0  0  0  0  0
  -17.8798  -43.4698   -8.5668 C   0  0  0  0  0  0  0  0  0  0  0  0
  -17.0047  -44.2534   -9.1721 O   0  0  0  0  0  0  0  0  0  0  0  0
  -17.6128  -42.1316   -8.8578 N   0  0  0  0  0  0  0  0  0  0  0  0
  -21.6603  -38.5485   -6.6996 C   0  0  0  0  0  0  0  0  0  0  0  0
  -20.4561  -38.1056   -7.1703 C   0  0  0  0  0  0  0  0  0  0  0  0
  -19.4486  -39.0243   -7.1144 C   0  0  0  0  0  0  0  0  0  0  0  0
  1  2  1  0
  2  3  1  0
  3  4  1  0
  4  5  1  0
  5  6  1  0
  6  7  2  0
  6  8  1  0
  8  9  1  6
  8 10  1  0
 10 11  1  0
 11 12  1  6
 11 13  1  0
 13 14  1  1
 14 15  1  0
 15 16  1  0
 16 17  2  0
 17 18  1  0
 18 19  1  0
 19 20  1  0
 20 21  1  0
 21 22  1  0
 22 23  1  0
 23 24  1  0
 24 25  1  0
 25 26  2  0
 26 27  1  0
 27 28  2  0
 28 29  1  0
 28 30  1  0
 30 31  1  0
 26 32  1  0
 32 33  2  0
 32 34  1  0
 17 35  1  0
 35 36  2  0
 36 37  1  0
 29 24  2  0
 34 13  1  0
 37 15  2  0
M  END
$$$$
