
     RDKit          3D

 37 39  0  0  0  0  0  0  0  0999 V2000
  -12.7763  -34.1484  -13.3688 C   0  0  0  0  0  0  0  0  0  0  0  0
  -13.9818  -35.0280  -13.3038 C   0  0  0  0  0  0  0  0  0  0  0  0
  -13.8495  -36.2063  -12.3952 C   0  0  0  0  0  0  0  0  0  0  0  0
  -13.7084  -35.8883  -10.9476 C   0  0  0  0  0  0  0  0  0  0  0  0
  -14.8343  -36.2444  -10.1235 N   0  0  0  0  0  0  0  0  0  0  0  0
  -15.1939  -37.6071   -9.8522 C   0  0  0  0  0  0  0  0  0  0  0  0
  -16.2839  -38.0004  -10.3777 O   0  0  0  0  0  0  0  0  0  0  0  0
  -14.3887  -38.5297   -9.0261 C   0  0  2  0  0  0  0  0  0  0  0  0
  -13.0819  -38.7819   -9.7345 C   0  0  0  0  0  0  0  0  0  0  0  0
  -15.0825  -39.7239   -8.4973 C   0  0  0  0  0  0  0  0  0  0  0  0
  -16.1624  -39.5090   -7.5114 C   0  0  2  0  0  0  0  0  0  0  0  0
  -15.8950  -40.3345   -6.3950 O   0  0  0  0  0  0  0  0  0  0  0  0
  -17.5631  -39.9053   -8.0490 C   0  0  2  0  0  0  0  0  0  0  0  0
  -18.4814  -40.0151   -6.8695 C   0  0  0  0  0  0  0  0  0  0  0  0
  -19.8680  -39.4985   -7.0397 C   0  0  0  0  0  0  0  0  0  0  0  0
  -21.0976  -40.0404   -6.7446 C   0  0  0  0  0  0  0  0  0  0  0  0
  -22.2186  -39.3023   -7.0181 C   0  0  0  0  0  0  0  0  0  0  0  0
  -23.6629  -39.5928   -6.8048 C   0  0  0  0  0  0  0  0  0  0  0  0
  -24.2911  -40.3025   -7.9720 C   0  0  0  0  0  0  0  0  0  0  0  0
  -23.5655  -41.5864   -8.2663 C   0  0  0  0  0  0  0  0  0  0  0  0
  -24.0247  -42.7498   -7.4187 C   0  0  0  0  0  0  0  0  0  0  0  0
  -23.1656  -43.9810   -7.5642 C   0  0  0  0  0  0  0  0  0  0  0  0
  -22.0240  -43.9634   -6.6905 N   0  0  0  0  0  0  0  0  0  0  0  0
  -20.6198  -43.8681   -6.9545 C   0  0  0  0  0  0  0  0  0  0  0  0
  -19.8848  -43.0421   -7.7677 C   0  0  0  0  0  0  0  0  0  0  0  0
  -18.5175  -43.1898   -7.7360 C   0  0  0  0  0  0  0  0  0  0  0  0
  -17.9487  -44.1682   -6.8881 C   0  0  0  0  0  0  0  0  0  0  0  0
  -18.6854  -44.9968   -6.0748 C   0  0  0  0  0  0  0  0  0  0  0  0
  -19.9846  -44.8085   -6.1453 N   0  0  0  0  0  0  0  0  0  0  0  0
  -18.0568  -45.9325   -5.2701 O   0  0  0  0  0  0  0  0  0  0  0  0
  -18.3692  -47.3038   -5.5767 C   0  0  0  0  0  0  0  0  0  0  0  0
  -17.4426  -42.4544   -8.4412 C   0  0  0  0  0  0  0  0  0  0  0  0
  -16.3848  -43.1406   -8.8366 O   0  0  0  0  0  0  0  0  0  0  0  0
  -17.3061  -41.1110   -8.7925 N   0  0  0  0  0  0  0  0  0  0  0  0
  -22.0862  -38.0143   -7.5921 C   0  0  0  0  0  0  0  0  0  0  0  0
  -20.8878  -37.4344   -7.9011 C   0  0  0  0  0  0  0  0  0  0  0  0
  -19.7935  -38.1974   -7.6140 C   0  0  0  0  0  0  0  0  0  0  0  0
  1  2  1  0
  2  3  1  0
  3  4  1  0
  4  5  1  0
  5  6  1  0
  6  7  2  0
  6  8  1  0
  8  9  1  6
  8 10  1  0
 10 11  1  0
 11 12  1  1
 11 13  1  0
 13 14  1  1
 14 15  1  0
 15 16  1  0
 16 17  2  0
 17 18  1  0
 18 19  1  0
 19 20  1  0
 20 21  1  0
 21 22  1  0
 22 23  1  0
 23 24  1  0
 24 25  1  0
 25 26  2  0
 26 27  1  0
 27 28  2  0
 28 29  1  0
 28 30  1  0
 30 31  1  0
 26 32  1  0
 32 33  2  0
 32 34  1  0
 17 35  1  0
 35 36  2  0
 36 37  1  0
 29 24  2  0
 34 13  1  0
 37 15  2  0
M  END
$$$$
