
     RDKit          3D

 37 39  0  0  0  0  0  0  0  0999 V2000
  -13.9701  -34.5917  -14.5317 C   0  0  0  0  0  0  0  0  0  0  0  0
  -12.8716  -34.6527  -13.5213 C   0  0  0  0  0  0  0  0  0  0  0  0
  -13.2910  -35.1251  -12.1676 C   0  0  0  0  0  0  0  0  0  0  0  0
  -13.7507  -36.5394  -12.0949 C   0  0  0  0  0  0  0  0  0  0  0  0
  -14.0967  -37.0104  -10.7788 N   0  0  0  0  0  0  0  0  0  0  0  0
  -14.2444  -38.4043  -10.4703 C   0  0  0  0  0  0  0  0  0  0  0  0
  -14.2669  -39.1873  -11.4729 O   0  0  0  0  0  0  0  0  0  0  0  0
  -14.3662  -38.9432   -9.1003 C   0  0  2  0  0  0  0  0  0  0  0  0
  -12.9923  -39.3422   -8.6245 C   0  0  0  0  0  0  0  0  0  0  0  0
  -15.4457  -39.9268   -8.8679 C   0  0  0  0  0  0  0  0  0  0  0  0
  -16.2698  -39.7657   -7.6515 C   0  0  2  0  0  0  0  0  0  0  0  0
  -15.7026  -40.5729   -6.6388 O   0  0  0  0  0  0  0  0  0  0  0  0
  -17.7359  -40.2362   -7.8448 C   0  0  2  0  0  0  0  0  0  0  0  0
  -18.3022  -40.5088   -6.4841 C   0  0  0  0  0  0  0  0  0  0  0  0
  -19.7134  -40.0980   -6.2425 C   0  0  0  0  0  0  0  0  0  0  0  0
  -20.7863  -40.7605   -5.6925 C   0  0  0  0  0  0  0  0  0  0  0  0
  -21.9825  -40.1000   -5.5980 C   0  0  0  0  0  0  0  0  0  0  0  0
  -23.2990  -40.5245   -5.0480 C   0  0  0  0  0  0  0  0  0  0  0  0
  -24.1684  -41.1956   -6.0748 C   0  0  0  0  0  0  0  0  0  0  0  0
  -23.4693  -42.3895   -6.6643 C   0  0  0  0  0  0  0  0  0  0  0  0
  -23.6170  -43.6464   -5.8391 C   0  0  0  0  0  0  0  0  0  0  0  0
  -22.7535  -44.7879   -6.3150 C   0  0  0  0  0  0  0  0  0  0  0  0
  -21.4252  -44.7402   -5.7671 N   0  0  0  0  0  0  0  0  0  0  0  0
  -20.1488  -44.5093   -6.3738 C   0  0  0  0  0  0  0  0  0  0  0  0
  -19.7059  -43.5673   -7.2682 C   0  0  0  0  0  0  0  0  0  0  0  0
  -18.3723  -43.6028   -7.6037 C   0  0  0  0  0  0  0  0  0  0  0  0
  -17.5416  -44.5905   -7.0258 C   0  0  0  0  0  0  0  0  0  0  0  0
  -17.9859  -45.5353   -6.1311 C   0  0  0  0  0  0  0  0  0  0  0  0
  -19.2666  -45.4510   -5.8466 N   0  0  0  0  0  0  0  0  0  0  0  0
  -17.1116  -46.4725   -5.6061 O   0  0  0  0  0  0  0  0  0  0  0  0
  -17.6167  -47.8200   -5.5705 C   0  0  0  0  0  0  0  0  0  0  0  0
  -17.5682  -42.7305   -8.4904 C   0  0  0  0  0  0  0  0  0  0  0  0
  -16.6124  -43.2954   -9.2069 O   0  0  0  0  0  0  0  0  0  0  0  0
  -17.6112  -41.3581   -8.7382 N   0  0  0  0  0  0  0  0  0  0  0  0
  -22.0848  -38.7665   -6.0643 C   0  0  0  0  0  0  0  0  0  0  0  0
  -21.0479  -38.0677   -6.6161 C   0  0  0  0  0  0  0  0  0  0  0  0
  -19.8723  -38.7564   -6.6929 C   0  0  0  0  0  0  0  0  0  0  0  0
  1  2  1  0
  2  3  1  0
  3  4  1  0
  4  5  1  0
  5  6  1  0
  6  7  2  0
  6  8  1  0
  8  9  1  6
  8 10  1  0
 10 11  1  0
 11 12  1  1
 11 13  1  0
 13 14  1  1
 14 15  1  0
 15 16  1  0
 16 17  2  0
 17 18  1  0
 18 19  1  0
 19 20  1  0
 20 21  1  0
 21 22  1  0
 22 23  1  0
 23 24  1  0
 24 25  1  0
 25 26  2  0
 26 27  1  0
 27 28  2  0
 28 29  1  0
 28 30  1  0
 30 31  1  0
 26 32  1  0
 32 33  2  0
 32 34  1  0
 17 35  1  0
 35 36  2  0
 36 37  1  0
 29 24  2  0
 34 13  1  0
 37 15  2  0
M  END
$$$$
