
     RDKit          3D

 37 39  0  0  0  0  0  0  0  0999 V2000
  -24.2619  -42.8922   -8.1055 C   0  0  0  0  0  0  0  0  0  0  0  0
  -23.2473  -43.8728   -7.6155 C   0  0  0  0  0  0  0  0  0  0  0  0
  -22.2016  -43.2966   -6.7177 C   0  0  0  0  0  0  0  0  0  0  0  0
  -21.6580  -41.9737   -7.1314 C   0  0  0  0  0  0  0  0  0  0  0  0
  -20.2240  -41.9009   -7.2404 N   0  0  0  0  0  0  0  0  0  0  0  0
  -19.4050  -41.2569   -6.2533 C   0  0  0  0  0  0  0  0  0  0  0  0
  -20.0231  -40.8177   -5.2315 O   0  0  0  0  0  0  0  0  0  0  0  0
  -17.9419  -41.0899   -6.3687 C   0  0  2  0  0  0  0  0  0  0  0  0
  -17.2794  -42.0319   -5.3956 C   0  0  0  0  0  0  0  0  0  0  0  0
  -17.4314  -39.7020   -6.3799 C   0  0  0  0  0  0  0  0  0  0  0  0
  -17.6683  -38.8941   -7.5947 C   0  0  2  0  0  0  0  0  0  0  0  0
  -18.5491  -39.6207   -8.4285 O   0  0  0  0  0  0  0  0  0  0  0  0
  -16.3751  -38.6328   -8.4117 C   0  0  2  0  0  0  0  0  0  0  0  0
  -16.7908  -38.2769   -9.8071 C   0  0  0  0  0  0  0  0  0  0  0  0
  -16.0249  -37.1958  -10.4876 C   0  0  0  0  0  0  0  0  0  0  0  0
  -15.4559  -37.1139  -11.7374 C   0  0  0  0  0  0  0  0  0  0  0  0
  -14.8069  -35.9587  -12.0846 C   0  0  0  0  0  0  0  0  0  0  0  0
  -14.1172  -35.5585  -13.3416 C   0  0  0  0  0  0  0  0  0  0  0  0
  -12.6646  -35.9462  -13.3558 C   0  0  0  0  0  0  0  0  0  0  0  0
  -12.5084  -37.4284  -13.1551 C   0  0  0  0  0  0  0  0  0  0  0  0
  -12.6491  -38.2302  -14.4279 C   0  0  0  0  0  0  0  0  0  0  0  0
  -12.6978  -39.7207  -14.2021 C   0  0  0  0  0  0  0  0  0  0  0  0
  -14.0250  -40.1916  -13.9127 N   0  0  0  0  0  0  0  0  0  0  0  0
  -14.6040  -40.7495  -12.7277 C   0  0  0  0  0  0  0  0  0  0  0  0
  -14.5583  -40.3719  -11.4090 C   0  0  0  0  0  0  0  0  0  0  0  0
  -15.2938  -41.1200  -10.5193 C   0  0  0  0  0  0  0  0  0  0  0  0
  -16.0418  -42.2210  -10.9967 C   0  0  0  0  0  0  0  0  0  0  0  0
  -16.0860  -42.6002  -12.3176 C   0  0  0  0  0  0  0  0  0  0  0  0
  -15.3666  -41.8480  -13.1207 N   0  0  0  0  0  0  0  0  0  0  0  0
  -16.8425  -43.6917  -12.7108 O   0  0  0  0  0  0  0  0  0  0  0  0
  -16.4042  -44.3275  -13.9256 C   0  0  0  0  0  0  0  0  0  0  0  0
  -15.4978  -40.9730   -9.0597 C   0  0  0  0  0  0  0  0  0  0  0  0
  -15.5896  -42.0756   -8.3372 O   0  0  0  0  0  0  0  0  0  0  0  0
  -15.6227  -39.8485   -8.2432 N   0  0  0  0  0  0  0  0  0  0  0  0
  -14.7376  -34.8891  -11.1588 C   0  0  0  0  0  0  0  0  0  0  0  0
  -15.2878  -34.9234   -9.9082 C   0  0  0  0  0  0  0  0  0  0  0  0
  -15.9269  -36.0884   -9.5975 C   0  0  0  0  0  0  0  0  0  0  0  0
  1  2  1  0
  2  3  1  0
  3  4  1  0
  4  5  1  0
  5  6  1  0
  6  7  2  0
  6  8  1  0
  8  9  1  1
  8 10  1  0
 10 11  1  0
 11 12  1  6
 11 13  1  0
 13 14  1  6
 14 15  1  0
 15 16  1  0
 16 17  2  0
 17 18  1  0
 18 19  1  0
 19 20  1  0
 20 21  1  0
 21 22  1  0
 22 23  1  0
 23 24  1  0
 24 25  1  0
 25 26  2  0
 26 27  1  0
 27 28  2  0
 28 29  1  0
 28 30  1  0
 30 31  1  0
 26 32  1  0
 32 33  2  0
 32 34  1  0
 17 35  1  0
 35 36  2  0
 36 37  1  0
 29 24  2  0
 34 13  1  0
 37 15  2  0
M  END
$$$$
