
     RDKit          3D

 37 39  0  0  0  0  0  0  0  0999 V2000
  -12.5420  -43.0787  -13.3776 C   0  0  0  0  0  0  0  0  0  0  0  0
  -12.9503  -41.6556  -13.5759 C   0  0  0  0  0  0  0  0  0  0  0  0
  -12.4955  -40.7183  -12.5053 C   0  0  0  0  0  0  0  0  0  0  0  0
  -13.5391  -40.3062  -11.5266 C   0  0  0  0  0  0  0  0  0  0  0  0
  -14.4506  -39.2902  -11.9855 N   0  0  0  0  0  0  0  0  0  0  0  0
  -15.5768  -38.8542  -11.2100 C   0  0  0  0  0  0  0  0  0  0  0  0
  -16.6981  -38.8804  -11.8109 O   0  0  0  0  0  0  0  0  0  0  0  0
  -15.4925  -38.3968   -9.8080 C   0  0  2  0  0  0  0  0  0  0  0  0
  -14.6191  -37.1687   -9.7621 C   0  0  0  0  0  0  0  0  0  0  0  0
  -15.2138  -39.4311   -8.7884 C   0  0  0  0  0  0  0  0  0  0  0  0
  -16.1151  -39.5018   -7.6191 C   0  0  2  0  0  0  0  0  0  0  0  0
  -15.5675  -40.4368   -6.7109 O   0  0  0  0  0  0  0  0  0  0  0  0
  -17.5411  -39.9956   -7.9807 C   0  0  2  0  0  0  0  0  0  0  0  0
  -18.2660  -40.2528   -6.6943 C   0  0  0  0  0  0  0  0  0  0  0  0
  -19.7008  -39.8575   -6.6339 C   0  0  0  0  0  0  0  0  0  0  0  0
  -20.8250  -40.5253   -6.2065 C   0  0  0  0  0  0  0  0  0  0  0  0
  -22.0314  -39.8798   -6.2706 C   0  0  0  0  0  0  0  0  0  0  0  0
  -23.4001  -40.3130   -5.8772 C   0  0  0  0  0  0  0  0  0  0  0  0
  -24.1299  -41.0133   -6.9896 C   0  0  0  0  0  0  0  0  0  0  0  0
  -23.3503  -42.2073   -7.4674 C   0  0  0  0  0  0  0  0  0  0  0  0
  -23.5830  -43.4520   -6.6431 C   0  0  0  0  0  0  0  0  0  0  0  0
  -22.6547  -44.5894   -6.9891 C   0  0  0  0  0  0  0  0  0  0  0  0
  -21.4038  -44.5141   -6.2845 N   0  0  0  0  0  0  0  0  0  0  0  0
  -20.0657  -44.2760   -6.7355 C   0  0  0  0  0  0  0  0  0  0  0  0
  -19.5279  -43.3432   -7.5867 C   0  0  0  0  0  0  0  0  0  0  0  0
  -18.1631  -43.3661   -7.7566 C   0  0  0  0  0  0  0  0  0  0  0  0
  -17.3977  -44.3323   -7.0636 C   0  0  0  0  0  0  0  0  0  0  0  0
  -17.9368  -45.2678   -6.2123 C   0  0  0  0  0  0  0  0  0  0  0  0
  -19.2435  -45.1963   -6.0875 N   0  0  0  0  0  0  0  0  0  0  0  0
  -17.1223  -46.1838   -5.5675 O   0  0  0  0  0  0  0  0  0  0  0  0
  -17.5264  -47.5584   -5.7069 C   0  0  0  0  0  0  0  0  0  0  0  0
  -17.2670  -42.4979   -8.5547 C   0  0  0  0  0  0  0  0  0  0  0  0
  -16.2244  -43.0617   -9.1390 O   0  0  0  0  0  0  0  0  0  0  0  0
  -17.2954  -41.1306   -8.8314 N   0  0  0  0  0  0  0  0  0  0  0  0
  -22.0915  -38.5560   -6.7705 C   0  0  0  0  0  0  0  0  0  0  0  0
  -21.0032  -37.8524   -7.2048 C   0  0  0  0  0  0  0  0  0  0  0  0
  -19.8191  -38.5260   -7.1251 C   0  0  0  0  0  0  0  0  0  0  0  0
  1  2  1  0
  2  3  1  0
  3  4  1  0
  4  5  1  0
  5  6  1  0
  6  7  2  0
  6  8  1  0
  8  9  1  6
  8 10  1  0
 10 11  1  0
 11 12  1  1
 11 13  1  0
 13 14  1  1
 14 15  1  0
 15 16  1  0
 16 17  2  0
 17 18  1  0
 18 19  1  0
 19 20  1  0
 20 21  1  0
 21 22  1  0
 22 23  1  0
 23 24  1  0
 24 25  1  0
 25 26  2  0
 26 27  1  0
 27 28  2  0
 28 29  1  0
 28 30  1  0
 30 31  1  0
 26 32  1  0
 32 33  2  0
 32 34  1  0
 17 35  1  0
 35 36  2  0
 36 37  1  0
 29 24  2  0
 34 13  1  0
 37 15  2  0
M  END
$$$$
