
     RDKit          3D

 37 39  0  0  0  0  0  0  0  0999 V2000
  -17.3046  -35.7243  -13.6587 C   0  0  0  0  0  0  0  0  0  0  0  0
  -16.2290  -36.5391  -13.0180 C   0  0  0  0  0  0  0  0  0  0  0  0
  -14.9318  -36.5577  -13.7585 C   0  0  0  0  0  0  0  0  0  0  0  0
  -13.8471  -37.3637  -13.1335 C   0  0  0  0  0  0  0  0  0  0  0  0
  -13.8801  -37.4357  -11.6957 N   0  0  0  0  0  0  0  0  0  0  0  0
  -14.4092  -38.5680  -10.9900 C   0  0  0  0  0  0  0  0  0  0  0  0
  -14.8023  -39.5330  -11.7202 O   0  0  0  0  0  0  0  0  0  0  0  0
  -14.5120  -38.6557   -9.5190 C   0  0  2  0  0  0  0  0  0  0  0  0
  -13.1757  -38.2845   -8.9278 C   0  0  0  0  0  0  0  0  0  0  0  0
  -15.1507  -39.8713   -8.9700 C   0  0  0  0  0  0  0  0  0  0  0  0
  -16.0236  -39.7130   -7.7879 C   0  0  2  0  0  0  0  0  0  0  0  0
  -15.5561  -40.5962   -6.7877 O   0  0  0  0  0  0  0  0  0  0  0  0
  -17.5033  -40.0844   -8.0717 C   0  0  2  0  0  0  0  0  0  0  0  0
  -18.1256  -40.4759   -6.7656 C   0  0  0  0  0  0  0  0  0  0  0  0
  -19.5228  -40.0232   -6.5178 C   0  0  0  0  0  0  0  0  0  0  0  0
  -20.6431  -40.6870   -6.0740 C   0  0  0  0  0  0  0  0  0  0  0  0
  -21.8091  -39.9810   -5.9387 C   0  0  0  0  0  0  0  0  0  0  0  0
  -23.1613  -40.3961   -5.4750 C   0  0  0  0  0  0  0  0  0  0  0  0
  -24.0279  -40.9053   -6.5932 C   0  0  0  0  0  0  0  0  0  0  0  0
  -23.3675  -42.0610   -7.2931 C   0  0  0  0  0  0  0  0  0  0  0  0
  -23.6012  -43.3920   -6.6173 C   0  0  0  0  0  0  0  0  0  0  0  0
  -22.7779  -44.5165   -7.1941 C   0  0  0  0  0  0  0  0  0  0  0  0
  -21.4672  -44.5967   -6.6087 N   0  0  0  0  0  0  0  0  0  0  0  0
  -20.1623  -44.3655   -7.1514 C   0  0  0  0  0  0  0  0  0  0  0  0
  -19.6466  -43.3545   -7.9231 C   0  0  0  0  0  0  0  0  0  0  0  0
  -18.3060  -43.4205   -8.2245 C   0  0  0  0  0  0  0  0  0  0  0  0
  -17.5422  -44.5066   -7.7381 C   0  0  0  0  0  0  0  0  0  0  0  0
  -18.0595  -45.5203   -6.9665 C   0  0  0  0  0  0  0  0  0  0  0  0
  -19.3433  -45.4030   -6.7090 N   0  0  0  0  0  0  0  0  0  0  0  0
  -17.2480  -46.5527   -6.5259 O   0  0  0  0  0  0  0  0  0  0  0  0
  -16.8419  -46.4592   -5.1481 C   0  0  0  0  0  0  0  0  0  0  0  0
  -17.4333  -42.4978   -8.9865 C   0  0  0  0  0  0  0  0  0  0  0  0
  -16.4826  -43.0282   -9.7355 O   0  0  0  0  0  0  0  0  0  0  0  0
  -17.4031  -41.1061   -9.0809 N   0  0  0  0  0  0  0  0  0  0  0  0
  -21.8330  -38.6009   -6.2561 C   0  0  0  0  0  0  0  0  0  0  0  0
  -20.7468  -37.8991   -6.6985 C   0  0  0  0  0  0  0  0  0  0  0  0
  -19.6033  -38.6339   -6.8199 C   0  0  0  0  0  0  0  0  0  0  0  0
  1  2  1  0
  2  3  1  0
  3  4  1  0
  4  5  1  0
  5  6  1  0
  6  7  2  0
  6  8  1  0
  8  9  1  1
  8 10  1  0
 10 11  1  0
 11 12  1  1
 11 13  1  0
 13 14  1  1
 14 15  1  0
 15 16  1  0
 16 17  2  0
 17 18  1  0
 18 19  1  0
 19 20  1  0
 20 21  1  0
 21 22  1  0
 22 23  1  0
 23 24  1  0
 24 25  1  0
 25 26  2  0
 26 27  1  0
 27 28  2  0
 28 29  1  0
 28 30  1  0
 30 31  1  0
 26 32  1  0
 32 33  2  0
 32 34  1  0
 17 35  1  0
 35 36  2  0
 36 37  1  0
 29 24  2  0
 34 13  1  0
 37 15  2  0
M  END
$$$$
