
     RDKit          3D

 37 39  0  0  0  0  0  0  0  0999 V2000
  -14.9419  -34.3441  -13.0304 C   0  0  0  0  0  0  0  0  0  0  0  0
  -13.4901  -34.6455  -12.8501 C   0  0  0  0  0  0  0  0  0  0  0  0
  -13.1627  -36.0975  -12.7222 C   0  0  0  0  0  0  0  0  0  0  0  0
  -13.9105  -36.8338  -11.6661 C   0  0  0  0  0  0  0  0  0  0  0  0
  -13.6424  -38.2465  -11.5893 N   0  0  0  0  0  0  0  0  0  0  0  0
  -14.3998  -39.1330  -10.7524 C   0  0  0  0  0  0  0  0  0  0  0  0
  -14.9884  -40.0859  -11.3560 O   0  0  0  0  0  0  0  0  0  0  0  0
  -14.5193  -38.9918   -9.2869 C   0  0  2  0  0  0  0  0  0  0  0  0
  -13.2365  -38.3982   -8.7620 C   0  0  0  0  0  0  0  0  0  0  0  0
  -15.0448  -40.1604   -8.5484 C   0  0  0  0  0  0  0  0  0  0  0  0
  -15.9755  -39.9026   -7.4296 C   0  0  2  0  0  0  0  0  0  0  0  0
  -15.6166  -40.7621   -6.3659 O   0  0  0  0  0  0  0  0  0  0  0  0
  -17.4542  -40.2089   -7.7870 C   0  0  2  0  0  0  0  0  0  0  0  0
  -18.1686  -40.5237   -6.5076 C   0  0  0  0  0  0  0  0  0  0  0  0
  -19.5521  -39.9933   -6.3555 C   0  0  0  0  0  0  0  0  0  0  0  0
  -20.7286  -40.5845   -5.9570 C   0  0  0  0  0  0  0  0  0  0  0  0
  -21.8621  -39.8167   -5.9117 C   0  0  0  0  0  0  0  0  0  0  0  0
  -23.2581  -40.1474   -5.5145 C   0  0  0  0  0  0  0  0  0  0  0  0
  -24.0855  -40.6506   -6.6646 C   0  0  0  0  0  0  0  0  0  0  0  0
  -23.4477  -41.8613   -7.2883 C   0  0  0  0  0  0  0  0  0  0  0  0
  -23.7881  -43.1549   -6.5859 C   0  0  0  0  0  0  0  0  0  0  0  0
  -22.9931  -44.3384   -7.0783 C   0  0  0  0  0  0  0  0  0  0  0  0
  -21.7234  -44.4641   -6.4157 N   0  0  0  0  0  0  0  0  0  0  0  0
  -20.3798  -44.3173   -6.8888 C   0  0  0  0  0  0  0  0  0  0  0  0
  -19.7695  -43.3605   -7.6605 C   0  0  0  0  0  0  0  0  0  0  0  0
  -18.4194  -43.5038   -7.8814 C   0  0  0  0  0  0  0  0  0  0  0  0
  -17.7417  -44.6096   -7.3176 C   0  0  0  0  0  0  0  0  0  0  0  0
  -18.3536  -45.5690   -6.5460 C   0  0  0  0  0  0  0  0  0  0  0  0
  -19.6421  -45.3787   -6.3672 N   0  0  0  0  0  0  0  0  0  0  0  0
  -17.6231  -46.6250   -6.0269 O   0  0  0  0  0  0  0  0  0  0  0  0
  -18.3741  -47.8339   -5.8108 C   0  0  0  0  0  0  0  0  0  0  0  0
  -17.4583  -42.6527   -8.6200 C   0  0  0  0  0  0  0  0  0  0  0  0
  -16.4958  -43.2554   -9.2956 O   0  0  0  0  0  0  0  0  0  0  0  0
  -17.3505  -41.2683   -8.7562 N   0  0  0  0  0  0  0  0  0  0  0  0
  -21.7963  -38.4489   -6.2731 C   0  0  0  0  0  0  0  0  0  0  0  0
  -20.6519  -37.8180   -6.6736 C   0  0  0  0  0  0  0  0  0  0  0  0
  -19.5431  -38.6129   -6.7053 C   0  0  0  0  0  0  0  0  0  0  0  0
  1  2  1  0
  2  3  1  0
  3  4  1  0
  4  5  1  0
  5  6  1  0
  6  7  2  0
  6  8  1  0
  8  9  1  1
  8 10  1  0
 10 11  1  0
 11 12  1  1
 11 13  1  0
 13 14  1  1
 14 15  1  0
 15 16  1  0
 16 17  2  0
 17 18  1  0
 18 19  1  0
 19 20  1  0
 20 21  1  0
 21 22  1  0
 22 23  1  0
 23 24  1  0
 24 25  1  0
 25 26  2  0
 26 27  1  0
 27 28  2  0
 28 29  1  0
 28 30  1  0
 30 31  1  0
 26 32  1  0
 32 33  2  0
 32 34  1  0
 17 35  1  0
 35 36  2  0
 36 37  1  0
 29 24  2  0
 34 13  1  0
 37 15  2  0
M  END
$$$$
