
     RDKit          3D

 37 39  0  0  0  0  0  0  0  0999 V2000
  -13.7615  -35.6868  -13.8918 C   0  0  0  0  0  0  0  0  0  0  0  0
  -14.0328  -37.1404  -14.1029 C   0  0  0  0  0  0  0  0  0  0  0  0
  -14.1314  -37.9478  -12.8500 C   0  0  0  0  0  0  0  0  0  0  0  0
  -12.8338  -38.3703  -12.2545 C   0  0  0  0  0  0  0  0  0  0  0  0
  -12.8769  -38.7112  -10.8561 N   0  0  0  0  0  0  0  0  0  0  0  0
  -13.6295  -39.8256  -10.3546 C   0  0  0  0  0  0  0  0  0  0  0  0
  -14.2845  -40.4806  -11.2270 O   0  0  0  0  0  0  0  0  0  0  0  0
  -13.6739  -40.2255   -8.9333 C   0  0  2  0  0  0  0  0  0  0  0  0
  -12.4736  -41.0920   -8.6474 C   0  0  0  0  0  0  0  0  0  0  0  0
  -14.9704  -40.7223   -8.4241 C   0  0  0  0  0  0  0  0  0  0  0  0
  -15.8978  -39.7358   -7.8315 C   0  0  2  0  0  0  0  0  0  0  0  0
  -15.8252  -39.8688   -6.4258 O   0  0  0  0  0  0  0  0  0  0  0  0
  -17.3766  -39.9720   -8.2382 C   0  0  2  0  0  0  0  0  0  0  0  0
  -18.1770  -40.0795   -6.9755 C   0  0  0  0  0  0  0  0  0  0  0  0
  -19.5193  -39.4340   -6.9668 C   0  0  0  0  0  0  0  0  0  0  0  0
  -20.7579  -39.8851   -6.5734 C   0  0  0  0  0  0  0  0  0  0  0  0
  -21.8269  -39.0357   -6.6830 C   0  0  0  0  0  0  0  0  0  0  0  0
  -23.2630  -39.2129   -6.3336 C   0  0  0  0  0  0  0  0  0  0  0  0
  -24.0697  -39.7861   -7.4655 C   0  0  0  0  0  0  0  0  0  0  0  0
  -23.5009  -41.1059   -7.9083 C   0  0  0  0  0  0  0  0  0  0  0  0
  -23.9787  -42.2786   -7.0841 C   0  0  0  0  0  0  0  0  0  0  0  0
  -23.2578  -43.5675   -7.3905 C   0  0  0  0  0  0  0  0  0  0  0  0
  -22.0370  -43.7075   -6.6442 N   0  0  0  0  0  0  0  0  0  0  0  0
  -20.6640  -43.7175   -7.0509 C   0  0  0  0  0  0  0  0  0  0  0  0
  -19.9411  -42.9065   -7.8895 C   0  0  0  0  0  0  0  0  0  0  0  0
  -18.5975  -43.1745   -8.0126 C   0  0  0  0  0  0  0  0  0  0  0  0
  -18.0398  -44.2528   -7.2874 C   0  0  0  0  0  0  0  0  0  0  0  0
  -18.7645  -45.0663   -6.4486 C   0  0  0  0  0  0  0  0  0  0  0  0
  -20.0408  -44.7614   -6.3690 N   0  0  0  0  0  0  0  0  0  0  0  0
  -18.1480  -46.1045   -5.7703 O   0  0  0  0  0  0  0  0  0  0  0  0
  -18.9433  -47.2965   -5.6336 C   0  0  0  0  0  0  0  0  0  0  0  0
  -17.5354  -42.4902   -8.7856 C   0  0  0  0  0  0  0  0  0  0  0  0
  -16.5919  -43.2382   -9.3301 O   0  0  0  0  0  0  0  0  0  0  0  0
  -17.3101  -41.1435   -9.0723 N   0  0  0  0  0  0  0  0  0  0  0  0
  -21.6334  -37.7289   -7.1936 C   0  0  0  0  0  0  0  0  0  0  0  0
  -20.4235  -37.2363   -7.5953 C   0  0  0  0  0  0  0  0  0  0  0  0
  -19.3819  -38.1091   -7.4707 C   0  0  0  0  0  0  0  0  0  0  0  0
  1  2  1  0
  2  3  1  0
  3  4  1  0
  4  5  1  0
  5  6  1  0
  6  7  2  0
  6  8  1  0
  8  9  1  6
  8 10  1  0
 10 11  1  0
 11 12  1  1
 11 13  1  0
 13 14  1  1
 14 15  1  0
 15 16  1  0
 16 17  2  0
 17 18  1  0
 18 19  1  0
 19 20  1  0
 20 21  1  0
 21 22  1  0
 22 23  1  0
 23 24  1  0
 24 25  1  0
 25 26  2  0
 26 27  1  0
 27 28  2  0
 28 29  1  0
 28 30  1  0
 30 31  1  0
 26 32  1  0
 32 33  2  0
 32 34  1  0
 17 35  1  0
 35 36  2  0
 36 37  1  0
 29 24  2  0
 34 13  1  0
 37 15  2  0
M  END
$$$$
