
     RDKit          3D

 37 39  0  0  0  0  0  0  0  0999 V2000
  -10.0951  -34.6065  -11.5457 C   0  0  0  0  0  0  0  0  0  0  0  0
  -11.5464  -34.7840  -11.8511 C   0  0  0  0  0  0  0  0  0  0  0  0
  -11.9683  -36.1969  -12.0901 C   0  0  0  0  0  0  0  0  0  0  0  0
  -11.9354  -37.0875  -10.8973 C   0  0  0  0  0  0  0  0  0  0  0  0
  -12.6145  -38.3483  -11.0479 N   0  0  0  0  0  0  0  0  0  0  0  0
  -14.0399  -38.4767  -10.9405 C   0  0  0  0  0  0  0  0  0  0  0  0
  -14.7127  -37.4889  -11.3768 O   0  0  0  0  0  0  0  0  0  0  0  0
  -14.7270  -39.6535  -10.3704 C   0  0  2  0  0  0  0  0  0  0  0  0
  -14.2377  -40.8835  -11.0922 C   0  0  0  0  0  0  0  0  0  0  0  0
  -16.1909  -39.5444  -10.1907 C   0  0  0  0  0  0  0  0  0  0  0  0
  -16.7032  -39.3942   -8.8125 C   0  0  2  0  0  0  0  0  0  0  0  0
  -15.8878  -40.1776   -7.9637 O   0  0  0  0  0  0  0  0  0  0  0  0
  -18.1595  -39.9042   -8.6472 C   0  0  2  0  0  0  0  0  0  0  0  0
  -18.4151  -40.0622   -7.1789 C   0  0  0  0  0  0  0  0  0  0  0  0
  -19.7568  -39.6545   -6.6767 C   0  0  0  0  0  0  0  0  0  0  0  0
  -20.6650  -40.2822   -5.8559 C   0  0  0  0  0  0  0  0  0  0  0  0
  -21.8367  -39.6356   -5.5640 C   0  0  0  0  0  0  0  0  0  0  0  0
  -22.9912  -40.0303   -4.7113 C   0  0  0  0  0  0  0  0  0  0  0  0
  -24.0339  -40.8055   -5.4679 C   0  0  0  0  0  0  0  0  0  0  0  0
  -23.4337  -42.0360   -6.0899 C   0  0  0  0  0  0  0  0  0  0  0  0
  -23.3590  -43.2157   -5.1489 C   0  0  0  0  0  0  0  0  0  0  0  0
  -22.5761  -44.3811   -5.7000 C   0  0  0  0  0  0  0  0  0  0  0  0
  -21.1644  -44.2623   -5.4549 N   0  0  0  0  0  0  0  0  0  0  0  0
  -20.0542  -44.0662   -6.3379 C   0  0  0  0  0  0  0  0  0  0  0  0
  -19.8441  -43.2016   -7.3828 C   0  0  0  0  0  0  0  0  0  0  0  0
  -18.6113  -43.2453   -7.9915 C   0  0  0  0  0  0  0  0  0  0  0  0
  -17.6428  -44.1631   -7.5231 C   0  0  0  0  0  0  0  0  0  0  0  0
  -17.8541  -45.0305   -6.4774 C   0  0  0  0  0  0  0  0  0  0  0  0
  -19.0478  -44.9419   -5.9338 N   0  0  0  0  0  0  0  0  0  0  0  0
  -16.8561  -45.9020   -6.0741 O   0  0  0  0  0  0  0  0  0  0  0  0
  -17.2106  -47.2962   -6.1267 C   0  0  0  0  0  0  0  0  0  0  0  0
  -18.0443  -42.4435   -9.1002 C   0  0  0  0  0  0  0  0  0  0  0  0
  -17.2424  -43.0549   -9.9541 O   0  0  0  0  0  0  0  0  0  0  0  0
  -18.1871  -41.0999   -9.4484 N   0  0  0  0  0  0  0  0  0  0  0  0
  -22.0823  -38.3515   -6.1088 C   0  0  0  0  0  0  0  0  0  0  0  0
  -21.2109  -37.6884   -6.9268 C   0  0  0  0  0  0  0  0  0  0  0  0
  -20.0546  -38.3618   -7.1946 C   0  0  0  0  0  0  0  0  0  0  0  0
  1  2  1  0
  2  3  1  0
  3  4  1  0
  4  5  1  0
  5  6  1  0
  6  7  2  0
  6  8  1  0
  8  9  1  6
  8 10  1  0
 10 11  1  0
 11 12  1  1
 11 13  1  0
 13 14  1  1
 14 15  1  0
 15 16  1  0
 16 17  2  0
 17 18  1  0
 18 19  1  0
 19 20  1  0
 20 21  1  0
 21 22  1  0
 22 23  1  0
 23 24  1  0
 24 25  1  0
 25 26  2  0
 26 27  1  0
 27 28  2  0
 28 29  1  0
 28 30  1  0
 30 31  1  0
 26 32  1  0
 32 33  2  0
 32 34  1  0
 17 35  1  0
 35 36  2  0
 36 37  1  0
 29 24  2  0
 34 13  1  0
 37 15  2  0
M  END
$$$$
