
     RDKit          3D

 37 39  0  0  0  0  0  0  0  0999 V2000
  -24.2719  -42.2799   -4.4289 C   0  0  0  0  0  0  0  0  0  0  0  0
  -23.8280  -41.7027   -5.7332 C   0  0  0  0  0  0  0  0  0  0  0  0
  -22.3555  -41.4812   -5.8516 C   0  0  0  0  0  0  0  0  0  0  0  0
  -21.7632  -40.5523   -4.8501 C   0  0  0  0  0  0  0  0  0  0  0  0
  -21.0706  -39.4140   -5.3960 N   0  0  0  0  0  0  0  0  0  0  0  0
  -19.7293  -39.4937   -5.9006 C   0  0  0  0  0  0  0  0  0  0  0  0
  -19.5846  -39.1722   -7.1232 O   0  0  0  0  0  0  0  0  0  0  0  0
  -18.5634  -39.9144   -5.0971 C   0  0  2  0  0  0  0  0  0  0  0  0
  -18.1898  -38.7813   -4.1753 C   0  0  0  0  0  0  0  0  0  0  0  0
  -17.4478  -40.5513   -5.8297 C   0  0  0  0  0  0  0  0  0  0  0  0
  -17.6025  -40.7370   -7.2879 C   0  0  2  0  0  0  0  0  0  0  0  0
  -16.8794  -41.8961   -7.6521 O   0  0  0  0  0  0  0  0  0  0  0  0
  -17.0245  -39.5578   -8.1147 C   0  0  2  0  0  0  0  0  0  0  0  0
  -17.2567  -39.8693   -9.5623 C   0  0  0  0  0  0  0  0  0  0  0  0
  -17.6603  -38.7378  -10.4428 C   0  0  0  0  0  0  0  0  0  0  0  0
  -17.2027  -38.3137  -11.6689 C   0  0  0  0  0  0  0  0  0  0  0  0
  -17.7925  -37.2184  -12.2424 C   0  0  0  0  0  0  0  0  0  0  0  0
  -17.5436  -36.5352  -13.5412 C   0  0  0  0  0  0  0  0  0  0  0  0
  -16.4951  -35.4622  -13.4415 C   0  0  0  0  0  0  0  0  0  0  0  0
  -15.2020  -36.0294  -12.9241 C   0  0  0  0  0  0  0  0  0  0  0  0
  -14.3418  -36.6540  -13.9978 C   0  0  0  0  0  0  0  0  0  0  0  0
  -13.1478  -37.4012  -13.4584 C   0  0  0  0  0  0  0  0  0  0  0  0
  -13.4613  -38.7584  -13.1025 N   0  0  0  0  0  0  0  0  0  0  0  0
  -13.5078  -39.4284  -11.8377 C   0  0  0  0  0  0  0  0  0  0  0  0
  -14.0645  -39.0887  -10.6302 C   0  0  0  0  0  0  0  0  0  0  0  0
  -13.9692  -40.0133   -9.6162 C   0  0  0  0  0  0  0  0  0  0  0  0
  -13.3119  -41.2411   -9.8617 C   0  0  0  0  0  0  0  0  0  0  0  0
  -12.7527  -41.5806  -11.0710 C   0  0  0  0  0  0  0  0  0  0  0  0
  -12.8765  -40.6603  -12.0016 N   0  0  0  0  0  0  0  0  0  0  0  0
  -12.1244  -42.8037  -11.2365 O   0  0  0  0  0  0  0  0  0  0  0  0
  -10.7841  -42.7317  -11.7567 C   0  0  0  0  0  0  0  0  0  0  0  0
  -14.4816  -39.9904   -8.2267 C   0  0  0  0  0  0  0  0  0  0  0  0
  -13.7351  -40.5426   -7.2865 O   0  0  0  0  0  0  0  0  0  0  0  0
  -15.6564  -39.4800   -7.6735 N   0  0  0  0  0  0  0  0  0  0  0  0
  -18.8464  -36.5563  -11.5665 C   0  0  0  0  0  0  0  0  0  0  0  0
  -19.3351  -36.9409  -10.3494 C   0  0  0  0  0  0  0  0  0  0  0  0
  -18.7250  -38.0356   -9.8094 C   0  0  0  0  0  0  0  0  0  0  0  0
  1  2  1  0
  2  3  1  0
  3  4  1  0
  4  5  1  0
  5  6  1  0
  6  7  2  0
  6  8  1  0
  8  9  1  6
  8 10  1  0
 10 11  1  0
 11 12  1  6
 11 13  1  0
 13 14  1  6
 14 15  1  0
 15 16  1  0
 16 17  2  0
 17 18  1  0
 18 19  1  0
 19 20  1  0
 20 21  1  0
 21 22  1  0
 22 23  1  0
 23 24  1  0
 24 25  1  0
 25 26  2  0
 26 27  1  0
 27 28  2  0
 28 29  1  0
 28 30  1  0
 30 31  1  0
 26 32  1  0
 32 33  2  0
 32 34  1  0
 17 35  1  0
 35 36  2  0
 36 37  1  0
 29 24  2  0
 34 13  1  0
 37 15  2  0
M  END
$$$$
