
     RDKit          3D

 37 39  0  0  0  0  0  0  0  0999 V2000
  -14.9005  -33.8371  -13.6590 C   0  0  0  0  0  0  0  0  0  0  0  0
  -14.8739  -34.4998  -12.3206 C   0  0  0  0  0  0  0  0  0  0  0  0
  -13.8131  -35.5387  -12.1568 C   0  0  0  0  0  0  0  0  0  0  0  0
  -14.2937  -36.8896  -11.7557 C   0  0  0  0  0  0  0  0  0  0  0  0
  -14.0819  -37.2365  -10.3742 N   0  0  0  0  0  0  0  0  0  0  0  0
  -14.6023  -38.4399   -9.7904 C   0  0  0  0  0  0  0  0  0  0  0  0
  -15.6757  -38.8812  -10.3118 O   0  0  0  0  0  0  0  0  0  0  0  0
  -13.9729  -39.1546   -8.6612 C   0  0  2  0  0  0  0  0  0  0  0  0
  -12.4954  -39.2704   -8.9383 C   0  0  0  0  0  0  0  0  0  0  0  0
  -14.6461  -40.3874   -8.1985 C   0  0  0  0  0  0  0  0  0  0  0  0
  -15.7265  -40.2451   -7.1999 C   0  0  2  0  0  0  0  0  0  0  0  0
  -15.5194  -41.2241   -6.2010 O   0  0  0  0  0  0  0  0  0  0  0  0
  -17.1389  -40.4892   -7.7946 C   0  0  2  0  0  0  0  0  0  0  0  0
  -18.1226  -40.3916   -6.6680 C   0  0  0  0  0  0  0  0  0  0  0  0
  -19.4151  -39.7088   -6.9539 C   0  0  0  0  0  0  0  0  0  0  0  0
  -20.7206  -40.0602   -6.6995 C   0  0  0  0  0  0  0  0  0  0  0  0
  -21.7149  -39.2011   -7.0864 C   0  0  0  0  0  0  0  0  0  0  0  0
  -23.1943  -39.2813   -6.9424 C   0  0  0  0  0  0  0  0  0  0  0  0
  -23.8531  -39.9826   -8.0977 C   0  0  0  0  0  0  0  0  0  0  0  0
  -23.2957  -41.3692   -8.2653 C   0  0  0  0  0  0  0  0  0  0  0  0
  -23.9522  -42.3978   -7.3745 C   0  0  0  0  0  0  0  0  0  0  0  0
  -23.2631  -43.7394   -7.3892 C   0  0  0  0  0  0  0  0  0  0  0  0
  -22.1759  -43.8114   -6.4513 N   0  0  0  0  0  0  0  0  0  0  0  0
  -20.7602  -43.9226   -6.6358 C   0  0  0  0  0  0  0  0  0  0  0  0
  -19.8787  -43.2617   -7.4542 C   0  0  0  0  0  0  0  0  0  0  0  0
  -18.5478  -43.5871   -7.3309 C   0  0  0  0  0  0  0  0  0  0  0  0
  -18.1621  -44.5693   -6.3896 C   0  0  0  0  0  0  0  0  0  0  0  0
  -19.0456  -45.2326   -5.5710 C   0  0  0  0  0  0  0  0  0  0  0  0
  -20.3016  -44.8790   -5.7314 N   0  0  0  0  0  0  0  0  0  0  0  0
  -18.5927  -46.1837   -4.6719 O   0  0  0  0  0  0  0  0  0  0  0  0
  -18.9119  -47.5445   -5.0163 C   0  0  0  0  0  0  0  0  0  0  0  0
  -17.3479  -43.0531   -8.0155 C   0  0  0  0  0  0  0  0  0  0  0  0
  -16.3750  -43.9002   -8.3019 O   0  0  0  0  0  0  0  0  0  0  0  0
  -17.0114  -41.7682   -8.4428 N   0  0  0  0  0  0  0  0  0  0  0  0
  -21.3786  -37.9864   -7.7323 C   0  0  0  0  0  0  0  0  0  0  0  0
  -20.0980  -37.5942   -8.0049 C   0  0  0  0  0  0  0  0  0  0  0  0
  -19.1343  -38.4735   -7.6044 C   0  0  0  0  0  0  0  0  0  0  0  0
  1  2  1  0
  2  3  1  0
  3  4  1  0
  4  5  1  0
  5  6  1  0
  6  7  2  0
  6  8  1  0
  8  9  1  6
  8 10  1  0
 10 11  1  0
 11 12  1  1
 11 13  1  0
 13 14  1  1
 14 15  1  0
 15 16  1  0
 16 17  2  0
 17 18  1  0
 18 19  1  0
 19 20  1  0
 20 21  1  0
 21 22  1  0
 22 23  1  0
 23 24  1  0
 24 25  1  0
 25 26  2  0
 26 27  1  0
 27 28  2  0
 28 29  1  0
 28 30  1  0
 30 31  1  0
 26 32  1  0
 32 33  2  0
 32 34  1  0
 17 35  1  0
 35 36  2  0
 36 37  1  0
 29 24  2  0
 34 13  1  0
 37 15  2  0
M  END
$$$$
