
     RDKit          3D

 37 39  0  0  0  0  0  0  0  0999 V2000
  -11.6152  -42.2529  -13.5507 C   0  0  0  0  0  0  0  0  0  0  0  0
  -12.8209  -42.0280  -12.6981 C   0  0  0  0  0  0  0  0  0  0  0  0
  -13.8677  -41.1560  -13.3106 C   0  0  0  0  0  0  0  0  0  0  0  0
  -15.0925  -40.9494  -12.4896 C   0  0  0  0  0  0  0  0  0  0  0  0
  -15.1859  -39.6735  -11.8285 N   0  0  0  0  0  0  0  0  0  0  0  0
  -14.5494  -39.4059  -10.5703 C   0  0  0  0  0  0  0  0  0  0  0  0
  -13.3202  -39.7268  -10.4997 O   0  0  0  0  0  0  0  0  0  0  0  0
  -15.2305  -38.8017   -9.4071 C   0  0  2  0  0  0  0  0  0  0  0  0
  -14.9101  -37.3286   -9.3832 C   0  0  0  0  0  0  0  0  0  0  0  0
  -15.1020  -39.5158   -8.1185 C   0  0  0  0  0  0  0  0  0  0  0  0
  -16.1446  -39.2810   -7.0975 C   0  0  2  0  0  0  0  0  0  0  0  0
  -15.7668  -39.9819   -5.9291 O   0  0  0  0  0  0  0  0  0  0  0  0
  -17.5394  -39.8138   -7.5203 C   0  0  2  0  0  0  0  0  0  0  0  0
  -18.3375  -40.0227   -6.2690 C   0  0  0  0  0  0  0  0  0  0  0  0
  -19.7784  -39.6480   -6.3137 C   0  0  0  0  0  0  0  0  0  0  0  0
  -20.9176  -40.3132   -5.9235 C   0  0  0  0  0  0  0  0  0  0  0  0
  -22.1263  -39.6906   -6.0902 C   0  0  0  0  0  0  0  0  0  0  0  0
  -23.5106  -40.1270   -5.7597 C   0  0  0  0  0  0  0  0  0  0  0  0
  -24.1622  -40.8896   -6.8797 C   0  0  0  0  0  0  0  0  0  0  0  0
  -23.3394  -42.0918   -7.2530 C   0  0  0  0  0  0  0  0  0  0  0  0
  -23.6054  -43.3006   -6.3865 C   0  0  0  0  0  0  0  0  0  0  0  0
  -22.6429  -44.4378   -6.6221 C   0  0  0  0  0  0  0  0  0  0  0  0
  -21.4381  -44.3100   -5.8480 N   0  0  0  0  0  0  0  0  0  0  0  0
  -20.0784  -44.0717   -6.2286 C   0  0  0  0  0  0  0  0  0  0  0  0
  -19.5023  -43.1709   -7.0889 C   0  0  0  0  0  0  0  0  0  0  0  0
  -18.1294  -43.1798   -7.1753 C   0  0  0  0  0  0  0  0  0  0  0  0
  -17.3949  -44.1006   -6.3929 C   0  0  0  0  0  0  0  0  0  0  0  0
  -17.9723  -45.0042   -5.5323 C   0  0  0  0  0  0  0  0  0  0  0  0
  -19.2851  -44.9478   -5.4897 N   0  0  0  0  0  0  0  0  0  0  0  0
  -17.1865  -45.8763   -4.7973 O   0  0  0  0  0  0  0  0  0  0  0  0
  -17.8830  -46.5954   -3.7630 C   0  0  0  0  0  0  0  0  0  0  0  0
  -17.1980  -42.3353   -7.9583 C   0  0  0  0  0  0  0  0  0  0  0  0
  -16.1146  -42.9087   -8.4517 O   0  0  0  0  0  0  0  0  0  0  0  0
  -17.2275  -40.9829   -8.3003 N   0  0  0  0  0  0  0  0  0  0  0  0
  -22.1734  -38.3925   -6.6547 C   0  0  0  0  0  0  0  0  0  0  0  0
  -21.0700  -37.6926   -7.0556 C   0  0  0  0  0  0  0  0  0  0  0  0
  -19.8842  -38.3428   -6.8732 C   0  0  0  0  0  0  0  0  0  0  0  0
  1  2  1  0
  2  3  1  0
  3  4  1  0
  4  5  1  0
  5  6  1  0
  6  7  2  0
  6  8  1  0
  8  9  1  1
  8 10  1  0
 10 11  1  0
 11 12  1  1
 11 13  1  0
 13 14  1  1
 14 15  1  0
 15 16  1  0
 16 17  2  0
 17 18  1  0
 18 19  1  0
 19 20  1  0
 20 21  1  0
 21 22  1  0
 22 23  1  0
 23 24  1  0
 24 25  1  0
 25 26  2  0
 26 27  1  0
 27 28  2  0
 28 29  1  0
 28 30  1  0
 30 31  1  0
 26 32  1  0
 32 33  2  0
 32 34  1  0
 17 35  1  0
 35 36  2  0
 36 37  1  0
 29 24  2  0
 34 13  1  0
 37 15  2  0
M  END
$$$$
