
     RDKit          3D

 37 39  0  0  0  0  0  0  0  0999 V2000
  -14.8739  -33.6304  -12.2728 C   0  0  0  0  0  0  0  0  0  0  0  0
  -14.4231  -34.9757  -11.8059 C   0  0  0  0  0  0  0  0  0  0  0  0
  -14.5427  -36.0641  -12.8220 C   0  0  0  0  0  0  0  0  0  0  0  0
  -14.1512  -37.4231  -12.3564 C   0  0  0  0  0  0  0  0  0  0  0  0
  -15.0844  -38.0649  -11.4672 N   0  0  0  0  0  0  0  0  0  0  0  0
  -14.8040  -39.3171  -10.8244 C   0  0  0  0  0  0  0  0  0  0  0  0
  -14.9306  -40.3491  -11.5578 O   0  0  0  0  0  0  0  0  0  0  0  0
  -14.3940  -39.4519   -9.4117 C   0  0  2  0  0  0  0  0  0  0  0  0
  -12.8882  -39.4082   -9.3494 C   0  0  0  0  0  0  0  0  0  0  0  0
  -15.0460  -40.5255   -8.6312 C   0  0  0  0  0  0  0  0  0  0  0  0
  -15.9544  -40.1228   -7.5370 C   0  0  2  0  0  0  0  0  0  0  0  0
  -15.6102  -40.8792   -6.3931 O   0  0  0  0  0  0  0  0  0  0  0  0
  -17.4463  -40.4155   -7.8477 C   0  0  2  0  0  0  0  0  0  0  0  0
  -18.1573  -40.5598   -6.5362 C   0  0  0  0  0  0  0  0  0  0  0  0
  -19.5204  -39.9678   -6.4354 C   0  0  0  0  0  0  0  0  0  0  0  0
  -20.7120  -40.4691   -5.9650 C   0  0  0  0  0  0  0  0  0  0  0  0
  -21.8182  -39.6620   -5.9987 C   0  0  0  0  0  0  0  0  0  0  0  0
  -23.2203  -39.8972   -5.5574 C   0  0  0  0  0  0  0  0  0  0  0  0
  -24.0765  -40.4969   -6.6381 C   0  0  0  0  0  0  0  0  0  0  0  0
  -23.4868  -41.7914   -7.1261 C   0  0  0  0  0  0  0  0  0  0  0  0
  -23.8634  -42.9855   -6.2805 C   0  0  0  0  0  0  0  0  0  0  0  0
  -23.1143  -44.2437   -6.6421 C   0  0  0  0  0  0  0  0  0  0  0  0
  -21.8426  -44.3386   -5.9781 N   0  0  0  0  0  0  0  0  0  0  0  0
  -20.4999  -44.2927   -6.4737 C   0  0  0  0  0  0  0  0  0  0  0  0
  -19.8658  -43.4503   -7.3522 C   0  0  0  0  0  0  0  0  0  0  0  0
  -18.5237  -43.6645   -7.5647 C   0  0  0  0  0  0  0  0  0  0  0  0
  -17.8779  -44.7231   -6.8849 C   0  0  0  0  0  0  0  0  0  0  0  0
  -18.5138  -45.5681   -6.0061 C   0  0  0  0  0  0  0  0  0  0  0  0
  -19.7931  -45.3141   -5.8412 N   0  0  0  0  0  0  0  0  0  0  0  0
  -17.8141  -46.5841   -5.3766 O   0  0  0  0  0  0  0  0  0  0  0  0
  -18.3204  -47.9096   -5.6188 C   0  0  0  0  0  0  0  0  0  0  0  0
  -17.5421  -42.9357   -8.4008 C   0  0  0  0  0  0  0  0  0  0  0  0
  -16.6079  -43.6435   -9.0109 O   0  0  0  0  0  0  0  0  0  0  0  0
  -17.3889  -41.5798   -8.6924 N   0  0  0  0  0  0  0  0  0  0  0  0
  -21.7099  -38.3465   -6.5119 C   0  0  0  0  0  0  0  0  0  0  0  0
  -20.5491  -37.8048   -6.9885 C   0  0  0  0  0  0  0  0  0  0  0  0
  -19.4683  -38.6364   -6.9382 C   0  0  0  0  0  0  0  0  0  0  0  0
  1  2  1  0
  2  3  1  0
  3  4  1  0
  4  5  1  0
  5  6  1  0
  6  7  2  0
  6  8  1  0
  8  9  1  6
  8 10  1  0
 10 11  1  0
 11 12  1  1
 11 13  1  0
 13 14  1  1
 14 15  1  0
 15 16  1  0
 16 17  2  0
 17 18  1  0
 18 19  1  0
 19 20  1  0
 20 21  1  0
 21 22  1  0
 22 23  1  0
 23 24  1  0
 24 25  1  0
 25 26  2  0
 26 27  1  0
 27 28  2  0
 28 29  1  0
 28 30  1  0
 30 31  1  0
 26 32  1  0
 32 33  2  0
 32 34  1  0
 17 35  1  0
 35 36  2  0
 36 37  1  0
 29 24  2  0
 34 13  1  0
 37 15  2  0
M  END
$$$$
