
     RDKit          3D

 37 39  0  0  0  0  0  0  0  0999 V2000
  -10.8404  -35.7944  -12.7555 C   0  0  0  0  0  0  0  0  0  0  0  0
  -11.9324  -36.5211  -12.0409 C   0  0  0  0  0  0  0  0  0  0  0  0
  -13.1625  -35.7122  -11.7882 C   0  0  0  0  0  0  0  0  0  0  0  0
  -14.1877  -36.3560  -10.9214 C   0  0  0  0  0  0  0  0  0  0  0  0
  -14.7082  -37.6085  -11.4050 N   0  0  0  0  0  0  0  0  0  0  0  0
  -14.2754  -38.8763  -10.8900 C   0  0  0  0  0  0  0  0  0  0  0  0
  -13.8851  -39.7167  -11.7620 O   0  0  0  0  0  0  0  0  0  0  0  0
  -14.2648  -39.2303   -9.4559 C   0  0  2  0  0  0  0  0  0  0  0  0
  -12.8301  -39.3589   -9.0104 C   0  0  0  0  0  0  0  0  0  0  0  0
  -15.1764  -40.3155   -9.0338 C   0  0  0  0  0  0  0  0  0  0  0  0
  -16.0148  -40.0810   -7.8394 C   0  0  2  0  0  0  0  0  0  0  0  0
  -15.6205  -41.0098   -6.8490 O   0  0  0  0  0  0  0  0  0  0  0  0
  -17.5267  -40.3087   -8.1048 C   0  0  2  0  0  0  0  0  0  0  0  0
  -18.1887  -40.5161   -6.7762 C   0  0  0  0  0  0  0  0  0  0  0  0
  -19.5268  -39.8916   -6.5807 C   0  0  0  0  0  0  0  0  0  0  0  0
  -20.7141  -40.3867   -6.0930 C   0  0  0  0  0  0  0  0  0  0  0  0
  -21.7941  -39.5466   -6.0289 C   0  0  0  0  0  0  0  0  0  0  0  0
  -23.1841  -39.7681   -5.5446 C   0  0  0  0  0  0  0  0  0  0  0  0
  -24.1021  -40.2711   -6.6239 C   0  0  0  0  0  0  0  0  0  0  0  0
  -23.5746  -41.5484   -7.2172 C   0  0  0  0  0  0  0  0  0  0  0  0
  -23.9552  -42.7828   -6.4337 C   0  0  0  0  0  0  0  0  0  0  0  0
  -23.2624  -44.0368   -6.9054 C   0  0  0  0  0  0  0  0  0  0  0  0
  -21.9687  -44.2120   -6.3031 N   0  0  0  0  0  0  0  0  0  0  0  0
  -20.6463  -44.1741   -6.8510 C   0  0  0  0  0  0  0  0  0  0  0  0
  -20.0211  -43.2959   -7.7005 C   0  0  0  0  0  0  0  0  0  0  0  0
  -18.6963  -43.5358   -7.9826 C   0  0  0  0  0  0  0  0  0  0  0  0
  -18.0582  -44.6547   -7.3989 C   0  0  0  0  0  0  0  0  0  0  0  0
  -18.6852  -45.5354   -6.5493 C   0  0  0  0  0  0  0  0  0  0  0  0
  -19.9480  -45.2547   -6.3148 N   0  0  0  0  0  0  0  0  0  0  0  0
  -17.9939  -46.6102   -6.0154 O   0  0  0  0  0  0  0  0  0  0  0  0
  -18.5612  -47.9009   -6.3058 C   0  0  0  0  0  0  0  0  0  0  0  0
  -17.7261  -42.7839   -8.8115 C   0  0  0  0  0  0  0  0  0  0  0  0
  -16.8406  -43.4783   -9.5041 O   0  0  0  0  0  0  0  0  0  0  0  0
  -17.5410  -41.4172   -9.0230 N   0  0  0  0  0  0  0  0  0  0  0  0
  -21.6640  -38.2045   -6.4620 C   0  0  0  0  0  0  0  0  0  0  0  0
  -20.5064  -37.6679   -6.9519 C   0  0  0  0  0  0  0  0  0  0  0  0
  -19.4519  -38.5327   -6.9999 C   0  0  0  0  0  0  0  0  0  0  0  0
  1  2  1  0
  2  3  1  0
  3  4  1  0
  4  5  1  0
  5  6  1  0
  6  7  2  0
  6  8  1  0
  8  9  1  6
  8 10  1  0
 10 11  1  0
 11 12  1  1
 11 13  1  0
 13 14  1  1
 14 15  1  0
 15 16  1  0
 16 17  2  0
 17 18  1  0
 18 19  1  0
 19 20  1  0
 20 21  1  0
 21 22  1  0
 22 23  1  0
 23 24  1  0
 24 25  1  0
 25 26  2  0
 26 27  1  0
 27 28  2  0
 28 29  1  0
 28 30  1  0
 30 31  1  0
 26 32  1  0
 32 33  2  0
 32 34  1  0
 17 35  1  0
 35 36  2  0
 36 37  1  0
 29 24  2  0
 34 13  1  0
 37 15  2  0
M  END
$$$$
