
     RDKit          3D

 37 39  0  0  0  0  0  0  0  0999 V2000
  -11.9903  -35.9378  -13.5430 C   0  0  0  0  0  0  0  0  0  0  0  0
  -12.8408  -37.1426  -13.3055 C   0  0  0  0  0  0  0  0  0  0  0  0
  -12.0847  -38.3891  -12.9801 C   0  0  0  0  0  0  0  0  0  0  0  0
  -11.7150  -38.5606  -11.5481 C   0  0  0  0  0  0  0  0  0  0  0  0
  -12.4262  -39.5972  -10.8456 N   0  0  0  0  0  0  0  0  0  0  0  0
  -13.5544  -39.3253  -10.0012 C   0  0  0  0  0  0  0  0  0  0  0  0
  -14.1396  -38.2151  -10.2105 O   0  0  0  0  0  0  0  0  0  0  0  0
  -14.0421  -40.2384   -8.9474 C   0  0  2  0  0  0  0  0  0  0  0  0
  -13.1699  -41.4682   -8.9454 C   0  0  0  0  0  0  0  0  0  0  0  0
  -15.5009  -40.4760   -8.8985 C   0  0  0  0  0  0  0  0  0  0  0  0
  -16.3619  -39.3639   -8.4440 C   0  0  2  0  0  0  0  0  0  0  0  0
  -16.1953  -39.2359   -7.0458 O   0  0  0  0  0  0  0  0  0  0  0  0
  -17.8704  -39.6185   -8.7041 C   0  0  2  0  0  0  0  0  0  0  0  0
  -18.6094  -39.2488   -7.4537 C   0  0  0  0  0  0  0  0  0  0  0  0
  -19.9121  -38.5456   -7.6190 C   0  0  0  0  0  0  0  0  0  0  0  0
  -21.1517  -38.7557   -7.0608 C   0  0  0  0  0  0  0  0  0  0  0  0
  -22.1767  -37.9183   -7.4136 C   0  0  0  0  0  0  0  0  0  0  0  0
  -23.6005  -37.8713   -6.9818 C   0  0  0  0  0  0  0  0  0  0  0  0
  -24.4946  -38.7282   -7.8344 C   0  0  0  0  0  0  0  0  0  0  0  0
  -24.0226  -40.1561   -7.8311 C   0  0  0  0  0  0  0  0  0  0  0  0
  -24.5211  -40.9561   -6.6503 C   0  0  0  0  0  0  0  0  0  0  0  0
  -23.8888  -42.3205   -6.5333 C   0  0  0  0  0  0  0  0  0  0  0  0
  -22.6407  -42.2906   -5.8202 N   0  0  0  0  0  0  0  0  0  0  0  0
  -21.2931  -42.5284   -6.2419 C   0  0  0  0  0  0  0  0  0  0  0  0
  -20.5708  -42.0906   -7.3237 C   0  0  0  0  0  0  0  0  0  0  0  0
  -19.2520  -42.4760   -7.3916 C   0  0  0  0  0  0  0  0  0  0  0  0
  -18.7178  -43.2910   -6.3669 C   0  0  0  0  0  0  0  0  0  0  0  0
  -19.4421  -43.7310   -5.2841 C   0  0  0  0  0  0  0  0  0  0  0  0
  -20.6940  -43.3298   -5.2715 N   0  0  0  0  0  0  0  0  0  0  0  0
  -18.8495  -44.5279   -4.3187 O   0  0  0  0  0  0  0  0  0  0  0  0
  -19.5599  -45.7424   -4.0149 C   0  0  0  0  0  0  0  0  0  0  0  0
  -18.1951  -42.1592   -8.3797 C   0  0  0  0  0  0  0  0  0  0  0  0
  -17.3234  -43.1079   -8.6735 O   0  0  0  0  0  0  0  0  0  0  0  0
  -17.9113  -41.0008   -9.1038 N   0  0  0  0  0  0  0  0  0  0  0  0
  -21.9382  -36.8691   -8.3346 C   0  0  0  0  0  0  0  0  0  0  0  0
  -20.7253  -36.6207   -8.9136 C   0  0  0  0  0  0  0  0  0  0  0  0
  -19.7283  -37.4734   -8.5380 C   0  0  0  0  0  0  0  0  0  0  0  0
  1  2  1  0
  2  3  1  0
  3  4  1  0
  4  5  1  0
  5  6  1  0
  6  7  2  0
  6  8  1  0
  8  9  1  6
  8 10  1  0
 10 11  1  0
 11 12  1  1
 11 13  1  0
 13 14  1  1
 14 15  1  0
 15 16  1  0
 16 17  2  0
 17 18  1  0
 18 19  1  0
 19 20  1  0
 20 21  1  0
 21 22  1  0
 22 23  1  0
 23 24  1  0
 24 25  1  0
 25 26  2  0
 26 27  1  0
 27 28  2  0
 28 29  1  0
 28 30  1  0
 30 31  1  0
 26 32  1  0
 32 33  2  0
 32 34  1  0
 17 35  1  0
 35 36  2  0
 36 37  1  0
 29 24  2  0
 34 13  1  0
 37 15  2  0
M  END
$$$$
