
     RDKit          3D

 37 39  0  0  0  0  0  0  0  0999 V2000
  -12.6439  -33.3041  -11.2592 C   0  0  0  0  0  0  0  0  0  0  0  0
  -12.4263  -34.6368  -11.8978 C   0  0  0  0  0  0  0  0  0  0  0  0
  -12.5648  -35.8037  -10.9755 C   0  0  0  0  0  0  0  0  0  0  0  0
  -13.9396  -36.0581  -10.4636 C   0  0  0  0  0  0  0  0  0  0  0  0
  -14.6833  -37.0717  -11.1658 N   0  0  0  0  0  0  0  0  0  0  0  0
  -14.6174  -38.4618  -10.8149 C   0  0  0  0  0  0  0  0  0  0  0  0
  -14.7714  -39.2775  -11.7792 O   0  0  0  0  0  0  0  0  0  0  0  0
  -14.3891  -38.9623   -9.4440 C   0  0  2  0  0  0  0  0  0  0  0  0
  -12.9132  -39.2186   -9.2730 C   0  0  0  0  0  0  0  0  0  0  0  0
  -15.2939  -40.0312   -8.9688 C   0  0  0  0  0  0  0  0  0  0  0  0
  -16.1840  -39.7203   -7.8305 C   0  0  2  0  0  0  0  0  0  0  0  0
  -15.7353  -40.4686   -6.7179 O   0  0  0  0  0  0  0  0  0  0  0  0
  -17.6607  -40.1220   -8.0873 C   0  0  2  0  0  0  0  0  0  0  0  0
  -18.3328  -40.2358   -6.7524 C   0  0  0  0  0  0  0  0  0  0  0  0
  -19.7281  -39.7247   -6.6503 C   0  0  0  0  0  0  0  0  0  0  0  0
  -20.8752  -40.2716   -6.1233 C   0  0  0  0  0  0  0  0  0  0  0  0
  -22.0308  -39.5379   -6.1737 C   0  0  0  0  0  0  0  0  0  0  0  0
  -23.4053  -39.8343   -5.6852 C   0  0  0  0  0  0  0  0  0  0  0  0
  -24.2449  -40.5460   -6.7094 C   0  0  0  0  0  0  0  0  0  0  0  0
  -23.5851  -41.8269   -7.1401 C   0  0  0  0  0  0  0  0  0  0  0  0
  -23.8670  -42.9924   -6.2208 C   0  0  0  0  0  0  0  0  0  0  0  0
  -23.0477  -44.2202   -6.5313 C   0  0  0  0  0  0  0  0  0  0  0  0
  -21.7586  -44.1983   -5.8952 N   0  0  0  0  0  0  0  0  0  0  0  0
  -20.4324  -44.0974   -6.4260 C   0  0  0  0  0  0  0  0  0  0  0  0
  -19.8720  -43.2682   -7.3651 C   0  0  0  0  0  0  0  0  0  0  0  0
  -18.5239  -43.4105   -7.5990 C   0  0  0  0  0  0  0  0  0  0  0  0
  -17.7979  -44.3868   -6.8783 C   0  0  0  0  0  0  0  0  0  0  0  0
  -18.3599  -45.2186   -5.9388 C   0  0  0  0  0  0  0  0  0  0  0  0
  -19.6489  -45.0355   -5.7561 N   0  0  0  0  0  0  0  0  0  0  0  0
  -17.5839  -46.1521   -5.2720 O   0  0  0  0  0  0  0  0  0  0  0  0
  -18.2479  -47.3954   -4.9798 C   0  0  0  0  0  0  0  0  0  0  0  0
  -17.6087  -42.6705   -8.4982 C   0  0  0  0  0  0  0  0  0  0  0  0
  -16.6449  -43.3524   -9.0916 O   0  0  0  0  0  0  0  0  0  0  0  0
  -17.5479  -41.3264   -8.8677 N   0  0  0  0  0  0  0  0  0  0  0  0
  -22.0170  -38.2492   -6.7610 C   0  0  0  0  0  0  0  0  0  0  0  0
  -20.9034  -37.6644   -7.2956 C   0  0  0  0  0  0  0  0  0  0  0  0
  -19.7712  -38.4232   -7.2267 C   0  0  0  0  0  0  0  0  0  0  0  0
  1  2  1  0
  2  3  1  0
  3  4  1  0
  4  5  1  0
  5  6  1  0
  6  7  2  0
  6  8  1  0
  8  9  1  6
  8 10  1  0
 10 11  1  0
 11 12  1  1
 11 13  1  0
 13 14  1  1
 14 15  1  0
 15 16  1  0
 16 17  2  0
 17 18  1  0
 18 19  1  0
 19 20  1  0
 20 21  1  0
 21 22  1  0
 22 23  1  0
 23 24  1  0
 24 25  1  0
 25 26  2  0
 26 27  1  0
 27 28  2  0
 28 29  1  0
 28 30  1  0
 30 31  1  0
 26 32  1  0
 32 33  2  0
 32 34  1  0
 17 35  1  0
 35 36  2  0
 36 37  1  0
 29 24  2  0
 34 13  1  0
 37 15  2  0
M  END
$$$$
