
     RDKit          3D

 37 39  0  0  0  0  0  0  0  0999 V2000
  -15.3902  -33.5193  -11.1001 C   0  0  0  0  0  0  0  0  0  0  0  0
  -15.8159  -34.8232  -11.6914 C   0  0  0  0  0  0  0  0  0  0  0  0
  -14.7049  -35.7894  -11.9435 C   0  0  0  0  0  0  0  0  0  0  0  0
  -14.4664  -36.7891  -10.8662 C   0  0  0  0  0  0  0  0  0  0  0  0
  -14.9249  -38.1245  -11.1492 N   0  0  0  0  0  0  0  0  0  0  0  0
  -15.2194  -39.0763  -10.1160 C   0  0  0  0  0  0  0  0  0  0  0  0
  -16.3720  -39.6117  -10.1776 O   0  0  0  0  0  0  0  0  0  0  0  0
  -14.2835  -39.4432   -9.0337 C   0  0  2  0  0  0  0  0  0  0  0  0
  -13.1114  -40.1672   -9.6462 C   0  0  0  0  0  0  0  0  0  0  0  0
  -14.8738  -40.0646   -7.8286 C   0  0  0  0  0  0  0  0  0  0  0  0
  -15.9603  -39.3341   -7.1426 C   0  0  2  0  0  0  0  0  0  0  0  0
  -15.8631  -39.6184   -5.7610 O   0  0  0  0  0  0  0  0  0  0  0  0
  -17.3745  -39.7768   -7.6030 C   0  0  2  0  0  0  0  0  0  0  0  0
  -18.3490  -39.3191   -6.5602 C   0  0  0  0  0  0  0  0  0  0  0  0
  -19.6536  -38.7839   -7.0399 C   0  0  0  0  0  0  0  0  0  0  0  0
  -20.9516  -39.0435   -6.6655 C   0  0  0  0  0  0  0  0  0  0  0  0
  -21.9614  -38.3726   -7.3032 C   0  0  0  0  0  0  0  0  0  0  0  0
  -23.4381  -38.4152   -7.1210 C   0  0  0  0  0  0  0  0  0  0  0  0
  -24.0977  -39.4682   -7.9676 C   0  0  0  0  0  0  0  0  0  0  0  0
  -23.5224  -40.8256   -7.6710 C   0  0  0  0  0  0  0  0  0  0  0  0
  -24.1562  -41.5050   -6.4795 C   0  0  0  0  0  0  0  0  0  0  0  0
  -23.4486  -42.7677   -6.0556 C   0  0  0  0  0  0  0  0  0  0  0  0
  -22.3518  -42.5119   -5.1619 N   0  0  0  0  0  0  0  0  0  0  0  0
  -20.9365  -42.6639   -5.3178 C   0  0  0  0  0  0  0  0  0  0  0  0
  -20.0720  -42.3047   -6.3214 C   0  0  0  0  0  0  0  0  0  0  0  0
  -18.7356  -42.5569   -6.1146 C   0  0  0  0  0  0  0  0  0  0  0  0
  -18.3274  -43.1652   -4.9050 C   0  0  0  0  0  0  0  0  0  0  0  0
  -19.1939  -43.5265   -3.9004 C   0  0  0  0  0  0  0  0  0  0  0  0
  -20.4562  -43.2593   -4.1526 N   0  0  0  0  0  0  0  0  0  0  0  0
  -18.7194  -44.1189   -2.7419 O   0  0  0  0  0  0  0  0  0  0  0  0
  -19.7121  -44.8155   -1.9664 C   0  0  0  0  0  0  0  0  0  0  0  0
  -17.5497  -42.2696   -6.9540 C   0  0  0  0  0  0  0  0  0  0  0  0
  -16.5677  -43.1538   -6.9548 O   0  0  0  0  0  0  0  0  0  0  0  0
  -17.2352  -41.1973   -7.7896 N   0  0  0  0  0  0  0  0  0  0  0  0
  -21.6482  -37.4394   -8.3215 C   0  0  0  0  0  0  0  0  0  0  0  0
  -20.3758  -37.1477   -8.7264 C   0  0  0  0  0  0  0  0  0  0  0  0
  -19.3962  -37.8333   -8.0686 C   0  0  0  0  0  0  0  0  0  0  0  0
  1  2  1  0
  2  3  1  0
  3  4  1  0
  4  5  1  0
  5  6  1  0
  6  7  2  0
  6  8  1  0
  8  9  1  6
  8 10  1  0
 10 11  1  0
 11 12  1  1
 11 13  1  0
 13 14  1  1
 14 15  1  0
 15 16  1  0
 16 17  2  0
 17 18  1  0
 18 19  1  0
 19 20  1  0
 20 21  1  0
 21 22  1  0
 22 23  1  0
 23 24  1  0
 24 25  1  0
 25 26  2  0
 26 27  1  0
 27 28  2  0
 28 29  1  0
 28 30  1  0
 30 31  1  0
 26 32  1  0
 32 33  2  0
 32 34  1  0
 17 35  1  0
 35 36  2  0
 36 37  1  0
 29 24  2  0
 34 13  1  0
 37 15  2  0
M  END
$$$$
