
     RDKit          3D

 37 39  0  0  0  0  0  0  0  0999 V2000
  -24.4965  -42.2111   -4.7303 C   0  0  0  0  0  0  0  0  0  0  0  0
  -23.2181  -42.8639   -5.1432 C   0  0  0  0  0  0  0  0  0  0  0  0
  -22.0682  -41.9286   -5.3286 C   0  0  0  0  0  0  0  0  0  0  0  0
  -21.1605  -41.7865   -4.1570 C   0  0  0  0  0  0  0  0  0  0  0  0
  -20.8912  -40.4335   -3.7438 N   0  0  0  0  0  0  0  0  0  0  0  0
  -20.3241  -39.4538   -4.6261 C   0  0  0  0  0  0  0  0  0  0  0  0
  -21.0551  -38.4387   -4.8588 O   0  0  0  0  0  0  0  0  0  0  0  0
  -18.9888  -39.5695   -5.2471 C   0  0  2  0  0  0  0  0  0  0  0  0
  -17.9858  -39.8676   -4.1616 C   0  0  0  0  0  0  0  0  0  0  0  0
  -18.6107  -38.5117   -6.2089 C   0  0  0  0  0  0  0  0  0  0  0  0
  -18.6494  -38.8476   -7.6477 C   0  0  2  0  0  0  0  0  0  0  0  0
  -18.3793  -40.2297   -7.7733 O   0  0  0  0  0  0  0  0  0  0  0  0
  -17.5753  -38.0939   -8.4762 C   0  0  2  0  0  0  0  0  0  0  0  0
  -17.6403  -38.6197   -9.8783 C   0  0  0  0  0  0  0  0  0  0  0  0
  -17.4818  -37.6310  -10.9810 C   0  0  0  0  0  0  0  0  0  0  0  0
  -16.7013  -37.6290  -12.1138 C   0  0  0  0  0  0  0  0  0  0  0  0
  -16.7812  -36.5545  -12.9595 C   0  0  0  0  0  0  0  0  0  0  0  0
  -16.0946  -36.2646  -14.2481 C   0  0  0  0  0  0  0  0  0  0  0  0
  -14.7828  -35.5543  -14.0603 C   0  0  0  0  0  0  0  0  0  0  0  0
  -13.8654  -36.3570  -13.1796 C   0  0  0  0  0  0  0  0  0  0  0  0
  -13.0889  -37.4193  -13.9221 C   0  0  0  0  0  0  0  0  0  0  0  0
  -12.3273  -38.3557  -13.0176 C   0  0  0  0  0  0  0  0  0  0  0  0
  -13.1332  -39.4526  -12.5548 N   0  0  0  0  0  0  0  0  0  0  0  0
  -13.6219  -39.7973  -11.2537 C   0  0  0  0  0  0  0  0  0  0  0  0
  -14.2360  -39.0620  -10.2709 C   0  0  0  0  0  0  0  0  0  0  0  0
  -14.6343  -39.7386   -9.1413 C   0  0  0  0  0  0  0  0  0  0  0  0
  -14.3925  -41.1288   -9.0487 C   0  0  0  0  0  0  0  0  0  0  0  0
  -13.7757  -41.8649  -10.0327 C   0  0  0  0  0  0  0  0  0  0  0  0
  -13.4199  -41.1664  -11.0880 N   0  0  0  0  0  0  0  0  0  0  0  0
  -13.5732  -43.2254   -9.8704 O   0  0  0  0  0  0  0  0  0  0  0  0
  -12.2699  -43.6955  -10.2611 C   0  0  0  0  0  0  0  0  0  0  0  0
  -15.3450  -39.2734   -7.9280 C   0  0  0  0  0  0  0  0  0  0  0  0
  -15.0030  -39.8113   -6.7705 O   0  0  0  0  0  0  0  0  0  0  0  0
  -16.3597  -38.3338   -7.7433 N   0  0  0  0  0  0  0  0  0  0  0  0
  -17.6547  -35.4834  -12.6502 C   0  0  0  0  0  0  0  0  0  0  0  0
  -18.4493  -35.4412  -11.5390 C   0  0  0  0  0  0  0  0  0  0  0  0
  -18.3446  -36.5283  -10.7208 C   0  0  0  0  0  0  0  0  0  0  0  0
  1  2  1  0
  2  3  1  0
  3  4  1  0
  4  5  1  0
  5  6  1  0
  6  7  2  0
  6  8  1  0
  8  9  1  1
  8 10  1  0
 10 11  1  0
 11 12  1  1
 11 13  1  0
 13 14  1  6
 14 15  1  0
 15 16  1  0
 16 17  2  0
 17 18  1  0
 18 19  1  0
 19 20  1  0
 20 21  1  0
 21 22  1  0
 22 23  1  0
 23 24  1  0
 24 25  1  0
 25 26  2  0
 26 27  1  0
 27 28  2  0
 28 29  1  0
 28 30  1  0
 30 31  1  0
 26 32  1  0
 32 33  2  0
 32 34  1  0
 17 35  1  0
 35 36  2  0
 36 37  1  0
 29 24  2  0
 34 13  1  0
 37 15  2  0
M  END
$$$$
