
     RDKit          3D

 37 39  0  0  0  0  0  0  0  0999 V2000
  -12.0214  -34.8218  -14.0655 C   0  0  0  0  0  0  0  0  0  0  0  0
  -12.7654  -36.1088  -14.2117 C   0  0  0  0  0  0  0  0  0  0  0  0
  -13.3180  -36.6612  -12.9385 C   0  0  0  0  0  0  0  0  0  0  0  0
  -12.4272  -37.6040  -12.2074 C   0  0  0  0  0  0  0  0  0  0  0  0
  -12.9080  -38.0378  -10.9213 N   0  0  0  0  0  0  0  0  0  0  0  0
  -13.8056  -39.1467  -10.7650 C   0  0  0  0  0  0  0  0  0  0  0  0
  -14.0184  -39.8308  -11.8166 O   0  0  0  0  0  0  0  0  0  0  0  0
  -14.4629  -39.5103   -9.4931 C   0  0  2  0  0  0  0  0  0  0  0  0
  -13.7212  -40.6780   -8.8935 C   0  0  0  0  0  0  0  0  0  0  0  0
  -15.9376  -39.6192   -9.5158 C   0  0  0  0  0  0  0  0  0  0  0  0
  -16.6479  -39.5826   -8.2202 C   0  0  2  0  0  0  0  0  0  0  0  0
  -16.0380  -40.5329   -7.3693 O   0  0  0  0  0  0  0  0  0  0  0  0
  -18.1463  -39.9684   -8.3382 C   0  0  2  0  0  0  0  0  0  0  0  0
  -18.7151  -39.9860   -6.9516 C   0  0  0  0  0  0  0  0  0  0  0  0
  -20.0900  -39.4406   -6.7760 C   0  0  0  0  0  0  0  0  0  0  0  0
  -21.2016  -39.9301   -6.1301 C   0  0  0  0  0  0  0  0  0  0  0  0
  -22.3457  -39.1769   -6.1384 C   0  0  0  0  0  0  0  0  0  0  0  0
  -23.6830  -39.4140   -5.5291 C   0  0  0  0  0  0  0  0  0  0  0  0
  -24.6105  -40.1696   -6.4399 C   0  0  0  0  0  0  0  0  0  0  0  0
  -24.0066  -41.4879   -6.8382 C   0  0  0  0  0  0  0  0  0  0  0  0
  -24.2354  -42.5887   -5.8289 C   0  0  0  0  0  0  0  0  0  0  0  0
  -23.4624  -43.8500   -6.1232 C   0  0  0  0  0  0  0  0  0  0  0  0
  -22.1279  -43.8161   -5.5895 N   0  0  0  0  0  0  0  0  0  0  0  0
  -20.8452  -43.7756   -6.2249 C   0  0  0  0  0  0  0  0  0  0  0  0
  -20.3456  -43.0175   -7.2541 C   0  0  0  0  0  0  0  0  0  0  0  0
  -19.0221  -43.2019   -7.5804 C   0  0  0  0  0  0  0  0  0  0  0  0
  -18.2584  -44.1472   -6.8572 C   0  0  0  0  0  0  0  0  0  0  0  0
  -18.7596  -44.9079   -5.8273 C   0  0  0  0  0  0  0  0  0  0  0  0
  -20.0275  -44.6871   -5.5590 N   0  0  0  0  0  0  0  0  0  0  0  0
  -17.9496  -45.8147   -5.1642 O   0  0  0  0  0  0  0  0  0  0  0  0
  -18.3838  -47.1850   -5.2409 C   0  0  0  0  0  0  0  0  0  0  0  0
  -18.1672  -42.5377   -8.5912 C   0  0  0  0  0  0  0  0  0  0  0  0
  -17.2631  -43.2747   -9.2123 O   0  0  0  0  0  0  0  0  0  0  0  0
  -18.1135  -41.2204   -9.0479 N   0  0  0  0  0  0  0  0  0  0  0  0
  -22.3565  -37.9272   -6.8048 C   0  0  0  0  0  0  0  0  0  0  0  0
  -21.2781  -37.3997   -7.4581 C   0  0  0  0  0  0  0  0  0  0  0  0
  -20.1565  -38.1763   -7.4279 C   0  0  0  0  0  0  0  0  0  0  0  0
  1  2  1  0
  2  3  1  0
  3  4  1  0
  4  5  1  0
  5  6  1  0
  6  7  2  0
  6  8  1  0
  8  9  1  6
  8 10  1  0
 10 11  1  0
 11 12  1  1
 11 13  1  0
 13 14  1  1
 14 15  1  0
 15 16  1  0
 16 17  2  0
 17 18  1  0
 18 19  1  0
 19 20  1  0
 20 21  1  0
 21 22  1  0
 22 23  1  0
 23 24  1  0
 24 25  1  0
 25 26  2  0
 26 27  1  0
 27 28  2  0
 28 29  1  0
 28 30  1  0
 30 31  1  0
 26 32  1  0
 32 33  2  0
 32 34  1  0
 17 35  1  0
 35 36  2  0
 36 37  1  0
 29 24  2  0
 34 13  1  0
 37 15  2  0
M  END
$$$$
