
     RDKit          3D

 39 42  0  0  0  0  0  0  0  0999 V2000
  -18.1475  -36.3503  -11.5649 C   0  0  0  0  0  0  0  0  0  0  0  0
  -16.8801  -36.5696  -12.3798 C   0  0  0  0  0  0  0  0  0  0  0  0
  -15.9407  -35.4271  -12.1516 C   0  0  0  0  0  0  0  0  0  0  0  0
  -16.2855  -37.8939  -12.1216 C   0  0  0  0  0  0  0  0  0  0  0  0
  -15.3488  -38.0926  -11.1201 C   0  0  0  0  0  0  0  0  0  0  0  0
  -14.7770  -39.3397  -10.8711 C   0  0  0  0  0  0  0  0  0  0  0  0
  -15.1687  -40.3853  -11.6520 C   0  0  0  0  0  0  0  0  0  0  0  0
  -16.1154  -40.1854  -12.6640 C   0  0  0  0  0  0  0  0  0  0  0  0
  -16.6695  -38.9586  -12.9002 C   0  0  0  0  0  0  0  0  0  0  0  0
  -13.7844  -39.4406   -9.8045 C   0  0  0  0  0  0  0  0  0  0  0  0
  -13.7753  -40.9160   -9.3659 C   0  0  0  0  0  0  0  0  0  0  0  0
  -12.4071  -39.0678  -10.3689 C   0  0  0  0  0  0  0  0  0  0  0  0
  -14.0333  -38.6860   -8.6100 N   0  0  0  0  0  0  0  0  0  0  0  0
  -14.4019  -39.4676   -7.4820 C   0  0  0  0  0  0  0  0  0  0  0  0
  -15.8284  -39.4544   -7.0668 C   0  0  1  0  0  0  0  0  0  0  0  0
  -16.3143  -38.1114   -7.1829 O   0  0  0  0  0  0  0  0  0  0  0  0
  -16.7790  -40.3870   -7.7141 C   0  0  2  0  0  0  0  0  0  0  0  0
  -17.8443  -40.8678   -6.7907 C   0  0  0  0  0  0  0  0  0  0  0  0
  -18.9662  -39.8646   -6.6169 C   0  0  0  0  0  0  0  0  0  0  0  0
  -19.8970  -39.4376   -7.5177 C   0  0  0  0  0  0  0  0  0  0  0  0
  -20.8295  -38.4992   -7.0959 C   0  0  0  0  0  0  0  0  0  0  0  0
  -20.7897  -38.0193   -5.7728 C   0  0  0  0  0  0  0  0  0  0  0  0
  -19.8671  -38.4272   -4.8409 C   0  0  0  0  0  0  0  0  0  0  0  0
  -18.9682  -39.3536   -5.2999 C   0  0  0  0  0  0  0  0  0  0  0  0
  -21.8574  -37.9114   -7.7900 O   0  0  0  0  0  0  0  0  0  0  0  0
  -22.8862  -38.2129   -8.6285 C   0  0  0  0  0  0  0  0  0  0  0  0
  -22.7623  -39.5882   -9.2996 C   0  0  0  0  0  0  0  0  0  0  0  0
  -21.9888  -39.4542  -10.5673 C   0  0  0  0  0  0  0  0  0  0  0  0
  -21.1861  -40.6655  -10.9671 C   0  0  0  0  0  0  0  0  0  0  0  0
  -21.4287  -41.8119  -10.1643 N   0  0  0  0  0  0  0  0  0  0  0  0
  -20.3335  -42.6445   -9.7745 C   0  0  0  0  0  0  0  0  0  0  0  0
  -20.6375  -43.9905   -9.5282 C   0  0  0  0  0  0  0  0  0  0  0  0
  -19.6415  -44.8518   -9.1418 C   0  0  0  0  0  0  0  0  0  0  0  0
  -18.3745  -44.3372   -9.0141 C   0  0  0  0  0  0  0  0  0  0  0  0
  -18.0978  -42.9980   -9.2632 C   0  0  0  0  0  0  0  0  0  0  0  0
  -19.0900  -42.2037   -9.6347 N   0  0  0  0  0  0  0  0  0  0  0  0
  -16.7066  -42.5308   -9.1043 C   0  0  0  0  0  0  0  0  0  0  0  0
  -15.8383  -43.4159   -9.4398 O   0  0  0  0  0  0  0  0  0  0  0  0
  -16.2458  -41.3058   -8.6573 N   0  0  0  0  0  0  0  0  0  0  0  0
  1  2  1  0
  2  3  1  0
  2  4  1  0
  4  5  2  0
  5  6  1  0
  6  7  2  0
  7  8  1  0
  8  9  2  0
  6 10  1  0
 10 11  1  0
 10 12  1  0
 10 13  1  0
 13 14  1  0
 14 15  1  0
 15 16  1  6
 15 17  1  0
 17 18  1  1
 18 19  1  0
 19 20  2  0
 20 21  1  0
 21 22  2  0
 22 23  1  0
 23 24  2  0
 21 25  1  0
 25 26  1  0
 26 27  1  0
 27 28  1  0
 28 29  1  0
 29 30  1  0
 30 31  1  0
 31 32  2  0
 32 33  1  0
 33 34  2  0
 34 35  1  0
 35 36  2  0
 35 37  1  0
 37 38  2  0
 37 39  1  0
  9  4  1  0
 24 19  1  0
 36 31  1  0
 39 17  1  0
M  END
$$$$
