
     RDKit          3D

 39 42  0  0  0  0  0  0  0  0999 V2000
  -22.0690  -42.2234   -3.7996 C   0  0  0  0  0  0  0  0  0  0  0  0
  -22.1323  -42.6487   -5.2602 C   0  0  0  0  0  0  0  0  0  0  0  0
  -23.1688  -43.7163   -5.4206 C   0  0  0  0  0  0  0  0  0  0  0  0
  -22.3180  -41.4946   -6.1590 C   0  0  0  0  0  0  0  0  0  0  0  0
  -21.2468  -40.7452   -6.6181 C   0  0  0  0  0  0  0  0  0  0  0  0
  -21.4120  -39.6493   -7.4642 C   0  0  0  0  0  0  0  0  0  0  0  0
  -22.6803  -39.3227   -7.8401 C   0  0  0  0  0  0  0  0  0  0  0  0
  -23.7632  -40.0797   -7.3769 C   0  0  0  0  0  0  0  0  0  0  0  0
  -23.5904  -41.1520   -6.5472 C   0  0  0  0  0  0  0  0  0  0  0  0
  -20.2201  -38.9131   -7.8768 C   0  0  0  0  0  0  0  0  0  0  0  0
  -20.1259  -39.0718   -9.4049 C   0  0  0  0  0  0  0  0  0  0  0  0
  -20.4051  -37.4301   -7.5286 C   0  0  0  0  0  0  0  0  0  0  0  0
  -18.9612  -39.3724   -7.3644 N   0  0  0  0  0  0  0  0  0  0  0  0
  -18.0316  -38.3402   -7.0654 C   0  0  0  0  0  0  0  0  0  0  0  0
  -17.0923  -37.9223   -8.1380 C   0  0  1  0  0  0  0  0  0  0  0  0
  -16.1447  -37.0096   -7.5704 O   0  0  0  0  0  0  0  0  0  0  0  0
  -16.3806  -38.9584   -8.9205 C   0  0  2  0  0  0  0  0  0  0  0  0
  -16.5752  -38.8151  -10.3904 C   0  0  0  0  0  0  0  0  0  0  0  0
  -15.6788  -37.7566  -11.0000 C   0  0  0  0  0  0  0  0  0  0  0  0
  -14.3230  -37.7464  -11.1475 C   0  0  0  0  0  0  0  0  0  0  0  0
  -13.7415  -36.6390  -11.7505 C   0  0  0  0  0  0  0  0  0  0  0  0
  -14.5521  -35.5727  -12.1846 C   0  0  0  0  0  0  0  0  0  0  0  0
  -15.9188  -35.5502  -12.0517 C   0  0  0  0  0  0  0  0  0  0  0  0
  -16.4492  -36.6626  -11.4531 C   0  0  0  0  0  0  0  0  0  0  0  0
  -12.4205  -36.3783  -12.0165 O   0  0  0  0  0  0  0  0  0  0  0  0
  -11.3044  -36.9568  -12.5381 C   0  0  0  0  0  0  0  0  0  0  0  0
  -11.3737  -38.4886  -12.6168 C   0  0  0  0  0  0  0  0  0  0  0  0
  -10.8768  -39.0744  -11.3388 C   0  0  0  0  0  0  0  0  0  0  0  0
  -11.4915  -40.3942  -10.9494 C   0  0  0  0  0  0  0  0  0  0  0  0
  -12.3238  -40.9631  -11.9498 N   0  0  0  0  0  0  0  0  0  0  0  0
  -13.5510  -41.5925  -11.5722 C   0  0  0  0  0  0  0  0  0  0  0  0
  -14.0150  -42.6037  -12.4247 C   0  0  0  0  0  0  0  0  0  0  0  0
  -15.1903  -43.2501  -12.1348 C   0  0  0  0  0  0  0  0  0  0  0  0
  -15.8625  -42.8622  -11.0016 C   0  0  0  0  0  0  0  0  0  0  0  0
  -15.3826  -41.8556  -10.1718 C   0  0  0  0  0  0  0  0  0  0  0  0
  -14.2436  -41.2602  -10.4905 N   0  0  0  0  0  0  0  0  0  0  0  0
  -16.1683  -41.5051   -8.9724 C   0  0  0  0  0  0  0  0  0  0  0  0
  -16.7550  -42.5177   -8.4428 O   0  0  0  0  0  0  0  0  0  0  0  0
  -16.3401  -40.2695   -8.3753 N   0  0  0  0  0  0  0  0  0  0  0  0
  1  2  1  0
  2  3  1  0
  2  4  1  0
  4  5  2  0
  5  6  1  0
  6  7  2  0
  7  8  1  0
  8  9  2  0
  6 10  1  0
 10 11  1  0
 10 12  1  0
 10 13  1  0
 13 14  1  0
 14 15  1  0
 15 16  1  1
 15 17  1  0
 17 18  1  6
 18 19  1  0
 19 20  2  0
 20 21  1  0
 21 22  2  0
 22 23  1  0
 23 24  2  0
 21 25  1  0
 25 26  1  0
 26 27  1  0
 27 28  1  0
 28 29  1  0
 29 30  1  0
 30 31  1  0
 31 32  2  0
 32 33  1  0
 33 34  2  0
 34 35  1  0
 35 36  2  0
 35 37  1  0
 37 38  2  0
 37 39  1  0
  9  4  1  0
 24 19  1  0
 36 31  1  0
 39 17  1  0
M  END
$$$$
