
     RDKit          3D

 39 42  0  0  0  0  0  0  0  0999 V2000
  -15.1357  -34.5730  -12.6643 C   0  0  0  0  0  0  0  0  0  0  0  0
  -13.7209  -34.6347  -12.1050 C   0  0  0  0  0  0  0  0  0  0  0  0
  -13.6975  -34.0066  -10.7467 C   0  0  0  0  0  0  0  0  0  0  0  0
  -13.1776  -36.0050  -12.1401 C   0  0  0  0  0  0  0  0  0  0  0  0
  -13.6687  -37.0078  -11.3196 C   0  0  0  0  0  0  0  0  0  0  0  0
  -13.1587  -38.3055  -11.3417 C   0  0  0  0  0  0  0  0  0  0  0  0
  -12.1425  -38.5738  -12.2088 C   0  0  0  0  0  0  0  0  0  0  0  0
  -11.6461  -37.5611  -13.0384 C   0  0  0  0  0  0  0  0  0  0  0  0
  -12.1528  -36.2921  -13.0086 C   0  0  0  0  0  0  0  0  0  0  0  0
  -13.7325  -39.2856  -10.4235 C   0  0  0  0  0  0  0  0  0  0  0  0
  -13.5667  -40.6570  -11.1023 C   0  0  0  0  0  0  0  0  0  0  0  0
  -12.9357  -39.2659   -9.1122 C   0  0  0  0  0  0  0  0  0  0  0  0
  -15.1329  -39.1661  -10.1354 N   0  0  0  0  0  0  0  0  0  0  0  0
  -15.4401  -38.9688   -8.7622 C   0  0  0  0  0  0  0  0  0  0  0  0
  -16.8673  -39.0384   -8.3551 C   0  0  1  0  0  0  0  0  0  0  0  0
  -17.5190  -37.8454   -8.8081 O   0  0  0  0  0  0  0  0  0  0  0  0
  -17.6714  -40.2219   -8.7359 C   0  0  2  0  0  0  0  0  0  0  0  0
  -18.3946  -40.8304   -7.5846 C   0  0  0  0  0  0  0  0  0  0  0  0
  -19.6705  -40.0911   -7.2367 C   0  0  0  0  0  0  0  0  0  0  0  0
  -20.8303  -39.9789   -7.9456 C   0  0  0  0  0  0  0  0  0  0  0  0
  -21.8631  -39.2343   -7.3915 C   0  0  0  0  0  0  0  0  0  0  0  0
  -21.6888  -38.6231   -6.1351 C   0  0  0  0  0  0  0  0  0  0  0  0
  -20.5355  -38.7154   -5.3953 C   0  0  0  0  0  0  0  0  0  0  0  0
  -19.5446  -39.4597   -5.9792 C   0  0  0  0  0  0  0  0  0  0  0  0
  -23.1146  -38.9665   -7.8873 O   0  0  0  0  0  0  0  0  0  0  0  0
  -24.1810  -39.5758   -8.4739 C   0  0  0  0  0  0  0  0  0  0  0  0
  -23.8604  -40.9505   -9.0776 C   0  0  0  0  0  0  0  0  0  0  0  0
  -23.3972  -40.7791  -10.4846 C   0  0  0  0  0  0  0  0  0  0  0  0
  -22.4182  -41.8149  -10.9745 C   0  0  0  0  0  0  0  0  0  0  0  0
  -22.2214  -42.8969  -10.0757 N   0  0  0  0  0  0  0  0  0  0  0  0
  -20.9049  -43.4185   -9.8773 C   0  0  0  0  0  0  0  0  0  0  0  0
  -20.8243  -44.7654   -9.4977 C   0  0  0  0  0  0  0  0  0  0  0  0
  -19.5960  -45.3372   -9.2802 C   0  0  0  0  0  0  0  0  0  0  0  0
  -18.4891  -44.5418   -9.4493 C   0  0  0  0  0  0  0  0  0  0  0  0
  -18.5944  -43.2079   -9.8257 C   0  0  0  0  0  0  0  0  0  0  0  0
  -19.8003  -42.6987  -10.0256 N   0  0  0  0  0  0  0  0  0  0  0  0
  -17.3521  -42.4276   -9.9877 C   0  0  0  0  0  0  0  0  0  0  0  0
  -16.3767  -43.1259  -10.4471 O   0  0  0  0  0  0  0  0  0  0  0  0
  -17.1225  -41.0909   -9.7165 N   0  0  0  0  0  0  0  0  0  0  0  0
  1  2  1  0
  2  3  1  0
  2  4  1  0
  4  5  2  0
  5  6  1  0
  6  7  2  0
  7  8  1  0
  8  9  2  0
  6 10  1  0
 10 11  1  0
 10 12  1  0
 10 13  1  0
 13 14  1  0
 14 15  1  0
 15 16  1  6
 15 17  1  0
 17 18  1  1
 18 19  1  0
 19 20  2  0
 20 21  1  0
 21 22  2  0
 22 23  1  0
 23 24  2  0
 21 25  1  0
 25 26  1  0
 26 27  1  0
 27 28  1  0
 28 29  1  0
 29 30  1  0
 30 31  1  0
 31 32  2  0
 32 33  1  0
 33 34  2  0
 34 35  1  0
 35 36  2  0
 35 37  1  0
 37 38  2  0
 37 39  1  0
  9  4  1  0
 24 19  1  0
 36 31  1  0
 39 17  1  0
M  END
$$$$
