
     RDKit          3D

 39 42  0  0  0  0  0  0  0  0999 V2000
  -10.4341  -37.6374  -10.6836 C   0  0  0  0  0  0  0  0  0  0  0  0
  -11.1324  -37.6466  -12.0366 C   0  0  0  0  0  0  0  0  0  0  0  0
  -10.2633  -38.3411  -13.0378 C   0  0  0  0  0  0  0  0  0  0  0  0
  -12.4970  -38.1975  -11.9447 C   0  0  0  0  0  0  0  0  0  0  0  0
  -13.5583  -37.4465  -11.4656 C   0  0  0  0  0  0  0  0  0  0  0  0
  -14.8514  -37.9595  -11.3702 C   0  0  0  0  0  0  0  0  0  0  0  0
  -15.0550  -39.2467  -11.7683 C   0  0  0  0  0  0  0  0  0  0  0  0
  -13.9831  -40.0060  -12.2529 C   0  0  0  0  0  0  0  0  0  0  0  0
  -12.7192  -39.4937  -12.3419 C   0  0  0  0  0  0  0  0  0  0  0  0
  -15.8973  -37.0928  -10.8338 C   0  0  0  0  0  0  0  0  0  0  0  0
  -15.4178  -35.6487  -11.0656 C   0  0  0  0  0  0  0  0  0  0  0  0
  -17.1938  -37.3319  -11.6190 C   0  0  0  0  0  0  0  0  0  0  0  0
  -16.1641  -37.1881   -9.4273 N   0  0  0  0  0  0  0  0  0  0  0  0
  -17.5434  -37.1984   -9.0858 C   0  0  0  0  0  0  0  0  0  0  0  0
  -17.9469  -37.9292   -7.8567 C   0  0  1  0  0  0  0  0  0  0  0  0
  -19.0411  -37.2243   -7.2576 O   0  0  0  0  0  0  0  0  0  0  0  0
  -18.2709  -39.3712   -7.9460 C   0  0  2  0  0  0  0  0  0  0  0  0
  -18.6224  -39.9724   -6.6292 C   0  0  0  0  0  0  0  0  0  0  0  0
  -20.0530  -39.6891   -6.2185 C   0  0  0  0  0  0  0  0  0  0  0  0
  -21.2190  -40.1349   -6.7679 C   0  0  0  0  0  0  0  0  0  0  0  0
  -22.4117  -39.7211   -6.1898 C   0  0  0  0  0  0  0  0  0  0  0  0
  -22.3873  -38.8652   -5.0721 C   0  0  0  0  0  0  0  0  0  0  0  0
  -21.2325  -38.3977   -4.4943 C   0  0  0  0  0  0  0  0  0  0  0  0
  -20.0808  -38.8319   -5.0960 C   0  0  0  0  0  0  0  0  0  0  0  0
  -23.7051  -40.0177   -6.5403 O   0  0  0  0  0  0  0  0  0  0  0  0
  -24.5035  -41.0670   -6.8781 C   0  0  0  0  0  0  0  0  0  0  0  0
  -23.7341  -42.3219   -7.3143 C   0  0  0  0  0  0  0  0  0  0  0  0
  -23.4768  -42.2615   -8.7818 C   0  0  0  0  0  0  0  0  0  0  0  0
  -22.2190  -42.9490   -9.2474 C   0  0  0  0  0  0  0  0  0  0  0  0
  -21.5615  -43.7002   -8.2371 N   0  0  0  0  0  0  0  0  0  0  0  0
  -20.1347  -43.6679   -8.1500 C   0  0  0  0  0  0  0  0  0  0  0  0
  -19.5235  -44.7999   -7.5936 C   0  0  0  0  0  0  0  0  0  0  0  0
  -18.1576  -44.8417   -7.4683 C   0  0  0  0  0  0  0  0  0  0  0  0
  -17.4488  -43.7486   -7.9035 C   0  0  0  0  0  0  0  0  0  0  0  0
  -18.0777  -42.6367   -8.4513 C   0  0  0  0  0  0  0  0  0  0  0  0
  -19.3980  -42.6409   -8.5534 N   0  0  0  0  0  0  0  0  0  0  0  0
  -17.2377  -41.5075   -8.8961 C   0  0  0  0  0  0  0  0  0  0  0  0
  -16.1083  -41.8819   -9.3803 O   0  0  0  0  0  0  0  0  0  0  0  0
  -17.5100  -40.1520   -8.8566 N   0  0  0  0  0  0  0  0  0  0  0  0
  1  2  1  0
  2  3  1  0
  2  4  1  0
  4  5  2  0
  5  6  1  0
  6  7  2  0
  7  8  1  0
  8  9  2  0
  6 10  1  0
 10 11  1  0
 10 12  1  0
 10 13  1  0
 13 14  1  0
 14 15  1  0
 15 16  1  6
 15 17  1  0
 17 18  1  1
 18 19  1  0
 19 20  2  0
 20 21  1  0
 21 22  2  0
 22 23  1  0
 23 24  2  0
 21 25  1  0
 25 26  1  0
 26 27  1  0
 27 28  1  0
 28 29  1  0
 29 30  1  0
 30 31  1  0
 31 32  2  0
 32 33  1  0
 33 34  2  0
 34 35  1  0
 35 36  2  0
 35 37  1  0
 37 38  2  0
 37 39  1  0
  9  4  1  0
 24 19  1  0
 36 31  1  0
 39 17  1  0
M  END
$$$$
