
     RDKit          3D

 39 42  0  0  0  0  0  0  0  0999 V2000
  -18.4134  -40.1018   -4.6324 C   0  0  0  0  0  0  0  0  0  0  0  0
  -19.4725  -39.9303   -3.5519 C   0  0  0  0  0  0  0  0  0  0  0  0
  -19.5581  -38.4865   -3.1672 C   0  0  0  0  0  0  0  0  0  0  0  0
  -20.7632  -40.5205   -3.9518 C   0  0  0  0  0  0  0  0  0  0  0  0
  -21.3746  -40.1976   -5.1525 C   0  0  0  0  0  0  0  0  0  0  0  0
  -22.5972  -40.7464   -5.5377 C   0  0  0  0  0  0  0  0  0  0  0  0
  -23.1928  -41.6294   -4.6879 C   0  0  0  0  0  0  0  0  0  0  0  0
  -22.5754  -41.9566   -3.4746 C   0  0  0  0  0  0  0  0  0  0  0  0
  -21.3770  -41.4124   -3.1063 C   0  0  0  0  0  0  0  0  0  0  0  0
  -23.1677  -40.3265   -6.8148 C   0  0  0  0  0  0  0  0  0  0  0  0
  -22.0481  -40.4890   -7.8584 C   0  0  0  0  0  0  0  0  0  0  0  0
  -24.3345  -41.2578   -7.1695 C   0  0  0  0  0  0  0  0  0  0  0  0
  -23.5953  -38.9610   -6.9193 N   0  0  0  0  0  0  0  0  0  0  0  0
  -23.8537  -38.5214   -8.2456 C   0  0  0  0  0  0  0  0  0  0  0  0
  -22.7233  -38.5282   -9.2099 C   0  0  1  0  0  0  0  0  0  0  0  0
  -22.3605  -37.1689   -9.4814 O   0  0  0  0  0  0  0  0  0  0  0  0
  -21.5094  -39.3158   -8.8959 C   0  0  2  0  0  0  0  0  0  0  0  0
  -20.7508  -39.7266  -10.1102 C   0  0  0  0  0  0  0  0  0  0  0  0
  -19.8749  -38.6180  -10.6573 C   0  0  0  0  0  0  0  0  0  0  0  0
  -18.7611  -38.0446  -10.1179 C   0  0  0  0  0  0  0  0  0  0  0  0
  -18.1356  -37.0343  -10.8362 C   0  0  0  0  0  0  0  0  0  0  0  0
  -18.6591  -36.6332  -12.0802 C   0  0  0  0  0  0  0  0  0  0  0  0
  -19.7776  -37.1884  -12.6519 C   0  0  0  0  0  0  0  0  0  0  0  0
  -20.3610  -38.1812  -11.9097 C   0  0  0  0  0  0  0  0  0  0  0  0
  -17.0170  -36.3017  -10.5264 O   0  0  0  0  0  0  0  0  0  0  0  0
  -15.7437  -36.4441  -10.0670 C   0  0  0  0  0  0  0  0  0  0  0  0
  -15.4772  -37.7867   -9.3718 C   0  0  0  0  0  0  0  0  0  0  0  0
  -15.8087  -37.6699   -7.9227 C   0  0  0  0  0  0  0  0  0  0  0  0
  -16.2869  -38.9383   -7.2637 C   0  0  0  0  0  0  0  0  0  0  0  0
  -16.1811  -40.0928   -8.0843 N   0  0  0  0  0  0  0  0  0  0  0  0
  -17.2348  -41.0594   -8.0809 C   0  0  0  0  0  0  0  0  0  0  0  0
  -16.8673  -42.3755   -8.3929 C   0  0  0  0  0  0  0  0  0  0  0  0
  -17.8234  -43.3596   -8.4184 C   0  0  0  0  0  0  0  0  0  0  0  0
  -19.1157  -42.9935   -8.1315 C   0  0  0  0  0  0  0  0  0  0  0  0
  -19.4559  -41.6809   -7.8256 C   0  0  0  0  0  0  0  0  0  0  0  0
  -18.5001  -40.7646   -7.8120 N   0  0  0  0  0  0  0  0  0  0  0  0
  -20.8691  -41.3772   -7.5267 C   0  0  0  0  0  0  0  0  0  0  0  0
  -21.4689  -42.3322   -6.9118 O   0  0  0  0  0  0  0  0  0  0  0  0
  -21.5938  -40.2352   -7.8163 N   0  0  0  0  0  0  0  0  0  0  0  0
  1  2  1  0
  2  3  1  0
  2  4  1  0
  4  5  2  0
  5  6  1  0
  6  7  2  0
  7  8  1  0
  8  9  2  0
  6 10  1  0
 10 11  1  0
 10 12  1  0
 10 13  1  0
 13 14  1  0
 14 15  1  0
 15 16  1  1
 15 17  1  0
 17 18  1  6
 18 19  1  0
 19 20  2  0
 20 21  1  0
 21 22  2  0
 22 23  1  0
 23 24  2  0
 21 25  1  0
 25 26  1  0
 26 27  1  0
 27 28  1  0
 28 29  1  0
 29 30  1  0
 30 31  1  0
 31 32  2  0
 32 33  1  0
 33 34  2  0
 34 35  1  0
 35 36  2  0
 35 37  1  0
 37 38  2  0
 37 39  1  0
  9  4  1  0
 24 19  1  0
 36 31  1  0
 39 17  1  0
M  END
$$$$
