
     RDKit          3D

 39 42  0  0  0  0  0  0  0  0999 V2000
  -24.5763  -42.4014   -5.8507 C   0  0  0  0  0  0  0  0  0  0  0  0
  -23.7405  -41.2768   -5.2547 C   0  0  0  0  0  0  0  0  0  0  0  0
  -22.9781  -41.7972   -4.0767 C   0  0  0  0  0  0  0  0  0  0  0  0
  -22.8968  -40.6233   -6.2722 C   0  0  0  0  0  0  0  0  0  0  0  0
  -21.6479  -40.1076   -5.9655 C   0  0  0  0  0  0  0  0  0  0  0  0
  -20.8445  -39.4836   -6.9192 C   0  0  0  0  0  0  0  0  0  0  0  0
  -21.3247  -39.3896   -8.1909 C   0  0  0  0  0  0  0  0  0  0  0  0
  -22.5865  -39.9110   -8.5016 C   0  0  0  0  0  0  0  0  0  0  0  0
  -23.3664  -40.5204   -7.5591 C   0  0  0  0  0  0  0  0  0  0  0  0
  -19.5519  -38.9559   -6.4906 C   0  0  0  0  0  0  0  0  0  0  0  0
  -19.7601  -38.4197   -5.0629 C   0  0  0  0  0  0  0  0  0  0  0  0
  -18.5312  -40.1012   -6.4614 C   0  0  0  0  0  0  0  0  0  0  0  0
  -19.0168  -37.8558   -7.2401 N   0  0  0  0  0  0  0  0  0  0  0  0
  -17.6249  -37.6362   -7.0574 C   0  0  0  0  0  0  0  0  0  0  0  0
  -16.7949  -37.4090   -8.2685 C   0  0  1  0  0  0  0  0  0  0  0  0
  -15.9000  -36.3230   -7.9987 O   0  0  0  0  0  0  0  0  0  0  0  0
  -16.0426  -38.5424   -8.8530 C   0  0  2  0  0  0  0  0  0  0  0  0
  -16.3412  -38.7580  -10.2963 C   0  0  0  0  0  0  0  0  0  0  0  0
  -15.5847  -37.8060  -11.2001 C   0  0  0  0  0  0  0  0  0  0  0  0
  -14.2473  -37.7298  -11.4566 C   0  0  0  0  0  0  0  0  0  0  0  0
  -13.8078  -36.7521  -12.3392 C   0  0  0  0  0  0  0  0  0  0  0  0
  -14.7375  -35.8783  -12.9345 C   0  0  0  0  0  0  0  0  0  0  0  0
  -16.0895  -35.9269  -12.6987 C   0  0  0  0  0  0  0  0  0  0  0  0
  -16.4781  -36.9066  -11.8235 C   0  0  0  0  0  0  0  0  0  0  0  0
  -12.5353  -36.4629  -12.7644 O   0  0  0  0  0  0  0  0  0  0  0  0
  -11.4062  -37.0623  -13.2318 C   0  0  0  0  0  0  0  0  0  0  0  0
  -11.3408  -38.5714  -12.9573 C   0  0  0  0  0  0  0  0  0  0  0  0
  -10.7136  -38.8071  -11.6252 C   0  0  0  0  0  0  0  0  0  0  0  0
  -11.1802  -40.0428  -10.8994 C   0  0  0  0  0  0  0  0  0  0  0  0
  -12.0185  -40.8878  -11.6743 N   0  0  0  0  0  0  0  0  0  0  0  0
  -13.1574  -41.5018  -11.0654 C   0  0  0  0  0  0  0  0  0  0  0  0
  -13.5801  -42.7144  -11.6271 C   0  0  0  0  0  0  0  0  0  0  0  0
  -14.6714  -43.3612  -11.1038 C   0  0  0  0  0  0  0  0  0  0  0  0
  -15.3036  -42.7726  -10.0360 C   0  0  0  0  0  0  0  0  0  0  0  0
  -14.8660  -41.5686   -9.4966 C   0  0  0  0  0  0  0  0  0  0  0  0
  -13.8081  -40.9804  -10.0335 N   0  0  0  0  0  0  0  0  0  0  0  0
  -15.6034  -41.0092   -8.3468 C   0  0  0  0  0  0  0  0  0  0  0  0
  -16.0613  -41.9123   -7.5564 O   0  0  0  0  0  0  0  0  0  0  0  0
  -15.8490  -39.6851   -8.0315 N   0  0  0  0  0  0  0  0  0  0  0  0
  1  2  1  0
  2  3  1  0
  2  4  1  0
  4  5  2  0
  5  6  1  0
  6  7  2  0
  7  8  1  0
  8  9  2  0
  6 10  1  0
 10 11  1  0
 10 12  1  0
 10 13  1  0
 13 14  1  0
 14 15  1  0
 15 16  1  1
 15 17  1  0
 17 18  1  6
 18 19  1  0
 19 20  2  0
 20 21  1  0
 21 22  2  0
 22 23  1  0
 23 24  2  0
 21 25  1  0
 25 26  1  0
 26 27  1  0
 27 28  1  0
 28 29  1  0
 29 30  1  0
 30 31  1  0
 31 32  2  0
 32 33  1  0
 33 34  2  0
 34 35  1  0
 35 36  2  0
 35 37  1  0
 37 38  2  0
 37 39  1  0
  9  4  1  0
 24 19  1  0
 36 31  1  0
 39 17  1  0
M  END
$$$$
