
     RDKit          3D

 39 42  0  0  0  0  0  0  0  0999 V2000
  -24.0558  -40.4384   -3.6062 C   0  0  0  0  0  0  0  0  0  0  0  0
  -23.5552  -40.8420   -4.9865 C   0  0  0  0  0  0  0  0  0  0  0  0
  -24.1123  -39.9024   -6.0095 C   0  0  0  0  0  0  0  0  0  0  0  0
  -22.0861  -40.9630   -5.0222 C   0  0  0  0  0  0  0  0  0  0  0  0
  -21.2624  -39.8520   -5.1067 C   0  0  0  0  0  0  0  0  0  0  0  0
  -19.8724  -39.9559   -5.1459 C   0  0  0  0  0  0  0  0  0  0  0  0
  -19.3272  -41.2037   -5.0978 C   0  0  0  0  0  0  0  0  0  0  0  0
  -20.1589  -42.3268   -5.0120 C   0  0  0  0  0  0  0  0  0  0  0  0
  -21.5205  -42.2140   -4.9746 C   0  0  0  0  0  0  0  0  0  0  0  0
  -19.0936  -38.7253   -5.2546 C   0  0  0  0  0  0  0  0  0  0  0  0
  -20.0910  -37.6200   -5.6456 C   0  0  0  0  0  0  0  0  0  0  0  0
  -18.4826  -38.3997   -3.8852 C   0  0  0  0  0  0  0  0  0  0  0  0
  -18.0683  -38.6901   -6.2576 N   0  0  0  0  0  0  0  0  0  0  0  0
  -18.1976  -37.6341   -7.1995 C   0  0  0  0  0  0  0  0  0  0  0  0
  -19.0120  -37.8873   -8.4162 C   0  0  1  0  0  0  0  0  0  0  0  0
  -18.2729  -37.4223   -9.5523 O   0  0  0  0  0  0  0  0  0  0  0  0
  -19.5191  -39.2539   -8.6757 C   0  0  2  0  0  0  0  0  0  0  0  0
  -20.3660  -39.3392   -9.8981 C   0  0  0  0  0  0  0  0  0  0  0  0
  -19.5501  -39.4134  -11.1726 C   0  0  0  0  0  0  0  0  0  0  0  0
  -18.7388  -40.4107  -11.6278 C   0  0  0  0  0  0  0  0  0  0  0  0
  -18.0991  -40.2252  -12.8462 C   0  0  0  0  0  0  0  0  0  0  0  0
  -18.2991  -39.0323  -13.5668 C   0  0  0  0  0  0  0  0  0  0  0  0
  -19.1081  -38.0086  -13.1381 C   0  0  0  0  0  0  0  0  0  0  0  0
  -19.7194  -38.2350  -11.9331 C   0  0  0  0  0  0  0  0  0  0  0  0
  -17.2421  -41.0575  -13.5220 O   0  0  0  0  0  0  0  0  0  0  0  0
  -17.1016  -42.3543  -13.9106 C   0  0  0  0  0  0  0  0  0  0  0  0
  -18.0003  -43.3363  -13.1456 C   0  0  0  0  0  0  0  0  0  0  0  0
  -17.2940  -43.8026  -11.9180 C   0  0  0  0  0  0  0  0  0  0  0  0
  -18.1835  -44.1514  -10.7524 C   0  0  0  0  0  0  0  0  0  0  0  0
  -19.5700  -44.1491  -11.0608 N   0  0  0  0  0  0  0  0  0  0  0  0
  -20.5004  -43.6040  -10.1218 C   0  0  0  0  0  0  0  0  0  0  0  0
  -21.8003  -44.1265  -10.1651 C   0  0  0  0  0  0  0  0  0  0  0  0
  -22.7533  -43.6490   -9.3009 C   0  0  0  0  0  0  0  0  0  0  0  0
  -22.3738  -42.6637   -8.4225 C   0  0  0  0  0  0  0  0  0  0  0  0
  -21.0782  -42.1606   -8.3990 C   0  0  0  0  0  0  0  0  0  0  0  0
  -20.1915  -42.6521   -9.2508 N   0  0  0  0  0  0  0  0  0  0  0  0
  -20.7567  -41.1043   -7.4194 C   0  0  0  0  0  0  0  0  0  0  0  0
  -21.3893  -41.2392   -6.3096 O   0  0  0  0  0  0  0  0  0  0  0  0
  -19.8916  -40.0328   -7.5476 N   0  0  0  0  0  0  0  0  0  0  0  0
  1  2  1  0
  2  3  1  0
  2  4  1  0
  4  5  2  0
  5  6  1  0
  6  7  2  0
  7  8  1  0
  8  9  2  0
  6 10  1  0
 10 11  1  0
 10 12  1  0
 10 13  1  0
 13 14  1  0
 14 15  1  0
 15 16  1  6
 15 17  1  0
 17 18  1  6
 18 19  1  0
 19 20  2  0
 20 21  1  0
 21 22  2  0
 22 23  1  0
 23 24  2  0
 21 25  1  0
 25 26  1  0
 26 27  1  0
 27 28  1  0
 28 29  1  0
 29 30  1  0
 30 31  1  0
 31 32  2  0
 32 33  1  0
 33 34  2  0
 34 35  1  0
 35 36  2  0
 35 37  1  0
 37 38  2  0
 37 39  1  0
  9  4  1  0
 24 19  1  0
 36 31  1  0
 39 17  1  0
M  END
$$$$
