
     RDKit          3D

 39 42  0  0  0  0  0  0  0  0999 V2000
  -24.5010  -39.2093   -8.1301 C   0  0  0  0  0  0  0  0  0  0  0  0
  -23.4688  -39.9241   -8.9916 C   0  0  0  0  0  0  0  0  0  0  0  0
  -22.9300  -38.9711  -10.0120 C   0  0  0  0  0  0  0  0  0  0  0  0
  -22.4294  -40.5755   -8.1734 C   0  0  0  0  0  0  0  0  0  0  0  0
  -21.5229  -39.8433   -7.4239 C   0  0  0  0  0  0  0  0  0  0  0  0
  -20.5333  -40.4495   -6.6508 C   0  0  0  0  0  0  0  0  0  0  0  0
  -20.4751  -41.8108   -6.6471 C   0  0  0  0  0  0  0  0  0  0  0  0
  -21.3911  -42.5514   -7.4040 C   0  0  0  0  0  0  0  0  0  0  0  0
  -22.3571  -41.9473   -8.1589 C   0  0  0  0  0  0  0  0  0  0  0  0
  -19.6140  -39.5883   -5.9117 C   0  0  0  0  0  0  0  0  0  0  0  0
  -19.6614  -38.2154   -6.6060 C   0  0  0  0  0  0  0  0  0  0  0  0
  -20.1150  -39.4474   -4.4682 C   0  0  0  0  0  0  0  0  0  0  0  0
  -18.2304  -39.9676   -5.9042 N   0  0  0  0  0  0  0  0  0  0  0  0
  -17.3224  -38.8993   -6.1349 C   0  0  0  0  0  0  0  0  0  0  0  0
  -16.9791  -38.5743   -7.5435 C   0  0  1  0  0  0  0  0  0  0  0  0
  -15.7253  -37.8808   -7.5484 O   0  0  0  0  0  0  0  0  0  0  0  0
  -16.9535  -39.6593   -8.5506 C   0  0  2  0  0  0  0  0  0  0  0  0
  -17.3355  -39.1980   -9.9145 C   0  0  0  0  0  0  0  0  0  0  0  0
  -16.1967  -38.5128  -10.6419 C   0  0  0  0  0  0  0  0  0  0  0  0
  -15.0276  -39.0345  -11.1123 C   0  0  0  0  0  0  0  0  0  0  0  0
  -14.1430  -38.1774  -11.7533 C   0  0  0  0  0  0  0  0  0  0  0  0
  -14.4688  -36.8152  -11.8968 C   0  0  0  0  0  0  0  0  0  0  0  0
  -15.6358  -36.2572  -11.4354 C   0  0  0  0  0  0  0  0  0  0  0  0
  -16.4785  -37.1390  -10.8114 C   0  0  0  0  0  0  0  0  0  0  0  0
  -12.9167  -38.4400  -12.3112 O   0  0  0  0  0  0  0  0  0  0  0  0
  -12.2863  -39.3262  -13.1296 C   0  0  0  0  0  0  0  0  0  0  0  0
  -13.0336  -40.6559  -13.3038 C   0  0  0  0  0  0  0  0  0  0  0  0
  -12.6157  -41.6045  -12.2320 C   0  0  0  0  0  0  0  0  0  0  0  0
  -13.6625  -42.6015  -11.8055 C   0  0  0  0  0  0  0  0  0  0  0  0
  -14.8301  -42.5972  -12.6143 N   0  0  0  0  0  0  0  0  0  0  0  0
  -16.1147  -42.7224  -11.9989 C   0  0  0  0  0  0  0  0  0  0  0  0
  -17.1248  -43.2908  -12.7870 C   0  0  0  0  0  0  0  0  0  0  0  0
  -18.3876  -43.4374  -12.2704 C   0  0  0  0  0  0  0  0  0  0  0  0
  -18.5976  -43.0095  -10.9822 C   0  0  0  0  0  0  0  0  0  0  0  0
  -17.5797  -42.4479  -10.2203 C   0  0  0  0  0  0  0  0  0  0  0  0
  -16.3765  -42.3270  -10.7598 N   0  0  0  0  0  0  0  0  0  0  0  0
  -17.8934  -42.0183   -8.8434 C   0  0  0  0  0  0  0  0  0  0  0  0
  -18.7547  -42.7757   -8.2650 O   0  0  0  0  0  0  0  0  0  0  0  0
  -17.3914  -40.9441   -8.1314 N   0  0  0  0  0  0  0  0  0  0  0  0
  1  2  1  0
  2  3  1  0
  2  4  1  0
  4  5  2  0
  5  6  1  0
  6  7  2  0
  7  8  1  0
  8  9  2  0
  6 10  1  0
 10 11  1  0
 10 12  1  0
 10 13  1  0
 13 14  1  0
 14 15  1  0
 15 16  1  1
 15 17  1  0
 17 18  1  6
 18 19  1  0
 19 20  2  0
 20 21  1  0
 21 22  2  0
 22 23  1  0
 23 24  2  0
 21 25  1  0
 25 26  1  0
 26 27  1  0
 27 28  1  0
 28 29  1  0
 29 30  1  0
 30 31  1  0
 31 32  2  0
 32 33  1  0
 33 34  2  0
 34 35  1  0
 35 36  2  0
 35 37  1  0
 37 38  2  0
 37 39  1  0
  9  4  1  0
 24 19  1  0
 36 31  1  0
 39 17  1  0
M  END
$$$$
