
     RDKit          3D

 39 42  0  0  0  0  0  0  0  0999 V2000
  -21.5131  -37.4652  -11.6110 C   0  0  0  0  0  0  0  0  0  0  0  0
  -20.5900  -37.3188  -10.4089 C   0  0  0  0  0  0  0  0  0  0  0  0
  -20.5674  -35.8871   -9.9734 C   0  0  0  0  0  0  0  0  0  0  0  0
  -20.9371  -38.2660   -9.3335 C   0  0  0  0  0  0  0  0  0  0  0  0
  -20.0719  -38.5304   -8.2841 C   0  0  0  0  0  0  0  0  0  0  0  0
  -20.3886  -39.4279   -7.2650 C   0  0  0  0  0  0  0  0  0  0  0  0
  -21.5970  -40.0546   -7.3235 C   0  0  0  0  0  0  0  0  0  0  0  0
  -22.4721  -39.7876   -8.3834 C   0  0  0  0  0  0  0  0  0  0  0  0
  -22.1517  -38.9063   -9.3777 C   0  0  0  0  0  0  0  0  0  0  0  0
  -19.3998  -39.6515   -6.2136 C   0  0  0  0  0  0  0  0  0  0  0  0
  -20.1907  -39.7595   -4.8976 C   0  0  0  0  0  0  0  0  0  0  0  0
  -18.6763  -40.9774   -6.4840 C   0  0  0  0  0  0  0  0  0  0  0  0
  -18.4335  -38.6134   -5.9972 N   0  0  0  0  0  0  0  0  0  0  0  0
  -17.0800  -39.0347   -6.0956 C   0  0  0  0  0  0  0  0  0  0  0  0
  -16.5128  -39.2304   -7.4549 C   0  0  1  0  0  0  0  0  0  0  0  0
  -15.1087  -38.9510   -7.3968 O   0  0  0  0  0  0  0  0  0  0  0  0
  -16.7376  -40.5159   -8.1543 C   0  0  2  0  0  0  0  0  0  0  0  0
  -16.4948  -40.4316   -9.6215 C   0  0  0  0  0  0  0  0  0  0  0  0
  -15.0242  -40.5091   -9.9778 C   0  0  0  0  0  0  0  0  0  0  0  0
  -14.1566  -41.5553   -9.8633 C   0  0  0  0  0  0  0  0  0  0  0  0
  -12.8434  -41.3601  -10.2698 C   0  0  0  0  0  0  0  0  0  0  0  0
  -12.4474  -40.1085  -10.7788 C   0  0  0  0  0  0  0  0  0  0  0  0
  -13.2939  -39.0348  -10.9075 C   0  0  0  0  0  0  0  0  0  0  0  0
  -14.5788  -39.2727  -10.4959 C   0  0  0  0  0  0  0  0  0  0  0  0
  -11.7842  -42.2329  -10.2614 O   0  0  0  0  0  0  0  0  0  0  0  0
  -11.4529  -43.5094  -10.5980 C   0  0  0  0  0  0  0  0  0  0  0  0
  -12.6604  -44.4381  -10.7896 C   0  0  0  0  0  0  0  0  0  0  0  0
  -13.0246  -45.0552   -9.4820 C   0  0  0  0  0  0  0  0  0  0  0  0
  -14.4851  -45.3825   -9.3050 C   0  0  0  0  0  0  0  0  0  0  0  0
  -15.2632  -45.2133  -10.4812 N   0  0  0  0  0  0  0  0  0  0  0  0
  -16.5674  -44.6346  -10.3868 C   0  0  0  0  0  0  0  0  0  0  0  0
  -17.4845  -45.0126  -11.3771 C   0  0  0  0  0  0  0  0  0  0  0  0
  -18.7548  -44.4937  -11.3599 C   0  0  0  0  0  0  0  0  0  0  0  0
  -19.0647  -43.6132  -10.3523 C   0  0  0  0  0  0  0  0  0  0  0  0
  -18.1374  -43.2528   -9.3815 C   0  0  0  0  0  0  0  0  0  0  0  0
  -16.9237  -43.7793   -9.4373 N   0  0  0  0  0  0  0  0  0  0  0  0
  -18.5572  -42.3022   -8.3333 C   0  0  0  0  0  0  0  0  0  0  0  0
  -19.7882  -42.4409   -7.9933 O   0  0  0  0  0  0  0  0  0  0  0  0
  -17.8149  -41.3224   -7.6994 N   0  0  0  0  0  0  0  0  0  0  0  0
  1  2  1  0
  2  3  1  0
  2  4  1  0
  4  5  2  0
  5  6  1  0
  6  7  2  0
  7  8  1  0
  8  9  2  0
  6 10  1  0
 10 11  1  0
 10 12  1  0
 10 13  1  0
 13 14  1  0
 14 15  1  0
 15 16  1  1
 15 17  1  0
 17 18  1  6
 18 19  1  0
 19 20  2  0
 20 21  1  0
 21 22  2  0
 22 23  1  0
 23 24  2  0
 21 25  1  0
 25 26  1  0
 26 27  1  0
 27 28  1  0
 28 29  1  0
 29 30  1  0
 30 31  1  0
 31 32  2  0
 32 33  1  0
 33 34  2  0
 34 35  1  0
 35 36  2  0
 35 37  1  0
 37 38  2  0
 37 39  1  0
  9  4  1  0
 24 19  1  0
 36 31  1  0
 39 17  1  0
M  END
$$$$
