
     RDKit          3D

 39 42  0  0  0  0  0  0  0  0999 V2000
  -21.2287  -40.4802   -3.2808 C   0  0  0  0  0  0  0  0  0  0  0  0
  -21.9098  -41.1928   -4.4413 C   0  0  0  0  0  0  0  0  0  0  0  0
  -23.3648  -40.8423   -4.4524 C   0  0  0  0  0  0  0  0  0  0  0  0
  -21.2228  -40.9361   -5.7205 C   0  0  0  0  0  0  0  0  0  0  0  0
  -20.9278  -39.6513   -6.1474 C   0  0  0  0  0  0  0  0  0  0  0  0
  -20.2828  -39.3976   -7.3574 C   0  0  0  0  0  0  0  0  0  0  0  0
  -19.9394  -40.4660   -8.1302 C   0  0  0  0  0  0  0  0  0  0  0  0
  -20.2368  -41.7645   -7.6993 C   0  0  0  0  0  0  0  0  0  0  0  0
  -20.8699  -42.0023   -6.5115 C   0  0  0  0  0  0  0  0  0  0  0  0
  -20.0342  -38.0065   -7.7258 C   0  0  0  0  0  0  0  0  0  0  0  0
  -19.8939  -37.9876   -9.2585 C   0  0  0  0  0  0  0  0  0  0  0  0
  -21.2448  -37.1582   -7.3141 C   0  0  0  0  0  0  0  0  0  0  0  0
  -18.8333  -37.4042   -7.2225 N   0  0  0  0  0  0  0  0  0  0  0  0
  -17.8754  -38.3250   -6.7188 C   0  0  0  0  0  0  0  0  0  0  0  0
  -16.7158  -38.6609   -7.5849 C   0  0  1  0  0  0  0  0  0  0  0  0
  -15.5164  -38.3721   -6.8562 O   0  0  0  0  0  0  0  0  0  0  0  0
  -16.6251  -40.0138   -8.1798 C   0  0  2  0  0  0  0  0  0  0  0  0
  -16.4019  -39.9894   -9.6523 C   0  0  0  0  0  0  0  0  0  0  0  0
  -14.9533  -39.7435  -10.0217 C   0  0  0  0  0  0  0  0  0  0  0  0
  -13.8625  -40.5416   -9.8386 C   0  0  0  0  0  0  0  0  0  0  0  0
  -12.6312  -40.0728  -10.2769 C   0  0  0  0  0  0  0  0  0  0  0  0
  -12.5415  -38.8068  -10.8866 C   0  0  0  0  0  0  0  0  0  0  0  0
  -13.6182  -37.9781  -11.0862 C   0  0  0  0  0  0  0  0  0  0  0  0
  -14.8119  -38.4811  -10.6399 C   0  0  0  0  0  0  0  0  0  0  0  0
  -11.3950  -40.6659  -10.2157 O   0  0  0  0  0  0  0  0  0  0  0  0
  -10.7682  -41.8497  -10.4572 C   0  0  0  0  0  0  0  0  0  0  0  0
  -11.7194  -43.0504  -10.5598 C   0  0  0  0  0  0  0  0  0  0  0  0
  -11.9332  -43.6319   -9.2035 C   0  0  0  0  0  0  0  0  0  0  0  0
  -13.2749  -44.2816   -8.9818 C   0  0  0  0  0  0  0  0  0  0  0  0
  -14.0650  -44.3945  -10.1567 N   0  0  0  0  0  0  0  0  0  0  0  0
  -15.4698  -44.1363  -10.0894 C   0  0  0  0  0  0  0  0  0  0  0  0
  -16.2658  -44.7975  -11.0348 C   0  0  0  0  0  0  0  0  0  0  0  0
  -17.6231  -44.5951  -11.0403 C   0  0  0  0  0  0  0  0  0  0  0  0
  -18.1384  -43.7371  -10.0997 C   0  0  0  0  0  0  0  0  0  0  0  0
  -17.3283  -43.0921   -9.1725 C   0  0  0  0  0  0  0  0  0  0  0  0
  -16.0239  -43.3182   -9.2040 N   0  0  0  0  0  0  0  0  0  0  0  0
  -17.9672  -42.1892   -8.1951 C   0  0  0  0  0  0  0  0  0  0  0  0
  -19.1317  -42.5890   -7.8286 O   0  0  0  0  0  0  0  0  0  0  0  0
  -17.4822  -41.0146   -7.6491 N   0  0  0  0  0  0  0  0  0  0  0  0
  1  2  1  0
  2  3  1  0
  2  4  1  0
  4  5  2  0
  5  6  1  0
  6  7  2  0
  7  8  1  0
  8  9  2  0
  6 10  1  0
 10 11  1  0
 10 12  1  0
 10 13  1  0
 13 14  1  0
 14 15  1  0
 15 16  1  1
 15 17  1  0
 17 18  1  6
 18 19  1  0
 19 20  2  0
 20 21  1  0
 21 22  2  0
 22 23  1  0
 23 24  2  0
 21 25  1  0
 25 26  1  0
 26 27  1  0
 27 28  1  0
 28 29  1  0
 29 30  1  0
 30 31  1  0
 31 32  2  0
 32 33  1  0
 33 34  2  0
 34 35  1  0
 35 36  2  0
 35 37  1  0
 37 38  2  0
 37 39  1  0
  9  4  1  0
 24 19  1  0
 36 31  1  0
 39 17  1  0
M  END
$$$$
