
     RDKit          3D

 39 42  0  0  0  0  0  0  0  0999 V2000
  -23.0865  -42.8315   -5.1385 C   0  0  0  0  0  0  0  0  0  0  0  0
  -23.3144  -42.8851   -6.6431 C   0  0  0  0  0  0  0  0  0  0  0  0
  -24.7654  -42.6601   -6.9325 C   0  0  0  0  0  0  0  0  0  0  0  0
  -22.4112  -41.9713   -7.3665 C   0  0  0  0  0  0  0  0  0  0  0  0
  -21.7266  -40.9553   -6.7194 C   0  0  0  0  0  0  0  0  0  0  0  0
  -20.8740  -40.0830   -7.3950 C   0  0  0  0  0  0  0  0  0  0  0  0
  -20.7239  -40.2549   -8.7383 C   0  0  0  0  0  0  0  0  0  0  0  0
  -21.4151  -41.2816   -9.3929 C   0  0  0  0  0  0  0  0  0  0  0  0
  -22.2489  -42.1311   -8.7213 C   0  0  0  0  0  0  0  0  0  0  0  0
  -20.2134  -39.0327   -6.6248 C   0  0  0  0  0  0  0  0  0  0  0  0
  -21.3351  -38.1290   -6.0825 C   0  0  0  0  0  0  0  0  0  0  0  0
  -19.4623  -39.6738   -5.4503 C   0  0  0  0  0  0  0  0  0  0  0  0
  -19.3283  -38.1592   -7.3404 N   0  0  0  0  0  0  0  0  0  0  0  0
  -18.0018  -38.1151   -6.8328 C   0  0  0  0  0  0  0  0  0  0  0  0
  -16.8844  -38.2396   -7.8041 C   0  0  1  0  0  0  0  0  0  0  0  0
  -15.6766  -37.8334   -7.1489 O   0  0  0  0  0  0  0  0  0  0  0  0
  -16.6673  -39.5307   -8.4956 C   0  0  2  0  0  0  0  0  0  0  0  0
  -16.8062  -39.4302   -9.9753 C   0  0  0  0  0  0  0  0  0  0  0  0
  -15.5643  -38.8773  -10.6444 C   0  0  0  0  0  0  0  0  0  0  0  0
  -14.3242  -39.4314  -10.7676 C   0  0  0  0  0  0  0  0  0  0  0  0
  -13.3499  -38.7051  -11.4393 C   0  0  0  0  0  0  0  0  0  0  0  0
  -13.6611  -37.4366  -11.9650 C   0  0  0  0  0  0  0  0  0  0  0  0
  -14.8980  -36.8493  -11.8590 C   0  0  0  0  0  0  0  0  0  0  0  0
  -15.8277  -37.6013  -11.1903 C   0  0  0  0  0  0  0  0  0  0  0  0
  -12.0410  -39.0258  -11.6997 O   0  0  0  0  0  0  0  0  0  0  0  0
  -11.2647  -40.0459  -12.1572 C   0  0  0  0  0  0  0  0  0  0  0  0
  -11.9534  -41.4177  -12.1247 C   0  0  0  0  0  0  0  0  0  0  0  0
  -11.7215  -42.0584  -10.7984 C   0  0  0  0  0  0  0  0  0  0  0  0
  -12.8156  -42.9804  -10.3246 C   0  0  0  0  0  0  0  0  0  0  0  0
  -13.8208  -43.2334  -11.2957 N   0  0  0  0  0  0  0  0  0  0  0  0
  -15.1928  -43.2781  -10.8954 C   0  0  0  0  0  0  0  0  0  0  0  0
  -16.0399  -44.0729  -11.6798 C   0  0  0  0  0  0  0  0  0  0  0  0
  -17.3727  -44.1608  -11.3648 C   0  0  0  0  0  0  0  0  0  0  0  0
  -17.8133  -43.4497  -10.2754 C   0  0  0  0  0  0  0  0  0  0  0  0
  -16.9537  -42.6674   -9.5130 C   0  0  0  0  0  0  0  0  0  0  0  0
  -15.6753  -42.6132   -9.8537 N   0  0  0  0  0  0  0  0  0  0  0  0
  -17.5123  -41.9392   -8.3570 C   0  0  0  0  0  0  0  0  0  0  0  0
  -18.4537  -42.5825   -7.7654 O   0  0  0  0  0  0  0  0  0  0  0  0
  -17.1576  -40.7001   -7.8552 N   0  0  0  0  0  0  0  0  0  0  0  0
  1  2  1  0
  2  3  1  0
  2  4  1  0
  4  5  2  0
  5  6  1  0
  6  7  2  0
  7  8  1  0
  8  9  2  0
  6 10  1  0
 10 11  1  0
 10 12  1  0
 10 13  1  0
 13 14  1  0
 14 15  1  0
 15 16  1  1
 15 17  1  0
 17 18  1  6
 18 19  1  0
 19 20  2  0
 20 21  1  0
 21 22  2  0
 22 23  1  0
 23 24  2  0
 21 25  1  0
 25 26  1  0
 26 27  1  0
 27 28  1  0
 28 29  1  0
 29 30  1  0
 30 31  1  0
 31 32  2  0
 32 33  1  0
 33 34  2  0
 34 35  1  0
 35 36  2  0
 35 37  1  0
 37 38  2  0
 37 39  1  0
  9  4  1  0
 24 19  1  0
 36 31  1  0
 39 17  1  0
M  END
$$$$
