
     RDKit          3D

 39 42  0  0  0  0  0  0  0  0999 V2000
  -12.5708  -34.2003  -11.6688 C   0  0  0  0  0  0  0  0  0  0  0  0
  -13.8983  -34.9101  -11.4398 C   0  0  0  0  0  0  0  0  0  0  0  0
  -14.9370  -34.3208  -12.3418 C   0  0  0  0  0  0  0  0  0  0  0  0
  -13.7640  -36.3737  -11.5578 C   0  0  0  0  0  0  0  0  0  0  0  0
  -13.6491  -37.1899  -10.4441 C   0  0  0  0  0  0  0  0  0  0  0  0
  -13.5169  -38.5744  -10.5450 C   0  0  0  0  0  0  0  0  0  0  0  0
  -13.5033  -39.1218  -11.7927 C   0  0  0  0  0  0  0  0  0  0  0  0
  -13.6198  -38.2976  -12.9186 C   0  0  0  0  0  0  0  0  0  0  0  0
  -13.7485  -36.9414  -12.8086 C   0  0  0  0  0  0  0  0  0  0  0  0
  -13.3831  -39.3443   -9.3112 C   0  0  0  0  0  0  0  0  0  0  0  0
  -13.2380  -40.8160   -9.7381 C   0  0  0  0  0  0  0  0  0  0  0  0
  -12.1100  -38.8973   -8.5806 C   0  0  0  0  0  0  0  0  0  0  0  0
  -14.4928  -39.3154   -8.4022 N   0  0  0  0  0  0  0  0  0  0  0  0
  -15.7586  -39.5445   -9.0058 C   0  0  0  0  0  0  0  0  0  0  0  0
  -16.9665  -39.4208   -8.1495 C   0  0  1  0  0  0  0  0  0  0  0  0
  -17.7770  -38.3610   -8.6720 O   0  0  0  0  0  0  0  0  0  0  0  0
  -17.8050  -40.6163   -7.9044 C   0  0  2  0  0  0  0  0  0  0  0  0
  -18.4617  -40.6037   -6.5675 C   0  0  0  0  0  0  0  0  0  0  0  0
  -19.7057  -39.7396   -6.5335 C   0  0  0  0  0  0  0  0  0  0  0  0
  -20.9060  -39.9200   -7.1556 C   0  0  0  0  0  0  0  0  0  0  0  0
  -21.8946  -38.9662   -6.9532 C   0  0  0  0  0  0  0  0  0  0  0  0
  -21.6364  -37.8555   -6.1273 C   0  0  0  0  0  0  0  0  0  0  0  0
  -20.4405  -37.6429   -5.4866 C   0  0  0  0  0  0  0  0  0  0  0  0
  -19.4956  -38.6087   -5.7135 C   0  0  0  0  0  0  0  0  0  0  0  0
  -23.1716  -38.9076   -7.4529 O   0  0  0  0  0  0  0  0  0  0  0  0
  -24.2787  -39.6768   -7.6405 C   0  0  0  0  0  0  0  0  0  0  0  0
  -24.0106  -41.1865   -7.5622 C   0  0  0  0  0  0  0  0  0  0  0  0
  -23.6338  -41.6946   -8.9125 C   0  0  0  0  0  0  0  0  0  0  0  0
  -22.6979  -42.8760   -8.9217 C   0  0  0  0  0  0  0  0  0  0  0  0
  -22.4571  -43.4342   -7.6380 N   0  0  0  0  0  0  0  0  0  0  0  0
  -21.1363  -43.8567   -7.2892 C   0  0  0  0  0  0  0  0  0  0  0  0
  -21.0465  -44.8832   -6.3390 C   0  0  0  0  0  0  0  0  0  0  0  0
  -19.8131  -45.3384   -5.9458 C   0  0  0  0  0  0  0  0  0  0  0  0
  -18.7105  -44.7506   -6.5162 C   0  0  0  0  0  0  0  0  0  0  0  0
  -18.8251  -43.7331   -7.4563 C   0  0  0  0  0  0  0  0  0  0  0  0
  -20.0356  -43.3264   -7.8063 N   0  0  0  0  0  0  0  0  0  0  0  0
  -17.5870  -43.1605   -8.0202 C   0  0  0  0  0  0  0  0  0  0  0  0
  -16.6494  -44.0278   -8.1568 O   0  0  0  0  0  0  0  0  0  0  0  0
  -17.3271  -41.8574   -8.4039 N   0  0  0  0  0  0  0  0  0  0  0  0
  1  2  1  0
  2  3  1  0
  2  4  1  0
  4  5  2  0
  5  6  1  0
  6  7  2  0
  7  8  1  0
  8  9  2  0
  6 10  1  0
 10 11  1  0
 10 12  1  0
 10 13  1  0
 13 14  1  0
 14 15  1  0
 15 16  1  6
 15 17  1  0
 17 18  1  1
 18 19  1  0
 19 20  2  0
 20 21  1  0
 21 22  2  0
 22 23  1  0
 23 24  2  0
 21 25  1  0
 25 26  1  0
 26 27  1  0
 27 28  1  0
 28 29  1  0
 29 30  1  0
 30 31  1  0
 31 32  2  0
 32 33  1  0
 33 34  2  0
 34 35  1  0
 35 36  2  0
 35 37  1  0
 37 38  2  0
 37 39  1  0
  9  4  1  0
 24 19  1  0
 36 31  1  0
 39 17  1  0
M  END
$$$$
