
     RDKit          3D

 39 42  0  0  0  0  0  0  0  0999 V2000
   -9.6475  -39.7317  -10.9309 C   0  0  0  0  0  0  0  0  0  0  0  0
  -10.1205  -38.5367  -11.7473 C   0  0  0  0  0  0  0  0  0  0  0  0
   -9.2336  -38.3703  -12.9413 C   0  0  0  0  0  0  0  0  0  0  0  0
  -11.5549  -38.6313  -12.0759 C   0  0  0  0  0  0  0  0  0  0  0  0
  -12.4806  -37.7290  -11.5774 C   0  0  0  0  0  0  0  0  0  0  0  0
  -13.8397  -37.8126  -11.8782 C   0  0  0  0  0  0  0  0  0  0  0  0
  -14.2486  -38.8250  -12.6934 C   0  0  0  0  0  0  0  0  0  0  0  0
  -13.3136  -39.7369  -13.1978 C   0  0  0  0  0  0  0  0  0  0  0  0
  -11.9836  -39.6463  -12.8964 C   0  0  0  0  0  0  0  0  0  0  0  0
  -14.7370  -36.8237  -11.2870 C   0  0  0  0  0  0  0  0  0  0  0  0
  -14.0557  -35.4570  -11.4802 C   0  0  0  0  0  0  0  0  0  0  0  0
  -16.0692  -36.8415  -12.0483 C   0  0  0  0  0  0  0  0  0  0  0  0
  -14.9882  -36.9321   -9.8786 N   0  0  0  0  0  0  0  0  0  0  0  0
  -16.3250  -36.6448   -9.4918 C   0  0  0  0  0  0  0  0  0  0  0  0
  -16.9572  -37.5273   -8.4774 C   0  0  1  0  0  0  0  0  0  0  0  0
  -18.0280  -36.8021   -7.8606 O   0  0  0  0  0  0  0  0  0  0  0  0
  -17.4316  -38.8703   -8.8819 C   0  0  2  0  0  0  0  0  0  0  0  0
  -17.9909  -39.6571   -7.7475 C   0  0  0  0  0  0  0  0  0  0  0  0
  -19.4162  -39.2687   -7.4109 C   0  0  0  0  0  0  0  0  0  0  0  0
  -20.5584  -39.4434   -8.1355 C   0  0  0  0  0  0  0  0  0  0  0  0
  -21.7521  -38.9913   -7.5891 C   0  0  0  0  0  0  0  0  0  0  0  0
  -21.7526  -38.3730   -6.3242 C   0  0  0  0  0  0  0  0  0  0  0  0
  -20.6221  -38.1809   -5.5685 C   0  0  0  0  0  0  0  0  0  0  0  0
  -19.4686  -38.6431   -6.1454 C   0  0  0  0  0  0  0  0  0  0  0  0
  -23.0249  -39.0416   -8.1004 O   0  0  0  0  0  0  0  0  0  0  0  0
  -23.8959  -39.8924   -8.7087 C   0  0  0  0  0  0  0  0  0  0  0  0
  -23.2314  -41.1334   -9.3216 C   0  0  0  0  0  0  0  0  0  0  0  0
  -22.8102  -40.8317  -10.7198 C   0  0  0  0  0  0  0  0  0  0  0  0
  -21.5955  -41.5800  -11.2058 C   0  0  0  0  0  0  0  0  0  0  0  0
  -21.1422  -42.5892  -10.3151 N   0  0  0  0  0  0  0  0  0  0  0  0
  -19.7390  -42.7641  -10.1028 C   0  0  0  0  0  0  0  0  0  0  0  0
  -19.3251  -44.0520   -9.7356 C   0  0  0  0  0  0  0  0  0  0  0  0
  -17.9948  -44.2980   -9.5060 C   0  0  0  0  0  0  0  0  0  0  0  0
  -17.1229  -43.2467   -9.6509 C   0  0  0  0  0  0  0  0  0  0  0  0
  -17.5575  -41.9776  -10.0152 C   0  0  0  0  0  0  0  0  0  0  0  0
  -18.8506  -41.7867  -10.2276 N   0  0  0  0  0  0  0  0  0  0  0  0
  -16.5508  -40.9067  -10.1511 C   0  0  0  0  0  0  0  0  0  0  0  0
  -15.4254  -41.3299  -10.6032 O   0  0  0  0  0  0  0  0  0  0  0  0
  -16.6697  -39.5592   -9.8631 N   0  0  0  0  0  0  0  0  0  0  0  0
  1  2  1  0
  2  3  1  0
  2  4  1  0
  4  5  2  0
  5  6  1  0
  6  7  2  0
  7  8  1  0
  8  9  2  0
  6 10  1  0
 10 11  1  0
 10 12  1  0
 10 13  1  0
 13 14  1  0
 14 15  1  0
 15 16  1  6
 15 17  1  0
 17 18  1  1
 18 19  1  0
 19 20  2  0
 20 21  1  0
 21 22  2  0
 22 23  1  0
 23 24  2  0
 21 25  1  0
 25 26  1  0
 26 27  1  0
 27 28  1  0
 28 29  1  0
 29 30  1  0
 30 31  1  0
 31 32  2  0
 32 33  1  0
 33 34  2  0
 34 35  1  0
 35 36  2  0
 35 37  1  0
 37 38  2  0
 37 39  1  0
  9  4  1  0
 24 19  1  0
 36 31  1  0
 39 17  1  0
M  END
$$$$
