
     RDKit          3D

 39 42  0  0  0  0  0  0  0  0999 V2000
  -18.0718  -34.8572  -10.5069 C   0  0  0  0  0  0  0  0  0  0  0  0
  -18.7351  -35.7650  -11.5338 C   0  0  0  0  0  0  0  0  0  0  0  0
  -18.7168  -35.0953  -12.8721 C   0  0  0  0  0  0  0  0  0  0  0  0
  -18.1444  -37.1161  -11.5327 C   0  0  0  0  0  0  0  0  0  0  0  0
  -17.0565  -37.4381  -10.7374 C   0  0  0  0  0  0  0  0  0  0  0  0
  -16.4876  -38.7112  -10.7326 C   0  0  0  0  0  0  0  0  0  0  0  0
  -17.0378  -39.6558  -11.5460 C   0  0  0  0  0  0  0  0  0  0  0  0
  -18.1375  -39.3312  -12.3496 C   0  0  0  0  0  0  0  0  0  0  0  0
  -18.6873  -38.0799  -12.3472 C   0  0  0  0  0  0  0  0  0  0  0  0
  -15.3305  -38.9443   -9.8725 C   0  0  0  0  0  0  0  0  0  0  0  0
  -14.7675  -40.3191  -10.2748 C   0  0  0  0  0  0  0  0  0  0  0  0
  -14.2786  -37.8618  -10.1485 C   0  0  0  0  0  0  0  0  0  0  0  0
  -15.5745  -39.0269   -8.4611 N   0  0  0  0  0  0  0  0  0  0  0  0
  -16.7304  -38.3290   -8.0183 C   0  0  0  0  0  0  0  0  0  0  0  0
  -17.5221  -38.9310   -6.9146 C   0  0  1  0  0  0  0  0  0  0  0  0
  -18.4071  -37.9275   -6.4017 O   0  0  0  0  0  0  0  0  0  0  0  0
  -18.2755  -40.1812   -7.1630 C   0  0  2  0  0  0  0  0  0  0  0  0
  -18.4808  -40.9928   -5.9310 C   0  0  0  0  0  0  0  0  0  0  0  0
  -19.6270  -40.4861   -5.0794 C   0  0  0  0  0  0  0  0  0  0  0  0
  -20.9662  -40.4835   -5.3379 C   0  0  0  0  0  0  0  0  0  0  0  0
  -21.8146  -39.9543   -4.3746 C   0  0  0  0  0  0  0  0  0  0  0  0
  -21.2800  -39.4411   -3.1774 C   0  0  0  0  0  0  0  0  0  0  0  0
  -19.9382  -39.4279   -2.8851 C   0  0  0  0  0  0  0  0  0  0  0  0
  -19.1392  -39.9604   -3.8624 C   0  0  0  0  0  0  0  0  0  0  0  0
  -23.1816  -39.8315   -4.3824 O   0  0  0  0  0  0  0  0  0  0  0  0
  -24.3131  -40.5365   -4.6567 C   0  0  0  0  0  0  0  0  0  0  0  0
  -24.0768  -41.7875   -5.5147 C   0  0  0  0  0  0  0  0  0  0  0  0
  -24.1553  -41.4217   -6.9581 C   0  0  0  0  0  0  0  0  0  0  0  0
  -23.3030  -42.2515   -7.8836 C   0  0  0  0  0  0  0  0  0  0  0  0
  -22.6889  -43.3696   -7.2589 N   0  0  0  0  0  0  0  0  0  0  0  0
  -21.3378  -43.7056   -7.5848 C   0  0  0  0  0  0  0  0  0  0  0  0
  -20.9845  -45.0544   -7.4418 C   0  0  0  0  0  0  0  0  0  0  0  0
  -19.7034  -45.4547   -7.7273 C   0  0  0  0  0  0  0  0  0  0  0  0
  -18.8182  -44.4915   -8.1459 C   0  0  0  0  0  0  0  0  0  0  0  0
  -19.1920  -43.1594   -8.2794 C   0  0  0  0  0  0  0  0  0  0  0  0
  -20.4394  -42.8190   -7.9935 N   0  0  0  0  0  0  0  0  0  0  0  0
  -18.1766  -42.1916   -8.7386 C   0  0  0  0  0  0  0  0  0  0  0  0
  -17.3535  -42.6924   -9.5882 O   0  0  0  0  0  0  0  0  0  0  0  0
  -18.0129  -40.8660   -8.3797 N   0  0  0  0  0  0  0  0  0  0  0  0
  1  2  1  0
  2  3  1  0
  2  4  1  0
  4  5  2  0
  5  6  1  0
  6  7  2  0
  7  8  1  0
  8  9  2  0
  6 10  1  0
 10 11  1  0
 10 12  1  0
 10 13  1  0
 13 14  1  0
 14 15  1  0
 15 16  1  6
 15 17  1  0
 17 18  1  1
 18 19  1  0
 19 20  2  0
 20 21  1  0
 21 22  2  0
 22 23  1  0
 23 24  2  0
 21 25  1  0
 25 26  1  0
 26 27  1  0
 27 28  1  0
 28 29  1  0
 29 30  1  0
 30 31  1  0
 31 32  2  0
 32 33  1  0
 33 34  2  0
 34 35  1  0
 35 36  2  0
 35 37  1  0
 37 38  2  0
 37 39  1  0
  9  4  1  0
 24 19  1  0
 36 31  1  0
 39 17  1  0
M  END
$$$$
