
     RDKit          3D

 39 42  0  0  0  0  0  0  0  0999 V2000
  -14.0526  -35.5539  -11.0918 C   0  0  0  0  0  0  0  0  0  0  0  0
  -13.7397  -36.4582  -12.2762 C   0  0  0  0  0  0  0  0  0  0  0  0
  -12.3520  -36.1768  -12.7611 C   0  0  0  0  0  0  0  0  0  0  0  0
  -13.9875  -37.8774  -11.9621 C   0  0  0  0  0  0  0  0  0  0  0  0
  -13.7454  -38.4007  -10.7022 C   0  0  0  0  0  0  0  0  0  0  0  0
  -13.9718  -39.7422  -10.3963 C   0  0  0  0  0  0  0  0  0  0  0  0
  -14.4486  -40.5477  -11.3864 C   0  0  0  0  0  0  0  0  0  0  0  0
  -14.6938  -40.0194  -12.6597 C   0  0  0  0  0  0  0  0  0  0  0  0
  -14.4680  -38.7030  -12.9493 C   0  0  0  0  0  0  0  0  0  0  0  0
  -13.6667  -40.2001   -9.0434 C   0  0  0  0  0  0  0  0  0  0  0  0
  -14.1803  -41.6483   -8.9552 C   0  0  0  0  0  0  0  0  0  0  0  0
  -12.1453  -40.1855   -8.8438 C   0  0  0  0  0  0  0  0  0  0  0  0
  -14.2989  -39.5014   -7.9615 N   0  0  0  0  0  0  0  0  0  0  0  0
  -15.3590  -38.6398   -8.3523 C   0  0  0  0  0  0  0  0  0  0  0  0
  -16.6842  -38.8371   -7.7100 C   0  0  1  0  0  0  0  0  0  0  0  0
  -17.4533  -37.6429   -7.8985 O   0  0  0  0  0  0  0  0  0  0  0  0
  -17.4977  -40.0182   -8.0780 C   0  0  2  0  0  0  0  0  0  0  0  0
  -18.5874  -40.3023   -7.1029 C   0  0  0  0  0  0  0  0  0  0  0  0
  -19.8011  -39.4185   -7.3062 C   0  0  0  0  0  0  0  0  0  0  0  0
  -20.6912  -39.3893   -8.3392 C   0  0  0  0  0  0  0  0  0  0  0  0
  -21.7307  -38.4708   -8.2778 C   0  0  0  0  0  0  0  0  0  0  0  0
  -21.8362  -37.6068   -7.1711 C   0  0  0  0  0  0  0  0  0  0  0  0
  -20.9583  -37.6091   -6.1150 C   0  0  0  0  0  0  0  0  0  0  0  0
  -19.9503  -38.5313   -6.2170 C   0  0  0  0  0  0  0  0  0  0  0  0
  -22.7472  -38.2363   -9.1697 O   0  0  0  0  0  0  0  0  0  0  0  0
  -23.6774  -38.8874   -9.9203 C   0  0  0  0  0  0  0  0  0  0  0  0
  -23.3841  -40.3811  -10.1203 C   0  0  0  0  0  0  0  0  0  0  0  0
  -22.5276  -40.5616  -11.3274 C   0  0  0  0  0  0  0  0  0  0  0  0
  -21.5953  -41.7452  -11.2887 C   0  0  0  0  0  0  0  0  0  0  0  0
  -21.8015  -42.6089  -10.1801 N   0  0  0  0  0  0  0  0  0  0  0  0
  -20.6733  -43.1613   -9.4969 C   0  0  0  0  0  0  0  0  0  0  0  0
  -20.8796  -44.3909   -8.8566 C   0  0  0  0  0  0  0  0  0  0  0  0
  -19.8472  -44.9819   -8.1725 C   0  0  0  0  0  0  0  0  0  0  0  0
  -18.6428  -44.3220   -8.1513 C   0  0  0  0  0  0  0  0  0  0  0  0
  -18.4627  -43.1025   -8.7935 C   0  0  0  0  0  0  0  0  0  0  0  0
  -19.4869  -42.5700   -9.4423 N   0  0  0  0  0  0  0  0  0  0  0  0
  -17.1334  -42.4649   -8.7219 C   0  0  0  0  0  0  0  0  0  0  0  0
  -16.1689  -43.3133   -8.7213 O   0  0  0  0  0  0  0  0  0  0  0  0
  -16.8155  -41.1203   -8.6593 N   0  0  0  0  0  0  0  0  0  0  0  0
  1  2  1  0
  2  3  1  0
  2  4  1  0
  4  5  2  0
  5  6  1  0
  6  7  2  0
  7  8  1  0
  8  9  2  0
  6 10  1  0
 10 11  1  0
 10 12  1  0
 10 13  1  0
 13 14  1  0
 14 15  1  0
 15 16  1  6
 15 17  1  0
 17 18  1  1
 18 19  1  0
 19 20  2  0
 20 21  1  0
 21 22  2  0
 22 23  1  0
 23 24  2  0
 21 25  1  0
 25 26  1  0
 26 27  1  0
 27 28  1  0
 28 29  1  0
 29 30  1  0
 30 31  1  0
 31 32  2  0
 32 33  1  0
 33 34  2  0
 34 35  1  0
 35 36  2  0
 35 37  1  0
 37 38  2  0
 37 39  1  0
  9  4  1  0
 24 19  1  0
 36 31  1  0
 39 17  1  0
M  END
$$$$
