
     RDKit          3D

 39 42  0  0  0  0  0  0  0  0999 V2000
  -22.1700  -42.4008   -4.1652 C   0  0  0  0  0  0  0  0  0  0  0  0
  -23.1273  -41.4769   -4.9059 C   0  0  0  0  0  0  0  0  0  0  0  0
  -23.4958  -40.3303   -4.0175 C   0  0  0  0  0  0  0  0  0  0  0  0
  -22.5900  -41.0693   -6.2172 C   0  0  0  0  0  0  0  0  0  0  0  0
  -21.5561  -40.1540   -6.3316 C   0  0  0  0  0  0  0  0  0  0  0  0
  -21.0442  -39.7583   -7.5668 C   0  0  0  0  0  0  0  0  0  0  0  0
  -21.5951  -40.3045   -8.6870 C   0  0  0  0  0  0  0  0  0  0  0  0
  -22.6396  -41.2298   -8.5721 C   0  0  0  0  0  0  0  0  0  0  0  0
  -23.1345  -41.6106   -7.3564 C   0  0  0  0  0  0  0  0  0  0  0  0
  -19.9664  -38.7730   -7.5809 C   0  0  0  0  0  0  0  0  0  0  0  0
  -19.6202  -38.5376   -9.0621 C   0  0  0  0  0  0  0  0  0  0  0  0
  -20.4788  -37.4653   -6.9629 C   0  0  0  0  0  0  0  0  0  0  0  0
  -18.7324  -39.1488   -6.9529 N   0  0  0  0  0  0  0  0  0  0  0  0
  -17.7502  -38.1226   -6.9161 C   0  0  0  0  0  0  0  0  0  0  0  0
  -16.6808  -38.1504   -7.9472 C   0  0  1  0  0  0  0  0  0  0  0  0
  -15.5095  -37.5401   -7.3915 O   0  0  0  0  0  0  0  0  0  0  0  0
  -16.3197  -39.4393   -8.5803 C   0  0  2  0  0  0  0  0  0  0  0  0
  -16.2914  -39.3704  -10.0679 C   0  0  0  0  0  0  0  0  0  0  0  0
  -15.0103  -38.7632  -10.6025 C   0  0  0  0  0  0  0  0  0  0  0  0
  -13.7376  -39.2524  -10.5702 C   0  0  0  0  0  0  0  0  0  0  0  0
  -12.7305  -38.4863  -11.1419 C   0  0  0  0  0  0  0  0  0  0  0  0
  -13.0431  -37.2448  -11.7279 C   0  0  0  0  0  0  0  0  0  0  0  0
  -14.3123  -36.7226  -11.7776 C   0  0  0  0  0  0  0  0  0  0  0  0
  -15.2736  -37.5120  -11.2033 C   0  0  0  0  0  0  0  0  0  0  0  0
  -11.3856  -38.7410  -11.2433 O   0  0  0  0  0  0  0  0  0  0  0  0
  -10.5106  -39.7257  -11.5859 C   0  0  0  0  0  0  0  0  0  0  0  0
  -11.1276  -41.1315  -11.6020 C   0  0  0  0  0  0  0  0  0  0  0  0
  -11.0183  -41.7373  -10.2439 C   0  0  0  0  0  0  0  0  0  0  0  0
  -12.1114  -42.7084   -9.8782 C   0  0  0  0  0  0  0  0  0  0  0  0
  -12.9833  -43.0303  -10.9522 N   0  0  0  0  0  0  0  0  0  0  0  0
  -14.3883  -43.1415  -10.7110 C   0  0  0  0  0  0  0  0  0  0  0  0
  -15.0974  -43.9928  -11.5695 C   0  0  0  0  0  0  0  0  0  0  0  0
  -16.4514  -44.1464  -11.4074 C   0  0  0  0  0  0  0  0  0  0  0  0
  -17.0508  -43.4421  -10.3919 C   0  0  0  0  0  0  0  0  0  0  0  0
  -16.3262  -42.6029   -9.5536 C   0  0  0  0  0  0  0  0  0  0  0  0
  -15.0214  -42.4862   -9.7466 N   0  0  0  0  0  0  0  0  0  0  0  0
  -17.0511  -41.8867   -8.4858 C   0  0  0  0  0  0  0  0  0  0  0  0
  -18.0206  -42.5695   -7.9918 O   0  0  0  0  0  0  0  0  0  0  0  0
  -16.8204  -40.6225   -7.9743 N   0  0  0  0  0  0  0  0  0  0  0  0
  1  2  1  0
  2  3  1  0
  2  4  1  0
  4  5  2  0
  5  6  1  0
  6  7  2  0
  7  8  1  0
  8  9  2  0
  6 10  1  0
 10 11  1  0
 10 12  1  0
 10 13  1  0
 13 14  1  0
 14 15  1  0
 15 16  1  1
 15 17  1  0
 17 18  1  6
 18 19  1  0
 19 20  2  0
 20 21  1  0
 21 22  2  0
 22 23  1  0
 23 24  2  0
 21 25  1  0
 25 26  1  0
 26 27  1  0
 27 28  1  0
 28 29  1  0
 29 30  1  0
 30 31  1  0
 31 32  2  0
 32 33  1  0
 33 34  2  0
 34 35  1  0
 35 36  2  0
 35 37  1  0
 37 38  2  0
 37 39  1  0
  9  4  1  0
 24 19  1  0
 36 31  1  0
 39 17  1  0
M  END
$$$$
