
     RDKit          3D

 39 42  0  0  0  0  0  0  0  0999 V2000
  -21.8728  -38.9412   -2.9511 C   0  0  0  0  0  0  0  0  0  0  0  0
  -22.2779  -40.1196   -3.8262 C   0  0  0  0  0  0  0  0  0  0  0  0
  -23.6024  -40.6445   -3.3679 C   0  0  0  0  0  0  0  0  0  0  0  0
  -22.2333  -39.7778   -5.2598 C   0  0  0  0  0  0  0  0  0  0  0  0
  -21.1447  -40.0982   -6.0548 C   0  0  0  0  0  0  0  0  0  0  0  0
  -21.0907  -39.7752   -7.4102 C   0  0  0  0  0  0  0  0  0  0  0  0
  -22.1575  -39.1221   -7.9504 C   0  0  0  0  0  0  0  0  0  0  0  0
  -23.2581  -38.7982   -7.1478 C   0  0  0  0  0  0  0  0  0  0  0  0
  -23.3008  -39.1191   -5.8200 C   0  0  0  0  0  0  0  0  0  0  0  0
  -19.8898  -40.1401   -8.1569 C   0  0  0  0  0  0  0  0  0  0  0  0
  -19.9846  -41.6560   -8.4066 C   0  0  0  0  0  0  0  0  0  0  0  0
  -19.8950  -39.4005   -9.5013 C   0  0  0  0  0  0  0  0  0  0  0  0
  -18.6293  -39.9365   -7.5026 N   0  0  0  0  0  0  0  0  0  0  0  0
  -18.1655  -38.5935   -7.5159 C   0  0  0  0  0  0  0  0  0  0  0  0
  -16.9252  -38.2968   -8.2784 C   0  0  1  0  0  0  0  0  0  0  0  0
  -16.0302  -37.5852   -7.4149 O   0  0  0  0  0  0  0  0  0  0  0  0
  -16.2022  -39.4049   -8.9431 C   0  0  2  0  0  0  0  0  0  0  0  0
  -16.2569  -39.3279  -10.4296 C   0  0  0  0  0  0  0  0  0  0  0  0
  -15.2550  -38.3467  -11.0032 C   0  0  0  0  0  0  0  0  0  0  0  0
  -13.8928  -38.4095  -11.0259 C   0  0  0  0  0  0  0  0  0  0  0  0
  -13.2022  -37.3639  -11.6239 C   0  0  0  0  0  0  0  0  0  0  0  0
  -13.9133  -36.2833  -12.1799 C   0  0  0  0  0  0  0  0  0  0  0  0
  -15.2833  -36.1880  -12.1742 C   0  0  0  0  0  0  0  0  0  0  0  0
  -15.9230  -37.2413  -11.5756 C   0  0  0  0  0  0  0  0  0  0  0  0
  -11.8508  -37.1813  -11.7795 O   0  0  0  0  0  0  0  0  0  0  0  0
  -10.7247  -37.8391  -12.1689 C   0  0  0  0  0  0  0  0  0  0  0  0
  -10.8674  -39.3677  -12.1820 C   0  0  0  0  0  0  0  0  0  0  0  0
  -10.5182  -39.9105  -10.8379 C   0  0  0  0  0  0  0  0  0  0  0  0
  -11.2341  -41.1775  -10.4453 C   0  0  0  0  0  0  0  0  0  0  0  0
  -12.0026  -41.7560  -11.4903 N   0  0  0  0  0  0  0  0  0  0  0  0
  -13.2901  -42.3051  -11.1980 C   0  0  0  0  0  0  0  0  0  0  0  0
  -13.7288  -43.3351  -12.0414 C   0  0  0  0  0  0  0  0  0  0  0  0
  -14.9578  -43.9082  -11.8307 C   0  0  0  0  0  0  0  0  0  0  0  0
  -15.7071  -43.4308  -10.7834 C   0  0  0  0  0  0  0  0  0  0  0  0
  -15.2507  -42.4073   -9.9609 C   0  0  0  0  0  0  0  0  0  0  0  0
  -14.0580  -41.8847  -10.2012 N   0  0  0  0  0  0  0  0  0  0  0  0
  -16.1208  -41.9583   -8.8564 C   0  0  0  0  0  0  0  0  0  0  0  0
  -16.8051  -42.9128   -8.3362 O   0  0  0  0  0  0  0  0  0  0  0  0
  -16.2798  -40.6867   -8.3358 N   0  0  0  0  0  0  0  0  0  0  0  0
  1  2  1  0
  2  3  1  0
  2  4  1  0
  4  5  2  0
  5  6  1  0
  6  7  2  0
  7  8  1  0
  8  9  2  0
  6 10  1  0
 10 11  1  0
 10 12  1  0
 10 13  1  0
 13 14  1  0
 14 15  1  0
 15 16  1  1
 15 17  1  0
 17 18  1  6
 18 19  1  0
 19 20  2  0
 20 21  1  0
 21 22  2  0
 22 23  1  0
 23 24  2  0
 21 25  1  0
 25 26  1  0
 26 27  1  0
 27 28  1  0
 28 29  1  0
 29 30  1  0
 30 31  1  0
 31 32  2  0
 32 33  1  0
 33 34  2  0
 34 35  1  0
 35 36  2  0
 35 37  1  0
 37 38  2  0
 37 39  1  0
  9  4  1  0
 24 19  1  0
 36 31  1  0
 39 17  1  0
M  END
$$$$
