
     RDKit          3D

 39 42  0  0  0  0  0  0  0  0999 V2000
  -15.9830  -33.5918  -12.8490 C   0  0  0  0  0  0  0  0  0  0  0  0
  -14.6957  -33.9270  -12.1081 C   0  0  0  0  0  0  0  0  0  0  0  0
  -14.8030  -33.4571  -10.6913 C   0  0  0  0  0  0  0  0  0  0  0  0
  -14.3432  -35.3527  -12.2406 C   0  0  0  0  0  0  0  0  0  0  0  0
  -14.7605  -36.2982  -11.3179 C   0  0  0  0  0  0  0  0  0  0  0  0
  -14.4286  -37.6478  -11.4315 C   0  0  0  0  0  0  0  0  0  0  0  0
  -13.6669  -38.0271  -12.4956 C   0  0  0  0  0  0  0  0  0  0  0  0
  -13.2451  -37.0722  -13.4287 C   0  0  0  0  0  0  0  0  0  0  0  0
  -13.5756  -35.7515  -13.3079 C   0  0  0  0  0  0  0  0  0  0  0  0
  -14.9019  -38.5620  -10.3955 C   0  0  0  0  0  0  0  0  0  0  0  0
  -14.6522  -39.9831  -10.9315 C   0  0  0  0  0  0  0  0  0  0  0  0
  -14.0733  -38.3442   -9.1225 C   0  0  0  0  0  0  0  0  0  0  0  0
  -16.2989  -38.5130  -10.0726 N   0  0  0  0  0  0  0  0  0  0  0  0
  -16.6050  -37.8165   -8.8725 C   0  0  0  0  0  0  0  0  0  0  0  0
  -17.0018  -38.6202   -7.6875 C   0  0  1  0  0  0  0  0  0  0  0  0
  -17.8294  -37.8027   -6.8509 O   0  0  0  0  0  0  0  0  0  0  0  0
  -17.6445  -39.9387   -7.8899 C   0  0  2  0  0  0  0  0  0  0  0  0
  -17.9492  -40.6410   -6.6122 C   0  0  0  0  0  0  0  0  0  0  0  0
  -19.2179  -40.1375   -5.9545 C   0  0  0  0  0  0  0  0  0  0  0  0
  -20.5137  -40.2545   -6.3635 C   0  0  0  0  0  0  0  0  0  0  0  0
  -21.5023  -39.6969   -5.5636 C   0  0  0  0  0  0  0  0  0  0  0  0
  -21.1477  -39.0348   -4.3727 C   0  0  0  0  0  0  0  0  0  0  0  0
  -19.8542  -38.8986   -3.9316 C   0  0  0  0  0  0  0  0  0  0  0  0
  -18.9128  -39.4644   -4.7506 C   0  0  0  0  0  0  0  0  0  0  0  0
  -22.8631  -39.6725   -5.7406 O   0  0  0  0  0  0  0  0  0  0  0  0
  -23.9095  -40.4789   -6.0682 C   0  0  0  0  0  0  0  0  0  0  0  0
  -23.4977  -41.7864   -6.7595 C   0  0  0  0  0  0  0  0  0  0  0  0
  -23.4224  -41.5670   -8.2324 C   0  0  0  0  0  0  0  0  0  0  0  0
  -22.4169  -42.4192   -8.9634 C   0  0  0  0  0  0  0  0  0  0  0  0
  -21.8181  -43.4260   -8.1601 N   0  0  0  0  0  0  0  0  0  0  0  0
  -20.4200  -43.6951   -8.2926 C   0  0  0  0  0  0  0  0  0  0  0  0
  -20.0076  -44.9956   -7.9713 C   0  0  0  0  0  0  0  0  0  0  0  0
  -18.6800  -45.3298   -8.0652 C   0  0  0  0  0  0  0  0  0  0  0  0
  -17.8090  -44.3509   -8.4771 C   0  0  0  0  0  0  0  0  0  0  0  0
  -18.2419  -43.0675   -8.7897 C   0  0  0  0  0  0  0  0  0  0  0  0
  -19.5325  -42.7904   -8.6853 N   0  0  0  0  0  0  0  0  0  0  0  0
  -17.2372  -42.0786   -9.2273 C   0  0  0  0  0  0  0  0  0  0  0  0
  -16.2893  -42.5990   -9.9206 O   0  0  0  0  0  0  0  0  0  0  0  0
  -17.1967  -40.7165   -8.9910 N   0  0  0  0  0  0  0  0  0  0  0  0
  1  2  1  0
  2  3  1  0
  2  4  1  0
  4  5  2  0
  5  6  1  0
  6  7  2  0
  7  8  1  0
  8  9  2  0
  6 10  1  0
 10 11  1  0
 10 12  1  0
 10 13  1  0
 13 14  1  0
 14 15  1  0
 15 16  1  6
 15 17  1  0
 17 18  1  1
 18 19  1  0
 19 20  2  0
 20 21  1  0
 21 22  2  0
 22 23  1  0
 23 24  2  0
 21 25  1  0
 25 26  1  0
 26 27  1  0
 27 28  1  0
 28 29  1  0
 29 30  1  0
 30 31  1  0
 31 32  2  0
 32 33  1  0
 33 34  2  0
 34 35  1  0
 35 36  2  0
 35 37  1  0
 37 38  2  0
 37 39  1  0
  9  4  1  0
 24 19  1  0
 36 31  1  0
 39 17  1  0
M  END
$$$$
