
     RDKit          3D

 39 42  0  0  0  0  0  0  0  0999 V2000
  -22.1486  -41.4946   -4.0231 C   0  0  0  0  0  0  0  0  0  0  0  0
  -22.9248  -41.9673   -5.2448 C   0  0  0  0  0  0  0  0  0  0  0  0
  -24.3918  -41.8984   -4.9567 C   0  0  0  0  0  0  0  0  0  0  0  0
  -22.5199  -41.2439   -6.4642 C   0  0  0  0  0  0  0  0  0  0  0  0
  -21.6074  -40.2019   -6.4276 C   0  0  0  0  0  0  0  0  0  0  0  0
  -21.2215  -39.5084   -7.5742 C   0  0  0  0  0  0  0  0  0  0  0  0
  -21.7737  -39.8864   -8.7611 C   0  0  0  0  0  0  0  0  0  0  0  0
  -22.6956  -40.9396   -8.7989 C   0  0  0  0  0  0  0  0  0  0  0  0
  -23.0674  -41.6126   -7.6690 C   0  0  0  0  0  0  0  0  0  0  0  0
  -20.2674  -38.4126   -7.4267 C   0  0  0  0  0  0  0  0  0  0  0  0
  -19.7056  -38.1413   -8.8338 C   0  0  0  0  0  0  0  0  0  0  0  0
  -21.0118  -37.1677   -6.9261 C   0  0  0  0  0  0  0  0  0  0  0  0
  -19.1228  -38.6533   -6.5958 N   0  0  0  0  0  0  0  0  0  0  0  0
  -17.9718  -37.8941   -6.9391 C   0  0  0  0  0  0  0  0  0  0  0  0
  -17.2671  -38.2375   -8.2013 C   0  0  1  0  0  0  0  0  0  0  0  0
  -15.9487  -37.6793   -8.1421 O   0  0  0  0  0  0  0  0  0  0  0  0
  -17.1909  -39.6542   -8.6250 C   0  0  2  0  0  0  0  0  0  0  0  0
  -17.1292  -39.8178  -10.1042 C   0  0  0  0  0  0  0  0  0  0  0  0
  -15.7391  -39.5893  -10.6619 C   0  0  0  0  0  0  0  0  0  0  0  0
  -14.6060  -40.3313  -10.5017 C   0  0  0  0  0  0  0  0  0  0  0  0
  -13.4476  -39.8959  -11.1314 C   0  0  0  0  0  0  0  0  0  0  0  0
  -13.4715  -38.7190  -11.9039 C   0  0  0  0  0  0  0  0  0  0  0  0
  -14.5936  -37.9485  -12.0858 C   0  0  0  0  0  0  0  0  0  0  0  0
  -15.7125  -38.4159  -11.4481 C   0  0  0  0  0  0  0  0  0  0  0  0
  -12.1908  -40.4474  -11.1338 O   0  0  0  0  0  0  0  0  0  0  0  0
  -11.5500  -41.6379  -11.2908 C   0  0  0  0  0  0  0  0  0  0  0  0
  -12.4614  -42.8633  -11.1321 C   0  0  0  0  0  0  0  0  0  0  0  0
  -12.5055  -43.2668   -9.6974 C   0  0  0  0  0  0  0  0  0  0  0  0
  -13.7903  -43.9124   -9.2456 C   0  0  0  0  0  0  0  0  0  0  0  0
  -14.6980  -44.1963  -10.3006 N   0  0  0  0  0  0  0  0  0  0  0  0
  -16.0960  -43.9638  -10.1099 C   0  0  0  0  0  0  0  0  0  0  0  0
  -16.9643  -44.7612  -10.8680 C   0  0  0  0  0  0  0  0  0  0  0  0
  -18.3208  -44.5924  -10.7473 C   0  0  0  0  0  0  0  0  0  0  0  0
  -18.7631  -43.6306   -9.8721 C   0  0  0  0  0  0  0  0  0  0  0  0
  -17.8820  -42.8513   -9.1315 C   0  0  0  0  0  0  0  0  0  0  0  0
  -16.5813  -43.0497   -9.2798 N   0  0  0  0  0  0  0  0  0  0  0  0
  -18.4448  -41.8430   -8.2120 C   0  0  0  0  0  0  0  0  0  0  0  0
  -19.5471  -42.2179   -7.6694 O   0  0  0  0  0  0  0  0  0  0  0  0
  -17.9477  -40.5962   -7.8782 N   0  0  0  0  0  0  0  0  0  0  0  0
  1  2  1  0
  2  3  1  0
  2  4  1  0
  4  5  2  0
  5  6  1  0
  6  7  2  0
  7  8  1  0
  8  9  2  0
  6 10  1  0
 10 11  1  0
 10 12  1  0
 10 13  1  0
 13 14  1  0
 14 15  1  0
 15 16  1  1
 15 17  1  0
 17 18  1  6
 18 19  1  0
 19 20  2  0
 20 21  1  0
 21 22  2  0
 22 23  1  0
 23 24  2  0
 21 25  1  0
 25 26  1  0
 26 27  1  0
 27 28  1  0
 28 29  1  0
 29 30  1  0
 30 31  1  0
 31 32  2  0
 32 33  1  0
 33 34  2  0
 34 35  1  0
 35 36  2  0
 35 37  1  0
 37 38  2  0
 37 39  1  0
  9  4  1  0
 24 19  1  0
 36 31  1  0
 39 17  1  0
M  END
$$$$
