
     RDKit          3D

 39 42  0  0  0  0  0  0  0  0999 V2000
  -21.7017  -43.2501   -8.2217 C   0  0  0  0  0  0  0  0  0  0  0  0
  -22.1961  -42.9544   -6.8122 C   0  0  0  0  0  0  0  0  0  0  0  0
  -21.6847  -44.0055   -5.8774 C   0  0  0  0  0  0  0  0  0  0  0  0
  -21.8745  -41.5766   -6.3970 C   0  0  0  0  0  0  0  0  0  0  0  0
  -21.6248  -40.5739   -7.3200 C   0  0  0  0  0  0  0  0  0  0  0  0
  -21.3152  -39.2691   -6.9377 C   0  0  0  0  0  0  0  0  0  0  0  0
  -21.2625  -38.9936   -5.6043 C   0  0  0  0  0  0  0  0  0  0  0  0
  -21.5151  -40.0063   -4.6710 C   0  0  0  0  0  0  0  0  0  0  0  0
  -21.8173  -41.2823   -5.0563 C   0  0  0  0  0  0  0  0  0  0  0  0
  -21.0498  -38.2895   -7.9878 C   0  0  0  0  0  0  0  0  0  0  0  0
  -21.9294  -38.6947   -9.1841 C   0  0  0  0  0  0  0  0  0  0  0  0
  -21.4724  -36.9004   -7.4915 C   0  0  0  0  0  0  0  0  0  0  0  0
  -19.7104  -38.2291   -8.4985 N   0  0  0  0  0  0  0  0  0  0  0  0
  -18.6948  -38.3321   -7.5101 C   0  0  0  0  0  0  0  0  0  0  0  0
  -17.3179  -38.6581   -7.9636 C   0  0  1  0  0  0  0  0  0  0  0  0
  -16.3957  -38.1424   -6.9957 O   0  0  0  0  0  0  0  0  0  0  0  0
  -16.9746  -40.0630   -8.2813 C   0  0  2  0  0  0  0  0  0  0  0  0
  -16.8062  -40.3061   -9.7412 C   0  0  0  0  0  0  0  0  0  0  0  0
  -15.4489  -39.8713  -10.2552 C   0  0  0  0  0  0  0  0  0  0  0  0
  -14.2146  -40.3899   -9.9951 C   0  0  0  0  0  0  0  0  0  0  0  0
  -13.1171  -39.7974  -10.6054 C   0  0  0  0  0  0  0  0  0  0  0  0
  -13.3031  -38.6942  -11.4604 C   0  0  0  0  0  0  0  0  0  0  0  0
  -14.5305  -38.1471  -11.7437 C   0  0  0  0  0  0  0  0  0  0  0  0
  -15.5839  -38.7636  -11.1215 C   0  0  0  0  0  0  0  0  0  0  0  0
  -11.7854  -40.1173  -10.5158 O   0  0  0  0  0  0  0  0  0  0  0  0
  -10.9405  -41.1834  -10.5604 C   0  0  0  0  0  0  0  0  0  0  0  0
  -11.6328  -42.5379  -10.3528 C   0  0  0  0  0  0  0  0  0  0  0  0
  -11.6832  -42.8516   -8.8959 C   0  0  0  0  0  0  0  0  0  0  0  0
  -12.8590  -43.6842   -8.4532 C   0  0  0  0  0  0  0  0  0  0  0  0
  -13.6457  -44.1899   -9.5222 N   0  0  0  0  0  0  0  0  0  0  0  0
  -15.0710  -44.1964   -9.4072 C   0  0  0  0  0  0  0  0  0  0  0  0
  -15.7460  -45.1808  -10.1420 C   0  0  0  0  0  0  0  0  0  0  0  0
  -17.1157  -45.2470  -10.0904 C   0  0  0  0  0  0  0  0  0  0  0  0
  -17.7643  -44.3252   -9.3055 C   0  0  0  0  0  0  0  0  0  0  0  0
  -17.0728  -43.3574   -8.5863 C   0  0  0  0  0  0  0  0  0  0  0  0
  -15.7513  -43.3319   -8.6656 N   0  0  0  0  0  0  0  0  0  0  0  0
  -17.8504  -42.4084   -7.7657 C   0  0  0  0  0  0  0  0  0  0  0  0
  -18.8985  -42.9371   -7.2442 O   0  0  0  0  0  0  0  0  0  0  0  0
  -17.5957  -41.0749   -7.5014 N   0  0  0  0  0  0  0  0  0  0  0  0
  1  2  1  0
  2  3  1  0
  2  4  1  0
  4  5  2  0
  5  6  1  0
  6  7  2  0
  7  8  1  0
  8  9  2  0
  6 10  1  0
 10 11  1  0
 10 12  1  0
 10 13  1  0
 13 14  1  0
 14 15  1  0
 15 16  1  1
 15 17  1  0
 17 18  1  6
 18 19  1  0
 19 20  2  0
 20 21  1  0
 21 22  2  0
 22 23  1  0
 23 24  2  0
 21 25  1  0
 25 26  1  0
 26 27  1  0
 27 28  1  0
 28 29  1  0
 29 30  1  0
 30 31  1  0
 31 32  2  0
 32 33  1  0
 33 34  2  0
 34 35  1  0
 35 36  2  0
 35 37  1  0
 37 38  2  0
 37 39  1  0
  9  4  1  0
 24 19  1  0
 36 31  1  0
 39 17  1  0
M  END
$$$$
