
     RDKit          3D

 39 42  0  0  0  0  0  0  0  0999 V2000
  -21.0316  -40.7946   -2.7549 C   0  0  0  0  0  0  0  0  0  0  0  0
  -22.4161  -40.9507   -3.3690 C   0  0  0  0  0  0  0  0  0  0  0  0
  -23.3257  -39.9001   -2.8134 C   0  0  0  0  0  0  0  0  0  0  0  0
  -22.3618  -40.9769   -4.8423 C   0  0  0  0  0  0  0  0  0  0  0  0
  -21.4501  -40.2143   -5.5544 C   0  0  0  0  0  0  0  0  0  0  0  0
  -21.3937  -40.2283   -6.9476 C   0  0  0  0  0  0  0  0  0  0  0  0
  -22.2754  -41.0279   -7.6108 C   0  0  0  0  0  0  0  0  0  0  0  0
  -23.1966  -41.7991   -6.8920 C   0  0  0  0  0  0  0  0  0  0  0  0
  -23.2439  -41.7778   -5.5262 C   0  0  0  0  0  0  0  0  0  0  0  0
  -20.4087  -39.3734   -7.6046 C   0  0  0  0  0  0  0  0  0  0  0  0
  -20.3001  -39.8804   -9.0539 C   0  0  0  0  0  0  0  0  0  0  0  0
  -20.9256  -37.9286   -7.6072 C   0  0  0  0  0  0  0  0  0  0  0  0
  -19.0714  -39.4032   -7.0858 N   0  0  0  0  0  0  0  0  0  0  0  0
  -18.4141  -38.1435   -7.0707 C   0  0  0  0  0  0  0  0  0  0  0  0
  -16.9923  -38.0993   -7.4999 C   0  0  1  0  0  0  0  0  0  0  0  0
  -16.1787  -37.9359   -6.3318 O   0  0  0  0  0  0  0  0  0  0  0  0
  -16.4539  -39.1980   -8.3337 C   0  0  2  0  0  0  0  0  0  0  0  0
  -16.8987  -39.1242   -9.7534 C   0  0  0  0  0  0  0  0  0  0  0  0
  -16.0969  -38.1297  -10.5681 C   0  0  0  0  0  0  0  0  0  0  0  0
  -14.7879  -38.1732  -10.9484 C   0  0  0  0  0  0  0  0  0  0  0  0
  -14.2938  -37.1187  -11.7047 C   0  0  0  0  0  0  0  0  0  0  0  0
  -15.1414  -36.0494  -12.0518 C   0  0  0  0  0  0  0  0  0  0  0  0
  -16.4629  -35.9736  -11.6858 C   0  0  0  0  0  0  0  0  0  0  0  0
  -16.9076  -37.0350  -10.9423 C   0  0  0  0  0  0  0  0  0  0  0  0
  -13.0336  -36.9171  -12.2098 O   0  0  0  0  0  0  0  0  0  0  0  0
  -12.0403  -37.5594  -12.8830 C   0  0  0  0  0  0  0  0  0  0  0  0
  -12.1597  -39.0899  -12.8615 C   0  0  0  0  0  0  0  0  0  0  0  0
  -11.4616  -39.6255  -11.6576 C   0  0  0  0  0  0  0  0  0  0  0  0
  -12.0309  -40.9018  -11.0934 C   0  0  0  0  0  0  0  0  0  0  0  0
  -13.0389  -41.4930  -11.9008 N   0  0  0  0  0  0  0  0  0  0  0  0
  -14.1963  -42.0600  -11.2814 C   0  0  0  0  0  0  0  0  0  0  0  0
  -14.8266  -43.0976  -11.9819 C   0  0  0  0  0  0  0  0  0  0  0  0
  -15.9486  -43.6878  -11.4567 C   0  0  0  0  0  0  0  0  0  0  0  0
  -16.4029  -43.2194  -10.2481 C   0  0  0  0  0  0  0  0  0  0  0  0
  -15.7609  -42.1882   -9.5724 C   0  0  0  0  0  0  0  0  0  0  0  0
  -14.6809  -41.6490  -10.1167 N   0  0  0  0  0  0  0  0  0  0  0  0
  -16.3162  -41.7498   -8.2770 C   0  0  0  0  0  0  0  0  0  0  0  0
  -16.8259  -42.7132   -7.5972 O   0  0  0  0  0  0  0  0  0  0  0  0
  -16.3508  -40.4798   -7.7302 N   0  0  0  0  0  0  0  0  0  0  0  0
  1  2  1  0
  2  3  1  0
  2  4  1  0
  4  5  2  0
  5  6  1  0
  6  7  2  0
  7  8  1  0
  8  9  2  0
  6 10  1  0
 10 11  1  0
 10 12  1  0
 10 13  1  0
 13 14  1  0
 14 15  1  0
 15 16  1  1
 15 17  1  0
 17 18  1  6
 18 19  1  0
 19 20  2  0
 20 21  1  0
 21 22  2  0
 22 23  1  0
 23 24  2  0
 21 25  1  0
 25 26  1  0
 26 27  1  0
 27 28  1  0
 28 29  1  0
 29 30  1  0
 30 31  1  0
 31 32  2  0
 32 33  1  0
 33 34  2  0
 34 35  1  0
 35 36  2  0
 35 37  1  0
 37 38  2  0
 37 39  1  0
  9  4  1  0
 24 19  1  0
 36 31  1  0
 39 17  1  0
M  END
$$$$
