
     RDKit          3D

 39 42  0  0  0  0  0  0  0  0999 V2000
  -23.3980  -37.5189   -8.7060 C   0  0  0  0  0  0  0  0  0  0  0  0
  -22.2991  -38.1738   -9.5319 C   0  0  0  0  0  0  0  0  0  0  0  0
  -21.3539  -37.1218  -10.0215 C   0  0  0  0  0  0  0  0  0  0  0  0
  -21.6439  -39.2724   -8.7984 C   0  0  0  0  0  0  0  0  0  0  0  0
  -20.9712  -39.0571   -7.6064 C   0  0  0  0  0  0  0  0  0  0  0  0
  -20.3443  -40.0882   -6.9076 C   0  0  0  0  0  0  0  0  0  0  0  0
  -20.4092  -41.3433   -7.4340 C   0  0  0  0  0  0  0  0  0  0  0  0
  -21.0891  -41.5617   -8.6383 C   0  0  0  0  0  0  0  0  0  0  0  0
  -21.6999  -40.5438   -9.3157 C   0  0  0  0  0  0  0  0  0  0  0  0
  -19.6449  -39.7542   -5.6698 C   0  0  0  0  0  0  0  0  0  0  0  0
  -20.0088  -38.2925   -5.3531 C   0  0  0  0  0  0  0  0  0  0  0  0
  -20.1599  -40.6630   -4.5458 C   0  0  0  0  0  0  0  0  0  0  0  0
  -18.2111  -39.7953   -5.7006 N   0  0  0  0  0  0  0  0  0  0  0  0
  -17.5856  -38.5281   -5.8492 C   0  0  0  0  0  0  0  0  0  0  0  0
  -16.8220  -38.2751   -7.0983 C   0  0  1  0  0  0  0  0  0  0  0  0
  -15.5082  -37.8327   -6.7361 O   0  0  0  0  0  0  0  0  0  0  0  0
  -16.7252  -39.3457   -8.1165 C   0  0  2  0  0  0  0  0  0  0  0  0
  -17.3985  -38.9943   -9.3979 C   0  0  0  0  0  0  0  0  0  0  0  0
  -16.5520  -38.0978  -10.2783 C   0  0  0  0  0  0  0  0  0  0  0  0
  -15.3858  -38.3713  -10.9304 C   0  0  0  0  0  0  0  0  0  0  0  0
  -14.8074  -37.3583  -11.6836 C   0  0  0  0  0  0  0  0  0  0  0  0
  -15.4276  -36.0961  -11.7518 C   0  0  0  0  0  0  0  0  0  0  0  0
  -16.6007  -35.7868  -11.1083 C   0  0  0  0  0  0  0  0  0  0  0  0
  -17.1361  -36.8154  -10.3787 C   0  0  0  0  0  0  0  0  0  0  0  0
  -13.6532  -37.3678  -12.4264 O   0  0  0  0  0  0  0  0  0  0  0  0
  -12.9847  -38.1152  -13.3467 C   0  0  0  0  0  0  0  0  0  0  0  0
  -13.4566  -39.5739  -13.4283 C   0  0  0  0  0  0  0  0  0  0  0  0
  -12.6917  -40.3987  -12.4495 C   0  0  0  0  0  0  0  0  0  0  0  0
  -13.4304  -41.5854  -11.8860 C   0  0  0  0  0  0  0  0  0  0  0  0
  -14.6828  -41.8364  -12.5072 N   0  0  0  0  0  0  0  0  0  0  0  0
  -15.8039  -42.2174  -11.7055 C   0  0  0  0  0  0  0  0  0  0  0  0
  -16.7818  -42.9955  -12.3403 C   0  0  0  0  0  0  0  0  0  0  0  0
  -17.8924  -43.3943  -11.6399 C   0  0  0  0  0  0  0  0  0  0  0  0
  -17.9876  -43.0005  -10.3275 C   0  0  0  0  0  0  0  0  0  0  0  0
  -17.0047  -42.2280   -9.7199 C   0  0  0  0  0  0  0  0  0  0  0  0
  -15.9499  -41.8670  -10.4343 N   0  0  0  0  0  0  0  0  0  0  0  0
  -17.1870  -41.8528   -8.3040 C   0  0  0  0  0  0  0  0  0  0  0  0
  -17.7732  -42.7644   -7.6144 O   0  0  0  0  0  0  0  0  0  0  0  0
  -16.8169  -40.6872   -7.6581 N   0  0  0  0  0  0  0  0  0  0  0  0
  1  2  1  0
  2  3  1  0
  2  4  1  0
  4  5  2  0
  5  6  1  0
  6  7  2  0
  7  8  1  0
  8  9  2  0
  6 10  1  0
 10 11  1  0
 10 12  1  0
 10 13  1  0
 13 14  1  0
 14 15  1  0
 15 16  1  1
 15 17  1  0
 17 18  1  6
 18 19  1  0
 19 20  2  0
 20 21  1  0
 21 22  2  0
 22 23  1  0
 23 24  2  0
 21 25  1  0
 25 26  1  0
 26 27  1  0
 27 28  1  0
 28 29  1  0
 29 30  1  0
 30 31  1  0
 31 32  2  0
 32 33  1  0
 33 34  2  0
 34 35  1  0
 35 36  2  0
 35 37  1  0
 37 38  2  0
 37 39  1  0
  9  4  1  0
 24 19  1  0
 36 31  1  0
 39 17  1  0
M  END
$$$$
