
     RDKit          3D

 39 42  0  0  0  0  0  0  0  0999 V2000
  -13.4676  -35.3030  -11.9952 C   0  0  0  0  0  0  0  0  0  0  0  0
  -12.3470  -36.3182  -12.1747 C   0  0  0  0  0  0  0  0  0  0  0  0
  -11.2425  -36.0120  -11.2123 C   0  0  0  0  0  0  0  0  0  0  0  0
  -12.8451  -37.7036  -12.0929 C   0  0  0  0  0  0  0  0  0  0  0  0
  -13.1542  -38.2994  -10.8807 C   0  0  0  0  0  0  0  0  0  0  0  0
  -13.6213  -39.6102  -10.7921 C   0  0  0  0  0  0  0  0  0  0  0  0
  -13.7718  -40.3105  -11.9513 C   0  0  0  0  0  0  0  0  0  0  0  0
  -13.4600  -39.7090  -13.1765 C   0  0  0  0  0  0  0  0  0  0  0  0
  -13.0023  -38.4234  -13.2523 C   0  0  0  0  0  0  0  0  0  0  0  0
  -13.9005  -40.1527   -9.4652 C   0  0  0  0  0  0  0  0  0  0  0  0
  -14.4830  -41.5594   -9.6912 C   0  0  0  0  0  0  0  0  0  0  0  0
  -12.5836  -40.2652   -8.6858 C   0  0  0  0  0  0  0  0  0  0  0  0
  -14.8711  -39.4582   -8.6690 N   0  0  0  0  0  0  0  0  0  0  0  0
  -15.9603  -38.9159   -9.4029 C   0  0  0  0  0  0  0  0  0  0  0  0
  -17.2943  -38.8960   -8.7490 C   0  0  1  0  0  0  0  0  0  0  0  0
  -18.1052  -37.9234   -9.4195 O   0  0  0  0  0  0  0  0  0  0  0  0
  -18.0488  -40.1620   -8.6060 C   0  0  2  0  0  0  0  0  0  0  0  0
  -18.8821  -40.2079   -7.3722 C   0  0  0  0  0  0  0  0  0  0  0  0
  -20.1909  -39.4591   -7.5206 C   0  0  0  0  0  0  0  0  0  0  0  0
  -21.2730  -39.7472   -8.2991 C   0  0  0  0  0  0  0  0  0  0  0  0
  -22.3610  -38.8861   -8.2468 C   0  0  0  0  0  0  0  0  0  0  0  0
  -22.3192  -37.7562   -7.4077 C   0  0  0  0  0  0  0  0  0  0  0  0
  -21.2467  -37.4366   -6.6116 C   0  0  0  0  0  0  0  0  0  0  0  0
  -20.1974  -38.3135   -6.6941 C   0  0  0  0  0  0  0  0  0  0  0  0
  -23.5570  -38.9428   -8.9178 O   0  0  0  0  0  0  0  0  0  0  0  0
  -24.5547  -39.8086   -9.2457 C   0  0  0  0  0  0  0  0  0  0  0  0
  -24.1666  -41.2880   -9.1118 C   0  0  0  0  0  0  0  0  0  0  0  0
  -23.5634  -41.7608  -10.3909 C   0  0  0  0  0  0  0  0  0  0  0  0
  -22.5338  -42.8532  -10.2563 C   0  0  0  0  0  0  0  0  0  0  0  0
  -22.4236  -43.3868   -8.9446 N   0  0  0  0  0  0  0  0  0  0  0  0
  -21.1313  -43.6887   -8.4123 C   0  0  0  0  0  0  0  0  0  0  0  0
  -21.0822  -44.7024   -7.4456 C   0  0  0  0  0  0  0  0  0  0  0  0
  -19.8793  -45.0446   -6.8809 C   0  0  0  0  0  0  0  0  0  0  0  0
  -18.7654  -44.3603   -7.3020 C   0  0  0  0  0  0  0  0  0  0  0  0
  -18.8393  -43.3577   -8.2620 C   0  0  0  0  0  0  0  0  0  0  0  0
  -20.0214  -43.0617   -8.7802 N   0  0  0  0  0  0  0  0  0  0  0  0
  -17.5913  -42.6763   -8.6579 C   0  0  0  0  0  0  0  0  0  0  0  0
  -16.5703  -43.4558   -8.6533 O   0  0  0  0  0  0  0  0  0  0  0  0
  -17.3980  -41.3553   -9.0191 N   0  0  0  0  0  0  0  0  0  0  0  0
  1  2  1  0
  2  3  1  0
  2  4  1  0
  4  5  2  0
  5  6  1  0
  6  7  2  0
  7  8  1  0
  8  9  2  0
  6 10  1  0
 10 11  1  0
 10 12  1  0
 10 13  1  0
 13 14  1  0
 14 15  1  0
 15 16  1  6
 15 17  1  0
 17 18  1  1
 18 19  1  0
 19 20  2  0
 20 21  1  0
 21 22  2  0
 22 23  1  0
 23 24  2  0
 21 25  1  0
 25 26  1  0
 26 27  1  0
 27 28  1  0
 28 29  1  0
 29 30  1  0
 30 31  1  0
 31 32  2  0
 32 33  1  0
 33 34  2  0
 34 35  1  0
 35 36  2  0
 35 37  1  0
 37 38  2  0
 37 39  1  0
  9  4  1  0
 24 19  1  0
 36 31  1  0
 39 17  1  0
M  END
$$$$
