
     RDKit          3D

 39 42  0  0  0  0  0  0  0  0999 V2000
  -22.6594  -39.7455  -11.3240 C   0  0  0  0  0  0  0  0  0  0  0  0
  -23.1273  -39.1912   -9.9852 C   0  0  0  0  0  0  0  0  0  0  0  0
  -23.8661  -40.2574   -9.2388 C   0  0  0  0  0  0  0  0  0  0  0  0
  -22.0176  -38.5877   -9.2246 C   0  0  0  0  0  0  0  0  0  0  0  0
  -21.1270  -39.3582   -8.4946 C   0  0  0  0  0  0  0  0  0  0  0  0
  -20.0773  -38.7969   -7.7682 C   0  0  0  0  0  0  0  0  0  0  0  0
  -19.9418  -37.4413   -7.7922 C   0  0  0  0  0  0  0  0  0  0  0  0
  -20.8412  -36.6622   -8.5301 C   0  0  0  0  0  0  0  0  0  0  0  0
  -21.8671  -37.2223   -9.2384 C   0  0  0  0  0  0  0  0  0  0  0  0
  -19.2047  -39.6942   -7.0157 C   0  0  0  0  0  0  0  0  0  0  0  0
  -20.1338  -40.6559   -6.2533 C   0  0  0  0  0  0  0  0  0  0  0  0
  -18.3420  -40.4930   -8.0016 C   0  0  0  0  0  0  0  0  0  0  0  0
  -18.3645  -39.0989   -6.0167 N   0  0  0  0  0  0  0  0  0  0  0  0
  -17.1695  -38.5166   -6.5186 C   0  0  0  0  0  0  0  0  0  0  0  0
  -16.8346  -38.7460   -7.9478 C   0  0  1  0  0  0  0  0  0  0  0  0
  -15.8040  -37.8221   -8.3184 O   0  0  0  0  0  0  0  0  0  0  0  0
  -16.4677  -40.1090   -8.3951 C   0  0  2  0  0  0  0  0  0  0  0  0
  -16.2277  -40.1961   -9.8626 C   0  0  0  0  0  0  0  0  0  0  0  0
  -14.8500  -39.7078  -10.2614 C   0  0  0  0  0  0  0  0  0  0  0  0
  -13.6264  -40.2497   -9.9981 C   0  0  0  0  0  0  0  0  0  0  0  0
  -12.5046  -39.5946  -10.4884 C   0  0  0  0  0  0  0  0  0  0  0  0
  -12.6562  -38.4075  -11.2301 C   0  0  0  0  0  0  0  0  0  0  0  0
  -13.8719  -37.8348  -11.5133 C   0  0  0  0  0  0  0  0  0  0  0  0
  -14.9502  -38.5149  -11.0114 C   0  0  0  0  0  0  0  0  0  0  0  0
  -11.1768  -39.9207  -10.3687 O   0  0  0  0  0  0  0  0  0  0  0  0
  -10.3240  -40.9752  -10.4846 C   0  0  0  0  0  0  0  0  0  0  0  0
  -11.0170  -42.3449  -10.4550 C   0  0  0  0  0  0  0  0  0  0  0  0
  -11.1355  -42.8110   -9.0435 C   0  0  0  0  0  0  0  0  0  0  0  0
  -12.3260  -43.6870   -8.7488 C   0  0  0  0  0  0  0  0  0  0  0  0
  -13.0573  -44.0778   -9.9020 N   0  0  0  0  0  0  0  0  0  0  0  0
  -14.4863  -44.0979   -9.8576 C   0  0  0  0  0  0  0  0  0  0  0  0
  -15.1190  -44.9999  -10.7241 C   0  0  0  0  0  0  0  0  0  0  0  0
  -16.4892  -45.0727  -10.7463 C   0  0  0  0  0  0  0  0  0  0  0  0
  -17.1806  -44.2398   -9.9008 C   0  0  0  0  0  0  0  0  0  0  0  0
  -16.5305  -43.3527   -9.0507 C   0  0  0  0  0  0  0  0  0  0  0  0
  -15.2069  -43.3175   -9.0627 N   0  0  0  0  0  0  0  0  0  0  0  0
  -17.3526  -42.4968   -8.1731 C   0  0  0  0  0  0  0  0  0  0  0  0
  -18.4212  -43.0788   -7.7618 O   0  0  0  0  0  0  0  0  0  0  0  0
  -17.1192  -41.1984   -7.7574 N   0  0  0  0  0  0  0  0  0  0  0  0
  1  2  1  0
  2  3  1  0
  2  4  1  0
  4  5  2  0
  5  6  1  0
  6  7  2  0
  7  8  1  0
  8  9  2  0
  6 10  1  0
 10 11  1  0
 10 12  1  0
 10 13  1  0
 13 14  1  0
 14 15  1  0
 15 16  1  1
 15 17  1  0
 17 18  1  6
 18 19  1  0
 19 20  2  0
 20 21  1  0
 21 22  2  0
 22 23  1  0
 23 24  2  0
 21 25  1  0
 25 26  1  0
 26 27  1  0
 27 28  1  0
 28 29  1  0
 29 30  1  0
 30 31  1  0
 31 32  2  0
 32 33  1  0
 33 34  2  0
 34 35  1  0
 35 36  2  0
 35 37  1  0
 37 38  2  0
 37 39  1  0
  9  4  1  0
 24 19  1  0
 36 31  1  0
 39 17  1  0
M  END
$$$$
