
     RDKit          3D

 39 42  0  0  0  0  0  0  0  0999 V2000
  -15.2963  -35.3334  -10.2888 C   0  0  0  0  0  0  0  0  0  0  0  0
  -14.1425  -35.6624  -11.2263 C   0  0  0  0  0  0  0  0  0  0  0  0
  -12.9043  -34.9697  -10.7499 C   0  0  0  0  0  0  0  0  0  0  0  0
  -13.9822  -37.1169  -11.4077 C   0  0  0  0  0  0  0  0  0  0  0  0
  -13.6938  -37.9591  -10.3460 C   0  0  0  0  0  0  0  0  0  0  0  0
  -13.5355  -39.3351  -10.5078 C   0  0  0  0  0  0  0  0  0  0  0  0
  -13.6745  -39.8471  -11.7628 C   0  0  0  0  0  0  0  0  0  0  0  0
  -13.9663  -38.9967  -12.8361 C   0  0  0  0  0  0  0  0  0  0  0  0
  -14.1190  -37.6491  -12.6668 C   0  0  0  0  0  0  0  0  0  0  0  0
  -13.2137  -40.1337   -9.3282 C   0  0  0  0  0  0  0  0  0  0  0  0
  -12.9260  -41.5567   -9.8396 C   0  0  0  0  0  0  0  0  0  0  0  0
  -11.9505  -39.5633   -8.6698 C   0  0  0  0  0  0  0  0  0  0  0  0
  -14.2440  -40.2812   -8.3408 N   0  0  0  0  0  0  0  0  0  0  0  0
  -14.8333  -39.0609   -7.9133 C   0  0  0  0  0  0  0  0  0  0  0  0
  -16.3134  -38.9470   -7.9771 C   0  0  1  0  0  0  0  0  0  0  0  0
  -16.6418  -37.9331   -8.9349 O   0  0  0  0  0  0  0  0  0  0  0  0
  -17.1217  -40.1600   -8.2371 C   0  0  2  0  0  0  0  0  0  0  0  0
  -18.0390  -40.5011   -7.1142 C   0  0  0  0  0  0  0  0  0  0  0  0
  -19.3062  -39.6706   -7.1194 C   0  0  0  0  0  0  0  0  0  0  0  0
  -20.3421  -39.6720   -8.0067 C   0  0  0  0  0  0  0  0  0  0  0  0
  -21.3989  -38.8015   -7.7758 C   0  0  0  0  0  0  0  0  0  0  0  0
  -21.3735  -37.9528   -6.6527 C   0  0  0  0  0  0  0  0  0  0  0  0
  -20.3474  -37.9254   -5.7403 C   0  0  0  0  0  0  0  0  0  0  0  0
  -19.3276  -38.8007   -6.0066 C   0  0  0  0  0  0  0  0  0  0  0  0
  -22.5472  -38.6047   -8.5015 O   0  0  0  0  0  0  0  0  0  0  0  0
  -23.5509  -39.2900   -9.1141 C   0  0  0  0  0  0  0  0  0  0  0  0
  -23.2274  -40.7673   -9.3789 C   0  0  0  0  0  0  0  0  0  0  0  0
  -22.5554  -40.8987  -10.7035 C   0  0  0  0  0  0  0  0  0  0  0  0
  -21.5781  -42.0398  -10.8233 C   0  0  0  0  0  0  0  0  0  0  0  0
  -21.5779  -42.9216   -9.7098 N   0  0  0  0  0  0  0  0  0  0  0  0
  -20.3372  -43.4291   -9.2122 C   0  0  0  0  0  0  0  0  0  0  0  0
  -20.3919  -44.6723   -8.5673 C   0  0  0  0  0  0  0  0  0  0  0  0
  -19.2440  -45.2226   -8.0549 C   0  0  0  0  0  0  0  0  0  0  0  0
  -18.0794  -44.5099   -8.2045 C   0  0  0  0  0  0  0  0  0  0  0  0
  -18.0504  -43.2779   -8.8475 C   0  0  0  0  0  0  0  0  0  0  0  0
  -19.1824  -42.7859   -9.3270 N   0  0  0  0  0  0  0  0  0  0  0  0
  -16.7540  -42.5822   -8.9662 C   0  0  0  0  0  0  0  0  0  0  0  0
  -15.7650  -43.3867   -9.1233 O   0  0  0  0  0  0  0  0  0  0  0  0
  -16.4882  -41.2254   -8.9311 N   0  0  0  0  0  0  0  0  0  0  0  0
  1  2  1  0
  2  3  1  0
  2  4  1  0
  4  5  2  0
  5  6  1  0
  6  7  2  0
  7  8  1  0
  8  9  2  0
  6 10  1  0
 10 11  1  0
 10 12  1  0
 10 13  1  0
 13 14  1  0
 14 15  1  0
 15 16  1  6
 15 17  1  0
 17 18  1  1
 18 19  1  0
 19 20  2  0
 20 21  1  0
 21 22  2  0
 22 23  1  0
 23 24  2  0
 21 25  1  0
 25 26  1  0
 26 27  1  0
 27 28  1  0
 28 29  1  0
 29 30  1  0
 30 31  1  0
 31 32  2  0
 32 33  1  0
 33 34  2  0
 34 35  1  0
 35 36  2  0
 35 37  1  0
 37 38  2  0
 37 39  1  0
  9  4  1  0
 24 19  1  0
 36 31  1  0
 39 17  1  0
M  END
$$$$
