
     RDKit          3D

 39 42  0  0  0  0  0  0  0  0999 V2000
  -10.5784  -35.7410  -12.2699 C   0  0  0  0  0  0  0  0  0  0  0  0
  -11.5460  -35.4667  -11.1266 C   0  0  0  0  0  0  0  0  0  0  0  0
  -11.6481  -33.9897  -10.9078 C   0  0  0  0  0  0  0  0  0  0  0  0
  -12.8451  -36.1317  -11.3374 C   0  0  0  0  0  0  0  0  0  0  0  0
  -13.2740  -37.1720  -10.5290 C   0  0  0  0  0  0  0  0  0  0  0  0
  -14.4984  -37.8105  -10.7229 C   0  0  0  0  0  0  0  0  0  0  0  0
  -15.2841  -37.3791  -11.7491 C   0  0  0  0  0  0  0  0  0  0  0  0
  -14.8514  -36.3277  -12.5662 C   0  0  0  0  0  0  0  0  0  0  0  0
  -13.6491  -35.7088  -12.3678 C   0  0  0  0  0  0  0  0  0  0  0  0
  -14.8503  -38.9095   -9.8278 C   0  0  0  0  0  0  0  0  0  0  0  0
  -16.1656  -39.4982  -10.3685 C   0  0  0  0  0  0  0  0  0  0  0  0
  -13.7495  -39.9766   -9.8923 C   0  0  0  0  0  0  0  0  0  0  0  0
  -15.1136  -38.5746   -8.4578 N   0  0  0  0  0  0  0  0  0  0  0  0
  -16.4339  -38.1149   -8.2040 C   0  0  0  0  0  0  0  0  0  0  0  0
  -17.2410  -38.8492   -7.1956 C   0  0  1  0  0  0  0  0  0  0  0  0
  -18.1868  -37.9341   -6.6290 O   0  0  0  0  0  0  0  0  0  0  0  0
  -17.9304  -40.0985   -7.5912 C   0  0  2  0  0  0  0  0  0  0  0  0
  -18.6310  -40.7621   -6.4565 C   0  0  0  0  0  0  0  0  0  0  0  0
  -19.9744  -40.1330   -6.1485 C   0  0  0  0  0  0  0  0  0  0  0  0
  -21.1193  -40.1229   -6.8897 C   0  0  0  0  0  0  0  0  0  0  0  0
  -22.2268  -39.4671   -6.3688 C   0  0  0  0  0  0  0  0  0  0  0  0
  -22.1405  -38.8386   -5.1119 C   0  0  0  0  0  0  0  0  0  0  0  0
  -21.0047  -38.8293   -4.3400 C   0  0  0  0  0  0  0  0  0  0  0  0
  -19.9381  -39.4886   -4.8919 C   0  0  0  0  0  0  0  0  0  0  0  0
  -23.4823  -39.3089   -6.9005 O   0  0  0  0  0  0  0  0  0  0  0  0
  -24.4761  -40.0091   -7.5125 C   0  0  0  0  0  0  0  0  0  0  0  0
  -24.0229  -41.3537   -8.0987 C   0  0  0  0  0  0  0  0  0  0  0  0
  -23.5368  -41.1487   -9.4934 C   0  0  0  0  0  0  0  0  0  0  0  0
  -22.4597  -42.0991   -9.9499 C   0  0  0  0  0  0  0  0  0  0  0  0
  -22.1967  -43.1569   -9.0393 N   0  0  0  0  0  0  0  0  0  0  0  0
  -20.8466  -43.5636   -8.8016 C   0  0  0  0  0  0  0  0  0  0  0  0
  -20.6622  -44.8972   -8.4117 C   0  0  0  0  0  0  0  0  0  0  0  0
  -19.3962  -45.3614   -8.1570 C   0  0  0  0  0  0  0  0  0  0  0  0
  -18.3568  -44.4750   -8.3004 C   0  0  0  0  0  0  0  0  0  0  0  0
  -18.5649  -43.1564   -8.6877 C   0  0  0  0  0  0  0  0  0  0  0  0
  -19.8037  -42.7526   -8.9238 N   0  0  0  0  0  0  0  0  0  0  0  0
  -17.3894  -42.2735   -8.8202 C   0  0  0  0  0  0  0  0  0  0  0  0
  -16.3457  -42.8878   -9.2483 O   0  0  0  0  0  0  0  0  0  0  0  0
  -17.2823  -40.9211   -8.5510 N   0  0  0  0  0  0  0  0  0  0  0  0
  1  2  1  0
  2  3  1  0
  2  4  1  0
  4  5  2  0
  5  6  1  0
  6  7  2  0
  7  8  1  0
  8  9  2  0
  6 10  1  0
 10 11  1  0
 10 12  1  0
 10 13  1  0
 13 14  1  0
 14 15  1  0
 15 16  1  6
 15 17  1  0
 17 18  1  1
 18 19  1  0
 19 20  2  0
 20 21  1  0
 21 22  2  0
 22 23  1  0
 23 24  2  0
 21 25  1  0
 25 26  1  0
 26 27  1  0
 27 28  1  0
 28 29  1  0
 29 30  1  0
 30 31  1  0
 31 32  2  0
 32 33  1  0
 33 34  2  0
 34 35  1  0
 35 36  2  0
 35 37  1  0
 37 38  2  0
 37 39  1  0
  9  4  1  0
 24 19  1  0
 36 31  1  0
 39 17  1  0
M  END
$$$$
