
     RDKit          3D

 41 44  0  0  0  0  0  0  0  0999 V2000
  -24.1104  -35.6641   -9.0557 C   0  0  0  0  0  0  0  0  0  0  0  0
  -22.9908  -36.4484   -9.2902 O   0  0  0  0  0  0  0  0  0  0  0  0
  -22.6298  -37.5442   -8.4625 C   0  0  0  0  0  0  0  0  0  0  0  0
  -23.5243  -38.5883   -8.4710 C   0  0  0  0  0  0  0  0  0  0  0  0
  -23.1756  -39.6462   -7.6675 C   0  0  0  0  0  0  0  0  0  0  0  0
  -22.0069  -39.6922   -6.8848 C   0  0  0  0  0  0  0  0  0  0  0  0
  -21.9059  -41.0020   -6.1392 C   0  0  0  0  0  0  0  0  0  0  0  0
  -20.7163  -41.8415   -6.4090 C   0  0  2  0  0  0  0  0  0  0  0  0
  -20.9989  -42.8709   -7.3628 N   0  0  0  0  0  0  0  0  0  0  0  0
  -20.4101  -42.9735   -8.6540 C   0  0  0  0  0  0  0  0  0  0  0  0
  -20.9754  -43.9228   -9.3485 O   0  0  0  0  0  0  0  0  0  0  0  0
  -19.3248  -42.2281   -9.2979 C   0  0  0  0  0  0  0  0  0  0  0  0
  -18.4527  -43.1506   -9.9465 C   0  0  0  0  0  0  0  0  0  0  0  0
  -17.3232  -42.7826  -10.6171 C   0  0  0  0  0  0  0  0  0  0  0  0
  -16.4299  -43.7805  -11.2791 C   0  0  0  0  0  0  0  0  0  0  0  0
  -16.9243  -44.1336  -12.5251 O   0  0  0  0  0  0  0  0  0  0  0  0
  -17.0546  -41.4504  -10.6419 C   0  0  0  0  0  0  0  0  0  0  0  0
  -17.8757  -40.4683  -10.0190 C   0  0  0  0  0  0  0  0  0  0  0  0
  -19.0170  -40.8753   -9.3484 C   0  0  0  0  0  0  0  0  0  0  0  0
  -17.2850  -39.1851  -10.2161 N   0  0  0  0  0  0  0  0  0  0  0  0
  -16.9924  -38.1107   -9.2632 C   0  0  0  0  0  0  0  0  0  0  0  0
  -17.5333  -36.7874   -9.6747 C   0  0  0  0  0  0  0  0  0  0  0  0
  -19.0408  -36.7250   -9.6214 C   0  0  0  0  0  0  0  0  0  0  0  0
  -19.4304  -36.0947   -8.3319 C   0  0  0  0  0  0  0  0  0  0  0  0
  -20.7341  -36.3758   -7.8840 O   0  0  0  0  0  0  0  0  0  0  0  0
  -21.4509  -37.5456   -7.6993 C   0  0  0  0  0  0  0  0  0  0  0  0
  -21.1392  -38.6430   -6.8929 C   0  0  0  0  0  0  0  0  0  0  0  0
  -20.1042  -42.4139   -5.1761 C   0  0  2  0  0  0  0  0  0  0  0  0
  -18.9391  -41.6534   -4.8178 O   0  0  0  0  0  0  0  0  0  0  0  0
  -19.7294  -43.8398   -5.1442 C   0  0  0  0  0  0  0  0  0  0  0  0
  -20.7508  -44.7948   -4.8248 N   0  0  0  0  0  0  0  0  0  0  0  0
  -20.2474  -46.1597   -4.8944 C   0  0  0  0  0  0  0  0  0  0  0  0
  -20.7477  -46.9346   -6.0383 C   0  0  0  0  0  0  0  0  0  0  0  0
  -20.4045  -48.2729   -6.2630 C   0  0  0  0  0  0  0  0  0  0  0  0
  -20.8525  -48.9560   -7.3536 C   0  0  0  0  0  0  0  0  0  0  0  0
  -21.6696  -48.3663   -8.2930 C   0  0  0  0  0  0  0  0  0  0  0  0
  -22.0134  -47.0533   -8.0805 C   0  0  0  0  0  0  0  0  0  0  0  0
  -21.5758  -46.3321   -6.9867 C   0  0  0  0  0  0  0  0  0  0  0  0
  -20.4530  -50.3823   -7.5364 C   0  0  0  0  0  0  0  0  0  0  0  0
  -20.2329  -51.0617   -6.2104 C   0  0  0  0  0  0  0  0  0  0  0  0
  -21.5462  -51.0871   -8.3515 C   0  0  0  0  0  0  0  0  0  0  0  0
  1  2  1  0
  2  3  1  0
  3  4  2  0
  4  5  1  0
  5  6  2  0
  6  7  1  0
  8  7  1  1
  8  9  1  0
  9 10  1  0
 10 11  2  0
 10 12  1  0
 12 13  2  0
 13 14  1  0
 14 15  1  0
 15 16  1  0
 14 17  2  0
 17 18  1  0
 18 19  2  0
 18 20  1  0
 20 21  1  0
 21 22  1  0
 22 23  1  0
 23 24  1  0
 24 25  1  0
 25 26  1  0
 26 27  2  0
  8 28  1  0
 28 29  1  6
 28 30  1  0
 30 31  1  0
 31 32  1  0
 32 33  1  0
 33 34  2  0
 34 35  1  0
 35 36  2  0
 36 37  1  0
 37 38  2  0
 35 39  1  0
 39 40  1  0
 39 41  1  0
 19 12  1  0
 26  3  1  0
 27  6  1  0
 38 33  1  0
M  END
$$$$
