
     RDKit          3D

 41 44  0  0  0  0  0  0  0  0999 V2000
  -19.5829  -46.4043   -4.6826 C   0  0  0  0  0  0  0  0  0  0  0  0
  -20.0029  -45.3383   -5.4640 O   0  0  0  0  0  0  0  0  0  0  0  0
  -19.1538  -44.2540   -5.8100 C   0  0  0  0  0  0  0  0  0  0  0  0
  -18.0834  -44.5943   -6.6028 C   0  0  0  0  0  0  0  0  0  0  0  0
  -17.2611  -43.5453   -6.9341 C   0  0  0  0  0  0  0  0  0  0  0  0
  -17.4656  -42.2179   -6.5136 C   0  0  0  0  0  0  0  0  0  0  0  0
  -16.3998  -41.3035   -7.0701 C   0  0  0  0  0  0  0  0  0  0  0  0
  -16.8522  -40.1843   -7.9276 C   0  0  2  0  0  0  0  0  0  0  0  0
  -16.7356  -40.5012   -9.3188 N   0  0  0  0  0  0  0  0  0  0  0  0
  -17.8264  -40.6219  -10.2242 C   0  0  0  0  0  0  0  0  0  0  0  0
  -17.4219  -41.0670  -11.3824 O   0  0  0  0  0  0  0  0  0  0  0  0
  -19.2569  -40.3384  -10.0782 C   0  0  0  0  0  0  0  0  0  0  0  0
  -19.7062  -39.6261  -11.2283 C   0  0  0  0  0  0  0  0  0  0  0  0
  -20.9861  -39.1844  -11.3943 C   0  0  0  0  0  0  0  0  0  0  0  0
  -21.4176  -38.4344  -12.6122 C   0  0  0  0  0  0  0  0  0  0  0  0
  -22.2798  -37.4026  -12.2752 O   0  0  0  0  0  0  0  0  0  0  0  0
  -21.8467  -39.4627  -10.3796 C   0  0  0  0  0  0  0  0  0  0  0  0
  -21.4745  -40.1684   -9.2006 C   0  0  0  0  0  0  0  0  0  0  0  0
  -20.1674  -40.6054   -9.0647 C   0  0  0  0  0  0  0  0  0  0  0  0
  -22.6096  -40.2560   -8.3415 N   0  0  0  0  0  0  0  0  0  0  0  0
  -22.7559  -39.9478   -6.9161 C   0  0  0  0  0  0  0  0  0  0  0  0
  -23.3591  -41.0553   -6.1271 C   0  0  0  0  0  0  0  0  0  0  0  0
  -22.4483  -42.2528   -6.0014 C   0  0  0  0  0  0  0  0  0  0  0  0
  -21.7494  -42.1645   -4.6916 C   0  0  0  0  0  0  0  0  0  0  0  0
  -20.5447  -42.8843   -4.5923 O   0  0  0  0  0  0  0  0  0  0  0  0
  -19.3992  -42.9440   -5.3673 C   0  0  0  0  0  0  0  0  0  0  0  0
  -18.5325  -41.9088   -5.7264 C   0  0  0  0  0  0  0  0  0  0  0  0
  -16.1759  -38.8920   -7.6192 C   0  0  2  0  0  0  0  0  0  0  0  0
  -17.0366  -38.0789   -6.8055 O   0  0  0  0  0  0  0  0  0  0  0  0
  -15.6821  -38.0475   -8.7228 C   0  0  0  0  0  0  0  0  0  0  0  0
  -14.7138  -38.6120   -9.6178 N   0  0  0  0  0  0  0  0  0  0  0  0
  -15.2753  -38.8321  -10.9435 C   0  0  0  0  0  0  0  0  0  0  0  0
  -15.7626  -37.6147  -11.6070 C   0  0  0  0  0  0  0  0  0  0  0  0
  -16.9364  -36.9546  -11.2251 C   0  0  0  0  0  0  0  0  0  0  0  0
  -17.3853  -35.8491  -11.8832 C   0  0  0  0  0  0  0  0  0  0  0  0
  -16.7064  -35.3203  -12.9590 C   0  0  0  0  0  0  0  0  0  0  0  0
  -15.5522  -35.9604  -13.3405 C   0  0  0  0  0  0  0  0  0  0  0  0
  -15.0703  -37.0831  -12.6961 C   0  0  0  0  0  0  0  0  0  0  0  0
  -18.6432  -35.1884  -11.4267 C   0  0  0  0  0  0  0  0  0  0  0  0
  -19.7234  -36.2014  -11.1525 C   0  0  0  0  0  0  0  0  0  0  0  0
  -18.3237  -34.3586  -10.1754 C   0  0  0  0  0  0  0  0  0  0  0  0
  1  2  1  0
  2  3  1  0
  3  4  2  0
  4  5  1  0
  5  6  2  0
  6  7  1  0
  8  7  1  1
  8  9  1  0
  9 10  1  0
 10 11  2  0
 10 12  1  0
 12 13  2  0
 13 14  1  0
 14 15  1  0
 15 16  1  0
 14 17  2  0
 17 18  1  0
 18 19  2  0
 18 20  1  0
 20 21  1  0
 21 22  1  0
 22 23  1  0
 23 24  1  0
 24 25  1  0
 25 26  1  0
 26 27  2  0
  8 28  1  0
 28 29  1  6
 28 30  1  0
 30 31  1  0
 31 32  1  0
 32 33  1  0
 33 34  2  0
 34 35  1  0
 35 36  2  0
 36 37  1  0
 37 38  2  0
 35 39  1  0
 39 40  1  0
 39 41  1  0
 19 12  1  0
 26  3  1  0
 27  6  1  0
 38 33  1  0
M  END
$$$$
