
     RDKit          3D

 41 44  0  0  0  0  0  0  0  0999 V2000
  -24.4673  -43.0880   -8.9212 C   0  0  0  0  0  0  0  0  0  0  0  0
  -23.3596  -42.5629   -9.5699 O   0  0  0  0  0  0  0  0  0  0  0  0
  -22.2937  -41.9248   -8.8823 C   0  0  0  0  0  0  0  0  0  0  0  0
  -21.4546  -42.7788   -8.2065 C   0  0  0  0  0  0  0  0  0  0  0  0
  -20.4259  -42.1601   -7.5391 C   0  0  0  0  0  0  0  0  0  0  0  0
  -20.2174  -40.7684   -7.5249 C   0  0  0  0  0  0  0  0  0  0  0  0
  -18.9876  -40.4135   -6.7228 C   0  0  0  0  0  0  0  0  0  0  0  0
  -17.9049  -39.6936   -7.4315 C   0  0  2  0  0  0  0  0  0  0  0  0
  -16.8707  -40.5839   -7.8642 N   0  0  0  0  0  0  0  0  0  0  0  0
  -16.5346  -40.8489   -9.2211 C   0  0  0  0  0  0  0  0  0  0  0  0
  -15.6590  -41.8131   -9.3032 O   0  0  0  0  0  0  0  0  0  0  0  0
  -16.9844  -40.2440  -10.4780 C   0  0  0  0  0  0  0  0  0  0  0  0
  -15.8502  -40.0075  -11.3084 C   0  0  0  0  0  0  0  0  0  0  0  0
  -15.9206  -39.4252  -12.5401 C   0  0  0  0  0  0  0  0  0  0  0  0
  -14.7073  -39.1878  -13.3788 C   0  0  0  0  0  0  0  0  0  0  0  0
  -14.9824  -39.4155  -14.7182 O   0  0  0  0  0  0  0  0  0  0  0  0
  -17.1637  -39.0671  -12.9575 C   0  0  0  0  0  0  0  0  0  0  0  0
  -18.3435  -39.2698  -12.1870 C   0  0  0  0  0  0  0  0  0  0  0  0
  -18.2373  -39.8662  -10.9416 C   0  0  0  0  0  0  0  0  0  0  0  0
  -19.4581  -38.7526  -12.9111 N   0  0  0  0  0  0  0  0  0  0  0  0
  -20.5341  -37.8494  -12.4931 C   0  0  0  0  0  0  0  0  0  0  0  0
  -21.8960  -38.3718  -12.7854 C   0  0  0  0  0  0  0  0  0  0  0  0
  -22.2650  -39.5631  -11.9347 C   0  0  0  0  0  0  0  0  0  0  0  0
  -23.0757  -39.0760  -10.7868 C   0  0  0  0  0  0  0  0  0  0  0  0
  -23.1046  -39.9167   -9.6591 O   0  0  0  0  0  0  0  0  0  0  0  0
  -22.1247  -40.5307   -8.8981 C   0  0  0  0  0  0  0  0  0  0  0  0
  -21.0653  -39.9450   -8.2007 C   0  0  0  0  0  0  0  0  0  0  0  0
  -17.3360  -38.5605   -6.6474 C   0  0  2  0  0  0  0  0  0  0  0  0
  -18.2226  -37.4322   -6.7167 O   0  0  0  0  0  0  0  0  0  0  0  0
  -15.9769  -38.0752   -6.9513 C   0  0  0  0  0  0  0  0  0  0  0  0
  -14.8799  -38.9732   -6.7339 N   0  0  0  0  0  0  0  0  0  0  0  0
  -14.9093  -39.5384   -5.3920 C   0  0  0  0  0  0  0  0  0  0  0  0
  -14.6986  -38.5603   -4.3157 C   0  0  0  0  0  0  0  0  0  0  0  0
  -15.1268  -37.2302   -4.3979 C   0  0  0  0  0  0  0  0  0  0  0  0
  -14.8838  -36.3344   -3.4003 C   0  0  0  0  0  0  0  0  0  0  0  0
  -14.2051  -36.6906   -2.2556 C   0  0  0  0  0  0  0  0  0  0  0  0
  -13.7820  -37.9946   -2.1648 C   0  0  0  0  0  0  0  0  0  0  0  0
  -14.0108  -38.9271   -3.1579 C   0  0  0  0  0  0  0  0  0  0  0  0
  -15.3680  -34.9303   -3.5461 C   0  0  0  0  0  0  0  0  0  0  0  0
  -15.6521  -34.3086   -2.2041 C   0  0  0  0  0  0  0  0  0  0  0  0
  -14.3071  -34.1337   -4.3184 C   0  0  0  0  0  0  0  0  0  0  0  0
  1  2  1  0
  2  3  1  0
  3  4  2  0
  4  5  1  0
  5  6  2  0
  6  7  1  0
  8  7  1  1
  8  9  1  0
  9 10  1  0
 10 11  2  0
 10 12  1  0
 12 13  2  0
 13 14  1  0
 14 15  1  0
 15 16  1  0
 14 17  2  0
 17 18  1  0
 18 19  2  0
 18 20  1  0
 20 21  1  0
 21 22  1  0
 22 23  1  0
 23 24  1  0
 24 25  1  0
 25 26  1  0
 26 27  2  0
  8 28  1  0
 28 29  1  6
 28 30  1  0
 30 31  1  0
 31 32  1  0
 32 33  1  0
 33 34  2  0
 34 35  1  0
 35 36  2  0
 36 37  1  0
 37 38  2  0
 35 39  1  0
 39 40  1  0
 39 41  1  0
 19 12  1  0
 26  3  1  0
 27  6  1  0
 38 33  1  0
M  END
$$$$
