
     RDKit          3D

 41 44  0  0  0  0  0  0  0  0999 V2000
  -14.6183  -34.6828  -14.3996 C   0  0  0  0  0  0  0  0  0  0  0  0
  -14.1030  -35.7872  -13.7376 O   0  0  0  0  0  0  0  0  0  0  0  0
  -14.6790  -36.3133  -12.5511 C   0  0  0  0  0  0  0  0  0  0  0  0
  -16.0487  -36.4283  -12.5809 C   0  0  0  0  0  0  0  0  0  0  0  0
  -16.6049  -36.9342  -11.4315 C   0  0  0  0  0  0  0  0  0  0  0  0
  -15.8647  -37.3133  -10.2961 C   0  0  0  0  0  0  0  0  0  0  0  0
  -16.7707  -37.8536   -9.2149 C   0  0  0  0  0  0  0  0  0  0  0  0
  -16.5286  -39.2432   -8.7644 C   0  0  2  0  0  0  0  0  0  0  0  0
  -17.4120  -40.1700   -9.4047 N   0  0  0  0  0  0  0  0  0  0  0  0
  -17.0074  -41.2044  -10.2938 C   0  0  0  0  0  0  0  0  0  0  0  0
  -18.0441  -41.7847  -10.8340 O   0  0  0  0  0  0  0  0  0  0  0  0
  -15.6843  -41.7028  -10.6797 C   0  0  0  0  0  0  0  0  0  0  0  0
  -15.7028  -43.1280  -10.6557 C   0  0  0  0  0  0  0  0  0  0  0  0
  -14.6175  -43.9050  -10.9373 C   0  0  0  0  0  0  0  0  0  0  0  0
  -14.6745  -45.3973  -10.8949 C   0  0  0  0  0  0  0  0  0  0  0  0
  -15.5710  -45.8826  -11.8342 O   0  0  0  0  0  0  0  0  0  0  0  0
  -13.4758  -43.2386  -11.2536 C   0  0  0  0  0  0  0  0  0  0  0  0
  -13.3778  -41.8190  -11.2990 C   0  0  0  0  0  0  0  0  0  0  0  0
  -14.4993  -41.0595  -11.0103 C   0  0  0  0  0  0  0  0  0  0  0  0
  -12.0378  -41.4627  -11.6334 N   0  0  0  0  0  0  0  0  0  0  0  0
  -11.1152  -40.5140  -11.0034 C   0  0  0  0  0  0  0  0  0  0  0  0
  -10.5235  -39.5376  -11.9571 C   0  0  0  0  0  0  0  0  0  0  0  0
  -11.5318  -38.5463  -12.4863 C   0  0  0  0  0  0  0  0  0  0  0  0
  -11.4200  -37.3010  -11.6809 C   0  0  0  0  0  0  0  0  0  0  0  0
  -12.5528  -36.4667  -11.6856 O   0  0  0  0  0  0  0  0  0  0  0  0
  -13.8988  -36.6797  -11.4423 C   0  0  0  0  0  0  0  0  0  0  0  0
  -14.5092  -37.1864  -10.2924 C   0  0  0  0  0  0  0  0  0  0  0  0
  -16.5764  -39.4015   -7.2827 C   0  0  2  0  0  0  0  0  0  0  0  0
  -15.4064  -40.1045   -6.8344 O   0  0  0  0  0  0  0  0  0  0  0  0
  -17.7466  -40.0449   -6.6571 C   0  0  0  0  0  0  0  0  0  0  0  0
  -18.9802  -39.3136   -6.6316 N   0  0  0  0  0  0  0  0  0  0  0  0
  -20.0248  -40.0513   -5.9344 C   0  0  0  0  0  0  0  0  0  0  0  0
  -20.9129  -40.8247   -6.8134 C   0  0  0  0  0  0  0  0  0  0  0  0
  -21.7675  -40.2306   -7.7493 C   0  0  0  0  0  0  0  0  0  0  0  0
  -22.6088  -40.9705   -8.5249 C   0  0  0  0  0  0  0  0  0  0  0  0
  -22.6619  -42.3439   -8.4308 C   0  0  0  0  0  0  0  0  0  0  0  0
  -21.8256  -42.9365   -7.5159 C   0  0  0  0  0  0  0  0  0  0  0  0
  -20.9620  -42.2160   -6.7140 C   0  0  0  0  0  0  0  0  0  0  0  0
  -23.4948  -40.2785   -9.5065 C   0  0  0  0  0  0  0  0  0  0  0  0
  -24.4276  -39.3178   -8.8172 C   0  0  0  0  0  0  0  0  0  0  0  0
  -22.6071  -39.5586  -10.5312 C   0  0  0  0  0  0  0  0  0  0  0  0
  1  2  1  0
  2  3  1  0
  3  4  2  0
  4  5  1  0
  5  6  2  0
  6  7  1  0
  8  7  1  1
  8  9  1  0
  9 10  1  0
 10 11  2  0
 10 12  1  0
 12 13  2  0
 13 14  1  0
 14 15  1  0
 15 16  1  0
 14 17  2  0
 17 18  1  0
 18 19  2  0
 18 20  1  0
 20 21  1  0
 21 22  1  0
 22 23  1  0
 23 24  1  0
 24 25  1  0
 25 26  1  0
 26 27  2  0
  8 28  1  0
 28 29  1  6
 28 30  1  0
 30 31  1  0
 31 32  1  0
 32 33  1  0
 33 34  2  0
 34 35  1  0
 35 36  2  0
 36 37  1  0
 37 38  2  0
 35 39  1  0
 39 40  1  0
 39 41  1  0
 19 12  1  0
 26  3  1  0
 27  6  1  0
 38 33  1  0
M  END
$$$$
