
     RDKit          3D

 41 44  0  0  0  0  0  0  0  0999 V2000
  -24.1957  -39.7155   -3.8437 C   0  0  0  0  0  0  0  0  0  0  0  0
  -23.7816  -40.4523   -4.9434 O   0  0  0  0  0  0  0  0  0  0  0  0
  -22.6412  -40.1091   -5.7166 C   0  0  0  0  0  0  0  0  0  0  0  0
  -21.5893  -39.6003   -4.9922 C   0  0  0  0  0  0  0  0  0  0  0  0
  -20.4880  -39.2657   -5.7415 C   0  0  0  0  0  0  0  0  0  0  0  0
  -20.4075  -39.4163   -7.1385 C   0  0  0  0  0  0  0  0  0  0  0  0
  -19.0555  -38.9813   -7.6529 C   0  0  0  0  0  0  0  0  0  0  0  0
  -18.2482  -39.9954   -8.3686 C   0  0  2  0  0  0  0  0  0  0  0  0
  -17.2762  -40.6020   -7.5103 N   0  0  0  0  0  0  0  0  0  0  0  0
  -17.2603  -41.9739   -7.1338 C   0  0  0  0  0  0  0  0  0  0  0  0
  -16.3490  -42.1964   -6.2265 O   0  0  0  0  0  0  0  0  0  0  0  0
  -18.0565  -43.1213   -7.5787 C   0  0  0  0  0  0  0  0  0  0  0  0
  -17.1860  -44.2270   -7.8058 C   0  0  0  0  0  0  0  0  0  0  0  0
  -17.6077  -45.4437   -8.2560 C   0  0  0  0  0  0  0  0  0  0  0  0
  -16.6630  -46.5775   -8.4885 C   0  0  0  0  0  0  0  0  0  0  0  0
  -16.4179  -47.2639   -7.3094 O   0  0  0  0  0  0  0  0  0  0  0  0
  -18.9420  -45.5617   -8.4871 C   0  0  0  0  0  0  0  0  0  0  0  0
  -19.8742  -44.5049   -8.2845 C   0  0  0  0  0  0  0  0  0  0  0  0
  -19.4133  -43.2828   -7.8241 C   0  0  0  0  0  0  0  0  0  0  0  0
  -21.1738  -44.9638   -8.6514 N   0  0  0  0  0  0  0  0  0  0  0  0
  -22.1909  -44.3619   -9.5183 C   0  0  0  0  0  0  0  0  0  0  0  0
  -23.5306  -44.2586   -8.8799 C   0  0  0  0  0  0  0  0  0  0  0  0
  -23.5721  -43.2495   -7.7578 C   0  0  0  0  0  0  0  0  0  0  0  0
  -24.1171  -41.9773   -8.3022 C   0  0  0  0  0  0  0  0  0  0  0  0
  -23.7937  -40.8150   -7.5785 O   0  0  0  0  0  0  0  0  0  0  0  0
  -22.6065  -40.2788   -7.1103 C   0  0  0  0  0  0  0  0  0  0  0  0
  -21.4652  -39.9203   -7.8319 C   0  0  0  0  0  0  0  0  0  0  0  0
  -17.6081  -39.4737   -9.6098 C   0  0  2  0  0  0  0  0  0  0  0  0
  -18.3576  -39.9045  -10.7573 O   0  0  0  0  0  0  0  0  0  0  0  0
  -16.1869  -39.7659   -9.8738 C   0  0  0  0  0  0  0  0  0  0  0  0
  -15.2307  -39.4114   -8.8653 N   0  0  0  0  0  0  0  0  0  0  0  0
  -14.3017  -38.3961   -9.3425 C   0  0  0  0  0  0  0  0  0  0  0  0
  -14.8947  -37.4123  -10.2590 C   0  0  0  0  0  0  0  0  0  0  0  0
  -15.5510  -36.2570   -9.8188 C   0  0  0  0  0  0  0  0  0  0  0  0
  -16.1255  -35.3811  -10.6902 C   0  0  0  0  0  0  0  0  0  0  0  0
  -16.0894  -35.5847  -12.0522 C   0  0  0  0  0  0  0  0  0  0  0  0
  -15.4461  -36.7153  -12.4943 C   0  0  0  0  0  0  0  0  0  0  0  0
  -14.8546  -37.6236  -11.6381 C   0  0  0  0  0  0  0  0  0  0  0  0
  -16.8092  -34.1655  -10.1590 C   0  0  0  0  0  0  0  0  0  0  0  0
  -18.2719  -34.4260   -9.9118 C   0  0  0  0  0  0  0  0  0  0  0  0
  -16.0924  -33.7345   -8.8718 C   0  0  0  0  0  0  0  0  0  0  0  0
  1  2  1  0
  2  3  1  0
  3  4  2  0
  4  5  1  0
  5  6  2  0
  6  7  1  0
  8  7  1  1
  8  9  1  0
  9 10  1  0
 10 11  2  0
 10 12  1  0
 12 13  2  0
 13 14  1  0
 14 15  1  0
 15 16  1  0
 14 17  2  0
 17 18  1  0
 18 19  2  0
 18 20  1  0
 20 21  1  0
 21 22  1  0
 22 23  1  0
 23 24  1  0
 24 25  1  0
 25 26  1  0
 26 27  2  0
  8 28  1  0
 28 29  1  6
 28 30  1  0
 30 31  1  0
 31 32  1  0
 32 33  1  0
 33 34  2  0
 34 35  1  0
 35 36  2  0
 36 37  1  0
 37 38  2  0
 35 39  1  0
 39 40  1  0
 39 41  1  0
 19 12  1  0
 26  3  1  0
 27  6  1  0
 38 33  1  0
M  END
$$$$
