
     RDKit          3D

 41 44  0  0  0  0  0  0  0  0999 V2000
  -17.8508  -38.1307  -14.9090 C   0  0  0  0  0  0  0  0  0  0  0  0
  -17.3985  -38.9868  -13.9159 O   0  0  0  0  0  0  0  0  0  0  0  0
  -17.5685  -38.7203  -12.5316 C   0  0  0  0  0  0  0  0  0  0  0  0
  -18.7472  -38.0900  -12.2096 C   0  0  0  0  0  0  0  0  0  0  0  0
  -18.9090  -37.8299  -10.8708 C   0  0  0  0  0  0  0  0  0  0  0  0
  -17.9664  -38.1656   -9.8812 C   0  0  0  0  0  0  0  0  0  0  0  0
  -18.4569  -37.7675   -8.5091 C   0  0  0  0  0  0  0  0  0  0  0  0
  -18.6028  -38.8467   -7.5058 C   0  0  2  0  0  0  0  0  0  0  0  0
  -19.9557  -39.3052   -7.4128 N   0  0  0  0  0  0  0  0  0  0  0  0
  -20.4013  -40.6128   -7.7531 C   0  0  0  0  0  0  0  0  0  0  0  0
  -21.7036  -40.6859   -7.7102 O   0  0  0  0  0  0  0  0  0  0  0  0
  -19.6740  -41.8309   -8.1212 C   0  0  0  0  0  0  0  0  0  0  0  0
  -20.2284  -42.9332   -7.4073 C   0  0  0  0  0  0  0  0  0  0  0  0
  -19.7589  -44.2105   -7.5014 C   0  0  0  0  0  0  0  0  0  0  0  0
  -20.3629  -45.3392   -6.7312 C   0  0  0  0  0  0  0  0  0  0  0  0
  -21.1290  -46.1455   -7.5587 O   0  0  0  0  0  0  0  0  0  0  0  0
  -18.7015  -44.3948   -8.3355 C   0  0  0  0  0  0  0  0  0  0  0  0
  -18.0933  -43.3460   -9.0817 C   0  0  0  0  0  0  0  0  0  0  0  0
  -18.5961  -42.0609   -8.9654 C   0  0  0  0  0  0  0  0  0  0  0  0
  -17.0008  -43.8853   -9.8233 N   0  0  0  0  0  0  0  0  0  0  0  0
  -15.6117  -43.4339   -9.9440 C   0  0  0  0  0  0  0  0  0  0  0  0
  -15.1562  -43.2817  -11.3520 C   0  0  0  0  0  0  0  0  0  0  0  0
  -15.8247  -42.1317  -12.0662 C   0  0  0  0  0  0  0  0  0  0  0  0
  -14.9106  -40.9600  -12.0089 C   0  0  0  0  0  0  0  0  0  0  0  0
  -15.5186  -39.7023  -12.1754 O   0  0  0  0  0  0  0  0  0  0  0  0
  -16.5995  -39.0757  -11.5792 C   0  0  0  0  0  0  0  0  0  0  0  0
  -16.8058  -38.7872  -10.2280 C   0  0  0  0  0  0  0  0  0  0  0  0
  -18.0730  -38.4802   -6.1613 C   0  0  2  0  0  0  0  0  0  0  0  0
  -16.7248  -38.9579   -6.0270 O   0  0  0  0  0  0  0  0  0  0  0  0
  -18.8107  -38.8902   -4.9520 C   0  0  0  0  0  0  0  0  0  0  0  0
  -19.6521  -37.9172   -4.3174 N   0  0  0  0  0  0  0  0  0  0  0  0
  -20.8794  -37.6988   -5.0707 C   0  0  0  0  0  0  0  0  0  0  0  0
  -21.4650  -38.9181   -5.6452 C   0  0  0  0  0  0  0  0  0  0  0  0
  -21.4133  -40.1635   -5.0083 C   0  0  0  0  0  0  0  0  0  0  0  0
  -21.9312  -41.2857   -5.5821 C   0  0  0  0  0  0  0  0  0  0  0  0
  -22.5355  -41.2542   -6.8197 C   0  0  0  0  0  0  0  0  0  0  0  0
  -22.5925  -40.0360   -7.4522 C   0  0  0  0  0  0  0  0  0  0  0  0
  -22.0767  -38.8801   -6.8992 C   0  0  0  0  0  0  0  0  0  0  0  0
  -21.8470  -42.5844   -4.8516 C   0  0  0  0  0  0  0  0  0  0  0  0
  -20.4194  -42.9342   -4.5229 C   0  0  0  0  0  0  0  0  0  0  0  0
  -22.7036  -42.4784   -3.5822 C   0  0  0  0  0  0  0  0  0  0  0  0
  1  2  1  0
  2  3  1  0
  3  4  2  0
  4  5  1  0
  5  6  2  0
  6  7  1  0
  8  7  1  6
  8  9  1  0
  9 10  1  0
 10 11  2  0
 10 12  1  0
 12 13  2  0
 13 14  1  0
 14 15  1  0
 15 16  1  0
 14 17  2  0
 17 18  1  0
 18 19  2  0
 18 20  1  0
 20 21  1  0
 21 22  1  0
 22 23  1  0
 23 24  1  0
 24 25  1  0
 25 26  1  0
 26 27  2  0
  8 28  1  0
 28 29  1  1
 28 30  1  0
 30 31  1  0
 31 32  1  0
 32 33  1  0
 33 34  2  0
 34 35  1  0
 35 36  2  0
 36 37  1  0
 37 38  2  0
 35 39  1  0
 39 40  1  0
 39 41  1  0
 19 12  1  0
 26  3  1  0
 27  6  1  0
 38 33  1  0
M  END
$$$$
