
     RDKit          3D

 41 44  0  0  0  0  0  0  0  0999 V2000
  -24.1590  -37.4127   -6.1846 C   0  0  0  0  0  0  0  0  0  0  0  0
  -23.5772  -38.6553   -6.3877 O   0  0  0  0  0  0  0  0  0  0  0  0
  -22.3592  -38.8300   -7.0963 C   0  0  0  0  0  0  0  0  0  0  0  0
  -21.2791  -38.1786   -6.5492 C   0  0  0  0  0  0  0  0  0  0  0  0
  -20.1023  -38.3457   -7.2374 C   0  0  0  0  0  0  0  0  0  0  0  0
  -19.9751  -39.1127   -8.4105 C   0  0  0  0  0  0  0  0  0  0  0  0
  -18.5473  -39.1152   -8.9035 C   0  0  0  0  0  0  0  0  0  0  0  0
  -17.8728  -40.4292   -9.0093 C   0  0  2  0  0  0  0  0  0  0  0  0
  -17.0527  -40.6979   -7.8672 N   0  0  0  0  0  0  0  0  0  0  0  0
  -17.2705  -41.7486   -6.9330 C   0  0  0  0  0  0  0  0  0  0  0  0
  -16.4527  -41.6477   -5.9210 O   0  0  0  0  0  0  0  0  0  0  0  0
  -18.2124  -42.8715   -6.9234 C   0  0  0  0  0  0  0  0  0  0  0  0
  -17.5149  -44.0559   -6.5456 C   0  0  0  0  0  0  0  0  0  0  0  0
  -18.0980  -45.2867   -6.4675 C   0  0  0  0  0  0  0  0  0  0  0  0
  -17.3313  -46.5071   -6.0739 C   0  0  0  0  0  0  0  0  0  0  0  0
  -16.1329  -46.5804   -6.7668 O   0  0  0  0  0  0  0  0  0  0  0  0
  -19.4207  -45.3379   -6.7762 C   0  0  0  0  0  0  0  0  0  0  0  0
  -20.1855  -44.2007   -7.1616 C   0  0  0  0  0  0  0  0  0  0  0  0
  -19.5635  -42.9651   -7.2284 C   0  0  0  0  0  0  0  0  0  0  0  0
  -21.5204  -44.6191   -7.4395 N   0  0  0  0  0  0  0  0  0  0  0  0
  -22.3854  -44.3530   -8.5924 C   0  0  0  0  0  0  0  0  0  0  0  0
  -23.7234  -43.8190   -8.2212 C   0  0  0  0  0  0  0  0  0  0  0  0
  -23.6639  -42.4179   -7.6621 C   0  0  0  0  0  0  0  0  0  0  0  0
  -23.9749  -41.4686   -8.7640 C   0  0  0  0  0  0  0  0  0  0  0  0
  -23.5113  -40.1524   -8.5853 O   0  0  0  0  0  0  0  0  0  0  0  0
  -22.2804  -39.6070   -8.2635 C   0  0  0  0  0  0  0  0  0  0  0  0
  -21.0618  -39.7453   -8.9326 C   0  0  0  0  0  0  0  0  0  0  0  0
  -17.0966  -40.5958  -10.2712 C   0  0  2  0  0  0  0  0  0  0  0  0
  -17.0251  -41.9893  -10.6135 O   0  0  0  0  0  0  0  0  0  0  0  0
  -15.7312  -40.0463  -10.3635 C   0  0  0  0  0  0  0  0  0  0  0  0
  -15.2629  -39.2283   -9.2825 N   0  0  0  0  0  0  0  0  0  0  0  0
  -15.8041  -37.8783   -9.3600 C   0  0  0  0  0  0  0  0  0  0  0  0
  -15.8739  -37.3287  -10.7211 C   0  0  0  0  0  0  0  0  0  0  0  0
  -15.6487  -35.9782  -11.0119 C   0  0  0  0  0  0  0  0  0  0  0  0
  -15.7581  -35.4882  -12.2787 C   0  0  0  0  0  0  0  0  0  0  0  0
  -16.0943  -36.2968  -13.3422 C   0  0  0  0  0  0  0  0  0  0  0  0
  -16.3158  -37.6245  -13.0671 C   0  0  0  0  0  0  0  0  0  0  0  0
  -16.2144  -38.1529  -11.7949 C   0  0  0  0  0  0  0  0  0  0  0  0
  -15.5035  -34.0385  -12.5251 C   0  0  0  0  0  0  0  0  0  0  0  0
  -14.3400  -33.8399  -13.4606 C   0  0  0  0  0  0  0  0  0  0  0  0
  -16.7875  -33.4138  -13.0887 C   0  0  0  0  0  0  0  0  0  0  0  0
  1  2  1  0
  2  3  1  0
  3  4  2  0
  4  5  1  0
  5  6  2  0
  6  7  1  0
  8  7  1  1
  8  9  1  0
  9 10  1  0
 10 11  2  0
 10 12  1  0
 12 13  2  0
 13 14  1  0
 14 15  1  0
 15 16  1  0
 14 17  2  0
 17 18  1  0
 18 19  2  0
 18 20  1  0
 20 21  1  0
 21 22  1  0
 22 23  1  0
 23 24  1  0
 24 25  1  0
 25 26  1  0
 26 27  2  0
  8 28  1  0
 28 29  1  1
 28 30  1  0
 30 31  1  0
 31 32  1  0
 32 33  1  0
 33 34  2  0
 34 35  1  0
 35 36  2  0
 36 37  1  0
 37 38  2  0
 35 39  1  0
 39 40  1  0
 39 41  1  0
 19 12  1  0
 26  3  1  0
 27  6  1  0
 38 33  1  0
M  END
$$$$
