
     RDKit          3D

 41 44  0  0  0  0  0  0  0  0999 V2000
  -23.2248  -41.1358   -2.5906 C   0  0  0  0  0  0  0  0  0  0  0  0
  -23.0734  -41.0264   -3.9649 O   0  0  0  0  0  0  0  0  0  0  0  0
  -21.9871  -40.3398   -4.5688 C   0  0  0  0  0  0  0  0  0  0  0  0
  -20.7970  -40.4376   -3.8873 C   0  0  0  0  0  0  0  0  0  0  0  0
  -19.7478  -39.7703   -4.4707 C   0  0  0  0  0  0  0  0  0  0  0  0
  -19.8461  -39.0356   -5.6670 C   0  0  0  0  0  0  0  0  0  0  0  0
  -18.5095  -38.4464   -6.0518 C   0  0  0  0  0  0  0  0  0  0  0  0
  -17.9478  -38.8473   -7.3619 C   0  0  2  0  0  0  0  0  0  0  0  0
  -16.9889  -39.9018   -7.2277 N   0  0  0  0  0  0  0  0  0  0  0  0
  -17.1375  -41.2144   -7.7559 C   0  0  0  0  0  0  0  0  0  0  0  0
  -16.1752  -41.9933   -7.3431 O   0  0  0  0  0  0  0  0  0  0  0  0
  -18.1413  -41.8045   -8.6462 C   0  0  0  0  0  0  0  0  0  0  0  0
  -17.4772  -42.5807   -9.6404 C   0  0  0  0  0  0  0  0  0  0  0  0
  -18.1241  -43.2413  -10.6435 C   0  0  0  0  0  0  0  0  0  0  0  0
  -17.3919  -44.0400  -11.6720 C   0  0  0  0  0  0  0  0  0  0  0  0
  -16.8419  -45.1813  -11.1093 O   0  0  0  0  0  0  0  0  0  0  0  0
  -19.4782  -43.1241  -10.6552 C   0  0  0  0  0  0  0  0  0  0  0  0
  -20.2129  -42.3682   -9.6984 C   0  0  0  0  0  0  0  0  0  0  0  0
  -19.5257  -41.7117   -8.6911 C   0  0  0  0  0  0  0  0  0  0  0  0
  -21.5993  -42.4380  -10.0261 N   0  0  0  0  0  0  0  0  0  0  0  0
  -22.6041  -41.3796  -10.1617 C   0  0  0  0  0  0  0  0  0  0  0  0
  -23.8342  -41.6215   -9.3607 C   0  0  0  0  0  0  0  0  0  0  0  0
  -23.5991  -41.5132   -7.8733 C   0  0  0  0  0  0  0  0  0  0  0  0
  -24.0038  -40.1489   -7.4411 C   0  0  0  0  0  0  0  0  0  0  0  0
  -23.4315  -39.6941   -6.2391 O   0  0  0  0  0  0  0  0  0  0  0  0
  -22.1328  -39.6198   -5.7658 C   0  0  0  0  0  0  0  0  0  0  0  0
  -21.0376  -38.9529   -6.3204 C   0  0  0  0  0  0  0  0  0  0  0  0
  -17.3781  -37.7071   -8.1352 C   0  0  2  0  0  0  0  0  0  0  0  0
  -18.4030  -37.1171   -8.9510 O   0  0  0  0  0  0  0  0  0  0  0  0
  -16.1999  -37.9271   -8.9944 C   0  0  0  0  0  0  0  0  0  0  0  0
  -15.0093  -38.4409   -8.3814 N   0  0  0  0  0  0  0  0  0  0  0  0
  -13.9780  -38.7239   -9.3703 C   0  0  0  0  0  0  0  0  0  0  0  0
  -13.8977  -37.7438  -10.4622 C   0  0  0  0  0  0  0  0  0  0  0  0
  -12.6884  -37.3473  -11.0451 C   0  0  0  0  0  0  0  0  0  0  0  0
  -12.6401  -36.4073  -12.0304 C   0  0  0  0  0  0  0  0  0  0  0  0
  -13.7798  -35.7980  -12.5075 C   0  0  0  0  0  0  0  0  0  0  0  0
  -14.9720  -36.1817  -11.9428 C   0  0  0  0  0  0  0  0  0  0  0  0
  -15.0558  -37.1301  -10.9420 C   0  0  0  0  0  0  0  0  0  0  0  0
  -11.3196  -36.0284  -12.6136 C   0  0  0  0  0  0  0  0  0  0  0  0
  -11.2331  -36.4157  -14.0665 C   0  0  0  0  0  0  0  0  0  0  0  0
  -11.1267  -34.5172  -12.4251 C   0  0  0  0  0  0  0  0  0  0  0  0
  1  2  1  0
  2  3  1  0
  3  4  2  0
  4  5  1  0
  5  6  2  0
  6  7  1  0
  8  7  1  1
  8  9  1  0
  9 10  1  0
 10 11  2  0
 10 12  1  0
 12 13  2  0
 13 14  1  0
 14 15  1  0
 15 16  1  0
 14 17  2  0
 17 18  1  0
 18 19  2  0
 18 20  1  0
 20 21  1  0
 21 22  1  0
 22 23  1  0
 23 24  1  0
 24 25  1  0
 25 26  1  0
 26 27  2  0
  8 28  1  0
 28 29  1  6
 28 30  1  0
 30 31  1  0
 31 32  1  0
 32 33  1  0
 33 34  2  0
 34 35  1  0
 35 36  2  0
 36 37  1  0
 37 38  2  0
 35 39  1  0
 39 40  1  0
 39 41  1  0
 19 12  1  0
 26  3  1  0
 27  6  1  0
 38 33  1  0
M  END
$$$$
