
     RDKit          3D

 41 44  0  0  0  0  0  0  0  0999 V2000
  -16.6287  -35.2478  -14.0156 C   0  0  0  0  0  0  0  0  0  0  0  0
  -15.8868  -36.0592  -13.1701 O   0  0  0  0  0  0  0  0  0  0  0  0
  -16.3803  -36.5315  -11.9253 C   0  0  0  0  0  0  0  0  0  0  0  0
  -17.7488  -36.4930  -11.7992 C   0  0  0  0  0  0  0  0  0  0  0  0
  -18.2247  -36.9471  -10.5935 C   0  0  0  0  0  0  0  0  0  0  0  0
  -17.4081  -37.4193   -9.5491 C   0  0  0  0  0  0  0  0  0  0  0  0
  -18.2408  -37.8678   -8.3714 C   0  0  0  0  0  0  0  0  0  0  0  0
  -18.1064  -39.2809   -7.9496 C   0  0  2  0  0  0  0  0  0  0  0  0
  -19.1546  -40.0961   -8.4844 N   0  0  0  0  0  0  0  0  0  0  0  0
  -18.9715  -41.1588   -9.4124 C   0  0  0  0  0  0  0  0  0  0  0  0
  -20.1209  -41.6138   -9.8308 O   0  0  0  0  0  0  0  0  0  0  0  0
  -17.7645  -41.7969   -9.9456 C   0  0  0  0  0  0  0  0  0  0  0  0
  -17.9395  -43.2114   -9.9180 C   0  0  0  0  0  0  0  0  0  0  0  0
  -16.9868  -44.1011  -10.3200 C   0  0  0  0  0  0  0  0  0  0  0  0
  -17.2053  -45.5781  -10.2697 C   0  0  0  0  0  0  0  0  0  0  0  0
  -17.2014  -46.0321   -8.9599 O   0  0  0  0  0  0  0  0  0  0  0  0
  -15.8208  -43.5622  -10.7647 C   0  0  0  0  0  0  0  0  0  0  0  0
  -15.5704  -42.1620  -10.8226 C   0  0  0  0  0  0  0  0  0  0  0  0
  -16.5599  -41.2857  -10.4093 C   0  0  0  0  0  0  0  0  0  0  0  0
  -14.2453  -41.9532  -11.3074 N   0  0  0  0  0  0  0  0  0  0  0  0
  -13.1571  -41.1205  -10.7874 C   0  0  0  0  0  0  0  0  0  0  0  0
  -12.5715  -40.2050  -11.8033 C   0  0  0  0  0  0  0  0  0  0  0  0
  -13.5158  -39.1016  -12.2157 C   0  0  0  0  0  0  0  0  0  0  0  0
  -13.1750  -37.8859  -11.4297 C   0  0  0  0  0  0  0  0  0  0  0  0
  -14.2005  -36.9307  -11.3067 O   0  0  0  0  0  0  0  0  0  0  0  0
  -15.5258  -36.9953  -10.9119 C   0  0  0  0  0  0  0  0  0  0  0  0
  -16.0552  -37.4441   -9.6994 C   0  0  0  0  0  0  0  0  0  0  0  0
  -18.0039  -39.4500   -6.4719 C   0  0  2  0  0  0  0  0  0  0  0  0
  -16.6293  -39.6451   -6.1026 O   0  0  0  0  0  0  0  0  0  0  0  0
  -18.7955  -40.4991   -5.8030 C   0  0  0  0  0  0  0  0  0  0  0  0
  -19.7135  -41.2586   -6.6016 N   0  0  0  0  0  0  0  0  0  0  0  0
  -21.0966  -40.9348   -6.2800 C   0  0  0  0  0  0  0  0  0  0  0  0
  -21.3116  -40.4948   -4.8945 C   0  0  0  0  0  0  0  0  0  0  0  0
  -21.1833  -41.3493   -3.7932 C   0  0  0  0  0  0  0  0  0  0  0  0
  -21.4263  -40.9238   -2.5218 C   0  0  0  0  0  0  0  0  0  0  0  0
  -21.8095  -39.6283   -2.2516 C   0  0  0  0  0  0  0  0  0  0  0  0
  -21.9366  -38.7815   -3.3259 C   0  0  0  0  0  0  0  0  0  0  0  0
  -21.6990  -39.1809   -4.6267 C   0  0  0  0  0  0  0  0  0  0  0  0
  -21.2702  -41.8825   -1.3888 C   0  0  0  0  0  0  0  0  0  0  0  0
  -20.2043  -42.9053   -1.6821 C   0  0  0  0  0  0  0  0  0  0  0  0
  -20.9424  -41.0803   -0.1218 C   0  0  0  0  0  0  0  0  0  0  0  0
  1  2  1  0
  2  3  1  0
  3  4  2  0
  4  5  1  0
  5  6  2  0
  6  7  1  0
  8  7  1  1
  8  9  1  0
  9 10  1  0
 10 11  2  0
 10 12  1  0
 12 13  2  0
 13 14  1  0
 14 15  1  0
 15 16  1  0
 14 17  2  0
 17 18  1  0
 18 19  2  0
 18 20  1  0
 20 21  1  0
 21 22  1  0
 22 23  1  0
 23 24  1  0
 24 25  1  0
 25 26  1  0
 26 27  2  0
  8 28  1  0
 28 29  1  6
 28 30  1  0
 30 31  1  0
 31 32  1  0
 32 33  1  0
 33 34  2  0
 34 35  1  0
 35 36  2  0
 36 37  1  0
 37 38  2  0
 35 39  1  0
 39 40  1  0
 39 41  1  0
 19 12  1  0
 26  3  1  0
 27  6  1  0
 38 33  1  0
M  END
$$$$
