
     RDKit          3D

 41 44  0  0  0  0  0  0  0  0999 V2000
  -23.9091  -39.9557   -3.9761 C   0  0  0  0  0  0  0  0  0  0  0  0
  -23.5411  -40.2186   -5.2873 O   0  0  0  0  0  0  0  0  0  0  0  0
  -22.2695  -39.8723   -5.8156 C   0  0  0  0  0  0  0  0  0  0  0  0
  -21.2240  -40.0165   -4.9346 C   0  0  0  0  0  0  0  0  0  0  0  0
  -19.9949  -39.6781   -5.4458 C   0  0  0  0  0  0  0  0  0  0  0  0
  -19.7852  -39.2168   -6.7588 C   0  0  0  0  0  0  0  0  0  0  0  0
  -18.3190  -38.9581   -7.0139 C   0  0  0  0  0  0  0  0  0  0  0  0
  -17.6797  -39.7239   -8.1082 C   0  0  2  0  0  0  0  0  0  0  0  0
  -16.9765  -40.8687   -7.6140 N   0  0  0  0  0  0  0  0  0  0  0  0
  -17.3121  -42.2212   -7.9007 C   0  0  0  0  0  0  0  0  0  0  0  0
  -16.5877  -43.0408   -7.1889 O   0  0  0  0  0  0  0  0  0  0  0  0
  -18.2861  -42.8151   -8.8210 C   0  0  0  0  0  0  0  0  0  0  0  0
  -17.6640  -43.8898   -9.5210 C   0  0  0  0  0  0  0  0  0  0  0  0
  -18.2904  -44.6358  -10.4760 C   0  0  0  0  0  0  0  0  0  0  0  0
  -17.6021  -45.7511  -11.1932 C   0  0  0  0  0  0  0  0  0  0  0  0
  -16.2841  -45.4206  -11.4676 O   0  0  0  0  0  0  0  0  0  0  0  0
  -19.5803  -44.2991  -10.7413 C   0  0  0  0  0  0  0  0  0  0  0  0
  -20.2701  -43.2404  -10.0856 C   0  0  0  0  0  0  0  0  0  0  0  0
  -19.6058  -42.5040   -9.1190 C   0  0  0  0  0  0  0  0  0  0  0  0
  -21.5866  -43.1471  -10.6265 N   0  0  0  0  0  0  0  0  0  0  0  0
  -22.3334  -41.9911  -11.1306 C   0  0  0  0  0  0  0  0  0  0  0  0
  -23.6822  -41.8427  -10.5208 C   0  0  0  0  0  0  0  0  0  0  0  0
  -23.6298  -41.4528   -9.0632 C   0  0  0  0  0  0  0  0  0  0  0  0
  -23.8084  -39.9791   -8.9739 C   0  0  0  0  0  0  0  0  0  0  0  0
  -23.3217  -39.3748   -7.8003 O   0  0  0  0  0  0  0  0  0  0  0  0
  -22.1087  -39.4174   -7.1345 C   0  0  0  0  0  0  0  0  0  0  0  0
  -20.8389  -39.0807   -7.6100 C   0  0  0  0  0  0  0  0  0  0  0  0
  -16.7968  -38.8921   -8.9749 C   0  0  2  0  0  0  0  0  0  0  0  0
  -17.5965  -37.9795   -9.7442 O   0  0  0  0  0  0  0  0  0  0  0  0
  -15.8592  -39.5506   -9.9035 C   0  0  0  0  0  0  0  0  0  0  0  0
  -14.7656  -40.2888   -9.3411 N   0  0  0  0  0  0  0  0  0  0  0  0
  -13.6273  -39.4254   -9.0577 C   0  0  0  0  0  0  0  0  0  0  0  0
  -13.3009  -38.4777  -10.1322 C   0  0  0  0  0  0  0  0  0  0  0  0
  -13.3234  -37.0889   -9.9585 C   0  0  0  0  0  0  0  0  0  0  0  0
  -13.0536  -36.2324  -10.9834 C   0  0  0  0  0  0  0  0  0  0  0  0
  -12.7420  -36.6877  -12.2457 C   0  0  0  0  0  0  0  0  0  0  0  0
  -12.7159  -38.0495  -12.4258 C   0  0  0  0  0  0  0  0  0  0  0  0
  -12.9853  -38.9447  -11.4090 C   0  0  0  0  0  0  0  0  0  0  0  0
  -13.0917  -34.7614  -10.7346 C   0  0  0  0  0  0  0  0  0  0  0  0
  -11.7500  -34.1287  -10.9953 C   0  0  0  0  0  0  0  0  0  0  0  0
  -14.1811  -34.1507  -11.6272 C   0  0  0  0  0  0  0  0  0  0  0  0
  1  2  1  0
  2  3  1  0
  3  4  2  0
  4  5  1  0
  5  6  2  0
  6  7  1  0
  8  7  1  1
  8  9  1  0
  9 10  1  0
 10 11  2  0
 10 12  1  0
 12 13  2  0
 13 14  1  0
 14 15  1  0
 15 16  1  0
 14 17  2  0
 17 18  1  0
 18 19  2  0
 18 20  1  0
 20 21  1  0
 21 22  1  0
 22 23  1  0
 23 24  1  0
 24 25  1  0
 25 26  1  0
 26 27  2  0
  8 28  1  0
 28 29  1  6
 28 30  1  0
 30 31  1  0
 31 32  1  0
 32 33  1  0
 33 34  2  0
 34 35  1  0
 35 36  2  0
 36 37  1  0
 37 38  2  0
 35 39  1  0
 39 40  1  0
 39 41  1  0
 19 12  1  0
 26  3  1  0
 27  6  1  0
 38 33  1  0
M  END
$$$$
