
     RDKit          3D

 41 44  0  0  0  0  0  0  0  0999 V2000
  -13.3766  -42.0020  -14.9371 C   0  0  0  0  0  0  0  0  0  0  0  0
  -14.1751  -42.5544  -13.9466 O   0  0  0  0  0  0  0  0  0  0  0  0
  -14.5610  -41.8421  -12.7805 C   0  0  0  0  0  0  0  0  0  0  0  0
  -15.3241  -40.7235  -13.0182 C   0  0  0  0  0  0  0  0  0  0  0  0
  -15.6940  -40.0335  -11.8897 C   0  0  0  0  0  0  0  0  0  0  0  0
  -15.3385  -40.4104  -10.5812 C   0  0  0  0  0  0  0  0  0  0  0  0
  -15.9242  -39.4581   -9.5655 C   0  0  0  0  0  0  0  0  0  0  0  0
  -16.8384  -40.0320   -8.5519 C   0  0  2  0  0  0  0  0  0  0  0  0
  -18.2117  -39.8518   -8.9135 N   0  0  0  0  0  0  0  0  0  0  0  0
  -19.1236  -40.9025   -9.2113 C   0  0  0  0  0  0  0  0  0  0  0  0
  -20.2548  -40.4248   -9.6533 O   0  0  0  0  0  0  0  0  0  0  0  0
  -19.0082  -42.3597   -9.1044 C   0  0  0  0  0  0  0  0  0  0  0  0
  -20.1956  -42.8742   -8.5066 C   0  0  0  0  0  0  0  0  0  0  0  0
  -20.3975  -44.1963   -8.2378 C   0  0  0  0  0  0  0  0  0  0  0  0
  -21.6541  -44.6968   -7.6036 C   0  0  0  0  0  0  0  0  0  0  0  0
  -22.7314  -44.5516   -8.4638 O   0  0  0  0  0  0  0  0  0  0  0  0
  -19.3814  -45.0332   -8.5768 C   0  0  0  0  0  0  0  0  0  0  0  0
  -18.1663  -44.5964   -9.1764 C   0  0  0  0  0  0  0  0  0  0  0  0
  -17.9944  -43.2474   -9.4385 C   0  0  0  0  0  0  0  0  0  0  0  0
  -17.3177  -45.7266   -9.3680 N   0  0  0  0  0  0  0  0  0  0  0  0
  -15.9101  -45.9358   -9.0171 C   0  0  0  0  0  0  0  0  0  0  0  0
  -15.0776  -46.4092  -10.1555 C   0  0  0  0  0  0  0  0  0  0  0  0
  -14.8852  -45.3578  -11.2216 C   0  0  0  0  0  0  0  0  0  0  0  0
  -13.5726  -44.6989  -10.9873 C   0  0  0  0  0  0  0  0  0  0  0  0
  -13.4254  -43.4154  -11.5441 O   0  0  0  0  0  0  0  0  0  0  0  0
  -14.1829  -42.2578  -11.4934 C   0  0  0  0  0  0  0  0  0  0  0  0
  -14.5794  -41.5216  -10.3743 C   0  0  0  0  0  0  0  0  0  0  0  0
  -16.5825  -39.5289   -7.1720 C   0  0  2  0  0  0  0  0  0  0  0  0
  -15.1783  -39.6126   -6.8803 O   0  0  0  0  0  0  0  0  0  0  0  0
  -17.3076  -40.1243   -6.0342 C   0  0  0  0  0  0  0  0  0  0  0  0
  -18.5798  -39.5634   -5.6821 N   0  0  0  0  0  0  0  0  0  0  0  0
  -18.6188  -38.1288   -5.9302 C   0  0  0  0  0  0  0  0  0  0  0  0
  -19.0842  -37.7567   -7.2735 C   0  0  0  0  0  0  0  0  0  0  0  0
  -20.4229  -37.4712   -7.5661 C   0  0  0  0  0  0  0  0  0  0  0  0
  -20.8328  -37.1664   -8.8294 C   0  0  0  0  0  0  0  0  0  0  0  0
  -19.9506  -37.1208   -9.8866 C   0  0  0  0  0  0  0  0  0  0  0  0
  -18.6340  -37.3980   -9.6091 C   0  0  0  0  0  0  0  0  0  0  0  0
  -18.1858  -37.7115   -8.3407 C   0  0  0  0  0  0  0  0  0  0  0  0
  -22.2741  -36.8693   -9.0774 C   0  0  0  0  0  0  0  0  0  0  0  0
  -22.4953  -36.3724  -10.4819 C   0  0  0  0  0  0  0  0  0  0  0  0
  -23.0823  -38.1449   -8.8015 C   0  0  0  0  0  0  0  0  0  0  0  0
  1  2  1  0
  2  3  1  0
  3  4  2  0
  4  5  1  0
  5  6  2  0
  6  7  1  0
  8  7  1  6
  8  9  1  0
  9 10  1  0
 10 11  2  0
 10 12  1  0
 12 13  2  0
 13 14  1  0
 14 15  1  0
 15 16  1  0
 14 17  2  0
 17 18  1  0
 18 19  2  0
 18 20  1  0
 20 21  1  0
 21 22  1  0
 22 23  1  0
 23 24  1  0
 24 25  1  0
 25 26  1  0
 26 27  2  0
  8 28  1  0
 28 29  1  1
 28 30  1  0
 30 31  1  0
 31 32  1  0
 32 33  1  0
 33 34  2  0
 34 35  1  0
 35 36  2  0
 36 37  1  0
 37 38  2  0
 35 39  1  0
 39 40  1  0
 39 41  1  0
 19 12  1  0
 26  3  1  0
 27  6  1  0
 38 33  1  0
M  END
$$$$
