
     RDKit          3D

 41 44  0  0  0  0  0  0  0  0999 V2000
  -18.9181  -37.0472  -14.5091 C   0  0  0  0  0  0  0  0  0  0  0  0
  -17.9312  -36.6026  -13.6419 O   0  0  0  0  0  0  0  0  0  0  0  0
  -17.8923  -36.9617  -12.2687 C   0  0  0  0  0  0  0  0  0  0  0  0
  -19.1202  -37.0015  -11.6515 C   0  0  0  0  0  0  0  0  0  0  0  0
  -19.0810  -37.3458  -10.3224 C   0  0  0  0  0  0  0  0  0  0  0  0
  -17.8991  -37.6391   -9.6168 C   0  0  0  0  0  0  0  0  0  0  0  0
  -18.2014  -38.0052   -8.1829 C   0  0  0  0  0  0  0  0  0  0  0  0
  -17.7773  -39.3483   -7.7260 C   0  0  2  0  0  0  0  0  0  0  0  0
  -18.8561  -40.2883   -7.7689 N   0  0  0  0  0  0  0  0  0  0  0  0
  -18.9084  -41.4355   -8.6090 C   0  0  0  0  0  0  0  0  0  0  0  0
  -20.0769  -42.0120   -8.5363 O   0  0  0  0  0  0  0  0  0  0  0  0
  -17.9137  -42.0474   -9.4946 C   0  0  0  0  0  0  0  0  0  0  0  0
  -17.9180  -43.4579   -9.2889 C   0  0  0  0  0  0  0  0  0  0  0  0
  -17.0857  -44.3214   -9.9390 C   0  0  0  0  0  0  0  0  0  0  0  0
  -17.1156  -45.7943   -9.6911 C   0  0  0  0  0  0  0  0  0  0  0  0
  -17.2418  -46.4916  -10.8825 O   0  0  0  0  0  0  0  0  0  0  0  0
  -16.2205  -43.7594  -10.8240 C   0  0  0  0  0  0  0  0  0  0  0  0
  -16.1557  -42.3613  -11.0844 C   0  0  0  0  0  0  0  0  0  0  0  0
  -17.0166  -41.5124  -10.4092 C   0  0  0  0  0  0  0  0  0  0  0  0
  -15.1228  -42.1203  -12.0381 N   0  0  0  0  0  0  0  0  0  0  0  0
  -14.0140  -41.1619  -12.0250 C   0  0  0  0  0  0  0  0  0  0  0  0
  -13.9316  -40.3312  -13.2564 C   0  0  0  0  0  0  0  0  0  0  0  0
  -15.0710  -39.3486  -13.3812 C   0  0  0  0  0  0  0  0  0  0  0  0
  -14.5999  -38.0307  -12.8781 C   0  0  0  0  0  0  0  0  0  0  0  0
  -15.6069  -37.1392  -12.4650 O   0  0  0  0  0  0  0  0  0  0  0  0
  -16.6873  -37.2476  -11.6064 C   0  0  0  0  0  0  0  0  0  0  0  0
  -16.6959  -37.5895  -10.2519 C   0  0  0  0  0  0  0  0  0  0  0  0
  -17.1339  -39.3399   -6.3812 C   0  0  2  0  0  0  0  0  0  0  0  0
  -15.7440  -39.0011   -6.5132 O   0  0  0  0  0  0  0  0  0  0  0  0
  -17.2184  -40.5388   -5.5267 C   0  0  0  0  0  0  0  0  0  0  0  0
  -17.8830  -40.4154   -4.2617 N   0  0  0  0  0  0  0  0  0  0  0  0
  -18.9353  -41.4109   -4.1110 C   0  0  0  0  0  0  0  0  0  0  0  0
  -20.0905  -41.2132   -4.9975 C   0  0  0  0  0  0  0  0  0  0  0  0
  -20.7771  -39.9975   -5.0977 C   0  0  0  0  0  0  0  0  0  0  0  0
  -21.8694  -39.8534   -5.8995 C   0  0  0  0  0  0  0  0  0  0  0  0
  -22.3556  -40.8966   -6.6566 C   0  0  0  0  0  0  0  0  0  0  0  0
  -21.6875  -42.0936   -6.5663 C   0  0  0  0  0  0  0  0  0  0  0  0
  -20.5784  -42.2736   -5.7628 C   0  0  0  0  0  0  0  0  0  0  0  0
  -22.5574  -38.5307   -5.9650 C   0  0  0  0  0  0  0  0  0  0  0  0
  -22.7741  -38.0981   -7.3913 C   0  0  0  0  0  0  0  0  0  0  0  0
  -23.8870  -38.6422   -5.2060 C   0  0  0  0  0  0  0  0  0  0  0  0
  1  2  1  0
  2  3  1  0
  3  4  2  0
  4  5  1  0
  5  6  2  0
  6  7  1  0
  8  7  1  1
  8  9  1  0
  9 10  1  0
 10 11  2  0
 10 12  1  0
 12 13  2  0
 13 14  1  0
 14 15  1  0
 15 16  1  0
 14 17  2  0
 17 18  1  0
 18 19  2  0
 18 20  1  0
 20 21  1  0
 21 22  1  0
 22 23  1  0
 23 24  1  0
 24 25  1  0
 25 26  1  0
 26 27  2  0
  8 28  1  0
 28 29  1  6
 28 30  1  0
 30 31  1  0
 31 32  1  0
 32 33  1  0
 33 34  2  0
 34 35  1  0
 35 36  2  0
 36 37  1  0
 37 38  2  0
 35 39  1  0
 39 40  1  0
 39 41  1  0
 19 12  1  0
 26  3  1  0
 27  6  1  0
 38 33  1  0
M  END
$$$$
