
     RDKit          3D

 41 44  0  0  0  0  0  0  0  0999 V2000
  -14.1038  -34.7880  -13.6783 C   0  0  0  0  0  0  0  0  0  0  0  0
  -14.9566  -35.8718  -13.5307 O   0  0  0  0  0  0  0  0  0  0  0  0
  -15.3199  -36.4003  -12.2639 C   0  0  0  0  0  0  0  0  0  0  0  0
  -16.6704  -36.3960  -12.0067 C   0  0  0  0  0  0  0  0  0  0  0  0
  -17.0203  -36.9044  -10.7798 C   0  0  0  0  0  0  0  0  0  0  0  0
  -16.0989  -37.3973   -9.8369 C   0  0  0  0  0  0  0  0  0  0  0  0
  -16.8067  -37.9069   -8.6037 C   0  0  0  0  0  0  0  0  0  0  0  0
  -16.6072  -39.3313   -8.2518 C   0  0  2  0  0  0  0  0  0  0  0  0
  -17.6871  -40.1486   -8.7157 N   0  0  0  0  0  0  0  0  0  0  0  0
  -17.5748  -41.1721   -9.6976 C   0  0  0  0  0  0  0  0  0  0  0  0
  -18.7507  -41.6359  -10.0220 O   0  0  0  0  0  0  0  0  0  0  0  0
  -16.4133  -41.7639  -10.3675 C   0  0  0  0  0  0  0  0  0  0  0  0
  -16.5596  -43.1818  -10.3784 C   0  0  0  0  0  0  0  0  0  0  0  0
  -15.6340  -44.0353  -10.9036 C   0  0  0  0  0  0  0  0  0  0  0  0
  -15.8202  -45.5176  -10.8902 C   0  0  0  0  0  0  0  0  0  0  0  0
  -16.0686  -45.9942  -12.1679 O   0  0  0  0  0  0  0  0  0  0  0  0
  -14.5259  -43.4554  -11.4359 C   0  0  0  0  0  0  0  0  0  0  0  0
  -14.3072  -42.0489  -11.4630 C   0  0  0  0  0  0  0  0  0  0  0  0
  -15.2681  -41.2101  -10.9236 C   0  0  0  0  0  0  0  0  0  0  0  0
  -13.0388  -41.7939  -12.0632 N   0  0  0  0  0  0  0  0  0  0  0  0
  -11.9207  -40.9577  -11.6171 C   0  0  0  0  0  0  0  0  0  0  0  0
  -11.4517  -39.9929  -12.6478 C   0  0  0  0  0  0  0  0  0  0  0  0
  -12.4508  -38.8956  -12.9252 C   0  0  0  0  0  0  0  0  0  0  0  0
  -12.0581  -37.7027  -12.1286 C   0  0  0  0  0  0  0  0  0  0  0  0
  -13.0840  -36.7751  -11.8715 O   0  0  0  0  0  0  0  0  0  0  0  0
  -14.3639  -36.8827  -11.3552 C   0  0  0  0  0  0  0  0  0  0  0  0
  -14.7665  -37.3874  -10.1162 C   0  0  0  0  0  0  0  0  0  0  0  0
  -16.3604  -39.5527   -6.7983 C   0  0  2  0  0  0  0  0  0  0  0  0
  -15.5941  -40.7542   -6.6163 O   0  0  0  0  0  0  0  0  0  0  0  0
  -17.5023  -39.6102   -5.8669 C   0  0  0  0  0  0  0  0  0  0  0  0
  -18.0778  -38.3699   -5.4339 N   0  0  0  0  0  0  0  0  0  0  0  0
  -19.1718  -37.9562   -6.3018 C   0  0  0  0  0  0  0  0  0  0  0  0
  -20.1776  -38.9983   -6.5508 C   0  0  0  0  0  0  0  0  0  0  0  0
  -20.6894  -39.2771   -7.8235 C   0  0  0  0  0  0  0  0  0  0  0  0
  -21.6501  -40.2233   -8.0198 C   0  0  0  0  0  0  0  0  0  0  0  0
  -22.1680  -40.9581   -6.9758 C   0  0  0  0  0  0  0  0  0  0  0  0
  -21.6708  -40.6927   -5.7229 C   0  0  0  0  0  0  0  0  0  0  0  0
  -20.6982  -39.7401   -5.4894 C   0  0  0  0  0  0  0  0  0  0  0  0
  -22.1542  -40.4760   -9.4016 C   0  0  0  0  0  0  0  0  0  0  0  0
  -23.5650  -39.9756   -9.5681 C   0  0  0  0  0  0  0  0  0  0  0  0
  -21.1991  -39.7973  -10.3934 C   0  0  0  0  0  0  0  0  0  0  0  0
  1  2  1  0
  2  3  1  0
  3  4  2  0
  4  5  1  0
  5  6  2  0
  6  7  1  0
  8  7  1  1
  8  9  1  0
  9 10  1  0
 10 11  2  0
 10 12  1  0
 12 13  2  0
 13 14  1  0
 14 15  1  0
 15 16  1  0
 14 17  2  0
 17 18  1  0
 18 19  2  0
 18 20  1  0
 20 21  1  0
 21 22  1  0
 22 23  1  0
 23 24  1  0
 24 25  1  0
 25 26  1  0
 26 27  2  0
  8 28  1  0
 28 29  1  6
 28 30  1  0
 30 31  1  0
 31 32  1  0
 32 33  1  0
 33 34  2  0
 34 35  1  0
 35 36  2  0
 36 37  1  0
 37 38  2  0
 35 39  1  0
 39 40  1  0
 39 41  1  0
 19 12  1  0
 26  3  1  0
 27  6  1  0
 38 33  1  0
M  END
$$$$
