
     RDKit          3D

 41 44  0  0  0  0  0  0  0  0999 V2000
  -17.7874  -35.8900  -14.4985 C   0  0  0  0  0  0  0  0  0  0  0  0
  -17.8822  -35.1503  -13.3291 O   0  0  0  0  0  0  0  0  0  0  0  0
  -17.9167  -35.7457  -12.0406 C   0  0  0  0  0  0  0  0  0  0  0  0
  -19.1288  -36.2948  -11.6949 C   0  0  0  0  0  0  0  0  0  0  0  0
  -19.1618  -36.8675  -10.4470 C   0  0  0  0  0  0  0  0  0  0  0  0
  -18.0646  -36.9067   -9.5665 C   0  0  0  0  0  0  0  0  0  0  0  0
  -18.4215  -37.6288   -8.2887 C   0  0  0  0  0  0  0  0  0  0  0  0
  -17.6271  -38.8314   -7.9492 C   0  0  2  0  0  0  0  0  0  0  0  0
  -18.2948  -40.0359   -8.3400 N   0  0  0  0  0  0  0  0  0  0  0  0
  -17.8257  -40.9480   -9.3261 C   0  0  0  0  0  0  0  0  0  0  0  0
  -18.7192  -41.8669   -9.5718 O   0  0  0  0  0  0  0  0  0  0  0  0
  -16.5655  -41.0233  -10.0706 C   0  0  0  0  0  0  0  0  0  0  0  0
  -16.1091  -42.3738  -10.0703 C   0  0  0  0  0  0  0  0  0  0  0  0
  -14.9455  -42.7809  -10.6544 C   0  0  0  0  0  0  0  0  0  0  0  0
  -14.4972  -44.2057  -10.6272 C   0  0  0  0  0  0  0  0  0  0  0  0
  -15.5310  -45.0396  -10.2303 O   0  0  0  0  0  0  0  0  0  0  0  0
  -14.2128  -41.8088  -11.2593 C   0  0  0  0  0  0  0  0  0  0  0  0
  -14.6009  -40.4398  -11.3022 C   0  0  0  0  0  0  0  0  0  0  0  0
  -15.7897  -40.0603  -10.7015 C   0  0  0  0  0  0  0  0  0  0  0  0
  -13.5916  -39.6986  -11.9850 N   0  0  0  0  0  0  0  0  0  0  0  0
  -12.8982  -38.4616  -11.6145 C   0  0  0  0  0  0  0  0  0  0  0  0
  -12.9352  -37.4188  -12.6749 C   0  0  0  0  0  0  0  0  0  0  0  0
  -14.3147  -36.8434  -12.8870 C   0  0  0  0  0  0  0  0  0  0  0  0
  -14.4070  -35.5729  -12.1193 C   0  0  0  0  0  0  0  0  0  0  0  0
  -15.7085  -35.1477  -11.7961 O   0  0  0  0  0  0  0  0  0  0  0  0
  -16.7945  -35.7620  -11.1963 C   0  0  0  0  0  0  0  0  0  0  0  0
  -16.8762  -36.3528   -9.9330 C   0  0  0  0  0  0  0  0  0  0  0  0
  -17.2246  -38.8892   -6.5149 C   0  0  2  0  0  0  0  0  0  0  0  0
  -15.8375  -38.5370   -6.3883 O   0  0  0  0  0  0  0  0  0  0  0  0
  -17.4381  -40.1310   -5.7487 C   0  0  0  0  0  0  0  0  0  0  0  0
  -18.6722  -40.8354   -5.9433 N   0  0  0  0  0  0  0  0  0  0  0  0
  -19.8170  -39.9377   -5.8744 C   0  0  0  0  0  0  0  0  0  0  0  0
  -20.9853  -40.4949   -5.1786 C   0  0  0  0  0  0  0  0  0  0  0  0
  -20.9012  -41.1335   -3.9359 C   0  0  0  0  0  0  0  0  0  0  0  0
  -21.9956  -41.6753   -3.3312 C   0  0  0  0  0  0  0  0  0  0  0  0
  -23.2446  -41.6216   -3.9100 C   0  0  0  0  0  0  0  0  0  0  0  0
  -23.3377  -40.9953   -5.1293 C   0  0  0  0  0  0  0  0  0  0  0  0
  -22.2485  -40.4370   -5.7695 C   0  0  0  0  0  0  0  0  0  0  0  0
  -21.8417  -42.3417   -2.0048 C   0  0  0  0  0  0  0  0  0  0  0  0
  -20.7722  -41.6753   -1.1799 C   0  0  0  0  0  0  0  0  0  0  0  0
  -23.2001  -42.3102   -1.2904 C   0  0  0  0  0  0  0  0  0  0  0  0
  1  2  1  0
  2  3  1  0
  3  4  2  0
  4  5  1  0
  5  6  2  0
  6  7  1  0
  8  7  1  1
  8  9  1  0
  9 10  1  0
 10 11  2  0
 10 12  1  0
 12 13  2  0
 13 14  1  0
 14 15  1  0
 15 16  1  0
 14 17  2  0
 17 18  1  0
 18 19  2  0
 18 20  1  0
 20 21  1  0
 21 22  1  0
 22 23  1  0
 23 24  1  0
 24 25  1  0
 25 26  1  0
 26 27  2  0
  8 28  1  0
 28 29  1  6
 28 30  1  0
 30 31  1  0
 31 32  1  0
 32 33  1  0
 33 34  2  0
 34 35  1  0
 35 36  2  0
 36 37  1  0
 37 38  2  0
 35 39  1  0
 39 40  1  0
 39 41  1  0
 19 12  1  0
 26  3  1  0
 27  6  1  0
 38 33  1  0
M  END
$$$$
