
     RDKit          3D

 41 44  0  0  0  0  0  0  0  0999 V2000
  -25.6759  -42.7690   -6.5300 C   0  0  0  0  0  0  0  0  0  0  0  0
  -24.3323  -42.9875   -6.2642 O   0  0  0  0  0  0  0  0  0  0  0  0
  -23.2906  -42.2981   -6.9392 C   0  0  0  0  0  0  0  0  0  0  0  0
  -22.6685  -41.3260   -6.1922 C   0  0  0  0  0  0  0  0  0  0  0  0
  -21.6632  -40.6576   -6.8472 C   0  0  0  0  0  0  0  0  0  0  0  0
  -21.2751  -40.9188   -8.1746 C   0  0  0  0  0  0  0  0  0  0  0  0
  -20.1250  -40.0306   -8.5870 C   0  0  0  0  0  0  0  0  0  0  0  0
  -18.8727  -40.7002   -9.0065 C   0  0  2  0  0  0  0  0  0  0  0  0
  -17.9183  -40.7559   -7.9409 N   0  0  0  0  0  0  0  0  0  0  0  0
  -17.4453  -41.9497   -7.3283 C   0  0  0  0  0  0  0  0  0  0  0  0
  -16.7026  -41.6767   -6.2905 O   0  0  0  0  0  0  0  0  0  0  0  0
  -17.6419  -43.3643   -7.6576 C   0  0  0  0  0  0  0  0  0  0  0  0
  -16.3873  -44.0360   -7.5759 C   0  0  0  0  0  0  0  0  0  0  0  0
  -16.2175  -45.3611   -7.8519 C   0  0  0  0  0  0  0  0  0  0  0  0
  -14.8840  -46.0285   -7.7614 C   0  0  0  0  0  0  0  0  0  0  0  0
  -14.5520  -46.2882   -6.4408 O   0  0  0  0  0  0  0  0  0  0  0  0
  -17.3363  -46.0389   -8.2213 C   0  0  0  0  0  0  0  0  0  0  0  0
  -18.6234  -45.4396   -8.3259 C   0  0  0  0  0  0  0  0  0  0  0  0
  -18.7617  -44.0924   -8.0360 C   0  0  0  0  0  0  0  0  0  0  0  0
  -19.5547  -46.4274   -8.7632 N   0  0  0  0  0  0  0  0  0  0  0  0
  -20.5465  -46.3953   -9.8419 C   0  0  0  0  0  0  0  0  0  0  0  0
  -21.9155  -46.7768   -9.4023 C   0  0  0  0  0  0  0  0  0  0  0  0
  -22.5480  -45.7531   -8.4906 C   0  0  0  0  0  0  0  0  0  0  0  0
  -23.4302  -44.8847   -9.3149 C   0  0  0  0  0  0  0  0  0  0  0  0
  -23.7184  -43.6182   -8.7743 O   0  0  0  0  0  0  0  0  0  0  0  0
  -22.9372  -42.5949   -8.2656 C   0  0  0  0  0  0  0  0  0  0  0  0
  -21.9100  -41.8855   -8.8929 C   0  0  0  0  0  0  0  0  0  0  0  0
  -18.2660  -40.1062  -10.2319 C   0  0  2  0  0  0  0  0  0  0  0  0
  -18.5223  -40.9588  -11.3594 O   0  0  0  0  0  0  0  0  0  0  0  0
  -16.8291  -39.7745  -10.2449 C   0  0  0  0  0  0  0  0  0  0  0  0
  -16.2930  -39.0704   -9.1162 N   0  0  0  0  0  0  0  0  0  0  0  0
  -17.1079  -37.9136   -8.7712 C   0  0  0  0  0  0  0  0  0  0  0  0
  -18.5077  -38.2290   -8.4541 C   0  0  0  0  0  0  0  0  0  0  0  0
  -19.2592  -37.5100   -7.5173 C   0  0  0  0  0  0  0  0  0  0  0  0
  -20.5439  -37.8487   -7.2147 C   0  0  0  0  0  0  0  0  0  0  0  0
  -21.1731  -38.9164   -7.8165 C   0  0  0  0  0  0  0  0  0  0  0  0
  -20.4441  -39.6274   -8.7387 C   0  0  0  0  0  0  0  0  0  0  0  0
  -19.1402  -39.3115   -9.0674 C   0  0  0  0  0  0  0  0  0  0  0  0
  -21.2939  -37.0415   -6.2082 C   0  0  0  0  0  0  0  0  0  0  0  0
  -22.1624  -37.9170   -5.3436 C   0  0  0  0  0  0  0  0  0  0  0  0
  -20.2774  -36.2568   -5.3672 C   0  0  0  0  0  0  0  0  0  0  0  0
  1  2  1  0
  2  3  1  0
  3  4  2  0
  4  5  1  0
  5  6  2  0
  6  7  1  0
  8  7  1  1
  8  9  1  0
  9 10  1  0
 10 11  2  0
 10 12  1  0
 12 13  2  0
 13 14  1  0
 14 15  1  0
 15 16  1  0
 14 17  2  0
 17 18  1  0
 18 19  2  0
 18 20  1  0
 20 21  1  0
 21 22  1  0
 22 23  1  0
 23 24  1  0
 24 25  1  0
 25 26  1  0
 26 27  2  0
  8 28  1  0
 28 29  1  6
 28 30  1  0
 30 31  1  0
 31 32  1  0
 32 33  1  0
 33 34  2  0
 34 35  1  0
 35 36  2  0
 36 37  1  0
 37 38  2  0
 35 39  1  0
 39 40  1  0
 39 41  1  0
 19 12  1  0
 26  3  1  0
 27  6  1  0
 38 33  1  0
M  END
$$$$
