
     RDKit          3D

 41 44  0  0  0  0  0  0  0  0999 V2000
  -23.5412  -40.7476   -3.5434 C   0  0  0  0  0  0  0  0  0  0  0  0
  -23.8139  -40.7390   -4.9033 O   0  0  0  0  0  0  0  0  0  0  0  0
  -22.7975  -40.7784   -5.8940 C   0  0  0  0  0  0  0  0  0  0  0  0
  -21.6602  -40.0740   -5.5768 C   0  0  0  0  0  0  0  0  0  0  0  0
  -20.6790  -40.1101   -6.5373 C   0  0  0  0  0  0  0  0  0  0  0  0
  -20.7939  -40.8002   -7.7584 C   0  0  0  0  0  0  0  0  0  0  0  0
  -19.5327  -40.6632   -8.5783 C   0  0  0  0  0  0  0  0  0  0  0  0
  -18.8223  -41.9120   -8.9365 C   0  0  2  0  0  0  0  0  0  0  0  0
  -17.7324  -42.1762   -8.0467 N   0  0  0  0  0  0  0  0  0  0  0  0
  -17.6479  -43.2897   -7.1651 C   0  0  0  0  0  0  0  0  0  0  0  0
  -16.6157  -43.1790   -6.3742 O   0  0  0  0  0  0  0  0  0  0  0  0
  -18.4854  -44.4825   -7.0101 C   0  0  0  0  0  0  0  0  0  0  0  0
  -17.6427  -45.6266   -6.8964 C   0  0  0  0  0  0  0  0  0  0  0  0
  -18.1094  -46.9021   -6.7689 C   0  0  0  0  0  0  0  0  0  0  0  0
  -17.1937  -48.0774   -6.6590 C   0  0  0  0  0  0  0  0  0  0  0  0
  -15.8826  -47.6649   -6.4790 O   0  0  0  0  0  0  0  0  0  0  0  0
  -19.4615  -47.0411   -6.7542 C   0  0  0  0  0  0  0  0  0  0  0  0
  -20.3681  -45.9489   -6.8626 C   0  0  0  0  0  0  0  0  0  0  0  0
  -19.8613  -44.6662   -6.9881 C   0  0  0  0  0  0  0  0  0  0  0  0
  -21.7010  -46.4560   -6.8414 N   0  0  0  0  0  0  0  0  0  0  0  0
  -22.8367  -46.1974   -7.7311 C   0  0  0  0  0  0  0  0  0  0  0  0
  -24.0746  -45.7918   -7.0126 C   0  0  0  0  0  0  0  0  0  0  0  0
  -23.9696  -44.4226   -6.3854 C   0  0  0  0  0  0  0  0  0  0  0  0
  -24.6003  -43.4429   -7.3096 C   0  0  0  0  0  0  0  0  0  0  0  0
  -24.1919  -42.1057   -7.1538 O   0  0  0  0  0  0  0  0  0  0  0  0
  -22.9570  -41.4827   -7.0985 C   0  0  0  0  0  0  0  0  0  0  0  0
  -21.9326  -41.4878   -8.0484 C   0  0  0  0  0  0  0  0  0  0  0  0
  -18.3690  -41.9485  -10.3563 C   0  0  2  0  0  0  0  0  0  0  0  0
  -18.0527  -43.2998  -10.7275 O   0  0  0  0  0  0  0  0  0  0  0  0
  -17.2431  -41.0968  -10.7828 C   0  0  0  0  0  0  0  0  0  0  0  0
  -17.5357  -39.7538  -11.1926 N   0  0  0  0  0  0  0  0  0  0  0  0
  -17.1619  -38.7886  -10.1680 C   0  0  0  0  0  0  0  0  0  0  0  0
  -17.9524  -38.8769   -8.9324 C   0  0  0  0  0  0  0  0  0  0  0  0
  -19.2264  -38.3125   -8.7989 C   0  0  0  0  0  0  0  0  0  0  0  0
  -19.9212  -38.3763   -7.6285 C   0  0  0  0  0  0  0  0  0  0  0  0
  -19.4076  -39.0020   -6.5137 C   0  0  0  0  0  0  0  0  0  0  0  0
  -18.1583  -39.5605   -6.6353 C   0  0  0  0  0  0  0  0  0  0  0  0
  -17.4272  -39.5126   -7.8063 C   0  0  0  0  0  0  0  0  0  0  0  0
  -21.2767  -37.7568   -7.5495 C   0  0  0  0  0  0  0  0  0  0  0  0
  -21.3103  -36.4256   -8.2531 C   0  0  0  0  0  0  0  0  0  0  0  0
  -22.2894  -38.7369   -8.1579 C   0  0  0  0  0  0  0  0  0  0  0  0
  1  2  1  0
  2  3  1  0
  3  4  2  0
  4  5  1  0
  5  6  2  0
  6  7  1  0
  8  7  1  1
  8  9  1  0
  9 10  1  0
 10 11  2  0
 10 12  1  0
 12 13  2  0
 13 14  1  0
 14 15  1  0
 15 16  1  0
 14 17  2  0
 17 18  1  0
 18 19  2  0
 18 20  1  0
 20 21  1  0
 21 22  1  0
 22 23  1  0
 23 24  1  0
 24 25  1  0
 25 26  1  0
 26 27  2  0
  8 28  1  0
 28 29  1  1
 28 30  1  0
 30 31  1  0
 31 32  1  0
 32 33  1  0
 33 34  2  0
 34 35  1  0
 35 36  2  0
 36 37  1  0
 37 38  2  0
 35 39  1  0
 39 40  1  0
 39 41  1  0
 19 12  1  0
 26  3  1  0
 27  6  1  0
 38 33  1  0
M  END
$$$$
