
     RDKit          3D

 41 44  0  0  0  0  0  0  0  0999 V2000
  -14.7014  -36.7007  -14.8551 C   0  0  0  0  0  0  0  0  0  0  0  0
  -14.3036  -37.7156  -13.9976 O   0  0  0  0  0  0  0  0  0  0  0  0
  -14.8301  -37.8693  -12.6879 C   0  0  0  0  0  0  0  0  0  0  0  0
  -16.1238  -37.4301  -12.5348 C   0  0  0  0  0  0  0  0  0  0  0  0
  -16.6308  -37.5763  -11.2667 C   0  0  0  0  0  0  0  0  0  0  0  0
  -15.9134  -38.1253  -10.1875 C   0  0  0  0  0  0  0  0  0  0  0  0
  -16.7628  -38.1689   -8.9392 C   0  0  0  0  0  0  0  0  0  0  0  0
  -16.9986  -39.4978   -8.3301 C   0  0  2  0  0  0  0  0  0  0  0  0
  -18.2627  -40.0439   -8.7216 N   0  0  0  0  0  0  0  0  0  0  0  0
  -18.4390  -41.2226   -9.4986 C   0  0  0  0  0  0  0  0  0  0  0  0
  -19.6931  -41.3829   -9.8220 O   0  0  0  0  0  0  0  0  0  0  0  0
  -17.4914  -42.2374   -9.9682 C   0  0  0  0  0  0  0  0  0  0  0  0
  -18.0490  -43.5296   -9.7417 C   0  0  0  0  0  0  0  0  0  0  0  0
  -17.4067  -44.6954  -10.0405 C   0  0  0  0  0  0  0  0  0  0  0  0
  -18.0218  -46.0320   -9.7818 C   0  0  0  0  0  0  0  0  0  0  0  0
  -18.5392  -46.5703  -10.9499 O   0  0  0  0  0  0  0  0  0  0  0  0
  -16.1671  -44.5682  -10.5837 C   0  0  0  0  0  0  0  0  0  0  0  0
  -15.5430  -43.3146  -10.8401 C   0  0  0  0  0  0  0  0  0  0  0  0
  -16.2237  -42.1498  -10.5273 C   0  0  0  0  0  0  0  0  0  0  0  0
  -14.2448  -43.5513  -11.3814 N   0  0  0  0  0  0  0  0  0  0  0  0
  -12.9385  -43.0017  -11.0079 C   0  0  0  0  0  0  0  0  0  0  0  0
  -12.1868  -42.4239  -12.1543 C   0  0  0  0  0  0  0  0  0  0  0  0
  -12.8126  -41.1594  -12.6915 C   0  0  0  0  0  0  0  0  0  0  0  0
  -12.1004  -40.0011  -12.0891 C   0  0  0  0  0  0  0  0  0  0  0  0
  -12.8118  -38.7874  -12.0738 O   0  0  0  0  0  0  0  0  0  0  0  0
  -14.0759  -38.4248  -11.6415 C   0  0  0  0  0  0  0  0  0  0  0  0
  -14.6323  -38.5501  -10.3661 C   0  0  0  0  0  0  0  0  0  0  0  0
  -16.8552  -39.5024   -6.8462 C   0  0  2  0  0  0  0  0  0  0  0  0
  -15.9377  -40.5357   -6.4532 O   0  0  0  0  0  0  0  0  0  0  0  0
  -18.0558  -39.6305   -5.9995 C   0  0  0  0  0  0  0  0  0  0  0  0
  -18.7833  -38.4359   -5.6822 N   0  0  0  0  0  0  0  0  0  0  0  0
  -19.9017  -38.2330   -6.5930 C   0  0  0  0  0  0  0  0  0  0  0  0
  -20.9112  -39.3005   -6.5632 C   0  0  0  0  0  0  0  0  0  0  0  0
  -21.4905  -39.7710   -5.3790 C   0  0  0  0  0  0  0  0  0  0  0  0
  -22.3962  -40.7891   -5.3775 C   0  0  0  0  0  0  0  0  0  0  0  0
  -22.7921  -41.4088   -6.5424 C   0  0  0  0  0  0  0  0  0  0  0  0
  -22.2302  -40.9530   -7.7103 C   0  0  0  0  0  0  0  0  0  0  0  0
  -21.3089  -39.9244   -7.7467 C   0  0  0  0  0  0  0  0  0  0  0  0
  -22.9801  -41.2447   -4.0819 C   0  0  0  0  0  0  0  0  0  0  0  0
  -21.9162  -41.3956   -3.0266 C   0  0  0  0  0  0  0  0  0  0  0  0
  -24.0519  -40.2321   -3.6550 C   0  0  0  0  0  0  0  0  0  0  0  0
  1  2  1  0
  2  3  1  0
  3  4  2  0
  4  5  1  0
  5  6  2  0
  6  7  1  0
  8  7  1  1
  8  9  1  0
  9 10  1  0
 10 11  2  0
 10 12  1  0
 12 13  2  0
 13 14  1  0
 14 15  1  0
 15 16  1  0
 14 17  2  0
 17 18  1  0
 18 19  2  0
 18 20  1  0
 20 21  1  0
 21 22  1  0
 22 23  1  0
 23 24  1  0
 24 25  1  0
 25 26  1  0
 26 27  2  0
  8 28  1  0
 28 29  1  6
 28 30  1  0
 30 31  1  0
 31 32  1  0
 32 33  1  0
 33 34  2  0
 34 35  1  0
 35 36  2  0
 36 37  1  0
 37 38  2  0
 35 39  1  0
 39 40  1  0
 39 41  1  0
 19 12  1  0
 26  3  1  0
 27  6  1  0
 38 33  1  0
M  END
$$$$
