
     RDKit          3D

 41 44  0  0  0  0  0  0  0  0999 V2000
  -25.3422  -43.0083  -12.6246 C   0  0  0  0  0  0  0  0  0  0  0  0
  -24.3454  -43.6945  -11.9471 O   0  0  0  0  0  0  0  0  0  0  0  0
  -23.2129  -43.0506  -11.3823 C   0  0  0  0  0  0  0  0  0  0  0  0
  -23.4965  -42.2057  -10.3354 C   0  0  0  0  0  0  0  0  0  0  0  0
  -22.4007  -41.5810   -9.7921 C   0  0  0  0  0  0  0  0  0  0  0  0
  -21.0809  -41.7654  -10.2448 C   0  0  0  0  0  0  0  0  0  0  0  0
  -20.1078  -40.9562   -9.4203 C   0  0  0  0  0  0  0  0  0  0  0  0
  -19.0449  -41.7014   -8.7079 C   0  0  2  0  0  0  0  0  0  0  0  0
  -19.3874  -41.9337   -7.3374 N   0  0  0  0  0  0  0  0  0  0  0  0
  -19.6072  -43.2130   -6.7549 C   0  0  0  0  0  0  0  0  0  0  0  0
  -20.0514  -43.0972   -5.5332 O   0  0  0  0  0  0  0  0  0  0  0  0
  -19.4218  -44.5709   -7.2742 C   0  0  0  0  0  0  0  0  0  0  0  0
  -18.7718  -45.3603   -6.2810 C   0  0  0  0  0  0  0  0  0  0  0  0
  -18.4258  -46.6678   -6.4587 C   0  0  0  0  0  0  0  0  0  0  0  0
  -17.7387  -47.4608   -5.3952 C   0  0  0  0  0  0  0  0  0  0  0  0
  -18.4826  -47.4644   -4.2256 O   0  0  0  0  0  0  0  0  0  0  0  0
  -18.7387  -47.2061   -7.6669 C   0  0  0  0  0  0  0  0  0  0  0  0
  -19.3869  -46.4837   -8.7084 C   0  0  0  0  0  0  0  0  0  0  0  0
  -19.7271  -45.1584   -8.4945 C   0  0  0  0  0  0  0  0  0  0  0  0
  -19.5329  -47.3412   -9.8387 N   0  0  0  0  0  0  0  0  0  0  0  0
  -19.2003  -47.1279  -11.2501 C   0  0  0  0  0  0  0  0  0  0  0  0
  -20.3277  -47.4165  -12.1768 C   0  0  0  0  0  0  0  0  0  0  0  0
  -21.4544  -46.4182  -12.0624 C   0  0  0  0  0  0  0  0  0  0  0  0
  -21.2845  -45.4063  -13.1390 C   0  0  0  0  0  0  0  0  0  0  0  0
  -21.9148  -44.1680  -12.9184 O   0  0  0  0  0  0  0  0  0  0  0  0
  -21.9128  -43.2672  -11.8673 C   0  0  0  0  0  0  0  0  0  0  0  0
  -20.8283  -42.6061  -11.2855 C   0  0  0  0  0  0  0  0  0  0  0  0
  -17.7008  -41.0661   -8.8187 C   0  0  2  0  0  0  0  0  0  0  0  0
  -16.8211  -41.9242   -9.5629 O   0  0  0  0  0  0  0  0  0  0  0  0
  -16.9876  -40.6540   -7.5954 C   0  0  0  0  0  0  0  0  0  0  0  0
  -17.3406  -39.3955   -7.0049 N   0  0  0  0  0  0  0  0  0  0  0  0
  -17.6788  -38.4055   -8.0182 C   0  0  0  0  0  0  0  0  0  0  0  0
  -19.1178  -38.1392   -8.1515 C   0  0  0  0  0  0  0  0  0  0  0  0
  -20.0484  -38.4545   -7.1545 C   0  0  0  0  0  0  0  0  0  0  0  0
  -21.3824  -38.2317   -7.3207 C   0  0  0  0  0  0  0  0  0  0  0  0
  -21.8868  -37.6820   -8.4788 C   0  0  0  0  0  0  0  0  0  0  0  0
  -20.9810  -37.3676   -9.4628 C   0  0  0  0  0  0  0  0  0  0  0  0
  -19.6231  -37.5815   -9.3269 C   0  0  0  0  0  0  0  0  0  0  0  0
  -22.3246  -38.5875   -6.2194 C   0  0  0  0  0  0  0  0  0  0  0  0
  -22.0088  -39.9447   -5.6479 C   0  0  0  0  0  0  0  0  0  0  0  0
  -22.2423  -37.4948   -5.1444 C   0  0  0  0  0  0  0  0  0  0  0  0
  1  2  1  0
  2  3  1  0
  3  4  2  0
  4  5  1  0
  5  6  2  0
  6  7  1  0
  8  7  1  1
  8  9  1  0
  9 10  1  0
 10 11  2  0
 10 12  1  0
 12 13  2  0
 13 14  1  0
 14 15  1  0
 15 16  1  0
 14 17  2  0
 17 18  1  0
 18 19  2  0
 18 20  1  0
 20 21  1  0
 21 22  1  0
 22 23  1  0
 23 24  1  0
 24 25  1  0
 25 26  1  0
 26 27  2  0
  8 28  1  0
 28 29  1  1
 28 30  1  0
 30 31  1  0
 31 32  1  0
 32 33  1  0
 33 34  2  0
 34 35  1  0
 35 36  2  0
 36 37  1  0
 37 38  2  0
 35 39  1  0
 39 40  1  0
 39 41  1  0
 19 12  1  0
 26  3  1  0
 27  6  1  0
 38 33  1  0
M  END
$$$$
