
     RDKit          3D

 41 44  0  0  0  0  0  0  0  0999 V2000
  -19.6581  -36.7422  -14.5678 C   0  0  0  0  0  0  0  0  0  0  0  0
  -18.4889  -37.1978  -13.9769 O   0  0  0  0  0  0  0  0  0  0  0  0
  -18.3428  -37.3497  -12.5728 C   0  0  0  0  0  0  0  0  0  0  0  0
  -19.5263  -37.3891  -11.8741 C   0  0  0  0  0  0  0  0  0  0  0  0
  -19.3835  -37.5328  -10.5157 C   0  0  0  0  0  0  0  0  0  0  0  0
  -18.1434  -37.6334   -9.8579 C   0  0  0  0  0  0  0  0  0  0  0  0
  -18.3328  -37.8084   -8.3695 C   0  0  0  0  0  0  0  0  0  0  0  0
  -17.7748  -39.0363   -7.7585 C   0  0  2  0  0  0  0  0  0  0  0  0
  -18.7736  -40.0488   -7.5956 N   0  0  0  0  0  0  0  0  0  0  0  0
  -18.7792  -41.3065   -8.2608 C   0  0  0  0  0  0  0  0  0  0  0  0
  -19.8905  -41.9501   -8.0286 O   0  0  0  0  0  0  0  0  0  0  0  0
  -17.7896  -41.9663   -9.1173 C   0  0  0  0  0  0  0  0  0  0  0  0
  -17.6666  -43.3286   -8.7157 C   0  0  0  0  0  0  0  0  0  0  0  0
  -16.8045  -44.2142   -9.2932 C   0  0  0  0  0  0  0  0  0  0  0  0
  -16.6994  -45.6337   -8.8395 C   0  0  0  0  0  0  0  0  0  0  0  0
  -17.8875  -46.3116   -9.0643 O   0  0  0  0  0  0  0  0  0  0  0  0
  -16.0400  -43.7251  -10.3051 C   0  0  0  0  0  0  0  0  0  0  0  0
  -16.1049  -42.3786  -10.7630 C   0  0  0  0  0  0  0  0  0  0  0  0
  -16.9928  -41.5058  -10.1567 C   0  0  0  0  0  0  0  0  0  0  0  0
  -15.1511  -42.2040  -11.8090 N   0  0  0  0  0  0  0  0  0  0  0  0
  -14.1256  -41.1755  -12.0060 C   0  0  0  0  0  0  0  0  0  0  0  0
  -14.1817  -40.5287  -13.3445 C   0  0  0  0  0  0  0  0  0  0  0  0
  -15.4030  -39.6605  -13.5283 C   0  0  0  0  0  0  0  0  0  0  0  0
  -15.0138  -38.2527  -13.2484 C   0  0  0  0  0  0  0  0  0  0  0  0
  -16.0654  -37.3866  -12.8971 O   0  0  0  0  0  0  0  0  0  0  0  0
  -17.0828  -37.4477  -11.9604 C   0  0  0  0  0  0  0  0  0  0  0  0
  -16.9863  -37.5889  -10.5738 C   0  0  0  0  0  0  0  0  0  0  0  0
  -17.0588  -38.7857   -6.4751 C   0  0  2  0  0  0  0  0  0  0  0  0
  -15.7995  -38.1476   -6.7414 O   0  0  0  0  0  0  0  0  0  0  0  0
  -16.8006  -39.9086   -5.5546 C   0  0  0  0  0  0  0  0  0  0  0  0
  -17.7877  -40.1970   -4.5548 N   0  0  0  0  0  0  0  0  0  0  0  0
  -19.0406  -39.5052   -4.8251 C   0  0  0  0  0  0  0  0  0  0  0  0
  -20.0744  -40.3420   -5.4500 C   0  0  0  0  0  0  0  0  0  0  0  0
  -21.3293  -39.8505   -5.8281 C   0  0  0  0  0  0  0  0  0  0  0  0
  -22.2834  -40.6581   -6.3705 C   0  0  0  0  0  0  0  0  0  0  0  0
  -22.0631  -42.0021   -6.5779 C   0  0  0  0  0  0  0  0  0  0  0  0
  -20.8337  -42.4937   -6.2115 C   0  0  0  0  0  0  0  0  0  0  0  0
  -19.8454  -41.7030   -5.6583 C   0  0  0  0  0  0  0  0  0  0  0  0
  -23.6017  -40.0738   -6.7553 C   0  0  0  0  0  0  0  0  0  0  0  0
  -24.6301  -40.2894   -5.6763 C   0  0  0  0  0  0  0  0  0  0  0  0
  -23.3994  -38.5800   -7.0450 C   0  0  0  0  0  0  0  0  0  0  0  0
  1  2  1  0
  2  3  1  0
  3  4  2  0
  4  5  1  0
  5  6  2  0
  6  7  1  0
  8  7  1  1
  8  9  1  0
  9 10  1  0
 10 11  2  0
 10 12  1  0
 12 13  2  0
 13 14  1  0
 14 15  1  0
 15 16  1  0
 14 17  2  0
 17 18  1  0
 18 19  2  0
 18 20  1  0
 20 21  1  0
 21 22  1  0
 22 23  1  0
 23 24  1  0
 24 25  1  0
 25 26  1  0
 26 27  2  0
  8 28  1  0
 28 29  1  6
 28 30  1  0
 30 31  1  0
 31 32  1  0
 32 33  1  0
 33 34  2  0
 34 35  1  0
 35 36  2  0
 36 37  1  0
 37 38  2  0
 35 39  1  0
 39 40  1  0
 39 41  1  0
 19 12  1  0
 26  3  1  0
 27  6  1  0
 38 33  1  0
M  END
$$$$
