
     RDKit          3D

 41 44  0  0  0  0  0  0  0  0999 V2000
  -20.2773  -37.4323  -14.4822 C   0  0  0  0  0  0  0  0  0  0  0  0
  -19.5560  -38.4716  -13.9138 O   0  0  0  0  0  0  0  0  0  0  0  0
  -19.2716  -38.5438  -12.5246 C   0  0  0  0  0  0  0  0  0  0  0  0
  -20.3650  -38.3840  -11.7065 C   0  0  0  0  0  0  0  0  0  0  0  0
  -20.0882  -38.4508  -10.3629 C   0  0  0  0  0  0  0  0  0  0  0  0
  -18.8027  -38.6627   -9.8307 C   0  0  0  0  0  0  0  0  0  0  0  0
  -18.8426  -38.7092   -8.3214 C   0  0  0  0  0  0  0  0  0  0  0  0
  -18.3692  -39.9530   -7.6723 C   0  0  2  0  0  0  0  0  0  0  0  0
  -19.4566  -40.8167   -7.3243 N   0  0  0  0  0  0  0  0  0  0  0  0
  -19.6867  -42.1063   -7.8795 C   0  0  0  0  0  0  0  0  0  0  0  0
  -20.8334  -42.5858   -7.4816 O   0  0  0  0  0  0  0  0  0  0  0  0
  -18.8855  -42.9440   -8.7764 C   0  0  0  0  0  0  0  0  0  0  0  0
  -18.8809  -44.2799   -8.2789 C   0  0  0  0  0  0  0  0  0  0  0  0
  -18.2009  -45.3056   -8.8675 C   0  0  0  0  0  0  0  0  0  0  0  0
  -18.2149  -46.6923   -8.3118 C   0  0  0  0  0  0  0  0  0  0  0  0
  -18.3399  -47.6282   -9.3267 O   0  0  0  0  0  0  0  0  0  0  0  0
  -17.5026  -44.9886   -9.9898 C   0  0  0  0  0  0  0  0  0  0  0  0
  -17.4580  -43.6797  -10.5478 C   0  0  0  0  0  0  0  0  0  0  0  0
  -18.1619  -42.6613   -9.9270 C   0  0  0  0  0  0  0  0  0  0  0  0
  -16.6143  -43.7002  -11.6976 N   0  0  0  0  0  0  0  0  0  0  0  0
  -15.5026  -42.8265  -12.0835 C   0  0  0  0  0  0  0  0  0  0  0  0
  -15.6318  -42.2717  -13.4577 C   0  0  0  0  0  0  0  0  0  0  0  0
  -16.7541  -41.2700  -13.5853 C   0  0  0  0  0  0  0  0  0  0  0  0
  -16.1712  -39.9071  -13.4639 C   0  0  0  0  0  0  0  0  0  0  0  0
  -17.0659  -38.8922  -13.0783 O   0  0  0  0  0  0  0  0  0  0  0  0
  -17.9712  -38.7587  -12.0397 C   0  0  0  0  0  0  0  0  0  0  0  0
  -17.7366  -38.8151  -10.6636 C   0  0  0  0  0  0  0  0  0  0  0  0
  -17.4885  -39.7076   -6.4947 C   0  0  2  0  0  0  0  0  0  0  0  0
  -16.1120  -39.7548   -6.9033 O   0  0  0  0  0  0  0  0  0  0  0  0
  -17.6240  -40.5553   -5.2956 C   0  0  0  0  0  0  0  0  0  0  0  0
  -18.3294  -40.0160   -4.1692 N   0  0  0  0  0  0  0  0  0  0  0  0
  -19.3885  -39.1074   -4.5865 C   0  0  0  0  0  0  0  0  0  0  0  0
  -20.6565  -39.7675   -4.9271 C   0  0  0  0  0  0  0  0  0  0  0  0
  -21.6870  -39.1277   -5.6257 C   0  0  0  0  0  0  0  0  0  0  0  0
  -22.8680  -39.7520   -5.8944 C   0  0  0  0  0  0  0  0  0  0  0  0
  -23.1105  -41.0478   -5.4944 C   0  0  0  0  0  0  0  0  0  0  0  0
  -22.1044  -41.6848   -4.8094 C   0  0  0  0  0  0  0  0  0  0  0  0
  -20.8964  -41.0807   -4.5198 C   0  0  0  0  0  0  0  0  0  0  0  0
  -23.9278  -39.0170   -6.6453 C   0  0  0  0  0  0  0  0  0  0  0  0
  -24.7437  -39.9543   -7.4963 C   0  0  0  0  0  0  0  0  0  0  0  0
  -24.8077  -38.2730   -5.6310 C   0  0  0  0  0  0  0  0  0  0  0  0
  1  2  1  0
  2  3  1  0
  3  4  2  0
  4  5  1  0
  5  6  2  0
  6  7  1  0
  8  7  1  1
  8  9  1  0
  9 10  1  0
 10 11  2  0
 10 12  1  0
 12 13  2  0
 13 14  1  0
 14 15  1  0
 15 16  1  0
 14 17  2  0
 17 18  1  0
 18 19  2  0
 18 20  1  0
 20 21  1  0
 21 22  1  0
 22 23  1  0
 23 24  1  0
 24 25  1  0
 25 26  1  0
 26 27  2  0
  8 28  1  0
 28 29  1  6
 28 30  1  0
 30 31  1  0
 31 32  1  0
 32 33  1  0
 33 34  2  0
 34 35  1  0
 35 36  2  0
 36 37  1  0
 37 38  2  0
 35 39  1  0
 39 40  1  0
 39 41  1  0
 19 12  1  0
 26  3  1  0
 27  6  1  0
 38 33  1  0
M  END
$$$$
