
     RDKit          3D

 41 44  0  0  0  0  0  0  0  0999 V2000
  -16.5909  -34.3687  -13.4430 C   0  0  0  0  0  0  0  0  0  0  0  0
  -16.5619  -35.7348  -13.2051 O   0  0  0  0  0  0  0  0  0  0  0  0
  -16.7695  -36.2981  -11.9184 C   0  0  0  0  0  0  0  0  0  0  0  0
  -18.0885  -36.4060  -11.5457 C   0  0  0  0  0  0  0  0  0  0  0  0
  -18.2878  -36.9481  -10.2996 C   0  0  0  0  0  0  0  0  0  0  0  0
  -17.2510  -37.3686   -9.4459 C   0  0  0  0  0  0  0  0  0  0  0  0
  -17.8051  -37.9412   -8.1626 C   0  0  0  0  0  0  0  0  0  0  0  0
  -17.4606  -39.3463   -7.8470 C   0  0  2  0  0  0  0  0  0  0  0  0
  -18.5067  -40.2470   -8.2262 N   0  0  0  0  0  0  0  0  0  0  0  0
  -18.3974  -41.2525   -9.2268 C   0  0  0  0  0  0  0  0  0  0  0  0
  -19.5554  -41.8096   -9.4543 O   0  0  0  0  0  0  0  0  0  0  0  0
  -17.2542  -41.7434  -10.0017 C   0  0  0  0  0  0  0  0  0  0  0  0
  -17.2851  -43.1685  -10.0175 C   0  0  0  0  0  0  0  0  0  0  0  0
  -16.3424  -43.9404  -10.6311 C   0  0  0  0  0  0  0  0  0  0  0  0
  -16.4056  -45.4329  -10.6201 C   0  0  0  0  0  0  0  0  0  0  0  0
  -15.4921  -45.9578   -9.7191 O   0  0  0  0  0  0  0  0  0  0  0  0
  -15.3356  -43.2686  -11.2497 C   0  0  0  0  0  0  0  0  0  0  0  0
  -15.2352  -41.8488  -11.2780 C   0  0  0  0  0  0  0  0  0  0  0  0
  -16.2105  -41.0945  -10.6474 C   0  0  0  0  0  0  0  0  0  0  0  0
  -14.0486  -41.4873  -11.9821 N   0  0  0  0  0  0  0  0  0  0  0  0
  -12.9678  -40.5646  -11.6237 C   0  0  0  0  0  0  0  0  0  0  0  0
  -12.6701  -39.5590  -12.6789 C   0  0  0  0  0  0  0  0  0  0  0  0
  -13.7755  -38.5460  -12.8555 C   0  0  0  0  0  0  0  0  0  0  0  0
  -13.4132  -37.3292  -12.0809 C   0  0  0  0  0  0  0  0  0  0  0  0
  -14.4850  -36.4902  -11.7249 O   0  0  0  0  0  0  0  0  0  0  0  0
  -15.7021  -36.7053  -11.1015 C   0  0  0  0  0  0  0  0  0  0  0  0
  -15.9531  -37.2479   -9.8388 C   0  0  0  0  0  0  0  0  0  0  0  0
  -17.0712  -39.5545   -6.4231 C   0  0  2  0  0  0  0  0  0  0  0  0
  -15.7344  -39.0722   -6.2127 O   0  0  0  0  0  0  0  0  0  0  0  0
  -17.1523  -40.9051   -5.8365 C   0  0  0  0  0  0  0  0  0  0  0  0
  -18.4150  -41.3314   -5.3063 N   0  0  0  0  0  0  0  0  0  0  0  0
  -19.2504  -40.1969   -4.9370 C   0  0  0  0  0  0  0  0  0  0  0  0
  -20.6600  -40.3261   -5.3318 C   0  0  0  0  0  0  0  0  0  0  0  0
  -21.1420  -41.3877   -6.1064 C   0  0  0  0  0  0  0  0  0  0  0  0
  -22.4473  -41.4620   -6.4903 C   0  0  0  0  0  0  0  0  0  0  0  0
  -23.3636  -40.4967   -6.1348 C   0  0  0  0  0  0  0  0  0  0  0  0
  -22.9004  -39.4513   -5.3731 C   0  0  0  0  0  0  0  0  0  0  0  0
  -21.5841  -39.3453   -4.9681 C   0  0  0  0  0  0  0  0  0  0  0  0
  -22.9009  -42.6206   -7.3145 C   0  0  0  0  0  0  0  0  0  0  0  0
  -24.0495  -43.3407   -6.6585 C   0  0  0  0  0  0  0  0  0  0  0  0
  -23.2886  -42.0988   -8.7051 C   0  0  0  0  0  0  0  0  0  0  0  0
  1  2  1  0
  2  3  1  0
  3  4  2  0
  4  5  1  0
  5  6  2  0
  6  7  1  0
  8  7  1  1
  8  9  1  0
  9 10  1  0
 10 11  2  0
 10 12  1  0
 12 13  2  0
 13 14  1  0
 14 15  1  0
 15 16  1  0
 14 17  2  0
 17 18  1  0
 18 19  2  0
 18 20  1  0
 20 21  1  0
 21 22  1  0
 22 23  1  0
 23 24  1  0
 24 25  1  0
 25 26  1  0
 26 27  2  0
  8 28  1  0
 28 29  1  6
 28 30  1  0
 30 31  1  0
 31 32  1  0
 32 33  1  0
 33 34  2  0
 34 35  1  0
 35 36  2  0
 36 37  1  0
 37 38  2  0
 35 39  1  0
 39 40  1  0
 39 41  1  0
 19 12  1  0
 26  3  1  0
 27  6  1  0
 38 33  1  0
M  END
$$$$
