
     RDKit          3D

 41 44  0  0  0  0  0  0  0  0999 V2000
  -24.0316  -44.1757  -10.3561 C   0  0  0  0  0  0  0  0  0  0  0  0
  -23.5193  -43.0120   -9.8021 O   0  0  0  0  0  0  0  0  0  0  0  0
  -22.1266  -42.7644   -9.6793 C   0  0  0  0  0  0  0  0  0  0  0  0
  -21.5334  -42.2528  -10.8092 C   0  0  0  0  0  0  0  0  0  0  0  0
  -20.1856  -42.0168  -10.6902 C   0  0  0  0  0  0  0  0  0  0  0  0
  -19.4397  -42.2672   -9.5233 C   0  0  0  0  0  0  0  0  0  0  0  0
  -17.9928  -41.8761   -9.7113 C   0  0  0  0  0  0  0  0  0  0  0  0
  -17.4478  -40.8480   -8.7956 C   0  0  2  0  0  0  0  0  0  0  0  0
  -17.4564  -39.5471   -9.3932 N   0  0  0  0  0  0  0  0  0  0  0  0
  -18.2271  -38.4422   -8.9358 C   0  0  0  0  0  0  0  0  0  0  0  0
  -18.1440  -37.4409   -9.7687 O   0  0  0  0  0  0  0  0  0  0  0  0
  -19.0540  -38.2521   -7.7407 C   0  0  0  0  0  0  0  0  0  0  0  0
  -18.7643  -36.9752   -7.1772 C   0  0  0  0  0  0  0  0  0  0  0  0
  -19.3444  -36.5003   -6.0375 C   0  0  0  0  0  0  0  0  0  0  0  0
  -19.0094  -35.1580   -5.4736 C   0  0  0  0  0  0  0  0  0  0  0  0
  -17.9753  -34.5693   -6.1848 O   0  0  0  0  0  0  0  0  0  0  0  0
  -20.2436  -37.3262   -5.4401 C   0  0  0  0  0  0  0  0  0  0  0  0
  -20.5859  -38.6141   -5.9410 C   0  0  0  0  0  0  0  0  0  0  0  0
  -19.9804  -39.0652   -7.1020 C   0  0  0  0  0  0  0  0  0  0  0  0
  -21.5309  -39.2134   -5.0566 N   0  0  0  0  0  0  0  0  0  0  0  0
  -21.5526  -40.5418   -4.4378 C   0  0  0  0  0  0  0  0  0  0  0  0
  -22.8295  -41.2753   -4.6490 C   0  0  0  0  0  0  0  0  0  0  0  0
  -23.0363  -41.6968   -6.0838 C   0  0  0  0  0  0  0  0  0  0  0  0
  -22.6035  -43.1137   -6.2146 C   0  0  0  0  0  0  0  0  0  0  0  0
  -22.2652  -43.5315   -7.5147 O   0  0  0  0  0  0  0  0  0  0  0  0
  -21.4239  -43.0291   -8.4925 C   0  0  0  0  0  0  0  0  0  0  0  0
  -20.0518  -42.7768   -8.4191 C   0  0  0  0  0  0  0  0  0  0  0  0
  -16.0930  -41.1818   -8.2705 C   0  0  2  0  0  0  0  0  0  0  0  0
  -15.6759  -40.1739   -7.3355 O   0  0  0  0  0  0  0  0  0  0  0  0
  -14.9803  -41.3990   -9.2136 C   0  0  0  0  0  0  0  0  0  0  0  0
  -14.9922  -42.5981  -10.0004 N   0  0  0  0  0  0  0  0  0  0  0  0
  -14.7421  -42.3170  -11.4074 C   0  0  0  0  0  0  0  0  0  0  0  0
  -14.0651  -41.0375  -11.6606 C   0  0  0  0  0  0  0  0  0  0  0  0
  -14.7230  -39.8029  -11.6132 C   0  0  0  0  0  0  0  0  0  0  0  0
  -14.0787  -38.6346  -11.8903 C   0  0  0  0  0  0  0  0  0  0  0  0
  -12.7440  -38.6057  -12.2302 C   0  0  0  0  0  0  0  0  0  0  0  0
  -12.0891  -39.8125  -12.2779 C   0  0  0  0  0  0  0  0  0  0  0  0
  -12.7124  -41.0143  -12.0040 C   0  0  0  0  0  0  0  0  0  0  0  0
  -14.8348  -37.3498  -11.8207 C   0  0  0  0  0  0  0  0  0  0  0  0
  -15.7826  -37.2105  -12.9828 C   0  0  0  0  0  0  0  0  0  0  0  0
  -15.5821  -37.3037  -10.4806 C   0  0  0  0  0  0  0  0  0  0  0  0
  1  2  1  0
  2  3  1  0
  3  4  2  0
  4  5  1  0
  5  6  2  0
  6  7  1  0
  8  7  1  6
  8  9  1  0
  9 10  1  0
 10 11  2  0
 10 12  1  0
 12 13  2  0
 13 14  1  0
 14 15  1  0
 15 16  1  0
 14 17  2  0
 17 18  1  0
 18 19  2  0
 18 20  1  0
 20 21  1  0
 21 22  1  0
 22 23  1  0
 23 24  1  0
 24 25  1  0
 25 26  1  0
 26 27  2  0
  8 28  1  0
 28 29  1  1
 28 30  1  0
 30 31  1  0
 31 32  1  0
 32 33  1  0
 33 34  2  0
 34 35  1  0
 35 36  2  0
 36 37  1  0
 37 38  2  0
 35 39  1  0
 39 40  1  0
 39 41  1  0
 19 12  1  0
 26  3  1  0
 27  6  1  0
 38 33  1  0
M  END
$$$$
