
     RDKit          3D

 41 44  0  0  0  0  0  0  0  0999 V2000
  -24.3481  -40.3510   -3.1244 C   0  0  0  0  0  0  0  0  0  0  0  0
  -23.8256  -41.1855   -4.1014 O   0  0  0  0  0  0  0  0  0  0  0  0
  -22.7914  -40.7830   -4.9871 C   0  0  0  0  0  0  0  0  0  0  0  0
  -21.7281  -40.1574   -4.3802 C   0  0  0  0  0  0  0  0  0  0  0  0
  -20.7299  -39.7656   -5.2384 C   0  0  0  0  0  0  0  0  0  0  0  0
  -20.7594  -39.9700   -6.6305 C   0  0  0  0  0  0  0  0  0  0  0  0
  -19.5005  -39.4472   -7.2812 C   0  0  0  0  0  0  0  0  0  0  0  0
  -18.6742  -40.4211   -8.0304 C   0  0  2  0  0  0  0  0  0  0  0  0
  -17.5819  -40.9067   -7.2428 N   0  0  0  0  0  0  0  0  0  0  0  0
  -17.4142  -42.2549   -6.8201 C   0  0  0  0  0  0  0  0  0  0  0  0
  -16.4111  -42.3610   -5.9921 O   0  0  0  0  0  0  0  0  0  0  0  0
  -18.1440  -43.4827   -7.1488 C   0  0  0  0  0  0  0  0  0  0  0  0
  -17.2043  -44.5212   -7.4141 C   0  0  0  0  0  0  0  0  0  0  0  0
  -17.5569  -45.7873   -7.7798 C   0  0  0  0  0  0  0  0  0  0  0  0
  -16.5416  -46.8478   -8.0563 C   0  0  0  0  0  0  0  0  0  0  0  0
  -16.3507  -47.0030   -9.4205 O   0  0  0  0  0  0  0  0  0  0  0  0
  -18.8910  -46.0256   -7.8841 C   0  0  0  0  0  0  0  0  0  0  0  0
  -19.8899  -45.0420   -7.6357 C   0  0  0  0  0  0  0  0  0  0  0  0
  -19.4980  -43.7669   -7.2636 C   0  0  0  0  0  0  0  0  0  0  0  0
  -21.1721  -45.6228   -7.8660 N   0  0  0  0  0  0  0  0  0  0  0  0
  -22.3095  -45.1460   -8.6578 C   0  0  0  0  0  0  0  0  0  0  0  0
  -23.5920  -45.1264   -7.9043 C   0  0  0  0  0  0  0  0  0  0  0  0
  -23.6222  -44.0761   -6.8203 C   0  0  0  0  0  0  0  0  0  0  0  0
  -24.3209  -42.8786   -7.3584 C   0  0  0  0  0  0  0  0  0  0  0  0
  -24.0372  -41.6629   -6.7096 O   0  0  0  0  0  0  0  0  0  0  0  0
  -22.8644  -41.0100   -6.3711 C   0  0  0  0  0  0  0  0  0  0  0  0
  -21.8261  -40.5899   -7.2061 C   0  0  0  0  0  0  0  0  0  0  0  0
  -18.1930  -39.9028   -9.3428 C   0  0  2  0  0  0  0  0  0  0  0  0
  -19.1612  -40.1972  -10.3625 O   0  0  0  0  0  0  0  0  0  0  0  0
  -16.8734  -40.3215   -9.8509 C   0  0  0  0  0  0  0  0  0  0  0  0
  -15.7113  -39.6778   -9.3101 N   0  0  0  0  0  0  0  0  0  0  0  0
  -15.9147  -38.2432   -9.1623 C   0  0  0  0  0  0  0  0  0  0  0  0
  -16.6187  -37.6101  -10.2863 C   0  0  0  0  0  0  0  0  0  0  0  0
  -16.3913  -36.2869  -10.6820 C   0  0  0  0  0  0  0  0  0  0  0  0
  -17.0866  -35.7132  -11.7038 C   0  0  0  0  0  0  0  0  0  0  0  0
  -18.0498  -36.4058  -12.4040 C   0  0  0  0  0  0  0  0  0  0  0  0
  -18.2792  -37.7060  -12.0241 C   0  0  0  0  0  0  0  0  0  0  0  0
  -17.5932  -38.3170  -10.9925 C   0  0  0  0  0  0  0  0  0  0  0  0
  -16.7968  -34.2983  -12.0800 C   0  0  0  0  0  0  0  0  0  0  0  0
  -16.5582  -33.4471  -10.8606 C   0  0  0  0  0  0  0  0  0  0  0  0
  -15.5797  -34.2892  -13.0155 C   0  0  0  0  0  0  0  0  0  0  0  0
  1  2  1  0
  2  3  1  0
  3  4  2  0
  4  5  1  0
  5  6  2  0
  6  7  1  0
  8  7  1  1
  8  9  1  0
  9 10  1  0
 10 11  2  0
 10 12  1  0
 12 13  2  0
 13 14  1  0
 14 15  1  0
 15 16  1  0
 14 17  2  0
 17 18  1  0
 18 19  2  0
 18 20  1  0
 20 21  1  0
 21 22  1  0
 22 23  1  0
 23 24  1  0
 24 25  1  0
 25 26  1  0
 26 27  2  0
  8 28  1  0
 28 29  1  6
 28 30  1  0
 30 31  1  0
 31 32  1  0
 32 33  1  0
 33 34  2  0
 34 35  1  0
 35 36  2  0
 36 37  1  0
 37 38  2  0
 35 39  1  0
 39 40  1  0
 39 41  1  0
 19 12  1  0
 26  3  1  0
 27  6  1  0
 38 33  1  0
M  END
$$$$
