
     RDKit          3D

 41 44  0  0  0  0  0  0  0  0999 V2000
  -22.4935  -41.6267   -1.9742 C   0  0  0  0  0  0  0  0  0  0  0  0
  -22.5291  -41.6971   -3.3589 O   0  0  0  0  0  0  0  0  0  0  0  0
  -21.7268  -40.8753   -4.1938 C   0  0  0  0  0  0  0  0  0  0  0  0
  -20.5933  -40.3809   -3.5930 C   0  0  0  0  0  0  0  0  0  0  0  0
  -19.8198  -39.5835   -4.4006 C   0  0  0  0  0  0  0  0  0  0  0  0
  -20.1311  -39.2751   -5.7379 C   0  0  0  0  0  0  0  0  0  0  0  0
  -19.0662  -38.3983   -6.3533 C   0  0  0  0  0  0  0  0  0  0  0  0
  -18.3669  -38.9243   -7.5479 C   0  0  2  0  0  0  0  0  0  0  0  0
  -17.1096  -39.5184   -7.2078 N   0  0  0  0  0  0  0  0  0  0  0  0
  -16.7873  -40.8955   -7.3627 C   0  0  0  0  0  0  0  0  0  0  0  0
  -15.6282  -41.1646   -6.8268 O   0  0  0  0  0  0  0  0  0  0  0  0
  -17.5054  -42.0045   -7.9971 C   0  0  0  0  0  0  0  0  0  0  0  0
  -16.5902  -42.7501   -8.7962 C   0  0  0  0  0  0  0  0  0  0  0  0
  -16.9459  -43.8334   -9.5451 C   0  0  0  0  0  0  0  0  0  0  0  0
  -15.9582  -44.5856  -10.3760 C   0  0  0  0  0  0  0  0  0  0  0  0
  -16.1658  -44.3456  -11.7254 O   0  0  0  0  0  0  0  0  0  0  0  0
  -18.2580  -44.1850   -9.4951 C   0  0  0  0  0  0  0  0  0  0  0  0
  -19.2316  -43.4917   -8.7218 C   0  0  0  0  0  0  0  0  0  0  0  0
  -18.8367  -42.3973   -7.9706 C   0  0  0  0  0  0  0  0  0  0  0  0
  -20.5018  -44.1080   -8.9250 N   0  0  0  0  0  0  0  0  0  0  0  0
  -21.8035  -43.5262   -9.2643 C   0  0  0  0  0  0  0  0  0  0  0  0
  -22.8979  -43.9416   -8.3462 C   0  0  0  0  0  0  0  0  0  0  0  0
  -22.7534  -43.3647   -6.9586 C   0  0  0  0  0  0  0  0  0  0  0  0
  -23.6108  -42.1526   -6.8721 C   0  0  0  0  0  0  0  0  0  0  0  0
  -23.2601  -41.2265   -5.8728 O   0  0  0  0  0  0  0  0  0  0  0  0
  -22.0777  -40.5963   -5.5248 C   0  0  0  0  0  0  0  0  0  0  0  0
  -21.2616  -39.7761   -6.3077 C   0  0  0  0  0  0  0  0  0  0  0  0
  -18.2003  -37.9120   -8.6295 C   0  0  2  0  0  0  0  0  0  0  0  0
  -19.2253  -38.0908   -9.6202 O   0  0  0  0  0  0  0  0  0  0  0  0
  -16.9114  -37.8106   -9.3390 C   0  0  0  0  0  0  0  0  0  0  0  0
  -15.8451  -38.6732   -8.9194 N   0  0  0  0  0  0  0  0  0  0  0  0
  -15.0267  -39.0989  -10.0464 C   0  0  0  0  0  0  0  0  0  0  0  0
  -14.1899  -38.0384  -10.6248 C   0  0  0  0  0  0  0  0  0  0  0  0
  -14.7188  -36.9201  -11.2799 C   0  0  0  0  0  0  0  0  0  0  0  0
  -13.9181  -35.9710  -11.8409 C   0  0  0  0  0  0  0  0  0  0  0  0
  -12.5442  -36.0601  -11.7916 C   0  0  0  0  0  0  0  0  0  0  0  0
  -12.0155  -37.1534  -11.1492 C   0  0  0  0  0  0  0  0  0  0  0  0
  -12.7984  -38.1336  -10.5713 C   0  0  0  0  0  0  0  0  0  0  0  0
  -14.5424  -34.8002  -12.5242 C   0  0  0  0  0  0  0  0  0  0  0  0
  -13.9738  -33.5027  -12.0129 C   0  0  0  0  0  0  0  0  0  0  0  0
  -14.3207  -34.9512  -14.0356 C   0  0  0  0  0  0  0  0  0  0  0  0
  1  2  1  0
  2  3  1  0
  3  4  2  0
  4  5  1  0
  5  6  2  0
  6  7  1  0
  8  7  1  1
  8  9  1  0
  9 10  1  0
 10 11  2  0
 10 12  1  0
 12 13  2  0
 13 14  1  0
 14 15  1  0
 15 16  1  0
 14 17  2  0
 17 18  1  0
 18 19  2  0
 18 20  1  0
 20 21  1  0
 21 22  1  0
 22 23  1  0
 23 24  1  0
 24 25  1  0
 25 26  1  0
 26 27  2  0
  8 28  1  0
 28 29  1  6
 28 30  1  0
 30 31  1  0
 31 32  1  0
 32 33  1  0
 33 34  2  0
 34 35  1  0
 35 36  2  0
 36 37  1  0
 37 38  2  0
 35 39  1  0
 39 40  1  0
 39 41  1  0
 19 12  1  0
 26  3  1  0
 27  6  1  0
 38 33  1  0
M  END
$$$$
