
     RDKit          3D

 41 44  0  0  0  0  0  0  0  0999 V2000
  -18.8211  -34.9697  -14.6867 C   0  0  0  0  0  0  0  0  0  0  0  0
  -17.8726  -35.8690  -14.2226 O   0  0  0  0  0  0  0  0  0  0  0  0
  -17.8317  -36.3210  -12.8772 C   0  0  0  0  0  0  0  0  0  0  0  0
  -18.9623  -36.9828  -12.4601 C   0  0  0  0  0  0  0  0  0  0  0  0
  -18.9227  -37.4166  -11.1575 C   0  0  0  0  0  0  0  0  0  0  0  0
  -17.8318  -37.2170  -10.2911 C   0  0  0  0  0  0  0  0  0  0  0  0
  -18.0940  -37.8370   -8.9389 C   0  0  0  0  0  0  0  0  0  0  0  0
  -17.1498  -38.8819   -8.4816 C   0  0  2  0  0  0  0  0  0  0  0  0
  -17.6532  -40.1983   -8.7327 N   0  0  0  0  0  0  0  0  0  0  0  0
  -17.0666  -41.1427   -9.6205 C   0  0  0  0  0  0  0  0  0  0  0  0
  -17.8315  -42.1914   -9.7553 O   0  0  0  0  0  0  0  0  0  0  0  0
  -15.8056  -41.1331  -10.3676 C   0  0  0  0  0  0  0  0  0  0  0  0
  -15.1764  -42.4046  -10.2276 C   0  0  0  0  0  0  0  0  0  0  0  0
  -13.9683  -42.7173  -10.7785 C   0  0  0  0  0  0  0  0  0  0  0  0
  -13.3374  -44.0601  -10.6036 C   0  0  0  0  0  0  0  0  0  0  0  0
  -11.9734  -43.9390  -10.3880 O   0  0  0  0  0  0  0  0  0  0  0  0
  -13.3678  -41.7291  -11.4930 C   0  0  0  0  0  0  0  0  0  0  0  0
  -13.9317  -40.4351  -11.6782 C   0  0  0  0  0  0  0  0  0  0  0  0
  -15.1612  -40.1511  -11.1076 C   0  0  0  0  0  0  0  0  0  0  0  0
  -13.0265  -39.6469  -12.4488 N   0  0  0  0  0  0  0  0  0  0  0  0
  -12.5019  -38.2973  -12.2217 C   0  0  0  0  0  0  0  0  0  0  0  0
  -12.6727  -37.3891  -13.3875 C   0  0  0  0  0  0  0  0  0  0  0  0
  -14.1152  -37.0247  -13.6438 C   0  0  0  0  0  0  0  0  0  0  0  0
  -14.3746  -35.7017  -13.0160 C   0  0  0  0  0  0  0  0  0  0  0  0
  -15.7214  -35.4173  -12.7249 O   0  0  0  0  0  0  0  0  0  0  0  0
  -16.7189  -36.0994  -12.0496 C   0  0  0  0  0  0  0  0  0  0  0  0
  -16.7253  -36.5558  -10.7292 C   0  0  0  0  0  0  0  0  0  0  0  0
  -16.7463  -38.7313   -7.0544 C   0  0  2  0  0  0  0  0  0  0  0  0
  -15.5422  -37.9518   -6.9728 O   0  0  0  0  0  0  0  0  0  0  0  0
  -16.5532  -39.9332   -6.2220 C   0  0  0  0  0  0  0  0  0  0  0  0
  -17.6983  -40.7540   -5.9532 N   0  0  0  0  0  0  0  0  0  0  0  0
  -18.8256  -39.9614   -5.4818 C   0  0  0  0  0  0  0  0  0  0  0  0
  -20.1340  -40.4105   -5.9777 C   0  0  0  0  0  0  0  0  0  0  0  0
  -20.9115  -41.3707   -5.3199 C   0  0  0  0  0  0  0  0  0  0  0  0
  -22.1040  -41.7968   -5.8230 C   0  0  0  0  0  0  0  0  0  0  0  0
  -22.6097  -41.3035   -7.0057 C   0  0  0  0  0  0  0  0  0  0  0  0
  -21.8545  -40.3593   -7.6581 C   0  0  0  0  0  0  0  0  0  0  0  0
  -20.6416  -39.9067   -7.1763 C   0  0  0  0  0  0  0  0  0  0  0  0
  -22.8880  -42.8220   -5.0735 C   0  0  0  0  0  0  0  0  0  0  0  0
  -22.7731  -42.6170   -3.5859 C   0  0  0  0  0  0  0  0  0  0  0  0
  -24.3491  -42.7441   -5.5378 C   0  0  0  0  0  0  0  0  0  0  0  0
  1  2  1  0
  2  3  1  0
  3  4  2  0
  4  5  1  0
  5  6  2  0
  6  7  1  0
  8  7  1  1
  8  9  1  0
  9 10  1  0
 10 11  2  0
 10 12  1  0
 12 13  2  0
 13 14  1  0
 14 15  1  0
 15 16  1  0
 14 17  2  0
 17 18  1  0
 18 19  2  0
 18 20  1  0
 20 21  1  0
 21 22  1  0
 22 23  1  0
 23 24  1  0
 24 25  1  0
 25 26  1  0
 26 27  2  0
  8 28  1  0
 28 29  1  6
 28 30  1  0
 30 31  1  0
 31 32  1  0
 32 33  1  0
 33 34  2  0
 34 35  1  0
 35 36  2  0
 36 37  1  0
 37 38  2  0
 35 39  1  0
 39 40  1  0
 39 41  1  0
 19 12  1  0
 26  3  1  0
 27  6  1  0
 38 33  1  0
M  END
$$$$
