
     RDKit          3D

 41 44  0  0  0  0  0  0  0  0999 V2000
  -18.6474  -35.0013  -13.8841 C   0  0  0  0  0  0  0  0  0  0  0  0
  -17.4967  -35.5102  -13.3006 O   0  0  0  0  0  0  0  0  0  0  0  0
  -17.4752  -36.0648  -11.9937 C   0  0  0  0  0  0  0  0  0  0  0  0
  -18.7046  -36.1410  -11.3829 C   0  0  0  0  0  0  0  0  0  0  0  0
  -18.6821  -36.6746  -10.1175 C   0  0  0  0  0  0  0  0  0  0  0  0
  -17.5149  -37.1166   -9.4672 C   0  0  0  0  0  0  0  0  0  0  0  0
  -17.8347  -37.6724   -8.0995 C   0  0  0  0  0  0  0  0  0  0  0  0
  -17.4691  -39.0842   -7.8430 C   0  0  2  0  0  0  0  0  0  0  0  0
  -18.5871  -39.9614   -8.0158 N   0  0  0  0  0  0  0  0  0  0  0  0
  -18.6871  -40.9722   -9.0121 C   0  0  0  0  0  0  0  0  0  0  0  0
  -19.8794  -41.5029   -9.0177 O   0  0  0  0  0  0  0  0  0  0  0  0
  -17.7183  -41.4918   -9.9814 C   0  0  0  0  0  0  0  0  0  0  0  0
  -17.7833  -42.9158   -9.9811 C   0  0  0  0  0  0  0  0  0  0  0  0
  -16.9878  -43.7111  -10.7528 C   0  0  0  0  0  0  0  0  0  0  0  0
  -17.0810  -45.2018  -10.7196 C   0  0  0  0  0  0  0  0  0  0  0  0
  -15.8511  -45.7783  -10.9961 O   0  0  0  0  0  0  0  0  0  0  0  0
  -16.0980  -43.0647  -11.5517 C   0  0  0  0  0  0  0  0  0  0  0  0
  -15.9730  -41.6477  -11.6082 C   0  0  0  0  0  0  0  0  0  0  0  0
  -16.7978  -40.8692  -10.8136 C   0  0  0  0  0  0  0  0  0  0  0  0
  -14.9294  -41.3159  -12.5220 N   0  0  0  0  0  0  0  0  0  0  0  0
  -13.7806  -40.4175  -12.3762 C   0  0  0  0  0  0  0  0  0  0  0  0
  -13.6609  -39.4222  -13.4754 C   0  0  0  0  0  0  0  0  0  0  0  0
  -14.7570  -38.3843  -13.4520 C   0  0  0  0  0  0  0  0  0  0  0  0
  -14.2307  -37.1740  -12.7664 C   0  0  0  0  0  0  0  0  0  0  0  0
  -15.1992  -36.3093  -12.2244 O   0  0  0  0  0  0  0  0  0  0  0  0
  -16.2845  -36.4943  -11.3853 C   0  0  0  0  0  0  0  0  0  0  0  0
  -16.3097  -37.0272  -10.0941 C   0  0  0  0  0  0  0  0  0  0  0  0
  -16.8278  -39.2972   -6.5141 C   0  0  2  0  0  0  0  0  0  0  0  0
  -15.4628  -38.8515   -6.5598 O   0  0  0  0  0  0  0  0  0  0  0  0
  -16.8346  -40.6426   -5.9102 C   0  0  0  0  0  0  0  0  0  0  0  0
  -18.1053  -41.2556   -5.6521 N   0  0  0  0  0  0  0  0  0  0  0  0
  -18.9340  -40.4255   -4.7885 C   0  0  0  0  0  0  0  0  0  0  0  0
  -20.3596  -40.4118   -5.1446 C   0  0  0  0  0  0  0  0  0  0  0  0
  -20.9760  -39.3316   -5.7870 C   0  0  0  0  0  0  0  0  0  0  0  0
  -22.3088  -39.3301   -6.0707 C   0  0  0  0  0  0  0  0  0  0  0  0
  -23.1211  -40.3932   -5.7423 C   0  0  0  0  0  0  0  0  0  0  0  0
  -22.5250  -41.4590   -5.1128 C   0  0  0  0  0  0  0  0  0  0  0  0
  -21.1777  -41.4920   -4.8099 C   0  0  0  0  0  0  0  0  0  0  0  0
  -22.9071  -38.1490   -6.7593 C   0  0  0  0  0  0  0  0  0  0  0  0
  -23.1121  -38.4186   -8.2268 C   0  0  0  0  0  0  0  0  0  0  0  0
  -24.2316  -37.8065   -6.0630 C   0  0  0  0  0  0  0  0  0  0  0  0
  1  2  1  0
  2  3  1  0
  3  4  2  0
  4  5  1  0
  5  6  2  0
  6  7  1  0
  8  7  1  1
  8  9  1  0
  9 10  1  0
 10 11  2  0
 10 12  1  0
 12 13  2  0
 13 14  1  0
 14 15  1  0
 15 16  1  0
 14 17  2  0
 17 18  1  0
 18 19  2  0
 18 20  1  0
 20 21  1  0
 21 22  1  0
 22 23  1  0
 23 24  1  0
 24 25  1  0
 25 26  1  0
 26 27  2  0
  8 28  1  0
 28 29  1  6
 28 30  1  0
 30 31  1  0
 31 32  1  0
 32 33  1  0
 33 34  2  0
 34 35  1  0
 35 36  2  0
 36 37  1  0
 37 38  2  0
 35 39  1  0
 39 40  1  0
 39 41  1  0
 19 12  1  0
 26  3  1  0
 27  6  1  0
 38 33  1  0
M  END
$$$$
