
     RDKit          3D

 41 44  0  0  0  0  0  0  0  0999 V2000
  -12.9188  -34.8150  -14.2357 C   0  0  0  0  0  0  0  0  0  0  0  0
  -13.4787  -36.0372  -13.8947 O   0  0  0  0  0  0  0  0  0  0  0  0
  -14.0067  -36.3107  -12.6053 C   0  0  0  0  0  0  0  0  0  0  0  0
  -15.3251  -35.9580  -12.4389 C   0  0  0  0  0  0  0  0  0  0  0  0
  -15.8336  -36.2200  -11.1903 C   0  0  0  0  0  0  0  0  0  0  0  0
  -15.0950  -36.8001  -10.1421 C   0  0  0  0  0  0  0  0  0  0  0  0
  -15.9512  -36.9782   -8.9105 C   0  0  0  0  0  0  0  0  0  0  0  0
  -16.1149  -38.3573   -8.3967 C   0  0  2  0  0  0  0  0  0  0  0  0
  -17.3417  -38.9466   -8.8405 N   0  0  0  0  0  0  0  0  0  0  0  0
  -17.4425  -40.0771   -9.6984 C   0  0  0  0  0  0  0  0  0  0  0  0
  -18.6824  -40.2863  -10.0478 O   0  0  0  0  0  0  0  0  0  0  0  0
  -16.4336  -41.0012  -10.2242 C   0  0  0  0  0  0  0  0  0  0  0  0
  -16.9173  -42.3357  -10.0935 C   0  0  0  0  0  0  0  0  0  0  0  0
  -16.2058  -43.4394  -10.4632 C   0  0  0  0  0  0  0  0  0  0  0  0
  -16.7446  -44.8237  -10.3042 C   0  0  0  0  0  0  0  0  0  0  0  0
  -15.7519  -45.6925   -9.8782 O   0  0  0  0  0  0  0  0  0  0  0  0
  -14.9711  -43.2043  -10.9807 C   0  0  0  0  0  0  0  0  0  0  0  0
  -14.4186  -41.9023  -11.1429 C   0  0  0  0  0  0  0  0  0  0  0  0
  -15.1683  -40.8028  -10.7599 C   0  0  0  0  0  0  0  0  0  0  0  0
  -13.1042  -42.0264  -11.6827 N   0  0  0  0  0  0  0  0  0  0  0  0
  -11.8352  -41.4299  -11.2560 C   0  0  0  0  0  0  0  0  0  0  0  0
  -11.1083  -40.7324  -12.3507 C   0  0  0  0  0  0  0  0  0  0  0  0
  -11.8017  -39.4718  -12.8081 C   0  0  0  0  0  0  0  0  0  0  0  0
  -11.1632  -38.3188  -12.1191 C   0  0  0  0  0  0  0  0  0  0  0  0
  -11.9440  -37.1519  -12.0299 O   0  0  0  0  0  0  0  0  0  0  0  0
  -13.2307  -36.8929  -11.5898 C   0  0  0  0  0  0  0  0  0  0  0  0
  -13.7899  -37.1375  -10.3331 C   0  0  0  0  0  0  0  0  0  0  0  0
  -15.9843  -38.4559   -6.9149 C   0  0  2  0  0  0  0  0  0  0  0  0
  -15.2768  -39.6583   -6.5716 O   0  0  0  0  0  0  0  0  0  0  0  0
  -17.1932  -38.3974   -6.0724 C   0  0  0  0  0  0  0  0  0  0  0  0
  -18.2754  -37.5636   -6.5091 N   0  0  0  0  0  0  0  0  0  0  0  0
  -19.3732  -37.5672   -5.5519 C   0  0  0  0  0  0  0  0  0  0  0  0
  -20.3527  -38.6438   -5.7544 C   0  0  0  0  0  0  0  0  0  0  0  0
  -20.7826  -39.4889   -4.7247 C   0  0  0  0  0  0  0  0  0  0  0  0
  -21.6632  -40.5042   -4.9492 C   0  0  0  0  0  0  0  0  0  0  0  0
  -22.1797  -40.7522   -6.2021 C   0  0  0  0  0  0  0  0  0  0  0  0
  -21.7649  -39.9270   -7.2192 C   0  0  0  0  0  0  0  0  0  0  0  0
  -20.8731  -38.8900   -7.0259 C   0  0  0  0  0  0  0  0  0  0  0  0
  -22.0851  -41.3700   -3.8092 C   0  0  0  0  0  0  0  0  0  0  0  0
  -22.6517  -40.5491   -2.6807 C   0  0  0  0  0  0  0  0  0  0  0  0
  -23.1100  -42.3866   -4.3311 C   0  0  0  0  0  0  0  0  0  0  0  0
  1  2  1  0
  2  3  1  0
  3  4  2  0
  4  5  1  0
  5  6  2  0
  6  7  1  0
  8  7  1  1
  8  9  1  0
  9 10  1  0
 10 11  2  0
 10 12  1  0
 12 13  2  0
 13 14  1  0
 14 15  1  0
 15 16  1  0
 14 17  2  0
 17 18  1  0
 18 19  2  0
 18 20  1  0
 20 21  1  0
 21 22  1  0
 22 23  1  0
 23 24  1  0
 24 25  1  0
 25 26  1  0
 26 27  2  0
  8 28  1  0
 28 29  1  6
 28 30  1  0
 30 31  1  0
 31 32  1  0
 32 33  1  0
 33 34  2  0
 34 35  1  0
 35 36  2  0
 36 37  1  0
 37 38  2  0
 35 39  1  0
 39 40  1  0
 39 41  1  0
 19 12  1  0
 26  3  1  0
 27  6  1  0
 38 33  1  0
M  END
$$$$
