
     RDKit          3D

 30 32  0  0  0  0  0  0  0  0999 V2000
  -20.3531  -38.8091  -13.6548 C   0  0  0  0  0  0  0  0  0  0  0  0
  -19.0037  -38.9879  -13.3616 O   0  0  0  0  0  0  0  0  0  0  0  0
  -18.7957  -40.3552  -13.2171 C   0  0  0  0  0  0  0  0  0  0  0  0
  -19.0303  -40.8212  -11.8254 C   0  0  0  0  0  0  0  0  0  0  0  0
  -20.0873  -41.6204  -11.4897 C   0  0  0  0  0  0  0  0  0  0  0  0
  -20.3430  -42.0858  -10.1705 C   0  0  0  0  0  0  0  0  0  0  0  0
  -19.4871  -41.7210   -9.1561 C   0  0  0  0  0  0  0  0  0  0  0  0
  -18.4127  -40.9181   -9.4473 C   0  0  0  0  0  0  0  0  0  0  0  0
  -18.2084  -40.4851  -10.7843 C   0  0  0  0  0  0  0  0  0  0  0  0
  -17.3415  -40.3703   -8.5929 C   0  0  0  0  0  0  0  0  0  0  0  0
  -16.1029  -40.3818   -9.0776 O   0  0  0  0  0  0  0  0  0  0  0  0
  -17.3169  -39.8036   -7.3131 N   0  0  0  0  0  0  0  0  0  0  0  0
  -18.1041  -38.6292   -6.8771 C   0  0  1  0  0  0  0  0  0  0  0  0
  -18.4940  -38.9381   -5.4454 C   0  0  0  0  0  0  0  0  0  0  0  0
  -19.8589  -39.5668   -5.3389 C   0  0  0  0  0  0  0  0  0  0  0  0
  -20.8188  -38.6083   -4.9389 C   0  0  0  0  0  0  0  0  0  0  0  0
  -22.1556  -38.8742   -4.8245 C   0  0  0  0  0  0  0  0  0  0  0  0
  -22.5248  -40.1607   -5.1309 C   0  0  0  0  0  0  0  0  0  0  0  0
  -21.6021  -41.1509   -5.5364 C   0  0  0  0  0  0  0  0  0  0  0  0
  -20.2486  -40.8401   -5.6340 C   0  0  0  0  0  0  0  0  0  0  0  0
  -22.2428  -42.3490   -5.7941 O   0  0  0  0  0  0  0  0  0  0  0  0
  -22.4067  -43.1996   -6.8784 C   0  0  0  0  0  0  0  0  0  0  0  0
  -21.3316  -44.2069   -7.0536 C   0  0  0  0  0  0  0  0  0  0  0  0
  -21.0193  -44.6065   -8.4627 C   0  0  0  0  0  0  0  0  0  0  0  0
  -21.9270  -44.0999   -9.5212 C   0  0  0  0  0  0  0  0  0  0  0  0
  -21.5316  -42.8757  -10.1732 N   0  0  0  0  0  0  0  0  0  0  0  0
  -17.2469  -37.3924   -6.9675 C   0  0  2  0  0  0  0  0  0  0  0  0
  -17.9731  -36.2444   -7.2721 O   0  0  0  0  0  0  0  0  0  0  0  0
  -16.0430  -37.4850   -7.8222 C   0  0  0  0  0  0  0  0  0  0  0  0
  -15.3634  -38.7299   -7.8800 N   0  0  0  0  0  0  0  0  0  0  0  0
  1  2  1  0
  2  3  1  0
  3  4  1  0
  4  5  2  0
  5  6  1  0
  6  7  2  0
  7  8  1  0
  8  9  2  0
  8 10  1  0
 10 11  2  0
 10 12  1  0
 12 13  1  0
 13 14  1  1
 14 15  1  0
 15 16  2  0
 16 17  1  0
 17 18  2  0
 18 19  1  0
 19 20  2  0
 19 21  1  0
 21 22  1  0
 22 23  1  0
 23 24  1  0
 24 25  1  0
 25 26  1  0
 13 27  1  0
 27 28  1  6
 27 29  1  0
 29 30  1  0
  9  4  1  0
 20 15  1  0
 26  6  1  0
M  END
$$$$
