
     RDKit          3D

 30 32  0  0  0  0  0  0  0  0999 V2000
  -14.4073  -44.5664  -12.5149 C   0  0  0  0  0  0  0  0  0  0  0  0
  -15.0995  -43.9457  -11.4784 O   0  0  0  0  0  0  0  0  0  0  0  0
  -16.2403  -44.7038  -11.2388 C   0  0  0  0  0  0  0  0  0  0  0  0
  -17.0829  -44.1345  -10.1550 C   0  0  0  0  0  0  0  0  0  0  0  0
  -18.3868  -44.5021   -9.9721 C   0  0  0  0  0  0  0  0  0  0  0  0
  -19.2225  -43.9799   -8.9468 C   0  0  0  0  0  0  0  0  0  0  0  0
  -18.7071  -43.0470   -8.0758 C   0  0  0  0  0  0  0  0  0  0  0  0
  -17.4023  -42.6475   -8.2228 C   0  0  0  0  0  0  0  0  0  0  0  0
  -16.6160  -43.2052   -9.2657 C   0  0  0  0  0  0  0  0  0  0  0  0
  -16.5828  -41.6849   -7.4617 C   0  0  0  0  0  0  0  0  0  0  0  0
  -15.3264  -42.0272   -7.1906 O   0  0  0  0  0  0  0  0  0  0  0  0
  -16.8275  -40.4156   -6.9243 N   0  0  0  0  0  0  0  0  0  0  0  0
  -17.2972  -39.2360   -7.6838 C   0  0  1  0  0  0  0  0  0  0  0  0
  -18.2403  -38.5203   -6.7374 C   0  0  0  0  0  0  0  0  0  0  0  0
  -19.6805  -38.9072   -6.9514 C   0  0  0  0  0  0  0  0  0  0  0  0
  -20.3587  -37.9116   -7.6923 C   0  0  0  0  0  0  0  0  0  0  0  0
  -21.6608  -38.0208   -8.0966 C   0  0  0  0  0  0  0  0  0  0  0  0
  -22.2904  -39.1860   -7.7346 C   0  0  0  0  0  0  0  0  0  0  0  0
  -21.6531  -40.2086   -6.9967 C   0  0  0  0  0  0  0  0  0  0  0  0
  -20.3279  -40.0548   -6.5990 C   0  0  0  0  0  0  0  0  0  0  0  0
  -22.5105  -41.2721   -6.7818 O   0  0  0  0  0  0  0  0  0  0  0  0
  -22.5478  -42.6244   -7.0915 C   0  0  0  0  0  0  0  0  0  0  0  0
  -21.8624  -43.5099   -6.1181 C   0  0  0  0  0  0  0  0  0  0  0  0
  -21.2223  -44.7426   -6.6781 C   0  0  0  0  0  0  0  0  0  0  0  0
  -21.4889  -45.0486   -8.1051 C   0  0  0  0  0  0  0  0  0  0  0  0
  -20.5208  -44.5620   -9.0571 N   0  0  0  0  0  0  0  0  0  0  0  0
  -16.1150  -38.3752   -8.0501 C   0  0  2  0  0  0  0  0  0  0  0  0
  -16.4163  -37.4106   -9.0075 O   0  0  0  0  0  0  0  0  0  0  0  0
  -14.8669  -39.0853   -8.4060 C   0  0  0  0  0  0  0  0  0  0  0  0
  -14.8392  -39.8085   -9.6272 N   0  0  0  0  0  0  0  0  0  0  0  0
  1  2  1  0
  2  3  1  0
  3  4  1  0
  4  5  2  0
  5  6  1  0
  6  7  2  0
  7  8  1  0
  8  9  2  0
  8 10  1  0
 10 11  2  0
 10 12  1  0
 12 13  1  0
 13 14  1  1
 14 15  1  0
 15 16  2  0
 16 17  1  0
 17 18  2  0
 18 19  1  0
 19 20  2  0
 19 21  1  0
 21 22  1  0
 22 23  1  0
 23 24  1  0
 24 25  1  0
 25 26  1  0
 13 27  1  0
 27 28  1  6
 27 29  1  0
 29 30  1  0
  9  4  1  0
 20 15  1  0
 26  6  1  0
M  END
$$$$
