
     RDKit          3D

 30 32  0  0  0  0  0  0  0  0999 V2000
  -17.5879  -48.0028   -7.2482 C   0  0  0  0  0  0  0  0  0  0  0  0
  -17.6313  -46.6272   -7.0370 O   0  0  0  0  0  0  0  0  0  0  0  0
  -18.5850  -46.1111   -7.9074 C   0  0  0  0  0  0  0  0  0  0  0  0
  -19.0981  -44.7875   -7.4673 C   0  0  0  0  0  0  0  0  0  0  0  0
  -20.4305  -44.5437   -7.2824 C   0  0  0  0  0  0  0  0  0  0  0  0
  -20.9575  -43.2917   -6.8619 C   0  0  0  0  0  0  0  0  0  0  0  0
  -20.0912  -42.2494   -6.6215 C   0  0  0  0  0  0  0  0  0  0  0  0
  -18.7445  -42.4487   -6.7956 C   0  0  0  0  0  0  0  0  0  0  0  0
  -18.2770  -43.7219   -7.2165 C   0  0  0  0  0  0  0  0  0  0  0  0
  -17.5916  -41.5443   -6.6207 C   0  0  0  0  0  0  0  0  0  0  0  0
  -16.5038  -42.0413   -6.0385 O   0  0  0  0  0  0  0  0  0  0  0  0
  -17.3541  -40.2031   -6.9438 N   0  0  0  0  0  0  0  0  0  0  0  0
  -17.4634  -39.6116   -8.2955 C   0  0  1  0  0  0  0  0  0  0  0  0
  -18.0333  -38.2264   -8.0638 C   0  0  0  0  0  0  0  0  0  0  0  0
  -19.5324  -38.1846   -8.2073 C   0  0  0  0  0  0  0  0  0  0  0  0
  -19.8974  -37.6542   -9.4665 C   0  0  0  0  0  0  0  0  0  0  0  0
  -21.1896  -37.5587   -9.9045 C   0  0  0  0  0  0  0  0  0  0  0  0
  -22.1403  -38.0221   -9.0289 C   0  0  0  0  0  0  0  0  0  0  0  0
  -21.8230  -38.5616   -7.7621 C   0  0  0  0  0  0  0  0  0  0  0  0
  -20.4946  -38.6349   -7.3520 C   0  0  0  0  0  0  0  0  0  0  0  0
  -22.9656  -38.9622   -7.0942 O   0  0  0  0  0  0  0  0  0  0  0  0
  -23.4770  -40.1441   -6.5767 C   0  0  0  0  0  0  0  0  0  0  0  0
  -23.0495  -40.4590   -5.1913 C   0  0  0  0  0  0  0  0  0  0  0  0
  -22.9054  -41.9112   -4.8549 C   0  0  0  0  0  0  0  0  0  0  0  0
  -23.3741  -42.8856   -5.8707 C   0  0  0  0  0  0  0  0  0  0  0  0
  -22.3801  -43.3808   -6.7909 N   0  0  0  0  0  0  0  0  0  0  0  0
  -16.0958  -39.5538   -8.9271 C   0  0  2  0  0  0  0  0  0  0  0  0
  -16.1298  -39.6486  -10.3155 O   0  0  0  0  0  0  0  0  0  0  0  0
  -15.0732  -40.4669   -8.3711 C   0  0  0  0  0  0  0  0  0  0  0  0
  -15.2415  -40.9187   -7.0359 N   0  0  0  0  0  0  0  0  0  0  0  0
  1  2  1  0
  2  3  1  0
  3  4  1  0
  4  5  2  0
  5  6  1  0
  6  7  2  0
  7  8  1  0
  8  9  2  0
  8 10  1  0
 10 11  2  0
 10 12  1  0
 12 13  1  0
 13 14  1  1
 14 15  1  0
 15 16  2  0
 16 17  1  0
 17 18  2  0
 18 19  1  0
 19 20  2  0
 19 21  1  0
 21 22  1  0
 22 23  1  0
 23 24  1  0
 24 25  1  0
 25 26  1  0
 13 27  1  0
 27 28  1  6
 27 29  1  0
 29 30  1  0
  9  4  1  0
 20 15  1  0
 26  6  1  0
M  END
$$$$
