
     RDKit          3D

 30 32  0  0  0  0  0  0  0  0999 V2000
  -17.3392  -41.4740  -13.3462 C   0  0  0  0  0  0  0  0  0  0  0  0
  -17.4767  -42.8182  -13.6824 O   0  0  0  0  0  0  0  0  0  0  0  0
  -17.0060  -43.5583  -12.6034 C   0  0  0  0  0  0  0  0  0  0  0  0
  -17.8295  -43.3667  -11.3811 C   0  0  0  0  0  0  0  0  0  0  0  0
  -19.1255  -43.7933  -11.2975 C   0  0  0  0  0  0  0  0  0  0  0  0
  -19.9429  -43.6281  -10.1456 C   0  0  0  0  0  0  0  0  0  0  0  0
  -19.4168  -43.0035   -9.0376 C   0  0  0  0  0  0  0  0  0  0  0  0
  -18.1194  -42.5576   -9.0772 C   0  0  0  0  0  0  0  0  0  0  0  0
  -17.3514  -42.7519  -10.2559 C   0  0  0  0  0  0  0  0  0  0  0  0
  -17.2920  -41.8659   -8.0699 C   0  0  0  0  0  0  0  0  0  0  0  0
  -16.0268  -42.2558   -7.9416 O   0  0  0  0  0  0  0  0  0  0  0  0
  -17.5363  -40.8300   -7.1606 N   0  0  0  0  0  0  0  0  0  0  0  0
  -18.0337  -39.4805   -7.5075 C   0  0  1  0  0  0  0  0  0  0  0  0
  -18.9620  -39.1087   -6.3686 C   0  0  0  0  0  0  0  0  0  0  0  0
  -20.4030  -39.4326   -6.6657 C   0  0  0  0  0  0  0  0  0  0  0  0
  -21.1066  -38.2670   -7.0483 C   0  0  0  0  0  0  0  0  0  0  0  0
  -22.4164  -38.2658   -7.4426 C   0  0  0  0  0  0  0  0  0  0  0  0
  -23.0271  -39.4955   -7.4488 C   0  0  0  0  0  0  0  0  0  0  0  0
  -22.3641  -40.6865   -7.0767 C   0  0  0  0  0  0  0  0  0  0  0  0
  -21.0318  -40.6429   -6.6753 C   0  0  0  0  0  0  0  0  0  0  0  0
  -23.2066  -41.7774   -7.1870 O   0  0  0  0  0  0  0  0  0  0  0  0
  -23.2383  -42.9674   -7.9005 C   0  0  0  0  0  0  0  0  0  0  0  0
  -22.5233  -44.1003   -7.2629 C   0  0  0  0  0  0  0  0  0  0  0  0
  -21.8845  -45.0882   -8.1896 C   0  0  0  0  0  0  0  0  0  0  0  0
  -22.1800  -44.9406   -9.6360 C   0  0  0  0  0  0  0  0  0  0  0  0
  -21.2379  -44.1675  -10.4073 N   0  0  0  0  0  0  0  0  0  0  0  0
  -16.8680  -38.5302   -7.6101 C   0  0  2  0  0  0  0  0  0  0  0  0
  -17.1334  -37.4230   -8.4110 O   0  0  0  0  0  0  0  0  0  0  0  0
  -15.5611  -39.1250   -7.9664 C   0  0  0  0  0  0  0  0  0  0  0  0
  -14.4097  -38.2991   -7.8804 N   0  0  0  0  0  0  0  0  0  0  0  0
  1  2  1  0
  2  3  1  0
  3  4  1  0
  4  5  2  0
  5  6  1  0
  6  7  2  0
  7  8  1  0
  8  9  2  0
  8 10  1  0
 10 11  2  0
 10 12  1  0
 12 13  1  0
 13 14  1  1
 14 15  1  0
 15 16  2  0
 16 17  1  0
 17 18  2  0
 18 19  1  0
 19 20  2  0
 19 21  1  0
 21 22  1  0
 22 23  1  0
 23 24  1  0
 24 25  1  0
 25 26  1  0
 13 27  1  0
 27 28  1  6
 27 29  1  0
 29 30  1  0
  9  4  1  0
 20 15  1  0
 26  6  1  0
M  END
$$$$
