
     RDKit          3D

 30 32  0  0  0  0  0  0  0  0999 V2000
  -16.4756  -41.8624  -12.4064 C   0  0  0  0  0  0  0  0  0  0  0  0
  -16.7151  -43.1837  -12.7746 O   0  0  0  0  0  0  0  0  0  0  0  0
  -16.4083  -43.9756  -11.6736 C   0  0  0  0  0  0  0  0  0  0  0  0
  -17.2511  -43.6561  -10.4919 C   0  0  0  0  0  0  0  0  0  0  0  0
  -18.5205  -44.1418  -10.3456 C   0  0  0  0  0  0  0  0  0  0  0  0
  -19.3552  -43.8584   -9.2297 C   0  0  0  0  0  0  0  0  0  0  0  0
  -18.8754  -43.0482   -8.2257 C   0  0  0  0  0  0  0  0  0  0  0  0
  -17.6061  -42.5369   -8.3314 C   0  0  0  0  0  0  0  0  0  0  0  0
  -16.8188  -42.8559   -9.4695 C   0  0  0  0  0  0  0  0  0  0  0  0
  -16.8287  -41.6574   -7.4372 C   0  0  0  0  0  0  0  0  0  0  0  0
  -15.5438  -41.9486   -7.2542 O   0  0  0  0  0  0  0  0  0  0  0  0
  -17.1406  -40.5157   -6.6895 N   0  0  0  0  0  0  0  0  0  0  0  0
  -17.7135  -39.2634   -7.2302 C   0  0  1  0  0  0  0  0  0  0  0  0
  -18.6710  -38.7844   -6.1573 C   0  0  0  0  0  0  0  0  0  0  0  0
  -20.0881  -39.2331   -6.4024 C   0  0  0  0  0  0  0  0  0  0  0  0
  -20.8560  -38.1799   -6.9512 C   0  0  0  0  0  0  0  0  0  0  0  0
  -22.1604  -38.3140   -7.3403 C   0  0  0  0  0  0  0  0  0  0  0  0
  -22.6977  -39.5654   -7.1655 C   0  0  0  0  0  0  0  0  0  0  0  0
  -21.9689  -40.6476   -6.6233 C   0  0  0  0  0  0  0  0  0  0  0  0
  -20.6447  -40.4668   -6.2338 C   0  0  0  0  0  0  0  0  0  0  0  0
  -22.7451  -41.7909   -6.5717 O   0  0  0  0  0  0  0  0  0  0  0  0
  -22.7013  -43.0723   -7.1029 C   0  0  0  0  0  0  0  0  0  0  0  0
  -21.9259  -44.0553   -6.3067 C   0  0  0  0  0  0  0  0  0  0  0  0
  -21.2231  -45.1287   -7.0790 C   0  0  0  0  0  0  0  0  0  0  0  0
  -21.5154  -45.2122   -8.5311 C   0  0  0  0  0  0  0  0  0  0  0  0
  -20.6143  -44.5061   -9.4083 N   0  0  0  0  0  0  0  0  0  0  0  0
  -16.6049  -38.2710   -7.4720 C   0  0  2  0  0  0  0  0  0  0  0  0
  -16.9942  -37.1996   -8.2711 O   0  0  0  0  0  0  0  0  0  0  0  0
  -15.3150  -38.8238   -7.9403 C   0  0  0  0  0  0  0  0  0  0  0  0
  -14.8073  -39.9746   -7.2822 N   0  0  0  0  0  0  0  0  0  0  0  0
  1  2  1  0
  2  3  1  0
  3  4  1  0
  4  5  2  0
  5  6  1  0
  6  7  2  0
  7  8  1  0
  8  9  2  0
  8 10  1  0
 10 11  2  0
 10 12  1  0
 12 13  1  0
 13 14  1  1
 14 15  1  0
 15 16  2  0
 16 17  1  0
 17 18  2  0
 18 19  1  0
 19 20  2  0
 19 21  1  0
 21 22  1  0
 22 23  1  0
 23 24  1  0
 24 25  1  0
 25 26  1  0
 13 27  1  0
 27 28  1  6
 27 29  1  0
 29 30  1  0
  9  4  1  0
 20 15  1  0
 26  6  1  0
M  END
$$$$
