
     RDKit          3D

 30 32  0  0  0  0  0  0  0  0999 V2000
  -19.5658  -39.8430  -13.9910 C   0  0  0  0  0  0  0  0  0  0  0  0
  -18.4778  -40.4780  -13.3980 O   0  0  0  0  0  0  0  0  0  0  0  0
  -18.8860  -41.7668  -13.0722 C   0  0  0  0  0  0  0  0  0  0  0  0
  -19.1502  -41.9282  -11.6186 C   0  0  0  0  0  0  0  0  0  0  0  0
  -20.2794  -42.5343  -11.1430 C   0  0  0  0  0  0  0  0  0  0  0  0
  -20.5655  -42.7070   -9.7607 C   0  0  0  0  0  0  0  0  0  0  0  0
  -19.6645  -42.2431   -8.8294 C   0  0  0  0  0  0  0  0  0  0  0  0
  -18.5170  -41.6265   -9.2618 C   0  0  0  0  0  0  0  0  0  0  0  0
  -18.2856  -41.4836  -10.6557 C   0  0  0  0  0  0  0  0  0  0  0  0
  -17.3850  -41.0371   -8.5211 C   0  0  0  0  0  0  0  0  0  0  0  0
  -16.1601  -41.2695   -8.9845 O   0  0  0  0  0  0  0  0  0  0  0  0
  -17.2869  -40.2393   -7.3750 N   0  0  0  0  0  0  0  0  0  0  0  0
  -17.9442  -38.9281   -7.1810 C   0  0  1  0  0  0  0  0  0  0  0  0
  -18.3464  -38.9125   -5.7197 C   0  0  0  0  0  0  0  0  0  0  0  0
  -19.7672  -39.3649   -5.5044 C   0  0  0  0  0  0  0  0  0  0  0  0
  -20.6187  -38.2535   -5.3052 C   0  0  0  0  0  0  0  0  0  0  0  0
  -21.9743  -38.3532   -5.1522 C   0  0  0  0  0  0  0  0  0  0  0  0
  -22.4772  -39.6297   -5.2068 C   0  0  0  0  0  0  0  0  0  0  0  0
  -21.6658  -40.7693   -5.4055 C   0  0  0  0  0  0  0  0  0  0  0  0
  -20.2889  -40.6242   -5.5506 C   0  0  0  0  0  0  0  0  0  0  0  0
  -22.4290  -41.9221   -5.4316 O   0  0  0  0  0  0  0  0  0  0  0  0
  -22.6924  -42.9449   -6.3320 C   0  0  0  0  0  0  0  0  0  0  0  0
  -21.7285  -44.0722   -6.3003 C   0  0  0  0  0  0  0  0  0  0  0  0
  -21.4759  -44.7667   -7.6028 C   0  0  0  0  0  0  0  0  0  0  0  0
  -22.3396  -44.3837   -8.7466 C   0  0  0  0  0  0  0  0  0  0  0  0
  -21.8288  -43.3559   -9.6200 N   0  0  0  0  0  0  0  0  0  0  0  0
  -16.9659  -37.8270   -7.5021 C   0  0  2  0  0  0  0  0  0  0  0  0
  -17.5842  -36.6182   -7.8095 O   0  0  0  0  0  0  0  0  0  0  0  0
  -15.9218  -38.1428   -8.5015 C   0  0  0  0  0  0  0  0  0  0  0  0
  -14.9669  -39.1402   -8.1720 N   0  0  0  0  0  0  0  0  0  0  0  0
  1  2  1  0
  2  3  1  0
  3  4  1  0
  4  5  2  0
  5  6  1  0
  6  7  2  0
  7  8  1  0
  8  9  2  0
  8 10  1  0
 10 11  2  0
 10 12  1  0
 12 13  1  0
 13 14  1  1
 14 15  1  0
 15 16  2  0
 16 17  1  0
 17 18  2  0
 18 19  1  0
 19 20  2  0
 19 21  1  0
 21 22  1  0
 22 23  1  0
 23 24  1  0
 24 25  1  0
 25 26  1  0
 13 27  1  0
 27 28  1  6
 27 29  1  0
 29 30  1  0
  9  4  1  0
 20 15  1  0
 26  6  1  0
M  END
$$$$
