
     RDKit          3D

 30 32  0  0  0  0  0  0  0  0999 V2000
  -17.0777  -46.8407   -7.2899 C   0  0  0  0  0  0  0  0  0  0  0  0
  -16.5915  -46.7623   -8.5923 O   0  0  0  0  0  0  0  0  0  0  0  0
  -17.5592  -46.1123   -9.3502 C   0  0  0  0  0  0  0  0  0  0  0  0
  -18.2793  -45.0675   -8.5763 C   0  0  0  0  0  0  0  0  0  0  0  0
  -19.6394  -45.0653   -8.4393 C   0  0  0  0  0  0  0  0  0  0  0  0
  -20.3618  -44.0835   -7.7068 C   0  0  0  0  0  0  0  0  0  0  0  0
  -19.6691  -43.0657   -7.0913 C   0  0  0  0  0  0  0  0  0  0  0  0
  -18.3017  -43.0276   -7.2034 C   0  0  0  0  0  0  0  0  0  0  0  0
  -17.6350  -44.0367   -7.9478 C   0  0  0  0  0  0  0  0  0  0  0  0
  -17.3028  -42.0828   -6.6677 C   0  0  0  0  0  0  0  0  0  0  0  0
  -16.1783  -42.5928   -6.1731 O   0  0  0  0  0  0  0  0  0  0  0  0
  -17.2524  -40.6888   -6.5502 N   0  0  0  0  0  0  0  0  0  0  0  0
  -17.3925  -39.7260   -7.6649 C   0  0  1  0  0  0  0  0  0  0  0  0
  -18.1691  -38.5658   -7.0751 C   0  0  0  0  0  0  0  0  0  0  0  0
  -19.6509  -38.6732   -7.3248 C   0  0  0  0  0  0  0  0  0  0  0  0
  -20.0384  -37.8294   -8.3916 C   0  0  0  0  0  0  0  0  0  0  0  0
  -21.3117  -37.7683   -8.8875 C   0  0  0  0  0  0  0  0  0  0  0  0
  -22.2187  -38.5980   -8.2756 C   0  0  0  0  0  0  0  0  0  0  0  0
  -21.8772  -39.4588   -7.2084 C   0  0  0  0  0  0  0  0  0  0  0  0
  -20.5704  -39.4856   -6.7293 C   0  0  0  0  0  0  0  0  0  0  0  0
  -22.9746  -40.1893   -6.7910 O   0  0  0  0  0  0  0  0  0  0  0  0
  -23.3271  -41.5285   -6.6988 C   0  0  0  0  0  0  0  0  0  0  0  0
  -22.9146  -42.2006   -5.4421 C   0  0  0  0  0  0  0  0  0  0  0  0
  -22.5720  -43.6546   -5.5483 C   0  0  0  0  0  0  0  0  0  0  0  0
  -22.8503  -44.3171   -6.8463 C   0  0  0  0  0  0  0  0  0  0  0  0
  -21.7574  -44.3711   -7.7859 N   0  0  0  0  0  0  0  0  0  0  0  0
  -16.0237  -39.3010   -8.1322 C   0  0  2  0  0  0  0  0  0  0  0  0
  -16.0605  -38.2745   -9.0717 O   0  0  0  0  0  0  0  0  0  0  0  0
  -15.1149  -40.3793   -8.5795 C   0  0  0  0  0  0  0  0  0  0  0  0
  -15.1582  -41.6159   -7.8836 N   0  0  0  0  0  0  0  0  0  0  0  0
  1  2  1  0
  2  3  1  0
  3  4  1  0
  4  5  2  0
  5  6  1  0
  6  7  2  0
  7  8  1  0
  8  9  2  0
  8 10  1  0
 10 11  2  0
 10 12  1  0
 12 13  1  0
 13 14  1  1
 14 15  1  0
 15 16  2  0
 16 17  1  0
 17 18  2  0
 18 19  1  0
 19 20  2  0
 19 21  1  0
 21 22  1  0
 22 23  1  0
 23 24  1  0
 24 25  1  0
 25 26  1  0
 13 27  1  0
 27 28  1  6
 27 29  1  0
 29 30  1  0
  9  4  1  0
 20 15  1  0
 26  6  1  0
M  END
$$$$
