
     RDKit          3D

 30 32  0  0  0  0  0  0  0  0999 V2000
  -15.7208  -42.4271  -12.9656 C   0  0  0  0  0  0  0  0  0  0  0  0
  -16.7081  -43.3726  -12.7012 O   0  0  0  0  0  0  0  0  0  0  0  0
  -16.3298  -44.0441  -11.5438 C   0  0  0  0  0  0  0  0  0  0  0  0
  -17.1567  -43.6616  -10.3695 C   0  0  0  0  0  0  0  0  0  0  0  0
  -18.4109  -44.1645  -10.1626 C   0  0  0  0  0  0  0  0  0  0  0  0
  -19.2300  -43.8224   -9.0516 C   0  0  0  0  0  0  0  0  0  0  0  0
  -18.7501  -42.9331   -8.1170 C   0  0  0  0  0  0  0  0  0  0  0  0
  -17.4958  -42.4019   -8.2852 C   0  0  0  0  0  0  0  0  0  0  0  0
  -16.7236  -42.7821   -9.4148 C   0  0  0  0  0  0  0  0  0  0  0  0
  -16.7223  -41.4445   -7.4712 C   0  0  0  0  0  0  0  0  0  0  0  0
  -15.4274  -41.6930   -7.2959 O   0  0  0  0  0  0  0  0  0  0  0  0
  -17.0467  -40.2605   -6.7984 N   0  0  0  0  0  0  0  0  0  0  0  0
  -17.6601  -39.0625   -7.4127 C   0  0  1  0  0  0  0  0  0  0  0  0
  -18.6075  -38.5312   -6.3556 C   0  0  0  0  0  0  0  0  0  0  0  0
  -20.0180  -39.0279   -6.5385 C   0  0  0  0  0  0  0  0  0  0  0  0
  -20.8216  -38.0334   -7.1429 C   0  0  0  0  0  0  0  0  0  0  0  0
  -22.1298  -38.2239   -7.4938 C   0  0  0  0  0  0  0  0  0  0  0  0
  -22.6334  -39.4717   -7.2208 C   0  0  0  0  0  0  0  0  0  0  0  0
  -21.8682  -40.4965   -6.6202 C   0  0  0  0  0  0  0  0  0  0  0  0
  -20.5413  -40.2590   -6.2726 C   0  0  0  0  0  0  0  0  0  0  0  0
  -22.6155  -41.6506   -6.4724 O   0  0  0  0  0  0  0  0  0  0  0  0
  -22.5514  -42.9648   -6.9139 C   0  0  0  0  0  0  0  0  0  0  0  0
  -21.7371  -43.8717   -6.0678 C   0  0  0  0  0  0  0  0  0  0  0  0
  -21.0240  -44.9805   -6.7783 C   0  0  0  0  0  0  0  0  0  0  0  0
  -21.3428  -45.1723   -8.2145 C   0  0  0  0  0  0  0  0  0  0  0  0
  -20.4764  -44.5093   -9.1578 N   0  0  0  0  0  0  0  0  0  0  0  0
  -16.5806  -38.0647   -7.7467 C   0  0  2  0  0  0  0  0  0  0  0  0
  -17.0504  -36.9716   -8.4695 O   0  0  0  0  0  0  0  0  0  0  0  0
  -15.3513  -38.6055   -8.3672 C   0  0  0  0  0  0  0  0  0  0  0  0
  -14.7322  -39.7239   -7.7498 N   0  0  0  0  0  0  0  0  0  0  0  0
  1  2  1  0
  2  3  1  0
  3  4  1  0
  4  5  2  0
  5  6  1  0
  6  7  2  0
  7  8  1  0
  8  9  2  0
  8 10  1  0
 10 11  2  0
 10 12  1  0
 12 13  1  0
 13 14  1  1
 14 15  1  0
 15 16  2  0
 16 17  1  0
 17 18  2  0
 18 19  1  0
 19 20  2  0
 19 21  1  0
 21 22  1  0
 22 23  1  0
 23 24  1  0
 24 25  1  0
 25 26  1  0
 13 27  1  0
 27 28  1  6
 27 29  1  0
 29 30  1  0
  9  4  1  0
 20 15  1  0
 26  6  1  0
M  END
$$$$
