
     RDKit          3D

 30 32  0  0  0  0  0  0  0  0999 V2000
  -16.3877  -47.8115   -7.8181 C   0  0  0  0  0  0  0  0  0  0  0  0
  -17.6901  -47.3887   -7.5657 O   0  0  0  0  0  0  0  0  0  0  0  0
  -17.9663  -46.3621   -8.4619 C   0  0  0  0  0  0  0  0  0  0  0  0
  -18.6111  -45.1944   -7.8065 C   0  0  0  0  0  0  0  0  0  0  0  0
  -19.9593  -45.1286   -7.5905 C   0  0  0  0  0  0  0  0  0  0  0  0
  -20.6106  -44.0291   -6.9667 C   0  0  0  0  0  0  0  0  0  0  0  0
  -19.8565  -42.9564   -6.5480 C   0  0  0  0  0  0  0  0  0  0  0  0
  -18.4985  -42.9789   -6.7457 C   0  0  0  0  0  0  0  0  0  0  0  0
  -17.9043  -44.1054   -7.3739 C   0  0  0  0  0  0  0  0  0  0  0  0
  -17.4458  -41.9997   -6.4134 C   0  0  0  0  0  0  0  0  0  0  0  0
  -16.3043  -42.4695   -5.9178 O   0  0  0  0  0  0  0  0  0  0  0  0
  -17.3556  -40.6056   -6.5029 N   0  0  0  0  0  0  0  0  0  0  0  0
  -17.5437  -39.8088   -7.7352 C   0  0  1  0  0  0  0  0  0  0  0  0
  -18.2540  -38.5515   -7.2750 C   0  0  0  0  0  0  0  0  0  0  0  0
  -19.7508  -38.6457   -7.4178 C   0  0  0  0  0  0  0  0  0  0  0  0
  -20.1856  -37.9517   -8.5708 C   0  0  0  0  0  0  0  0  0  0  0  0
  -21.4860  -37.9214   -8.9936 C   0  0  0  0  0  0  0  0  0  0  0  0
  -22.3713  -38.6250   -8.2148 C   0  0  0  0  0  0  0  0  0  0  0  0
  -21.9829  -39.3342   -7.0561 C   0  0  0  0  0  0  0  0  0  0  0  0
  -20.6492  -39.3341   -6.6568 C   0  0  0  0  0  0  0  0  0  0  0  0
  -23.0682  -39.9614   -6.4724 O   0  0  0  0  0  0  0  0  0  0  0  0
  -23.4453  -41.2615   -6.1658 C   0  0  0  0  0  0  0  0  0  0  0  0
  -22.9696  -41.7592   -4.8516 C   0  0  0  0  0  0  0  0  0  0  0  0
  -22.6684  -43.2236   -4.7657 C   0  0  0  0  0  0  0  0  0  0  0  0
  -23.0440  -44.0562   -5.9348 C   0  0  0  0  0  0  0  0  0  0  0  0
  -22.0147  -44.2799   -6.9200 N   0  0  0  0  0  0  0  0  0  0  0  0
  -16.1979  -39.4998   -8.3400 C   0  0  2  0  0  0  0  0  0  0  0  0
  -16.2716  -39.1344   -9.6813 O   0  0  0  0  0  0  0  0  0  0  0  0
  -15.1355  -40.5090   -8.1364 C   0  0  0  0  0  0  0  0  0  0  0  0
  -14.5262  -40.5832   -6.8564 N   0  0  0  0  0  0  0  0  0  0  0  0
  1  2  1  0
  2  3  1  0
  3  4  1  0
  4  5  2  0
  5  6  1  0
  6  7  2  0
  7  8  1  0
  8  9  2  0
  8 10  1  0
 10 11  2  0
 10 12  1  0
 12 13  1  0
 13 14  1  1
 14 15  1  0
 15 16  2  0
 16 17  1  0
 17 18  2  0
 18 19  1  0
 19 20  2  0
 19 21  1  0
 21 22  1  0
 22 23  1  0
 23 24  1  0
 24 25  1  0
 25 26  1  0
 13 27  1  0
 27 28  1  6
 27 29  1  0
 29 30  1  0
  9  4  1  0
 20 15  1  0
 26  6  1  0
M  END
$$$$
