
     RDKit          3D

 30 32  0  0  0  0  0  0  0  0999 V2000
  -18.9089  -48.1054   -8.4897 C   0  0  0  0  0  0  0  0  0  0  0  0
  -18.7789  -47.1255   -9.4703 O   0  0  0  0  0  0  0  0  0  0  0  0
  -17.8074  -46.2337   -9.0291 C   0  0  0  0  0  0  0  0  0  0  0  0
  -18.3786  -45.1286   -8.2158 C   0  0  0  0  0  0  0  0  0  0  0  0
  -19.6839  -45.1176   -7.8101 C   0  0  0  0  0  0  0  0  0  0  0  0
  -20.2645  -44.0788   -7.0315 C   0  0  0  0  0  0  0  0  0  0  0  0
  -19.4825  -43.0111   -6.6533 C   0  0  0  0  0  0  0  0  0  0  0  0
  -18.1658  -42.9798   -7.0395 C   0  0  0  0  0  0  0  0  0  0  0  0
  -17.6417  -44.0470   -7.8162 C   0  0  0  0  0  0  0  0  0  0  0  0
  -17.0982  -41.9910   -6.7944 C   0  0  0  0  0  0  0  0  0  0  0  0
  -15.8883  -42.4550   -6.4944 O   0  0  0  0  0  0  0  0  0  0  0  0
  -17.0519  -40.5919   -6.8049 N   0  0  0  0  0  0  0  0  0  0  0  0
  -17.4294  -39.7273   -7.9446 C   0  0  1  0  0  0  0  0  0  0  0  0
  -18.0949  -38.5229   -7.3093 C   0  0  0  0  0  0  0  0  0  0  0  0
  -19.5945  -38.6541   -7.2478 C   0  0  0  0  0  0  0  0  0  0  0  0
  -20.2026  -37.9045   -8.2814 C   0  0  0  0  0  0  0  0  0  0  0  0
  -21.5501  -37.8883   -8.5158 C   0  0  0  0  0  0  0  0  0  0  0  0
  -22.3011  -38.6650   -7.6685 C   0  0  0  0  0  0  0  0  0  0  0  0
  -21.7376  -39.4316   -6.6238 C   0  0  0  0  0  0  0  0  0  0  0  0
  -20.3613  -39.4150   -6.4152 C   0  0  0  0  0  0  0  0  0  0  0  0
  -22.7158  -40.1264   -5.9364 O   0  0  0  0  0  0  0  0  0  0  0  0
  -23.0174  -41.4537   -5.6653 C   0  0  0  0  0  0  0  0  0  0  0  0
  -22.3503  -42.0161   -4.4653 C   0  0  0  0  0  0  0  0  0  0  0  0
  -22.0082  -43.4731   -4.5175 C   0  0  0  0  0  0  0  0  0  0  0  0
  -22.5268  -44.2437   -5.6743 C   0  0  0  0  0  0  0  0  0  0  0  0
  -21.6422  -44.3749   -6.8058 N   0  0  0  0  0  0  0  0  0  0  0  0
  -16.1895  -39.3407   -8.7098 C   0  0  2  0  0  0  0  0  0  0  0  0
  -16.0324  -40.0550   -9.8943 O   0  0  0  0  0  0  0  0  0  0  0  0
  -14.9225  -39.3200   -7.9462 C   0  0  0  0  0  0  0  0  0  0  0  0
  -14.5241  -40.5128   -7.2878 N   0  0  0  0  0  0  0  0  0  0  0  0
  1  2  1  0
  2  3  1  0
  3  4  1  0
  4  5  2  0
  5  6  1  0
  6  7  2  0
  7  8  1  0
  8  9  2  0
  8 10  1  0
 10 11  2  0
 10 12  1  0
 12 13  1  0
 13 14  1  1
 14 15  1  0
 15 16  2  0
 16 17  1  0
 17 18  2  0
 18 19  1  0
 19 20  2  0
 19 21  1  0
 21 22  1  0
 22 23  1  0
 23 24  1  0
 24 25  1  0
 25 26  1  0
 13 27  1  0
 27 28  1  6
 27 29  1  0
 29 30  1  0
  9  4  1  0
 20 15  1  0
 26  6  1  0
M  END
$$$$
