
     RDKit          3D

 30 32  0  0  0  0  0  0  0  0999 V2000
  -19.2284  -47.5386   -5.4920 C   0  0  0  0  0  0  0  0  0  0  0  0
  -19.8583  -47.3458   -6.7188 O   0  0  0  0  0  0  0  0  0  0  0  0
  -19.1082  -46.4074   -7.4190 C   0  0  0  0  0  0  0  0  0  0  0  0
  -19.4991  -45.0109   -7.0935 C   0  0  0  0  0  0  0  0  0  0  0  0
  -20.8051  -44.6123   -7.0303 C   0  0  0  0  0  0  0  0  0  0  0  0
  -21.2165  -43.2865   -6.7216 C   0  0  0  0  0  0  0  0  0  0  0  0
  -20.2578  -42.3319   -6.4684 C   0  0  0  0  0  0  0  0  0  0  0  0
  -18.9331  -42.6872   -6.5221 C   0  0  0  0  0  0  0  0  0  0  0  0
  -18.5833  -44.0276   -6.8348 C   0  0  0  0  0  0  0  0  0  0  0  0
  -17.7013  -41.9047   -6.3035 C   0  0  0  0  0  0  0  0  0  0  0  0
  -16.7232  -42.4800   -5.6094 O   0  0  0  0  0  0  0  0  0  0  0  0
  -17.2897  -40.6201   -6.6779 N   0  0  0  0  0  0  0  0  0  0  0  0
  -17.2305  -40.1057   -8.0638 C   0  0  1  0  0  0  0  0  0  0  0  0
  -17.6550  -38.6550   -7.9536 C   0  0  0  0  0  0  0  0  0  0  0  0
  -19.1249  -38.4591   -8.2198 C   0  0  0  0  0  0  0  0  0  0  0  0
  -19.3327  -37.9717   -9.5311 C   0  0  0  0  0  0  0  0  0  0  0  0
  -20.5696  -37.7634  -10.0766 C   0  0  0  0  0  0  0  0  0  0  0  0
  -21.6292  -38.0650   -9.2571 C   0  0  0  0  0  0  0  0  0  0  0  0
  -21.4701  -38.5557   -7.9416 C   0  0  0  0  0  0  0  0  0  0  0  0
  -20.1929  -38.7476   -7.4222 C   0  0  0  0  0  0  0  0  0  0  0  0
  -22.6973  -38.7870   -7.3477 O   0  0  0  0  0  0  0  0  0  0  0  0
  -23.3766  -39.8714   -6.8104 C   0  0  0  0  0  0  0  0  0  0  0  0
  -23.0918  -40.1441   -5.3801 C   0  0  0  0  0  0  0  0  0  0  0  0
  -23.1388  -41.5795   -4.9557 C   0  0  0  0  0  0  0  0  0  0  0  0
  -23.6383  -42.5585   -5.9522 C   0  0  0  0  0  0  0  0  0  0  0  0
  -22.6413  -43.2155   -6.7612 N   0  0  0  0  0  0  0  0  0  0  0  0
  -15.8220  -40.2369   -8.5850 C   0  0  2  0  0  0  0  0  0  0  0  0
  -15.7638  -40.4254   -9.9630 O   0  0  0  0  0  0  0  0  0  0  0  0
  -14.9501  -41.2108   -7.8922 C   0  0  0  0  0  0  0  0  0  0  0  0
  -15.1636  -41.4244   -6.5052 N   0  0  0  0  0  0  0  0  0  0  0  0
  1  2  1  0
  2  3  1  0
  3  4  1  0
  4  5  2  0
  5  6  1  0
  6  7  2  0
  7  8  1  0
  8  9  2  0
  8 10  1  0
 10 11  2  0
 10 12  1  0
 12 13  1  0
 13 14  1  1
 14 15  1  0
 15 16  2  0
 16 17  1  0
 17 18  2  0
 18 19  1  0
 19 20  2  0
 19 21  1  0
 21 22  1  0
 22 23  1  0
 23 24  1  0
 24 25  1  0
 25 26  1  0
 13 27  1  0
 27 28  1  6
 27 29  1  0
 29 30  1  0
  9  4  1  0
 20 15  1  0
 26  6  1  0
M  END
$$$$
