
     RDKit          3D

 30 32  0  0  0  0  0  0  0  0999 V2000
  -22.8292  -41.7700   -3.3026 C   0  0  0  0  0  0  0  0  0  0  0  0
  -23.8955  -41.8843   -4.1906 O   0  0  0  0  0  0  0  0  0  0  0  0
  -23.3682  -42.2959   -5.4097 C   0  0  0  0  0  0  0  0  0  0  0  0
  -22.4583  -41.2831   -6.0057 C   0  0  0  0  0  0  0  0  0  0  0  0
  -22.9205  -40.1319   -6.5801 C   0  0  0  0  0  0  0  0  0  0  0  0
  -22.0808  -39.1410   -7.1590 C   0  0  0  0  0  0  0  0  0  0  0  0
  -20.7179  -39.3332   -7.1512 C   0  0  0  0  0  0  0  0  0  0  0  0
  -20.2093  -40.4758   -6.5860 C   0  0  0  0  0  0  0  0  0  0  0  0
  -21.0979  -41.4295   -6.0223 C   0  0  0  0  0  0  0  0  0  0  0  0
  -18.8226  -40.9553   -6.4287 C   0  0  0  0  0  0  0  0  0  0  0  0
  -18.4941  -41.5148   -5.2675 O   0  0  0  0  0  0  0  0  0  0  0  0
  -17.6994  -40.9639   -7.2642 N   0  0  0  0  0  0  0  0  0  0  0  0
  -17.6334  -41.5743   -8.6103 C   0  0  1  0  0  0  0  0  0  0  0  0
  -16.7583  -40.6348   -9.4157 C   0  0  0  0  0  0  0  0  0  0  0  0
  -17.5576  -39.6247  -10.1971 C   0  0  0  0  0  0  0  0  0  0  0  0
  -17.6524  -40.0078  -11.5551 C   0  0  0  0  0  0  0  0  0  0  0  0
  -18.3755  -39.3190  -12.4898 C   0  0  0  0  0  0  0  0  0  0  0  0
  -19.0251  -38.2035  -12.0218 C   0  0  0  0  0  0  0  0  0  0  0  0
  -18.9609  -37.7835  -10.6742 C   0  0  0  0  0  0  0  0  0  0  0  0
  -18.2080  -38.5101   -9.7559 C   0  0  0  0  0  0  0  0  0  0  0  0
  -19.7159  -36.6423  -10.4748 O   0  0  0  0  0  0  0  0  0  0  0  0
  -20.8052  -36.2684   -9.7003 C   0  0  0  0  0  0  0  0  0  0  0  0
  -20.4707  -35.7922   -8.3356 C   0  0  0  0  0  0  0  0  0  0  0  0
  -21.4773  -36.0828   -7.2656 C   0  0  0  0  0  0  0  0  0  0  0  0
  -22.7770  -36.6495   -7.7023 C   0  0  0  0  0  0  0  0  0  0  0  0
  -22.8891  -38.0873   -7.6816 N   0  0  0  0  0  0  0  0  0  0  0  0
  -17.0259  -42.9500   -8.5052 C   0  0  2  0  0  0  0  0  0  0  0  0
  -17.9537  -43.9728   -8.6816 O   0  0  0  0  0  0  0  0  0  0  0  0
  -16.1874  -43.2118   -7.3148 C   0  0  0  0  0  0  0  0  0  0  0  0
  -15.7359  -42.0963   -6.5618 N   0  0  0  0  0  0  0  0  0  0  0  0
  1  2  1  0
  2  3  1  0
  3  4  1  0
  4  5  2  0
  5  6  1  0
  6  7  2  0
  7  8  1  0
  8  9  2  0
  8 10  1  0
 10 11  2  0
 10 12  1  0
 12 13  1  0
 13 14  1  6
 14 15  1  0
 15 16  2  0
 16 17  1  0
 17 18  2  0
 18 19  1  0
 19 20  2  0
 19 21  1  0
 21 22  1  0
 22 23  1  0
 23 24  1  0
 24 25  1  0
 25 26  1  0
 13 27  1  0
 27 28  1  1
 27 29  1  0
 29 30  1  0
  9  4  1  0
 20 15  1  0
 26  6  1  0
M  END
$$$$
