
     RDKit          3D

 30 32  0  0  0  0  0  0  0  0999 V2000
  -18.8935  -46.3204  -11.6791 C   0  0  0  0  0  0  0  0  0  0  0  0
  -17.8728  -45.5173  -11.1772 O   0  0  0  0  0  0  0  0  0  0  0  0
  -17.6926  -45.8723   -9.8449 C   0  0  0  0  0  0  0  0  0  0  0  0
  -18.3379  -44.9142   -8.9097 C   0  0  0  0  0  0  0  0  0  0  0  0
  -19.6625  -44.9921   -8.5807 C   0  0  0  0  0  0  0  0  0  0  0  0
  -20.3133  -44.0945   -7.6902 C   0  0  0  0  0  0  0  0  0  0  0  0
  -19.5840  -43.0792   -7.1143 C   0  0  0  0  0  0  0  0  0  0  0  0
  -18.2504  -42.9621   -7.4171 C   0  0  0  0  0  0  0  0  0  0  0  0
  -17.6552  -43.8892   -8.3131 C   0  0  0  0  0  0  0  0  0  0  0  0
  -17.2269  -41.9986   -6.9682 C   0  0  0  0  0  0  0  0  0  0  0  0
  -16.0211  -42.4763   -6.6731 O   0  0  0  0  0  0  0  0  0  0  0  0
  -17.2215  -40.6131   -6.7681 N   0  0  0  0  0  0  0  0  0  0  0  0
  -17.5642  -39.5956   -7.7860 C   0  0  1  0  0  0  0  0  0  0  0  0
  -18.2973  -38.5146   -7.0171 C   0  0  0  0  0  0  0  0  0  0  0  0
  -19.7935  -38.6856   -7.0600 C   0  0  0  0  0  0  0  0  0  0  0  0
  -20.3687  -37.8027   -8.0032 C   0  0  0  0  0  0  0  0  0  0  0  0
  -21.7019  -37.7803   -8.3079 C   0  0  0  0  0  0  0  0  0  0  0  0
  -22.4729  -38.6912   -7.6288 C   0  0  0  0  0  0  0  0  0  0  0  0
  -21.9424  -39.5936   -6.6797 C   0  0  0  0  0  0  0  0  0  0  0  0
  -20.5800  -39.5791   -6.3941 C   0  0  0  0  0  0  0  0  0  0  0  0
  -22.9343  -40.4044   -6.1591 O   0  0  0  0  0  0  0  0  0  0  0  0
  -23.2103  -41.7635   -6.1056 C   0  0  0  0  0  0  0  0  0  0  0  0
  -22.5905  -42.4851   -4.9671 C   0  0  0  0  0  0  0  0  0  0  0  0
  -22.2032  -43.9102   -5.2159 C   0  0  0  0  0  0  0  0  0  0  0  0
  -22.6376  -44.5095   -6.5017 C   0  0  0  0  0  0  0  0  0  0  0  0
  -21.6916  -44.4506   -7.5887 N   0  0  0  0  0  0  0  0  0  0  0  0
  -16.2979  -39.0721   -8.4145 C   0  0  2  0  0  0  0  0  0  0  0  0
  -16.5041  -38.5021   -9.6677 O   0  0  0  0  0  0  0  0  0  0  0  0
  -15.1469  -40.0008   -8.4516 C   0  0  0  0  0  0  0  0  0  0  0  0
  -14.8085  -40.6874   -7.2561 N   0  0  0  0  0  0  0  0  0  0  0  0
  1  2  1  0
  2  3  1  0
  3  4  1  0
  4  5  2  0
  5  6  1  0
  6  7  2  0
  7  8  1  0
  8  9  2  0
  8 10  1  0
 10 11  2  0
 10 12  1  0
 12 13  1  0
 13 14  1  1
 14 15  1  0
 15 16  2  0
 16 17  1  0
 17 18  2  0
 18 19  1  0
 19 20  2  0
 19 21  1  0
 21 22  1  0
 22 23  1  0
 23 24  1  0
 24 25  1  0
 25 26  1  0
 13 27  1  0
 27 28  1  6
 27 29  1  0
 29 30  1  0
  9  4  1  0
 20 15  1  0
 26  6  1  0
M  END
$$$$
