
     RDKit          3D

 30 32  0  0  0  0  0  0  0  0999 V2000
  -17.7189  -41.7274  -14.2266 C   0  0  0  0  0  0  0  0  0  0  0  0
  -17.8862  -43.0213  -13.7403 O   0  0  0  0  0  0  0  0  0  0  0  0
  -16.9808  -43.1851  -12.6977 C   0  0  0  0  0  0  0  0  0  0  0  0
  -17.6175  -43.0327  -11.3635 C   0  0  0  0  0  0  0  0  0  0  0  0
  -18.7615  -43.6967  -11.0184 C   0  0  0  0  0  0  0  0  0  0  0  0
  -19.3981  -43.5762   -9.7525 C   0  0  0  0  0  0  0  0  0  0  0  0
  -18.8457  -42.7461   -8.8036 C   0  0  0  0  0  0  0  0  0  0  0  0
  -17.6974  -42.0584   -9.1072 C   0  0  0  0  0  0  0  0  0  0  0  0
  -17.1065  -42.2199  -10.3884 C   0  0  0  0  0  0  0  0  0  0  0  0
  -16.8853  -41.1139   -8.3161 C   0  0  0  0  0  0  0  0  0  0  0  0
  -15.5623  -41.2291   -8.3908 O   0  0  0  0  0  0  0  0  0  0  0  0
  -17.1952  -40.0569   -7.4521 N   0  0  0  0  0  0  0  0  0  0  0  0
  -18.0188  -38.8772   -7.7970 C   0  0  1  0  0  0  0  0  0  0  0  0
  -18.8086  -38.5788   -6.5383 C   0  0  0  0  0  0  0  0  0  0  0  0
  -20.1757  -39.2117   -6.5477 C   0  0  0  0  0  0  0  0  0  0  0  0
  -21.1645  -38.2560   -6.8777 C   0  0  0  0  0  0  0  0  0  0  0  0
  -22.4904  -38.5564   -7.0289 C   0  0  0  0  0  0  0  0  0  0  0  0
  -22.8169  -39.8764   -6.8392 C   0  0  0  0  0  0  0  0  0  0  0  0
  -21.8635  -40.8661   -6.5104 C   0  0  0  0  0  0  0  0  0  0  0  0
  -20.5244  -40.5168   -6.3595 C   0  0  0  0  0  0  0  0  0  0  0  0
  -22.4599  -42.1079   -6.3909 O   0  0  0  0  0  0  0  0  0  0  0  0
  -22.3514  -43.3491   -7.0023 C   0  0  0  0  0  0  0  0  0  0  0  0
  -21.3174  -44.2438   -6.4265 C   0  0  0  0  0  0  0  0  0  0  0  0
  -20.6406  -45.1776   -7.3819 C   0  0  0  0  0  0  0  0  0  0  0  0
  -21.1907  -45.2451   -8.7582 C   0  0  0  0  0  0  0  0  0  0  0  0
  -20.5729  -44.3865   -9.7385 N   0  0  0  0  0  0  0  0  0  0  0  0
  -17.1154  -37.7307   -8.1738 C   0  0  2  0  0  0  0  0  0  0  0  0
  -17.6393  -36.9309   -9.1856 O   0  0  0  0  0  0  0  0  0  0  0  0
  -15.7041  -38.0694   -8.4605 C   0  0  0  0  0  0  0  0  0  0  0  0
  -15.0879  -39.0738   -7.6689 N   0  0  0  0  0  0  0  0  0  0  0  0
  1  2  1  0
  2  3  1  0
  3  4  1  0
  4  5  2  0
  5  6  1  0
  6  7  2  0
  7  8  1  0
  8  9  2  0
  8 10  1  0
 10 11  2  0
 10 12  1  0
 12 13  1  0
 13 14  1  1
 14 15  1  0
 15 16  2  0
 16 17  1  0
 17 18  2  0
 18 19  1  0
 19 20  2  0
 19 21  1  0
 21 22  1  0
 22 23  1  0
 23 24  1  0
 24 25  1  0
 25 26  1  0
 13 27  1  0
 27 28  1  6
 27 29  1  0
 29 30  1  0
  9  4  1  0
 20 15  1  0
 26  6  1  0
M  END
$$$$
