
     RDKit          3D

 30 32  0  0  0  0  0  0  0  0999 V2000
  -21.4737  -44.1139   -3.4594 C   0  0  0  0  0  0  0  0  0  0  0  0
  -20.5488  -44.8182   -4.2258 O   0  0  0  0  0  0  0  0  0  0  0  0
  -19.5610  -43.9155   -4.6037 C   0  0  0  0  0  0  0  0  0  0  0  0
  -19.9176  -43.1673   -5.8374 C   0  0  0  0  0  0  0  0  0  0  0  0
  -20.0961  -43.7864   -7.0430 C   0  0  0  0  0  0  0  0  0  0  0  0
  -20.4379  -43.1041   -8.2429 C   0  0  0  0  0  0  0  0  0  0  0  0
  -20.6033  -41.7380   -8.2103 C   0  0  0  0  0  0  0  0  0  0  0  0
  -20.4326  -41.0744   -7.0211 C   0  0  0  0  0  0  0  0  0  0  0  0
  -20.0922  -41.8102   -5.8551 C   0  0  0  0  0  0  0  0  0  0  0  0
  -20.5395  -39.6437   -6.6757 C   0  0  0  0  0  0  0  0  0  0  0  0
  -21.1448  -39.3312   -5.5332 O   0  0  0  0  0  0  0  0  0  0  0  0
  -20.1278  -38.4618   -7.3028 N   0  0  0  0  0  0  0  0  0  0  0  0
  -18.7412  -38.1402   -7.7064 C   0  0  1  0  0  0  0  0  0  0  0  0
  -18.8863  -37.3902   -9.0155 C   0  0  0  0  0  0  0  0  0  0  0  0
  -18.7516  -38.2892  -10.2169 C   0  0  0  0  0  0  0  0  0  0  0  0
  -17.4632  -38.1680  -10.7874 C   0  0  0  0  0  0  0  0  0  0  0  0
  -17.0295  -38.9137  -11.8488 C   0  0  0  0  0  0  0  0  0  0  0  0
  -17.9405  -39.8147  -12.3424 C   0  0  0  0  0  0  0  0  0  0  0  0
  -19.2374  -39.9719  -11.8041 C   0  0  0  0  0  0  0  0  0  0  0  0
  -19.6415  -39.1880  -10.7270 C   0  0  0  0  0  0  0  0  0  0  0  0
  -19.9385  -40.9534  -12.4803 O   0  0  0  0  0  0  0  0  0  0  0  0
  -20.5358  -42.1680  -12.1737 C   0  0  0  0  0  0  0  0  0  0  0  0
  -21.9356  -42.0745  -11.6908 C   0  0  0  0  0  0  0  0  0  0  0  0
  -22.3649  -43.1077  -10.6953 C   0  0  0  0  0  0  0  0  0  0  0  0
  -21.4184  -44.2188  -10.4300 C   0  0  0  0  0  0  0  0  0  0  0  0
  -20.5251  -44.0468   -9.3108 N   0  0  0  0  0  0  0  0  0  0  0  0
  -18.0971  -37.2874   -6.6432 C   0  0  2  0  0  0  0  0  0  0  0  0
  -16.7177  -37.1752   -6.7931 O   0  0  0  0  0  0  0  0  0  0  0  0
  -18.4406  -37.6099   -5.2408 C   0  0  0  0  0  0  0  0  0  0  0  0
  -19.8123  -37.7718   -4.9132 N   0  0  0  0  0  0  0  0  0  0  0  0
  1  2  1  0
  2  3  1  0
  3  4  1  0
  4  5  2  0
  5  6  1  0
  6  7  2  0
  7  8  1  0
  8  9  2  0
  8 10  1  0
 10 11  2  0
 10 12  1  0
 12 13  1  0
 13 14  1  6
 14 15  1  0
 15 16  2  0
 16 17  1  0
 17 18  2  0
 18 19  1  0
 19 20  2  0
 19 21  1  0
 21 22  1  0
 22 23  1  0
 23 24  1  0
 24 25  1  0
 25 26  1  0
 13 27  1  0
 27 28  1  1
 27 29  1  0
 29 30  1  0
  9  4  1  0
 20 15  1  0
 26  6  1  0
M  END
$$$$
