
     RDKit          3D

 30 32  0  0  0  0  0  0  0  0999 V2000
  -15.0159  -43.3976  -11.8332 C   0  0  0  0  0  0  0  0  0  0  0  0
  -15.0564  -44.3082  -10.7806 O   0  0  0  0  0  0  0  0  0  0  0  0
  -16.3282  -44.8704  -10.7769 C   0  0  0  0  0  0  0  0  0  0  0  0
  -17.2048  -44.2846   -9.7294 C   0  0  0  0  0  0  0  0  0  0  0  0
  -18.5080  -44.6649   -9.5688 C   0  0  0  0  0  0  0  0  0  0  0  0
  -19.3755  -44.1275   -8.5784 C   0  0  0  0  0  0  0  0  0  0  0  0
  -18.8941  -43.1653   -7.7200 C   0  0  0  0  0  0  0  0  0  0  0  0
  -17.5913  -42.7521   -7.8456 C   0  0  0  0  0  0  0  0  0  0  0  0
  -16.7722  -43.3261   -8.8538 C   0  0  0  0  0  0  0  0  0  0  0  0
  -16.8035  -41.7588   -7.0903 C   0  0  0  0  0  0  0  0  0  0  0  0
  -15.5498  -42.0769   -6.7796 O   0  0  0  0  0  0  0  0  0  0  0  0
  -17.0778  -40.4794   -6.5928 N   0  0  0  0  0  0  0  0  0  0  0  0
  -17.5437  -39.3265   -7.3945 C   0  0  1  0  0  0  0  0  0  0  0  0
  -18.5192  -38.5993   -6.4907 C   0  0  0  0  0  0  0  0  0  0  0  0
  -19.9486  -39.0112   -6.7296 C   0  0  0  0  0  0  0  0  0  0  0  0
  -20.6209  -38.0446   -7.5129 C   0  0  0  0  0  0  0  0  0  0  0  0
  -21.9111  -38.1820   -7.9460 C   0  0  0  0  0  0  0  0  0  0  0  0
  -22.5344  -39.3458   -7.5688 C   0  0  0  0  0  0  0  0  0  0  0  0
  -21.9024  -40.3401   -6.7887 C   0  0  0  0  0  0  0  0  0  0  0  0
  -20.5896  -40.1579   -6.3630 C   0  0  0  0  0  0  0  0  0  0  0  0
  -22.7511  -41.4091   -6.5669 O   0  0  0  0  0  0  0  0  0  0  0  0
  -22.7631  -42.7695   -6.8415 C   0  0  0  0  0  0  0  0  0  0  0  0
  -22.0907  -43.6198   -5.8286 C   0  0  0  0  0  0  0  0  0  0  0  0
  -21.4210  -44.8579   -6.3400 C   0  0  0  0  0  0  0  0  0  0  0  0
  -21.6481  -45.2046   -7.7645 C   0  0  0  0  0  0  0  0  0  0  0  0
  -20.6631  -44.7299   -8.7050 N   0  0  0  0  0  0  0  0  0  0  0  0
  -16.3641  -38.4597   -7.7544 C   0  0  2  0  0  0  0  0  0  0  0  0
  -16.5833  -37.6798   -8.8865 O   0  0  0  0  0  0  0  0  0  0  0  0
  -15.0503  -39.1346   -7.8376 C   0  0  0  0  0  0  0  0  0  0  0  0
  -14.5330  -39.4249   -9.1272 N   0  0  0  0  0  0  0  0  0  0  0  0
  1  2  1  0
  2  3  1  0
  3  4  1  0
  4  5  2  0
  5  6  1  0
  6  7  2  0
  7  8  1  0
  8  9  2  0
  8 10  1  0
 10 11  2  0
 10 12  1  0
 12 13  1  0
 13 14  1  1
 14 15  1  0
 15 16  2  0
 16 17  1  0
 17 18  2  0
 18 19  1  0
 19 20  2  0
 19 21  1  0
 21 22  1  0
 22 23  1  0
 23 24  1  0
 24 25  1  0
 25 26  1  0
 13 27  1  0
 27 28  1  6
 27 29  1  0
 29 30  1  0
  9  4  1  0
 20 15  1  0
 26  6  1  0
M  END
$$$$
