
     RDKit          3D

 30 32  0  0  0  0  0  0  0  0999 V2000
  -17.7288  -48.1678   -7.5762 C   0  0  0  0  0  0  0  0  0  0  0  0
  -17.8613  -46.8737   -7.0797 O   0  0  0  0  0  0  0  0  0  0  0  0
  -18.4896  -46.1211   -8.0658 C   0  0  0  0  0  0  0  0  0  0  0  0
  -19.0235  -44.8355   -7.5452 C   0  0  0  0  0  0  0  0  0  0  0  0
  -20.3624  -44.6096   -7.3868 C   0  0  0  0  0  0  0  0  0  0  0  0
  -20.9092  -43.3939   -6.8915 C   0  0  0  0  0  0  0  0  0  0  0  0
  -20.0565  -42.3704   -6.5452 C   0  0  0  0  0  0  0  0  0  0  0  0
  -18.7037  -42.5527   -6.6890 C   0  0  0  0  0  0  0  0  0  0  0  0
  -18.2164  -43.7897   -7.1883 C   0  0  0  0  0  0  0  0  0  0  0  0
  -17.5618  -41.6611   -6.4088 C   0  0  0  0  0  0  0  0  0  0  0  0
  -16.4912  -42.1976   -5.8297 O   0  0  0  0  0  0  0  0  0  0  0  0
  -17.3205  -40.2989   -6.6226 N   0  0  0  0  0  0  0  0  0  0  0  0
  -17.3882  -39.6080   -7.9291 C   0  0  1  0  0  0  0  0  0  0  0  0
  -17.9723  -38.2455   -7.6134 C   0  0  0  0  0  0  0  0  0  0  0  0
  -19.4661  -38.1968   -7.8029 C   0  0  0  0  0  0  0  0  0  0  0  0
  -19.7921  -37.5745   -9.0303 C   0  0  0  0  0  0  0  0  0  0  0  0
  -21.0697  -37.4496   -9.5025 C   0  0  0  0  0  0  0  0  0  0  0  0
  -22.0464  -37.9798   -8.6961 C   0  0  0  0  0  0  0  0  0  0  0  0
  -21.7681  -38.6118   -7.4634 C   0  0  0  0  0  0  0  0  0  0  0  0
  -20.4537  -38.7123   -7.0161 C   0  0  0  0  0  0  0  0  0  0  0  0
  -22.9301  -39.0643   -6.8656 O   0  0  0  0  0  0  0  0  0  0  0  0
  -23.4524  -40.2829   -6.4552 C   0  0  0  0  0  0  0  0  0  0  0  0
  -23.0690  -40.6997   -5.0839 C   0  0  0  0  0  0  0  0  0  0  0  0
  -22.9288  -42.1727   -4.8525 C   0  0  0  0  0  0  0  0  0  0  0  0
  -23.3590  -43.0694   -5.9534 C   0  0  0  0  0  0  0  0  0  0  0  0
  -22.3329  -43.4917   -6.8746 N   0  0  0  0  0  0  0  0  0  0  0  0
  -16.0009  -39.4996   -8.5089 C   0  0  2  0  0  0  0  0  0  0  0  0
  -15.9922  -39.4397   -9.8997 O   0  0  0  0  0  0  0  0  0  0  0  0
  -15.0058  -40.4826   -8.0271 C   0  0  0  0  0  0  0  0  0  0  0  0
  -15.3039  -41.2028   -6.8407 N   0  0  0  0  0  0  0  0  0  0  0  0
  1  2  1  0
  2  3  1  0
  3  4  1  0
  4  5  2  0
  5  6  1  0
  6  7  2  0
  7  8  1  0
  8  9  2  0
  8 10  1  0
 10 11  2  0
 10 12  1  0
 12 13  1  0
 13 14  1  1
 14 15  1  0
 15 16  2  0
 16 17  1  0
 17 18  2  0
 18 19  1  0
 19 20  2  0
 19 21  1  0
 21 22  1  0
 22 23  1  0
 23 24  1  0
 24 25  1  0
 25 26  1  0
 13 27  1  0
 27 28  1  6
 27 29  1  0
 29 30  1  0
  9  4  1  0
 20 15  1  0
 26  6  1  0
M  END
$$$$
