
     RDKit          3D

 30 32  0  0  0  0  0  0  0  0999 V2000
  -16.6059  -47.6030   -9.2962 C   0  0  0  0  0  0  0  0  0  0  0  0
  -17.7116  -47.0187   -8.6841 O   0  0  0  0  0  0  0  0  0  0  0  0
  -18.0271  -45.8788   -9.4152 C   0  0  0  0  0  0  0  0  0  0  0  0
  -18.6258  -44.8112   -8.5721 C   0  0  0  0  0  0  0  0  0  0  0  0
  -19.9515  -44.7989   -8.2388 C   0  0  0  0  0  0  0  0  0  0  0  0
  -20.5586  -43.7955   -7.4347 C   0  0  0  0  0  0  0  0  0  0  0  0
  -19.7826  -42.7657   -6.9531 C   0  0  0  0  0  0  0  0  0  0  0  0
  -18.4460  -42.7370   -7.2638 C   0  0  0  0  0  0  0  0  0  0  0  0
  -17.8958  -43.7679   -8.0708 C   0  0  0  0  0  0  0  0  0  0  0  0
  -17.3788  -41.7836   -6.9037 C   0  0  0  0  0  0  0  0  0  0  0  0
  -16.1948  -42.2864   -6.5649 O   0  0  0  0  0  0  0  0  0  0  0  0
  -17.3104  -40.3874   -6.8308 N   0  0  0  0  0  0  0  0  0  0  0  0
  -17.6101  -39.4526   -7.9378 C   0  0  1  0  0  0  0  0  0  0  0  0
  -18.2915  -38.2740   -7.2715 C   0  0  0  0  0  0  0  0  0  0  0  0
  -19.7940  -38.3806   -7.3002 C   0  0  0  0  0  0  0  0  0  0  0  0
  -20.3317  -37.5623   -8.3207 C   0  0  0  0  0  0  0  0  0  0  0  0
  -21.6635  -37.5078   -8.6276 C   0  0  0  0  0  0  0  0  0  0  0  0
  -22.4726  -38.3172   -7.8691 C   0  0  0  0  0  0  0  0  0  0  0  0
  -21.9804  -39.1522   -6.8410 C   0  0  0  0  0  0  0  0  0  0  0  0
  -20.6179  -39.1732   -6.5564 C   0  0  0  0  0  0  0  0  0  0  0  0
  -23.0062  -39.8666   -6.2496 O   0  0  0  0  0  0  0  0  0  0  0  0
  -23.3429  -41.2013   -6.0726 C   0  0  0  0  0  0  0  0  0  0  0  0
  -22.7527  -41.8433   -4.8722 C   0  0  0  0  0  0  0  0  0  0  0  0
  -22.4307  -43.3011   -4.9895 C   0  0  0  0  0  0  0  0  0  0  0  0
  -22.8956  -43.9950   -6.2157 C   0  0  0  0  0  0  0  0  0  0  0  0
  -21.9512  -44.0782   -7.3026 N   0  0  0  0  0  0  0  0  0  0  0  0
  -16.3235  -39.0462   -8.6100 C   0  0  2  0  0  0  0  0  0  0  0  0
  -16.4938  -38.6815   -9.9427 O   0  0  0  0  0  0  0  0  0  0  0  0
  -15.1831  -39.9783   -8.4705 C   0  0  0  0  0  0  0  0  0  0  0  0
  -15.1159  -40.7748   -7.2973 N   0  0  0  0  0  0  0  0  0  0  0  0
  1  2  1  0
  2  3  1  0
  3  4  1  0
  4  5  2  0
  5  6  1  0
  6  7  2  0
  7  8  1  0
  8  9  2  0
  8 10  1  0
 10 11  2  0
 10 12  1  0
 12 13  1  0
 13 14  1  1
 14 15  1  0
 15 16  2  0
 16 17  1  0
 17 18  2  0
 18 19  1  0
 19 20  2  0
 19 21  1  0
 21 22  1  0
 22 23  1  0
 23 24  1  0
 24 25  1  0
 25 26  1  0
 13 27  1  0
 27 28  1  6
 27 29  1  0
 29 30  1  0
  9  4  1  0
 20 15  1  0
 26  6  1  0
M  END
$$$$
