
     RDKit          3D

 30 32  0  0  0  0  0  0  0  0999 V2000
  -15.7355  -46.9533   -9.3049 C   0  0  0  0  0  0  0  0  0  0  0  0
  -17.0647  -46.8715   -9.7112 O   0  0  0  0  0  0  0  0  0  0  0  0
  -17.2706  -45.5765  -10.1739 C   0  0  0  0  0  0  0  0  0  0  0  0
  -18.0015  -44.7325   -9.1929 C   0  0  0  0  0  0  0  0  0  0  0  0
  -19.3261  -44.9185   -8.9111 C   0  0  0  0  0  0  0  0  0  0  0  0
  -20.0575  -44.1320   -7.9791 C   0  0  0  0  0  0  0  0  0  0  0  0
  -19.4117  -43.1171   -7.3100 C   0  0  0  0  0  0  0  0  0  0  0  0
  -18.0813  -42.8935   -7.5626 C   0  0  0  0  0  0  0  0  0  0  0  0
  -17.4034  -43.7127   -8.5039 C   0  0  0  0  0  0  0  0  0  0  0  0
  -17.1353  -41.9022   -7.0149 C   0  0  0  0  0  0  0  0  0  0  0  0
  -15.9088  -42.3226   -6.7178 O   0  0  0  0  0  0  0  0  0  0  0  0
  -17.2262  -40.5376   -6.7161 N   0  0  0  0  0  0  0  0  0  0  0  0
  -17.6086  -39.4722   -7.6688 C   0  0  1  0  0  0  0  0  0  0  0  0
  -18.4309  -38.4994   -6.8474 C   0  0  0  0  0  0  0  0  0  0  0  0
  -19.9110  -38.7617   -6.9483 C   0  0  0  0  0  0  0  0  0  0  0  0
  -20.5183  -37.8504   -7.8431 C   0  0  0  0  0  0  0  0  0  0  0  0
  -21.8417  -37.8908   -8.1861 C   0  0  0  0  0  0  0  0  0  0  0  0
  -22.5685  -38.8963   -7.5979 C   0  0  0  0  0  0  0  0  0  0  0  0
  -22.0047  -39.8302   -6.6999 C   0  0  0  0  0  0  0  0  0  0  0  0
  -20.6540  -39.7499   -6.3724 C   0  0  0  0  0  0  0  0  0  0  0  0
  -22.9543  -40.7385   -6.2692 O   0  0  0  0  0  0  0  0  0  0  0  0
  -23.1416  -42.1127   -6.3215 C   0  0  0  0  0  0  0  0  0  0  0  0
  -22.5054  -42.8748   -5.2189 C   0  0  0  0  0  0  0  0  0  0  0  0
  -22.0190  -44.2503   -5.5570 C   0  0  0  0  0  0  0  0  0  0  0  0
  -22.3795  -44.7802   -6.8950 C   0  0  0  0  0  0  0  0  0  0  0  0
  -21.4116  -44.5815   -7.9456 N   0  0  0  0  0  0  0  0  0  0  0  0
  -16.3636  -38.8244   -8.2191 C   0  0  2  0  0  0  0  0  0  0  0  0
  -16.3700  -38.7180   -9.6071 O   0  0  0  0  0  0  0  0  0  0  0  0
  -15.0721  -39.3710   -7.7481 C   0  0  0  0  0  0  0  0  0  0  0  0
  -14.5364  -40.4933   -8.4327 N   0  0  0  0  0  0  0  0  0  0  0  0
  1  2  1  0
  2  3  1  0
  3  4  1  0
  4  5  2  0
  5  6  1  0
  6  7  2  0
  7  8  1  0
  8  9  2  0
  8 10  1  0
 10 11  2  0
 10 12  1  0
 12 13  1  0
 13 14  1  1
 14 15  1  0
 15 16  2  0
 16 17  1  0
 17 18  2  0
 18 19  1  0
 19 20  2  0
 19 21  1  0
 21 22  1  0
 22 23  1  0
 23 24  1  0
 24 25  1  0
 25 26  1  0
 13 27  1  0
 27 28  1  6
 27 29  1  0
 29 30  1  0
  9  4  1  0
 20 15  1  0
 26  6  1  0
M  END
$$$$
