
     RDKit          3D

 30 32  0  0  0  0  0  0  0  0999 V2000
  -14.7722  -40.5626  -12.8253 C   0  0  0  0  0  0  0  0  0  0  0  0
  -15.3864  -41.6721  -13.4001 O   0  0  0  0  0  0  0  0  0  0  0  0
  -15.2184  -42.7337  -12.5177 C   0  0  0  0  0  0  0  0  0  0  0  0
  -16.2470  -42.7487  -11.4451 C   0  0  0  0  0  0  0  0  0  0  0  0
  -17.5044  -43.2469  -11.6439 C   0  0  0  0  0  0  0  0  0  0  0  0
  -18.5133  -43.2783  -10.6422 C   0  0  0  0  0  0  0  0  0  0  0  0
  -18.2273  -42.7820   -9.3906 C   0  0  0  0  0  0  0  0  0  0  0  0
  -16.9773  -42.2705   -9.1463 C   0  0  0  0  0  0  0  0  0  0  0  0
  -16.0104  -42.2668  -10.1864 C   0  0  0  0  0  0  0  0  0  0  0  0
  -16.3831  -41.6792   -7.9319 C   0  0  0  0  0  0  0  0  0  0  0  0
  -15.1325  -42.0189   -7.6321 O   0  0  0  0  0  0  0  0  0  0  0  0
  -16.8509  -40.7878   -6.9592 N   0  0  0  0  0  0  0  0  0  0  0  0
  -17.3793  -39.4305   -7.2194 C   0  0  1  0  0  0  0  0  0  0  0  0
  -18.5101  -39.2613   -6.2245 C   0  0  0  0  0  0  0  0  0  0  0  0
  -19.8535  -39.6143   -6.8079 C   0  0  0  0  0  0  0  0  0  0  0  0
  -20.5654  -38.4446   -7.1618 C   0  0  0  0  0  0  0  0  0  0  0  0
  -21.7869  -38.4562   -7.7771 C   0  0  0  0  0  0  0  0  0  0  0  0
  -22.2973  -39.7030   -8.0418 C   0  0  0  0  0  0  0  0  0  0  0  0
  -21.6218  -40.8984   -7.7084 C   0  0  0  0  0  0  0  0  0  0  0  0
  -20.3825  -40.8423   -7.0768 C   0  0  0  0  0  0  0  0  0  0  0  0
  -22.3527  -42.0056   -8.0986 O   0  0  0  0  0  0  0  0  0  0  0  0
  -22.1779  -43.0895   -8.9475 C   0  0  0  0  0  0  0  0  0  0  0  0
  -21.4999  -44.2603   -8.3385 C   0  0  0  0  0  0  0  0  0  0  0  0
  -20.6449  -45.0822   -9.2529 C   0  0  0  0  0  0  0  0  0  0  0  0
  -20.7033  -44.7574  -10.6994 C   0  0  0  0  0  0  0  0  0  0  0  0
  -19.7036  -43.8420  -11.1919 N   0  0  0  0  0  0  0  0  0  0  0  0
  -16.2848  -38.4179   -6.9976 C   0  0  2  0  0  0  0  0  0  0  0  0
  -16.7198  -37.1028   -7.1359 O   0  0  0  0  0  0  0  0  0  0  0  0
  -15.0284  -38.6290   -7.7496 C   0  0  0  0  0  0  0  0  0  0  0  0
  -15.1262  -38.9771   -9.1224 N   0  0  0  0  0  0  0  0  0  0  0  0
  1  2  1  0
  2  3  1  0
  3  4  1  0
  4  5  2  0
  5  6  1  0
  6  7  2  0
  7  8  1  0
  8  9  2  0
  8 10  1  0
 10 11  2  0
 10 12  1  0
 12 13  1  0
 13 14  1  1
 14 15  1  0
 15 16  2  0
 16 17  1  0
 17 18  2  0
 18 19  1  0
 19 20  2  0
 19 21  1  0
 21 22  1  0
 22 23  1  0
 23 24  1  0
 24 25  1  0
 25 26  1  0
 13 27  1  0
 27 28  1  6
 27 29  1  0
 29 30  1  0
  9  4  1  0
 20 15  1  0
 26  6  1  0
M  END
$$$$
