
     RDKit          3D

 30 32  0  0  0  0  0  0  0  0999 V2000
  -13.4584  -45.3137  -10.7468 C   0  0  0  0  0  0  0  0  0  0  0  0
  -14.6332  -45.5471  -10.0369 O   0  0  0  0  0  0  0  0  0  0  0  0
  -15.6415  -44.8284  -10.6697 C   0  0  0  0  0  0  0  0  0  0  0  0
  -16.5818  -44.2000   -9.7055 C   0  0  0  0  0  0  0  0  0  0  0  0
  -17.8580  -44.6553   -9.5252 C   0  0  0  0  0  0  0  0  0  0  0  0
  -18.7845  -44.0803   -8.6124 C   0  0  0  0  0  0  0  0  0  0  0  0
  -18.3928  -42.9995   -7.8554 C   0  0  0  0  0  0  0  0  0  0  0  0
  -17.1201  -42.5079   -8.0044 C   0  0  0  0  0  0  0  0  0  0  0  0
  -16.2388  -43.1246   -8.9317 C   0  0  0  0  0  0  0  0  0  0  0  0
  -16.4227  -41.3849   -7.3485 C   0  0  0  0  0  0  0  0  0  0  0  0
  -15.1572  -41.5756   -6.9857 O   0  0  0  0  0  0  0  0  0  0  0  0
  -16.7987  -40.0833   -6.9964 N   0  0  0  0  0  0  0  0  0  0  0  0
  -17.3263  -39.0595   -7.9251 C   0  0  1  0  0  0  0  0  0  0  0  0
  -18.3719  -38.3134   -7.1205 C   0  0  0  0  0  0  0  0  0  0  0  0
  -19.7624  -38.8517   -7.3359 C   0  0  0  0  0  0  0  0  0  0  0  0
  -20.4831  -38.0258   -8.2294 C   0  0  0  0  0  0  0  0  0  0  0  0
  -21.7498  -38.3025   -8.6653 C   0  0  0  0  0  0  0  0  0  0  0  0
  -22.2976  -39.4619   -8.1745 C   0  0  0  0  0  0  0  0  0  0  0  0
  -21.6151  -40.3185   -7.2819 C   0  0  0  0  0  0  0  0  0  0  0  0
  -20.3289  -39.9966   -6.8577 C   0  0  0  0  0  0  0  0  0  0  0  0
  -22.3907  -41.4170   -6.9593 O   0  0  0  0  0  0  0  0  0  0  0  0
  -22.2997  -42.7961   -7.0856 C   0  0  0  0  0  0  0  0  0  0  0  0
  -21.5926  -43.4823   -5.9764 C   0  0  0  0  0  0  0  0  0  0  0  0
  -20.8249  -44.7155   -6.3406 C   0  0  0  0  0  0  0  0  0  0  0  0
  -20.9934  -45.2277   -7.7227 C   0  0  0  0  0  0  0  0  0  0  0  0
  -20.0228  -44.7852   -8.6934 N   0  0  0  0  0  0  0  0  0  0  0  0
  -16.2031  -38.1520   -8.3579 C   0  0  2  0  0  0  0  0  0  0  0  0
  -16.3481  -37.6853   -9.6614 O   0  0  0  0  0  0  0  0  0  0  0  0
  -14.8284  -38.6523   -8.1374 C   0  0  0  0  0  0  0  0  0  0  0  0
  -14.6577  -40.0404   -7.8941 N   0  0  0  0  0  0  0  0  0  0  0  0
  1  2  1  0
  2  3  1  0
  3  4  1  0
  4  5  2  0
  5  6  1  0
  6  7  2  0
  7  8  1  0
  8  9  2  0
  8 10  1  0
 10 11  2  0
 10 12  1  0
 12 13  1  0
 13 14  1  1
 14 15  1  0
 15 16  2  0
 16 17  1  0
 17 18  2  0
 18 19  1  0
 19 20  2  0
 19 21  1  0
 21 22  1  0
 22 23  1  0
 23 24  1  0
 24 25  1  0
 25 26  1  0
 13 27  1  0
 27 28  1  6
 27 29  1  0
 29 30  1  0
  9  4  1  0
 20 15  1  0
 26  6  1  0
M  END
$$$$
