
     RDKit          3D

 30 32  0  0  0  0  0  0  0  0999 V2000
  -13.9788  -43.6202  -12.7756 C   0  0  0  0  0  0  0  0  0  0  0  0
  -15.3282  -43.7117  -13.1066 O   0  0  0  0  0  0  0  0  0  0  0  0
  -15.8874  -42.4575  -12.8878 C   0  0  0  0  0  0  0  0  0  0  0  0
  -16.8137  -42.4438  -11.7256 C   0  0  0  0  0  0  0  0  0  0  0  0
  -18.1046  -42.8847  -11.8134 C   0  0  0  0  0  0  0  0  0  0  0  0
  -19.0184  -42.8873  -10.7238 C   0  0  0  0  0  0  0  0  0  0  0  0
  -18.5980  -42.4218   -9.4986 C   0  0  0  0  0  0  0  0  0  0  0  0
  -17.3096  -41.9680   -9.3646 C   0  0  0  0  0  0  0  0  0  0  0  0
  -16.4423  -41.9907  -10.4889 C   0  0  0  0  0  0  0  0  0  0  0  0
  -16.5817  -41.4203   -8.2037 C   0  0  0  0  0  0  0  0  0  0  0  0
  -15.3252  -41.8176   -8.0234 O   0  0  0  0  0  0  0  0  0  0  0  0
  -16.9192  -40.5237   -7.1830 N   0  0  0  0  0  0  0  0  0  0  0  0
  -17.4088  -39.1414   -7.3795 C   0  0  1  0  0  0  0  0  0  0  0  0
  -18.4357  -38.9382   -6.2833 C   0  0  0  0  0  0  0  0  0  0  0  0
  -19.8409  -39.2248   -6.7447 C   0  0  0  0  0  0  0  0  0  0  0  0
  -20.5299  -38.0207   -7.0197 C   0  0  0  0  0  0  0  0  0  0  0  0
  -21.8018  -37.9710   -7.5204 C   0  0  0  0  0  0  0  0  0  0  0  0
  -22.3886  -39.1908   -7.7503 C   0  0  0  0  0  0  0  0  0  0  0  0
  -21.7387  -40.4188   -7.4927 C   0  0  0  0  0  0  0  0  0  0  0  0
  -20.4458  -40.4250   -6.9768 C   0  0  0  0  0  0  0  0  0  0  0  0
  -22.5502  -41.4878   -7.8258 O   0  0  0  0  0  0  0  0  0  0  0  0
  -22.5015  -42.5659   -8.6984 C   0  0  0  0  0  0  0  0  0  0  0  0
  -21.8230  -43.7734   -8.1664 C   0  0  0  0  0  0  0  0  0  0  0  0
  -21.0919  -44.6179   -9.1639 C   0  0  0  0  0  0  0  0  0  0  0  0
  -21.2676  -44.2701  -10.5954 C   0  0  0  0  0  0  0  0  0  0  0  0
  -20.2775  -43.3914  -11.1680 N   0  0  0  0  0  0  0  0  0  0  0  0
  -16.2551  -38.1800   -7.2484 C   0  0  2  0  0  0  0  0  0  0  0  0
  -16.0691  -37.3910   -8.3802 O   0  0  0  0  0  0  0  0  0  0  0  0
  -14.9670  -38.7524   -6.7994 C   0  0  0  0  0  0  0  0  0  0  0  0
  -14.0389  -39.1604   -7.7931 N   0  0  0  0  0  0  0  0  0  0  0  0
  1  2  1  0
  2  3  1  0
  3  4  1  0
  4  5  2  0
  5  6  1  0
  6  7  2  0
  7  8  1  0
  8  9  2  0
  8 10  1  0
 10 11  2  0
 10 12  1  0
 12 13  1  0
 13 14  1  1
 14 15  1  0
 15 16  2  0
 16 17  1  0
 17 18  2  0
 18 19  1  0
 19 20  2  0
 19 21  1  0
 21 22  1  0
 22 23  1  0
 23 24  1  0
 24 25  1  0
 25 26  1  0
 13 27  1  0
 27 28  1  6
 27 29  1  0
 29 30  1  0
  9  4  1  0
 20 15  1  0
 26  6  1  0
M  END
$$$$
