
     RDKit          3D

 30 32  0  0  0  0  0  0  0  0999 V2000
  -15.5923  -41.1609  -14.0252 C   0  0  0  0  0  0  0  0  0  0  0  0
  -15.1595  -41.6441  -12.7932 O   0  0  0  0  0  0  0  0  0  0  0  0
  -15.8396  -42.8344  -12.5604 C   0  0  0  0  0  0  0  0  0  0  0  0
  -16.6213  -42.8038  -11.2967 C   0  0  0  0  0  0  0  0  0  0  0  0
  -17.7920  -43.4929  -11.1435 C   0  0  0  0  0  0  0  0  0  0  0  0
  -18.5657  -43.4878   -9.9504 C   0  0  0  0  0  0  0  0  0  0  0  0
  -18.1276  -42.7511   -8.8735 C   0  0  0  0  0  0  0  0  0  0  0  0
  -16.9574  -42.0422   -8.9830 C   0  0  0  0  0  0  0  0  0  0  0  0
  -16.2270  -42.0865  -10.2001 C   0  0  0  0  0  0  0  0  0  0  0  0
  -16.2445  -41.1777   -8.0228 C   0  0  0  0  0  0  0  0  0  0  0  0
  -14.9205  -41.2901   -7.9607 O   0  0  0  0  0  0  0  0  0  0  0  0
  -16.6553  -40.2041   -7.1047 N   0  0  0  0  0  0  0  0  0  0  0  0
  -17.4437  -38.9947   -7.4285 C   0  0  1  0  0  0  0  0  0  0  0  0
  -18.3701  -38.8113   -6.2431 C   0  0  0  0  0  0  0  0  0  0  0  0
  -19.7234  -39.4359   -6.4625 C   0  0  0  0  0  0  0  0  0  0  0  0
  -20.6761  -38.4504   -6.8105 C   0  0  0  0  0  0  0  0  0  0  0  0
  -21.9749  -38.7308   -7.1349 C   0  0  0  0  0  0  0  0  0  0  0  0
  -22.3114  -40.0616   -7.1054 C   0  0  0  0  0  0  0  0  0  0  0  0
  -21.3936  -41.0808   -6.7656 C   0  0  0  0  0  0  0  0  0  0  0  0
  -20.0819  -40.7516   -6.4355 C   0  0  0  0  0  0  0  0  0  0  0  0
  -21.9911  -42.3263   -6.8282 O   0  0  0  0  0  0  0  0  0  0  0  0
  -21.8071  -43.5059   -7.5357 C   0  0  0  0  0  0  0  0  0  0  0  0
  -20.8371  -44.4536   -6.9338 C   0  0  0  0  0  0  0  0  0  0  0  0
  -20.0523  -45.2973   -7.8903 C   0  0  0  0  0  0  0  0  0  0  0  0
  -20.4459  -45.2354   -9.3194 C   0  0  0  0  0  0  0  0  0  0  0  0
  -19.7292  -44.2918  -10.1417 N   0  0  0  0  0  0  0  0  0  0  0  0
  -16.5120  -37.8214   -7.5953 C   0  0  2  0  0  0  0  0  0  0  0  0
  -17.0414  -36.8114   -8.3937 O   0  0  0  0  0  0  0  0  0  0  0  0
  -15.1256  -38.1331   -8.0068 C   0  0  0  0  0  0  0  0  0  0  0  0
  -14.5847  -39.3880   -7.6224 N   0  0  0  0  0  0  0  0  0  0  0  0
  1  2  1  0
  2  3  1  0
  3  4  1  0
  4  5  2  0
  5  6  1  0
  6  7  2  0
  7  8  1  0
  8  9  2  0
  8 10  1  0
 10 11  2  0
 10 12  1  0
 12 13  1  0
 13 14  1  1
 14 15  1  0
 15 16  2  0
 16 17  1  0
 17 18  2  0
 18 19  1  0
 19 20  2  0
 19 21  1  0
 21 22  1  0
 22 23  1  0
 23 24  1  0
 24 25  1  0
 25 26  1  0
 13 27  1  0
 27 28  1  6
 27 29  1  0
 29 30  1  0
  9  4  1  0
 20 15  1  0
 26  6  1  0
M  END
$$$$
