
     RDKit          3D

 30 32  0  0  0  0  0  0  0  0999 V2000
  -14.6185  -46.2462   -9.5448 C   0  0  0  0  0  0  0  0  0  0  0  0
  -15.8786  -46.5653  -10.0439 O   0  0  0  0  0  0  0  0  0  0  0  0
  -16.4515  -45.3803  -10.4923 C   0  0  0  0  0  0  0  0  0  0  0  0
  -17.3151  -44.7426   -9.4644 C   0  0  0  0  0  0  0  0  0  0  0  0
  -18.6252  -45.0921   -9.2902 C   0  0  0  0  0  0  0  0  0  0  0  0
  -19.4808  -44.5050   -8.3178 C   0  0  0  0  0  0  0  0  0  0  0  0
  -18.9796  -43.5240   -7.4926 C   0  0  0  0  0  0  0  0  0  0  0  0
  -17.6692  -43.1405   -7.6330 C   0  0  0  0  0  0  0  0  0  0  0  0
  -16.8628  -43.7638   -8.6219 C   0  0  0  0  0  0  0  0  0  0  0  0
  -16.8613  -42.1379   -6.9122 C   0  0  0  0  0  0  0  0  0  0  0  0
  -15.6136  -42.4696   -6.5919 O   0  0  0  0  0  0  0  0  0  0  0  0
  -17.1102  -40.8374   -6.4578 N   0  0  0  0  0  0  0  0  0  0  0  0
  -17.5548  -39.7033   -7.2975 C   0  0  1  0  0  0  0  0  0  0  0  0
  -18.5148  -38.9273   -6.4180 C   0  0  0  0  0  0  0  0  0  0  0  0
  -19.9522  -39.3192   -6.6417 C   0  0  0  0  0  0  0  0  0  0  0  0
  -20.6068  -38.3667   -7.4567 C   0  0  0  0  0  0  0  0  0  0  0  0
  -21.9000  -38.4935   -7.8839 C   0  0  0  0  0  0  0  0  0  0  0  0
  -22.5452  -39.6316   -7.4674 C   0  0  0  0  0  0  0  0  0  0  0  0
  -21.9315  -40.6112   -6.6547 C   0  0  0  0  0  0  0  0  0  0  0  0
  -20.6148  -40.4403   -6.2363 C   0  0  0  0  0  0  0  0  0  0  0  0
  -22.8003  -41.6555   -6.3965 O   0  0  0  0  0  0  0  0  0  0  0  0
  -22.8390  -43.0238   -6.6251 C   0  0  0  0  0  0  0  0  0  0  0  0
  -22.1818  -43.8525   -5.5847 C   0  0  0  0  0  0  0  0  0  0  0  0
  -21.5369  -45.1198   -6.0546 C   0  0  0  0  0  0  0  0  0  0  0  0
  -21.7727  -45.5098   -7.4665 C   0  0  0  0  0  0  0  0  0  0  0  0
  -20.7799  -45.0862   -8.4231 N   0  0  0  0  0  0  0  0  0  0  0  0
  -16.3591  -38.8720   -7.6872 C   0  0  2  0  0  0  0  0  0  0  0  0
  -16.5977  -38.0518   -8.7863 O   0  0  0  0  0  0  0  0  0  0  0  0
  -15.0780  -39.5940   -7.8489 C   0  0  0  0  0  0  0  0  0  0  0  0
  -14.3349  -39.3705   -9.0376 N   0  0  0  0  0  0  0  0  0  0  0  0
  1  2  1  0
  2  3  1  0
  3  4  1  0
  4  5  2  0
  5  6  1  0
  6  7  2  0
  7  8  1  0
  8  9  2  0
  8 10  1  0
 10 11  2  0
 10 12  1  0
 12 13  1  0
 13 14  1  1
 14 15  1  0
 15 16  2  0
 16 17  1  0
 17 18  2  0
 18 19  1  0
 19 20  2  0
 19 21  1  0
 21 22  1  0
 22 23  1  0
 23 24  1  0
 24 25  1  0
 25 26  1  0
 13 27  1  0
 27 28  1  6
 27 29  1  0
 29 30  1  0
  9  4  1  0
 20 15  1  0
 26  6  1  0
M  END
$$$$
