
     RDKit          3D

 30 32  0  0  0  0  0  0  0  0999 V2000
  -16.1167  -45.0519  -10.1636 C   0  0  0  0  0  0  0  0  0  0  0  0
  -17.3955  -45.5325  -10.4331 O   0  0  0  0  0  0  0  0  0  0  0  0
  -17.9020  -46.0348   -9.2395 C   0  0  0  0  0  0  0  0  0  0  0  0
  -18.6440  -45.0088   -8.4612 C   0  0  0  0  0  0  0  0  0  0  0  0
  -20.0021  -45.0453   -8.3101 C   0  0  0  0  0  0  0  0  0  0  0  0
  -20.7450  -44.0826   -7.5730 C   0  0  0  0  0  0  0  0  0  0  0  0
  -20.0757  -43.0433   -6.9676 C   0  0  0  0  0  0  0  0  0  0  0  0
  -18.7112  -42.9661   -7.0939 C   0  0  0  0  0  0  0  0  0  0  0  0
  -18.0233  -43.9580   -7.8422 C   0  0  0  0  0  0  0  0  0  0  0  0
  -17.7345  -41.9913   -6.5712 C   0  0  0  0  0  0  0  0  0  0  0  0
  -16.5907  -42.4672   -6.0868 O   0  0  0  0  0  0  0  0  0  0  0  0
  -17.7232  -40.5960   -6.4581 N   0  0  0  0  0  0  0  0  0  0  0  0
  -17.9024  -39.6412   -7.5739 C   0  0  1  0  0  0  0  0  0  0  0  0
  -18.7061  -38.5020   -6.9794 C   0  0  0  0  0  0  0  0  0  0  0  0
  -20.1867  -38.6528   -7.2136 C   0  0  0  0  0  0  0  0  0  0  0  0
  -20.6093  -37.8238   -8.2786 C   0  0  0  0  0  0  0  0  0  0  0  0
  -21.8888  -37.8010   -8.7615 C   0  0  0  0  0  0  0  0  0  0  0  0
  -22.7651  -38.6546   -8.1380 C   0  0  0  0  0  0  0  0  0  0  0  0
  -22.3880  -39.5019   -7.0720 C   0  0  0  0  0  0  0  0  0  0  0  0
  -21.0762  -39.4895   -6.6062 C   0  0  0  0  0  0  0  0  0  0  0  0
  -23.4596  -40.2624   -6.6412 O   0  0  0  0  0  0  0  0  0  0  0  0
  -23.7723  -41.6109   -6.5416 C   0  0  0  0  0  0  0  0  0  0  0  0
  -23.3278  -42.2670   -5.2873 C   0  0  0  0  0  0  0  0  0  0  0  0
  -22.9444  -43.7108   -5.3930 C   0  0  0  0  0  0  0  0  0  0  0  0
  -23.2167  -44.3851   -6.6862 C   0  0  0  0  0  0  0  0  0  0  0  0
  -22.1325  -44.4105   -7.6369 N   0  0  0  0  0  0  0  0  0  0  0  0
  -16.5513  -39.1784   -8.0565 C   0  0  2  0  0  0  0  0  0  0  0  0
  -16.3677  -39.3587   -9.4246 O   0  0  0  0  0  0  0  0  0  0  0  0
  -15.3769  -39.6759   -7.3069 C   0  0  0  0  0  0  0  0  0  0  0  0
  -14.6484  -40.7624   -7.8582 N   0  0  0  0  0  0  0  0  0  0  0  0
  1  2  1  0
  2  3  1  0
  3  4  1  0
  4  5  2  0
  5  6  1  0
  6  7  2  0
  7  8  1  0
  8  9  2  0
  8 10  1  0
 10 11  2  0
 10 12  1  0
 12 13  1  0
 13 14  1  1
 14 15  1  0
 15 16  2  0
 16 17  1  0
 17 18  2  0
 18 19  1  0
 19 20  2  0
 19 21  1  0
 21 22  1  0
 22 23  1  0
 23 24  1  0
 24 25  1  0
 25 26  1  0
 13 27  1  0
 27 28  1  6
 27 29  1  0
 29 30  1  0
  9  4  1  0
 20 15  1  0
 26  6  1  0
M  END
$$$$
