
     RDKit          3D

 36 38  0  0  0  0  0  0  0  0999 V2000
  -12.6144  -33.9346  -13.3332 C   0  0  0  0  0  0  0  0  0  0  0  0
  -12.3887  -35.4323  -13.5419 C   0  0  0  0  0  0  0  0  0  0  0  0
  -11.0402  -35.7540  -12.9307 C   0  0  0  0  0  0  0  0  0  0  0  0
  -13.4356  -36.2315  -12.8933 C   0  0  0  0  0  0  0  0  0  0  0  0
  -13.9927  -37.2910  -13.5643 C   0  0  0  0  0  0  0  0  0  0  0  0
  -14.9832  -38.0601  -12.9746 C   0  0  0  0  0  0  0  0  0  0  0  0
  -15.3960  -37.7394  -11.7039 C   0  0  0  0  0  0  0  0  0  0  0  0
  -14.8715  -36.6888  -10.9873 C   0  0  0  0  0  0  0  0  0  0  0  0
  -15.3334  -36.3532   -9.6064 C   0  0  0  0  0  0  0  0  0  0  0  0
  -16.7084  -36.6564   -9.4042 N   0  0  0  0  0  0  0  0  0  0  0  0
  -17.0234  -37.9419   -8.8864 C   0  0  0  0  0  0  0  0  0  0  0  0
  -17.6912  -37.9895   -7.5586 C   0  0  1  0  0  0  0  0  0  0  0  0
  -18.5473  -36.9447   -7.2775 O   0  0  0  0  0  0  0  0  0  0  0  0
  -18.3536  -39.3430   -7.2920 C   0  0  2  0  0  0  0  0  0  0  0  0
  -19.2773  -39.2925   -6.0954 C   0  0  0  0  0  0  0  0  0  0  0  0
  -20.7050  -39.0495   -6.4616 C   0  0  2  0  0  0  0  0  0  0  0  0
  -21.2842  -37.9952   -5.5541 C   0  0  0  0  0  0  0  0  0  0  0  0
  -21.5009  -40.3379   -6.3853 C   0  0  0  0  0  0  0  0  0  0  0  0
  -21.6538  -40.8568   -4.9932 C   0  0  0  0  0  0  0  0  0  0  0  0
  -21.5864  -42.2464   -4.9634 O   0  0  0  0  0  0  0  0  0  0  0  0
  -22.8163  -42.7672   -4.5810 C   0  0  0  0  0  0  0  0  0  0  0  0
  -23.4243  -43.5666   -5.7171 C   0  0  0  0  0  0  0  0  0  0  0  0
  -22.4898  -44.6522   -6.1940 C   0  0  0  0  0  0  0  0  0  0  0  0
  -22.2226  -44.5059   -7.6961 C   0  0  0  0  0  0  0  0  0  0  0  0
  -20.8819  -44.8989   -8.0530 N   0  0  0  0  0  0  0  0  0  0  0  0
  -19.7262  -44.0974   -8.3321 C   0  0  0  0  0  0  0  0  0  0  0  0
  -19.0725  -43.1200   -7.6297 C   0  0  0  0  0  0  0  0  0  0  0  0
  -17.9652  -42.5372   -8.2011 C   0  0  0  0  0  0  0  0  0  0  0  0
  -17.5636  -42.9846   -9.4852 C   0  0  0  0  0  0  0  0  0  0  0  0
  -18.2129  -43.9634  -10.1941 C   0  0  0  0  0  0  0  0  0  0  0  0
  -17.6666  -44.4763  -11.7844 Cl  0  0  0  0  0  0  0  0  0  0  0  0
  -19.2551  -44.4700   -9.5903 N   0  0  0  0  0  0  0  0  0  0  0  0
  -17.0543  -41.4887   -7.7429 C   0  0  0  0  0  0  0  0  0  0  0  0
  -15.7625  -41.6151   -7.9934 O   0  0  0  0  0  0  0  0  0  0  0  0
  -17.2690  -40.2782   -7.0415 N   0  0  0  0  0  0  0  0  0  0  0  0
  -13.8886  -35.9425  -11.5992 C   0  0  0  0  0  0  0  0  0  0  0  0
  1  2  1  0
  2  3  1  0
  2  4  1  0
  4  5  2  0
  5  6  1  0
  6  7  2  0
  7  8  1  0
  8  9  1  0
  9 10  1  0
 10 11  1  0
 11 12  1  0
 12 13  1  6
 12 14  1  0
 14 15  1  1
 15 16  1  0
 16 17  1  1
 16 18  1  0
 18 19  1  0
 19 20  1  0
 20 21  1  0
 21 22  1  0
 22 23  1  0
 23 24  1  0
 24 25  1  0
 25 26  1  0
 26 27  2  0
 27 28  1  0
 28 29  2  0
 29 30  1  0
 30 31  1  0
 30 32  2  0
 28 33  1  0
 33 34  2  0
 33 35  1  0
  8 36  2  0
 32 26  1  0
 35 14  1  0
 36  4  1  0
M  END
$$$$
