
     RDKit          3D

 36 38  0  0  0  0  0  0  0  0999 V2000
  -17.7247  -35.8155  -12.4946 C   0  0  0  0  0  0  0  0  0  0  0  0
  -16.4253  -35.0934  -12.1372 C   0  0  0  0  0  0  0  0  0  0  0  0
  -16.6468  -34.4533  -10.7820 C   0  0  0  0  0  0  0  0  0  0  0  0
  -15.2912  -36.0233  -12.0721 C   0  0  0  0  0  0  0  0  0  0  0  0
  -14.3062  -35.9586  -13.0255 C   0  0  0  0  0  0  0  0  0  0  0  0
  -13.2261  -36.8259  -12.9871 C   0  0  0  0  0  0  0  0  0  0  0  0
  -13.1621  -37.7522  -11.9742 C   0  0  0  0  0  0  0  0  0  0  0  0
  -14.1214  -37.8599  -10.9941 C   0  0  0  0  0  0  0  0  0  0  0  0
  -14.0365  -38.8745   -9.9004 C   0  0  0  0  0  0  0  0  0  0  0  0
  -15.3173  -39.2666   -9.4218 N   0  0  0  0  0  0  0  0  0  0  0  0
  -16.2452  -38.2331   -9.1199 C   0  0  0  0  0  0  0  0  0  0  0  0
  -16.9169  -38.2952   -7.7947 C   0  0  1  0  0  0  0  0  0  0  0  0
  -17.7041  -37.2105   -7.4675 O   0  0  0  0  0  0  0  0  0  0  0  0
  -17.6659  -39.6133   -7.5866 C   0  0  2  0  0  0  0  0  0  0  0  0
  -18.7655  -39.4803   -6.5567 C   0  0  0  0  0  0  0  0  0  0  0  0
  -20.1061  -39.2071   -7.1566 C   0  0  2  0  0  0  0  0  0  0  0  0
  -20.7805  -38.0957   -6.3947 C   0  0  0  0  0  0  0  0  0  0  0  0
  -20.9540  -40.4642   -7.1600 C   0  0  0  0  0  0  0  0  0  0  0  0
  -21.3467  -40.9163   -5.7918 C   0  0  0  0  0  0  0  0  0  0  0  0
  -21.3395  -42.3047   -5.6987 O   0  0  0  0  0  0  0  0  0  0  0  0
  -22.6340  -42.7678   -5.4992 C   0  0  0  0  0  0  0  0  0  0  0  0
  -23.0844  -43.5960   -6.6870 C   0  0  0  0  0  0  0  0  0  0  0  0
  -22.1292  -44.7314   -6.9658 C   0  0  0  0  0  0  0  0  0  0  0  0
  -21.6208  -44.6600   -8.4100 C   0  0  0  0  0  0  0  0  0  0  0  0
  -20.2569  -45.1118   -8.5317 N   0  0  0  0  0  0  0  0  0  0  0  0
  -19.0409  -44.3614   -8.6518 C   0  0  0  0  0  0  0  0  0  0  0  0
  -18.4695  -43.3761   -7.8913 C   0  0  0  0  0  0  0  0  0  0  0  0
  -17.2634  -42.8554   -8.2991 C   0  0  0  0  0  0  0  0  0  0  0  0
  -16.6804  -43.3715   -9.4841 C   0  0  0  0  0  0  0  0  0  0  0  0
  -17.2465  -44.3588  -10.2503 C   0  0  0  0  0  0  0  0  0  0  0  0
  -16.4746  -44.9585  -11.7115 Cl  0  0  0  0  0  0  0  0  0  0  0  0
  -18.3905  -44.8041   -9.8029 N   0  0  0  0  0  0  0  0  0  0  0  0
  -16.3966  -41.8180   -7.7409 C   0  0  0  0  0  0  0  0  0  0  0  0
  -15.0873  -41.9973   -7.7756 O   0  0  0  0  0  0  0  0  0  0  0  0
  -16.6725  -40.5716   -7.1297 N   0  0  0  0  0  0  0  0  0  0  0  0
  -15.1829  -36.9845  -11.0583 C   0  0  0  0  0  0  0  0  0  0  0  0
  1  2  1  0
  2  3  1  0
  2  4  1  0
  4  5  2  0
  5  6  1  0
  6  7  2  0
  7  8  1  0
  8  9  1  0
  9 10  1  0
 10 11  1  0
 11 12  1  0
 12 13  1  6
 12 14  1  0
 14 15  1  1
 15 16  1  0
 16 17  1  1
 16 18  1  0
 18 19  1  0
 19 20  1  0
 20 21  1  0
 21 22  1  0
 22 23  1  0
 23 24  1  0
 24 25  1  0
 25 26  1  0
 26 27  2  0
 27 28  1  0
 28 29  2  0
 29 30  1  0
 30 31  1  0
 30 32  2  0
 28 33  1  0
 33 34  2  0
 33 35  1  0
  8 36  2  0
 32 26  1  0
 35 14  1  0
 36  4  1  0
M  END
$$$$
