
     RDKit          3D

 36 38  0  0  0  0  0  0  0  0999 V2000
  -12.9396  -35.4117  -12.1163 C   0  0  0  0  0  0  0  0  0  0  0  0
  -13.2366  -36.8920  -12.3574 C   0  0  0  0  0  0  0  0  0  0  0  0
  -12.8950  -37.1693  -13.8072 C   0  0  0  0  0  0  0  0  0  0  0  0
  -12.4340  -37.7535  -11.4806 C   0  0  0  0  0  0  0  0  0  0  0  0
  -11.0669  -37.7560  -11.5999 C   0  0  0  0  0  0  0  0  0  0  0  0
  -10.2869  -38.5611  -10.7852 C   0  0  0  0  0  0  0  0  0  0  0  0
  -10.9113  -39.3570   -9.8553 C   0  0  0  0  0  0  0  0  0  0  0  0
  -12.2770  -39.3928   -9.6941 C   0  0  0  0  0  0  0  0  0  0  0  0
  -12.9395  -40.2658   -8.6783 C   0  0  0  0  0  0  0  0  0  0  0  0
  -14.3116  -39.9396   -8.4930 N   0  0  0  0  0  0  0  0  0  0  0  0
  -14.6086  -38.7822   -7.7234 C   0  0  0  0  0  0  0  0  0  0  0  0
  -15.8409  -38.8225   -6.8922 C   0  0  1  0  0  0  0  0  0  0  0  0
  -16.2369  -37.6199   -6.3441 O   0  0  0  0  0  0  0  0  0  0  0  0
  -16.9997  -39.5197   -7.6083 C   0  0  2  0  0  0  0  0  0  0  0  0
  -18.2315  -39.6069   -6.7349 C   0  0  0  0  0  0  0  0  0  0  0  0
  -19.2020  -38.4960   -6.9707 C   0  0  2  0  0  0  0  0  0  0  0  0
  -19.6621  -37.9413   -5.6474 C   0  0  0  0  0  0  0  0  0  0  0  0
  -20.3746  -38.9809   -7.8009 C   0  0  0  0  0  0  0  0  0  0  0  0
  -21.2418  -39.9622   -7.0828 C   0  0  0  0  0  0  0  0  0  0  0  0
  -21.7052  -40.9507   -7.9457 O   0  0  0  0  0  0  0  0  0  0  0  0
  -23.0834  -40.8436   -8.0842 C   0  0  0  0  0  0  0  0  0  0  0  0
  -23.4410  -40.4779   -9.5117 C   0  0  0  0  0  0  0  0  0  0  0  0
  -22.8624  -41.4632  -10.4984 C   0  0  0  0  0  0  0  0  0  0  0  0
  -21.9919  -40.7378  -11.5305 C   0  0  0  0  0  0  0  0  0  0  0  0
  -20.8646  -41.5333  -11.9497 N   0  0  0  0  0  0  0  0  0  0  0  0
  -19.4869  -41.4645  -11.5582 C   0  0  0  0  0  0  0  0  0  0  0  0
  -18.8548  -41.5124  -10.3441 C   0  0  0  0  0  0  0  0  0  0  0  0
  -17.4829  -41.4157  -10.3198 C   0  0  0  0  0  0  0  0  0  0  0  0
  -16.8020  -41.2738  -11.5554 C   0  0  0  0  0  0  0  0  0  0  0  0
  -17.4284  -41.2258  -12.7751 C   0  0  0  0  0  0  0  0  0  0  0  0
  -16.5290  -41.0484  -14.2751 Cl  0  0  0  0  0  0  0  0  0  0  0  0
  -18.7304  -41.3223  -12.7207 N   0  0  0  0  0  0  0  0  0  0  0  0
  -16.5116  -41.4274   -9.2263 C   0  0  0  0  0  0  0  0  0  0  0  0
  -15.3700  -42.0716   -9.3972 O   0  0  0  0  0  0  0  0  0  0  0  0
  -16.5261  -40.8557   -7.9316 N   0  0  0  0  0  0  0  0  0  0  0  0
  -13.0260  -38.5818  -10.5179 C   0  0  0  0  0  0  0  0  0  0  0  0
  1  2  1  0
  2  3  1  0
  2  4  1  0
  4  5  2  0
  5  6  1  0
  6  7  2  0
  7  8  1  0
  8  9  1  0
  9 10  1  0
 10 11  1  0
 11 12  1  0
 12 13  1  6
 12 14  1  0
 14 15  1  1
 15 16  1  0
 16 17  1  1
 16 18  1  0
 18 19  1  0
 19 20  1  0
 20 21  1  0
 21 22  1  0
 22 23  1  0
 23 24  1  0
 24 25  1  0
 25 26  1  0
 26 27  2  0
 27 28  1  0
 28 29  2  0
 29 30  1  0
 30 31  1  0
 30 32  2  0
 28 33  1  0
 33 34  2  0
 33 35  1  0
  8 36  2  0
 32 26  1  0
 35 14  1  0
 36  4  1  0
M  END
$$$$
