
     RDKit          3D

 36 38  0  0  0  0  0  0  0  0999 V2000
  -22.7424  -41.2316   -4.9504 C   0  0  0  0  0  0  0  0  0  0  0  0
  -23.0478  -39.7406   -5.0973 C   0  0  0  0  0  0  0  0  0  0  0  0
  -22.3955  -39.0491   -3.9175 C   0  0  0  0  0  0  0  0  0  0  0  0
  -22.5116  -39.2008   -6.3529 C   0  0  0  0  0  0  0  0  0  0  0  0
  -23.3324  -38.4853   -7.1880 C   0  0  0  0  0  0  0  0  0  0  0  0
  -22.8510  -37.9664   -8.3794 C   0  0  0  0  0  0  0  0  0  0  0  0
  -21.5343  -38.1835   -8.7069 C   0  0  0  0  0  0  0  0  0  0  0  0
  -20.6692  -38.8932   -7.9066 C   0  0  0  0  0  0  0  0  0  0  0  0
  -19.2401  -39.1210   -8.2792 C   0  0  0  0  0  0  0  0  0  0  0  0
  -18.3446  -38.7992   -7.2219 N   0  0  0  0  0  0  0  0  0  0  0  0
  -17.3352  -39.7499   -6.9102 C   0  0  0  0  0  0  0  0  0  0  0  0
  -16.0614  -39.6560   -7.6716 C   0  0  1  0  0  0  0  0  0  0  0  0
  -14.9435  -39.3205   -6.9358 O   0  0  0  0  0  0  0  0  0  0  0  0
  -15.8113  -40.8934   -8.5365 C   0  0  2  0  0  0  0  0  0  0  0  0
  -14.6528  -40.6916   -9.4877 C   0  0  0  0  0  0  0  0  0  0  0  0
  -13.3578  -41.2178   -8.9607 C   0  0  2  0  0  0  0  0  0  0  0  0
  -12.2727  -40.1960   -9.1824 C   0  0  0  0  0  0  0  0  0  0  0  0
  -13.0120  -42.5385   -9.6203 C   0  0  0  0  0  0  0  0  0  0  0  0
  -12.6902  -42.4077  -11.0729 C   0  0  0  0  0  0  0  0  0  0  0  0
  -13.1793  -43.4909  -11.7966 O   0  0  0  0  0  0  0  0  0  0  0  0
  -12.1198  -44.2281  -12.3104 C   0  0  0  0  0  0  0  0  0  0  0  0
  -12.0927  -45.6115  -11.6898 C   0  0  0  0  0  0  0  0  0  0  0  0
  -13.4072  -46.3299  -11.8781 C   0  0  0  0  0  0  0  0  0  0  0  0
  -13.9775  -46.7651  -10.5237 C   0  0  0  0  0  0  0  0  0  0  0  0
  -15.4181  -46.7113  -10.4952 N   0  0  0  0  0  0  0  0  0  0  0  0
  -16.2964  -45.7312   -9.9259 C   0  0  0  0  0  0  0  0  0  0  0  0
  -16.4168  -44.3763  -10.0857 C   0  0  0  0  0  0  0  0  0  0  0  0
  -17.3911  -43.7200   -9.3701 C   0  0  0  0  0  0  0  0  0  0  0  0
  -18.2166  -44.4864   -8.5088 C   0  0  0  0  0  0  0  0  0  0  0  0
  -18.1023  -45.8437   -8.3444 C   0  0  0  0  0  0  0  0  0  0  0  0
  -19.1565  -46.7402   -7.2604 Cl  0  0  0  0  0  0  0  0  0  0  0  0
  -17.1558  -46.3985   -9.0541 N   0  0  0  0  0  0  0  0  0  0  0  0
  -17.7854  -42.3134   -9.2992 C   0  0  0  0  0  0  0  0  0  0  0  0
  -19.0717  -42.0168   -9.2266 O   0  0  0  0  0  0  0  0  0  0  0  0
  -17.0367  -41.1123   -9.2876 N   0  0  0  0  0  0  0  0  0  0  0  0
  -21.1761  -39.3965   -6.7289 C   0  0  0  0  0  0  0  0  0  0  0  0
  1  2  1  0
  2  3  1  0
  2  4  1  0
  4  5  2  0
  5  6  1  0
  6  7  2  0
  7  8  1  0
  8  9  1  0
  9 10  1  0
 10 11  1  0
 11 12  1  0
 12 13  1  1
 12 14  1  0
 14 15  1  6
 15 16  1  0
 16 17  1  6
 16 18  1  0
 18 19  1  0
 19 20  1  0
 20 21  1  0
 21 22  1  0
 22 23  1  0
 23 24  1  0
 24 25  1  0
 25 26  1  0
 26 27  2  0
 27 28  1  0
 28 29  2  0
 29 30  1  0
 30 31  1  0
 30 32  2  0
 28 33  1  0
 33 34  2  0
 33 35  1  0
  8 36  2  0
 32 26  1  0
 35 14  1  0
 36  4  1  0
M  END
$$$$
