
     RDKit          3D

 36 38  0  0  0  0  0  0  0  0999 V2000
  -22.7472  -43.6202   -7.0243 C   0  0  0  0  0  0  0  0  0  0  0  0
  -23.4125  -42.3006   -6.6323 C   0  0  0  0  0  0  0  0  0  0  0  0
  -24.5894  -42.6576   -5.7474 C   0  0  0  0  0  0  0  0  0  0  0  0
  -22.4865  -41.4245   -5.9041 C   0  0  0  0  0  0  0  0  0  0  0  0
  -22.4318  -41.4855   -4.5342 C   0  0  0  0  0  0  0  0  0  0  0  0
  -21.5673  -40.6684   -3.8235 C   0  0  0  0  0  0  0  0  0  0  0  0
  -20.7660  -39.7956   -4.5193 C   0  0  0  0  0  0  0  0  0  0  0  0
  -20.7811  -39.6940   -5.8911 C   0  0  0  0  0  0  0  0  0  0  0  0
  -19.9034  -38.7378   -6.6317 C   0  0  0  0  0  0  0  0  0  0  0  0
  -18.5245  -38.9264   -6.3381 N   0  0  0  0  0  0  0  0  0  0  0  0
  -17.7124  -39.4941   -7.3571 C   0  0  0  0  0  0  0  0  0  0  0  0
  -16.2455  -39.5198   -7.1151 C   0  0  1  0  0  0  0  0  0  0  0  0
  -15.7211  -40.7345   -6.7240 O   0  0  0  0  0  0  0  0  0  0  0  0
  -15.4560  -38.9184   -8.2799 C   0  0  2  0  0  0  0  0  0  0  0  0
  -13.9705  -39.1672   -8.1421 C   0  0  0  0  0  0  0  0  0  0  0  0
  -13.5017  -40.3712   -8.8917 C   0  0  2  0  0  0  0  0  0  0  0  0
  -12.5935  -41.1895   -8.0107 C   0  0  0  0  0  0  0  0  0  0  0  0
  -12.8016  -39.9615  -10.1728 C   0  0  0  0  0  0  0  0  0  0  0  0
  -11.5062  -39.2557   -9.9390 C   0  0  0  0  0  0  0  0  0  0  0  0
  -11.3145  -38.2350  -10.8651 O   0  0  0  0  0  0  0  0  0  0  0  0
  -10.2348  -38.5417  -11.6839 C   0  0  0  0  0  0  0  0  0  0  0  0
  -10.6991  -38.7373  -13.1141 C   0  0  0  0  0  0  0  0  0  0  0  0
  -11.4521  -37.5316  -13.6228 C   0  0  0  0  0  0  0  0  0  0  0  0
  -12.8461  -37.9392  -14.1124 C   0  0  0  0  0  0  0  0  0  0  0  0
  -13.8322  -36.9166  -13.8652 N   0  0  0  0  0  0  0  0  0  0  0  0
  -14.8277  -36.8203  -12.8376 C   0  0  0  0  0  0  0  0  0  0  0  0
  -14.7683  -36.8572  -11.4698 C   0  0  0  0  0  0  0  0  0  0  0  0
  -15.9419  -36.7326  -10.7632 C   0  0  0  0  0  0  0  0  0  0  0  0
  -17.1464  -36.5710  -11.4936 C   0  0  0  0  0  0  0  0  0  0  0  0
  -17.2134  -36.5323  -12.8634 C   0  0  0  0  0  0  0  0  0  0  0  0
  -18.7386  -36.3293  -13.7136 Cl  0  0  0  0  0  0  0  0  0  0  0  0
  -16.0612  -36.6578  -13.4668 N   0  0  0  0  0  0  0  0  0  0  0  0
  -16.2363  -36.7315   -9.3306 C   0  0  0  0  0  0  0  0  0  0  0  0
  -17.1478  -35.8921   -8.8699 O   0  0  0  0  0  0  0  0  0  0  0  0
  -15.7238  -37.4897   -8.2509 N   0  0  0  0  0  0  0  0  0  0  0  0
  -21.6503  -40.5188   -6.5703 C   0  0  0  0  0  0  0  0  0  0  0  0
  1  2  1  0
  2  3  1  0
  2  4  1  0
  4  5  2  0
  5  6  1  0
  6  7  2  0
  7  8  1  0
  8  9  1  0
  9 10  1  0
 10 11  1  0
 11 12  1  0
 12 13  1  6
 12 14  1  0
 14 15  1  1
 15 16  1  0
 16 17  1  1
 16 18  1  0
 18 19  1  0
 19 20  1  0
 20 21  1  0
 21 22  1  0
 22 23  1  0
 23 24  1  0
 24 25  1  0
 25 26  1  0
 26 27  2  0
 27 28  1  0
 28 29  2  0
 29 30  1  0
 30 31  1  0
 30 32  2  0
 28 33  1  0
 33 34  2  0
 33 35  1  0
  8 36  2  0
 32 26  1  0
 35 14  1  0
 36  4  1  0
M  END
$$$$
