
     RDKit          3D

 36 38  0  0  0  0  0  0  0  0999 V2000
  -14.1053  -33.8487  -12.2517 C   0  0  0  0  0  0  0  0  0  0  0  0
  -12.9556  -34.7249  -12.7497 C   0  0  0  0  0  0  0  0  0  0  0  0
  -11.7607  -34.4064  -11.8742 C   0  0  0  0  0  0  0  0  0  0  0  0
  -13.2826  -36.1526  -12.6501 C   0  0  0  0  0  0  0  0  0  0  0  0
  -13.3757  -36.9078  -13.7922 C   0  0  0  0  0  0  0  0  0  0  0  0
  -13.6843  -38.2571  -13.7251 C   0  0  0  0  0  0  0  0  0  0  0  0
  -13.8952  -38.8230  -12.4909 C   0  0  0  0  0  0  0  0  0  0  0  0
  -13.8145  -38.1123  -11.3159 C   0  0  0  0  0  0  0  0  0  0  0  0
  -14.0484  -38.7439   -9.9819 C   0  0  0  0  0  0  0  0  0  0  0  0
  -15.1333  -39.6636   -9.9985 N   0  0  0  0  0  0  0  0  0  0  0  0
  -16.3798  -39.2110   -9.4872 C   0  0  0  0  0  0  0  0  0  0  0  0
  -16.5464  -39.2195   -8.0096 C   0  0  1  0  0  0  0  0  0  0  0  0
  -16.7931  -37.9946   -7.4246 O   0  0  0  0  0  0  0  0  0  0  0  0
  -17.5542  -40.2739   -7.5467 C   0  0  2  0  0  0  0  0  0  0  0  0
  -18.3205  -39.8225   -6.3233 C   0  0  0  0  0  0  0  0  0  0  0  0
  -19.6381  -39.1985   -6.6491 C   0  0  2  0  0  0  0  0  0  0  0  0
  -19.8041  -37.9302   -5.8526 C   0  0  0  0  0  0  0  0  0  0  0  0
  -20.7694  -40.1706   -6.3766 C   0  0  0  0  0  0  0  0  0  0  0  0
  -20.9537  -40.4715   -4.9253 C   0  0  0  0  0  0  0  0  0  0  0  0
  -21.2969  -41.8054   -4.7272 O   0  0  0  0  0  0  0  0  0  0  0  0
  -22.5899  -41.8873   -4.2257 C   0  0  0  0  0  0  0  0  0  0  0  0
  -23.4977  -42.5788   -5.2243 C   0  0  0  0  0  0  0  0  0  0  0  0
  -22.9673  -43.9395   -5.6068 C   0  0  0  0  0  0  0  0  0  0  0  0
  -22.7931  -44.0377   -7.1264 C   0  0  0  0  0  0  0  0  0  0  0  0
  -21.6619  -44.8525   -7.4948 N   0  0  0  0  0  0  0  0  0  0  0  0
  -20.3482  -44.4716   -7.9251 C   0  0  0  0  0  0  0  0  0  0  0  0
  -19.3800  -43.6703   -7.3806 C   0  0  0  0  0  0  0  0  0  0  0  0
  -18.2009  -43.5123   -8.0712 C   0  0  0  0  0  0  0  0  0  0  0  0
  -18.0559  -44.1910   -9.3077 C   0  0  0  0  0  0  0  0  0  0  0  0
  -19.0209  -44.9956   -9.8587 C   0  0  0  0  0  0  0  0  0  0  0  0
  -18.7825  -45.8119  -11.3973 Cl  0  0  0  0  0  0  0  0  0  0  0  0
  -20.1128  -45.0977   -9.1484 N   0  0  0  0  0  0  0  0  0  0  0  0
  -16.9870  -42.7467   -7.7897 C   0  0  0  0  0  0  0  0  0  0  0  0
  -15.8149  -43.2832   -8.0832 O   0  0  0  0  0  0  0  0  0  0  0  0
  -16.7769  -41.4620   -7.2339 N   0  0  0  0  0  0  0  0  0  0  0  0
  -13.5060  -36.7735  -11.4139 C   0  0  0  0  0  0  0  0  0  0  0  0
  1  2  1  0
  2  3  1  0
  2  4  1  0
  4  5  2  0
  5  6  1  0
  6  7  2  0
  7  8  1  0
  8  9  1  0
  9 10  1  0
 10 11  1  0
 11 12  1  0
 12 13  1  6
 12 14  1  0
 14 15  1  1
 15 16  1  0
 16 17  1  1
 16 18  1  0
 18 19  1  0
 19 20  1  0
 20 21  1  0
 21 22  1  0
 22 23  1  0
 23 24  1  0
 24 25  1  0
 25 26  1  0
 26 27  2  0
 27 28  1  0
 28 29  2  0
 29 30  1  0
 30 31  1  0
 30 32  2  0
 28 33  1  0
 33 34  2  0
 33 35  1  0
  8 36  2  0
 32 26  1  0
 35 14  1  0
 36  4  1  0
M  END
$$$$
