
     RDKit          3D

 36 38  0  0  0  0  0  0  0  0999 V2000
  -24.4142  -39.8539   -5.9959 C   0  0  0  0  0  0  0  0  0  0  0  0
  -24.1923  -38.9057   -7.1746 C   0  0  0  0  0  0  0  0  0  0  0  0
  -24.3189  -37.4992   -6.6257 C   0  0  0  0  0  0  0  0  0  0  0  0
  -22.8652  -39.0912   -7.7744 C   0  0  0  0  0  0  0  0  0  0  0  0
  -22.7553  -39.2920   -9.1275 C   0  0  0  0  0  0  0  0  0  0  0  0
  -21.5143  -39.4710   -9.7177 C   0  0  0  0  0  0  0  0  0  0  0  0
  -20.3962  -39.4434   -8.9196 C   0  0  0  0  0  0  0  0  0  0  0  0
  -20.4500  -39.2460   -7.5592 C   0  0  0  0  0  0  0  0  0  0  0  0
  -19.2236  -39.2204   -6.7060 C   0  0  0  0  0  0  0  0  0  0  0  0
  -18.0920  -38.7037   -7.3958 N   0  0  0  0  0  0  0  0  0  0  0  0
  -16.8565  -39.3851   -7.2244 C   0  0  0  0  0  0  0  0  0  0  0  0
  -15.6367  -38.7114   -7.7432 C   0  0  1  0  0  0  0  0  0  0  0  0
  -14.6414  -38.4723   -6.8181 O   0  0  0  0  0  0  0  0  0  0  0  0
  -15.0843  -39.3977   -8.9945 C   0  0  2  0  0  0  0  0  0  0  0  0
  -13.9569  -38.6068   -9.6200 C   0  0  0  0  0  0  0  0  0  0  0  0
  -12.6029  -39.0648   -9.1860 C   0  0  2  0  0  0  0  0  0  0  0  0
  -11.7585  -37.8691   -8.8286 C   0  0  0  0  0  0  0  0  0  0  0  0
  -11.9480  -39.8949  -10.2728 C   0  0  0  0  0  0  0  0  0  0  0  0
  -11.5987  -39.1045  -11.4909 C   0  0  0  0  0  0  0  0  0  0  0  0
  -11.8068  -39.8464  -12.6496 O   0  0  0  0  0  0  0  0  0  0  0  0
  -10.5901  -40.0924  -13.2736 C   0  0  0  0  0  0  0  0  0  0  0  0
  -10.2891  -41.5786  -13.2701 C   0  0  0  0  0  0  0  0  0  0  0  0
  -11.4052  -42.3723  -13.9054 C   0  0  0  0  0  0  0  0  0  0  0  0
  -11.9260  -43.4358  -12.9324 C   0  0  0  0  0  0  0  0  0  0  0  0
  -13.3435  -43.6590  -13.0750 N   0  0  0  0  0  0  0  0  0  0  0  0
  -14.4389  -43.1884  -12.2783 C   0  0  0  0  0  0  0  0  0  0  0  0
  -14.8452  -41.9398  -11.8889 C   0  0  0  0  0  0  0  0  0  0  0  0
  -15.9701  -41.8361  -11.1040 C   0  0  0  0  0  0  0  0  0  0  0  0
  -16.6454  -43.0300  -10.7450 C   0  0  0  0  0  0  0  0  0  0  0  0
  -16.2448  -44.2838  -11.1320 C   0  0  0  0  0  0  0  0  0  0  0  0
  -17.1247  -45.7289  -10.6546 Cl  0  0  0  0  0  0  0  0  0  0  0  0
  -15.1695  -44.3050  -11.8741 N   0  0  0  0  0  0  0  0  0  0  0  0
  -16.6649  -40.6886  -10.5212 C   0  0  0  0  0  0  0  0  0  0  0  0
  -17.9867  -40.6873  -10.5049 O   0  0  0  0  0  0  0  0  0  0  0  0
  -16.1978  -39.4932   -9.9244 N   0  0  0  0  0  0  0  0  0  0  0  0
  -21.6970  -39.0709   -7.0009 C   0  0  0  0  0  0  0  0  0  0  0  0
  1  2  1  0
  2  3  1  0
  2  4  1  0
  4  5  2  0
  5  6  1  0
  6  7  2  0
  7  8  1  0
  8  9  1  0
  9 10  1  0
 10 11  1  0
 11 12  1  0
 12 13  1  1
 12 14  1  0
 14 15  1  6
 15 16  1  0
 16 17  1  6
 16 18  1  0
 18 19  1  0
 19 20  1  0
 20 21  1  0
 21 22  1  0
 22 23  1  0
 23 24  1  0
 24 25  1  0
 25 26  1  0
 26 27  2  0
 27 28  1  0
 28 29  2  0
 29 30  1  0
 30 31  1  0
 30 32  2  0
 28 33  1  0
 33 34  2  0
 33 35  1  0
  8 36  2  0
 32 26  1  0
 35 14  1  0
 36  4  1  0
M  END
$$$$
