
     RDKit          3D

 36 38  0  0  0  0  0  0  0  0999 V2000
  -22.2411  -36.7086   -8.1266 C   0  0  0  0  0  0  0  0  0  0  0  0
  -21.7503  -35.4355   -8.8167 C   0  0  0  0  0  0  0  0  0  0  0  0
  -21.3352  -34.4813   -7.7154 C   0  0  0  0  0  0  0  0  0  0  0  0
  -20.6098  -35.7060   -9.7007 C   0  0  0  0  0  0  0  0  0  0  0  0
  -20.4124  -34.9235  -10.8106 C   0  0  0  0  0  0  0  0  0  0  0  0
  -19.3442  -35.1590  -11.6615 C   0  0  0  0  0  0  0  0  0  0  0  0
  -18.4870  -36.1926  -11.3705 C   0  0  0  0  0  0  0  0  0  0  0  0
  -18.6389  -37.0068  -10.2722 C   0  0  0  0  0  0  0  0  0  0  0  0
  -17.6975  -38.1278   -9.9717 C   0  0  0  0  0  0  0  0  0  0  0  0
  -17.8997  -38.6746   -8.6742 N   0  0  0  0  0  0  0  0  0  0  0  0
  -16.7538  -38.8375   -7.8493 C   0  0  0  0  0  0  0  0  0  0  0  0
  -15.7355  -39.8246   -8.2960 C   0  0  1  0  0  0  0  0  0  0  0  0
  -14.5475  -39.8234   -7.5945 O   0  0  0  0  0  0  0  0  0  0  0  0
  -16.3124  -41.2369   -8.4171 C   0  0  2  0  0  0  0  0  0  0  0  0
  -15.3938  -42.1566   -9.1903 C   0  0  0  0  0  0  0  0  0  0  0  0
  -14.4951  -42.9665   -8.3139 C   0  0  2  0  0  0  0  0  0  0  0  0
  -13.0911  -42.9258   -8.8594 C   0  0  0  0  0  0  0  0  0  0  0  0
  -15.0011  -44.3916   -8.2046 C   0  0  0  0  0  0  0  0  0  0  0  0
  -14.9035  -45.1536   -9.4854 C   0  0  0  0  0  0  0  0  0  0  0  0
  -15.9962  -45.9986   -9.6533 O   0  0  0  0  0  0  0  0  0  0  0  0
  -15.5766  -47.3223   -9.6074 C   0  0  0  0  0  0  0  0  0  0  0  0
  -16.1708  -48.0200   -8.3992 C   0  0  0  0  0  0  0  0  0  0  0  0
  -17.6770  -47.9180   -8.3847 C   0  0  0  0  0  0  0  0  0  0  0  0
  -18.1574  -47.2850   -7.0741 C   0  0  0  0  0  0  0  0  0  0  0  0
  -19.3321  -46.4696   -7.2600 N   0  0  0  0  0  0  0  0  0  0  0  0
  -19.4643  -45.0448   -7.3516 C   0  0  0  0  0  0  0  0  0  0  0  0
  -18.8870  -44.1007   -8.1587 C   0  0  0  0  0  0  0  0  0  0  0  0
  -19.2440  -42.7844   -7.9797 C   0  0  0  0  0  0  0  0  0  0  0  0
  -20.1919  -42.4817   -6.9696 C   0  0  0  0  0  0  0  0  0  0  0  0
  -20.7747  -43.4220   -6.1582 C   0  0  0  0  0  0  0  0  0  0  0  0
  -21.9453  -42.9849   -4.9216 Cl  0  0  0  0  0  0  0  0  0  0  0  0
  -20.3873  -44.6492   -6.3845 N   0  0  0  0  0  0  0  0  0  0  0  0
  -18.8312  -41.5500   -8.6469 C   0  0  0  0  0  0  0  0  0  0  0  0
  -19.7428  -40.6245   -8.8917 O   0  0  0  0  0  0  0  0  0  0  0  0
  -17.5772  -41.0948   -9.1197 N   0  0  0  0  0  0  0  0  0  0  0  0
  -19.7094  -36.7486   -9.4447 C   0  0  0  0  0  0  0  0  0  0  0  0
  1  2  1  0
  2  3  1  0
  2  4  1  0
  4  5  2  0
  5  6  1  0
  6  7  2  0
  7  8  1  0
  8  9  1  0
  9 10  1  0
 10 11  1  0
 11 12  1  0
 12 13  1  1
 12 14  1  0
 14 15  1  6
 15 16  1  0
 16 17  1  6
 16 18  1  0
 18 19  1  0
 19 20  1  0
 20 21  1  0
 21 22  1  0
 22 23  1  0
 23 24  1  0
 24 25  1  0
 25 26  1  0
 26 27  2  0
 27 28  1  0
 28 29  2  0
 29 30  1  0
 30 31  1  0
 30 32  2  0
 28 33  1  0
 33 34  2  0
 33 35  1  0
  8 36  2  0
 32 26  1  0
 35 14  1  0
 36  4  1  0
M  END
$$$$
