
     RDKit          3D

 36 38  0  0  0  0  0  0  0  0999 V2000
  -22.9595  -38.6861  -10.8073 C   0  0  0  0  0  0  0  0  0  0  0  0
  -21.7193  -37.9494  -10.3006 C   0  0  0  0  0  0  0  0  0  0  0  0
  -22.1892  -36.5882   -9.8295 C   0  0  0  0  0  0  0  0  0  0  0  0
  -21.0791  -38.6688   -9.1925 C   0  0  0  0  0  0  0  0  0  0  0  0
  -21.4065  -39.9806   -8.9573 C   0  0  0  0  0  0  0  0  0  0  0  0
  -20.8174  -40.6814   -7.9171 C   0  0  0  0  0  0  0  0  0  0  0  0
  -19.8986  -40.0351   -7.1259 C   0  0  0  0  0  0  0  0  0  0  0  0
  -19.5346  -38.7224   -7.3176 C   0  0  0  0  0  0  0  0  0  0  0  0
  -18.5343  -38.0346   -6.4463 C   0  0  0  0  0  0  0  0  0  0  0  0
  -17.7677  -37.0692   -7.1560 N   0  0  0  0  0  0  0  0  0  0  0  0
  -16.7168  -37.5506   -7.9829 C   0  0  0  0  0  0  0  0  0  0  0  0
  -16.1747  -38.8991   -7.6688 C   0  0  1  0  0  0  0  0  0  0  0  0
  -17.0718  -39.7979   -7.1295 O   0  0  0  0  0  0  0  0  0  0  0  0
  -15.4151  -39.5071   -8.8500 C   0  0  2  0  0  0  0  0  0  0  0  0
  -15.4290  -38.5968  -10.0578 C   0  0  0  0  0  0  0  0  0  0  0  0
  -14.2141  -37.7336  -10.1604 C   0  0  2  0  0  0  0  0  0  0  0  0
  -14.6277  -36.3194  -10.4759 C   0  0  0  0  0  0  0  0  0  0  0  0
  -13.2634  -38.2753  -11.2101 C   0  0  0  0  0  0  0  0  0  0  0  0
  -13.7976  -38.1727  -12.6010 C   0  0  0  0  0  0  0  0  0  0  0  0
  -13.4397  -39.2819  -13.3611 O   0  0  0  0  0  0  0  0  0  0  0  0
  -12.5747  -38.8948  -14.3770 C   0  0  0  0  0  0  0  0  0  0  0  0
  -11.2113  -39.5272  -14.1753 C   0  0  0  0  0  0  0  0  0  0  0  0
  -11.3063  -41.0305  -14.0747 C   0  0  0  0  0  0  0  0  0  0  0  0
  -10.6801  -41.5194  -12.7640 C   0  0  0  0  0  0  0  0  0  0  0  0
  -11.3634  -42.6708  -12.2285 N   0  0  0  0  0  0  0  0  0  0  0  0
  -12.3186  -42.7674  -11.1635 C   0  0  0  0  0  0  0  0  0  0  0  0
  -13.5191  -42.1533  -10.9236 C   0  0  0  0  0  0  0  0  0  0  0  0
  -14.2009  -42.4821   -9.7750 C   0  0  0  0  0  0  0  0  0  0  0  0
  -13.6208  -43.4407   -8.9061 C   0  0  0  0  0  0  0  0  0  0  0  0
  -12.4193  -44.0603   -9.1402 C   0  0  0  0  0  0  0  0  0  0  0  0
  -11.7505  -45.2423   -8.0241 Cl  0  0  0  0  0  0  0  0  0  0  0  0
  -11.8288  -43.6981  -10.2482 N   0  0  0  0  0  0  0  0  0  0  0  0
  -15.4753  -42.0281   -9.2193 C   0  0  0  0  0  0  0  0  0  0  0  0
  -16.2653  -42.9129   -8.6356 O   0  0  0  0  0  0  0  0  0  0  0  0
  -16.0919  -40.7553   -9.1626 N   0  0  0  0  0  0  0  0  0  0  0  0
  -20.1367  -38.0517   -8.3593 C   0  0  0  0  0  0  0  0  0  0  0  0
  1  2  1  0
  2  3  1  0
  2  4  1  0
  4  5  2  0
  5  6  1  0
  6  7  2  0
  7  8  1  0
  8  9  1  0
  9 10  1  0
 10 11  1  0
 11 12  1  0
 12 13  1  6
 12 14  1  0
 14 15  1  6
 15 16  1  0
 16 17  1  6
 16 18  1  0
 18 19  1  0
 19 20  1  0
 20 21  1  0
 21 22  1  0
 22 23  1  0
 23 24  1  0
 24 25  1  0
 25 26  1  0
 26 27  2  0
 27 28  1  0
 28 29  2  0
 29 30  1  0
 30 31  1  0
 30 32  2  0
 28 33  1  0
 33 34  2  0
 33 35  1  0
  8 36  2  0
 32 26  1  0
 35 14  1  0
 36  4  1  0
M  END
$$$$
