
     RDKit          3D

 36 38  0  0  0  0  0  0  0  0999 V2000
  -21.7144  -38.4495   -4.7512 C   0  0  0  0  0  0  0  0  0  0  0  0
  -22.4952  -38.8973   -5.9871 C   0  0  0  0  0  0  0  0  0  0  0  0
  -23.8374  -38.1972   -5.9258 C   0  0  0  0  0  0  0  0  0  0  0  0
  -21.7977  -38.5345   -7.2270 C   0  0  0  0  0  0  0  0  0  0  0  0
  -22.4501  -38.6466   -8.4291 C   0  0  0  0  0  0  0  0  0  0  0  0
  -21.8135  -38.3118   -9.6136 C   0  0  0  0  0  0  0  0  0  0  0  0
  -20.5151  -37.8653   -9.5591 C   0  0  0  0  0  0  0  0  0  0  0  0
  -19.8154  -37.7345   -8.3819 C   0  0  0  0  0  0  0  0  0  0  0  0
  -18.4029  -37.2485   -8.3413 C   0  0  0  0  0  0  0  0  0  0  0  0
  -17.6630  -37.8170   -7.2677 N   0  0  0  0  0  0  0  0  0  0  0  0
  -17.3879  -39.2100   -7.3308 C   0  0  0  0  0  0  0  0  0  0  0  0
  -15.9674  -39.6098   -7.5136 C   0  0  1  0  0  0  0  0  0  0  0  0
  -15.2016  -39.6523   -6.3667 O   0  0  0  0  0  0  0  0  0  0  0  0
  -15.8289  -40.8985   -8.3271 C   0  0  2  0  0  0  0  0  0  0  0  0
  -14.5712  -40.9023   -9.1673 C   0  0  0  0  0  0  0  0  0  0  0  0
  -13.4240  -41.5971   -8.5094 C   0  0  2  0  0  0  0  0  0  0  0  0
  -12.1816  -40.7555   -8.6460 C   0  0  0  0  0  0  0  0  0  0  0  0
  -13.2225  -42.9756   -9.1080 C   0  0  0  0  0  0  0  0  0  0  0  0
  -12.7534  -42.9420  -10.5255 C   0  0  0  0  0  0  0  0  0  0  0  0
  -13.3320  -43.9639  -11.2719 O   0  0  0  0  0  0  0  0  0  0  0  0
  -12.3534  -44.8668  -11.6684 C   0  0  0  0  0  0  0  0  0  0  0  0
  -12.5921  -46.2175  -11.0219 C   0  0  0  0  0  0  0  0  0  0  0  0
  -13.9771  -46.7388  -11.3210 C   0  0  0  0  0  0  0  0  0  0  0  0
  -14.7278  -47.0396  -10.0190 C   0  0  0  0  0  0  0  0  0  0  0  0
  -16.1404  -46.7718  -10.1289 N   0  0  0  0  0  0  0  0  0  0  0  0
  -16.9091  -45.6539   -9.6646 C   0  0  0  0  0  0  0  0  0  0  0  0
  -16.8086  -44.3022   -9.8607 C   0  0  0  0  0  0  0  0  0  0  0  0
  -17.7341  -43.4854   -9.2538 C   0  0  0  0  0  0  0  0  0  0  0  0
  -18.7409  -44.0919   -8.4607 C   0  0  0  0  0  0  0  0  0  0  0  0
  -18.8481  -45.4449   -8.2604 C   0  0  0  0  0  0  0  0  0  0  0  0
  -20.1201  -46.1389   -7.2650 Cl  0  0  0  0  0  0  0  0  0  0  0  0
  -17.9353  -46.1572   -8.8661 N   0  0  0  0  0  0  0  0  0  0  0  0
  -17.9166  -42.0342   -9.2475 C   0  0  0  0  0  0  0  0  0  0  0  0
  -19.1446  -41.5479   -9.3033 O   0  0  0  0  0  0  0  0  0  0  0  0
  -16.9995  -40.9578   -9.1873 N   0  0  0  0  0  0  0  0  0  0  0  0
  -20.4741  -38.0746   -7.2210 C   0  0  0  0  0  0  0  0  0  0  0  0
  1  2  1  0
  2  3  1  0
  2  4  1  0
  4  5  2  0
  5  6  1  0
  6  7  2  0
  7  8  1  0
  8  9  1  0
  9 10  1  0
 10 11  1  0
 11 12  1  0
 12 13  1  1
 12 14  1  0
 14 15  1  6
 15 16  1  0
 16 17  1  6
 16 18  1  0
 18 19  1  0
 19 20  1  0
 20 21  1  0
 21 22  1  0
 22 23  1  0
 23 24  1  0
 24 25  1  0
 25 26  1  0
 26 27  2  0
 27 28  1  0
 28 29  2  0
 29 30  1  0
 30 31  1  0
 30 32  2  0
 28 33  1  0
 33 34  2  0
 33 35  1  0
  8 36  2  0
 32 26  1  0
 35 14  1  0
 36  4  1  0
M  END
$$$$
