
     RDKit          3D

 36 38  0  0  0  0  0  0  0  0999 V2000
  -25.7453  -40.8440   -5.3191 C   0  0  0  0  0  0  0  0  0  0  0  0
  -24.4087  -40.4226   -4.7076 C   0  0  0  0  0  0  0  0  0  0  0  0
  -24.1894  -41.3094   -3.4989 C   0  0  0  0  0  0  0  0  0  0  0  0
  -23.3031  -40.5906   -5.6587 C   0  0  0  0  0  0  0  0  0  0  0  0
  -23.1036  -41.8091   -6.2576 C   0  0  0  0  0  0  0  0  0  0  0  0
  -22.0664  -41.9938   -7.1579 C   0  0  0  0  0  0  0  0  0  0  0  0
  -21.2417  -40.9312   -7.4381 C   0  0  0  0  0  0  0  0  0  0  0  0
  -21.3969  -39.6897   -6.8663 C   0  0  0  0  0  0  0  0  0  0  0  0
  -20.4895  -38.5451   -7.1817 C   0  0  0  0  0  0  0  0  0  0  0  0
  -19.3295  -38.9521   -7.8974 N   0  0  0  0  0  0  0  0  0  0  0  0
  -18.2613  -39.5107   -7.1445 C   0  0  0  0  0  0  0  0  0  0  0  0
  -16.8947  -38.9982   -7.4293 C   0  0  1  0  0  0  0  0  0  0  0  0
  -16.0984  -38.7627   -6.3275 O   0  0  0  0  0  0  0  0  0  0  0  0
  -16.1659  -39.8438   -8.4761 C   0  0  2  0  0  0  0  0  0  0  0  0
  -15.0902  -39.0546   -9.1887 C   0  0  0  0  0  0  0  0  0  0  0  0
  -13.7325  -39.2360   -8.5927 C   0  0  2  0  0  0  0  0  0  0  0  0
  -13.0643  -37.8933   -8.4466 C   0  0  0  0  0  0  0  0  0  0  0  0
  -12.8990  -40.1749   -9.4430 C   0  0  0  0  0  0  0  0  0  0  0  0
  -12.5448  -39.6064  -10.7780 C   0  0  0  0  0  0  0  0  0  0  0  0
  -12.5700  -40.5864  -11.7655 O   0  0  0  0  0  0  0  0  0  0  0  0
  -11.2860  -40.7921  -12.2545 C   0  0  0  0  0  0  0  0  0  0  0  0
  -10.8162  -42.1953  -11.9230 C   0  0  0  0  0  0  0  0  0  0  0  0
  -11.7770  -43.2387  -12.4400 C   0  0  0  0  0  0  0  0  0  0  0  0
  -12.2493  -44.1439  -11.2969 C   0  0  0  0  0  0  0  0  0  0  0  0
  -13.6148  -44.5737  -11.4692 N   0  0  0  0  0  0  0  0  0  0  0  0
  -14.8190  -44.0995  -10.8518 C   0  0  0  0  0  0  0  0  0  0  0  0
  -15.3976  -42.8619  -10.7559 C   0  0  0  0  0  0  0  0  0  0  0  0
  -16.5875  -42.7501  -10.0748 C   0  0  0  0  0  0  0  0  0  0  0  0
  -17.1473  -43.9252   -9.5125 C   0  0  0  0  0  0  0  0  0  0  0  0
  -16.5738  -45.1681   -9.6053 C   0  0  0  0  0  0  0  0  0  0  0  0
  -17.3166  -46.5900   -8.8863 Cl  0  0  0  0  0  0  0  0  0  0  0  0
  -15.4461  -45.1976  -10.2646 N   0  0  0  0  0  0  0  0  0  0  0  0
  -17.4559  -41.6094   -9.7853 C   0  0  0  0  0  0  0  0  0  0  0  0
  -18.7659  -41.7769   -9.8442 O   0  0  0  0  0  0  0  0  0  0  0  0
  -17.1809  -40.2681   -9.4266 N   0  0  0  0  0  0  0  0  0  0  0  0
  -22.4364  -39.5362   -5.9757 C   0  0  0  0  0  0  0  0  0  0  0  0
  1  2  1  0
  2  3  1  0
  2  4  1  0
  4  5  2  0
  5  6  1  0
  6  7  2  0
  7  8  1  0
  8  9  1  0
  9 10  1  0
 10 11  1  0
 11 12  1  0
 12 13  1  1
 12 14  1  0
 14 15  1  6
 15 16  1  0
 16 17  1  6
 16 18  1  0
 18 19  1  0
 19 20  1  0
 20 21  1  0
 21 22  1  0
 22 23  1  0
 23 24  1  0
 24 25  1  0
 25 26  1  0
 26 27  2  0
 27 28  1  0
 28 29  2  0
 29 30  1  0
 30 31  1  0
 30 32  2  0
 28 33  1  0
 33 34  2  0
 33 35  1  0
  8 36  2  0
 32 26  1  0
 35 14  1  0
 36  4  1  0
M  END
$$$$
