
     RDKit          3D

 36 38  0  0  0  0  0  0  0  0999 V2000
  -19.3917  -37.8130  -12.5294 C   0  0  0  0  0  0  0  0  0  0  0  0
  -18.7026  -36.6093  -13.1727 C   0  0  0  0  0  0  0  0  0  0  0  0
  -19.6879  -35.4605  -13.1026 C   0  0  0  0  0  0  0  0  0  0  0  0
  -17.4669  -36.2527  -12.4648 C   0  0  0  0  0  0  0  0  0  0  0  0
  -17.0340  -34.9504  -12.4713 C   0  0  0  0  0  0  0  0  0  0  0  0
  -15.8702  -34.5883  -11.8119 C   0  0  0  0  0  0  0  0  0  0  0  0
  -15.1587  -35.5607  -11.1513 C   0  0  0  0  0  0  0  0  0  0  0  0
  -15.5476  -36.8797  -11.1133 C   0  0  0  0  0  0  0  0  0  0  0  0
  -14.7606  -37.9246  -10.3909 C   0  0  0  0  0  0  0  0  0  0  0  0
  -15.1019  -38.0064   -9.0125 N   0  0  0  0  0  0  0  0  0  0  0  0
  -16.4448  -37.7090   -8.6544 C   0  0  0  0  0  0  0  0  0  0  0  0
  -16.9402  -38.2688   -7.3690 C   0  0  1  0  0  0  0  0  0  0  0  0
  -17.5115  -37.3636   -6.4985 O   0  0  0  0  0  0  0  0  0  0  0  0
  -17.8400  -39.4889   -7.5775 C   0  0  2  0  0  0  0  0  0  0  0  0
  -18.2519  -40.1166   -6.2645 C   0  0  0  0  0  0  0  0  0  0  0  0
  -19.5823  -39.6445   -5.7762 C   0  0  2  0  0  0  0  0  0  0  0  0
  -19.4890  -39.3071   -4.3106 C   0  0  0  0  0  0  0  0  0  0  0  0
  -20.6463  -40.6941   -6.0318 C   0  0  0  0  0  0  0  0  0  0  0  0
  -20.4688  -41.9284   -5.2099 C   0  0  0  0  0  0  0  0  0  0  0  0
  -20.8047  -43.0683   -5.9339 O   0  0  0  0  0  0  0  0  0  0  0  0
  -21.9306  -43.6622   -5.3773 C   0  0  0  0  0  0  0  0  0  0  0  0
  -23.0894  -43.6093   -6.3539 C   0  0  0  0  0  0  0  0  0  0  0  0
  -22.7294  -44.2413   -7.6769 C   0  0  0  0  0  0  0  0  0  0  0  0
  -22.9504  -43.2470   -8.8222 C   0  0  0  0  0  0  0  0  0  0  0  0
  -21.9838  -43.4090   -9.8799 N   0  0  0  0  0  0  0  0  0  0  0  0
  -20.8077  -42.6469  -10.1832 C   0  0  0  0  0  0  0  0  0  0  0  0
  -19.7012  -42.3020   -9.4535 C   0  0  0  0  0  0  0  0  0  0  0  0
  -18.7303  -41.5414  -10.0625 C   0  0  0  0  0  0  0  0  0  0  0  0
  -18.9314  -41.1598  -11.4132 C   0  0  0  0  0  0  0  0  0  0  0  0
  -20.0367  -41.5021  -12.1505 C   0  0  0  0  0  0  0  0  0  0  0  0
  -20.2298  -40.9985  -13.8236 Cl  0  0  0  0  0  0  0  0  0  0  0  0
  -20.9161  -42.2233  -11.5072 N   0  0  0  0  0  0  0  0  0  0  0  0
  -17.4544  -41.0056   -9.5891 C   0  0  0  0  0  0  0  0  0  0  0  0
  -16.4181  -41.0137  -10.4098 O   0  0  0  0  0  0  0  0  0  0  0  0
  -17.0580  -40.4359   -8.3556 N   0  0  0  0  0  0  0  0  0  0  0  0
  -16.7082  -37.2095  -11.7776 C   0  0  0  0  0  0  0  0  0  0  0  0
  1  2  1  0
  2  3  1  0
  2  4  1  0
  4  5  2  0
  5  6  1  0
  6  7  2  0
  7  8  1  0
  8  9  1  0
  9 10  1  0
 10 11  1  0
 11 12  1  0
 12 13  1  6
 12 14  1  0
 14 15  1  1
 15 16  1  0
 16 17  1  1
 16 18  1  0
 18 19  1  0
 19 20  1  0
 20 21  1  0
 21 22  1  0
 22 23  1  0
 23 24  1  0
 24 25  1  0
 25 26  1  0
 26 27  2  0
 27 28  1  0
 28 29  2  0
 29 30  1  0
 30 31  1  0
 30 32  2  0
 28 33  1  0
 33 34  2  0
 33 35  1  0
  8 36  2  0
 32 26  1  0
 35 14  1  0
 36  4  1  0
M  END
$$$$
