
     RDKit          3D

 36 38  0  0  0  0  0  0  0  0999 V2000
  -20.0729  -33.8786   -9.2108 C   0  0  0  0  0  0  0  0  0  0  0  0
  -19.1366  -33.3644  -10.3047 C   0  0  0  0  0  0  0  0  0  0  0  0
  -18.0751  -32.5366   -9.6092 C   0  0  0  0  0  0  0  0  0  0  0  0
  -18.5078  -34.4686  -11.0401 C   0  0  0  0  0  0  0  0  0  0  0  0
  -19.0688  -34.9077  -12.2130 C   0  0  0  0  0  0  0  0  0  0  0  0
  -18.4954  -35.9490  -12.9253 C   0  0  0  0  0  0  0  0  0  0  0  0
  -17.3534  -36.5327  -12.4322 C   0  0  0  0  0  0  0  0  0  0  0  0
  -16.7507  -36.1318  -11.2625 C   0  0  0  0  0  0  0  0  0  0  0  0
  -15.5093  -36.7792  -10.7401 C   0  0  0  0  0  0  0  0  0  0  0  0
  -15.6536  -38.1857  -10.5849 N   0  0  0  0  0  0  0  0  0  0  0  0
  -16.0902  -38.6608   -9.3186 C   0  0  0  0  0  0  0  0  0  0  0  0
  -15.6030  -40.0005   -8.8958 C   0  0  1  0  0  0  0  0  0  0  0  0
  -14.7483  -40.0161   -7.8128 O   0  0  0  0  0  0  0  0  0  0  0  0
  -16.7456  -41.0035   -8.7214 C   0  0  2  0  0  0  0  0  0  0  0  0
  -16.2569  -42.4330   -8.7946 C   0  0  0  0  0  0  0  0  0  0  0  0
  -15.9810  -43.0319   -7.4542 C   0  0  2  0  0  0  0  0  0  0  0  0
  -14.6558  -43.7483   -7.4870 C   0  0  0  0  0  0  0  0  0  0  0  0
  -17.1023  -43.9686   -7.0487 C   0  0  0  0  0  0  0  0  0  0  0  0
  -17.1804  -45.1978   -7.8934 C   0  0  0  0  0  0  0  0  0  0  0  0
  -18.5019  -45.5703   -8.1197 O   0  0  0  0  0  0  0  0  0  0  0  0
  -18.7590  -46.7864   -7.4991 C   0  0  0  0  0  0  0  0  0  0  0  0
  -19.7827  -46.6065   -6.3950 C   0  0  0  0  0  0  0  0  0  0  0  0
  -21.0513  -45.9723   -6.9124 C   0  0  0  0  0  0  0  0  0  0  0  0
  -21.3716  -44.6973   -6.1245 C   0  0  0  0  0  0  0  0  0  0  0  0
  -21.9888  -43.6872   -6.9478 N   0  0  0  0  0  0  0  0  0  0  0  0
  -21.4270  -42.5123   -7.5480 C   0  0  0  0  0  0  0  0  0  0  0  0
  -20.3633  -42.3058   -8.3856 C   0  0  0  0  0  0  0  0  0  0  0  0
  -20.0886  -41.0183   -8.7845 C   0  0  0  0  0  0  0  0  0  0  0  0
  -20.9256  -39.9787   -8.3058 C   0  0  0  0  0  0  0  0  0  0  0  0
  -21.9931  -40.1782   -7.4673 C   0  0  0  0  0  0  0  0  0  0  0  0
  -22.9955  -38.8473   -6.9068 Cl  0  0  0  0  0  0  0  0  0  0  0  0
  -22.1926  -41.4246   -7.1300 N   0  0  0  0  0  0  0  0  0  0  0  0
  -19.0542  -40.4523   -9.6497 C   0  0  0  0  0  0  0  0  0  0  0  0
  -19.3819  -39.4732  -10.4753 O   0  0  0  0  0  0  0  0  0  0  0  0
  -17.6777  -40.7424   -9.8061 N   0  0  0  0  0  0  0  0  0  0  0  0
  -17.3431  -35.0946  -10.5765 C   0  0  0  0  0  0  0  0  0  0  0  0
  1  2  1  0
  2  3  1  0
  2  4  1  0
  4  5  2  0
  5  6  1  0
  6  7  2  0
  7  8  1  0
  8  9  1  0
  9 10  1  0
 10 11  1  0
 11 12  1  0
 12 13  1  1
 12 14  1  0
 14 15  1  6
 15 16  1  0
 16 17  1  6
 16 18  1  0
 18 19  1  0
 19 20  1  0
 20 21  1  0
 21 22  1  0
 22 23  1  0
 23 24  1  0
 24 25  1  0
 25 26  1  0
 26 27  2  0
 27 28  1  0
 28 29  2  0
 29 30  1  0
 30 31  1  0
 30 32  2  0
 28 33  1  0
 33 34  2  0
 33 35  1  0
  8 36  2  0
 32 26  1  0
 35 14  1  0
 36  4  1  0
M  END
$$$$
