
     RDKit          3D

 36 38  0  0  0  0  0  0  0  0999 V2000
  -24.5948  -38.7755   -8.0084 C   0  0  0  0  0  0  0  0  0  0  0  0
  -23.5333  -39.8515   -7.7779 C   0  0  0  0  0  0  0  0  0  0  0  0
  -23.3014  -40.5216   -9.1168 C   0  0  0  0  0  0  0  0  0  0  0  0
  -22.2775  -39.2739   -7.2833 C   0  0  0  0  0  0  0  0  0  0  0  0
  -21.8215  -39.6128   -6.0341 C   0  0  0  0  0  0  0  0  0  0  0  0
  -20.6398  -39.0804   -5.5437 C   0  0  0  0  0  0  0  0  0  0  0  0
  -19.9344  -38.2057   -6.3345 C   0  0  0  0  0  0  0  0  0  0  0  0
  -20.3461  -37.8325   -7.5929 C   0  0  0  0  0  0  0  0  0  0  0  0
  -19.5669  -36.8786   -8.4389 C   0  0  0  0  0  0  0  0  0  0  0  0
  -18.2983  -37.3989   -8.8174 N   0  0  0  0  0  0  0  0  0  0  0  0
  -17.6489  -38.2671   -7.8985 C   0  0  0  0  0  0  0  0  0  0  0  0
  -16.2940  -38.7531   -8.2714 C   0  0  1  0  0  0  0  0  0  0  0  0
  -15.2635  -38.3571   -7.4439 O   0  0  0  0  0  0  0  0  0  0  0  0
  -16.2675  -40.2638   -8.5145 C   0  0  2  0  0  0  0  0  0  0  0  0
  -15.0658  -40.6822   -9.3322 C   0  0  0  0  0  0  0  0  0  0  0  0
  -13.9145  -41.1399   -8.4976 C   0  0  2  0  0  0  0  0  0  0  0  0
  -12.6442  -40.5059   -9.0028 C   0  0  0  0  0  0  0  0  0  0  0  0
  -13.8162  -42.6530   -8.5103 C   0  0  0  0  0  0  0  0  0  0  0  0
  -13.4346  -43.2096   -9.8426 C   0  0  0  0  0  0  0  0  0  0  0  0
  -14.1062  -44.4003  -10.1021 O   0  0  0  0  0  0  0  0  0  0  0  0
  -13.1980  -45.4507  -10.1467 C   0  0  0  0  0  0  0  0  0  0  0  0
  -13.4602  -46.4204   -9.0108 C   0  0  0  0  0  0  0  0  0  0  0  0
  -14.8843  -46.9215   -9.0266 C   0  0  0  0  0  0  0  0  0  0  0  0
  -15.5665  -46.6362   -7.6841 C   0  0  0  0  0  0  0  0  0  0  0  0
  -16.9688  -46.3373   -7.8369 N   0  0  0  0  0  0  0  0  0  0  0  0
  -17.6533  -45.0774   -7.8229 C   0  0  0  0  0  0  0  0  0  0  0  0
  -17.5010  -43.9209   -8.5406 C   0  0  0  0  0  0  0  0  0  0  0  0
  -18.3473  -42.8706   -8.2708 C   0  0  0  0  0  0  0  0  0  0  0  0
  -19.3308  -43.0477   -7.2649 C   0  0  0  0  0  0  0  0  0  0  0  0
  -19.4896  -44.2033   -6.5426 C   0  0  0  0  0  0  0  0  0  0  0  0
  -20.7291  -44.3632   -5.3063 Cl  0  0  0  0  0  0  0  0  0  0  0  0
  -18.6509  -45.1563   -6.8521 N   0  0  0  0  0  0  0  0  0  0  0  0
  -18.4598  -41.5243   -8.8312 C   0  0  0  0  0  0  0  0  0  0  0  0
  -19.6644  -41.0164   -9.0277 O   0  0  0  0  0  0  0  0  0  0  0  0
  -17.4906  -40.5756   -9.2360 N   0  0  0  0  0  0  0  0  0  0  0  0
  -21.5241  -38.3780   -8.0535 C   0  0  0  0  0  0  0  0  0  0  0  0
  1  2  1  0
  2  3  1  0
  2  4  1  0
  4  5  2  0
  5  6  1  0
  6  7  2  0
  7  8  1  0
  8  9  1  0
  9 10  1  0
 10 11  1  0
 11 12  1  0
 12 13  1  1
 12 14  1  0
 14 15  1  6
 15 16  1  0
 16 17  1  6
 16 18  1  0
 18 19  1  0
 19 20  1  0
 20 21  1  0
 21 22  1  0
 22 23  1  0
 23 24  1  0
 24 25  1  0
 25 26  1  0
 26 27  2  0
 27 28  1  0
 28 29  2  0
 29 30  1  0
 30 31  1  0
 30 32  2  0
 28 33  1  0
 33 34  2  0
 33 35  1  0
  8 36  2  0
 32 26  1  0
 35 14  1  0
 36  4  1  0
M  END
$$$$
