
     RDKit          3D

 36 38  0  0  0  0  0  0  0  0999 V2000
  -23.8362  -41.7405   -4.7938 C   0  0  0  0  0  0  0  0  0  0  0  0
  -22.9521  -40.5105   -4.5856 C   0  0  0  0  0  0  0  0  0  0  0  0
  -21.8026  -40.9507   -3.7023 C   0  0  0  0  0  0  0  0  0  0  0  0
  -22.4355  -39.9952   -5.8595 C   0  0  0  0  0  0  0  0  0  0  0  0
  -23.1196  -40.2509   -7.0213 C   0  0  0  0  0  0  0  0  0  0  0  0
  -22.6523  -39.7769   -8.2367 C   0  0  0  0  0  0  0  0  0  0  0  0
  -21.4892  -39.0455   -8.2541 C   0  0  0  0  0  0  0  0  0  0  0  0
  -20.7649  -38.7606   -7.1198 C   0  0  0  0  0  0  0  0  0  0  0  0
  -19.5009  -37.9645   -7.1574 C   0  0  0  0  0  0  0  0  0  0  0  0
  -18.5161  -38.5474   -8.0022 N   0  0  0  0  0  0  0  0  0  0  0  0
  -17.3997  -39.1632   -7.3741 C   0  0  0  0  0  0  0  0  0  0  0  0
  -16.0502  -38.6915   -7.7832 C   0  0  1  0  0  0  0  0  0  0  0  0
  -15.1148  -38.5945   -6.7737 O   0  0  0  0  0  0  0  0  0  0  0  0
  -15.5026  -39.4718   -8.9804 C   0  0  2  0  0  0  0  0  0  0  0  0
  -14.3666  -38.7392   -9.6588 C   0  0  0  0  0  0  0  0  0  0  0  0
  -13.0178  -39.1777   -9.1897 C   0  0  2  0  0  0  0  0  0  0  0  0
  -12.1623  -37.9674   -8.9178 C   0  0  0  0  0  0  0  0  0  0  0  0
  -12.3694  -40.0905  -10.2122 C   0  0  0  0  0  0  0  0  0  0  0  0
  -12.0104  -39.3937  -11.4835 C   0  0  0  0  0  0  0  0  0  0  0  0
  -12.2239  -40.2155  -12.5860 O   0  0  0  0  0  0  0  0  0  0  0  0
  -11.0088  -40.5177  -13.1877 C   0  0  0  0  0  0  0  0  0  0  0  0
  -10.7223  -42.0026  -13.0761 C   0  0  0  0  0  0  0  0  0  0  0  0
  -11.8451  -42.8293  -13.6549 C   0  0  0  0  0  0  0  0  0  0  0  0
  -12.3779  -43.8146  -12.6087 C   0  0  0  0  0  0  0  0  0  0  0  0
  -13.7972  -44.0338  -12.7380 N   0  0  0  0  0  0  0  0  0  0  0  0
  -14.8893  -43.4963  -11.9800 C   0  0  0  0  0  0  0  0  0  0  0  0
  -15.2839  -42.2188  -11.6828 C   0  0  0  0  0  0  0  0  0  0  0  0
  -16.4089  -42.0478  -10.9100 C   0  0  0  0  0  0  0  0  0  0  0  0
  -17.0966  -43.2060  -10.4672 C   0  0  0  0  0  0  0  0  0  0  0  0
  -16.7076  -44.4883  -10.7616 C   0  0  0  0  0  0  0  0  0  0  0  0
  -17.6024  -45.8865  -10.1829 Cl  0  0  0  0  0  0  0  0  0  0  0  0
  -15.6314  -44.5735  -11.4977 N   0  0  0  0  0  0  0  0  0  0  0  0
  -17.0933  -40.8545  -10.4133 C   0  0  0  0  0  0  0  0  0  0  0  0
  -18.4152  -40.8392  -10.4002 O   0  0  0  0  0  0  0  0  0  0  0  0
  -16.6155  -39.6236   -9.9035 N   0  0  0  0  0  0  0  0  0  0  0  0
  -21.2541  -39.2448   -5.9267 C   0  0  0  0  0  0  0  0  0  0  0  0
  1  2  1  0
  2  3  1  0
  2  4  1  0
  4  5  2  0
  5  6  1  0
  6  7  2  0
  7  8  1  0
  8  9  1  0
  9 10  1  0
 10 11  1  0
 11 12  1  0
 12 13  1  1
 12 14  1  0
 14 15  1  6
 15 16  1  0
 16 17  1  6
 16 18  1  0
 18 19  1  0
 19 20  1  0
 20 21  1  0
 21 22  1  0
 22 23  1  0
 23 24  1  0
 24 25  1  0
 25 26  1  0
 26 27  2  0
 27 28  1  0
 28 29  2  0
 29 30  1  0
 30 31  1  0
 30 32  2  0
 28 33  1  0
 33 34  2  0
 33 35  1  0
  8 36  2  0
 32 26  1  0
 35 14  1  0
 36  4  1  0
M  END
$$$$
