
     RDKit          3D

 36 38  0  0  0  0  0  0  0  0999 V2000
  -17.4111  -34.5543  -11.4240 C   0  0  0  0  0  0  0  0  0  0  0  0
  -16.8393  -35.2903  -12.6360 C   0  0  0  0  0  0  0  0  0  0  0  0
  -15.6409  -34.4883  -13.1010 C   0  0  0  0  0  0  0  0  0  0  0  0
  -16.4246  -36.6560  -12.2921 C   0  0  0  0  0  0  0  0  0  0  0  0
  -16.8878  -37.7123  -13.0356 C   0  0  0  0  0  0  0  0  0  0  0  0
  -16.5123  -39.0109  -12.7307 C   0  0  0  0  0  0  0  0  0  0  0  0
  -15.6664  -39.2186  -11.6679 C   0  0  0  0  0  0  0  0  0  0  0  0
  -15.1734  -38.1965  -10.8904 C   0  0  0  0  0  0  0  0  0  0  0  0
  -14.2552  -38.4408   -9.7370 C   0  0  0  0  0  0  0  0  0  0  0  0
  -14.9568  -38.7609   -8.5418 N   0  0  0  0  0  0  0  0  0  0  0  0
  -16.2597  -39.3123   -8.6781 C   0  0  0  0  0  0  0  0  0  0  0  0
  -17.2704  -38.9146   -7.6625 C   0  0  1  0  0  0  0  0  0  0  0  0
  -18.0454  -37.8187   -7.9814 O   0  0  0  0  0  0  0  0  0  0  0  0
  -18.1312  -40.0959   -7.2091 C   0  0  2  0  0  0  0  0  0  0  0  0
  -19.0795  -39.7080   -6.0965 C   0  0  0  0  0  0  0  0  0  0  0  0
  -20.4430  -39.3412   -6.5842 C   0  0  2  0  0  0  0  0  0  0  0  0
  -20.8949  -38.0734   -5.9065 C   0  0  0  0  0  0  0  0  0  0  0  0
  -21.4195  -40.4745   -6.3371 C   0  0  0  0  0  0  0  0  0  0  0  0
  -21.6952  -40.7122   -4.8886 C   0  0  0  0  0  0  0  0  0  0  0  0
  -21.8312  -42.0703   -4.6180 O   0  0  0  0  0  0  0  0  0  0  0  0
  -23.1364  -42.3420   -4.2271 C   0  0  0  0  0  0  0  0  0  0  0  0
  -23.8134  -43.2397   -5.2446 C   0  0  0  0  0  0  0  0  0  0  0  0
  -23.0299  -44.5101   -5.4719 C   0  0  0  0  0  0  0  0  0  0  0  0
  -22.6914  -44.6708   -6.9581 C   0  0  0  0  0  0  0  0  0  0  0  0
  -21.4101  -45.3002   -7.1613 N   0  0  0  0  0  0  0  0  0  0  0  0
  -20.1412  -44.7266   -7.5030 C   0  0  0  0  0  0  0  0  0  0  0  0
  -19.3779  -43.7387   -6.9397 C   0  0  0  0  0  0  0  0  0  0  0  0
  -18.1783  -43.4234   -7.5344 C   0  0  0  0  0  0  0  0  0  0  0  0
  -17.8006  -44.1422   -8.6968 C   0  0  0  0  0  0  0  0  0  0  0  0
  -18.5596  -45.1333   -9.2660 C   0  0  0  0  0  0  0  0  0  0  0  0
  -18.0375  -45.9901  -10.7094 Cl  0  0  0  0  0  0  0  0  0  0  0  0
  -19.6849  -45.3774   -8.6484 N   0  0  0  0  0  0  0  0  0  0  0  0
  -17.1417  -42.4446   -7.2080 C   0  0  0  0  0  0  0  0  0  0  0  0
  -15.8738  -42.7887   -7.3549 O   0  0  0  0  0  0  0  0  0  0  0  0
  -17.2032  -41.1110   -6.7377 N   0  0  0  0  0  0  0  0  0  0  0  0
  -15.5639  -36.9167  -11.2176 C   0  0  0  0  0  0  0  0  0  0  0  0
  1  2  1  0
  2  3  1  0
  2  4  1  0
  4  5  2  0
  5  6  1  0
  6  7  2  0
  7  8  1  0
  8  9  1  0
  9 10  1  0
 10 11  1  0
 11 12  1  0
 12 13  1  6
 12 14  1  0
 14 15  1  1
 15 16  1  0
 16 17  1  1
 16 18  1  0
 18 19  1  0
 19 20  1  0
 20 21  1  0
 21 22  1  0
 22 23  1  0
 23 24  1  0
 24 25  1  0
 25 26  1  0
 26 27  2  0
 27 28  1  0
 28 29  2  0
 29 30  1  0
 30 31  1  0
 30 32  2  0
 28 33  1  0
 33 34  2  0
 33 35  1  0
  8 36  2  0
 32 26  1  0
 35 14  1  0
 36  4  1  0
M  END
$$$$
