
     RDKit          3D

 36 38  0  0  0  0  0  0  0  0999 V2000
  -21.9198  -39.7787  -12.2198 C   0  0  0  0  0  0  0  0  0  0  0  0
  -21.9161  -38.2511  -12.1553 C   0  0  0  0  0  0  0  0  0  0  0  0
  -23.3504  -37.8267  -11.9141 C   0  0  0  0  0  0  0  0  0  0  0  0
  -21.0592  -37.7587  -11.0696 C   0  0  0  0  0  0  0  0  0  0  0  0
  -20.5011  -36.5083  -11.1610 C   0  0  0  0  0  0  0  0  0  0  0  0
  -19.6877  -36.0209  -10.1505 C   0  0  0  0  0  0  0  0  0  0  0  0
  -19.4516  -36.8160   -9.0551 C   0  0  0  0  0  0  0  0  0  0  0  0
  -19.9855  -38.0759   -8.9133 C   0  0  0  0  0  0  0  0  0  0  0  0
  -19.7169  -38.9278   -7.7154 C   0  0  0  0  0  0  0  0  0  0  0  0
  -18.7512  -39.9399   -7.9733 N   0  0  0  0  0  0  0  0  0  0  0  0
  -17.5347  -39.8824   -7.2407 C   0  0  0  0  0  0  0  0  0  0  0  0
  -16.3438  -39.3454   -7.9511 C   0  0  1  0  0  0  0  0  0  0  0  0
  -15.3905  -38.7420   -7.1570 O   0  0  0  0  0  0  0  0  0  0  0  0
  -15.7172  -40.3769   -8.8919 C   0  0  2  0  0  0  0  0  0  0  0  0
  -14.3098  -39.9935   -9.2918 C   0  0  0  0  0  0  0  0  0  0  0  0
  -13.2600  -40.6331   -8.4430 C   0  0  2  0  0  0  0  0  0  0  0  0
  -12.2384  -39.6000   -8.0435 C   0  0  0  0  0  0  0  0  0  0  0  0
  -12.6127  -41.7902   -9.1787 C   0  0  0  0  0  0  0  0  0  0  0  0
  -11.7983  -41.3615  -10.3551 C   0  0  0  0  0  0  0  0  0  0  0  0
  -11.9205  -42.2634  -11.4077 O   0  0  0  0  0  0  0  0  0  0  0  0
  -10.7005  -42.8886  -11.6332 C   0  0  0  0  0  0  0  0  0  0  0  0
  -10.8072  -44.3715  -11.3346 C   0  0  0  0  0  0  0  0  0  0  0  0
  -11.9145  -45.0195  -12.1304 C   0  0  0  0  0  0  0  0  0  0  0  0
  -12.9045  -45.7223  -11.1950 C   0  0  0  0  0  0  0  0  0  0  0  0
  -14.2587  -45.6594  -11.6862 N   0  0  0  0  0  0  0  0  0  0  0  0
  -15.3462  -44.8103  -11.2956 C   0  0  0  0  0  0  0  0  0  0  0  0
  -15.4906  -43.4507  -11.2152 C   0  0  0  0  0  0  0  0  0  0  0  0
  -16.6987  -42.9479  -10.7911 C   0  0  0  0  0  0  0  0  0  0  0  0
  -17.7263  -43.8683  -10.4633 C   0  0  0  0  0  0  0  0  0  0  0  0
  -17.5890  -45.2311  -10.5422 C   0  0  0  0  0  0  0  0  0  0  0  0
  -18.9011  -46.3228  -10.1217 Cl  0  0  0  0  0  0  0  0  0  0  0  0
  -16.4157  -45.6356  -10.9508 N   0  0  0  0  0  0  0  0  0  0  0  0
  -17.1845  -41.5830  -10.5913 C   0  0  0  0  0  0  0  0  0  0  0  0
  -18.4271  -41.2936  -10.9375 O   0  0  0  0  0  0  0  0  0  0  0  0
  -16.5719  -40.4196  -10.0672 N   0  0  0  0  0  0  0  0  0  0  0  0
  -20.7900  -38.5333   -9.9335 C   0  0  0  0  0  0  0  0  0  0  0  0
  1  2  1  0
  2  3  1  0
  2  4  1  0
  4  5  2  0
  5  6  1  0
  6  7  2  0
  7  8  1  0
  8  9  1  0
  9 10  1  0
 10 11  1  0
 11 12  1  0
 12 13  1  1
 12 14  1  0
 14 15  1  6
 15 16  1  0
 16 17  1  6
 16 18  1  0
 18 19  1  0
 19 20  1  0
 20 21  1  0
 21 22  1  0
 22 23  1  0
 23 24  1  0
 24 25  1  0
 25 26  1  0
 26 27  2  0
 27 28  1  0
 28 29  2  0
 29 30  1  0
 30 31  1  0
 30 32  2  0
 28 33  1  0
 33 34  2  0
 33 35  1  0
  8 36  2  0
 32 26  1  0
 35 14  1  0
 36  4  1  0
M  END
$$$$
