
     RDKit          3D

 36 38  0  0  0  0  0  0  0  0999 V2000
  -12.8581  -35.4935  -15.3017 C   0  0  0  0  0  0  0  0  0  0  0  0
  -12.9460  -36.8793  -14.6618 C   0  0  0  0  0  0  0  0  0  0  0  0
  -11.5211  -37.3305  -14.4139 C   0  0  0  0  0  0  0  0  0  0  0  0
  -13.6870  -36.8429  -13.3949 C   0  0  0  0  0  0  0  0  0  0  0  0
  -14.7727  -36.0131  -13.2686 C   0  0  0  0  0  0  0  0  0  0  0  0
  -15.4881  -35.9594  -12.0829 C   0  0  0  0  0  0  0  0  0  0  0  0
  -15.0873  -36.7545  -11.0364 C   0  0  0  0  0  0  0  0  0  0  0  0
  -14.0073  -37.6033  -11.1096 C   0  0  0  0  0  0  0  0  0  0  0  0
  -13.5845  -38.4602   -9.9607 C   0  0  0  0  0  0  0  0  0  0  0  0
  -14.3985  -38.2674   -8.8102 N   0  0  0  0  0  0  0  0  0  0  0  0
  -15.5901  -39.0364   -8.7180 C   0  0  0  0  0  0  0  0  0  0  0  0
  -16.6380  -38.5478   -7.7830 C   0  0  1  0  0  0  0  0  0  0  0  0
  -17.2348  -37.3504   -8.1201 O   0  0  0  0  0  0  0  0  0  0  0  0
  -17.6800  -39.6233   -7.4682 C   0  0  2  0  0  0  0  0  0  0  0  0
  -18.5245  -39.2561   -6.2683 C   0  0  0  0  0  0  0  0  0  0  0  0
  -19.8140  -38.5964   -6.6338 C   0  0  2  0  0  0  0  0  0  0  0  0
  -20.0267  -37.3889   -5.7578 C   0  0  0  0  0  0  0  0  0  0  0  0
  -20.9660  -39.5745   -6.5105 C   0  0  0  0  0  0  0  0  0  0  0  0
  -21.2490  -39.9802   -5.1013 C   0  0  0  0  0  0  0  0  0  0  0  0
  -21.6115  -41.3215   -5.0264 O   0  0  0  0  0  0  0  0  0  0  0  0
  -22.9358  -41.4273   -4.6198 C   0  0  0  0  0  0  0  0  0  0  0  0
  -23.7779  -42.0337   -5.7254 C   0  0  0  0  0  0  0  0  0  0  0  0
  -23.2299  -43.3677   -6.1720 C   0  0  0  0  0  0  0  0  0  0  0  0
  -22.9544  -43.3549   -7.6797 C   0  0  0  0  0  0  0  0  0  0  0  0
  -21.8052  -44.1516   -8.0316 N   0  0  0  0  0  0  0  0  0  0  0  0
  -20.4636  -43.7531   -8.3437 C   0  0  0  0  0  0  0  0  0  0  0  0
  -19.5302  -43.0042   -7.6777 C   0  0  0  0  0  0  0  0  0  0  0  0
  -18.3065  -42.8074   -8.2744 C   0  0  0  0  0  0  0  0  0  0  0  0
  -18.0822  -43.3940   -9.5456 C   0  0  0  0  0  0  0  0  0  0  0  0
  -19.0120  -44.1459  -10.2182 C   0  0  0  0  0  0  0  0  0  0  0  0
  -18.6749  -44.8484  -11.7940 Cl  0  0  0  0  0  0  0  0  0  0  0  0
  -20.1497  -44.2893   -9.5918 N   0  0  0  0  0  0  0  0  0  0  0  0
  -17.1104  -42.0770   -7.8564 C   0  0  0  0  0  0  0  0  0  0  0  0
  -15.9240  -42.6020   -8.1103 O   0  0  0  0  0  0  0  0  0  0  0  0
  -16.9316  -40.8391   -7.1937 N   0  0  0  0  0  0  0  0  0  0  0  0
  -13.3159  -37.6353  -12.3005 C   0  0  0  0  0  0  0  0  0  0  0  0
  1  2  1  0
  2  3  1  0
  2  4  1  0
  4  5  2  0
  5  6  1  0
  6  7  2  0
  7  8  1  0
  8  9  1  0
  9 10  1  0
 10 11  1  0
 11 12  1  0
 12 13  1  6
 12 14  1  0
 14 15  1  1
 15 16  1  0
 16 17  1  1
 16 18  1  0
 18 19  1  0
 19 20  1  0
 20 21  1  0
 21 22  1  0
 22 23  1  0
 23 24  1  0
 24 25  1  0
 25 26  1  0
 26 27  2  0
 27 28  1  0
 28 29  2  0
 29 30  1  0
 30 31  1  0
 30 32  2  0
 28 33  1  0
 33 34  2  0
 33 35  1  0
  8 36  2  0
 32 26  1  0
 35 14  1  0
 36  4  1  0
M  END
$$$$
