
     RDKit          3D

 36 38  0  0  0  0  0  0  0  0999 V2000
  -12.3266  -36.9775  -15.0451 C   0  0  0  0  0  0  0  0  0  0  0  0
  -13.6913  -36.8536  -14.3669 C   0  0  0  0  0  0  0  0  0  0  0  0
  -14.2956  -38.2430  -14.3580 C   0  0  0  0  0  0  0  0  0  0  0  0
  -13.5675  -36.3529  -12.9924 C   0  0  0  0  0  0  0  0  0  0  0  0
  -13.2701  -35.0306  -12.7771 C   0  0  0  0  0  0  0  0  0  0  0  0
  -13.1466  -34.5336  -11.4894 C   0  0  0  0  0  0  0  0  0  0  0  0
  -13.3281  -35.3928  -10.4326 C   0  0  0  0  0  0  0  0  0  0  0  0
  -13.6274  -36.7259  -10.5922 C   0  0  0  0  0  0  0  0  0  0  0  0
  -13.8202  -37.6466   -9.4311 C   0  0  0  0  0  0  0  0  0  0  0  0
  -15.0506  -37.4185   -8.7548 N   0  0  0  0  0  0  0  0  0  0  0  0
  -15.4781  -38.4071   -7.8274 C   0  0  0  0  0  0  0  0  0  0  0  0
  -16.8170  -38.2180   -7.2088 C   0  0  1  0  0  0  0  0  0  0  0  0
  -17.5481  -37.1438   -7.6725 O   0  0  0  0  0  0  0  0  0  0  0  0
  -17.6456  -39.5045   -7.2176 C   0  0  2  0  0  0  0  0  0  0  0  0
  -18.8290  -39.4192   -6.2795 C   0  0  0  0  0  0  0  0  0  0  0  0
  -20.0926  -39.0043   -6.9598 C   0  0  2  0  0  0  0  0  0  0  0  0
  -20.7803  -37.9440   -6.1391 C   0  0  0  0  0  0  0  0  0  0  0  0
  -20.9967  -40.2015   -7.1797 C   0  0  0  0  0  0  0  0  0  0  0  0
  -21.5374  -40.7751   -5.9111 C   0  0  0  0  0  0  0  0  0  0  0  0
  -21.6067  -42.1634   -5.9753 O   0  0  0  0  0  0  0  0  0  0  0  0
  -22.9353  -42.5684   -5.9438 C   0  0  0  0  0  0  0  0  0  0  0  0
  -23.3123  -43.2352   -7.2524 C   0  0  0  0  0  0  0  0  0  0  0  0
  -22.3918  -44.3880   -7.5732 C   0  0  0  0  0  0  0  0  0  0  0  0
  -21.7476  -44.1908   -8.9499 C   0  0  0  0  0  0  0  0  0  0  0  0
  -20.4019  -44.7063   -9.0019 N   0  0  0  0  0  0  0  0  0  0  0  0
  -19.1448  -44.0202   -8.9294 C   0  0  0  0  0  0  0  0  0  0  0  0
  -18.5997  -43.1583   -8.0152 C   0  0  0  0  0  0  0  0  0  0  0  0
  -17.3368  -42.6684   -8.2542 C   0  0  0  0  0  0  0  0  0  0  0  0
  -16.6713  -43.0868   -9.4343 C   0  0  0  0  0  0  0  0  0  0  0  0
  -17.2107  -43.9502  -10.3539 C   0  0  0  0  0  0  0  0  0  0  0  0
  -16.3356  -44.4327  -11.8002 Cl  0  0  0  0  0  0  0  0  0  0  0  0
  -18.4120  -44.3732  -10.0617 N   0  0  0  0  0  0  0  0  0  0  0  0
  -16.4765  -41.7504   -7.5085 C   0  0  0  0  0  0  0  0  0  0  0  0
  -15.1800  -42.0017   -7.4484 O   0  0  0  0  0  0  0  0  0  0  0  0
  -16.7473  -40.5634   -6.7867 N   0  0  0  0  0  0  0  0  0  0  0  0
  -13.7439  -37.1911  -11.8835 C   0  0  0  0  0  0  0  0  0  0  0  0
  1  2  1  0
  2  3  1  0
  2  4  1  0
  4  5  2  0
  5  6  1  0
  6  7  2  0
  7  8  1  0
  8  9  1  0
  9 10  1  0
 10 11  1  0
 11 12  1  0
 12 13  1  6
 12 14  1  0
 14 15  1  1
 15 16  1  0
 16 17  1  1
 16 18  1  0
 18 19  1  0
 19 20  1  0
 20 21  1  0
 21 22  1  0
 22 23  1  0
 23 24  1  0
 24 25  1  0
 25 26  1  0
 26 27  2  0
 27 28  1  0
 28 29  2  0
 29 30  1  0
 30 31  1  0
 30 32  2  0
 28 33  1  0
 33 34  2  0
 33 35  1  0
  8 36  2  0
 32 26  1  0
 35 14  1  0
 36  4  1  0
M  END
$$$$
