
     RDKit          3D

 36 38  0  0  0  0  0  0  0  0999 V2000
  -23.9348  -41.4200   -9.2724 C   0  0  0  0  0  0  0  0  0  0  0  0
  -23.3320  -40.8466   -7.9897 C   0  0  0  0  0  0  0  0  0  0  0  0
  -22.1954  -41.7687   -7.5981 C   0  0  0  0  0  0  0  0  0  0  0  0
  -22.8236  -39.4846   -8.1940 C   0  0  0  0  0  0  0  0  0  0  0  0
  -23.3460  -38.4491   -7.4604 C   0  0  0  0  0  0  0  0  0  0  0  0
  -22.8843  -37.1543   -7.6354 C   0  0  0  0  0  0  0  0  0  0  0  0
  -21.8923  -36.9290   -8.5591 C   0  0  0  0  0  0  0  0  0  0  0  0
  -21.3344  -37.9298   -9.3203 C   0  0  0  0  0  0  0  0  0  0  0  0
  -20.2570  -37.6664  -10.3217 C   0  0  0  0  0  0  0  0  0  0  0  0
  -19.2136  -38.6315  -10.2644 N   0  0  0  0  0  0  0  0  0  0  0  0
  -18.2556  -38.4952   -9.2234 C   0  0  0  0  0  0  0  0  0  0  0  0
  -16.8617  -38.9123   -9.5302 C   0  0  1  0  0  0  0  0  0  0  0  0
  -15.8653  -38.1680   -8.9329 O   0  0  0  0  0  0  0  0  0  0  0  0
  -16.6455  -40.4119   -9.3148 C   0  0  2  0  0  0  0  0  0  0  0  0
  -15.2501  -40.8425   -9.7084 C   0  0  0  0  0  0  0  0  0  0  0  0
  -14.2992  -40.8863   -8.5571 C   0  0  2  0  0  0  0  0  0  0  0  0
  -13.0048  -40.2216   -8.9488 C   0  0  0  0  0  0  0  0  0  0  0  0
  -14.0691  -42.3170   -8.1108 C   0  0  0  0  0  0  0  0  0  0  0  0
  -13.3297  -43.1382   -9.1156 C   0  0  0  0  0  0  0  0  0  0  0  0
  -13.8122  -44.4429   -9.1530 O   0  0  0  0  0  0  0  0  0  0  0  0
  -12.8321  -45.3182   -8.7023 C   0  0  0  0  0  0  0  0  0  0  0  0
  -13.2755  -45.9853   -7.4147 C   0  0  0  0  0  0  0  0  0  0  0  0
  -14.6042  -46.6828   -7.5802 C   0  0  0  0  0  0  0  0  0  0  0  0
  -15.6128  -46.1631   -6.5498 C   0  0  0  0  0  0  0  0  0  0  0  0
  -16.9572  -46.1306   -7.0702 N   0  0  0  0  0  0  0  0  0  0  0  0
  -17.7320  -45.0295   -7.5637 C   0  0  0  0  0  0  0  0  0  0  0  0
  -17.5122  -44.0917   -8.5374 C   0  0  0  0  0  0  0  0  0  0  0  0
  -18.4869  -43.1481   -8.7647 C   0  0  0  0  0  0  0  0  0  0  0  0
  -19.6651  -43.2029   -7.9777 C   0  0  0  0  0  0  0  0  0  0  0  0
  -19.8923  -44.1397   -7.0014 C   0  0  0  0  0  0  0  0  0  0  0  0
  -21.3751  -44.1566   -6.0572 Cl  0  0  0  0  0  0  0  0  0  0  0  0
  -18.9239  -45.0020   -6.8408 N   0  0  0  0  0  0  0  0  0  0  0  0
  -18.5777  -42.0284   -9.7012 C   0  0  0  0  0  0  0  0  0  0  0  0
  -19.7386  -41.7780  -10.2819 O   0  0  0  0  0  0  0  0  0  0  0  0
  -17.6259  -41.0831  -10.1528 N   0  0  0  0  0  0  0  0  0  0  0  0
  -21.8134  -39.2063   -9.1243 C   0  0  0  0  0  0  0  0  0  0  0  0
  1  2  1  0
  2  3  1  0
  2  4  1  0
  4  5  2  0
  5  6  1  0
  6  7  2  0
  7  8  1  0
  8  9  1  0
  9 10  1  0
 10 11  1  0
 11 12  1  0
 12 13  1  1
 12 14  1  0
 14 15  1  6
 15 16  1  0
 16 17  1  6
 16 18  1  0
 18 19  1  0
 19 20  1  0
 20 21  1  0
 21 22  1  0
 22 23  1  0
 23 24  1  0
 24 25  1  0
 25 26  1  0
 26 27  2  0
 27 28  1  0
 28 29  2  0
 29 30  1  0
 30 31  1  0
 30 32  2  0
 28 33  1  0
 33 34  2  0
 33 35  1  0
  8 36  2  0
 32 26  1  0
 35 14  1  0
 36  4  1  0
M  END
$$$$
