
     RDKit          3D

 36 38  0  0  0  0  0  0  0  0999 V2000
  -22.4827  -42.2251   -4.4826 C   0  0  0  0  0  0  0  0  0  0  0  0
  -22.6315  -40.7042   -4.4327 C   0  0  0  0  0  0  0  0  0  0  0  0
  -21.7421  -40.2211   -3.3053 C   0  0  0  0  0  0  0  0  0  0  0  0
  -22.2211  -40.0799   -5.6965 C   0  0  0  0  0  0  0  0  0  0  0  0
  -23.1335  -39.3563   -6.4225 C   0  0  0  0  0  0  0  0  0  0  0  0
  -22.7715  -38.7584   -7.6191 C   0  0  0  0  0  0  0  0  0  0  0  0
  -21.4796  -38.9053   -8.0634 C   0  0  0  0  0  0  0  0  0  0  0  0
  -20.5261  -39.6194   -7.3753 C   0  0  0  0  0  0  0  0  0  0  0  0
  -19.1256  -39.7702   -7.8742 C   0  0  0  0  0  0  0  0  0  0  0  0
  -18.1920  -39.9731   -6.8204 N   0  0  0  0  0  0  0  0  0  0  0  0
  -16.8456  -40.2452   -7.1854 C   0  0  0  0  0  0  0  0  0  0  0  0
  -15.9987  -39.0809   -7.5574 C   0  0  1  0  0  0  0  0  0  0  0  0
  -14.9892  -38.7636   -6.6722 O   0  0  0  0  0  0  0  0  0  0  0  0
  -15.4745  -39.1813   -8.9916 C   0  0  2  0  0  0  0  0  0  0  0  0
  -15.3843  -37.8250   -9.6549 C   0  0  0  0  0  0  0  0  0  0  0  0
  -14.0251  -37.2121   -9.5629 C   0  0  2  0  0  0  0  0  0  0  0  0
  -14.1517  -35.7681   -9.1515 C   0  0  0  0  0  0  0  0  0  0  0  0
  -13.2907  -37.3451  -10.8828 C   0  0  0  0  0  0  0  0  0  0  0  0
  -13.8922  -36.5282  -11.9790 C   0  0  0  0  0  0  0  0  0  0  0  0
  -13.8345  -37.1989  -13.1968 O   0  0  0  0  0  0  0  0  0  0  0  0
  -12.9845  -36.5240  -14.0640 C   0  0  0  0  0  0  0  0  0  0  0  0
  -11.7749  -37.3799  -14.3859 C   0  0  0  0  0  0  0  0  0  0  0  0
  -12.1785  -38.7235  -14.9438 C   0  0  0  0  0  0  0  0  0  0  0  0
  -11.5752  -39.8545  -14.1034 C   0  0  0  0  0  0  0  0  0  0  0  0
  -12.4455  -41.0016  -14.0266 N   0  0  0  0  0  0  0  0  0  0  0  0
  -13.3182  -41.4320  -12.9734 C   0  0  0  0  0  0  0  0  0  0  0  0
  -14.3403  -40.8218  -12.2960 C   0  0  0  0  0  0  0  0  0  0  0  0
  -14.9897  -41.5357  -11.3158 C   0  0  0  0  0  0  0  0  0  0  0  0
  -14.5633  -42.8646  -11.0649 C   0  0  0  0  0  0  0  0  0  0  0  0
  -13.5410  -43.4823  -11.7399 C   0  0  0  0  0  0  0  0  0  0  0  0
  -13.0573  -45.1344  -11.3835 Cl  0  0  0  0  0  0  0  0  0  0  0  0
  -12.9706  -42.7440  -12.6547 N   0  0  0  0  0  0  0  0  0  0  0  0
  -16.0945  -41.2003  -10.4180 C   0  0  0  0  0  0  0  0  0  0  0  0
  -17.0087  -42.1207  -10.1638 O   0  0  0  0  0  0  0  0  0  0  0  0
  -16.4215  -40.0208   -9.7072 N   0  0  0  0  0  0  0  0  0  0  0  0
  -20.9152  -40.2022   -6.1895 C   0  0  0  0  0  0  0  0  0  0  0  0
  1  2  1  0
  2  3  1  0
  2  4  1  0
  4  5  2  0
  5  6  1  0
  6  7  2  0
  7  8  1  0
  8  9  1  0
  9 10  1  0
 10 11  1  0
 11 12  1  0
 12 13  1  1
 12 14  1  0
 14 15  1  6
 15 16  1  0
 16 17  1  6
 16 18  1  0
 18 19  1  0
 19 20  1  0
 20 21  1  0
 21 22  1  0
 22 23  1  0
 23 24  1  0
 24 25  1  0
 25 26  1  0
 26 27  2  0
 27 28  1  0
 28 29  2  0
 29 30  1  0
 30 31  1  0
 30 32  2  0
 28 33  1  0
 33 34  2  0
 33 35  1  0
  8 36  2  0
 32 26  1  0
 35 14  1  0
 36  4  1  0
M  END
$$$$
