
     RDKit          3D

 36 38  0  0  0  0  0  0  0  0999 V2000
  -22.0568  -42.5204   -4.7655 C   0  0  0  0  0  0  0  0  0  0  0  0
  -22.9599  -41.3356   -5.1099 C   0  0  0  0  0  0  0  0  0  0  0  0
  -23.2658  -40.6330   -3.8029 C   0  0  0  0  0  0  0  0  0  0  0  0
  -22.3012  -40.4059   -6.0356 C   0  0  0  0  0  0  0  0  0  0  0  0
  -22.8722  -40.1468   -7.2563 C   0  0  0  0  0  0  0  0  0  0  0  0
  -22.2697  -39.2742   -8.1484 C   0  0  0  0  0  0  0  0  0  0  0  0
  -21.0883  -38.6739   -7.7851 C   0  0  0  0  0  0  0  0  0  0  0  0
  -20.4737  -38.8983   -6.5750 C   0  0  0  0  0  0  0  0  0  0  0  0
  -19.1878  -38.2377   -6.1968 C   0  0  0  0  0  0  0  0  0  0  0  0
  -18.0503  -38.9799   -6.6195 N   0  0  0  0  0  0  0  0  0  0  0  0
  -17.6487  -38.8419   -7.9758 C   0  0  0  0  0  0  0  0  0  0  0  0
  -16.2935  -38.2829   -8.2248 C   0  0  1  0  0  0  0  0  0  0  0  0
  -15.5027  -38.1015   -7.1089 O   0  0  0  0  0  0  0  0  0  0  0  0
  -15.5463  -39.0436   -9.3225 C   0  0  2  0  0  0  0  0  0  0  0  0
  -14.6214  -38.1389  -10.1058 C   0  0  0  0  0  0  0  0  0  0  0  0
  -13.2136  -38.1590   -9.6065 C   0  0  2  0  0  0  0  0  0  0  0  0
  -12.6968  -36.7473   -9.5031 C   0  0  0  0  0  0  0  0  0  0  0  0
  -12.3383  -38.9994  -10.5157 C   0  0  0  0  0  0  0  0  0  0  0  0
  -12.1460  -38.4004  -11.8703 C   0  0  0  0  0  0  0  0  0  0  0  0
  -12.1261  -39.3816  -12.8568 O   0  0  0  0  0  0  0  0  0  0  0  0
  -10.8641  -39.4398  -13.4347 C   0  0  0  0  0  0  0  0  0  0  0  0
  -10.2132  -40.7776  -13.1411 C   0  0  0  0  0  0  0  0  0  0  0  0
  -11.0804  -41.9277  -13.5932 C   0  0  0  0  0  0  0  0  0  0  0  0
  -11.3640  -42.8758  -12.4227 C   0  0  0  0  0  0  0  0  0  0  0  0
  -12.6793  -43.4615  -12.5008 N   0  0  0  0  0  0  0  0  0  0  0  0
  -13.8843  -43.1268  -11.7995 C   0  0  0  0  0  0  0  0  0  0  0  0
  -14.5943  -41.9639  -11.6597 C   0  0  0  0  0  0  0  0  0  0  0  0
  -15.7388  -41.9871  -10.8970 C   0  0  0  0  0  0  0  0  0  0  0  0
  -16.1183  -43.2163  -10.3007 C   0  0  0  0  0  0  0  0  0  0  0  0
  -15.4126  -44.3850  -10.4371 C   0  0  0  0  0  0  0  0  0  0  0  0
  -15.9340  -45.8796   -9.6726 Cl  0  0  0  0  0  0  0  0  0  0  0  0
  -14.3377  -44.2871  -11.1735 N   0  0  0  0  0  0  0  0  0  0  0  0
  -16.7111  -40.9531  -10.5441 C   0  0  0  0  0  0  0  0  0  0  0  0
  -17.9938  -41.2714  -10.5121 O   0  0  0  0  0  0  0  0  0  0  0  0
  -16.5689  -39.5873  -10.2013 N   0  0  0  0  0  0  0  0  0  0  0  0
  -21.0959  -39.7702   -5.7090 C   0  0  0  0  0  0  0  0  0  0  0  0
  1  2  1  0
  2  3  1  0
  2  4  1  0
  4  5  2  0
  5  6  1  0
  6  7  2  0
  7  8  1  0
  8  9  1  0
  9 10  1  0
 10 11  1  0
 11 12  1  0
 12 13  1  1
 12 14  1  0
 14 15  1  6
 15 16  1  0
 16 17  1  6
 16 18  1  0
 18 19  1  0
 19 20  1  0
 20 21  1  0
 21 22  1  0
 22 23  1  0
 23 24  1  0
 24 25  1  0
 25 26  1  0
 26 27  2  0
 27 28  1  0
 28 29  2  0
 29 30  1  0
 30 31  1  0
 30 32  2  0
 28 33  1  0
 33 34  2  0
 33 35  1  0
  8 36  2  0
 32 26  1  0
 35 14  1  0
 36  4  1  0
M  END
$$$$
