
     RDKit          3D

 36 38  0  0  0  0  0  0  0  0999 V2000
  -22.4909  -36.0434   -7.6298 C   0  0  0  0  0  0  0  0  0  0  0  0
  -23.4409  -37.2414   -7.6372 C   0  0  0  0  0  0  0  0  0  0  0  0
  -24.0061  -37.3343   -9.0399 C   0  0  0  0  0  0  0  0  0  0  0  0
  -22.7422  -38.4866   -7.2958 C   0  0  0  0  0  0  0  0  0  0  0  0
  -23.4052  -39.6842   -7.3933 C   0  0  0  0  0  0  0  0  0  0  0  0
  -22.7685  -40.8734   -7.0756 C   0  0  0  0  0  0  0  0  0  0  0  0
  -21.4594  -40.8281   -6.6606 C   0  0  0  0  0  0  0  0  0  0  0  0
  -20.7489  -39.6558   -6.5453 C   0  0  0  0  0  0  0  0  0  0  0  0
  -19.3257  -39.6249   -6.0909 C   0  0  0  0  0  0  0  0  0  0  0  0
  -18.4364  -40.1834   -7.0503 N   0  0  0  0  0  0  0  0  0  0  0  0
  -17.0538  -40.2071   -6.7219 C   0  0  0  0  0  0  0  0  0  0  0  0
  -16.1381  -39.4319   -7.6004 C   0  0  1  0  0  0  0  0  0  0  0  0
  -15.0194  -38.9050   -6.9885 O   0  0  0  0  0  0  0  0  0  0  0  0
  -15.7712  -40.1977   -8.8735 C   0  0  2  0  0  0  0  0  0  0  0  0
  -15.1091  -39.3036   -9.8981 C   0  0  0  0  0  0  0  0  0  0  0  0
  -13.6169  -39.3516   -9.8470 C   0  0  2  0  0  0  0  0  0  0  0  0
  -13.0669  -37.9498   -9.9022 C   0  0  0  0  0  0  0  0  0  0  0  0
  -13.0725  -40.2005  -10.9792 C   0  0  0  0  0  0  0  0  0  0  0  0
  -13.2868  -39.5954  -12.3278 C   0  0  0  0  0  0  0  0  0  0  0  0
  -13.5838  -40.5699  -13.2757 O   0  0  0  0  0  0  0  0  0  0  0  0
  -12.5562  -40.6459  -14.2077 C   0  0  0  0  0  0  0  0  0  0  0  0
  -11.8721  -41.9967  -14.1262 C   0  0  0  0  0  0  0  0  0  0  0  0
  -12.8565  -43.1285  -14.2972 C   0  0  0  0  0  0  0  0  0  0  0  0
  -12.7913  -44.0797  -13.0971 C   0  0  0  0  0  0  0  0  0  0  0  0
  -14.0795  -44.6420  -12.7755 N   0  0  0  0  0  0  0  0  0  0  0  0
  -15.0104  -44.2914  -11.7427 C   0  0  0  0  0  0  0  0  0  0  0  0
  -15.6233  -43.1175  -11.3934 C   0  0  0  0  0  0  0  0  0  0  0  0
  -16.4846  -43.1263  -10.3209 C   0  0  0  0  0  0  0  0  0  0  0  0
  -16.6893  -44.3529   -9.6397 C   0  0  0  0  0  0  0  0  0  0  0  0
  -16.0795  -45.5326   -9.9844 C   0  0  0  0  0  0  0  0  0  0  0  0
  -16.3737  -47.0234   -9.1004 Cl  0  0  0  0  0  0  0  0  0  0  0  0
  -15.2753  -45.4481  -11.0107 N   0  0  0  0  0  0  0  0  0  0  0  0
  -17.2857  -42.0781   -9.6894 C   0  0  0  0  0  0  0  0  0  0  0  0
  -18.5046  -42.3744   -9.2723 O   0  0  0  0  0  0  0  0  0  0  0  0
  -17.0213  -40.7174   -9.4035 N   0  0  0  0  0  0  0  0  0  0  0  0
  -21.4079  -38.4901   -6.8681 C   0  0  0  0  0  0  0  0  0  0  0  0
  1  2  1  0
  2  3  1  0
  2  4  1  0
  4  5  2  0
  5  6  1  0
  6  7  2  0
  7  8  1  0
  8  9  1  0
  9 10  1  0
 10 11  1  0
 11 12  1  0
 12 13  1  1
 12 14  1  0
 14 15  1  6
 15 16  1  0
 16 17  1  6
 16 18  1  0
 18 19  1  0
 19 20  1  0
 20 21  1  0
 21 22  1  0
 22 23  1  0
 23 24  1  0
 24 25  1  0
 25 26  1  0
 26 27  2  0
 27 28  1  0
 28 29  2  0
 29 30  1  0
 30 31  1  0
 30 32  2  0
 28 33  1  0
 33 34  2  0
 33 35  1  0
  8 36  2  0
 32 26  1  0
 35 14  1  0
 36  4  1  0
M  END
$$$$
