
     RDKit          3D

 36 38  0  0  0  0  0  0  0  0999 V2000
  -23.9099  -35.9865   -8.8633 C   0  0  0  0  0  0  0  0  0  0  0  0
  -22.9077  -36.9645   -9.4773 C   0  0  0  0  0  0  0  0  0  0  0  0
  -21.8280  -36.1235  -10.1273 C   0  0  0  0  0  0  0  0  0  0  0  0
  -22.3148  -37.8401   -8.4590 C   0  0  0  0  0  0  0  0  0  0  0  0
  -22.8781  -39.0662   -8.2084 C   0  0  0  0  0  0  0  0  0  0  0  0
  -22.3382  -39.9107   -7.2515 C   0  0  0  0  0  0  0  0  0  0  0  0
  -21.2270  -39.4945   -6.5586 C   0  0  0  0  0  0  0  0  0  0  0  0
  -20.6234  -38.2766   -6.7701 C   0  0  0  0  0  0  0  0  0  0  0  0
  -19.4158  -37.8394   -6.0062 C   0  0  0  0  0  0  0  0  0  0  0  0
  -18.2574  -37.7472   -6.8265 N   0  0  0  0  0  0  0  0  0  0  0  0
  -17.5675  -38.9549   -7.1188 C   0  0  0  0  0  0  0  0  0  0  0  0
  -16.2444  -38.8317   -7.7862 C   0  0  1  0  0  0  0  0  0  0  0  0
  -15.1807  -38.5265   -6.9623 O   0  0  0  0  0  0  0  0  0  0  0  0
  -15.9328  -40.0341   -8.6801 C   0  0  2  0  0  0  0  0  0  0  0  0
  -15.1391  -39.6356   -9.9044 C   0  0  0  0  0  0  0  0  0  0  0  0
  -13.6653  -39.8112   -9.7353 C   0  0  2  0  0  0  0  0  0  0  0  0
  -12.9517  -38.5840  -10.2407 C   0  0  0  0  0  0  0  0  0  0  0  0
  -13.1916  -41.0582  -10.4561 C   0  0  0  0  0  0  0  0  0  0  0  0
  -13.2923  -40.9561  -11.9427 C   0  0  0  0  0  0  0  0  0  0  0  0
  -13.6740  -42.1698  -12.5063 O   0  0  0  0  0  0  0  0  0  0  0  0
  -12.6353  -42.6757  -13.2778 C   0  0  0  0  0  0  0  0  0  0  0  0
  -12.1186  -43.9697  -12.6793 C   0  0  0  0  0  0  0  0  0  0  0  0
  -13.2246  -44.9834  -12.5104 C   0  0  0  0  0  0  0  0  0  0  0  0
  -13.3084  -45.4450  -11.0512 C   0  0  0  0  0  0  0  0  0  0  0  0
  -14.6632  -45.7237  -10.6437 N   0  0  0  0  0  0  0  0  0  0  0  0
  -15.5765  -44.9363   -9.8678 C   0  0  0  0  0  0  0  0  0  0  0  0
  -16.0563  -43.6600   -9.9970 C   0  0  0  0  0  0  0  0  0  0  0  0
  -16.9443  -43.1993   -9.0529 C   0  0  0  0  0  0  0  0  0  0  0  0
  -17.3131  -44.0749   -8.0004 C   0  0  0  0  0  0  0  0  0  0  0  0
  -16.8373  -45.3546   -7.8652 C   0  0  0  0  0  0  0  0  0  0  0  0
  -17.3322  -46.3942   -6.5368 Cl  0  0  0  0  0  0  0  0  0  0  0  0
  -15.9983  -45.7229   -8.7967 N   0  0  0  0  0  0  0  0  0  0  0  0
  -17.6342  -41.9203   -8.8876 C   0  0  0  0  0  0  0  0  0  0  0  0
  -18.8916  -41.9245   -8.4795 O   0  0  0  0  0  0  0  0  0  0  0  0
  -17.2192  -40.5808   -9.0801 N   0  0  0  0  0  0  0  0  0  0  0  0
  -21.1822  -37.4588   -7.7274 C   0  0  0  0  0  0  0  0  0  0  0  0
  1  2  1  0
  2  3  1  0
  2  4  1  0
  4  5  2  0
  5  6  1  0
  6  7  2  0
  7  8  1  0
  8  9  1  0
  9 10  1  0
 10 11  1  0
 11 12  1  0
 12 13  1  1
 12 14  1  0
 14 15  1  6
 15 16  1  0
 16 17  1  6
 16 18  1  0
 18 19  1  0
 19 20  1  0
 20 21  1  0
 21 22  1  0
 22 23  1  0
 23 24  1  0
 24 25  1  0
 25 26  1  0
 26 27  2  0
 27 28  1  0
 28 29  2  0
 29 30  1  0
 30 31  1  0
 30 32  2  0
 28 33  1  0
 33 34  2  0
 33 35  1  0
  8 36  2  0
 32 26  1  0
 35 14  1  0
 36  4  1  0
M  END
$$$$
