
     RDKit          3D

 36 38  0  0  0  0  0  0  0  0999 V2000
  -20.5156  -36.2650  -10.2920 C   0  0  0  0  0  0  0  0  0  0  0  0
  -21.7091  -37.1274   -9.8799 C   0  0  0  0  0  0  0  0  0  0  0  0
  -22.4393  -37.4907  -11.1568 C   0  0  0  0  0  0  0  0  0  0  0  0
  -21.2794  -38.3470   -9.1848 C   0  0  0  0  0  0  0  0  0  0  0  0
  -21.7483  -39.5667   -9.6040 C   0  0  0  0  0  0  0  0  0  0  0  0
  -21.3590  -40.7325   -8.9639 C   0  0  0  0  0  0  0  0  0  0  0  0
  -20.4937  -40.6414   -7.9004 C   0  0  0  0  0  0  0  0  0  0  0  0
  -19.9941  -39.4453   -7.4398 C   0  0  0  0  0  0  0  0  0  0  0  0
  -19.0546  -39.3647   -6.2806 C   0  0  0  0  0  0  0  0  0  0  0  0
  -17.8192  -38.7489   -6.6238 N   0  0  0  0  0  0  0  0  0  0  0  0
  -16.9209  -39.4956   -7.4333 C   0  0  0  0  0  0  0  0  0  0  0  0
  -15.6079  -38.8686   -7.7396 C   0  0  1  0  0  0  0  0  0  0  0  0
  -14.6449  -38.9778   -6.7576 O   0  0  0  0  0  0  0  0  0  0  0  0
  -15.0660  -39.2975   -9.1049 C   0  0  2  0  0  0  0  0  0  0  0  0
  -14.5882  -38.1154   -9.9185 C   0  0  0  0  0  0  0  0  0  0  0  0
  -13.1203  -37.8677   -9.7939 C   0  0  2  0  0  0  0  0  0  0  0  0
  -12.8758  -36.3975   -9.5719 C   0  0  0  0  0  0  0  0  0  0  0  0
  -12.3899  -38.3664  -11.0256 C   0  0  0  0  0  0  0  0  0  0  0  0
  -12.7025  -37.5810  -12.2569 C   0  0  0  0  0  0  0  0  0  0  0  0
  -12.7715  -38.4051  -13.3760 O   0  0  0  0  0  0  0  0  0  0  0  0
  -11.7346  -38.0987  -14.2484 C   0  0  0  0  0  0  0  0  0  0  0  0
  -10.7837  -39.2739  -14.3673 C   0  0  0  0  0  0  0  0  0  0  0  0
  -11.5055  -40.5313  -14.7885 C   0  0  0  0  0  0  0  0  0  0  0  0
  -11.2634  -41.6527  -13.7721 C   0  0  0  0  0  0  0  0  0  0  0  0
  -12.4105  -42.5142  -13.6261 N   0  0  0  0  0  0  0  0  0  0  0  0
  -13.4123  -42.5552  -12.6010 C   0  0  0  0  0  0  0  0  0  0  0  0
  -14.2640  -41.6145  -12.0858 C   0  0  0  0  0  0  0  0  0  0  0  0
  -15.1231  -41.9943  -11.0809 C   0  0  0  0  0  0  0  0  0  0  0  0
  -15.0778  -43.3405  -10.6378 C   0  0  0  0  0  0  0  0  0  0  0  0
  -14.2281  -44.2882  -11.1497 C   0  0  0  0  0  0  0  0  0  0  0  0
  -14.2184  -45.9437  -10.5586 Cl  0  0  0  0  0  0  0  0  0  0  0  0
  -13.4414  -43.8557  -12.0991 N   0  0  0  0  0  0  0  0  0  0  0  0
  -16.1374  -41.2645  -10.3208 C   0  0  0  0  0  0  0  0  0  0  0  0
  -17.2742  -41.8735  -10.0303 O   0  0  0  0  0  0  0  0  0  0  0  0
  -16.1696  -39.9543   -9.7864 N   0  0  0  0  0  0  0  0  0  0  0  0
  -20.3987  -38.3038   -8.0959 C   0  0  0  0  0  0  0  0  0  0  0  0
  1  2  1  0
  2  3  1  0
  2  4  1  0
  4  5  2  0
  5  6  1  0
  6  7  2  0
  7  8  1  0
  8  9  1  0
  9 10  1  0
 10 11  1  0
 11 12  1  0
 12 13  1  1
 12 14  1  0
 14 15  1  6
 15 16  1  0
 16 17  1  6
 16 18  1  0
 18 19  1  0
 19 20  1  0
 20 21  1  0
 21 22  1  0
 22 23  1  0
 23 24  1  0
 24 25  1  0
 25 26  1  0
 26 27  2  0
 27 28  1  0
 28 29  2  0
 29 30  1  0
 30 31  1  0
 30 32  2  0
 28 33  1  0
 33 34  2  0
 33 35  1  0
  8 36  2  0
 32 26  1  0
 35 14  1  0
 36  4  1  0
M  END
$$$$
