
     RDKit          3D

 37 38  0  0  0  0  0  0  0  0999 V2000
  -13.4987  -40.5937   -9.5299 C   0  0  0  0  0  0  0  0  0  0  0  0
  -13.8959  -39.2148   -9.0444 C   0  0  2  0  0  0  0  0  0  0  0  0
  -15.2837  -39.1325   -8.6978 N   0  0  0  0  0  0  0  0  0  0  0  0
  -15.6308  -39.8145   -7.4830 C   0  0  0  0  0  0  0  0  0  0  0  0
  -17.0444  -39.4486   -7.0712 C   0  0  1  0  0  0  0  0  0  0  0  0
  -17.2565  -38.1884   -7.6832 O   0  0  0  0  0  0  0  0  0  0  0  0
  -18.0517  -40.4532   -7.6302 C   0  0  2  0  0  0  0  0  0  0  0  0
  -19.4406  -39.9855   -7.5214 C   0  0  0  0  0  0  0  0  0  0  0  0
  -19.9371  -39.4801   -6.2070 C   0  0  2  0  0  0  0  0  0  0  0  0
  -19.4088  -40.1281   -5.0019 C   0  0  0  0  0  0  0  0  0  0  0  0
  -21.4397  -39.5626   -6.2724 C   0  0  0  0  0  0  0  0  0  0  0  0
  -22.1732  -39.5402   -4.9902 C   0  0  0  0  0  0  0  0  0  0  0  0
  -22.8234  -40.8882   -4.7704 C   0  0  0  0  0  0  0  0  0  0  0  0
  -24.2323  -40.9969   -5.1988 C   0  0  0  0  0  0  0  0  0  0  0  0
  -24.5972  -40.6363   -6.5731 C   0  0  0  0  0  0  0  0  0  0  0  0
  -24.2136  -41.5251   -7.6854 C   0  0  0  0  0  0  0  0  0  0  0  0
  -23.8088  -42.9131   -7.3680 C   0  0  0  0  0  0  0  0  0  0  0  0
  -22.5183  -43.2285   -8.1369 C   0  0  0  0  0  0  0  0  0  0  0  0
  -21.7938  -44.3586   -7.5330 C   0  0  0  0  0  0  0  0  0  0  0  0
  -22.5265  -45.3884   -7.2869 O   0  0  0  0  0  0  0  0  0  0  0  0
  -20.4125  -44.3946   -7.2176 N   0  0  0  0  0  0  0  0  0  0  0  0
  -19.6829  -45.6028   -7.5546 C   0  0  0  0  0  0  0  0  0  0  0  0
  -19.7083  -43.3171   -6.5812 C   0  0  1  0  0  0  0  0  0  0  0  0
  -19.4344  -43.7939   -5.1419 C   0  0  0  0  0  0  0  0  0  0  0  0
  -18.4297  -42.9782   -7.2596 C   0  0  0  0  0  0  0  0  0  0  0  0
  -17.9515  -43.9556   -7.9539 O   0  0  0  0  0  0  0  0  0  0  0  0
  -17.7214  -41.7751   -7.2279 N   0  0  0  0  0  0  0  0  0  0  0  0
  -13.5993  -38.2769  -10.1821 C   0  0  0  0  0  0  0  0  0  0  0  0
  -12.9121  -38.5569  -11.3370 C   0  0  0  0  0  0  0  0  0  0  0  0
  -12.8834  -37.4102  -12.0863 C   0  0  0  0  0  0  0  0  0  0  0  0
  -12.2472  -37.2409  -13.4154 C   0  0  0  0  0  0  0  0  0  0  0  0
  -11.1054  -36.2495  -13.3959 C   0  0  0  0  0  0  0  0  0  0  0  0
  -10.4846  -36.1174  -14.7615 C   0  0  0  0  0  0  0  0  0  0  0  0
  -10.1125  -36.6538  -12.3311 C   0  0  0  0  0  0  0  0  0  0  0  0
  -11.7008  -34.8966  -13.0444 C   0  0  0  0  0  0  0  0  0  0  0  0
  -13.5270  -36.4855  -11.4054 O   0  0  0  0  0  0  0  0  0  0  0  0
  -13.9561  -36.9738  -10.2830 N   0  0  0  0  0  0  0  0  0  0  0  0
  2  1  1  6
  2  3  1  0
  3  4  1  0
  4  5  1  0
  5  6  1  6
  5  7  1  0
  7  8  1  1
  8  9  1  0
  9 10  1  1
  9 11  1  0
 11 12  1  0
 12 13  1  0
 13 14  1  0
 14 15  1  0
 15 16  1  0
 16 17  1  0
 17 18  1  0
 18 19  1  0
 19 20  2  0
 19 21  1  0
 21 22  1  0
 21 23  1  0
 23 24  1  1
 23 25  1  0
 25 26  2  0
 25 27  1  0
  2 28  1  0
 28 29  1  0
 29 30  2  0
 30 31  1  0
 31 32  1  0
 32 33  1  0
 32 34  1  0
 32 35  1  0
 30 36  1  0
 36 37  1  0
 27  7  1  0
 37 28  2  0
M  END
$$$$
