
     RDKit          3D

 37 38  0  0  0  0  0  0  0  0999 V2000
  -13.0431  -40.2610   -9.0088 C   0  0  0  0  0  0  0  0  0  0  0  0
  -14.3738  -39.6223   -9.3493 C   0  0  2  0  0  0  0  0  0  0  0  0
  -15.4547  -40.5627   -9.3352 N   0  0  0  0  0  0  0  0  0  0  0  0
  -16.6183  -40.1364  -10.0601 C   0  0  0  0  0  0  0  0  0  0  0  0
  -17.7456  -39.8285   -9.0924 C   0  0  1  0  0  0  0  0  0  0  0  0
  -18.5744  -38.9358   -9.8160 O   0  0  0  0  0  0  0  0  0  0  0  0
  -18.5391  -41.0922   -8.7611 C   0  0  2  0  0  0  0  0  0  0  0  0
  -19.9879  -40.8538   -8.7008 C   0  0  0  0  0  0  0  0  0  0  0  0
  -20.5054  -39.7242   -7.8726 C   0  0  2  0  0  0  0  0  0  0  0  0
  -19.7784  -39.4177   -6.6362 C   0  0  0  0  0  0  0  0  0  0  0  0
  -21.9546  -40.0366   -7.6056 C   0  0  0  0  0  0  0  0  0  0  0  0
  -22.5990  -39.3354   -6.4760 C   0  0  0  0  0  0  0  0  0  0  0  0
  -22.9239  -40.3402   -5.3929 C   0  0  0  0  0  0  0  0  0  0  0  0
  -24.2972  -40.8821   -5.4135 C   0  0  0  0  0  0  0  0  0  0  0  0
  -24.8120  -41.4935   -6.6436 C   0  0  0  0  0  0  0  0  0  0  0  0
  -24.3087  -42.8133   -7.0667 C   0  0  0  0  0  0  0  0  0  0  0  0
  -23.5916  -43.6433   -6.0726 C   0  0  0  0  0  0  0  0  0  0  0  0
  -22.3106  -44.1810   -6.7252 C   0  0  0  0  0  0  0  0  0  0  0  0
  -21.3220  -44.5905   -5.7144 C   0  0  0  0  0  0  0  0  0  0  0  0
  -21.7955  -45.3429   -4.7830 O   0  0  0  0  0  0  0  0  0  0  0  0
  -19.9503  -44.2343   -5.6929 N   0  0  0  0  0  0  0  0  0  0  0  0
  -18.9947  -45.2800   -5.3789 C   0  0  0  0  0  0  0  0  0  0  0  0
  -19.4635  -42.9084   -5.9515 C   0  0  1  0  0  0  0  0  0  0  0  0
  -19.0081  -42.3603   -4.5855 C   0  0  0  0  0  0  0  0  0  0  0  0
  -18.3321  -42.8830   -6.9155 C   0  0  0  0  0  0  0  0  0  0  0  0
  -17.6928  -44.0028   -6.9739 O   0  0  0  0  0  0  0  0  0  0  0  0
  -17.9041  -41.8291   -7.7256 N   0  0  0  0  0  0  0  0  0  0  0  0
  -14.2143  -39.0513  -10.7315 C   0  0  0  0  0  0  0  0  0  0  0  0
  -14.1057  -37.7281  -11.0804 C   0  0  0  0  0  0  0  0  0  0  0  0
  -13.9771  -37.6718  -12.4434 C   0  0  0  0  0  0  0  0  0  0  0  0
  -13.8303  -36.4460  -13.2654 C   0  0  0  0  0  0  0  0  0  0  0  0
  -12.3874  -36.0290  -13.4422 C   0  0  0  0  0  0  0  0  0  0  0  0
  -11.7088  -35.8613  -12.1083 C   0  0  0  0  0  0  0  0  0  0  0  0
  -12.3296  -34.7837  -14.2962 C   0  0  0  0  0  0  0  0  0  0  0  0
  -11.6831  -37.1676  -14.1604 C   0  0  0  0  0  0  0  0  0  0  0  0
  -14.0080  -38.9106  -12.8875 O   0  0  0  0  0  0  0  0  0  0  0  0
  -14.1468  -39.7374  -11.8978 N   0  0  0  0  0  0  0  0  0  0  0  0
  2  1  1  6
  2  3  1  0
  3  4  1  0
  4  5  1  0
  5  6  1  6
  5  7  1  0
  7  8  1  1
  8  9  1  0
  9 10  1  1
  9 11  1  0
 11 12  1  0
 12 13  1  0
 13 14  1  0
 14 15  1  0
 15 16  1  0
 16 17  1  0
 17 18  1  0
 18 19  1  0
 19 20  2  0
 19 21  1  0
 21 22  1  0
 21 23  1  0
 23 24  1  1
 23 25  1  0
 25 26  2  0
 25 27  1  0
  2 28  1  0
 28 29  1  0
 29 30  2  0
 30 31  1  0
 31 32  1  0
 32 33  1  0
 32 34  1  0
 32 35  1  0
 30 36  1  0
 36 37  1  0
 27  7  1  0
 37 28  2  0
M  END
$$$$
