
     RDKit          3D

 37 38  0  0  0  0  0  0  0  0999 V2000
  -13.8092  -41.6892  -11.0518 C   0  0  0  0  0  0  0  0  0  0  0  0
  -13.9223  -40.4473  -10.1917 C   0  0  2  0  0  0  0  0  0  0  0  0
  -14.7375  -40.6541   -9.0318 N   0  0  0  0  0  0  0  0  0  0  0  0
  -15.0591  -39.4531   -8.3138 C   0  0  0  0  0  0  0  0  0  0  0  0
  -16.1428  -39.7376   -7.2908 C   0  0  1  0  0  0  0  0  0  0  0  0
  -16.7340  -38.4696   -7.0670 O   0  0  0  0  0  0  0  0  0  0  0  0
  -17.1953  -40.6874   -7.8623 C   0  0  2  0  0  0  0  0  0  0  0  0
  -18.4815  -40.0236   -8.1165 C   0  0  0  0  0  0  0  0  0  0  0  0
  -19.1034  -39.2040   -7.0343 C   0  0  2  0  0  0  0  0  0  0  0  0
  -18.9094  -39.6645   -5.6554 C   0  0  0  0  0  0  0  0  0  0  0  0
  -20.5639  -39.0935   -7.3861 C   0  0  0  0  0  0  0  0  0  0  0  0
  -21.4928  -38.7169   -6.3007 C   0  0  0  0  0  0  0  0  0  0  0  0
  -22.3917  -39.8933   -5.9907 C   0  0  0  0  0  0  0  0  0  0  0  0
  -23.7031  -39.8932   -6.6693 C   0  0  0  0  0  0  0  0  0  0  0  0
  -23.7585  -39.7675   -8.1298 C   0  0  0  0  0  0  0  0  0  0  0  0
  -23.3465  -40.9036   -8.9745 C   0  0  0  0  0  0  0  0  0  0  0  0
  -23.2457  -42.2424   -8.3510 C   0  0  0  0  0  0  0  0  0  0  0  0
  -21.9150  -42.8766   -8.7793 C   0  0  0  0  0  0  0  0  0  0  0  0
  -21.5095  -43.9512   -7.8588 C   0  0  0  0  0  0  0  0  0  0  0  0
  -22.4386  -44.8024   -7.5941 O   0  0  0  0  0  0  0  0  0  0  0  0
  -20.2300  -44.1106   -7.2703 N   0  0  0  0  0  0  0  0  0  0  0  0
  -19.6705  -45.4492   -7.2432 C   0  0  0  0  0  0  0  0  0  0  0  0
  -19.4725  -43.0335   -6.6975 C   0  0  1  0  0  0  0  0  0  0  0  0
  -19.5365  -43.2467   -5.1729 C   0  0  0  0  0  0  0  0  0  0  0  0
  -18.0572  -43.0131   -7.1520 C   0  0  0  0  0  0  0  0  0  0  0  0
  -17.6407  -44.1647   -7.5595 O   0  0  0  0  0  0  0  0  0  0  0  0
  -17.1700  -41.9351   -7.1831 N   0  0  0  0  0  0  0  0  0  0  0  0
  -14.5430  -39.3948  -11.0686 C   0  0  0  0  0  0  0  0  0  0  0  0
  -14.3560  -38.0365  -11.0020 C   0  0  0  0  0  0  0  0  0  0  0  0
  -15.1152  -37.4683  -11.9910 C   0  0  0  0  0  0  0  0  0  0  0  0
  -15.2257  -36.0211  -12.2965 C   0  0  0  0  0  0  0  0  0  0  0  0
  -14.4338  -35.6190  -13.5206 C   0  0  0  0  0  0  0  0  0  0  0  0
  -13.9968  -36.8309  -14.3003 C   0  0  0  0  0  0  0  0  0  0  0  0
  -13.2803  -34.7379  -13.1005 C   0  0  0  0  0  0  0  0  0  0  0  0
  -15.3738  -34.8288  -14.4151 C   0  0  0  0  0  0  0  0  0  0  0  0
  -15.7291  -38.4481  -12.6203 O   0  0  0  0  0  0  0  0  0  0  0  0
  -15.4067  -39.5890  -12.0942 N   0  0  0  0  0  0  0  0  0  0  0  0
  2  1  1  6
  2  3  1  0
  3  4  1  0
  4  5  1  0
  5  6  1  6
  5  7  1  0
  7  8  1  1
  8  9  1  0
  9 10  1  1
  9 11  1  0
 11 12  1  0
 12 13  1  0
 13 14  1  0
 14 15  1  0
 15 16  1  0
 16 17  1  0
 17 18  1  0
 18 19  1  0
 19 20  2  0
 19 21  1  0
 21 22  1  0
 21 23  1  0
 23 24  1  1
 23 25  1  0
 25 26  2  0
 25 27  1  0
  2 28  1  0
 28 29  1  0
 29 30  2  0
 30 31  1  0
 31 32  1  0
 32 33  1  0
 32 34  1  0
 32 35  1  0
 30 36  1  0
 36 37  1  0
 27  7  1  0
 37 28  2  0
M  END
$$$$
