
     RDKit          3D

 37 38  0  0  0  0  0  0  0  0999 V2000
  -12.4572  -41.5477   -9.7151 C   0  0  0  0  0  0  0  0  0  0  0  0
  -13.1377  -40.2574   -9.3065 C   0  0  2  0  0  0  0  0  0  0  0  0
  -14.4057  -40.4797   -8.6775 N   0  0  0  0  0  0  0  0  0  0  0  0
  -15.1953  -39.2933   -8.5038 C   0  0  0  0  0  0  0  0  0  0  0  0
  -16.2796  -39.5411   -7.4720 C   0  0  1  0  0  0  0  0  0  0  0  0
  -16.9150  -38.2812   -7.3439 O   0  0  0  0  0  0  0  0  0  0  0  0
  -17.2938  -40.5643   -7.9828 C   0  0  2  0  0  0  0  0  0  0  0  0
  -18.5728  -39.9524   -8.3692 C   0  0  0  0  0  0  0  0  0  0  0  0
  -19.2542  -39.0276   -7.4153 C   0  0  2  0  0  0  0  0  0  0  0  0
  -19.1224  -39.3296   -5.9861 C   0  0  0  0  0  0  0  0  0  0  0  0
  -20.6971  -38.9790   -7.8451 C   0  0  0  0  0  0  0  0  0  0  0  0
  -21.6809  -38.4987   -6.8530 C   0  0  0  0  0  0  0  0  0  0  0  0
  -22.5820  -39.6472   -6.4564 C   0  0  0  0  0  0  0  0  0  0  0  0
  -23.8591  -39.7421   -7.1913 C   0  0  0  0  0  0  0  0  0  0  0  0
  -23.8453  -39.7798   -8.6577 C   0  0  0  0  0  0  0  0  0  0  0  0
  -23.3818  -40.9960   -9.3506 C   0  0  0  0  0  0  0  0  0  0  0  0
  -23.2978  -42.2558   -8.5779 C   0  0  0  0  0  0  0  0  0  0  0  0
  -21.9418  -42.9131   -8.8702 C   0  0  0  0  0  0  0  0  0  0  0  0
  -21.5705  -43.8730   -7.8179 C   0  0  0  0  0  0  0  0  0  0  0  0
  -22.5027  -44.7038   -7.5039 O   0  0  0  0  0  0  0  0  0  0  0  0
  -20.3193  -43.9468   -7.1561 N   0  0  0  0  0  0  0  0  0  0  0  0
  -19.7485  -45.2654   -6.9541 C   0  0  0  0  0  0  0  0  0  0  0  0
  -19.6010  -42.8015   -6.6720 C   0  0  1  0  0  0  0  0  0  0  0  0
  -19.7363  -42.8455   -5.1378 C   0  0  0  0  0  0  0  0  0  0  0  0
  -18.1658  -42.8099   -7.0592 C   0  0  0  0  0  0  0  0  0  0  0  0
  -17.7187  -43.9931   -7.3160 O   0  0  0  0  0  0  0  0  0  0  0  0
  -17.2889  -41.7286   -7.1686 N   0  0  0  0  0  0  0  0  0  0  0  0
  -13.3300  -39.4739  -10.5759 C   0  0  0  0  0  0  0  0  0  0  0  0
  -12.7618  -38.2690  -10.9071 C   0  0  0  0  0  0  0  0  0  0  0  0
  -13.2158  -37.9297  -12.1544 C   0  0  0  0  0  0  0  0  0  0  0  0
  -12.8661  -36.7070  -12.9177 C   0  0  0  0  0  0  0  0  0  0  0  0
  -13.6406  -35.4907  -12.4618 C   0  0  0  0  0  0  0  0  0  0  0  0
  -13.3583  -34.3089  -13.3514 C   0  0  0  0  0  0  0  0  0  0  0  0
  -13.3354  -35.2222  -11.0065 C   0  0  0  0  0  0  0  0  0  0  0  0
  -15.1152  -35.8223  -12.6162 C   0  0  0  0  0  0  0  0  0  0  0  0
  -14.0214  -38.8929  -12.5494 O   0  0  0  0  0  0  0  0  0  0  0  0
  -14.1026  -39.8108  -11.6366 N   0  0  0  0  0  0  0  0  0  0  0  0
  2  1  1  6
  2  3  1  0
  3  4  1  0
  4  5  1  0
  5  6  1  6
  5  7  1  0
  7  8  1  1
  8  9  1  0
  9 10  1  1
  9 11  1  0
 11 12  1  0
 12 13  1  0
 13 14  1  0
 14 15  1  0
 15 16  1  0
 16 17  1  0
 17 18  1  0
 18 19  1  0
 19 20  2  0
 19 21  1  0
 21 22  1  0
 21 23  1  0
 23 24  1  1
 23 25  1  0
 25 26  2  0
 25 27  1  0
  2 28  1  0
 28 29  1  0
 29 30  2  0
 30 31  1  0
 31 32  1  0
 32 33  1  0
 32 34  1  0
 32 35  1  0
 30 36  1  0
 36 37  1  0
 27  7  1  0
 37 28  2  0
M  END
$$$$
