
     RDKit          3D

 37 38  0  0  0  0  0  0  0  0999 V2000
  -15.3790  -39.4912  -11.8203 C   0  0  0  0  0  0  0  0  0  0  0  0
  -14.4356  -39.5296  -10.6356 C   0  0  2  0  0  0  0  0  0  0  0  0
  -15.0809  -39.1731   -9.4071 N   0  0  0  0  0  0  0  0  0  0  0  0
  -15.6508  -40.2822   -8.6955 C   0  0  0  0  0  0  0  0  0  0  0  0
  -16.9906  -39.8836   -8.1055 C   0  0  1  0  0  0  0  0  0  0  0  0
  -17.3396  -38.7142   -8.8252 O   0  0  0  0  0  0  0  0  0  0  0  0
  -18.0417  -40.9630   -8.3631 C   0  0  2  0  0  0  0  0  0  0  0  0
  -19.4158  -40.4693   -8.1962 C   0  0  0  0  0  0  0  0  0  0  0  0
  -19.7761  -39.7277   -6.9513 C   0  0  2  0  0  0  0  0  0  0  0  0
  -19.1182  -40.1505   -5.7105 C   0  0  0  0  0  0  0  0  0  0  0  0
  -21.2765  -39.8055   -6.8427 C   0  0  0  0  0  0  0  0  0  0  0  0
  -21.8715  -39.5422   -5.5162 C   0  0  0  0  0  0  0  0  0  0  0  0
  -22.4826  -40.8208   -4.9874 C   0  0  0  0  0  0  0  0  0  0  0  0
  -23.9276  -40.9915   -5.2385 C   0  0  0  0  0  0  0  0  0  0  0  0
  -24.4381  -40.8839   -6.6096 C   0  0  0  0  0  0  0  0  0  0  0  0
  -24.1652  -41.9644   -7.5751 C   0  0  0  0  0  0  0  0  0  0  0  0
  -23.7166  -43.2753   -7.0540 C   0  0  0  0  0  0  0  0  0  0  0  0
  -22.5111  -43.7387   -7.8836 C   0  0  0  0  0  0  0  0  0  0  0  0
  -21.7169  -44.7470   -7.1631 C   0  0  0  0  0  0  0  0  0  0  0  0
  -22.4101  -45.7072   -6.6579 O   0  0  0  0  0  0  0  0  0  0  0  0
  -20.3098  -44.7390   -6.9932 N   0  0  0  0  0  0  0  0  0  0  0  0
  -19.6085  -45.9957   -7.1788 C   0  0  0  0  0  0  0  0  0  0  0  0
  -19.5526  -43.5707   -6.6414 C   0  0  1  0  0  0  0  0  0  0  0  0
  -19.1248  -43.7798   -5.1760 C   0  0  0  0  0  0  0  0  0  0  0  0
  -18.3554  -43.3742   -7.5005 C   0  0  0  0  0  0  0  0  0  0  0  0
  -17.9439  -44.4666   -8.0512 O   0  0  0  0  0  0  0  0  0  0  0  0
  -17.6588  -42.1928   -7.7633 N   0  0  0  0  0  0  0  0  0  0  0  0
  -13.3470  -38.5388  -10.9446 C   0  0  0  0  0  0  0  0  0  0  0  0
  -13.4823  -37.3084  -11.5380 C   0  0  0  0  0  0  0  0  0  0  0  0
  -12.2327  -36.7525  -11.6204 C   0  0  0  0  0  0  0  0  0  0  0  0
  -11.8935  -35.4261  -12.1910 C   0  0  0  0  0  0  0  0  0  0  0  0
  -11.3498  -35.5163  -13.5993 C   0  0  0  0  0  0  0  0  0  0  0  0
  -12.4038  -36.0160  -14.5517 C   0  0  0  0  0  0  0  0  0  0  0  0
  -10.1017  -36.3681  -13.5980 C   0  0  0  0  0  0  0  0  0  0  0  0
  -10.9962  -34.1023  -14.0279 C   0  0  0  0  0  0  0  0  0  0  0  0
  -11.3883  -37.6166  -11.0977 O   0  0  0  0  0  0  0  0  0  0  0  0
  -12.0224  -38.6737  -10.6941 N   0  0  0  0  0  0  0  0  0  0  0  0
  2  1  1  6
  2  3  1  0
  3  4  1  0
  4  5  1  0
  5  6  1  6
  5  7  1  0
  7  8  1  1
  8  9  1  0
  9 10  1  1
  9 11  1  0
 11 12  1  0
 12 13  1  0
 13 14  1  0
 14 15  1  0
 15 16  1  0
 16 17  1  0
 17 18  1  0
 18 19  1  0
 19 20  2  0
 19 21  1  0
 21 22  1  0
 21 23  1  0
 23 24  1  1
 23 25  1  0
 25 26  2  0
 25 27  1  0
  2 28  1  0
 28 29  1  0
 29 30  2  0
 30 31  1  0
 31 32  1  0
 32 33  1  0
 32 34  1  0
 32 35  1  0
 30 36  1  0
 36 37  1  0
 27  7  1  0
 37 28  2  0
M  END
$$$$
