
     RDKit          3D

 37 38  0  0  0  0  0  0  0  0999 V2000
  -14.8945  -41.4121   -9.9727 C   0  0  0  0  0  0  0  0  0  0  0  0
  -13.9963  -40.2449   -9.6181 C   0  0  2  0  0  0  0  0  0  0  0  0
  -14.4781  -39.5030   -8.4909 N   0  0  0  0  0  0  0  0  0  0  0  0
  -15.4247  -40.2125   -7.6774 C   0  0  0  0  0  0  0  0  0  0  0  0
  -16.8132  -39.6349   -7.8780 C   0  0  1  0  0  0  0  0  0  0  0  0
  -16.6897  -38.8685   -9.0633 O   0  0  0  0  0  0  0  0  0  0  0  0
  -17.8378  -40.7463   -8.1042 C   0  0  2  0  0  0  0  0  0  0  0  0
  -19.2243  -40.2719   -7.9939 C   0  0  0  0  0  0  0  0  0  0  0  0
  -19.6276  -39.4758   -6.7967 C   0  0  2  0  0  0  0  0  0  0  0  0
  -18.9916  -39.8226   -5.5215 C   0  0  0  0  0  0  0  0  0  0  0  0
  -21.1285  -39.5775   -6.7183 C   0  0  0  0  0  0  0  0  0  0  0  0
  -21.7595  -39.2595   -5.4208 C   0  0  0  0  0  0  0  0  0  0  0  0
  -22.3592  -40.5218   -4.8417 C   0  0  0  0  0  0  0  0  0  0  0  0
  -23.7944  -40.7332   -5.1166 C   0  0  0  0  0  0  0  0  0  0  0  0
  -24.2742  -40.7048   -6.5026 C   0  0  0  0  0  0  0  0  0  0  0  0
  -23.9587  -41.8269   -7.4056 C   0  0  0  0  0  0  0  0  0  0  0  0
  -23.4984  -43.1009   -6.8086 C   0  0  0  0  0  0  0  0  0  0  0  0
  -22.2652  -43.5816   -7.5860 C   0  0  0  0  0  0  0  0  0  0  0  0
  -21.4698  -44.5366   -6.7974 C   0  0  0  0  0  0  0  0  0  0  0  0
  -22.1569  -45.4836   -6.2600 O   0  0  0  0  0  0  0  0  0  0  0  0
  -20.0675  -44.4924   -6.5962 N   0  0  0  0  0  0  0  0  0  0  0  0
  -19.3389  -45.7428   -6.7018 C   0  0  0  0  0  0  0  0  0  0  0  0
  -19.3405  -43.2932   -6.2871 C   0  0  1  0  0  0  0  0  0  0  0  0
  -18.9437  -43.4199   -4.8037 C   0  0  0  0  0  0  0  0  0  0  0  0
  -18.1272  -43.1167   -7.1277 C   0  0  0  0  0  0  0  0  0  0  0  0
  -17.6827  -44.2271   -7.6128 O   0  0  0  0  0  0  0  0  0  0  0  0
  -17.4466  -41.9365   -7.4343 N   0  0  0  0  0  0  0  0  0  0  0  0
  -13.9702  -39.3614  -10.8350 C   0  0  0  0  0  0  0  0  0  0  0  0
  -13.9034  -37.9908  -10.8699 C   0  0  0  0  0  0  0  0  0  0  0  0
  -13.9028  -37.6129  -12.1869 C   0  0  0  0  0  0  0  0  0  0  0  0
  -13.8414  -36.2249  -12.7060 C   0  0  0  0  0  0  0  0  0  0  0  0
  -12.5523  -35.9307  -13.4399 C   0  0  0  0  0  0  0  0  0  0  0  0
  -12.3272  -36.9229  -14.5501 C   0  0  0  0  0  0  0  0  0  0  0  0
  -11.4135  -35.8843  -12.4478 C   0  0  0  0  0  0  0  0  0  0  0  0
  -12.7141  -34.5661  -14.0878 C   0  0  0  0  0  0  0  0  0  0  0  0
  -13.9667  -38.7134  -12.9063 O   0  0  0  0  0  0  0  0  0  0  0  0
  -14.0071  -39.7528  -12.1315 N   0  0  0  0  0  0  0  0  0  0  0  0
  2  1  1  6
  2  3  1  0
  3  4  1  0
  4  5  1  0
  5  6  1  6
  5  7  1  0
  7  8  1  1
  8  9  1  0
  9 10  1  1
  9 11  1  0
 11 12  1  0
 12 13  1  0
 13 14  1  0
 14 15  1  0
 15 16  1  0
 16 17  1  0
 17 18  1  0
 18 19  1  0
 19 20  2  0
 19 21  1  0
 21 22  1  0
 21 23  1  0
 23 24  1  1
 23 25  1  0
 25 26  2  0
 25 27  1  0
  2 28  1  0
 28 29  1  0
 29 30  2  0
 30 31  1  0
 31 32  1  0
 32 33  1  0
 32 34  1  0
 32 35  1  0
 30 36  1  0
 36 37  1  0
 27  7  1  0
 37 28  2  0
M  END
$$$$
