
     RDKit          3D

 37 38  0  0  0  0  0  0  0  0999 V2000
  -13.7628  -40.8241  -10.7581 C   0  0  0  0  0  0  0  0  0  0  0  0
  -14.1277  -39.5596  -10.0080 C   0  0  2  0  0  0  0  0  0  0  0  0
  -15.4321  -39.6268   -9.4189 N   0  0  0  0  0  0  0  0  0  0  0  0
  -15.4356  -39.9985   -8.0322 C   0  0  0  0  0  0  0  0  0  0  0  0
  -16.8365  -39.8643   -7.4652 C   0  0  1  0  0  0  0  0  0  0  0  0
  -17.3004  -38.6386   -8.0039 O   0  0  0  0  0  0  0  0  0  0  0  0
  -17.7341  -40.9995   -7.9570 C   0  0  2  0  0  0  0  0  0  0  0  0
  -19.0759  -40.5380   -8.3391 C   0  0  0  0  0  0  0  0  0  0  0  0
  -19.8493  -39.6841   -7.3892 C   0  0  2  0  0  0  0  0  0  0  0  0
  -19.6746  -39.9536   -5.9581 C   0  0  0  0  0  0  0  0  0  0  0  0
  -21.2916  -39.8010   -7.8075 C   0  0  0  0  0  0  0  0  0  0  0  0
  -22.3158  -39.4220   -6.8124 C   0  0  0  0  0  0  0  0  0  0  0  0
  -23.0807  -40.6591   -6.3965 C   0  0  0  0  0  0  0  0  0  0  0  0
  -24.3444  -40.9037   -7.1198 C   0  0  0  0  0  0  0  0  0  0  0  0
  -24.3369  -40.9560   -8.5858 C   0  0  0  0  0  0  0  0  0  0  0  0
  -23.7458  -42.1208   -9.2698 C   0  0  0  0  0  0  0  0  0  0  0  0
  -23.5167  -43.3548   -8.4849 C   0  0  0  0  0  0  0  0  0  0  0  0
  -22.0981  -43.8604   -8.7816 C   0  0  0  0  0  0  0  0  0  0  0  0
  -21.6148  -44.7612   -7.7225 C   0  0  0  0  0  0  0  0  0  0  0  0
  -22.4465  -45.6869   -7.3922 O   0  0  0  0  0  0  0  0  0  0  0  0
  -20.3585  -44.6880   -7.0704 N   0  0  0  0  0  0  0  0  0  0  0  0
  -19.6431  -45.9326   -6.8594 C   0  0  0  0  0  0  0  0  0  0  0  0
  -19.7688  -43.4645   -6.6040 C   0  0  1  0  0  0  0  0  0  0  0  0
  -19.8874  -43.5062   -5.0684 C   0  0  0  0  0  0  0  0  0  0  0  0
  -18.3443  -43.3176   -7.0030 C   0  0  0  0  0  0  0  0  0  0  0  0
  -17.7701  -44.4466   -7.2513 O   0  0  0  0  0  0  0  0  0  0  0  0
  -17.5939  -42.1468   -7.1308 N   0  0  0  0  0  0  0  0  0  0  0  0
  -14.0850  -38.4517  -11.0243 C   0  0  0  0  0  0  0  0  0  0  0  0
  -13.0442  -37.5943  -11.2810 C   0  0  0  0  0  0  0  0  0  0  0  0
  -13.4445  -36.7506  -12.2835 C   0  0  0  0  0  0  0  0  0  0  0  0
  -12.6447  -35.6579  -12.8885 C   0  0  0  0  0  0  0  0  0  0  0  0
  -11.8118  -36.1225  -14.0621 C   0  0  0  0  0  0  0  0  0  0  0  0
  -10.9399  -37.2877  -13.6750 C   0  0  0  0  0  0  0  0  0  0  0  0
  -11.0276  -34.9532  -14.6107 C   0  0  0  0  0  0  0  0  0  0  0  0
  -12.7801  -36.6229  -15.1206 C   0  0  0  0  0  0  0  0  0  0  0  0
  -14.6733  -37.0917  -12.6101 O   0  0  0  0  0  0  0  0  0  0  0  0
  -15.0691  -38.0895  -11.8821 N   0  0  0  0  0  0  0  0  0  0  0  0
  2  1  1  6
  2  3  1  0
  3  4  1  0
  4  5  1  0
  5  6  1  6
  5  7  1  0
  7  8  1  1
  8  9  1  0
  9 10  1  1
  9 11  1  0
 11 12  1  0
 12 13  1  0
 13 14  1  0
 14 15  1  0
 15 16  1  0
 16 17  1  0
 17 18  1  0
 18 19  1  0
 19 20  2  0
 19 21  1  0
 21 22  1  0
 21 23  1  0
 23 24  1  1
 23 25  1  0
 25 26  2  0
 25 27  1  0
  2 28  1  0
 28 29  1  0
 29 30  2  0
 30 31  1  0
 31 32  1  0
 32 33  1  0
 32 34  1  0
 32 35  1  0
 30 36  1  0
 36 37  1  0
 27  7  1  0
 37 28  2  0
M  END
$$$$
