
     RDKit          3D

 37 38  0  0  0  0  0  0  0  0999 V2000
  -11.9293  -38.3519   -8.4684 C   0  0  0  0  0  0  0  0  0  0  0  0
  -13.3621  -37.9304   -8.7220 C   0  0  2  0  0  0  0  0  0  0  0  0
  -14.3118  -38.8470   -8.1644 N   0  0  0  0  0  0  0  0  0  0  0  0
  -15.6653  -38.6267   -8.5893 C   0  0  0  0  0  0  0  0  0  0  0  0
  -16.6277  -39.1703   -7.5500 C   0  0  1  0  0  0  0  0  0  0  0  0
  -17.3979  -38.0394   -7.1819 O   0  0  0  0  0  0  0  0  0  0  0  0
  -17.5485  -40.2267   -8.1604 C   0  0  2  0  0  0  0  0  0  0  0  0
  -18.9496  -39.7886   -8.2276 C   0  0  0  0  0  0  0  0  0  0  0  0
  -19.5964  -39.2293   -7.0035 C   0  0  2  0  0  0  0  0  0  0  0  0
  -19.1909  -39.8019   -5.7155 C   0  0  0  0  0  0  0  0  0  0  0  0
  -21.0810  -39.3523   -7.2267 C   0  0  0  0  0  0  0  0  0  0  0  0
  -21.9507  -39.2827   -6.0344 C   0  0  0  0  0  0  0  0  0  0  0  0
  -22.5953  -40.6335   -5.8148 C   0  0  0  0  0  0  0  0  0  0  0  0
  -23.9464  -40.7987   -6.3867 C   0  0  0  0  0  0  0  0  0  0  0  0
  -24.1657  -40.5177   -7.8097 C   0  0  0  0  0  0  0  0  0  0  0  0
  -23.6459  -41.4522   -8.8250 C   0  0  0  0  0  0  0  0  0  0  0  0
  -23.2518  -42.8118   -8.3920 C   0  0  0  0  0  0  0  0  0  0  0  0
  -21.8792  -43.1339   -8.9988 C   0  0  0  0  0  0  0  0  0  0  0  0
  -21.2037  -44.2135   -8.2606 C   0  0  0  0  0  0  0  0  0  0  0  0
  -21.9391  -45.2473   -8.0407 O   0  0  0  0  0  0  0  0  0  0  0  0
  -19.8647  -44.1992   -7.7961 N   0  0  0  0  0  0  0  0  0  0  0  0
  -19.0797  -45.4045   -7.9872 C   0  0  0  0  0  0  0  0  0  0  0  0
  -19.2550  -43.0736   -7.1455 C   0  0  1  0  0  0  0  0  0  0  0  0
  -19.1312  -43.4695   -5.6617 C   0  0  0  0  0  0  0  0  0  0  0  0
  -17.9165  -42.7382   -7.6987 C   0  0  0  0  0  0  0  0  0  0  0  0
  -17.3468  -43.7375   -8.2840 O   0  0  0  0  0  0  0  0  0  0  0  0
  -17.2390  -41.5178   -7.6547 N   0  0  0  0  0  0  0  0  0  0  0  0
  -13.5183  -37.8829  -10.2171 C   0  0  0  0  0  0  0  0  0  0  0  0
  -13.5671  -36.7678  -11.0161 C   0  0  0  0  0  0  0  0  0  0  0  0
  -13.7164  -37.1951  -12.3093 C   0  0  0  0  0  0  0  0  0  0  0  0
  -13.8158  -36.3377  -13.5155 C   0  0  0  0  0  0  0  0  0  0  0  0
  -12.4930  -36.1781  -14.2310 C   0  0  0  0  0  0  0  0  0  0  0  0
  -12.0155  -37.4969  -14.7790 C   0  0  0  0  0  0  0  0  0  0  0  0
  -11.4969  -35.5294  -13.2981 C   0  0  0  0  0  0  0  0  0  0  0  0
  -12.7409  -35.2651  -15.4198 C   0  0  0  0  0  0  0  0  0  0  0  0
  -13.7551  -38.5106  -12.2813 O   0  0  0  0  0  0  0  0  0  0  0  0
  -13.6402  -38.9356  -11.0612 N   0  0  0  0  0  0  0  0  0  0  0  0
  2  1  1  6
  2  3  1  0
  3  4  1  0
  4  5  1  0
  5  6  1  6
  5  7  1  0
  7  8  1  1
  8  9  1  0
  9 10  1  1
  9 11  1  0
 11 12  1  0
 12 13  1  0
 13 14  1  0
 14 15  1  0
 15 16  1  0
 16 17  1  0
 17 18  1  0
 18 19  1  0
 19 20  2  0
 19 21  1  0
 21 22  1  0
 21 23  1  0
 23 24  1  1
 23 25  1  0
 25 26  2  0
 25 27  1  0
  2 28  1  0
 28 29  1  0
 29 30  2  0
 30 31  1  0
 31 32  1  0
 32 33  1  0
 32 34  1  0
 32 35  1  0
 30 36  1  0
 36 37  1  0
 27  7  1  0
 37 28  2  0
M  END
$$$$
