
     RDKit          3D

 37 38  0  0  0  0  0  0  0  0999 V2000
  -19.2866  -36.5909   -6.0226 C   0  0  0  0  0  0  0  0  0  0  0  0
  -18.4856  -37.8628   -6.2113 C   0  0  2  0  0  0  0  0  0  0  0  0
  -17.1142  -37.6057   -6.5372 N   0  0  0  0  0  0  0  0  0  0  0  0
  -16.2088  -38.6500   -6.1489 C   0  0  0  0  0  0  0  0  0  0  0  0
  -15.5040  -39.2040   -7.3729 C   0  0  1  0  0  0  0  0  0  0  0  0
  -14.1546  -38.8132   -7.1886 O   0  0  0  0  0  0  0  0  0  0  0  0
  -15.5841  -40.7301   -7.4032 C   0  0  2  0  0  0  0  0  0  0  0  0
  -14.6578  -41.3285   -8.3745 C   0  0  0  0  0  0  0  0  0  0  0  0
  -14.6422  -40.8150   -9.7765 C   0  0  2  0  0  0  0  0  0  0  0  0
  -15.9231  -40.3731  -10.3379 C   0  0  0  0  0  0  0  0  0  0  0  0
  -14.0129  -41.9016  -10.6084 C   0  0  0  0  0  0  0  0  0  0  0  0
  -14.2522  -41.8599  -12.0658 C   0  0  0  0  0  0  0  0  0  0  0  0
  -15.1086  -43.0432  -12.4589 C   0  0  0  0  0  0  0  0  0  0  0  0
  -14.3766  -44.2303  -12.9436 C   0  0  0  0  0  0  0  0  0  0  0  0
  -13.3139  -44.8095  -12.1147 C   0  0  0  0  0  0  0  0  0  0  0  0
  -13.6680  -45.5544  -10.8925 C   0  0  0  0  0  0  0  0  0  0  0  0
  -15.0656  -46.0145  -10.7304 C   0  0  0  0  0  0  0  0  0  0  0  0
  -15.5316  -45.6556   -9.3126 C   0  0  0  0  0  0  0  0  0  0  0  0
  -17.0003  -45.6249   -9.2199 C   0  0  0  0  0  0  0  0  0  0  0  0
  -17.5858  -46.6555   -9.7227 O   0  0  0  0  0  0  0  0  0  0  0  0
  -17.7811  -44.5918   -8.6437 N   0  0  0  0  0  0  0  0  0  0  0  0
  -18.8865  -44.9878   -7.7912 C   0  0  0  0  0  0  0  0  0  0  0  0
  -17.5457  -43.1925   -8.8644 C   0  0  1  0  0  0  0  0  0  0  0  0
  -18.6877  -42.7202   -9.7846 C   0  0  0  0  0  0  0  0  0  0  0  0
  -17.5408  -42.3992   -7.6072 C   0  0  0  0  0  0  0  0  0  0  0  0
  -18.1945  -42.9660   -6.6495 O   0  0  0  0  0  0  0  0  0  0  0  0
  -16.9361  -41.1648   -7.3610 N   0  0  0  0  0  0  0  0  0  0  0  0
  -19.1473  -38.6015   -7.3420 C   0  0  0  0  0  0  0  0  0  0  0  0
  -20.3779  -39.2097   -7.3345 C   0  0  0  0  0  0  0  0  0  0  0  0
  -20.5735  -39.7564   -8.5756 C   0  0  0  0  0  0  0  0  0  0  0  0
  -21.7668  -40.5122   -9.0280 C   0  0  0  0  0  0  0  0  0  0  0  0
  -22.9354  -39.6138   -9.3660 C   0  0  0  0  0  0  0  0  0  0  0  0
  -24.1474  -40.4258   -9.7395 C   0  0  0  0  0  0  0  0  0  0  0  0
  -22.5200  -38.6403  -10.4444 C   0  0  0  0  0  0  0  0  0  0  0  0
  -23.2846  -38.8483   -8.1010 C   0  0  0  0  0  0  0  0  0  0  0  0
  -19.5033  -39.4849   -9.2923 O   0  0  0  0  0  0  0  0  0  0  0  0
  -18.6523  -38.8067   -8.5864 N   0  0  0  0  0  0  0  0  0  0  0  0
  2  1  1  6
  2  3  1  0
  3  4  1  0
  4  5  1  0
  5  6  1  1
  5  7  1  0
  7  8  1  6
  8  9  1  0
  9 10  1  6
  9 11  1  0
 11 12  1  0
 12 13  1  0
 13 14  1  0
 14 15  1  0
 15 16  1  0
 16 17  1  0
 17 18  1  0
 18 19  1  0
 19 20  2  0
 19 21  1  0
 21 22  1  0
 21 23  1  0
 23 24  1  6
 23 25  1  0
 25 26  2  0
 25 27  1  0
  2 28  1  0
 28 29  1  0
 29 30  2  0
 30 31  1  0
 31 32  1  0
 32 33  1  0
 32 34  1  0
 32 35  1  0
 30 36  1  0
 36 37  1  0
 27  7  1  0
 37 28  2  0
M  END
$$$$
