
     RDKit          3D

 37 38  0  0  0  0  0  0  0  0999 V2000
  -14.3518  -41.3396  -10.8461 C   0  0  0  0  0  0  0  0  0  0  0  0
  -14.3825  -40.1554   -9.9020 C   0  0  2  0  0  0  0  0  0  0  0  0
  -15.5964  -40.0879   -9.1438 N   0  0  0  0  0  0  0  0  0  0  0  0
  -15.4561  -39.4649   -7.8580 C   0  0  0  0  0  0  0  0  0  0  0  0
  -16.8232  -39.2529   -7.2350 C   0  0  1  0  0  0  0  0  0  0  0  0
  -17.1937  -37.9570   -7.6720 O   0  0  0  0  0  0  0  0  0  0  0  0
  -17.8300  -40.2699   -7.7722 C   0  0  2  0  0  0  0  0  0  0  0  0
  -19.1953  -39.7317   -7.8488 C   0  0  0  0  0  0  0  0  0  0  0  0
  -19.7790  -39.0560   -6.6520 C   0  0  2  0  0  0  0  0  0  0  0  0
  -19.3970  -39.5829   -5.3376 C   0  0  0  0  0  0  0  0  0  0  0  0
  -21.2719  -39.0790   -6.8507 C   0  0  0  0  0  0  0  0  0  0  0  0
  -22.1150  -38.8757   -5.6545 C   0  0  0  0  0  0  0  0  0  0  0  0
  -22.8553  -40.1591   -5.3492 C   0  0  0  0  0  0  0  0  0  0  0  0
  -24.2239  -40.2541   -5.8950 C   0  0  0  0  0  0  0  0  0  0  0  0
  -24.4439  -40.0394   -7.3294 C   0  0  0  0  0  0  0  0  0  0  0  0
  -24.0116  -41.0670   -8.2943 C   0  0  0  0  0  0  0  0  0  0  0  0
  -23.7136  -42.4255   -7.7874 C   0  0  0  0  0  0  0  0  0  0  0  0
  -22.3786  -42.8847   -8.3901 C   0  0  0  0  0  0  0  0  0  0  0  0
  -21.7743  -43.9682   -7.5980 C   0  0  0  0  0  0  0  0  0  0  0  0
  -22.5813  -44.9291   -7.3099 O   0  0  0  0  0  0  0  0  0  0  0  0
  -20.4307  -44.0286   -7.1506 N   0  0  0  0  0  0  0  0  0  0  0  0
  -19.7412  -45.2987   -7.2801 C   0  0  0  0  0  0  0  0  0  0  0  0
  -19.7284  -42.9169   -6.5737 C   0  0  1  0  0  0  0  0  0  0  0  0
  -19.6111  -43.2354   -5.0708 C   0  0  0  0  0  0  0  0  0  0  0  0
  -18.3775  -42.7158   -7.1608 C   0  0  0  0  0  0  0  0  0  0  0  0
  -17.8934  -43.7872   -7.6934 O   0  0  0  0  0  0  0  0  0  0  0  0
  -17.6099  -41.5497   -7.1958 N   0  0  0  0  0  0  0  0  0  0  0  0
  -14.2565  -38.9338  -10.7702 C   0  0  0  0  0  0  0  0  0  0  0  0
  -13.3660  -37.8985  -10.6300 C   0  0  0  0  0  0  0  0  0  0  0  0
  -13.6104  -37.0067  -11.6411 C   0  0  0  0  0  0  0  0  0  0  0  0
  -12.8896  -35.7341  -11.8877 C   0  0  0  0  0  0  0  0  0  0  0  0
  -11.8560  -35.8499  -12.9855 C   0  0  0  0  0  0  0  0  0  0  0  0
  -12.3636  -35.2454  -14.2679 C   0  0  0  0  0  0  0  0  0  0  0  0
  -11.4472  -37.2970  -13.1345 C   0  0  0  0  0  0  0  0  0  0  0  0
  -10.6549  -35.0276  -12.5502 C   0  0  0  0  0  0  0  0  0  0  0  0
  -14.6056  -37.4911  -12.3536 O   0  0  0  0  0  0  0  0  0  0  0  0
  -15.0004  -38.6233  -11.8591 N   0  0  0  0  0  0  0  0  0  0  0  0
  2  1  1  6
  2  3  1  0
  3  4  1  0
  4  5  1  0
  5  6  1  6
  5  7  1  0
  7  8  1  1
  8  9  1  0
  9 10  1  1
  9 11  1  0
 11 12  1  0
 12 13  1  0
 13 14  1  0
 14 15  1  0
 15 16  1  0
 16 17  1  0
 17 18  1  0
 18 19  1  0
 19 20  2  0
 19 21  1  0
 21 22  1  0
 21 23  1  0
 23 24  1  1
 23 25  1  0
 25 26  2  0
 25 27  1  0
  2 28  1  0
 28 29  1  0
 29 30  2  0
 30 31  1  0
 31 32  1  0
 32 33  1  0
 32 34  1  0
 32 35  1  0
 30 36  1  0
 36 37  1  0
 27  7  1  0
 37 28  2  0
M  END
$$$$
