
     RDKit          3D

 37 38  0  0  0  0  0  0  0  0999 V2000
  -12.4541  -38.1398   -9.9301 C   0  0  0  0  0  0  0  0  0  0  0  0
  -13.9463  -38.1139  -10.1900 C   0  0  2  0  0  0  0  0  0  0  0  0
  -14.7135  -38.4286   -9.0216 N   0  0  0  0  0  0  0  0  0  0  0  0
  -16.0284  -37.8524   -9.0053 C   0  0  0  0  0  0  0  0  0  0  0  0
  -16.8378  -38.4450   -7.8670 C   0  0  1  0  0  0  0  0  0  0  0  0
  -17.7509  -37.4145   -7.5326 O   0  0  0  0  0  0  0  0  0  0  0  0
  -17.6178  -39.6733   -8.3355 C   0  0  2  0  0  0  0  0  0  0  0  0
  -19.0730  -39.4937   -8.2369 C   0  0  0  0  0  0  0  0  0  0  0  0
  -19.6605  -39.0055   -6.9539 C   0  0  2  0  0  0  0  0  0  0  0  0
  -19.0079  -39.4408   -5.7146 C   0  0  0  0  0  0  0  0  0  0  0  0
  -21.1140  -39.3991   -6.9878 C   0  0  0  0  0  0  0  0  0  0  0  0
  -21.8342  -39.4332   -5.6982 C   0  0  0  0  0  0  0  0  0  0  0  0
  -22.1926  -40.8660   -5.3714 C   0  0  0  0  0  0  0  0  0  0  0  0
  -23.5497  -41.2926   -5.7669 C   0  0  0  0  0  0  0  0  0  0  0  0
  -23.9835  -41.1167   -7.1572 C   0  0  0  0  0  0  0  0  0  0  0  0
  -23.4273  -41.9873   -8.2092 C   0  0  0  0  0  0  0  0  0  0  0  0
  -22.7449  -43.2356   -7.8000 C   0  0  0  0  0  0  0  0  0  0  0  0
  -21.4185  -43.3353   -8.5661 C   0  0  0  0  0  0  0  0  0  0  0  0
  -20.4759  -44.2452   -7.8951 C   0  0  0  0  0  0  0  0  0  0  0  0
  -20.9805  -45.3824   -7.5635 O   0  0  0  0  0  0  0  0  0  0  0  0
  -19.1161  -43.9738   -7.6014 N   0  0  0  0  0  0  0  0  0  0  0  0
  -18.1541  -45.0281   -7.8632 C   0  0  0  0  0  0  0  0  0  0  0  0
  -18.6476  -42.7309   -7.0559 C   0  0  1  0  0  0  0  0  0  0  0  0
  -18.2788  -43.0341   -5.5910 C   0  0  0  0  0  0  0  0  0  0  0  0
  -17.4673  -42.1879   -7.7784 C   0  0  0  0  0  0  0  0  0  0  0  0
  -16.7996  -43.0948   -8.4089 O   0  0  0  0  0  0  0  0  0  0  0  0
  -17.0218  -40.8661   -7.8451 N   0  0  0  0  0  0  0  0  0  0  0  0
  -14.1960  -39.1455  -11.2556 C   0  0  0  0  0  0  0  0  0  0  0  0
  -15.1100  -40.1693  -11.2282 C   0  0  0  0  0  0  0  0  0  0  0  0
  -14.9911  -40.8580  -12.4067 C   0  0  0  0  0  0  0  0  0  0  0  0
  -15.7796  -42.0450  -12.8178 C   0  0  0  0  0  0  0  0  0  0  0  0
  -14.9351  -43.2929  -12.9468 C   0  0  0  0  0  0  0  0  0  0  0  0
  -13.4959  -42.9425  -13.2181 C   0  0  0  0  0  0  0  0  0  0  0  0
  -15.5342  -44.1931  -14.0022 C   0  0  0  0  0  0  0  0  0  0  0  0
  -14.9764  -43.9955  -11.6003 C   0  0  0  0  0  0  0  0  0  0  0  0
  -14.0451  -40.2684  -13.1068 O   0  0  0  0  0  0  0  0  0  0  0  0
  -13.5644  -39.2593  -12.4488 N   0  0  0  0  0  0  0  0  0  0  0  0
  2  1  1  1
  2  3  1  0
  3  4  1  0
  4  5  1  0
  5  6  1  6
  5  7  1  0
  7  8  1  1
  8  9  1  0
  9 10  1  1
  9 11  1  0
 11 12  1  0
 12 13  1  0
 13 14  1  0
 14 15  1  0
 15 16  1  0
 16 17  1  0
 17 18  1  0
 18 19  1  0
 19 20  2  0
 19 21  1  0
 21 22  1  0
 21 23  1  0
 23 24  1  1
 23 25  1  0
 25 26  2  0
 25 27  1  0
  2 28  1  0
 28 29  1  0
 29 30  2  0
 30 31  1  0
 31 32  1  0
 32 33  1  0
 32 34  1  0
 32 35  1  0
 30 36  1  0
 36 37  1  0
 27  7  1  0
 37 28  2  0
M  END
$$$$
