
     RDKit          3D

 37 38  0  0  0  0  0  0  0  0999 V2000
  -14.1090  -40.0150   -9.6657 C   0  0  0  0  0  0  0  0  0  0  0  0
  -15.0844  -38.8828   -9.9138 C   0  0  2  0  0  0  0  0  0  0  0  0
  -16.3994  -39.3508  -10.2371 N   0  0  0  0  0  0  0  0  0  0  0  0
  -16.9206  -40.3271   -9.3226 C   0  0  0  0  0  0  0  0  0  0  0  0
  -18.1422  -40.9969   -9.9232 C   0  0  1  0  0  0  0  0  0  0  0  0
  -17.5994  -41.8839  -10.8856 O   0  0  0  0  0  0  0  0  0  0  0  0
  -18.8955  -41.8043   -8.8662 C   0  0  2  0  0  0  0  0  0  0  0  0
  -20.3492  -41.5965   -8.9220 C   0  0  0  0  0  0  0  0  0  0  0  0
  -20.8846  -40.2028   -8.9413 C   0  0  2  0  0  0  0  0  0  0  0  0
  -20.1472  -39.1955   -8.1714 C   0  0  0  0  0  0  0  0  0  0  0  0
  -22.3204  -40.3046   -8.4972 C   0  0  0  0  0  0  0  0  0  0  0  0
  -22.9662  -39.0672   -8.0128 C   0  0  0  0  0  0  0  0  0  0  0  0
  -23.2465  -39.2043   -6.5326 C   0  0  0  0  0  0  0  0  0  0  0  0
  -24.6046  -39.6627   -6.1780 C   0  0  0  0  0  0  0  0  0  0  0  0
  -25.1214  -40.9047   -6.7630 C   0  0  0  0  0  0  0  0  0  0  0  0
  -24.5885  -42.2015   -6.3064 C   0  0  0  0  0  0  0  0  0  0  0  0
  -23.8336  -42.2419   -5.0337 C   0  0  0  0  0  0  0  0  0  0  0  0
  -22.5485  -43.0506   -5.2590 C   0  0  0  0  0  0  0  0  0  0  0  0
  -21.5335  -42.7447   -4.2379 C   0  0  0  0  0  0  0  0  0  0  0  0
  -21.9715  -42.7766   -3.0275 O   0  0  0  0  0  0  0  0  0  0  0  0
  -20.1719  -42.4328   -4.4783 N   0  0  0  0  0  0  0  0  0  0  0  0
  -19.1831  -43.0567   -3.6190 C   0  0  0  0  0  0  0  0  0  0  0  0
  -19.7258  -41.5356   -5.5069 C   0  0  1  0  0  0  0  0  0  0  0  0
  -19.2645  -40.2612   -4.7739 C   0  0  0  0  0  0  0  0  0  0  0  0
  -18.6106  -42.0908   -6.3181 C   0  0  0  0  0  0  0  0  0  0  0  0
  -17.9418  -43.0048   -5.6990 O   0  0  0  0  0  0  0  0  0  0  0  0
  -18.2244  -41.7467   -7.6152 N   0  0  0  0  0  0  0  0  0  0  0  0
  -14.5233  -38.1027  -11.0708 C   0  0  0  0  0  0  0  0  0  0  0  0
  -14.1883  -36.7717  -11.0958 C   0  0  0  0  0  0  0  0  0  0  0  0
  -13.7174  -36.4900  -12.3513 C   0  0  0  0  0  0  0  0  0  0  0  0
  -13.2378  -35.1738  -12.8384 C   0  0  0  0  0  0  0  0  0  0  0  0
  -11.7405  -35.0097  -12.7035 C   0  0  0  0  0  0  0  0  0  0  0  0
  -11.2445  -35.6312  -11.4247 C   0  0  0  0  0  0  0  0  0  0  0  0
  -11.3865  -33.5459  -12.8263 C   0  0  0  0  0  0  0  0  0  0  0  0
  -11.1065  -35.7808  -13.8489 C   0  0  0  0  0  0  0  0  0  0  0  0
  -13.7702  -37.6074  -13.0452 O   0  0  0  0  0  0  0  0  0  0  0  0
  -14.2409  -38.5679  -12.3115 N   0  0  0  0  0  0  0  0  0  0  0  0
  2  1  1  6
  2  3  1  0
  3  4  1  0
  4  5  1  0
  5  6  1  6
  5  7  1  0
  7  8  1  1
  8  9  1  0
  9 10  1  1
  9 11  1  0
 11 12  1  0
 12 13  1  0
 13 14  1  0
 14 15  1  0
 15 16  1  0
 16 17  1  0
 17 18  1  0
 18 19  1  0
 19 20  2  0
 19 21  1  0
 21 22  1  0
 21 23  1  0
 23 24  1  1
 23 25  1  0
 25 26  2  0
 25 27  1  0
  2 28  1  0
 28 29  1  0
 29 30  2  0
 30 31  1  0
 31 32  1  0
 32 33  1  0
 32 34  1  0
 32 35  1  0
 30 36  1  0
 36 37  1  0
 27  7  1  0
 37 28  2  0
M  END
$$$$
