
     RDKit          3D

 37 38  0  0  0  0  0  0  0  0999 V2000
  -13.0971  -41.9515  -10.1577 C   0  0  0  0  0  0  0  0  0  0  0  0
  -13.4585  -40.6509   -9.4701 C   0  0  2  0  0  0  0  0  0  0  0  0
  -14.5966  -40.7816   -8.6096 N   0  0  0  0  0  0  0  0  0  0  0  0
  -15.1162  -39.5346   -8.1236 C   0  0  0  0  0  0  0  0  0  0  0  0
  -16.2316  -39.7929   -7.1280 C   0  0  1  0  0  0  0  0  0  0  0  0
  -16.8361  -38.5220   -6.9643 O   0  0  0  0  0  0  0  0  0  0  0  0
  -17.2600  -40.7667   -7.7031 C   0  0  2  0  0  0  0  0  0  0  0  0
  -18.5876  -40.1586   -7.8686 C   0  0  0  0  0  0  0  0  0  0  0  0
  -19.2007  -39.4267   -6.7206 C   0  0  2  0  0  0  0  0  0  0  0  0
  -18.9230  -39.9439   -5.3766 C   0  0  0  0  0  0  0  0  0  0  0  0
  -20.6790  -39.3747   -7.0048 C   0  0  0  0  0  0  0  0  0  0  0  0
  -21.5763  -39.1007   -5.8634 C   0  0  0  0  0  0  0  0  0  0  0  0
  -22.4011  -40.3359   -5.5770 C   0  0  0  0  0  0  0  0  0  0  0  0
  -23.7398  -40.3703   -6.1991 C   0  0  0  0  0  0  0  0  0  0  0  0
  -23.8662  -40.1758   -7.6476 C   0  0  0  0  0  0  0  0  0  0  0  0
  -23.4363  -41.2460   -8.5663 C   0  0  0  0  0  0  0  0  0  0  0  0
  -23.2416  -42.6069   -8.0172 C   0  0  0  0  0  0  0  0  0  0  0  0
  -21.9014  -43.1494   -8.5330 C   0  0  0  0  0  0  0  0  0  0  0  0
  -21.4026  -44.2457   -7.6869 C   0  0  0  0  0  0  0  0  0  0  0  0
  -22.2757  -45.1559   -7.4276 O   0  0  0  0  0  0  0  0  0  0  0  0
  -20.0919  -44.3675   -7.1614 N   0  0  0  0  0  0  0  0  0  0  0  0
  -19.4660  -45.6749   -7.2267 C   0  0  0  0  0  0  0  0  0  0  0  0
  -19.3640  -43.2821   -6.5662 C   0  0  1  0  0  0  0  0  0  0  0  0
  -19.3496  -43.5732   -5.0533 C   0  0  0  0  0  0  0  0  0  0  0  0
  -17.9731  -43.1660   -7.0779 C   0  0  0  0  0  0  0  0  0  0  0  0
  -17.5185  -44.2731   -7.5613 O   0  0  0  0  0  0  0  0  0  0  0  0
  -17.1427  -42.0433   -7.0907 N   0  0  0  0  0  0  0  0  0  0  0  0
  -13.7636  -39.6740  -10.5722 C   0  0  0  0  0  0  0  0  0  0  0  0
  -13.0691  -38.5341  -10.8929 C   0  0  0  0  0  0  0  0  0  0  0  0
  -13.7011  -37.9551  -11.9618 C   0  0  0  0  0  0  0  0  0  0  0  0
  -13.3023  -36.7029  -12.6496 C   0  0  0  0  0  0  0  0  0  0  0  0
  -14.1975  -35.5342  -12.3033 C   0  0  0  0  0  0  0  0  0  0  0  0
  -14.0898  -35.1890  -10.8415 C   0  0  0  0  0  0  0  0  0  0  0  0
  -15.6117  -35.8445  -12.7356 C   0  0  0  0  0  0  0  0  0  0  0  0
  -13.6819  -34.3365  -13.0831 C   0  0  0  0  0  0  0  0  0  0  0  0
  -14.7296  -38.7188  -12.2648 O   0  0  0  0  0  0  0  0  0  0  0  0
  -14.7848  -39.7347  -11.4604 N   0  0  0  0  0  0  0  0  0  0  0  0
  2  1  1  6
  2  3  1  0
  3  4  1  0
  4  5  1  0
  5  6  1  6
  5  7  1  0
  7  8  1  1
  8  9  1  0
  9 10  1  1
  9 11  1  0
 11 12  1  0
 12 13  1  0
 13 14  1  0
 14 15  1  0
 15 16  1  0
 16 17  1  0
 17 18  1  0
 18 19  1  0
 19 20  2  0
 19 21  1  0
 21 22  1  0
 21 23  1  0
 23 24  1  1
 23 25  1  0
 25 26  2  0
 25 27  1  0
  2 28  1  0
 28 29  1  0
 29 30  2  0
 30 31  1  0
 31 32  1  0
 32 33  1  0
 32 34  1  0
 32 35  1  0
 30 36  1  0
 36 37  1  0
 27  7  1  0
 37 28  2  0
M  END
$$$$
