
     RDKit          3D

 37 38  0  0  0  0  0  0  0  0999 V2000
  -13.5278  -41.7439   -9.8495 C   0  0  0  0  0  0  0  0  0  0  0  0
  -13.5484  -40.3329   -9.2984 C   0  0  2  0  0  0  0  0  0  0  0  0
  -14.8788  -39.8407   -9.0968 N   0  0  0  0  0  0  0  0  0  0  0  0
  -15.2389  -39.6583   -7.7190 C   0  0  0  0  0  0  0  0  0  0  0  0
  -16.7057  -39.2854   -7.6136 C   0  0  1  0  0  0  0  0  0  0  0  0
  -16.8550  -38.2407   -8.5591 O   0  0  0  0  0  0  0  0  0  0  0  0
  -17.5965  -40.4594   -8.0192 C   0  0  2  0  0  0  0  0  0  0  0  0
  -18.9693  -40.0460   -8.3419 C   0  0  0  0  0  0  0  0  0  0  0  0
  -19.7140  -39.1814   -7.3788 C   0  0  2  0  0  0  0  0  0  0  0  0
  -19.4550  -39.3984   -5.9516 C   0  0  0  0  0  0  0  0  0  0  0  0
  -21.1729  -39.3498   -7.7138 C   0  0  0  0  0  0  0  0  0  0  0  0
  -22.1521  -38.9647   -6.6766 C   0  0  0  0  0  0  0  0  0  0  0  0
  -22.8588  -40.2067   -6.1803 C   0  0  0  0  0  0  0  0  0  0  0  0
  -24.1523  -40.5081   -6.8253 C   0  0  0  0  0  0  0  0  0  0  0  0
  -24.2222  -40.6091   -8.2871 C   0  0  0  0  0  0  0  0  0  0  0  0
  -23.6366  -41.7802   -8.9650 C   0  0  0  0  0  0  0  0  0  0  0  0
  -23.3313  -42.9809   -8.1548 C   0  0  0  0  0  0  0  0  0  0  0  0
  -21.9172  -43.4591   -8.5124 C   0  0  0  0  0  0  0  0  0  0  0  0
  -21.3527  -44.3112   -7.4532 C   0  0  0  0  0  0  0  0  0  0  0  0
  -22.1394  -45.2467   -7.0485 O   0  0  0  0  0  0  0  0  0  0  0  0
  -20.0657  -44.1835   -6.8733 N   0  0  0  0  0  0  0  0  0  0  0  0
  -19.3056  -45.4013   -6.6622 C   0  0  0  0  0  0  0  0  0  0  0  0
  -19.4860  -42.9302   -6.4792 C   0  0  1  0  0  0  0  0  0  0  0  0
  -19.5207  -42.9237   -4.9388 C   0  0  0  0  0  0  0  0  0  0  0  0
  -18.0897  -42.7596   -6.9599 C   0  0  0  0  0  0  0  0  0  0  0  0
  -17.4985  -43.8808   -7.2031 O   0  0  0  0  0  0  0  0  0  0  0  0
  -17.3802  -41.5745   -7.1658 N   0  0  0  0  0  0  0  0  0  0  0  0
  -12.8405  -39.4830  -10.3175 C   0  0  0  0  0  0  0  0  0  0  0  0
  -13.3899  -38.8574  -11.4089 C   0  0  0  0  0  0  0  0  0  0  0  0
  -12.3791  -38.1953  -12.0549 C   0  0  0  0  0  0  0  0  0  0  0  0
  -12.5055  -37.3804  -13.2877 C   0  0  0  0  0  0  0  0  0  0  0  0
  -11.9888  -35.9699  -13.1126 C   0  0  0  0  0  0  0  0  0  0  0  0
  -10.5374  -35.9748  -12.7113 C   0  0  0  0  0  0  0  0  0  0  0  0
  -12.8716  -35.2340  -12.1317 C   0  0  0  0  0  0  0  0  0  0  0  0
  -12.0729  -35.2966  -14.4720 C   0  0  0  0  0  0  0  0  0  0  0  0
  -11.2735  -38.4178  -11.3760 O   0  0  0  0  0  0  0  0  0  0  0  0
  -11.5222  -39.1724  -10.3507 N   0  0  0  0  0  0  0  0  0  0  0  0
  2  1  1  6
  2  3  1  0
  3  4  1  0
  4  5  1  0
  5  6  1  6
  5  7  1  0
  7  8  1  1
  8  9  1  0
  9 10  1  1
  9 11  1  0
 11 12  1  0
 12 13  1  0
 13 14  1  0
 14 15  1  0
 15 16  1  0
 16 17  1  0
 17 18  1  0
 18 19  1  0
 19 20  2  0
 19 21  1  0
 21 22  1  0
 21 23  1  0
 23 24  1  1
 23 25  1  0
 25 26  2  0
 25 27  1  0
  2 28  1  0
 28 29  1  0
 29 30  2  0
 30 31  1  0
 31 32  1  0
 32 33  1  0
 32 34  1  0
 32 35  1  0
 30 36  1  0
 36 37  1  0
 27  7  1  0
 37 28  2  0
M  END
$$$$
