
     RDKit          3D

 37 38  0  0  0  0  0  0  0  0999 V2000
  -14.7721  -37.8702   -9.1787 C   0  0  0  0  0  0  0  0  0  0  0  0
  -16.1169  -37.7292   -8.4957 C   0  0  2  0  0  0  0  0  0  0  0  0
  -16.5467  -38.9451   -7.8713 N   0  0  0  0  0  0  0  0  0  0  0  0
  -15.4874  -39.7106   -7.2770 C   0  0  0  0  0  0  0  0  0  0  0  0
  -15.5691  -41.1526   -7.7415 C   0  0  1  0  0  0  0  0  0  0  0  0
  -14.2895  -41.6772   -7.4333 O   0  0  0  0  0  0  0  0  0  0  0  0
  -16.6289  -41.9200   -6.9514 C   0  0  2  0  0  0  0  0  0  0  0  0
  -16.7508  -43.3213   -7.3769 C   0  0  0  0  0  0  0  0  0  0  0  0
  -16.9101  -43.6293   -8.8293 C   0  0  2  0  0  0  0  0  0  0  0  0
  -17.6783  -42.6722   -9.6325 C   0  0  0  0  0  0  0  0  0  0  0  0
  -17.4985  -45.0142   -8.8968 C   0  0  0  0  0  0  0  0  0  0  0  0
  -18.1553  -45.4075  -10.1604 C   0  0  0  0  0  0  0  0  0  0  0  0
  -19.6400  -45.5640   -9.9165 C   0  0  0  0  0  0  0  0  0  0  0  0
  -20.1005  -46.9375   -9.6308 C   0  0  0  0  0  0  0  0  0  0  0  0
  -19.4711  -47.6972   -8.5452 C   0  0  0  0  0  0  0  0  0  0  0  0
  -19.7534  -47.3349   -7.1440 C   0  0  0  0  0  0  0  0  0  0  0  0
  -20.9275  -46.4783   -6.8628 C   0  0  0  0  0  0  0  0  0  0  0  0
  -20.4941  -45.3644   -5.8998 C   0  0  0  0  0  0  0  0  0  0  0  0
  -21.4204  -44.2214   -5.9463 C   0  0  0  0  0  0  0  0  0  0  0  0
  -22.6642  -44.5420   -5.8566 O   0  0  0  0  0  0  0  0  0  0  0  0
  -21.0600  -42.8568   -6.0758 N   0  0  0  0  0  0  0  0  0  0  0  0
  -21.7489  -41.9017   -5.2280 C   0  0  0  0  0  0  0  0  0  0  0  0
  -20.0696  -42.3744   -6.9969 C   0  0  1  0  0  0  0  0  0  0  0  0
  -20.8544  -41.6501   -8.1075 C   0  0  0  0  0  0  0  0  0  0  0  0
  -19.0964  -41.4431   -6.3679 C   0  0  0  0  0  0  0  0  0  0  0  0
  -19.5576  -40.8713   -5.3067 O   0  0  0  0  0  0  0  0  0  0  0  0
  -17.7991  -41.1325   -6.7813 N   0  0  0  0  0  0  0  0  0  0  0  0
  -17.0884  -37.3414   -9.5764 C   0  0  0  0  0  0  0  0  0  0  0  0
  -17.6124  -36.0962   -9.8199 C   0  0  0  0  0  0  0  0  0  0  0  0
  -18.4500  -36.2067  -10.8986 C   0  0  0  0  0  0  0  0  0  0  0  0
  -19.2369  -35.1136  -11.5196 C   0  0  0  0  0  0  0  0  0  0  0  0
  -18.6650  -34.6600  -12.8442 C   0  0  0  0  0  0  0  0  0  0  0  0
  -18.6584  -35.7882  -13.8415 C   0  0  0  0  0  0  0  0  0  0  0  0
  -17.2958  -34.0625  -12.6174 C   0  0  0  0  0  0  0  0  0  0  0  0
  -19.5993  -33.5916  -13.3862 C   0  0  0  0  0  0  0  0  0  0  0  0
  -18.4256  -37.4659  -11.2814 O   0  0  0  0  0  0  0  0  0  0  0  0
  -17.6314  -38.1504  -10.5177 N   0  0  0  0  0  0  0  0  0  0  0  0
  2  1  1  6
  2  3  1  0
  3  4  1  0
  4  5  1  0
  5  6  1  1
  5  7  1  0
  7  8  1  6
  8  9  1  0
  9 10  1  1
  9 11  1  0
 11 12  1  0
 12 13  1  0
 13 14  1  0
 14 15  1  0
 15 16  1  0
 16 17  1  0
 17 18  1  0
 18 19  1  0
 19 20  2  0
 19 21  1  0
 21 22  1  0
 21 23  1  0
 23 24  1  6
 23 25  1  0
 25 26  2  0
 25 27  1  0
  2 28  1  0
 28 29  1  0
 29 30  2  0
 30 31  1  0
 31 32  1  0
 32 33  1  0
 32 34  1  0
 32 35  1  0
 30 36  1  0
 36 37  1  0
 27  7  1  0
 37 28  2  0
M  END
$$$$
