
     RDKit          3D

 37 38  0  0  0  0  0  0  0  0999 V2000
  -13.3012  -41.2611   -9.4458 C   0  0  0  0  0  0  0  0  0  0  0  0
  -13.7490  -39.9653   -8.8015 C   0  0  2  0  0  0  0  0  0  0  0  0
  -14.9356  -40.1239   -8.0144 N   0  0  0  0  0  0  0  0  0  0  0  0
  -15.5119  -38.8903   -7.5590 C   0  0  0  0  0  0  0  0  0  0  0  0
  -16.8395  -39.1614   -6.8764 C   0  0  1  0  0  0  0  0  0  0  0  0
  -17.4589  -37.8880   -6.8297 O   0  0  0  0  0  0  0  0  0  0  0  0
  -17.6997  -40.1068   -7.7147 C   0  0  2  0  0  0  0  0  0  0  0  0
  -19.0921  -39.6525   -7.8340 C   0  0  0  0  0  0  0  0  0  0  0  0
  -19.8436  -39.2785   -6.5991 C   0  0  2  0  0  0  0  0  0  0  0  0
  -19.5463  -40.0413   -5.3821 C   0  0  0  0  0  0  0  0  0  0  0  0
  -21.3031  -39.3548   -6.9635 C   0  0  0  0  0  0  0  0  0  0  0  0
  -22.2715  -39.4583   -5.8525 C   0  0  0  0  0  0  0  0  0  0  0  0
  -22.9257  -40.8216   -5.8941 C   0  0  0  0  0  0  0  0  0  0  0  0
  -24.2224  -40.8883   -6.5970 C   0  0  0  0  0  0  0  0  0  0  0  0
  -24.3211  -40.3950   -7.9750 C   0  0  0  0  0  0  0  0  0  0  0  0
  -23.7121  -41.1703   -9.0714 C   0  0  0  0  0  0  0  0  0  0  0  0
  -23.3496  -42.5826   -8.8160 C   0  0  0  0  0  0  0  0  0  0  0  0
  -21.9286  -42.8207   -9.3455 C   0  0  0  0  0  0  0  0  0  0  0  0
  -21.3131  -44.0043   -8.7235 C   0  0  0  0  0  0  0  0  0  0  0  0
  -22.0594  -45.0535   -8.7249 O   0  0  0  0  0  0  0  0  0  0  0  0
  -20.0186  -44.0705   -8.1501 N   0  0  0  0  0  0  0  0  0  0  0  0
  -19.2142  -45.2396   -8.4530 C   0  0  0  0  0  0  0  0  0  0  0  0
  -19.4722  -43.0603   -7.2882 C   0  0  1  0  0  0  0  0  0  0  0  0
  -19.4731  -43.6757   -5.8757 C   0  0  0  0  0  0  0  0  0  0  0  0
  -18.0931  -42.6562   -7.6690 C   0  0  0  0  0  0  0  0  0  0  0  0
  -17.4707  -43.5606   -8.3475 O   0  0  0  0  0  0  0  0  0  0  0  0
  -17.4279  -41.4617   -7.3846 N   0  0  0  0  0  0  0  0  0  0  0  0
  -14.0139  -39.0126   -9.9348 C   0  0  0  0  0  0  0  0  0  0  0  0
  -13.5196  -37.7412  -10.0891 C   0  0  0  0  0  0  0  0  0  0  0  0
  -14.0213  -37.2451  -11.2635 C   0  0  0  0  0  0  0  0  0  0  0  0
  -13.7566  -35.9039  -11.8388 C   0  0  0  0  0  0  0  0  0  0  0  0
  -12.6998  -35.9288  -12.9203 C   0  0  0  0  0  0  0  0  0  0  0  0
  -13.1213  -36.8136  -14.0636 C   0  0  0  0  0  0  0  0  0  0  0  0
  -11.3764  -36.3348  -12.3145 C   0  0  0  0  0  0  0  0  0  0  0  0
  -12.5933  -34.5152  -13.4667 C   0  0  0  0  0  0  0  0  0  0  0  0
  -14.7831  -38.1825  -11.7867 O   0  0  0  0  0  0  0  0  0  0  0  0
  -14.7927  -39.2300  -11.0219 N   0  0  0  0  0  0  0  0  0  0  0  0
  2  1  1  6
  2  3  1  0
  3  4  1  0
  4  5  1  0
  5  6  1  6
  5  7  1  0
  7  8  1  1
  8  9  1  0
  9 10  1  1
  9 11  1  0
 11 12  1  0
 12 13  1  0
 13 14  1  0
 14 15  1  0
 15 16  1  0
 16 17  1  0
 17 18  1  0
 18 19  1  0
 19 20  2  0
 19 21  1  0
 21 22  1  0
 21 23  1  0
 23 24  1  1
 23 25  1  0
 25 26  2  0
 25 27  1  0
  2 28  1  0
 28 29  1  0
 29 30  2  0
 30 31  1  0
 31 32  1  0
 32 33  1  0
 32 34  1  0
 32 35  1  0
 30 36  1  0
 36 37  1  0
 27  7  1  0
 37 28  2  0
M  END
$$$$
