
     RDKit          3D

 37 38  0  0  0  0  0  0  0  0999 V2000
  -19.1552  -36.8740   -7.0932 C   0  0  0  0  0  0  0  0  0  0  0  0
  -19.5900  -38.1978   -7.6874 C   0  0  2  0  0  0  0  0  0  0  0  0
  -18.7452  -39.2839   -7.2877 N   0  0  0  0  0  0  0  0  0  0  0  0
  -17.6597  -38.9030   -6.4288 C   0  0  0  0  0  0  0  0  0  0  0  0
  -16.3370  -39.1313   -7.1360 C   0  0  1  0  0  0  0  0  0  0  0  0
  -15.3703  -38.7998   -6.1547 O   0  0  0  0  0  0  0  0  0  0  0  0
  -16.1737  -40.6007   -7.5242 C   0  0  2  0  0  0  0  0  0  0  0  0
  -14.7665  -41.0207   -7.5791 C   0  0  0  0  0  0  0  0  0  0  0  0
  -13.7926  -40.2010   -8.3596 C   0  0  2  0  0  0  0  0  0  0  0  0
  -14.2915  -39.5567   -9.5791 C   0  0  0  0  0  0  0  0  0  0  0  0
  -12.6236  -41.1072   -8.6448 C   0  0  0  0  0  0  0  0  0  0  0  0
  -11.7190  -40.7156   -9.7453 C   0  0  0  0  0  0  0  0  0  0  0  0
  -11.8510  -41.7164  -10.8718 C   0  0  0  0  0  0  0  0  0  0  0  0
  -10.8555  -42.8069  -10.8793 C   0  0  0  0  0  0  0  0  0  0  0  0
  -10.6810  -43.6313   -9.6785 C   0  0  0  0  0  0  0  0  0  0  0  0
  -11.7193  -44.6116   -9.3110 C   0  0  0  0  0  0  0  0  0  0  0  0
  -12.7121  -45.0014  -10.3376 C   0  0  0  0  0  0  0  0  0  0  0  0
  -14.1094  -44.9475   -9.7043 C   0  0  0  0  0  0  0  0  0  0  0  0
  -15.1611  -44.8401  -10.7285 C   0  0  0  0  0  0  0  0  0  0  0  0
  -15.0513  -45.6858  -11.6931 O   0  0  0  0  0  0  0  0  0  0  0  0
  -16.2366  -43.9169  -10.7300 N   0  0  0  0  0  0  0  0  0  0  0  0
  -17.5493  -44.4230  -11.0855 C   0  0  0  0  0  0  0  0  0  0  0  0
  -16.0960  -42.5235  -10.4127 C   0  0  1  0  0  0  0  0  0  0  0  0
  -16.2427  -41.7766  -11.7523 C   0  0  0  0  0  0  0  0  0  0  0  0
  -17.1165  -42.0426   -9.4447 C   0  0  0  0  0  0  0  0  0  0  0  0
  -18.1833  -42.7690   -9.4324 O   0  0  0  0  0  0  0  0  0  0  0  0
  -17.0512  -40.9413   -8.5884 N   0  0  0  0  0  0  0  0  0  0  0  0
  -19.5202  -38.0216   -9.1795 C   0  0  0  0  0  0  0  0  0  0  0  0
  -19.9869  -36.9624   -9.9174 C   0  0  0  0  0  0  0  0  0  0  0  0
  -19.7093  -37.2244  -11.2333 C   0  0  0  0  0  0  0  0  0  0  0  0
  -20.0313  -36.3567  -12.3922 C   0  0  0  0  0  0  0  0  0  0  0  0
  -20.9784  -37.0143  -13.3708 C   0  0  0  0  0  0  0  0  0  0  0  0
  -20.9135  -36.3418  -14.7166 C   0  0  0  0  0  0  0  0  0  0  0  0
  -22.3705  -37.0296  -12.7834 C   0  0  0  0  0  0  0  0  0  0  0  0
  -20.4949  -38.4419  -13.5623 C   0  0  0  0  0  0  0  0  0  0  0  0
  -19.1023  -38.3917  -11.2768 O   0  0  0  0  0  0  0  0  0  0  0  0
  -18.9809  -38.8778  -10.0804 N   0  0  0  0  0  0  0  0  0  0  0  0
  2  1  1  1
  2  3  1  0
  3  4  1  0
  4  5  1  0
  5  6  1  1
  5  7  1  0
  7  8  1  6
  8  9  1  0
  9 10  1  6
  9 11  1  0
 11 12  1  0
 12 13  1  0
 13 14  1  0
 14 15  1  0
 15 16  1  0
 16 17  1  0
 17 18  1  0
 18 19  1  0
 19 20  2  0
 19 21  1  0
 21 22  1  0
 21 23  1  0
 23 24  1  6
 23 25  1  0
 25 26  2  0
 25 27  1  0
  2 28  1  0
 28 29  1  0
 29 30  2  0
 30 31  1  0
 31 32  1  0
 32 33  1  0
 32 34  1  0
 32 35  1  0
 30 36  1  0
 36 37  1  0
 27  7  1  0
 37 28  2  0
M  END
$$$$
