
     RDKit          3D

 37 38  0  0  0  0  0  0  0  0999 V2000
  -16.9101  -37.2308   -6.7144 C   0  0  0  0  0  0  0  0  0  0  0  0
  -16.9749  -38.7350   -6.8816 C   0  0  2  0  0  0  0  0  0  0  0  0
  -16.7134  -39.1504   -8.2277 N   0  0  0  0  0  0  0  0  0  0  0  0
  -16.3794  -40.5402   -8.3629 C   0  0  0  0  0  0  0  0  0  0  0  0
  -16.6248  -40.9937   -9.7898 C   0  0  1  0  0  0  0  0  0  0  0  0
  -15.3208  -41.1338  -10.3261 O   0  0  0  0  0  0  0  0  0  0  0  0
  -17.3262  -42.3516   -9.8165 C   0  0  2  0  0  0  0  0  0  0  0  0
  -18.4086  -42.4125  -10.8085 C   0  0  0  0  0  0  0  0  0  0  0  0
  -19.4398  -41.3327  -10.8272 C   0  0  2  0  0  0  0  0  0  0  0  0
  -19.8202  -40.7531   -9.5347 C   0  0  0  0  0  0  0  0  0  0  0  0
  -20.6280  -41.9074  -11.5530 C   0  0  0  0  0  0  0  0  0  0  0  0
  -21.9299  -41.2385  -11.3518 C   0  0  0  0  0  0  0  0  0  0  0  0
  -22.8492  -42.1679  -10.5906 C   0  0  0  0  0  0  0  0  0  0  0  0
  -23.7644  -42.9808  -11.4162 C   0  0  0  0  0  0  0  0  0  0  0  0
  -23.2164  -43.8124  -12.4932 C   0  0  0  0  0  0  0  0  0  0  0  0
  -22.4668  -45.0371  -12.1580 C   0  0  0  0  0  0  0  0  0  0  0  0
  -22.6007  -45.5908  -10.7917 C   0  0  0  0  0  0  0  0  0  0  0  0
  -21.1974  -45.9185  -10.2629 C   0  0  0  0  0  0  0  0  0  0  0  0
  -21.1821  -46.0054   -8.7936 C   0  0  0  0  0  0  0  0  0  0  0  0
  -22.1178  -46.7361   -8.2950 O   0  0  0  0  0  0  0  0  0  0  0  0
  -20.2551  -45.3734   -7.9275 N   0  0  0  0  0  0  0  0  0  0  0  0
  -19.7256  -46.1598   -6.8291 C   0  0  0  0  0  0  0  0  0  0  0  0
  -19.8259  -44.0106   -8.0713 C   0  0  1  0  0  0  0  0  0  0  0  0
  -20.5071  -43.2384   -6.9252 C   0  0  0  0  0  0  0  0  0  0  0  0
  -18.3500  -43.8547   -7.9866 C   0  0  0  0  0  0  0  0  0  0  0  0
  -17.7760  -44.8180   -7.3475 O   0  0  0  0  0  0  0  0  0  0  0  0
  -17.5539  -42.8272   -8.4972 N   0  0  0  0  0  0  0  0  0  0  0  0
  -18.3712  -39.1327   -6.4888 C   0  0  0  0  0  0  0  0  0  0  0  0
  -18.7520  -39.8748   -5.3986 C   0  0  0  0  0  0  0  0  0  0  0  0
  -20.1167  -39.9905   -5.4367 C   0  0  0  0  0  0  0  0  0  0  0  0
  -20.9685  -40.7090   -4.4578 C   0  0  0  0  0  0  0  0  0  0  0  0
  -22.0668  -39.8393   -3.8882 C   0  0  0  0  0  0  0  0  0  0  0  0
  -22.2113  -40.0581   -2.4053 C   0  0  0  0  0  0  0  0  0  0  0  0
  -23.3469  -40.0899   -4.6509 C   0  0  0  0  0  0  0  0  0  0  0  0
  -21.6350  -38.3961   -4.0857 C   0  0  0  0  0  0  0  0  0  0  0  0
  -20.5312  -39.3440   -6.5058 O   0  0  0  0  0  0  0  0  0  0  0  0
  -19.5214  -38.8320   -7.1386 N   0  0  0  0  0  0  0  0  0  0  0  0
  2  1  1  6
  2  3  1  0
  3  4  1  0
  4  5  1  0
  5  6  1  6
  5  7  1  0
  7  8  1  1
  8  9  1  0
  9 10  1  1
  9 11  1  0
 11 12  1  0
 12 13  1  0
 13 14  1  0
 14 15  1  0
 15 16  1  0
 16 17  1  0
 17 18  1  0
 18 19  1  0
 19 20  2  0
 19 21  1  0
 21 22  1  0
 21 23  1  0
 23 24  1  1
 23 25  1  0
 25 26  2  0
 25 27  1  0
  2 28  1  0
 28 29  1  0
 29 30  2  0
 30 31  1  0
 31 32  1  0
 32 33  1  0
 32 34  1  0
 32 35  1  0
 30 36  1  0
 36 37  1  0
 27  7  1  0
 37 28  2  0
M  END
$$$$
