
     RDKit          3D

 37 38  0  0  0  0  0  0  0  0999 V2000
  -12.9187  -41.3358  -10.2236 C   0  0  0  0  0  0  0  0  0  0  0  0
  -13.5354  -40.1075   -9.5866 C   0  0  2  0  0  0  0  0  0  0  0  0
  -14.5670  -40.4342   -8.6475 N   0  0  0  0  0  0  0  0  0  0  0  0
  -15.3198  -39.3047   -8.1799 C   0  0  0  0  0  0  0  0  0  0  0  0
  -16.3347  -39.7532   -7.1452 C   0  0  1  0  0  0  0  0  0  0  0  0
  -16.9904  -38.5526   -6.7761 O   0  0  0  0  0  0  0  0  0  0  0  0
  -17.3536  -40.7115   -7.7615 C   0  0  2  0  0  0  0  0  0  0  0  0
  -18.6257  -40.0536   -8.0906 C   0  0  0  0  0  0  0  0  0  0  0  0
  -19.3057  -39.2240   -7.0518 C   0  0  2  0  0  0  0  0  0  0  0  0
  -19.1843  -39.6695   -5.6597 C   0  0  0  0  0  0  0  0  0  0  0  0
  -20.7457  -39.1208   -7.4818 C   0  0  0  0  0  0  0  0  0  0  0  0
  -21.7316  -38.7350   -6.4513 C   0  0  0  0  0  0  0  0  0  0  0  0
  -22.6435  -39.9102   -6.1768 C   0  0  0  0  0  0  0  0  0  0  0  0
  -23.9170  -39.9204   -6.9239 C   0  0  0  0  0  0  0  0  0  0  0  0
  -23.8951  -39.8104   -8.3866 C   0  0  0  0  0  0  0  0  0  0  0  0
  -23.4367  -40.9544   -9.1961 C   0  0  0  0  0  0  0  0  0  0  0  0
  -23.3666  -42.2862   -8.5538 C   0  0  0  0  0  0  0  0  0  0  0  0
  -22.0139  -42.9217   -8.9041 C   0  0  0  0  0  0  0  0  0  0  0  0
  -21.6559  -43.9856   -7.9520 C   0  0  0  0  0  0  0  0  0  0  0  0
  -22.5961  -44.8362   -7.7278 O   0  0  0  0  0  0  0  0  0  0  0  0
  -20.4091  -44.1356   -7.2947 N   0  0  0  0  0  0  0  0  0  0  0  0
  -19.8494  -45.4724   -7.2236 C   0  0  0  0  0  0  0  0  0  0  0  0
  -19.6851  -43.0507   -6.6941 C   0  0  1  0  0  0  0  0  0  0  0  0
  -19.8295  -43.2478   -5.1729 C   0  0  0  0  0  0  0  0  0  0  0  0
  -18.2477  -43.0316   -7.0730 C   0  0  0  0  0  0  0  0  0  0  0  0
  -17.8080  -44.1865   -7.4455 O   0  0  0  0  0  0  0  0  0  0  0  0
  -17.3621  -41.9519   -7.0686 N   0  0  0  0  0  0  0  0  0  0  0  0
  -14.1139  -39.3037  -10.7185 C   0  0  0  0  0  0  0  0  0  0  0  0
  -14.0396  -37.9451  -10.9006 C   0  0  0  0  0  0  0  0  0  0  0  0
  -14.7041  -37.6493  -12.0617 C   0  0  0  0  0  0  0  0  0  0  0  0
  -14.8821  -36.3026  -12.6573 C   0  0  0  0  0  0  0  0  0  0  0  0
  -15.9059  -35.4676  -11.9213 C   0  0  0  0  0  0  0  0  0  0  0  0
  -16.6508  -34.5688  -12.8725 C   0  0  0  0  0  0  0  0  0  0  0  0
  -15.2231  -34.7119  -10.8051 C   0  0  0  0  0  0  0  0  0  0  0  0
  -16.9213  -36.4318  -11.3318 C   0  0  0  0  0  0  0  0  0  0  0  0
  -15.1555  -38.7851  -12.5506 O   0  0  0  0  0  0  0  0  0  0  0  0
  -14.8197  -39.7703  -11.7767 N   0  0  0  0  0  0  0  0  0  0  0  0
  2  1  1  6
  2  3  1  0
  3  4  1  0
  4  5  1  0
  5  6  1  6
  5  7  1  0
  7  8  1  1
  8  9  1  0
  9 10  1  1
  9 11  1  0
 11 12  1  0
 12 13  1  0
 13 14  1  0
 14 15  1  0
 15 16  1  0
 16 17  1  0
 17 18  1  0
 18 19  1  0
 19 20  2  0
 19 21  1  0
 21 22  1  0
 21 23  1  0
 23 24  1  1
 23 25  1  0
 25 26  2  0
 25 27  1  0
  2 28  1  0
 28 29  1  0
 29 30  2  0
 30 31  1  0
 31 32  1  0
 32 33  1  0
 32 34  1  0
 32 35  1  0
 30 36  1  0
 36 37  1  0
 27  7  1  0
 37 28  2  0
M  END
$$$$
