
     RDKit          3D

 37 38  0  0  0  0  0  0  0  0999 V2000
  -19.1745  -36.5542   -9.6772 C   0  0  0  0  0  0  0  0  0  0  0  0
  -18.7288  -37.1779   -8.3706 C   0  0  2  0  0  0  0  0  0  0  0  0
  -17.4766  -37.8644   -8.4879 N   0  0  0  0  0  0  0  0  0  0  0  0
  -16.8489  -38.1672   -7.2328 C   0  0  0  0  0  0  0  0  0  0  0  0
  -15.4373  -38.6705   -7.4695 C   0  0  1  0  0  0  0  0  0  0  0  0
  -14.7576  -38.3390   -6.2713 O   0  0  0  0  0  0  0  0  0  0  0  0
  -15.4236  -40.1883   -7.6501 C   0  0  2  0  0  0  0  0  0  0  0  0
  -14.0654  -40.7312   -7.7926 C   0  0  0  0  0  0  0  0  0  0  0  0
  -13.1365  -40.1154   -8.7863 C   0  0  2  0  0  0  0  0  0  0  0  0
  -13.7306  -39.6076  -10.0274 C   0  0  0  0  0  0  0  0  0  0  0  0
  -12.0754  -41.1496   -9.0573 C   0  0  0  0  0  0  0  0  0  0  0  0
  -11.2827  -40.9949  -10.2945 C   0  0  0  0  0  0  0  0  0  0  0  0
  -11.6166  -42.1284  -11.2389 C   0  0  0  0  0  0  0  0  0  0  0  0
  -10.7072  -43.2906  -11.1909 C   0  0  0  0  0  0  0  0  0  0  0  0
  -10.4491  -43.9508   -9.9066 C   0  0  0  0  0  0  0  0  0  0  0  0
  -11.5020  -44.7773   -9.2881 C   0  0  0  0  0  0  0  0  0  0  0  0
  -12.6342  -45.2202  -10.1326 C   0  0  0  0  0  0  0  0  0  0  0  0
  -13.9393  -44.9584   -9.3682 C   0  0  0  0  0  0  0  0  0  0  0  0
  -15.0952  -44.9054  -10.2780 C   0  0  0  0  0  0  0  0  0  0  0  0
  -15.1596  -45.8840  -11.1123 O   0  0  0  0  0  0  0  0  0  0  0  0
  -16.0966  -43.9026  -10.3014 N   0  0  0  0  0  0  0  0  0  0  0  0
  -17.4740  -44.3387  -10.4346 C   0  0  0  0  0  0  0  0  0  0  0  0
  -15.8229  -42.4958  -10.2119 C   0  0  1  0  0  0  0  0  0  0  0  0
  -16.0753  -41.9338  -11.6241 C   0  0  0  0  0  0  0  0  0  0  0  0
  -16.6855  -41.7983   -9.2222 C   0  0  0  0  0  0  0  0  0  0  0  0
  -17.7911  -42.4215   -8.9876 O   0  0  0  0  0  0  0  0  0  0  0  0
  -16.4427  -40.5978   -8.5513 N   0  0  0  0  0  0  0  0  0  0  0  0
  -19.8094  -38.1524   -7.9902 C   0  0  0  0  0  0  0  0  0  0  0  0
  -20.9268  -37.9053   -7.2320 C   0  0  0  0  0  0  0  0  0  0  0  0
  -21.6298  -39.0779   -7.1422 C   0  0  0  0  0  0  0  0  0  0  0  0
  -22.9076  -39.2867   -6.4187 C   0  0  0  0  0  0  0  0  0  0  0  0
  -22.7298  -40.0482   -5.1242 C   0  0  0  0  0  0  0  0  0  0  0  0
  -24.0483  -40.2236   -4.4182 C   0  0  0  0  0  0  0  0  0  0  0  0
  -21.6918  -39.3521   -4.2751 C   0  0  0  0  0  0  0  0  0  0  0  0
  -22.2335  -41.4361   -5.4926 C   0  0  0  0  0  0  0  0  0  0  0  0
  -20.9584  -39.9857   -7.8189 O   0  0  0  0  0  0  0  0  0  0  0  0
  -19.8850  -39.4628   -8.3257 N   0  0  0  0  0  0  0  0  0  0  0  0
  2  1  1  6
  2  3  1  0
  3  4  1  0
  4  5  1  0
  5  6  1  1
  5  7  1  0
  7  8  1  6
  8  9  1  0
  9 10  1  6
  9 11  1  0
 11 12  1  0
 12 13  1  0
 13 14  1  0
 14 15  1  0
 15 16  1  0
 16 17  1  0
 17 18  1  0
 18 19  1  0
 19 20  2  0
 19 21  1  0
 21 22  1  0
 21 23  1  0
 23 24  1  6
 23 25  1  0
 25 26  2  0
 25 27  1  0
  2 28  1  0
 28 29  1  0
 29 30  2  0
 30 31  1  0
 31 32  1  0
 32 33  1  0
 32 34  1  0
 32 35  1  0
 30 36  1  0
 36 37  1  0
 27  7  1  0
 37 28  2  0
M  END
$$$$
