
     RDKit          3D

 37 38  0  0  0  0  0  0  0  0999 V2000
  -12.6394  -41.1196   -9.3770 C   0  0  0  0  0  0  0  0  0  0  0  0
  -13.5064  -39.8938   -9.1756 C   0  0  2  0  0  0  0  0  0  0  0  0
  -14.8319  -40.2229   -8.7426 N   0  0  0  0  0  0  0  0  0  0  0  0
  -15.7490  -39.1184   -8.7552 C   0  0  0  0  0  0  0  0  0  0  0  0
  -16.8980  -39.3904   -7.8025 C   0  0  1  0  0  0  0  0  0  0  0  0
  -17.5792  -38.1498   -7.7356 O   0  0  0  0  0  0  0  0  0  0  0  0
  -17.8403  -40.4494   -8.3742 C   0  0  2  0  0  0  0  0  0  0  0  0
  -19.2575  -40.0970   -8.2099 C   0  0  0  0  0  0  0  0  0  0  0  0
  -19.7526  -39.6823   -6.8636 C   0  0  2  0  0  0  0  0  0  0  0  0
  -19.1401  -40.3317   -5.6999 C   0  0  0  0  0  0  0  0  0  0  0  0
  -21.2456  -39.8805   -6.8924 C   0  0  0  0  0  0  0  0  0  0  0  0
  -21.9403  -39.9643   -5.5912 C   0  0  0  0  0  0  0  0  0  0  0  0
  -22.4771  -41.3667   -5.4083 C   0  0  0  0  0  0  0  0  0  0  0  0
  -23.8852  -41.5698   -5.8031 C   0  0  0  0  0  0  0  0  0  0  0  0
  -24.3176  -41.1875   -7.1518 C   0  0  0  0  0  0  0  0  0  0  0  0
  -23.8992  -42.0006   -8.3085 C   0  0  0  0  0  0  0  0  0  0  0  0
  -23.3786  -43.3634   -8.0576 C   0  0  0  0  0  0  0  0  0  0  0  0
  -22.0908  -43.5469   -8.8725 C   0  0  0  0  0  0  0  0  0  0  0  0
  -21.2632  -44.6384   -8.3337 C   0  0  0  0  0  0  0  0  0  0  0  0
  -21.9060  -45.7313   -8.1096 O   0  0  0  0  0  0  0  0  0  0  0  0
  -19.8745  -44.5774   -8.0568 N   0  0  0  0  0  0  0  0  0  0  0  0
  -19.0635  -45.7107   -8.4610 C   0  0  0  0  0  0  0  0  0  0  0  0
  -19.2376  -43.4725   -7.3967 C   0  0  1  0  0  0  0  0  0  0  0  0
  -18.8850  -43.9802   -5.9854 C   0  0  0  0  0  0  0  0  0  0  0  0
  -18.0098  -43.0086   -8.0948 C   0  0  0  0  0  0  0  0  0  0  0  0
  -17.4780  -43.9183   -8.8401 O   0  0  0  0  0  0  0  0  0  0  0  0
  -17.3965  -41.7554   -8.0339 N   0  0  0  0  0  0  0  0  0  0  0  0
  -13.5638  -39.2065  -10.5122 C   0  0  0  0  0  0  0  0  0  0  0  0
  -13.2130  -37.9110  -10.8002 C   0  0  0  0  0  0  0  0  0  0  0  0
  -13.4259  -37.7158  -12.1395 C   0  0  0  0  0  0  0  0  0  0  0  0
  -13.1849  -36.4639  -12.8975 C   0  0  0  0  0  0  0  0  0  0  0  0
  -11.7412  -36.3026  -13.3177 C   0  0  0  0  0  0  0  0  0  0  0  0
  -11.3287  -37.4039  -14.2583 C   0  0  0  0  0  0  0  0  0  0  0  0
  -10.8699  -36.2192  -12.0860 C   0  0  0  0  0  0  0  0  0  0  0  0
  -11.6491  -34.9982  -14.0913 C   0  0  0  0  0  0  0  0  0  0  0  0
  -13.8849  -38.8485  -12.6286 O   0  0  0  0  0  0  0  0  0  0  0  0
  -13.9736  -39.7382  -11.6890 N   0  0  0  0  0  0  0  0  0  0  0  0
  2  1  1  6
  2  3  1  0
  3  4  1  0
  4  5  1  0
  5  6  1  6
  5  7  1  0
  7  8  1  1
  8  9  1  0
  9 10  1  1
  9 11  1  0
 11 12  1  0
 12 13  1  0
 13 14  1  0
 14 15  1  0
 15 16  1  0
 16 17  1  0
 17 18  1  0
 18 19  1  0
 19 20  2  0
 19 21  1  0
 21 22  1  0
 21 23  1  0
 23 24  1  1
 23 25  1  0
 25 26  2  0
 25 27  1  0
  2 28  1  0
 28 29  1  0
 29 30  2  0
 30 31  1  0
 31 32  1  0
 32 33  1  0
 32 34  1  0
 32 35  1  0
 30 36  1  0
 36 37  1  0
 27  7  1  0
 37 28  2  0
M  END
$$$$
