
     RDKit          3D

 37 38  0  0  0  0  0  0  0  0999 V2000
  -14.9275  -35.3783   -9.9586 C   0  0  0  0  0  0  0  0  0  0  0  0
  -15.1057  -36.8694  -10.1582 C   0  0  2  0  0  0  0  0  0  0  0  0
  -15.4634  -37.5473   -8.9477 N   0  0  0  0  0  0  0  0  0  0  0  0
  -16.6971  -38.2779   -9.0221 C   0  0  0  0  0  0  0  0  0  0  0  0
  -16.7494  -39.3167   -7.9176 C   0  0  1  0  0  0  0  0  0  0  0  0
  -17.2868  -38.6074   -6.8150 O   0  0  0  0  0  0  0  0  0  0  0  0
  -17.6957  -40.4584   -8.2883 C   0  0  2  0  0  0  0  0  0  0  0  0
  -19.0666  -39.9980   -8.5495 C   0  0  0  0  0  0  0  0  0  0  0  0
  -19.7395  -39.1139   -7.5520 C   0  0  2  0  0  0  0  0  0  0  0  0
  -19.4265  -39.3465   -6.1381 C   0  0  0  0  0  0  0  0  0  0  0  0
  -21.2164  -39.2319   -7.8239 C   0  0  0  0  0  0  0  0  0  0  0  0
  -22.1364  -38.8196   -6.7438 C   0  0  0  0  0  0  0  0  0  0  0  0
  -22.8621  -40.0399   -6.2218 C   0  0  0  0  0  0  0  0  0  0  0  0
  -24.1917  -40.2949   -6.8110 C   0  0  0  0  0  0  0  0  0  0  0  0
  -24.3281  -40.3861   -8.2688 C   0  0  0  0  0  0  0  0  0  0  0  0
  -23.8119  -41.5727   -8.9756 C   0  0  0  0  0  0  0  0  0  0  0  0
  -23.5122  -42.7870   -8.1837 C   0  0  0  0  0  0  0  0  0  0  0  0
  -22.1317  -43.3101   -8.6041 C   0  0  0  0  0  0  0  0  0  0  0  0
  -21.5507  -44.1858   -7.5734 C   0  0  0  0  0  0  0  0  0  0  0  0
  -22.3501  -45.0966   -7.1383 O   0  0  0  0  0  0  0  0  0  0  0  0
  -20.2363  -44.1039   -7.0495 N   0  0  0  0  0  0  0  0  0  0  0  0
  -19.5089  -45.3475   -6.8760 C   0  0  0  0  0  0  0  0  0  0  0  0
  -19.5985  -42.8727   -6.6765 C   0  0  1  0  0  0  0  0  0  0  0  0
  -19.5662  -42.8727   -5.1360 C   0  0  0  0  0  0  0  0  0  0  0  0
  -18.2193  -42.7462   -7.2168 C   0  0  0  0  0  0  0  0  0  0  0  0
  -17.6770  -43.8853   -7.4894 O   0  0  0  0  0  0  0  0  0  0  0  0
  -17.4801  -41.5844   -7.4490 N   0  0  0  0  0  0  0  0  0  0  0  0
  -13.7805  -37.3792  -10.6542 C   0  0  0  0  0  0  0  0  0  0  0  0
  -13.5201  -38.0008  -11.8501 C   0  0  0  0  0  0  0  0  0  0  0  0
  -12.1814  -38.2911  -11.8793 C   0  0  0  0  0  0  0  0  0  0  0  0
  -11.4488  -38.9642  -12.9793 C   0  0  0  0  0  0  0  0  0  0  0  0
  -10.6151  -40.1312  -12.4994 C   0  0  0  0  0  0  0  0  0  0  0  0
   -9.1475  -39.8644  -12.7059 C   0  0  0  0  0  0  0  0  0  0  0  0
  -11.0884  -41.3948  -13.1794 C   0  0  0  0  0  0  0  0  0  0  0  0
  -10.8401  -40.2486  -11.0014 C   0  0  0  0  0  0  0  0  0  0  0  0
  -11.6661  -37.8602  -10.7472 O   0  0  0  0  0  0  0  0  0  0  0  0
  -12.5888  -37.3207  -10.0124 N   0  0  0  0  0  0  0  0  0  0  0  0
  2  1  1  1
  2  3  1  0
  3  4  1  0
  4  5  1  0
  5  6  1  1
  5  7  1  0
  7  8  1  1
  8  9  1  0
  9 10  1  1
  9 11  1  0
 11 12  1  0
 12 13  1  0
 13 14  1  0
 14 15  1  0
 15 16  1  0
 16 17  1  0
 17 18  1  0
 18 19  1  0
 19 20  2  0
 19 21  1  0
 21 22  1  0
 21 23  1  0
 23 24  1  1
 23 25  1  0
 25 26  2  0
 25 27  1  0
  2 28  1  0
 28 29  1  0
 29 30  2  0
 30 31  1  0
 31 32  1  0
 32 33  1  0
 32 34  1  0
 32 35  1  0
 30 36  1  0
 36 37  1  0
 27  7  1  0
 37 28  2  0
M  END
$$$$
