
     RDKit          3D

 36 38  0  0  0  0  0  0  0  0999 V2000
  -13.5048  -35.7625  -14.6376 C   0  0  0  0  0  0  0  0  0  0  0  0
  -14.2351  -36.3355  -13.4464 C   0  0  0  0  0  0  0  0  0  0  0  0
  -15.0371  -35.2062  -12.7905 C   0  0  0  0  0  0  0  0  0  0  0  0
  -13.3206  -36.8783  -12.4339 C   0  0  0  0  0  0  0  0  0  0  0  0
  -13.4878  -38.1087  -11.8365 C   0  0  0  0  0  0  0  0  0  0  0  0
  -12.5823  -38.5780  -10.8748 C   0  0  0  0  0  0  0  0  0  0  0  0
  -12.7803  -39.8972  -10.2553 C   0  0  0  0  0  0  0  0  0  0  0  0
  -13.3609  -39.8619   -8.9329 N   0  0  0  0  0  0  0  0  0  0  0  0
  -14.8054  -39.8229   -9.0250 C   0  0  0  0  0  0  0  0  0  0  0  0
  -15.5147  -39.5665   -7.7425 C   0  0  1  0  0  0  0  0  0  0  0  0
  -15.1621  -38.2819   -7.2948 O   0  0  0  0  0  0  0  0  0  0  0  0
  -17.0005  -39.8035   -7.7365 C   0  0  2  0  0  0  0  0  0  0  0  0
  -17.6854  -38.5144   -7.4720 C   0  0  0  0  0  0  0  0  0  0  0  0
  -19.0909  -38.5708   -6.9686 C   0  0  2  0  0  0  0  0  0  0  0  0
  -19.1535  -39.1013   -5.5682 C   0  0  0  0  0  0  0  0  0  0  0  0
  -20.1008  -39.1218   -7.9146 C   0  0  0  0  0  0  0  0  0  0  0  0
  -21.1764  -39.9107   -7.1862 C   0  0  0  0  0  0  0  0  0  0  0  0
  -22.3173  -40.2672   -8.1530 C   0  0  0  0  0  0  0  0  0  0  0  0
  -22.6997  -41.6807   -7.9030 C   0  0  0  0  0  0  0  0  0  0  0  0
  -23.1103  -42.4959   -9.0672 C   0  0  0  0  0  0  0  0  0  0  0  0
  -22.7373  -42.0372  -10.4174 C   0  0  0  0  0  0  0  0  0  0  0  0
  -21.3194  -42.1842  -10.8358 C   0  0  0  0  0  0  0  0  0  0  0  0
  -20.7586  -43.5656  -10.7962 C   0  0  0  0  0  0  0  0  0  0  0  0
  -19.4184  -43.6733  -10.1250 C   0  0  1  0  0  0  0  0  0  0  0  0
  -19.4152  -44.8190   -9.3314 O   0  0  0  0  0  0  0  0  0  0  0  0
  -18.2668  -43.7909  -11.0941 C   0  0  0  0  0  0  0  0  0  0  0  0
  -17.0203  -44.0912  -10.2866 C   0  0  0  0  0  0  0  0  0  0  0  0
  -16.7363  -42.9782   -9.2616 C   0  0  0  0  0  0  0  0  0  0  0  0
  -17.9149  -42.9149   -8.3748 C   0  0  2  0  0  0  0  0  0  0  0  0
  -19.1028  -42.4802   -9.2491 C   0  0  0  0  0  0  0  0  0  0  0  0
  -17.8790  -42.1431   -7.1612 C   0  0  0  0  0  0  0  0  0  0  0  0
  -18.4862  -42.6714   -6.1471 O   0  0  0  0  0  0  0  0  0  0  0  0
  -17.2923  -40.8928   -6.8717 N   0  0  0  0  0  0  0  0  0  0  0  0
  -11.4939  -37.8211  -10.4965 C   0  0  0  0  0  0  0  0  0  0  0  0
  -11.3287  -36.5918  -11.0947 C   0  0  0  0  0  0  0  0  0  0  0  0
  -12.2287  -36.1356  -12.0443 C   0  0  0  0  0  0  0  0  0  0  0  0
  1  2  1  0
  2  3  1  0
  2  4  1  0
  4  5  2  0
  5  6  1  0
  6  7  1  0
  7  8  1  0
  8  9  1  0
  9 10  1  0
 10 11  1  6
 10 12  1  0
 12 13  1  1
 13 14  1  0
 14 15  1  1
 14 16  1  0
 16 17  1  0
 17 18  1  0
 18 19  1  0
 19 20  1  0
 20 21  1  0
 21 22  1  0
 22 23  1  0
 23 24  1  0
 24 25  1  1
 24 26  1  0
 26 27  1  0
 27 28  1  0
 29 28  1  6
 29 30  1  0
 29 31  1  0
 31 32  2  0
 31 33  1  0
  6 34  2  0
 34 35  1  0
 35 36  2  0
 30 24  1  0
 33 12  1  0
 36  4  1  0
M  END
$$$$
