
     RDKit          3D

 36 38  0  0  0  0  0  0  0  0999 V2000
  -11.1654  -36.6315  -10.8132 C   0  0  0  0  0  0  0  0  0  0  0  0
  -12.0088  -36.5876  -12.0652 C   0  0  0  0  0  0  0  0  0  0  0  0
  -13.1927  -35.6486  -11.8097 C   0  0  0  0  0  0  0  0  0  0  0  0
  -12.5533  -37.9036  -12.4228 C   0  0  0  0  0  0  0  0  0  0  0  0
  -13.0712  -38.7900  -11.5038 C   0  0  0  0  0  0  0  0  0  0  0  0
  -13.5791  -40.0345  -11.9016 C   0  0  0  0  0  0  0  0  0  0  0  0
  -14.1311  -40.9611  -10.9016 C   0  0  0  0  0  0  0  0  0  0  0  0
  -14.1285  -40.4586   -9.5471 N   0  0  0  0  0  0  0  0  0  0  0  0
  -15.3882  -40.7634   -8.9013 C   0  0  0  0  0  0  0  0  0  0  0  0
  -16.2052  -39.5806   -8.5177 C   0  0  1  0  0  0  0  0  0  0  0  0
  -16.0423  -38.5950   -9.5062 O   0  0  0  0  0  0  0  0  0  0  0  0
  -17.6480  -39.8408   -8.1796 C   0  0  2  0  0  0  0  0  0  0  0  0
  -18.4134  -38.5839   -8.3675 C   0  0  0  0  0  0  0  0  0  0  0  0
  -19.7298  -38.4674   -7.6708 C   0  0  2  0  0  0  0  0  0  0  0  0
  -19.5592  -38.3568   -6.1858 C   0  0  0  0  0  0  0  0  0  0  0  0
  -20.7963  -39.3995   -8.1315 C   0  0  0  0  0  0  0  0  0  0  0  0
  -21.6877  -39.8402   -6.9821 C   0  0  0  0  0  0  0  0  0  0  0  0
  -22.9047  -40.6093   -7.5213 C   0  0  0  0  0  0  0  0  0  0  0  0
  -23.1141  -41.7956   -6.6520 C   0  0  0  0  0  0  0  0  0  0  0  0
  -23.5920  -43.0399   -7.2938 C   0  0  0  0  0  0  0  0  0  0  0  0
  -23.4429  -43.1843   -8.7531 C   0  0  0  0  0  0  0  0  0  0  0  0
  -22.0837  -43.4485   -9.2914 C   0  0  0  0  0  0  0  0  0  0  0  0
  -21.3926  -44.6642   -8.7731 C   0  0  0  0  0  0  0  0  0  0  0  0
  -19.9726  -44.4341   -8.3384 C   0  0  1  0  0  0  0  0  0  0  0  0
  -19.7566  -45.1352   -7.1535 O   0  0  0  0  0  0  0  0  0  0  0  0
  -18.9504  -44.9135   -9.3405 C   0  0  0  0  0  0  0  0  0  0  0  0
  -17.5867  -44.8031   -8.6893 C   0  0  0  0  0  0  0  0  0  0  0  0
  -17.2803  -43.3522   -8.2755 C   0  0  0  0  0  0  0  0  0  0  0  0
  -18.3346  -42.9577   -7.3204 C   0  0  2  0  0  0  0  0  0  0  0  0
  -19.6620  -42.9728   -8.0965 C   0  0  0  0  0  0  0  0  0  0  0  0
  -18.2160  -41.7439   -6.5572 C   0  0  0  0  0  0  0  0  0  0  0  0
  -18.6331  -41.8125   -5.3335 O   0  0  0  0  0  0  0  0  0  0  0  0
  -17.7194  -40.4704   -6.9075 N   0  0  0  0  0  0  0  0  0  0  0  0
  -13.5760  -40.4105  -13.2280 C   0  0  0  0  0  0  0  0  0  0  0  0
  -13.0579  -39.5231  -14.1448 C   0  0  0  0  0  0  0  0  0  0  0  0
  -12.5579  -38.2951  -13.7428 C   0  0  0  0  0  0  0  0  0  0  0  0
  1  2  1  0
  2  3  1  0
  2  4  1  0
  4  5  2  0
  5  6  1  0
  6  7  1  0
  7  8  1  0
  8  9  1  0
  9 10  1  0
 10 11  1  6
 10 12  1  0
 12 13  1  1
 13 14  1  0
 14 15  1  1
 14 16  1  0
 16 17  1  0
 17 18  1  0
 18 19  1  0
 19 20  1  0
 20 21  1  0
 21 22  1  0
 22 23  1  0
 23 24  1  0
 24 25  1  1
 24 26  1  0
 26 27  1  0
 27 28  1  0
 29 28  1  6
 29 30  1  0
 29 31  1  0
 31 32  2  0
 31 33  1  0
  6 34  2  0
 34 35  1  0
 35 36  2  0
 30 24  1  0
 33 12  1  0
 36  4  1  0
M  END
$$$$
