
     RDKit          3D

 36 38  0  0  0  0  0  0  0  0999 V2000
  -12.3238  -34.1822  -11.4296 C   0  0  0  0  0  0  0  0  0  0  0  0
  -11.7304  -35.5374  -11.1263 C   0  0  0  0  0  0  0  0  0  0  0  0
  -10.3344  -35.5981  -11.7557 C   0  0  0  0  0  0  0  0  0  0  0  0
  -12.5220  -36.6373  -11.6917 C   0  0  0  0  0  0  0  0  0  0  0  0
  -12.7356  -37.8346  -11.0441 C   0  0  0  0  0  0  0  0  0  0  0  0
  -13.5011  -38.8514  -11.6314 C   0  0  0  0  0  0  0  0  0  0  0  0
  -13.7187  -40.1186  -10.9173 C   0  0  0  0  0  0  0  0  0  0  0  0
  -13.9845  -39.9771   -9.5043 N   0  0  0  0  0  0  0  0  0  0  0  0
  -15.3663  -40.3060   -9.2230 C   0  0  0  0  0  0  0  0  0  0  0  0
  -16.1320  -39.2558   -8.4987 C   0  0  1  0  0  0  0  0  0  0  0  0
  -15.9482  -38.0357   -9.1714 O   0  0  0  0  0  0  0  0  0  0  0  0
  -17.5779  -39.5558   -8.2105 C   0  0  2  0  0  0  0  0  0  0  0  0
  -18.3424  -38.2850   -8.2466 C   0  0  0  0  0  0  0  0  0  0  0  0
  -19.6658  -38.2564   -7.5541 C   0  0  2  0  0  0  0  0  0  0  0  0
  -19.5101  -38.3334   -6.0653 C   0  0  0  0  0  0  0  0  0  0  0  0
  -20.7268  -39.1227   -8.1390 C   0  0  0  0  0  0  0  0  0  0  0  0
  -21.6293  -39.7040   -7.0631 C   0  0  0  0  0  0  0  0  0  0  0  0
  -22.8403  -40.3987   -7.7069 C   0  0  0  0  0  0  0  0  0  0  0  0
  -23.0573  -41.6848   -6.9957 C   0  0  0  0  0  0  0  0  0  0  0  0
  -23.5278  -42.8383   -7.7936 C   0  0  0  0  0  0  0  0  0  0  0  0
  -23.3640  -42.7982   -9.2578 C   0  0  0  0  0  0  0  0  0  0  0  0
  -21.9991  -42.9932   -9.8114 C   0  0  0  0  0  0  0  0  0  0  0  0
  -21.3123  -44.2648   -9.4431 C   0  0  0  0  0  0  0  0  0  0  0  0
  -19.8969  -44.0917   -8.9687 C   0  0  1  0  0  0  0  0  0  0  0  0
  -19.6922  -44.9363   -7.8792 O   0  0  0  0  0  0  0  0  0  0  0  0
  -18.8643  -44.4418  -10.0128 C   0  0  0  0  0  0  0  0  0  0  0  0
  -17.5073  -44.4147   -9.3392 C   0  0  0  0  0  0  0  0  0  0  0  0
  -17.2063  -43.0275   -8.7433 C   0  0  0  0  0  0  0  0  0  0  0  0
  -18.2705  -42.7556   -7.7568 C   0  0  2  0  0  0  0  0  0  0  0  0
  -19.5900  -42.6725   -8.5419 C   0  0  0  0  0  0  0  0  0  0  0  0
  -18.1605  -41.6475   -6.8460 C   0  0  0  0  0  0  0  0  0  0  0  0
  -18.5897  -41.8691   -5.6448 O   0  0  0  0  0  0  0  0  0  0  0  0
  -17.6614  -40.3402   -7.0284 N   0  0  0  0  0  0  0  0  0  0  0  0
  -14.0654  -38.6840  -12.8782 C   0  0  0  0  0  0  0  0  0  0  0  0
  -13.8506  -37.4867  -13.5237 C   0  0  0  0  0  0  0  0  0  0  0  0
  -13.0924  -36.4871  -12.9358 C   0  0  0  0  0  0  0  0  0  0  0  0
  1  2  1  0
  2  3  1  0
  2  4  1  0
  4  5  2  0
  5  6  1  0
  6  7  1  0
  7  8  1  0
  8  9  1  0
  9 10  1  0
 10 11  1  6
 10 12  1  0
 12 13  1  1
 13 14  1  0
 14 15  1  1
 14 16  1  0
 16 17  1  0
 17 18  1  0
 18 19  1  0
 19 20  1  0
 20 21  1  0
 21 22  1  0
 22 23  1  0
 23 24  1  0
 24 25  1  1
 24 26  1  0
 26 27  1  0
 27 28  1  0
 29 28  1  6
 29 30  1  0
 29 31  1  0
 31 32  2  0
 31 33  1  0
  6 34  2  0
 34 35  1  0
 35 36  2  0
 30 24  1  0
 33 12  1  0
 36  4  1  0
M  END
$$$$
