
     RDKit          3D

 36 38  0  0  0  0  0  0  0  0999 V2000
  -12.2355  -34.3341  -12.8727 C   0  0  0  0  0  0  0  0  0  0  0  0
  -13.5167  -35.0481  -12.5133 C   0  0  0  0  0  0  0  0  0  0  0  0
  -13.9495  -34.5784  -11.1202 C   0  0  0  0  0  0  0  0  0  0  0  0
  -13.3521  -36.5063  -12.4604 C   0  0  0  0  0  0  0  0  0  0  0  0
  -13.2665  -37.2219  -11.2860 C   0  0  0  0  0  0  0  0  0  0  0  0
  -13.1101  -38.6149  -11.2943 C   0  0  0  0  0  0  0  0  0  0  0  0
  -13.0263  -39.3565  -10.0269 C   0  0  0  0  0  0  0  0  0  0  0  0
  -13.7804  -38.7785   -8.9386 N   0  0  0  0  0  0  0  0  0  0  0  0
  -15.1114  -39.3473   -8.8988 C   0  0  0  0  0  0  0  0  0  0  0  0
  -15.9136  -38.9972   -7.6956 C   0  0  1  0  0  0  0  0  0  0  0  0
  -15.8068  -37.6119   -7.4844 O   0  0  0  0  0  0  0  0  0  0  0  0
  -17.3358  -39.4877   -7.6693 C   0  0  2  0  0  0  0  0  0  0  0  0
  -18.2429  -38.3149   -7.7207 C   0  0  0  0  0  0  0  0  0  0  0  0
  -19.6474  -38.5083   -7.2496 C   0  0  2  0  0  0  0  0  0  0  0  0
  -19.7067  -38.7199   -5.7669 C   0  0  0  0  0  0  0  0  0  0  0  0
  -20.4895  -39.4248   -8.0678 C   0  0  0  0  0  0  0  0  0  0  0  0
  -21.4601  -40.2124   -7.2033 C   0  0  0  0  0  0  0  0  0  0  0  0
  -22.4624  -40.9702   -8.0891 C   0  0  0  0  0  0  0  0  0  0  0  0
  -22.6162  -42.3389   -7.5326 C   0  0  0  0  0  0  0  0  0  0  0  0
  -22.8107  -43.4502   -8.4896 C   0  0  0  0  0  0  0  0  0  0  0  0
  -22.4370  -43.2412   -9.8999 C   0  0  0  0  0  0  0  0  0  0  0  0
  -20.9914  -43.2220  -10.2417 C   0  0  0  0  0  0  0  0  0  0  0  0
  -20.2097  -44.4383   -9.8761 C   0  0  0  0  0  0  0  0  0  0  0  0
  -18.9148  -44.1553   -9.1680 C   0  0  1  0  0  0  0  0  0  0  0  0
  -18.7681  -45.0788   -8.1345 O   0  0  0  0  0  0  0  0  0  0  0  0
  -17.7019  -44.2765  -10.0586 C   0  0  0  0  0  0  0  0  0  0  0  0
  -16.4752  -44.1649   -9.1761 C   0  0  0  0  0  0  0  0  0  0  0  0
  -16.4468  -42.8212   -8.4252 C   0  0  0  0  0  0  0  0  0  0  0  0
  -17.6721  -42.7750   -7.6030 C   0  0  2  0  0  0  0  0  0  0  0  0
  -18.8595  -42.7620   -8.5798 C   0  0  0  0  0  0  0  0  0  0  0  0
  -17.8421  -41.7612   -6.5964 C   0  0  0  0  0  0  0  0  0  0  0  0
  -18.4135  -42.1526   -5.5026 O   0  0  0  0  0  0  0  0  0  0  0  0
  -17.4932  -40.3939   -6.5861 N   0  0  0  0  0  0  0  0  0  0  0  0
  -13.0370  -39.3133  -12.4808 C   0  0  0  0  0  0  0  0  0  0  0  0
  -13.1226  -38.5961  -13.6532 C   0  0  0  0  0  0  0  0  0  0  0  0
  -13.2771  -37.2193  -13.6357 C   0  0  0  0  0  0  0  0  0  0  0  0
  1  2  1  0
  2  3  1  0
  2  4  1  0
  4  5  2  0
  5  6  1  0
  6  7  1  0
  7  8  1  0
  8  9  1  0
  9 10  1  0
 10 11  1  6
 10 12  1  0
 12 13  1  1
 13 14  1  0
 14 15  1  1
 14 16  1  0
 16 17  1  0
 17 18  1  0
 18 19  1  0
 19 20  1  0
 20 21  1  0
 21 22  1  0
 22 23  1  0
 23 24  1  0
 24 25  1  1
 24 26  1  0
 26 27  1  0
 27 28  1  0
 29 28  1  6
 29 30  1  0
 29 31  1  0
 31 32  2  0
 31 33  1  0
  6 34  2  0
 34 35  1  0
 35 36  2  0
 30 24  1  0
 33 12  1  0
 36  4  1  0
M  END
$$$$
