
     RDKit          3D

 36 38  0  0  0  0  0  0  0  0999 V2000
  -17.8333  -34.4478  -11.3736 C   0  0  0  0  0  0  0  0  0  0  0  0
  -17.6085  -35.8634  -11.8492 C   0  0  0  0  0  0  0  0  0  0  0  0
  -18.3388  -36.8100  -10.8903 C   0  0  0  0  0  0  0  0  0  0  0  0
  -16.1887  -36.2379  -11.8492 C   0  0  0  0  0  0  0  0  0  0  0  0
  -15.6768  -37.2874  -11.1177 C   0  0  0  0  0  0  0  0  0  0  0  0
  -14.3111  -37.6010  -11.1556 C   0  0  0  0  0  0  0  0  0  0  0  0
  -13.7901  -38.7296  -10.3693 C   0  0  0  0  0  0  0  0  0  0  0  0
  -14.5856  -39.9334  -10.4413 N   0  0  0  0  0  0  0  0  0  0  0  0
  -15.8937  -39.7000   -9.8660 C   0  0  0  0  0  0  0  0  0  0  0  0
  -16.0010  -39.9714   -8.4070 C   0  0  1  0  0  0  0  0  0  0  0  0
  -15.3055  -38.9618   -7.7202 O   0  0  0  0  0  0  0  0  0  0  0  0
  -17.3857  -40.2034   -7.8661 C   0  0  2  0  0  0  0  0  0  0  0  0
  -18.0649  -38.8922   -7.7232 C   0  0  0  0  0  0  0  0  0  0  0  0
  -19.2356  -38.8191   -6.7980 C   0  0  2  0  0  0  0  0  0  0  0  0
  -18.8161  -38.9641   -5.3664 C   0  0  0  0  0  0  0  0  0  0  0  0
  -20.4364  -39.6020   -7.2024 C   0  0  0  0  0  0  0  0  0  0  0  0
  -21.1613  -40.1758   -5.9962 C   0  0  0  0  0  0  0  0  0  0  0  0
  -22.5095  -40.7769   -6.4258 C   0  0  0  0  0  0  0  0  0  0  0  0
  -22.6714  -42.0766   -5.7250 C   0  0  0  0  0  0  0  0  0  0  0  0
  -23.3490  -43.1698   -6.4560 C   0  0  0  0  0  0  0  0  0  0  0  0
  -23.4528  -43.0800   -7.9235 C   0  0  0  0  0  0  0  0  0  0  0  0
  -22.2263  -43.3270   -8.7247 C   0  0  0  0  0  0  0  0  0  0  0  0
  -21.5628  -44.6479   -8.5269 C   0  0  0  0  0  0  0  0  0  0  0  0
  -20.0768  -44.5716   -8.3168 C   0  0  1  0  0  0  0  0  0  0  0  0
  -19.7288  -45.4692   -7.3090 O   0  0  0  0  0  0  0  0  0  0  0  0
  -19.2752  -44.9355   -9.5432 C   0  0  0  0  0  0  0  0  0  0  0  0
  -17.8190  -45.0096   -9.1308 C   0  0  0  0  0  0  0  0  0  0  0  0
  -17.3303  -43.6660   -8.5601 C   0  0  0  0  0  0  0  0  0  0  0  0
  -18.1781  -43.3761   -7.3868 C   0  0  2  0  0  0  0  0  0  0  0  0
  -19.6111  -43.1896   -7.9123 C   0  0  0  0  0  0  0  0  0  0  0  0
  -17.8364  -42.3131   -6.4796 C   0  0  0  0  0  0  0  0  0  0  0  0
  -18.0521  -42.5590   -5.2269 O   0  0  0  0  0  0  0  0  0  0  0  0
  -17.3001  -41.0288   -6.7125 N   0  0  0  0  0  0  0  0  0  0  0  0
  -13.4361  -36.8673  -11.9282 C   0  0  0  0  0  0  0  0  0  0  0  0
  -13.9498  -35.8189  -12.6584 C   0  0  0  0  0  0  0  0  0  0  0  0
  -15.3011  -35.5157  -12.6149 C   0  0  0  0  0  0  0  0  0  0  0  0
  1  2  1  0
  2  3  1  0
  2  4  1  0
  4  5  2  0
  5  6  1  0
  6  7  1  0
  7  8  1  0
  8  9  1  0
  9 10  1  0
 10 11  1  1
 10 12  1  0
 12 13  1  1
 13 14  1  0
 14 15  1  1
 14 16  1  0
 16 17  1  0
 17 18  1  0
 18 19  1  0
 19 20  1  0
 20 21  1  0
 21 22  1  0
 22 23  1  0
 23 24  1  0
 24 25  1  1
 24 26  1  0
 26 27  1  0
 27 28  1  0
 29 28  1  6
 29 30  1  0
 29 31  1  0
 31 32  2  0
 31 33  1  0
  6 34  2  0
 34 35  1  0
 35 36  2  0
 30 24  1  0
 33 12  1  0
 36  4  1  0
M  END
$$$$
