
     RDKit          3D

 36 38  0  0  0  0  0  0  0  0999 V2000
  -21.1778  -36.2283  -11.7089 C   0  0  0  0  0  0  0  0  0  0  0  0
  -20.1712  -36.1410  -10.5865 C   0  0  0  0  0  0  0  0  0  0  0  0
  -20.5348  -34.9356   -9.7127 C   0  0  0  0  0  0  0  0  0  0  0  0
  -18.8009  -35.9401  -11.0744 C   0  0  0  0  0  0  0  0  0  0  0  0
  -17.8925  -36.9629  -11.2395 C   0  0  0  0  0  0  0  0  0  0  0  0
  -16.5958  -36.7136  -11.7098 C   0  0  0  0  0  0  0  0  0  0  0  0
  -15.6462  -37.8235  -11.8823 C   0  0  0  0  0  0  0  0  0  0  0  0
  -15.0325  -38.2879  -10.6596 N   0  0  0  0  0  0  0  0  0  0  0  0
  -15.9378  -39.1695   -9.9525 C   0  0  0  0  0  0  0  0  0  0  0  0
  -15.3164  -39.9787   -8.8696 C   0  0  1  0  0  0  0  0  0  0  0  0
  -15.0885  -39.1367   -7.7678 O   0  0  0  0  0  0  0  0  0  0  0  0
  -16.0183  -41.2564   -8.4975 C   0  0  2  0  0  0  0  0  0  0  0  0
  -15.0310  -42.1791   -7.8854 C   0  0  0  0  0  0  0  0  0  0  0  0
  -15.3686  -43.6343   -7.8629 C   0  0  2  0  0  0  0  0  0  0  0  0
  -15.3431  -44.2269   -9.2394 C   0  0  0  0  0  0  0  0  0  0  0  0
  -16.5292  -44.0215   -7.0135 C   0  0  0  0  0  0  0  0  0  0  0  0
  -17.3116  -45.1708   -7.6272 C   0  0  0  0  0  0  0  0  0  0  0  0
  -18.3545  -45.6947   -6.6266 C   0  0  0  0  0  0  0  0  0  0  0  0
  -19.6212  -45.9229   -7.3683 C   0  0  0  0  0  0  0  0  0  0  0  0
  -20.8899  -45.6431   -6.6607 C   0  0  0  0  0  0  0  0  0  0  0  0
  -20.8557  -44.7875   -5.4611 C   0  0  0  0  0  0  0  0  0  0  0  0
  -20.6599  -43.3273   -5.6527 C   0  0  0  0  0  0  0  0  0  0  0  0
  -21.6589  -42.6345   -6.5166 C   0  0  0  0  0  0  0  0  0  0  0  0
  -21.0599  -41.7314   -7.5578 C   0  0  1  0  0  0  0  0  0  0  0  0
  -21.7673  -41.9014   -8.7465 O   0  0  0  0  0  0  0  0  0  0  0  0
  -21.1276  -40.2672   -7.1965 C   0  0  0  0  0  0  0  0  0  0  0  0
  -20.6781  -39.4771   -8.4088 C   0  0  0  0  0  0  0  0  0  0  0  0
  -19.2434  -39.8535   -8.8212 C   0  0  0  0  0  0  0  0  0  0  0  0
  -19.2619  -41.2967   -9.1316 C   0  0  2  0  0  0  0  0  0  0  0  0
  -19.5990  -42.0263   -7.8207 C   0  0  0  0  0  0  0  0  0  0  0  0
  -18.1386  -41.9225   -9.7769 C   0  0  0  0  0  0  0  0  0  0  0  0
  -18.4338  -42.8253  -10.6567 O   0  0  0  0  0  0  0  0  0  0  0  0
  -16.7498  -41.7272   -9.6212 N   0  0  0  0  0  0  0  0  0  0  0  0
  -16.1887  -35.4340  -12.0226 C   0  0  0  0  0  0  0  0  0  0  0  0
  -17.0980  -34.4134  -11.8569 C   0  0  0  0  0  0  0  0  0  0  0  0
  -18.3777  -34.6688  -11.3912 C   0  0  0  0  0  0  0  0  0  0  0  0
  1  2  1  0
  2  3  1  0
  2  4  1  0
  4  5  2  0
  5  6  1  0
  6  7  1  0
  7  8  1  0
  8  9  1  0
  9 10  1  0
 10 11  1  1
 10 12  1  0
 12 13  1  6
 13 14  1  0
 14 15  1  6
 14 16  1  0
 16 17  1  0
 17 18  1  0
 18 19  1  0
 19 20  1  0
 20 21  1  0
 21 22  1  0
 22 23  1  0
 23 24  1  0
 24 25  1  6
 24 26  1  0
 26 27  1  0
 27 28  1  0
 29 28  1  1
 29 30  1  0
 29 31  1  0
 31 32  2  0
 31 33  1  0
  6 34  2  0
 34 35  1  0
 35 36  2  0
 30 24  1  0
 33 12  1  0
 36  4  1  0
M  END
$$$$
