
     RDKit          3D

 36 38  0  0  0  0  0  0  0  0999 V2000
  -13.1988  -33.9727  -10.3393 C   0  0  0  0  0  0  0  0  0  0  0  0
  -12.3372  -35.0444  -10.9635 C   0  0  0  0  0  0  0  0  0  0  0  0
  -11.7734  -34.4966  -12.2791 C   0  0  0  0  0  0  0  0  0  0  0  0
  -13.0941  -36.2631  -11.2766 C   0  0  0  0  0  0  0  0  0  0  0  0
  -12.8576  -37.4822  -10.6797 C   0  0  0  0  0  0  0  0  0  0  0  0
  -13.6121  -38.6144  -11.0169 C   0  0  0  0  0  0  0  0  0  0  0  0
  -13.3434  -39.9035  -10.3615 C   0  0  0  0  0  0  0  0  0  0  0  0
  -14.1110  -40.1417   -9.1610 N   0  0  0  0  0  0  0  0  0  0  0  0
  -15.4506  -39.6139   -9.3145 C   0  0  0  0  0  0  0  0  0  0  0  0
  -15.9931  -38.9077   -8.1226 C   0  0  1  0  0  0  0  0  0  0  0  0
  -15.8465  -37.5250   -8.3269 O   0  0  0  0  0  0  0  0  0  0  0  0
  -17.3803  -39.2933   -7.6859 C   0  0  2  0  0  0  0  0  0  0  0  0
  -17.9091  -38.2319   -6.7945 C   0  0  0  0  0  0  0  0  0  0  0  0
  -19.0406  -38.5928   -5.8882 C   0  0  2  0  0  0  0  0  0  0  0  0
  -18.6024  -39.5359   -4.8088 C   0  0  0  0  0  0  0  0  0  0  0  0
  -20.3294  -38.9278   -6.5555 C   0  0  0  0  0  0  0  0  0  0  0  0
  -21.0809  -40.0150   -5.8051 C   0  0  0  0  0  0  0  0  0  0  0  0
  -22.4970  -40.1738   -6.3819 C   0  0  0  0  0  0  0  0  0  0  0  0
  -22.7808  -41.6276   -6.4955 C   0  0  0  0  0  0  0  0  0  0  0  0
  -23.5919  -42.0797   -7.6472 C   0  0  0  0  0  0  0  0  0  0  0  0
  -23.7233  -41.1867   -8.8124 C   0  0  0  0  0  0  0  0  0  0  0  0
  -22.5520  -41.0429   -9.7150 C   0  0  0  0  0  0  0  0  0  0  0  0
  -22.0309  -42.2994  -10.3266 C   0  0  0  0  0  0  0  0  0  0  0  0
  -20.5405  -42.4655  -10.2308 C   0  0  1  0  0  0  0  0  0  0  0  0
  -20.2660  -43.7937   -9.9102 O   0  0  0  0  0  0  0  0  0  0  0  0
  -19.8152  -42.1514  -11.5171 C   0  0  0  0  0  0  0  0  0  0  0  0
  -18.3655  -42.5518  -11.3326 C   0  0  0  0  0  0  0  0  0  0  0  0
  -17.7191  -41.7888  -10.1621 C   0  0  0  0  0  0  0  0  0  0  0  0
  -18.4998  -42.1315   -8.9569 C   0  0  2  0  0  0  0  0  0  0  0  0
  -19.9171  -41.5770   -9.1760 C   0  0  0  0  0  0  0  0  0  0  0  0
  -18.0213  -41.7760   -7.6475 C   0  0  0  0  0  0  0  0  0  0  0  0
  -18.2299  -42.6555   -6.7206 O   0  0  0  0  0  0  0  0  0  0  0  0
  -17.3549  -40.6222   -7.1829 N   0  0  0  0  0  0  0  0  0  0  0  0
  -14.6167  -38.5426  -11.9584 C   0  0  0  0  0  0  0  0  0  0  0  0
  -14.8514  -37.3232  -12.5537 C   0  0  0  0  0  0  0  0  0  0  0  0
  -14.1006  -36.2093  -12.2146 C   0  0  0  0  0  0  0  0  0  0  0  0
  1  2  1  0
  2  3  1  0
  2  4  1  0
  4  5  2  0
  5  6  1  0
  6  7  1  0
  7  8  1  0
  8  9  1  0
  9 10  1  0
 10 11  1  6
 10 12  1  0
 12 13  1  1
 13 14  1  0
 14 15  1  6
 14 16  1  0
 16 17  1  0
 17 18  1  0
 18 19  1  0
 19 20  1  0
 20 21  1  0
 21 22  1  0
 22 23  1  0
 23 24  1  0
 24 25  1  1
 24 26  1  0
 26 27  1  0
 27 28  1  0
 29 28  1  6
 29 30  1  0
 29 31  1  0
 31 32  2  0
 31 33  1  0
  6 34  2  0
 34 35  1  0
 35 36  2  0
 30 24  1  0
 33 12  1  0
 36  4  1  0
M  END
$$$$
