
     RDKit          3D

 36 38  0  0  0  0  0  0  0  0999 V2000
  -13.4735  -34.5452  -11.1456 C   0  0  0  0  0  0  0  0  0  0  0  0
  -12.4412  -35.4238  -11.8112 C   0  0  0  0  0  0  0  0  0  0  0  0
  -11.9852  -34.7310  -13.0999 C   0  0  0  0  0  0  0  0  0  0  0  0
  -12.9765  -36.7407  -12.1791 C   0  0  0  0  0  0  0  0  0  0  0  0
  -12.9884  -37.8240  -11.3278 C   0  0  0  0  0  0  0  0  0  0  0  0
  -13.5131  -39.0595  -11.7319 C   0  0  0  0  0  0  0  0  0  0  0  0
  -13.5187  -40.1994  -10.8025 C   0  0  0  0  0  0  0  0  0  0  0  0
  -13.8650  -39.8656   -9.4402 N   0  0  0  0  0  0  0  0  0  0  0  0
  -15.2701  -40.1260   -9.2063 C   0  0  0  0  0  0  0  0  0  0  0  0
  -15.9503  -39.1614   -8.3005 C   0  0  1  0  0  0  0  0  0  0  0  0
  -15.8552  -37.8808   -8.8715 O   0  0  0  0  0  0  0  0  0  0  0  0
  -17.3498  -39.5119   -7.8735 C   0  0  2  0  0  0  0  0  0  0  0  0
  -18.1071  -38.2554   -7.6529 C   0  0  0  0  0  0  0  0  0  0  0  0
  -19.3328  -38.3292   -6.8019 C   0  0  2  0  0  0  0  0  0  0  0  0
  -18.9914  -38.5908   -5.3660 C   0  0  0  0  0  0  0  0  0  0  0  0
  -20.4628  -39.1273   -7.3537 C   0  0  0  0  0  0  0  0  0  0  0  0
  -21.2253  -39.8495   -6.2551 C   0  0  0  0  0  0  0  0  0  0  0  0
  -22.5107  -40.4716   -6.8244 C   0  0  0  0  0  0  0  0  0  0  0  0
  -22.6423  -41.8393   -6.2595 C   0  0  0  0  0  0  0  0  0  0  0  0
  -23.2145  -42.8888   -7.1311 C   0  0  0  0  0  0  0  0  0  0  0  0
  -23.2361  -42.6631   -8.5875 C   0  0  0  0  0  0  0  0  0  0  0  0
  -21.9526  -42.7714   -9.3279 C   0  0  0  0  0  0  0  0  0  0  0  0
  -21.2305  -44.0712   -9.2120 C   0  0  0  0  0  0  0  0  0  0  0  0
  -19.7659  -43.9428   -8.9008 C   0  0  1  0  0  0  0  0  0  0  0  0
  -19.4295  -44.9152   -7.9607 O   0  0  0  0  0  0  0  0  0  0  0  0
  -18.8745  -44.1471  -10.1019 C   0  0  0  0  0  0  0  0  0  0  0  0
  -17.4434  -44.1892   -9.6057 C   0  0  0  0  0  0  0  0  0  0  0  0
  -17.0637  -42.8846   -8.8820 C   0  0  0  0  0  0  0  0  0  0  0  0
  -17.9940  -42.7510   -7.7436 C   0  0  2  0  0  0  0  0  0  0  0  0
  -19.4015  -42.5851   -8.3403 C   0  0  0  0  0  0  0  0  0  0  0  0
  -17.7654  -41.7649   -6.7213 C   0  0  0  0  0  0  0  0  0  0  0  0
  -18.0411  -42.1406   -5.5134 O   0  0  0  0  0  0  0  0  0  0  0  0
  -17.2875  -40.4394   -6.7986 N   0  0  0  0  0  0  0  0  0  0  0  0
  -14.0348  -39.2288  -12.9968 C   0  0  0  0  0  0  0  0  0  0  0  0
  -14.0219  -38.1448  -13.8460 C   0  0  0  0  0  0  0  0  0  0  0  0
  -13.5012  -36.9273  -13.4383 C   0  0  0  0  0  0  0  0  0  0  0  0
  1  2  1  0
  2  3  1  0
  2  4  1  0
  4  5  2  0
  5  6  1  0
  6  7  1  0
  7  8  1  0
  8  9  1  0
  9 10  1  0
 10 11  1  6
 10 12  1  0
 12 13  1  1
 13 14  1  0
 14 15  1  1
 14 16  1  0
 16 17  1  0
 17 18  1  0
 18 19  1  0
 19 20  1  0
 20 21  1  0
 21 22  1  0
 22 23  1  0
 23 24  1  0
 24 25  1  1
 24 26  1  0
 26 27  1  0
 27 28  1  0
 29 28  1  6
 29 30  1  0
 29 31  1  0
 31 32  2  0
 31 33  1  0
  6 34  2  0
 34 35  1  0
 35 36  2  0
 30 24  1  0
 33 12  1  0
 36  4  1  0
M  END
$$$$
