
     RDKit          3D

 36 38  0  0  0  0  0  0  0  0999 V2000
  -23.8403  -41.3226   -4.1567 C   0  0  0  0  0  0  0  0  0  0  0  0
  -22.7208  -41.9984   -4.9121 C   0  0  0  0  0  0  0  0  0  0  0  0
  -21.5020  -42.0793   -3.9865 C   0  0  0  0  0  0  0  0  0  0  0  0
  -22.3205  -41.2515   -6.1113 C   0  0  0  0  0  0  0  0  0  0  0  0
  -21.3483  -40.2751   -6.1124 C   0  0  0  0  0  0  0  0  0  0  0  0
  -21.0053  -39.5932   -7.2880 C   0  0  0  0  0  0  0  0  0  0  0  0
  -19.9604  -38.5583   -7.2639 C   0  0  0  0  0  0  0  0  0  0  0  0
  -18.7238  -38.9640   -6.6366 N   0  0  0  0  0  0  0  0  0  0  0  0
  -17.6524  -38.9750   -7.6107 C   0  0  0  0  0  0  0  0  0  0  0  0
  -16.2978  -39.2468   -7.0585 C   0  0  1  0  0  0  0  0  0  0  0  0
  -16.3524  -40.4492   -6.3331 O   0  0  0  0  0  0  0  0  0  0  0  0
  -15.1524  -39.1999   -8.0330 C   0  0  2  0  0  0  0  0  0  0  0  0
  -13.9447  -38.7129   -7.3224 C   0  0  0  0  0  0  0  0  0  0  0  0
  -12.8358  -38.1521   -8.1517 C   0  0  2  0  0  0  0  0  0  0  0  0
  -13.2208  -36.8442   -8.7744 C   0  0  0  0  0  0  0  0  0  0  0  0
  -12.1411  -39.1162   -9.0497 C   0  0  0  0  0  0  0  0  0  0  0  0
  -11.7131  -38.4585  -10.3512 C   0  0  0  0  0  0  0  0  0  0  0  0
  -10.8054  -39.4077  -11.1502 C   0  0  0  0  0  0  0  0  0  0  0  0
  -11.2285  -39.3504  -12.5730 C   0  0  0  0  0  0  0  0  0  0  0  0
  -11.1528  -40.5999  -13.3615 C   0  0  0  0  0  0  0  0  0  0  0  0
  -11.0750  -41.8846  -12.6433 C   0  0  0  0  0  0  0  0  0  0  0  0
  -12.3082  -42.3922  -11.9886 C   0  0  0  0  0  0  0  0  0  0  0  0
  -13.4936  -42.5862  -12.8725 C   0  0  0  0  0  0  0  0  0  0  0  0
  -14.7718  -42.0078  -12.3339 C   0  0  1  0  0  0  0  0  0  0  0  0
  -15.4528  -41.3937  -13.3834 O   0  0  0  0  0  0  0  0  0  0  0  0
  -15.6967  -43.0413  -11.7376 C   0  0  0  0  0  0  0  0  0  0  0  0
  -17.0094  -42.3520  -11.4247 C   0  0  0  0  0  0  0  0  0  0  0  0
  -16.8088  -41.1895  -10.4356 C   0  0  0  0  0  0  0  0  0  0  0  0
  -15.8786  -40.2440  -11.0837 C   0  0  2  0  0  0  0  0  0  0  0  0
  -14.5395  -40.9823  -11.2454 C   0  0  0  0  0  0  0  0  0  0  0  0
  -15.6627  -38.9330  -10.5320 C   0  0  0  0  0  0  0  0  0  0  0  0
  -15.5359  -37.9784  -11.3974 O   0  0  0  0  0  0  0  0  0  0  0  0
  -15.5619  -38.4921   -9.1953 N   0  0  0  0  0  0  0  0  0  0  0  0
  -21.6317  -39.8795   -8.4824 C   0  0  0  0  0  0  0  0  0  0  0  0
  -22.6030  -40.8557   -8.4791 C   0  0  0  0  0  0  0  0  0  0  0  0
  -22.9359  -41.5246   -7.3123 C   0  0  0  0  0  0  0  0  0  0  0  0
  1  2  1  0
  2  3  1  0
  2  4  1  0
  4  5  2  0
  5  6  1  0
  6  7  1  0
  7  8  1  0
  8  9  1  0
  9 10  1  0
 10 11  1  6
 10 12  1  0
 12 13  1  1
 13 14  1  0
 14 15  1  6
 14 16  1  0
 16 17  1  0
 17 18  1  0
 18 19  1  0
 19 20  1  0
 20 21  1  0
 21 22  1  0
 22 23  1  0
 23 24  1  0
 24 25  1  6
 24 26  1  0
 26 27  1  0
 27 28  1  0
 29 28  1  1
 29 30  1  0
 29 31  1  0
 31 32  2  0
 31 33  1  0
  6 34  2  0
 34 35  1  0
 35 36  2  0
 30 24  1  0
 33 12  1  0
 36  4  1  0
M  END
$$$$
