
     RDKit          3D

 36 38  0  0  0  0  0  0  0  0999 V2000
  -11.1079  -35.7405  -12.2650 C   0  0  0  0  0  0  0  0  0  0  0  0
  -12.5215  -35.8034  -12.7927 C   0  0  0  0  0  0  0  0  0  0  0  0
  -13.4201  -35.0014  -11.8451 C   0  0  0  0  0  0  0  0  0  0  0  0
  -13.0417  -37.1755  -12.8449 C   0  0  0  0  0  0  0  0  0  0  0  0
  -12.9840  -38.0539  -11.7849 C   0  0  0  0  0  0  0  0  0  0  0  0
  -13.4975  -39.3539  -11.8903 C   0  0  0  0  0  0  0  0  0  0  0  0
  -13.4282  -40.2710  -10.7425 C   0  0  0  0  0  0  0  0  0  0  0  0
  -13.9442  -39.7303   -9.5061 N   0  0  0  0  0  0  0  0  0  0  0  0
  -15.3500  -40.0502   -9.3721 C   0  0  0  0  0  0  0  0  0  0  0  0
  -16.1953  -38.9635   -8.8078 C   0  0  1  0  0  0  0  0  0  0  0  0
  -16.3048  -37.9468   -9.7717 O   0  0  0  0  0  0  0  0  0  0  0  0
  -17.5240  -39.3744   -8.2335 C   0  0  2  0  0  0  0  0  0  0  0  0
  -18.4068  -38.1832   -8.1813 C   0  0  0  0  0  0  0  0  0  0  0  0
  -19.5737  -38.2300   -7.2495 C   0  0  2  0  0  0  0  0  0  0  0  0
  -19.1358  -38.1955   -5.8165 C   0  0  0  0  0  0  0  0  0  0  0  0
  -20.6316  -39.2254   -7.5787 C   0  0  0  0  0  0  0  0  0  0  0  0
  -21.2537  -39.8150   -6.3236 C   0  0  0  0  0  0  0  0  0  0  0  0
  -22.4866  -40.6572   -6.6897 C   0  0  0  0  0  0  0  0  0  0  0  0
  -22.4353  -41.9087   -5.8910 C   0  0  0  0  0  0  0  0  0  0  0  0
  -22.9268  -43.1497   -6.5289 C   0  0  0  0  0  0  0  0  0  0  0  0
  -23.0441  -43.1902   -7.9976 C   0  0  0  0  0  0  0  0  0  0  0  0
  -21.7940  -43.2960   -8.7933 C   0  0  0  0  0  0  0  0  0  0  0  0
  -20.9249  -44.4733   -8.5050 C   0  0  0  0  0  0  0  0  0  0  0  0
  -19.4709  -44.1418   -8.3199 C   0  0  1  0  0  0  0  0  0  0  0  0
  -18.9817  -44.8916   -7.2518 O   0  0  0  0  0  0  0  0  0  0  0  0
  -18.6212  -44.4639   -9.5254 C   0  0  0  0  0  0  0  0  0  0  0  0
  -17.1722  -44.2698   -9.1270 C   0  0  0  0  0  0  0  0  0  0  0  0
  -16.9077  -42.8252   -8.6653 C   0  0  0  0  0  0  0  0  0  0  0  0
  -17.7911  -42.5875   -7.5066 C   0  0  2  0  0  0  0  0  0  0  0  0
  -19.2354  -42.6758   -8.0266 C   0  0  0  0  0  0  0  0  0  0  0  0
  -17.6262  -41.4170   -6.6865 C   0  0  0  0  0  0  0  0  0  0  0  0
  -17.7989  -41.5981   -5.4162 O   0  0  0  0  0  0  0  0  0  0  0  0
  -17.3053  -40.0845   -7.0221 N   0  0  0  0  0  0  0  0  0  0  0  0
  -14.0777  -39.7945  -13.0608 C   0  0  0  0  0  0  0  0  0  0  0  0
  -14.1344  -38.9151  -14.1189 C   0  0  0  0  0  0  0  0  0  0  0  0
  -13.6242  -37.6319  -14.0061 C   0  0  0  0  0  0  0  0  0  0  0  0
  1  2  1  0
  2  3  1  0
  2  4  1  0
  4  5  2  0
  5  6  1  0
  6  7  1  0
  7  8  1  0
  8  9  1  0
  9 10  1  0
 10 11  1  6
 10 12  1  0
 12 13  1  1
 13 14  1  0
 14 15  1  1
 14 16  1  0
 16 17  1  0
 17 18  1  0
 18 19  1  0
 19 20  1  0
 20 21  1  0
 21 22  1  0
 22 23  1  0
 23 24  1  0
 24 25  1  1
 24 26  1  0
 26 27  1  0
 27 28  1  0
 29 28  1  6
 29 30  1  0
 29 31  1  0
 31 32  2  0
 31 33  1  0
  6 34  2  0
 34 35  1  0
 35 36  2  0
 30 24  1  0
 33 12  1  0
 36  4  1  0
M  END
$$$$
