
     RDKit          3D

 36 38  0  0  0  0  0  0  0  0999 V2000
   -9.8317  -37.1355  -11.9689 C   0  0  0  0  0  0  0  0  0  0  0  0
  -10.7274  -36.4495  -10.9651 C   0  0  0  0  0  0  0  0  0  0  0  0
  -10.5658  -37.1612   -9.6175 C   0  0  0  0  0  0  0  0  0  0  0  0
  -12.1461  -36.5185  -11.3378 C   0  0  0  0  0  0  0  0  0  0  0  0
  -12.9927  -37.5274  -10.9329 C   0  0  0  0  0  0  0  0  0  0  0  0
  -14.3403  -37.5431  -11.3185 C   0  0  0  0  0  0  0  0  0  0  0  0
  -15.2249  -38.6286  -10.8688 C   0  0  0  0  0  0  0  0  0  0  0  0
  -16.4887  -38.1902  -10.3230 N   0  0  0  0  0  0  0  0  0  0  0  0
  -16.4023  -38.0987   -8.8805 C   0  0  0  0  0  0  0  0  0  0  0  0
  -16.4352  -39.4005   -8.1607 C   0  0  1  0  0  0  0  0  0  0  0  0
  -15.5802  -39.3093   -7.0491 O   0  0  0  0  0  0  0  0  0  0  0  0
  -17.7949  -39.9429   -7.8134 C   0  0  2  0  0  0  0  0  0  0  0  0
  -18.7168  -38.8027   -7.5877 C   0  0  0  0  0  0  0  0  0  0  0  0
  -19.9585  -39.0653   -6.7996 C   0  0  2  0  0  0  0  0  0  0  0  0
  -19.6489  -39.3374   -5.3585 C   0  0  0  0  0  0  0  0  0  0  0  0
  -20.9511  -39.9787   -7.4313 C   0  0  0  0  0  0  0  0  0  0  0  0
  -21.6610  -40.8346   -6.3954 C   0  0  0  0  0  0  0  0  0  0  0  0
  -22.8294  -41.5926   -7.0462 C   0  0  0  0  0  0  0  0  0  0  0  0
  -22.8078  -42.9869   -6.5342 C   0  0  0  0  0  0  0  0  0  0  0  0
  -23.2015  -44.0658   -7.4667 C   0  0  0  0  0  0  0  0  0  0  0  0
  -23.1887  -43.7878   -8.9141 C   0  0  0  0  0  0  0  0  0  0  0  0
  -21.8711  -43.7026   -9.5952 C   0  0  0  0  0  0  0  0  0  0  0  0
  -20.9930  -44.9034   -9.4880 C   0  0  0  0  0  0  0  0  0  0  0  0
  -19.5722  -44.6018   -9.1026 C   0  0  1  0  0  0  0  0  0  0  0  0
  -19.1542  -45.5595   -8.1804 O   0  0  0  0  0  0  0  0  0  0  0  0
  -18.6105  -44.6437  -10.2656 C   0  0  0  0  0  0  0  0  0  0  0  0
  -17.2088  -44.5226   -9.7028 C   0  0  0  0  0  0  0  0  0  0  0  0
  -17.0324  -43.2095   -8.9187 C   0  0  0  0  0  0  0  0  0  0  0  0
  -18.0208  -43.2403   -7.8226 C   0  0  2  0  0  0  0  0  0  0  0  0
  -19.4106  -43.2317   -8.4804 C   0  0  0  0  0  0  0  0  0  0  0  0
  -17.9659  -42.2739   -6.7582 C   0  0  0  0  0  0  0  0  0  0  0  0
  -18.2430  -42.7288   -5.5782 O   0  0  0  0  0  0  0  0  0  0  0  0
  -17.6601  -40.8964   -6.7683 N   0  0  0  0  0  0  0  0  0  0  0  0
  -14.8611  -36.5468  -12.1167 C   0  0  0  0  0  0  0  0  0  0  0  0
  -14.0132  -35.5396  -12.5202 C   0  0  0  0  0  0  0  0  0  0  0  0
  -12.6825  -35.5321  -12.1345 C   0  0  0  0  0  0  0  0  0  0  0  0
  1  2  1  0
  2  3  1  0
  2  4  1  0
  4  5  2  0
  5  6  1  0
  6  7  1  0
  7  8  1  0
  8  9  1  0
  9 10  1  0
 10 11  1  1
 10 12  1  0
 12 13  1  1
 13 14  1  0
 14 15  1  1
 14 16  1  0
 16 17  1  0
 17 18  1  0
 18 19  1  0
 19 20  1  0
 20 21  1  0
 21 22  1  0
 22 23  1  0
 23 24  1  0
 24 25  1  1
 24 26  1  0
 26 27  1  0
 27 28  1  0
 29 28  1  6
 29 30  1  0
 29 31  1  0
 31 32  2  0
 31 33  1  0
  6 34  2  0
 34 35  1  0
 35 36  2  0
 30 24  1  0
 33 12  1  0
 36  4  1  0
M  END
$$$$
