
     RDKit          3D

 36 38  0  0  0  0  0  0  0  0999 V2000
  -22.7094  -40.7177   -3.6036 C   0  0  0  0  0  0  0  0  0  0  0  0
  -21.9997  -41.7953   -4.3883 C   0  0  0  0  0  0  0  0  0  0  0  0
  -20.6196  -42.0129   -3.7585 C   0  0  0  0  0  0  0  0  0  0  0  0
  -21.7942  -41.4244   -5.7941 C   0  0  0  0  0  0  0  0  0  0  0  0
  -21.6135  -40.1272   -6.2220 C   0  0  0  0  0  0  0  0  0  0  0  0
  -21.4207  -39.8301   -7.5783 C   0  0  0  0  0  0  0  0  0  0  0  0
  -21.2251  -38.4375   -8.0091 C   0  0  0  0  0  0  0  0  0  0  0  0
  -20.0082  -38.2007   -8.7510 N   0  0  0  0  0  0  0  0  0  0  0  0
  -18.9848  -39.1389   -8.3400 C   0  0  0  0  0  0  0  0  0  0  0  0
  -17.7335  -38.5234   -7.8212 C   0  0  1  0  0  0  0  0  0  0  0  0
  -17.4952  -39.0319   -6.5330 O   0  0  0  0  0  0  0  0  0  0  0  0
  -16.5258  -38.5991   -8.7154 C   0  0  2  0  0  0  0  0  0  0  0  0
  -15.5887  -37.5121   -8.3398 C   0  0  0  0  0  0  0  0  0  0  0  0
  -14.5690  -37.1004   -9.3511 C   0  0  2  0  0  0  0  0  0  0  0  0
  -15.2006  -36.4020  -10.5172 C   0  0  0  0  0  0  0  0  0  0  0  0
  -13.5374  -38.1201   -9.6895 C   0  0  0  0  0  0  0  0  0  0  0  0
  -13.1344  -38.0426  -11.1528 C   0  0  0  0  0  0  0  0  0  0  0  0
  -11.9154  -38.9423  -11.4142 C   0  0  0  0  0  0  0  0  0  0  0  0
  -12.1537  -39.6720  -12.6860 C   0  0  0  0  0  0  0  0  0  0  0  0
  -11.6535  -41.0608  -12.7836 C   0  0  0  0  0  0  0  0  0  0  0  0
  -11.3340  -41.7854  -11.5405 C   0  0  0  0  0  0  0  0  0  0  0  0
  -12.4643  -42.2688  -10.7062 C   0  0  0  0  0  0  0  0  0  0  0  0
  -13.4347  -43.1833  -11.3742 C   0  0  0  0  0  0  0  0  0  0  0  0
  -14.8776  -42.8223  -11.1596 C   0  0  1  0  0  0  0  0  0  0  0  0
  -15.5562  -42.9882  -12.3656 O   0  0  0  0  0  0  0  0  0  0  0  0
  -15.5677  -43.6841  -10.1300 C   0  0  0  0  0  0  0  0  0  0  0  0
  -17.0439  -43.3440  -10.1661 C   0  0  0  0  0  0  0  0  0  0  0  0
  -17.2827  -41.8554   -9.8546 C   0  0  0  0  0  0  0  0  0  0  0  0
  -16.5579  -41.0897  -10.8879 C   0  0  2  0  0  0  0  0  0  0  0  0
  -15.0629  -41.3937  -10.6958 C   0  0  0  0  0  0  0  0  0  0  0  0
  -16.7652  -39.6733  -11.0316 C   0  0  0  0  0  0  0  0  0  0  0  0
  -16.7836  -39.2339  -12.2493 O   0  0  0  0  0  0  0  0  0  0  0  0
  -16.9547  -38.6592  -10.0689 N   0  0  0  0  0  0  0  0  0  0  0  0
  -21.4058  -40.8295   -8.5280 C   0  0  0  0  0  0  0  0  0  0  0  0
  -21.5866  -42.1252   -8.0982 C   0  0  0  0  0  0  0  0  0  0  0  0
  -21.7766  -42.4098   -6.7556 C   0  0  0  0  0  0  0  0  0  0  0  0
  1  2  1  0
  2  3  1  0
  2  4  1  0
  4  5  2  0
  5  6  1  0
  6  7  1  0
  7  8  1  0
  8  9  1  0
  9 10  1  0
 10 11  1  1
 10 12  1  0
 12 13  1  6
 13 14  1  0
 14 15  1  6
 14 16  1  0
 16 17  1  0
 17 18  1  0
 18 19  1  0
 19 20  1  0
 20 21  1  0
 21 22  1  0
 22 23  1  0
 23 24  1  0
 24 25  1  6
 24 26  1  0
 26 27  1  0
 27 28  1  0
 29 28  1  1
 29 30  1  0
 29 31  1  0
 31 32  2  0
 31 33  1  0
  6 34  2  0
 34 35  1  0
 35 36  2  0
 30 24  1  0
 33 12  1  0
 36  4  1  0
M  END
$$$$
