
     RDKit          3D

 36 38  0  0  0  0  0  0  0  0999 V2000
  -12.6493  -34.2838  -11.4520 C   0  0  0  0  0  0  0  0  0  0  0  0
  -13.8384  -34.8218  -12.2117 C   0  0  0  0  0  0  0  0  0  0  0  0
  -15.1048  -34.4793  -11.4194 C   0  0  0  0  0  0  0  0  0  0  0  0
  -13.7923  -36.2810  -12.3685 C   0  0  0  0  0  0  0  0  0  0  0  0
  -13.4630  -37.1475  -11.3490 C   0  0  0  0  0  0  0  0  0  0  0  0
  -13.4351  -38.5338  -11.5548 C   0  0  0  0  0  0  0  0  0  0  0  0
  -13.0854  -39.4381  -10.4489 C   0  0  0  0  0  0  0  0  0  0  0  0
  -14.0224  -40.5161  -10.2315 N   0  0  0  0  0  0  0  0  0  0  0  0
  -15.3429  -39.9821   -9.9715 C   0  0  0  0  0  0  0  0  0  0  0  0
  -15.7133  -39.8818   -8.5340 C   0  0  1  0  0  0  0  0  0  0  0  0
  -15.1474  -38.7044   -8.0158 O   0  0  0  0  0  0  0  0  0  0  0  0
  -17.1742  -40.0261   -8.2042 C   0  0  2  0  0  0  0  0  0  0  0  0
  -17.8713  -38.7714   -8.5790 C   0  0  0  0  0  0  0  0  0  0  0  0
  -19.1946  -38.5005   -7.9407 C   0  0  2  0  0  0  0  0  0  0  0  0
  -19.0500  -38.1993   -6.4796 C   0  0  0  0  0  0  0  0  0  0  0  0
  -20.2966  -39.4351   -8.3023 C   0  0  0  0  0  0  0  0  0  0  0  0
  -21.2330  -39.6748   -7.1295 C   0  0  0  0  0  0  0  0  0  0  0  0
  -22.4755  -40.4514   -7.5948 C   0  0  0  0  0  0  0  0  0  0  0  0
  -22.7625  -41.4988   -6.5812 C   0  0  0  0  0  0  0  0  0  0  0  0
  -23.2887  -42.7943   -7.0643 C   0  0  0  0  0  0  0  0  0  0  0  0
  -23.1163  -43.1405   -8.4866 C   0  0  0  0  0  0  0  0  0  0  0  0
  -21.7610  -43.5383   -8.9470 C   0  0  0  0  0  0  0  0  0  0  0  0
  -21.1429  -44.7043   -8.2524 C   0  0  0  0  0  0  0  0  0  0  0  0
  -19.7226  -44.4847   -7.8133 C   0  0  1  0  0  0  0  0  0  0  0  0
  -19.5671  -45.0294   -6.5399 O   0  0  0  0  0  0  0  0  0  0  0  0
  -18.7049  -45.1421   -8.7139 C   0  0  0  0  0  0  0  0  0  0  0  0
  -17.3514  -45.0092   -8.0458 C   0  0  0  0  0  0  0  0  0  0  0  0
  -16.9814  -43.5319   -7.8208 C   0  0  0  0  0  0  0  0  0  0  0  0
  -18.0344  -42.9634   -6.9564 C   0  0  2  0  0  0  0  0  0  0  0  0
  -19.3442  -43.0204   -7.7598 C   0  0  0  0  0  0  0  0  0  0  0  0
  -17.8711  -41.6649   -6.3588 C   0  0  0  0  0  0  0  0  0  0  0  0
  -18.3168  -41.5485   -5.1489 O   0  0  0  0  0  0  0  0  0  0  0  0
  -17.3038  -40.4748   -6.8620 N   0  0  0  0  0  0  0  0  0  0  0  0
  -13.7373  -39.0741  -12.7868 C   0  0  0  0  0  0  0  0  0  0  0  0
  -14.0660  -38.2063  -13.8042 C   0  0  0  0  0  0  0  0  0  0  0  0
  -14.0909  -36.8373  -13.5920 C   0  0  0  0  0  0  0  0  0  0  0  0
  1  2  1  0
  2  3  1  0
  2  4  1  0
  4  5  2  0
  5  6  1  0
  6  7  1  0
  7  8  1  0
  8  9  1  0
  9 10  1  0
 10 11  1  6
 10 12  1  0
 12 13  1  1
 13 14  1  0
 14 15  1  1
 14 16  1  0
 16 17  1  0
 17 18  1  0
 18 19  1  0
 19 20  1  0
 20 21  1  0
 21 22  1  0
 22 23  1  0
 23 24  1  0
 24 25  1  1
 24 26  1  0
 26 27  1  0
 27 28  1  0
 29 28  1  6
 29 30  1  0
 29 31  1  0
 31 32  2  0
 31 33  1  0
  6 34  2  0
 34 35  1  0
 35 36  2  0
 30 24  1  0
 33 12  1  0
 36  4  1  0
M  END
$$$$
