
     RDKit          3D

 36 38  0  0  0  0  0  0  0  0999 V2000
  -10.6541  -36.0288  -10.9355 C   0  0  0  0  0  0  0  0  0  0  0  0
  -11.9394  -36.0758  -11.7270 C   0  0  0  0  0  0  0  0  0  0  0  0
  -12.9824  -35.2260  -10.9930 C   0  0  0  0  0  0  0  0  0  0  0  0
  -12.4774  -37.4369  -11.8454 C   0  0  0  0  0  0  0  0  0  0  0  0
  -12.4641  -38.3543  -10.8175 C   0  0  0  0  0  0  0  0  0  0  0  0
  -12.9928  -39.6416  -10.9861 C   0  0  0  0  0  0  0  0  0  0  0  0
  -12.9712  -40.6011   -9.8716 C   0  0  0  0  0  0  0  0  0  0  0  0
  -13.4069  -40.0630   -8.6035 N   0  0  0  0  0  0  0  0  0  0  0  0
  -14.7963  -40.3985   -8.3722 C   0  0  0  0  0  0  0  0  0  0  0  0
  -15.6898  -39.2409   -8.0975 C   0  0  1  0  0  0  0  0  0  0  0  0
  -15.4275  -38.2467   -9.0556 O   0  0  0  0  0  0  0  0  0  0  0  0
  -17.1563  -39.5431   -7.9506 C   0  0  2  0  0  0  0  0  0  0  0  0
  -17.9088  -38.2648   -7.9748 C   0  0  0  0  0  0  0  0  0  0  0  0
  -19.2860  -38.2641   -7.3958 C   0  0  2  0  0  0  0  0  0  0  0  0
  -19.2573  -38.4308   -5.9065 C   0  0  0  0  0  0  0  0  0  0  0  0
  -20.2979  -39.0837   -8.1188 C   0  0  0  0  0  0  0  0  0  0  0  0
  -21.2911  -39.7187   -7.1596 C   0  0  0  0  0  0  0  0  0  0  0  0
  -22.4465  -40.3620   -7.9436 C   0  0  0  0  0  0  0  0  0  0  0  0
  -22.7293  -41.6857   -7.3315 C   0  0  0  0  0  0  0  0  0  0  0  0
  -23.1362  -42.7853   -8.2338 C   0  0  0  0  0  0  0  0  0  0  0  0
  -22.8487  -42.6600   -9.6740 C   0  0  0  0  0  0  0  0  0  0  0  0
  -21.4429  -42.8355  -10.1213 C   0  0  0  0  0  0  0  0  0  0  0  0
  -20.7959  -44.1334   -9.7733 C   0  0  0  0  0  0  0  0  0  0  0  0
  -19.4249  -44.0028   -9.1718 C   0  0  1  0  0  0  0  0  0  0  0  0
  -19.3174  -44.9125   -8.1214 O   0  0  0  0  0  0  0  0  0  0  0  0
  -18.3093  -44.3007  -10.1443 C   0  0  0  0  0  0  0  0  0  0  0  0
  -17.0141  -44.3270   -9.3583 C   0  0  0  0  0  0  0  0  0  0  0  0
  -16.7579  -42.9806   -8.6571 C   0  0  0  0  0  0  0  0  0  0  0  0
  -17.9005  -42.7571   -7.7494 C   0  0  2  0  0  0  0  0  0  0  0  0
  -19.1483  -42.6145   -8.6364 C   0  0  0  0  0  0  0  0  0  0  0  0
  -17.8626  -41.7060   -6.7677 C   0  0  0  0  0  0  0  0  0  0  0  0
  -18.3932  -41.9942   -5.6224 O   0  0  0  0  0  0  0  0  0  0  0  0
  -17.3435  -40.3953   -6.8289 N   0  0  0  0  0  0  0  0  0  0  0  0
  -13.5438  -40.0300  -12.1888 C   0  0  0  0  0  0  0  0  0  0  0  0
  -13.5560  -39.1115  -13.2147 C   0  0  0  0  0  0  0  0  0  0  0  0
  -13.0311  -37.8414  -13.0393 C   0  0  0  0  0  0  0  0  0  0  0  0
  1  2  1  0
  2  3  1  0
  2  4  1  0
  4  5  2  0
  5  6  1  0
  6  7  1  0
  7  8  1  0
  8  9  1  0
  9 10  1  0
 10 11  1  6
 10 12  1  0
 12 13  1  1
 13 14  1  0
 14 15  1  1
 14 16  1  0
 16 17  1  0
 17 18  1  0
 18 19  1  0
 19 20  1  0
 20 21  1  0
 21 22  1  0
 22 23  1  0
 23 24  1  0
 24 25  1  1
 24 26  1  0
 26 27  1  0
 27 28  1  0
 29 28  1  6
 29 30  1  0
 29 31  1  0
 31 32  2  0
 31 33  1  0
  6 34  2  0
 34 35  1  0
 35 36  2  0
 30 24  1  0
 33 12  1  0
 36  4  1  0
M  END
$$$$
