
     RDKit          3D

 36 38  0  0  0  0  0  0  0  0999 V2000
  -12.2180  -34.7147   -9.8857 C   0  0  0  0  0  0  0  0  0  0  0  0
  -12.5238  -34.9136  -11.3511 C   0  0  0  0  0  0  0  0  0  0  0  0
  -13.9645  -34.4560  -11.6038 C   0  0  0  0  0  0  0  0  0  0  0  0
  -12.4252  -36.3203  -11.7604 C   0  0  0  0  0  0  0  0  0  0  0  0
  -13.0263  -37.3565  -11.0796 C   0  0  0  0  0  0  0  0  0  0  0  0
  -12.8993  -38.6825  -11.5159 C   0  0  0  0  0  0  0  0  0  0  0  0
  -13.5549  -39.7704  -10.7744 C   0  0  0  0  0  0  0  0  0  0  0  0
  -14.9273  -40.0169  -11.1527 N   0  0  0  0  0  0  0  0  0  0  0  0
  -15.7992  -39.8265  -10.0124 C   0  0  0  0  0  0  0  0  0  0  0  0
  -17.1842  -39.3927  -10.3401 C   0  0  1  0  0  0  0  0  0  0  0  0
  -17.5208  -39.9138  -11.6010 O   0  0  0  0  0  0  0  0  0  0  0  0
  -18.2357  -39.6545   -9.2962 C   0  0  2  0  0  0  0  0  0  0  0  0
  -19.0814  -38.4432   -9.1608 C   0  0  0  0  0  0  0  0  0  0  0  0
  -19.8711  -38.2906   -7.9017 C   0  0  2  0  0  0  0  0  0  0  0  0
  -18.9833  -38.0259   -6.7235 C   0  0  0  0  0  0  0  0  0  0  0  0
  -20.9523  -39.2918   -7.6847 C   0  0  0  0  0  0  0  0  0  0  0  0
  -21.1069  -39.6367   -6.2127 C   0  0  0  0  0  0  0  0  0  0  0  0
  -22.3693  -40.4874   -5.9984 C   0  0  0  0  0  0  0  0  0  0  0  0
  -22.0236  -41.5847   -5.0585 C   0  0  0  0  0  0  0  0  0  0  0  0
  -22.6669  -42.8994   -5.2733 C   0  0  0  0  0  0  0  0  0  0  0  0
  -23.2641  -43.1868   -6.5898 C   0  0  0  0  0  0  0  0  0  0  0  0
  -22.3469  -43.4691   -7.7239 C   0  0  0  0  0  0  0  0  0  0  0  0
  -21.4014  -44.6080   -7.5412 C   0  0  0  0  0  0  0  0  0  0  0  0
  -19.9775  -44.2985   -7.9086 C   0  0  1  0  0  0  0  0  0  0  0  0
  -19.1422  -44.8703   -6.9506 O   0  0  0  0  0  0  0  0  0  0  0  0
  -19.5683  -44.8505   -9.2528 C   0  0  0  0  0  0  0  0  0  0  0  0
  -18.0747  -44.6396   -9.3969 C   0  0  0  0  0  0  0  0  0  0  0  0
  -17.7092  -43.1469   -9.3055 C   0  0  0  0  0  0  0  0  0  0  0  0
  -18.1635  -42.6850   -7.9790 C   0  0  2  0  0  0  0  0  0  0  0  0
  -19.6958  -42.8127   -7.9675 C   0  0  0  0  0  0  0  0  0  0  0  0
  -17.7658  -41.3975   -7.4749 C   0  0  0  0  0  0  0  0  0  0  0  0
  -17.5022  -41.3526   -6.2081 O   0  0  0  0  0  0  0  0  0  0  0  0
  -17.6090  -40.1536   -8.1225 N   0  0  0  0  0  0  0  0  0  0  0  0
  -12.1672  -38.9912  -12.6427 C   0  0  0  0  0  0  0  0  0  0  0  0
  -11.5673  -37.9542  -13.3216 C   0  0  0  0  0  0  0  0  0  0  0  0
  -11.6979  -36.6464  -12.8830 C   0  0  0  0  0  0  0  0  0  0  0  0
  1  2  1  0
  2  3  1  0
  2  4  1  0
  4  5  2  0
  5  6  1  0
  6  7  1  0
  7  8  1  0
  8  9  1  0
  9 10  1  0
 10 11  1  6
 10 12  1  0
 12 13  1  1
 13 14  1  0
 14 15  1  1
 14 16  1  0
 16 17  1  0
 17 18  1  0
 18 19  1  0
 19 20  1  0
 20 21  1  0
 21 22  1  0
 22 23  1  0
 23 24  1  0
 24 25  1  1
 24 26  1  0
 26 27  1  0
 27 28  1  0
 29 28  1  6
 29 30  1  0
 29 31  1  0
 31 32  2  0
 31 33  1  0
  6 34  2  0
 34 35  1  0
 35 36  2  0
 30 24  1  0
 33 12  1  0
 36  4  1  0
M  END
$$$$
