
     RDKit          3D

 36 38  0  0  0  0  0  0  0  0999 V2000
  -11.0896  -35.0471  -11.8615 C   0  0  0  0  0  0  0  0  0  0  0  0
  -12.4422  -35.2638  -12.4973 C   0  0  0  0  0  0  0  0  0  0  0  0
  -13.4657  -34.4072  -11.7441 C   0  0  0  0  0  0  0  0  0  0  0  0
  -12.8848  -36.6615  -12.4151 C   0  0  0  0  0  0  0  0  0  0  0  0
  -12.8208  -37.4152  -11.2635 C   0  0  0  0  0  0  0  0  0  0  0  0
  -13.2585  -38.7467  -11.2418 C   0  0  0  0  0  0  0  0  0  0  0  0
  -13.1843  -39.5287   -9.9983 C   0  0  0  0  0  0  0  0  0  0  0  0
  -14.0665  -39.0763   -8.9474 N   0  0  0  0  0  0  0  0  0  0  0  0
  -15.3930  -39.6231   -9.1421 C   0  0  0  0  0  0  0  0  0  0  0  0
  -16.5081  -38.6512   -8.9813 C   0  0  1  0  0  0  0  0  0  0  0  0
  -16.7331  -38.0318  -10.2225 O   0  0  0  0  0  0  0  0  0  0  0  0
  -17.7691  -39.1731   -8.3479 C   0  0  2  0  0  0  0  0  0  0  0  0
  -18.7097  -38.0411   -8.1611 C   0  0  0  0  0  0  0  0  0  0  0  0
  -19.8045  -38.2123   -7.1591 C   0  0  2  0  0  0  0  0  0  0  0  0
  -19.2703  -38.2384   -5.7589 C   0  0  0  0  0  0  0  0  0  0  0  0
  -20.8270  -39.2464   -7.4805 C   0  0  0  0  0  0  0  0  0  0  0  0
  -21.3270  -39.9460   -6.2274 C   0  0  0  0  0  0  0  0  0  0  0  0
  -22.5348  -40.8355   -6.5642 C   0  0  0  0  0  0  0  0  0  0  0  0
  -22.3599  -42.1277   -5.8524 C   0  0  0  0  0  0  0  0  0  0  0  0
  -22.8264  -43.3547   -6.5346 C   0  0  0  0  0  0  0  0  0  0  0  0
  -23.0434  -43.3135   -7.9919 C   0  0  0  0  0  0  0  0  0  0  0  0
  -21.8479  -43.2978   -8.8737 C   0  0  0  0  0  0  0  0  0  0  0  0
  -20.8980  -44.4372   -8.7195 C   0  0  0  0  0  0  0  0  0  0  0  0
  -19.4548  -44.0327   -8.6102 C   0  0  1  0  0  0  0  0  0  0  0  0
  -18.8523  -44.8154   -7.6271 O   0  0  0  0  0  0  0  0  0  0  0  0
  -18.6750  -44.2312   -9.8876 C   0  0  0  0  0  0  0  0  0  0  0  0
  -17.2145  -43.9768   -9.5743 C   0  0  0  0  0  0  0  0  0  0  0  0
  -16.9975  -42.5495   -9.0396 C   0  0  0  0  0  0  0  0  0  0  0  0
  -17.8096  -42.4343   -7.8121 C   0  0  2  0  0  0  0  0  0  0  0  0
  -19.2797  -42.5758   -8.2399 C   0  0  0  0  0  0  0  0  0  0  0  0
  -17.6518  -41.3076   -6.9314 C   0  0  0  0  0  0  0  0  0  0  0  0
  -17.7255  -41.5747   -5.6667 O   0  0  0  0  0  0  0  0  0  0  0  0
  -17.4282  -39.9408   -7.2016 N   0  0  0  0  0  0  0  0  0  0  0  0
  -13.7679  -39.3443  -12.3750 C   0  0  0  0  0  0  0  0  0  0  0  0
  -13.8309  -38.5892  -13.5249 C   0  0  0  0  0  0  0  0  0  0  0  0
  -13.3959  -37.2738  -13.5374 C   0  0  0  0  0  0  0  0  0  0  0  0
  1  2  1  0
  2  3  1  0
  2  4  1  0
  4  5  2  0
  5  6  1  0
  6  7  1  0
  7  8  1  0
  8  9  1  0
  9 10  1  0
 10 11  1  6
 10 12  1  0
 12 13  1  1
 13 14  1  0
 14 15  1  1
 14 16  1  0
 16 17  1  0
 17 18  1  0
 18 19  1  0
 19 20  1  0
 20 21  1  0
 21 22  1  0
 22 23  1  0
 23 24  1  0
 24 25  1  1
 24 26  1  0
 26 27  1  0
 27 28  1  0
 29 28  1  6
 29 30  1  0
 29 31  1  0
 31 32  2  0
 31 33  1  0
  6 34  2  0
 34 35  1  0
 35 36  2  0
 30 24  1  0
 33 12  1  0
 36  4  1  0
M  END
$$$$
