
     RDKit          3D

 36 38  0  0  0  0  0  0  0  0999 V2000
  -13.5254  -35.1927  -12.3616 C   0  0  0  0  0  0  0  0  0  0  0  0
  -12.3296  -36.0461  -12.7114 C   0  0  0  0  0  0  0  0  0  0  0  0
  -12.2698  -36.1804  -14.2369 C   0  0  0  0  0  0  0  0  0  0  0  0
  -12.4205  -37.3993  -12.1485 C   0  0  0  0  0  0  0  0  0  0  0  0
  -12.3580  -37.6696  -10.7989 C   0  0  0  0  0  0  0  0  0  0  0  0
  -12.4508  -38.9823  -10.3162 C   0  0  0  0  0  0  0  0  0  0  0  0
  -12.3863  -39.2442   -8.8703 C   0  0  0  0  0  0  0  0  0  0  0  0
  -13.0457  -40.4580   -8.4469 N   0  0  0  0  0  0  0  0  0  0  0  0
  -14.4559  -40.3962   -8.7695 C   0  0  0  0  0  0  0  0  0  0  0  0
  -15.2359  -39.3844   -8.0067 C   0  0  1  0  0  0  0  0  0  0  0  0
  -14.9686  -38.1187   -8.5557 O   0  0  0  0  0  0  0  0  0  0  0  0
  -16.7067  -39.6543   -7.8408 C   0  0  2  0  0  0  0  0  0  0  0  0
  -17.3998  -38.3669   -7.5897 C   0  0  0  0  0  0  0  0  0  0  0  0
  -18.7480  -38.4231   -6.9485 C   0  0  2  0  0  0  0  0  0  0  0  0
  -18.6601  -38.8649   -5.5190 C   0  0  0  0  0  0  0  0  0  0  0  0
  -19.8281  -39.0559   -7.7557 C   0  0  0  0  0  0  0  0  0  0  0  0
  -20.8054  -39.8211   -6.8786 C   0  0  0  0  0  0  0  0  0  0  0  0
  -22.0234  -40.2641   -7.7055 C   0  0  0  0  0  0  0  0  0  0  0  0
  -22.3390  -41.6673   -7.3335 C   0  0  0  0  0  0  0  0  0  0  0  0
  -22.8363  -42.5639   -8.3999 C   0  0  0  0  0  0  0  0  0  0  0  0
  -22.6085  -42.1836   -9.8056 C   0  0  0  0  0  0  0  0  0  0  0  0
  -21.2338  -42.3246  -10.3511 C   0  0  0  0  0  0  0  0  0  0  0  0
  -20.6323  -43.6876  -10.2825 C   0  0  0  0  0  0  0  0  0  0  0  0
  -19.2311  -43.7219   -9.7404 C   0  0  1  0  0  0  0  0  0  0  0  0
  -19.1184  -44.8145   -8.8825 O   0  0  0  0  0  0  0  0  0  0  0  0
  -18.1753  -43.8747  -10.8086 C   0  0  0  0  0  0  0  0  0  0  0  0
  -16.8486  -44.0947  -10.1103 C   0  0  0  0  0  0  0  0  0  0  0  0
  -16.4994  -42.9127   -9.1879 C   0  0  0  0  0  0  0  0  0  0  0  0
  -17.5884  -42.8199   -8.1955 C   0  0  2  0  0  0  0  0  0  0  0  0
  -18.8670  -42.4687   -8.9741 C   0  0  0  0  0  0  0  0  0  0  0  0
  -17.4580  -41.9720   -7.0406 C   0  0  0  0  0  0  0  0  0  0  0  0
  -17.9492  -42.4484   -5.9415 O   0  0  0  0  0  0  0  0  0  0  0  0
  -16.8823  -40.6928   -6.8868 N   0  0  0  0  0  0  0  0  0  0  0  0
  -12.6081  -40.0459  -11.1793 C   0  0  0  0  0  0  0  0  0  0  0  0
  -12.6703  -39.7735  -12.5277 C   0  0  0  0  0  0  0  0  0  0  0  0
  -12.5775  -38.4728  -12.9961 C   0  0  0  0  0  0  0  0  0  0  0  0
  1  2  1  0
  2  3  1  0
  2  4  1  0
  4  5  2  0
  5  6  1  0
  6  7  1  0
  7  8  1  0
  8  9  1  0
  9 10  1  0
 10 11  1  6
 10 12  1  0
 12 13  1  1
 13 14  1  0
 14 15  1  1
 14 16  1  0
 16 17  1  0
 17 18  1  0
 18 19  1  0
 19 20  1  0
 20 21  1  0
 21 22  1  0
 22 23  1  0
 23 24  1  0
 24 25  1  1
 24 26  1  0
 26 27  1  0
 27 28  1  0
 29 28  1  6
 29 30  1  0
 29 31  1  0
 31 32  2  0
 31 33  1  0
  6 34  2  0
 34 35  1  0
 35 36  2  0
 30 24  1  0
 33 12  1  0
 36  4  1  0
M  END
$$$$
