
     RDKit          3D

 36 38  0  0  0  0  0  0  0  0999 V2000
  -12.5402  -35.9839  -14.6067 C   0  0  0  0  0  0  0  0  0  0  0  0
  -13.2395  -35.9765  -13.2682 C   0  0  0  0  0  0  0  0  0  0  0  0
  -12.5198  -34.9736  -12.3599 C   0  0  0  0  0  0  0  0  0  0  0  0
  -13.1991  -37.2862  -12.6053 C   0  0  0  0  0  0  0  0  0  0  0  0
  -13.7196  -37.5227  -11.3516 C   0  0  0  0  0  0  0  0  0  0  0  0
  -13.6538  -38.7946  -10.7662 C   0  0  0  0  0  0  0  0  0  0  0  0
  -14.2213  -39.0226   -9.4286 C   0  0  0  0  0  0  0  0  0  0  0  0
  -14.6958  -40.3672   -9.1956 N   0  0  0  0  0  0  0  0  0  0  0  0
  -16.0650  -40.4967   -9.6484 C   0  0  0  0  0  0  0  0  0  0  0  0
  -16.9340  -39.3188   -9.3814 C   0  0  1  0  0  0  0  0  0  0  0  0
  -17.1065  -38.6180  -10.5872 O   0  0  0  0  0  0  0  0  0  0  0  0
  -18.2308  -39.5878   -8.6674 C   0  0  2  0  0  0  0  0  0  0  0  0
  -19.0771  -38.3720   -8.7470 C   0  0  0  0  0  0  0  0  0  0  0  0
  -20.1790  -38.2320   -7.7479 C   0  0  2  0  0  0  0  0  0  0  0  0
  -19.6443  -37.9921   -6.3684 C   0  0  0  0  0  0  0  0  0  0  0  0
  -21.2821  -39.2277   -7.8498 C   0  0  0  0  0  0  0  0  0  0  0  0
  -21.8326  -39.5933   -6.4812 C   0  0  0  0  0  0  0  0  0  0  0  0
  -23.1087  -40.4371   -6.6325 C   0  0  0  0  0  0  0  0  0  0  0  0
  -23.0357  -41.5510   -5.6523 C   0  0  0  0  0  0  0  0  0  0  0  0
  -23.6011  -42.8573   -6.0558 C   0  0  0  0  0  0  0  0  0  0  0  0
  -23.8186  -43.1201   -7.4896 C   0  0  0  0  0  0  0  0  0  0  0  0
  -22.6284  -43.3927   -8.3360 C   0  0  0  0  0  0  0  0  0  0  0  0
  -21.7724  -44.5417   -7.9220 C   0  0  0  0  0  0  0  0  0  0  0  0
  -20.3011  -44.2381   -7.8830 C   0  0  1  0  0  0  0  0  0  0  0  0
  -19.7601  -44.8308   -6.7436 O   0  0  0  0  0  0  0  0  0  0  0  0
  -19.5436  -44.7731   -9.0743 C   0  0  0  0  0  0  0  0  0  0  0  0
  -18.0664  -44.5720   -8.8032 C   0  0  0  0  0  0  0  0  0  0  0  0
  -17.7342  -43.0838   -8.5911 C   0  0  0  0  0  0  0  0  0  0  0  0
  -18.5306  -42.6382   -7.4307 C   0  0  2  0  0  0  0  0  0  0  0  0
  -20.0087  -42.7538   -7.8385 C   0  0  0  0  0  0  0  0  0  0  0  0
  -18.2805  -41.3616   -6.8161 C   0  0  0  0  0  0  0  0  0  0  0  0
  -18.3713  -41.3378   -5.5248 O   0  0  0  0  0  0  0  0  0  0  0  0
  -17.9489  -40.1095   -7.3759 N   0  0  0  0  0  0  0  0  0  0  0  0
  -13.0651  -39.8507  -11.4288 C   0  0  0  0  0  0  0  0  0  0  0  0
  -12.5456  -39.6121  -12.6816 C   0  0  0  0  0  0  0  0  0  0  0  0
  -12.6148  -38.3516  -13.2526 C   0  0  0  0  0  0  0  0  0  0  0  0
  1  2  1  0
  2  3  1  0
  2  4  1  0
  4  5  2  0
  5  6  1  0
  6  7  1  0
  7  8  1  0
  8  9  1  0
  9 10  1  0
 10 11  1  6
 10 12  1  0
 12 13  1  1
 13 14  1  0
 14 15  1  1
 14 16  1  0
 16 17  1  0
 17 18  1  0
 18 19  1  0
 19 20  1  0
 20 21  1  0
 21 22  1  0
 22 23  1  0
 23 24  1  0
 24 25  1  1
 24 26  1  0
 26 27  1  0
 27 28  1  0
 29 28  1  6
 29 30  1  0
 29 31  1  0
 31 32  2  0
 31 33  1  0
  6 34  2  0
 34 35  1  0
 35 36  2  0
 30 24  1  0
 33 12  1  0
 36  4  1  0
M  END
$$$$
