
     RDKit          3D

 36 38  0  0  0  0  0  0  0  0999 V2000
  -11.7672  -35.2335  -11.9344 C   0  0  0  0  0  0  0  0  0  0  0  0
  -12.9040  -35.7411  -12.7892 C   0  0  0  0  0  0  0  0  0  0  0  0
  -14.1965  -35.0715  -12.3100 C   0  0  0  0  0  0  0  0  0  0  0  0
  -13.0869  -37.1937  -12.6768 C   0  0  0  0  0  0  0  0  0  0  0  0
  -13.1358  -37.8654  -11.4747 C   0  0  0  0  0  0  0  0  0  0  0  0
  -13.3132  -39.2551  -11.4261 C   0  0  0  0  0  0  0  0  0  0  0  0
  -13.3669  -39.9482  -10.1299 C   0  0  0  0  0  0  0  0  0  0  0  0
  -14.1852  -39.2988   -9.1319 N   0  0  0  0  0  0  0  0  0  0  0  0
  -15.5481  -39.7804   -9.2164 C   0  0  0  0  0  0  0  0  0  0  0  0
  -16.5858  -38.8322   -8.7287 C   0  0  1  0  0  0  0  0  0  0  0  0
  -16.8479  -37.9042   -9.7510 O   0  0  0  0  0  0  0  0  0  0  0  0
  -17.8355  -39.4406   -8.1528 C   0  0  2  0  0  0  0  0  0  0  0  0
  -18.8466  -38.3695   -7.9762 C   0  0  0  0  0  0  0  0  0  0  0  0
  -19.9640  -38.6269   -7.0185 C   0  0  2  0  0  0  0  0  0  0  0  0
  -19.4787  -38.6552   -5.6007 C   0  0  0  0  0  0  0  0  0  0  0  0
  -20.9125  -39.7105   -7.3991 C   0  0  0  0  0  0  0  0  0  0  0  0
  -21.4143  -40.4670   -6.1802 C   0  0  0  0  0  0  0  0  0  0  0  0
  -22.5555  -41.4165   -6.5797 C   0  0  0  0  0  0  0  0  0  0  0  0
  -22.3304  -42.7128   -5.8898 C   0  0  0  0  0  0  0  0  0  0  0  0
  -22.7002  -43.9483   -6.6146 C   0  0  0  0  0  0  0  0  0  0  0  0
  -22.8680  -43.8855   -8.0776 C   0  0  0  0  0  0  0  0  0  0  0  0
  -21.6453  -43.7801   -8.9149 C   0  0  0  0  0  0  0  0  0  0  0  0
  -20.6364  -44.8662   -8.7507 C   0  0  0  0  0  0  0  0  0  0  0  0
  -19.2241  -44.3818   -8.5804 C   0  0  1  0  0  0  0  0  0  0  0  0
  -18.6116  -45.1514   -7.5930 O   0  0  0  0  0  0  0  0  0  0  0  0
  -18.3897  -44.5050   -9.8325 C   0  0  0  0  0  0  0  0  0  0  0  0
  -16.9584  -44.1742   -9.4610 C   0  0  0  0  0  0  0  0  0  0  0  0
  -16.8441  -42.7498   -8.8882 C   0  0  0  0  0  0  0  0  0  0  0  0
  -17.7040  -42.7104   -7.6889 C   0  0  2  0  0  0  0  0  0  0  0  0
  -19.1475  -42.9263   -8.1728 C   0  0  0  0  0  0  0  0  0  0  0  0
  -17.6434  -41.5976   -6.7791 C   0  0  0  0  0  0  0  0  0  0  0  0
  -17.7456  -41.8981   -5.5240 O   0  0  0  0  0  0  0  0  0  0  0  0
  -17.4907  -40.2141   -7.0116 N   0  0  0  0  0  0  0  0  0  0  0  0
  -13.4448  -39.9941  -12.5825 C   0  0  0  0  0  0  0  0  0  0  0  0
  -13.3957  -39.3208  -13.7827 C   0  0  0  0  0  0  0  0  0  0  0  0
  -13.2198  -37.9470  -13.8215 C   0  0  0  0  0  0  0  0  0  0  0  0
  1  2  1  0
  2  3  1  0
  2  4  1  0
  4  5  2  0
  5  6  1  0
  6  7  1  0
  7  8  1  0
  8  9  1  0
  9 10  1  0
 10 11  1  6
 10 12  1  0
 12 13  1  1
 13 14  1  0
 14 15  1  1
 14 16  1  0
 16 17  1  0
 17 18  1  0
 18 19  1  0
 19 20  1  0
 20 21  1  0
 21 22  1  0
 22 23  1  0
 23 24  1  0
 24 25  1  1
 24 26  1  0
 26 27  1  0
 27 28  1  0
 29 28  1  6
 29 30  1  0
 29 31  1  0
 31 32  2  0
 31 33  1  0
  6 34  2  0
 34 35  1  0
 35 36  2  0
 30 24  1  0
 33 12  1  0
 36  4  1  0
M  END
$$$$
