
     RDKit          3D

 36 38  0  0  0  0  0  0  0  0999 V2000
  -23.5173  -37.5448   -7.1263 C   0  0  0  0  0  0  0  0  0  0  0  0
  -23.2104  -38.7070   -8.0405 C   0  0  0  0  0  0  0  0  0  0  0  0
  -24.5356  -39.3743   -8.4243 C   0  0  0  0  0  0  0  0  0  0  0  0
  -22.3705  -39.7237   -7.3950 C   0  0  0  0  0  0  0  0  0  0  0  0
  -21.1019  -39.4745   -6.9183 C   0  0  0  0  0  0  0  0  0  0  0  0
  -20.3436  -40.4839   -6.3094 C   0  0  0  0  0  0  0  0  0  0  0  0
  -18.9937  -40.1911   -5.8041 C   0  0  0  0  0  0  0  0  0  0  0  0
  -18.2196  -39.2970   -6.6340 N   0  0  0  0  0  0  0  0  0  0  0  0
  -17.1909  -40.0358   -7.3358 C   0  0  0  0  0  0  0  0  0  0  0  0
  -15.8089  -39.5103   -7.1689 C   0  0  1  0  0  0  0  0  0  0  0  0
  -15.0494  -40.4794   -6.4916 O   0  0  0  0  0  0  0  0  0  0  0  0
  -15.1313  -38.9940   -8.4091 C   0  0  2  0  0  0  0  0  0  0  0  0
  -15.1365  -37.5110   -8.3700 C   0  0  0  0  0  0  0  0  0  0  0  0
  -14.9491  -36.7863   -9.6629 C   0  0  2  0  0  0  0  0  0  0  0  0
  -16.1368  -36.9492  -10.5626 C   0  0  0  0  0  0  0  0  0  0  0  0
  -13.6186  -36.9458  -10.3131 C   0  0  0  0  0  0  0  0  0  0  0  0
  -13.7361  -36.9653  -11.8282 C   0  0  0  0  0  0  0  0  0  0  0  0
  -12.3398  -36.8989  -12.4680 C   0  0  0  0  0  0  0  0  0  0  0  0
  -12.3053  -37.8768  -13.5858 C   0  0  0  0  0  0  0  0  0  0  0  0
  -11.0341  -38.5926  -13.8315 C   0  0  0  0  0  0  0  0  0  0  0  0
  -10.0266  -38.6319  -12.7564 C   0  0  0  0  0  0  0  0  0  0  0  0
  -10.2830  -39.5207  -11.5939 C   0  0  0  0  0  0  0  0  0  0  0  0
  -10.4874  -40.9660  -11.8996 C   0  0  0  0  0  0  0  0  0  0  0  0
  -11.6820  -41.5808  -11.2265 C   0  0  1  0  0  0  0  0  0  0  0  0
  -12.3216  -42.4147  -12.1419 O   0  0  0  0  0  0  0  0  0  0  0  0
  -11.3297  -42.4183  -10.0209 C   0  0  0  0  0  0  0  0  0  0  0  0
  -12.5920  -43.1272   -9.5735 C   0  0  0  0  0  0  0  0  0  0  0  0
  -13.7002  -42.1215   -9.2122 C   0  0  0  0  0  0  0  0  0  0  0  0
  -13.9637  -41.3327  -10.4319 C   0  0  2  0  0  0  0  0  0  0  0  0
  -12.6764  -40.5496  -10.7384 C   0  0  0  0  0  0  0  0  0  0  0  0
  -15.1077  -40.4638  -10.5105 C   0  0  0  0  0  0  0  0  0  0  0  0
  -15.7062  -40.4334  -11.6581 O   0  0  0  0  0  0  0  0  0  0  0  0
  -15.7049  -39.6239   -9.5466 N   0  0  0  0  0  0  0  0  0  0  0  0
  -20.8453  -41.7604   -6.1683 C   0  0  0  0  0  0  0  0  0  0  0  0
  -22.1132  -42.0073   -6.6453 C   0  0  0  0  0  0  0  0  0  0  0  0
  -22.8557  -41.0036   -7.2461 C   0  0  0  0  0  0  0  0  0  0  0  0
  1  2  1  0
  2  3  1  0
  2  4  1  0
  4  5  2  0
  5  6  1  0
  6  7  1  0
  7  8  1  0
  8  9  1  0
  9 10  1  0
 10 11  1  6
 10 12  1  0
 12 13  1  6
 13 14  1  0
 14 15  1  6
 14 16  1  0
 16 17  1  0
 17 18  1  0
 18 19  1  0
 19 20  1  0
 20 21  1  0
 21 22  1  0
 22 23  1  0
 23 24  1  0
 24 25  1  6
 24 26  1  0
 26 27  1  0
 27 28  1  0
 29 28  1  1
 29 30  1  0
 29 31  1  0
 31 32  2  0
 31 33  1  0
  6 34  2  0
 34 35  1  0
 35 36  2  0
 30 24  1  0
 33 12  1  0
 36  4  1  0
M  END
$$$$
