
     RDKit          3D

 34 35  0  0  0  0  0  0  0  0999 V2000
  -15.1946  -37.5444  -11.2284 C   0  0  0  0  0  0  0  0  0  0  0  0
  -14.1705  -37.3794  -10.1547 C   0  0  2  0  0  0  0  0  0  0  0  0
  -12.8166  -36.9545  -10.7483 C   0  0  0  0  0  0  0  0  0  0  0  0
  -12.8280  -37.0366  -12.2449 C   0  0  0  0  0  0  0  0  0  0  0  0
  -11.3848  -37.2860  -12.6948 C   0  0  0  0  0  0  0  0  0  0  0  0
  -11.3377  -37.3639  -14.1928 C   0  0  0  0  0  0  0  0  0  0  0  0
  -12.3439  -38.3298  -14.7796 C   0  0  0  0  0  0  0  0  0  0  0  0
  -12.1507  -39.7457  -14.3463 C   0  0  0  0  0  0  0  0  0  0  0  0
  -13.4044  -40.4689  -14.3605 N   0  0  0  0  0  0  0  0  0  0  0  0
  -13.8005  -41.3408  -13.3052 C   0  0  0  0  0  0  0  0  0  0  0  0
  -14.6169  -42.2449  -13.5428 O   0  0  0  0  0  0  0  0  0  0  0  0
  -13.2462  -41.1767  -11.9288 C   0  0  0  0  0  0  0  0  0  0  0  0
  -14.1858  -41.8673  -10.9355 C   0  0  1  0  0  0  0  0  0  0  0  0
  -13.4056  -42.2030   -9.6950 C   0  0  0  0  0  0  0  0  0  0  0  0
  -15.4350  -41.1645  -10.7337 C   0  0  0  0  0  0  0  0  0  0  0  0
  -16.4423  -41.6737  -11.3583 O   0  0  0  0  0  0  0  0  0  0  0  0
  -15.7292  -40.0337   -9.9802 N   0  0  0  0  0  0  0  0  0  0  0  0
  -15.0234  -39.4246   -8.8931 C   0  0  1  0  0  0  0  0  0  0  0  0
  -13.9320  -38.5032   -9.2455 C   0  0  0  0  0  0  0  0  0  0  0  0
  -15.9609  -38.8777   -7.8377 C   0  0  2  0  0  0  0  0  0  0  0  0
  -15.3885  -38.6666   -6.6094 O   0  0  0  0  0  0  0  0  0  0  0  0
  -17.1894  -39.7241   -7.6338 C   0  0  0  0  0  0  0  0  0  0  0  0
  -17.9661  -39.2727   -6.5189 N   0  0  0  0  0  0  0  0  0  0  0  0
  -18.8843  -40.2502   -6.0074 C   0  0  0  0  0  0  0  0  0  0  0  0
  -19.9552  -40.4576   -7.0177 C   0  0  0  0  0  0  0  0  0  0  0  0
  -19.9814  -41.5898   -7.8269 C   0  0  0  0  0  0  0  0  0  0  0  0
  -20.9678  -41.7794   -8.7556 C   0  0  0  0  0  0  0  0  0  0  0  0
  -21.9723  -40.8213   -8.8998 C   0  0  0  0  0  0  0  0  0  0  0  0
  -21.9721  -39.6910   -8.1129 C   0  0  0  0  0  0  0  0  0  0  0  0
  -20.9717  -39.5262   -7.1904 C   0  0  0  0  0  0  0  0  0  0  0  0
  -23.0408  -38.6530   -8.2532 C   0  0  0  0  0  0  0  0  0  0  0  0
  -23.9683  -39.0178   -9.3783 C   0  0  0  0  0  0  0  0  0  0  0  0
  -22.3354  -37.3626   -8.6498 C   0  0  0  0  0  0  0  0  0  0  0  0
  -23.7889  -38.4829   -6.9616 C   0  0  0  0  0  0  0  0  0  0  0  0
  2  1  1  6
  2  3  1  0
  3  4  1  0
  4  5  1  0
  5  6  1  0
  6  7  1  0
  7  8  1  0
  8  9  1  0
  9 10  1  0
 10 11  2  0
 10 12  1  0
 12 13  1  0
 13 14  1  1
 13 15  1  0
 15 16  2  0
 15 17  1  0
 17 18  1  0
 18 19  1  6
 18 20  1  0
 20 21  1  1
 20 22  1  0
 22 23  1  0
 23 24  1  0
 24 25  1  0
 25 26  2  0
 26 27  1  0
 27 28  2  0
 28 29  1  0
 29 30  2  0
 29 31  1  0
 31 32  1  0
 31 33  1  0
 31 34  1  0
 19  2  1  0
 30 25  1  0
M  END
$$$$
