
     RDKit          3D

 34 35  0  0  0  0  0  0  0  0999 V2000
  -19.1315  -39.5274   -6.0057 C   0  0  0  0  0  0  0  0  0  0  0  0
  -19.2503  -38.9304   -7.3689 C   0  0  2  0  0  0  0  0  0  0  0  0
  -20.7233  -38.6697   -7.7274 C   0  0  0  0  0  0  0  0  0  0  0  0
  -21.6464  -39.2830   -6.7183 C   0  0  0  0  0  0  0  0  0  0  0  0
  -22.9619  -39.5941   -7.4396 C   0  0  0  0  0  0  0  0  0  0  0  0
  -23.9305  -40.2006   -6.4669 C   0  0  0  0  0  0  0  0  0  0  0  0
  -23.3584  -41.3685   -5.6932 C   0  0  0  0  0  0  0  0  0  0  0  0
  -22.9488  -42.5217   -6.5489 C   0  0  0  0  0  0  0  0  0  0  0  0
  -21.8769  -43.2723   -5.9304 N   0  0  0  0  0  0  0  0  0  0  0  0
  -20.7398  -43.7294   -6.6577 C   0  0  0  0  0  0  0  0  0  0  0  0
  -20.1009  -44.7038   -6.2302 O   0  0  0  0  0  0  0  0  0  0  0  0
  -20.3152  -43.0517   -7.9183 C   0  0  0  0  0  0  0  0  0  0  0  0
  -18.8466  -43.3931   -8.1886 C   0  0  1  0  0  0  0  0  0  0  0  0
  -18.5783  -43.2169   -9.6575 C   0  0  0  0  0  0  0  0  0  0  0  0
  -17.9231  -42.7373   -7.2876 C   0  0  0  0  0  0  0  0  0  0  0  0
  -17.4644  -43.4931   -6.3482 O   0  0  0  0  0  0  0  0  0  0  0  0
  -17.4491  -41.4304   -7.2659 N   0  0  0  0  0  0  0  0  0  0  0  0
  -17.4090  -40.4330   -8.2928 C   0  0  1  0  0  0  0  0  0  0  0  0
  -18.6308  -39.6382   -8.4922 C   0  0  0  0  0  0  0  0  0  0  0  0
  -16.1472  -39.5988   -8.2306 C   0  0  2  0  0  0  0  0  0  0  0  0
  -16.3468  -38.2671   -7.9707 O   0  0  0  0  0  0  0  0  0  0  0  0
  -15.3003  -39.7038   -9.4711 C   0  0  0  0  0  0  0  0  0  0  0  0
  -14.0777  -40.4061   -9.2215 N   0  0  0  0  0  0  0  0  0  0  0  0
  -13.0033  -40.0484  -10.1035 C   0  0  0  0  0  0  0  0  0  0  0  0
  -13.5606  -39.2197  -11.2050 C   0  0  0  0  0  0  0  0  0  0  0  0
  -14.4568  -39.7480  -12.1299 C   0  0  0  0  0  0  0  0  0  0  0  0
  -14.9692  -38.9841  -13.1424 C   0  0  0  0  0  0  0  0  0  0  0  0
  -14.5897  -37.6458  -13.2562 C   0  0  0  0  0  0  0  0  0  0  0  0
  -13.7046  -37.0960  -12.3556 C   0  0  0  0  0  0  0  0  0  0  0  0
  -13.2064  -37.8841  -11.3508 C   0  0  0  0  0  0  0  0  0  0  0  0
  -13.2862  -35.6632  -12.4617 C   0  0  0  0  0  0  0  0  0  0  0  0
  -14.3870  -34.7673  -11.9665 C   0  0  0  0  0  0  0  0  0  0  0  0
  -13.1059  -35.3781  -13.9470 C   0  0  0  0  0  0  0  0  0  0  0  0
  -12.0082  -35.4259  -11.7086 C   0  0  0  0  0  0  0  0  0  0  0  0
  2  1  1  1
  2  3  1  0
  3  4  1  0
  4  5  1  0
  5  6  1  0
  6  7  1  0
  7  8  1  0
  8  9  1  0
  9 10  1  0
 10 11  2  0
 10 12  1  0
 12 13  1  0
 13 14  1  6
 13 15  1  0
 15 16  2  0
 15 17  1  0
 17 18  1  0
 18 19  1  1
 18 20  1  0
 20 21  1  6
 20 22  1  0
 22 23  1  0
 23 24  1  0
 24 25  1  0
 25 26  2  0
 26 27  1  0
 27 28  2  0
 28 29  1  0
 29 30  2  0
 29 31  1  0
 31 32  1  0
 31 33  1  0
 31 34  1  0
 19  2  1  0
 30 25  1  0
M  END
$$$$
