
     RDKit          3D

 34 35  0  0  0  0  0  0  0  0999 V2000
  -19.7747  -39.8080   -5.7286 C   0  0  0  0  0  0  0  0  0  0  0  0
  -19.8689  -39.2888   -7.1251 C   0  0  2  0  0  0  0  0  0  0  0  0
  -21.3067  -39.4073   -7.6589 C   0  0  0  0  0  0  0  0  0  0  0  0
  -22.1687  -40.2071   -6.7294 C   0  0  0  0  0  0  0  0  0  0  0  0
  -23.2725  -40.8487   -7.5765 C   0  0  0  0  0  0  0  0  0  0  0  0
  -24.1755  -41.6539   -6.6886 C   0  0  0  0  0  0  0  0  0  0  0  0
  -23.4354  -42.6274   -5.7972 C   0  0  0  0  0  0  0  0  0  0  0  0
  -22.6582  -43.6624   -6.5419 C   0  0  0  0  0  0  0  0  0  0  0  0
  -21.5192  -44.1117   -5.7701 N   0  0  0  0  0  0  0  0  0  0  0  0
  -20.2259  -44.2901   -6.3415 C   0  0  0  0  0  0  0  0  0  0  0  0
  -19.4264  -45.0672   -5.7961 O   0  0  0  0  0  0  0  0  0  0  0  0
  -19.8290  -43.5564   -7.5795 C   0  0  0  0  0  0  0  0  0  0  0  0
  -18.2999  -43.5310   -7.6662 C   0  0  1  0  0  0  0  0  0  0  0  0
  -17.9067  -43.3263   -9.1029 C   0  0  0  0  0  0  0  0  0  0  0  0
  -17.6787  -42.6481   -6.7021 C   0  0  0  0  0  0  0  0  0  0  0  0
  -17.1675  -43.2466   -5.6801 O   0  0  0  0  0  0  0  0  0  0  0  0
  -17.5418  -41.2645   -6.6942 N   0  0  0  0  0  0  0  0  0  0  0  0
  -17.6206  -40.3108   -7.7596 C   0  0  1  0  0  0  0  0  0  0  0  0
  -18.9653  -39.8464   -8.1346 C   0  0  0  0  0  0  0  0  0  0  0  0
  -16.6156  -39.1900   -7.5993 C   0  0  2  0  0  0  0  0  0  0  0  0
  -17.0883  -37.9407   -7.9103 O   0  0  0  0  0  0  0  0  0  0  0  0
  -15.3469  -39.4095   -8.3799 C   0  0  0  0  0  0  0  0  0  0  0  0
  -15.5582  -39.2637   -9.7885 N   0  0  0  0  0  0  0  0  0  0  0  0
  -14.3715  -38.9483  -10.5318 C   0  0  0  0  0  0  0  0  0  0  0  0
  -14.5949  -37.6618  -11.2428 C   0  0  0  0  0  0  0  0  0  0  0  0
  -15.8726  -37.2426  -11.6023 C   0  0  0  0  0  0  0  0  0  0  0  0
  -16.0766  -36.0583  -12.2559 C   0  0  0  0  0  0  0  0  0  0  0  0
  -14.9848  -35.2483  -12.5719 C   0  0  0  0  0  0  0  0  0  0  0  0
  -13.7090  -35.6374  -12.2287 C   0  0  0  0  0  0  0  0  0  0  0  0
  -13.5332  -36.8290  -11.5743 C   0  0  0  0  0  0  0  0  0  0  0  0
  -12.5264  -34.7822  -12.5591 C   0  0  0  0  0  0  0  0  0  0  0  0
  -12.9673  -33.5694  -13.3298 C   0  0  0  0  0  0  0  0  0  0  0  0
  -11.6444  -35.6096  -13.4851 C   0  0  0  0  0  0  0  0  0  0  0  0
  -11.7845  -34.3965  -11.3110 C   0  0  0  0  0  0  0  0  0  0  0  0
  2  1  1  1
  2  3  1  0
  3  4  1  0
  4  5  1  0
  5  6  1  0
  6  7  1  0
  7  8  1  0
  8  9  1  0
  9 10  1  0
 10 11  2  0
 10 12  1  0
 12 13  1  0
 13 14  1  6
 13 15  1  0
 15 16  2  0
 15 17  1  0
 17 18  1  0
 18 19  1  1
 18 20  1  0
 20 21  1  6
 20 22  1  0
 22 23  1  0
 23 24  1  0
 24 25  1  0
 25 26  2  0
 26 27  1  0
 27 28  2  0
 28 29  1  0
 29 30  2  0
 29 31  1  0
 31 32  1  0
 31 33  1  0
 31 34  1  0
 19  2  1  0
 30 25  1  0
M  END
$$$$
