
     RDKit          3D

 34 35  0  0  0  0  0  0  0  0999 V2000
  -18.6168  -40.3395   -5.4481 C   0  0  0  0  0  0  0  0  0  0  0  0
  -19.0048  -39.4396   -6.5744 C   0  0  2  0  0  0  0  0  0  0  0  0
  -20.5348  -39.3204   -6.6796 C   0  0  0  0  0  0  0  0  0  0  0  0
  -21.2210  -40.3022   -5.7786 C   0  0  0  0  0  0  0  0  0  0  0  0
  -22.5846  -40.6131   -6.4042 C   0  0  0  0  0  0  0  0  0  0  0  0
  -23.3216  -41.5860   -5.5311 C   0  0  0  0  0  0  0  0  0  0  0  0
  -22.5106  -42.8130   -5.1749 C   0  0  0  0  0  0  0  0  0  0  0  0
  -22.1033  -43.6347   -6.3533 C   0  0  0  0  0  0  0  0  0  0  0  0
  -20.8723  -44.3484   -6.0881 N   0  0  0  0  0  0  0  0  0  0  0  0
  -19.8111  -44.4286   -7.0360 C   0  0  0  0  0  0  0  0  0  0  0  0
  -19.0082  -45.3724   -6.9654 O   0  0  0  0  0  0  0  0  0  0  0  0
  -19.6594  -43.3961   -8.1034 C   0  0  0  0  0  0  0  0  0  0  0  0
  -18.2180  -43.4327   -8.6205 C   0  0  1  0  0  0  0  0  0  0  0  0
  -18.1931  -42.8495  -10.0061 C   0  0  0  0  0  0  0  0  0  0  0  0
  -17.2521  -42.8973   -7.6849 C   0  0  0  0  0  0  0  0  0  0  0  0
  -16.5751  -43.7898   -7.0454 O   0  0  0  0  0  0  0  0  0  0  0  0
  -16.9334  -41.5832   -7.3611 N   0  0  0  0  0  0  0  0  0  0  0  0
  -17.1612  -40.3626   -8.0747 C   0  0  1  0  0  0  0  0  0  0  0  0
  -18.4822  -39.7362   -7.9105 C   0  0  0  0  0  0  0  0  0  0  0  0
  -16.0083  -39.3921   -7.9301 C   0  0  2  0  0  0  0  0  0  0  0  0
  -16.3695  -38.0705   -7.8685 O   0  0  0  0  0  0  0  0  0  0  0  0
  -14.9684  -39.5353   -9.0094 C   0  0  0  0  0  0  0  0  0  0  0  0
  -13.7307  -38.9175   -8.6396 N   0  0  0  0  0  0  0  0  0  0  0  0
  -12.7326  -38.9363   -9.6709 C   0  0  0  0  0  0  0  0  0  0  0  0
  -13.2591  -38.1880  -10.8429 C   0  0  0  0  0  0  0  0  0  0  0  0
  -13.8364  -38.8457  -11.9253 C   0  0  0  0  0  0  0  0  0  0  0  0
  -14.3210  -38.1558  -13.0026 C   0  0  0  0  0  0  0  0  0  0  0  0
  -14.2381  -36.7628  -13.0232 C   0  0  0  0  0  0  0  0  0  0  0  0
  -13.6720  -36.0851  -11.9662 C   0  0  0  0  0  0  0  0  0  0  0  0
  -13.1943  -36.8013  -10.8995 C   0  0  0  0  0  0  0  0  0  0  0  0
  -13.5745  -34.5918  -11.9705 C   0  0  0  0  0  0  0  0  0  0  0  0
  -14.9106  -33.9876  -11.6404 C   0  0  0  0  0  0  0  0  0  0  0  0
  -13.2374  -34.1885  -13.4001 C   0  0  0  0  0  0  0  0  0  0  0  0
  -12.5131  -34.1261  -11.0149 C   0  0  0  0  0  0  0  0  0  0  0  0
  2  1  1  1
  2  3  1  0
  3  4  1  0
  4  5  1  0
  5  6  1  0
  6  7  1  0
  7  8  1  0
  8  9  1  0
  9 10  1  0
 10 11  2  0
 10 12  1  0
 12 13  1  0
 13 14  1  6
 13 15  1  0
 15 16  2  0
 15 17  1  0
 17 18  1  0
 18 19  1  1
 18 20  1  0
 20 21  1  6
 20 22  1  0
 22 23  1  0
 23 24  1  0
 24 25  1  0
 25 26  2  0
 26 27  1  0
 27 28  2  0
 28 29  1  0
 29 30  2  0
 29 31  1  0
 31 32  1  0
 31 33  1  0
 31 34  1  0
 19  2  1  0
 30 25  1  0
M  END
$$$$
