
     RDKit          3D

 34 35  0  0  0  0  0  0  0  0999 V2000
  -14.7806  -37.4141  -11.4087 C   0  0  0  0  0  0  0  0  0  0  0  0
  -13.9215  -37.3170  -10.1915 C   0  0  2  0  0  0  0  0  0  0  0  0
  -12.4783  -36.9397  -10.5672 C   0  0  0  0  0  0  0  0  0  0  0  0
  -12.2707  -36.9898  -12.0508 C   0  0  0  0  0  0  0  0  0  0  0  0
  -10.7879  -37.2931  -12.2895 C   0  0  0  0  0  0  0  0  0  0  0  0
  -10.5221  -37.3415  -13.7656 C   0  0  0  0  0  0  0  0  0  0  0  0
  -11.4682  -38.2497  -14.5206 C   0  0  0  0  0  0  0  0  0  0  0  0
  -11.3989  -39.6815  -14.1024 C   0  0  0  0  0  0  0  0  0  0  0  0
  -12.6648  -40.3483  -14.3210 N   0  0  0  0  0  0  0  0  0  0  0  0
  -13.2483  -41.2238  -13.3598 C   0  0  0  0  0  0  0  0  0  0  0  0
  -14.0562  -42.0860  -13.7398 O   0  0  0  0  0  0  0  0  0  0  0  0
  -12.8984  -41.1132  -11.9128 C   0  0  0  0  0  0  0  0  0  0  0  0
  -14.0023  -41.7824  -11.0882 C   0  0  1  0  0  0  0  0  0  0  0  0
  -13.4292  -42.1781   -9.7557 C   0  0  0  0  0  0  0  0  0  0  0  0
  -15.2380  -41.0297  -11.0537 C   0  0  0  0  0  0  0  0  0  0  0  0
  -16.1612  -41.4808  -11.8337 O   0  0  0  0  0  0  0  0  0  0  0  0
  -15.5949  -39.9031  -10.3213 N   0  0  0  0  0  0  0  0  0  0  0  0
  -15.0344  -39.3486   -9.1258 C   0  0  1  0  0  0  0  0  0  0  0  0
  -13.8663  -38.4690   -9.2880 C   0  0  0  0  0  0  0  0  0  0  0  0
  -16.0953  -38.7832   -8.2057 C   0  0  2  0  0  0  0  0  0  0  0  0
  -15.7041  -37.6905   -7.4748 O   0  0  0  0  0  0  0  0  0  0  0  0
  -16.6587  -39.7996   -7.2483 C   0  0  0  0  0  0  0  0  0  0  0  0
  -17.9363  -40.2827   -7.6780 N   0  0  0  0  0  0  0  0  0  0  0  0
  -18.9126  -40.3764   -6.6301 C   0  0  0  0  0  0  0  0  0  0  0  0
  -20.1372  -39.6559   -7.0680 C   0  0  0  0  0  0  0  0  0  0  0  0
  -20.0734  -38.5924   -7.9638 C   0  0  0  0  0  0  0  0  0  0  0  0
  -21.2011  -37.9309   -8.3664 C   0  0  0  0  0  0  0  0  0  0  0  0
  -22.4453  -38.3256   -7.8724 C   0  0  0  0  0  0  0  0  0  0  0  0
  -22.5391  -39.3746   -6.9848 C   0  0  0  0  0  0  0  0  0  0  0  0
  -21.3931  -40.0198   -6.5981 C   0  0  0  0  0  0  0  0  0  0  0  0
  -23.8642  -39.8121   -6.4446 C   0  0  0  0  0  0  0  0  0  0  0  0
  -24.9711  -39.0458   -7.1132 C   0  0  0  0  0  0  0  0  0  0  0  0
  -23.8746  -39.4270   -4.9710 C   0  0  0  0  0  0  0  0  0  0  0  0
  -24.0446  -41.2936   -6.6155 C   0  0  0  0  0  0  0  0  0  0  0  0
  2  1  1  6
  2  3  1  0
  3  4  1  0
  4  5  1  0
  5  6  1  0
  6  7  1  0
  7  8  1  0
  8  9  1  0
  9 10  1  0
 10 11  2  0
 10 12  1  0
 12 13  1  0
 13 14  1  1
 13 15  1  0
 15 16  2  0
 15 17  1  0
 17 18  1  0
 18 19  1  6
 18 20  1  0
 20 21  1  1
 20 22  1  0
 22 23  1  0
 23 24  1  0
 24 25  1  0
 25 26  2  0
 26 27  1  0
 27 28  2  0
 28 29  1  0
 29 30  2  0
 29 31  1  0
 31 32  1  0
 31 33  1  0
 31 34  1  0
 19  2  1  0
 30 25  1  0
M  END
$$$$
