
     RDKit          3D

 34 35  0  0  0  0  0  0  0  0999 V2000
  -18.9015  -39.1740   -6.0370 C   0  0  0  0  0  0  0  0  0  0  0  0
  -19.1309  -38.7589   -7.4525 C   0  0  2  0  0  0  0  0  0  0  0  0
  -20.6262  -38.5136   -7.7171 C   0  0  0  0  0  0  0  0  0  0  0  0
  -21.4656  -38.9675   -6.5612 C   0  0  0  0  0  0  0  0  0  0  0  0
  -22.8421  -39.3403   -7.1212 C   0  0  0  0  0  0  0  0  0  0  0  0
  -23.7299  -39.7912   -5.9984 C   0  0  0  0  0  0  0  0  0  0  0  0
  -23.1067  -40.8602   -5.1273 C   0  0  0  0  0  0  0  0  0  0  0  0
  -22.7862  -42.1249   -5.8535 C   0  0  0  0  0  0  0  0  0  0  0  0
  -21.6736  -42.8123   -5.2334 N   0  0  0  0  0  0  0  0  0  0  0  0
  -20.6092  -43.3871   -5.9867 C   0  0  0  0  0  0  0  0  0  0  0  0
  -19.9471  -44.3113   -5.4888 O   0  0  0  0  0  0  0  0  0  0  0  0
  -20.2875  -42.8909   -7.3574 C   0  0  0  0  0  0  0  0  0  0  0  0
  -18.8519  -43.2987   -7.7028 C   0  0  1  0  0  0  0  0  0  0  0  0
  -18.7098  -43.3233   -9.1993 C   0  0  0  0  0  0  0  0  0  0  0  0
  -17.8462  -42.5517   -6.9780 C   0  0  0  0  0  0  0  0  0  0  0  0
  -17.3167  -43.1878   -5.9886 O   0  0  0  0  0  0  0  0  0  0  0  0
  -17.3569  -41.2645   -7.1703 N   0  0  0  0  0  0  0  0  0  0  0  0
  -17.3942  -40.4119   -8.3203 C   0  0  1  0  0  0  0  0  0  0  0  0
  -18.6194  -39.6223   -8.5199 C   0  0  0  0  0  0  0  0  0  0  0  0
  -16.1221  -39.6062   -8.4762 C   0  0  2  0  0  0  0  0  0  0  0  0
  -16.1859  -38.5988   -9.4047 O   0  0  0  0  0  0  0  0  0  0  0  0
  -14.9162  -40.4497   -8.7945 C   0  0  0  0  0  0  0  0  0  0  0  0
  -13.7873  -39.6470   -9.1571 N   0  0  0  0  0  0  0  0  0  0  0  0
  -12.9156  -40.2584  -10.1197 C   0  0  0  0  0  0  0  0  0  0  0  0
  -12.8873  -39.4008  -11.3339 C   0  0  0  0  0  0  0  0  0  0  0  0
  -12.3518  -39.8584  -12.5344 C   0  0  0  0  0  0  0  0  0  0  0  0
  -12.3270  -39.0684  -13.6509 C   0  0  0  0  0  0  0  0  0  0  0  0
  -12.8482  -37.7751  -13.5920 C   0  0  0  0  0  0  0  0  0  0  0  0
  -13.3845  -37.2953  -12.4177 C   0  0  0  0  0  0  0  0  0  0  0  0
  -13.3965  -38.1082  -11.3140 C   0  0  0  0  0  0  0  0  0  0  0  0
  -13.9480  -35.9115  -12.3355 C   0  0  0  0  0  0  0  0  0  0  0  0
  -15.4230  -35.9721  -12.0528 C   0  0  0  0  0  0  0  0  0  0  0  0
  -13.7783  -35.2967  -13.7187 C   0  0  0  0  0  0  0  0  0  0  0  0
  -13.2250  -35.1045  -11.2950 C   0  0  0  0  0  0  0  0  0  0  0  0
  2  1  1  1
  2  3  1  0
  3  4  1  0
  4  5  1  0
  5  6  1  0
  6  7  1  0
  7  8  1  0
  8  9  1  0
  9 10  1  0
 10 11  2  0
 10 12  1  0
 12 13  1  0
 13 14  1  6
 13 15  1  0
 15 16  2  0
 15 17  1  0
 17 18  1  0
 18 19  1  1
 18 20  1  0
 20 21  1  6
 20 22  1  0
 22 23  1  0
 23 24  1  0
 24 25  1  0
 25 26  2  0
 26 27  1  0
 27 28  2  0
 28 29  1  0
 29 30  2  0
 29 31  1  0
 31 32  1  0
 31 33  1  0
 31 34  1  0
 19  2  1  0
 30 25  1  0
M  END
$$$$
