
     RDKit          3D

 34 35  0  0  0  0  0  0  0  0999 V2000
  -18.6541  -39.5609   -5.7888 C   0  0  0  0  0  0  0  0  0  0  0  0
  -18.8207  -38.8827   -7.1083 C   0  0  2  0  0  0  0  0  0  0  0  0
  -20.2750  -38.4234   -7.3094 C   0  0  0  0  0  0  0  0  0  0  0  0
  -21.1719  -38.9705   -6.2404 C   0  0  0  0  0  0  0  0  0  0  0  0
  -22.5773  -39.0782   -6.8411 C   0  0  0  0  0  0  0  0  0  0  0  0
  -23.5216  -39.6110   -5.8035 C   0  0  0  0  0  0  0  0  0  0  0  0
  -23.0348  -40.8799   -5.1380 C   0  0  0  0  0  0  0  0  0  0  0  0
  -22.8569  -42.0280   -6.0761 C   0  0  0  0  0  0  0  0  0  0  0  0
  -21.8374  -42.9369   -5.5971 N   0  0  0  0  0  0  0  0  0  0  0  0
  -20.8401  -43.4918   -6.4506 C   0  0  0  0  0  0  0  0  0  0  0  0
  -20.2945  -44.5588   -6.1280 O   0  0  0  0  0  0  0  0  0  0  0  0
  -20.4505  -42.8060   -7.7181 C   0  0  0  0  0  0  0  0  0  0  0  0
  -19.0690  -43.3115   -8.1450 C   0  0  1  0  0  0  0  0  0  0  0  0
  -18.9170  -43.0924   -9.6247 C   0  0  0  0  0  0  0  0  0  0  0  0
  -17.9899  -42.8233   -7.3130 C   0  0  0  0  0  0  0  0  0  0  0  0
  -17.5470  -43.6785   -6.4549 O   0  0  0  0  0  0  0  0  0  0  0  0
  -17.3526  -41.5879   -7.2847 N   0  0  0  0  0  0  0  0  0  0  0  0
  -17.2801  -40.5503   -8.2690 C   0  0  1  0  0  0  0  0  0  0  0  0
  -18.4033  -39.6012   -8.3149 C   0  0  0  0  0  0  0  0  0  0  0  0
  -15.9216  -39.8828   -8.2971 C   0  0  2  0  0  0  0  0  0  0  0  0
  -15.9162  -38.6033   -8.7910 O   0  0  0  0  0  0  0  0  0  0  0  0
  -14.8842  -40.6716   -9.0512 C   0  0  0  0  0  0  0  0  0  0  0  0
  -13.5890  -40.0678   -8.9613 N   0  0  0  0  0  0  0  0  0  0  0  0
  -12.8610  -40.0503  -10.1982 C   0  0  0  0  0  0  0  0  0  0  0  0
  -12.6055  -38.6333  -10.5688 C   0  0  0  0  0  0  0  0  0  0  0  0
  -11.4012  -38.0073  -10.2603 C   0  0  0  0  0  0  0  0  0  0  0  0
  -11.1673  -36.7036  -10.6025 C   0  0  0  0  0  0  0  0  0  0  0  0
  -12.1529  -35.9801  -11.2755 C   0  0  0  0  0  0  0  0  0  0  0  0
  -13.3544  -36.5733  -11.5939 C   0  0  0  0  0  0  0  0  0  0  0  0
  -13.5623  -37.8809  -11.2390 C   0  0  0  0  0  0  0  0  0  0  0  0
  -14.4229  -35.8135  -12.3151 C   0  0  0  0  0  0  0  0  0  0  0  0
  -15.4960  -35.3928  -11.3504 C   0  0  0  0  0  0  0  0  0  0  0  0
  -15.0561  -36.7914  -13.2964 C   0  0  0  0  0  0  0  0  0  0  0  0
  -13.8400  -34.6303  -13.0342 C   0  0  0  0  0  0  0  0  0  0  0  0
  2  1  1  1
  2  3  1  0
  3  4  1  0
  4  5  1  0
  5  6  1  0
  6  7  1  0
  7  8  1  0
  8  9  1  0
  9 10  1  0
 10 11  2  0
 10 12  1  0
 12 13  1  0
 13 14  1  6
 13 15  1  0
 15 16  2  0
 15 17  1  0
 17 18  1  0
 18 19  1  1
 18 20  1  0
 20 21  1  6
 20 22  1  0
 22 23  1  0
 23 24  1  0
 24 25  1  0
 25 26  2  0
 26 27  1  0
 27 28  2  0
 28 29  1  0
 29 30  2  0
 29 31  1  0
 31 32  1  0
 31 33  1  0
 31 34  1  0
 19  2  1  0
 30 25  1  0
M  END
$$$$
