
     RDKit          3D

 34 35  0  0  0  0  0  0  0  0999 V2000
  -18.8802  -40.2017   -5.4733 C   0  0  0  0  0  0  0  0  0  0  0  0
  -19.3351  -39.3587   -6.6184 C   0  0  2  0  0  0  0  0  0  0  0  0
  -20.8699  -39.2608   -6.6520 C   0  0  0  0  0  0  0  0  0  0  0  0
  -21.4978  -40.2075   -5.6741 C   0  0  0  0  0  0  0  0  0  0  0  0
  -22.8866  -40.5614   -6.2158 C   0  0  0  0  0  0  0  0  0  0  0  0
  -23.5668  -41.5009   -5.2636 C   0  0  0  0  0  0  0  0  0  0  0  0
  -22.7232  -42.7014   -4.8932 C   0  0  0  0  0  0  0  0  0  0  0  0
  -22.3642  -43.5721   -6.0520 C   0  0  0  0  0  0  0  0  0  0  0  0
  -21.1124  -44.2596   -5.8168 N   0  0  0  0  0  0  0  0  0  0  0  0
  -20.0986  -44.3721   -6.8121 C   0  0  0  0  0  0  0  0  0  0  0  0
  -19.2810  -45.3029   -6.7391 O   0  0  0  0  0  0  0  0  0  0  0  0
  -20.0134  -43.3881   -7.9315 C   0  0  0  0  0  0  0  0  0  0  0  0
  -18.5991  -43.4330   -8.5181 C   0  0  1  0  0  0  0  0  0  0  0  0
  -18.6506  -42.9139   -9.9282 C   0  0  0  0  0  0  0  0  0  0  0  0
  -17.5950  -42.8448   -7.6573 C   0  0  0  0  0  0  0  0  0  0  0  0
  -16.8756  -43.6997   -7.0127 O   0  0  0  0  0  0  0  0  0  0  0  0
  -17.2778  -41.5140   -7.4099 N   0  0  0  0  0  0  0  0  0  0  0  0
  -17.5565  -40.3300   -8.1658 C   0  0  1  0  0  0  0  0  0  0  0  0
  -18.8757  -39.7108   -7.9642 C   0  0  0  0  0  0  0  0  0  0  0  0
  -16.4105  -39.3416   -8.1234 C   0  0  2  0  0  0  0  0  0  0  0  0
  -16.5697  -38.3098   -7.2339 O   0  0  0  0  0  0  0  0  0  0  0  0
  -16.0866  -38.7449   -9.4673 C   0  0  0  0  0  0  0  0  0  0  0  0
  -14.7659  -39.0919   -9.8979 N   0  0  0  0  0  0  0  0  0  0  0  0
  -14.6092  -39.1539  -11.3233 C   0  0  0  0  0  0  0  0  0  0  0  0
  -14.7806  -37.7825  -11.8713 C   0  0  0  0  0  0  0  0  0  0  0  0
  -15.9703  -37.3842  -12.4742 C   0  0  0  0  0  0  0  0  0  0  0  0
  -16.1267  -36.1218  -12.9774 C   0  0  0  0  0  0  0  0  0  0  0  0
  -15.0751  -35.2087  -12.8874 C   0  0  0  0  0  0  0  0  0  0  0  0
  -13.8862  -35.5746  -12.2961 C   0  0  0  0  0  0  0  0  0  0  0  0
  -13.7566  -36.8460  -11.8004 C   0  0  0  0  0  0  0  0  0  0  0  0
  -12.7477  -34.6093  -12.1905 C   0  0  0  0  0  0  0  0  0  0  0  0
  -11.5627  -35.2785  -11.5524 C   0  0  0  0  0  0  0  0  0  0  0  0
  -13.2069  -33.5068  -11.2451 C   0  0  0  0  0  0  0  0  0  0  0  0
  -12.3983  -34.0503  -13.5404 C   0  0  0  0  0  0  0  0  0  0  0  0
  2  1  1  1
  2  3  1  0
  3  4  1  0
  4  5  1  0
  5  6  1  0
  6  7  1  0
  7  8  1  0
  8  9  1  0
  9 10  1  0
 10 11  2  0
 10 12  1  0
 12 13  1  0
 13 14  1  6
 13 15  1  0
 15 16  2  0
 15 17  1  0
 17 18  1  0
 18 19  1  1
 18 20  1  0
 20 21  1  1
 20 22  1  0
 22 23  1  0
 23 24  1  0
 24 25  1  0
 25 26  2  0
 26 27  1  0
 27 28  2  0
 28 29  1  0
 29 30  2  0
 29 31  1  0
 31 32  1  0
 31 33  1  0
 31 34  1  0
 19  2  1  0
 30 25  1  0
M  END
$$$$
