
     RDKit          3D

 34 35  0  0  0  0  0  0  0  0999 V2000
  -19.1076  -39.5696   -6.2556 C   0  0  0  0  0  0  0  0  0  0  0  0
  -19.2441  -39.0671   -7.6548 C   0  0  2  0  0  0  0  0  0  0  0  0
  -20.7227  -39.0071   -8.0746 C   0  0  0  0  0  0  0  0  0  0  0  0
  -21.6043  -39.6717   -7.0608 C   0  0  0  0  0  0  0  0  0  0  0  0
  -22.8444  -40.1792   -7.8038 C   0  0  0  0  0  0  0  0  0  0  0  0
  -23.7705  -40.8445   -6.8282 C   0  0  0  0  0  0  0  0  0  0  0  0
  -23.0935  -41.8902   -5.9691 C   0  0  0  0  0  0  0  0  0  0  0  0
  -22.5165  -43.0303   -6.7418 C   0  0  0  0  0  0  0  0  0  0  0  0
  -21.3873  -43.6103   -6.0465 N   0  0  0  0  0  0  0  0  0  0  0  0
  -20.1765  -43.9651   -6.7091 C   0  0  0  0  0  0  0  0  0  0  0  0
  -19.4428  -44.8299   -6.2048 O   0  0  0  0  0  0  0  0  0  0  0  0
  -19.7875  -43.3110   -7.9934 C   0  0  0  0  0  0  0  0  0  0  0  0
  -18.2793  -43.4860   -8.1964 C   0  0  1  0  0  0  0  0  0  0  0  0
  -17.9775  -43.3592   -9.6638 C   0  0  0  0  0  0  0  0  0  0  0  0
  -17.4761  -42.6746   -7.3068 C   0  0  0  0  0  0  0  0  0  0  0  0
  -16.9671  -43.3165   -6.3104 O   0  0  0  0  0  0  0  0  0  0  0  0
  -17.1628  -41.3206   -7.3473 N   0  0  0  0  0  0  0  0  0  0  0  0
  -17.2024  -40.3835   -8.4295 C   0  0  1  0  0  0  0  0  0  0  0  0
  -18.5017  -39.7549   -8.7141 C   0  0  0  0  0  0  0  0  0  0  0  0
  -16.0525  -39.4002   -8.3767 C   0  0  2  0  0  0  0  0  0  0  0  0
  -16.0904  -38.4146   -9.3297 O   0  0  0  0  0  0  0  0  0  0  0  0
  -14.7002  -40.0584   -8.4488 C   0  0  0  0  0  0  0  0  0  0  0  0
  -14.2109  -40.1206   -9.7931 N   0  0  0  0  0  0  0  0  0  0  0  0
  -14.7492  -39.1130  -10.6621 C   0  0  0  0  0  0  0  0  0  0  0  0
  -13.6423  -38.2063  -11.0664 C   0  0  0  0  0  0  0  0  0  0  0  0
  -13.4115  -37.0024  -10.4071 C   0  0  0  0  0  0  0  0  0  0  0  0
  -12.3923  -36.1695  -10.7799 C   0  0  0  0  0  0  0  0  0  0  0  0
  -11.5623  -36.5287  -11.8429 C   0  0  0  0  0  0  0  0  0  0  0  0
  -11.7667  -37.7140  -12.5138 C   0  0  0  0  0  0  0  0  0  0  0  0
  -12.7955  -38.5296  -12.1195 C   0  0  0  0  0  0  0  0  0  0  0  0
  -10.8871  -38.1158  -13.6558 C   0  0  0  0  0  0  0  0  0  0  0  0
  -10.9449  -39.6051  -13.8509 C   0  0  0  0  0  0  0  0  0  0  0  0
   -9.4627  -37.7696  -13.2420 C   0  0  0  0  0  0  0  0  0  0  0  0
  -11.2768  -37.3850  -14.9091 C   0  0  0  0  0  0  0  0  0  0  0  0
  2  1  1  1
  2  3  1  0
  3  4  1  0
  4  5  1  0
  5  6  1  0
  6  7  1  0
  7  8  1  0
  8  9  1  0
  9 10  1  0
 10 11  2  0
 10 12  1  0
 12 13  1  0
 13 14  1  6
 13 15  1  0
 15 16  2  0
 15 17  1  0
 17 18  1  0
 18 19  1  1
 18 20  1  0
 20 21  1  6
 20 22  1  0
 22 23  1  0
 23 24  1  0
 24 25  1  0
 25 26  2  0
 26 27  1  0
 27 28  2  0
 28 29  1  0
 29 30  2  0
 29 31  1  0
 31 32  1  0
 31 33  1  0
 31 34  1  0
 19  2  1  0
 30 25  1  0
M  END
$$$$
