
     RDKit          3D

 34 35  0  0  0  0  0  0  0  0999 V2000
  -13.9332  -40.0613  -10.6093 C   0  0  0  0  0  0  0  0  0  0  0  0
  -13.4298  -39.9501   -9.2081 C   0  0  2  0  0  0  0  0  0  0  0  0
  -12.0928  -40.6929   -9.0448 C   0  0  0  0  0  0  0  0  0  0  0  0
  -11.7696  -41.5070  -10.2612 C   0  0  0  0  0  0  0  0  0  0  0  0
  -10.8941  -42.6775   -9.8020 C   0  0  0  0  0  0  0  0  0  0  0  0
  -10.5296  -43.5207  -10.9887 C   0  0  0  0  0  0  0  0  0  0  0  0
  -11.7206  -43.9311  -11.8272 C   0  0  0  0  0  0  0  0  0  0  0  0
  -12.7200  -44.7650  -11.0954 C   0  0  0  0  0  0  0  0  0  0  0  0
  -14.0470  -44.5870  -11.6451 N   0  0  0  0  0  0  0  0  0  0  0  0
  -15.2020  -44.4215  -10.8268 C   0  0  0  0  0  0  0  0  0  0  0  0
  -16.3164  -44.7136  -11.2885 O   0  0  0  0  0  0  0  0  0  0  0  0
  -15.0829  -43.9046   -9.4314 C   0  0  0  0  0  0  0  0  0  0  0  0
  -16.4448  -43.3580   -8.9924 C   0  0  1  0  0  0  0  0  0  0  0  0
  -16.5011  -43.3674   -7.4900 C   0  0  0  0  0  0  0  0  0  0  0  0
  -16.8057  -42.1134   -9.6372 C   0  0  0  0  0  0  0  0  0  0  0  0
  -17.6611  -42.2354  -10.5950 O   0  0  0  0  0  0  0  0  0  0  0  0
  -16.3843  -40.8105   -9.3965 N   0  0  0  0  0  0  0  0  0  0  0  0
  -15.7736  -40.2234   -8.2418 C   0  0  1  0  0  0  0  0  0  0  0  0
  -14.3148  -40.3686   -8.1181 C   0  0  0  0  0  0  0  0  0  0  0  0
  -16.2656  -38.8141   -7.9890 C   0  0  2  0  0  0  0  0  0  0  0  0
  -15.4089  -38.0236   -7.2665 O   0  0  0  0  0  0  0  0  0  0  0  0
  -17.6135  -38.7634   -7.3199 C   0  0  0  0  0  0  0  0  0  0  0  0
  -18.2434  -37.4889   -7.4905 N   0  0  0  0  0  0  0  0  0  0  0  0
  -19.3344  -37.2467   -6.5899 C   0  0  0  0  0  0  0  0  0  0  0  0
  -20.4849  -38.0873   -7.0144 C   0  0  0  0  0  0  0  0  0  0  0  0
  -20.9489  -38.0748   -8.3267 C   0  0  0  0  0  0  0  0  0  0  0  0
  -22.0071  -38.8493   -8.7160 C   0  0  0  0  0  0  0  0  0  0  0  0
  -22.6395  -39.6720   -7.7827 C   0  0  0  0  0  0  0  0  0  0  0  0
  -22.2022  -39.7051   -6.4771 C   0  0  0  0  0  0  0  0  0  0  0  0
  -21.1398  -38.9187   -6.1141 C   0  0  0  0  0  0  0  0  0  0  0  0
  -22.8676  -40.5808   -5.4624 C   0  0  0  0  0  0  0  0  0  0  0  0
  -23.9577  -41.3859   -6.1129 C   0  0  0  0  0  0  0  0  0  0  0  0
  -23.5331  -39.6465   -4.4603 C   0  0  0  0  0  0  0  0  0  0  0  0
  -21.8622  -41.4686   -4.7859 C   0  0  0  0  0  0  0  0  0  0  0  0
  2  1  1  6
  2  3  1  0
  3  4  1  0
  4  5  1  0
  5  6  1  0
  6  7  1  0
  7  8  1  0
  8  9  1  0
  9 10  1  0
 10 11  2  0
 10 12  1  0
 12 13  1  0
 13 14  1  1
 13 15  1  0
 15 16  2  0
 15 17  1  0
 17 18  1  0
 18 19  1  6
 18 20  1  0
 20 21  1  1
 20 22  1  0
 22 23  1  0
 23 24  1  0
 24 25  1  0
 25 26  2  0
 26 27  1  0
 27 28  2  0
 28 29  1  0
 29 30  2  0
 29 31  1  0
 31 32  1  0
 31 33  1  0
 31 34  1  0
 19  2  1  0
 30 25  1  0
M  END
$$$$
