
     RDKit          3D

 34 35  0  0  0  0  0  0  0  0999 V2000
  -14.3744  -37.3817  -10.8521 C   0  0  0  0  0  0  0  0  0  0  0  0
  -13.5031  -37.7218   -9.6885 C   0  0  2  0  0  0  0  0  0  0  0  0
  -12.0174  -37.5424  -10.0444 C   0  0  0  0  0  0  0  0  0  0  0  0
  -11.8347  -37.2939  -11.5112 C   0  0  0  0  0  0  0  0  0  0  0  0
  -10.4391  -37.8037  -11.8855 C   0  0  0  0  0  0  0  0  0  0  0  0
  -10.1989  -37.5660  -13.3477 C   0  0  0  0  0  0  0  0  0  0  0  0
  -11.3070  -38.0900  -14.2350 C   0  0  0  0  0  0  0  0  0  0  0  0
  -11.5093  -39.5668  -14.1461 C   0  0  0  0  0  0  0  0  0  0  0  0
  -12.8810  -39.9218  -14.4418 N   0  0  0  0  0  0  0  0  0  0  0  0
  -13.6135  -40.8686  -13.6684 C   0  0  0  0  0  0  0  0  0  0  0  0
  -14.5742  -41.4586  -14.1875 O   0  0  0  0  0  0  0  0  0  0  0  0
  -13.2376  -41.1537  -12.2521 C   0  0  0  0  0  0  0  0  0  0  0  0
  -14.4426  -41.7763  -11.5402 C   0  0  1  0  0  0  0  0  0  0  0  0
  -13.9453  -42.5611  -10.3581 C   0  0  0  0  0  0  0  0  0  0  0  0
  -15.5114  -40.8361  -11.2786 C   0  0  0  0  0  0  0  0  0  0  0  0
  -16.5098  -40.9214  -12.0909 O   0  0  0  0  0  0  0  0  0  0  0  0
  -15.6407  -39.8577  -10.2992 N   0  0  0  0  0  0  0  0  0  0  0  0
  -14.9753  -39.7004   -9.0409 C   0  0  1  0  0  0  0  0  0  0  0  0
  -13.6620  -39.0378   -9.0645 C   0  0  0  0  0  0  0  0  0  0  0  0
  -15.9014  -39.1714   -7.9665 C   0  0  2  0  0  0  0  0  0  0  0  0
  -15.2763  -38.7469   -6.8220 O   0  0  0  0  0  0  0  0  0  0  0  0
  -16.9750  -40.1494   -7.5689 C   0  0  0  0  0  0  0  0  0  0  0  0
  -18.2154  -39.8735   -8.2287 N   0  0  0  0  0  0  0  0  0  0  0  0
  -19.2250  -39.3162   -7.3741 C   0  0  0  0  0  0  0  0  0  0  0  0
  -20.3747  -40.2580   -7.3350 C   0  0  0  0  0  0  0  0  0  0  0  0
  -20.5148  -41.2731   -8.2770 C   0  0  0  0  0  0  0  0  0  0  0  0
  -21.5729  -42.1394   -8.2394 C   0  0  0  0  0  0  0  0  0  0  0  0
  -22.5359  -42.0083   -7.2378 C   0  0  0  0  0  0  0  0  0  0  0  0
  -22.4234  -41.0133   -6.2922 C   0  0  0  0  0  0  0  0  0  0  0  0
  -21.3532  -40.1590   -6.3535 C   0  0  0  0  0  0  0  0  0  0  0  0
  -23.4460  -40.8573   -5.2108 C   0  0  0  0  0  0  0  0  0  0  0  0
  -24.5065  -39.8831   -5.6418 C   0  0  0  0  0  0  0  0  0  0  0  0
  -22.7216  -40.2394   -4.0219 C   0  0  0  0  0  0  0  0  0  0  0  0
  -24.0414  -42.1876   -4.8469 C   0  0  0  0  0  0  0  0  0  0  0  0
  2  1  1  6
  2  3  1  0
  3  4  1  0
  4  5  1  0
  5  6  1  0
  6  7  1  0
  7  8  1  0
  8  9  1  0
  9 10  1  0
 10 11  2  0
 10 12  1  0
 12 13  1  0
 13 14  1  1
 13 15  1  0
 15 16  2  0
 15 17  1  0
 17 18  1  0
 18 19  1  6
 18 20  1  0
 20 21  1  1
 20 22  1  0
 22 23  1  0
 23 24  1  0
 24 25  1  0
 25 26  2  0
 26 27  1  0
 27 28  2  0
 28 29  1  0
 29 30  2  0
 29 31  1  0
 31 32  1  0
 31 33  1  0
 31 34  1  0
 19  2  1  0
 30 25  1  0
M  END
$$$$
