
     RDKit          3D

 34 35  0  0  0  0  0  0  0  0999 V2000
  -19.2142  -39.8913   -5.4948 C   0  0  0  0  0  0  0  0  0  0  0  0
  -19.5465  -39.2476   -6.8002 C   0  0  2  0  0  0  0  0  0  0  0  0
  -21.0697  -39.1602   -6.9970 C   0  0  0  0  0  0  0  0  0  0  0  0
  -21.8005  -39.9361   -5.9431 C   0  0  0  0  0  0  0  0  0  0  0  0
  -23.1360  -40.3770   -6.5513 C   0  0  0  0  0  0  0  0  0  0  0  0
  -23.9164  -41.1501   -5.5288 C   0  0  0  0  0  0  0  0  0  0  0  0
  -23.1281  -42.2721   -4.8886 C   0  0  0  0  0  0  0  0  0  0  0  0
  -22.6718  -43.3194   -5.8503 C   0  0  0  0  0  0  0  0  0  0  0  0
  -21.4575  -43.9562   -5.3869 N   0  0  0  0  0  0  0  0  0  0  0  0
  -20.3550  -44.2272   -6.2483 C   0  0  0  0  0  0  0  0  0  0  0  0
  -19.5605  -45.1317   -5.9464 O   0  0  0  0  0  0  0  0  0  0  0  0
  -20.1502  -43.4389   -7.4994 C   0  0  0  0  0  0  0  0  0  0  0  0
  -18.6871  -43.5756   -7.9318 C   0  0  1  0  0  0  0  0  0  0  0  0
  -18.5969  -43.2937   -9.4059 C   0  0  0  0  0  0  0  0  0  0  0  0
  -17.7620  -42.8524   -7.0856 C   0  0  0  0  0  0  0  0  0  0  0  0
  -17.1189  -43.5889   -6.2442 O   0  0  0  0  0  0  0  0  0  0  0  0
  -17.4520  -41.4982   -7.0286 N   0  0  0  0  0  0  0  0  0  0  0  0
  -17.6415  -40.4542   -7.9903 C   0  0  1  0  0  0  0  0  0  0  0  0
  -18.9655  -39.8135   -8.0202 C   0  0  0  0  0  0  0  0  0  0  0  0
  -16.4917  -39.4693   -7.9991 C   0  0  2  0  0  0  0  0  0  0  0  0
  -16.8570  -38.1555   -8.1449 O   0  0  0  0  0  0  0  0  0  0  0  0
  -15.4507  -39.7762   -9.0428 C   0  0  0  0  0  0  0  0  0  0  0  0
  -14.3930  -38.8111   -9.0375 N   0  0  0  0  0  0  0  0  0  0  0  0
  -14.8329  -37.4552   -9.2058 C   0  0  0  0  0  0  0  0  0  0  0  0
  -14.7537  -37.1154  -10.6511 C   0  0  0  0  0  0  0  0  0  0  0  0
  -15.8713  -36.6803  -11.3576 C   0  0  0  0  0  0  0  0  0  0  0  0
  -15.7967  -36.3674  -12.6872 C   0  0  0  0  0  0  0  0  0  0  0  0
  -14.5771  -36.4846  -13.3556 C   0  0  0  0  0  0  0  0  0  0  0  0
  -13.4545  -36.9126  -12.6823 C   0  0  0  0  0  0  0  0  0  0  0  0
  -13.5576  -37.2197  -11.3503 C   0  0  0  0  0  0  0  0  0  0  0  0
  -12.1384  -37.0444  -13.3821 C   0  0  0  0  0  0  0  0  0  0  0  0
  -11.4759  -35.6995  -13.4903 C   0  0  0  0  0  0  0  0  0  0  0  0
  -12.4509  -37.5090  -14.7987 C   0  0  0  0  0  0  0  0  0  0  0  0
  -11.2565  -38.0326  -12.6734 C   0  0  0  0  0  0  0  0  0  0  0  0
  2  1  1  1
  2  3  1  0
  3  4  1  0
  4  5  1  0
  5  6  1  0
  6  7  1  0
  7  8  1  0
  8  9  1  0
  9 10  1  0
 10 11  2  0
 10 12  1  0
 12 13  1  0
 13 14  1  6
 13 15  1  0
 15 16  2  0
 15 17  1  0
 17 18  1  0
 18 19  1  1
 18 20  1  0
 20 21  1  6
 20 22  1  0
 22 23  1  0
 23 24  1  0
 24 25  1  0
 25 26  2  0
 26 27  1  0
 27 28  2  0
 28 29  1  0
 29 30  2  0
 29 31  1  0
 31 32  1  0
 31 33  1  0
 31 34  1  0
 19  2  1  0
 30 25  1  0
M  END
$$$$
