
     RDKit          3D

 34 35  0  0  0  0  0  0  0  0999 V2000
  -19.0372  -39.8960   -5.6693 C   0  0  0  0  0  0  0  0  0  0  0  0
  -19.0734  -39.2131   -6.9963 C   0  0  2  0  0  0  0  0  0  0  0  0
  -20.5229  -38.9485   -7.4380 C   0  0  0  0  0  0  0  0  0  0  0  0
  -21.5017  -39.6381   -6.5362 C   0  0  0  0  0  0  0  0  0  0  0  0
  -22.7596  -39.9184   -7.3649 C   0  0  0  0  0  0  0  0  0  0  0  0
  -23.7814  -40.5994   -6.5022 C   0  0  0  0  0  0  0  0  0  0  0  0
  -23.2431  -41.8078   -5.7674 C   0  0  0  0  0  0  0  0  0  0  0  0
  -22.7565  -42.8974   -6.6650 C   0  0  0  0  0  0  0  0  0  0  0  0
  -21.7162  -43.6729   -6.0237 N   0  0  0  0  0  0  0  0  0  0  0  0
  -20.5246  -44.0669   -6.6987 C   0  0  0  0  0  0  0  0  0  0  0  0
  -19.8994  -45.0588   -6.2916 O   0  0  0  0  0  0  0  0  0  0  0  0
  -20.0271  -43.3031   -7.8810 C   0  0  0  0  0  0  0  0  0  0  0  0
  -18.5379  -43.6073   -8.0709 C   0  0  1  0  0  0  0  0  0  0  0  0
  -18.1736  -43.3323   -9.5034 C   0  0  0  0  0  0  0  0  0  0  0  0
  -17.6892  -42.9998   -7.0681 C   0  0  0  0  0  0  0  0  0  0  0  0
  -17.2823  -43.8093   -6.1498 O   0  0  0  0  0  0  0  0  0  0  0  0
  -17.2405  -41.6911   -6.9300 N   0  0  0  0  0  0  0  0  0  0  0  0
  -17.1479  -40.6285   -7.8856 C   0  0  1  0  0  0  0  0  0  0  0  0
  -18.3670  -39.8381   -8.1173 C   0  0  0  0  0  0  0  0  0  0  0  0
  -15.9078  -39.7840   -7.6833 C   0  0  2  0  0  0  0  0  0  0  0  0
  -16.0774  -38.4430   -7.9153 O   0  0  0  0  0  0  0  0  0  0  0  0
  -14.7304  -40.2470   -8.4996 C   0  0  0  0  0  0  0  0  0  0  0  0
  -14.2128  -39.1992   -9.3269 N   0  0  0  0  0  0  0  0  0  0  0  0
  -14.2904  -39.4686  -10.7346 C   0  0  0  0  0  0  0  0  0  0  0  0
  -14.4597  -38.1751  -11.4481 C   0  0  0  0  0  0  0  0  0  0  0  0
  -15.6399  -37.8631  -12.1167 C   0  0  0  0  0  0  0  0  0  0  0  0
  -15.7944  -36.6723  -12.7721 C   0  0  0  0  0  0  0  0  0  0  0  0
  -14.7504  -35.7461  -12.7743 C   0  0  0  0  0  0  0  0  0  0  0  0
  -13.5709  -36.0276  -12.1212 C   0  0  0  0  0  0  0  0  0  0  0  0
  -13.4430  -37.2283  -11.4725 C   0  0  0  0  0  0  0  0  0  0  0  0
  -12.4407  -35.0469  -12.1126 C   0  0  0  0  0  0  0  0  0  0  0  0
  -12.1078  -34.6327  -13.5186 C   0  0  0  0  0  0  0  0  0  0  0  0
  -11.2311  -35.7918  -11.5629 C   0  0  0  0  0  0  0  0  0  0  0  0
  -12.7755  -33.8580  -11.2575 C   0  0  0  0  0  0  0  0  0  0  0  0
  2  1  1  1
  2  3  1  0
  3  4  1  0
  4  5  1  0
  5  6  1  0
  6  7  1  0
  7  8  1  0
  8  9  1  0
  9 10  1  0
 10 11  2  0
 10 12  1  0
 12 13  1  0
 13 14  1  6
 13 15  1  0
 15 16  2  0
 15 17  1  0
 17 18  1  0
 18 19  1  1
 18 20  1  0
 20 21  1  6
 20 22  1  0
 22 23  1  0
 23 24  1  0
 24 25  1  0
 25 26  2  0
 26 27  1  0
 27 28  2  0
 28 29  1  0
 29 30  2  0
 29 31  1  0
 31 32  1  0
 31 33  1  0
 31 34  1  0
 19  2  1  0
 30 25  1  0
M  END
$$$$
