
     RDKit          3D

 34 35  0  0  0  0  0  0  0  0999 V2000
  -19.0783  -39.7268   -5.8502 C   0  0  0  0  0  0  0  0  0  0  0  0
  -19.3564  -39.0882   -7.1707 C   0  0  2  0  0  0  0  0  0  0  0  0
  -20.8699  -39.0081   -7.4335 C   0  0  0  0  0  0  0  0  0  0  0  0
  -21.6425  -39.7841   -6.4100 C   0  0  0  0  0  0  0  0  0  0  0  0
  -22.9485  -40.2325   -7.0741 C   0  0  0  0  0  0  0  0  0  0  0  0
  -23.7692  -41.0061   -6.0841 C   0  0  0  0  0  0  0  0  0  0  0  0
  -23.0047  -42.1228   -5.4070 C   0  0  0  0  0  0  0  0  0  0  0  0
  -22.5028  -43.1708   -6.3448 C   0  0  0  0  0  0  0  0  0  0  0  0
  -21.3070  -43.8011   -5.8273 N   0  0  0  0  0  0  0  0  0  0  0  0
  -20.1670  -44.0697   -6.6393 C   0  0  0  0  0  0  0  0  0  0  0  0
  -19.3826  -44.9699   -6.3006 O   0  0  0  0  0  0  0  0  0  0  0  0
  -19.9116  -43.2841   -7.8828 C   0  0  0  0  0  0  0  0  0  0  0  0
  -18.4305  -43.4156   -8.2510 C   0  0  1  0  0  0  0  0  0  0  0  0
  -18.2777  -43.1376   -9.7206 C   0  0  0  0  0  0  0  0  0  0  0  0
  -17.5460  -42.6861   -7.3676 C   0  0  0  0  0  0  0  0  0  0  0  0
  -16.9369  -43.4174   -6.4970 O   0  0  0  0  0  0  0  0  0  0  0  0
  -17.2445  -41.3304   -7.3014 N   0  0  0  0  0  0  0  0  0  0  0  0
  -17.3965  -40.2899   -8.2735 C   0  0  1  0  0  0  0  0  0  0  0  0
  -18.7207  -39.6551   -8.3627 C   0  0  0  0  0  0  0  0  0  0  0  0
  -16.2516  -39.3001   -8.2355 C   0  0  2  0  0  0  0  0  0  0  0  0
  -16.6246  -37.9819   -8.3000 O   0  0  0  0  0  0  0  0  0  0  0  0
  -15.2197  -39.5394   -9.3055 C   0  0  0  0  0  0  0  0  0  0  0  0
  -13.9666  -39.9553   -8.7512 N   0  0  0  0  0  0  0  0  0  0  0  0
  -12.9803  -40.3138   -9.7304 C   0  0  0  0  0  0  0  0  0  0  0  0
  -13.1986  -39.4771  -10.9399 C   0  0  0  0  0  0  0  0  0  0  0  0
  -13.6809  -40.0250  -12.1251 C   0  0  0  0  0  0  0  0  0  0  0  0
  -13.8818  -39.2538  -13.2370 C   0  0  0  0  0  0  0  0  0  0  0  0
  -13.5995  -37.8879  -13.1887 C   0  0  0  0  0  0  0  0  0  0  0  0
  -13.1212  -37.3181  -12.0297 C   0  0  0  0  0  0  0  0  0  0  0  0
  -12.9289  -38.1141  -10.9304 C   0  0  0  0  0  0  0  0  0  0  0  0
  -12.8129  -35.8555  -11.9591 C   0  0  0  0  0  0  0  0  0  0  0  0
  -11.3566  -35.6217  -12.2488 C   0  0  0  0  0  0  0  0  0  0  0  0
  -13.0594  -35.4347  -10.5161 C   0  0  0  0  0  0  0  0  0  0  0  0
  -13.6888  -35.0819  -12.9029 C   0  0  0  0  0  0  0  0  0  0  0  0
  2  1  1  1
  2  3  1  0
  3  4  1  0
  4  5  1  0
  5  6  1  0
  6  7  1  0
  7  8  1  0
  8  9  1  0
  9 10  1  0
 10 11  2  0
 10 12  1  0
 12 13  1  0
 13 14  1  6
 13 15  1  0
 15 16  2  0
 15 17  1  0
 17 18  1  0
 18 19  1  1
 18 20  1  0
 20 21  1  6
 20 22  1  0
 22 23  1  0
 23 24  1  0
 24 25  1  0
 25 26  2  0
 26 27  1  0
 27 28  2  0
 28 29  1  0
 29 30  2  0
 29 31  1  0
 31 32  1  0
 31 33  1  0
 31 34  1  0
 19  2  1  0
 30 25  1  0
M  END
$$$$
