
     RDKit          3D

 34 35  0  0  0  0  0  0  0  0999 V2000
  -14.8674  -37.4987  -11.6092 C   0  0  0  0  0  0  0  0  0  0  0  0
  -14.0645  -37.6244  -10.3568 C   0  0  2  0  0  0  0  0  0  0  0  0
  -12.5604  -37.5010  -10.6545 C   0  0  0  0  0  0  0  0  0  0  0  0
  -12.2942  -37.5121  -12.1295 C   0  0  0  0  0  0  0  0  0  0  0  0
  -10.8817  -38.0710  -12.3296 C   0  0  0  0  0  0  0  0  0  0  0  0
  -10.5585  -38.0916  -13.7949 C   0  0  0  0  0  0  0  0  0  0  0  0
  -11.6167  -38.7696  -14.6377 C   0  0  0  0  0  0  0  0  0  0  0  0
  -11.8294  -40.2092  -14.3030 C   0  0  0  0  0  0  0  0  0  0  0  0
  -13.1835  -40.6189  -14.6086 N   0  0  0  0  0  0  0  0  0  0  0  0
  -13.9621  -41.4201  -13.7238 C   0  0  0  0  0  0  0  0  0  0  0  0
  -14.8942  -42.0978  -14.1847 O   0  0  0  0  0  0  0  0  0  0  0  0
  -13.6679  -41.4506  -12.2606 C   0  0  0  0  0  0  0  0  0  0  0  0
  -14.9135  -41.9462  -11.5196 C   0  0  1  0  0  0  0  0  0  0  0  0
  -14.4868  -42.5089  -10.1922 C   0  0  0  0  0  0  0  0  0  0  0  0
  -15.9918  -40.9813  -11.4872 C   0  0  0  0  0  0  0  0  0  0  0  0
  -16.9430  -41.2136  -12.3269 O   0  0  0  0  0  0  0  0  0  0  0  0
  -16.1724  -39.8474  -10.7032 N   0  0  0  0  0  0  0  0  0  0  0  0
  -15.5785  -39.4681   -9.4565 C   0  0  1  0  0  0  0  0  0  0  0  0
  -14.2634  -38.8118   -9.5219 C   0  0  0  0  0  0  0  0  0  0  0  0
  -16.5618  -38.7648   -8.5452 C   0  0  2  0  0  0  0  0  0  0  0  0
  -15.9922  -37.9699   -7.5836 O   0  0  0  0  0  0  0  0  0  0  0  0
  -17.5172  -39.7046   -7.8589 C   0  0  0  0  0  0  0  0  0  0  0  0
  -18.0136  -40.7051   -8.7549 N   0  0  0  0  0  0  0  0  0  0  0  0
  -19.0650  -40.2506   -9.6199 C   0  0  0  0  0  0  0  0  0  0  0  0
  -20.2489  -39.9231   -8.7823 C   0  0  0  0  0  0  0  0  0  0  0  0
  -21.4841  -39.6296   -9.3531 C   0  0  0  0  0  0  0  0  0  0  0  0
  -22.5727  -39.3291   -8.5811 C   0  0  0  0  0  0  0  0  0  0  0  0
  -22.4493  -39.3150   -7.1910 C   0  0  0  0  0  0  0  0  0  0  0  0
  -21.2395  -39.6015   -6.5983 C   0  0  0  0  0  0  0  0  0  0  0  0
  -20.1650  -39.8990   -7.3956 C   0  0  0  0  0  0  0  0  0  0  0  0
  -21.0881  -39.5913   -5.1096 C   0  0  0  0  0  0  0  0  0  0  0  0
  -22.4356  -39.4638   -4.4559 C   0  0  0  0  0  0  0  0  0  0  0  0
  -20.2996  -38.3338   -4.7676 C   0  0  0  0  0  0  0  0  0  0  0  0
  -20.3676  -40.8232   -4.6405 C   0  0  0  0  0  0  0  0  0  0  0  0
  2  1  1  6
  2  3  1  0
  3  4  1  0
  4  5  1  0
  5  6  1  0
  6  7  1  0
  7  8  1  0
  8  9  1  0
  9 10  1  0
 10 11  2  0
 10 12  1  0
 12 13  1  0
 13 14  1  1
 13 15  1  0
 15 16  2  0
 15 17  1  0
 17 18  1  0
 18 19  1  6
 18 20  1  0
 20 21  1  1
 20 22  1  0
 22 23  1  0
 23 24  1  0
 24 25  1  0
 25 26  2  0
 26 27  1  0
 27 28  2  0
 28 29  1  0
 29 30  2  0
 29 31  1  0
 31 32  1  0
 31 33  1  0
 31 34  1  0
 19  2  1  0
 30 25  1  0
M  END
$$$$
