
     RDKit          3D

 34 35  0  0  0  0  0  0  0  0999 V2000
  -19.2235  -39.5734   -5.7644 C   0  0  0  0  0  0  0  0  0  0  0  0
  -19.2405  -38.9802   -7.1343 C   0  0  2  0  0  0  0  0  0  0  0  0
  -20.6808  -38.6849   -7.5866 C   0  0  0  0  0  0  0  0  0  0  0  0
  -21.6812  -39.2705   -6.6363 C   0  0  0  0  0  0  0  0  0  0  0  0
  -22.9555  -39.5524   -7.4388 C   0  0  0  0  0  0  0  0  0  0  0  0
  -23.9988  -40.1302   -6.5278 C   0  0  0  0  0  0  0  0  0  0  0  0
  -23.5063  -41.3082   -5.7155 C   0  0  0  0  0  0  0  0  0  0  0  0
  -23.0721  -42.4752   -6.5398 C   0  0  0  0  0  0  0  0  0  0  0  0
  -22.0606  -43.2491   -5.8520 N   0  0  0  0  0  0  0  0  0  0  0  0
  -20.8913  -43.7375   -6.5040 C   0  0  0  0  0  0  0  0  0  0  0  0
  -20.3054  -44.7253   -6.0336 O   0  0  0  0  0  0  0  0  0  0  0  0
  -20.3708  -43.0765   -7.7372 C   0  0  0  0  0  0  0  0  0  0  0  0
  -18.8970  -43.4554   -7.9125 C   0  0  1  0  0  0  0  0  0  0  0  0
  -18.5316  -43.2928   -9.3618 C   0  0  0  0  0  0  0  0  0  0  0  0
  -18.0165  -42.8183   -6.9566 C   0  0  0  0  0  0  0  0  0  0  0  0
  -17.6373  -43.5807   -5.9876 O   0  0  0  0  0  0  0  0  0  0  0  0
  -17.5125  -41.5234   -6.9089 N   0  0  0  0  0  0  0  0  0  0  0  0
  -17.3823  -40.5322   -7.9343 C   0  0  1  0  0  0  0  0  0  0  0  0
  -18.5688  -39.7084   -8.2136 C   0  0  0  0  0  0  0  0  0  0  0  0
  -16.1066  -39.7291   -7.7947 C   0  0  2  0  0  0  0  0  0  0  0  0
  -16.2455  -38.5326   -7.1391 O   0  0  0  0  0  0  0  0  0  0  0  0
  -15.4253  -39.4571   -9.1096 C   0  0  0  0  0  0  0  0  0  0  0  0
  -14.7694  -40.6235   -9.6190 N   0  0  0  0  0  0  0  0  0  0  0  0
  -14.2123  -40.4590  -10.9316 C   0  0  0  0  0  0  0  0  0  0  0  0
  -14.1474  -39.0042  -11.2316 C   0  0  0  0  0  0  0  0  0  0  0  0
  -15.2756  -38.2935  -11.6309 C   0  0  0  0  0  0  0  0  0  0  0  0
  -15.2144  -36.9549  -11.9059 C   0  0  0  0  0  0  0  0  0  0  0  0
  -13.9981  -36.2812  -11.7853 C   0  0  0  0  0  0  0  0  0  0  0  0
  -12.8651  -36.9585  -11.3920 C   0  0  0  0  0  0  0  0  0  0  0  0
  -12.9548  -38.2996  -11.1229 C   0  0  0  0  0  0  0  0  0  0  0  0
  -11.5523  -36.2531  -11.2571 C   0  0  0  0  0  0  0  0  0  0  0  0
  -10.4243  -37.2417  -11.3543 C   0  0  0  0  0  0  0  0  0  0  0  0
  -11.5217  -35.6700   -9.8503 C   0  0  0  0  0  0  0  0  0  0  0  0
  -11.4217  -35.1715  -12.2914 C   0  0  0  0  0  0  0  0  0  0  0  0
  2  1  1  1
  2  3  1  0
  3  4  1  0
  4  5  1  0
  5  6  1  0
  6  7  1  0
  7  8  1  0
  8  9  1  0
  9 10  1  0
 10 11  2  0
 10 12  1  0
 12 13  1  0
 13 14  1  6
 13 15  1  0
 15 16  2  0
 15 17  1  0
 17 18  1  0
 18 19  1  1
 18 20  1  0
 20 21  1  6
 20 22  1  0
 22 23  1  0
 23 24  1  0
 24 25  1  0
 25 26  2  0
 26 27  1  0
 27 28  2  0
 28 29  1  0
 29 30  2  0
 29 31  1  0
 31 32  1  0
 31 33  1  0
 31 34  1  0
 19  2  1  0
 30 25  1  0
M  END
$$$$
