
     RDKit          3D

 34 35  0  0  0  0  0  0  0  0999 V2000
  -19.0431  -39.8331   -5.8698 C   0  0  0  0  0  0  0  0  0  0  0  0
  -19.3213  -39.2262   -7.2052 C   0  0  2  0  0  0  0  0  0  0  0  0
  -20.8354  -39.1002   -7.4460 C   0  0  0  0  0  0  0  0  0  0  0  0
  -21.6170  -39.8161   -6.3861 C   0  0  0  0  0  0  0  0  0  0  0  0
  -22.9492  -40.2380   -7.0146 C   0  0  0  0  0  0  0  0  0  0  0  0
  -23.7794  -40.9508   -5.9875 C   0  0  0  0  0  0  0  0  0  0  0  0
  -23.0431  -42.0725   -5.2879 C   0  0  0  0  0  0  0  0  0  0  0  0
  -22.5946  -43.1663   -6.2001 C   0  0  0  0  0  0  0  0  0  0  0  0
  -21.4129  -43.8226   -5.6823 N   0  0  0  0  0  0  0  0  0  0  0  0
  -20.2973  -44.1567   -6.5037 C   0  0  0  0  0  0  0  0  0  0  0  0
  -19.5393  -45.0734   -6.1494 O   0  0  0  0  0  0  0  0  0  0  0  0
  -20.0359  -43.4197   -7.7753 C   0  0  0  0  0  0  0  0  0  0  0  0
  -18.5669  -43.6153   -8.1631 C   0  0  1  0  0  0  0  0  0  0  0  0
  -18.4298  -43.3885   -9.6430 C   0  0  0  0  0  0  0  0  0  0  0  0
  -17.6422  -42.8907   -7.3176 C   0  0  0  0  0  0  0  0  0  0  0  0
  -17.0442  -43.6160   -6.4342 O   0  0  0  0  0  0  0  0  0  0  0  0
  -17.2921  -41.5453   -7.2990 N   0  0  0  0  0  0  0  0  0  0  0  0
  -17.4242  -40.5307   -8.3010 C   0  0  1  0  0  0  0  0  0  0  0  0
  -18.7266  -39.8521   -8.3888 C   0  0  0  0  0  0  0  0  0  0  0  0
  -16.2447  -39.5817   -8.3127 C   0  0  2  0  0  0  0  0  0  0  0  0
  -16.3796  -38.4818   -7.5046 O   0  0  0  0  0  0  0  0  0  0  0  0
  -15.8811  -39.0980   -9.6915 C   0  0  0  0  0  0  0  0  0  0  0  0
  -14.4961  -38.7466   -9.7829 N   0  0  0  0  0  0  0  0  0  0  0  0
  -13.9995  -38.6566  -11.1266 C   0  0  0  0  0  0  0  0  0  0  0  0
  -14.3672  -37.3228  -11.6711 C   0  0  0  0  0  0  0  0  0  0  0  0
  -15.2817  -37.1899  -12.7120 C   0  0  0  0  0  0  0  0  0  0  0  0
  -15.6195  -35.9620  -13.2115 C   0  0  0  0  0  0  0  0  0  0  0  0
  -15.0388  -34.8140  -12.6703 C   0  0  0  0  0  0  0  0  0  0  0  0
  -14.1307  -34.9149  -11.6397 C   0  0  0  0  0  0  0  0  0  0  0  0
  -13.8102  -36.1577  -11.1584 C   0  0  0  0  0  0  0  0  0  0  0  0
  -13.4979  -33.6954  -11.0469 C   0  0  0  0  0  0  0  0  0  0  0  0
  -13.8857  -33.5656   -9.6005 C   0  0  0  0  0  0  0  0  0  0  0  0
  -14.0938  -32.5024  -11.7829 C   0  0  0  0  0  0  0  0  0  0  0  0
  -12.0052  -33.7386  -11.2106 C   0  0  0  0  0  0  0  0  0  0  0  0
  2  1  1  1
  2  3  1  0
  3  4  1  0
  4  5  1  0
  5  6  1  0
  6  7  1  0
  7  8  1  0
  8  9  1  0
  9 10  1  0
 10 11  2  0
 10 12  1  0
 12 13  1  0
 13 14  1  6
 13 15  1  0
 15 16  2  0
 15 17  1  0
 17 18  1  0
 18 19  1  1
 18 20  1  0
 20 21  1  1
 20 22  1  0
 22 23  1  0
 23 24  1  0
 24 25  1  0
 25 26  2  0
 26 27  1  0
 27 28  2  0
 28 29  1  0
 29 30  2  0
 29 31  1  0
 31 32  1  0
 31 33  1  0
 31 34  1  0
 19  2  1  0
 30 25  1  0
M  END
$$$$
