
     RDKit          3D

 34 35  0  0  0  0  0  0  0  0999 V2000
  -19.3764  -39.8040   -5.7840 C   0  0  0  0  0  0  0  0  0  0  0  0
  -19.4585  -39.1191   -7.1080 C   0  0  2  0  0  0  0  0  0  0  0  0
  -20.9204  -38.8179   -7.4803 C   0  0  0  0  0  0  0  0  0  0  0  0
  -21.8721  -39.4836   -6.5328 C   0  0  0  0  0  0  0  0  0  0  0  0
  -23.1746  -39.7316   -7.3006 C   0  0  0  0  0  0  0  0  0  0  0  0
  -24.1710  -40.3876   -6.3901 C   0  0  0  0  0  0  0  0  0  0  0  0
  -23.6288  -41.6098   -5.6814 C   0  0  0  0  0  0  0  0  0  0  0  0
  -23.2128  -42.7104   -6.6009 C   0  0  0  0  0  0  0  0  0  0  0  0
  -22.1630  -43.5123   -6.0095 N   0  0  0  0  0  0  0  0  0  0  0  0
  -21.0150  -43.9354   -6.7404 C   0  0  0  0  0  0  0  0  0  0  0  0
  -20.3963  -44.9430   -6.3632 O   0  0  0  0  0  0  0  0  0  0  0  0
  -20.5554  -43.1832   -7.9452 C   0  0  0  0  0  0  0  0  0  0  0  0
  -19.0850  -43.5244   -8.2056 C   0  0  1  0  0  0  0  0  0  0  0  0
  -18.7824  -43.2573   -9.6539 C   0  0  0  0  0  0  0  0  0  0  0  0
  -18.1746  -42.9392   -7.2445 C   0  0  0  0  0  0  0  0  0  0  0  0
  -17.7449  -43.7595   -6.3464 O   0  0  0  0  0  0  0  0  0  0  0  0
  -17.6872  -41.6423   -7.1283 N   0  0  0  0  0  0  0  0  0  0  0  0
  -17.6136  -40.5815   -8.0875 C   0  0  1  0  0  0  0  0  0  0  0  0
  -18.8221  -39.7606   -8.2612 C   0  0  0  0  0  0  0  0  0  0  0  0
  -16.3445  -39.7684   -7.9446 C   0  0  2  0  0  0  0  0  0  0  0  0
  -16.5167  -38.4099   -8.0199 O   0  0  0  0  0  0  0  0  0  0  0  0
  -15.2751  -40.1523   -8.9326 C   0  0  0  0  0  0  0  0  0  0  0  0
  -14.0168  -39.5475   -8.6148 N   0  0  0  0  0  0  0  0  0  0  0  0
  -12.9290  -39.9820   -9.4443 C   0  0  0  0  0  0  0  0  0  0  0  0
  -13.0432  -39.2974  -10.7592 C   0  0  0  0  0  0  0  0  0  0  0  0
  -13.2199  -40.0145  -11.9390 C   0  0  0  0  0  0  0  0  0  0  0  0
  -13.3254  -39.3831  -13.1479 C   0  0  0  0  0  0  0  0  0  0  0  0
  -13.2553  -37.9905  -13.2068 C   0  0  0  0  0  0  0  0  0  0  0  0
  -13.0809  -37.2546  -12.0557 C   0  0  0  0  0  0  0  0  0  0  0  0
  -12.9781  -37.9129  -10.8577 C   0  0  0  0  0  0  0  0  0  0  0  0
  -13.0036  -35.7609  -12.0991 C   0  0  0  0  0  0  0  0  0  0  0  0
  -11.7932  -35.2859  -11.3448 C   0  0  0  0  0  0  0  0  0  0  0  0
  -14.2294  -35.2464  -11.3557 C   0  0  0  0  0  0  0  0  0  0  0  0
  -12.9896  -35.2708  -13.5190 C   0  0  0  0  0  0  0  0  0  0  0  0
  2  1  1  1
  2  3  1  0
  3  4  1  0
  4  5  1  0
  5  6  1  0
  6  7  1  0
  7  8  1  0
  8  9  1  0
  9 10  1  0
 10 11  2  0
 10 12  1  0
 12 13  1  0
 13 14  1  6
 13 15  1  0
 15 16  2  0
 15 17  1  0
 17 18  1  0
 18 19  1  1
 18 20  1  0
 20 21  1  6
 20 22  1  0
 22 23  1  0
 23 24  1  0
 24 25  1  0
 25 26  2  0
 26 27  1  0
 27 28  2  0
 28 29  1  0
 29 30  2  0
 29 31  1  0
 31 32  1  0
 31 33  1  0
 31 34  1  0
 19  2  1  0
 30 25  1  0
M  END
$$$$
