
     RDKit          3D

 34 35  0  0  0  0  0  0  0  0999 V2000
  -18.3437  -39.3504   -6.1522 C   0  0  0  0  0  0  0  0  0  0  0  0
  -18.8393  -38.7896   -7.4440 C   0  0  2  0  0  0  0  0  0  0  0  0
  -20.3753  -38.7075   -7.4533 C   0  0  0  0  0  0  0  0  0  0  0  0
  -20.9657  -39.4109   -6.2687 C   0  0  0  0  0  0  0  0  0  0  0  0
  -22.3655  -39.8831   -6.6751 C   0  0  0  0  0  0  0  0  0  0  0  0
  -23.0090  -40.5856   -5.5155 C   0  0  0  0  0  0  0  0  0  0  0  0
  -22.1431  -41.6683   -4.9089 C   0  0  0  0  0  0  0  0  0  0  0  0
  -21.8079  -42.7770   -5.8513 C   0  0  0  0  0  0  0  0  0  0  0  0
  -20.5430  -43.3890   -5.5042 N   0  0  0  0  0  0  0  0  0  0  0  0
  -19.5565  -43.7198   -6.4780 C   0  0  0  0  0  0  0  0  0  0  0  0
  -18.7276  -44.6071   -6.2210 O   0  0  0  0  0  0  0  0  0  0  0  0
  -19.5129  -43.0140   -7.7927 C   0  0  0  0  0  0  0  0  0  0  0  0
  -18.1152  -43.1851   -8.3957 C   0  0  1  0  0  0  0  0  0  0  0  0
  -18.2116  -42.9983   -9.8844 C   0  0  0  0  0  0  0  0  0  0  0  0
  -17.0934  -42.4140   -7.7202 C   0  0  0  0  0  0  0  0  0  0  0  0
  -16.3475  -43.0984   -6.9208 O   0  0  0  0  0  0  0  0  0  0  0  0
  -16.7830  -41.0605   -7.7892 N   0  0  0  0  0  0  0  0  0  0  0  0
  -17.0950  -40.0790   -8.7843 C   0  0  1  0  0  0  0  0  0  0  0  0
  -18.4143  -39.4351   -8.6887 C   0  0  0  0  0  0  0  0  0  0  0  0
  -15.9585  -39.1024   -9.0002 C   0  0  2  0  0  0  0  0  0  0  0  0
  -16.3448  -37.8037   -9.2129 O   0  0  0  0  0  0  0  0  0  0  0  0
  -15.0363  -39.4981  -10.1227 C   0  0  0  0  0  0  0  0  0  0  0  0
  -13.6881  -39.0859   -9.8727 N   0  0  0  0  0  0  0  0  0  0  0  0
  -13.5481  -37.6931   -9.5550 C   0  0  0  0  0  0  0  0  0  0  0  0
  -13.2225  -36.9600  -10.8069 C   0  0  0  0  0  0  0  0  0  0  0  0
  -12.9990  -35.5861  -10.8072 C   0  0  0  0  0  0  0  0  0  0  0  0
  -12.6989  -34.9130  -11.9597 C   0  0  0  0  0  0  0  0  0  0  0  0
  -12.6133  -35.6127  -13.1642 C   0  0  0  0  0  0  0  0  0  0  0  0
  -12.8294  -36.9725  -13.1944 C   0  0  0  0  0  0  0  0  0  0  0  0
  -13.1286  -37.6219  -12.0249 C   0  0  0  0  0  0  0  0  0  0  0  0
  -12.7418  -37.7395  -14.4763 C   0  0  0  0  0  0  0  0  0  0  0  0
  -12.5779  -36.7929  -15.6324 C   0  0  0  0  0  0  0  0  0  0  0  0
  -14.0844  -38.4372  -14.6509 C   0  0  0  0  0  0  0  0  0  0  0  0
  -11.6194  -38.7365  -14.4232 C   0  0  0  0  0  0  0  0  0  0  0  0
  2  1  1  1
  2  3  1  0
  3  4  1  0
  4  5  1  0
  5  6  1  0
  6  7  1  0
  7  8  1  0
  8  9  1  0
  9 10  1  0
 10 11  2  0
 10 12  1  0
 12 13  1  0
 13 14  1  6
 13 15  1  0
 15 16  2  0
 15 17  1  0
 17 18  1  0
 18 19  1  1
 18 20  1  0
 20 21  1  6
 20 22  1  0
 22 23  1  0
 23 24  1  0
 24 25  1  0
 25 26  2  0
 26 27  1  0
 27 28  2  0
 28 29  1  0
 29 30  2  0
 29 31  1  0
 31 32  1  0
 31 33  1  0
 31 34  1  0
 19  2  1  0
 30 25  1  0
M  END
$$$$
