
     RDKit          3D

 34 35  0  0  0  0  0  0  0  0999 V2000
  -18.7557  -39.6057   -6.2066 C   0  0  0  0  0  0  0  0  0  0  0  0
  -18.7497  -39.0050   -7.5734 C   0  0  2  0  0  0  0  0  0  0  0  0
  -20.1778  -38.6547   -8.0252 C   0  0  0  0  0  0  0  0  0  0  0  0
  -21.1998  -39.2081   -7.0787 C   0  0  0  0  0  0  0  0  0  0  0  0
  -22.4829  -39.4389   -7.8837 C   0  0  0  0  0  0  0  0  0  0  0  0
  -23.5475  -39.9829   -6.9765 C   0  0  0  0  0  0  0  0  0  0  0  0
  -23.0993  -41.1824   -6.1701 C   0  0  0  0  0  0  0  0  0  0  0  0
  -22.7074  -42.3602   -7.0002 C   0  0  0  0  0  0  0  0  0  0  0  0
  -21.7257  -43.1743   -6.3159 N   0  0  0  0  0  0  0  0  0  0  0  0
  -20.5745  -43.7018   -6.9696 C   0  0  0  0  0  0  0  0  0  0  0  0
  -20.0255  -44.7129   -6.5041 O   0  0  0  0  0  0  0  0  0  0  0  0
  -20.0289  -43.0539   -8.1989 C   0  0  0  0  0  0  0  0  0  0  0  0
  -18.5698  -43.4856   -8.3751 C   0  0  1  0  0  0  0  0  0  0  0  0
  -18.1974  -43.3289   -9.8233 C   0  0  0  0  0  0  0  0  0  0  0  0
  -17.6674  -42.8863   -7.4152 C   0  0  0  0  0  0  0  0  0  0  0  0
  -17.3174  -43.6672   -6.4500 O   0  0  0  0  0  0  0  0  0  0  0  0
  -17.1163  -41.6110   -7.3603 N   0  0  0  0  0  0  0  0  0  0  0  0
  -16.9489  -40.6198   -8.3803 C   0  0  1  0  0  0  0  0  0  0  0  0
  -18.1042  -39.7516   -8.6561 C   0  0  0  0  0  0  0  0  0  0  0  0
  -15.6447  -39.8648   -8.2355 C   0  0  2  0  0  0  0  0  0  0  0  0
  -15.6369  -38.9074   -7.2535 O   0  0  0  0  0  0  0  0  0  0  0  0
  -15.1850  -39.2164   -9.5143 C   0  0  0  0  0  0  0  0  0  0  0  0
  -15.2182  -40.1312  -10.6153 N   0  0  0  0  0  0  0  0  0  0  0  0
  -13.9244  -40.4790  -11.1304 C   0  0  0  0  0  0  0  0  0  0  0  0
  -13.0557  -39.2744  -11.0607 C   0  0  0  0  0  0  0  0  0  0  0  0
  -11.8297  -39.2998  -10.4021 C   0  0  0  0  0  0  0  0  0  0  0  0
  -11.0312  -38.1908  -10.3394 C   0  0  0  0  0  0  0  0  0  0  0  0
  -11.4486  -37.0055  -10.9467 C   0  0  0  0  0  0  0  0  0  0  0  0
  -12.6569  -36.9508  -11.6055 C   0  0  0  0  0  0  0  0  0  0  0  0
  -13.4373  -38.0768  -11.6529 C   0  0  0  0  0  0  0  0  0  0  0  0
  -13.1210  -35.6890  -12.2625 C   0  0  0  0  0  0  0  0  0  0  0  0
  -14.0754  -34.9591  -11.3592 C   0  0  0  0  0  0  0  0  0  0  0  0
  -13.9037  -36.1123  -13.4987 C   0  0  0  0  0  0  0  0  0  0  0  0
  -11.9515  -34.8232  -12.6357 C   0  0  0  0  0  0  0  0  0  0  0  0
  2  1  1  1
  2  3  1  0
  3  4  1  0
  4  5  1  0
  5  6  1  0
  6  7  1  0
  7  8  1  0
  8  9  1  0
  9 10  1  0
 10 11  2  0
 10 12  1  0
 12 13  1  0
 13 14  1  6
 13 15  1  0
 15 16  2  0
 15 17  1  0
 17 18  1  0
 18 19  1  1
 18 20  1  0
 20 21  1  1
 20 22  1  0
 22 23  1  0
 23 24  1  0
 24 25  1  0
 25 26  2  0
 26 27  1  0
 27 28  2  0
 28 29  1  0
 29 30  2  0
 29 31  1  0
 31 32  1  0
 31 33  1  0
 31 34  1  0
 19  2  1  0
 30 25  1  0
M  END
$$$$
