
     RDKit          3D

 34 35  0  0  0  0  0  0  0  0999 V2000
  -18.6612  -39.9392   -5.7981 C   0  0  0  0  0  0  0  0  0  0  0  0
  -18.6836  -39.3642   -7.1757 C   0  0  2  0  0  0  0  0  0  0  0  0
  -20.1197  -39.0128   -7.6003 C   0  0  0  0  0  0  0  0  0  0  0  0
  -21.1226  -39.5415   -6.6198 C   0  0  0  0  0  0  0  0  0  0  0  0
  -22.4258  -39.7786   -7.3900 C   0  0  0  0  0  0  0  0  0  0  0  0
  -23.4721  -40.2983   -6.4479 C   0  0  0  0  0  0  0  0  0  0  0  0
  -23.0126  -41.4855   -5.6299 C   0  0  0  0  0  0  0  0  0  0  0  0
  -22.6478  -42.6812   -6.4466 C   0  0  0  0  0  0  0  0  0  0  0  0
  -21.6554  -43.4890   -5.7703 N   0  0  0  0  0  0  0  0  0  0  0  0
  -20.5233  -44.0365   -6.4409 C   0  0  0  0  0  0  0  0  0  0  0  0
  -19.9700  -45.0424   -5.9693 O   0  0  0  0  0  0  0  0  0  0  0  0
  -20.0028  -43.4153   -7.6946 C   0  0  0  0  0  0  0  0  0  0  0  0
  -18.5510  -43.8601   -7.8968 C   0  0  1  0  0  0  0  0  0  0  0  0
  -18.2119  -43.7331   -9.3561 C   0  0  0  0  0  0  0  0  0  0  0  0
  -17.6225  -43.2491   -6.9699 C   0  0  0  0  0  0  0  0  0  0  0  0
  -17.2547  -44.0142   -5.9986 O   0  0  0  0  0  0  0  0  0  0  0  0
  -17.0621  -41.9768   -6.9520 N   0  0  0  0  0  0  0  0  0  0  0  0
  -16.9126  -41.0060   -7.9941 C   0  0  1  0  0  0  0  0  0  0  0  0
  -18.0686  -40.1353   -8.2590 C   0  0  0  0  0  0  0  0  0  0  0  0
  -15.6006  -40.2573   -7.8942 C   0  0  2  0  0  0  0  0  0  0  0  0
  -15.2167  -39.9313   -6.6185 O   0  0  0  0  0  0  0  0  0  0  0  0
  -15.5666  -38.9993   -8.7208 C   0  0  0  0  0  0  0  0  0  0  0  0
  -14.2409  -38.6922   -9.1662 N   0  0  0  0  0  0  0  0  0  0  0  0
  -13.7996  -39.4764  -10.2845 C   0  0  0  0  0  0  0  0  0  0  0  0
  -13.6160  -38.5682  -11.4473 C   0  0  0  0  0  0  0  0  0  0  0  0
  -13.0518  -39.0171  -12.6379 C   0  0  0  0  0  0  0  0  0  0  0  0
  -12.8841  -38.1804  -13.7071 C   0  0  0  0  0  0  0  0  0  0  0  0
  -13.2853  -36.8472  -13.6089 C   0  0  0  0  0  0  0  0  0  0  0  0
  -13.8467  -36.3751  -12.4432 C   0  0  0  0  0  0  0  0  0  0  0  0
  -14.0029  -37.2351  -11.3872 C   0  0  0  0  0  0  0  0  0  0  0  0
  -14.2828  -34.9490  -12.3193 C   0  0  0  0  0  0  0  0  0  0  0  0
  -13.5218  -34.2721  -11.2139 C   0  0  0  0  0  0  0  0  0  0  0  0
  -15.7478  -34.9834  -11.9035 C   0  0  0  0  0  0  0  0  0  0  0  0
  -14.1101  -34.2254  -13.6243 C   0  0  0  0  0  0  0  0  0  0  0  0
  2  1  1  1
  2  3  1  0
  3  4  1  0
  4  5  1  0
  5  6  1  0
  6  7  1  0
  7  8  1  0
  8  9  1  0
  9 10  1  0
 10 11  2  0
 10 12  1  0
 12 13  1  0
 13 14  1  6
 13 15  1  0
 15 16  2  0
 15 17  1  0
 17 18  1  0
 18 19  1  1
 18 20  1  0
 20 21  1  1
 20 22  1  0
 22 23  1  0
 23 24  1  0
 24 25  1  0
 25 26  2  0
 26 27  1  0
 27 28  2  0
 28 29  1  0
 29 30  2  0
 29 31  1  0
 31 32  1  0
 31 33  1  0
 31 34  1  0
 19  2  1  0
 30 25  1  0
M  END
$$$$
