
     RDKit          3D

 34 35  0  0  0  0  0  0  0  0999 V2000
  -19.1822  -39.5885   -5.6470 C   0  0  0  0  0  0  0  0  0  0  0  0
  -19.2903  -39.0600   -7.0390 C   0  0  2  0  0  0  0  0  0  0  0  0
  -20.7510  -38.7261   -7.3872 C   0  0  0  0  0  0  0  0  0  0  0  0
  -21.6905  -39.2241   -6.3308 C   0  0  0  0  0  0  0  0  0  0  0  0
  -23.0368  -39.4898   -7.0122 C   0  0  0  0  0  0  0  0  0  0  0  0
  -24.0219  -39.9801   -5.9918 C   0  0  0  0  0  0  0  0  0  0  0  0
  -23.5087  -41.1383   -5.1641 C   0  0  0  0  0  0  0  0  0  0  0  0
  -23.1889  -42.3598   -5.9613 C   0  0  0  0  0  0  0  0  0  0  0  0
  -22.1539  -43.1423   -5.3199 N   0  0  0  0  0  0  0  0  0  0  0  0
  -21.0621  -43.7093   -6.0393 C   0  0  0  0  0  0  0  0  0  0  0  0
  -20.4769  -44.6976   -5.5691 O   0  0  0  0  0  0  0  0  0  0  0  0
  -20.6211  -43.1291   -7.3422 C   0  0  0  0  0  0  0  0  0  0  0  0
  -19.1823  -43.5771   -7.6172 C   0  0  1  0  0  0  0  0  0  0  0  0
  -18.9326  -43.4981   -9.0977 C   0  0  0  0  0  0  0  0  0  0  0  0
  -18.2020  -42.9333   -6.7690 C   0  0  0  0  0  0  0  0  0  0  0  0
  -17.7728  -43.6647   -5.7969 O   0  0  0  0  0  0  0  0  0  0  0  0
  -17.6471  -41.6599   -6.8273 N   0  0  0  0  0  0  0  0  0  0  0  0
  -17.5651  -40.7241   -7.9083 C   0  0  1  0  0  0  0  0  0  0  0  0
  -18.7386  -39.8654   -8.1314 C   0  0  0  0  0  0  0  0  0  0  0  0
  -16.2527  -39.9695   -7.9130 C   0  0  2  0  0  0  0  0  0  0  0  0
  -16.3712  -38.6037   -7.9540 O   0  0  0  0  0  0  0  0  0  0  0  0
  -15.3289  -40.3850   -9.0270 C   0  0  0  0  0  0  0  0  0  0  0  0
  -14.0174  -39.8344   -8.8626 N   0  0  0  0  0  0  0  0  0  0  0  0
  -13.0548  -40.3137   -9.8134 C   0  0  0  0  0  0  0  0  0  0  0  0
  -13.2674  -39.5924  -11.0960 C   0  0  0  0  0  0  0  0  0  0  0  0
  -13.5798  -40.2729  -12.2693 C   0  0  0  0  0  0  0  0  0  0  0  0
  -13.7758  -39.6078  -13.4485 C   0  0  0  0  0  0  0  0  0  0  0  0
  -13.6617  -38.2173  -13.4828 C   0  0  0  0  0  0  0  0  0  0  0  0
  -13.3536  -37.5172  -12.3374 C   0  0  0  0  0  0  0  0  0  0  0  0
  -13.1623  -38.2089  -11.1695 C   0  0  0  0  0  0  0  0  0  0  0  0
  -13.2272  -36.0263  -12.3549 C   0  0  0  0  0  0  0  0  0  0  0  0
  -11.8127  -35.6333  -12.6773 C   0  0  0  0  0  0  0  0  0  0  0  0
  -13.5142  -35.5552  -10.9351 C   0  0  0  0  0  0  0  0  0  0  0  0
  -14.1978  -35.4222  -13.3294 C   0  0  0  0  0  0  0  0  0  0  0  0
  2  1  1  1
  2  3  1  0
  3  4  1  0
  4  5  1  0
  5  6  1  0
  6  7  1  0
  7  8  1  0
  8  9  1  0
  9 10  1  0
 10 11  2  0
 10 12  1  0
 12 13  1  0
 13 14  1  6
 13 15  1  0
 15 16  2  0
 15 17  1  0
 17 18  1  0
 18 19  1  1
 18 20  1  0
 20 21  1  6
 20 22  1  0
 22 23  1  0
 23 24  1  0
 24 25  1  0
 25 26  2  0
 26 27  1  0
 27 28  2  0
 28 29  1  0
 29 30  2  0
 29 31  1  0
 31 32  1  0
 31 33  1  0
 31 34  1  0
 19  2  1  0
 30 25  1  0
M  END
$$$$
