
     RDKit          3D

 34 35  0  0  0  0  0  0  0  0999 V2000
  -19.5167  -39.9001   -5.8703 C   0  0  0  0  0  0  0  0  0  0  0  0
  -19.5879  -39.3945   -7.2732 C   0  0  2  0  0  0  0  0  0  0  0  0
  -21.0429  -39.3613   -7.7713 C   0  0  0  0  0  0  0  0  0  0  0  0
  -21.9643  -40.0470   -6.8082 C   0  0  0  0  0  0  0  0  0  0  0  0
  -23.1528  -40.5752   -7.6182 C   0  0  0  0  0  0  0  0  0  0  0  0
  -24.1166  -41.2624   -6.6956 C   0  0  0  0  0  0  0  0  0  0  0  0
  -23.4662  -42.2983   -5.8047 C   0  0  0  0  0  0  0  0  0  0  0  0
  -22.8266  -43.4239   -6.5490 C   0  0  0  0  0  0  0  0  0  0  0  0
  -21.7251  -43.9848   -5.7960 N   0  0  0  0  0  0  0  0  0  0  0  0
  -20.4739  -44.3135   -6.3939 C   0  0  0  0  0  0  0  0  0  0  0  0
  -19.7516  -45.1660   -5.8537 O   0  0  0  0  0  0  0  0  0  0  0  0
  -20.0296  -43.6467   -7.6535 C   0  0  0  0  0  0  0  0  0  0  0  0
  -18.5097  -43.7917   -7.7760 C   0  0  1  0  0  0  0  0  0  0  0  0
  -18.1323  -43.6531   -9.2248 C   0  0  0  0  0  0  0  0  0  0  0  0
  -17.7711  -42.9686   -6.8422 C   0  0  0  0  0  0  0  0  0  0  0  0
  -17.3037  -43.6047   -5.8220 O   0  0  0  0  0  0  0  0  0  0  0  0
  -17.4825  -41.6087   -6.8617 N   0  0  0  0  0  0  0  0  0  0  0  0
  -17.4824  -40.6681   -7.9415 C   0  0  1  0  0  0  0  0  0  0  0  0
  -18.7767  -40.0635   -8.2934 C   0  0  0  0  0  0  0  0  0  0  0  0
  -16.3564  -39.6630   -7.8242 C   0  0  2  0  0  0  0  0  0  0  0  0
  -16.5144  -38.7311   -6.8304 O   0  0  0  0  0  0  0  0  0  0  0  0
  -16.0784  -38.9253   -9.1070 C   0  0  0  0  0  0  0  0  0  0  0  0
  -15.3551  -39.7360  -10.0397 N   0  0  0  0  0  0  0  0  0  0  0  0
  -13.9476  -39.4596  -10.0916 C   0  0  0  0  0  0  0  0  0  0  0  0
  -13.6556  -38.7668  -11.3744 C   0  0  0  0  0  0  0  0  0  0  0  0
  -13.5801  -39.4647  -12.5763 C   0  0  0  0  0  0  0  0  0  0  0  0
  -13.3120  -38.8258  -13.7558 C   0  0  0  0  0  0  0  0  0  0  0  0
  -13.1090  -37.4450  -13.7613 C   0  0  0  0  0  0  0  0  0  0  0  0
  -13.1777  -36.7283  -12.5872 C   0  0  0  0  0  0  0  0  0  0  0  0
  -13.4478  -37.3938  -11.4197 C   0  0  0  0  0  0  0  0  0  0  0  0
  -12.9629  -35.2475  -12.5735 C   0  0  0  0  0  0  0  0  0  0  0  0
  -11.5114  -34.9355  -12.8084 C   0  0  0  0  0  0  0  0  0  0  0  0
  -13.3035  -34.7780  -11.1651 C   0  0  0  0  0  0  0  0  0  0  0  0
  -13.8382  -34.5744  -13.5921 C   0  0  0  0  0  0  0  0  0  0  0  0
  2  1  1  1
  2  3  1  0
  3  4  1  0
  4  5  1  0
  5  6  1  0
  6  7  1  0
  7  8  1  0
  8  9  1  0
  9 10  1  0
 10 11  2  0
 10 12  1  0
 12 13  1  0
 13 14  1  6
 13 15  1  0
 15 16  2  0
 15 17  1  0
 17 18  1  0
 18 19  1  1
 18 20  1  0
 20 21  1  1
 20 22  1  0
 22 23  1  0
 23 24  1  0
 24 25  1  0
 25 26  2  0
 26 27  1  0
 27 28  2  0
 28 29  1  0
 29 30  2  0
 29 31  1  0
 31 32  1  0
 31 33  1  0
 31 34  1  0
 19  2  1  0
 30 25  1  0
M  END
$$$$
