
     RDKit          3D

 34 35  0  0  0  0  0  0  0  0999 V2000
  -18.7249  -39.6646   -5.8184 C   0  0  0  0  0  0  0  0  0  0  0  0
  -18.9402  -38.9901   -7.1328 C   0  0  2  0  0  0  0  0  0  0  0  0
  -20.4258  -38.6468   -7.3365 C   0  0  0  0  0  0  0  0  0  0  0  0
  -21.2801  -39.2734   -6.2763 C   0  0  0  0  0  0  0  0  0  0  0  0
  -22.6701  -39.4878   -6.8842 C   0  0  0  0  0  0  0  0  0  0  0  0
  -23.5727  -40.1036   -5.8556 C   0  0  0  0  0  0  0  0  0  0  0  0
  -22.9885  -41.3354   -5.1988 C   0  0  0  0  0  0  0  0  0  0  0  0
  -22.7158  -42.4572   -6.1460 C   0  0  0  0  0  0  0  0  0  0  0  0
  -21.6287  -43.2859   -5.6702 N   0  0  0  0  0  0  0  0  0  0  0  0
  -20.5869  -43.7516   -6.5240 C   0  0  0  0  0  0  0  0  0  0  0  0
  -19.9589  -44.7745   -6.2081 O   0  0  0  0  0  0  0  0  0  0  0  0
  -20.2486  -43.0256   -7.7837 C   0  0  0  0  0  0  0  0  0  0  0  0
  -18.8294  -43.4151   -8.2088 C   0  0  1  0  0  0  0  0  0  0  0  0
  -18.6898  -43.1713   -9.6858 C   0  0  0  0  0  0  0  0  0  0  0  0
  -17.7960  -42.8497   -7.3677 C   0  0  0  0  0  0  0  0  0  0  0  0
  -17.2894  -43.6744   -6.5150 O   0  0  0  0  0  0  0  0  0  0  0  0
  -17.2598  -41.5676   -7.3259 N   0  0  0  0  0  0  0  0  0  0  0  0
  -17.2667  -40.5187   -8.3008 C   0  0  1  0  0  0  0  0  0  0  0  0
  -18.4620  -39.6621   -8.3436 C   0  0  0  0  0  0  0  0  0  0  0  0
  -15.9658  -39.7445   -8.3171 C   0  0  2  0  0  0  0  0  0  0  0  0
  -16.0969  -38.3902   -8.1449 O   0  0  0  0  0  0  0  0  0  0  0  0
  -15.1502  -39.9734   -9.5618 C   0  0  0  0  0  0  0  0  0  0  0  0
  -13.7448  -39.9321   -9.2908 N   0  0  0  0  0  0  0  0  0  0  0  0
  -12.9169  -40.1257  -10.4472 C   0  0  0  0  0  0  0  0  0  0  0  0
  -13.3714  -39.1886  -11.5083 C   0  0  0  0  0  0  0  0  0  0  0  0
  -14.0751  -39.6380  -12.6220 C   0  0  0  0  0  0  0  0  0  0  0  0
  -14.4932  -38.7745  -13.5971 C   0  0  0  0  0  0  0  0  0  0  0  0
  -14.2117  -37.4126  -13.4788 C   0  0  0  0  0  0  0  0  0  0  0  0
  -13.5172  -36.9392  -12.3878 C   0  0  0  0  0  0  0  0  0  0  0  0
  -13.1100  -37.8265  -11.4256 C   0  0  0  0  0  0  0  0  0  0  0  0
  -13.2063  -35.4825  -12.2438 C   0  0  0  0  0  0  0  0  0  0  0  0
  -14.1733  -34.8417  -11.2879 C   0  0  0  0  0  0  0  0  0  0  0  0
  -13.4425  -34.8566  -13.6122 C   0  0  0  0  0  0  0  0  0  0  0  0
  -11.7854  -35.2841  -11.7987 C   0  0  0  0  0  0  0  0  0  0  0  0
  2  1  1  1
  2  3  1  0
  3  4  1  0
  4  5  1  0
  5  6  1  0
  6  7  1  0
  7  8  1  0
  8  9  1  0
  9 10  1  0
 10 11  2  0
 10 12  1  0
 12 13  1  0
 13 14  1  6
 13 15  1  0
 15 16  2  0
 15 17  1  0
 17 18  1  0
 18 19  1  1
 18 20  1  0
 20 21  1  6
 20 22  1  0
 22 23  1  0
 23 24  1  0
 24 25  1  0
 25 26  2  0
 26 27  1  0
 27 28  2  0
 28 29  1  0
 29 30  2  0
 29 31  1  0
 31 32  1  0
 31 33  1  0
 31 34  1  0
 19  2  1  0
 30 25  1  0
M  END
$$$$
