
     RDKit          3D

 43 47  0  0  0  0  0  0  0  0999 V2000
  -20.8188  -37.8404   -4.9938 C   0  0  0  0  0  0  0  0  0  0  0  0
  -19.9743  -38.8262   -4.2109 C   0  0  0  0  0  0  0  0  0  0  0  0
  -19.9848  -38.6498   -2.7367 C   0  0  0  0  0  0  0  0  0  0  0  0
  -18.6495  -38.9416   -4.7069 N   0  0  0  0  0  0  0  0  0  0  0  0
  -18.1392  -38.0419   -5.6096 C   0  0  0  0  0  0  0  0  0  0  0  0
  -18.4448  -38.0715   -7.0473 C   0  0  1  0  0  0  0  0  0  0  0  0
  -18.4020  -36.8678   -7.7213 O   0  0  0  0  0  0  0  0  0  0  0  0
  -17.6662  -39.1918   -7.7532 C   0  0  2  0  0  0  0  0  0  0  0  0
  -17.3236  -38.9607   -9.1471 C   0  0  0  0  0  0  0  0  0  0  0  0
  -18.2764  -38.5346  -10.1887 C   0  0  0  0  0  0  0  0  0  0  0  0
  -19.6185  -38.7753  -10.4004 C   0  0  0  0  0  0  0  0  0  0  0  0
  -20.2181  -38.2825  -11.5288 C   0  0  0  0  0  0  0  0  0  0  0  0
  -21.6123  -38.4147  -12.0387 C   0  0  0  0  0  0  0  0  0  0  0  0
  -21.5254  -39.3500  -13.2475 C   0  0  0  0  0  0  0  0  0  0  0  0
  -21.3452  -40.7927  -12.9096 C   0  0  0  0  0  0  0  0  0  0  0  0
  -20.0486  -41.2530  -13.5416 C   0  0  0  0  0  0  0  0  0  0  0  0
  -19.4724  -42.4064  -12.8745 N   0  0  0  0  0  0  0  0  0  0  0  0
  -18.7042  -42.5076  -11.6700 C   0  0  0  0  0  0  0  0  0  0  0  0
  -18.9371  -42.0318  -10.3934 C   0  0  0  0  0  0  0  0  0  0  0  0
  -17.9701  -42.2038   -9.4229 C   0  0  0  0  0  0  0  0  0  0  0  0
  -16.7801  -42.8804   -9.8045 C   0  0  0  0  0  0  0  0  0  0  0  0
  -16.5250  -43.3558  -11.0169 N   0  0  0  0  0  4  0  0  0  0  0  0
  -15.2796  -44.0419  -11.3398 C   0  0  0  0  0  0  0  0  0  0  0  0
  -14.5658  -43.4460  -12.4575 C   0  0  0  0  0  0  0  0  0  0  0  0
  -14.5506  -42.0804  -12.6283 C   0  0  0  0  0  0  0  0  0  0  0  0
  -13.8582  -41.5054  -13.7061 C   0  0  0  0  0  0  0  0  0  0  0  0
  -13.1900  -42.3122  -14.5980 C   0  0  0  0  0  0  0  0  0  0  0  0
  -13.2009  -43.6847  -14.4333 C   0  0  0  0  0  0  0  0  0  0  0  0
  -13.8920  -44.2383  -13.3604 C   0  0  0  0  0  0  0  0  0  0  0  0
  -17.4772  -43.1677  -11.9303 C   0  0  0  0  0  0  0  0  0  0  0  0
  -17.9132  -41.7520   -8.0215 C   0  0  0  0  0  0  0  0  0  0  0  0
  -17.5358  -42.6571   -7.1429 O   0  0  0  0  0  0  0  0  0  0  0  0
  -18.1863  -40.5059   -7.4071 N   0  0  0  0  0  0  0  0  0  0  0  0
  -19.4510  -37.5281  -12.4652 C   0  0  0  0  0  0  0  0  0  0  0  0
  -18.1270  -37.2617  -12.3034 C   0  0  0  0  0  0  0  0  0  0  0  0
  -17.5679  -37.7725  -11.1652 C   0  0  0  0  0  0  0  0  0  0  0  0
  -20.6270  -40.1611   -4.5083 C   0  0  0  0  0  0  0  0  0  0  0  0
  -20.4535  -41.2529   -3.7125 C   0  0  0  0  0  0  0  0  0  0  0  0
  -21.0550  -42.4598   -4.0070 C   0  0  0  0  0  0  0  0  0  0  0  0
  -20.8369  -44.0090   -2.9212 Br  0  0  0  0  0  0  0  0  0  0  0  0
  -21.8613  -42.5907   -5.1342 C   0  0  0  0  0  0  0  0  0  0  0  0
  -22.0372  -41.4823   -5.9416 C   0  0  0  0  0  0  0  0  0  0  0  0
  -21.4247  -40.2994   -5.6197 C   0  0  0  0  0  0  0  0  0  0  0  0
  1  2  1  0
  2  3  1  0
  2  4  1  0
  4  5  1  0
  5  6  1  0
  6  7  1  6
  6  8  1  0
  8  9  1  6
  9 10  1  0
 10 11  1  0
 11 12  2  0
 12 13  1  0
 13 14  1  0
 14 15  1  0
 15 16  1  0
 16 17  1  0
 17 18  1  0
 18 19  1  0
 19 20  2  0
 20 21  1  0
 21 22  2  0
 22 23  1  0
 23 24  1  0
 24 25  2  0
 25 26  1  0
 26 27  2  0
 27 28  1  0
 28 29  2  0
 22 30  1  0
 20 31  1  0
 31 32  2  0
 31 33  1  0
 12 34  1  0
 34 35  2  0
 35 36  1  0
  2 37  1  0
 37 38  2  0
 38 39  1  0
 39 40  1  0
 39 41  2  0
 41 42  1  0
 42 43  2  0
 29 24  1  0
 30 18  2  0
 33  8  1  0
 36 10  2  0
 43 37  1  0
M  CHG  1  22   1
M  END
$$$$
