
     RDKit          3D

 43 47  0  0  0  0  0  0  0  0999 V2000
  -16.7802  -37.2289  -11.3480 C   0  0  0  0  0  0  0  0  0  0  0  0
  -17.4413  -36.4424  -10.2334 C   0  0  0  0  0  0  0  0  0  0  0  0
  -17.3559  -34.9649  -10.3540 C   0  0  0  0  0  0  0  0  0  0  0  0
  -17.0537  -36.8772   -8.9392 N   0  0  0  0  0  0  0  0  0  0  0  0
  -15.8108  -37.4099   -8.7023 C   0  0  0  0  0  0  0  0  0  0  0  0
  -15.5245  -38.8514   -8.7380 C   0  0  1  0  0  0  0  0  0  0  0  0
  -14.2877  -39.2555   -8.2776 O   0  0  0  0  0  0  0  0  0  0  0  0
  -16.6883  -39.6593   -8.1440 C   0  0  2  0  0  0  0  0  0  0  0  0
  -16.3272  -40.7872   -7.3008 C   0  0  0  0  0  0  0  0  0  0  0  0
  -15.3681  -41.8435   -7.6730 C   0  0  0  0  0  0  0  0  0  0  0  0
  -15.0306  -42.4367   -8.8723 C   0  0  0  0  0  0  0  0  0  0  0  0
  -14.1283  -43.4669   -8.8802 C   0  0  0  0  0  0  0  0  0  0  0  0
  -13.6125  -44.3135   -9.9931 C   0  0  0  0  0  0  0  0  0  0  0  0
  -14.2436  -45.6936   -9.7919 C   0  0  0  0  0  0  0  0  0  0  0  0
  -15.6821  -45.7854  -10.1795 C   0  0  0  0  0  0  0  0  0  0  0  0
  -16.4631  -46.1961   -8.9491 C   0  0  0  0  0  0  0  0  0  0  0  0
  -17.8585  -45.8001   -9.0066 N   0  0  0  0  0  0  0  0  0  0  0  0
  -18.4873  -44.5381   -8.7557 C   0  0  0  0  0  0  0  0  0  0  0  0
  -18.2288  -43.2729   -9.2485 C   0  0  0  0  0  0  0  0  0  0  0  0
  -18.9497  -42.1999   -8.7631 C   0  0  0  0  0  0  0  0  0  0  0  0
  -19.9360  -42.4729   -7.7771 C   0  0  0  0  0  0  0  0  0  0  0  0
  -20.2156  -43.6735   -7.2858 N   0  0  0  0  0  4  0  0  0  0  0  0
  -21.2435  -43.8821   -6.2730 C   0  0  0  0  0  0  0  0  0  0  0  0
  -21.6320  -42.6613   -5.5857 C   0  0  0  0  0  0  0  0  0  0  0  0
  -22.8839  -42.1214   -5.7744 C   0  0  0  0  0  0  0  0  0  0  0  0
  -23.2594  -40.9441   -5.1077 C   0  0  0  0  0  0  0  0  0  0  0  0
  -22.3703  -40.3253   -4.2594 C   0  0  0  0  0  0  0  0  0  0  0  0
  -21.1110  -40.8613   -4.0648 C   0  0  0  0  0  0  0  0  0  0  0  0
  -20.7546  -42.0281   -4.7333 C   0  0  0  0  0  0  0  0  0  0  0  0
  -19.4974  -44.6854   -7.7724 C   0  0  0  0  0  0  0  0  0  0  0  0
  -18.8487  -40.7574   -9.0464 C   0  0  0  0  0  0  0  0  0  0  0  0
  -19.9873  -40.1381   -9.2774 O   0  0  0  0  0  0  0  0  0  0  0  0
  -17.7455  -39.8728   -9.1206 N   0  0  0  0  0  0  0  0  0  0  0  0
  -13.5500  -43.9098   -7.6538 C   0  0  0  0  0  0  0  0  0  0  0  0
  -13.8473  -43.3589   -6.4462 C   0  0  0  0  0  0  0  0  0  0  0  0
  -14.7524  -42.3350   -6.4832 C   0  0  0  0  0  0  0  0  0  0  0  0
  -18.9037  -36.8195  -10.3575 C   0  0  0  0  0  0  0  0  0  0  0  0
  -19.7636  -36.7689   -9.3023 C   0  0  0  0  0  0  0  0  0  0  0  0
  -21.0909  -37.1221   -9.4391 C   0  0  0  0  0  0  0  0  0  0  0  0
  -22.3242  -37.0660   -7.9892 Br  0  0  0  0  0  0  0  0  0  0  0  0
  -21.5868  -37.5417  -10.6703 C   0  0  0  0  0  0  0  0  0  0  0  0
  -20.7137  -37.5930  -11.7410 C   0  0  0  0  0  0  0  0  0  0  0  0
  -19.4019  -37.2354  -11.5697 C   0  0  0  0  0  0  0  0  0  0  0  0
  1  2  1  0
  2  3  1  0
  2  4  1  0
  4  5  1  0
  5  6  1  0
  6  7  1  1
  6  8  1  0
  8  9  1  6
  9 10  1  0
 10 11  1  0
 11 12  2  0
 12 13  1  0
 13 14  1  0
 14 15  1  0
 15 16  1  0
 16 17  1  0
 17 18  1  0
 18 19  1  0
 19 20  2  0
 20 21  1  0
 21 22  2  0
 22 23  1  0
 23 24  1  0
 24 25  2  0
 25 26  1  0
 26 27  2  0
 27 28  1  0
 28 29  2  0
 22 30  1  0
 20 31  1  0
 31 32  2  0
 31 33  1  0
 12 34  1  0
 34 35  2  0
 35 36  1  0
  2 37  1  0
 37 38  2  0
 38 39  1  0
 39 40  1  0
 39 41  2  0
 41 42  1  0
 42 43  2  0
 29 24  1  0
 30 18  2  0
 33  8  1  0
 36 10  2  0
 43 37  1  0
M  CHG  1  22   1
M  END
$$$$
