
     RDKit          3D

 43 47  0  0  0  0  0  0  0  0999 V2000
  -19.9864  -38.3051   -5.9191 C   0  0  0  0  0  0  0  0  0  0  0  0
  -19.4971  -38.9815   -4.6539 C   0  0  0  0  0  0  0  0  0  0  0  0
  -19.4491  -38.1211   -3.4447 C   0  0  0  0  0  0  0  0  0  0  0  0
  -18.2780  -39.6854   -4.8344 N   0  0  0  0  0  0  0  0  0  0  0  0
  -17.4219  -39.3873   -5.8653 C   0  0  0  0  0  0  0  0  0  0  0  0
  -17.7032  -39.7054   -7.2728 C   0  0  1  0  0  0  0  0  0  0  0  0
  -16.8090  -39.2331   -8.2121 O   0  0  0  0  0  0  0  0  0  0  0  0
  -18.0362  -41.1951   -7.4451 C   0  0  2  0  0  0  0  0  0  0  0  0
  -17.9040  -41.7351   -8.7884 C   0  0  0  0  0  0  0  0  0  0  0  0
  -18.4984  -41.1374   -9.9983 C   0  0  0  0  0  0  0  0  0  0  0  0
  -19.6600  -40.4304  -10.2328 C   0  0  0  0  0  0  0  0  0  0  0  0
  -19.9740  -40.0627  -11.5141 C   0  0  0  0  0  0  0  0  0  0  0  0
  -21.1571  -39.3463  -12.0693 C   0  0  0  0  0  0  0  0  0  0  0  0
  -21.9567  -40.4002  -12.8399 C   0  0  0  0  0  0  0  0  0  0  0  0
  -22.7334  -41.3446  -11.9839 C   0  0  0  0  0  0  0  0  0  0  0  0
  -22.2381  -42.7445  -12.2797 C   0  0  0  0  0  0  0  0  0  0  0  0
  -22.4739  -43.6706  -11.1870 N   0  0  0  0  0  0  0  0  0  0  0  0
  -21.7615  -43.8784   -9.9621 C   0  0  0  0  0  0  0  0  0  0  0  0
  -21.3624  -42.9973   -8.9748 C   0  0  0  0  0  0  0  0  0  0  0  0
  -20.6005  -43.4643   -7.9222 C   0  0  0  0  0  0  0  0  0  0  0  0
  -20.2788  -44.8484   -7.9171 C   0  0  0  0  0  0  0  0  0  0  0  0
  -20.6493  -45.7239   -8.8431 N   0  0  0  0  0  4  0  0  0  0  0  0
  -20.2831  -47.1336   -8.7750 C   0  0  0  0  0  0  0  0  0  0  0  0
  -19.6700  -47.5098   -7.5116 C   0  0  0  0  0  0  0  0  0  0  0  0
  -20.4297  -48.0535   -6.5009 C   0  0  0  0  0  0  0  0  0  0  0  0
  -19.8362  -48.4196   -5.2822 C   0  0  0  0  0  0  0  0  0  0  0  0
  -18.4857  -48.2340   -5.0963 C   0  0  0  0  0  0  0  0  0  0  0  0
  -17.7159  -47.6882   -6.1066 C   0  0  0  0  0  0  0  0  0  0  0  0
  -18.3196  -47.3305   -7.3079 C   0  0  0  0  0  0  0  0  0  0  0  0
  -21.3788  -45.2383   -9.8473 C   0  0  0  0  0  0  0  0  0  0  0  0
  -19.9865  -42.7592   -6.7833 C   0  0  0  0  0  0  0  0  0  0  0  0
  -20.1567  -43.3191   -5.6039 O   0  0  0  0  0  0  0  0  0  0  0  0
  -19.2252  -41.5685   -6.6941 N   0  0  0  0  0  0  0  0  0  0  0  0
  -19.0985  -40.4120  -12.5846 C   0  0  0  0  0  0  0  0  0  0  0  0
  -17.9421  -41.1059  -12.4074 C   0  0  0  0  0  0  0  0  0  0  0  0
  -17.6673  -41.4540  -11.1142 C   0  0  0  0  0  0  0  0  0  0  0  0
  -20.5400  -40.0519   -4.4025 C   0  0  0  0  0  0  0  0  0  0  0  0
  -20.5146  -40.8526   -3.3008 C   0  0  0  0  0  0  0  0  0  0  0  0
  -21.4735  -41.8242   -3.0963 C   0  0  0  0  0  0  0  0  0  0  0  0
  -21.4728  -42.9638   -1.5706 Br  0  0  0  0  0  0  0  0  0  0  0  0
  -22.4989  -42.0098   -4.0191 C   0  0  0  0  0  0  0  0  0  0  0  0
  -22.5243  -41.1970   -5.1371 C   0  0  0  0  0  0  0  0  0  0  0  0
  -21.5561  -40.2424   -5.3089 C   0  0  0  0  0  0  0  0  0  0  0  0
  1  2  1  0
  2  3  1  0
  2  4  1  0
  4  5  1  0
  5  6  1  0
  6  7  1  6
  6  8  1  0
  8  9  1  6
  9 10  1  0
 10 11  1  0
 11 12  2  0
 12 13  1  0
 13 14  1  0
 14 15  1  0
 15 16  1  0
 16 17  1  0
 17 18  1  0
 18 19  1  0
 19 20  2  0
 20 21  1  0
 21 22  2  0
 22 23  1  0
 23 24  1  0
 24 25  2  0
 25 26  1  0
 26 27  2  0
 27 28  1  0
 28 29  2  0
 22 30  1  0
 20 31  1  0
 31 32  2  0
 31 33  1  0
 12 34  1  0
 34 35  2  0
 35 36  1  0
  2 37  1  0
 37 38  2  0
 38 39  1  0
 39 40  1  0
 39 41  2  0
 41 42  1  0
 42 43  2  0
 29 24  1  0
 30 18  2  0
 33  8  1  0
 36 10  2  0
 43 37  1  0
M  CHG  1  22   1
M  END
$$$$
