
     RDKit          3D

 43 47  0  0  0  0  0  0  0  0999 V2000
  -18.7882  -35.5826   -9.9733 C   0  0  0  0  0  0  0  0  0  0  0  0
  -19.1648  -36.6406   -8.9551 C   0  0  0  0  0  0  0  0  0  0  0  0
  -20.2644  -36.2741   -8.0271 C   0  0  0  0  0  0  0  0  0  0  0  0
  -18.0469  -37.1585   -8.2506 N   0  0  0  0  0  0  0  0  0  0  0  0
  -16.9406  -37.6354   -8.9089 C   0  0  0  0  0  0  0  0  0  0  0  0
  -16.5899  -39.0612   -8.9810 C   0  0  1  0  0  0  0  0  0  0  0  0
  -15.2950  -39.4049   -8.6489 O   0  0  0  0  0  0  0  0  0  0  0  0
  -17.6478  -39.9251   -8.2782 C   0  0  2  0  0  0  0  0  0  0  0  0
  -17.1500  -40.9308   -7.3538 C   0  0  0  0  0  0  0  0  0  0  0  0
  -16.0973  -41.9147   -7.6671 C   0  0  0  0  0  0  0  0  0  0  0  0
  -15.7325  -42.5763   -8.8217 C   0  0  0  0  0  0  0  0  0  0  0  0
  -14.7293  -43.5073   -8.7725 C   0  0  0  0  0  0  0  0  0  0  0  0
  -14.1589  -44.3943   -9.8256 C   0  0  0  0  0  0  0  0  0  0  0  0
  -14.6387  -45.8072   -9.4831 C   0  0  0  0  0  0  0  0  0  0  0  0
  -16.0699  -46.0774   -9.8097 C   0  0  0  0  0  0  0  0  0  0  0  0
  -16.7712  -46.4521   -8.5213 C   0  0  0  0  0  0  0  0  0  0  0  0
  -18.2010  -46.2049   -8.5629 N   0  0  0  0  0  0  0  0  0  0  0  0
  -18.9498  -44.9950   -8.4001 C   0  0  0  0  0  0  0  0  0  0  0  0
  -18.8364  -43.7596   -9.0096 C   0  0  0  0  0  0  0  0  0  0  0  0
  -19.6509  -42.7252   -8.5936 C   0  0  0  0  0  0  0  0  0  0  0  0
  -20.5771  -43.0061   -7.5531 C   0  0  0  0  0  0  0  0  0  0  0  0
  -20.7182  -44.1797   -6.9499 N   0  0  0  0  0  4  0  0  0  0  0  0
  -21.6917  -44.3985   -5.8867 C   0  0  0  0  0  0  0  0  0  0  0  0
  -21.8459  -43.2554   -5.0018 C   0  0  0  0  0  0  0  0  0  0  0  0
  -21.0979  -43.1572   -3.8507 C   0  0  0  0  0  0  0  0  0  0  0  0
  -21.2452  -42.0511   -2.9982 C   0  0  0  0  0  0  0  0  0  0  0  0
  -22.1431  -41.0582   -3.3152 C   0  0  0  0  0  0  0  0  0  0  0  0
  -22.8983  -41.1498   -4.4696 C   0  0  0  0  0  0  0  0  0  0  0  0
  -22.7405  -42.2524   -5.3031 C   0  0  0  0  0  0  0  0  0  0  0  0
  -19.9127  -45.1540   -7.3723 C   0  0  0  0  0  0  0  0  0  0  0  0
  -19.7068  -41.3112   -9.0042 C   0  0  0  0  0  0  0  0  0  0  0  0
  -20.9090  -40.8325   -9.2473 O   0  0  0  0  0  0  0  0  0  0  0  0
  -18.7031  -40.3306   -9.1942 N   0  0  0  0  0  0  0  0  0  0  0  0
  -14.0760  -43.7779   -7.5338 C   0  0  0  0  0  0  0  0  0  0  0  0
  -14.3961  -43.1534   -6.3686 C   0  0  0  0  0  0  0  0  0  0  0  0
  -15.4027  -42.2329   -6.4619 C   0  0  0  0  0  0  0  0  0  0  0  0
  -19.6622  -37.7889   -9.8098 C   0  0  0  0  0  0  0  0  0  0  0  0
  -18.8485  -38.4700  -10.6638 C   0  0  0  0  0  0  0  0  0  0  0  0
  -19.3261  -39.5098  -11.4359 C   0  0  0  0  0  0  0  0  0  0  0  0
  -18.2221  -40.4859  -12.6419 Br  0  0  0  0  0  0  0  0  0  0  0  0
  -20.6628  -39.8908  -11.3586 C   0  0  0  0  0  0  0  0  0  0  0  0
  -21.4882  -39.1991  -10.4916 C   0  0  0  0  0  0  0  0  0  0  0  0
  -20.9809  -38.1716   -9.7400 C   0  0  0  0  0  0  0  0  0  0  0  0
  1  2  1  0
  2  3  1  0
  2  4  1  0
  4  5  1  0
  5  6  1  0
  6  7  1  1
  6  8  1  0
  8  9  1  6
  9 10  1  0
 10 11  1  0
 11 12  2  0
 12 13  1  0
 13 14  1  0
 14 15  1  0
 15 16  1  0
 16 17  1  0
 17 18  1  0
 18 19  1  0
 19 20  2  0
 20 21  1  0
 21 22  2  0
 22 23  1  0
 23 24  1  0
 24 25  2  0
 25 26  1  0
 26 27  2  0
 27 28  1  0
 28 29  2  0
 22 30  1  0
 20 31  1  0
 31 32  2  0
 31 33  1  0
 12 34  1  0
 34 35  2  0
 35 36  1  0
  2 37  1  0
 37 38  2  0
 38 39  1  0
 39 40  1  0
 39 41  2  0
 41 42  1  0
 42 43  2  0
 29 24  1  0
 30 18  2  0
 33  8  1  0
 36 10  2  0
 43 37  1  0
M  CHG  1  22   1
M  END
$$$$
