
     RDKit          3D

 43 47  0  0  0  0  0  0  0  0999 V2000
  -14.3062  -37.4193  -10.8011 C   0  0  0  0  0  0  0  0  0  0  0  0
  -15.6355  -37.7441  -10.1490 C   0  0  0  0  0  0  0  0  0  0  0  0
  -16.6020  -36.6197  -10.0696 C   0  0  0  0  0  0  0  0  0  0  0  0
  -15.4966  -38.3939   -8.8949 N   0  0  0  0  0  0  0  0  0  0  0  0
  -16.0828  -37.8951   -7.7581 C   0  0  0  0  0  0  0  0  0  0  0  0
  -17.1657  -38.5781   -7.0357 C   0  0  1  0  0  0  0  0  0  0  0  0
  -17.9751  -37.7965   -6.2362 O   0  0  0  0  0  0  0  0  0  0  0  0
  -17.9516  -39.5085   -7.9719 C   0  0  2  0  0  0  0  0  0  0  0  0
  -19.3990  -39.3736   -7.9503 C   0  0  0  0  0  0  0  0  0  0  0  0
  -20.2271  -39.3816   -6.7303 C   0  0  0  0  0  0  0  0  0  0  0  0
  -20.1168  -40.0253   -5.5147 C   0  0  0  0  0  0  0  0  0  0  0  0
  -21.1127  -39.8795   -4.5860 C   0  0  0  0  0  0  0  0  0  0  0  0
  -21.2878  -40.4746   -3.2309 C   0  0  0  0  0  0  0  0  0  0  0  0
  -22.4203  -41.4954   -3.3688 C   0  0  0  0  0  0  0  0  0  0  0  0
  -22.0358  -42.7671   -4.0493 C   0  0  0  0  0  0  0  0  0  0  0  0
  -22.9097  -42.9122   -5.2772 C   0  0  0  0  0  0  0  0  0  0  0  0
  -22.3129  -43.7519   -6.3001 N   0  0  0  0  0  0  0  0  0  0  0  0
  -21.3069  -43.4677   -7.2789 C   0  0  0  0  0  0  0  0  0  0  0  0
  -20.0451  -42.9158   -7.1607 C   0  0  0  0  0  0  0  0  0  0  0  0
  -19.3063  -42.6721   -8.3014 C   0  0  0  0  0  0  0  0  0  0  0  0
  -19.8983  -43.0202   -9.5454 C   0  0  0  0  0  0  0  0  0  0  0  0
  -21.1027  -43.5567   -9.6966 N   0  0  0  0  0  4  0  0  0  0  0  0
  -21.6495  -43.8902  -11.0065 C   0  0  0  0  0  0  0  0  0  0  0  0
  -22.4688  -42.8327  -11.5757 C   0  0  0  0  0  0  0  0  0  0  0  0
  -23.7824  -42.6840  -11.1929 C   0  0  0  0  0  0  0  0  0  0  0  0
  -24.5721  -41.6602  -11.7407 C   0  0  0  0  0  0  0  0  0  0  0  0
  -24.0295  -40.7992  -12.6665 C   0  0  0  0  0  0  0  0  0  0  0  0
  -22.7109  -40.9423  -13.0563 C   0  0  0  0  0  0  0  0  0  0  0  0
  -21.9424  -41.9620  -12.5042 C   0  0  0  0  0  0  0  0  0  0  0  0
  -21.7904  -43.7735   -8.5757 C   0  0  0  0  0  0  0  0  0  0  0  0
  -17.9865  -42.0430   -8.4845 C   0  0  0  0  0  0  0  0  0  0  0  0
  -17.1562  -42.6767   -9.2860 O   0  0  0  0  0  0  0  0  0  0  0  0
  -17.4110  -40.8593   -7.9621 N   0  0  0  0  0  0  0  0  0  0  0  0
  -22.2452  -39.0657   -4.8856 C   0  0  0  0  0  0  0  0  0  0  0  0
  -22.4017  -38.4094   -6.0666 C   0  0  0  0  0  0  0  0  0  0  0  0
  -21.3859  -38.5827   -6.9651 C   0  0  0  0  0  0  0  0  0  0  0  0
  -16.2338  -38.7864  -11.0720 C   0  0  0  0  0  0  0  0  0  0  0  0
  -17.4774  -38.6567  -11.6123 C   0  0  0  0  0  0  0  0  0  0  0  0
  -18.0028  -39.6224  -12.4469 C   0  0  0  0  0  0  0  0  0  0  0  0
  -19.7366  -39.4791  -13.2213 Br  0  0  0  0  0  0  0  0  0  0  0  0
  -17.2668  -40.7618  -12.7598 C   0  0  0  0  0  0  0  0  0  0  0  0
  -16.0046  -40.8931  -12.2113 C   0  0  0  0  0  0  0  0  0  0  0  0
  -15.5140  -39.9151  -11.3861 C   0  0  0  0  0  0  0  0  0  0  0  0
  1  2  1  0
  2  3  1  0
  2  4  1  0
  4  5  1  0
  5  6  1  0
  6  7  1  6
  6  8  1  0
  8  9  1  1
  9 10  1  0
 10 11  1  0
 11 12  2  0
 12 13  1  0
 13 14  1  0
 14 15  1  0
 15 16  1  0
 16 17  1  0
 17 18  1  0
 18 19  1  0
 19 20  2  0
 20 21  1  0
 21 22  2  0
 22 23  1  0
 23 24  1  0
 24 25  2  0
 25 26  1  0
 26 27  2  0
 27 28  1  0
 28 29  2  0
 22 30  1  0
 20 31  1  0
 31 32  2  0
 31 33  1  0
 12 34  1  0
 34 35  2  0
 35 36  1  0
  2 37  1  0
 37 38  2  0
 38 39  1  0
 39 40  1  0
 39 41  2  0
 41 42  1  0
 42 43  2  0
 29 24  1  0
 30 18  2  0
 33  8  1  0
 36 10  2  0
 43 37  1  0
M  CHG  1  22   1
M  END
$$$$
