
     RDKit          3D

 43 47  0  0  0  0  0  0  0  0999 V2000
  -18.8511  -36.0046   -8.1694 C   0  0  0  0  0  0  0  0  0  0  0  0
  -18.3655  -37.2038   -8.9593 C   0  0  0  0  0  0  0  0  0  0  0  0
  -18.6922  -38.5298   -8.3766 C   0  0  0  0  0  0  0  0  0  0  0  0
  -16.9934  -37.1197   -9.3122 N   0  0  0  0  0  0  0  0  0  0  0  0
  -16.2907  -38.2214   -9.7330 C   0  0  0  0  0  0  0  0  0  0  0  0
  -15.6452  -39.1722   -8.8163 C   0  0  1  0  0  0  0  0  0  0  0  0
  -14.7327  -38.6553   -7.9190 O   0  0  0  0  0  0  0  0  0  0  0  0
  -16.6820  -40.0989   -8.1637 C   0  0  2  0  0  0  0  0  0  0  0  0
  -16.1577  -41.2422   -7.4345 C   0  0  0  0  0  0  0  0  0  0  0  0
  -15.1703  -42.1994   -7.9666 C   0  0  0  0  0  0  0  0  0  0  0  0
  -14.9174  -42.6959   -9.2290 C   0  0  0  0  0  0  0  0  0  0  0  0
  -13.9507  -43.6522   -9.3921 C   0  0  0  0  0  0  0  0  0  0  0  0
  -13.4943  -44.3922  -10.6026 C   0  0  0  0  0  0  0  0  0  0  0  0
  -14.0029  -45.8257  -10.4293 C   0  0  0  0  0  0  0  0  0  0  0  0
  -15.4637  -46.0047  -10.6783 C   0  0  0  0  0  0  0  0  0  0  0  0
  -16.0829  -46.5432   -9.4058 C   0  0  0  0  0  0  0  0  0  0  0  0
  -17.5012  -46.2521   -9.2998 N   0  0  0  0  0  0  0  0  0  0  0  0
  -18.1878  -45.0580   -8.9075 C   0  0  0  0  0  0  0  0  0  0  0  0
  -18.0708  -43.7508   -9.3410 C   0  0  0  0  0  0  0  0  0  0  0  0
  -18.8113  -42.7654   -8.7189 C   0  0  0  0  0  0  0  0  0  0  0  0
  -19.6691  -43.1684   -7.6601 C   0  0  0  0  0  0  0  0  0  0  0  0
  -19.8117  -44.4129   -7.2218 N   0  0  0  0  0  4  0  0  0  0  0  0
  -20.7126  -44.7566   -6.1280 C   0  0  0  0  0  0  0  0  0  0  0  0
  -22.0484  -44.2050   -6.2862 C   0  0  0  0  0  0  0  0  0  0  0  0
  -22.8131  -44.5301   -7.3834 C   0  0  0  0  0  0  0  0  0  0  0  0
  -24.1044  -43.9994   -7.5337 C   0  0  0  0  0  0  0  0  0  0  0  0
  -24.6096  -43.1486   -6.5777 C   0  0  0  0  0  0  0  0  0  0  0  0
  -23.8475  -42.8172   -5.4730 C   0  0  0  0  0  0  0  0  0  0  0  0
  -22.5699  -43.3512   -5.3394 C   0  0  0  0  0  0  0  0  0  0  0  0
  -19.0783  -45.3377   -7.8409 C   0  0  0  0  0  0  0  0  0  0  0  0
  -18.8415  -41.3056   -8.9174 C   0  0  0  0  0  0  0  0  0  0  0  0
  -20.0385  -40.7627   -8.9946 O   0  0  0  0  0  0  0  0  0  0  0  0
  -17.8166  -40.3366   -9.0430 N   0  0  0  0  0  0  0  0  0  0  0  0
  -13.2195  -44.1187   -8.2597 C   0  0  0  0  0  0  0  0  0  0  0  0
  -13.4286  -43.6617   -6.9958 C   0  0  0  0  0  0  0  0  0  0  0  0
  -14.4023  -42.7093   -6.8774 C   0  0  0  0  0  0  0  0  0  0  0  0
  -19.1198  -37.0902  -10.2687 C   0  0  0  0  0  0  0  0  0  0  0  0
  -18.4867  -36.9717  -11.4689 C   0  0  0  0  0  0  0  0  0  0  0  0
  -19.1960  -36.8648  -12.6482 C   0  0  0  0  0  0  0  0  0  0  0  0
  -18.3490  -36.6966  -14.3455 Br  0  0  0  0  0  0  0  0  0  0  0  0
  -20.5879  -36.8767  -12.6387 C   0  0  0  0  0  0  0  0  0  0  0  0
  -21.2301  -36.9970  -11.4204 C   0  0  0  0  0  0  0  0  0  0  0  0
  -20.4947  -37.1007  -10.2686 C   0  0  0  0  0  0  0  0  0  0  0  0
  1  2  1  0
  2  3  1  0
  2  4  1  0
  4  5  1  0
  5  6  1  0
  6  7  1  1
  6  8  1  0
  8  9  1  6
  9 10  1  0
 10 11  1  0
 11 12  2  0
 12 13  1  0
 13 14  1  0
 14 15  1  0
 15 16  1  0
 16 17  1  0
 17 18  1  0
 18 19  1  0
 19 20  2  0
 20 21  1  0
 21 22  2  0
 22 23  1  0
 23 24  1  0
 24 25  2  0
 25 26  1  0
 26 27  2  0
 27 28  1  0
 28 29  2  0
 22 30  1  0
 20 31  1  0
 31 32  2  0
 31 33  1  0
 12 34  1  0
 34 35  2  0
 35 36  1  0
  2 37  1  0
 37 38  2  0
 38 39  1  0
 39 40  1  0
 39 41  2  0
 41 42  1  0
 42 43  2  0
 29 24  1  0
 30 18  2  0
 33  8  1  0
 36 10  2  0
 43 37  1  0
M  CHG  1  22   1
M  END
$$$$
