
     RDKit          3D

 43 47  0  0  0  0  0  0  0  0999 V2000
  -19.5606  -38.6740   -6.3898 C   0  0  0  0  0  0  0  0  0  0  0  0
  -19.3764  -39.2165   -4.9864 C   0  0  0  0  0  0  0  0  0  0  0  0
  -19.5315  -38.2261   -3.8911 C   0  0  0  0  0  0  0  0  0  0  0  0
  -18.1847  -39.9720   -4.8333 N   0  0  0  0  0  0  0  0  0  0  0  0
  -16.9574  -39.4531   -5.1635 C   0  0  0  0  0  0  0  0  0  0  0  0
  -16.5931  -39.0309   -6.5237 C   0  0  1  0  0  0  0  0  0  0  0  0
  -15.2462  -38.9385   -6.8109 O   0  0  0  0  0  0  0  0  0  0  0  0
  -17.3868  -39.8191   -7.5765 C   0  0  2  0  0  0  0  0  0  0  0  0
  -16.6425  -40.2730   -8.7400 C   0  0  0  0  0  0  0  0  0  0  0  0
  -15.7781  -39.4166   -9.5731 C   0  0  0  0  0  0  0  0  0  0  0  0
  -15.8298  -38.0863   -9.9357 C   0  0  0  0  0  0  0  0  0  0  0  0
  -14.8922  -37.5907  -10.8022 C   0  0  0  0  0  0  0  0  0  0  0  0
  -14.7226  -36.2347  -11.3969 C   0  0  0  0  0  0  0  0  0  0  0  0
  -15.1035  -36.3778  -12.8727 C   0  0  0  0  0  0  0  0  0  0  0  0
  -16.5698  -36.4801  -13.1326 C   0  0  0  0  0  0  0  0  0  0  0  0
  -16.8214  -37.8029  -13.8251 C   0  0  0  0  0  0  0  0  0  0  0  0
  -18.1787  -38.2856  -13.6465 N   0  0  0  0  0  0  0  0  0  0  0  0
  -18.7988  -38.9576  -12.5442 C   0  0  0  0  0  0  0  0  0  0  0  0
  -18.8563  -38.6473  -11.1985 C   0  0  0  0  0  0  0  0  0  0  0  0
  -19.4606  -39.5323  -10.3278 C   0  0  0  0  0  0  0  0  0  0  0  0
  -20.0031  -40.7222  -10.8838 C   0  0  0  0  0  0  0  0  0  0  0  0
  -19.9720  -41.0499  -12.1694 N   0  0  0  0  0  4  0  0  0  0  0  0
  -20.5501  -42.2904  -12.6726 C   0  0  0  0  0  0  0  0  0  0  0  0
  -22.0015  -42.2601  -12.7509 C   0  0  0  0  0  0  0  0  0  0  0  0
  -22.7641  -42.9892  -11.8671 C   0  0  0  0  0  0  0  0  0  0  0  0
  -24.1660  -42.9568  -11.9413 C   0  0  0  0  0  0  0  0  0  0  0  0
  -24.7822  -42.1909  -12.9039 C   0  0  0  0  0  0  0  0  0  0  0  0
  -24.0231  -41.4561  -13.7954 C   0  0  0  0  0  0  0  0  0  0  0  0
  -22.6353  -41.4995  -13.7085 C   0  0  0  0  0  0  0  0  0  0  0  0
  -19.3767  -40.1760  -12.9806 C   0  0  0  0  0  0  0  0  0  0  0  0
  -19.6080  -39.5006   -8.8620 C   0  0  0  0  0  0  0  0  0  0  0  0
  -20.8096  -39.7784   -8.4011 O   0  0  0  0  0  0  0  0  0  0  0  0
  -18.6945  -39.2275   -7.8151 N   0  0  0  0  0  0  0  0  0  0  0  0
  -13.8775  -38.4524  -11.3146 C   0  0  0  0  0  0  0  0  0  0  0  0
  -13.7813  -39.7694  -10.9882 C   0  0  0  0  0  0  0  0  0  0  0  0
  -14.7368  -40.2231  -10.1221 C   0  0  0  0  0  0  0  0  0  0  0  0
  -20.5033  -40.2201   -4.8475 C   0  0  0  0  0  0  0  0  0  0  0  0
  -20.2925  -41.5048   -4.4469 C   0  0  0  0  0  0  0  0  0  0  0  0
  -21.3350  -42.4022   -4.3325 C   0  0  0  0  0  0  0  0  0  0  0  0
  -21.0822  -44.2061   -3.7771 Br  0  0  0  0  0  0  0  0  0  0  0  0
  -22.6385  -42.0116   -4.6258 C   0  0  0  0  0  0  0  0  0  0  0  0
  -22.8520  -40.7076   -5.0323 C   0  0  0  0  0  0  0  0  0  0  0  0
  -21.7937  -39.8430   -5.1354 C   0  0  0  0  0  0  0  0  0  0  0  0
  1  2  1  0
  2  3  1  0
  2  4  1  0
  4  5  1  0
  5  6  1  0
  6  7  1  6
  6  8  1  0
  8  9  1  6
  9 10  1  0
 10 11  1  0
 11 12  2  0
 12 13  1  0
 13 14  1  0
 14 15  1  0
 15 16  1  0
 16 17  1  0
 17 18  1  0
 18 19  1  0
 19 20  2  0
 20 21  1  0
 21 22  2  0
 22 23  1  0
 23 24  1  0
 24 25  2  0
 25 26  1  0
 26 27  2  0
 27 28  1  0
 28 29  2  0
 22 30  1  0
 20 31  1  0
 31 32  2  0
 31 33  1  0
 12 34  1  0
 34 35  2  0
 35 36  1  0
  2 37  1  0
 37 38  2  0
 38 39  1  0
 39 40  1  0
 39 41  2  0
 41 42  1  0
 42 43  2  0
 29 24  1  0
 30 18  2  0
 33  8  1  0
 36 10  2  0
 43 37  1  0
M  CHG  1  22   1
M  END
$$$$
