
     RDKit          3D

 43 47  0  0  0  0  0  0  0  0999 V2000
  -13.6177  -38.3467  -10.0240 C   0  0  0  0  0  0  0  0  0  0  0  0
  -15.0531  -38.3654   -9.5370 C   0  0  0  0  0  0  0  0  0  0  0  0
  -15.8332  -37.1285   -9.7946 C   0  0  0  0  0  0  0  0  0  0  0  0
  -15.1774  -38.7811   -8.1857 N   0  0  0  0  0  0  0  0  0  0  0  0
  -16.0079  -38.1307   -7.3072 C   0  0  0  0  0  0  0  0  0  0  0  0
  -17.2172  -38.7374   -6.7318 C   0  0  1  0  0  0  0  0  0  0  0  0
  -17.9400  -37.9692   -5.8416 O   0  0  0  0  0  0  0  0  0  0  0  0
  -18.0846  -39.3801   -7.8245 C   0  0  2  0  0  0  0  0  0  0  0  0
  -19.5164  -39.1449   -7.7339 C   0  0  0  0  0  0  0  0  0  0  0  0
  -20.3292  -39.3558   -6.5218 C   0  0  0  0  0  0  0  0  0  0  0  0
  -20.2569  -40.2549   -5.4776 C   0  0  0  0  0  0  0  0  0  0  0  0
  -21.2279  -40.2402   -4.5118 C   0  0  0  0  0  0  0  0  0  0  0  0
  -21.4349  -41.1009   -3.3128 C   0  0  0  0  0  0  0  0  0  0  0  0
  -22.6463  -41.9793   -3.6364 C   0  0  0  0  0  0  0  0  0  0  0  0
  -22.3714  -43.0977   -4.5860 C   0  0  0  0  0  0  0  0  0  0  0  0
  -23.2675  -42.9062   -5.7913 C   0  0  0  0  0  0  0  0  0  0  0  0
  -22.7505  -43.5456   -6.9877 N   0  0  0  0  0  0  0  0  0  0  0  0
  -21.7358  -43.1317   -7.9097 C   0  0  0  0  0  0  0  0  0  0  0  0
  -20.4331  -42.7152   -7.7104 C   0  0  0  0  0  0  0  0  0  0  0  0
  -19.6897  -42.2853   -8.7917 C   0  0  0  0  0  0  0  0  0  0  0  0
  -20.3212  -42.3091  -10.0645 C   0  0  0  0  0  0  0  0  0  0  0  0
  -21.5659  -42.7078  -10.2943 N   0  0  0  0  0  4  0  0  0  0  0  0
  -22.1517  -42.7063  -11.6295 C   0  0  0  0  0  0  0  0  0  0  0  0
  -21.6928  -41.6044  -12.4594 C   0  0  0  0  0  0  0  0  0  0  0  0
  -20.4814  -41.6762  -13.1087 C   0  0  0  0  0  0  0  0  0  0  0  0
  -20.0404  -40.6128  -13.9127 C   0  0  0  0  0  0  0  0  0  0  0  0
  -20.8243  -39.4909  -14.0530 C   0  0  0  0  0  0  0  0  0  0  0  0
  -22.0422  -39.4112  -13.4039 C   0  0  0  0  0  0  0  0  0  0  0  0
  -22.4643  -40.4734  -12.6108 C   0  0  0  0  0  0  0  0  0  0  0  0
  -22.2563  -43.1109   -9.2279 C   0  0  0  0  0  0  0  0  0  0  0  0
  -18.3262  -41.7324   -8.8713 C   0  0  0  0  0  0  0  0  0  0  0  0
  -17.5577  -42.2372   -9.8137 O   0  0  0  0  0  0  0  0  0  0  0  0
  -17.6529  -40.7374   -8.1219 N   0  0  0  0  0  0  0  0  0  0  0  0
  -22.2954  -39.2980   -4.5968 C   0  0  0  0  0  0  0  0  0  0  0  0
  -22.4123  -38.3907   -5.6033 C   0  0  0  0  0  0  0  0  0  0  0  0
  -21.4234  -38.4402   -6.5460 C   0  0  0  0  0  0  0  0  0  0  0  0
  -15.6862  -39.4741  -10.3532 C   0  0  0  0  0  0  0  0  0  0  0  0
  -15.1131  -40.7027  -10.4858 C   0  0  0  0  0  0  0  0  0  0  0  0
  -15.7070  -41.6953  -11.2389 C   0  0  0  0  0  0  0  0  0  0  0  0
  -14.9381  -43.4247  -11.4497 Br  0  0  0  0  0  0  0  0  0  0  0  0
  -16.9171  -41.4623  -11.8862 C   0  0  0  0  0  0  0  0  0  0  0  0
  -17.4984  -40.2152  -11.7514 C   0  0  0  0  0  0  0  0  0  0  0  0
  -16.8812  -39.2525  -10.9962 C   0  0  0  0  0  0  0  0  0  0  0  0
  1  2  1  0
  2  3  1  0
  2  4  1  0
  4  5  1  0
  5  6  1  0
  6  7  1  6
  6  8  1  0
  8  9  1  1
  9 10  1  0
 10 11  1  0
 11 12  2  0
 12 13  1  0
 13 14  1  0
 14 15  1  0
 15 16  1  0
 16 17  1  0
 17 18  1  0
 18 19  1  0
 19 20  2  0
 20 21  1  0
 21 22  2  0
 22 23  1  0
 23 24  1  0
 24 25  2  0
 25 26  1  0
 26 27  2  0
 27 28  1  0
 28 29  2  0
 22 30  1  0
 20 31  1  0
 31 32  2  0
 31 33  1  0
 12 34  1  0
 34 35  2  0
 35 36  1  0
  2 37  1  0
 37 38  2  0
 38 39  1  0
 39 40  1  0
 39 41  2  0
 41 42  1  0
 42 43  2  0
 29 24  1  0
 30 18  2  0
 33  8  1  0
 36 10  2  0
 43 37  1  0
M  CHG  1  22   1
M  END
$$$$
