
     RDKit          3D

 43 47  0  0  0  0  0  0  0  0999 V2000
  -12.9175  -40.3318   -9.8068 C   0  0  0  0  0  0  0  0  0  0  0  0
  -13.8993  -39.1772   -9.7795 C   0  0  0  0  0  0  0  0  0  0  0  0
  -13.3874  -37.9146   -9.1892 C   0  0  0  0  0  0  0  0  0  0  0  0
  -15.1589  -39.5301   -9.2290 N   0  0  0  0  0  0  0  0  0  0  0  0
  -15.8034  -38.7172   -8.3299 C   0  0  0  0  0  0  0  0  0  0  0  0
  -17.0157  -39.1145   -7.5992 C   0  0  1  0  0  0  0  0  0  0  0  0
  -17.9726  -38.1404   -7.3977 O   0  0  0  0  0  0  0  0  0  0  0  0
  -17.5903  -40.4255   -8.1567 C   0  0  2  0  0  0  0  0  0  0  0  0
  -19.0146  -40.4338   -8.4482 C   0  0  0  0  0  0  0  0  0  0  0  0
  -20.0681  -40.0011   -7.5117 C   0  0  0  0  0  0  0  0  0  0  0  0
  -20.1943  -40.0523   -6.1386 C   0  0  0  0  0  0  0  0  0  0  0  0
  -21.3561  -39.6213   -5.5555 C   0  0  0  0  0  0  0  0  0  0  0  0
  -21.7903  -39.5967   -4.1300 C   0  0  0  0  0  0  0  0  0  0  0  0
  -22.8620  -40.6826   -4.0035 C   0  0  0  0  0  0  0  0  0  0  0  0
  -22.3366  -42.0796   -3.9827 C   0  0  0  0  0  0  0  0  0  0  0  0
  -22.9479  -42.8167   -5.1555 C   0  0  0  0  0  0  0  0  0  0  0  0
  -22.1512  -43.9504   -5.5885 N   0  0  0  0  0  0  0  0  0  0  0  0
  -20.9741  -44.0148   -6.4016 C   0  0  0  0  0  0  0  0  0  0  0  0
  -19.7668  -43.3469   -6.3184 C   0  0  0  0  0  0  0  0  0  0  0  0
  -18.8190  -43.5423   -7.3033 C   0  0  0  0  0  0  0  0  0  0  0  0
  -19.1488  -44.4419   -8.3527 C   0  0  0  0  0  0  0  0  0  0  0  0
  -20.2934  -45.1045   -8.4617 N   0  0  0  0  0  4  0  0  0  0  0  0
  -20.5659  -46.0146   -9.5678 C   0  0  0  0  0  0  0  0  0  0  0  0
  -19.8067  -47.2524   -9.4966 C   0  0  0  0  0  0  0  0  0  0  0  0
  -19.1276  -47.7198  -10.5987 C   0  0  0  0  0  0  0  0  0  0  0  0
  -18.3919  -48.9138  -10.5281 C   0  0  0  0  0  0  0  0  0  0  0  0
  -18.3489  -49.6218   -9.3492 C   0  0  0  0  0  0  0  0  0  0  0  0
  -19.0285  -49.1588   -8.2379 C   0  0  0  0  0  0  0  0  0  0  0  0
  -19.7531  -47.9744   -8.3248 C   0  0  0  0  0  0  0  0  0  0  0  0
  -21.1875  -44.8883   -7.4972 C   0  0  0  0  0  0  0  0  0  0  0  0
  -17.4958  -42.9276   -7.5098 C   0  0  0  0  0  0  0  0  0  0  0  0
  -16.5163  -43.7593   -7.7965 O   0  0  0  0  0  0  0  0  0  0  0  0
  -17.0480  -41.5849   -7.4647 N   0  0  0  0  0  0  0  0  0  0  0  0
  -22.4152  -39.1252   -6.3719 C   0  0  0  0  0  0  0  0  0  0  0  0
  -22.3413  -39.0524   -7.7282 C   0  0  0  0  0  0  0  0  0  0  0  0
  -21.1658  -39.4934   -8.2691 C   0  0  0  0  0  0  0  0  0  0  0  0
  -14.1681  -38.9105  -11.2469 C   0  0  0  0  0  0  0  0  0  0  0  0
  -14.3738  -37.6560  -11.7360 C   0  0  0  0  0  0  0  0  0  0  0  0
  -14.6217  -37.4388  -13.0763 C   0  0  0  0  0  0  0  0  0  0  0  0
  -14.9152  -35.7016  -13.7991 Br  0  0  0  0  0  0  0  0  0  0  0  0
  -14.6670  -38.5066  -13.9683 C   0  0  0  0  0  0  0  0  0  0  0  0
  -14.4582  -39.7797  -13.4714 C   0  0  0  0  0  0  0  0  0  0  0  0
  -14.2149  -39.9593  -12.1348 C   0  0  0  0  0  0  0  0  0  0  0  0
  1  2  1  0
  2  3  1  0
  2  4  1  0
  4  5  1  0
  5  6  1  0
  6  7  1  6
  6  8  1  0
  8  9  1  1
  9 10  1  0
 10 11  1  0
 11 12  2  0
 12 13  1  0
 13 14  1  0
 14 15  1  0
 15 16  1  0
 16 17  1  0
 17 18  1  0
 18 19  1  0
 19 20  2  0
 20 21  1  0
 21 22  2  0
 22 23  1  0
 23 24  1  0
 24 25  2  0
 25 26  1  0
 26 27  2  0
 27 28  1  0
 28 29  2  0
 22 30  1  0
 20 31  1  0
 31 32  2  0
 31 33  1  0
 12 34  1  0
 34 35  2  0
 35 36  1  0
  2 37  1  0
 37 38  2  0
 38 39  1  0
 39 40  1  0
 39 41  2  0
 41 42  1  0
 42 43  2  0
 29 24  1  0
 30 18  2  0
 33  8  1  0
 36 10  2  0
 43 37  1  0
M  CHG  1  22   1
M  END
$$$$
