
     RDKit          3D

 43 47  0  0  0  0  0  0  0  0999 V2000
  -13.2781  -38.6347   -9.8814 C   0  0  0  0  0  0  0  0  0  0  0  0
  -14.6915  -39.0983   -9.5894 C   0  0  0  0  0  0  0  0  0  0  0  0
  -15.7641  -38.1206   -9.9029 C   0  0  0  0  0  0  0  0  0  0  0  0
  -14.8445  -39.6300   -8.2824 N   0  0  0  0  0  0  0  0  0  0  0  0
  -15.5033  -38.9371   -7.2973 C   0  0  0  0  0  0  0  0  0  0  0  0
  -16.9278  -39.1246   -6.9859 C   0  0  1  0  0  0  0  0  0  0  0  0
  -17.7163  -37.9923   -6.9555 O   0  0  0  0  0  0  0  0  0  0  0  0
  -17.5298  -40.2627   -7.8237 C   0  0  2  0  0  0  0  0  0  0  0  0
  -18.9314  -40.1266   -8.1853 C   0  0  0  0  0  0  0  0  0  0  0  0
  -20.0197  -39.8233   -7.2377 C   0  0  0  0  0  0  0  0  0  0  0  0
  -20.2351  -40.1361   -5.9112 C   0  0  0  0  0  0  0  0  0  0  0  0
  -21.4090  -39.7582   -5.3154 C   0  0  0  0  0  0  0  0  0  0  0  0
  -21.9311  -39.9883   -3.9385 C   0  0  0  0  0  0  0  0  0  0  0  0
  -23.0609  -41.0104   -4.0883 C   0  0  0  0  0  0  0  0  0  0  0  0
  -22.6076  -42.4136   -4.3200 C   0  0  0  0  0  0  0  0  0  0  0  0
  -23.1788  -42.8666   -5.6470 C   0  0  0  0  0  0  0  0  0  0  0  0
  -22.4131  -43.9393   -6.2557 N   0  0  0  0  0  0  0  0  0  0  0  0
  -21.1913  -43.9141   -7.0023 C   0  0  0  0  0  0  0  0  0  0  0  0
  -19.9603  -43.3506   -6.7240 C   0  0  0  0  0  0  0  0  0  0  0  0
  -18.9626  -43.4056   -7.6770 C   0  0  0  0  0  0  0  0  0  0  0  0
  -19.2690  -44.0592   -8.9010 C   0  0  0  0  0  0  0  0  0  0  0  0
  -20.4357  -44.6163   -9.2003 N   0  0  0  0  0  4  0  0  0  0  0  0
  -20.6820  -45.2724  -10.4789 C   0  0  0  0  0  0  0  0  0  0  0  0
  -19.5705  -46.0945  -10.9287 C   0  0  0  0  0  0  0  0  0  0  0  0
  -19.4843  -47.4168  -10.5569 C   0  0  0  0  0  0  0  0  0  0  0  0
  -18.4121  -48.2110  -10.9945 C   0  0  0  0  0  0  0  0  0  0  0  0
  -17.4407  -47.6642  -11.8008 C   0  0  0  0  0  0  0  0  0  0  0  0
  -17.5201  -46.3367  -12.1783 C   0  0  0  0  0  0  0  0  0  0  0  0
  -18.5887  -45.5636  -11.7358 C   0  0  0  0  0  0  0  0  0  0  0  0
  -21.3775  -44.5401   -8.2603 C   0  0  0  0  0  0  0  0  0  0  0  0
  -17.6003  -42.8442   -7.6866 C   0  0  0  0  0  0  0  0  0  0  0  0
  -16.6468  -43.6614   -8.0822 O   0  0  0  0  0  0  0  0  0  0  0  0
  -17.0905  -41.5666   -7.3504 N   0  0  0  0  0  0  0  0  0  0  0  0
  -22.3883  -39.0474   -6.0704 C   0  0  0  0  0  0  0  0  0  0  0  0
  -22.2249  -38.7136   -7.3789 C   0  0  0  0  0  0  0  0  0  0  0  0
  -21.0406  -39.1103   -7.9347 C   0  0  0  0  0  0  0  0  0  0  0  0
  -14.8732  -40.2789  -10.5219 C   0  0  0  0  0  0  0  0  0  0  0  0
  -16.0765  -40.5927  -11.0778 C   0  0  0  0  0  0  0  0  0  0  0  0
  -16.2181  -41.6764  -11.9208 C   0  0  0  0  0  0  0  0  0  0  0  0
  -17.8822  -42.1490  -12.7170 Br  0  0  0  0  0  0  0  0  0  0  0  0
  -15.1241  -42.4811  -12.2264 C   0  0  0  0  0  0  0  0  0  0  0  0
  -13.9029  -42.1623  -11.6620 C   0  0  0  0  0  0  0  0  0  0  0  0
  -13.7982  -41.0792  -10.8289 C   0  0  0  0  0  0  0  0  0  0  0  0
  1  2  1  0
  2  3  1  0
  2  4  1  0
  4  5  1  0
  5  6  1  0
  6  7  1  6
  6  8  1  0
  8  9  1  1
  9 10  1  0
 10 11  1  0
 11 12  2  0
 12 13  1  0
 13 14  1  0
 14 15  1  0
 15 16  1  0
 16 17  1  0
 17 18  1  0
 18 19  1  0
 19 20  2  0
 20 21  1  0
 21 22  2  0
 22 23  1  0
 23 24  1  0
 24 25  2  0
 25 26  1  0
 26 27  2  0
 27 28  1  0
 28 29  2  0
 22 30  1  0
 20 31  1  0
 31 32  2  0
 31 33  1  0
 12 34  1  0
 34 35  2  0
 35 36  1  0
  2 37  1  0
 37 38  2  0
 38 39  1  0
 39 40  1  0
 39 41  2  0
 41 42  1  0
 42 43  2  0
 29 24  1  0
 30 18  2  0
 33  8  1  0
 36 10  2  0
 43 37  1  0
M  CHG  1  22   1
M  END
$$$$
