
     RDKit          3D

 43 47  0  0  0  0  0  0  0  0999 V2000
  -21.6014  -37.6724   -5.0159 C   0  0  0  0  0  0  0  0  0  0  0  0
  -20.4742  -38.6827   -5.0964 C   0  0  0  0  0  0  0  0  0  0  0  0
  -20.1123  -39.3424   -3.8164 C   0  0  0  0  0  0  0  0  0  0  0  0
  -19.3246  -38.1827   -5.7617 N   0  0  0  0  0  0  0  0  0  0  0  0
  -18.1293  -38.8576   -5.7367 C   0  0  0  0  0  0  0  0  0  0  0  0
  -17.1493  -38.8152   -6.8317 C   0  0  1  0  0  0  0  0  0  0  0  0
  -15.8676  -38.4174   -6.5096 O   0  0  0  0  0  0  0  0  0  0  0  0
  -17.1948  -40.1066   -7.6622 C   0  0  2  0  0  0  0  0  0  0  0  0
  -16.3022  -40.1692   -8.8081 C   0  0  0  0  0  0  0  0  0  0  0  0
  -16.1933  -39.1295   -9.8481 C   0  0  0  0  0  0  0  0  0  0  0  0
  -17.0989  -38.2523  -10.4090 C   0  0  0  0  0  0  0  0  0  0  0  0
  -16.6960  -37.4361  -11.4323 C   0  0  0  0  0  0  0  0  0  0  0  0
  -17.4455  -36.4385  -12.2473 C   0  0  0  0  0  0  0  0  0  0  0  0
  -17.5939  -37.0645  -13.6365 C   0  0  0  0  0  0  0  0  0  0  0  0
  -18.6202  -38.1445  -13.7288 C   0  0  0  0  0  0  0  0  0  0  0  0
  -17.9165  -39.4085  -14.1754 C   0  0  0  0  0  0  0  0  0  0  0  0
  -18.6228  -40.6161  -13.7879 N   0  0  0  0  0  0  0  0  0  0  0  0
  -18.6778  -41.3112  -12.5370 C   0  0  0  0  0  0  0  0  0  0  0  0
  -18.9651  -40.8725  -11.2581 C   0  0  0  0  0  0  0  0  0  0  0  0
  -18.8609  -41.7566  -10.2027 C   0  0  0  0  0  0  0  0  0  0  0  0
  -18.4673  -43.0877  -10.5069 C   0  0  0  0  0  0  0  0  0  0  0  0
  -18.1901  -43.5455  -11.7213 N   0  0  0  0  0  4  0  0  0  0  0  0
  -17.7915  -44.9272  -11.9622 C   0  0  0  0  0  0  0  0  0  0  0  0
  -16.8021  -45.4153  -11.0153 C   0  0  0  0  0  0  0  0  0  0  0  0
  -17.0483  -46.5441  -10.2674 C   0  0  0  0  0  0  0  0  0  0  0  0
  -16.0908  -47.0168   -9.3555 C   0  0  0  0  0  0  0  0  0  0  0  0
  -14.8979  -46.3474   -9.2082 C   0  0  0  0  0  0  0  0  0  0  0  0
  -14.6433  -45.2128   -9.9557 C   0  0  0  0  0  0  0  0  0  0  0  0
  -15.6026  -44.7575  -10.8544 C   0  0  0  0  0  0  0  0  0  0  0  0
  -18.2955  -42.6643  -12.7157 C   0  0  0  0  0  0  0  0  0  0  0  0
  -19.0355  -41.5592   -8.7529 C   0  0  0  0  0  0  0  0  0  0  0  0
  -19.7684  -42.4624   -8.1361 O   0  0  0  0  0  0  0  0  0  0  0  0
  -18.5602  -40.5692   -7.8590 N   0  0  0  0  0  0  0  0  0  0  0  0
  -15.3505  -37.5019  -11.9013 C   0  0  0  0  0  0  0  0  0  0  0  0
  -14.4193  -38.3468  -11.3826 C   0  0  0  0  0  0  0  0  0  0  0  0
  -14.8632  -39.1440  -10.3645 C   0  0  0  0  0  0  0  0  0  0  0  0
  -21.0286  -39.7545   -6.0131 C   0  0  0  0  0  0  0  0  0  0  0  0
  -21.3153  -39.5186   -7.3237 C   0  0  0  0  0  0  0  0  0  0  0  0
  -21.8243  -40.5102   -8.1378 C   0  0  0  0  0  0  0  0  0  0  0  0
  -22.2389  -40.2207   -9.9738 Br  0  0  0  0  0  0  0  0  0  0  0  0
  -22.0579  -41.7867   -7.6344 C   0  0  0  0  0  0  0  0  0  0  0  0
  -21.7668  -42.0258   -6.3042 C   0  0  0  0  0  0  0  0  0  0  0  0
  -21.2627  -41.0180   -5.5241 C   0  0  0  0  0  0  0  0  0  0  0  0
  1  2  1  0
  2  3  1  0
  2  4  1  0
  4  5  1  0
  5  6  1  0
  6  7  1  1
  6  8  1  0
  8  9  1  6
  9 10  1  0
 10 11  1  0
 11 12  2  0
 12 13  1  0
 13 14  1  0
 14 15  1  0
 15 16  1  0
 16 17  1  0
 17 18  1  0
 18 19  1  0
 19 20  2  0
 20 21  1  0
 21 22  2  0
 22 23  1  0
 23 24  1  0
 24 25  2  0
 25 26  1  0
 26 27  2  0
 27 28  1  0
 28 29  2  0
 22 30  1  0
 20 31  1  0
 31 32  2  0
 31 33  1  0
 12 34  1  0
 34 35  2  0
 35 36  1  0
  2 37  1  0
 37 38  2  0
 38 39  1  0
 39 40  1  0
 39 41  2  0
 41 42  1  0
 42 43  2  0
 29 24  1  0
 30 18  2  0
 33  8  1  0
 36 10  2  0
 43 37  1  0
M  CHG  1  22   1
M  END
$$$$
