
     RDKit          3D

 43 47  0  0  0  0  0  0  0  0999 V2000
  -15.2556  -41.2669   -9.7157 C   0  0  0  0  0  0  0  0  0  0  0  0
  -14.1377  -40.9591   -8.7393 C   0  0  0  0  0  0  0  0  0  0  0  0
  -13.4279  -42.1397   -8.1850 C   0  0  0  0  0  0  0  0  0  0  0  0
  -14.5278  -40.0624   -7.7107 N   0  0  0  0  0  0  0  0  0  0  0  0
  -15.3781  -39.0130   -7.9564 C   0  0  0  0  0  0  0  0  0  0  0  0
  -16.8348  -39.0875   -7.7728 C   0  0  1  0  0  0  0  0  0  0  0  0
  -17.5825  -38.0374   -8.2661 O   0  0  0  0  0  0  0  0  0  0  0  0
  -17.3728  -40.4651   -8.1882 C   0  0  2  0  0  0  0  0  0  0  0  0
  -18.6772  -40.4822   -8.8299 C   0  0  0  0  0  0  0  0  0  0  0  0
  -19.8838  -39.8188   -8.3023 C   0  0  0  0  0  0  0  0  0  0  0  0
  -20.3459  -39.5687   -7.0264 C   0  0  0  0  0  0  0  0  0  0  0  0
  -21.5707  -38.9788   -6.8606 C   0  0  0  0  0  0  0  0  0  0  0  0
  -22.3361  -38.6319   -5.6297 C   0  0  0  0  0  0  0  0  0  0  0  0
  -23.5007  -39.6240   -5.5714 C   0  0  0  0  0  0  0  0  0  0  0  0
  -23.1260  -41.0026   -5.1390 C   0  0  0  0  0  0  0  0  0  0  0  0
  -23.4966  -41.9510   -6.2595 C   0  0  0  0  0  0  0  0  0  0  0  0
  -22.7251  -43.1805   -6.2383 N   0  0  0  0  0  0  0  0  0  0  0  0
  -21.3958  -43.4627   -6.6904 C   0  0  0  0  0  0  0  0  0  0  0  0
  -20.1898  -42.8386   -6.4325 C   0  0  0  0  0  0  0  0  0  0  0  0
  -19.0518  -43.2768   -7.0802 C   0  0  0  0  0  0  0  0  0  0  0  0
  -19.1956  -44.3679   -7.9792 C   0  0  0  0  0  0  0  0  0  0  0  0
  -20.3344  -44.9948   -8.2463 N   0  0  0  0  0  4  0  0  0  0  0  0
  -20.4100  -46.1105   -9.1820 C   0  0  0  0  0  0  0  0  0  0  0  0
  -19.1814  -46.8841   -9.2576 C   0  0  0  0  0  0  0  0  0  0  0  0
  -18.1682  -46.5047  -10.1082 C   0  0  0  0  0  0  0  0  0  0  0  0
  -16.9805  -47.2505  -10.1781 C   0  0  0  0  0  0  0  0  0  0  0  0
  -16.8278  -48.3685   -9.3910 C   0  0  0  0  0  0  0  0  0  0  0  0
  -17.8411  -48.7562   -8.5342 C   0  0  0  0  0  0  0  0  0  0  0  0
  -19.0116  -48.0064   -8.4773 C   0  0  0  0  0  0  0  0  0  0  0  0
  -21.4136  -44.5427   -7.6081 C   0  0  0  0  0  0  0  0  0  0  0  0
  -17.6680  -42.7713   -7.0558 C   0  0  0  0  0  0  0  0  0  0  0  0
  -16.7282  -43.6816   -6.9090 O   0  0  0  0  0  0  0  0  0  0  0  0
  -17.1242  -41.4682   -7.1639 N   0  0  0  0  0  0  0  0  0  0  0  0
  -22.3483  -38.6303   -8.0044 C   0  0  0  0  0  0  0  0  0  0  0  0
  -21.9387  -38.8537   -9.2821 C   0  0  0  0  0  0  0  0  0  0  0  0
  -20.7119  -39.4447   -9.4026 C   0  0  0  0  0  0  0  0  0  0  0  0
  -13.1396  -40.1888   -9.5801 C   0  0  0  0  0  0  0  0  0  0  0  0
  -12.5023  -39.0759   -9.1211 C   0  0  0  0  0  0  0  0  0  0  0  0
  -11.6005  -38.3882   -9.9079 C   0  0  0  0  0  0  0  0  0  0  0  0
  -10.6898  -36.8285   -9.3041 Br  0  0  0  0  0  0  0  0  0  0  0  0
  -11.3179  -38.8202  -11.2006 C   0  0  0  0  0  0  0  0  0  0  0  0
  -11.9650  -39.9497  -11.6661 C   0  0  0  0  0  0  0  0  0  0  0  0
  -12.8548  -40.6082  -10.8581 C   0  0  0  0  0  0  0  0  0  0  0  0
  1  2  1  0
  2  3  1  0
  2  4  1  0
  4  5  1  0
  5  6  1  0
  6  7  1  6
  6  8  1  0
  8  9  1  1
  9 10  1  0
 10 11  1  0
 11 12  2  0
 12 13  1  0
 13 14  1  0
 14 15  1  0
 15 16  1  0
 16 17  1  0
 17 18  1  0
 18 19  1  0
 19 20  2  0
 20 21  1  0
 21 22  2  0
 22 23  1  0
 23 24  1  0
 24 25  2  0
 25 26  1  0
 26 27  2  0
 27 28  1  0
 28 29  2  0
 22 30  1  0
 20 31  1  0
 31 32  2  0
 31 33  1  0
 12 34  1  0
 34 35  2  0
 35 36  1  0
  2 37  1  0
 37 38  2  0
 38 39  1  0
 39 40  1  0
 39 41  2  0
 41 42  1  0
 42 43  2  0
 29 24  1  0
 30 18  2  0
 33  8  1  0
 36 10  2  0
 43 37  1  0
M  CHG  1  22   1
M  END
$$$$
