
     RDKit          3D

 43 47  0  0  0  0  0  0  0  0999 V2000
  -12.7422  -40.3031   -8.9383 C   0  0  0  0  0  0  0  0  0  0  0  0
  -13.5679  -39.3380   -9.7657 C   0  0  0  0  0  0  0  0  0  0  0  0
  -12.9538  -38.0065   -9.9993 C   0  0  0  0  0  0  0  0  0  0  0  0
  -14.9058  -39.2155   -9.3082 N   0  0  0  0  0  0  0  0  0  0  0  0
  -15.1960  -39.0132   -7.9817 C   0  0  0  0  0  0  0  0  0  0  0  0
  -16.5226  -39.2513   -7.3948 C   0  0  1  0  0  0  0  0  0  0  0  0
  -17.1469  -38.1732   -6.8006 O   0  0  0  0  0  0  0  0  0  0  0  0
  -17.4283  -40.0158   -8.3720 C   0  0  2  0  0  0  0  0  0  0  0  0
  -18.8266  -39.6187   -8.4017 C   0  0  0  0  0  0  0  0  0  0  0  0
  -19.6888  -39.4834   -7.2132 C   0  0  0  0  0  0  0  0  0  0  0  0
  -19.7448  -40.1447   -6.0034 C   0  0  0  0  0  0  0  0  0  0  0  0
  -20.7325  -39.8255   -5.1100 C   0  0  0  0  0  0  0  0  0  0  0  0
  -21.0655  -40.3877   -3.7704 C   0  0  0  0  0  0  0  0  0  0  0  0
  -22.3591  -41.1833   -3.9640 C   0  0  0  0  0  0  0  0  0  0  0  0
  -22.1871  -42.4991   -4.6473 C   0  0  0  0  0  0  0  0  0  0  0  0
  -23.0247  -42.4737   -5.9084 C   0  0  0  0  0  0  0  0  0  0  0  0
  -22.5522  -43.4013   -6.9201 N   0  0  0  0  0  0  0  0  0  0  0  0
  -21.4741  -43.2992   -7.8573 C   0  0  0  0  0  0  0  0  0  0  0  0
  -20.1384  -42.9883   -7.6852 C   0  0  0  0  0  0  0  0  0  0  0  0
  -19.3239  -42.8760   -8.7945 C   0  0  0  0  0  0  0  0  0  0  0  0
  -19.9210  -43.1015  -10.0641 C   0  0  0  0  0  0  0  0  0  0  0  0
  -21.1963  -43.4077  -10.2668 N   0  0  0  0  0  4  0  0  0  0  0  0
  -21.7438  -43.6266  -11.6004 C   0  0  0  0  0  0  0  0  0  0  0  0
  -22.0664  -42.3941  -12.3008 C   0  0  0  0  0  0  0  0  0  0  0  0
  -21.1907  -41.3325  -12.2862 C   0  0  0  0  0  0  0  0  0  0  0  0
  -21.5016  -40.1436  -12.9657 C   0  0  0  0  0  0  0  0  0  0  0  0
  -22.6898  -40.0386  -13.6513 C   0  0  0  0  0  0  0  0  0  0  0  0
  -23.5748  -41.1005  -13.6704 C   0  0  0  0  0  0  0  0  0  0  0  0
  -23.2516  -42.2711  -12.9917 C   0  0  0  0  0  0  0  0  0  0  0  0
  -21.9548  -43.5026   -9.1750 C   0  0  0  0  0  0  0  0  0  0  0  0
  -17.9054  -42.4977   -8.9203 C   0  0  0  0  0  0  0  0  0  0  0  0
  -17.1743  -43.2671   -9.6994 O   0  0  0  0  0  0  0  0  0  0  0  0
  -17.1441  -41.4428   -8.3609 N   0  0  0  0  0  0  0  0  0  0  0  0
  -21.6850  -38.8163   -5.4397 C   0  0  0  0  0  0  0  0  0  0  0  0
  -21.6733  -38.1344   -6.6165 C   0  0  0  0  0  0  0  0  0  0  0  0
  -20.6723  -38.4844   -7.4794 C   0  0  0  0  0  0  0  0  0  0  0  0
  -13.6701  -40.0278  -11.1111 C   0  0  0  0  0  0  0  0  0  0  0  0
  -14.4317  -41.1402  -11.3060 C   0  0  0  0  0  0  0  0  0  0  0  0
  -14.5051  -41.7538  -12.5403 C   0  0  0  0  0  0  0  0  0  0  0  0
  -15.5569  -43.3101  -12.8536 Br  0  0  0  0  0  0  0  0  0  0  0  0
  -13.7965  -41.2451  -13.6251 C   0  0  0  0  0  0  0  0  0  0  0  0
  -13.0237  -40.1161  -13.4269 C   0  0  0  0  0  0  0  0  0  0  0  0
  -12.9734  -39.5324  -12.1879 C   0  0  0  0  0  0  0  0  0  0  0  0
  1  2  1  0
  2  3  1  0
  2  4  1  0
  4  5  1  0
  5  6  1  0
  6  7  1  6
  6  8  1  0
  8  9  1  1
  9 10  1  0
 10 11  1  0
 11 12  2  0
 12 13  1  0
 13 14  1  0
 14 15  1  0
 15 16  1  0
 16 17  1  0
 17 18  1  0
 18 19  1  0
 19 20  2  0
 20 21  1  0
 21 22  2  0
 22 23  1  0
 23 24  1  0
 24 25  2  0
 25 26  1  0
 26 27  2  0
 27 28  1  0
 28 29  2  0
 22 30  1  0
 20 31  1  0
 31 32  2  0
 31 33  1  0
 12 34  1  0
 34 35  2  0
 35 36  1  0
  2 37  1  0
 37 38  2  0
 38 39  1  0
 39 40  1  0
 39 41  2  0
 41 42  1  0
 42 43  2  0
 29 24  1  0
 30 18  2  0
 33  8  1  0
 36 10  2  0
 43 37  1  0
M  CHG  1  22   1
M  END
$$$$
