
     RDKit          3D

 43 47  0  0  0  0  0  0  0  0999 V2000
  -20.5805  -36.4686   -6.8738 C   0  0  0  0  0  0  0  0  0  0  0  0
  -19.9667  -37.7232   -6.2848 C   0  0  0  0  0  0  0  0  0  0  0  0
  -19.0326  -37.5080   -5.1509 C   0  0  0  0  0  0  0  0  0  0  0  0
  -19.3993  -38.5787   -7.2648 N   0  0  0  0  0  0  0  0  0  0  0  0
  -19.8399  -38.5736   -8.5650 C   0  0  0  0  0  0  0  0  0  0  0  0
  -19.8615  -39.7692   -9.4202 C   0  0  1  0  0  0  0  0  0  0  0  0
  -19.9238  -39.5627  -10.7834 O   0  0  0  0  0  0  0  0  0  0  0  0
  -18.7667  -40.7635   -9.0050 C   0  0  2  0  0  0  0  0  0  0  0  0
  -18.1183  -41.4962  -10.0804 C   0  0  0  0  0  0  0  0  0  0  0  0
  -18.8264  -42.2330  -11.1435 C   0  0  0  0  0  0  0  0  0  0  0  0
  -20.0167  -42.9300  -11.1814 C   0  0  0  0  0  0  0  0  0  0  0  0
  -20.3756  -43.5816  -12.3313 C   0  0  0  0  0  0  0  0  0  0  0  0
  -21.5559  -44.4338  -12.6507 C   0  0  0  0  0  0  0  0  0  0  0  0
  -21.0209  -45.8650  -12.7466 C   0  0  0  0  0  0  0  0  0  0  0  0
  -20.7152  -46.5071  -11.4342 C   0  0  0  0  0  0  0  0  0  0  0  0
  -19.2455  -46.8712  -11.4334 C   0  0  0  0  0  0  0  0  0  0  0  0
  -18.6901  -46.9785  -10.0965 N   0  0  0  0  0  0  0  0  0  0  0  0
  -18.2495  -45.9708   -9.1792 C   0  0  0  0  0  0  0  0  0  0  0  0
  -18.8710  -44.8316   -8.7034 C   0  0  0  0  0  0  0  0  0  0  0  0
  -18.1700  -43.9764   -7.8765 C   0  0  0  0  0  0  0  0  0  0  0  0
  -16.8332  -44.3351   -7.5545 C   0  0  0  0  0  0  0  0  0  0  0  0
  -16.2069  -45.4222   -7.9869 N   0  0  0  0  0  4  0  0  0  0  0  0
  -14.8307  -45.7295   -7.6157 C   0  0  0  0  0  0  0  0  0  0  0  0
  -13.8521  -45.2391   -8.5725 C   0  0  0  0  0  0  0  0  0  0  0  0
  -13.2244  -44.0307   -8.3726 C   0  0  0  0  0  0  0  0  0  0  0  0
  -12.2770  -43.5593   -9.2956 C   0  0  0  0  0  0  0  0  0  0  0  0
  -11.9732  -44.3102  -10.4076 C   0  0  0  0  0  0  0  0  0  0  0  0
  -12.5996  -45.5249  -10.6155 C   0  0  0  0  0  0  0  0  0  0  0  0
  -13.5362  -45.9773   -9.6916 C   0  0  0  0  0  0  0  0  0  0  0  0
  -16.9109  -46.2225   -8.7871 C   0  0  0  0  0  0  0  0  0  0  0  0
  -18.5431  -42.6802   -7.2834 C   0  0  0  0  0  0  0  0  0  0  0  0
  -18.2695  -42.5361   -6.0036 O   0  0  0  0  0  0  0  0  0  0  0  0
  -19.1513  -41.5213   -7.8239 N   0  0  0  0  0  0  0  0  0  0  0  0
  -19.5189  -43.5295  -13.4704 C   0  0  0  0  0  0  0  0  0  0  0  0
  -18.3371  -42.8563  -13.4858 C   0  0  0  0  0  0  0  0  0  0  0  0
  -18.0165  -42.2212  -12.3183 C   0  0  0  0  0  0  0  0  0  0  0  0
  -21.1637  -38.4786   -5.7436 C   0  0  0  0  0  0  0  0  0  0  0  0
  -21.0421  -39.6621   -5.0802 C   0  0  0  0  0  0  0  0  0  0  0  0
  -22.1483  -40.3341   -4.6006 C   0  0  0  0  0  0  0  0  0  0  0  0
  -22.0209  -41.9905   -3.6695 Br  0  0  0  0  0  0  0  0  0  0  0  0
  -23.4259  -39.8130   -4.7844 C   0  0  0  0  0  0  0  0  0  0  0  0
  -23.5489  -38.6118   -5.4577 C   0  0  0  0  0  0  0  0  0  0  0  0
  -22.4293  -37.9714   -5.9210 C   0  0  0  0  0  0  0  0  0  0  0  0
  1  2  1  0
  2  3  1  0
  2  4  1  0
  4  5  1  0
  5  6  1  0
  6  7  1  6
  6  8  1  0
  8  9  1  6
  9 10  1  0
 10 11  1  0
 11 12  2  0
 12 13  1  0
 13 14  1  0
 14 15  1  0
 15 16  1  0
 16 17  1  0
 17 18  1  0
 18 19  1  0
 19 20  2  0
 20 21  1  0
 21 22  2  0
 22 23  1  0
 23 24  1  0
 24 25  2  0
 25 26  1  0
 26 27  2  0
 27 28  1  0
 28 29  2  0
 22 30  1  0
 20 31  1  0
 31 32  2  0
 31 33  1  0
 12 34  1  0
 34 35  2  0
 35 36  1  0
  2 37  1  0
 37 38  2  0
 38 39  1  0
 39 40  1  0
 39 41  2  0
 41 42  1  0
 42 43  2  0
 29 24  1  0
 30 18  2  0
 33  8  1  0
 36 10  2  0
 43 37  1  0
M  CHG  1  22   1
M  END
$$$$
