
     RDKit          3D

 43 47  0  0  0  0  0  0  0  0999 V2000
  -13.7876  -40.5111  -10.4883 C   0  0  0  0  0  0  0  0  0  0  0  0
  -13.7832  -39.3123   -9.5606 C   0  0  0  0  0  0  0  0  0  0  0  0
  -12.8247  -39.3815   -8.4288 C   0  0  0  0  0  0  0  0  0  0  0  0
  -15.0807  -38.9475   -9.1159 N   0  0  0  0  0  0  0  0  0  0  0  0
  -15.4116  -38.9529   -7.7835 C   0  0  0  0  0  0  0  0  0  0  0  0
  -16.7498  -39.2950   -7.2802 C   0  0  1  0  0  0  0  0  0  0  0  0
  -17.6399  -38.2538   -7.1108 O   0  0  0  0  0  0  0  0  0  0  0  0
  -17.3427  -40.4822   -8.0539 C   0  0  2  0  0  0  0  0  0  0  0  0
  -18.6944  -40.3119   -8.5615 C   0  0  0  0  0  0  0  0  0  0  0  0
  -19.8434  -39.8533   -7.7591 C   0  0  0  0  0  0  0  0  0  0  0  0
  -20.1977  -40.0121   -6.4350 C   0  0  0  0  0  0  0  0  0  0  0  0
  -21.3951  -39.5122   -5.9968 C   0  0  0  0  0  0  0  0  0  0  0  0
  -22.0537  -39.5676   -4.6609 C   0  0  0  0  0  0  0  0  0  0  0  0
  -23.2265  -40.5391   -4.8161 C   0  0  0  0  0  0  0  0  0  0  0  0
  -22.8421  -41.9807   -4.8605 C   0  0  0  0  0  0  0  0  0  0  0  0
  -23.3173  -42.5412   -6.1844 C   0  0  0  0  0  0  0  0  0  0  0  0
  -22.5676  -43.7109   -6.6051 N   0  0  0  0  0  0  0  0  0  0  0  0
  -21.2837  -43.8290   -7.2286 C   0  0  0  0  0  0  0  0  0  0  0  0
  -20.0505  -43.3046   -6.8903 C   0  0  0  0  0  0  0  0  0  0  0  0
  -18.9756  -43.5125   -7.7316 C   0  0  0  0  0  0  0  0  0  0  0  0
  -19.2094  -44.2750   -8.9077 C   0  0  0  0  0  0  0  0  0  0  0  0
  -20.3764  -44.7987   -9.2612 N   0  0  0  0  0  4  0  0  0  0  0  0
  -20.5457  -45.5727  -10.4852 C   0  0  0  0  0  0  0  0  0  0  0  0
  -19.4918  -46.5513  -10.6991 C   0  0  0  0  0  0  0  0  0  0  0  0
  -19.4199  -47.6823   -9.9183 C   0  0  0  0  0  0  0  0  0  0  0  0
  -18.4037  -48.6285  -10.1277 C   0  0  0  0  0  0  0  0  0  0  0  0
  -17.4731  -48.4242  -11.1203 C   0  0  0  0  0  0  0  0  0  0  0  0
  -17.5386  -47.2904  -11.9085 C   0  0  0  0  0  0  0  0  0  0  0  0
  -18.5515  -46.3627  -11.6877 C   0  0  0  0  0  0  0  0  0  0  0  0
  -21.3933  -44.5742   -8.4293 C   0  0  0  0  0  0  0  0  0  0  0  0
  -17.5858  -43.0274   -7.6655 C   0  0  0  0  0  0  0  0  0  0  0  0
  -16.6529  -43.9308   -7.8827 O   0  0  0  0  0  0  0  0  0  0  0  0
  -17.0303  -41.7499   -7.4115 N   0  0  0  0  0  0  0  0  0  0  0  0
  -22.2556  -38.8350   -6.9108 C   0  0  0  0  0  0  0  0  0  0  0  0
  -21.9534  -38.6507   -8.2242 C   0  0  0  0  0  0  0  0  0  0  0  0
  -20.7503  -39.1656   -8.6199 C   0  0  0  0  0  0  0  0  0  0  0  0
  -13.3372  -38.1757  -10.4582 C   0  0  0  0  0  0  0  0  0  0  0  0
  -14.2028  -37.2386  -10.9356 C   0  0  0  0  0  0  0  0  0  0  0  0
  -13.7732  -36.2150  -11.7559 C   0  0  0  0  0  0  0  0  0  0  0  0
  -14.9511  -34.8865  -12.4446 Br  0  0  0  0  0  0  0  0  0  0  0  0
  -12.4327  -36.1148  -12.1174 C   0  0  0  0  0  0  0  0  0  0  0  0
  -11.5544  -37.0662  -11.6326 C   0  0  0  0  0  0  0  0  0  0  0  0
  -12.0151  -38.0694  -10.8205 C   0  0  0  0  0  0  0  0  0  0  0  0
  1  2  1  0
  2  3  1  0
  2  4  1  0
  4  5  1  0
  5  6  1  0
  6  7  1  6
  6  8  1  0
  8  9  1  1
  9 10  1  0
 10 11  1  0
 11 12  2  0
 12 13  1  0
 13 14  1  0
 14 15  1  0
 15 16  1  0
 16 17  1  0
 17 18  1  0
 18 19  1  0
 19 20  2  0
 20 21  1  0
 21 22  2  0
 22 23  1  0
 23 24  1  0
 24 25  2  0
 25 26  1  0
 26 27  2  0
 27 28  1  0
 28 29  2  0
 22 30  1  0
 20 31  1  0
 31 32  2  0
 31 33  1  0
 12 34  1  0
 34 35  2  0
 35 36  1  0
  2 37  1  0
 37 38  2  0
 38 39  1  0
 39 40  1  0
 39 41  2  0
 41 42  1  0
 42 43  2  0
 29 24  1  0
 30 18  2  0
 33  8  1  0
 36 10  2  0
 43 37  1  0
M  CHG  1  22   1
M  END
$$$$
