
     RDKit          3D

 43 47  0  0  0  0  0  0  0  0999 V2000
  -12.5830  -38.6805   -9.1438 C   0  0  0  0  0  0  0  0  0  0  0  0
  -13.8660  -38.0787   -9.6817 C   0  0  0  0  0  0  0  0  0  0  0  0
  -13.9485  -36.5970   -9.6326 C   0  0  0  0  0  0  0  0  0  0  0  0
  -15.0326  -38.6782   -9.1394 N   0  0  0  0  0  0  0  0  0  0  0  0
  -15.9824  -37.9365   -8.4819 C   0  0  0  0  0  0  0  0  0  0  0  0
  -17.0232  -38.5243   -7.6260 C   0  0  1  0  0  0  0  0  0  0  0  0
  -17.9434  -37.6565   -7.0739 O   0  0  0  0  0  0  0  0  0  0  0  0
  -17.6669  -39.7450   -8.3007 C   0  0  2  0  0  0  0  0  0  0  0  0
  -19.0925  -39.6562   -8.5713 C   0  0  0  0  0  0  0  0  0  0  0  0
  -20.1146  -39.2675   -7.5821 C   0  0  0  0  0  0  0  0  0  0  0  0
  -20.2300  -39.4474   -6.2188 C   0  0  0  0  0  0  0  0  0  0  0  0
  -21.3637  -39.0204   -5.5799 C   0  0  0  0  0  0  0  0  0  0  0  0
  -21.7826  -39.1152   -4.1527 C   0  0  0  0  0  0  0  0  0  0  0  0
  -22.9052  -40.1555   -4.1177 C   0  0  0  0  0  0  0  0  0  0  0  0
  -22.4491  -41.5714   -4.2411 C   0  0  0  0  0  0  0  0  0  0  0  0
  -23.1071  -42.1594   -5.4715 C   0  0  0  0  0  0  0  0  0  0  0  0
  -22.3713  -43.2819   -6.0245 N   0  0  0  0  0  0  0  0  0  0  0  0
  -21.2065  -43.3226   -6.8567 C   0  0  0  0  0  0  0  0  0  0  0  0
  -19.9671  -42.7250   -6.7260 C   0  0  0  0  0  0  0  0  0  0  0  0
  -19.0394  -42.8679   -7.7386 C   0  0  0  0  0  0  0  0  0  0  0  0
  -19.4230  -43.6431   -8.8662 C   0  0  0  0  0  0  0  0  0  0  0  0
  -20.5999  -44.2359   -9.0230 N   0  0  0  0  0  4  0  0  0  0  0  0
  -20.9273  -45.0187  -10.2088 C   0  0  0  0  0  0  0  0  0  0  0  0
  -22.3552  -45.0993  -10.4704 C   0  0  0  0  0  0  0  0  0  0  0  0
  -23.1382  -43.9682  -10.4276 C   0  0  0  0  0  0  0  0  0  0  0  0
  -24.5166  -44.0465  -10.6836 C   0  0  0  0  0  0  0  0  0  0  0  0
  -25.0892  -45.2619  -10.9796 C   0  0  0  0  0  0  0  0  0  0  0  0
  -24.3094  -46.4026  -11.0243 C   0  0  0  0  0  0  0  0  0  0  0  0
  -22.9454  -46.3078  -10.7678 C   0  0  0  0  0  0  0  0  0  0  0  0
  -21.4730  -44.0729   -8.0293 C   0  0  0  0  0  0  0  0  0  0  0  0
  -17.6896  -42.3002   -7.9029 C   0  0  0  0  0  0  0  0  0  0  0  0
  -16.7550  -43.1459   -8.2835 O   0  0  0  0  0  0  0  0  0  0  0  0
  -17.1758  -40.9916   -7.7332 N   0  0  0  0  0  0  0  0  0  0  0  0
  -22.4048  -38.3961   -6.3288 C   0  0  0  0  0  0  0  0  0  0  0  0
  -22.3403  -38.1939   -7.6723 C   0  0  0  0  0  0  0  0  0  0  0  0
  -21.1930  -38.6355   -8.2705 C   0  0  0  0  0  0  0  0  0  0  0  0
  -13.8561  -38.4799  -11.1429 C   0  0  0  0  0  0  0  0  0  0  0  0
  -14.0848  -39.7592  -11.5511 C   0  0  0  0  0  0  0  0  0  0  0  0
  -14.0658  -40.1013  -12.8882 C   0  0  0  0  0  0  0  0  0  0  0  0
  -14.3794  -41.8774  -13.4994 Br  0  0  0  0  0  0  0  0  0  0  0  0
  -13.8109  -39.1379  -13.8601 C   0  0  0  0  0  0  0  0  0  0  0  0
  -13.5789  -37.8396  -13.4455 C   0  0  0  0  0  0  0  0  0  0  0  0
  -13.6049  -37.5349  -12.1096 C   0  0  0  0  0  0  0  0  0  0  0  0
  1  2  1  0
  2  3  1  0
  2  4  1  0
  4  5  1  0
  5  6  1  0
  6  7  1  6
  6  8  1  0
  8  9  1  1
  9 10  1  0
 10 11  1  0
 11 12  2  0
 12 13  1  0
 13 14  1  0
 14 15  1  0
 15 16  1  0
 16 17  1  0
 17 18  1  0
 18 19  1  0
 19 20  2  0
 20 21  1  0
 21 22  2  0
 22 23  1  0
 23 24  1  0
 24 25  2  0
 25 26  1  0
 26 27  2  0
 27 28  1  0
 28 29  2  0
 22 30  1  0
 20 31  1  0
 31 32  2  0
 31 33  1  0
 12 34  1  0
 34 35  2  0
 35 36  1  0
  2 37  1  0
 37 38  2  0
 38 39  1  0
 39 40  1  0
 39 41  2  0
 41 42  1  0
 42 43  2  0
 29 24  1  0
 30 18  2  0
 33  8  1  0
 36 10  2  0
 43 37  1  0
M  CHG  1  22   1
M  END
$$$$
