
     RDKit          3D

 43 47  0  0  0  0  0  0  0  0999 V2000
  -12.0736  -40.3585   -9.4732 C   0  0  0  0  0  0  0  0  0  0  0  0
  -12.8009  -39.1606   -8.8953 C   0  0  0  0  0  0  0  0  0  0  0  0
  -12.0140  -38.3277   -7.9510 C   0  0  0  0  0  0  0  0  0  0  0  0
  -14.0730  -39.4876   -8.3576 N   0  0  0  0  0  0  0  0  0  0  0  0
  -14.7414  -38.6293   -7.5203 C   0  0  0  0  0  0  0  0  0  0  0  0
  -16.1310  -38.8351   -7.0867 C   0  0  1  0  0  0  0  0  0  0  0  0
  -16.7916  -37.7424   -6.5626 O   0  0  0  0  0  0  0  0  0  0  0  0
  -16.9396  -39.5767   -8.1617 C   0  0  2  0  0  0  0  0  0  0  0  0
  -18.3226  -39.1612   -8.3307 C   0  0  0  0  0  0  0  0  0  0  0  0
  -19.3014  -39.0284   -7.2359 C   0  0  0  0  0  0  0  0  0  0  0  0
  -19.4899  -39.7027   -6.0468 C   0  0  0  0  0  0  0  0  0  0  0  0
  -20.5609  -39.3810   -5.2562 C   0  0  0  0  0  0  0  0  0  0  0  0
  -21.0372  -39.9541   -3.9655 C   0  0  0  0  0  0  0  0  0  0  0  0
  -22.3130  -40.7306   -4.3016 C   0  0  0  0  0  0  0  0  0  0  0  0
  -22.0867  -42.0407   -4.9802 C   0  0  0  0  0  0  0  0  0  0  0  0
  -22.7890  -41.9900   -6.3206 C   0  0  0  0  0  0  0  0  0  0  0  0
  -22.2253  -42.9120   -7.2898 N   0  0  0  0  0  0  0  0  0  0  0  0
  -21.0549  -42.8132   -8.1093 C   0  0  0  0  0  0  0  0  0  0  0  0
  -19.7407  -42.5215   -7.7963 C   0  0  0  0  0  0  0  0  0  0  0  0
  -18.8146  -42.4071   -8.8141 C   0  0  0  0  0  0  0  0  0  0  0  0
  -19.2799  -42.6104  -10.1413 C   0  0  0  0  0  0  0  0  0  0  0  0
  -20.5308  -42.8976  -10.4785 N   0  0  0  0  0  4  0  0  0  0  0  0
  -20.9400  -43.0942  -11.8641 C   0  0  0  0  0  0  0  0  0  0  0  0
  -21.2052  -41.8507  -12.5691 C   0  0  0  0  0  0  0  0  0  0  0  0
  -22.4180  -41.6419  -13.1852 C   0  0  0  0  0  0  0  0  0  0  0  0
  -22.6744  -40.4392  -13.8631 C   0  0  0  0  0  0  0  0  0  0  0  0
  -21.7071  -39.4621  -13.9120 C   0  0  0  0  0  0  0  0  0  0  0  0
  -20.4863  -39.6645  -13.2957 C   0  0  0  0  0  0  0  0  0  0  0  0
  -20.2481  -40.8618  -12.6286 C   0  0  0  0  0  0  0  0  0  0  0  0
  -21.3992  -42.9953   -9.4721 C   0  0  0  0  0  0  0  0  0  0  0  0
  -17.3864  -42.0457   -8.7879 C   0  0  0  0  0  0  0  0  0  0  0  0
  -16.5877  -42.8156   -9.4971 O   0  0  0  0  0  0  0  0  0  0  0  0
  -16.6748  -41.0072   -8.1395 N   0  0  0  0  0  0  0  0  0  0  0  0
  -21.4624  -38.3559   -5.6696 C   0  0  0  0  0  0  0  0  0  0  0  0
  -21.3211  -37.6607   -6.8302 C   0  0  0  0  0  0  0  0  0  0  0  0
  -20.2405  -38.0138   -7.5895 C   0  0  0  0  0  0  0  0  0  0  0  0
  -13.0922  -38.3063  -10.1126 C   0  0  0  0  0  0  0  0  0  0  0  0
  -13.9293  -38.7126  -11.1073 C   0  0  0  0  0  0  0  0  0  0  0  0
  -14.1753  -37.9183  -12.2090 C   0  0  0  0  0  0  0  0  0  0  0  0
  -15.3376  -38.4499  -13.6207 Br  0  0  0  0  0  0  0  0  0  0  0  0
  -13.5685  -36.6713  -12.3302 C   0  0  0  0  0  0  0  0  0  0  0  0
  -12.7189  -36.2593  -11.3204 C   0  0  0  0  0  0  0  0  0  0  0  0
  -12.4969  -37.0735  -10.2406 C   0  0  0  0  0  0  0  0  0  0  0  0
  1  2  1  0
  2  3  1  0
  2  4  1  0
  4  5  1  0
  5  6  1  0
  6  7  1  6
  6  8  1  0
  8  9  1  1
  9 10  1  0
 10 11  1  0
 11 12  2  0
 12 13  1  0
 13 14  1  0
 14 15  1  0
 15 16  1  0
 16 17  1  0
 17 18  1  0
 18 19  1  0
 19 20  2  0
 20 21  1  0
 21 22  2  0
 22 23  1  0
 23 24  1  0
 24 25  2  0
 25 26  1  0
 26 27  2  0
 27 28  1  0
 28 29  2  0
 22 30  1  0
 20 31  1  0
 31 32  2  0
 31 33  1  0
 12 34  1  0
 34 35  2  0
 35 36  1  0
  2 37  1  0
 37 38  2  0
 38 39  1  0
 39 40  1  0
 39 41  2  0
 41 42  1  0
 42 43  2  0
 29 24  1  0
 30 18  2  0
 33  8  1  0
 36 10  2  0
 43 37  1  0
M  CHG  1  22   1
M  END
$$$$
