
     RDKit          3D

 43 47  0  0  0  0  0  0  0  0999 V2000
  -15.2228  -39.4629  -11.0634 C   0  0  0  0  0  0  0  0  0  0  0  0
  -14.4888  -38.7706   -9.9322 C   0  0  0  0  0  0  0  0  0  0  0  0
  -13.6450  -39.6493   -9.0833 C   0  0  0  0  0  0  0  0  0  0  0  0
  -15.3326  -37.9469   -9.1424 N   0  0  0  0  0  0  0  0  0  0  0  0
  -15.8535  -38.3852   -7.9503 C   0  0  0  0  0  0  0  0  0  0  0  0
  -17.2939  -38.5426   -7.7019 C   0  0  1  0  0  0  0  0  0  0  0  0
  -18.0835  -37.4225   -7.8661 O   0  0  0  0  0  0  0  0  0  0  0  0
  -17.8441  -39.7850   -8.4184 C   0  0  2  0  0  0  0  0  0  0  0  0
  -19.2743  -39.7995   -8.6793 C   0  0  0  0  0  0  0  0  0  0  0  0
  -20.3166  -39.5294   -7.6718 C   0  0  0  0  0  0  0  0  0  0  0  0
  -20.4074  -39.7675   -6.3156 C   0  0  0  0  0  0  0  0  0  0  0  0
  -21.5665  -39.4553   -5.6564 C   0  0  0  0  0  0  0  0  0  0  0  0
  -21.9662  -39.6352   -4.2318 C   0  0  0  0  0  0  0  0  0  0  0  0
  -23.0028  -40.7617   -4.2304 C   0  0  0  0  0  0  0  0  0  0  0  0
  -22.4372  -42.1315   -4.4081 C   0  0  0  0  0  0  0  0  0  0  0  0
  -23.0557  -42.7244   -5.6565 C   0  0  0  0  0  0  0  0  0  0  0  0
  -22.2377  -43.7642   -6.2539 N   0  0  0  0  0  0  0  0  0  0  0  0
  -21.0794  -43.6821   -7.0922 C   0  0  0  0  0  0  0  0  0  0  0  0
  -19.8902  -42.9933   -6.9449 C   0  0  0  0  0  0  0  0  0  0  0  0
  -18.9615  -43.0252   -7.9662 C   0  0  0  0  0  0  0  0  0  0  0  0
  -19.2910  -43.7866   -9.1200 C   0  0  0  0  0  0  0  0  0  0  0  0
  -20.4185  -44.4647   -9.2935 N   0  0  0  0  0  4  0  0  0  0  0  0
  -20.6918  -45.2271  -10.5060 C   0  0  0  0  0  0  0  0  0  0  0  0
  -21.1958  -46.5654  -10.2443 C   0  0  0  0  0  0  0  0  0  0  0  0
  -20.5016  -47.4254   -9.4241 C   0  0  0  0  0  0  0  0  0  0  0  0
  -20.9907  -48.7167   -9.1693 C   0  0  0  0  0  0  0  0  0  0  0  0
  -22.1723  -49.1259   -9.7431 C   0  0  0  0  0  0  0  0  0  0  0  0
  -22.8752  -48.2680  -10.5684 C   0  0  0  0  0  0  0  0  0  0  0  0
  -22.3766  -46.9921  -10.8108 C   0  0  0  0  0  0  0  0  0  0  0  0
  -21.2944  -44.4078   -8.2906 C   0  0  0  0  0  0  0  0  0  0  0  0
  -17.6621  -42.3468   -8.1153 C   0  0  0  0  0  0  0  0  0  0  0  0
  -16.6664  -43.1013   -8.5311 O   0  0  0  0  0  0  0  0  0  0  0  0
  -17.2520  -41.0087   -7.8997 N   0  0  0  0  0  0  0  0  0  0  0  0
  -22.6592  -38.8885   -6.3770 C   0  0  0  0  0  0  0  0  0  0  0  0
  -22.6207  -38.6329   -7.7124 C   0  0  0  0  0  0  0  0  0  0  0  0
  -21.4465  -38.9601   -8.3315 C   0  0  0  0  0  0  0  0  0  0  0  0
  -13.5595  -37.8134  -10.6509 C   0  0  0  0  0  0  0  0  0  0  0  0
  -14.0138  -36.7163  -11.3182 C   0  0  0  0  0  0  0  0  0  0  0  0
  -13.1477  -35.8615  -11.9696 C   0  0  0  0  0  0  0  0  0  0  0  0
  -13.7428  -34.3185  -12.9140 Br  0  0  0  0  0  0  0  0  0  0  0  0
  -11.7767  -36.1022  -11.9592 C   0  0  0  0  0  0  0  0  0  0  0  0
  -11.3160  -37.2158  -11.2818 C   0  0  0  0  0  0  0  0  0  0  0  0
  -12.2040  -38.0437  -10.6460 C   0  0  0  0  0  0  0  0  0  0  0  0
  1  2  1  0
  2  3  1  0
  2  4  1  0
  4  5  1  0
  5  6  1  0
  6  7  1  6
  6  8  1  0
  8  9  1  1
  9 10  1  0
 10 11  1  0
 11 12  2  0
 12 13  1  0
 13 14  1  0
 14 15  1  0
 15 16  1  0
 16 17  1  0
 17 18  1  0
 18 19  1  0
 19 20  2  0
 20 21  1  0
 21 22  2  0
 22 23  1  0
 23 24  1  0
 24 25  2  0
 25 26  1  0
 26 27  2  0
 27 28  1  0
 28 29  2  0
 22 30  1  0
 20 31  1  0
 31 32  2  0
 31 33  1  0
 12 34  1  0
 34 35  2  0
 35 36  1  0
  2 37  1  0
 37 38  2  0
 38 39  1  0
 39 40  1  0
 39 41  2  0
 41 42  1  0
 42 43  2  0
 29 24  1  0
 30 18  2  0
 33  8  1  0
 36 10  2  0
 43 37  1  0
M  CHG  1  22   1
M  END
$$$$
