
     RDKit          3D

 43 47  0  0  0  0  0  0  0  0999 V2000
  -12.9908  -40.5335   -8.9212 C   0  0  0  0  0  0  0  0  0  0  0  0
  -14.3179  -39.8809   -9.2538 C   0  0  0  0  0  0  0  0  0  0  0  0
  -14.2343  -38.6188  -10.0315 C   0  0  0  0  0  0  0  0  0  0  0  0
  -15.1655  -39.7355   -8.1247 N   0  0  0  0  0  0  0  0  0  0  0  0
  -16.1705  -38.8008   -8.0962 C   0  0  0  0  0  0  0  0  0  0  0  0
  -17.5118  -39.0662   -7.5559 C   0  0  1  0  0  0  0  0  0  0  0  0
  -18.3911  -38.0033   -7.5133 O   0  0  0  0  0  0  0  0  0  0  0  0
  -18.1172  -40.3319   -8.1813 C   0  0  2  0  0  0  0  0  0  0  0  0
  -19.5429  -40.2940   -8.4635 C   0  0  0  0  0  0  0  0  0  0  0  0
  -20.5819  -39.8919   -7.4975 C   0  0  0  0  0  0  0  0  0  0  0  0
  -20.7017  -40.0167   -6.1285 C   0  0  0  0  0  0  0  0  0  0  0  0
  -21.8509  -39.5944   -5.5148 C   0  0  0  0  0  0  0  0  0  0  0  0
  -22.2767  -39.6399   -4.0873 C   0  0  0  0  0  0  0  0  0  0  0  0
  -23.3707  -40.7083   -4.0142 C   0  0  0  0  0  0  0  0  0  0  0  0
  -22.8752  -42.1151   -4.0743 C   0  0  0  0  0  0  0  0  0  0  0  0
  -23.5085  -42.7728   -5.2821 C   0  0  0  0  0  0  0  0  0  0  0  0
  -22.7386  -43.8972   -5.7825 N   0  0  0  0  0  0  0  0  0  0  0  0
  -21.5675  -43.9411   -6.6057 C   0  0  0  0  0  0  0  0  0  0  0  0
  -20.3458  -43.3045   -6.4936 C   0  0  0  0  0  0  0  0  0  0  0  0
  -19.4077  -43.4647   -7.4940 C   0  0  0  0  0  0  0  0  0  0  0  0
  -19.7623  -44.2974   -8.5895 C   0  0  0  0  0  0  0  0  0  0  0  0
  -20.9214  -44.9287   -8.7275 N   0  0  0  0  0  4  0  0  0  0  0  0
  -21.2193  -45.7700   -9.8806 C   0  0  0  0  0  0  0  0  0  0  0  0
  -20.0869  -46.5695  -10.3190 C   0  0  0  0  0  0  0  0  0  0  0  0
  -19.5445  -46.3854  -11.5704 C   0  0  0  0  0  0  0  0  0  0  0  0
  -18.4487  -47.1558  -11.9917 C   0  0  0  0  0  0  0  0  0  0  0  0
  -17.9130  -48.1014  -11.1482 C   0  0  0  0  0  0  0  0  0  0  0  0
  -18.4525  -48.2925   -9.8898 C   0  0  0  0  0  0  0  0  0  0  0  0
  -19.5382  -47.5211   -9.4880 C   0  0  0  0  0  0  0  0  0  0  0  0
  -21.8054  -44.7477   -7.7466 C   0  0  0  0  0  0  0  0  0  0  0  0
  -18.0729  -42.8674   -7.6748 C   0  0  0  0  0  0  0  0  0  0  0  0
  -17.1129  -43.7024   -8.0136 O   0  0  0  0  0  0  0  0  0  0  0  0
  -17.5962  -41.5391   -7.5583 N   0  0  0  0  0  0  0  0  0  0  0  0
  -22.9036  -39.0315   -6.2955 C   0  0  0  0  0  0  0  0  0  0  0  0
  -22.8354  -38.8850   -7.6461 C   0  0  0  0  0  0  0  0  0  0  0  0
  -21.6725  -39.3199   -8.2184 C   0  0  0  0  0  0  0  0  0  0  0  0
  -15.0024  -40.9067  -10.1344 C   0  0  0  0  0  0  0  0  0  0  0  0
  -15.2965  -42.1636   -9.6994 C   0  0  0  0  0  0  0  0  0  0  0  0
  -15.9163  -43.0823  -10.5222 C   0  0  0  0  0  0  0  0  0  0  0  0
  -16.3433  -44.8486   -9.9527 Br  0  0  0  0  0  0  0  0  0  0  0  0
  -16.2594  -42.7426  -11.8278 C   0  0  0  0  0  0  0  0  0  0  0  0
  -15.9608  -41.4669  -12.2689 C   0  0  0  0  0  0  0  0  0  0  0  0
  -15.3446  -40.5799  -11.4254 C   0  0  0  0  0  0  0  0  0  0  0  0
  1  2  1  0
  2  3  1  0
  2  4  1  0
  4  5  1  0
  5  6  1  0
  6  7  1  6
  6  8  1  0
  8  9  1  1
  9 10  1  0
 10 11  1  0
 11 12  2  0
 12 13  1  0
 13 14  1  0
 14 15  1  0
 15 16  1  0
 16 17  1  0
 17 18  1  0
 18 19  1  0
 19 20  2  0
 20 21  1  0
 21 22  2  0
 22 23  1  0
 23 24  1  0
 24 25  2  0
 25 26  1  0
 26 27  2  0
 27 28  1  0
 28 29  2  0
 22 30  1  0
 20 31  1  0
 31 32  2  0
 31 33  1  0
 12 34  1  0
 34 35  2  0
 35 36  1  0
  2 37  1  0
 37 38  2  0
 38 39  1  0
 39 40  1  0
 39 41  2  0
 41 42  1  0
 42 43  2  0
 29 24  1  0
 30 18  2  0
 33  8  1  0
 36 10  2  0
 43 37  1  0
M  CHG  1  22   1
M  END
$$$$
