
     RDKit          3D

 43 47  0  0  0  0  0  0  0  0999 V2000
  -13.8712  -39.4278  -10.1886 C   0  0  0  0  0  0  0  0  0  0  0  0
  -14.8485  -38.2762  -10.3173 C   0  0  0  0  0  0  0  0  0  0  0  0
  -14.3342  -37.0753  -11.0229 C   0  0  0  0  0  0  0  0  0  0  0  0
  -15.4633  -37.9273   -9.0867 N   0  0  0  0  0  0  0  0  0  0  0  0
  -15.2586  -38.6642   -7.9466 C   0  0  0  0  0  0  0  0  0  0  0  0
  -16.3486  -39.1758   -7.1032 C   0  0  1  0  0  0  0  0  0  0  0  0
  -16.5072  -38.5917   -5.8628 O   0  0  0  0  0  0  0  0  0  0  0  0
  -17.6586  -39.2794   -7.8987 C   0  0  2  0  0  0  0  0  0  0  0  0
  -18.8858  -39.0451   -7.1551 C   0  0  0  0  0  0  0  0  0  0  0  0
  -19.2373  -39.7015   -5.8823 C   0  0  0  0  0  0  0  0  0  0  0  0
  -18.9788  -40.9515   -5.3583 C   0  0  0  0  0  0  0  0  0  0  0  0
  -19.5174  -41.2950   -4.1468 C   0  0  0  0  0  0  0  0  0  0  0  0
  -19.4509  -42.5624   -3.3653 C   0  0  0  0  0  0  0  0  0  0  0  0
  -20.8476  -43.1822   -3.4597 C   0  0  0  0  0  0  0  0  0  0  0  0
  -21.1594  -43.8234   -4.7710 C   0  0  0  0  0  0  0  0  0  0  0  0
  -22.3687  -43.1195   -5.3494 C   0  0  0  0  0  0  0  0  0  0  0  0
  -22.4517  -43.2328   -6.7943 N   0  0  0  0  0  0  0  0  0  0  0  0
  -21.7718  -42.5183   -7.8327 C   0  0  0  0  0  0  0  0  0  0  0  0
  -20.4286  -42.2722   -8.0459 C   0  0  0  0  0  0  0  0  0  0  0  0
  -20.0499  -41.4672   -9.1019 C   0  0  0  0  0  0  0  0  0  0  0  0
  -21.0849  -40.9423   -9.9221 C   0  0  0  0  0  0  0  0  0  0  0  0
  -22.3825  -41.1620   -9.7516 N   0  0  0  0  0  4  0  0  0  0  0  0
  -23.3931  -40.5904  -10.6337 C   0  0  0  0  0  0  0  0  0  0  0  0
  -22.8633  -39.5898  -11.5457 C   0  0  0  0  0  0  0  0  0  0  0  0
  -23.0186  -38.2487  -11.2782 C   0  0  0  0  0  0  0  0  0  0  0  0
  -22.5037  -37.2830  -12.1579 C   0  0  0  0  0  0  0  0  0  0  0  0
  -21.8389  -37.6793  -13.2953 C   0  0  0  0  0  0  0  0  0  0  0  0
  -21.6790  -39.0245  -13.5711 C   0  0  0  0  0  0  0  0  0  0  0  0
  -22.1956  -39.9685  -12.6894 C   0  0  0  0  0  0  0  0  0  0  0  0
  -22.7128  -41.9387   -8.7201 C   0  0  0  0  0  0  0  0  0  0  0  0
  -18.7235  -40.9849   -9.5251 C   0  0  0  0  0  0  0  0  0  0  0  0
  -18.4594  -41.0896  -10.8107 O   0  0  0  0  0  0  0  0  0  0  0  0
  -17.6425  -40.4118   -8.8121 N   0  0  0  0  0  0  0  0  0  0  0  0
  -20.3332  -40.3590   -3.4448 C   0  0  0  0  0  0  0  0  0  0  0  0
  -20.6172  -39.1151   -3.9161 C   0  0  0  0  0  0  0  0  0  0  0  0
  -20.0611  -38.8135   -5.1280 C   0  0  0  0  0  0  0  0  0  0  0  0
  -15.9618  -38.8543  -11.1674 C   0  0  0  0  0  0  0  0  0  0  0  0
  -16.5317  -38.1634  -12.1937 C   0  0  0  0  0  0  0  0  0  0  0  0
  -17.5482  -38.7097  -12.9510 C   0  0  0  0  0  0  0  0  0  0  0  0
  -18.3713  -37.7768  -14.3928 Br  0  0  0  0  0  0  0  0  0  0  0  0
  -18.0187  -39.9918  -12.6818 C   0  0  0  0  0  0  0  0  0  0  0  0
  -17.4401  -40.6928  -11.6401 C   0  0  0  0  0  0  0  0  0  0  0  0
  -16.4329  -40.1198  -10.9083 C   0  0  0  0  0  0  0  0  0  0  0  0
  1  2  1  0
  2  3  1  0
  2  4  1  0
  4  5  1  0
  5  6  1  0
  6  7  1  1
  6  8  1  0
  8  9  1  1
  9 10  1  0
 10 11  1  0
 11 12  2  0
 12 13  1  0
 13 14  1  0
 14 15  1  0
 15 16  1  0
 16 17  1  0
 17 18  1  0
 18 19  1  0
 19 20  2  0
 20 21  1  0
 21 22  2  0
 22 23  1  0
 23 24  1  0
 24 25  2  0
 25 26  1  0
 26 27  2  0
 27 28  1  0
 28 29  2  0
 22 30  1  0
 20 31  1  0
 31 32  2  0
 31 33  1  0
 12 34  1  0
 34 35  2  0
 35 36  1  0
  2 37  1  0
 37 38  2  0
 38 39  1  0
 39 40  1  0
 39 41  2  0
 41 42  1  0
 42 43  2  0
 29 24  1  0
 30 18  2  0
 33  8  1  0
 36 10  2  0
 43 37  1  0
M  CHG  1  22   1
M  END
$$$$
