
     RDKit          3D

 43 47  0  0  0  0  0  0  0  0999 V2000
  -13.8464  -41.1020   -9.3134 C   0  0  0  0  0  0  0  0  0  0  0  0
  -14.4119  -39.6969   -9.2531 C   0  0  0  0  0  0  0  0  0  0  0  0
  -13.4877  -38.6154   -9.6785 C   0  0  0  0  0  0  0  0  0  0  0  0
  -15.0205  -39.3945   -8.0071 N   0  0  0  0  0  0  0  0  0  0  0  0
  -16.0669  -38.5107   -7.9140 C   0  0  0  0  0  0  0  0  0  0  0  0
  -17.3766  -38.8594   -7.3446 C   0  0  1  0  0  0  0  0  0  0  0  0
  -18.2350  -37.8158   -7.0637 O   0  0  0  0  0  0  0  0  0  0  0  0
  -18.0389  -39.9944   -8.1402 C   0  0  2  0  0  0  0  0  0  0  0  0
  -19.4728  -39.8826   -8.3527 C   0  0  0  0  0  0  0  0  0  0  0  0
  -20.4632  -39.6219   -7.2919 C   0  0  0  0  0  0  0  0  0  0  0  0
  -20.5341  -39.9648   -5.9572 C   0  0  0  0  0  0  0  0  0  0  0  0
  -21.6475  -39.6247   -5.2359 C   0  0  0  0  0  0  0  0  0  0  0  0
  -22.0198  -39.8928   -3.8178 C   0  0  0  0  0  0  0  0  0  0  0  0
  -23.1382  -40.9368   -3.8724 C   0  0  0  0  0  0  0  0  0  0  0  0
  -22.6829  -42.3247   -4.1794 C   0  0  0  0  0  0  0  0  0  0  0  0
  -23.3789  -42.7649   -5.4500 C   0  0  0  0  0  0  0  0  0  0  0  0
  -22.6588  -43.8083   -6.1571 N   0  0  0  0  0  0  0  0  0  0  0  0
  -21.5214  -43.7415   -7.0248 C   0  0  0  0  0  0  0  0  0  0  0  0
  -20.2799  -43.1562   -6.8626 C   0  0  0  0  0  0  0  0  0  0  0  0
  -19.3851  -43.1707   -7.9141 C   0  0  0  0  0  0  0  0  0  0  0  0
  -19.8031  -43.8073   -9.1139 C   0  0  0  0  0  0  0  0  0  0  0  0
  -20.9830  -44.3844   -9.3033 N   0  0  0  0  0  4  0  0  0  0  0  0
  -21.3468  -45.0212  -10.5636 C   0  0  0  0  0  0  0  0  0  0  0  0
  -20.7100  -46.3131  -10.7617 C   0  0  0  0  0  0  0  0  0  0  0  0
  -19.3867  -46.3903  -11.1317 C   0  0  0  0  0  0  0  0  0  0  0  0
  -18.7716  -47.6385  -11.3197 C   0  0  0  0  0  0  0  0  0  0  0  0
  -19.4963  -48.7929  -11.1328 C   0  0  0  0  0  0  0  0  0  0  0  0
  -20.8261  -48.7236  -10.7614 C   0  0  0  0  0  0  0  0  0  0  0  0
  -21.4204  -47.4790  -10.5796 C   0  0  0  0  0  0  0  0  0  0  0  0
  -21.8239  -44.3473   -8.2700 C   0  0  0  0  0  0  0  0  0  0  0  0
  -18.0427  -42.5789   -8.0518 C   0  0  0  0  0  0  0  0  0  0  0  0
  -17.1189  -43.3669   -8.5608 O   0  0  0  0  0  0  0  0  0  0  0  0
  -17.5268  -41.2970   -7.7426 N   0  0  0  0  0  0  0  0  0  0  0  0
  -22.7138  -38.9215   -5.8707 C   0  0  0  0  0  0  0  0  0  0  0  0
  -22.6932  -38.5592   -7.1816 C   0  0  0  0  0  0  0  0  0  0  0  0
  -21.5648  -38.9186   -7.8647 C   0  0  0  0  0  0  0  0  0  0  0  0
  -15.5505  -39.7338  -10.2524 C   0  0  0  0  0  0  0  0  0  0  0  0
  -16.1561  -38.6036  -10.7124 C   0  0  0  0  0  0  0  0  0  0  0  0
  -17.1949  -38.6631  -11.6193 C   0  0  0  0  0  0  0  0  0  0  0  0
  -18.0680  -37.1075  -12.2857 Br  0  0  0  0  0  0  0  0  0  0  0  0
  -17.6520  -39.8908  -12.0901 C   0  0  0  0  0  0  0  0  0  0  0  0
  -17.0372  -41.0376  -11.6229 C   0  0  0  0  0  0  0  0  0  0  0  0
  -16.0086  -40.9420  -10.7224 C   0  0  0  0  0  0  0  0  0  0  0  0
  1  2  1  0
  2  3  1  0
  2  4  1  0
  4  5  1  0
  5  6  1  0
  6  7  1  6
  6  8  1  0
  8  9  1  1
  9 10  1  0
 10 11  1  0
 11 12  2  0
 12 13  1  0
 13 14  1  0
 14 15  1  0
 15 16  1  0
 16 17  1  0
 17 18  1  0
 18 19  1  0
 19 20  2  0
 20 21  1  0
 21 22  2  0
 22 23  1  0
 23 24  1  0
 24 25  2  0
 25 26  1  0
 26 27  2  0
 27 28  1  0
 28 29  2  0
 22 30  1  0
 20 31  1  0
 31 32  2  0
 31 33  1  0
 12 34  1  0
 34 35  2  0
 35 36  1  0
  2 37  1  0
 37 38  2  0
 38 39  1  0
 39 40  1  0
 39 41  2  0
 41 42  1  0
 42 43  2  0
 29 24  1  0
 30 18  2  0
 33  8  1  0
 36 10  2  0
 43 37  1  0
M  CHG  1  22   1
M  END
$$$$
