
     RDKit          3D

 43 46  0  0  0  0  0  0  0  0999 V2000
  -13.0415  -39.5901   -7.9352 C   0  0  0  0  0  0  0  0  0  0  0  0
  -13.5369  -40.5700   -8.9805 C   0  0  2  0  0  0  0  0  0  0  0  0
  -12.5034  -40.5938  -10.0857 C   0  0  0  0  0  0  0  0  0  0  0  0
  -11.2343  -41.2655   -9.5511 C   0  0  0  0  0  0  0  0  0  0  0  0
  -10.5568  -42.1033  -10.6124 C   0  0  0  0  0  0  0  0  0  0  0  0
  -10.6602  -43.5694  -10.3556 C   0  0  0  0  0  0  0  0  0  0  0  0
  -11.9215  -43.9717   -9.6287 C   0  0  0  0  0  0  0  0  0  0  0  0
  -12.3722  -45.3787   -9.9870 C   0  0  0  0  0  0  0  0  0  0  0  0
  -13.2961  -45.3936  -11.1592 C   0  0  0  0  0  0  0  0  0  0  0  0
  -14.6833  -45.6187  -10.7959 N   0  0  0  0  0  0  0  0  0  0  0  0
  -15.6860  -44.7464  -10.2763 C   0  0  0  0  0  0  0  0  0  0  0  0
  -16.9013  -44.9574  -10.9968 C   0  0  0  0  0  0  0  0  0  0  0  0
  -18.0541  -44.2801  -10.7574 C   0  0  0  0  0  0  0  0  0  0  0  0
  -18.0006  -43.3474   -9.7538 C   0  0  0  0  0  0  0  0  0  0  0  0
  -16.8262  -43.0880   -8.9986 C   0  0  0  0  0  0  0  0  0  0  0  0
  -15.6590  -43.8027   -9.2699 C   0  0  0  0  0  0  0  0  0  0  0  0
  -17.1166  -42.0319   -8.0188 C   0  0  0  0  0  0  0  0  0  0  0  0
  -18.2601  -42.2104   -7.3760 O   0  0  0  0  0  0  0  0  0  0  0  0
  -16.4404  -40.8617   -7.6119 N   0  0  0  0  0  0  0  0  0  0  0  0
  -15.8406  -39.8180   -8.3624 C   0  0  1  0  0  0  0  0  0  0  0  0
  -14.9199  -40.2263   -9.4669 C   0  0  0  0  0  0  0  0  0  0  0  0
  -16.7767  -38.7585   -8.9074 C   0  0  2  0  0  0  0  0  0  0  0  0
  -16.2179  -37.5020   -8.8588 O   0  0  0  0  0  0  0  0  0  0  0  0
  -18.0558  -38.7007   -8.0390 C   0  0  0  0  0  0  0  0  0  0  0  0
  -19.1954  -38.4415   -8.8337 N   0  0  0  0  0  0  0  0  0  0  0  0
  -20.4398  -39.0690   -8.4229 C   0  0  0  0  0  0  0  0  0  0  0  0
  -21.5793  -38.0226   -8.4684 C   0  0  0  0  0  0  0  0  0  0  0  0
  -21.5624  -39.1218   -9.4688 C   0  0  0  0  0  0  0  0  0  0  0  0
  -20.4780  -39.9821   -7.2686 C   0  0  0  0  0  0  0  0  0  0  0  0
  -21.3350  -39.7890   -6.2140 C   0  0  0  0  0  0  0  0  0  0  0  0
  -21.3959  -40.6764   -5.1275 C   0  0  0  0  0  0  0  0  0  0  0  0
  -20.5695  -41.7836   -5.1089 C   0  0  0  0  0  0  0  0  0  0  0  0
  -19.7089  -41.9875   -6.1564 C   0  0  0  0  0  0  0  0  0  0  0  0
  -19.6710  -41.0847   -7.2276 C   0  0  0  0  0  0  0  0  0  0  0  0
  -22.3236  -40.4761   -3.9987 C   0  0  0  0  0  0  0  0  0  0  0  0
  -23.2793  -39.3278   -4.2466 C   0  0  0  0  0  0  0  0  0  0  0  0
  -23.0856  -41.7336   -3.7403 C   0  0  0  0  0  0  0  0  0  0  0  0
  -21.5085  -40.1028   -2.7615 C   0  0  0  0  0  0  0  0  0  0  0  0
  -19.2624  -44.5426  -11.5234 C   0  0  0  0  0  0  0  0  0  0  0  0
  -19.2762  -44.4211  -12.7530 O   0  0  0  0  0  0  0  0  0  0  0  0
  -20.4247  -44.9402  -10.8356 N   0  0  0  0  0  0  0  0  0  0  0  0
  -20.4597  -44.8362   -9.3947 C   0  0  0  0  0  0  0  0  0  0  0  0
  -21.6172  -45.4584  -11.4861 C   0  0  0  0  0  0  0  0  0  0  0  0
  2  1  1  1
  2  3  1  0
  3  4  1  0
  4  5  1  0
  5  6  1  0
  6  7  1  0
  7  8  1  0
  8  9  1  0
  9 10  1  0
 10 11  1  0
 11 12  1  0
 12 13  2  0
 13 14  1  0
 14 15  2  0
 15 16  1  0
 15 17  1  0
 17 18  2  0
 17 19  1  0
 19 20  1  0
 20 21  1  6
 20 22  1  0
 22 23  1  1
 22 24  1  0
 24 25  1  0
 25 26  1  0
 26 27  1  0
 27 28  1  0
 26 29  1  0
 29 30  2  0
 30 31  1  0
 31 32  2  0
 32 33  1  0
 33 34  2  0
 31 35  1  0
 35 36  1  0
 35 37  1  0
 35 38  1  0
 13 39  1  0
 39 40  2  0
 39 41  1  0
 41 42  1  0
 41 43  1  0
 16 11  2  0
 21  2  1  0
 28 26  1  0
 34 29  1  0
M  END
$$$$
