
     RDKit          3D

 43 46  0  0  0  0  0  0  0  0999 V2000
  -19.7003  -38.3746   -5.8688 C   0  0  0  0  0  0  0  0  0  0  0  0
  -19.9297  -39.8649   -5.7115 C   0  0  2  0  0  0  0  0  0  0  0  0
  -20.5030  -40.0778   -4.3273 C   0  0  0  0  0  0  0  0  0  0  0  0
  -21.9220  -39.5008   -4.2940 C   0  0  0  0  0  0  0  0  0  0  0  0
  -22.8452  -40.3383   -3.4377 C   0  0  0  0  0  0  0  0  0  0  0  0
  -23.8651  -41.0835   -4.2319 C   0  0  0  0  0  0  0  0  0  0  0  0
  -23.3933  -41.4757   -5.6119 C   0  0  0  0  0  0  0  0  0  0  0  0
  -24.0523  -42.7528   -6.1076 C   0  0  0  0  0  0  0  0  0  0  0  0
  -23.2779  -43.9711   -5.7279 C   0  0  0  0  0  0  0  0  0  0  0  0
  -22.5442  -44.5552   -6.8358 N   0  0  0  0  0  0  0  0  0  0  0  0
  -21.3025  -44.2060   -7.4463 C   0  0  0  0  0  0  0  0  0  0  0  0
  -20.5313  -45.3930   -7.6380 C   0  0  0  0  0  0  0  0  0  0  0  0
  -19.2907  -45.4122   -8.1905 C   0  0  0  0  0  0  0  0  0  0  0  0
  -18.7889  -44.1949   -8.5728 C   0  0  0  0  0  0  0  0  0  0  0  0
  -19.5020  -42.9774   -8.4114 C   0  0  0  0  0  0  0  0  0  0  0  0
  -20.7752  -42.9934   -7.8410 C   0  0  0  0  0  0  0  0  0  0  0  0
  -18.6743  -41.8729   -8.9159 C   0  0  0  0  0  0  0  0  0  0  0  0
  -18.1101  -42.1298  -10.0857 O   0  0  0  0  0  0  0  0  0  0  0  0
  -18.3458  -40.5918   -8.4229 N   0  0  0  0  0  0  0  0  0  0  0  0
  -17.9022  -40.1659   -7.1445 C   0  0  1  0  0  0  0  0  0  0  0  0
  -18.6759  -40.6595   -5.9646 C   0  0  0  0  0  0  0  0  0  0  0  0
  -16.4292  -40.3579   -6.8460 C   0  0  2  0  0  0  0  0  0  0  0  0
  -15.8162  -39.1776   -6.4929 O   0  0  0  0  0  0  0  0  0  0  0  0
  -15.7043  -40.8627   -8.1161 C   0  0  0  0  0  0  0  0  0  0  0  0
  -15.0520  -39.8004   -8.7821 N   0  0  0  0  0  0  0  0  0  0  0  0
  -15.1865  -39.7496  -10.2279 C   0  0  0  0  0  0  0  0  0  0  0  0
  -14.4316  -40.9471  -10.8539 C   0  0  0  0  0  0  0  0  0  0  0  0
  -15.9173  -40.9245  -10.8931 C   0  0  0  0  0  0  0  0  0  0  0  0
  -15.0458  -38.4762  -10.9534 C   0  0  0  0  0  0  0  0  0  0  0  0
  -16.1310  -37.7111  -11.3008 C   0  0  0  0  0  0  0  0  0  0  0  0
  -15.9972  -36.4807  -11.9641 C   0  0  0  0  0  0  0  0  0  0  0  0
  -14.7357  -36.0156  -12.2828 C   0  0  0  0  0  0  0  0  0  0  0  0
  -13.6437  -36.7708  -11.9411 C   0  0  0  0  0  0  0  0  0  0  0  0
  -13.8085  -37.9948  -11.2788 C   0  0  0  0  0  0  0  0  0  0  0  0
  -17.1616  -35.6523  -12.3287 C   0  0  0  0  0  0  0  0  0  0  0  0
  -17.9886  -36.2879  -13.4266 C   0  0  0  0  0  0  0  0  0  0  0  0
  -18.0070  -35.4083  -11.1228 C   0  0  0  0  0  0  0  0  0  0  0  0
  -16.6553  -34.3212  -12.8823 C   0  0  0  0  0  0  0  0  0  0  0  0
  -18.5551  -46.6552   -8.3632 C   0  0  0  0  0  0  0  0  0  0  0  0
  -19.0001  -47.5659   -9.0699 O   0  0  0  0  0  0  0  0  0  0  0  0
  -17.3186  -46.8047   -7.7069 N   0  0  0  0  0  0  0  0  0  0  0  0
  -16.7952  -45.7022   -6.9329 C   0  0  0  0  0  0  0  0  0  0  0  0
  -16.5145  -48.0150   -7.7533 C   0  0  0  0  0  0  0  0  0  0  0  0
  2  1  1  1
  2  3  1  0
  3  4  1  0
  4  5  1  0
  5  6  1  0
  6  7  1  0
  7  8  1  0
  8  9  1  0
  9 10  1  0
 10 11  1  0
 11 12  1  0
 12 13  2  0
 13 14  1  0
 14 15  2  0
 15 16  1  0
 15 17  1  0
 17 18  2  0
 17 19  1  0
 19 20  1  0
 20 21  1  1
 20 22  1  0
 22 23  1  6
 22 24  1  0
 24 25  1  0
 25 26  1  0
 26 27  1  0
 27 28  1  0
 26 29  1  0
 29 30  2  0
 30 31  1  0
 31 32  2  0
 32 33  1  0
 33 34  2  0
 31 35  1  0
 35 36  1  0
 35 37  1  0
 35 38  1  0
 13 39  1  0
 39 40  2  0
 39 41  1  0
 41 42  1  0
 41 43  1  0
 16 11  2  0
 21  2  1  0
 28 26  1  0
 34 29  1  0
M  END
$$$$
