
     RDKit          3D

 43 46  0  0  0  0  0  0  0  0999 V2000
  -19.8597  -37.8018   -7.6494 C   0  0  0  0  0  0  0  0  0  0  0  0
  -19.9453  -39.1899   -7.0457 C   0  0  2  0  0  0  0  0  0  0  0  0
  -20.5343  -39.0314   -5.6608 C   0  0  0  0  0  0  0  0  0  0  0  0
  -22.0036  -38.6202   -5.8006 C   0  0  0  0  0  0  0  0  0  0  0  0
  -22.8639  -39.2494   -4.7276 C   0  0  0  0  0  0  0  0  0  0  0  0
  -23.7821  -40.3005   -5.2548 C   0  0  0  0  0  0  0  0  0  0  0  0
  -23.2346  -41.0416   -6.4514 C   0  0  0  0  0  0  0  0  0  0  0  0
  -23.7499  -42.4694   -6.5335 C   0  0  0  0  0  0  0  0  0  0  0  0
  -22.8703  -43.4293   -5.8035 C   0  0  0  0  0  0  0  0  0  0  0  0
  -22.0512  -44.2428   -6.6832 N   0  0  0  0  0  0  0  0  0  0  0  0
  -20.8330  -43.9694   -7.3744 C   0  0  0  0  0  0  0  0  0  0  0  0
  -19.9433  -45.0729   -7.1982 C   0  0  0  0  0  0  0  0  0  0  0  0
  -18.6915  -45.1310   -7.7221 C   0  0  0  0  0  0  0  0  0  0  0  0
  -18.3016  -44.0418   -8.4578 C   0  0  0  0  0  0  0  0  0  0  0  0
  -19.1356  -42.9125   -8.6724 C   0  0  0  0  0  0  0  0  0  0  0  0
  -20.4168  -42.8858   -8.1206 C   0  0  0  0  0  0  0  0  0  0  0  0
  -18.4067  -41.9338   -9.4911 C   0  0  0  0  0  0  0  0  0  0  0  0
  -17.7867  -42.4734  -10.5289 O   0  0  0  0  0  0  0  0  0  0  0  0
  -18.2205  -40.5369   -9.4119 N   0  0  0  0  0  0  0  0  0  0  0  0
  -17.8579  -39.7008   -8.3248 C   0  0  1  0  0  0  0  0  0  0  0  0
  -18.6125  -39.8906   -7.0486 C   0  0  0  0  0  0  0  0  0  0  0  0
  -16.3822  -39.6411   -7.9861 C   0  0  2  0  0  0  0  0  0  0  0  0
  -16.0862  -38.5857   -7.1543 O   0  0  0  0  0  0  0  0  0  0  0  0
  -15.5621  -39.4204   -9.2792 C   0  0  0  0  0  0  0  0  0  0  0  0
  -14.7195  -40.5251   -9.5384 N   0  0  0  0  0  0  0  0  0  0  0  0
  -13.8922  -40.4554  -10.7308 C   0  0  0  0  0  0  0  0  0  0  0  0
  -12.5650  -41.2101  -10.4771 C   0  0  0  0  0  0  0  0  0  0  0  0
  -13.5605  -41.7877  -11.4177 C   0  0  0  0  0  0  0  0  0  0  0  0
  -13.7593  -39.1967  -11.4830 C   0  0  0  0  0  0  0  0  0  0  0  0
  -14.2617  -38.0093  -11.0123 C   0  0  0  0  0  0  0  0  0  0  0  0
  -14.1078  -36.8020  -11.7126 C   0  0  0  0  0  0  0  0  0  0  0  0
  -13.4302  -36.7980  -12.9169 C   0  0  0  0  0  0  0  0  0  0  0  0
  -12.9238  -37.9777  -13.3977 C   0  0  0  0  0  0  0  0  0  0  0  0
  -13.0926  -39.1671  -12.6760 C   0  0  0  0  0  0  0  0  0  0  0  0
  -14.6377  -35.5234  -11.2032 C   0  0  0  0  0  0  0  0  0  0  0  0
  -15.3609  -35.6945   -9.8837 C   0  0  0  0  0  0  0  0  0  0  0  0
  -13.5268  -34.5370  -11.0574 C   0  0  0  0  0  0  0  0  0  0  0  0
  -15.6698  -34.9954  -12.1983 C   0  0  0  0  0  0  0  0  0  0  0  0
  -17.8323  -46.2855   -7.5106 C   0  0  0  0  0  0  0  0  0  0  0  0
  -18.1292  -47.3933   -7.9705 O   0  0  0  0  0  0  0  0  0  0  0  0
  -16.6481  -46.1187   -6.7676 N   0  0  0  0  0  0  0  0  0  0  0  0
  -16.2717  -44.7931   -6.3324 C   0  0  0  0  0  0  0  0  0  0  0  0
  -15.7590  -47.2084   -6.3993 C   0  0  0  0  0  0  0  0  0  0  0  0
  2  1  1  1
  2  3  1  0
  3  4  1  0
  4  5  1  0
  5  6  1  0
  6  7  1  0
  7  8  1  0
  8  9  1  0
  9 10  1  0
 10 11  1  0
 11 12  1  0
 12 13  2  0
 13 14  1  0
 14 15  2  0
 15 16  1  0
 15 17  1  0
 17 18  2  0
 17 19  1  0
 19 20  1  0
 20 21  1  1
 20 22  1  0
 22 23  1  1
 22 24  1  0
 24 25  1  0
 25 26  1  0
 26 27  1  0
 27 28  1  0
 26 29  1  0
 29 30  2  0
 30 31  1  0
 31 32  2  0
 32 33  1  0
 33 34  2  0
 31 35  1  0
 35 36  1  0
 35 37  1  0
 35 38  1  0
 13 39  1  0
 39 40  2  0
 39 41  1  0
 41 42  1  0
 41 43  1  0
 16 11  2  0
 21  2  1  0
 28 26  1  0
 34 29  1  0
M  END
$$$$
