
     RDKit          3D

 43 46  0  0  0  0  0  0  0  0999 V2000
  -12.6392  -40.0035   -9.2914 C   0  0  0  0  0  0  0  0  0  0  0  0
  -13.6073  -40.9207  -10.0125 C   0  0  2  0  0  0  0  0  0  0  0  0
  -13.2357  -40.8867  -11.4791 C   0  0  0  0  0  0  0  0  0  0  0  0
  -11.8878  -41.5931  -11.6563 C   0  0  0  0  0  0  0  0  0  0  0  0
  -11.8321  -42.3727  -12.9511 C   0  0  0  0  0  0  0  0  0  0  0  0
  -11.8446  -43.8504  -12.7459 C   0  0  0  0  0  0  0  0  0  0  0  0
  -12.6112  -44.2875  -11.5202 C   0  0  0  0  0  0  0  0  0  0  0  0
  -13.2223  -45.6700  -11.6823 C   0  0  0  0  0  0  0  0  0  0  0  0
  -14.5968  -45.6146  -12.2617 C   0  0  0  0  0  0  0  0  0  0  0  0
  -15.6434  -45.8537  -11.2848 N   0  0  0  0  0  0  0  0  0  0  0  0
  -16.2438  -45.0076  -10.3049 C   0  0  0  0  0  0  0  0  0  0  0  0
  -17.6618  -45.1722  -10.3579 C   0  0  0  0  0  0  0  0  0  0  0  0
  -18.5346  -44.5044   -9.5599 C   0  0  0  0  0  0  0  0  0  0  0  0
  -17.9751  -43.6301   -8.6641 C   0  0  0  0  0  0  0  0  0  0  0  0
  -16.5747  -43.4189   -8.5587 C   0  0  0  0  0  0  0  0  0  0  0  0
  -15.7057  -44.1223   -9.3933 C   0  0  0  0  0  0  0  0  0  0  0  0
  -16.3238  -42.4185   -7.5118 C   0  0  0  0  0  0  0  0  0  0  0  0
  -17.0209  -42.6279   -6.4059 O   0  0  0  0  0  0  0  0  0  0  0  0
  -15.4991  -41.2761   -7.4273 N   0  0  0  0  0  0  0  0  0  0  0  0
  -15.3032  -40.1945   -8.3239 C   0  0  1  0  0  0  0  0  0  0  0  0
  -15.0421  -40.5439   -9.7536 C   0  0  0  0  0  0  0  0  0  0  0  0
  -16.3525  -39.1018   -8.2982 C   0  0  2  0  0  0  0  0  0  0  0  0
  -16.2047  -38.2700   -7.2121 O   0  0  0  0  0  0  0  0  0  0  0  0
  -17.7582  -39.7358   -8.1736 C   0  0  0  0  0  0  0  0  0  0  0  0
  -18.5154  -39.0936   -7.1677 N   0  0  0  0  0  0  0  0  0  0  0  0
  -19.9108  -38.8221   -7.4678 C   0  0  0  0  0  0  0  0  0  0  0  0
  -20.6651  -40.1617   -7.6473 C   0  0  0  0  0  0  0  0  0  0  0  0
  -20.9445  -39.3256   -6.4505 C   0  0  0  0  0  0  0  0  0  0  0  0
  -20.2844  -37.7640   -8.4210 C   0  0  0  0  0  0  0  0  0  0  0  0
  -19.3614  -37.1572   -9.2356 C   0  0  0  0  0  0  0  0  0  0  0  0
  -19.7207  -36.1708  -10.1682 C   0  0  0  0  0  0  0  0  0  0  0  0
  -21.0446  -35.7906  -10.2772 C   0  0  0  0  0  0  0  0  0  0  0  0
  -21.9761  -36.3893   -9.4690 C   0  0  0  0  0  0  0  0  0  0  0  0
  -21.5877  -37.3714   -8.5479 C   0  0  0  0  0  0  0  0  0  0  0  0
  -18.7318  -35.5254  -11.0517 C   0  0  0  0  0  0  0  0  0  0  0  0
  -18.4188  -34.1097  -10.6142 C   0  0  0  0  0  0  0  0  0  0  0  0
  -17.4815  -36.3400  -11.0928 C   0  0  0  0  0  0  0  0  0  0  0  0
  -19.3283  -35.4240  -12.4547 C   0  0  0  0  0  0  0  0  0  0  0  0
  -19.9701  -44.7178   -9.6584 C   0  0  0  0  0  0  0  0  0  0  0  0
  -20.5871  -44.4332  -10.6905 O   0  0  0  0  0  0  0  0  0  0  0  0
  -20.6500  -45.2580   -8.5503 N   0  0  0  0  0  0  0  0  0  0  0  0
  -22.0545  -45.5751   -8.6730 C   0  0  0  0  0  0  0  0  0  0  0  0
  -20.0260  -45.5254   -7.2647 C   0  0  0  0  0  0  0  0  0  0  0  0
  2  1  1  1
  2  3  1  0
  3  4  1  0
  4  5  1  0
  5  6  1  0
  6  7  1  0
  7  8  1  0
  8  9  1  0
  9 10  1  0
 10 11  1  0
 11 12  1  0
 12 13  2  0
 13 14  1  0
 14 15  2  0
 15 16  1  0
 15 17  1  0
 17 18  2  0
 17 19  1  0
 19 20  1  0
 20 21  1  6
 20 22  1  0
 22 23  1  1
 22 24  1  0
 24 25  1  0
 25 26  1  0
 26 27  1  0
 27 28  1  0
 26 29  1  0
 29 30  2  0
 30 31  1  0
 31 32  2  0
 32 33  1  0
 33 34  2  0
 31 35  1  0
 35 36  1  0
 35 37  1  0
 35 38  1  0
 13 39  1  0
 39 40  2  0
 39 41  1  0
 41 42  1  0
 41 43  1  0
 16 11  2  0
 21  2  1  0
 28 26  1  0
 34 29  1  0
M  END
$$$$
