
     RDKit          3D

 43 46  0  0  0  0  0  0  0  0999 V2000
  -20.1824  -37.9683   -7.9164 C   0  0  0  0  0  0  0  0  0  0  0  0
  -20.2826  -39.2300   -7.0819 C   0  0  2  0  0  0  0  0  0  0  0  0
  -20.7762  -38.8138   -5.7132 C   0  0  0  0  0  0  0  0  0  0  0  0
  -22.2347  -38.3613   -5.8385 C   0  0  0  0  0  0  0  0  0  0  0  0
  -23.0487  -38.7597   -4.6278 C   0  0  0  0  0  0  0  0  0  0  0  0
  -24.0380  -39.8386   -4.9165 C   0  0  0  0  0  0  0  0  0  0  0  0
  -23.5960  -40.7950   -5.9986 C   0  0  0  0  0  0  0  0  0  0  0  0
  -24.1697  -42.1898   -5.8080 C   0  0  0  0  0  0  0  0  0  0  0  0
  -23.2830  -43.0554   -4.9758 C   0  0  0  0  0  0  0  0  0  0  0  0
  -22.5529  -44.0433   -5.7490 N   0  0  0  0  0  0  0  0  0  0  0  0
  -21.3713  -43.9486   -6.5437 C   0  0  0  0  0  0  0  0  0  0  0  0
  -20.5150  -45.0488   -6.2326 C   0  0  0  0  0  0  0  0  0  0  0  0
  -19.3021  -45.2542   -6.8082 C   0  0  0  0  0  0  0  0  0  0  0  0
  -18.9181  -44.3234   -7.7389 C   0  0  0  0  0  0  0  0  0  0  0  0
  -19.7203  -43.2071   -8.0952 C   0  0  0  0  0  0  0  0  0  0  0  0
  -20.9621  -43.0264   -7.4852 C   0  0  0  0  0  0  0  0  0  0  0  0
  -19.0079  -42.4154   -9.1078 C   0  0  0  0  0  0  0  0  0  0  0  0
  -18.4758  -43.1504  -10.0719 O   0  0  0  0  0  0  0  0  0  0  0  0
  -18.7637  -41.0356   -9.2776 N   0  0  0  0  0  0  0  0  0  0  0  0
  -18.3014  -40.0480   -8.3703 C   0  0  1  0  0  0  0  0  0  0  0  0
  -18.9804  -39.9850   -7.0402 C   0  0  0  0  0  0  0  0  0  0  0  0
  -16.8060  -40.0039   -8.1297 C   0  0  2  0  0  0  0  0  0  0  0  0
  -16.2909  -38.7413   -8.3138 O   0  0  0  0  0  0  0  0  0  0  0  0
  -16.0896  -40.9200   -9.1499 C   0  0  0  0  0  0  0  0  0  0  0  0
  -15.3102  -40.1605  -10.0517 N   0  0  0  0  0  0  0  0  0  0  0  0
  -13.9456  -40.6054  -10.2774 C   0  0  0  0  0  0  0  0  0  0  0  0
  -13.3175  -41.0322   -8.9287 C   0  0  0  0  0  0  0  0  0  0  0  0
  -13.6351  -42.0713   -9.9430 C   0  0  0  0  0  0  0  0  0  0  0  0
  -13.0481  -39.8583  -11.1740 C   0  0  0  0  0  0  0  0  0  0  0  0
  -13.0739  -38.4885  -11.2560 C   0  0  0  0  0  0  0  0  0  0  0  0
  -12.1968  -37.7723  -12.0863 C   0  0  0  0  0  0  0  0  0  0  0  0
  -11.2735  -38.4594  -12.8509 C   0  0  0  0  0  0  0  0  0  0  0  0
  -11.2379  -39.8279  -12.7778 C   0  0  0  0  0  0  0  0  0  0  0  0
  -12.1256  -40.5156  -11.9394 C   0  0  0  0  0  0  0  0  0  0  0  0
  -12.2160  -36.2998  -12.1676 C   0  0  0  0  0  0  0  0  0  0  0  0
  -13.3344  -35.7005  -11.3409 C   0  0  0  0  0  0  0  0  0  0  0  0
  -10.8993  -35.7511  -11.7275 C   0  0  0  0  0  0  0  0  0  0  0  0
  -12.4845  -35.8977  -13.6170 C   0  0  0  0  0  0  0  0  0  0  0  0
  -18.4760  -46.3971   -6.4520 C   0  0  0  0  0  0  0  0  0  0  0  0
  -17.8216  -46.4084   -5.4038 O   0  0  0  0  0  0  0  0  0  0  0  0
  -18.4337  -47.4987   -7.3278 N   0  0  0  0  0  0  0  0  0  0  0  0
  -17.6403  -48.6521   -6.9694 C   0  0  0  0  0  0  0  0  0  0  0  0
  -19.1470  -47.5593   -8.5931 C   0  0  0  0  0  0  0  0  0  0  0  0
  2  1  1  6
  2  3  1  0
  3  4  1  0
  4  5  1  0
  5  6  1  0
  6  7  1  0
  7  8  1  0
  8  9  1  0
  9 10  1  0
 10 11  1  0
 11 12  1  0
 12 13  2  0
 13 14  1  0
 14 15  2  0
 15 16  1  0
 15 17  1  0
 17 18  2  0
 17 19  1  0
 19 20  1  0
 20 21  1  1
 20 22  1  0
 22 23  1  6
 22 24  1  0
 24 25  1  0
 25 26  1  0
 26 27  1  0
 27 28  1  0
 26 29  1  0
 29 30  2  0
 30 31  1  0
 31 32  2  0
 32 33  1  0
 33 34  2  0
 31 35  1  0
 35 36  1  0
 35 37  1  0
 35 38  1  0
 13 39  1  0
 39 40  2  0
 39 41  1  0
 41 42  1  0
 41 43  1  0
 16 11  2  0
 21  2  1  0
 28 26  1  0
 34 29  1  0
M  END
$$$$
