
     RDKit          3D

 43 46  0  0  0  0  0  0  0  0999 V2000
  -18.9807  -37.6859   -7.2568 C   0  0  0  0  0  0  0  0  0  0  0  0
  -19.5044  -39.0110   -6.7387 C   0  0  2  0  0  0  0  0  0  0  0  0
  -20.3743  -38.7015   -5.5397 C   0  0  0  0  0  0  0  0  0  0  0  0
  -21.6415  -37.9920   -6.0277 C   0  0  0  0  0  0  0  0  0  0  0  0
  -22.8553  -38.4015   -5.2237 C   0  0  0  0  0  0  0  0  0  0  0  0
  -23.8121  -39.2459   -5.9967 C   0  0  0  0  0  0  0  0  0  0  0  0
  -23.1509  -40.1118   -7.0426 C   0  0  0  0  0  0  0  0  0  0  0  0
  -23.9175  -41.3997   -7.2966 C   0  0  0  0  0  0  0  0  0  0  0  0
  -23.4705  -42.5078   -6.4020 C   0  0  0  0  0  0  0  0  0  0  0  0
  -22.6472  -43.4952   -7.0759 N   0  0  0  0  0  0  0  0  0  0  0  0
  -21.2655  -43.5006   -7.4327 C   0  0  0  0  0  0  0  0  0  0  0  0
  -20.7005  -44.7633   -7.0762 C   0  0  0  0  0  0  0  0  0  0  0  0
  -19.3986  -45.0962   -7.2735 C   0  0  0  0  0  0  0  0  0  0  0  0
  -18.6171  -44.1303   -7.8532 C   0  0  0  0  0  0  0  0  0  0  0  0
  -19.1144  -42.8551   -8.2321 C   0  0  0  0  0  0  0  0  0  0  0  0
  -20.4577  -42.5460   -8.0162 C   0  0  0  0  0  0  0  0  0  0  0  0
  -18.0150  -42.0707   -8.8114 C   0  0  0  0  0  0  0  0  0  0  0  0
  -17.2827  -42.7517   -9.6790 O   0  0  0  0  0  0  0  0  0  0  0  0
  -17.5653  -40.7434   -8.6431 N   0  0  0  0  0  0  0  0  0  0  0  0
  -17.3189  -39.9795   -7.4735 C   0  0  1  0  0  0  0  0  0  0  0  0
  -18.3913  -39.9777   -6.4323 C   0  0  0  0  0  0  0  0  0  0  0  0
  -15.9964  -40.2259   -6.7762 C   0  0  2  0  0  0  0  0  0  0  0  0
  -15.9193  -39.5693   -5.5694 O   0  0  0  0  0  0  0  0  0  0  0  0
  -14.8413  -39.6761   -7.6462 C   0  0  0  0  0  0  0  0  0  0  0  0
  -14.9576  -40.1226   -8.9821 N   0  0  0  0  0  0  0  0  0  0  0  0
  -13.8668  -39.7918   -9.8831 C   0  0  0  0  0  0  0  0  0  0  0  0
  -12.5273  -39.8593   -9.1105 C   0  0  0  0  0  0  0  0  0  0  0  0
  -12.8262  -40.8916  -10.1375 C   0  0  0  0  0  0  0  0  0  0  0  0
  -13.9847  -38.6697  -10.8289 C   0  0  0  0  0  0  0  0  0  0  0  0
  -12.8892  -38.1129  -11.4402 C   0  0  0  0  0  0  0  0  0  0  0  0
  -13.0024  -37.0641  -12.3670 C   0  0  0  0  0  0  0  0  0  0  0  0
  -14.2533  -36.5683  -12.6810 C   0  0  0  0  0  0  0  0  0  0  0  0
  -15.3554  -37.1161  -12.0770 C   0  0  0  0  0  0  0  0  0  0  0  0
  -15.2113  -38.1626  -11.1562 C   0  0  0  0  0  0  0  0  0  0  0  0
  -11.8272  -36.4718  -13.0327 C   0  0  0  0  0  0  0  0  0  0  0  0
  -10.6141  -36.4474  -12.1265 C   0  0  0  0  0  0  0  0  0  0  0  0
  -11.5202  -37.2260  -14.2839 C   0  0  0  0  0  0  0  0  0  0  0  0
  -12.1445  -35.0162  -13.3720 C   0  0  0  0  0  0  0  0  0  0  0  0
  -18.8821  -46.4014   -6.8921 C   0  0  0  0  0  0  0  0  0  0  0  0
  -18.7734  -46.7210   -5.7035 O   0  0  0  0  0  0  0  0  0  0  0  0
  -18.5052  -47.3012   -7.9072 N   0  0  0  0  0  0  0  0  0  0  0  0
  -18.0054  -48.6065   -7.5401 C   0  0  0  0  0  0  0  0  0  0  0  0
  -18.5852  -47.0040   -9.3281 C   0  0  0  0  0  0  0  0  0  0  0  0
  2  1  1  1
  2  3  1  0
  3  4  1  0
  4  5  1  0
  5  6  1  0
  6  7  1  0
  7  8  1  0
  8  9  1  0
  9 10  1  0
 10 11  1  0
 11 12  1  0
 12 13  2  0
 13 14  1  0
 14 15  2  0
 15 16  1  0
 15 17  1  0
 17 18  2  0
 17 19  1  0
 19 20  1  0
 20 21  1  1
 20 22  1  0
 22 23  1  1
 22 24  1  0
 24 25  1  0
 25 26  1  0
 26 27  1  0
 27 28  1  0
 26 29  1  0
 29 30  2  0
 30 31  1  0
 31 32  2  0
 32 33  1  0
 33 34  2  0
 31 35  1  0
 35 36  1  0
 35 37  1  0
 35 38  1  0
 13 39  1  0
 39 40  2  0
 39 41  1  0
 41 42  1  0
 41 43  1  0
 16 11  2  0
 21  2  1  0
 28 26  1  0
 34 29  1  0
M  END
$$$$
