
     RDKit          3D

 43 46  0  0  0  0  0  0  0  0999 V2000
  -20.1138  -37.8748   -7.4282 C   0  0  0  0  0  0  0  0  0  0  0  0
  -20.2989  -39.2438   -6.8038 C   0  0  2  0  0  0  0  0  0  0  0  0
  -20.9840  -39.0304   -5.4715 C   0  0  0  0  0  0  0  0  0  0  0  0
  -22.4214  -38.5680   -5.7317 C   0  0  0  0  0  0  0  0  0  0  0  0
  -23.3841  -39.1387   -4.7145 C   0  0  0  0  0  0  0  0  0  0  0  0
  -24.3004  -40.1671   -5.2879 C   0  0  0  0  0  0  0  0  0  0  0  0
  -23.6935  -40.9565   -6.4235 C   0  0  0  0  0  0  0  0  0  0  0  0
  -24.2566  -42.3656   -6.5146 C   0  0  0  0  0  0  0  0  0  0  0  0
  -23.4728  -43.3400   -5.6996 C   0  0  0  0  0  0  0  0  0  0  0  0
  -22.6221  -44.2044   -6.4971 N   0  0  0  0  0  0  0  0  0  0  0  0
  -21.3455  -43.9933   -7.0988 C   0  0  0  0  0  0  0  0  0  0  0  0
  -20.5154  -45.1248   -6.8321 C   0  0  0  0  0  0  0  0  0  0  0  0
  -19.2309  -45.2422   -7.2576 C   0  0  0  0  0  0  0  0  0  0  0  0
  -18.7443  -44.1861   -7.9842 C   0  0  0  0  0  0  0  0  0  0  0  0
  -19.5150  -43.0320   -8.2854 C   0  0  0  0  0  0  0  0  0  0  0  0
  -20.8321  -42.9441   -7.8337 C   0  0  0  0  0  0  0  0  0  0  0  0
  -18.6887  -42.1010   -9.0665 C   0  0  0  0  0  0  0  0  0  0  0  0
  -18.0137  -42.6881  -10.0424 O   0  0  0  0  0  0  0  0  0  0  0  0
  -18.4545  -40.7105   -9.0027 N   0  0  0  0  0  0  0  0  0  0  0  0
  -18.1425  -39.8629   -7.9089 C   0  0  1  0  0  0  0  0  0  0  0  0
  -18.9981  -39.9938   -6.6903 C   0  0  0  0  0  0  0  0  0  0  0  0
  -16.6954  -39.8503   -7.4599 C   0  0  2  0  0  0  0  0  0  0  0  0
  -16.4285  -38.8028   -6.6085 O   0  0  0  0  0  0  0  0  0  0  0  0
  -15.7734  -39.6601   -8.6875 C   0  0  0  0  0  0  0  0  0  0  0  0
  -15.2045  -40.8902   -9.0883 N   0  0  0  0  0  0  0  0  0  0  0  0
  -14.4642  -40.8959  -10.3384 C   0  0  0  0  0  0  0  0  0  0  0  0
  -13.0031  -41.3276  -10.0654 C   0  0  0  0  0  0  0  0  0  0  0  0
  -13.9069  -42.2490  -10.8026 C   0  0  0  0  0  0  0  0  0  0  0  0
  -14.6191  -39.8012  -11.3108 C   0  0  0  0  0  0  0  0  0  0  0  0
  -14.2254  -38.5164  -11.0314 C   0  0  0  0  0  0  0  0  0  0  0  0
  -14.3424  -37.4776  -11.9689 C   0  0  0  0  0  0  0  0  0  0  0  0
  -14.8706  -37.7467  -13.2170 C   0  0  0  0  0  0  0  0  0  0  0  0
  -15.2677  -39.0262  -13.5082 C   0  0  0  0  0  0  0  0  0  0  0  0
  -15.1380  -40.0426  -12.5522 C   0  0  0  0  0  0  0  0  0  0  0  0
  -13.9100  -36.0988  -11.6741 C   0  0  0  0  0  0  0  0  0  0  0  0
  -14.1016  -35.1780  -12.8610 C   0  0  0  0  0  0  0  0  0  0  0  0
  -14.6558  -35.5762  -10.4912 C   0  0  0  0  0  0  0  0  0  0  0  0
  -12.4119  -36.1141  -11.3743 C   0  0  0  0  0  0  0  0  0  0  0  0
  -18.4359  -46.4226   -6.9570 C   0  0  0  0  0  0  0  0  0  0  0  0
  -18.0463  -46.6523   -5.8071 O   0  0  0  0  0  0  0  0  0  0  0  0
  -18.1152  -47.3056   -8.0056 N   0  0  0  0  0  0  0  0  0  0  0  0
  -18.4729  -46.9491   -9.3596 C   0  0  0  0  0  0  0  0  0  0  0  0
  -17.4352  -48.5769   -7.8187 C   0  0  0  0  0  0  0  0  0  0  0  0
  2  1  1  1
  2  3  1  0
  3  4  1  0
  4  5  1  0
  5  6  1  0
  6  7  1  0
  7  8  1  0
  8  9  1  0
  9 10  1  0
 10 11  1  0
 11 12  1  0
 12 13  2  0
 13 14  1  0
 14 15  2  0
 15 16  1  0
 15 17  1  0
 17 18  2  0
 17 19  1  0
 19 20  1  0
 20 21  1  1
 20 22  1  0
 22 23  1  1
 22 24  1  0
 24 25  1  0
 25 26  1  0
 26 27  1  0
 27 28  1  0
 26 29  1  0
 29 30  2  0
 30 31  1  0
 31 32  2  0
 32 33  1  0
 33 34  2  0
 31 35  1  0
 35 36  1  0
 35 37  1  0
 35 38  1  0
 13 39  1  0
 39 40  2  0
 39 41  1  0
 41 42  1  0
 41 43  1  0
 16 11  2  0
 21  2  1  0
 28 26  1  0
 34 29  1  0
M  END
$$$$
