
     RDKit          3D

 43 46  0  0  0  0  0  0  0  0999 V2000
  -21.4366  -38.5235   -7.8996 C   0  0  0  0  0  0  0  0  0  0  0  0
  -20.8693  -39.7474   -7.2077 C   0  0  2  0  0  0  0  0  0  0  0  0
  -21.0059  -39.5136   -5.7188 C   0  0  0  0  0  0  0  0  0  0  0  0
  -22.4928  -39.5632   -5.3525 C   0  0  0  0  0  0  0  0  0  0  0  0
  -22.7135  -40.2042   -4.0006 C   0  0  0  0  0  0  0  0  0  0  0  0
  -23.3564  -41.5478   -4.0876 C   0  0  0  0  0  0  0  0  0  0  0  0
  -23.0073  -42.3085   -5.3446 C   0  0  0  0  0  0  0  0  0  0  0  0
  -23.0274  -43.8140   -5.1345 C   0  0  0  0  0  0  0  0  0  0  0  0
  -21.6998  -44.3407   -4.7010 C   0  0  0  0  0  0  0  0  0  0  0  0
  -20.9846  -45.0366   -5.7551 N   0  0  0  0  0  0  0  0  0  0  0  0
  -20.2080  -44.5617   -6.8542 C   0  0  0  0  0  0  0  0  0  0  0  0
  -19.0003  -45.3208   -6.9296 C   0  0  0  0  0  0  0  0  0  0  0  0
  -18.0328  -45.1190   -7.8613 C   0  0  0  0  0  0  0  0  0  0  0  0
  -18.2737  -44.1153   -8.7637 C   0  0  0  0  0  0  0  0  0  0  0  0
  -19.4524  -43.3232   -8.7457 C   0  0  0  0  0  0  0  0  0  0  0  0
  -20.4270  -43.5579   -7.7753 C   0  0  0  0  0  0  0  0  0  0  0  0
  -19.3817  -42.3436   -9.8389 C   0  0  0  0  0  0  0  0  0  0  0  0
  -18.9832  -42.8656  -10.9884 O   0  0  0  0  0  0  0  0  0  0  0  0
  -19.6455  -40.9601   -9.9317 N   0  0  0  0  0  0  0  0  0  0  0  0
  -19.2498  -39.8743   -9.1092 C   0  0  1  0  0  0  0  0  0  0  0  0
  -19.4550  -40.0349   -7.6373 C   0  0  0  0  0  0  0  0  0  0  0  0
  -17.8475  -39.3431   -9.3262 C   0  0  2  0  0  0  0  0  0  0  0  0
  -17.8321  -37.9761   -9.4831 O   0  0  0  0  0  0  0  0  0  0  0  0
  -17.2638  -39.9380  -10.6296 C   0  0  0  0  0  0  0  0  0  0  0  0
  -15.8690  -39.7222  -10.7038 N   0  0  0  0  0  0  0  0  0  0  0  0
  -15.2782  -39.6919  -12.0309 C   0  0  0  0  0  0  0  0  0  0  0  0
  -14.6649  -41.0769  -12.3491 C   0  0  0  0  0  0  0  0  0  0  0  0
  -15.8848  -40.6385  -13.0764 C   0  0  0  0  0  0  0  0  0  0  0  0
  -14.4761  -38.5389  -12.4724 C   0  0  0  0  0  0  0  0  0  0  0  0
  -14.0979  -37.5405  -11.6099 C   0  0  0  0  0  0  0  0  0  0  0  0
  -13.3057  -36.4567  -12.0216 C   0  0  0  0  0  0  0  0  0  0  0  0
  -12.8882  -36.3827  -13.3367 C   0  0  0  0  0  0  0  0  0  0  0  0
  -13.2595  -37.3738  -14.2080 C   0  0  0  0  0  0  0  0  0  0  0  0
  -14.0503  -38.4438  -13.7679 C   0  0  0  0  0  0  0  0  0  0  0  0
  -12.8895  -35.3886  -11.0937 C   0  0  0  0  0  0  0  0  0  0  0  0
  -14.0713  -34.7597  -10.3857 C   0  0  0  0  0  0  0  0  0  0  0  0
  -11.9218  -35.9332  -10.0960 C   0  0  0  0  0  0  0  0  0  0  0  0
  -12.2256  -34.2752  -11.9024 C   0  0  0  0  0  0  0  0  0  0  0  0
  -16.8246  -45.9284   -7.8894 C   0  0  0  0  0  0  0  0  0  0  0  0
  -16.8849  -47.1620   -7.9279 O   0  0  0  0  0  0  0  0  0  0  0  0
  -15.5759  -45.2783   -7.8717 N   0  0  0  0  0  0  0  0  0  0  0  0
  -14.3699  -46.0689   -7.9645 C   0  0  0  0  0  0  0  0  0  0  0  0
  -15.4106  -43.8378   -7.7650 C   0  0  0  0  0  0  0  0  0  0  0  0
  2  1  1  6
  2  3  1  0
  3  4  1  0
  4  5  1  0
  5  6  1  0
  6  7  1  0
  7  8  1  0
  8  9  1  0
  9 10  1  0
 10 11  1  0
 11 12  1  0
 12 13  2  0
 13 14  1  0
 14 15  2  0
 15 16  1  0
 15 17  1  0
 17 18  2  0
 17 19  1  0
 19 20  1  0
 20 21  1  1
 20 22  1  0
 22 23  1  6
 22 24  1  0
 24 25  1  0
 25 26  1  0
 26 27  1  0
 27 28  1  0
 26 29  1  0
 29 30  2  0
 30 31  1  0
 31 32  2  0
 32 33  1  0
 33 34  2  0
 31 35  1  0
 35 36  1  0
 35 37  1  0
 35 38  1  0
 13 39  1  0
 39 40  2  0
 39 41  1  0
 41 42  1  0
 41 43  1  0
 16 11  2  0
 21  2  1  0
 28 26  1  0
 34 29  1  0
M  END
$$$$
