
     RDKit          3D

 43 46  0  0  0  0  0  0  0  0999 V2000
  -20.0387  -37.8566   -7.3136 C   0  0  0  0  0  0  0  0  0  0  0  0
  -20.1534  -39.2351   -6.6930 C   0  0  2  0  0  0  0  0  0  0  0  0
  -20.8722  -39.0641   -5.3723 C   0  0  0  0  0  0  0  0  0  0  0  0
  -22.3297  -38.6868   -5.6565 C   0  0  0  0  0  0  0  0  0  0  0  0
  -23.2741  -39.3145   -4.6559 C   0  0  0  0  0  0  0  0  0  0  0  0
  -24.1185  -40.3942   -5.2451 C   0  0  0  0  0  0  0  0  0  0  0  0
  -23.4473  -41.1450   -6.3706 C   0  0  0  0  0  0  0  0  0  0  0  0
  -23.9249  -42.5847   -6.4717 C   0  0  0  0  0  0  0  0  0  0  0  0
  -23.0989  -43.5124   -5.6439 C   0  0  0  0  0  0  0  0  0  0  0  0
  -22.1855  -44.3242   -6.4272 N   0  0  0  0  0  0  0  0  0  0  0  0
  -20.9135  -44.0375   -7.0073 C   0  0  0  0  0  0  0  0  0  0  0  0
  -20.0229  -45.1185   -6.7270 C   0  0  0  0  0  0  0  0  0  0  0  0
  -18.7268  -45.1596   -7.1309 C   0  0  0  0  0  0  0  0  0  0  0  0
  -18.2910  -44.0758   -7.8487 C   0  0  0  0  0  0  0  0  0  0  0  0
  -19.1231  -42.9685   -8.1625 C   0  0  0  0  0  0  0  0  0  0  0  0
  -20.4506  -42.9589   -7.7330 C   0  0  0  0  0  0  0  0  0  0  0  0
  -18.3400  -41.9895   -8.9293 C   0  0  0  0  0  0  0  0  0  0  0  0
  -17.6153  -42.5345   -9.8939 O   0  0  0  0  0  0  0  0  0  0  0  0
  -18.1891  -40.5878   -8.8610 N   0  0  0  0  0  0  0  0  0  0  0  0
  -17.9460  -39.7247   -7.7618 C   0  0  1  0  0  0  0  0  0  0  0  0
  -18.8128  -39.9074   -6.5578 C   0  0  0  0  0  0  0  0  0  0  0  0
  -16.5100  -39.6276   -7.2884 C   0  0  2  0  0  0  0  0  0  0  0  0
  -16.2625  -38.4447   -6.6304 O   0  0  0  0  0  0  0  0  0  0  0  0
  -15.5590  -39.6550   -8.5084 C   0  0  0  0  0  0  0  0  0  0  0  0
  -14.2899  -40.1628   -8.1492 N   0  0  0  0  0  0  0  0  0  0  0  0
  -13.3500  -40.4075   -9.2298 C   0  0  0  0  0  0  0  0  0  0  0  0
  -11.9275  -40.5725   -8.6424 C   0  0  0  0  0  0  0  0  0  0  0  0
  -12.6191  -41.7575   -9.2142 C   0  0  0  0  0  0  0  0  0  0  0  0
  -13.4218  -39.6340  -10.4805 C   0  0  0  0  0  0  0  0  0  0  0  0
  -13.5563  -38.2682  -10.4866 C   0  0  0  0  0  0  0  0  0  0  0  0
  -13.5924  -37.5254  -11.6777 C   0  0  0  0  0  0  0  0  0  0  0  0
  -13.4906  -38.1815  -12.8895 C   0  0  0  0  0  0  0  0  0  0  0  0
  -13.3559  -39.5458  -12.8967 C   0  0  0  0  0  0  0  0  0  0  0  0
  -13.3224  -40.2603  -11.6916 C   0  0  0  0  0  0  0  0  0  0  0  0
  -13.7262  -36.0567  -11.6857 C   0  0  0  0  0  0  0  0  0  0  0  0
  -12.3846  -35.3655  -11.8121 C   0  0  0  0  0  0  0  0  0  0  0  0
  -14.6288  -35.6365  -12.7980 C   0  0  0  0  0  0  0  0  0  0  0  0
  -14.3167  -35.6163  -10.3472 C   0  0  0  0  0  0  0  0  0  0  0  0
  -17.8689  -46.2915   -6.8173 C   0  0  0  0  0  0  0  0  0  0  0  0
  -17.3811  -46.4283   -5.6902 O   0  0  0  0  0  0  0  0  0  0  0  0
  -17.6014  -47.2359   -7.8266 N   0  0  0  0  0  0  0  0  0  0  0  0
  -18.1885  -47.0532   -9.1344 C   0  0  0  0  0  0  0  0  0  0  0  0
  -16.7584  -48.4060   -7.6426 C   0  0  0  0  0  0  0  0  0  0  0  0
  2  1  1  1
  2  3  1  0
  3  4  1  0
  4  5  1  0
  5  6  1  0
  6  7  1  0
  7  8  1  0
  8  9  1  0
  9 10  1  0
 10 11  1  0
 11 12  1  0
 12 13  2  0
 13 14  1  0
 14 15  2  0
 15 16  1  0
 15 17  1  0
 17 18  2  0
 17 19  1  0
 19 20  1  0
 20 21  1  1
 20 22  1  0
 22 23  1  6
 22 24  1  0
 24 25  1  0
 25 26  1  0
 26 27  1  0
 27 28  1  0
 26 29  1  0
 29 30  2  0
 30 31  1  0
 31 32  2  0
 32 33  1  0
 33 34  2  0
 31 35  1  0
 35 36  1  0
 35 37  1  0
 35 38  1  0
 13 39  1  0
 39 40  2  0
 39 41  1  0
 41 42  1  0
 41 43  1  0
 16 11  2  0
 21  2  1  0
 28 26  1  0
 34 29  1  0
M  END
$$$$
