
     RDKit          3D

 43 46  0  0  0  0  0  0  0  0999 V2000
  -19.6516  -37.7584   -7.3829 C   0  0  0  0  0  0  0  0  0  0  0  0
  -19.7790  -39.0762   -6.6443 C   0  0  2  0  0  0  0  0  0  0  0  0
  -20.2727  -38.7532   -5.2507 C   0  0  0  0  0  0  0  0  0  0  0  0
  -21.7221  -38.2662   -5.3484 C   0  0  0  0  0  0  0  0  0  0  0  0
  -22.5498  -38.7379   -4.1739 C   0  0  0  0  0  0  0  0  0  0  0  0
  -23.5565  -39.7744   -4.5456 C   0  0  0  0  0  0  0  0  0  0  0  0
  -23.1257  -40.6563   -5.6935 C   0  0  0  0  0  0  0  0  0  0  0  0
  -23.7252  -42.0507   -5.6088 C   0  0  0  0  0  0  0  0  0  0  0  0
  -22.8587  -42.9913   -4.8391 C   0  0  0  0  0  0  0  0  0  0  0  0
  -22.1420  -43.9326   -5.6800 N   0  0  0  0  0  0  0  0  0  0  0  0
  -20.9546  -43.8010   -6.4605 C   0  0  0  0  0  0  0  0  0  0  0  0
  -20.1198  -44.9366   -6.2278 C   0  0  0  0  0  0  0  0  0  0  0  0
  -18.9075  -45.1210   -6.8119 C   0  0  0  0  0  0  0  0  0  0  0  0
  -18.5019  -44.1313   -7.6698 C   0  0  0  0  0  0  0  0  0  0  0  0
  -19.2821  -42.9773   -7.9461 C   0  0  0  0  0  0  0  0  0  0  0  0
  -20.5238  -42.8196   -7.3296 C   0  0  0  0  0  0  0  0  0  0  0  0
  -18.5500  -42.1263   -8.8944 C   0  0  0  0  0  0  0  0  0  0  0  0
  -18.0258  -42.7977   -9.9079 O   0  0  0  0  0  0  0  0  0  0  0  0
  -18.2803  -40.7424   -8.9608 N   0  0  0  0  0  0  0  0  0  0  0  0
  -17.8055  -39.8329   -7.9812 C   0  0  1  0  0  0  0  0  0  0  0  0
  -18.4907  -39.8558   -6.6530 C   0  0  0  0  0  0  0  0  0  0  0  0
  -16.3110  -39.8338   -7.7317 C   0  0  2  0  0  0  0  0  0  0  0  0
  -15.9397  -38.8734   -6.8190 O   0  0  0  0  0  0  0  0  0  0  0  0
  -15.5659  -39.4981   -9.0453 C   0  0  0  0  0  0  0  0  0  0  0  0
  -15.5978  -40.5926   -9.9389 N   0  0  0  0  0  0  0  0  0  0  0  0
  -15.0023  -40.3896  -11.2486 C   0  0  0  0  0  0  0  0  0  0  0  0
  -14.4364  -41.7338  -11.7667 C   0  0  0  0  0  0  0  0  0  0  0  0
  -15.6381  -41.1519  -12.4198 C   0  0  0  0  0  0  0  0  0  0  0  0
  -14.1594  -39.2131  -11.5188 C   0  0  0  0  0  0  0  0  0  0  0  0
  -14.6935  -37.9988  -11.8712 C   0  0  0  0  0  0  0  0  0  0  0  0
  -13.8935  -36.8672  -12.0977 C   0  0  0  0  0  0  0  0  0  0  0  0
  -12.5219  -36.9686  -11.9647 C   0  0  0  0  0  0  0  0  0  0  0  0
  -11.9763  -38.1762  -11.6132 C   0  0  0  0  0  0  0  0  0  0  0  0
  -12.8003  -39.2881  -11.3929 C   0  0  0  0  0  0  0  0  0  0  0  0
  -14.4665  -35.5592  -12.4661 C   0  0  0  0  0  0  0  0  0  0  0  0
  -13.3950  -34.5525  -12.8295 C   0  0  0  0  0  0  0  0  0  0  0  0
  -15.4222  -35.7263  -13.6006 C   0  0  0  0  0  0  0  0  0  0  0  0
  -15.2005  -34.9921  -11.2519 C   0  0  0  0  0  0  0  0  0  0  0  0
  -18.1039  -46.3020   -6.5377 C   0  0  0  0  0  0  0  0  0  0  0  0
  -17.4478  -46.3980   -5.4949 O   0  0  0  0  0  0  0  0  0  0  0  0
  -18.0857  -47.3416   -7.4868 N   0  0  0  0  0  0  0  0  0  0  0  0
  -17.8829  -48.7002   -7.0382 C   0  0  0  0  0  0  0  0  0  0  0  0
  -18.2607  -47.1408   -8.9161 C   0  0  0  0  0  0  0  0  0  0  0  0
  2  1  1  6
  2  3  1  0
  3  4  1  0
  4  5  1  0
  5  6  1  0
  6  7  1  0
  7  8  1  0
  8  9  1  0
  9 10  1  0
 10 11  1  0
 11 12  1  0
 12 13  2  0
 13 14  1  0
 14 15  2  0
 15 16  1  0
 15 17  1  0
 17 18  2  0
 17 19  1  0
 19 20  1  0
 20 21  1  1
 20 22  1  0
 22 23  1  1
 22 24  1  0
 24 25  1  0
 25 26  1  0
 26 27  1  0
 27 28  1  0
 26 29  1  0
 29 30  2  0
 30 31  1  0
 31 32  2  0
 32 33  1  0
 33 34  2  0
 31 35  1  0
 35 36  1  0
 35 37  1  0
 35 38  1  0
 13 39  1  0
 39 40  2  0
 39 41  1  0
 41 42  1  0
 41 43  1  0
 16 11  2  0
 21  2  1  0
 28 26  1  0
 34 29  1  0
M  END
$$$$
