
     RDKit          3D

 43 46  0  0  0  0  0  0  0  0999 V2000
  -20.7745  -37.5858   -9.0907 C   0  0  0  0  0  0  0  0  0  0  0  0
  -20.8188  -38.8438   -8.2458 C   0  0  2  0  0  0  0  0  0  0  0  0
  -21.6091  -38.5088   -6.9996 C   0  0  0  0  0  0  0  0  0  0  0  0
  -23.0750  -38.3013   -7.3938 C   0  0  0  0  0  0  0  0  0  0  0  0
  -24.0177  -38.8230   -6.3324 C   0  0  0  0  0  0  0  0  0  0  0  0
  -24.7537  -40.0502   -6.7548 C   0  0  0  0  0  0  0  0  0  0  0  0
  -23.9781  -40.9254   -7.7105 C   0  0  0  0  0  0  0  0  0  0  0  0
  -24.3456  -42.3945   -7.5778 C   0  0  0  0  0  0  0  0  0  0  0  0
  -23.4947  -43.1004   -6.5750 C   0  0  0  0  0  0  0  0  0  0  0  0
  -22.4896  -43.9585   -7.1751 N   0  0  0  0  0  0  0  0  0  0  0  0
  -21.2158  -43.6748   -7.7526 C   0  0  0  0  0  0  0  0  0  0  0  0
  -20.2638  -44.6190   -7.2600 C   0  0  0  0  0  0  0  0  0  0  0  0
  -18.9506  -44.6255   -7.6066 C   0  0  0  0  0  0  0  0  0  0  0  0
  -18.5607  -43.6480   -8.4855 C   0  0  0  0  0  0  0  0  0  0  0  0
  -19.4547  -42.6791   -9.0136 C   0  0  0  0  0  0  0  0  0  0  0  0
  -20.7981  -42.7017   -8.6374 C   0  0  0  0  0  0  0  0  0  0  0  0
  -18.7091  -41.7855   -9.9107 C   0  0  0  0  0  0  0  0  0  0  0  0
  -17.9026  -42.4271  -10.7418 O   0  0  0  0  0  0  0  0  0  0  0  0
  -18.6628  -40.3850  -10.0802 N   0  0  0  0  0  0  0  0  0  0  0  0
  -18.5342  -39.3317   -9.1388 C   0  0  1  0  0  0  0  0  0  0  0  0
  -19.4411  -39.3755   -7.9514 C   0  0  0  0  0  0  0  0  0  0  0  0
  -17.1326  -39.0427   -8.6409 C   0  0  2  0  0  0  0  0  0  0  0  0
  -17.0858  -37.9113   -7.8592 O   0  0  0  0  0  0  0  0  0  0  0  0
  -16.1986  -38.7791   -9.8457 C   0  0  0  0  0  0  0  0  0  0  0  0
  -15.2645  -39.8284  -10.0006 N   0  0  0  0  0  0  0  0  0  0  0  0
  -14.5868  -39.9213  -11.2825 C   0  0  0  0  0  0  0  0  0  0  0  0
  -15.4455  -40.7659  -12.2546 C   0  0  0  0  0  0  0  0  0  0  0  0
  -15.3084  -39.3045  -12.4891 C   0  0  0  0  0  0  0  0  0  0  0  0
  -13.1377  -40.1723  -11.3522 C   0  0  0  0  0  0  0  0  0  0  0  0
  -12.4898  -40.9638  -10.4370 C   0  0  0  0  0  0  0  0  0  0  0  0
  -11.1138  -41.2307  -10.5204 C   0  0  0  0  0  0  0  0  0  0  0  0
  -10.3779  -40.6830  -11.5537 C   0  0  0  0  0  0  0  0  0  0  0  0
  -11.0136  -39.8905  -12.4742 C   0  0  0  0  0  0  0  0  0  0  0  0
  -12.3886  -39.6424  -12.3655 C   0  0  0  0  0  0  0  0  0  0  0  0
  -10.4180  -42.0895   -9.5439 C   0  0  0  0  0  0  0  0  0  0  0  0
   -8.9124  -41.9676   -9.6525 C   0  0  0  0  0  0  0  0  0  0  0  0
  -10.8639  -41.7479   -8.1608 C   0  0  0  0  0  0  0  0  0  0  0  0
  -10.7585  -43.5470   -9.8510 C   0  0  0  0  0  0  0  0  0  0  0  0
  -18.0291  -45.6167   -7.0736 C   0  0  0  0  0  0  0  0  0  0  0  0
  -18.2298  -46.8252   -7.2354 O   0  0  0  0  0  0  0  0  0  0  0  0
  -16.8962  -45.1732   -6.3650 N   0  0  0  0  0  0  0  0  0  0  0  0
  -15.9976  -46.1498   -5.7931 C   0  0  0  0  0  0  0  0  0  0  0  0
  -16.5593  -43.7733   -6.1643 C   0  0  0  0  0  0  0  0  0  0  0  0
  2  1  1  6
  2  3  1  0
  3  4  1  0
  4  5  1  0
  5  6  1  0
  6  7  1  0
  7  8  1  0
  8  9  1  0
  9 10  1  0
 10 11  1  0
 11 12  1  0
 12 13  2  0
 13 14  1  0
 14 15  2  0
 15 16  1  0
 15 17  1  0
 17 18  2  0
 17 19  1  0
 19 20  1  0
 20 21  1  1
 20 22  1  0
 22 23  1  1
 22 24  1  0
 24 25  1  0
 25 26  1  0
 26 27  1  0
 27 28  1  0
 26 29  1  0
 29 30  2  0
 30 31  1  0
 31 32  2  0
 32 33  1  0
 33 34  2  0
 31 35  1  0
 35 36  1  0
 35 37  1  0
 35 38  1  0
 13 39  1  0
 39 40  2  0
 39 41  1  0
 41 42  1  0
 41 43  1  0
 16 11  2  0
 21  2  1  0
 28 26  1  0
 34 29  1  0
M  END
$$$$
