
     RDKit          3D

 43 46  0  0  0  0  0  0  0  0999 V2000
  -19.2556  -37.8842   -6.6449 C   0  0  0  0  0  0  0  0  0  0  0  0
  -19.5355  -39.3050   -6.1964 C   0  0  2  0  0  0  0  0  0  0  0  0
  -20.2570  -39.2131   -4.8693 C   0  0  0  0  0  0  0  0  0  0  0  0
  -21.6575  -38.6423   -5.1150 C   0  0  0  0  0  0  0  0  0  0  0  0
  -22.6857  -39.2744   -4.2038 C   0  0  0  0  0  0  0  0  0  0  0  0
  -23.6331  -40.1737   -4.9247 C   0  0  0  0  0  0  0  0  0  0  0  0
  -23.0273  -40.8555   -6.1284 C   0  0  0  0  0  0  0  0  0  0  0  0
  -23.6601  -42.2096   -6.4061 C   0  0  0  0  0  0  0  0  0  0  0  0
  -22.9592  -43.3168   -5.6914 C   0  0  0  0  0  0  0  0  0  0  0  0
  -22.1264  -44.1271   -6.5613 N   0  0  0  0  0  0  0  0  0  0  0  0
  -20.8192  -43.9187   -7.0943 C   0  0  0  0  0  0  0  0  0  0  0  0
  -20.0602  -45.1191   -6.9412 C   0  0  0  0  0  0  0  0  0  0  0  0
  -18.7689  -45.2577   -7.3388 C   0  0  0  0  0  0  0  0  0  0  0  0
  -18.2009  -44.1520   -7.9174 C   0  0  0  0  0  0  0  0  0  0  0  0
  -18.8982  -42.9284   -8.1003 C   0  0  0  0  0  0  0  0  0  0  0  0
  -20.2246  -42.8204   -7.6812 C   0  0  0  0  0  0  0  0  0  0  0  0
  -17.9958  -41.9595   -8.7379 C   0  0  0  0  0  0  0  0  0  0  0  0
  -17.3172  -42.4637   -9.7567 O   0  0  0  0  0  0  0  0  0  0  0  0
  -17.6912  -40.6020   -8.4995 N   0  0  0  0  0  0  0  0  0  0  0  0
  -17.3755  -39.9095   -7.3025 C   0  0  1  0  0  0  0  0  0  0  0  0
  -18.2811  -40.1357   -6.1350 C   0  0  0  0  0  0  0  0  0  0  0  0
  -15.9472  -40.0325   -6.8117 C   0  0  2  0  0  0  0  0  0  0  0  0
  -15.7157  -39.2575   -5.6985 O   0  0  0  0  0  0  0  0  0  0  0  0
  -14.9778  -39.5252   -7.9054 C   0  0  0  0  0  0  0  0  0  0  0  0
  -15.5627  -39.6298   -9.1878 N   0  0  0  0  0  0  0  0  0  0  0  0
  -14.6553  -39.6981  -10.3206 C   0  0  0  0  0  0  0  0  0  0  0  0
  -13.6383  -40.8423  -10.0925 C   0  0  0  0  0  0  0  0  0  0  0  0
  -14.6780  -40.9937  -11.1439 C   0  0  0  0  0  0  0  0  0  0  0  0
  -14.0921  -38.4720  -10.9098 C   0  0  0  0  0  0  0  0  0  0  0  0
  -14.4791  -38.0114  -12.1434 C   0  0  0  0  0  0  0  0  0  0  0  0
  -13.9672  -36.8250  -12.6931 C   0  0  0  0  0  0  0  0  0  0  0  0
  -13.0424  -36.0894  -11.9771 C   0  0  0  0  0  0  0  0  0  0  0  0
  -12.6478  -36.5391  -10.7435 C   0  0  0  0  0  0  0  0  0  0  0  0
  -13.1766  -37.7267  -10.2204 C   0  0  0  0  0  0  0  0  0  0  0  0
  -14.3898  -36.3231  -14.0139 C   0  0  0  0  0  0  0  0  0  0  0  0
  -13.2138  -35.8577  -14.8469 C   0  0  0  0  0  0  0  0  0  0  0  0
  -15.1474  -37.3846  -14.7404 C   0  0  0  0  0  0  0  0  0  0  0  0
  -15.2838  -35.1018  -13.8051 C   0  0  0  0  0  0  0  0  0  0  0  0
  -18.0488  -46.5086   -7.1591 C   0  0  0  0  0  0  0  0  0  0  0  0
  -17.8265  -46.9592   -6.0301 O   0  0  0  0  0  0  0  0  0  0  0  0
  -17.6059  -47.2028   -8.3010 N   0  0  0  0  0  0  0  0  0  0  0  0
  -16.9336  -48.4713   -8.1363 C   0  0  0  0  0  0  0  0  0  0  0  0
  -17.7811  -46.7240   -9.6625 C   0  0  0  0  0  0  0  0  0  0  0  0
  2  1  1  1
  2  3  1  0
  3  4  1  0
  4  5  1  0
  5  6  1  0
  6  7  1  0
  7  8  1  0
  8  9  1  0
  9 10  1  0
 10 11  1  0
 11 12  1  0
 12 13  2  0
 13 14  1  0
 14 15  2  0
 15 16  1  0
 15 17  1  0
 17 18  2  0
 17 19  1  0
 19 20  1  0
 20 21  1  1
 20 22  1  0
 22 23  1  1
 22 24  1  0
 24 25  1  0
 25 26  1  0
 26 27  1  0
 27 28  1  0
 26 29  1  0
 29 30  2  0
 30 31  1  0
 31 32  2  0
 32 33  1  0
 33 34  2  0
 31 35  1  0
 35 36  1  0
 35 37  1  0
 35 38  1  0
 13 39  1  0
 39 40  2  0
 39 41  1  0
 41 42  1  0
 41 43  1  0
 16 11  2  0
 21  2  1  0
 28 26  1  0
 34 29  1  0
M  END
$$$$
