
     RDKit          3D

 43 46  0  0  0  0  0  0  0  0999 V2000
  -19.9965  -37.9170   -7.3504 C   0  0  0  0  0  0  0  0  0  0  0  0
  -20.1245  -39.3897   -7.0139 C   0  0  2  0  0  0  0  0  0  0  0  0
  -20.7449  -39.4736   -5.6362 C   0  0  0  0  0  0  0  0  0  0  0  0
  -22.2019  -39.0088   -5.7292 C   0  0  0  0  0  0  0  0  0  0  0  0
  -23.1011  -39.8032   -4.8085 C   0  0  0  0  0  0  0  0  0  0  0  0
  -24.0261  -40.7178   -5.5391 C   0  0  0  0  0  0  0  0  0  0  0  0
  -23.4632  -41.2400   -6.8396 C   0  0  0  0  0  0  0  0  0  0  0  0
  -24.0042  -42.6159   -7.1934 C   0  0  0  0  0  0  0  0  0  0  0  0
  -23.1621  -43.7140   -6.6336 C   0  0  0  0  0  0  0  0  0  0  0  0
  -22.3372  -44.3719   -7.6303 N   0  0  0  0  0  0  0  0  0  0  0  0
  -21.0969  -44.0056   -8.2335 C   0  0  0  0  0  0  0  0  0  0  0  0
  -20.2336  -45.1436   -8.2441 C   0  0  0  0  0  0  0  0  0  0  0  0
  -18.9704  -45.1346   -8.7432 C   0  0  0  0  0  0  0  0  0  0  0  0
  -18.5408  -43.9386   -9.2579 C   0  0  0  0  0  0  0  0  0  0  0  0
  -19.3470  -42.7697   -9.2791 C   0  0  0  0  0  0  0  0  0  0  0  0
  -20.6409  -42.8139   -8.7590 C   0  0  0  0  0  0  0  0  0  0  0  0
  -18.5787  -41.6752   -9.8885 C   0  0  0  0  0  0  0  0  0  0  0  0
  -17.9434  -42.0302  -10.9944 O   0  0  0  0  0  0  0  0  0  0  0  0
  -18.3672  -40.3212   -9.5502 N   0  0  0  0  0  0  0  0  0  0  0  0
  -18.0159  -39.7073   -8.3206 C   0  0  1  0  0  0  0  0  0  0  0  0
  -18.8060  -40.1096   -7.1172 C   0  0  0  0  0  0  0  0  0  0  0  0
  -16.5484  -39.7458   -7.9455 C   0  0  2  0  0  0  0  0  0  0  0  0
  -16.1668  -38.6280   -7.2395 O   0  0  0  0  0  0  0  0  0  0  0  0
  -15.6855  -39.7661   -9.2294 C   0  0  0  0  0  0  0  0  0  0  0  0
  -14.3344  -40.0497   -8.9264 N   0  0  0  0  0  0  0  0  0  0  0  0
  -13.4837  -40.4546  -10.0325 C   0  0  0  0  0  0  0  0  0  0  0  0
  -12.2015  -41.1182   -9.4748 C   0  0  0  0  0  0  0  0  0  0  0  0
  -13.2083  -41.9582  -10.1748 C   0  0  0  0  0  0  0  0  0  0  0  0
  -13.2734  -39.5645  -11.1863 C   0  0  0  0  0  0  0  0  0  0  0  0
  -13.7368  -38.2727  -11.2048 C   0  0  0  0  0  0  0  0  0  0  0  0
  -13.5092  -37.4119  -12.2907 C   0  0  0  0  0  0  0  0  0  0  0  0
  -12.7968  -37.8707  -13.3821 C   0  0  0  0  0  0  0  0  0  0  0  0
  -12.3287  -39.1592  -13.3757 C   0  0  0  0  0  0  0  0  0  0  0  0
  -12.5710  -39.9950  -12.2772 C   0  0  0  0  0  0  0  0  0  0  0  0
  -13.9972  -36.0203  -12.3077 C   0  0  0  0  0  0  0  0  0  0  0  0
  -15.4868  -35.9382  -12.0471 C   0  0  0  0  0  0  0  0  0  0  0  0
  -13.2525  -35.2102  -11.2989 C   0  0  0  0  0  0  0  0  0  0  0  0
  -13.7687  -35.4434  -13.7039 C   0  0  0  0  0  0  0  0  0  0  0  0
  -18.1395  -46.3284   -8.7292 C   0  0  0  0  0  0  0  0  0  0  0  0
  -18.1214  -47.1034   -9.6915 O   0  0  0  0  0  0  0  0  0  0  0  0
  -17.3505  -46.5885   -7.5926 N   0  0  0  0  0  0  0  0  0  0  0  0
  -16.6176  -47.8316   -7.5145 C   0  0  0  0  0  0  0  0  0  0  0  0
  -17.2177  -45.6759   -6.4687 C   0  0  0  0  0  0  0  0  0  0  0  0
  2  1  1  1
  2  3  1  0
  3  4  1  0
  4  5  1  0
  5  6  1  0
  6  7  1  0
  7  8  1  0
  8  9  1  0
  9 10  1  0
 10 11  1  0
 11 12  1  0
 12 13  2  0
 13 14  1  0
 14 15  2  0
 15 16  1  0
 15 17  1  0
 17 18  2  0
 17 19  1  0
 19 20  1  0
 20 21  1  1
 20 22  1  0
 22 23  1  1
 22 24  1  0
 24 25  1  0
 25 26  1  0
 26 27  1  0
 27 28  1  0
 26 29  1  0
 29 30  2  0
 30 31  1  0
 31 32  2  0
 32 33  1  0
 33 34  2  0
 31 35  1  0
 35 36  1  0
 35 37  1  0
 35 38  1  0
 13 39  1  0
 39 40  2  0
 39 41  1  0
 41 42  1  0
 41 43  1  0
 16 11  2  0
 21  2  1  0
 28 26  1  0
 34 29  1  0
M  END
$$$$
