
     RDKit          3D

 43 46  0  0  0  0  0  0  0  0999 V2000
  -21.3910  -37.7550   -8.3441 C   0  0  0  0  0  0  0  0  0  0  0  0
  -21.1833  -39.0030   -7.5089 C   0  0  2  0  0  0  0  0  0  0  0  0
  -21.7468  -38.7115   -6.1350 C   0  0  0  0  0  0  0  0  0  0  0  0
  -23.2720  -38.6148   -6.2449 C   0  0  0  0  0  0  0  0  0  0  0  0
  -23.9571  -39.1907   -5.0258 C   0  0  0  0  0  0  0  0  0  0  0  0
  -24.6678  -40.4726   -5.3043 C   0  0  0  0  0  0  0  0  0  0  0  0
  -24.0245  -41.3007   -6.3912 C   0  0  0  0  0  0  0  0  0  0  0  0
  -24.2522  -42.7909   -6.1948 C   0  0  0  0  0  0  0  0  0  0  0  0
  -23.1783  -43.4219   -5.3722 C   0  0  0  0  0  0  0  0  0  0  0  0
  -22.2443  -44.2122   -6.1533 N   0  0  0  0  0  0  0  0  0  0  0  0
  -21.1264  -43.8441   -6.9602 C   0  0  0  0  0  0  0  0  0  0  0  0
  -20.0323  -44.7114   -6.6584 C   0  0  0  0  0  0  0  0  0  0  0  0
  -18.8110  -44.6272   -7.2468 C   0  0  0  0  0  0  0  0  0  0  0  0
  -18.6662  -43.6344   -8.1813 C   0  0  0  0  0  0  0  0  0  0  0  0
  -19.7121  -42.7387   -8.5289 C   0  0  0  0  0  0  0  0  0  0  0  0
  -20.9552  -42.8537   -7.9058 C   0  0  0  0  0  0  0  0  0  0  0  0
  -19.2161  -41.8041   -9.5487 C   0  0  0  0  0  0  0  0  0  0  0  0
  -18.5361  -42.3955  -10.5185 O   0  0  0  0  0  0  0  0  0  0  0  0
  -19.3050  -40.4059   -9.7208 N   0  0  0  0  0  0  0  0  0  0  0  0
  -19.0785  -39.3352   -8.8182 C   0  0  1  0  0  0  0  0  0  0  0  0
  -19.7397  -39.4306   -7.4811 C   0  0  0  0  0  0  0  0  0  0  0  0
  -17.6331  -38.9402   -8.5934 C   0  0  2  0  0  0  0  0  0  0  0  0
  -17.4790  -37.5757   -8.5046 O   0  0  0  0  0  0  0  0  0  0  0  0
  -16.7771  -39.3982   -9.7979 C   0  0  0  0  0  0  0  0  0  0  0  0
  -15.7455  -38.4705  -10.0672 N   0  0  0  0  0  0  0  0  0  0  0  0
  -14.4248  -39.0148  -10.3331 C   0  0  0  0  0  0  0  0  0  0  0  0
  -14.2732  -40.3695   -9.6000 C   0  0  0  0  0  0  0  0  0  0  0  0
  -14.3699  -40.3533  -11.0831 C   0  0  0  0  0  0  0  0  0  0  0  0
  -13.2330  -38.1510  -10.2991 C   0  0  0  0  0  0  0  0  0  0  0  0
  -11.9613  -38.6646  -10.2464 C   0  0  0  0  0  0  0  0  0  0  0  0
  -10.8224  -37.8434  -10.2466 C   0  0  0  0  0  0  0  0  0  0  0  0
  -10.9756  -36.4712  -10.3008 C   0  0  0  0  0  0  0  0  0  0  0  0
  -12.2407  -35.9459  -10.3536 C   0  0  0  0  0  0  0  0  0  0  0  0
  -13.3588  -36.7908  -10.3526 C   0  0  0  0  0  0  0  0  0  0  0  0
   -9.4549  -38.3939  -10.2008 C   0  0  0  0  0  0  0  0  0  0  0  0
   -8.4193  -37.3777  -10.6346 C   0  0  0  0  0  0  0  0  0  0  0  0
   -9.1516  -38.8824   -8.8232 C   0  0  0  0  0  0  0  0  0  0  0  0
   -9.3659  -39.5539  -11.1912 C   0  0  0  0  0  0  0  0  0  0  0  0
  -17.7357  -45.5431   -6.8995 C   0  0  0  0  0  0  0  0  0  0  0  0
  -17.2109  -45.5147   -5.7812 O   0  0  0  0  0  0  0  0  0  0  0  0
  -17.2994  -46.4693   -7.8659 N   0  0  0  0  0  0  0  0  0  0  0  0
  -16.1407  -47.2859   -7.5848 C   0  0  0  0  0  0  0  0  0  0  0  0
  -17.9457  -46.6668   -9.1531 C   0  0  0  0  0  0  0  0  0  0  0  0
  2  1  1  6
  2  3  1  0
  3  4  1  0
  4  5  1  0
  5  6  1  0
  6  7  1  0
  7  8  1  0
  8  9  1  0
  9 10  1  0
 10 11  1  0
 11 12  1  0
 12 13  2  0
 13 14  1  0
 14 15  2  0
 15 16  1  0
 15 17  1  0
 17 18  2  0
 17 19  1  0
 19 20  1  0
 20 21  1  1
 20 22  1  0
 22 23  1  6
 22 24  1  0
 24 25  1  0
 25 26  1  0
 26 27  1  0
 27 28  1  0
 26 29  1  0
 29 30  2  0
 30 31  1  0
 31 32  2  0
 32 33  1  0
 33 34  2  0
 31 35  1  0
 35 36  1  0
 35 37  1  0
 35 38  1  0
 13 39  1  0
 39 40  2  0
 39 41  1  0
 41 42  1  0
 41 43  1  0
 16 11  2  0
 21  2  1  0
 28 26  1  0
 34 29  1  0
M  END
$$$$
