
     RDKit          3D

 43 46  0  0  0  0  0  0  0  0999 V2000
  -21.0913  -37.5756   -7.1978 C   0  0  0  0  0  0  0  0  0  0  0  0
  -21.0199  -38.9635   -6.5920 C   0  0  2  0  0  0  0  0  0  0  0  0
  -21.7304  -38.8978   -5.2574 C   0  0  0  0  0  0  0  0  0  0  0  0
  -23.2288  -38.7048   -5.5126 C   0  0  0  0  0  0  0  0  0  0  0  0
  -24.0682  -39.4567   -4.5039 C   0  0  0  0  0  0  0  0  0  0  0  0
  -24.7801  -40.6286   -5.0918 C   0  0  0  0  0  0  0  0  0  0  0  0
  -24.0401  -41.2774   -6.2374 C   0  0  0  0  0  0  0  0  0  0  0  0
  -24.3340  -42.7649   -6.3478 C   0  0  0  0  0  0  0  0  0  0  0  0
  -23.3827  -43.5888   -5.5452 C   0  0  0  0  0  0  0  0  0  0  0  0
  -22.3885  -44.2710   -6.3535 N   0  0  0  0  0  0  0  0  0  0  0  0
  -21.1737  -43.8202   -6.9513 C   0  0  0  0  0  0  0  0  0  0  0  0
  -20.1488  -44.7828   -6.6991 C   0  0  0  0  0  0  0  0  0  0  0  0
  -18.8654  -44.6557   -7.1251 C   0  0  0  0  0  0  0  0  0  0  0  0
  -18.5830  -43.5185   -7.8370 C   0  0  0  0  0  0  0  0  0  0  0  0
  -19.5537  -42.5223   -8.1235 C   0  0  0  0  0  0  0  0  0  0  0  0
  -20.8637  -42.6847   -7.6717 C   0  0  0  0  0  0  0  0  0  0  0  0
  -18.9144  -41.4447   -8.8914 C   0  0  0  0  0  0  0  0  0  0  0  0
  -18.1444  -41.8843   -9.8745 O   0  0  0  0  0  0  0  0  0  0  0  0
  -18.9404  -40.0358   -8.8087 N   0  0  0  0  0  0  0  0  0  0  0  0
  -18.7882  -39.1598   -7.7034 C   0  0  1  0  0  0  0  0  0  0  0  0
  -19.6030  -39.4624   -6.4874 C   0  0  0  0  0  0  0  0  0  0  0  0
  -17.3675  -38.8867   -7.2531 C   0  0  2  0  0  0  0  0  0  0  0  0
  -17.2857  -37.7711   -6.4518 O   0  0  0  0  0  0  0  0  0  0  0  0
  -16.4780  -38.6034   -8.4868 C   0  0  0  0  0  0  0  0  0  0  0  0
  -16.1898  -39.7967   -9.1873 N   0  0  0  0  0  0  0  0  0  0  0  0
  -14.7968  -40.0451   -9.5173 C   0  0  0  0  0  0  0  0  0  0  0  0
  -14.1104  -38.7058   -9.8786 C   0  0  0  0  0  0  0  0  0  0  0  0
  -13.7466  -39.3891   -8.6097 C   0  0  0  0  0  0  0  0  0  0  0  0
  -14.4151  -41.1888  -10.3623 C   0  0  0  0  0  0  0  0  0  0  0  0
  -13.2894  -41.9342  -10.1155 C   0  0  0  0  0  0  0  0  0  0  0  0
  -12.9409  -43.0450  -10.9006 C   0  0  0  0  0  0  0  0  0  0  0  0
  -13.7509  -43.4081  -11.9595 C   0  0  0  0  0  0  0  0  0  0  0  0
  -14.8782  -42.6715  -12.2163 C   0  0  0  0  0  0  0  0  0  0  0  0
  -15.2007  -41.5680  -11.4148 C   0  0  0  0  0  0  0  0  0  0  0  0
  -11.7374  -43.8534  -10.6304 C   0  0  0  0  0  0  0  0  0  0  0  0
  -12.0615  -45.3268  -10.4978 C   0  0  0  0  0  0  0  0  0  0  0  0
  -10.7321  -43.6428  -11.7137 C   0  0  0  0  0  0  0  0  0  0  0  0
  -11.1505  -43.4160   -9.2892 C   0  0  0  0  0  0  0  0  0  0  0  0
  -17.8660  -45.6733   -6.8396 C   0  0  0  0  0  0  0  0  0  0  0  0
  -17.4940  -45.8938   -5.6821 O   0  0  0  0  0  0  0  0  0  0  0  0
  -17.3254  -46.4082   -7.9118 N   0  0  0  0  0  0  0  0  0  0  0  0
  -17.8196  -46.1690   -9.2486 C   0  0  0  0  0  0  0  0  0  0  0  0
  -16.2831  -47.4112   -7.7665 C   0  0  0  0  0  0  0  0  0  0  0  0
  2  1  1  1
  2  3  1  0
  3  4  1  0
  4  5  1  0
  5  6  1  0
  6  7  1  0
  7  8  1  0
  8  9  1  0
  9 10  1  0
 10 11  1  0
 11 12  1  0
 12 13  2  0
 13 14  1  0
 14 15  2  0
 15 16  1  0
 15 17  1  0
 17 18  2  0
 17 19  1  0
 19 20  1  0
 20 21  1  1
 20 22  1  0
 22 23  1  1
 22 24  1  0
 24 25  1  0
 25 26  1  0
 26 27  1  0
 27 28  1  0
 26 29  1  0
 29 30  2  0
 30 31  1  0
 31 32  2  0
 32 33  1  0
 33 34  2  0
 31 35  1  0
 35 36  1  0
 35 37  1  0
 35 38  1  0
 13 39  1  0
 39 40  2  0
 39 41  1  0
 41 42  1  0
 41 43  1  0
 16 11  2  0
 21  2  1  0
 28 26  1  0
 34 29  1  0
M  END
$$$$
