
     RDKit          3D

 43 46  0  0  0  0  0  0  0  0999 V2000
  -19.8878  -37.9179   -7.1413 C   0  0  0  0  0  0  0  0  0  0  0  0
  -19.8146  -39.3629   -6.6885 C   0  0  2  0  0  0  0  0  0  0  0  0
  -20.4097  -39.4188   -5.2983 C   0  0  0  0  0  0  0  0  0  0  0  0
  -21.9165  -39.1616   -5.4030 C   0  0  0  0  0  0  0  0  0  0  0  0
  -22.6951  -39.9930   -4.4080 C   0  0  0  0  0  0  0  0  0  0  0  0
  -23.4932  -41.0783   -5.0492 C   0  0  0  0  0  0  0  0  0  0  0  0
  -22.8731  -41.6226   -6.3142 C   0  0  0  0  0  0  0  0  0  0  0  0
  -23.2263  -43.0823   -6.5502 C   0  0  0  0  0  0  0  0  0  0  0  0
  -22.2409  -44.0099   -5.9204 C   0  0  0  0  0  0  0  0  0  0  0  0
  -21.3410  -44.6291   -6.8762 N   0  0  0  0  0  0  0  0  0  0  0  0
  -20.1649  -44.1497   -7.5269 C   0  0  0  0  0  0  0  0  0  0  0  0
  -19.1565  -45.1595   -7.4630 C   0  0  0  0  0  0  0  0  0  0  0  0
  -17.9091  -45.0217   -7.9823 C   0  0  0  0  0  0  0  0  0  0  0  0
  -17.6474  -43.8240   -8.5961 C   0  0  0  0  0  0  0  0  0  0  0  0
  -18.6035  -42.7786   -8.6951 C   0  0  0  0  0  0  0  0  0  0  0  0
  -19.8765  -42.9535   -8.1516 C   0  0  0  0  0  0  0  0  0  0  0  0
  -17.9931  -41.6434   -9.4010 C   0  0  0  0  0  0  0  0  0  0  0  0
  -17.3225  -41.9975  -10.4863 O   0  0  0  0  0  0  0  0  0  0  0  0
  -17.9635  -40.2507   -9.1732 N   0  0  0  0  0  0  0  0  0  0  0  0
  -17.6904  -39.4993   -8.0015 C   0  0  1  0  0  0  0  0  0  0  0  0
  -18.4119  -39.9062   -6.7573 C   0  0  0  0  0  0  0  0  0  0  0  0
  -16.2288  -39.3114   -7.6491 C   0  0  2  0  0  0  0  0  0  0  0  0
  -15.9777  -38.0579   -7.1400 O   0  0  0  0  0  0  0  0  0  0  0  0
  -15.3664  -39.4438   -8.9267 C   0  0  0  0  0  0  0  0  0  0  0  0
  -14.1782  -38.6865   -8.8156 N   0  0  0  0  0  0  0  0  0  0  0  0
  -13.5052  -38.3338  -10.0541 C   0  0  0  0  0  0  0  0  0  0  0  0
  -12.7282  -37.0102   -9.8546 C   0  0  0  0  0  0  0  0  0  0  0  0
  -11.9715  -38.2797  -10.0131 C   0  0  0  0  0  0  0  0  0  0  0  0
  -14.1938  -38.4631  -11.3490 C   0  0  0  0  0  0  0  0  0  0  0  0
  -13.6221  -38.0437  -12.5241 C   0  0  0  0  0  0  0  0  0  0  0  0
  -14.2635  -38.1956  -13.7640 C   0  0  0  0  0  0  0  0  0  0  0  0
  -15.5121  -38.7851  -13.8140 C   0  0  0  0  0  0  0  0  0  0  0  0
  -16.0938  -39.2083  -12.6470 C   0  0  0  0  0  0  0  0  0  0  0  0
  -15.4291  -39.0438  -11.4243 C   0  0  0  0  0  0  0  0  0  0  0  0
  -13.6460  -37.7551  -15.0288 C   0  0  0  0  0  0  0  0  0  0  0  0
  -13.2096  -36.3060  -14.9726 C   0  0  0  0  0  0  0  0  0  0  0  0
  -12.4824  -38.6310  -15.3563 C   0  0  0  0  0  0  0  0  0  0  0  0
  -14.6923  -37.8503  -16.1381 C   0  0  0  0  0  0  0  0  0  0  0  0
  -16.9252  -46.0889   -7.8888 C   0  0  0  0  0  0  0  0  0  0  0  0
  -17.1915  -47.2356   -8.2645 O   0  0  0  0  0  0  0  0  0  0  0  0
  -15.6550  -45.7917   -7.3593 N   0  0  0  0  0  0  0  0  0  0  0  0
  -15.3234  -44.4184   -7.0556 C   0  0  0  0  0  0  0  0  0  0  0  0
  -14.6324  -46.7895   -7.0906 C   0  0  0  0  0  0  0  0  0  0  0  0
  2  1  1  1
  2  3  1  0
  3  4  1  0
  4  5  1  0
  5  6  1  0
  6  7  1  0
  7  8  1  0
  8  9  1  0
  9 10  1  0
 10 11  1  0
 11 12  1  0
 12 13  2  0
 13 14  1  0
 14 15  2  0
 15 16  1  0
 15 17  1  0
 17 18  2  0
 17 19  1  0
 19 20  1  0
 20 21  1  1
 20 22  1  0
 22 23  1  6
 22 24  1  0
 24 25  1  0
 25 26  1  0
 26 27  1  0
 27 28  1  0
 26 29  1  0
 29 30  2  0
 30 31  1  0
 31 32  2  0
 32 33  1  0
 33 34  2  0
 31 35  1  0
 35 36  1  0
 35 37  1  0
 35 38  1  0
 13 39  1  0
 39 40  2  0
 39 41  1  0
 41 42  1  0
 41 43  1  0
 16 11  2  0
 21  2  1  0
 28 26  1  0
 34 29  1  0
M  END
$$$$
