
     RDKit          3D

 43 46  0  0  0  0  0  0  0  0999 V2000
  -20.9229  -38.1261   -6.8787 C   0  0  0  0  0  0  0  0  0  0  0  0
  -20.6497  -39.6014   -6.6611 C   0  0  2  0  0  0  0  0  0  0  0  0
  -21.1144  -39.9325   -5.2596 C   0  0  0  0  0  0  0  0  0  0  0  0
  -22.6440  -39.8514   -5.2219 C   0  0  0  0  0  0  0  0  0  0  0  0
  -23.2369  -40.9088   -4.3177 C   0  0  0  0  0  0  0  0  0  0  0  0
  -23.9598  -41.9794   -5.0642 C   0  0  0  0  0  0  0  0  0  0  0  0
  -23.3923  -42.2526   -6.4369 C   0  0  0  0  0  0  0  0  0  0  0  0
  -23.5982  -43.6946   -6.8718 C   0  0  0  0  0  0  0  0  0  0  0  0
  -22.4650  -44.5749   -6.4608 C   0  0  0  0  0  0  0  0  0  0  0  0
  -21.5858  -44.9320   -7.5591 N   0  0  0  0  0  0  0  0  0  0  0  0
  -20.5305  -44.2210   -8.2052 C   0  0  0  0  0  0  0  0  0  0  0  0
  -19.4134  -45.0967   -8.3661 C   0  0  0  0  0  0  0  0  0  0  0  0
  -18.2380  -44.7313   -8.9403 C   0  0  0  0  0  0  0  0  0  0  0  0
  -18.1655  -43.4338   -9.3774 C   0  0  0  0  0  0  0  0  0  0  0  0
  -19.2379  -42.5116   -9.2490 C   0  0  0  0  0  0  0  0  0  0  0  0
  -20.4324  -42.9202   -8.6550 C   0  0  0  0  0  0  0  0  0  0  0  0
  -18.8209  -41.2189   -9.8100 C   0  0  0  0  0  0  0  0  0  0  0  0
  -18.2096  -41.3253  -10.9795 O   0  0  0  0  0  0  0  0  0  0  0  0
  -18.9286  -39.8815   -9.3718 N   0  0  0  0  0  0  0  0  0  0  0  0
  -18.6429  -39.2809   -8.1188 C   0  0  1  0  0  0  0  0  0  0  0  0
  -19.2058  -39.9510   -6.9071 C   0  0  0  0  0  0  0  0  0  0  0  0
  -17.1870  -38.9670   -7.8405 C   0  0  2  0  0  0  0  0  0  0  0  0
  -17.0429  -38.0281   -6.8449 O   0  0  0  0  0  0  0  0  0  0  0  0
  -16.5356  -38.3628   -9.1070 C   0  0  0  0  0  0  0  0  0  0  0  0
  -15.6837  -39.3003   -9.7339 N   0  0  0  0  0  0  0  0  0  0  0  0
  -14.8018  -38.7955  -10.7723 C   0  0  0  0  0  0  0  0  0  0  0  0
  -15.6277  -38.5080  -12.0493 C   0  0  0  0  0  0  0  0  0  0  0  0
  -15.0722  -37.3692  -11.2721 C   0  0  0  0  0  0  0  0  0  0  0  0
  -13.4850  -39.4108  -11.0073 C   0  0  0  0  0  0  0  0  0  0  0  0
  -12.9226  -40.2919  -10.1178 C   0  0  0  0  0  0  0  0  0  0  0  0
  -11.6818  -40.9048  -10.3554 C   0  0  0  0  0  0  0  0  0  0  0  0
  -10.9954  -40.6178  -11.5197 C   0  0  0  0  0  0  0  0  0  0  0  0
  -11.5466  -39.7392  -12.4161 C   0  0  0  0  0  0  0  0  0  0  0  0
  -12.7873  -39.1434  -12.1520 C   0  0  0  0  0  0  0  0  0  0  0  0
  -11.0810  -41.8599   -9.4057 C   0  0  0  0  0  0  0  0  0  0  0  0
  -10.2206  -42.8909  -10.1058 C   0  0  0  0  0  0  0  0  0  0  0  0
  -10.2757  -41.1229   -8.3874 C   0  0  0  0  0  0  0  0  0  0  0  0
  -12.2058  -42.6300   -8.7157 C   0  0  0  0  0  0  0  0  0  0  0  0
  -17.1362  -45.6707   -9.0794 C   0  0  0  0  0  0  0  0  0  0  0  0
  -17.2337  -46.6634   -9.8088 O   0  0  0  0  0  0  0  0  0  0  0  0
  -15.9481  -45.4284   -8.3641 N   0  0  0  0  0  0  0  0  0  0  0  0
  -15.9780  -45.4597   -6.9196 C   0  0  0  0  0  0  0  0  0  0  0  0
  -14.6666  -45.1436   -8.9887 C   0  0  0  0  0  0  0  0  0  0  0  0
  2  1  1  1
  2  3  1  0
  3  4  1  0
  4  5  1  0
  5  6  1  0
  6  7  1  0
  7  8  1  0
  8  9  1  0
  9 10  1  0
 10 11  1  0
 11 12  1  0
 12 13  2  0
 13 14  1  0
 14 15  2  0
 15 16  1  0
 15 17  1  0
 17 18  2  0
 17 19  1  0
 19 20  1  0
 20 21  1  1
 20 22  1  0
 22 23  1  1
 22 24  1  0
 24 25  1  0
 25 26  1  0
 26 27  1  0
 27 28  1  0
 26 29  1  0
 29 30  2  0
 30 31  1  0
 31 32  2  0
 32 33  1  0
 33 34  2  0
 31 35  1  0
 35 36  1  0
 35 37  1  0
 35 38  1  0
 13 39  1  0
 39 40  2  0
 39 41  1  0
 41 42  1  0
 41 43  1  0
 16 11  2  0
 21  2  1  0
 28 26  1  0
 34 29  1  0
M  END
$$$$
