
     RDKit          3D

 43 46  0  0  0  0  0  0  0  0999 V2000
  -19.9586  -38.2122   -7.0199 C   0  0  0  0  0  0  0  0  0  0  0  0
  -20.1091  -39.6408   -6.5352 C   0  0  2  0  0  0  0  0  0  0  0  0
  -20.7329  -39.5745   -5.1581 C   0  0  0  0  0  0  0  0  0  0  0  0
  -22.1827  -39.1003   -5.3026 C   0  0  0  0  0  0  0  0  0  0  0  0
  -23.0951  -39.7832   -4.3084 C   0  0  0  0  0  0  0  0  0  0  0  0
  -24.0325  -40.7540   -4.9447 C   0  0  0  0  0  0  0  0  0  0  0  0
  -23.4754  -41.4144   -6.1834 C   0  0  0  0  0  0  0  0  0  0  0  0
  -24.0362  -42.8112   -6.3966 C   0  0  0  0  0  0  0  0  0  0  0  0
  -23.2116  -43.8586   -5.7250 C   0  0  0  0  0  0  0  0  0  0  0  0
  -22.3950  -44.6269   -6.6468 N   0  0  0  0  0  0  0  0  0  0  0  0
  -21.1483  -44.3423   -7.2804 C   0  0  0  0  0  0  0  0  0  0  0  0
  -20.3022  -45.4881   -7.1721 C   0  0  0  0  0  0  0  0  0  0  0  0
  -19.0382  -45.5486   -7.6656 C   0  0  0  0  0  0  0  0  0  0  0  0
  -18.5900  -44.4179   -8.2983 C   0  0  0  0  0  0  0  0  0  0  0  0
  -19.3786  -43.2455   -8.4412 C   0  0  0  0  0  0  0  0  0  0  0  0
  -20.6738  -43.2173   -7.9234 C   0  0  0  0  0  0  0  0  0  0  0  0
  -18.5930  -42.2303   -9.1567 C   0  0  0  0  0  0  0  0  0  0  0  0
  -17.9613  -42.7057  -10.2186 O   0  0  0  0  0  0  0  0  0  0  0  0
  -18.3619  -40.8522   -8.9577 N   0  0  0  0  0  0  0  0  0  0  0  0
  -18.0034  -40.1212   -7.7961 C   0  0  1  0  0  0  0  0  0  0  0  0
  -18.8013  -40.3869   -6.5604 C   0  0  0  0  0  0  0  0  0  0  0  0
  -16.5372  -40.1427   -7.4144 C   0  0  2  0  0  0  0  0  0  0  0  0
  -16.0238  -38.8747   -7.2667 O   0  0  0  0  0  0  0  0  0  0  0  0
  -15.7181  -40.8161   -8.5410 C   0  0  0  0  0  0  0  0  0  0  0  0
  -14.3439  -40.8556   -8.2129 N   0  0  0  0  0  0  0  0  0  0  0  0
  -13.4019  -40.7477   -9.3139 C   0  0  0  0  0  0  0  0  0  0  0  0
  -12.0218  -40.3123   -8.7650 C   0  0  0  0  0  0  0  0  0  0  0  0
  -12.1943  -41.6951   -9.2822 C   0  0  0  0  0  0  0  0  0  0  0  0
  -13.7959  -40.1141  -10.5832 C   0  0  0  0  0  0  0  0  0  0  0  0
  -14.2581  -40.8437  -11.6498 C   0  0  0  0  0  0  0  0  0  0  0  0
  -14.6649  -40.2385  -12.8499 C   0  0  0  0  0  0  0  0  0  0  0  0
  -14.6013  -38.8637  -12.9718 C   0  0  0  0  0  0  0  0  0  0  0  0
  -14.1412  -38.1238  -11.9134 C   0  0  0  0  0  0  0  0  0  0  0  0
  -13.7427  -38.7558  -10.7277 C   0  0  0  0  0  0  0  0  0  0  0  0
  -15.1719  -41.0201  -13.9932 C   0  0  0  0  0  0  0  0  0  0  0  0
  -14.1017  -41.2557  -15.0385 C   0  0  0  0  0  0  0  0  0  0  0  0
  -15.7185  -42.3236  -13.5130 C   0  0  0  0  0  0  0  0  0  0  0  0
  -16.2773  -40.2173  -14.6773 C   0  0  0  0  0  0  0  0  0  0  0  0
  -18.2253  -46.7469   -7.5272 C   0  0  0  0  0  0  0  0  0  0  0  0
  -17.7588  -47.0772   -6.4316 O   0  0  0  0  0  0  0  0  0  0  0  0
  -17.9768  -47.5299   -8.6705 N   0  0  0  0  0  0  0  0  0  0  0  0
  -18.4123  -47.0479   -9.9614 C   0  0  0  0  0  0  0  0  0  0  0  0
  -17.2986  -48.8155   -8.6439 C   0  0  0  0  0  0  0  0  0  0  0  0
  2  1  1  1
  2  3  1  0
  3  4  1  0
  4  5  1  0
  5  6  1  0
  6  7  1  0
  7  8  1  0
  8  9  1  0
  9 10  1  0
 10 11  1  0
 11 12  1  0
 12 13  2  0
 13 14  1  0
 14 15  2  0
 15 16  1  0
 15 17  1  0
 17 18  2  0
 17 19  1  0
 19 20  1  0
 20 21  1  1
 20 22  1  0
 22 23  1  6
 22 24  1  0
 24 25  1  0
 25 26  1  0
 26 27  1  0
 27 28  1  0
 26 29  1  0
 29 30  2  0
 30 31  1  0
 31 32  2  0
 32 33  1  0
 33 34  2  0
 31 35  1  0
 35 36  1  0
 35 37  1  0
 35 38  1  0
 13 39  1  0
 39 40  2  0
 39 41  1  0
 41 42  1  0
 41 43  1  0
 16 11  2  0
 21  2  1  0
 28 26  1  0
 34 29  1  0
M  END
$$$$
