
     RDKit          3D

 43 46  0  0  0  0  0  0  0  0999 V2000
  -19.5870  -38.0915   -5.6038 C   0  0  0  0  0  0  0  0  0  0  0  0
  -19.8319  -39.5720   -5.3882 C   0  0  2  0  0  0  0  0  0  0  0  0
  -20.2083  -39.7481   -3.9331 C   0  0  0  0  0  0  0  0  0  0  0  0
  -21.5919  -39.1292   -3.7098 C   0  0  0  0  0  0  0  0  0  0  0  0
  -22.4064  -39.9270   -2.7160 C   0  0  0  0  0  0  0  0  0  0  0  0
  -23.5485  -40.6532   -3.3439 C   0  0  0  0  0  0  0  0  0  0  0  0
  -23.2884  -41.0789   -4.7694 C   0  0  0  0  0  0  0  0  0  0  0  0
  -24.0454  -42.3431   -5.1432 C   0  0  0  0  0  0  0  0  0  0  0  0
  -23.2581  -43.5780   -4.8547 C   0  0  0  0  0  0  0  0  0  0  0  0
  -22.7053  -44.1992   -6.0444 N   0  0  0  0  0  0  0  0  0  0  0  0
  -21.5540  -43.8955   -6.8310 C   0  0  0  0  0  0  0  0  0  0  0  0
  -20.8502  -45.1072   -7.1081 C   0  0  0  0  0  0  0  0  0  0  0  0
  -19.7017  -45.1707   -7.8304 C   0  0  0  0  0  0  0  0  0  0  0  0
  -19.2267  -43.9742   -8.3021 C   0  0  0  0  0  0  0  0  0  0  0  0
  -19.8765  -42.7341   -8.0638 C   0  0  0  0  0  0  0  0  0  0  0  0
  -21.0556  -42.7046   -7.3186 C   0  0  0  0  0  0  0  0  0  0  0  0
  -19.0993  -41.6618   -8.7007 C   0  0  0  0  0  0  0  0  0  0  0  0
  -18.7142  -41.9519   -9.9337 O   0  0  0  0  0  0  0  0  0  0  0  0
  -18.6696  -40.3839   -8.2828 N   0  0  0  0  0  0  0  0  0  0  0  0
  -18.0375  -39.9529   -7.0882 C   0  0  1  0  0  0  0  0  0  0  0  0
  -18.6487  -40.4066   -5.8017 C   0  0  0  0  0  0  0  0  0  0  0  0
  -16.5427  -40.1838   -6.9978 C   0  0  2  0  0  0  0  0  0  0  0  0
  -16.0278  -39.7643   -5.7927 O   0  0  0  0  0  0  0  0  0  0  0  0
  -15.8237  -39.3575   -8.0904 C   0  0  0  0  0  0  0  0  0  0  0  0
  -15.5385  -40.1550   -9.2219 N   0  0  0  0  0  0  0  0  0  0  0  0
  -14.7279  -39.5500  -10.2651 C   0  0  0  0  0  0  0  0  0  0  0  0
  -13.3446  -39.1719   -9.6829 C   0  0  0  0  0  0  0  0  0  0  0  0
  -13.4418  -40.2920  -10.6551 C   0  0  0  0  0  0  0  0  0  0  0  0
  -15.3060  -38.5613  -11.1903 C   0  0  0  0  0  0  0  0  0  0  0  0
  -14.5249  -37.6918  -11.9096 C   0  0  0  0  0  0  0  0  0  0  0  0
  -15.0720  -36.7701  -12.8167 C   0  0  0  0  0  0  0  0  0  0  0  0
  -16.4411  -36.7283  -12.9984 C   0  0  0  0  0  0  0  0  0  0  0  0
  -17.2322  -37.5917  -12.2856 C   0  0  0  0  0  0  0  0  0  0  0  0
  -16.6574  -38.5012  -11.3877 C   0  0  0  0  0  0  0  0  0  0  0  0
  -14.2334  -35.8423  -13.5984 C   0  0  0  0  0  0  0  0  0  0  0  0
  -15.0639  -34.8249  -14.3524 C   0  0  0  0  0  0  0  0  0  0  0  0
  -13.2666  -35.1505  -12.6955 C   0  0  0  0  0  0  0  0  0  0  0  0
  -13.4721  -36.6466  -14.6510 C   0  0  0  0  0  0  0  0  0  0  0  0
  -19.0320  -46.4371   -8.0826 C   0  0  0  0  0  0  0  0  0  0  0  0
  -19.6740  -47.4471   -8.3903 O   0  0  0  0  0  0  0  0  0  0  0  0
  -17.6298  -46.4935   -7.9695 N   0  0  0  0  0  0  0  0  0  0  0  0
  -16.9511  -47.7382   -8.2496 C   0  0  0  0  0  0  0  0  0  0  0  0
  -16.7991  -45.3647   -7.5833 C   0  0  0  0  0  0  0  0  0  0  0  0
  2  1  1  1
  2  3  1  0
  3  4  1  0
  4  5  1  0
  5  6  1  0
  6  7  1  0
  7  8  1  0
  8  9  1  0
  9 10  1  0
 10 11  1  0
 11 12  1  0
 12 13  2  0
 13 14  1  0
 14 15  2  0
 15 16  1  0
 15 17  1  0
 17 18  2  0
 17 19  1  0
 19 20  1  0
 20 21  1  1
 20 22  1  0
 22 23  1  1
 22 24  1  0
 24 25  1  0
 25 26  1  0
 26 27  1  0
 27 28  1  0
 26 29  1  0
 29 30  2  0
 30 31  1  0
 31 32  2  0
 32 33  1  0
 33 34  2  0
 31 35  1  0
 35 36  1  0
 35 37  1  0
 35 38  1  0
 13 39  1  0
 39 40  2  0
 39 41  1  0
 41 42  1  0
 41 43  1  0
 16 11  2  0
 21  2  1  0
 28 26  1  0
 34 29  1  0
M  END
$$$$
