
     RDKit          3D

 43 46  0  0  0  0  0  0  0  0999 V2000
  -19.0957  -37.3444   -7.6183 C   0  0  0  0  0  0  0  0  0  0  0  0
  -19.5107  -38.6472   -6.9633 C   0  0  2  0  0  0  0  0  0  0  0  0
  -20.1446  -38.2898   -5.6365 C   0  0  0  0  0  0  0  0  0  0  0  0
  -21.4823  -37.5937   -5.9077 C   0  0  0  0  0  0  0  0  0  0  0  0
  -22.5252  -37.9680   -4.8784 C   0  0  0  0  0  0  0  0  0  0  0  0
  -23.6061  -38.8366   -5.4290 C   0  0  0  0  0  0  0  0  0  0  0  0
  -23.1474  -39.7434   -6.5463 C   0  0  0  0  0  0  0  0  0  0  0  0
  -23.9441  -41.0367   -6.6059 C   0  0  0  0  0  0  0  0  0  0  0  0
  -23.3363  -42.1127   -5.7688 C   0  0  0  0  0  0  0  0  0  0  0  0
  -22.6491  -43.1277   -6.5462 N   0  0  0  0  0  0  0  0  0  0  0  0
  -21.3572  -43.1521   -7.1520 C   0  0  0  0  0  0  0  0  0  0  0  0
  -20.7326  -44.4030   -6.8594 C   0  0  0  0  0  0  0  0  0  0  0  0
  -19.4887  -44.7484   -7.2816 C   0  0  0  0  0  0  0  0  0  0  0  0
  -18.8306  -43.8079   -8.0314 C   0  0  0  0  0  0  0  0  0  0  0  0
  -19.3930  -42.5457   -8.3590 C   0  0  0  0  0  0  0  0  0  0  0  0
  -20.6741  -42.2232   -7.9100 C   0  0  0  0  0  0  0  0  0  0  0  0
  -18.4220  -41.7878   -9.1604 C   0  0  0  0  0  0  0  0  0  0  0  0
  -17.8609  -42.5035  -10.1225 O   0  0  0  0  0  0  0  0  0  0  0  0
  -17.9526  -40.4571   -9.1277 N   0  0  0  0  0  0  0  0  0  0  0  0
  -17.4962  -39.6513   -8.0532 C   0  0  1  0  0  0  0  0  0  0  0  0
  -18.3574  -39.6064   -6.8323 C   0  0  0  0  0  0  0  0  0  0  0  0
  -16.0669  -39.8771   -7.6038 C   0  0  2  0  0  0  0  0  0  0  0  0
  -15.1811  -39.0644   -8.2733 O   0  0  0  0  0  0  0  0  0  0  0  0
  -15.6478  -41.3324   -7.9201 C   0  0  0  0  0  0  0  0  0  0  0  0
  -15.7821  -41.6090   -9.2996 N   0  0  0  0  0  0  0  0  0  0  0  0
  -14.7551  -42.4382   -9.9068 C   0  0  0  0  0  0  0  0  0  0  0  0
  -13.8924  -41.5709  -10.8552 C   0  0  0  0  0  0  0  0  0  0  0  0
  -13.2982  -42.0732   -9.5887 C   0  0  0  0  0  0  0  0  0  0  0  0
  -15.0740  -43.7842  -10.4108 C   0  0  0  0  0  0  0  0  0  0  0  0
  -16.3547  -44.1577  -10.7333 C   0  0  0  0  0  0  0  0  0  0  0  0
  -16.6564  -45.4302  -11.2447 C   0  0  0  0  0  0  0  0  0  0  0  0
  -15.6378  -46.3446  -11.4330 C   0  0  0  0  0  0  0  0  0  0  0  0
  -14.3542  -45.9835  -11.1146 C   0  0  0  0  0  0  0  0  0  0  0  0
  -14.0834  -44.7058  -10.6065 C   0  0  0  0  0  0  0  0  0  0  0  0
  -18.0306  -45.8295  -11.6016 C   0  0  0  0  0  0  0  0  0  0  0  0
  -18.4151  -47.1564  -10.9812 C   0  0  0  0  0  0  0  0  0  0  0  0
  -18.9918  -44.7671  -11.1822 C   0  0  0  0  0  0  0  0  0  0  0  0
  -18.1018  -46.0217  -13.1157 C   0  0  0  0  0  0  0  0  0  0  0  0
  -18.9069  -46.0407   -6.9541 C   0  0  0  0  0  0  0  0  0  0  0  0
  -19.4141  -47.0901   -7.3644 O   0  0  0  0  0  0  0  0  0  0  0  0
  -17.7477  -46.0764   -6.1558 N   0  0  0  0  0  0  0  0  0  0  0  0
  -17.2759  -47.3481   -5.6574 C   0  0  0  0  0  0  0  0  0  0  0  0
  -16.9756  -44.9001   -5.7903 C   0  0  0  0  0  0  0  0  0  0  0  0
  2  1  1  1
  2  3  1  0
  3  4  1  0
  4  5  1  0
  5  6  1  0
  6  7  1  0
  7  8  1  0
  8  9  1  0
  9 10  1  0
 10 11  1  0
 11 12  1  0
 12 13  2  0
 13 14  1  0
 14 15  2  0
 15 16  1  0
 15 17  1  0
 17 18  2  0
 17 19  1  0
 19 20  1  0
 20 21  1  1
 20 22  1  0
 22 23  1  6
 22 24  1  0
 24 25  1  0
 25 26  1  0
 26 27  1  0
 27 28  1  0
 26 29  1  0
 29 30  2  0
 30 31  1  0
 31 32  2  0
 32 33  1  0
 33 34  2  0
 31 35  1  0
 35 36  1  0
 35 37  1  0
 35 38  1  0
 13 39  1  0
 39 40  2  0
 39 41  1  0
 41 42  1  0
 41 43  1  0
 16 11  2  0
 21  2  1  0
 28 26  1  0
 34 29  1  0
M  END
$$$$
