
     RDKit          3D

 43 46  0  0  0  0  0  0  0  0999 V2000
  -19.5280  -37.3051   -7.2733 C   0  0  0  0  0  0  0  0  0  0  0  0
  -19.8913  -38.7472   -6.9787 C   0  0  2  0  0  0  0  0  0  0  0  0
  -20.7139  -38.7427   -5.7085 C   0  0  0  0  0  0  0  0  0  0  0  0
  -22.0698  -38.0954   -6.0088 C   0  0  0  0  0  0  0  0  0  0  0  0
  -23.1891  -38.7624   -5.2410 C   0  0  0  0  0  0  0  0  0  0  0  0
  -24.1053  -39.5551   -6.1116 C   0  0  0  0  0  0  0  0  0  0  0  0
  -23.4279  -40.1528   -7.3219 C   0  0  0  0  0  0  0  0  0  0  0  0
  -24.0820  -41.4501   -7.7696 C   0  0  0  0  0  0  0  0  0  0  0  0
  -23.4791  -42.6437   -7.1064 C   0  0  0  0  0  0  0  0  0  0  0  0
  -22.6069  -43.4080   -7.9795 N   0  0  0  0  0  0  0  0  0  0  0  0
  -21.2546  -43.2073   -8.3887 C   0  0  0  0  0  0  0  0  0  0  0  0
  -20.5518  -44.4468   -8.2872 C   0  0  0  0  0  0  0  0  0  0  0  0
  -19.2381  -44.6028   -8.5947 C   0  0  0  0  0  0  0  0  0  0  0  0
  -18.5880  -43.4749   -9.0249 C   0  0  0  0  0  0  0  0  0  0  0  0
  -19.2262  -42.2123   -9.1491 C   0  0  0  0  0  0  0  0  0  0  0  0
  -20.5776  -42.0871   -8.8257 C   0  0  0  0  0  0  0  0  0  0  0  0
  -18.2429  -41.2290   -9.6243 C   0  0  0  0  0  0  0  0  0  0  0  0
  -17.5019  -41.6692  -10.6293 O   0  0  0  0  0  0  0  0  0  0  0  0
  -17.9125  -39.9115   -9.2408 N   0  0  0  0  0  0  0  0  0  0  0  0
  -17.6709  -39.3404   -7.9649 C   0  0  1  0  0  0  0  0  0  0  0  0
  -18.6749  -39.6310   -6.8963 C   0  0  0  0  0  0  0  0  0  0  0  0
  -16.2920  -39.5647   -7.3784 C   0  0  2  0  0  0  0  0  0  0  0  0
  -16.0625  -38.7680   -6.2802 O   0  0  0  0  0  0  0  0  0  0  0  0
  -15.2162  -39.1863   -8.4239 C   0  0  0  0  0  0  0  0  0  0  0  0
  -15.0494  -40.2189   -9.3744 N   0  0  0  0  0  0  0  0  0  0  0  0
  -13.7801  -40.2639  -10.0801 C   0  0  0  0  0  0  0  0  0  0  0  0
  -12.7008  -40.8726   -9.1526 C   0  0  0  0  0  0  0  0  0  0  0  0
  -13.1767  -41.6545  -10.3238 C   0  0  0  0  0  0  0  0  0  0  0  0
  -13.3302  -39.1231  -10.8949 C   0  0  0  0  0  0  0  0  0  0  0  0
  -14.0638  -37.9679  -11.0003 C   0  0  0  0  0  0  0  0  0  0  0  0
  -13.6211  -36.8666  -11.7506 C   0  0  0  0  0  0  0  0  0  0  0  0
  -12.4084  -36.9378  -12.4090 C   0  0  0  0  0  0  0  0  0  0  0  0
  -11.6663  -38.0864  -12.3115 C   0  0  0  0  0  0  0  0  0  0  0  0
  -12.1338  -39.1693  -11.5547 C   0  0  0  0  0  0  0  0  0  0  0  0
  -14.4031  -35.6207  -11.8563 C   0  0  0  0  0  0  0  0  0  0  0  0
  -15.8602  -35.8902  -12.1691 C   0  0  0  0  0  0  0  0  0  0  0  0
  -14.2843  -34.8392  -10.5900 C   0  0  0  0  0  0  0  0  0  0  0  0
  -13.8536  -34.8008  -13.0226 C   0  0  0  0  0  0  0  0  0  0  0  0
  -18.5778  -45.8933   -8.4743 C   0  0  0  0  0  0  0  0  0  0  0  0
  -18.2002  -46.5116   -9.4753 O   0  0  0  0  0  0  0  0  0  0  0  0
  -18.3746  -46.4303   -7.1889 N   0  0  0  0  0  0  0  0  0  0  0  0
  -17.5230  -47.5879   -7.0368 C   0  0  0  0  0  0  0  0  0  0  0  0
  -18.9728  -45.8912   -5.9785 C   0  0  0  0  0  0  0  0  0  0  0  0
  2  1  1  1
  2  3  1  0
  3  4  1  0
  4  5  1  0
  5  6  1  0
  6  7  1  0
  7  8  1  0
  8  9  1  0
  9 10  1  0
 10 11  1  0
 11 12  1  0
 12 13  2  0
 13 14  1  0
 14 15  2  0
 15 16  1  0
 15 17  1  0
 17 18  2  0
 17 19  1  0
 19 20  1  0
 20 21  1  1
 20 22  1  0
 22 23  1  1
 22 24  1  0
 24 25  1  0
 25 26  1  0
 26 27  1  0
 27 28  1  0
 26 29  1  0
 29 30  2  0
 30 31  1  0
 31 32  2  0
 32 33  1  0
 33 34  2  0
 31 35  1  0
 35 36  1  0
 35 37  1  0
 35 38  1  0
 13 39  1  0
 39 40  2  0
 39 41  1  0
 41 42  1  0
 41 43  1  0
 16 11  2  0
 21  2  1  0
 28 26  1  0
 34 29  1  0
M  END
$$$$
