
     RDKit          3D

 43 46  0  0  0  0  0  0  0  0999 V2000
  -19.5871  -37.8368   -7.8014 C   0  0  0  0  0  0  0  0  0  0  0  0
  -19.8130  -39.1362   -7.0538 C   0  0  2  0  0  0  0  0  0  0  0  0
  -20.4568  -38.7769   -5.7323 C   0  0  0  0  0  0  0  0  0  0  0  0
  -21.8799  -38.2784   -6.0037 C   0  0  0  0  0  0  0  0  0  0  0  0
  -22.8406  -38.7154   -4.9204 C   0  0  0  0  0  0  0  0  0  0  0  0
  -23.8114  -39.7504   -5.3813 C   0  0  0  0  0  0  0  0  0  0  0  0
  -23.2645  -40.6621   -6.4539 C   0  0  0  0  0  0  0  0  0  0  0  0
  -23.8866  -42.0484   -6.4077 C   0  0  0  0  0  0  0  0  0  0  0  0
  -23.1239  -42.9796   -5.5250 C   0  0  0  0  0  0  0  0  0  0  0  0
  -22.3283  -43.9466   -6.2591 N   0  0  0  0  0  0  0  0  0  0  0  0
  -21.0589  -43.8441   -6.9029 C   0  0  0  0  0  0  0  0  0  0  0  0
  -20.2695  -44.9821   -6.5531 C   0  0  0  0  0  0  0  0  0  0  0  0
  -19.0014  -45.1913   -6.9923 C   0  0  0  0  0  0  0  0  0  0  0  0
  -18.4896  -44.2253   -7.8198 C   0  0  0  0  0  0  0  0  0  0  0  0
  -19.2196  -43.0704   -8.2072 C   0  0  0  0  0  0  0  0  0  0  0  0
  -20.5209  -42.8868   -7.7386 C   0  0  0  0  0  0  0  0  0  0  0  0
  -18.3750  -42.2481   -9.0847 C   0  0  0  0  0  0  0  0  0  0  0  0
  -17.7479  -42.9473  -10.0178 O   0  0  0  0  0  0  0  0  0  0  0  0
  -18.0828  -40.8687   -9.1499 N   0  0  0  0  0  0  0  0  0  0  0  0
  -17.7105  -39.9419   -8.1426 C   0  0  1  0  0  0  0  0  0  0  0  0
  -18.5415  -39.9281   -6.9001 C   0  0  0  0  0  0  0  0  0  0  0  0
  -16.2538  -39.9515   -7.7257 C   0  0  2  0  0  0  0  0  0  0  0  0
  -15.9076  -38.8135   -7.0340 O   0  0  0  0  0  0  0  0  0  0  0  0
  -15.3548  -39.9873   -8.9842 C   0  0  0  0  0  0  0  0  0  0  0  0
  -14.1141  -40.6028   -8.7022 N   0  0  0  0  0  0  0  0  0  0  0  0
  -13.2340  -40.8552   -9.8303 C   0  0  0  0  0  0  0  0  0  0  0  0
  -12.0281  -41.7029   -9.3583 C   0  0  0  0  0  0  0  0  0  0  0  0
  -13.0485  -42.3219  -10.2443 C   0  0  0  0  0  0  0  0  0  0  0  0
  -12.9066  -39.7833  -10.7850 C   0  0  0  0  0  0  0  0  0  0  0  0
  -13.6313  -38.6197  -10.8517 C   0  0  0  0  0  0  0  0  0  0  0  0
  -13.3011  -37.5826  -11.7390 C   0  0  0  0  0  0  0  0  0  0  0  0
  -12.2127  -37.7283  -12.5776 C   0  0  0  0  0  0  0  0  0  0  0  0
  -11.4808  -38.8861  -12.5206 C   0  0  0  0  0  0  0  0  0  0  0  0
  -11.8342  -39.9037  -11.6242 C   0  0  0  0  0  0  0  0  0  0  0  0
  -14.0724  -36.3273  -11.8045 C   0  0  0  0  0  0  0  0  0  0  0  0
  -15.5598  -36.5813  -11.9328 C   0  0  0  0  0  0  0  0  0  0  0  0
  -13.7940  -35.4982  -10.5947 C   0  0  0  0  0  0  0  0  0  0  0  0
  -13.6525  -35.5652  -13.0604 C   0  0  0  0  0  0  0  0  0  0  0  0
  -18.2482  -46.3734   -6.6037 C   0  0  0  0  0  0  0  0  0  0  0  0
  -17.7179  -46.4535   -5.4904 O   0  0  0  0  0  0  0  0  0  0  0  0
  -18.1324  -47.4328   -7.5237 N   0  0  0  0  0  0  0  0  0  0  0  0
  -18.4863  -47.2056   -8.9062 C   0  0  0  0  0  0  0  0  0  0  0  0
  -17.6719  -48.7667   -7.1740 C   0  0  0  0  0  0  0  0  0  0  0  0
  2  1  1  1
  2  3  1  0
  3  4  1  0
  4  5  1  0
  5  6  1  0
  6  7  1  0
  7  8  1  0
  8  9  1  0
  9 10  1  0
 10 11  1  0
 11 12  1  0
 12 13  2  0
 13 14  1  0
 14 15  2  0
 15 16  1  0
 15 17  1  0
 17 18  2  0
 17 19  1  0
 19 20  1  0
 20 21  1  1
 20 22  1  0
 22 23  1  6
 22 24  1  0
 24 25  1  0
 25 26  1  0
 26 27  1  0
 27 28  1  0
 26 29  1  0
 29 30  2  0
 30 31  1  0
 31 32  2  0
 32 33  1  0
 33 34  2  0
 31 35  1  0
 35 36  1  0
 35 37  1  0
 35 38  1  0
 13 39  1  0
 39 40  2  0
 39 41  1  0
 41 42  1  0
 41 43  1  0
 16 11  2  0
 21  2  1  0
 28 26  1  0
 34 29  1  0
M  END
$$$$
