
     RDKit          3D

 43 46  0  0  0  0  0  0  0  0999 V2000
  -19.3206  -37.6271   -7.3899 C   0  0  0  0  0  0  0  0  0  0  0  0
  -19.6074  -39.0099   -6.8384 C   0  0  2  0  0  0  0  0  0  0  0  0
  -20.1573  -38.8206   -5.4413 C   0  0  0  0  0  0  0  0  0  0  0  0
  -21.5502  -38.1913   -5.5475 C   0  0  0  0  0  0  0  0  0  0  0  0
  -22.4873  -38.7279   -4.4887 C   0  0  0  0  0  0  0  0  0  0  0  0
  -23.5548  -39.6100   -5.0440 C   0  0  0  0  0  0  0  0  0  0  0  0
  -23.1311  -40.3762   -6.2746 C   0  0  0  0  0  0  0  0  0  0  0  0
  -23.8531  -41.7077   -6.4044 C   0  0  0  0  0  0  0  0  0  0  0  0
  -23.1209  -42.8152   -5.7222 C   0  0  0  0  0  0  0  0  0  0  0  0
  -22.4373  -43.7058   -6.6422 N   0  0  0  0  0  0  0  0  0  0  0  0
  -21.1965  -43.5886   -7.3373 C   0  0  0  0  0  0  0  0  0  0  0  0
  -20.4793  -44.8178   -7.2140 C   0  0  0  0  0  0  0  0  0  0  0  0
  -19.2534  -45.0399   -7.7550 C   0  0  0  0  0  0  0  0  0  0  0  0
  -18.7109  -43.9923   -8.4536 C   0  0  0  0  0  0  0  0  0  0  0  0
  -19.3696  -42.7445   -8.6150 C   0  0  0  0  0  0  0  0  0  0  0  0
  -20.6290  -42.5501   -8.0469 C   0  0  0  0  0  0  0  0  0  0  0  0
  -18.5089  -41.8529   -9.4048 C   0  0  0  0  0  0  0  0  0  0  0  0
  -17.9825  -42.4372  -10.4699 O   0  0  0  0  0  0  0  0  0  0  0  0
  -18.1169  -40.5032   -9.2749 N   0  0  0  0  0  0  0  0  0  0  0  0
  -17.6272  -39.7735   -8.1614 C   0  0  1  0  0  0  0  0  0  0  0  0
  -18.3933  -39.8996   -6.8842 C   0  0  0  0  0  0  0  0  0  0  0  0
  -16.1568  -39.9462   -7.8388 C   0  0  2  0  0  0  0  0  0  0  0  0
  -15.7111  -39.0024   -6.9421 O   0  0  0  0  0  0  0  0  0  0  0  0
  -15.3181  -39.7561   -9.1248 C   0  0  0  0  0  0  0  0  0  0  0  0
  -15.0208  -41.0015   -9.7234 N   0  0  0  0  0  0  0  0  0  0  0  0
  -14.1343  -40.9826  -10.8744 C   0  0  0  0  0  0  0  0  0  0  0  0
  -13.5833  -42.4082  -11.1187 C   0  0  0  0  0  0  0  0  0  0  0  0
  -14.5563  -41.8307  -12.0826 C   0  0  0  0  0  0  0  0  0  0  0  0
  -13.1560  -39.8971  -11.0542 C   0  0  0  0  0  0  0  0  0  0  0  0
  -13.5383  -38.5862  -11.1921 C   0  0  0  0  0  0  0  0  0  0  0  0
  -12.6057  -37.5457  -11.3312 C   0  0  0  0  0  0  0  0  0  0  0  0
  -11.2557  -37.8403  -11.3309 C   0  0  0  0  0  0  0  0  0  0  0  0
  -10.8611  -39.1461  -11.1939 C   0  0  0  0  0  0  0  0  0  0  0  0
  -11.8151  -40.1633  -11.0563 C   0  0  0  0  0  0  0  0  0  0  0  0
  -13.0145  -36.1354  -11.4688 C   0  0  0  0  0  0  0  0  0  0  0  0
  -14.0773  -35.9540  -12.5324 C   0  0  0  0  0  0  0  0  0  0  0  0
  -13.5058  -35.6201  -10.1567 C   0  0  0  0  0  0  0  0  0  0  0  0
  -11.8035  -35.3216  -11.9225 C   0  0  0  0  0  0  0  0  0  0  0  0
  -18.5737  -46.3163   -7.5980 C   0  0  0  0  0  0  0  0  0  0  0  0
  -18.1900  -46.7015   -6.4884 O   0  0  0  0  0  0  0  0  0  0  0  0
  -18.3585  -47.1115   -8.7397 N   0  0  0  0  0  0  0  0  0  0  0  0
  -18.7947  -46.6246  -10.0285 C   0  0  0  0  0  0  0  0  0  0  0  0
  -17.7147  -48.4147   -8.7133 C   0  0  0  0  0  0  0  0  0  0  0  0
  2  1  1  1
  2  3  1  0
  3  4  1  0
  4  5  1  0
  5  6  1  0
  6  7  1  0
  7  8  1  0
  8  9  1  0
  9 10  1  0
 10 11  1  0
 11 12  1  0
 12 13  2  0
 13 14  1  0
 14 15  2  0
 15 16  1  0
 15 17  1  0
 17 18  2  0
 17 19  1  0
 19 20  1  0
 20 21  1  1
 20 22  1  0
 22 23  1  1
 22 24  1  0
 24 25  1  0
 25 26  1  0
 26 27  1  0
 27 28  1  0
 26 29  1  0
 29 30  2  0
 30 31  1  0
 31 32  2  0
 32 33  1  0
 33 34  2  0
 31 35  1  0
 35 36  1  0
 35 37  1  0
 35 38  1  0
 13 39  1  0
 39 40  2  0
 39 41  1  0
 41 42  1  0
 41 43  1  0
 16 11  2  0
 21  2  1  0
 28 26  1  0
 34 29  1  0
M  END
$$$$
