
     RDKit          3D

 43 46  0  0  0  0  0  0  0  0999 V2000
  -19.6321  -37.6385   -7.2028 C   0  0  0  0  0  0  0  0  0  0  0  0
  -20.0667  -39.0602   -6.9060 C   0  0  2  0  0  0  0  0  0  0  0  0
  -20.9701  -38.9998   -5.6934 C   0  0  0  0  0  0  0  0  0  0  0  0
  -22.2786  -38.3113   -6.0950 C   0  0  0  0  0  0  0  0  0  0  0  0
  -23.4696  -38.9219   -5.3907 C   0  0  0  0  0  0  0  0  0  0  0  0
  -24.3552  -39.6999   -6.3052 C   0  0  0  0  0  0  0  0  0  0  0  0
  -23.6224  -40.3466   -7.4566 C   0  0  0  0  0  0  0  0  0  0  0  0
  -24.2929  -41.6290   -7.9222 C   0  0  0  0  0  0  0  0  0  0  0  0
  -23.7791  -42.8290   -7.1983 C   0  0  0  0  0  0  0  0  0  0  0  0
  -22.8802  -43.6419   -7.9971 N   0  0  0  0  0  0  0  0  0  0  0  0
  -21.4975  -43.4981   -8.3195 C   0  0  0  0  0  0  0  0  0  0  0  0
  -20.8488  -44.7592   -8.1484 C   0  0  0  0  0  0  0  0  0  0  0  0
  -19.5244  -44.9681   -8.3652 C   0  0  0  0  0  0  0  0  0  0  0  0
  -18.8065  -43.8733   -8.7723 C   0  0  0  0  0  0  0  0  0  0  0  0
  -19.3884  -42.5918   -8.9622 C   0  0  0  0  0  0  0  0  0  0  0  0
  -20.7526  -42.4119   -8.7315 C   0  0  0  0  0  0  0  0  0  0  0  0
  -18.3406  -41.6542   -9.3896 C   0  0  0  0  0  0  0  0  0  0  0  0
  -17.5519  -42.1414  -10.3347 O   0  0  0  0  0  0  0  0  0  0  0  0
  -17.9878  -40.3414   -9.0097 N   0  0  0  0  0  0  0  0  0  0  0  0
  -17.8097  -39.7524   -7.7315 C   0  0  1  0  0  0  0  0  0  0  0  0
  -18.8916  -39.9846   -6.7266 C   0  0  0  0  0  0  0  0  0  0  0  0
  -16.4813  -40.0130   -7.0508 C   0  0  2  0  0  0  0  0  0  0  0  0
  -15.9698  -38.8773   -6.4659 O   0  0  0  0  0  0  0  0  0  0  0  0
  -15.4410  -40.4686   -8.1014 C   0  0  0  0  0  0  0  0  0  0  0  0
  -14.2412  -39.7320   -7.9776 N   0  0  0  0  0  0  0  0  0  0  0  0
  -13.4284  -39.5936   -9.1740 C   0  0  0  0  0  0  0  0  0  0  0  0
  -11.9335  -39.5544   -8.7747 C   0  0  0  0  0  0  0  0  0  0  0  0
  -12.4636  -40.7458   -9.4881 C   0  0  0  0  0  0  0  0  0  0  0  0
  -13.8130  -38.6557  -10.2418 C   0  0  0  0  0  0  0  0  0  0  0  0
  -12.8849  -38.0634  -11.0613 C   0  0  0  0  0  0  0  0  0  0  0  0
  -13.2519  -37.1939  -12.1011 C   0  0  0  0  0  0  0  0  0  0  0  0
  -14.5889  -36.9181  -12.3146 C   0  0  0  0  0  0  0  0  0  0  0  0
  -15.5256  -37.5036  -11.5027 C   0  0  0  0  0  0  0  0  0  0  0  0
  -15.1292  -38.3679  -10.4732 C   0  0  0  0  0  0  0  0  0  0  0  0
  -12.2567  -36.5648  -12.9893 C   0  0  0  0  0  0  0  0  0  0  0  0
  -12.5872  -36.7770  -14.4519 C   0  0  0  0  0  0  0  0  0  0  0  0
  -12.1609  -35.1056  -12.6894 C   0  0  0  0  0  0  0  0  0  0  0  0
  -10.9029  -37.2312  -12.7494 C   0  0  0  0  0  0  0  0  0  0  0  0
  -18.9213  -46.2783   -8.1771 C   0  0  0  0  0  0  0  0  0  0  0  0
  -19.2587  -47.2410   -8.8745 O   0  0  0  0  0  0  0  0  0  0  0  0
  -17.9396  -46.4328   -7.1799 N   0  0  0  0  0  0  0  0  0  0  0  0
  -17.3617  -47.7386   -6.9581 C   0  0  0  0  0  0  0  0  0  0  0  0
  -17.4557  -45.3490   -6.3405 C   0  0  0  0  0  0  0  0  0  0  0  0
  2  1  1  1
  2  3  1  0
  3  4  1  0
  4  5  1  0
  5  6  1  0
  6  7  1  0
  7  8  1  0
  8  9  1  0
  9 10  1  0
 10 11  1  0
 11 12  1  0
 12 13  2  0
 13 14  1  0
 14 15  2  0
 15 16  1  0
 15 17  1  0
 17 18  2  0
 17 19  1  0
 19 20  1  0
 20 21  1  1
 20 22  1  0
 22 23  1  6
 22 24  1  0
 24 25  1  0
 25 26  1  0
 26 27  1  0
 27 28  1  0
 26 29  1  0
 29 30  2  0
 30 31  1  0
 31 32  2  0
 32 33  1  0
 33 34  2  0
 31 35  1  0
 35 36  1  0
 35 37  1  0
 35 38  1  0
 13 39  1  0
 39 40  2  0
 39 41  1  0
 41 42  1  0
 41 43  1  0
 16 11  2  0
 21  2  1  0
 28 26  1  0
 34 29  1  0
M  END
$$$$
