
     RDKit          3D

 43 46  0  0  0  0  0  0  0  0999 V2000
  -13.1776  -39.6633   -9.9538 C   0  0  0  0  0  0  0  0  0  0  0  0
  -14.2244  -40.6349  -10.4624 C   0  0  2  0  0  0  0  0  0  0  0  0
  -14.0070  -40.7747  -11.9535 C   0  0  0  0  0  0  0  0  0  0  0  0
  -12.6917  -41.5254  -12.1855 C   0  0  0  0  0  0  0  0  0  0  0  0
  -12.7786  -42.4472  -13.3814 C   0  0  0  0  0  0  0  0  0  0  0  0
  -12.7841  -43.8917  -13.0082 C   0  0  0  0  0  0  0  0  0  0  0  0
  -13.4234  -44.1711  -11.6688 C   0  0  0  0  0  0  0  0  0  0  0  0
  -14.0615  -45.5495  -11.6083 C   0  0  0  0  0  0  0  0  0  0  0  0
  -15.4882  -45.5303  -12.0467 C   0  0  0  0  0  0  0  0  0  0  0  0
  -16.4298  -45.6350  -10.9470 N   0  0  0  0  0  0  0  0  0  0  0  0
  -16.9168  -44.6710  -10.0143 C   0  0  0  0  0  0  0  0  0  0  0  0
  -18.3342  -44.8099   -9.9029 C   0  0  0  0  0  0  0  0  0  0  0  0
  -19.1128  -44.0377   -9.1015 C   0  0  0  0  0  0  0  0  0  0  0  0
  -18.4546  -43.0801   -8.3737 C   0  0  0  0  0  0  0  0  0  0  0  0
  -17.0488  -42.8886   -8.4368 C   0  0  0  0  0  0  0  0  0  0  0  0
  -16.2782  -43.7003   -9.2698 C   0  0  0  0  0  0  0  0  0  0  0  0
  -16.6807  -41.7822   -7.5424 C   0  0  0  0  0  0  0  0  0  0  0  0
  -17.2610  -41.8503   -6.3544 O   0  0  0  0  0  0  0  0  0  0  0  0
  -15.8406  -40.6556   -7.6739 N   0  0  0  0  0  0  0  0  0  0  0  0
  -15.7284  -39.6865   -8.7037 C   0  0  1  0  0  0  0  0  0  0  0  0
  -15.6207  -40.2005  -10.1031 C   0  0  0  0  0  0  0  0  0  0  0  0
  -16.7586  -38.5755   -8.6961 C   0  0  2  0  0  0  0  0  0  0  0  0
  -16.1867  -37.3401   -8.8967 O   0  0  0  0  0  0  0  0  0  0  0  0
  -17.4480  -38.5172   -7.3124 C   0  0  0  0  0  0  0  0  0  0  0  0
  -18.4715  -39.4871   -7.2160 N   0  0  0  0  0  0  0  0  0  0  0  0
  -19.8225  -39.0499   -7.5241 C   0  0  0  0  0  0  0  0  0  0  0  0
  -19.7791  -37.6028   -8.0714 C   0  0  0  0  0  0  0  0  0  0  0  0
  -20.1205  -38.7178   -8.9931 C   0  0  0  0  0  0  0  0  0  0  0  0
  -20.9351  -39.3347   -6.6028 C   0  0  0  0  0  0  0  0  0  0  0  0
  -21.0910  -40.5600   -6.0044 C   0  0  0  0  0  0  0  0  0  0  0  0
  -22.1327  -40.8238   -5.1005 C   0  0  0  0  0  0  0  0  0  0  0  0
  -23.0367  -39.8239   -4.7968 C   0  0  0  0  0  0  0  0  0  0  0  0
  -22.8916  -38.5955   -5.3881 C   0  0  0  0  0  0  0  0  0  0  0  0
  -21.8415  -38.3616   -6.2860 C   0  0  0  0  0  0  0  0  0  0  0  0
  -22.2955  -42.1365   -4.4484 C   0  0  0  0  0  0  0  0  0  0  0  0
  -23.7279  -42.3859   -4.0248 C   0  0  0  0  0  0  0  0  0  0  0  0
  -21.8343  -43.2190   -5.3672 C   0  0  0  0  0  0  0  0  0  0  0  0
  -21.4567  -42.1510   -3.1715 C   0  0  0  0  0  0  0  0  0  0  0  0
  -20.5527  -44.2299   -9.0279 C   0  0  0  0  0  0  0  0  0  0  0  0
  -21.0848  -45.2434   -9.4932 O   0  0  0  0  0  0  0  0  0  0  0  0
  -21.3361  -43.2346   -8.4131 N   0  0  0  0  0  0  0  0  0  0  0  0
  -20.7893  -41.9062   -8.2561 C   0  0  0  0  0  0  0  0  0  0  0  0
  -22.6843  -43.4532   -7.9152 C   0  0  0  0  0  0  0  0  0  0  0  0
  2  1  1  6
  2  3  1  0
  3  4  1  0
  4  5  1  0
  5  6  1  0
  6  7  1  0
  7  8  1  0
  8  9  1  0
  9 10  1  0
 10 11  1  0
 11 12  1  0
 12 13  2  0
 13 14  1  0
 14 15  2  0
 15 16  1  0
 15 17  1  0
 17 18  2  0
 17 19  1  0
 19 20  1  0
 20 21  1  6
 20 22  1  0
 22 23  1  1
 22 24  1  0
 24 25  1  0
 25 26  1  0
 26 27  1  0
 27 28  1  0
 26 29  1  0
 29 30  2  0
 30 31  1  0
 31 32  2  0
 32 33  1  0
 33 34  2  0
 31 35  1  0
 35 36  1  0
 35 37  1  0
 35 38  1  0
 13 39  1  0
 39 40  2  0
 39 41  1  0
 41 42  1  0
 41 43  1  0
 16 11  2  0
 21  2  1  0
 28 26  1  0
 34 29  1  0
M  END
$$$$
