
     RDKit          3D

 43 46  0  0  0  0  0  0  0  0999 V2000
  -13.0829  -36.9273   -9.4589 C   0  0  0  0  0  0  0  0  0  0  0  0
  -13.7077  -37.9568  -10.3799 C   0  0  2  0  0  0  0  0  0  0  0  0
  -14.1648  -37.2182  -11.6191 C   0  0  0  0  0  0  0  0  0  0  0  0
  -12.9270  -36.7594  -12.3969 C   0  0  0  0  0  0  0  0  0  0  0  0
  -13.1455  -36.8389  -13.8912 C   0  0  0  0  0  0  0  0  0  0  0  0
  -12.3527  -37.9223  -14.5422 C   0  0  0  0  0  0  0  0  0  0  0  0
  -12.1109  -39.1177  -13.6516 C   0  0  0  0  0  0  0  0  0  0  0  0
  -11.9809  -40.4105  -14.4407 C   0  0  0  0  0  0  0  0  0  0  0  0
  -13.2968  -41.0879  -14.6342 C   0  0  0  0  0  0  0  0  0  0  0  0
  -13.4753  -42.2518  -13.7854 N   0  0  0  0  0  0  0  0  0  0  0  0
  -13.8410  -42.3830  -12.4123 C   0  0  0  0  0  0  0  0  0  0  0  0
  -14.8282  -43.4085  -12.2923 C   0  0  0  0  0  0  0  0  0  0  0  0
  -15.3973  -43.7816  -11.1169 C   0  0  0  0  0  0  0  0  0  0  0  0
  -14.9668  -43.1056  -10.0045 C   0  0  0  0  0  0  0  0  0  0  0  0
  -13.9891  -42.0767  -10.0528 C   0  0  0  0  0  0  0  0  0  0  0  0
  -13.4237  -41.7187  -11.2770 C   0  0  0  0  0  0  0  0  0  0  0  0
  -13.7713  -41.5657   -8.6923 C   0  0  0  0  0  0  0  0  0  0  0  0
  -13.6449  -42.5215   -7.7850 O   0  0  0  0  0  0  0  0  0  0  0  0
  -13.6684  -40.2718   -8.1377 N   0  0  0  0  0  0  0  0  0  0  0  0
  -14.4748  -39.1163   -8.3010 C   0  0  1  0  0  0  0  0  0  0  0  0
  -14.8127  -38.7238   -9.7032 C   0  0  0  0  0  0  0  0  0  0  0  0
  -15.7509  -39.0666   -7.4857 C   0  0  2  0  0  0  0  0  0  0  0  0
  -15.7314  -39.9631   -6.4419 O   0  0  0  0  0  0  0  0  0  0  0  0
  -16.9516  -39.4620   -8.3775 C   0  0  0  0  0  0  0  0  0  0  0  0
  -17.2630  -40.8325   -8.2281 N   0  0  0  0  0  0  0  0  0  0  0  0
  -18.6647  -41.1729   -8.0537 C   0  0  0  0  0  0  0  0  0  0  0  0
  -18.9638  -42.5008   -8.7904 C   0  0  0  0  0  0  0  0  0  0  0  0
  -18.9683  -42.4780   -7.3042 C   0  0  0  0  0  0  0  0  0  0  0  0
  -19.7107  -40.1438   -8.1748 C   0  0  0  0  0  0  0  0  0  0  0  0
  -20.3553  -39.6266   -7.0790 C   0  0  0  0  0  0  0  0  0  0  0  0
  -21.3300  -38.6220   -7.1897 C   0  0  0  0  0  0  0  0  0  0  0  0
  -21.6593  -38.1311   -8.4387 C   0  0  0  0  0  0  0  0  0  0  0  0
  -21.0225  -38.6396   -9.5411 C   0  0  0  0  0  0  0  0  0  0  0  0
  -20.0532  -39.6417   -9.3993 C   0  0  0  0  0  0  0  0  0  0  0  0
  -22.0160  -38.0576   -6.0124 C   0  0  0  0  0  0  0  0  0  0  0  0
  -22.5495  -39.1377   -5.0947 C   0  0  0  0  0  0  0  0  0  0  0  0
  -21.0851  -37.1609   -5.2656 C   0  0  0  0  0  0  0  0  0  0  0  0
  -23.2270  -37.2597   -6.4932 C   0  0  0  0  0  0  0  0  0  0  0  0
  -16.3963  -44.8372  -11.0579 C   0  0  0  0  0  0  0  0  0  0  0  0
  -17.5206  -44.6783  -11.5455 O   0  0  0  0  0  0  0  0  0  0  0  0
  -16.0588  -46.0520  -10.4314 N   0  0  0  0  0  0  0  0  0  0  0  0
  -14.7447  -46.2018   -9.8493 C   0  0  0  0  0  0  0  0  0  0  0  0
  -16.9576  -47.1898  -10.3261 C   0  0  0  0  0  0  0  0  0  0  0  0
  2  1  1  1
  2  3  1  0
  3  4  1  0
  4  5  1  0
  5  6  1  0
  6  7  1  0
  7  8  1  0
  8  9  1  0
  9 10  1  0
 10 11  1  0
 11 12  1  0
 12 13  2  0
 13 14  1  0
 14 15  2  0
 15 16  1  0
 15 17  1  0
 17 18  2  0
 17 19  1  0
 19 20  1  0
 20 21  1  6
 20 22  1  0
 22 23  1  1
 22 24  1  0
 24 25  1  0
 25 26  1  0
 26 27  1  0
 27 28  1  0
 26 29  1  0
 29 30  2  0
 30 31  1  0
 31 32  2  0
 32 33  1  0
 33 34  2  0
 31 35  1  0
 35 36  1  0
 35 37  1  0
 35 38  1  0
 13 39  1  0
 39 40  2  0
 39 41  1  0
 41 42  1  0
 41 43  1  0
 16 11  2  0
 21  2  1  0
 28 26  1  0
 34 29  1  0
M  END
$$$$
