
     RDKit          3D

 37 39  0  0  0  0  0  0  0  0999 V2000
  -16.6557  -43.5425   -9.1845 C   0  0  0  0  0  0  0  0  0  0  0  0
  -17.5660  -43.5131   -7.9693 C   0  0  2  0  0  0  0  0  0  0  0  0
  -19.0023  -43.7478   -8.3812 C   0  0  0  0  0  0  0  0  0  0  0  0
  -19.5222  -45.0403   -7.8565 C   0  0  0  0  0  0  0  0  0  0  0  0
  -18.7106  -46.0214   -8.0038 O   0  0  0  0  0  0  0  0  0  0  0  0
  -20.7599  -45.2532   -7.2491 N   0  0  0  0  0  0  0  0  0  0  0  0
  -21.3681  -44.4679   -6.2046 C   0  0  0  0  0  0  0  0  0  0  0  0
  -22.8193  -44.1810   -6.4867 C   0  0  0  0  0  0  0  0  0  0  0  0
  -23.5251  -43.6088   -5.2952 C   0  0  0  0  0  0  0  0  0  0  0  0
  -22.6334  -42.8086   -4.3759 C   0  0  0  0  0  0  0  0  0  0  0  0
  -22.6378  -41.4817   -4.7927 O   0  0  0  0  0  0  0  0  0  0  0  0
  -21.7719  -40.6469   -5.4766 C   0  0  0  0  0  0  0  0  0  0  0  0
  -21.2118  -40.7836   -6.7357 C   0  0  0  0  0  0  0  0  0  0  0  0
  -20.3667  -39.7896   -7.1772 C   0  0  0  0  0  0  0  0  0  0  0  0
  -19.5928  -39.6515   -8.4365 C   0  0  0  0  0  0  0  0  0  0  0  0
  -18.1979  -40.2439   -8.3249 C   0  0  2  0  0  0  0  0  0  0  0  0
  -18.0405  -41.0972   -7.1977 N   0  0  0  0  0  0  0  0  0  0  0  0
  -17.3683  -42.3372   -7.1110 C   0  0  0  0  0  0  0  0  0  0  0  0
  -16.4791  -42.4701   -6.1800 O   0  0  0  0  0  0  0  0  0  0  0  0
  -17.1533  -39.1254   -8.3149 C   0  0  2  0  0  0  0  0  0  0  0  0
  -17.7302  -37.9179   -8.7153 O   0  0  0  0  0  0  0  0  0  0  0  0
  -16.0273  -39.3813   -9.2863 C   0  0  0  0  0  0  0  0  0  0  0  0
  -14.7923  -39.6737   -8.5749 N   0  0  0  0  0  0  0  0  0  0  0  0
  -13.7303  -38.7771   -8.9444 C   0  0  0  0  0  0  0  0  0  0  0  0
  -13.7434  -38.4559  -10.4128 C   0  0  0  0  0  0  0  0  0  0  0  0
  -13.5244  -37.1844  -10.8974 C   0  0  0  0  0  0  0  0  0  0  0  0
  -13.5366  -36.8867  -12.2340 C   0  0  0  0  0  0  0  0  0  0  0  0
  -13.7775  -37.8953  -13.1408 C   0  0  0  0  0  0  0  0  0  0  0  0
  -13.9997  -39.1742  -12.6904 C   0  0  0  0  0  0  0  0  0  0  0  0
  -13.9833  -39.4504  -11.3539 C   0  0  0  0  0  0  0  0  0  0  0  0
  -13.2938  -35.4927  -12.7134 C   0  0  0  0  0  0  0  0  0  0  0  0
  -14.4922  -35.0315  -13.5267 C   0  0  0  0  0  0  0  0  0  0  0  0
  -12.0835  -35.4261  -13.6190 C   0  0  0  0  0  0  0  0  0  0  0  0
  -13.1505  -34.5357  -11.5608 C   0  0  0  0  0  0  0  0  0  0  0  0
  -20.1082  -38.6811   -6.3394 C   0  0  0  0  0  0  0  0  0  0  0  0
  -20.6457  -38.5142   -5.0929 C   0  0  0  0  0  0  0  0  0  0  0  0
  -21.4837  -39.5203   -4.6785 C   0  0  0  0  0  0  0  0  0  0  0  0
  2  1  1  6
  2  3  1  0
  3  4  1  0
  4  5  2  0
  4  6  1  0
  6  7  1  0
  7  8  1  0
  8  9  1  0
  9 10  1  0
 10 11  1  0
 11 12  1  0
 12 13  1  0
 13 14  2  0
 14 15  1  0
 16 15  1  1
 16 17  1  0
 17 18  1  0
 18 19  2  0
 16 20  1  0
 20 21  1  6
 20 22  1  0
 22 23  1  0
 23 24  1  0
 24 25  1  0
 25 26  2  0
 26 27  1  0
 27 28  2  0
 28 29  1  0
 29 30  2  0
 27 31  1  0
 31 32  1  0
 31 33  1  0
 31 34  1  0
 14 35  1  0
 35 36  2  0
 36 37  1  0
 18  2  1  0
 30 25  1  0
 37 12  2  0
M  END
$$$$
