
     RDKit          3D

 37 39  0  0  0  0  0  0  0  0999 V2000
  -16.1414  -43.8879   -9.4437 C   0  0  0  0  0  0  0  0  0  0  0  0
  -15.4014  -42.9922  -10.4216 C   0  0  2  0  0  0  0  0  0  0  0  0
  -13.9069  -43.1244  -10.2297 C   0  0  0  0  0  0  0  0  0  0  0  0
  -13.2532  -43.7546  -11.4094 C   0  0  0  0  0  0  0  0  0  0  0  0
  -13.8726  -44.7851  -11.8538 O   0  0  0  0  0  0  0  0  0  0  0  0
  -12.0800  -43.3313  -12.0343 N   0  0  0  0  0  0  0  0  0  0  0  0
  -11.7368  -41.9894  -12.4333 C   0  0  0  0  0  0  0  0  0  0  0  0
  -10.3273  -41.6283  -12.0448 C   0  0  0  0  0  0  0  0  0  0  0  0
   -9.8721  -40.3537  -12.6877 C   0  0  0  0  0  0  0  0  0  0  0  0
  -10.9853  -39.3726  -12.9680 C   0  0  0  0  0  0  0  0  0  0  0  0
  -11.1441  -38.5482  -11.8591 O   0  0  0  0  0  0  0  0  0  0  0  0
  -12.0439  -38.4434  -10.8133 C   0  0  0  0  0  0  0  0  0  0  0  0
  -12.4184  -39.3792   -9.8637 C   0  0  0  0  0  0  0  0  0  0  0  0
  -13.3527  -39.0056   -8.9232 C   0  0  0  0  0  0  0  0  0  0  0  0
  -13.9808  -39.7650   -7.8130 C   0  0  0  0  0  0  0  0  0  0  0  0
  -15.2653  -40.4555   -8.2399 C   0  0  2  0  0  0  0  0  0  0  0  0
  -15.4185  -40.5296   -9.6522 N   0  0  0  0  0  0  0  0  0  0  0  0
  -15.8879  -41.6061  -10.4381 C   0  0  0  0  0  0  0  0  0  0  0  0
  -16.8501  -41.3631  -11.2689 O   0  0  0  0  0  0  0  0  0  0  0  0
  -16.4697  -39.7665   -7.5940 C   0  0  2  0  0  0  0  0  0  0  0  0
  -16.3510  -39.7841   -6.2023 O   0  0  0  0  0  0  0  0  0  0  0  0
  -17.7683  -40.4707   -7.9015 C   0  0  0  0  0  0  0  0  0  0  0  0
  -18.7057  -39.5616   -8.5432 N   0  0  0  0  0  0  0  0  0  0  0  0
  -19.7723  -40.2633   -9.2050 C   0  0  0  0  0  0  0  0  0  0  0  0
  -20.8846  -40.6265   -8.2612 C   0  0  0  0  0  0  0  0  0  0  0  0
  -21.5690  -39.6858   -7.5221 C   0  0  0  0  0  0  0  0  0  0  0  0
  -22.5819  -40.0118   -6.6602 C   0  0  0  0  0  0  0  0  0  0  0  0
  -22.9391  -41.3347   -6.5193 C   0  0  0  0  0  0  0  0  0  0  0  0
  -22.2765  -42.2975   -7.2418 C   0  0  0  0  0  0  0  0  0  0  0  0
  -21.2695  -41.9519   -8.0958 C   0  0  0  0  0  0  0  0  0  0  0  0
  -23.2962  -38.9574   -5.8791 C   0  0  0  0  0  0  0  0  0  0  0  0
  -23.5619  -39.4743   -4.4747 C   0  0  0  0  0  0  0  0  0  0  0  0
  -24.6371  -38.6286   -6.4982 C   0  0  0  0  0  0  0  0  0  0  0  0
  -22.4550  -37.7173   -5.7391 C   0  0  0  0  0  0  0  0  0  0  0  0
  -13.8855  -37.6971   -8.9618 C   0  0  0  0  0  0  0  0  0  0  0  0
  -13.5365  -36.7488   -9.8835 C   0  0  0  0  0  0  0  0  0  0  0  0
  -12.6039  -37.1489  -10.8089 C   0  0  0  0  0  0  0  0  0  0  0  0
  2  1  1  1
  2  3  1  0
  3  4  1  0
  4  5  2  0
  4  6  1  0
  6  7  1  0
  7  8  1  0
  8  9  1  0
  9 10  1  0
 10 11  1  0
 11 12  1  0
 12 13  1  0
 13 14  2  0
 14 15  1  0
 16 15  1  6
 16 17  1  0
 17 18  1  0
 18 19  2  0
 16 20  1  0
 20 21  1  1
 20 22  1  0
 22 23  1  0
 23 24  1  0
 24 25  1  0
 25 26  2  0
 26 27  1  0
 27 28  2  0
 28 29  1  0
 29 30  2  0
 27 31  1  0
 31 32  1  0
 31 33  1  0
 31 34  1  0
 14 35  1  0
 35 36  2  0
 36 37  1  0
 18  2  1  0
 30 25  1  0
 37 12  2  0
M  END
$$$$
