
     RDKit          3D

 37 39  0  0  0  0  0  0  0  0999 V2000
  -19.7078  -42.5734   -6.9793 C   0  0  0  0  0  0  0  0  0  0  0  0
  -19.0504  -43.2035   -8.1946 C   0  0  2  0  0  0  0  0  0  0  0  0
  -18.0020  -44.2059   -7.7659 C   0  0  0  0  0  0  0  0  0  0  0  0
  -18.3850  -45.5963   -8.1350 C   0  0  0  0  0  0  0  0  0  0  0  0
  -19.6047  -45.8846   -7.8663 O   0  0  0  0  0  0  0  0  0  0  0  0
  -17.5608  -46.5580   -8.7198 N   0  0  0  0  0  0  0  0  0  0  0  0
  -16.6883  -46.3889   -9.8545 C   0  0  0  0  0  0  0  0  0  0  0  0
  -15.3303  -46.9953   -9.6173 C   0  0  0  0  0  0  0  0  0  0  0  0
  -14.5159  -47.0680  -10.8730 C   0  0  0  0  0  0  0  0  0  0  0  0
  -14.8316  -45.9845  -11.8764 C   0  0  0  0  0  0  0  0  0  0  0  0
  -14.0148  -44.8879  -11.6216 O   0  0  0  0  0  0  0  0  0  0  0  0
  -14.1676  -43.6430  -11.0377 C   0  0  0  0  0  0  0  0  0  0  0  0
  -14.6032  -43.3025   -9.7680 C   0  0  0  0  0  0  0  0  0  0  0  0
  -14.6640  -41.9652   -9.4439 C   0  0  0  0  0  0  0  0  0  0  0  0
  -15.1096  -41.2780   -8.2057 C   0  0  0  0  0  0  0  0  0  0  0  0
  -16.5893  -40.9333   -8.2372 C   0  0  2  0  0  0  0  0  0  0  0  0
  -17.3041  -41.6265   -9.2530 N   0  0  0  0  0  0  0  0  0  0  0  0
  -18.5819  -42.2262   -9.1864 C   0  0  0  0  0  0  0  0  0  0  0  0
  -19.4462  -41.8909  -10.0895 O   0  0  0  0  0  0  0  0  0  0  0  0
  -16.7714  -39.4200   -8.3751 C   0  0  2  0  0  0  0  0  0  0  0  0
  -15.7983  -38.7439   -7.6354 O   0  0  0  0  0  0  0  0  0  0  0  0
  -18.0977  -38.9485   -7.8315 C   0  0  0  0  0  0  0  0  0  0  0  0
  -19.1945  -39.4596   -8.6394 N   0  0  0  0  0  0  0  0  0  0  0  0
  -19.2184  -38.8724   -9.9520 C   0  0  0  0  0  0  0  0  0  0  0  0
  -19.6970  -37.4476   -9.9280 C   0  0  0  0  0  0  0  0  0  0  0  0
  -19.0003  -36.4400   -9.2965 C   0  0  0  0  0  0  0  0  0  0  0  0
  -19.4329  -35.1410   -9.2708 C   0  0  0  0  0  0  0  0  0  0  0  0
  -20.6145  -34.8180   -9.9008 C   0  0  0  0  0  0  0  0  0  0  0  0
  -21.3334  -35.7992  -10.5397 C   0  0  0  0  0  0  0  0  0  0  0  0
  -20.8851  -37.0882  -10.5539 C   0  0  0  0  0  0  0  0  0  0  0  0
  -18.6437  -34.0814   -8.5732 C   0  0  0  0  0  0  0  0  0  0  0  0
  -17.5022  -33.6387   -9.4739 C   0  0  0  0  0  0  0  0  0  0  0  0
  -18.0293  -34.6063   -7.2940 C   0  0  0  0  0  0  0  0  0  0  0  0
  -19.4854  -32.8641   -8.3002 C   0  0  0  0  0  0  0  0  0  0  0  0
  -14.2825  -41.0037  -10.4070 C   0  0  0  0  0  0  0  0  0  0  0  0
  -13.8464  -41.3055  -11.6677 C   0  0  0  0  0  0  0  0  0  0  0  0
  -13.7964  -42.6457  -11.9634 C   0  0  0  0  0  0  0  0  0  0  0  0
  2  1  1  1
  2  3  1  0
  3  4  1  0
  4  5  2  0
  4  6  1  0
  6  7  1  0
  7  8  1  0
  8  9  1  0
  9 10  1  0
 10 11  1  0
 11 12  1  0
 12 13  1  0
 13 14  2  0
 14 15  1  0
 16 15  1  6
 16 17  1  0
 17 18  1  0
 18 19  2  0
 16 20  1  0
 20 21  1  1
 20 22  1  0
 22 23  1  0
 23 24  1  0
 24 25  1  0
 25 26  2  0
 26 27  1  0
 27 28  2  0
 28 29  1  0
 29 30  2  0
 27 31  1  0
 31 32  1  0
 31 33  1  0
 31 34  1  0
 14 35  1  0
 35 36  2  0
 36 37  1  0
 18  2  1  0
 30 25  1  0
 37 12  2  0
M  END
$$$$
