
     RDKit          3D

 37 39  0  0  0  0  0  0  0  0999 V2000
  -16.4246  -43.8095   -8.4659 C   0  0  0  0  0  0  0  0  0  0  0  0
  -17.7078  -43.4068   -7.7607 C   0  0  2  0  0  0  0  0  0  0  0  0
  -18.8411  -43.2895   -8.7554 C   0  0  0  0  0  0  0  0  0  0  0  0
  -19.8811  -44.3309   -8.5316 C   0  0  0  0  0  0  0  0  0  0  0  0
  -19.4034  -45.5039   -8.3348 O   0  0  0  0  0  0  0  0  0  0  0  0
  -21.2626  -44.1371   -8.5206 N   0  0  0  0  0  0  0  0  0  0  0  0
  -21.9961  -43.1102   -7.8241 C   0  0  0  0  0  0  0  0  0  0  0  0
  -23.0459  -42.4757   -8.6978 C   0  0  0  0  0  0  0  0  0  0  0  0
  -23.9864  -41.6108   -7.9150 C   0  0  0  0  0  0  0  0  0  0  0  0
  -23.3710  -40.9861   -6.6855 C   0  0  0  0  0  0  0  0  0  0  0  0
  -22.8178  -39.7593   -7.0369 O   0  0  0  0  0  0  0  0  0  0  0  0
  -21.5454  -39.2661   -7.2646 C   0  0  0  0  0  0  0  0  0  0  0  0
  -20.5765  -39.6822   -8.1623 C   0  0  0  0  0  0  0  0  0  0  0  0
  -19.3772  -39.0051   -8.1770 C   0  0  0  0  0  0  0  0  0  0  0  0
  -18.1448  -39.2155   -8.9774 C   0  0  0  0  0  0  0  0  0  0  0  0
  -17.1604  -40.1456   -8.2881 C   0  0  2  0  0  0  0  0  0  0  0  0
  -17.7416  -40.8841   -7.2202 N   0  0  0  0  0  0  0  0  0  0  0  0
  -17.5564  -42.2425   -6.8775 C   0  0  0  0  0  0  0  0  0  0  0  0
  -17.2173  -42.5091   -5.6573 O   0  0  0  0  0  0  0  0  0  0  0  0
  -15.9417  -39.3545   -7.8069 C   0  0  2  0  0  0  0  0  0  0  0  0
  -16.3469  -38.2124   -7.1122 O   0  0  0  0  0  0  0  0  0  0  0  0
  -15.0915  -38.8566   -8.9497 C   0  0  0  0  0  0  0  0  0  0  0  0
  -14.9466  -39.8857   -9.9680 N   0  0  0  0  0  0  0  0  0  0  0  0
  -13.6219  -39.9101  -10.5273 C   0  0  0  0  0  0  0  0  0  0  0  0
  -13.2086  -38.5693  -11.0669 C   0  0  0  0  0  0  0  0  0  0  0  0
  -14.1016  -37.5366  -11.2552 C   0  0  0  0  0  0  0  0  0  0  0  0
  -13.7302  -36.3140  -11.7476 C   0  0  0  0  0  0  0  0  0  0  0  0
  -12.4089  -36.0978  -12.0716 C   0  0  0  0  0  0  0  0  0  0  0  0
  -11.4930  -37.1069  -11.8958 C   0  0  0  0  0  0  0  0  0  0  0  0
  -11.8834  -38.3185  -11.4036 C   0  0  0  0  0  0  0  0  0  0  0  0
  -14.7338  -35.2233  -11.9350 C   0  0  0  0  0  0  0  0  0  0  0  0
  -16.1301  -35.8231  -11.9055 C   0  0  0  0  0  0  0  0  0  0  0  0
  -14.5642  -34.5451  -13.2769 C   0  0  0  0  0  0  0  0  0  0  0  0
  -14.6636  -34.2183  -10.8170 C   0  0  0  0  0  0  0  0  0  0  0  0
  -19.1843  -37.9238   -7.2875 C   0  0  0  0  0  0  0  0  0  0  0  0
  -20.1197  -37.4862   -6.3907 C   0  0  0  0  0  0  0  0  0  0  0  0
  -21.3051  -38.1798   -6.3977 C   0  0  0  0  0  0  0  0  0  0  0  0
  2  1  1  6
  2  3  1  0
  3  4  1  0
  4  5  2  0
  4  6  1  0
  6  7  1  0
  7  8  1  0
  8  9  1  0
  9 10  1  0
 10 11  1  0
 11 12  1  0
 12 13  1  0
 13 14  2  0
 14 15  1  0
 16 15  1  1
 16 17  1  0
 17 18  1  0
 18 19  2  0
 16 20  1  0
 20 21  1  6
 20 22  1  0
 22 23  1  0
 23 24  1  0
 24 25  1  0
 25 26  2  0
 26 27  1  0
 27 28  2  0
 28 29  1  0
 29 30  2  0
 27 31  1  0
 31 32  1  0
 31 33  1  0
 31 34  1  0
 14 35  1  0
 35 36  2  0
 36 37  1  0
 18  2  1  0
 30 25  1  0
 37 12  2  0
M  END
$$$$
