
     RDKit          3D

 37 39  0  0  0  0  0  0  0  0999 V2000
  -15.8441  -43.3737   -8.9185 C   0  0  0  0  0  0  0  0  0  0  0  0
  -15.5224  -42.7051  -10.2435 C   0  0  2  0  0  0  0  0  0  0  0  0
  -14.0395  -42.7887  -10.5294 C   0  0  0  0  0  0  0  0  0  0  0  0
  -13.7528  -43.6541  -11.7062 C   0  0  0  0  0  0  0  0  0  0  0  0
  -14.4050  -44.7576  -11.7069 O   0  0  0  0  0  0  0  0  0  0  0  0
  -12.8747  -43.3703  -12.7524 N   0  0  0  0  0  0  0  0  0  0  0  0
  -12.7755  -42.1435  -13.5025 C   0  0  0  0  0  0  0  0  0  0  0  0
  -11.3459  -41.7034  -13.6779 C   0  0  0  0  0  0  0  0  0  0  0  0
  -11.2138  -40.5940  -14.6763 C   0  0  0  0  0  0  0  0  0  0  0  0
  -12.4265  -39.6987  -14.7673 C   0  0  0  0  0  0  0  0  0  0  0  0
  -12.2823  -38.6571  -13.8569 O   0  0  0  0  0  0  0  0  0  0  0  0
  -12.8060  -38.3343  -12.6176 C   0  0  0  0  0  0  0  0  0  0  0  0
  -12.7885  -39.0472  -11.4304 C   0  0  0  0  0  0  0  0  0  0  0  0
  -13.3981  -38.4843  -10.3310 C   0  0  0  0  0  0  0  0  0  0  0  0
  -13.5816  -38.9913   -8.9478 C   0  0  0  0  0  0  0  0  0  0  0  0
  -14.8815  -39.7609   -8.7827 C   0  0  2  0  0  0  0  0  0  0  0  0
  -15.4719  -40.1350  -10.0216 N   0  0  0  0  0  0  0  0  0  0  0  0
  -16.0882  -41.3559  -10.3774 C   0  0  0  0  0  0  0  0  0  0  0  0
  -17.2803  -41.2988  -10.8781 O   0  0  0  0  0  0  0  0  0  0  0  0
  -15.8632  -38.9536   -7.9300 C   0  0  2  0  0  0  0  0  0  0  0  0
  -15.2462  -38.5260   -6.7521 O   0  0  0  0  0  0  0  0  0  0  0  0
  -17.0533  -39.7719   -7.4932 C   0  0  0  0  0  0  0  0  0  0  0  0
  -18.0056  -38.9457   -6.7669 N   0  0  0  0  0  0  0  0  0  0  0  0
  -18.9617  -39.7356   -6.0389 C   0  0  0  0  0  0  0  0  0  0  0  0
  -20.1120  -40.1727   -6.9023 C   0  0  0  0  0  0  0  0  0  0  0  0
  -21.3199  -39.5093   -6.9227 C   0  0  0  0  0  0  0  0  0  0  0  0
  -22.3711  -39.9043   -7.7064 C   0  0  0  0  0  0  0  0  0  0  0  0
  -22.2240  -41.0117   -8.5124 C   0  0  0  0  0  0  0  0  0  0  0  0
  -21.0324  -41.6957   -8.5155 C   0  0  0  0  0  0  0  0  0  0  0  0
  -19.9966  -41.2857   -7.7270 C   0  0  0  0  0  0  0  0  0  0  0  0
  -23.6628  -39.1537   -7.6959 C   0  0  0  0  0  0  0  0  0  0  0  0
  -23.4472  -37.7859   -8.3227 C   0  0  0  0  0  0  0  0  0  0  0  0
  -24.1557  -38.9281   -6.2833 C   0  0  0  0  0  0  0  0  0  0  0  0
  -24.7087  -39.8547   -8.5201 C   0  0  0  0  0  0  0  0  0  0  0  0
  -14.0090  -37.2158  -10.4546 C   0  0  0  0  0  0  0  0  0  0  0  0
  -14.0426  -36.4850  -11.6101 C   0  0  0  0  0  0  0  0  0  0  0  0
  -13.4279  -37.0705  -12.6898 C   0  0  0  0  0  0  0  0  0  0  0  0
  2  1  1  1
  2  3  1  0
  3  4  1  0
  4  5  2  0
  4  6  1  0
  6  7  1  0
  7  8  1  0
  8  9  1  0
  9 10  1  0
 10 11  1  0
 11 12  1  0
 12 13  1  0
 13 14  2  0
 14 15  1  0
 16 15  1  6
 16 17  1  0
 17 18  1  0
 18 19  2  0
 16 20  1  0
 20 21  1  1
 20 22  1  0
 22 23  1  0
 23 24  1  0
 24 25  1  0
 25 26  2  0
 26 27  1  0
 27 28  2  0
 28 29  1  0
 29 30  2  0
 27 31  1  0
 31 32  1  0
 31 33  1  0
 31 34  1  0
 14 35  1  0
 35 36  2  0
 36 37  1  0
 18  2  1  0
 30 25  1  0
 37 12  2  0
M  END
$$$$
