
     RDKit          3D

 37 39  0  0  0  0  0  0  0  0999 V2000
  -19.9990  -41.4995   -6.0738 C   0  0  0  0  0  0  0  0  0  0  0  0
  -19.7690  -42.2778   -7.3574 C   0  0  2  0  0  0  0  0  0  0  0  0
  -19.3912  -43.7088   -7.0453 C   0  0  0  0  0  0  0  0  0  0  0  0
  -20.4417  -44.6657   -7.4892 C   0  0  0  0  0  0  0  0  0  0  0  0
  -21.6328  -44.3026   -7.1853 O   0  0  0  0  0  0  0  0  0  0  0  0
  -20.2386  -45.8639   -8.1742 N   0  0  0  0  0  0  0  0  0  0  0  0
  -19.4095  -46.0788   -9.3335 C   0  0  0  0  0  0  0  0  0  0  0  0
  -18.5624  -47.3168   -9.1997 C   0  0  0  0  0  0  0  0  0  0  0  0
  -17.9091  -47.6980  -10.4931 C   0  0  0  0  0  0  0  0  0  0  0  0
  -17.6207  -46.5300  -11.4060 C   0  0  0  0  0  0  0  0  0  0  0  0
  -16.3524  -46.0386  -11.1155 O   0  0  0  0  0  0  0  0  0  0  0  0
  -15.8346  -44.9460  -10.4428 C   0  0  0  0  0  0  0  0  0  0  0  0
  -16.0252  -44.5336   -9.1346 C   0  0  0  0  0  0  0  0  0  0  0  0
  -15.3818  -43.3889   -8.7189 C   0  0  0  0  0  0  0  0  0  0  0  0
  -15.4012  -42.6734   -7.4183 C   0  0  0  0  0  0  0  0  0  0  0  0
  -16.4872  -41.6121   -7.3592 C   0  0  2  0  0  0  0  0  0  0  0  0
  -17.4621  -41.7509   -8.3858 N   0  0  0  0  0  0  0  0  0  0  0  0
  -18.8653  -41.6068   -8.3016 C   0  0  0  0  0  0  0  0  0  0  0  0
  -19.4337  -40.8009   -9.1398 O   0  0  0  0  0  0  0  0  0  0  0  0
  -15.8581  -40.2172   -7.3866 C   0  0  2  0  0  0  0  0  0  0  0  0
  -14.9374  -40.0787   -6.3453 O   0  0  0  0  0  0  0  0  0  0  0  0
  -16.8762  -39.1230   -7.1790 C   0  0  0  0  0  0  0  0  0  0  0  0
  -17.2762  -38.5457   -8.4533 N   0  0  0  0  0  0  0  0  0  0  0  0
  -16.7866  -37.2034   -8.6161 C   0  0  0  0  0  0  0  0  0  0  0  0
  -17.2986  -36.5609   -9.8750 C   0  0  0  0  0  0  0  0  0  0  0  0
  -16.9089  -35.3020  -10.2785 C   0  0  0  0  0  0  0  0  0  0  0  0
  -17.3735  -34.7121  -11.4236 C   0  0  0  0  0  0  0  0  0  0  0  0
  -18.2695  -35.3991  -12.2127 C   0  0  0  0  0  0  0  0  0  0  0  0
  -18.6784  -36.6565  -11.8387 C   0  0  0  0  0  0  0  0  0  0  0  0
  -18.2035  -37.2270  -10.6934 C   0  0  0  0  0  0  0  0  0  0  0  0
  -16.9226  -33.3445  -11.8215 C   0  0  0  0  0  0  0  0  0  0  0  0
  -17.3654  -33.0716  -13.2497 C   0  0  0  0  0  0  0  0  0  0  0  0
  -15.4140  -33.2322  -11.7894 C   0  0  0  0  0  0  0  0  0  0  0  0
  -17.5545  -32.2876  -10.9562 C   0  0  0  0  0  0  0  0  0  0  0  0
  -14.5606  -42.6886   -9.6316 C   0  0  0  0  0  0  0  0  0  0  0  0
  -14.3496  -43.0690  -10.9282 C   0  0  0  0  0  0  0  0  0  0  0  0
  -15.0035  -44.2130  -11.3153 C   0  0  0  0  0  0  0  0  0  0  0  0
  2  1  1  1
  2  3  1  0
  3  4  1  0
  4  5  2  0
  4  6  1  0
  6  7  1  0
  7  8  1  0
  8  9  1  0
  9 10  1  0
 10 11  1  0
 11 12  1  0
 12 13  1  0
 13 14  2  0
 14 15  1  0
 16 15  1  6
 16 17  1  0
 17 18  1  0
 18 19  2  0
 16 20  1  0
 20 21  1  1
 20 22  1  0
 22 23  1  0
 23 24  1  0
 24 25  1  0
 25 26  2  0
 26 27  1  0
 27 28  2  0
 28 29  1  0
 29 30  2  0
 27 31  1  0
 31 32  1  0
 31 33  1  0
 31 34  1  0
 14 35  1  0
 35 36  2  0
 36 37  1  0
 18  2  1  0
 30 25  1  0
 37 12  2  0
M  END
$$$$
