
     RDKit          3D

 37 39  0  0  0  0  0  0  0  0999 V2000
  -16.0037  -43.2614   -8.6347 C   0  0  0  0  0  0  0  0  0  0  0  0
  -15.5714  -42.5863   -9.9245 C   0  0  2  0  0  0  0  0  0  0  0  0
  -14.0673  -42.6466  -10.0721 C   0  0  0  0  0  0  0  0  0  0  0  0
  -13.6597  -43.5061  -11.2173 C   0  0  0  0  0  0  0  0  0  0  0  0
  -14.2919  -44.6195  -11.2780 O   0  0  0  0  0  0  0  0  0  0  0  0
  -12.6933  -43.2074  -12.1780 N   0  0  0  0  0  0  0  0  0  0  0  0
  -12.5444  -41.9783  -12.9159 C   0  0  0  0  0  0  0  0  0  0  0  0
  -11.1117  -41.5159  -12.9586 C   0  0  0  0  0  0  0  0  0  0  0  0
  -10.9052  -40.4033  -13.9408 C   0  0  0  0  0  0  0  0  0  0  0  0
  -12.1180  -39.5268  -14.1436 C   0  0  0  0  0  0  0  0  0  0  0  0
  -12.0747  -38.4843  -13.2239 O   0  0  0  0  0  0  0  0  0  0  0  0
  -12.7155  -38.1711  -12.0384 C   0  0  0  0  0  0  0  0  0  0  0  0
  -12.7967  -38.8851  -10.8546 C   0  0  0  0  0  0  0  0  0  0  0  0
  -13.5138  -38.3330   -9.8162 C   0  0  0  0  0  0  0  0  0  0  0  0
  -13.8165  -38.8445   -8.4558 C   0  0  0  0  0  0  0  0  0  0  0  0
  -15.1139  -39.6343   -8.4113 C   0  0  2  0  0  0  0  0  0  0  0  0
  -15.5815  -40.0161   -9.6993 N   0  0  0  0  0  0  0  0  0  0  0  0
  -16.1432  -41.2458  -10.1103 C   0  0  0  0  0  0  0  0  0  0  0  0
  -17.2848  -41.2066  -10.7190 O   0  0  0  0  0  0  0  0  0  0  0  0
  -16.1826  -38.8434   -7.6531 C   0  0  2  0  0  0  0  0  0  0  0  0
  -15.5979  -37.7889   -6.9479 O   0  0  0  0  0  0  0  0  0  0  0  0
  -16.8928  -39.6816   -6.6187 C   0  0  0  0  0  0  0  0  0  0  0  0
  -18.2600  -39.9577   -7.0326 N   0  0  0  0  0  0  0  0  0  0  0  0
  -19.2182  -39.2006   -6.2730 C   0  0  0  0  0  0  0  0  0  0  0  0
  -20.6343  -39.5395   -6.6464 C   0  0  0  0  0  0  0  0  0  0  0  0
  -21.4479  -40.3149   -5.8488 C   0  0  0  0  0  0  0  0  0  0  0  0
  -22.7380  -40.6274   -6.1853 C   0  0  0  0  0  0  0  0  0  0  0  0
  -23.2534  -40.1504   -7.3703 C   0  0  0  0  0  0  0  0  0  0  0  0
  -22.4684  -39.3744   -8.1885 C   0  0  0  0  0  0  0  0  0  0  0  0
  -21.1847  -39.0742   -7.8351 C   0  0  0  0  0  0  0  0  0  0  0  0
  -23.5835  -41.4719   -5.2886 C   0  0  0  0  0  0  0  0  0  0  0  0
  -22.7006  -42.1060   -4.2261 C   0  0  0  0  0  0  0  0  0  0  0  0
  -24.2432  -42.5974   -6.0551 C   0  0  0  0  0  0  0  0  0  0  0  0
  -24.6122  -40.6431   -4.5676 C   0  0  0  0  0  0  0  0  0  0  0  0
  -14.1303  -37.0740   -9.9959 C   0  0  0  0  0  0  0  0  0  0  0  0
  -14.0684  -36.3424  -11.1498 C   0  0  0  0  0  0  0  0  0  0  0  0
  -13.3476  -36.9169  -12.1680 C   0  0  0  0  0  0  0  0  0  0  0  0
  2  1  1  1
  2  3  1  0
  3  4  1  0
  4  5  2  0
  4  6  1  0
  6  7  1  0
  7  8  1  0
  8  9  1  0
  9 10  1  0
 10 11  1  0
 11 12  1  0
 12 13  1  0
 13 14  2  0
 14 15  1  0
 16 15  1  6
 16 17  1  0
 17 18  1  0
 18 19  2  0
 16 20  1  0
 20 21  1  1
 20 22  1  0
 22 23  1  0
 23 24  1  0
 24 25  1  0
 25 26  2  0
 26 27  1  0
 27 28  2  0
 28 29  1  0
 29 30  2  0
 27 31  1  0
 31 32  1  0
 31 33  1  0
 31 34  1  0
 14 35  1  0
 35 36  2  0
 36 37  1  0
 18  2  1  0
 30 25  1  0
 37 12  2  0
M  END
$$$$
