
     RDKit          3D

 37 39  0  0  0  0  0  0  0  0999 V2000
  -15.5946  -43.3988   -9.0994 C   0  0  0  0  0  0  0  0  0  0  0  0
  -15.0347  -42.5837  -10.2520 C   0  0  2  0  0  0  0  0  0  0  0  0
  -13.5226  -42.5997  -10.2229 C   0  0  0  0  0  0  0  0  0  0  0  0
  -12.9563  -43.3262  -11.3924 C   0  0  0  0  0  0  0  0  0  0  0  0
  -13.5417  -44.4388  -11.6422 O   0  0  0  0  0  0  0  0  0  0  0  0
  -11.8933  -42.9100  -12.1942 N   0  0  0  0  0  0  0  0  0  0  0  0
  -11.6970  -41.6075  -12.7795 C   0  0  0  0  0  0  0  0  0  0  0  0
  -10.2845  -41.1162  -12.6020 C   0  0  0  0  0  0  0  0  0  0  0  0
   -9.9987  -39.9028  -13.4333 C   0  0  0  0  0  0  0  0  0  0  0  0
  -11.2061  -39.0329  -13.6902 C   0  0  0  0  0  0  0  0  0  0  0  0
  -11.3040  -38.0922  -12.6703 O   0  0  0  0  0  0  0  0  0  0  0  0
  -12.0895  -37.9176  -11.5448 C   0  0  0  0  0  0  0  0  0  0  0  0
  -12.2871  -38.7534  -10.4585 C   0  0  0  0  0  0  0  0  0  0  0  0
  -13.1385  -38.3273   -9.4632 C   0  0  0  0  0  0  0  0  0  0  0  0
  -13.5831  -38.9845   -8.2084 C   0  0  0  0  0  0  0  0  0  0  0  0
  -14.8513  -39.7991   -8.4013 C   0  0  2  0  0  0  0  0  0  0  0  0
  -15.1518  -40.0520   -9.7685 N   0  0  0  0  0  0  0  0  0  0  0  0
  -15.6224  -41.2422  -10.3676 C   0  0  0  0  0  0  0  0  0  0  0  0
  -16.6850  -41.1608  -11.1020 O   0  0  0  0  0  0  0  0  0  0  0  0
  -16.0261  -39.1126   -7.7005 C   0  0  2  0  0  0  0  0  0  0  0  0
  -15.5740  -38.3740   -6.6045 O   0  0  0  0  0  0  0  0  0  0  0  0
  -17.0210  -40.1011   -7.1438 C   0  0  0  0  0  0  0  0  0  0  0  0
  -18.0438  -40.4111   -8.1311 N   0  0  0  0  0  0  0  0  0  0  0  0
  -19.2579  -40.8831   -7.5217 C   0  0  0  0  0  0  0  0  0  0  0  0
  -20.4408  -40.0248   -7.8734 C   0  0  0  0  0  0  0  0  0  0  0  0
  -21.1564  -39.3221   -6.9281 C   0  0  0  0  0  0  0  0  0  0  0  0
  -22.2354  -38.5401   -7.2435 C   0  0  0  0  0  0  0  0  0  0  0  0
  -22.6299  -38.4457   -8.5599 C   0  0  0  0  0  0  0  0  0  0  0  0
  -21.9378  -39.1338   -9.5270 C   0  0  0  0  0  0  0  0  0  0  0  0
  -20.8649  -39.9081   -9.1921 C   0  0  0  0  0  0  0  0  0  0  0  0
  -22.9813  -37.7957   -6.1844 C   0  0  0  0  0  0  0  0  0  0  0  0
  -22.7717  -38.4899   -4.8485 C   0  0  0  0  0  0  0  0  0  0  0  0
  -24.4690  -37.7913   -6.4601 C   0  0  0  0  0  0  0  0  0  0  0  0
  -22.4623  -36.3909   -6.0357 C   0  0  0  0  0  0  0  0  0  0  0  0
  -13.7687  -37.0682   -9.5863 C   0  0  0  0  0  0  0  0  0  0  0  0
  -13.5942  -36.2183  -10.6435 C   0  0  0  0  0  0  0  0  0  0  0  0
  -12.7409  -36.6689  -11.6208 C   0  0  0  0  0  0  0  0  0  0  0  0
  2  1  1  1
  2  3  1  0
  3  4  1  0
  4  5  2  0
  4  6  1  0
  6  7  1  0
  7  8  1  0
  8  9  1  0
  9 10  1  0
 10 11  1  0
 11 12  1  0
 12 13  1  0
 13 14  2  0
 14 15  1  0
 16 15  1  6
 16 17  1  0
 17 18  1  0
 18 19  2  0
 16 20  1  0
 20 21  1  1
 20 22  1  0
 22 23  1  0
 23 24  1  0
 24 25  1  0
 25 26  2  0
 26 27  1  0
 27 28  2  0
 28 29  1  0
 29 30  2  0
 27 31  1  0
 31 32  1  0
 31 33  1  0
 31 34  1  0
 14 35  1  0
 35 36  2  0
 36 37  1  0
 18  2  1  0
 30 25  1  0
 37 12  2  0
M  END
$$$$
