
     RDKit          3D

 37 39  0  0  0  0  0  0  0  0999 V2000
  -16.3490  -43.7270   -9.0182 C   0  0  0  0  0  0  0  0  0  0  0  0
  -17.5656  -43.7410   -8.1093 C   0  0  2  0  0  0  0  0  0  0  0  0
  -18.8342  -43.8247   -8.9287 C   0  0  0  0  0  0  0  0  0  0  0  0
  -19.5431  -45.1166   -8.7170 C   0  0  0  0  0  0  0  0  0  0  0  0
  -18.7708  -46.1393   -8.7407 O   0  0  0  0  0  0  0  0  0  0  0  0
  -20.9113  -45.2891   -8.5062 N   0  0  0  0  0  0  0  0  0  0  0  0
  -21.7540  -44.5602   -7.5918 C   0  0  0  0  0  0  0  0  0  0  0  0
  -23.0491  -44.1370   -8.2334 C   0  0  0  0  0  0  0  0  0  0  0  0
  -24.0373  -43.6259   -7.2297 C   0  0  0  0  0  0  0  0  0  0  0  0
  -23.4079  -42.9862   -6.0151 C   0  0  0  0  0  0  0  0  0  0  0  0
  -23.2300  -41.6298   -6.2661 O   0  0  0  0  0  0  0  0  0  0  0  0
  -22.1663  -40.8041   -6.5842 C   0  0  0  0  0  0  0  0  0  0  0  0
  -21.2776  -40.8655   -7.6443 C   0  0  0  0  0  0  0  0  0  0  0  0
  -20.2953  -39.9028   -7.7192 C   0  0  0  0  0  0  0  0  0  0  0  0
  -19.1887  -39.7078   -8.6895 C   0  0  0  0  0  0  0  0  0  0  0  0
  -17.9134  -40.4140   -8.2603 C   0  0  2  0  0  0  0  0  0  0  0  0
  -18.1249  -41.3784   -7.2363 N   0  0  0  0  0  0  0  0  0  0  0  0
  -17.5652  -42.6692   -7.1045 C   0  0  0  0  0  0  0  0  0  0  0  0
  -16.9858  -42.9567   -5.9835 O   0  0  0  0  0  0  0  0  0  0  0  0
  -16.8630  -39.3852   -7.8351 C   0  0  2  0  0  0  0  0  0  0  0  0
  -17.4722  -38.1652   -7.5325 O   0  0  0  0  0  0  0  0  0  0  0  0
  -15.8736  -39.0855   -8.9342 C   0  0  0  0  0  0  0  0  0  0  0  0
  -14.5103  -39.1576   -8.4312 N   0  0  0  0  0  0  0  0  0  0  0  0
  -13.5383  -39.0006   -9.4793 C   0  0  0  0  0  0  0  0  0  0  0  0
  -13.9814  -38.0118  -10.5213 C   0  0  0  0  0  0  0  0  0  0  0  0
  -13.0959  -37.3646  -11.3559 C   0  0  0  0  0  0  0  0  0  0  0  0
  -13.4945  -36.4622  -12.3055 C   0  0  0  0  0  0  0  0  0  0  0  0
  -14.8367  -36.1829  -12.4398 C   0  0  0  0  0  0  0  0  0  0  0  0
  -15.7458  -36.8112  -11.6232 C   0  0  0  0  0  0  0  0  0  0  0  0
  -15.3281  -37.7076  -10.6826 C   0  0  0  0  0  0  0  0  0  0  0  0
  -12.4980  -35.7844  -13.1886 C   0  0  0  0  0  0  0  0  0  0  0  0
  -12.6743  -36.2861  -14.6125 C   0  0  0  0  0  0  0  0  0  0  0  0
  -11.0812  -36.1102  -12.7694 C   0  0  0  0  0  0  0  0  0  0  0  0
  -12.7168  -34.2957  -13.2170 C   0  0  0  0  0  0  0  0  0  0  0  0
  -20.2340  -38.9006   -6.7245 C   0  0  0  0  0  0  0  0  0  0  0  0
  -21.0961  -38.8099   -5.6667 C   0  0  0  0  0  0  0  0  0  0  0  0
  -22.0644  -39.7826   -5.6170 C   0  0  0  0  0  0  0  0  0  0  0  0
  2  1  1  6
  2  3  1  0
  3  4  1  0
  4  5  2  0
  4  6  1  0
  6  7  1  0
  7  8  1  0
  8  9  1  0
  9 10  1  0
 10 11  1  0
 11 12  1  0
 12 13  1  0
 13 14  2  0
 14 15  1  0
 16 15  1  1
 16 17  1  0
 17 18  1  0
 18 19  2  0
 16 20  1  0
 20 21  1  6
 20 22  1  0
 22 23  1  0
 23 24  1  0
 24 25  1  0
 25 26  2  0
 26 27  1  0
 27 28  2  0
 28 29  1  0
 29 30  2  0
 27 31  1  0
 31 32  1  0
 31 33  1  0
 31 34  1  0
 14 35  1  0
 35 36  2  0
 36 37  1  0
 18  2  1  0
 30 25  1  0
 37 12  2  0
M  END
$$$$
