
     RDKit          3D

 37 39  0  0  0  0  0  0  0  0999 V2000
  -16.9356  -43.6075   -9.4474 C   0  0  0  0  0  0  0  0  0  0  0  0
  -17.8794  -43.3981   -8.2763 C   0  0  2  0  0  0  0  0  0  0  0  0
  -19.3157  -43.4003   -8.7503 C   0  0  0  0  0  0  0  0  0  0  0  0
  -20.0665  -44.5755   -8.2292 C   0  0  0  0  0  0  0  0  0  0  0  0
  -19.4249  -45.6812   -8.3228 O   0  0  0  0  0  0  0  0  0  0  0  0
  -21.3472  -44.5650   -7.6763 N   0  0  0  0  0  0  0  0  0  0  0  0
  -21.8597  -43.6649   -6.6740 C   0  0  0  0  0  0  0  0  0  0  0  0
  -23.2291  -43.1472   -7.0276 C   0  0  0  0  0  0  0  0  0  0  0  0
  -23.8796  -42.4374   -5.8795 C   0  0  0  0  0  0  0  0  0  0  0  0
  -22.9070  -41.7751   -4.9331 C   0  0  0  0  0  0  0  0  0  0  0  0
  -22.6714  -40.4762   -5.3713 O   0  0  0  0  0  0  0  0  0  0  0  0
  -21.6496  -39.8136   -6.0279 C   0  0  0  0  0  0  0  0  0  0  0  0
  -21.0668  -40.0716   -7.2573 C   0  0  0  0  0  0  0  0  0  0  0  0
  -20.0491  -39.2428   -7.6754 C   0  0  0  0  0  0  0  0  0  0  0  0
  -19.2097  -39.2654   -8.8996 C   0  0  0  0  0  0  0  0  0  0  0  0
  -17.9397  -40.0788   -8.7140 C   0  0  2  0  0  0  0  0  0  0  0  0
  -17.9757  -40.9193   -7.5669 N   0  0  0  0  0  0  0  0  0  0  0  0
  -17.5248  -42.2514   -7.4291 C   0  0  0  0  0  0  0  0  0  0  0  0
  -16.7111  -42.5082   -6.4559 O   0  0  0  0  0  0  0  0  0  0  0  0
  -16.7241  -39.1497   -8.6739 C   0  0  2  0  0  0  0  0  0  0  0  0
  -16.7879  -38.2207   -9.7151 O   0  0  0  0  0  0  0  0  0  0  0  0
  -15.4255  -39.8929   -8.8694 C   0  0  0  0  0  0  0  0  0  0  0  0
  -14.3263  -39.1809   -8.2356 N   0  0  0  0  0  0  0  0  0  0  0  0
  -13.0545  -39.5281   -8.8102 C   0  0  0  0  0  0  0  0  0  0  0  0
  -12.9543  -39.1229  -10.2543 C   0  0  0  0  0  0  0  0  0  0  0  0
  -12.9351  -37.8049  -10.6568 C   0  0  0  0  0  0  0  0  0  0  0  0
  -12.8453  -37.4310  -11.9711 C   0  0  0  0  0  0  0  0  0  0  0  0
  -12.7704  -38.4075  -12.9397 C   0  0  0  0  0  0  0  0  0  0  0  0
  -12.7871  -39.7313  -12.5719 C   0  0  0  0  0  0  0  0  0  0  0  0
  -12.8772  -40.0833  -11.2563 C   0  0  0  0  0  0  0  0  0  0  0  0
  -12.8278  -35.9888  -12.3607 C   0  0  0  0  0  0  0  0  0  0  0  0
  -12.2759  -35.1692  -11.2058 C   0  0  0  0  0  0  0  0  0  0  0  0
  -14.2238  -35.4798  -12.6463 C   0  0  0  0  0  0  0  0  0  0  0  0
  -11.9224  -35.7523  -13.5394 C   0  0  0  0  0  0  0  0  0  0  0  0
  -19.6450  -38.1731   -6.8447 C   0  0  0  0  0  0  0  0  0  0  0  0
  -20.2000  -37.8895   -5.6273 C   0  0  0  0  0  0  0  0  0  0  0  0
  -21.2115  -38.7320   -5.2357 C   0  0  0  0  0  0  0  0  0  0  0  0
  2  1  1  6
  2  3  1  0
  3  4  1  0
  4  5  2  0
  4  6  1  0
  6  7  1  0
  7  8  1  0
  8  9  1  0
  9 10  1  0
 10 11  1  0
 11 12  1  0
 12 13  1  0
 13 14  2  0
 14 15  1  0
 16 15  1  1
 16 17  1  0
 17 18  1  0
 18 19  2  0
 16 20  1  0
 20 21  1  6
 20 22  1  0
 22 23  1  0
 23 24  1  0
 24 25  1  0
 25 26  2  0
 26 27  1  0
 27 28  2  0
 28 29  1  0
 29 30  2  0
 27 31  1  0
 31 32  1  0
 31 33  1  0
 31 34  1  0
 14 35  1  0
 35 36  2  0
 36 37  1  0
 18  2  1  0
 30 25  1  0
 37 12  2  0
M  END
$$$$
