
     RDKit          3D

 37 39  0  0  0  0  0  0  0  0999 V2000
  -16.2836  -43.0634   -9.8876 C   0  0  0  0  0  0  0  0  0  0  0  0
  -17.5097  -43.0472   -8.9918 C   0  0  2  0  0  0  0  0  0  0  0  0
  -18.7583  -42.8110   -9.8121 C   0  0  0  0  0  0  0  0  0  0  0  0
  -19.6504  -44.0027   -9.8139 C   0  0  0  0  0  0  0  0  0  0  0  0
  -19.0332  -45.1096  -10.0058 O   0  0  0  0  0  0  0  0  0  0  0  0
  -21.0336  -44.0058   -9.6324 N   0  0  0  0  0  0  0  0  0  0  0  0
  -21.7830  -43.3200   -8.6099 C   0  0  0  0  0  0  0  0  0  0  0  0
  -22.9888  -42.6141   -9.1718 C   0  0  0  0  0  0  0  0  0  0  0  0
  -23.9156  -42.1340   -8.0967 C   0  0  0  0  0  0  0  0  0  0  0  0
  -23.2282  -41.7986   -6.7946 C   0  0  0  0  0  0  0  0  0  0  0  0
  -22.8511  -40.4600   -6.8203 O   0  0  0  0  0  0  0  0  0  0  0  0
  -21.6727  -39.7577   -7.0002 C   0  0  0  0  0  0  0  0  0  0  0  0
  -20.7783  -39.7752   -8.0573 C   0  0  0  0  0  0  0  0  0  0  0  0
  -19.6662  -38.9667   -7.9748 C   0  0  0  0  0  0  0  0  0  0  0  0
  -18.5215  -38.7803   -8.9015 C   0  0  0  0  0  0  0  0  0  0  0  0
  -17.3712  -39.7250   -8.5955 C   0  0  2  0  0  0  0  0  0  0  0  0
  -17.7424  -40.8015   -7.7429 N   0  0  0  0  0  0  0  0  0  0  0  0
  -17.3776  -42.1642   -7.8250 C   0  0  0  0  0  0  0  0  0  0  0  0
  -16.8711  -42.7111   -6.7670 O   0  0  0  0  0  0  0  0  0  0  0  0
  -16.1935  -38.9431   -8.0088 C   0  0  2  0  0  0  0  0  0  0  0  0
  -16.6253  -37.7079   -7.5200 O   0  0  0  0  0  0  0  0  0  0  0  0
  -15.1408  -38.6272   -9.0428 C   0  0  0  0  0  0  0  0  0  0  0  0
  -14.3022  -39.7895   -9.2931 N   0  0  0  0  0  0  0  0  0  0  0  0
  -12.9617  -39.4200   -9.6600 C   0  0  0  0  0  0  0  0  0  0  0  0
  -12.9163  -38.1164  -10.4071 C   0  0  0  0  0  0  0  0  0  0  0  0
  -13.5411  -37.9339  -11.6220 C   0  0  0  0  0  0  0  0  0  0  0  0
  -13.5014  -36.7489  -12.3070 C   0  0  0  0  0  0  0  0  0  0  0  0
  -12.8095  -35.6876  -11.7662 C   0  0  0  0  0  0  0  0  0  0  0  0
  -12.1754  -35.8365  -10.5563 C   0  0  0  0  0  0  0  0  0  0  0  0
  -12.2269  -37.0260   -9.8892 C   0  0  0  0  0  0  0  0  0  0  0  0
  -14.1944  -36.5972  -13.6219 C   0  0  0  0  0  0  0  0  0  0  0  0
  -13.2416  -37.0021  -14.7348 C   0  0  0  0  0  0  0  0  0  0  0  0
  -14.5913  -35.1586  -13.8711 C   0  0  0  0  0  0  0  0  0  0  0  0
  -15.3913  -37.5047  -13.7165 C   0  0  0  0  0  0  0  0  0  0  0  0
  -19.4837  -38.1589   -6.8295 C   0  0  0  0  0  0  0  0  0  0  0  0
  -20.3475  -38.1163   -5.7699 C   0  0  0  0  0  0  0  0  0  0  0  0
  -21.4466  -38.9325   -5.8789 C   0  0  0  0  0  0  0  0  0  0  0  0
  2  1  1  6
  2  3  1  0
  3  4  1  0
  4  5  2  0
  4  6  1  0
  6  7  1  0
  7  8  1  0
  8  9  1  0
  9 10  1  0
 10 11  1  0
 11 12  1  0
 12 13  1  0
 13 14  2  0
 14 15  1  0
 16 15  1  1
 16 17  1  0
 17 18  1  0
 18 19  2  0
 16 20  1  0
 20 21  1  6
 20 22  1  0
 22 23  1  0
 23 24  1  0
 24 25  1  0
 25 26  2  0
 26 27  1  0
 27 28  2  0
 28 29  1  0
 29 30  2  0
 27 31  1  0
 31 32  1  0
 31 33  1  0
 31 34  1  0
 14 35  1  0
 35 36  2  0
 36 37  1  0
 18  2  1  0
 30 25  1  0
 37 12  2  0
M  END
$$$$
