
     RDKit          3D

 37 39  0  0  0  0  0  0  0  0999 V2000
  -19.0175  -42.5564   -5.9054 C   0  0  0  0  0  0  0  0  0  0  0  0
  -19.6877  -42.6839   -7.2622 C   0  0  2  0  0  0  0  0  0  0  0  0
  -18.8548  -43.5490   -8.1818 C   0  0  0  0  0  0  0  0  0  0  0  0
  -19.5446  -44.8263   -8.5118 C   0  0  0  0  0  0  0  0  0  0  0  0
  -20.0750  -45.4037   -7.4978 O   0  0  0  0  0  0  0  0  0  0  0  0
  -19.6516  -45.4112   -9.7738 N   0  0  0  0  0  0  0  0  0  0  0  0
  -20.0338  -44.7685  -11.0060 C   0  0  0  0  0  0  0  0  0  0  0  0
  -19.1259  -45.1487  -12.1459 C   0  0  0  0  0  0  0  0  0  0  0  0
  -19.6688  -44.7108  -13.4720 C   0  0  0  0  0  0  0  0  0  0  0  0
  -20.5262  -43.4693  -13.4077 C   0  0  0  0  0  0  0  0  0  0  0  0
  -19.7113  -42.3544  -13.5734 O   0  0  0  0  0  0  0  0  0  0  0  0
  -19.1791  -41.3757  -12.7529 C   0  0  0  0  0  0  0  0  0  0  0  0
  -18.3714  -41.4940  -11.6343 C   0  0  0  0  0  0  0  0  0  0  0  0
  -17.9829  -40.3381  -10.9940 C   0  0  0  0  0  0  0  0  0  0  0  0
  -17.1640  -40.1232   -9.7745 C   0  0  0  0  0  0  0  0  0  0  0  0
  -18.0096  -40.0700   -8.5131 C   0  0  2  0  0  0  0  0  0  0  0  0
  -19.3271  -40.5725   -8.7006 N   0  0  0  0  0  0  0  0  0  0  0  0
  -20.0918  -41.3973   -7.8451 C   0  0  0  0  0  0  0  0  0  0  0  0
  -21.2800  -40.9919   -7.5307 O   0  0  0  0  0  0  0  0  0  0  0  0
  -18.0414  -38.6417   -7.9640 C   0  0  2  0  0  0  0  0  0  0  0  0
  -16.7807  -38.0505   -8.0741 O   0  0  0  0  0  0  0  0  0  0  0  0
  -18.3858  -38.5977   -6.4955 C   0  0  0  0  0  0  0  0  0  0  0  0
  -19.2510  -37.4646   -6.2051 N   0  0  0  0  0  0  0  0  0  0  0  0
  -20.5788  -37.6510   -6.7251 C   0  0  0  0  0  0  0  0  0  0  0  0
  -21.2368  -38.8847   -6.1731 C   0  0  0  0  0  0  0  0  0  0  0  0
  -21.0683  -39.2965   -4.8686 C   0  0  0  0  0  0  0  0  0  0  0  0
  -21.6644  -40.4202   -4.3616 C   0  0  0  0  0  0  0  0  0  0  0  0
  -22.4691  -41.1781   -5.1836 C   0  0  0  0  0  0  0  0  0  0  0  0
  -22.6579  -40.7950   -6.4895 C   0  0  0  0  0  0  0  0  0  0  0  0
  -22.0547  -39.6715   -6.9758 C   0  0  0  0  0  0  0  0  0  0  0  0
  -21.4528  -40.8281   -2.9400 C   0  0  0  0  0  0  0  0  0  0  0  0
  -20.1058  -41.5217   -2.8178 C   0  0  0  0  0  0  0  0  0  0  0  0
  -22.5084  -41.8134   -2.4881 C   0  0  0  0  0  0  0  0  0  0  0  0
  -21.4151  -39.6314   -2.0282 C   0  0  0  0  0  0  0  0  0  0  0  0
  -18.4166  -39.0909  -11.4980 C   0  0  0  0  0  0  0  0  0  0  0  0
  -19.2120  -38.9386  -12.6001 C   0  0  0  0  0  0  0  0  0  0  0  0
  -19.5843  -40.1073  -13.2179 C   0  0  0  0  0  0  0  0  0  0  0  0
  2  1  1  1
  2  3  1  0
  3  4  1  0
  4  5  2  0
  4  6  1  0
  6  7  1  0
  7  8  1  0
  8  9  1  0
  9 10  1  0
 10 11  1  0
 11 12  1  0
 12 13  1  0
 13 14  2  0
 14 15  1  0
 16 15  1  6
 16 17  1  0
 17 18  1  0
 18 19  2  0
 16 20  1  0
 20 21  1  1
 20 22  1  0
 22 23  1  0
 23 24  1  0
 24 25  1  0
 25 26  2  0
 26 27  1  0
 27 28  2  0
 28 29  1  0
 29 30  2  0
 27 31  1  0
 31 32  1  0
 31 33  1  0
 31 34  1  0
 14 35  1  0
 35 36  2  0
 36 37  1  0
 18  2  1  0
 30 25  1  0
 37 12  2  0
M  END
$$$$
