
     RDKit          3D

 37 39  0  0  0  0  0  0  0  0999 V2000
  -17.0686  -43.2902   -8.8851 C   0  0  0  0  0  0  0  0  0  0  0  0
  -18.1876  -43.1932   -7.8629 C   0  0  2  0  0  0  0  0  0  0  0  0
  -19.5283  -43.1011   -8.5568 C   0  0  0  0  0  0  0  0  0  0  0  0
  -20.3629  -44.3081   -8.3062 C   0  0  0  0  0  0  0  0  0  0  0  0
  -19.7235  -45.4124   -8.4276 O   0  0  0  0  0  0  0  0  0  0  0  0
  -21.7161  -44.3273   -7.9674 N   0  0  0  0  0  0  0  0  0  0  0  0
  -22.3765  -43.5365   -6.9594 C   0  0  0  0  0  0  0  0  0  0  0  0
  -23.6665  -42.9442   -7.4626 C   0  0  0  0  0  0  0  0  0  0  0  0
  -24.4883  -42.3556   -6.3565 C   0  0  0  0  0  0  0  0  0  0  0  0
  -23.6760  -41.8348   -5.1948 C   0  0  0  0  0  0  0  0  0  0  0  0
  -23.3623  -40.5006   -5.4315 O   0  0  0  0  0  0  0  0  0  0  0  0
  -22.2425  -39.7940   -5.8328 C   0  0  0  0  0  0  0  0  0  0  0  0
  -21.4707  -39.9227   -6.9754 C   0  0  0  0  0  0  0  0  0  0  0  0
  -20.3923  -39.0788   -7.1238 C   0  0  0  0  0  0  0  0  0  0  0  0
  -19.3663  -38.9813   -8.1924 C   0  0  0  0  0  0  0  0  0  0  0  0
  -18.1495  -39.8451   -7.9050 C   0  0  2  0  0  0  0  0  0  0  0  0
  -18.3772  -40.8123   -6.8871 N   0  0  0  0  0  0  0  0  0  0  0  0
  -17.9653  -42.1631   -6.8392 C   0  0  0  0  0  0  0  0  0  0  0  0
  -17.3216  -42.5536   -5.7864 O   0  0  0  0  0  0  0  0  0  0  0  0
  -16.9489  -38.9604   -7.5609 C   0  0  2  0  0  0  0  0  0  0  0  0
  -17.2959  -37.6109   -7.6580 O   0  0  0  0  0  0  0  0  0  0  0  0
  -15.7980  -39.1554   -8.5171 C   0  0  0  0  0  0  0  0  0  0  0  0
  -14.7050  -38.2504   -8.1959 N   0  0  0  0  0  0  0  0  0  0  0  0
  -13.6319  -38.3390   -9.1492 C   0  0  0  0  0  0  0  0  0  0  0  0
  -13.9869  -37.7036  -10.4644 C   0  0  0  0  0  0  0  0  0  0  0  0
  -13.1553  -37.7535  -11.5624 C   0  0  0  0  0  0  0  0  0  0  0  0
  -13.4736  -37.1750  -12.7621 C   0  0  0  0  0  0  0  0  0  0  0  0
  -14.6749  -36.5125  -12.8863 C   0  0  0  0  0  0  0  0  0  0  0  0
  -15.5269  -36.4444  -11.8105 C   0  0  0  0  0  0  0  0  0  0  0  0
  -15.1911  -37.0276  -10.6231 C   0  0  0  0  0  0  0  0  0  0  0  0
  -12.5401  -37.2548  -13.9259 C   0  0  0  0  0  0  0  0  0  0  0  0
  -12.8980  -36.1666  -14.9249 C   0  0  0  0  0  0  0  0  0  0  0  0
  -12.6668  -38.5817  -14.6419 C   0  0  0  0  0  0  0  0  0  0  0  0
  -11.1167  -37.0113  -13.5021 C   0  0  0  0  0  0  0  0  0  0  0  0
  -20.1191  -38.1246   -6.1176 C   0  0  0  0  0  0  0  0  0  0  0  0
  -20.8612  -37.9699   -4.9793 C   0  0  0  0  0  0  0  0  0  0  0  0
  -21.9294  -38.8245   -4.8575 C   0  0  0  0  0  0  0  0  0  0  0  0
  2  1  1  6
  2  3  1  0
  3  4  1  0
  4  5  2  0
  4  6  1  0
  6  7  1  0
  7  8  1  0
  8  9  1  0
  9 10  1  0
 10 11  1  0
 11 12  1  0
 12 13  1  0
 13 14  2  0
 14 15  1  0
 16 15  1  1
 16 17  1  0
 17 18  1  0
 18 19  2  0
 16 20  1  0
 20 21  1  6
 20 22  1  0
 22 23  1  0
 23 24  1  0
 24 25  1  0
 25 26  2  0
 26 27  1  0
 27 28  2  0
 28 29  1  0
 29 30  2  0
 27 31  1  0
 31 32  1  0
 31 33  1  0
 31 34  1  0
 14 35  1  0
 35 36  2  0
 36 37  1  0
 18  2  1  0
 30 25  1  0
 37 12  2  0
M  END
$$$$
