
     RDKit          3D

 37 39  0  0  0  0  0  0  0  0999 V2000
  -16.5927  -43.8427   -8.6721 C   0  0  0  0  0  0  0  0  0  0  0  0
  -17.6793  -43.6990   -7.6210 C   0  0  2  0  0  0  0  0  0  0  0  0
  -19.0435  -43.6735   -8.2736 C   0  0  0  0  0  0  0  0  0  0  0  0
  -19.8469  -44.8756   -7.9190 C   0  0  0  0  0  0  0  0  0  0  0  0
  -19.1914  -45.9747   -7.9918 O   0  0  0  0  0  0  0  0  0  0  0  0
  -21.1876  -44.8954   -7.5342 N   0  0  0  0  0  0  0  0  0  0  0  0
  -21.8294  -44.0528   -6.5566 C   0  0  0  0  0  0  0  0  0  0  0  0
  -23.1459  -43.5152   -7.0524 C   0  0  0  0  0  0  0  0  0  0  0  0
  -23.9420  -42.8707   -5.9587 C   0  0  0  0  0  0  0  0  0  0  0  0
  -23.1020  -42.2634   -4.8604 C   0  0  0  0  0  0  0  0  0  0  0  0
  -22.8211  -40.9421   -5.1916 O   0  0  0  0  0  0  0  0  0  0  0  0
  -21.7283  -40.2443   -5.6745 C   0  0  0  0  0  0  0  0  0  0  0  0
  -20.9920  -40.4330   -6.8321 C   0  0  0  0  0  0  0  0  0  0  0  0
  -19.9349  -39.5826   -7.0700 C   0  0  0  0  0  0  0  0  0  0  0  0
  -18.9463  -39.5368   -8.1766 C   0  0  0  0  0  0  0  0  0  0  0  0
  -17.7050  -40.3602   -7.8764 C   0  0  2  0  0  0  0  0  0  0  0  0
  -17.8813  -41.2640   -6.7921 N   0  0  0  0  0  0  0  0  0  0  0  0
  -17.4429  -42.6020   -6.6727 C   0  0  0  0  0  0  0  0  0  0  0  0
  -16.7581  -42.9138   -5.6196 O   0  0  0  0  0  0  0  0  0  0  0  0
  -16.5104  -39.4357   -7.6298 C   0  0  2  0  0  0  0  0  0  0  0  0
  -16.8593  -38.1095   -7.8955 O   0  0  0  0  0  0  0  0  0  0  0  0
  -15.3480  -39.7423   -8.5416 C   0  0  0  0  0  0  0  0  0  0  0  0
  -14.3484  -38.6874   -8.4712 N   0  0  0  0  0  0  0  0  0  0  0  0
  -13.4151  -38.7532   -9.5634 C   0  0  0  0  0  0  0  0  0  0  0  0
  -13.9701  -38.1465  -10.8219 C   0  0  0  0  0  0  0  0  0  0  0  0
  -13.1765  -37.5148  -11.7550 C   0  0  0  0  0  0  0  0  0  0  0  0
  -13.6775  -36.9595  -12.9021 C   0  0  0  0  0  0  0  0  0  0  0  0
  -15.0321  -37.0305  -13.1422 C   0  0  0  0  0  0  0  0  0  0  0  0
  -15.8511  -37.6536  -12.2318 C   0  0  0  0  0  0  0  0  0  0  0  0
  -15.3321  -38.2009  -11.0943 C   0  0  0  0  0  0  0  0  0  0  0  0
  -12.7784  -36.2842  -13.8858 C   0  0  0  0  0  0  0  0  0  0  0  0
  -13.5709  -35.9601  -15.1417 C   0  0  0  0  0  0  0  0  0  0  0  0
  -11.6358  -37.1874  -14.2959 C   0  0  0  0  0  0  0  0  0  0  0  0
  -12.2591  -34.9793  -13.3450 C   0  0  0  0  0  0  0  0  0  0  0  0
  -19.6468  -38.5617   -6.1360 C   0  0  0  0  0  0  0  0  0  0  0  0
  -20.3541  -38.3468   -4.9854 C   0  0  0  0  0  0  0  0  0  0  0  0
  -21.4017  -39.2093   -4.7737 C   0  0  0  0  0  0  0  0  0  0  0  0
  2  1  1  6
  2  3  1  0
  3  4  1  0
  4  5  2  0
  4  6  1  0
  6  7  1  0
  7  8  1  0
  8  9  1  0
  9 10  1  0
 10 11  1  0
 11 12  1  0
 12 13  1  0
 13 14  2  0
 14 15  1  0
 16 15  1  1
 16 17  1  0
 17 18  1  0
 18 19  2  0
 16 20  1  0
 20 21  1  6
 20 22  1  0
 22 23  1  0
 23 24  1  0
 24 25  1  0
 25 26  2  0
 26 27  1  0
 27 28  2  0
 28 29  1  0
 29 30  2  0
 27 31  1  0
 31 32  1  0
 31 33  1  0
 31 34  1  0
 14 35  1  0
 35 36  2  0
 36 37  1  0
 18  2  1  0
 30 25  1  0
 37 12  2  0
M  END
$$$$
