
     RDKit          3D

 37 39  0  0  0  0  0  0  0  0999 V2000
  -16.1658  -43.3932   -9.0432 C   0  0  0  0  0  0  0  0  0  0  0  0
  -17.3383  -43.2142   -8.0948 C   0  0  2  0  0  0  0  0  0  0  0  0
  -18.6456  -43.3132   -8.8489 C   0  0  0  0  0  0  0  0  0  0  0  0
  -19.4222  -44.5190   -8.4501 C   0  0  0  0  0  0  0  0  0  0  0  0
  -18.7162  -45.5861   -8.3741 O   0  0  0  0  0  0  0  0  0  0  0  0
  -20.7874  -44.5726   -8.1681 N   0  0  0  0  0  0  0  0  0  0  0  0
  -21.5411  -43.6823   -7.3216 C   0  0  0  0  0  0  0  0  0  0  0  0
  -22.8356  -43.2557   -7.9622 C   0  0  0  0  0  0  0  0  0  0  0  0
  -23.7438  -42.5602   -6.9943 C   0  0  0  0  0  0  0  0  0  0  0  0
  -23.0215  -41.8195   -5.8942 C   0  0  0  0  0  0  0  0  0  0  0  0
  -22.7722  -40.5192   -6.3201 O   0  0  0  0  0  0  0  0  0  0  0  0
  -21.6753  -39.8117   -6.7792 C   0  0  0  0  0  0  0  0  0  0  0  0
  -20.8412  -40.0622   -7.8558 C   0  0  0  0  0  0  0  0  0  0  0  0
  -19.8061  -39.1837   -8.0879 C   0  0  0  0  0  0  0  0  0  0  0  0
  -18.7349  -39.1837   -9.1159 C   0  0  0  0  0  0  0  0  0  0  0  0
  -17.4873  -39.9152   -8.6496 C   0  0  2  0  0  0  0  0  0  0  0  0
  -17.7107  -40.7301   -7.5052 N   0  0  0  0  0  0  0  0  0  0  0  0
  -17.2261  -42.0294   -7.2334 C   0  0  0  0  0  0  0  0  0  0  0  0
  -16.6150  -42.2148   -6.1077 O   0  0  0  0  0  0  0  0  0  0  0  0
  -16.3573  -38.9144   -8.3967 C   0  0  2  0  0  0  0  0  0  0  0  0
  -16.8797  -37.6395   -8.1665 O   0  0  0  0  0  0  0  0  0  0  0  0
  -15.4396  -38.7705   -9.5858 C   0  0  0  0  0  0  0  0  0  0  0  0
  -14.0687  -38.5479   -9.1522 N   0  0  0  0  0  0  0  0  0  0  0  0
  -13.5577  -37.2819   -9.6039 C   0  0  0  0  0  0  0  0  0  0  0  0
  -13.4499  -37.2147  -11.1018 C   0  0  0  0  0  0  0  0  0  0  0  0
  -12.9869  -38.2673  -11.8615 C   0  0  0  0  0  0  0  0  0  0  0  0
  -12.8857  -38.2105  -13.2260 C   0  0  0  0  0  0  0  0  0  0  0  0
  -13.2606  -37.0553  -13.8759 C   0  0  0  0  0  0  0  0  0  0  0  0
  -13.7266  -35.9874  -13.1478 C   0  0  0  0  0  0  0  0  0  0  0  0
  -13.8199  -36.0640  -11.7883 C   0  0  0  0  0  0  0  0  0  0  0  0
  -12.3778  -39.3774  -14.0086 C   0  0  0  0  0  0  0  0  0  0  0  0
  -13.1482  -40.6223  -13.6001 C   0  0  0  0  0  0  0  0  0  0  0  0
  -10.9157  -39.6384  -13.7195 C   0  0  0  0  0  0  0  0  0  0  0  0
  -12.6036  -39.1854  -15.4841 C   0  0  0  0  0  0  0  0  0  0  0  0
  -19.6379  -38.0731   -7.2300 C   0  0  0  0  0  0  0  0  0  0  0  0
  -20.4438  -37.7957   -6.1604 C   0  0  0  0  0  0  0  0  0  0  0  0
  -21.4668  -38.6881   -5.9525 C   0  0  0  0  0  0  0  0  0  0  0  0
  2  1  1  6
  2  3  1  0
  3  4  1  0
  4  5  2  0
  4  6  1  0
  6  7  1  0
  7  8  1  0
  8  9  1  0
  9 10  1  0
 10 11  1  0
 11 12  1  0
 12 13  1  0
 13 14  2  0
 14 15  1  0
 16 15  1  1
 16 17  1  0
 17 18  1  0
 18 19  2  0
 16 20  1  0
 20 21  1  6
 20 22  1  0
 22 23  1  0
 23 24  1  0
 24 25  1  0
 25 26  2  0
 26 27  1  0
 27 28  2  0
 28 29  1  0
 29 30  2  0
 27 31  1  0
 31 32  1  0
 31 33  1  0
 31 34  1  0
 14 35  1  0
 35 36  2  0
 36 37  1  0
 18  2  1  0
 30 25  1  0
 37 12  2  0
M  END
$$$$
