
     RDKit          3D

 37 39  0  0  0  0  0  0  0  0999 V2000
  -15.9425  -42.9689   -8.4386 C   0  0  0  0  0  0  0  0  0  0  0  0
  -15.3747  -42.3458   -9.7018 C   0  0  2  0  0  0  0  0  0  0  0  0
  -13.8710  -42.2205   -9.5973 C   0  0  0  0  0  0  0  0  0  0  0  0
  -13.1750  -43.1061  -10.5707 C   0  0  0  0  0  0  0  0  0  0  0  0
  -13.6542  -44.2938  -10.6225 O   0  0  0  0  0  0  0  0  0  0  0  0
  -12.0982  -42.7597  -11.3871 N   0  0  0  0  0  0  0  0  0  0  0  0
  -11.9670  -41.5830  -12.2091 C   0  0  0  0  0  0  0  0  0  0  0  0
  -10.6117  -40.9423  -12.0649 C   0  0  0  0  0  0  0  0  0  0  0  0
  -10.3685  -39.8923  -13.1059 C   0  0  0  0  0  0  0  0  0  0  0  0
  -11.6211  -39.2002  -13.5881 C   0  0  0  0  0  0  0  0  0  0  0  0
  -11.8582  -38.0924  -12.7812 O   0  0  0  0  0  0  0  0  0  0  0  0
  -12.7262  -37.7741  -11.7519 C   0  0  0  0  0  0  0  0  0  0  0  0
  -12.9277  -38.3979  -10.5321 C   0  0  0  0  0  0  0  0  0  0  0  0
  -13.8725  -37.8649   -9.6832 C   0  0  0  0  0  0  0  0  0  0  0  0
  -14.3446  -38.3037   -8.3459 C   0  0  0  0  0  0  0  0  0  0  0  0
  -15.5301  -39.2503   -8.4340 C   0  0  2  0  0  0  0  0  0  0  0  0
  -15.7207  -39.7892   -9.7366 N   0  0  0  0  0  0  0  0  0  0  0  0
  -16.0569  -41.1101  -10.1094 C   0  0  0  0  0  0  0  0  0  0  0  0
  -17.0728  -41.2679  -10.8957 O   0  0  0  0  0  0  0  0  0  0  0  0
  -16.7979  -38.5490   -7.9408 C   0  0  2  0  0  0  0  0  0  0  0  0
  -16.6797  -38.2268   -6.5868 O   0  0  0  0  0  0  0  0  0  0  0  0
  -18.0195  -39.4285   -8.0456 C   0  0  0  0  0  0  0  0  0  0  0  0
  -19.0207  -39.0351   -7.0660 N   0  0  0  0  0  0  0  0  0  0  0  0
  -20.3571  -39.1404   -7.5866 C   0  0  0  0  0  0  0  0  0  0  0  0
  -21.2179  -40.0550   -6.7606 C   0  0  0  0  0  0  0  0  0  0  0  0
  -22.0892  -40.9635   -7.3220 C   0  0  0  0  0  0  0  0  0  0  0  0
  -22.8763  -41.7977   -6.5738 C   0  0  0  0  0  0  0  0  0  0  0  0
  -22.8006  -41.7332   -5.1999 C   0  0  0  0  0  0  0  0  0  0  0  0
  -21.9419  -40.8384   -4.6086 C   0  0  0  0  0  0  0  0  0  0  0  0
  -21.1657  -40.0154   -5.3721 C   0  0  0  0  0  0  0  0  0  0  0  0
  -23.8068  -42.7673   -7.2266 C   0  0  0  0  0  0  0  0  0  0  0  0
  -23.7231  -42.5973   -8.7347 C   0  0  0  0  0  0  0  0  0  0  0  0
  -25.2420  -42.5078   -6.8239 C   0  0  0  0  0  0  0  0  0  0  0  0
  -23.4163  -44.1885   -6.9223 C   0  0  0  0  0  0  0  0  0  0  0  0
  -14.5900  -36.7150  -10.0840 C   0  0  0  0  0  0  0  0  0  0  0  0
  -14.4145  -36.0739  -11.2793 C   0  0  0  0  0  0  0  0  0  0  0  0
  -13.4671  -36.6271  -12.1055 C   0  0  0  0  0  0  0  0  0  0  0  0
  2  1  1  1
  2  3  1  0
  3  4  1  0
  4  5  2  0
  4  6  1  0
  6  7  1  0
  7  8  1  0
  8  9  1  0
  9 10  1  0
 10 11  1  0
 11 12  1  0
 12 13  1  0
 13 14  2  0
 14 15  1  0
 16 15  1  6
 16 17  1  0
 17 18  1  0
 18 19  2  0
 16 20  1  0
 20 21  1  1
 20 22  1  0
 22 23  1  0
 23 24  1  0
 24 25  1  0
 25 26  2  0
 26 27  1  0
 27 28  2  0
 28 29  1  0
 29 30  2  0
 27 31  1  0
 31 32  1  0
 31 33  1  0
 31 34  1  0
 14 35  1  0
 35 36  2  0
 36 37  1  0
 18  2  1  0
 30 25  1  0
 37 12  2  0
M  END
$$$$
