
     RDKit          3D

 37 39  0  0  0  0  0  0  0  0999 V2000
  -16.1095  -43.2731   -8.4860 C   0  0  0  0  0  0  0  0  0  0  0  0
  -17.3620  -43.1191   -7.6411 C   0  0  2  0  0  0  0  0  0  0  0  0
  -18.5975  -43.2146   -8.5083 C   0  0  0  0  0  0  0  0  0  0  0  0
  -19.3953  -44.4329   -8.1991 C   0  0  0  0  0  0  0  0  0  0  0  0
  -18.6892  -45.4959   -8.0792 O   0  0  0  0  0  0  0  0  0  0  0  0
  -20.7794  -44.5014   -8.0386 N   0  0  0  0  0  0  0  0  0  0  0  0
  -21.6121  -43.6313   -7.2466 C   0  0  0  0  0  0  0  0  0  0  0  0
  -22.8493  -43.2033   -7.9910 C   0  0  0  0  0  0  0  0  0  0  0  0
  -23.8447  -42.5313   -7.0949 C   0  0  0  0  0  0  0  0  0  0  0  0
  -23.2279  -41.8044   -5.9237 C   0  0  0  0  0  0  0  0  0  0  0  0
  -22.9538  -40.4951   -6.3046 O   0  0  0  0  0  0  0  0  0  0  0  0
  -21.8273  -39.7718   -6.6540 C   0  0  0  0  0  0  0  0  0  0  0  0
  -20.9001  -39.9975   -7.6575 C   0  0  0  0  0  0  0  0  0  0  0  0
  -19.8564  -39.1075   -7.7835 C   0  0  0  0  0  0  0  0  0  0  0  0
  -18.6995  -39.0820   -8.7135 C   0  0  0  0  0  0  0  0  0  0  0  0
  -17.4910  -39.8122   -8.1520 C   0  0  2  0  0  0  0  0  0  0  0  0
  -17.8065  -40.6484   -7.0453 N   0  0  0  0  0  0  0  0  0  0  0  0
  -17.3360  -41.9486   -6.7536 C   0  0  0  0  0  0  0  0  0  0  0  0
  -16.8241  -42.1490   -5.5819 O   0  0  0  0  0  0  0  0  0  0  0  0
  -16.3963  -38.8076   -7.7846 C   0  0  2  0  0  0  0  0  0  0  0  0
  -16.9639  -37.6116   -7.3391 O   0  0  0  0  0  0  0  0  0  0  0  0
  -15.5367  -38.4355   -8.9675 C   0  0  0  0  0  0  0  0  0  0  0  0
  -14.9557  -39.6237   -9.5738 N   0  0  0  0  0  0  0  0  0  0  0  0
  -13.5486  -39.4685   -9.8268 C   0  0  0  0  0  0  0  0  0  0  0  0
  -13.2622  -38.3265  -10.7614 C   0  0  0  0  0  0  0  0  0  0  0  0
  -14.2365  -37.4455  -11.1788 C   0  0  0  0  0  0  0  0  0  0  0  0
  -13.9809  -36.4046  -12.0310 C   0  0  0  0  0  0  0  0  0  0  0  0
  -12.6973  -36.2223  -12.4964 C   0  0  0  0  0  0  0  0  0  0  0  0
  -11.7026  -37.0830  -12.0994 C   0  0  0  0  0  0  0  0  0  0  0  0
  -11.9780  -38.1147  -11.2493 C   0  0  0  0  0  0  0  0  0  0  0  0
  -15.0695  -35.4741  -12.4566 C   0  0  0  0  0  0  0  0  0  0  0  0
  -16.2562  -35.6375  -11.5210 C   0  0  0  0  0  0  0  0  0  0  0  0
  -15.5516  -35.7952  -13.8544 C   0  0  0  0  0  0  0  0  0  0  0  0
  -14.6292  -34.0382  -12.3610 C   0  0  0  0  0  0  0  0  0  0  0  0
  -19.7737  -38.0108   -6.8959 C   0  0  0  0  0  0  0  0  0  0  0  0
  -20.6724  -37.7578   -5.8964 C   0  0  0  0  0  0  0  0  0  0  0  0
  -21.7018  -38.6611   -5.7938 C   0  0  0  0  0  0  0  0  0  0  0  0
  2  1  1  6
  2  3  1  0
  3  4  1  0
  4  5  2  0
  4  6  1  0
  6  7  1  0
  7  8  1  0
  8  9  1  0
  9 10  1  0
 10 11  1  0
 11 12  1  0
 12 13  1  0
 13 14  2  0
 14 15  1  0
 16 15  1  1
 16 17  1  0
 17 18  1  0
 18 19  2  0
 16 20  1  0
 20 21  1  6
 20 22  1  0
 22 23  1  0
 23 24  1  0
 24 25  1  0
 25 26  2  0
 26 27  1  0
 27 28  2  0
 28 29  1  0
 29 30  2  0
 27 31  1  0
 31 32  1  0
 31 33  1  0
 31 34  1  0
 14 35  1  0
 35 36  2  0
 36 37  1  0
 18  2  1  0
 30 25  1  0
 37 12  2  0
M  END
$$$$
