
     RDKit          3D

 37 39  0  0  0  0  0  0  0  0999 V2000
  -16.5973  -43.3993   -8.6395 C   0  0  0  0  0  0  0  0  0  0  0  0
  -17.7455  -43.4276   -7.6460 C   0  0  2  0  0  0  0  0  0  0  0  0
  -19.0676  -43.5406   -8.3720 C   0  0  0  0  0  0  0  0  0  0  0  0
  -19.7356  -44.8431   -8.1013 C   0  0  0  0  0  0  0  0  0  0  0  0
  -18.9484  -45.8521   -8.1730 O   0  0  0  0  0  0  0  0  0  0  0  0
  -21.0819  -45.0383   -7.7921 N   0  0  0  0  0  0  0  0  0  0  0  0
  -21.8705  -44.3171   -6.8249 C   0  0  0  0  0  0  0  0  0  0  0  0
  -23.2157  -43.9223   -7.3752 C   0  0  0  0  0  0  0  0  0  0  0  0
  -24.1390  -43.4207   -6.3070 C   0  0  0  0  0  0  0  0  0  0  0  0
  -23.4364  -42.7600   -5.1449 C   0  0  0  0  0  0  0  0  0  0  0  0
  -23.3019  -41.4027   -5.4174 O   0  0  0  0  0  0  0  0  0  0  0  0
  -22.2789  -40.5608   -5.8164 C   0  0  0  0  0  0  0  0  0  0  0  0
  -21.4670  -40.6150   -6.9369 C   0  0  0  0  0  0  0  0  0  0  0  0
  -20.5105  -39.6356   -7.0884 C   0  0  0  0  0  0  0  0  0  0  0  0
  -19.4797  -39.4289   -8.1366 C   0  0  0  0  0  0  0  0  0  0  0  0
  -18.1643  -40.1086   -7.7948 C   0  0  2  0  0  0  0  0  0  0  0  0
  -18.2844  -41.0682   -6.7516 N   0  0  0  0  0  0  0  0  0  0  0  0
  -17.6931  -42.3477   -6.6512 C   0  0  0  0  0  0  0  0  0  0  0  0
  -17.0301  -42.6156   -5.5725 O   0  0  0  0  0  0  0  0  0  0  0  0
  -17.1053  -39.0578   -7.4528 C   0  0  2  0  0  0  0  0  0  0  0  0
  -17.5648  -37.7801   -7.7808 O   0  0  0  0  0  0  0  0  0  0  0  0
  -15.8317  -39.2477   -8.2393 C   0  0  0  0  0  0  0  0  0  0  0  0
  -16.0401  -38.9176   -9.6409 N   0  0  0  0  0  0  0  0  0  0  0  0
  -15.0905  -39.5748  -10.4981 C   0  0  0  0  0  0  0  0  0  0  0  0
  -14.5248  -38.6462  -11.5360 C   0  0  0  0  0  0  0  0  0  0  0  0
  -13.7797  -37.5333  -11.2107 C   0  0  0  0  0  0  0  0  0  0  0  0
  -13.2634  -36.6838  -12.1525 C   0  0  0  0  0  0  0  0  0  0  0  0
  -13.4935  -36.9450  -13.4853 C   0  0  0  0  0  0  0  0  0  0  0  0
  -14.2325  -38.0466  -13.8434 C   0  0  0  0  0  0  0  0  0  0  0  0
  -14.7385  -38.8811  -12.8894 C   0  0  0  0  0  0  0  0  0  0  0  0
  -12.4611  -35.4887  -11.7526 C   0  0  0  0  0  0  0  0  0  0  0  0
  -12.3697  -35.4367  -10.2363 C   0  0  0  0  0  0  0  0  0  0  0  0
  -13.1222  -34.2058  -12.2073 C   0  0  0  0  0  0  0  0  0  0  0  0
  -11.0524  -35.5768  -12.2749 C   0  0  0  0  0  0  0  0  0  0  0  0
  -20.3969  -38.6244   -6.1075 C   0  0  0  0  0  0  0  0  0  0  0  0
  -21.1829  -38.5404   -4.9915 C   0  0  0  0  0  0  0  0  0  0  0  0
  -22.1271  -39.5298   -4.8660 C   0  0  0  0  0  0  0  0  0  0  0  0
  2  1  1  6
  2  3  1  0
  3  4  1  0
  4  5  2  0
  4  6  1  0
  6  7  1  0
  7  8  1  0
  8  9  1  0
  9 10  1  0
 10 11  1  0
 11 12  1  0
 12 13  1  0
 13 14  2  0
 14 15  1  0
 16 15  1  1
 16 17  1  0
 17 18  1  0
 18 19  2  0
 16 20  1  0
 20 21  1  6
 20 22  1  0
 22 23  1  0
 23 24  1  0
 24 25  1  0
 25 26  2  0
 26 27  1  0
 27 28  2  0
 28 29  1  0
 29 30  2  0
 27 31  1  0
 31 32  1  0
 31 33  1  0
 31 34  1  0
 14 35  1  0
 35 36  2  0
 36 37  1  0
 18  2  1  0
 30 25  1  0
 37 12  2  0
M  END
$$$$
