
     RDKit          3D

 37 39  0  0  0  0  0  0  0  0999 V2000
  -16.6618  -44.1513   -8.5359 C   0  0  0  0  0  0  0  0  0  0  0  0
  -17.9211  -43.8095   -7.7590 C   0  0  2  0  0  0  0  0  0  0  0  0
  -19.1162  -43.7674   -8.6852 C   0  0  0  0  0  0  0  0  0  0  0  0
  -20.0822  -44.8607   -8.3889 C   0  0  0  0  0  0  0  0  0  0  0  0
  -19.5297  -46.0033   -8.2092 O   0  0  0  0  0  0  0  0  0  0  0  0
  -21.4691  -44.7422   -8.2970 N   0  0  0  0  0  0  0  0  0  0  0  0
  -22.2154  -43.7475   -7.5682 C   0  0  0  0  0  0  0  0  0  0  0  0
  -23.3486  -43.1827   -8.3837 C   0  0  0  0  0  0  0  0  0  0  0  0
  -24.2872  -42.3599   -7.5547 C   0  0  0  0  0  0  0  0  0  0  0  0
  -23.6353  -41.6862   -6.3707 C   0  0  0  0  0  0  0  0  0  0  0  0
  -23.1724  -40.4360   -6.7671 O   0  0  0  0  0  0  0  0  0  0  0  0
  -21.9447  -39.8774   -7.0756 C   0  0  0  0  0  0  0  0  0  0  0  0
  -21.0094  -40.2522   -8.0256 C   0  0  0  0  0  0  0  0  0  0  0  0
  -19.8522  -39.5111   -8.1190 C   0  0  0  0  0  0  0  0  0  0  0  0
  -18.6597  -39.6649   -8.9897 C   0  0  0  0  0  0  0  0  0  0  0  0
  -17.5864  -40.5308   -8.3513 C   0  0  2  0  0  0  0  0  0  0  0  0
  -18.0617  -41.2855   -7.2431 N   0  0  0  0  0  0  0  0  0  0  0  0
  -17.7820  -42.6270   -6.8984 C   0  0  0  0  0  0  0  0  0  0  0  0
  -17.3569  -42.8584   -5.6981 O   0  0  0  0  0  0  0  0  0  0  0  0
  -16.3868  -39.6683   -7.9521 C   0  0  2  0  0  0  0  0  0  0  0  0
  -16.8117  -38.3978   -7.5565 O   0  0  0  0  0  0  0  0  0  0  0  0
  -15.4346  -39.4407   -9.1003 C   0  0  0  0  0  0  0  0  0  0  0  0
  -14.6280  -40.6274   -9.3412 N   0  0  0  0  0  0  0  0  0  0  0  0
  -13.2860  -40.2974   -9.7390 C   0  0  0  0  0  0  0  0  0  0  0  0
  -13.2445  -39.5899  -11.0647 C   0  0  0  0  0  0  0  0  0  0  0  0
  -13.0624  -38.2282  -11.1750 C   0  0  0  0  0  0  0  0  0  0  0  0
  -13.0252  -37.5791  -12.3802 C   0  0  0  0  0  0  0  0  0  0  0  0
  -13.1754  -38.3106  -13.5377 C   0  0  0  0  0  0  0  0  0  0  0  0
  -13.3588  -39.6703  -13.4625 C   0  0  0  0  0  0  0  0  0  0  0  0
  -13.3929  -40.2985  -12.2514 C   0  0  0  0  0  0  0  0  0  0  0  0
  -12.8252  -36.1003  -12.4512 C   0  0  0  0  0  0  0  0  0  0  0  0
  -13.1826  -35.4859  -11.1077 C   0  0  0  0  0  0  0  0  0  0  0  0
  -13.7310  -35.4724  -13.4879 C   0  0  0  0  0  0  0  0  0  0  0  0
  -11.3854  -35.7561  -12.7225 C   0  0  0  0  0  0  0  0  0  0  0  0
  -19.6667  -38.4091   -7.2536 C   0  0  0  0  0  0  0  0  0  0  0  0
  -20.5699  -38.0111   -6.3069 C   0  0  0  0  0  0  0  0  0  0  0  0
  -21.7137  -38.7681   -6.2357 C   0  0  0  0  0  0  0  0  0  0  0  0
  2  1  1  6
  2  3  1  0
  3  4  1  0
  4  5  2  0
  4  6  1  0
  6  7  1  0
  7  8  1  0
  8  9  1  0
  9 10  1  0
 10 11  1  0
 11 12  1  0
 12 13  1  0
 13 14  2  0
 14 15  1  0
 16 15  1  1
 16 17  1  0
 17 18  1  0
 18 19  2  0
 16 20  1  0
 20 21  1  6
 20 22  1  0
 22 23  1  0
 23 24  1  0
 24 25  1  0
 25 26  2  0
 26 27  1  0
 27 28  2  0
 28 29  1  0
 29 30  2  0
 27 31  1  0
 31 32  1  0
 31 33  1  0
 31 34  1  0
 14 35  1  0
 35 36  2  0
 36 37  1  0
 18  2  1  0
 30 25  1  0
 37 12  2  0
M  END
$$$$
