
     RDKit          3D

 37 39  0  0  0  0  0  0  0  0999 V2000
  -16.5988  -43.5274   -9.4673 C   0  0  0  0  0  0  0  0  0  0  0  0
  -17.6084  -43.3436   -8.3479 C   0  0  2  0  0  0  0  0  0  0  0  0
  -19.0176  -43.4190   -8.8919 C   0  0  0  0  0  0  0  0  0  0  0  0
  -19.7398  -44.6192   -8.3878 C   0  0  0  0  0  0  0  0  0  0  0  0
  -19.0451  -45.6956   -8.4302 O   0  0  0  0  0  0  0  0  0  0  0  0
  -21.0458  -44.6590   -7.8989 N   0  0  0  0  0  0  0  0  0  0  0  0
  -21.6477  -43.7681   -6.9390 C   0  0  0  0  0  0  0  0  0  0  0  0
  -23.0196  -43.3193   -7.3686 C   0  0  0  0  0  0  0  0  0  0  0  0
  -23.7580  -42.6226   -6.2666 C   0  0  0  0  0  0  0  0  0  0  0  0
  -22.8647  -41.9019   -5.2852 C   0  0  0  0  0  0  0  0  0  0  0  0
  -22.6664  -40.6004   -5.7341 O   0  0  0  0  0  0  0  0  0  0  0  0
  -21.6439  -39.9018   -6.3512 C   0  0  0  0  0  0  0  0  0  0  0  0
  -20.9893  -40.1516   -7.5457 C   0  0  0  0  0  0  0  0  0  0  0  0
  -19.9905  -39.2835   -7.9277 C   0  0  0  0  0  0  0  0  0  0  0  0
  -19.0908  -39.2863   -9.1085 C   0  0  0  0  0  0  0  0  0  0  0  0
  -17.7962  -40.0377   -8.8463 C   0  0  2  0  0  0  0  0  0  0  0  0
  -17.8516  -40.8613   -7.6878 N   0  0  0  0  0  0  0  0  0  0  0  0
  -17.3486  -42.1690   -7.5045 C   0  0  0  0  0  0  0  0  0  0  0  0
  -16.5738  -42.3732   -6.4881 O   0  0  0  0  0  0  0  0  0  0  0  0
  -16.6272  -39.0533   -8.7628 C   0  0  2  0  0  0  0  0  0  0  0  0
  -16.8915  -37.9185   -9.5332 O   0  0  0  0  0  0  0  0  0  0  0  0
  -15.3476  -39.6319   -9.3145 C   0  0  0  0  0  0  0  0  0  0  0  0
  -14.2168  -39.2726   -8.4724 N   0  0  0  0  0  0  0  0  0  0  0  0
  -12.9725  -39.3116   -9.1924 C   0  0  0  0  0  0  0  0  0  0  0  0
  -13.0955  -38.7251  -10.5710 C   0  0  0  0  0  0  0  0  0  0  0  0
  -13.0826  -37.3669  -10.8046 C   0  0  0  0  0  0  0  0  0  0  0  0
  -13.1956  -36.8279  -12.0583 C   0  0  0  0  0  0  0  0  0  0  0  0
  -13.3283  -37.6720  -13.1388 C   0  0  0  0  0  0  0  0  0  0  0  0
  -13.3448  -39.0314  -12.9402 C   0  0  0  0  0  0  0  0  0  0  0  0
  -13.2308  -39.5489  -11.6824 C   0  0  0  0  0  0  0  0  0  0  0  0
  -13.1766  -35.3481  -12.2637 C   0  0  0  0  0  0  0  0  0  0  0  0
  -11.8861  -34.7842  -11.6920 C   0  0  0  0  0  0  0  0  0  0  0  0
  -14.3213  -34.6776  -11.5362 C   0  0  0  0  0  0  0  0  0  0  0  0
  -13.1978  -34.9995  -13.7276 C   0  0  0  0  0  0  0  0  0  0  0  0
  -19.6769  -38.1838   -7.0971 C   0  0  0  0  0  0  0  0  0  0  0  0
  -20.3043  -37.9073   -5.9136 C   0  0  0  0  0  0  0  0  0  0  0  0
  -21.2951  -38.7892   -5.5576 C   0  0  0  0  0  0  0  0  0  0  0  0
  2  1  1  6
  2  3  1  0
  3  4  1  0
  4  5  2  0
  4  6  1  0
  6  7  1  0
  7  8  1  0
  8  9  1  0
  9 10  1  0
 10 11  1  0
 11 12  1  0
 12 13  1  0
 13 14  2  0
 14 15  1  0
 16 15  1  1
 16 17  1  0
 17 18  1  0
 18 19  2  0
 16 20  1  0
 20 21  1  6
 20 22  1  0
 22 23  1  0
 23 24  1  0
 24 25  1  0
 25 26  2  0
 26 27  1  0
 27 28  2  0
 28 29  1  0
 29 30  2  0
 27 31  1  0
 31 32  1  0
 31 33  1  0
 31 34  1  0
 14 35  1  0
 35 36  2  0
 36 37  1  0
 18  2  1  0
 30 25  1  0
 37 12  2  0
M  END
$$$$
