
     RDKit          3D

 40 42  0  0  0  0  0  0  0  0999 V2000
  -23.4108  -43.9259   -2.4554 C   0  0  0  0  0  0  0  0  0  0  0  0
  -22.9937  -43.9642   -3.9184 C   0  0  0  0  0  0  0  0  0  0  0  0
  -22.2591  -42.7087   -4.3029 C   0  0  0  0  0  0  0  0  0  0  0  0
  -21.8928  -42.6435   -5.6847 N   0  0  0  0  0  0  0  0  0  0  0  0
  -21.4505  -41.4286   -6.2690 C   0  0  0  0  0  0  0  0  0  0  0  0
  -22.1425  -40.2574   -6.1276 C   0  0  0  0  0  0  0  0  0  0  0  0
  -21.6622  -39.1058   -6.7407 C   0  0  0  0  0  0  0  0  0  0  0  0
  -22.3820  -37.8130   -6.6129 C   0  0  0  0  0  0  0  0  0  0  0  0
  -21.5309  -36.7941   -6.2492 O   0  0  0  0  0  0  0  0  0  0  0  0
  -22.1257  -35.8956   -5.3832 C   0  0  0  0  0  0  0  0  0  0  0  0
  -20.4843  -39.1458   -7.4929 C   0  0  0  0  0  0  0  0  0  0  0  0
  -19.7730  -40.3090   -7.6487 C   0  0  0  0  0  0  0  0  0  0  0  0
  -20.2679  -41.4302   -7.0347 C   0  0  0  0  0  0  0  0  0  0  0  0
  -18.5423  -40.4000   -8.4166 C   0  0  0  0  0  0  0  0  0  0  0  0
  -18.4735  -41.2115   -9.3987 O   0  0  0  0  0  0  0  0  0  0  0  0
  -17.3662  -39.6477   -8.1716 N   0  0  0  0  0  0  0  0  0  0  0  0
  -16.2064  -39.7056   -9.0509 C   0  0  1  0  0  0  0  0  0  0  0  0
  -15.9266  -38.4171   -9.7315 C   0  0  0  0  0  0  0  0  0  0  0  0
  -17.0767  -37.7856  -10.3750 C   0  0  0  0  0  0  0  0  0  0  0  0
  -17.6349  -36.6626   -9.8233 C   0  0  0  0  0  0  0  0  0  0  0  0
  -18.7316  -35.9895  -10.3624 C   0  0  0  0  0  0  0  0  0  0  0  0
  -19.2383  -36.5374  -11.5209 C   0  0  0  0  0  0  0  0  0  0  0  0
  -18.6906  -37.6713  -12.0959 C   0  0  0  0  0  0  0  0  0  0  0  0
  -17.6077  -38.3051  -11.5298 C   0  0  0  0  0  0  0  0  0  0  0  0
  -19.2499  -34.8584   -9.7556 O   0  0  0  0  0  0  0  0  0  0  0  0
  -19.8440  -33.8336  -10.5153 C   0  0  0  0  0  0  0  0  0  0  0  0
  -15.0051  -40.3185   -8.3479 C   0  0  2  0  0  0  0  0  0  0  0  0
  -14.0085  -40.3929   -9.3312 O   0  0  0  0  0  0  0  0  0  0  0  0
  -15.3394  -41.7555   -7.9981 C   0  0  0  0  0  0  0  0  0  0  0  0
  -15.2505  -42.6583   -9.1194 N   0  0  0  0  0  0  0  0  0  0  0  0
  -15.0266  -44.0284   -8.6944 C   0  0  0  0  0  0  0  0  0  0  0  0
  -16.2745  -44.8417   -8.8703 C   0  0  0  0  0  0  0  0  0  0  0  0
  -17.5160  -44.2465   -8.7345 C   0  0  0  0  0  0  0  0  0  0  0  0
  -18.6854  -44.9530   -8.8860 C   0  0  0  0  0  0  0  0  0  0  0  0
  -18.6325  -46.2964   -9.1823 C   0  0  0  0  0  0  0  0  0  0  0  0
  -17.3898  -46.9106   -9.3221 C   0  0  0  0  0  0  0  0  0  0  0  0
  -16.2313  -46.1841   -9.1662 C   0  0  0  0  0  0  0  0  0  0  0  0
  -20.0034  -44.2905   -8.7400 C   0  0  0  0  0  0  0  0  0  0  0  0
  -21.1100  -45.0968   -9.3464 C   0  0  0  0  0  0  0  0  0  0  0  0
  -19.8759  -42.9325   -9.4173 C   0  0  0  0  0  0  0  0  0  0  0  0
  1  2  1  0
  2  3  1  0
  3  4  1  0
  4  5  1  0
  5  6  2  0
  6  7  1  0
  7  8  1  0
  8  9  1  0
  9 10  1  0
  7 11  2  0
 11 12  1  0
 12 13  2  0
 12 14  1  0
 14 15  2  0
 14 16  1  0
 16 17  1  0
 17 18  1  1
 18 19  1  0
 19 20  2  0
 20 21  1  0
 21 22  2  0
 22 23  1  0
 23 24  2  0
 21 25  1  0
 25 26  1  0
 17 27  1  0
 27 28  1  6
 27 29  1  0
 29 30  1  0
 30 31  1  0
 31 32  1  0
 32 33  2  0
 33 34  1  0
 34 35  2  0
 35 36  1  0
 36 37  2  0
 34 38  1  0
 38 39  1  0
 38 40  1  0
 13  5  1  0
 24 19  1  0
 37 32  1  0
M  END
$$$$
