
     RDKit          3D

 40 42  0  0  0  0  0  0  0  0999 V2000
  -23.3586  -44.9790   -2.8697 C   0  0  0  0  0  0  0  0  0  0  0  0
  -22.8101  -43.9126   -3.8064 C   0  0  0  0  0  0  0  0  0  0  0  0
  -22.3726  -44.5159   -5.1134 C   0  0  0  0  0  0  0  0  0  0  0  0
  -21.7904  -43.5797   -6.0258 N   0  0  0  0  0  0  0  0  0  0  0  0
  -20.6169  -43.9008   -6.7557 C   0  0  0  0  0  0  0  0  0  0  0  0
  -20.3369  -45.1765   -7.1614 C   0  0  0  0  0  0  0  0  0  0  0  0
  -19.1602  -45.4252   -7.8589 C   0  0  0  0  0  0  0  0  0  0  0  0
  -18.8173  -46.7954   -8.3183 C   0  0  0  0  0  0  0  0  0  0  0  0
  -18.5774  -47.6391   -7.2573 O   0  0  0  0  0  0  0  0  0  0  0  0
  -17.4745  -48.4459   -7.4658 C   0  0  0  0  0  0  0  0  0  0  0  0
  -18.2740  -44.3816   -8.1422 C   0  0  0  0  0  0  0  0  0  0  0  0
  -18.5335  -43.0938   -7.7455 C   0  0  0  0  0  0  0  0  0  0  0  0
  -19.6998  -42.8752   -7.0592 C   0  0  0  0  0  0  0  0  0  0  0  0
  -17.6462  -41.9757   -8.0195 C   0  0  0  0  0  0  0  0  0  0  0  0
  -17.1509  -41.8387   -9.1873 O   0  0  0  0  0  0  0  0  0  0  0  0
  -17.2619  -40.9855   -7.0809 N   0  0  0  0  0  0  0  0  0  0  0  0
  -16.9566  -39.6163   -7.4729 C   0  0  1  0  0  0  0  0  0  0  0  0
  -17.8847  -38.6206   -6.8822 C   0  0  0  0  0  0  0  0  0  0  0  0
  -19.3031  -38.8511   -7.1483 C   0  0  0  0  0  0  0  0  0  0  0  0
  -20.1535  -39.1354   -6.1124 C   0  0  0  0  0  0  0  0  0  0  0  0
  -21.5203  -39.3698   -6.2653 C   0  0  0  0  0  0  0  0  0  0  0  0
  -21.9815  -39.2962   -7.5619 C   0  0  0  0  0  0  0  0  0  0  0  0
  -21.1407  -39.0107   -8.6238 C   0  0  0  0  0  0  0  0  0  0  0  0
  -19.7967  -38.7864   -8.4279 C   0  0  0  0  0  0  0  0  0  0  0  0
  -22.3271  -39.6530   -5.1768 O   0  0  0  0  0  0  0  0  0  0  0  0
  -22.0042  -40.6913   -4.2834 C   0  0  0  0  0  0  0  0  0  0  0  0
  -15.4830  -39.2962   -7.2750 C   0  0  2  0  0  0  0  0  0  0  0  0
  -15.4117  -37.8961   -7.2838 O   0  0  0  0  0  0  0  0  0  0  0  0
  -14.7268  -39.7497   -8.5085 C   0  0  0  0  0  0  0  0  0  0  0  0
  -13.6294  -40.6396   -8.2183 N   0  0  0  0  0  0  0  0  0  0  0  0
  -12.4806  -40.3763   -9.0660 C   0  0  0  0  0  0  0  0  0  0  0  0
  -12.9162  -39.7549  -10.3598 C   0  0  0  0  0  0  0  0  0  0  0  0
  -12.7268  -38.4021  -10.5787 C   0  0  0  0  0  0  0  0  0  0  0  0
  -13.1111  -37.7905  -11.7482 C   0  0  0  0  0  0  0  0  0  0  0  0
  -13.7047  -38.5373  -12.7408 C   0  0  0  0  0  0  0  0  0  0  0  0
  -13.9026  -39.9010  -12.5356 C   0  0  0  0  0  0  0  0  0  0  0  0
  -13.5101  -40.4931  -11.3568 C   0  0  0  0  0  0  0  0  0  0  0  0
  -12.8925  -36.3397  -11.9600 C   0  0  0  0  0  0  0  0  0  0  0  0
  -12.7187  -35.6013  -10.6689 C   0  0  0  0  0  0  0  0  0  0  0  0
  -14.1071  -35.8324  -12.7259 C   0  0  0  0  0  0  0  0  0  0  0  0
  1  2  1  0
  2  3  1  0
  3  4  1  0
  4  5  1  0
  5  6  2  0
  6  7  1  0
  7  8  1  0
  8  9  1  0
  9 10  1  0
  7 11  2  0
 11 12  1  0
 12 13  2  0
 12 14  1  0
 14 15  2  0
 14 16  1  0
 16 17  1  0
 17 18  1  1
 18 19  1  0
 19 20  2  0
 20 21  1  0
 21 22  2  0
 22 23  1  0
 23 24  2  0
 21 25  1  0
 25 26  1  0
 17 27  1  0
 27 28  1  6
 27 29  1  0
 29 30  1  0
 30 31  1  0
 31 32  1  0
 32 33  2  0
 33 34  1  0
 34 35  2  0
 35 36  1  0
 36 37  2  0
 34 38  1  0
 38 39  1  0
 38 40  1  0
 13  5  1  0
 24 19  1  0
 37 32  1  0
M  END
$$$$
