
     RDKit          3D

 40 42  0  0  0  0  0  0  0  0999 V2000
  -24.8563  -44.6884   -4.2765 C   0  0  0  0  0  0  0  0  0  0  0  0
  -24.0342  -43.7306   -5.1265 C   0  0  0  0  0  0  0  0  0  0  0  0
  -23.4801  -44.4262   -6.3401 C   0  0  0  0  0  0  0  0  0  0  0  0
  -22.6839  -43.5882   -7.1838 N   0  0  0  0  0  0  0  0  0  0  0  0
  -21.3104  -43.8659   -7.4062 C   0  0  0  0  0  0  0  0  0  0  0  0
  -20.8087  -45.1376   -7.3704 C   0  0  0  0  0  0  0  0  0  0  0  0
  -19.4490  -45.3382   -7.5803 C   0  0  0  0  0  0  0  0  0  0  0  0
  -18.8625  -46.7023   -7.5503 C   0  0  0  0  0  0  0  0  0  0  0  0
  -18.6943  -47.2084   -8.8194 O   0  0  0  0  0  0  0  0  0  0  0  0
  -17.3969  -47.6253   -9.0517 C   0  0  0  0  0  0  0  0  0  0  0  0
  -18.6052  -44.2508   -7.8258 C   0  0  0  0  0  0  0  0  0  0  0  0
  -19.0857  -42.9659   -7.8665 C   0  0  0  0  0  0  0  0  0  0  0  0
  -20.4294  -42.7952   -7.6560 C   0  0  0  0  0  0  0  0  0  0  0  0
  -18.2499  -41.8046   -8.1218 C   0  0  0  0  0  0  0  0  0  0  0  0
  -18.0088  -41.4568   -9.3254 O   0  0  0  0  0  0  0  0  0  0  0  0
  -17.6529  -40.9901   -7.1270 N   0  0  0  0  0  0  0  0  0  0  0  0
  -17.2532  -39.6131   -7.3834 C   0  0  1  0  0  0  0  0  0  0  0  0
  -18.1591  -38.6177   -6.7587 C   0  0  0  0  0  0  0  0  0  0  0  0
  -19.5732  -38.7561   -7.1005 C   0  0  0  0  0  0  0  0  0  0  0  0
  -20.4417  -39.3099   -6.1972 C   0  0  0  0  0  0  0  0  0  0  0  0
  -21.8062  -39.4837   -6.4305 C   0  0  0  0  0  0  0  0  0  0  0  0
  -22.2452  -39.0515   -7.6633 C   0  0  0  0  0  0  0  0  0  0  0  0
  -21.3858  -38.4892   -8.5914 C   0  0  0  0  0  0  0  0  0  0  0  0
  -20.0449  -38.3369   -8.3200 C   0  0  0  0  0  0  0  0  0  0  0  0
  -22.6320  -40.0514   -5.4756 O   0  0  0  0  0  0  0  0  0  0  0  0
  -23.8984  -39.5066   -5.1932 C   0  0  0  0  0  0  0  0  0  0  0  0
  -15.7783  -39.3965   -7.0819 C   0  0  2  0  0  0  0  0  0  0  0  0
  -15.5226  -38.0699   -7.4566 O   0  0  0  0  0  0  0  0  0  0  0  0
  -14.9663  -40.2520   -8.0346 C   0  0  0  0  0  0  0  0  0  0  0  0
  -13.5517  -39.9722   -7.9991 N   0  0  0  0  0  0  0  0  0  0  0  0
  -12.8227  -40.7435   -8.9897 C   0  0  0  0  0  0  0  0  0  0  0  0
  -13.7139  -41.0855  -10.1466 C   0  0  0  0  0  0  0  0  0  0  0  0
  -14.4384  -42.2641  -10.1402 C   0  0  0  0  0  0  0  0  0  0  0  0
  -15.2663  -42.6183  -11.1788 C   0  0  0  0  0  0  0  0  0  0  0  0
  -15.3865  -41.7821  -12.2657 C   0  0  0  0  0  0  0  0  0  0  0  0
  -14.6633  -40.5914  -12.2874 C   0  0  0  0  0  0  0  0  0  0  0  0
  -13.8400  -40.2563  -11.2366 C   0  0  0  0  0  0  0  0  0  0  0  0
  -16.0357  -43.8849  -11.1454 C   0  0  0  0  0  0  0  0  0  0  0  0
  -15.3806  -44.9201  -10.2842 C   0  0  0  0  0  0  0  0  0  0  0  0
  -16.1435  -44.3569  -12.5892 C   0  0  0  0  0  0  0  0  0  0  0  0
  1  2  1  0
  2  3  1  0
  3  4  1  0
  4  5  1  0
  5  6  2  0
  6  7  1  0
  7  8  1  0
  8  9  1  0
  9 10  1  0
  7 11  2  0
 11 12  1  0
 12 13  2  0
 12 14  1  0
 14 15  2  0
 14 16  1  0
 16 17  1  0
 17 18  1  1
 18 19  1  0
 19 20  2  0
 20 21  1  0
 21 22  2  0
 22 23  1  0
 23 24  2  0
 21 25  1  0
 25 26  1  0
 17 27  1  0
 27 28  1  6
 27 29  1  0
 29 30  1  0
 30 31  1  0
 31 32  1  0
 32 33  2  0
 33 34  1  0
 34 35  2  0
 35 36  1  0
 36 37  2  0
 34 38  1  0
 38 39  1  0
 38 40  1  0
 13  5  1  0
 24 19  1  0
 37 32  1  0
M  END
$$$$
