
     RDKit          3D

 40 42  0  0  0  0  0  0  0  0999 V2000
  -23.2115  -38.9097   -4.9962 C   0  0  0  0  0  0  0  0  0  0  0  0
  -22.8311  -40.3374   -4.6320 C   0  0  0  0  0  0  0  0  0  0  0  0
  -22.8313  -41.2227   -5.8486 C   0  0  0  0  0  0  0  0  0  0  0  0
  -22.3561  -42.5508   -5.6074 N   0  0  0  0  0  0  0  0  0  0  0  0
  -21.0915  -42.9756   -6.0906 C   0  0  0  0  0  0  0  0  0  0  0  0
  -20.6156  -44.2394   -5.8745 C   0  0  0  0  0  0  0  0  0  0  0  0
  -19.3601  -44.5855   -6.3612 C   0  0  0  0  0  0  0  0  0  0  0  0
  -18.8051  -45.9467   -6.1492 C   0  0  0  0  0  0  0  0  0  0  0  0
  -19.5345  -46.9006   -6.8225 O   0  0  0  0  0  0  0  0  0  0  0  0
  -18.7490  -47.6671   -7.6629 C   0  0  0  0  0  0  0  0  0  0  0  0
  -18.5938  -43.6509   -7.0641 C   0  0  0  0  0  0  0  0  0  0  0  0
  -19.0503  -42.3772   -7.2933 C   0  0  0  0  0  0  0  0  0  0  0  0
  -20.2907  -42.0611   -6.8028 C   0  0  0  0  0  0  0  0  0  0  0  0
  -18.2932  -41.3725   -8.0213 C   0  0  0  0  0  0  0  0  0  0  0  0
  -18.5656  -41.1473   -9.2472 O   0  0  0  0  0  0  0  0  0  0  0  0
  -17.2416  -40.5894   -7.4828 N   0  0  0  0  0  0  0  0  0  0  0  0
  -17.0912  -39.1725   -7.7849 C   0  0  1  0  0  0  0  0  0  0  0  0
  -18.2424  -38.3545   -7.3297 C   0  0  0  0  0  0  0  0  0  0  0  0
  -19.5172  -38.6498   -7.9803 C   0  0  0  0  0  0  0  0  0  0  0  0
  -19.5585  -38.8647   -9.3328 C   0  0  0  0  0  0  0  0  0  0  0  0
  -20.7242  -39.1529  -10.0430 C   0  0  0  0  0  0  0  0  0  0  0  0
  -21.8706  -39.2112   -9.2803 C   0  0  0  0  0  0  0  0  0  0  0  0
  -21.8526  -38.9974   -7.9128 C   0  0  0  0  0  0  0  0  0  0  0  0
  -20.6789  -38.7149   -7.2513 C   0  0  0  0  0  0  0  0  0  0  0  0
  -20.6995  -39.3596  -11.4115 O   0  0  0  0  0  0  0  0  0  0  0  0
  -20.1926  -38.3801  -12.2855 C   0  0  0  0  0  0  0  0  0  0  0  0
  -15.7340  -38.6496   -7.3401 C   0  0  2  0  0  0  0  0  0  0  0  0
  -15.4722  -37.5589   -8.1812 O   0  0  0  0  0  0  0  0  0  0  0  0
  -14.6860  -39.6898   -7.6847 C   0  0  0  0  0  0  0  0  0  0  0  0
  -13.6732  -39.2101   -8.5927 N   0  0  0  0  0  0  0  0  0  0  0  0
  -14.1730  -39.1000   -9.9512 C   0  0  0  0  0  0  0  0  0  0  0  0
  -13.6717  -40.2397  -10.7876 C   0  0  0  0  0  0  0  0  0  0  0  0
  -12.9170  -41.2452  -10.2100 C   0  0  0  0  0  0  0  0  0  0  0  0
  -12.4362  -42.3075  -10.9379 C   0  0  0  0  0  0  0  0  0  0  0  0
  -12.7075  -42.3846  -12.2854 C   0  0  0  0  0  0  0  0  0  0  0  0
  -13.4661  -41.3797  -12.8820 C   0  0  0  0  0  0  0  0  0  0  0  0
  -13.9376  -40.3247  -12.1343 C   0  0  0  0  0  0  0  0  0  0  0  0
  -11.6337  -43.3747  -10.2942 C   0  0  0  0  0  0  0  0  0  0  0  0
  -12.4576  -44.2236   -9.3760 C   0  0  0  0  0  0  0  0  0  0  0  0
  -10.5151  -42.6703   -9.5381 C   0  0  0  0  0  0  0  0  0  0  0  0
  1  2  1  0
  2  3  1  0
  3  4  1  0
  4  5  1  0
  5  6  2  0
  6  7  1  0
  7  8  1  0
  8  9  1  0
  9 10  1  0
  7 11  2  0
 11 12  1  0
 12 13  2  0
 12 14  1  0
 14 15  2  0
 14 16  1  0
 16 17  1  0
 17 18  1  1
 18 19  1  0
 19 20  2  0
 20 21  1  0
 21 22  2  0
 22 23  1  0
 23 24  2  0
 21 25  1  0
 25 26  1  0
 17 27  1  0
 27 28  1  6
 27 29  1  0
 29 30  1  0
 30 31  1  0
 31 32  1  0
 32 33  2  0
 33 34  1  0
 34 35  2  0
 35 36  1  0
 36 37  2  0
 34 38  1  0
 38 39  1  0
 38 40  1  0
 13  5  1  0
 24 19  1  0
 37 32  1  0
M  END
$$$$
