
     RDKit          3D

 40 42  0  0  0  0  0  0  0  0999 V2000
  -23.8075  -46.0970   -3.3672 C   0  0  0  0  0  0  0  0  0  0  0  0
  -23.3015  -44.9097   -4.1732 C   0  0  0  0  0  0  0  0  0  0  0  0
  -23.0732  -45.2914   -5.6105 C   0  0  0  0  0  0  0  0  0  0  0  0
  -22.3773  -44.3029   -6.3764 N   0  0  0  0  0  0  0  0  0  0  0  0
  -21.0149  -44.4770   -6.7322 C   0  0  0  0  0  0  0  0  0  0  0  0
  -20.4026  -45.6993   -6.6964 C   0  0  0  0  0  0  0  0  0  0  0  0
  -19.0594  -45.7972   -7.0417 C   0  0  0  0  0  0  0  0  0  0  0  0
  -18.3556  -47.1049   -7.0167 C   0  0  0  0  0  0  0  0  0  0  0  0
  -17.6031  -47.2958   -8.1535 O   0  0  0  0  0  0  0  0  0  0  0  0
  -18.3464  -47.8196   -9.1946 C   0  0  0  0  0  0  0  0  0  0  0  0
  -18.3438  -44.6578   -7.4216 C   0  0  0  0  0  0  0  0  0  0  0  0
  -18.9367  -43.4209   -7.4651 C   0  0  0  0  0  0  0  0  0  0  0  0
  -20.2615  -43.3513   -7.1198 C   0  0  0  0  0  0  0  0  0  0  0  0
  -18.2366  -42.2090   -7.8572 C   0  0  0  0  0  0  0  0  0  0  0  0
  -17.6655  -42.1545   -8.9967 O   0  0  0  0  0  0  0  0  0  0  0  0
  -18.1210  -41.0377   -7.0673 N   0  0  0  0  0  0  0  0  0  0  0  0
  -17.6877  -39.7626   -7.6225 C   0  0  1  0  0  0  0  0  0  0  0  0
  -18.6195  -38.6484   -7.3188 C   0  0  0  0  0  0  0  0  0  0  0  0
  -20.0404  -38.9762   -7.4142 C   0  0  0  0  0  0  0  0  0  0  0  0
  -20.7041  -39.4573   -6.3163 C   0  0  0  0  0  0  0  0  0  0  0  0
  -22.0571  -39.7975   -6.3081 C   0  0  0  0  0  0  0  0  0  0  0  0
  -22.7099  -39.6155   -7.5081 C   0  0  0  0  0  0  0  0  0  0  0  0
  -22.0597  -39.1311   -8.6300 C   0  0  0  0  0  0  0  0  0  0  0  0
  -20.7220  -38.8081   -8.5942 C   0  0  0  0  0  0  0  0  0  0  0  0
  -22.6700  -40.2796   -5.1644 O   0  0  0  0  0  0  0  0  0  0  0  0
  -24.0436  -40.0769   -4.9353 C   0  0  0  0  0  0  0  0  0  0  0  0
  -16.2329  -39.4744   -7.2854 C   0  0  2  0  0  0  0  0  0  0  0  0
  -15.9231  -38.3021   -7.9891 O   0  0  0  0  0  0  0  0  0  0  0  0
  -15.3757  -40.5601   -7.9063 C   0  0  0  0  0  0  0  0  0  0  0  0
  -14.6482  -40.1247   -9.0732 N   0  0  0  0  0  0  0  0  0  0  0  0
  -14.1226  -38.7810   -8.9128 C   0  0  0  0  0  0  0  0  0  0  0  0
  -14.2913  -37.9980  -10.1809 C   0  0  0  0  0  0  0  0  0  0  0  0
  -13.3152  -37.1017  -10.5786 C   0  0  0  0  0  0  0  0  0  0  0  0
  -13.4284  -36.3626  -11.7320 C   0  0  0  0  0  0  0  0  0  0  0  0
  -14.5439  -36.5098  -12.5251 C   0  0  0  0  0  0  0  0  0  0  0  0
  -15.5360  -37.4083  -12.1383 C   0  0  0  0  0  0  0  0  0  0  0  0
  -15.4024  -38.1384  -10.9793 C   0  0  0  0  0  0  0  0  0  0  0  0
  -12.3658  -35.4122  -12.1384 C   0  0  0  0  0  0  0  0  0  0  0  0
  -11.3013  -35.2763  -11.0940 C   0  0  0  0  0  0  0  0  0  0  0  0
  -13.0593  -34.0810  -12.3950 C   0  0  0  0  0  0  0  0  0  0  0  0
  1  2  1  0
  2  3  1  0
  3  4  1  0
  4  5  1  0
  5  6  2  0
  6  7  1  0
  7  8  1  0
  8  9  1  0
  9 10  1  0
  7 11  2  0
 11 12  1  0
 12 13  2  0
 12 14  1  0
 14 15  2  0
 14 16  1  0
 16 17  1  0
 17 18  1  1
 18 19  1  0
 19 20  2  0
 20 21  1  0
 21 22  2  0
 22 23  1  0
 23 24  2  0
 21 25  1  0
 25 26  1  0
 17 27  1  0
 27 28  1  6
 27 29  1  0
 29 30  1  0
 30 31  1  0
 31 32  1  0
 32 33  2  0
 33 34  1  0
 34 35  2  0
 35 36  1  0
 36 37  2  0
 34 38  1  0
 38 39  1  0
 38 40  1  0
 13  5  1  0
 24 19  1  0
 37 32  1  0
M  END
$$$$
