
     RDKit          3D

 40 42  0  0  0  0  0  0  0  0999 V2000
  -24.1980  -47.6587   -9.7471 C   0  0  0  0  0  0  0  0  0  0  0  0
  -23.2519  -46.6146  -10.3219 C   0  0  0  0  0  0  0  0  0  0  0  0
  -22.9616  -45.5363   -9.3136 C   0  0  0  0  0  0  0  0  0  0  0  0
  -21.7849  -44.7720   -9.5948 N   0  0  0  0  0  0  0  0  0  0  0  0
  -21.4197  -43.6648   -8.7862 C   0  0  0  0  0  0  0  0  0  0  0  0
  -22.2468  -43.1644   -7.8188 C   0  0  0  0  0  0  0  0  0  0  0  0
  -21.8342  -42.0660   -7.0730 C   0  0  0  0  0  0  0  0  0  0  0  0
  -22.7008  -41.4910   -6.0128 C   0  0  0  0  0  0  0  0  0  0  0  0
  -22.3292  -40.2031   -5.6992 O   0  0  0  0  0  0  0  0  0  0  0  0
  -23.1055  -39.2595   -6.3457 C   0  0  0  0  0  0  0  0  0  0  0  0
  -20.5868  -41.4807   -7.3101 C   0  0  0  0  0  0  0  0  0  0  0  0
  -19.7399  -41.9653   -8.2752 C   0  0  0  0  0  0  0  0  0  0  0  0
  -20.1704  -43.0484   -8.9967 C   0  0  0  0  0  0  0  0  0  0  0  0
  -18.4331  -41.3943   -8.5559 C   0  0  0  0  0  0  0  0  0  0  0  0
  -17.9658  -41.4485   -9.7418 O   0  0  0  0  0  0  0  0  0  0  0  0
  -17.5949  -40.7598   -7.6051 N   0  0  0  0  0  0  0  0  0  0  0  0
  -16.8569  -39.5409   -7.9068 C   0  0  1  0  0  0  0  0  0  0  0  0
  -17.5949  -38.3071   -7.5394 C   0  0  0  0  0  0  0  0  0  0  0  0
  -18.8234  -38.0641   -8.2926 C   0  0  0  0  0  0  0  0  0  0  0  0
  -18.8175  -38.1690   -9.6586 C   0  0  0  0  0  0  0  0  0  0  0  0
  -19.9371  -37.9568  -10.4634 C   0  0  0  0  0  0  0  0  0  0  0  0
  -21.0884  -37.6246   -9.7826 C   0  0  0  0  0  0  0  0  0  0  0  0
  -21.1176  -37.5129   -8.4032 C   0  0  0  0  0  0  0  0  0  0  0  0
  -19.9883  -37.7305   -7.6468 C   0  0  0  0  0  0  0  0  0  0  0  0
  -19.8657  -38.0779  -11.8405 O   0  0  0  0  0  0  0  0  0  0  0  0
  -18.7741  -38.7159  -12.4584 C   0  0  0  0  0  0  0  0  0  0  0  0
  -15.4345  -39.6047   -7.3723 C   0  0  2  0  0  0  0  0  0  0  0  0
  -14.6834  -38.8029   -8.2433 O   0  0  0  0  0  0  0  0  0  0  0  0
  -14.9145  -41.0155   -7.5680 C   0  0  0  0  0  0  0  0  0  0  0  0
  -13.5289  -41.0703   -7.9650 N   0  0  0  0  0  0  0  0  0  0  0  0
  -13.3827  -41.1737   -9.4057 C   0  0  0  0  0  0  0  0  0  0  0  0
  -12.9390  -39.8621   -9.9823 C   0  0  0  0  0  0  0  0  0  0  0  0
  -13.1931  -39.5658  -11.3096 C   0  0  0  0  0  0  0  0  0  0  0  0
  -12.8041  -38.3773  -11.8802 C   0  0  0  0  0  0  0  0  0  0  0  0
  -12.1396  -37.4440  -11.1169 C   0  0  0  0  0  0  0  0  0  0  0  0
  -11.8760  -37.7274   -9.7785 C   0  0  0  0  0  0  0  0  0  0  0  0
  -12.2745  -38.9240   -9.2274 C   0  0  0  0  0  0  0  0  0  0  0  0
  -13.0927  -38.0819  -13.3039 C   0  0  0  0  0  0  0  0  0  0  0  0
  -11.8790  -38.2316  -14.1681 C   0  0  0  0  0  0  0  0  0  0  0  0
  -13.6258  -36.6560  -13.3444 C   0  0  0  0  0  0  0  0  0  0  0  0
  1  2  1  0
  2  3  1  0
  3  4  1  0
  4  5  1  0
  5  6  2  0
  6  7  1  0
  7  8  1  0
  8  9  1  0
  9 10  1  0
  7 11  2  0
 11 12  1  0
 12 13  2  0
 12 14  1  0
 14 15  2  0
 14 16  1  0
 16 17  1  0
 17 18  1  1
 18 19  1  0
 19 20  2  0
 20 21  1  0
 21 22  2  0
 22 23  1  0
 23 24  2  0
 21 25  1  0
 25 26  1  0
 17 27  1  0
 27 28  1  6
 27 29  1  0
 29 30  1  0
 30 31  1  0
 31 32  1  0
 32 33  2  0
 33 34  1  0
 34 35  2  0
 35 36  1  0
 36 37  2  0
 34 38  1  0
 38 39  1  0
 38 40  1  0
 13  5  1  0
 24 19  1  0
 37 32  1  0
M  END
$$$$
