
     RDKit          3D

 40 42  0  0  0  0  0  0  0  0999 V2000
  -25.5762  -40.3658  -11.1246 C   0  0  0  0  0  0  0  0  0  0  0  0
  -24.8457  -41.6885  -11.3044 C   0  0  0  0  0  0  0  0  0  0  0  0
  -23.4620  -41.4703  -11.8535 C   0  0  0  0  0  0  0  0  0  0  0  0
  -22.6866  -42.6662  -11.9818 N   0  0  0  0  0  0  0  0  0  0  0  0
  -21.6870  -42.9970  -11.0307 C   0  0  0  0  0  0  0  0  0  0  0  0
  -21.5810  -44.2487  -10.4901 C   0  0  0  0  0  0  0  0  0  0  0  0
  -20.5885  -44.5013   -9.5498 C   0  0  0  0  0  0  0  0  0  0  0  0
  -20.4378  -45.8461   -8.9378 C   0  0  0  0  0  0  0  0  0  0  0  0
  -20.6228  -46.8470   -9.8646 O   0  0  0  0  0  0  0  0  0  0  0  0
  -21.7427  -47.6118   -9.5963 C   0  0  0  0  0  0  0  0  0  0  0  0
  -19.7089  -43.4859   -9.1625 C   0  0  0  0  0  0  0  0  0  0  0  0
  -19.7958  -42.2224   -9.6912 C   0  0  0  0  0  0  0  0  0  0  0  0
  -20.7829  -41.9993  -10.6157 C   0  0  0  0  0  0  0  0  0  0  0  0
  -18.9029  -41.1360   -9.3238 C   0  0  0  0  0  0  0  0  0  0  0  0
  -18.4959  -40.3267  -10.2222 O   0  0  0  0  0  0  0  0  0  0  0  0
  -18.4211  -40.8781   -8.0160 N   0  0  0  0  0  0  0  0  0  0  0  0
  -17.9869  -39.5539   -7.5921 C   0  0  1  0  0  0  0  0  0  0  0  0
  -18.7331  -39.0455   -6.4145 C   0  0  0  0  0  0  0  0  0  0  0  0
  -20.1892  -39.1151   -6.5175 C   0  0  0  0  0  0  0  0  0  0  0  0
  -20.8789  -40.0580   -5.8017 C   0  0  0  0  0  0  0  0  0  0  0  0
  -22.2661  -40.2028   -5.8334 C   0  0  0  0  0  0  0  0  0  0  0  0
  -22.9252  -39.3129   -6.6536 C   0  0  0  0  0  0  0  0  0  0  0  0
  -22.2491  -38.3523   -7.3860 C   0  0  0  0  0  0  0  0  0  0  0  0
  -20.8781  -38.2447   -7.3256 C   0  0  0  0  0  0  0  0  0  0  0  0
  -22.9042  -41.1776   -5.0859 O   0  0  0  0  0  0  0  0  0  0  0  0
  -23.8912  -40.8394   -4.1415 C   0  0  0  0  0  0  0  0  0  0  0  0
  -16.4739  -39.4813   -7.4562 C   0  0  2  0  0  0  0  0  0  0  0  0
  -16.1955  -38.1276   -7.2206 O   0  0  0  0  0  0  0  0  0  0  0  0
  -15.8584  -39.7942   -8.8061 C   0  0  0  0  0  0  0  0  0  0  0  0
  -15.1322  -38.6880   -9.3799 N   0  0  0  0  0  0  0  0  0  0  0  0
  -13.6961  -38.8878   -9.3072 C   0  0  0  0  0  0  0  0  0  0  0  0
  -13.2751  -39.9994  -10.2219 C   0  0  0  0  0  0  0  0  0  0  0  0
  -12.1656  -40.7673   -9.9165 C   0  0  0  0  0  0  0  0  0  0  0  0
  -11.7431  -41.7949  -10.7259 C   0  0  0  0  0  0  0  0  0  0  0  0
  -12.4377  -42.0785  -11.8801 C   0  0  0  0  0  0  0  0  0  0  0  0
  -13.5573  -41.3141  -12.2019 C   0  0  0  0  0  0  0  0  0  0  0  0
  -13.9628  -40.2897  -11.3771 C   0  0  0  0  0  0  0  0  0  0  0  0
  -10.5535  -42.6061  -10.3736 C   0  0  0  0  0  0  0  0  0  0  0  0
  -10.5395  -42.9870   -8.9254 C   0  0  0  0  0  0  0  0  0  0  0  0
   -9.3388  -41.7609  -10.7330 C   0  0  0  0  0  0  0  0  0  0  0  0
  1  2  1  0
  2  3  1  0
  3  4  1  0
  4  5  1  0
  5  6  2  0
  6  7  1  0
  7  8  1  0
  8  9  1  0
  9 10  1  0
  7 11  2  0
 11 12  1  0
 12 13  2  0
 12 14  1  0
 14 15  2  0
 14 16  1  0
 16 17  1  0
 17 18  1  1
 18 19  1  0
 19 20  2  0
 20 21  1  0
 21 22  2  0
 22 23  1  0
 23 24  2  0
 21 25  1  0
 25 26  1  0
 17 27  1  0
 27 28  1  6
 27 29  1  0
 29 30  1  0
 30 31  1  0
 31 32  1  0
 32 33  2  0
 33 34  1  0
 34 35  2  0
 35 36  1  0
 36 37  2  0
 34 38  1  0
 38 39  1  0
 38 40  1  0
 13  5  1  0
 24 19  1  0
 37 32  1  0
M  END
$$$$
