
     RDKit          3D

 40 42  0  0  0  0  0  0  0  0999 V2000
  -22.1352  -40.0956   -3.8027 C   0  0  0  0  0  0  0  0  0  0  0  0
  -21.5632  -41.4995   -3.9340 C   0  0  0  0  0  0  0  0  0  0  0  0
  -22.3719  -42.3234   -4.8989 C   0  0  0  0  0  0  0  0  0  0  0  0
  -21.8382  -43.6278   -5.1469 N   0  0  0  0  0  0  0  0  0  0  0  0
  -20.9712  -43.8683   -6.2440 C   0  0  0  0  0  0  0  0  0  0  0  0
  -20.9654  -45.0562   -6.9218 C   0  0  0  0  0  0  0  0  0  0  0  0
  -20.0781  -45.2322   -7.9775 C   0  0  0  0  0  0  0  0  0  0  0  0
  -20.0385  -46.5059   -8.7404 C   0  0  0  0  0  0  0  0  0  0  0  0
  -21.0092  -46.5414   -9.7158 O   0  0  0  0  0  0  0  0  0  0  0  0
  -20.4968  -46.8734  -10.9560 C   0  0  0  0  0  0  0  0  0  0  0  0
  -19.2022  -44.2051   -8.3416 C   0  0  0  0  0  0  0  0  0  0  0  0
  -19.1899  -43.0047   -7.6765 C   0  0  0  0  0  0  0  0  0  0  0  0
  -20.0740  -42.8566   -6.6394 C   0  0  0  0  0  0  0  0  0  0  0  0
  -18.3020  -41.9064   -8.0200 C   0  0  0  0  0  0  0  0  0  0  0  0
  -17.7444  -41.8849   -9.1673 O   0  0  0  0  0  0  0  0  0  0  0  0
  -17.9820  -40.8159   -7.1728 N   0  0  0  0  0  0  0  0  0  0  0  0
  -17.6708  -39.4909   -7.6915 C   0  0  1  0  0  0  0  0  0  0  0  0
  -18.6662  -38.4630   -7.2986 C   0  0  0  0  0  0  0  0  0  0  0  0
  -19.8918  -38.4412   -8.0942 C   0  0  0  0  0  0  0  0  0  0  0  0
  -20.0568  -39.3382   -9.1166 C   0  0  0  0  0  0  0  0  0  0  0  0
  -21.1886  -39.3963   -9.9302 C   0  0  0  0  0  0  0  0  0  0  0  0
  -22.1643  -38.4684   -9.6364 C   0  0  0  0  0  0  0  0  0  0  0  0
  -22.0192  -37.5528   -8.6084 C   0  0  0  0  0  0  0  0  0  0  0  0
  -20.8843  -37.5300   -7.8297 C   0  0  0  0  0  0  0  0  0  0  0  0
  -21.2944  -40.3275  -10.9489 O   0  0  0  0  0  0  0  0  0  0  0  0
  -20.2663  -40.4884  -11.8962 C   0  0  0  0  0  0  0  0  0  0  0  0
  -16.2265  -39.1074   -7.4081 C   0  0  2  0  0  0  0  0  0  0  0  0
  -16.1068  -37.7859   -7.8606 O   0  0  0  0  0  0  0  0  0  0  0  0
  -15.3288  -39.9297   -8.3120 C   0  0  0  0  0  0  0  0  0  0  0  0
  -16.0462  -40.6627   -9.3262 N   0  0  0  0  0  0  0  0  0  0  0  0
  -15.6721  -40.2419  -10.6643 C   0  0  0  0  0  0  0  0  0  0  0  0
  -14.1959  -39.9873  -10.7396 C   0  0  0  0  0  0  0  0  0  0  0  0
  -13.6946  -38.7256  -10.4736 C   0  0  0  0  0  0  0  0  0  0  0  0
  -12.3498  -38.4467  -10.5315 C   0  0  0  0  0  0  0  0  0  0  0  0
  -11.4636  -39.4464  -10.8640 C   0  0  0  0  0  0  0  0  0  0  0  0
  -11.9528  -40.7225  -11.1349 C   0  0  0  0  0  0  0  0  0  0  0  0
  -13.3033  -40.9798  -11.0710 C   0  0  0  0  0  0  0  0  0  0  0  0
  -11.8375  -37.0872  -10.2373 C   0  0  0  0  0  0  0  0  0  0  0  0
  -12.5865  -36.4324   -9.1180 C   0  0  0  0  0  0  0  0  0  0  0  0
  -11.9709  -36.2920  -11.5292 C   0  0  0  0  0  0  0  0  0  0  0  0
  1  2  1  0
  2  3  1  0
  3  4  1  0
  4  5  1  0
  5  6  2  0
  6  7  1  0
  7  8  1  0
  8  9  1  0
  9 10  1  0
  7 11  2  0
 11 12  1  0
 12 13  2  0
 12 14  1  0
 14 15  2  0
 14 16  1  0
 16 17  1  0
 17 18  1  1
 18 19  1  0
 19 20  2  0
 20 21  1  0
 21 22  2  0
 22 23  1  0
 23 24  2  0
 21 25  1  0
 25 26  1  0
 17 27  1  0
 27 28  1  6
 27 29  1  0
 29 30  1  0
 30 31  1  0
 31 32  1  0
 32 33  2  0
 33 34  1  0
 34 35  2  0
 35 36  1  0
 36 37  2  0
 34 38  1  0
 38 39  1  0
 38 40  1  0
 13  5  1  0
 24 19  1  0
 37 32  1  0
M  END
$$$$
