
     RDKit          3D

 40 42  0  0  0  0  0  0  0  0999 V2000
  -21.3260  -49.4936   -8.3994 C   0  0  0  0  0  0  0  0  0  0  0  0
  -21.9062  -48.1010   -8.5980 C   0  0  0  0  0  0  0  0  0  0  0  0
  -20.8878  -47.0414   -8.2756 C   0  0  0  0  0  0  0  0  0  0  0  0
  -21.2944  -45.7131   -8.6196 N   0  0  0  0  0  0  0  0  0  0  0  0
  -20.9761  -44.6103   -7.7858 C   0  0  0  0  0  0  0  0  0  0  0  0
  -21.6142  -44.3872   -6.5969 C   0  0  0  0  0  0  0  0  0  0  0  0
  -21.2653  -43.2773   -5.8358 C   0  0  0  0  0  0  0  0  0  0  0  0
  -21.9326  -42.9976   -4.5387 C   0  0  0  0  0  0  0  0  0  0  0  0
  -21.7056  -44.0030   -3.6262 O   0  0  0  0  0  0  0  0  0  0  0  0
  -22.3029  -43.7501   -2.4055 C   0  0  0  0  0  0  0  0  0  0  0  0
  -20.2724  -42.3998   -6.2820 C   0  0  0  0  0  0  0  0  0  0  0  0
  -19.6185  -42.6030   -7.4713 C   0  0  0  0  0  0  0  0  0  0  0  0
  -19.9812  -43.7041   -8.2028 C   0  0  0  0  0  0  0  0  0  0  0  0
  -18.5777  -41.7224   -7.9751 C   0  0  0  0  0  0  0  0  0  0  0  0
  -17.9758  -42.0183   -9.0604 O   0  0  0  0  0  0  0  0  0  0  0  0
  -18.1490  -40.5220   -7.3550 N   0  0  0  0  0  0  0  0  0  0  0  0
  -17.2470  -39.5849   -8.0106 C   0  0  1  0  0  0  0  0  0  0  0  0
  -17.8502  -38.2454   -8.2198 C   0  0  0  0  0  0  0  0  0  0  0  0
  -19.2509  -38.2470   -8.6363 C   0  0  0  0  0  0  0  0  0  0  0  0
  -19.5763  -38.5501   -9.9322 C   0  0  0  0  0  0  0  0  0  0  0  0
  -20.8815  -38.5781  -10.4241 C   0  0  0  0  0  0  0  0  0  0  0  0
  -21.8578  -38.2734   -9.5004 C   0  0  0  0  0  0  0  0  0  0  0  0
  -21.5524  -37.9641   -8.1862 C   0  0  0  0  0  0  0  0  0  0  0  0
  -20.2494  -37.9475   -7.7426 C   0  0  0  0  0  0  0  0  0  0  0  0
  -21.1447  -38.8918  -11.7464 O   0  0  0  0  0  0  0  0  0  0  0  0
  -20.9722  -40.2017  -12.2309 C   0  0  0  0  0  0  0  0  0  0  0  0
  -15.8833  -39.5616   -7.3376 C   0  0  2  0  0  0  0  0  0  0  0  0
  -15.8313  -38.3319   -6.6661 O   0  0  0  0  0  0  0  0  0  0  0  0
  -14.8207  -39.4812   -8.4162 C   0  0  0  0  0  0  0  0  0  0  0  0
  -14.2259  -40.7556   -8.7368 N   0  0  0  0  0  0  0  0  0  0  0  0
  -12.8241  -40.6245   -9.0909 C   0  0  0  0  0  0  0  0  0  0  0  0
  -12.6714  -39.7787  -10.3201 C   0  0  0  0  0  0  0  0  0  0  0  0
  -12.2144  -38.4771  -10.2148 C   0  0  0  0  0  0  0  0  0  0  0  0
  -12.0603  -37.6659  -11.3138 C   0  0  0  0  0  0  0  0  0  0  0  0
  -12.3672  -38.1527  -12.5644 C   0  0  0  0  0  0  0  0  0  0  0  0
  -12.8288  -39.4615  -12.6871 C   0  0  0  0  0  0  0  0  0  0  0  0
  -12.9758  -40.2565  -11.5733 C   0  0  0  0  0  0  0  0  0  0  0  0
  -11.5641  -36.2760  -11.1746 C   0  0  0  0  0  0  0  0  0  0  0  0
  -10.1122  -36.2293  -10.8111 C   0  0  0  0  0  0  0  0  0  0  0  0
  -12.4226  -35.6219  -10.1002 C   0  0  0  0  0  0  0  0  0  0  0  0
  1  2  1  0
  2  3  1  0
  3  4  1  0
  4  5  1  0
  5  6  2  0
  6  7  1  0
  7  8  1  0
  8  9  1  0
  9 10  1  0
  7 11  2  0
 11 12  1  0
 12 13  2  0
 12 14  1  0
 14 15  2  0
 14 16  1  0
 16 17  1  0
 17 18  1  1
 18 19  1  0
 19 20  2  0
 20 21  1  0
 21 22  2  0
 22 23  1  0
 23 24  2  0
 21 25  1  0
 25 26  1  0
 17 27  1  0
 27 28  1  1
 27 29  1  0
 29 30  1  0
 30 31  1  0
 31 32  1  0
 32 33  2  0
 33 34  1  0
 34 35  2  0
 35 36  1  0
 36 37  2  0
 34 38  1  0
 38 39  1  0
 38 40  1  0
 13  5  1  0
 24 19  1  0
 37 32  1  0
M  END
$$$$
