
     RDKit          3D

 40 42  0  0  0  0  0  0  0  0999 V2000
  -26.3844  -42.1050  -10.6577 C   0  0  0  0  0  0  0  0  0  0  0  0
  -24.8756  -42.1579  -10.8483 C   0  0  0  0  0  0  0  0  0  0  0  0
  -24.2892  -43.3702  -10.1774 C   0  0  0  0  0  0  0  0  0  0  0  0
  -22.8594  -43.4227  -10.2067 N   0  0  0  0  0  0  0  0  0  0  0  0
  -22.0917  -43.1324   -9.0495 C   0  0  0  0  0  0  0  0  0  0  0  0
  -22.5558  -43.3769   -7.7865 C   0  0  0  0  0  0  0  0  0  0  0  0
  -21.7586  -43.0528   -6.6946 C   0  0  0  0  0  0  0  0  0  0  0  0
  -22.2235  -43.3017   -5.3061 C   0  0  0  0  0  0  0  0  0  0  0  0
  -23.0504  -42.2948   -4.8616 O   0  0  0  0  0  0  0  0  0  0  0  0
  -22.4761  -41.5520   -3.8471 C   0  0  0  0  0  0  0  0  0  0  0  0
  -20.4962  -42.4836   -6.8870 C   0  0  0  0  0  0  0  0  0  0  0  0
  -20.0092  -42.2291   -8.1446 C   0  0  0  0  0  0  0  0  0  0  0  0
  -20.8148  -42.5574   -9.2040 C   0  0  0  0  0  0  0  0  0  0  0  0
  -18.7030  -41.6432   -8.3957 C   0  0  0  0  0  0  0  0  0  0  0  0
  -18.2592  -41.5869   -9.5905 O   0  0  0  0  0  0  0  0  0  0  0  0
  -17.8409  -41.1086   -7.4057 N   0  0  0  0  0  0  0  0  0  0  0  0
  -17.2058  -39.8054   -7.5462 C   0  0  1  0  0  0  0  0  0  0  0  0
  -17.8468  -38.7529   -6.7197 C   0  0  0  0  0  0  0  0  0  0  0  0
  -19.2905  -38.6105   -6.8957 C   0  0  0  0  0  0  0  0  0  0  0  0
  -20.1369  -38.9224   -5.8645 C   0  0  0  0  0  0  0  0  0  0  0  0
  -21.5264  -38.8194   -5.9356 C   0  0  0  0  0  0  0  0  0  0  0  0
  -22.0153  -38.3705   -7.1434 C   0  0  0  0  0  0  0  0  0  0  0  0
  -21.1791  -38.0497   -8.1988 C   0  0  0  0  0  0  0  0  0  0  0  0
  -19.8122  -38.1668   -8.0858 C   0  0  0  0  0  0  0  0  0  0  0  0
  -22.3278  -39.1510   -4.8568 O   0  0  0  0  0  0  0  0  0  0  0  0
  -23.4738  -38.3967   -4.5435 C   0  0  0  0  0  0  0  0  0  0  0  0
  -15.6968  -39.9010   -7.3819 C   0  0  2  0  0  0  0  0  0  0  0  0
  -15.3005  -38.6349   -6.9283 O   0  0  0  0  0  0  0  0  0  0  0  0
  -15.0762  -40.0531   -8.7569 C   0  0  0  0  0  0  0  0  0  0  0  0
  -13.9351  -40.9350   -8.7810 N   0  0  0  0  0  0  0  0  0  0  0  0
  -13.2004  -40.8351  -10.0292 C   0  0  0  0  0  0  0  0  0  0  0  0
  -13.9611  -40.0041  -11.0193 C   0  0  0  0  0  0  0  0  0  0  0  0
  -13.5940  -38.6904  -11.2506 C   0  0  0  0  0  0  0  0  0  0  0  0
  -14.2627  -37.8921  -12.1477 C   0  0  0  0  0  0  0  0  0  0  0  0
  -15.3339  -38.4046  -12.8443 C   0  0  0  0  0  0  0  0  0  0  0  0
  -15.7162  -39.7259  -12.6226 C   0  0  0  0  0  0  0  0  0  0  0  0
  -15.0324  -40.5076  -11.7196 C   0  0  0  0  0  0  0  0  0  0  0  0
  -13.8463  -36.4887  -12.3808 C   0  0  0  0  0  0  0  0  0  0  0  0
  -12.4947  -36.1986  -11.8051 C   0  0  0  0  0  0  0  0  0  0  0  0
  -14.9168  -35.6141  -11.7419 C   0  0  0  0  0  0  0  0  0  0  0  0
  1  2  1  0
  2  3  1  0
  3  4  1  0
  4  5  1  0
  5  6  2  0
  6  7  1  0
  7  8  1  0
  8  9  1  0
  9 10  1  0
  7 11  2  0
 11 12  1  0
 12 13  2  0
 12 14  1  0
 14 15  2  0
 14 16  1  0
 16 17  1  0
 17 18  1  1
 18 19  1  0
 19 20  2  0
 20 21  1  0
 21 22  2  0
 22 23  1  0
 23 24  2  0
 21 25  1  0
 25 26  1  0
 17 27  1  0
 27 28  1  6
 27 29  1  0
 29 30  1  0
 30 31  1  0
 31 32  1  0
 32 33  2  0
 33 34  1  0
 34 35  2  0
 35 36  1  0
 36 37  2  0
 34 38  1  0
 38 39  1  0
 38 40  1  0
 13  5  1  0
 24 19  1  0
 37 32  1  0
M  END
$$$$
