
     RDKit          3D

 40 42  0  0  0  0  0  0  0  0999 V2000
  -23.5551  -42.2677   -3.0432 C   0  0  0  0  0  0  0  0  0  0  0  0
  -23.1279  -41.5511   -4.3158 C   0  0  0  0  0  0  0  0  0  0  0  0
  -23.5267  -42.3353   -5.5363 C   0  0  0  0  0  0  0  0  0  0  0  0
  -22.9183  -41.8817   -6.7495 N   0  0  0  0  0  0  0  0  0  0  0  0
  -21.7113  -42.4572   -7.2237 C   0  0  0  0  0  0  0  0  0  0  0  0
  -21.5700  -43.8048   -7.4094 C   0  0  0  0  0  0  0  0  0  0  0  0
  -20.3539  -44.3051   -7.8607 C   0  0  0  0  0  0  0  0  0  0  0  0
  -20.1573  -45.7614   -8.0760 C   0  0  0  0  0  0  0  0  0  0  0  0
  -19.6364  -46.3721   -6.9577 O   0  0  0  0  0  0  0  0  0  0  0  0
  -19.5094  -47.7395   -7.1161 C   0  0  0  0  0  0  0  0  0  0  0  0
  -19.2880  -43.4388   -8.1220 C   0  0  0  0  0  0  0  0  0  0  0  0
  -19.4062  -42.0832   -7.9432 C   0  0  0  0  0  0  0  0  0  0  0  0
  -20.6151  -41.6156   -7.4972 C   0  0  0  0  0  0  0  0  0  0  0  0
  -18.3294  -41.1427   -8.2049 C   0  0  0  0  0  0  0  0  0  0  0  0
  -17.6603  -41.2393   -9.2869 O   0  0  0  0  0  0  0  0  0  0  0  0
  -17.9342  -40.0893   -7.3428 N   0  0  0  0  0  0  0  0  0  0  0  0
  -17.0084  -39.0454   -7.7609 C   0  0  1  0  0  0  0  0  0  0  0  0
  -17.6101  -37.6893   -7.7367 C   0  0  0  0  0  0  0  0  0  0  0  0
  -18.9535  -37.5896   -8.3032 C   0  0  0  0  0  0  0  0  0  0  0  0
  -19.1167  -37.5158   -9.6615 C   0  0  0  0  0  0  0  0  0  0  0  0
  -20.3556  -37.4188  -10.2956 C   0  0  0  0  0  0  0  0  0  0  0  0
  -21.4427  -37.4014   -9.4487 C   0  0  0  0  0  0  0  0  0  0  0  0
  -21.3016  -37.4748   -8.0736 C   0  0  0  0  0  0  0  0  0  0  0  0
  -20.0590  -37.5688   -7.4890 C   0  0  0  0  0  0  0  0  0  0  0  0
  -20.4536  -37.3469  -11.6745 O   0  0  0  0  0  0  0  0  0  0  0  0
  -19.5424  -36.5850  -12.4291 C   0  0  0  0  0  0  0  0  0  0  0  0
  -15.6787  -39.1557   -7.0308 C   0  0  2  0  0  0  0  0  0  0  0  0
  -14.8609  -38.1796   -7.6175 O   0  0  0  0  0  0  0  0  0  0  0  0
  -15.0463  -40.4860   -7.3906 C   0  0  0  0  0  0  0  0  0  0  0  0
  -13.7221  -40.3635   -7.9490 N   0  0  0  0  0  0  0  0  0  0  0  0
  -13.0948  -41.6584   -8.1427 C   0  0  0  0  0  0  0  0  0  0  0  0
  -13.7630  -42.4019   -9.2609 C   0  0  0  0  0  0  0  0  0  0  0  0
  -14.6807  -43.3987   -8.9810 C   0  0  0  0  0  0  0  0  0  0  0  0
  -15.3161  -44.1062   -9.9735 C   0  0  0  0  0  0  0  0  0  0  0  0
  -15.0389  -43.8233  -11.2920 C   0  0  0  0  0  0  0  0  0  0  0  0
  -14.1169  -42.8223  -11.5904 C   0  0  0  0  0  0  0  0  0  0  0  0
  -13.4921  -42.1261  -10.5808 C   0  0  0  0  0  0  0  0  0  0  0  0
  -16.2992  -45.1666   -9.6471 C   0  0  0  0  0  0  0  0  0  0  0  0
  -16.8546  -45.0145   -8.2648 C   0  0  0  0  0  0  0  0  0  0  0  0
  -15.5653  -46.4918   -9.8035 C   0  0  0  0  0  0  0  0  0  0  0  0
  1  2  1  0
  2  3  1  0
  3  4  1  0
  4  5  1  0
  5  6  2  0
  6  7  1  0
  7  8  1  0
  8  9  1  0
  9 10  1  0
  7 11  2  0
 11 12  1  0
 12 13  2  0
 12 14  1  0
 14 15  2  0
 14 16  1  0
 16 17  1  0
 17 18  1  1
 18 19  1  0
 19 20  2  0
 20 21  1  0
 21 22  2  0
 22 23  1  0
 23 24  2  0
 21 25  1  0
 25 26  1  0
 17 27  1  0
 27 28  1  6
 27 29  1  0
 29 30  1  0
 30 31  1  0
 31 32  1  0
 32 33  2  0
 33 34  1  0
 34 35  2  0
 35 36  1  0
 36 37  2  0
 34 38  1  0
 38 39  1  0
 38 40  1  0
 13  5  1  0
 24 19  1  0
 37 32  1  0
M  END
$$$$
