
     RDKit          3D

 40 42  0  0  0  0  0  0  0  0999 V2000
  -24.3109  -46.6027   -7.9968 C   0  0  0  0  0  0  0  0  0  0  0  0
  -23.1566  -46.1494   -8.8786 C   0  0  0  0  0  0  0  0  0  0  0  0
  -23.0122  -44.6520   -8.8506 C   0  0  0  0  0  0  0  0  0  0  0  0
  -21.9292  -44.1524   -9.6414 N   0  0  0  0  0  0  0  0  0  0  0  0
  -20.5917  -44.2091   -9.1715 C   0  0  0  0  0  0  0  0  0  0  0  0
  -20.0329  -45.3650   -8.7002 C   0  0  0  0  0  0  0  0  0  0  0  0
  -18.7217  -45.3473   -8.2385 C   0  0  0  0  0  0  0  0  0  0  0  0
  -18.0761  -46.5797   -7.7186 C   0  0  0  0  0  0  0  0  0  0  0  0
  -16.7251  -46.5926   -7.9823 O   0  0  0  0  0  0  0  0  0  0  0  0
  -16.4072  -47.3978   -9.0601 C   0  0  0  0  0  0  0  0  0  0  0  0
  -17.9833  -44.1602   -8.2568 C   0  0  0  0  0  0  0  0  0  0  0  0
  -18.5225  -42.9882   -8.7250 C   0  0  0  0  0  0  0  0  0  0  0  0
  -19.8169  -43.0323   -9.1740 C   0  0  0  0  0  0  0  0  0  0  0  0
  -17.7944  -41.7310   -8.7680 C   0  0  0  0  0  0  0  0  0  0  0  0
  -16.5236  -41.7449   -8.8804 O   0  0  0  0  0  0  0  0  0  0  0  0
  -18.3799  -40.4423   -8.6938 N   0  0  0  0  0  0  0  0  0  0  0  0
  -17.6728  -39.2955   -8.1401 C   0  0  1  0  0  0  0  0  0  0  0  0
  -18.4745  -38.5422   -7.1442 C   0  0  0  0  0  0  0  0  0  0  0  0
  -19.8700  -38.9578   -7.0196 C   0  0  0  0  0  0  0  0  0  0  0  0
  -20.6501  -39.0712   -8.1401 C   0  0  0  0  0  0  0  0  0  0  0  0
  -21.9898  -39.4602   -8.1235 C   0  0  0  0  0  0  0  0  0  0  0  0
  -22.5007  -39.7334   -6.8731 C   0  0  0  0  0  0  0  0  0  0  0  0
  -21.7312  -39.6255   -5.7275 C   0  0  0  0  0  0  0  0  0  0  0  0
  -20.4120  -39.2372   -5.7893 C   0  0  0  0  0  0  0  0  0  0  0  0
  -22.7251  -39.5552   -9.2924 O   0  0  0  0  0  0  0  0  0  0  0  0
  -24.0529  -39.0932   -9.3554 C   0  0  0  0  0  0  0  0  0  0  0  0
  -16.2791  -39.6770   -7.6655 C   0  0  2  0  0  0  0  0  0  0  0  0
  -15.5770  -38.4657   -7.5915 O   0  0  0  0  0  0  0  0  0  0  0  0
  -15.6025  -40.4728   -8.7646 C   0  0  0  0  0  0  0  0  0  0  0  0
  -15.4174  -39.7285   -9.9861 N   0  0  0  0  0  0  0  0  0  0  0  0
  -14.6060  -38.5425   -9.7792 C   0  0  0  0  0  0  0  0  0  0  0  0
  -13.5925  -38.4036  -10.8761 C   0  0  0  0  0  0  0  0  0  0  0  0
  -13.5494  -39.3297  -11.9029 C   0  0  0  0  0  0  0  0  0  0  0  0
  -12.6374  -39.2424  -12.9276 C   0  0  0  0  0  0  0  0  0  0  0  0
  -11.7327  -38.2049  -12.9437 C   0  0  0  0  0  0  0  0  0  0  0  0
  -11.7630  -37.2640  -11.9166 C   0  0  0  0  0  0  0  0  0  0  0  0
  -12.6848  -37.3705  -10.9002 C   0  0  0  0  0  0  0  0  0  0  0  0
  -12.6151  -40.2454  -14.0189 C   0  0  0  0  0  0  0  0  0  0  0  0
  -11.7220  -41.4047  -13.7011 C   0  0  0  0  0  0  0  0  0  0  0  0
  -12.1409  -39.5097  -15.2651 C   0  0  0  0  0  0  0  0  0  0  0  0
  1  2  1  0
  2  3  1  0
  3  4  1  0
  4  5  1  0
  5  6  2  0
  6  7  1  0
  7  8  1  0
  8  9  1  0
  9 10  1  0
  7 11  2  0
 11 12  1  0
 12 13  2  0
 12 14  1  0
 14 15  2  0
 14 16  1  0
 16 17  1  0
 17 18  1  1
 18 19  1  0
 19 20  2  0
 20 21  1  0
 21 22  2  0
 22 23  1  0
 23 24  2  0
 21 25  1  0
 25 26  1  0
 17 27  1  0
 27 28  1  6
 27 29  1  0
 29 30  1  0
 30 31  1  0
 31 32  1  0
 32 33  2  0
 33 34  1  0
 34 35  2  0
 35 36  1  0
 36 37  2  0
 34 38  1  0
 38 39  1  0
 38 40  1  0
 13  5  1  0
 24 19  1  0
 37 32  1  0
M  END
$$$$
