
     RDKit          3D

 40 42  0  0  0  0  0  0  0  0999 V2000
  -22.3681  -42.5861   -2.4069 C   0  0  0  0  0  0  0  0  0  0  0  0
  -21.5291  -43.2755   -3.4728 C   0  0  0  0  0  0  0  0  0  0  0  0
  -22.3205  -43.4748   -4.7368 C   0  0  0  0  0  0  0  0  0  0  0  0
  -21.8473  -42.7121   -5.8514 N   0  0  0  0  0  0  0  0  0  0  0  0
  -20.7209  -43.1348   -6.6033 C   0  0  0  0  0  0  0  0  0  0  0  0
  -20.5338  -44.4406   -6.9645 C   0  0  0  0  0  0  0  0  0  0  0  0
  -19.3987  -44.7901   -7.6872 C   0  0  0  0  0  0  0  0  0  0  0  0
  -19.1565  -46.1961   -8.1000 C   0  0  0  0  0  0  0  0  0  0  0  0
  -17.9432  -46.6562   -7.6405 O   0  0  0  0  0  0  0  0  0  0  0  0
  -18.0766  -47.4854   -6.5425 C   0  0  0  0  0  0  0  0  0  0  0  0
  -18.4598  -43.8164   -8.0405 C   0  0  0  0  0  0  0  0  0  0  0  0
  -18.6259  -42.5001   -7.6893 C   0  0  0  0  0  0  0  0  0  0  0  0
  -19.7529  -42.1817   -6.9769 C   0  0  0  0  0  0  0  0  0  0  0  0
  -17.6809  -41.4518   -8.0366 C   0  0  0  0  0  0  0  0  0  0  0  0
  -16.9011  -41.6142   -9.0332 O   0  0  0  0  0  0  0  0  0  0  0  0
  -17.5346  -40.2204   -7.3500 N   0  0  0  0  0  0  0  0  0  0  0  0
  -16.7323  -39.1247   -7.8766 C   0  0  1  0  0  0  0  0  0  0  0  0
  -17.5267  -37.9030   -8.1560 C   0  0  0  0  0  0  0  0  0  0  0  0
  -18.9095  -38.1353   -8.5678 C   0  0  0  0  0  0  0  0  0  0  0  0
  -19.9111  -38.1173   -7.6332 C   0  0  0  0  0  0  0  0  0  0  0  0
  -21.2586  -38.3273   -7.9278 C   0  0  0  0  0  0  0  0  0  0  0  0
  -21.5336  -38.5614   -9.2577 C   0  0  0  0  0  0  0  0  0  0  0  0
  -20.5378  -38.5843  -10.2190 C   0  0  0  0  0  0  0  0  0  0  0  0
  -19.2195  -38.3725   -9.8842 C   0  0  0  0  0  0  0  0  0  0  0  0
  -22.2242  -38.2969   -6.9364 O   0  0  0  0  0  0  0  0  0  0  0  0
  -23.5944  -38.3342   -7.2549 C   0  0  0  0  0  0  0  0  0  0  0  0
  -15.4911  -38.8870   -7.0303 C   0  0  2  0  0  0  0  0  0  0  0  0
  -15.6068  -37.5641   -6.5806 O   0  0  0  0  0  0  0  0  0  0  0  0
  -14.2812  -38.9016   -7.9440 C   0  0  0  0  0  0  0  0  0  0  0  0
  -13.8952  -40.2245   -8.3699 N   0  0  0  0  0  0  0  0  0  0  0  0
  -12.7401  -40.1944   -9.2487 C   0  0  0  0  0  0  0  0  0  0  0  0
  -12.4090  -41.5773   -9.7258 C   0  0  0  0  0  0  0  0  0  0  0  0
  -13.3639  -42.3321  -10.3834 C   0  0  0  0  0  0  0  0  0  0  0  0
  -13.1050  -43.6036  -10.8368 C   0  0  0  0  0  0  0  0  0  0  0  0
  -11.8595  -44.1548  -10.6360 C   0  0  0  0  0  0  0  0  0  0  0  0
  -10.8869  -43.4074   -9.9752 C   0  0  0  0  0  0  0  0  0  0  0  0
  -11.1676  -42.1359   -9.5295 C   0  0  0  0  0  0  0  0  0  0  0  0
  -14.1444  -44.3900  -11.5431 C   0  0  0  0  0  0  0  0  0  0  0  0
  -15.1336  -44.9959  -10.5961 C   0  0  0  0  0  0  0  0  0  0  0  0
  -13.4056  -45.4641  -12.3302 C   0  0  0  0  0  0  0  0  0  0  0  0
  1  2  1  0
  2  3  1  0
  3  4  1  0
  4  5  1  0
  5  6  2  0
  6  7  1  0
  7  8  1  0
  8  9  1  0
  9 10  1  0
  7 11  2  0
 11 12  1  0
 12 13  2  0
 12 14  1  0
 14 15  2  0
 14 16  1  0
 16 17  1  0
 17 18  1  1
 18 19  1  0
 19 20  2  0
 20 21  1  0
 21 22  2  0
 22 23  1  0
 23 24  2  0
 21 25  1  0
 25 26  1  0
 17 27  1  0
 27 28  1  6
 27 29  1  0
 29 30  1  0
 30 31  1  0
 31 32  1  0
 32 33  2  0
 33 34  1  0
 34 35  2  0
 35 36  1  0
 36 37  2  0
 34 38  1  0
 38 39  1  0
 38 40  1  0
 13  5  1  0
 24 19  1  0
 37 32  1  0
M  END
$$$$
