
     RDKit          3D

 40 42  0  0  0  0  0  0  0  0999 V2000
  -21.8483  -40.8399   -3.0458 C   0  0  0  0  0  0  0  0  0  0  0  0
  -21.2030  -42.1967   -3.2869 C   0  0  0  0  0  0  0  0  0  0  0  0
  -21.8226  -42.8857   -4.4722 C   0  0  0  0  0  0  0  0  0  0  0  0
  -21.1564  -44.0898   -4.8650 N   0  0  0  0  0  0  0  0  0  0  0  0
  -20.4173  -44.1574   -6.0742 C   0  0  0  0  0  0  0  0  0  0  0  0
  -20.4331  -45.2642   -6.8773 C   0  0  0  0  0  0  0  0  0  0  0  0
  -19.6721  -45.2708   -8.0408 C   0  0  0  0  0  0  0  0  0  0  0  0
  -19.6604  -46.4516   -8.9416 C   0  0  0  0  0  0  0  0  0  0  0  0
  -19.7289  -46.0788  -10.2650 O   0  0  0  0  0  0  0  0  0  0  0  0
  -18.6912  -46.6025  -11.0133 C   0  0  0  0  0  0  0  0  0  0  0  0
  -18.8999  -44.1573   -8.3850 C   0  0  0  0  0  0  0  0  0  0  0  0
  -18.8683  -43.0355   -7.5951 C   0  0  0  0  0  0  0  0  0  0  0  0
  -19.6269  -43.0545   -6.4535 C   0  0  0  0  0  0  0  0  0  0  0  0
  -18.0853  -41.8528   -7.9123 C   0  0  0  0  0  0  0  0  0  0  0  0
  -17.7883  -41.6038   -9.1278 O   0  0  0  0  0  0  0  0  0  0  0  0
  -17.6002  -40.9138   -6.9678 N   0  0  0  0  0  0  0  0  0  0  0  0
  -17.2894  -39.5367   -7.3264 C   0  0  1  0  0  0  0  0  0  0  0  0
  -18.1504  -38.5460   -6.6343 C   0  0  0  0  0  0  0  0  0  0  0  0
  -19.5669  -38.5893   -6.9911 C   0  0  0  0  0  0  0  0  0  0  0  0
  -19.9556  -38.3060   -8.2740 C   0  0  0  0  0  0  0  0  0  0  0  0
  -21.2806  -38.3213   -8.7104 C   0  0  0  0  0  0  0  0  0  0  0  0
  -22.2074  -38.6489   -7.7445 C   0  0  0  0  0  0  0  0  0  0  0  0
  -21.8376  -38.9386   -6.4424 C   0  0  0  0  0  0  0  0  0  0  0  0
  -20.5173  -38.9112   -6.0539 C   0  0  0  0  0  0  0  0  0  0  0  0
  -21.6087  -38.0246  -10.0221 O   0  0  0  0  0  0  0  0  0  0  0  0
  -21.5263  -39.0023  -11.0309 C   0  0  0  0  0  0  0  0  0  0  0  0
  -15.7984  -39.2566   -7.2192 C   0  0  2  0  0  0  0  0  0  0  0  0
  -15.6920  -37.8587   -7.2054 O   0  0  0  0  0  0  0  0  0  0  0  0
  -15.1357  -39.7022   -8.5081 C   0  0  0  0  0  0  0  0  0  0  0  0
  -13.8692  -40.3628   -8.3078 N   0  0  0  0  0  0  0  0  0  0  0  0
  -12.7537  -39.5309   -8.7215 C   0  0  0  0  0  0  0  0  0  0  0  0
  -13.0271  -38.9176  -10.0627 C   0  0  0  0  0  0  0  0  0  0  0  0
  -14.0180  -37.9619  -10.2001 C   0  0  0  0  0  0  0  0  0  0  0  0
  -14.3034  -37.3743  -11.4095 C   0  0  0  0  0  0  0  0  0  0  0  0
  -13.5876  -37.7401  -12.5271 C   0  0  0  0  0  0  0  0  0  0  0  0
  -12.5865  -38.7015  -12.4053 C   0  0  0  0  0  0  0  0  0  0  0  0
  -12.3172  -39.2772  -11.1845 C   0  0  0  0  0  0  0  0  0  0  0  0
  -15.3672  -36.3489  -11.5293 C   0  0  0  0  0  0  0  0  0  0  0  0
  -16.6453  -36.9215  -12.0593 C   0  0  0  0  0  0  0  0  0  0  0  0
  -14.8195  -35.2719  -12.4563 C   0  0  0  0  0  0  0  0  0  0  0  0
  1  2  1  0
  2  3  1  0
  3  4  1  0
  4  5  1  0
  5  6  2  0
  6  7  1  0
  7  8  1  0
  8  9  1  0
  9 10  1  0
  7 11  2  0
 11 12  1  0
 12 13  2  0
 12 14  1  0
 14 15  2  0
 14 16  1  0
 16 17  1  0
 17 18  1  1
 18 19  1  0
 19 20  2  0
 20 21  1  0
 21 22  2  0
 22 23  1  0
 23 24  2  0
 21 25  1  0
 25 26  1  0
 17 27  1  0
 27 28  1  6
 27 29  1  0
 29 30  1  0
 30 31  1  0
 31 32  1  0
 32 33  2  0
 33 34  1  0
 34 35  2  0
 35 36  1  0
 36 37  2  0
 34 38  1  0
 38 39  1  0
 38 40  1  0
 13  5  1  0
 24 19  1  0
 37 32  1  0
M  END
$$$$
