
     RDKit          3D

 40 42  0  0  0  0  0  0  0  0999 V2000
  -15.3172  -46.4587  -12.2472 C   0  0  0  0  0  0  0  0  0  0  0  0
  -15.9494  -45.8496  -11.0043 C   0  0  0  0  0  0  0  0  0  0  0  0
  -17.1094  -46.6804  -10.5268 C   0  0  0  0  0  0  0  0  0  0  0  0
  -17.7511  -46.1720   -9.3530 N   0  0  0  0  0  0  0  0  0  0  0  0
  -18.6987  -45.1192   -9.4338 C   0  0  0  0  0  0  0  0  0  0  0  0
  -20.0428  -45.3539   -9.5279 C   0  0  0  0  0  0  0  0  0  0  0  0
  -20.9162  -44.2762   -9.6209 C   0  0  0  0  0  0  0  0  0  0  0  0
  -22.3829  -44.4858   -9.7245 C   0  0  0  0  0  0  0  0  0  0  0  0
  -22.8253  -44.3334  -11.0191 O   0  0  0  0  0  0  0  0  0  0  0  0
  -23.2949  -45.5169  -11.5573 C   0  0  0  0  0  0  0  0  0  0  0  0
  -20.4245  -42.9674   -9.6177 C   0  0  0  0  0  0  0  0  0  0  0  0
  -19.0803  -42.7073   -9.5242 C   0  0  0  0  0  0  0  0  0  0  0  0
  -18.2405  -43.7869   -9.4341 C   0  0  0  0  0  0  0  0  0  0  0  0
  -18.5218  -41.3655   -9.5127 C   0  0  0  0  0  0  0  0  0  0  0  0
  -18.9574  -40.4969  -10.3395 O   0  0  0  0  0  0  0  0  0  0  0  0
  -17.5013  -40.9103   -8.6406 N   0  0  0  0  0  0  0  0  0  0  0  0
  -17.3863  -39.5158   -8.2358 C   0  0  1  0  0  0  0  0  0  0  0  0
  -18.5796  -39.0209   -7.5059 C   0  0  0  0  0  0  0  0  0  0  0  0
  -19.8527  -39.1797   -8.2056 C   0  0  0  0  0  0  0  0  0  0  0  0
  -20.0797  -38.4963   -9.3712 C   0  0  0  0  0  0  0  0  0  0  0  0
  -21.2599  -38.5822  -10.1102 C   0  0  0  0  0  0  0  0  0  0  0  0
  -22.2165  -39.4225   -9.5829 C   0  0  0  0  0  0  0  0  0  0  0  0
  -22.0091  -40.1226   -8.4070 C   0  0  0  0  0  0  0  0  0  0  0  0
  -20.8285  -40.0080   -7.7084 C   0  0  0  0  0  0  0  0  0  0  0  0
  -21.4281  -37.8644  -11.2818 O   0  0  0  0  0  0  0  0  0  0  0  0
  -20.5492  -36.8212  -11.6276 C   0  0  0  0  0  0  0  0  0  0  0  0
  -16.0643  -39.2473   -7.5335 C   0  0  2  0  0  0  0  0  0  0  0  0
  -16.0441  -37.8625   -7.3155 O   0  0  0  0  0  0  0  0  0  0  0  0
  -14.9398  -39.5212   -8.5131 C   0  0  0  0  0  0  0  0  0  0  0  0
  -13.6490  -39.0743   -8.0500 N   0  0  0  0  0  0  0  0  0  0  0  0
  -12.6768  -39.0207   -9.1269 C   0  0  0  0  0  0  0  0  0  0  0  0
  -12.6788  -40.3068   -9.8986 C   0  0  0  0  0  0  0  0  0  0  0  0
  -12.2551  -41.4783   -9.2969 C   0  0  0  0  0  0  0  0  0  0  0  0
  -12.2391  -42.6789   -9.9660 C   0  0  0  0  0  0  0  0  0  0  0  0
  -12.6555  -42.7302  -11.2772 C   0  0  0  0  0  0  0  0  0  0  0  0
  -13.0851  -41.5589  -11.8975 C   0  0  0  0  0  0  0  0  0  0  0  0
  -13.0929  -40.3674  -11.2088 C   0  0  0  0  0  0  0  0  0  0  0  0
  -11.7848  -43.9212   -9.2968 C   0  0  0  0  0  0  0  0  0  0  0  0
  -10.6274  -43.6762   -8.3787 C   0  0  0  0  0  0  0  0  0  0  0  0
  -11.4105  -44.8924  -10.4085 C   0  0  0  0  0  0  0  0  0  0  0  0
  1  2  1  0
  2  3  1  0
  3  4  1  0
  4  5  1  0
  5  6  2  0
  6  7  1  0
  7  8  1  0
  8  9  1  0
  9 10  1  0
  7 11  2  0
 11 12  1  0
 12 13  2  0
 12 14  1  0
 14 15  2  0
 14 16  1  0
 16 17  1  0
 17 18  1  1
 18 19  1  0
 19 20  2  0
 20 21  1  0
 21 22  2  0
 22 23  1  0
 23 24  2  0
 21 25  1  0
 25 26  1  0
 17 27  1  0
 27 28  1  6
 27 29  1  0
 29 30  1  0
 30 31  1  0
 31 32  1  0
 32 33  2  0
 33 34  1  0
 34 35  2  0
 35 36  1  0
 36 37  2  0
 34 38  1  0
 38 39  1  0
 38 40  1  0
 13  5  1  0
 24 19  1  0
 37 32  1  0
M  END
$$$$
