
     RDKit          3D

 40 42  0  0  0  0  0  0  0  0999 V2000
  -22.8600  -36.0176   -8.7919 C   0  0  0  0  0  0  0  0  0  0  0  0
  -21.5506  -36.7178   -9.1250 C   0  0  0  0  0  0  0  0  0  0  0  0
  -21.0831  -36.3575  -10.5089 C   0  0  0  0  0  0  0  0  0  0  0  0
  -21.4621  -37.2974  -11.5193 N   0  0  0  0  0  0  0  0  0  0  0  0
  -20.8374  -38.5681  -11.6093 C   0  0  0  0  0  0  0  0  0  0  0  0
  -21.2853  -39.5421  -12.4584 C   0  0  0  0  0  0  0  0  0  0  0  0
  -20.6372  -40.7718  -12.4848 C   0  0  0  0  0  0  0  0  0  0  0  0
  -21.0904  -41.8571  -13.3917 C   0  0  0  0  0  0  0  0  0  0  0  0
  -21.4874  -42.9715  -12.6878 O   0  0  0  0  0  0  0  0  0  0  0  0
  -22.8397  -42.9586  -12.4013 C   0  0  0  0  0  0  0  0  0  0  0  0
  -19.5393  -41.0085  -11.6521 C   0  0  0  0  0  0  0  0  0  0  0  0
  -19.0718  -40.0467  -10.7920 C   0  0  0  0  0  0  0  0  0  0  0  0
  -19.7284  -38.8434  -10.7850 C   0  0  0  0  0  0  0  0  0  0  0  0
  -17.9328  -40.2435   -9.9109 C   0  0  0  0  0  0  0  0  0  0  0  0
  -17.8914  -41.2733   -9.1588 O   0  0  0  0  0  0  0  0  0  0  0  0
  -16.8219  -39.3702   -9.8004 N   0  0  0  0  0  0  0  0  0  0  0  0
  -15.8876  -39.4344   -8.6847 C   0  0  1  0  0  0  0  0  0  0  0  0
  -14.5969  -38.7586   -8.9662 C   0  0  0  0  0  0  0  0  0  0  0  0
  -14.2033  -38.7206  -10.3730 C   0  0  0  0  0  0  0  0  0  0  0  0
  -14.1888  -37.5265  -11.0447 C   0  0  0  0  0  0  0  0  0  0  0  0
  -13.8284  -37.3884  -12.3854 C   0  0  0  0  0  0  0  0  0  0  0  0
  -13.4755  -38.5616  -13.0166 C   0  0  0  0  0  0  0  0  0  0  0  0
  -13.4829  -39.7790  -12.3580 C   0  0  0  0  0  0  0  0  0  0  0  0
  -13.8464  -39.8703  -11.0334 C   0  0  0  0  0  0  0  0  0  0  0  0
  -13.8349  -36.1519  -13.0076 O   0  0  0  0  0  0  0  0  0  0  0  0
  -14.8938  -35.2458  -12.8129 C   0  0  0  0  0  0  0  0  0  0  0  0
  -16.5472  -39.0111   -7.3813 C   0  0  2  0  0  0  0  0  0  0  0  0
  -15.5755  -39.2311   -6.3950 O   0  0  0  0  0  0  0  0  0  0  0  0
  -17.6665  -39.9869   -7.0745 C   0  0  0  0  0  0  0  0  0  0  0  0
  -18.9749  -39.4951   -7.4303 N   0  0  0  0  0  0  0  0  0  0  0  0
  -19.8360  -39.3596   -6.2693 C   0  0  0  0  0  0  0  0  0  0  0  0
  -20.3165  -40.7055   -5.8139 C   0  0  0  0  0  0  0  0  0  0  0  0
  -20.4929  -40.9600   -4.4655 C   0  0  0  0  0  0  0  0  0  0  0  0
  -20.9302  -42.1784   -4.0032 C   0  0  0  0  0  0  0  0  0  0  0  0
  -21.2044  -43.1856   -4.9006 C   0  0  0  0  0  0  0  0  0  0  0  0
  -21.0316  -42.9452   -6.2621 C   0  0  0  0  0  0  0  0  0  0  0  0
  -20.5927  -41.7176   -6.7033 C   0  0  0  0  0  0  0  0  0  0  0  0
  -21.1157  -42.4242   -2.5531 C   0  0  0  0  0  0  0  0  0  0  0  0
  -19.8778  -42.9693   -1.9107 C   0  0  0  0  0  0  0  0  0  0  0  0
  -22.2765  -43.4023   -2.4312 C   0  0  0  0  0  0  0  0  0  0  0  0
  1  2  1  0
  2  3  1  0
  3  4  1  0
  4  5  1  0
  5  6  2  0
  6  7  1  0
  7  8  1  0
  8  9  1  0
  9 10  1  0
  7 11  2  0
 11 12  1  0
 12 13  2  0
 12 14  1  0
 14 15  2  0
 14 16  1  0
 16 17  1  0
 17 18  1  6
 18 19  1  0
 19 20  2  0
 20 21  1  0
 21 22  2  0
 22 23  1  0
 23 24  2  0
 21 25  1  0
 25 26  1  0
 17 27  1  0
 27 28  1  1
 27 29  1  0
 29 30  1  0
 30 31  1  0
 31 32  1  0
 32 33  2  0
 33 34  1  0
 34 35  2  0
 35 36  1  0
 36 37  2  0
 34 38  1  0
 38 39  1  0
 38 40  1  0
 13  5  1  0
 24 19  1  0
 37 32  1  0
M  END
$$$$
