
     RDKit          3D

 40 42  0  0  0  0  0  0  0  0999 V2000
  -14.0695  -31.4397  -13.4007 C   0  0  0  0  0  0  0  0  0  0  0  0
  -15.4804  -31.8937  -13.0559 C   0  0  0  0  0  0  0  0  0  0  0  0
  -15.5195  -33.3728  -12.7829 C   0  0  0  0  0  0  0  0  0  0  0  0
  -14.7767  -33.7758  -11.6281 N   0  0  0  0  0  0  0  0  0  0  0  0
  -14.2315  -35.0818  -11.5266 C   0  0  0  0  0  0  0  0  0  0  0  0
  -13.0252  -35.4131  -12.0792 C   0  0  0  0  0  0  0  0  0  0  0  0
  -12.5566  -36.7164  -11.9574 C   0  0  0  0  0  0  0  0  0  0  0  0
  -11.2520  -37.1189  -12.5420 C   0  0  0  0  0  0  0  0  0  0  0  0
  -10.3439  -37.4600  -11.5653 O   0  0  0  0  0  0  0  0  0  0  0  0
   -9.7076  -36.3557  -11.0299 C   0  0  0  0  0  0  0  0  0  0  0  0
  -13.3112  -37.6766  -11.2768 C   0  0  0  0  0  0  0  0  0  0  0  0
  -14.5242  -37.3677  -10.7141 C   0  0  0  0  0  0  0  0  0  0  0  0
  -14.9638  -36.0763  -10.8486 C   0  0  0  0  0  0  0  0  0  0  0  0
  -15.3426  -38.3290   -9.9940 C   0  0  0  0  0  0  0  0  0  0  0  0
  -16.5768  -38.4519  -10.2933 O   0  0  0  0  0  0  0  0  0  0  0  0
  -14.8871  -39.1749   -8.9518 N   0  0  0  0  0  0  0  0  0  0  0  0
  -15.7503  -40.1586   -8.3126 C   0  0  1  0  0  0  0  0  0  0  0  0
  -15.1815  -41.5290   -8.3261 C   0  0  0  0  0  0  0  0  0  0  0  0
  -15.0379  -42.1349   -9.6481 C   0  0  0  0  0  0  0  0  0  0  0  0
  -13.9830  -41.7829  -10.4483 C   0  0  0  0  0  0  0  0  0  0  0  0
  -13.7607  -42.3051  -11.7228 C   0  0  0  0  0  0  0  0  0  0  0  0
  -14.6945  -43.2266  -12.1449 C   0  0  0  0  0  0  0  0  0  0  0  0
  -15.7681  -43.5971  -11.3536 C   0  0  0  0  0  0  0  0  0  0  0  0
  -15.9501  -43.0559  -10.1010 C   0  0  0  0  0  0  0  0  0  0  0  0
  -12.6743  -41.9074  -12.4830 O   0  0  0  0  0  0  0  0  0  0  0  0
  -12.0867  -40.6412  -12.3044 C   0  0  0  0  0  0  0  0  0  0  0  0
  -16.2157  -39.6851   -6.9442 C   0  0  2  0  0  0  0  0  0  0  0  0
  -15.7246  -40.6407   -6.0435 O   0  0  0  0  0  0  0  0  0  0  0  0
  -17.7257  -39.8086   -6.8851 C   0  0  0  0  0  0  0  0  0  0  0  0
  -18.4178  -38.5797   -7.1872 N   0  0  0  0  0  0  0  0  0  0  0  0
  -19.4480  -38.2843   -6.2078 C   0  0  0  0  0  0  0  0  0  0  0  0
  -20.6555  -39.1426   -6.4430 C   0  0  0  0  0  0  0  0  0  0  0  0
  -21.2733  -39.7778   -5.3806 C   0  0  0  0  0  0  0  0  0  0  0  0
  -22.3809  -40.5741   -5.5496 C   0  0  0  0  0  0  0  0  0  0  0  0
  -22.9013  -40.7532   -6.8115 C   0  0  0  0  0  0  0  0  0  0  0  0
  -22.2904  -40.1203   -7.8920 C   0  0  0  0  0  0  0  0  0  0  0  0
  -21.1820  -39.3272   -7.7001 C   0  0  0  0  0  0  0  0  0  0  0  0
  -23.0274  -41.2401   -4.3938 C   0  0  0  0  0  0  0  0  0  0  0  0
  -22.2784  -42.4602   -3.9547 C   0  0  0  0  0  0  0  0  0  0  0  0
  -24.4406  -41.5914   -4.8393 C   0  0  0  0  0  0  0  0  0  0  0  0
  1  2  1  0
  2  3  1  0
  3  4  1  0
  4  5  1  0
  5  6  2  0
  6  7  1  0
  7  8  1  0
  8  9  1  0
  9 10  1  0
  7 11  2  0
 11 12  1  0
 12 13  2  0
 12 14  1  0
 14 15  2  0
 14 16  1  0
 16 17  1  0
 17 18  1  1
 18 19  1  0
 19 20  2  0
 20 21  1  0
 21 22  2  0
 22 23  1  0
 23 24  2  0
 21 25  1  0
 25 26  1  0
 17 27  1  0
 27 28  1  1
 27 29  1  0
 29 30  1  0
 30 31  1  0
 31 32  1  0
 32 33  2  0
 33 34  1  0
 34 35  2  0
 35 36  1  0
 36 37  2  0
 34 38  1  0
 38 39  1  0
 38 40  1  0
 13  5  1  0
 24 19  1  0
 37 32  1  0
M  END
$$$$
