
     RDKit          3D

 40 42  0  0  0  0  0  0  0  0999 V2000
  -18.1049  -38.2031  -14.2976 C   0  0  0  0  0  0  0  0  0  0  0  0
  -19.3028  -37.4342  -13.7597 C   0  0  0  0  0  0  0  0  0  0  0  0
  -20.1024  -38.2797  -12.8060 C   0  0  0  0  0  0  0  0  0  0  0  0
  -20.9848  -37.5351  -11.9605 N   0  0  0  0  0  0  0  0  0  0  0  0
  -20.9071  -37.6390  -10.5477 C   0  0  0  0  0  0  0  0  0  0  0  0
  -21.9329  -37.2510   -9.7306 C   0  0  0  0  0  0  0  0  0  0  0  0
  -21.7846  -37.3638   -8.3529 C   0  0  0  0  0  0  0  0  0  0  0  0
  -22.8734  -36.9544   -7.4294 C   0  0  0  0  0  0  0  0  0  0  0  0
  -24.0871  -37.4765   -7.8157 O   0  0  0  0  0  0  0  0  0  0  0  0
  -25.0268  -36.4939   -8.0655 C   0  0  0  0  0  0  0  0  0  0  0  0
  -20.5995  -37.8691   -7.8100 C   0  0  0  0  0  0  0  0  0  0  0  0
  -19.5567  -38.2648   -8.6096 C   0  0  0  0  0  0  0  0  0  0  0  0
  -19.7279  -38.1430   -9.9642 C   0  0  0  0  0  0  0  0  0  0  0  0
  -18.3078  -38.7997   -8.0932 C   0  0  0  0  0  0  0  0  0  0  0  0
  -17.5090  -38.0310   -7.4616 O   0  0  0  0  0  0  0  0  0  0  0  0
  -17.8734  -40.1421   -8.2282 N   0  0  0  0  0  0  0  0  0  0  0  0
  -17.0361  -40.7947   -7.2308 C   0  0  1  0  0  0  0  0  0  0  0  0
  -17.4213  -42.2056   -6.9800 C   0  0  0  0  0  0  0  0  0  0  0  0
  -18.8350  -42.4258   -6.6823 C   0  0  0  0  0  0  0  0  0  0  0  0
  -19.2911  -42.2847   -5.3981 C   0  0  0  0  0  0  0  0  0  0  0  0
  -20.6195  -42.4729   -5.0155 C   0  0  0  0  0  0  0  0  0  0  0  0
  -21.4756  -42.8203   -6.0380 C   0  0  0  0  0  0  0  0  0  0  0  0
  -21.0370  -42.9685   -7.3426 C   0  0  0  0  0  0  0  0  0  0  0  0
  -19.7158  -42.7737   -7.6764 C   0  0  0  0  0  0  0  0  0  0  0  0
  -21.0174  -42.3156   -3.6991 O   0  0  0  0  0  0  0  0  0  0  0  0
  -20.9543  -43.3860   -2.7877 C   0  0  0  0  0  0  0  0  0  0  0  0
  -15.5580  -40.5899   -7.5248 C   0  0  2  0  0  0  0  0  0  0  0  0
  -14.9871  -40.2471   -6.2910 O   0  0  0  0  0  0  0  0  0  0  0  0
  -15.4117  -39.3582   -8.3969 C   0  0  0  0  0  0  0  0  0  0  0  0
  -14.1233  -38.7198   -8.2829 N   0  0  0  0  0  0  0  0  0  0  0  0
  -13.4233  -38.6833   -9.5542 C   0  0  0  0  0  0  0  0  0  0  0  0
  -13.6570  -37.3717  -10.2432 C   0  0  0  0  0  0  0  0  0  0  0  0
  -14.9223  -37.0397  -10.6934 C   0  0  0  0  0  0  0  0  0  0  0  0
  -15.1821  -35.8497  -11.3305 C   0  0  0  0  0  0  0  0  0  0  0  0
  -14.1588  -34.9514  -11.5332 C   0  0  0  0  0  0  0  0  0  0  0  0
  -12.8787  -35.2710  -11.0857 C   0  0  0  0  0  0  0  0  0  0  0  0
  -12.6407  -36.4684  -10.4501 C   0  0  0  0  0  0  0  0  0  0  0  0
  -16.5482  -35.5157  -11.7993 C   0  0  0  0  0  0  0  0  0  0  0  0
  -16.5520  -34.3529  -12.7428 C   0  0  0  0  0  0  0  0  0  0  0  0
  -17.3663  -35.2150  -10.5506 C   0  0  0  0  0  0  0  0  0  0  0  0
  1  2  1  0
  2  3  1  0
  3  4  1  0
  4  5  1  0
  5  6  2  0
  6  7  1  0
  7  8  1  0
  8  9  1  0
  9 10  1  0
  7 11  2  0
 11 12  1  0
 12 13  2  0
 12 14  1  0
 14 15  2  0
 14 16  1  0
 16 17  1  0
 17 18  1  6
 18 19  1  0
 19 20  2  0
 20 21  1  0
 21 22  2  0
 22 23  1  0
 23 24  2  0
 21 25  1  0
 25 26  1  0
 17 27  1  0
 27 28  1  1
 27 29  1  0
 29 30  1  0
 30 31  1  0
 31 32  1  0
 32 33  2  0
 33 34  1  0
 34 35  2  0
 35 36  1  0
 36 37  2  0
 34 38  1  0
 38 39  1  0
 38 40  1  0
 13  5  1  0
 24 19  1  0
 37 32  1  0
M  END
$$$$
