
     RDKit          3D

 40 42  0  0  0  0  0  0  0  0999 V2000
  -16.5519  -48.5642  -11.8363 C   0  0  0  0  0  0  0  0  0  0  0  0
  -16.8956  -47.6693  -10.6545 C   0  0  0  0  0  0  0  0  0  0  0  0
  -18.2845  -47.1068  -10.7899 C   0  0  0  0  0  0  0  0  0  0  0  0
  -18.3240  -45.7201  -11.1410 N   0  0  0  0  0  0  0  0  0  0  0  0
  -18.8973  -44.7594  -10.2685 C   0  0  0  0  0  0  0  0  0  0  0  0
  -20.0982  -44.9641   -9.6469 C   0  0  0  0  0  0  0  0  0  0  0  0
  -20.6117  -43.9737   -8.8171 C   0  0  0  0  0  0  0  0  0  0  0  0
  -21.9119  -44.1548   -8.1225 C   0  0  0  0  0  0  0  0  0  0  0  0
  -21.7580  -44.1607   -6.7546 O   0  0  0  0  0  0  0  0  0  0  0  0
  -22.5109  -43.1800   -6.1363 C   0  0  0  0  0  0  0  0  0  0  0  0
  -19.9069  -42.7823   -8.6209 C   0  0  0  0  0  0  0  0  0  0  0  0
  -18.7004  -42.5544   -9.2338 C   0  0  0  0  0  0  0  0  0  0  0  0
  -18.2162  -43.5461  -10.0469 C   0  0  0  0  0  0  0  0  0  0  0  0
  -17.9289  -41.3352   -9.0580 C   0  0  0  0  0  0  0  0  0  0  0  0
  -16.6654  -41.3610   -9.2324 O   0  0  0  0  0  0  0  0  0  0  0  0
  -18.4629  -40.0726   -8.6975 N   0  0  0  0  0  0  0  0  0  0  0  0
  -17.7635  -39.1556   -7.8079 C   0  0  1  0  0  0  0  0  0  0  0  0
  -18.5672  -38.7673   -6.6225 C   0  0  0  0  0  0  0  0  0  0  0  0
  -20.0162  -38.8507   -6.7932 C   0  0  0  0  0  0  0  0  0  0  0  0
  -20.7485  -39.6946   -6.0002 C   0  0  0  0  0  0  0  0  0  0  0  0
  -22.1329  -39.8434   -6.0871 C   0  0  0  0  0  0  0  0  0  0  0  0
  -22.7423  -39.0666   -7.0485 C   0  0  0  0  0  0  0  0  0  0  0  0
  -22.0226  -38.2073   -7.8608 C   0  0  0  0  0  0  0  0  0  0  0  0
  -20.6561  -38.0917   -7.7418 C   0  0  0  0  0  0  0  0  0  0  0  0
  -22.8156  -40.7147   -5.2558 O   0  0  0  0  0  0  0  0  0  0  0  0
  -22.8750  -40.4977   -3.8667 C   0  0  0  0  0  0  0  0  0  0  0  0
  -16.3643  -39.6549   -7.4820 C   0  0  2  0  0  0  0  0  0  0  0  0
  -15.7129  -38.5564   -6.9036 O   0  0  0  0  0  0  0  0  0  0  0  0
  -15.6367  -39.9190   -8.7858 C   0  0  0  0  0  0  0  0  0  0  0  0
  -14.2047  -39.7784   -8.6865 N   0  0  0  0  0  0  0  0  0  0  0  0
  -13.7692  -38.4327   -9.0141 C   0  0  0  0  0  0  0  0  0  0  0  0
  -13.9862  -38.1524  -10.4715 C   0  0  0  0  0  0  0  0  0  0  0  0
  -13.0710  -37.3906  -11.1758 C   0  0  0  0  0  0  0  0  0  0  0  0
  -13.2299  -37.1079  -12.5115 C   0  0  0  0  0  0  0  0  0  0  0  0
  -14.3310  -37.5925  -13.1810 C   0  0  0  0  0  0  0  0  0  0  0  0
  -15.2620  -38.3612  -12.4857 C   0  0  0  0  0  0  0  0  0  0  0  0
  -15.0832  -38.6322  -11.1483 C   0  0  0  0  0  0  0  0  0  0  0  0
  -12.2320  -36.2930  -13.2447 C   0  0  0  0  0  0  0  0  0  0  0  0
  -10.8308  -36.5910  -12.8086 C   0  0  0  0  0  0  0  0  0  0  0  0
  -12.5934  -34.8373  -12.9814 C   0  0  0  0  0  0  0  0  0  0  0  0
  1  2  1  0
  2  3  1  0
  3  4  1  0
  4  5  1  0
  5  6  2  0
  6  7  1  0
  7  8  1  0
  8  9  1  0
  9 10  1  0
  7 11  2  0
 11 12  1  0
 12 13  2  0
 12 14  1  0
 14 15  2  0
 14 16  1  0
 16 17  1  0
 17 18  1  1
 18 19  1  0
 19 20  2  0
 20 21  1  0
 21 22  2  0
 22 23  1  0
 23 24  2  0
 21 25  1  0
 25 26  1  0
 17 27  1  0
 27 28  1  6
 27 29  1  0
 29 30  1  0
 30 31  1  0
 31 32  1  0
 32 33  2  0
 33 34  1  0
 34 35  2  0
 35 36  1  0
 36 37  2  0
 34 38  1  0
 38 39  1  0
 38 40  1  0
 13  5  1  0
 24 19  1  0
 37 32  1  0
M  END
$$$$
