
     RDKit          3D

 40 42  0  0  0  0  0  0  0  0999 V2000
  -22.2515  -43.3048   -0.2956 C   0  0  0  0  0  0  0  0  0  0  0  0
  -21.9168  -44.0636   -1.5715 C   0  0  0  0  0  0  0  0  0  0  0  0
  -20.6502  -43.5413   -2.1932 C   0  0  0  0  0  0  0  0  0  0  0  0
  -20.8592  -42.5602   -3.2139 N   0  0  0  0  0  0  0  0  0  0  0  0
  -20.6238  -42.8625   -4.5800 C   0  0  0  0  0  0  0  0  0  0  0  0
  -21.1052  -43.9992   -5.1686 C   0  0  0  0  0  0  0  0  0  0  0  0
  -20.8233  -44.2430   -6.5080 C   0  0  0  0  0  0  0  0  0  0  0  0
  -21.3265  -45.4646   -7.1864 C   0  0  0  0  0  0  0  0  0  0  0  0
  -22.6846  -45.4003   -7.4019 O   0  0  0  0  0  0  0  0  0  0  0  0
  -22.9949  -44.9641   -8.6764 C   0  0  0  0  0  0  0  0  0  0  0  0
  -20.0562  -43.3350   -7.2440 C   0  0  0  0  0  0  0  0  0  0  0  0
  -19.5624  -42.1878   -6.6752 C   0  0  0  0  0  0  0  0  0  0  0  0
  -19.8542  -41.9711   -5.3534 C   0  0  0  0  0  0  0  0  0  0  0  0
  -18.7646  -41.2124   -7.3993 C   0  0  0  0  0  0  0  0  0  0  0  0
  -18.5130  -41.4006   -8.6359 O   0  0  0  0  0  0  0  0  0  0  0  0
  -18.2170  -40.0281   -6.8453 N   0  0  0  0  0  0  0  0  0  0  0  0
  -17.6069  -38.9924   -7.6678 C   0  0  1  0  0  0  0  0  0  0  0  0
  -18.3197  -37.6931   -7.5919 C   0  0  0  0  0  0  0  0  0  0  0  0
  -19.7516  -37.7464   -7.8786 C   0  0  0  0  0  0  0  0  0  0  0  0
  -20.1824  -38.0030   -9.1536 C   0  0  0  0  0  0  0  0  0  0  0  0
  -21.5253  -38.0741   -9.5253 C   0  0  0  0  0  0  0  0  0  0  0  0
  -22.4240  -37.8645   -8.5017 C   0  0  0  0  0  0  0  0  0  0  0  0
  -22.0115  -37.6036   -7.2064 C   0  0  0  0  0  0  0  0  0  0  0  0
  -20.6749  -37.5416   -6.8831 C   0  0  0  0  0  0  0  0  0  0  0  0
  -21.8962  -38.3369  -10.8328 O   0  0  0  0  0  0  0  0  0  0  0  0
  -20.9347  -38.4316  -11.8560 C   0  0  0  0  0  0  0  0  0  0  0  0
  -16.1079  -38.9015   -7.4269 C   0  0  2  0  0  0  0  0  0  0  0  0
  -15.8338  -37.5281   -7.3612 O   0  0  0  0  0  0  0  0  0  0  0  0
  -15.3945  -39.3997   -8.6686 C   0  0  0  0  0  0  0  0  0  0  0  0
  -14.7539  -40.6799   -8.4919 N   0  0  0  0  0  0  0  0  0  0  0  0
  -13.4673  -40.7381   -9.1621 C   0  0  0  0  0  0  0  0  0  0  0  0
  -13.5804  -40.2054  -10.5596 C   0  0  0  0  0  0  0  0  0  0  0  0
  -13.3128  -38.8730  -10.8185 C   0  0  0  0  0  0  0  0  0  0  0  0
  -13.4047  -38.3417  -12.0829 C   0  0  0  0  0  0  0  0  0  0  0  0
  -13.7740  -39.1511  -13.1334 C   0  0  0  0  0  0  0  0  0  0  0  0
  -14.0471  -40.4954  -12.8891 C   0  0  0  0  0  0  0  0  0  0  0  0
  -13.9489  -41.0066  -11.6150 C   0  0  0  0  0  0  0  0  0  0  0  0
  -13.1079  -36.9113  -12.3347 C   0  0  0  0  0  0  0  0  0  0  0  0
  -13.5923  -36.0310  -11.2244 C   0  0  0  0  0  0  0  0  0  0  0  0
  -13.7859  -36.5603  -13.6523 C   0  0  0  0  0  0  0  0  0  0  0  0
  1  2  1  0
  2  3  1  0
  3  4  1  0
  4  5  1  0
  5  6  2  0
  6  7  1  0
  7  8  1  0
  8  9  1  0
  9 10  1  0
  7 11  2  0
 11 12  1  0
 12 13  2  0
 12 14  1  0
 14 15  2  0
 14 16  1  0
 16 17  1  0
 17 18  1  1
 18 19  1  0
 19 20  2  0
 20 21  1  0
 21 22  2  0
 22 23  1  0
 23 24  2  0
 21 25  1  0
 25 26  1  0
 17 27  1  0
 27 28  1  6
 27 29  1  0
 29 30  1  0
 30 31  1  0
 31 32  1  0
 32 33  2  0
 33 34  1  0
 34 35  2  0
 35 36  1  0
 36 37  2  0
 34 38  1  0
 38 39  1  0
 38 40  1  0
 13  5  1  0
 24 19  1  0
 37 32  1  0
M  END
$$$$
