
     RDKit          3D

 40 42  0  0  0  0  0  0  0  0999 V2000
  -22.4220  -42.1099   -3.5803 C   0  0  0  0  0  0  0  0  0  0  0  0
  -22.3651  -43.1122   -4.7238 C   0  0  0  0  0  0  0  0  0  0  0  0
  -21.0824  -43.8978   -4.6892 C   0  0  0  0  0  0  0  0  0  0  0  0
  -20.9462  -44.8455   -5.7528 N   0  0  0  0  0  0  0  0  0  0  0  0
  -20.5265  -44.4402   -7.0461 C   0  0  0  0  0  0  0  0  0  0  0  0
  -20.6988  -45.2300   -8.1492 C   0  0  0  0  0  0  0  0  0  0  0  0
  -20.2488  -44.7792   -9.3850 C   0  0  0  0  0  0  0  0  0  0  0  0
  -20.4158  -45.6046  -10.6084 C   0  0  0  0  0  0  0  0  0  0  0  0
  -21.6278  -45.3677  -11.2166 O   0  0  0  0  0  0  0  0  0  0  0  0
  -22.5095  -46.4209  -11.0606 C   0  0  0  0  0  0  0  0  0  0  0  0
  -19.6275  -43.5318   -9.4974 C   0  0  0  0  0  0  0  0  0  0  0  0
  -19.4437  -42.7219   -8.4048 C   0  0  0  0  0  0  0  0  0  0  0  0
  -19.8958  -43.1896   -7.1982 C   0  0  0  0  0  0  0  0  0  0  0  0
  -18.8079  -41.4166   -8.4717 C   0  0  0  0  0  0  0  0  0  0  0  0
  -18.6444  -40.8551   -9.6056 O   0  0  0  0  0  0  0  0  0  0  0  0
  -18.3328  -40.6787   -7.3586 N   0  0  0  0  0  0  0  0  0  0  0  0
  -18.0433  -39.2532   -7.4343 C   0  0  1  0  0  0  0  0  0  0  0  0
  -19.0184  -38.4204   -6.6878 C   0  0  0  0  0  0  0  0  0  0  0  0
  -20.4165  -38.5921   -7.0768 C   0  0  0  0  0  0  0  0  0  0  0  0
  -21.2459  -39.3705   -6.3131 C   0  0  0  0  0  0  0  0  0  0  0  0
  -22.5924  -39.5943   -6.6015 C   0  0  0  0  0  0  0  0  0  0  0  0
  -23.0562  -38.9660   -7.7370 C   0  0  0  0  0  0  0  0  0  0  0  0
  -22.2365  -38.1751   -8.5236 C   0  0  0  0  0  0  0  0  0  0  0  0
  -20.9121  -37.9815   -8.2024 C   0  0  0  0  0  0  0  0  0  0  0  0
  -23.3784  -40.3931   -5.7889 O   0  0  0  0  0  0  0  0  0  0  0  0
  -23.2920  -40.3112   -4.3867 C   0  0  0  0  0  0  0  0  0  0  0  0
  -16.5872  -38.9628   -7.1050 C   0  0  2  0  0  0  0  0  0  0  0  0
  -16.4977  -37.5644   -7.0596 O   0  0  0  0  0  0  0  0  0  0  0  0
  -15.7374  -39.3866   -8.2871 C   0  0  0  0  0  0  0  0  0  0  0  0
  -14.3689  -38.9383   -8.2046 N   0  0  0  0  0  0  0  0  0  0  0  0
  -13.6556  -39.1457   -9.4519 C   0  0  0  0  0  0  0  0  0  0  0  0
  -14.2205  -38.2691  -10.5300 C   0  0  0  0  0  0  0  0  0  0  0  0
  -14.0621  -36.8963  -10.4627 C   0  0  0  0  0  0  0  0  0  0  0  0
  -14.5637  -36.0550  -11.4271 C   0  0  0  0  0  0  0  0  0  0  0  0
  -15.2474  -36.5832  -12.4989 C   0  0  0  0  0  0  0  0  0  0  0  0
  -15.4155  -37.9638  -12.5811 C   0  0  0  0  0  0  0  0  0  0  0  0
  -14.9050  -38.7879  -11.6041 C   0  0  0  0  0  0  0  0  0  0  0  0
  -14.3762  -34.5875  -11.3341 C   0  0  0  0  0  0  0  0  0  0  0  0
  -15.4525  -33.9317  -10.5254 C   0  0  0  0  0  0  0  0  0  0  0  0
  -14.3673  -34.0668  -12.7651 C   0  0  0  0  0  0  0  0  0  0  0  0
  1  2  1  0
  2  3  1  0
  3  4  1  0
  4  5  1  0
  5  6  2  0
  6  7  1  0
  7  8  1  0
  8  9  1  0
  9 10  1  0
  7 11  2  0
 11 12  1  0
 12 13  2  0
 12 14  1  0
 14 15  2  0
 14 16  1  0
 16 17  1  0
 17 18  1  1
 18 19  1  0
 19 20  2  0
 20 21  1  0
 21 22  2  0
 22 23  1  0
 23 24  2  0
 21 25  1  0
 25 26  1  0
 17 27  1  0
 27 28  1  6
 27 29  1  0
 29 30  1  0
 30 31  1  0
 31 32  1  0
 32 33  2  0
 33 34  1  0
 34 35  2  0
 35 36  1  0
 36 37  2  0
 34 38  1  0
 38 39  1  0
 38 40  1  0
 13  5  1  0
 24 19  1  0
 37 32  1  0
M  END
$$$$
