
     RDKit          3D

 40 42  0  0  0  0  0  0  0  0999 V2000
  -24.2433  -38.7176   -4.4060 C   0  0  0  0  0  0  0  0  0  0  0  0
  -23.0715  -39.6189   -4.7669 C   0  0  0  0  0  0  0  0  0  0  0  0
  -23.5203  -41.0448   -4.9374 C   0  0  0  0  0  0  0  0  0  0  0  0
  -22.4555  -41.9696   -5.1801 N   0  0  0  0  0  0  0  0  0  0  0  0
  -21.9205  -42.1457   -6.4823 C   0  0  0  0  0  0  0  0  0  0  0  0
  -22.5643  -42.8768   -7.4422 C   0  0  0  0  0  0  0  0  0  0  0  0
  -21.9761  -43.0240   -8.6933 C   0  0  0  0  0  0  0  0  0  0  0  0
  -22.6408  -43.8092   -9.7645 C   0  0  0  0  0  0  0  0  0  0  0  0
  -22.2716  -45.1347   -9.7229 O   0  0  0  0  0  0  0  0  0  0  0  0
  -21.3809  -45.4644  -10.7273 C   0  0  0  0  0  0  0  0  0  0  0  0
  -20.7401  -42.4301   -8.9659 C   0  0  0  0  0  0  0  0  0  0  0  0
  -20.0755  -41.6920   -8.0189 C   0  0  0  0  0  0  0  0  0  0  0  0
  -20.6764  -41.5624   -6.7937 C   0  0  0  0  0  0  0  0  0  0  0  0
  -18.7919  -41.0524   -8.2557 C   0  0  0  0  0  0  0  0  0  0  0  0
  -18.1185  -41.3613   -9.2943 O   0  0  0  0  0  0  0  0  0  0  0  0
  -18.1919  -40.0830   -7.4134 N   0  0  0  0  0  0  0  0  0  0  0  0
  -17.3481  -39.0149   -7.9319 C   0  0  1  0  0  0  0  0  0  0  0  0
  -17.9679  -37.6721   -7.8106 C   0  0  0  0  0  0  0  0  0  0  0  0
  -19.1306  -37.4392   -8.6646 C   0  0  0  0  0  0  0  0  0  0  0  0
  -19.0530  -37.6991  -10.0075 C   0  0  0  0  0  0  0  0  0  0  0  0
  -20.1064  -37.5095  -10.9023 C   0  0  0  0  0  0  0  0  0  0  0  0
  -21.2690  -37.0299  -10.3388 C   0  0  0  0  0  0  0  0  0  0  0  0
  -21.3702  -36.7602   -8.9849 C   0  0  0  0  0  0  0  0  0  0  0  0
  -20.3047  -36.9612   -8.1369 C   0  0  0  0  0  0  0  0  0  0  0  0
  -19.9640  -37.7909  -12.2502 O   0  0  0  0  0  0  0  0  0  0  0  0
  -20.8905  -37.3114  -13.1947 C   0  0  0  0  0  0  0  0  0  0  0  0
  -15.9335  -39.1059   -7.3808 C   0  0  2  0  0  0  0  0  0  0  0  0
  -15.2624  -37.9993   -7.9199 O   0  0  0  0  0  0  0  0  0  0  0  0
  -15.2630  -40.3232   -7.9873 C   0  0  0  0  0  0  0  0  0  0  0  0
  -14.0374  -40.0198   -8.6846 N   0  0  0  0  0  0  0  0  0  0  0  0
  -13.1003  -41.1277   -8.6385 C   0  0  0  0  0  0  0  0  0  0  0  0
  -13.3907  -42.1052   -9.7385 C   0  0  0  0  0  0  0  0  0  0  0  0
  -14.2516  -43.1651   -9.5162 C   0  0  0  0  0  0  0  0  0  0  0  0
  -14.5456  -44.0850  -10.4943 C   0  0  0  0  0  0  0  0  0  0  0  0
  -13.9712  -43.9585  -11.7390 C   0  0  0  0  0  0  0  0  0  0  0  0
  -13.1018  -42.8965  -11.9788 C   0  0  0  0  0  0  0  0  0  0  0  0
  -12.8213  -41.9868  -10.9849 C   0  0  0  0  0  0  0  0  0  0  0  0
  -15.4754  -45.2094  -10.2319 C   0  0  0  0  0  0  0  0  0  0  0  0
  -16.8863  -44.8728  -10.6038 C   0  0  0  0  0  0  0  0  0  0  0  0
  -15.3568  -45.5235   -8.7465 C   0  0  0  0  0  0  0  0  0  0  0  0
  1  2  1  0
  2  3  1  0
  3  4  1  0
  4  5  1  0
  5  6  2  0
  6  7  1  0
  7  8  1  0
  8  9  1  0
  9 10  1  0
  7 11  2  0
 11 12  1  0
 12 13  2  0
 12 14  1  0
 14 15  2  0
 14 16  1  0
 16 17  1  0
 17 18  1  1
 18 19  1  0
 19 20  2  0
 20 21  1  0
 21 22  2  0
 22 23  1  0
 23 24  2  0
 21 25  1  0
 25 26  1  0
 17 27  1  0
 27 28  1  6
 27 29  1  0
 29 30  1  0
 30 31  1  0
 31 32  1  0
 32 33  2  0
 33 34  1  0
 34 35  2  0
 35 36  1  0
 36 37  2  0
 34 38  1  0
 38 39  1  0
 38 40  1  0
 13  5  1  0
 24 19  1  0
 37 32  1  0
M  END
$$$$
