
     RDKit          3D

 40 42  0  0  0  0  0  0  0  0999 V2000
  -23.3087  -43.8933   -2.5555 C   0  0  0  0  0  0  0  0  0  0  0  0
  -22.0515  -43.9214   -3.4124 C   0  0  0  0  0  0  0  0  0  0  0  0
  -22.3816  -44.2461   -4.8439 C   0  0  0  0  0  0  0  0  0  0  0  0
  -21.8529  -43.3150   -5.7934 N   0  0  0  0  0  0  0  0  0  0  0  0
  -20.6728  -43.6054   -6.5255 C   0  0  0  0  0  0  0  0  0  0  0  0
  -20.2209  -44.8840   -6.7026 C   0  0  0  0  0  0  0  0  0  0  0  0
  -19.0472  -45.0974   -7.4167 C   0  0  0  0  0  0  0  0  0  0  0  0
  -18.5210  -46.4694   -7.6328 C   0  0  0  0  0  0  0  0  0  0  0  0
  -19.4020  -47.2406   -8.3569 O   0  0  0  0  0  0  0  0  0  0  0  0
  -19.6444  -48.4634   -7.7595 C   0  0  0  0  0  0  0  0  0  0  0  0
  -18.3380  -44.0159   -7.9477 C   0  0  0  0  0  0  0  0  0  0  0  0
  -18.7718  -42.7244   -7.7830 C   0  0  0  0  0  0  0  0  0  0  0  0
  -19.9311  -42.5409   -7.0749 C   0  0  0  0  0  0  0  0  0  0  0  0
  -18.0722  -41.5686   -8.3190 C   0  0  0  0  0  0  0  0  0  0  0  0
  -18.1201  -41.3309   -9.5716 O   0  0  0  0  0  0  0  0  0  0  0  0
  -17.3126  -40.6451   -7.5579 N   0  0  0  0  0  0  0  0  0  0  0  0
  -17.0451  -39.2893   -8.0180 C   0  0  1  0  0  0  0  0  0  0  0  0
  -17.9388  -38.2779   -7.4013 C   0  0  0  0  0  0  0  0  0  0  0  0
  -19.3683  -38.5679   -7.4896 C   0  0  0  0  0  0  0  0  0  0  0  0
  -20.0663  -38.9059   -6.3601 C   0  0  0  0  0  0  0  0  0  0  0  0
  -21.4301  -39.1993   -6.3428 C   0  0  0  0  0  0  0  0  0  0  0  0
  -22.0562  -39.1270   -7.5683 C   0  0  0  0  0  0  0  0  0  0  0  0
  -21.3712  -38.7878   -8.7223 C   0  0  0  0  0  0  0  0  0  0  0  0
  -20.0240  -38.5062   -8.6944 C   0  0  0  0  0  0  0  0  0  0  0  0
  -22.0781  -39.5351   -5.1666 O   0  0  0  0  0  0  0  0  0  0  0  0
  -21.8250  -40.7598   -4.5213 C   0  0  0  0  0  0  0  0  0  0  0  0
  -15.5640  -38.9545   -7.9322 C   0  0  2  0  0  0  0  0  0  0  0  0
  -15.3928  -37.8483   -8.7764 O   0  0  0  0  0  0  0  0  0  0  0  0
  -14.7821  -40.0826   -8.5764 C   0  0  0  0  0  0  0  0  0  0  0  0
  -15.1585  -40.3378   -9.9452 N   0  0  0  0  0  0  0  0  0  0  0  0
  -14.8096  -39.2310  -10.8175 C   0  0  0  0  0  0  0  0  0  0  0  0
  -13.4865  -39.4819  -11.4780 C   0  0  0  0  0  0  0  0  0  0  0  0
  -12.3850  -38.7166  -11.1388 C   0  0  0  0  0  0  0  0  0  0  0  0
  -11.1540  -38.9107  -11.7188 C   0  0  0  0  0  0  0  0  0  0  0  0
  -10.9997  -39.8947  -12.6691 C   0  0  0  0  0  0  0  0  0  0  0  0
  -12.0995  -40.6739  -13.0219 C   0  0  0  0  0  0  0  0  0  0  0  0
  -13.3231  -40.4625  -12.4284 C   0  0  0  0  0  0  0  0  0  0  0  0
   -9.9880  -38.0801  -11.3342 C   0  0  0  0  0  0  0  0  0  0  0  0
   -9.0449  -37.8682  -12.4779 C   0  0  0  0  0  0  0  0  0  0  0  0
   -9.3054  -38.8090  -10.1846 C   0  0  0  0  0  0  0  0  0  0  0  0
  1  2  1  0
  2  3  1  0
  3  4  1  0
  4  5  1  0
  5  6  2  0
  6  7  1  0
  7  8  1  0
  8  9  1  0
  9 10  1  0
  7 11  2  0
 11 12  1  0
 12 13  2  0
 12 14  1  0
 14 15  2  0
 14 16  1  0
 16 17  1  0
 17 18  1  1
 18 19  1  0
 19 20  2  0
 20 21  1  0
 21 22  2  0
 22 23  1  0
 23 24  2  0
 21 25  1  0
 25 26  1  0
 17 27  1  0
 27 28  1  6
 27 29  1  0
 29 30  1  0
 30 31  1  0
 31 32  1  0
 32 33  2  0
 33 34  1  0
 34 35  2  0
 35 36  1  0
 36 37  2  0
 34 38  1  0
 38 39  1  0
 38 40  1  0
 13  5  1  0
 24 19  1  0
 37 32  1  0
M  END
$$$$
