
     RDKit          3D

 40 43  0  0  0  0  0  0  0  0999 V2000
  -10.3885  -35.9925  -11.6294 C   0  0  0  0  0  0  0  0  0  0  0  0
  -11.8510  -36.2213  -11.9940 C   0  0  0  0  0  0  0  0  0  0  0  0
  -12.6706  -35.5421  -10.9134 C   0  0  0  0  0  0  0  0  0  0  0  0
  -12.1255  -37.6781  -11.9993 C   0  0  0  0  0  0  0  0  0  0  0  0
  -12.2987  -38.3273  -10.8107 C   0  0  0  0  0  0  0  0  0  0  0  0
  -12.5563  -39.6830  -10.8104 C   0  0  0  0  0  0  0  0  0  0  0  0
  -12.7478  -40.3599   -9.5076 C   0  0  0  0  0  0  0  0  0  0  0  0
  -14.1643  -40.4913   -9.2549 N   0  0  0  0  0  0  0  0  0  0  0  0
  -14.7536  -39.2048   -8.8358 C   0  0  0  0  0  0  0  0  0  0  0  0
  -16.1632  -39.5302   -8.4257 C   0  0  1  0  0  0  0  0  0  0  0  0
  -16.5782  -38.9598   -7.2566 O   0  0  0  0  0  0  0  0  0  0  0  0
  -17.1885  -39.3664   -9.5196 C   0  0  2  0  0  0  0  0  0  0  0  0
  -18.1066  -38.2625   -9.1470 C   0  0  0  0  0  0  0  0  0  0  0  0
  -19.5150  -38.5433   -8.7740 C   0  0  0  0  0  0  0  0  0  0  0  0
  -20.0566  -39.1921   -7.6808 C   0  0  0  0  0  0  0  0  0  0  0  0
  -21.4114  -39.3668   -7.5023 C   0  0  0  0  0  0  0  0  0  0  0  0
  -22.2673  -40.0060   -6.4976 C   0  0  0  0  0  0  0  0  0  0  0  0
  -21.7427  -40.8103   -5.3951 C   0  0  0  0  0  0  0  0  0  0  0  0
  -21.3294  -40.1538   -4.2412 C   0  0  0  0  0  0  0  0  0  0  0  0
  -20.8163  -40.7352   -3.1138 C   0  0  0  0  0  0  0  0  0  0  0  0
  -20.6803  -42.1021   -3.0793 C   0  0  0  0  0  0  0  0  0  0  0  0
  -21.0802  -42.7881   -4.2069 C   0  0  0  0  0  0  0  0  0  0  0  0
  -21.6020  -42.1969   -5.3544 C   0  0  0  0  0  0  0  0  0  0  0  0
  -21.9342  -43.0629   -6.3564 O   0  0  0  0  0  0  0  0  0  0  0  0
  -21.7534  -43.1187   -7.7509 C   0  0  0  0  0  0  0  0  0  0  0  0
  -20.5303  -43.8979   -8.1370 C   0  0  0  0  0  0  0  0  0  0  0  0
  -20.6547  -45.1360   -7.7978 O   0  0  0  0  0  0  0  0  0  0  0  0
  -19.3662  -43.5240   -8.7597 N   0  0  0  0  0  0  0  0  0  0  0  0
  -18.3558  -42.5186   -8.3540 C   0  0  1  0  0  0  0  0  0  0  0  0
  -17.2121  -43.2112   -7.6278 C   0  0  0  0  0  0  0  0  0  0  0  0
  -17.7414  -41.9056   -9.5691 C   0  0  0  0  0  0  0  0  0  0  0  0
  -17.1205  -42.8024  -10.2658 O   0  0  0  0  0  0  0  0  0  0  0  0
  -17.7753  -40.5729   -9.9845 N   0  0  0  0  0  0  0  0  0  0  0  0
  -22.2724  -38.8503   -8.4923 C   0  0  0  0  0  0  0  0  0  0  0  0
  -23.7098  -39.0251   -8.3180 O   0  0  0  0  0  0  0  0  0  0  0  0
  -21.8110  -38.2074   -9.5816 C   0  0  0  0  0  0  0  0  0  0  0  0
  -20.4627  -38.0618   -9.7120 C   0  0  0  0  0  0  0  0  0  0  0  0
  -12.6363  -40.3656  -11.9936 C   0  0  0  0  0  0  0  0  0  0  0  0
  -12.4566  -39.6783  -13.1660 C   0  0  0  0  0  0  0  0  0  0  0  0
  -12.1995  -38.3346  -13.2079 C   0  0  0  0  0  0  0  0  0  0  0  0
  1  2  1  0
  2  3  1  0
  2  4  1  0
  4  5  2  0
  5  6  1  0
  6  7  1  0
  7  8  1  0
  8  9  1  0
  9 10  1  0
 10 11  1  1
 10 12  1  0
 12 13  1  1
 13 14  1  0
 14 15  1  0
 15 16  2  0
 16 17  1  0
 17 18  1  0
 18 19  2  0
 19 20  1  0
 20 21  2  0
 21 22  1  0
 22 23  2  0
 23 24  1  0
 24 25  1  0
 25 26  1  0
 26 27  2  0
 26 28  1  0
 28 29  1  0
 29 30  1  6
 29 31  1  0
 31 32  2  0
 31 33  1  0
 16 34  1  0
 34 35  1  0
 34 36  2  0
 36 37  1  0
  6 38  2  0
 38 39  1  0
 39 40  2  0
 23 18  1  0
 33 12  1  0
 37 14  2  0
 40  4  1  0
M  END
$$$$
