
     RDKit          3D

 40 43  0  0  0  0  0  0  0  0999 V2000
  -16.6109  -36.8123  -13.5724 C   0  0  0  0  0  0  0  0  0  0  0  0
  -16.5120  -37.2388  -12.1121 C   0  0  0  0  0  0  0  0  0  0  0  0
  -17.2563  -36.1882  -11.3103 C   0  0  0  0  0  0  0  0  0  0  0  0
  -15.0847  -37.2658  -11.7123 C   0  0  0  0  0  0  0  0  0  0  0  0
  -14.7207  -37.9522  -10.5895 C   0  0  0  0  0  0  0  0  0  0  0  0
  -13.3931  -37.9819  -10.2142 C   0  0  0  0  0  0  0  0  0  0  0  0
  -13.0255  -38.7402   -8.9968 C   0  0  0  0  0  0  0  0  0  0  0  0
  -14.1484  -39.5594   -8.6017 N   0  0  0  0  0  0  0  0  0  0  0  0
  -15.1917  -38.7521   -7.9400 C   0  0  0  0  0  0  0  0  0  0  0  0
  -16.4066  -39.6371   -7.8936 C   0  0  1  0  0  0  0  0  0  0  0  0
  -17.1272  -39.5801   -6.7352 O   0  0  0  0  0  0  0  0  0  0  0  0
  -17.2964  -39.5450   -9.1078 C   0  0  2  0  0  0  0  0  0  0  0  0
  -18.1838  -38.3660   -8.9566 C   0  0  0  0  0  0  0  0  0  0  0  0
  -19.6381  -38.5394   -8.7192 C   0  0  0  0  0  0  0  0  0  0  0  0
  -20.3313  -39.0406   -7.6341 C   0  0  0  0  0  0  0  0  0  0  0  0
  -21.7054  -39.1320   -7.5937 C   0  0  0  0  0  0  0  0  0  0  0  0
  -22.7005  -39.6188   -6.6326 C   0  0  0  0  0  0  0  0  0  0  0  0
  -22.3456  -40.3227   -5.4014 C   0  0  0  0  0  0  0  0  0  0  0  0
  -22.0219  -39.5654   -4.2811 C   0  0  0  0  0  0  0  0  0  0  0  0
  -21.6683  -40.0449   -3.0493 C   0  0  0  0  0  0  0  0  0  0  0  0
  -21.6164  -41.4049   -2.8602 C   0  0  0  0  0  0  0  0  0  0  0  0
  -21.9312  -42.1893   -3.9499 C   0  0  0  0  0  0  0  0  0  0  0  0
  -22.2908  -41.7019   -5.2036 C   0  0  0  0  0  0  0  0  0  0  0  0
  -22.5625  -42.6546   -6.1431 O   0  0  0  0  0  0  0  0  0  0  0  0
  -22.2357  -42.8690   -7.4950 C   0  0  0  0  0  0  0  0  0  0  0  0
  -21.0252  -43.7411   -7.6582 C   0  0  0  0  0  0  0  0  0  0  0  0
  -21.2572  -44.9282   -7.2106 O   0  0  0  0  0  0  0  0  0  0  0  0
  -19.7810  -43.4909   -8.1795 N   0  0  0  0  0  0  0  0  0  0  0  0
  -18.7637  -42.4955   -7.7665 C   0  0  1  0  0  0  0  0  0  0  0  0
  -17.7473  -43.1579   -6.8482 C   0  0  0  0  0  0  0  0  0  0  0  0
  -17.9871  -42.0464   -8.9603 C   0  0  0  0  0  0  0  0  0  0  0  0
  -17.3477  -43.0409   -9.4867 O   0  0  0  0  0  0  0  0  0  0  0  0
  -17.8986  -40.7661   -9.5107 N   0  0  0  0  0  0  0  0  0  0  0  0
  -22.4229  -38.6861   -8.7226 C   0  0  0  0  0  0  0  0  0  0  0  0
  -23.8785  -38.7743   -8.6957 O   0  0  0  0  0  0  0  0  0  0  0  0
  -21.8101  -38.1866   -9.8123 C   0  0  0  0  0  0  0  0  0  0  0  0
  -20.4494  -38.1185   -9.8030 C   0  0  0  0  0  0  0  0  0  0  0  0
  -12.4541  -37.3277  -10.9642 C   0  0  0  0  0  0  0  0  0  0  0  0
  -12.8591  -36.6497  -12.0846 C   0  0  0  0  0  0  0  0  0  0  0  0
  -14.1654  -36.5966  -12.4897 C   0  0  0  0  0  0  0  0  0  0  0  0
  1  2  1  0
  2  3  1  0
  2  4  1  0
  4  5  2  0
  5  6  1  0
  6  7  1  0
  7  8  1  0
  8  9  1  0
  9 10  1  0
 10 11  1  1
 10 12  1  0
 12 13  1  1
 13 14  1  0
 14 15  1  0
 15 16  2  0
 16 17  1  0
 17 18  1  0
 18 19  2  0
 19 20  1  0
 20 21  2  0
 21 22  1  0
 22 23  2  0
 23 24  1  0
 24 25  1  0
 25 26  1  0
 26 27  2  0
 26 28  1  0
 28 29  1  0
 29 30  1  1
 29 31  1  0
 31 32  2  0
 31 33  1  0
 16 34  1  0
 34 35  1  0
 34 36  2  0
 36 37  1  0
  6 38  2  0
 38 39  1  0
 39 40  2  0
 23 18  1  0
 33 12  1  0
 37 14  2  0
 40  4  1  0
M  END
$$$$
