
     RDKit          3D

 40 43  0  0  0  0  0  0  0  0999 V2000
  -11.7448  -35.3612  -10.1839 C   0  0  0  0  0  0  0  0  0  0  0  0
  -12.2430  -36.1796  -11.3697 C   0  0  0  0  0  0  0  0  0  0  0  0
  -13.6415  -35.6783  -11.6757 C   0  0  0  0  0  0  0  0  0  0  0  0
  -12.2895  -37.6103  -10.9840 C   0  0  0  0  0  0  0  0  0  0  0  0
  -12.5826  -37.9425   -9.6925 C   0  0  0  0  0  0  0  0  0  0  0  0
  -12.6290  -39.2728   -9.3289 C   0  0  0  0  0  0  0  0  0  0  0  0
  -12.9569  -39.6046   -7.9238 C   0  0  0  0  0  0  0  0  0  0  0  0
  -14.0094  -40.5946   -7.9125 N   0  0  0  0  0  0  0  0  0  0  0  0
  -14.9117  -40.4280   -9.0684 C   0  0  0  0  0  0  0  0  0  0  0  0
  -16.1287  -39.7330   -8.5234 C   0  0  1  0  0  0  0  0  0  0  0  0
  -15.8769  -38.6660   -7.7094 O   0  0  0  0  0  0  0  0  0  0  0  0
  -17.1813  -39.4104   -9.5543 C   0  0  2  0  0  0  0  0  0  0  0  0
  -18.0022  -38.2802   -9.0554 C   0  0  0  0  0  0  0  0  0  0  0  0
  -19.4116  -38.4930   -8.6433 C   0  0  0  0  0  0  0  0  0  0  0  0
  -19.9556  -39.1902   -7.5815 C   0  0  0  0  0  0  0  0  0  0  0  0
  -21.3115  -39.2853   -7.3571 C   0  0  0  0  0  0  0  0  0  0  0  0
  -22.1716  -39.9441   -6.3686 C   0  0  0  0  0  0  0  0  0  0  0  0
  -21.6637  -40.8698   -5.3573 C   0  0  0  0  0  0  0  0  0  0  0  0
  -21.1596  -40.3396   -4.1749 C   0  0  0  0  0  0  0  0  0  0  0  0
  -20.6463  -41.0449   -3.1207 C   0  0  0  0  0  0  0  0  0  0  0  0
  -20.6080  -42.4162   -3.2000 C   0  0  0  0  0  0  0  0  0  0  0  0
  -21.0998  -42.9788   -4.3591 C   0  0  0  0  0  0  0  0  0  0  0  0
  -21.6218  -42.2614   -5.4321 C   0  0  0  0  0  0  0  0  0  0  0  0
  -22.0542  -43.0179   -6.4833 O   0  0  0  0  0  0  0  0  0  0  0  0
  -21.9324  -42.9721   -7.8846 C   0  0  0  0  0  0  0  0  0  0  0  0
  -20.7845  -43.7993   -8.3849 C   0  0  0  0  0  0  0  0  0  0  0  0
  -20.9845  -45.0494   -8.1389 O   0  0  0  0  0  0  0  0  0  0  0  0
  -19.6216  -43.4567   -9.0275 N   0  0  0  0  0  0  0  0  0  0  0  0
  -18.5263  -42.5596   -8.5893 C   0  0  1  0  0  0  0  0  0  0  0  0
  -17.4082  -43.3860   -7.9716 C   0  0  0  0  0  0  0  0  0  0  0  0
  -17.9171  -41.8931   -9.7787 C   0  0  0  0  0  0  0  0  0  0  0  0
  -17.3900  -42.7706  -10.5707 O   0  0  0  0  0  0  0  0  0  0  0  0
  -17.8711  -40.5317  -10.0860 N   0  0  0  0  0  0  0  0  0  0  0  0
  -22.1709  -38.6319   -8.2641 C   0  0  0  0  0  0  0  0  0  0  0  0
  -23.6093  -38.7211   -8.0402 O   0  0  0  0  0  0  0  0  0  0  0  0
  -21.7071  -37.9354   -9.3189 C   0  0  0  0  0  0  0  0  0  0  0  0
  -20.3579  -37.8726   -9.4974 C   0  0  0  0  0  0  0  0  0  0  0  0
  -12.3826  -40.2463  -10.2585 C   0  0  0  0  0  0  0  0  0  0  0  0
  -12.0919  -39.8725  -11.5449 C   0  0  0  0  0  0  0  0  0  0  0  0
  -12.0365  -38.5646  -11.9444 C   0  0  0  0  0  0  0  0  0  0  0  0
  1  2  1  0
  2  3  1  0
  2  4  1  0
  4  5  2  0
  5  6  1  0
  6  7  1  0
  7  8  1  0
  8  9  1  0
  9 10  1  0
 10 11  1  6
 10 12  1  0
 12 13  1  1
 13 14  1  0
 14 15  1  0
 15 16  2  0
 16 17  1  0
 17 18  1  0
 18 19  2  0
 19 20  1  0
 20 21  2  0
 21 22  1  0
 22 23  2  0
 23 24  1  0
 24 25  1  0
 25 26  1  0
 26 27  2  0
 26 28  1  0
 28 29  1  0
 29 30  1  6
 29 31  1  0
 31 32  2  0
 31 33  1  0
 16 34  1  0
 34 35  1  0
 34 36  2  0
 36 37  1  0
  6 38  2  0
 38 39  1  0
 39 40  2  0
 23 18  1  0
 33 12  1  0
 37 14  2  0
 40  4  1  0
M  END
$$$$
