
     RDKit          3D

 40 43  0  0  0  0  0  0  0  0999 V2000
  -12.9800  -46.0229   -9.7155 C   0  0  0  0  0  0  0  0  0  0  0  0
  -13.0960  -44.5569   -9.3135 C   0  0  0  0  0  0  0  0  0  0  0  0
  -12.0764  -44.3353   -8.2126 C   0  0  0  0  0  0  0  0  0  0  0  0
  -14.4628  -44.3038   -8.7983 C   0  0  0  0  0  0  0  0  0  0  0  0
  -14.7229  -43.1314   -8.1486 C   0  0  0  0  0  0  0  0  0  0  0  0
  -15.9941  -42.8903   -7.6688 C   0  0  0  0  0  0  0  0  0  0  0  0
  -16.2501  -41.6075   -6.9752 C   0  0  0  0  0  0  0  0  0  0  0  0
  -15.0284  -40.8362   -6.9570 N   0  0  0  0  0  0  0  0  0  0  0  0
  -14.8509  -40.0870   -8.2162 C   0  0  0  0  0  0  0  0  0  0  0  0
  -15.9559  -39.0672   -8.2288 C   0  0  1  0  0  0  0  0  0  0  0  0
  -15.7343  -37.9560   -7.4669 O   0  0  0  0  0  0  0  0  0  0  0  0
  -16.4622  -38.7078   -9.6033 C   0  0  2  0  0  0  0  0  0  0  0  0
  -17.2857  -37.4785   -9.4984 C   0  0  0  0  0  0  0  0  0  0  0  0
  -18.7557  -37.5341   -9.6917 C   0  0  0  0  0  0  0  0  0  0  0  0
  -19.7538  -38.1144   -8.9324 C   0  0  0  0  0  0  0  0  0  0  0  0
  -21.0868  -38.0689   -9.2773 C   0  0  0  0  0  0  0  0  0  0  0  0
  -22.3384  -38.5857   -8.7141 C   0  0  0  0  0  0  0  0  0  0  0  0
  -22.3852  -39.4946   -7.5699 C   0  0  0  0  0  0  0  0  0  0  0  0
  -22.3453  -38.9463   -6.2927 C   0  0  0  0  0  0  0  0  0  0  0  0
  -22.3803  -39.6342   -5.1105 C   0  0  0  0  0  0  0  0  0  0  0  0
  -22.4633  -41.0052   -5.1467 C   0  0  0  0  0  0  0  0  0  0  0  0
  -22.5050  -41.5856   -6.3970 C   0  0  0  0  0  0  0  0  0  0  0  0
  -22.4690  -40.8860   -7.6003 C   0  0  0  0  0  0  0  0  0  0  0  0
  -22.5213  -41.6584   -8.7250 O   0  0  0  0  0  0  0  0  0  0  0  0
  -21.8413  -41.7056   -9.9562 C   0  0  0  0  0  0  0  0  0  0  0  0
  -20.6869  -42.6644   -9.9341 C   0  0  0  0  0  0  0  0  0  0  0  0
  -21.1043  -43.8739   -9.7719 O   0  0  0  0  0  0  0  0  0  0  0  0
  -19.3339  -42.4701  -10.0534 N   0  0  0  0  0  0  0  0  0  0  0  0
  -18.4170  -41.6557   -9.2214 C   0  0  1  0  0  0  0  0  0  0  0  0
  -17.7398  -42.5461   -8.1900 C   0  0  0  0  0  0  0  0  0  0  0  0
  -17.3116  -41.1194  -10.0702 C   0  0  0  0  0  0  0  0  0  0  0  0
  -16.6095  -42.0869  -10.5662 O   0  0  0  0  0  0  0  0  0  0  0  0
  -16.9974  -39.7885  -10.3526 N   0  0  0  0  0  0  0  0  0  0  0  0
  -21.4312  -37.3915  -10.4650 C   0  0  0  0  0  0  0  0  0  0  0  0
  -22.8384  -37.3324  -10.8440 O   0  0  0  0  0  0  0  0  0  0  0  0
  -20.5090  -36.8040  -11.2505 C   0  0  0  0  0  0  0  0  0  0  0  0
  -19.2041  -36.8784  -10.8660 C   0  0  0  0  0  0  0  0  0  0  0  0
  -16.9813  -43.8213   -7.8452 C   0  0  0  0  0  0  0  0  0  0  0  0
  -16.6806  -44.9861   -8.5027 C   0  0  0  0  0  0  0  0  0  0  0  0
  -15.4329  -45.2621   -8.9929 C   0  0  0  0  0  0  0  0  0  0  0  0
  1  2  1  0
  2  3  1  0
  2  4  1  0
  4  5  2  0
  5  6  1  0
  6  7  1  0
  7  8  1  0
  8  9  1  0
  9 10  1  0
 10 11  1  6
 10 12  1  0
 12 13  1  1
 13 14  1  0
 14 15  1  0
 15 16  2  0
 16 17  1  0
 17 18  1  0
 18 19  2  0
 19 20  1  0
 20 21  2  0
 21 22  1  0
 22 23  2  0
 23 24  1  0
 24 25  1  0
 25 26  1  0
 26 27  2  0
 26 28  1  0
 28 29  1  0
 29 30  1  1
 29 31  1  0
 31 32  2  0
 31 33  1  0
 16 34  1  0
 34 35  1  0
 34 36  2  0
 36 37  1  0
  6 38  2  0
 38 39  1  0
 39 40  2  0
 23 18  1  0
 33 12  1  0
 37 14  2  0
 40  4  1  0
M  END
$$$$
