
     RDKit          3D

 40 43  0  0  0  0  0  0  0  0999 V2000
  -10.9487  -37.1068  -10.4110 C   0  0  0  0  0  0  0  0  0  0  0  0
  -11.7445  -37.1255  -11.7112 C   0  0  0  0  0  0  0  0  0  0  0  0
  -12.7425  -35.9871  -11.6161 C   0  0  0  0  0  0  0  0  0  0  0  0
  -12.4594  -38.4195  -11.8217 C   0  0  0  0  0  0  0  0  0  0  0  0
  -12.7394  -39.1244  -10.6864 C   0  0  0  0  0  0  0  0  0  0  0  0
  -13.4063  -40.3286  -10.7838 C   0  0  0  0  0  0  0  0  0  0  0  0
  -13.7040  -41.0681   -9.5361 C   0  0  0  0  0  0  0  0  0  0  0  0
  -15.0767  -40.8164   -9.1619 N   0  0  0  0  0  0  0  0  0  0  0  0
  -15.1554  -39.9316   -7.9834 C   0  0  0  0  0  0  0  0  0  0  0  0
  -16.6040  -39.9379   -7.5800 C   0  0  1  0  0  0  0  0  0  0  0  0
  -16.8945  -39.2548   -6.4340 O   0  0  0  0  0  0  0  0  0  0  0  0
  -17.5658  -39.5965   -8.6905 C   0  0  2  0  0  0  0  0  0  0  0  0
  -18.3534  -38.4064   -8.2858 C   0  0  0  0  0  0  0  0  0  0  0  0
  -19.7968  -38.5281   -7.9646 C   0  0  0  0  0  0  0  0  0  0  0  0
  -20.4486  -39.1561   -6.9205 C   0  0  0  0  0  0  0  0  0  0  0  0
  -21.8197  -39.1700   -6.7865 C   0  0  0  0  0  0  0  0  0  0  0  0
  -22.7792  -39.7454   -5.8384 C   0  0  0  0  0  0  0  0  0  0  0  0
  -22.3927  -40.6600   -4.7653 C   0  0  0  0  0  0  0  0  0  0  0  0
  -21.9395  -40.1155   -3.5689 C   0  0  0  0  0  0  0  0  0  0  0  0
  -21.5379  -40.8089   -2.4598 C   0  0  0  0  0  0  0  0  0  0  0  0
  -21.5714  -42.1822   -2.4919 C   0  0  0  0  0  0  0  0  0  0  0  0
  -22.0158  -42.7590   -3.6631 C   0  0  0  0  0  0  0  0  0  0  0  0
  -22.4241  -42.0537   -4.7920 C   0  0  0  0  0  0  0  0  0  0  0  0
  -22.8274  -42.8232   -5.8454 O   0  0  0  0  0  0  0  0  0  0  0  0
  -22.6101  -42.8346   -7.2358 C   0  0  0  0  0  0  0  0  0  0  0  0
  -21.4797  -43.7399   -7.6293 C   0  0  0  0  0  0  0  0  0  0  0  0
  -21.7655  -44.9678   -7.3572 O   0  0  0  0  0  0  0  0  0  0  0  0
  -20.2592  -43.4838   -8.2014 N   0  0  0  0  0  0  0  0  0  0  0  0
  -19.1469  -42.6318   -7.7186 C   0  0  1  0  0  0  0  0  0  0  0  0
  -18.1205  -43.4944   -6.9993 C   0  0  0  0  0  0  0  0  0  0  0  0
  -18.4234  -42.0424   -8.8843 C   0  0  0  0  0  0  0  0  0  0  0  0
  -17.8948  -42.9750   -9.6096 O   0  0  0  0  0  0  0  0  0  0  0  0
  -18.2806  -40.6974   -9.2316 N   0  0  0  0  0  0  0  0  0  0  0  0
  -22.5786  -38.5043   -7.7709 C   0  0  0  0  0  0  0  0  0  0  0  0
  -24.0315  -38.5078   -7.6432 O   0  0  0  0  0  0  0  0  0  0  0  0
  -22.0073  -37.8724   -8.8134 C   0  0  0  0  0  0  0  0  0  0  0  0
  -20.6478  -37.8888   -8.9010 C   0  0  0  0  0  0  0  0  0  0  0  0
  -13.7811  -40.8072  -12.0097 C   0  0  0  0  0  0  0  0  0  0  0  0
  -13.4818  -40.0701  -13.1261 C   0  0  0  0  0  0  0  0  0  0  0  0
  -12.8222  -38.8722  -13.0709 C   0  0  0  0  0  0  0  0  0  0  0  0
  1  2  1  0
  2  3  1  0
  2  4  1  0
  4  5  2  0
  5  6  1  0
  6  7  1  0
  7  8  1  0
  8  9  1  0
  9 10  1  0
 10 11  1  1
 10 12  1  0
 12 13  1  1
 13 14  1  0
 14 15  1  0
 15 16  2  0
 16 17  1  0
 17 18  1  0
 18 19  2  0
 19 20  1  0
 20 21  2  0
 21 22  1  0
 22 23  2  0
 23 24  1  0
 24 25  1  0
 25 26  1  0
 26 27  2  0
 26 28  1  0
 28 29  1  0
 29 30  1  6
 29 31  1  0
 31 32  2  0
 31 33  1  0
 16 34  1  0
 34 35  1  0
 34 36  2  0
 36 37  1  0
  6 38  2  0
 38 39  1  0
 39 40  2  0
 23 18  1  0
 33 12  1  0
 37 14  2  0
 40  4  1  0
M  END
$$$$
