
     RDKit          3D

 40 43  0  0  0  0  0  0  0  0999 V2000
  -10.8399  -35.2575  -10.7233 C   0  0  0  0  0  0  0  0  0  0  0  0
  -11.3164  -36.5431  -11.3897 C   0  0  0  0  0  0  0  0  0  0  0  0
  -11.2249  -36.3068  -12.8852 C   0  0  0  0  0  0  0  0  0  0  0  0
  -12.7244  -36.7959  -11.0008 C   0  0  0  0  0  0  0  0  0  0  0  0
  -12.9849  -37.6017   -9.9298 C   0  0  0  0  0  0  0  0  0  0  0  0
  -14.2939  -37.8385   -9.5626 C   0  0  0  0  0  0  0  0  0  0  0  0
  -14.5472  -38.7099   -8.3927 C   0  0  0  0  0  0  0  0  0  0  0  0
  -15.3124  -37.9682   -7.4168 N   0  0  0  0  0  0  0  0  0  0  0  0
  -16.5710  -38.6636   -7.0845 C   0  0  0  0  0  0  0  0  0  0  0  0
  -16.5745  -39.9034   -7.9353 C   0  0  1  0  0  0  0  0  0  0  0  0
  -16.6600  -41.0817   -7.2507 O   0  0  0  0  0  0  0  0  0  0  0  0
  -17.5351  -39.8640   -9.0975 C   0  0  2  0  0  0  0  0  0  0  0  0
  -18.4974  -38.7565   -8.8793 C   0  0  0  0  0  0  0  0  0  0  0  0
  -19.9195  -39.0409   -8.5656 C   0  0  0  0  0  0  0  0  0  0  0  0
  -20.5121  -39.6052   -7.4522 C   0  0  0  0  0  0  0  0  0  0  0  0
  -21.8713  -39.7996   -7.3381 C   0  0  0  0  0  0  0  0  0  0  0  0
  -22.7725  -40.3705   -6.3318 C   0  0  0  0  0  0  0  0  0  0  0  0
  -22.2984  -41.0603   -5.1331 C   0  0  0  0  0  0  0  0  0  0  0  0
  -21.9698  -40.2940   -4.0204 C   0  0  0  0  0  0  0  0  0  0  0  0
  -21.5135  -40.7599   -2.8175 C   0  0  0  0  0  0  0  0  0  0  0  0
  -21.3506  -42.1143   -2.6530 C   0  0  0  0  0  0  0  0  0  0  0  0
  -21.6668  -42.9074   -3.7361 C   0  0  0  0  0  0  0  0  0  0  0  0
  -22.1307  -42.4336   -4.9604 C   0  0  0  0  0  0  0  0  0  0  0  0
  -22.3830  -43.3930   -5.8985 O   0  0  0  0  0  0  0  0  0  0  0  0
  -22.1171  -43.5667   -7.2695 C   0  0  0  0  0  0  0  0  0  0  0  0
  -20.8564  -44.3438   -7.5124 C   0  0  0  0  0  0  0  0  0  0  0  0
  -20.9746  -45.5501   -7.0715 O   0  0  0  0  0  0  0  0  0  0  0  0
  -19.6651  -43.9952   -8.0970 N   0  0  0  0  0  0  0  0  0  0  0  0
  -18.7028  -42.9314   -7.7246 C   0  0  1  0  0  0  0  0  0  0  0  0
  -17.5906  -43.5266   -6.8738 C   0  0  0  0  0  0  0  0  0  0  0  0
  -18.0294  -42.4116   -8.9518 C   0  0  0  0  0  0  0  0  0  0  0  0
  -17.3484  -43.3493   -9.5280 O   0  0  0  0  0  0  0  0  0  0  0  0
  -18.0667  -41.1219   -9.4860 N   0  0  0  0  0  0  0  0  0  0  0  0
  -22.6816  -39.3954   -8.4189 C   0  0  0  0  0  0  0  0  0  0  0  0
  -24.1229  -39.5925   -8.3138 O   0  0  0  0  0  0  0  0  0  0  0  0
  -22.1691  -38.8388   -9.5325 C   0  0  0  0  0  0  0  0  0  0  0  0
  -20.8188  -38.6693   -9.5966 C   0  0  0  0  0  0  0  0  0  0  0  0
  -15.3177  -37.2683  -10.2691 C   0  0  0  0  0  0  0  0  0  0  0  0
  -15.0153  -36.4653  -11.3382 C   0  0  0  0  0  0  0  0  0  0  0  0
  -13.7308  -36.2063  -11.7334 C   0  0  0  0  0  0  0  0  0  0  0  0
  1  2  1  0
  2  3  1  0
  2  4  1  0
  4  5  2  0
  5  6  1  0
  6  7  1  0
  7  8  1  0
  8  9  1  0
  9 10  1  0
 10 11  1  1
 10 12  1  0
 12 13  1  1
 13 14  1  0
 14 15  1  0
 15 16  2  0
 16 17  1  0
 17 18  1  0
 18 19  2  0
 19 20  1  0
 20 21  2  0
 21 22  1  0
 22 23  2  0
 23 24  1  0
 24 25  1  0
 25 26  1  0
 26 27  2  0
 26 28  1  0
 28 29  1  0
 29 30  1  1
 29 31  1  0
 31 32  2  0
 31 33  1  0
 16 34  1  0
 34 35  1  0
 34 36  2  0
 36 37  1  0
  6 38  2  0
 38 39  1  0
 39 40  2  0
 23 18  1  0
 33 12  1  0
 37 14  2  0
 40  4  1  0
M  END
$$$$
