
     RDKit          3D

 40 43  0  0  0  0  0  0  0  0999 V2000
  -13.1595  -35.7153  -13.9876 C   0  0  0  0  0  0  0  0  0  0  0  0
  -13.6011  -35.8267  -12.5327 C   0  0  0  0  0  0  0  0  0  0  0  0
  -13.2121  -34.5198  -11.8683 C   0  0  0  0  0  0  0  0  0  0  0  0
  -12.8815  -36.9548  -11.8943 C   0  0  0  0  0  0  0  0  0  0  0  0
  -13.5930  -38.0318  -11.4495 C   0  0  0  0  0  0  0  0  0  0  0  0
  -12.9277  -39.0853  -10.8563 C   0  0  0  0  0  0  0  0  0  0  0  0
  -13.7232  -40.2438  -10.3904 C   0  0  0  0  0  0  0  0  0  0  0  0
  -14.9317  -39.7575   -9.7651 N   0  0  0  0  0  0  0  0  0  0  0  0
  -14.9667  -40.1020   -8.3305 C   0  0  0  0  0  0  0  0  0  0  0  0
  -16.3523  -39.7417   -7.8709 C   0  0  1  0  0  0  0  0  0  0  0  0
  -16.4138  -38.8102   -6.8744 O   0  0  0  0  0  0  0  0  0  0  0  0
  -17.3215  -39.4308   -8.9839 C   0  0  2  0  0  0  0  0  0  0  0  0
  -18.2510  -38.3717   -8.5207 C   0  0  0  0  0  0  0  0  0  0  0  0
  -19.6776  -38.6808   -8.2545 C   0  0  0  0  0  0  0  0  0  0  0  0
  -20.2759  -39.4549   -7.2787 C   0  0  0  0  0  0  0  0  0  0  0  0
  -21.6388  -39.6350   -7.1892 C   0  0  0  0  0  0  0  0  0  0  0  0
  -22.5467  -40.3850   -6.3151 C   0  0  0  0  0  0  0  0  0  0  0  0
  -22.0814  -41.3267   -5.2981 C   0  0  0  0  0  0  0  0  0  0  0  0
  -21.7221  -40.8243   -4.0523 C   0  0  0  0  0  0  0  0  0  0  0  0
  -21.2684  -41.5478   -2.9832 C   0  0  0  0  0  0  0  0  0  0  0  0
  -21.1415  -42.9097   -3.1138 C   0  0  0  0  0  0  0  0  0  0  0  0
  -21.4888  -43.4449   -4.3365 C   0  0  0  0  0  0  0  0  0  0  0  0
  -21.9502  -42.7090   -5.4247 C   0  0  0  0  0  0  0  0  0  0  0  0
  -22.2369  -43.4391   -6.5422 O   0  0  0  0  0  0  0  0  0  0  0  0
  -21.9878  -43.3224   -7.9224 C   0  0  0  0  0  0  0  0  0  0  0  0
  -20.7512  -44.0611   -8.3435 C   0  0  0  0  0  0  0  0  0  0  0  0
  -20.8987  -45.3304   -8.1686 O   0  0  0  0  0  0  0  0  0  0  0  0
  -19.5558  -43.6256   -8.8574 N   0  0  0  0  0  0  0  0  0  0  0  0
  -18.5614  -42.6904   -8.2804 C   0  0  1  0  0  0  0  0  0  0  0  0
  -17.4587  -43.4813   -7.5923 C   0  0  0  0  0  0  0  0  0  0  0  0
  -17.8845  -41.9374   -9.3780 C   0  0  0  0  0  0  0  0  0  0  0  0
  -17.2347  -42.7472  -10.1508 O   0  0  0  0  0  0  0  0  0  0  0  0
  -17.8909  -40.5629   -9.6242 N   0  0  0  0  0  0  0  0  0  0  0  0
  -22.4470  -38.9892   -8.1471 C   0  0  0  0  0  0  0  0  0  0  0  0
  -23.8922  -39.1679   -8.0658 O   0  0  0  0  0  0  0  0  0  0  0  0
  -21.9291  -38.2205   -9.1236 C   0  0  0  0  0  0  0  0  0  0  0  0
  -20.5752  -38.0751   -9.1694 C   0  0  0  0  0  0  0  0  0  0  0  0
  -11.5669  -39.0454  -10.7176 C   0  0  0  0  0  0  0  0  0  0  0  0
  -10.8882  -37.9465  -11.1769 C   0  0  0  0  0  0  0  0  0  0  0  0
  -11.5116  -36.8824  -11.7705 C   0  0  0  0  0  0  0  0  0  0  0  0
  1  2  1  0
  2  3  1  0
  2  4  1  0
  4  5  2  0
  5  6  1  0
  6  7  1  0
  7  8  1  0
  8  9  1  0
  9 10  1  0
 10 11  1  1
 10 12  1  0
 12 13  1  1
 13 14  1  0
 14 15  1  0
 15 16  2  0
 16 17  1  0
 17 18  1  0
 18 19  2  0
 19 20  1  0
 20 21  2  0
 21 22  1  0
 22 23  2  0
 23 24  1  0
 24 25  1  0
 25 26  1  0
 26 27  2  0
 26 28  1  0
 28 29  1  0
 29 30  1  6
 29 31  1  0
 31 32  2  0
 31 33  1  0
 16 34  1  0
 34 35  1  0
 34 36  2  0
 36 37  1  0
  6 38  2  0
 38 39  1  0
 39 40  2  0
 23 18  1  0
 33 12  1  0
 37 14  2  0
 40  4  1  0
M  END
$$$$
