
     RDKit          3D

 40 43  0  0  0  0  0  0  0  0999 V2000
  -11.2206  -34.8418  -10.9104 C   0  0  0  0  0  0  0  0  0  0  0  0
  -12.4733  -35.0172  -11.7614 C   0  0  0  0  0  0  0  0  0  0  0  0
  -13.4363  -33.9270  -11.3314 C   0  0  0  0  0  0  0  0  0  0  0  0
  -13.0607  -36.3506  -11.4876 C   0  0  0  0  0  0  0  0  0  0  0  0
  -12.9319  -36.8915  -10.2406 C   0  0  0  0  0  0  0  0  0  0  0  0
  -13.4785  -38.1315   -9.9802 C   0  0  0  0  0  0  0  0  0  0  0  0
  -13.3307  -38.6907   -8.6173 C   0  0  0  0  0  0  0  0  0  0  0  0
  -14.5980  -38.5862   -7.9311 N   0  0  0  0  0  0  0  0  0  0  0  0
  -14.9709  -39.8671   -7.3001 C   0  0  0  0  0  0  0  0  0  0  0  0
  -16.4649  -39.8090   -7.1397 C   0  0  1  0  0  0  0  0  0  0  0  0
  -16.9122  -39.0349   -6.1077 O   0  0  0  0  0  0  0  0  0  0  0  0
  -17.2222  -39.5297   -8.4138 C   0  0  2  0  0  0  0  0  0  0  0  0
  -18.1312  -38.3806   -8.1824 C   0  0  0  0  0  0  0  0  0  0  0  0
  -19.6009  -38.5776   -8.1291 C   0  0  0  0  0  0  0  0  0  0  0  0
  -20.4004  -39.2311   -7.2109 C   0  0  0  0  0  0  0  0  0  0  0  0
  -21.7701  -39.3180   -7.3305 C   0  0  0  0  0  0  0  0  0  0  0  0
  -22.8568  -39.9365   -6.5641 C   0  0  0  0  0  0  0  0  0  0  0  0
  -22.6277  -40.8196   -5.4217 C   0  0  0  0  0  0  0  0  0  0  0  0
  -22.4313  -40.2412   -4.1726 C   0  0  0  0  0  0  0  0  0  0  0  0
  -22.2055  -40.9023   -2.9962 C   0  0  0  0  0  0  0  0  0  0  0  0
  -22.1615  -42.2756   -3.0086 C   0  0  0  0  0  0  0  0  0  0  0  0
  -22.3522  -42.8856   -4.2306 C   0  0  0  0  0  0  0  0  0  0  0  0
  -22.5816  -42.2132   -5.4281 C   0  0  0  0  0  0  0  0  0  0  0  0
  -22.7437  -43.0124   -6.5232 O   0  0  0  0  0  0  0  0  0  0  0  0
  -22.2738  -43.0238   -7.8497 C   0  0  0  0  0  0  0  0  0  0  0  0
  -21.0450  -43.8699   -8.0126 C   0  0  0  0  0  0  0  0  0  0  0  0
  -21.3122  -45.1091   -7.7750 O   0  0  0  0  0  0  0  0  0  0  0  0
  -19.7549  -43.5529   -8.3557 N   0  0  0  0  0  0  0  0  0  0  0  0
  -18.7961  -42.6378   -7.6928 C   0  0  1  0  0  0  0  0  0  0  0  0
  -17.8766  -43.4374   -6.7817 C   0  0  0  0  0  0  0  0  0  0  0  0
  -17.9018  -42.0201   -8.7167 C   0  0  0  0  0  0  0  0  0  0  0  0
  -17.2012  -42.9288   -9.3155 O   0  0  0  0  0  0  0  0  0  0  0  0
  -17.7672  -40.6723   -9.0566 N   0  0  0  0  0  0  0  0  0  0  0  0
  -22.3682  -38.7029   -8.4494 C   0  0  0  0  0  0  0  0  0  0  0  0
  -23.8176  -38.7841   -8.5903 O   0  0  0  0  0  0  0  0  0  0  0  0
  -21.6482  -38.0499   -9.3808 C   0  0  0  0  0  0  0  0  0  0  0  0
  -20.2968  -37.9933   -9.2174 C   0  0  0  0  0  0  0  0  0  0  0  0
  -14.1426  -38.8085  -10.9666 C   0  0  0  0  0  0  0  0  0  0  0  0
  -14.2508  -38.2319  -12.2056 C   0  0  0  0  0  0  0  0  0  0  0  0
  -13.7226  -37.0048  -12.5030 C   0  0  0  0  0  0  0  0  0  0  0  0
  1  2  1  0
  2  3  1  0
  2  4  1  0
  4  5  2  0
  5  6  1  0
  6  7  1  0
  7  8  1  0
  8  9  1  0
  9 10  1  0
 10 11  1  1
 10 12  1  0
 12 13  1  1
 13 14  1  0
 14 15  1  0
 15 16  2  0
 16 17  1  0
 17 18  1  0
 18 19  2  0
 19 20  1  0
 20 21  2  0
 21 22  1  0
 22 23  2  0
 23 24  1  0
 24 25  1  0
 25 26  1  0
 26 27  2  0
 26 28  1  0
 28 29  1  0
 29 30  1  1
 29 31  1  0
 31 32  2  0
 31 33  1  0
 16 34  1  0
 34 35  1  0
 34 36  2  0
 36 37  1  0
  6 38  2  0
 38 39  1  0
 39 40  2  0
 23 18  1  0
 33 12  1  0
 37 14  2  0
 40  4  1  0
M  END
$$$$
