
     RDKit          3D

 40 43  0  0  0  0  0  0  0  0999 V2000
  -11.4839  -36.5396   -8.8927 C   0  0  0  0  0  0  0  0  0  0  0  0
  -11.7558  -36.3338  -10.3786 C   0  0  0  0  0  0  0  0  0  0  0  0
  -11.8091  -34.8339  -10.5980 C   0  0  0  0  0  0  0  0  0  0  0  0
  -13.0633  -36.9436  -10.7196 C   0  0  0  0  0  0  0  0  0  0  0  0
  -13.3765  -38.1729  -10.2147 C   0  0  0  0  0  0  0  0  0  0  0  0
  -14.5931  -38.7440  -10.5277 C   0  0  0  0  0  0  0  0  0  0  0  0
  -14.9099  -40.0742   -9.9600 C   0  0  0  0  0  0  0  0  0  0  0  0
  -14.5712  -40.0737   -8.5553 N   0  0  0  0  0  0  0  0  0  0  0  0
  -15.1871  -38.9282   -7.8578 C   0  0  0  0  0  0  0  0  0  0  0  0
  -16.6445  -39.2773   -7.7345 C   0  0  1  0  0  0  0  0  0  0  0  0
  -17.4002  -38.3891   -7.0243 O   0  0  0  0  0  0  0  0  0  0  0  0
  -17.3097  -39.6609   -9.0326 C   0  0  2  0  0  0  0  0  0  0  0  0
  -18.4589  -38.7516   -9.2628 C   0  0  0  0  0  0  0  0  0  0  0  0
  -19.8518  -39.2531   -9.1636 C   0  0  0  0  0  0  0  0  0  0  0  0
  -20.5853  -39.6989   -8.0807 C   0  0  0  0  0  0  0  0  0  0  0  0
  -21.8866  -40.1399   -8.1812 C   0  0  0  0  0  0  0  0  0  0  0  0
  -22.8911  -40.6757   -7.2568 C   0  0  0  0  0  0  0  0  0  0  0  0
  -22.5990  -41.0082   -5.8634 C   0  0  0  0  0  0  0  0  0  0  0  0
  -22.6571  -39.9898   -4.9185 C   0  0  0  0  0  0  0  0  0  0  0  0
  -22.4184  -40.1103   -3.5766 C   0  0  0  0  0  0  0  0  0  0  0  0
  -22.0854  -41.3449   -3.0736 C   0  0  0  0  0  0  0  0  0  0  0  0
  -22.0179  -42.3807   -3.9816 C   0  0  0  0  0  0  0  0  0  0  0  0
  -22.2604  -42.2584   -5.3472 C   0  0  0  0  0  0  0  0  0  0  0  0
  -22.1382  -43.4127   -6.0662 O   0  0  0  0  0  0  0  0  0  0  0  0
  -21.5437  -43.7915   -7.2842 C   0  0  0  0  0  0  0  0  0  0  0  0
  -20.1544  -44.3278   -7.0987 C   0  0  0  0  0  0  0  0  0  0  0  0
  -20.1777  -45.4237   -6.4191 O   0  0  0  0  0  0  0  0  0  0  0  0
  -18.9318  -43.8643   -7.5145 N   0  0  0  0  0  0  0  0  0  0  0  0
  -18.2596  -42.5753   -7.2267 C   0  0  1  0  0  0  0  0  0  0  0  0
  -17.2902  -42.7547   -6.0678 C   0  0  0  0  0  0  0  0  0  0  0  0
  -17.4156  -42.1778   -8.3927 C   0  0  0  0  0  0  0  0  0  0  0  0
  -16.4823  -43.0510   -8.5965 O   0  0  0  0  0  0  0  0  0  0  0  0
  -17.5337  -41.0516   -9.2099 N   0  0  0  0  0  0  0  0  0  0  0  0
  -22.4835  -40.1271   -9.4586 C   0  0  0  0  0  0  0  0  0  0  0  0
  -23.8613  -40.5892   -9.5824 O   0  0  0  0  0  0  0  0  0  0  0  0
  -21.8258  -39.7050  -10.5549 C   0  0  0  0  0  0  0  0  0  0  0  0
  -20.5404  -39.2799  -10.4025 C   0  0  0  0  0  0  0  0  0  0  0  0
  -15.4739  -38.0798  -11.3373 C   0  0  0  0  0  0  0  0  0  0  0  0
  -15.1227  -36.8476  -11.8245 C   0  0  0  0  0  0  0  0  0  0  0  0
  -13.9264  -36.2481  -11.5373 C   0  0  0  0  0  0  0  0  0  0  0  0
  1  2  1  0
  2  3  1  0
  2  4  1  0
  4  5  2  0
  5  6  1  0
  6  7  1  0
  7  8  1  0
  8  9  1  0
  9 10  1  0
 10 11  1  6
 10 12  1  0
 12 13  1  1
 13 14  1  0
 14 15  1  0
 15 16  2  0
 16 17  1  0
 17 18  1  0
 18 19  2  0
 19 20  1  0
 20 21  2  0
 21 22  1  0
 22 23  2  0
 23 24  1  0
 24 25  1  0
 25 26  1  0
 26 27  2  0
 26 28  1  0
 28 29  1  0
 29 30  1  1
 29 31  1  0
 31 32  2  0
 31 33  1  0
 16 34  1  0
 34 35  1  0
 34 36  2  0
 36 37  1  0
  6 38  2  0
 38 39  1  0
 39 40  2  0
 23 18  1  0
 33 12  1  0
 37 14  2  0
 40  4  1  0
M  END
$$$$
