
     RDKit          3D

 40 43  0  0  0  0  0  0  0  0999 V2000
  -14.0926  -35.9441  -12.4774 C   0  0  0  0  0  0  0  0  0  0  0  0
  -13.8221  -35.7993  -10.9841 C   0  0  0  0  0  0  0  0  0  0  0  0
  -12.4862  -36.4698  -10.7263 C   0  0  0  0  0  0  0  0  0  0  0  0
  -14.8928  -36.4937  -10.2294 C   0  0  0  0  0  0  0  0  0  0  0  0
  -14.9793  -37.8546  -10.2966 C   0  0  0  0  0  0  0  0  0  0  0  0
  -15.9730  -38.5057   -9.5945 C   0  0  0  0  0  0  0  0  0  0  0  0
  -16.0387  -39.9824   -9.6790 C   0  0  0  0  0  0  0  0  0  0  0  0
  -15.3374  -40.5452   -8.5480 N   0  0  0  0  0  0  0  0  0  0  0  0
  -15.7062  -39.8580   -7.2950 C   0  0  0  0  0  0  0  0  0  0  0  0
  -17.0079  -39.1661   -7.5917 C   0  0  1  0  0  0  0  0  0  0  0  0
  -17.0099  -37.8151   -7.3939 O   0  0  0  0  0  0  0  0  0  0  0  0
  -17.6270  -39.5356   -8.9165 C   0  0  2  0  0  0  0  0  0  0  0  0
  -18.8024  -38.6614   -9.1503 C   0  0  0  0  0  0  0  0  0  0  0  0
  -20.1782  -39.2146   -9.1004 C   0  0  0  0  0  0  0  0  0  0  0  0
  -20.9212  -39.7170   -8.0492 C   0  0  0  0  0  0  0  0  0  0  0  0
  -22.2029  -40.2008   -8.1949 C   0  0  0  0  0  0  0  0  0  0  0  0
  -23.2096  -40.7982   -7.3115 C   0  0  0  0  0  0  0  0  0  0  0  0
  -22.9396  -41.1600   -5.9209 C   0  0  0  0  0  0  0  0  0  0  0  0
  -23.0574  -40.1718   -4.9499 C   0  0  0  0  0  0  0  0  0  0  0  0
  -22.8472  -40.3222   -3.6063 C   0  0  0  0  0  0  0  0  0  0  0  0
  -22.4822  -41.5581   -3.1294 C   0  0  0  0  0  0  0  0  0  0  0  0
  -22.3552  -42.5644   -4.0639 C   0  0  0  0  0  0  0  0  0  0  0  0
  -22.5686  -42.4117   -5.4313 C   0  0  0  0  0  0  0  0  0  0  0  0
  -22.3874  -43.5398   -6.1788 O   0  0  0  0  0  0  0  0  0  0  0  0
  -21.7501  -43.8622   -7.3914 C   0  0  0  0  0  0  0  0  0  0  0  0
  -20.3472  -44.3540   -7.1857 C   0  0  0  0  0  0  0  0  0  0  0  0
  -20.3474  -45.4691   -6.5377 O   0  0  0  0  0  0  0  0  0  0  0  0
  -19.1324  -43.8357   -7.5574 N   0  0  0  0  0  0  0  0  0  0  0  0
  -18.5145  -42.5324   -7.2169 C   0  0  1  0  0  0  0  0  0  0  0  0
  -17.5677  -42.7105   -6.0393 C   0  0  0  0  0  0  0  0  0  0  0  0
  -17.6573  -42.0720   -8.3497 C   0  0  0  0  0  0  0  0  0  0  0  0
  -16.6884  -42.9053   -8.5540 O   0  0  0  0  0  0  0  0  0  0  0  0
  -17.7961  -40.9277   -9.1380 N   0  0  0  0  0  0  0  0  0  0  0  0
  -22.7686  -40.1726   -9.4861 C   0  0  0  0  0  0  0  0  0  0  0  0
  -24.1254  -40.6795   -9.6577 O   0  0  0  0  0  0  0  0  0  0  0  0
  -22.1002  -39.6961  -10.5533 C   0  0  0  0  0  0  0  0  0  0  0  0
  -20.8351  -39.2303  -10.3566 C   0  0  0  0  0  0  0  0  0  0  0  0
  -16.8609  -37.7889   -8.8394 C   0  0  0  0  0  0  0  0  0  0  0  0
  -16.7410  -36.4240   -8.7975 C   0  0  0  0  0  0  0  0  0  0  0  0
  -15.7698  -35.7419   -9.4792 C   0  0  0  0  0  0  0  0  0  0  0  0
  1  2  1  0
  2  3  1  0
  2  4  1  0
  4  5  2  0
  5  6  1  0
  6  7  1  0
  7  8  1  0
  8  9  1  0
  9 10  1  0
 10 11  1  6
 10 12  1  0
 12 13  1  1
 13 14  1  0
 14 15  1  0
 15 16  2  0
 16 17  1  0
 17 18  1  0
 18 19  2  0
 19 20  1  0
 20 21  2  0
 21 22  1  0
 22 23  2  0
 23 24  1  0
 24 25  1  0
 25 26  1  0
 26 27  2  0
 26 28  1  0
 28 29  1  0
 29 30  1  1
 29 31  1  0
 31 32  2  0
 31 33  1  0
 16 34  1  0
 34 35  1  0
 34 36  2  0
 36 37  1  0
  6 38  2  0
 38 39  1  0
 39 40  2  0
 23 18  1  0
 33 12  1  0
 37 14  2  0
 40  4  1  0
M  END
$$$$
