
     RDKit          3D

 40 43  0  0  0  0  0  0  0  0999 V2000
  -17.4940  -35.1598  -11.1157 C   0  0  0  0  0  0  0  0  0  0  0  0
  -17.1779  -36.3326  -12.0370 C   0  0  0  0  0  0  0  0  0  0  0  0
  -18.3175  -37.3204  -11.8752 C   0  0  0  0  0  0  0  0  0  0  0  0
  -15.9023  -36.9542  -11.6077 C   0  0  0  0  0  0  0  0  0  0  0  0
  -15.8477  -37.6000  -10.4060 C   0  0  0  0  0  0  0  0  0  0  0  0
  -14.6632  -38.1818  -10.0028 C   0  0  0  0  0  0  0  0  0  0  0  0
  -14.6344  -38.8824   -8.6987 C   0  0  0  0  0  0  0  0  0  0  0  0
  -14.6664  -37.8986   -7.6409 N   0  0  0  0  0  0  0  0  0  0  0  0
  -15.5281  -38.3399   -6.5270 C   0  0  0  0  0  0  0  0  0  0  0  0
  -16.2829  -39.5275   -7.0572 C   0  0  1  0  0  0  0  0  0  0  0  0
  -17.0438  -40.1936   -6.1398 O   0  0  0  0  0  0  0  0  0  0  0  0
  -17.0476  -39.2671   -8.3309 C   0  0  2  0  0  0  0  0  0  0  0  0
  -18.0255  -38.1798   -8.0823 C   0  0  0  0  0  0  0  0  0  0  0  0
  -19.4810  -38.4655   -8.0442 C   0  0  0  0  0  0  0  0  0  0  0  0
  -20.2454  -39.1852   -7.1459 C   0  0  0  0  0  0  0  0  0  0  0  0
  -21.6067  -39.3516   -7.2774 C   0  0  0  0  0  0  0  0  0  0  0  0
  -22.6590  -40.0503   -6.5322 C   0  0  0  0  0  0  0  0  0  0  0  0
  -22.3843  -40.9422   -5.4068 C   0  0  0  0  0  0  0  0  0  0  0  0
  -22.2308  -40.3797   -4.1445 C   0  0  0  0  0  0  0  0  0  0  0  0
  -21.9730  -41.0510   -2.9805 C   0  0  0  0  0  0  0  0  0  0  0  0
  -21.8465  -42.4186   -3.0212 C   0  0  0  0  0  0  0  0  0  0  0  0
  -21.9926  -43.0128   -4.2571 C   0  0  0  0  0  0  0  0  0  0  0  0
  -22.2545  -42.3300   -5.4420 C   0  0  0  0  0  0  0  0  0  0  0  0
  -22.3615  -43.1140   -6.5547 O   0  0  0  0  0  0  0  0  0  0  0  0
  -21.8835  -43.0690   -7.8776 C   0  0  0  0  0  0  0  0  0  0  0  0
  -20.6051  -43.8363   -8.0489 C   0  0  0  0  0  0  0  0  0  0  0  0
  -20.7989  -45.0940   -7.8393 O   0  0  0  0  0  0  0  0  0  0  0  0
  -19.3343  -43.4352   -8.3757 N   0  0  0  0  0  0  0  0  0  0  0  0
  -18.4364  -42.4786   -7.6867 C   0  0  1  0  0  0  0  0  0  0  0  0
  -17.4761  -43.2408   -6.7857 C   0  0  0  0  0  0  0  0  0  0  0  0
  -17.5744  -41.7867   -8.6908 C   0  0  0  0  0  0  0  0  0  0  0  0
  -16.8168  -42.6389   -9.3032 O   0  0  0  0  0  0  0  0  0  0  0  0
  -17.5189  -40.4264   -9.0014 N   0  0  0  0  0  0  0  0  0  0  0  0
  -22.2337  -38.7498   -8.3877 C   0  0  0  0  0  0  0  0  0  0  0  0
  -23.6747  -38.9146   -8.5411 O   0  0  0  0  0  0  0  0  0  0  0  0
  -21.5484  -38.0350   -9.2999 C   0  0  0  0  0  0  0  0  0  0  0  0
  -20.2039  -37.9011   -9.1252 C   0  0  0  0  0  0  0  0  0  0  0  0
  -13.5563  -38.1091  -10.8040 C   0  0  0  0  0  0  0  0  0  0  0  0
  -13.6513  -37.4520  -12.0033 C   0  0  0  0  0  0  0  0  0  0  0  0
  -14.8074  -36.8624  -12.4383 C   0  0  0  0  0  0  0  0  0  0  0  0
  1  2  1  0
  2  3  1  0
  2  4  1  0
  4  5  2  0
  5  6  1  0
  6  7  1  0
  7  8  1  0
  8  9  1  0
  9 10  1  0
 10 11  1  1
 10 12  1  0
 12 13  1  1
 13 14  1  0
 14 15  1  0
 15 16  2  0
 16 17  1  0
 17 18  1  0
 18 19  2  0
 19 20  1  0
 20 21  2  0
 21 22  1  0
 22 23  2  0
 23 24  1  0
 24 25  1  0
 25 26  1  0
 26 27  2  0
 26 28  1  0
 28 29  1  0
 29 30  1  1
 29 31  1  0
 31 32  2  0
 31 33  1  0
 16 34  1  0
 34 35  1  0
 34 36  2  0
 36 37  1  0
  6 38  2  0
 38 39  1  0
 39 40  2  0
 23 18  1  0
 33 12  1  0
 37 14  2  0
 40  4  1  0
M  END
$$$$
