
     RDKit          3D

 40 43  0  0  0  0  0  0  0  0999 V2000
  -16.2183  -35.1990  -10.4521 C   0  0  0  0  0  0  0  0  0  0  0  0
  -15.3696  -35.4937  -11.6838 C   0  0  0  0  0  0  0  0  0  0  0  0
  -16.3204  -36.0272  -12.7384 C   0  0  0  0  0  0  0  0  0  0  0  0
  -14.3615  -36.5251  -11.3406 C   0  0  0  0  0  0  0  0  0  0  0  0
  -14.7817  -37.7371  -10.8730 C   0  0  0  0  0  0  0  0  0  0  0  0
  -13.8473  -38.7012  -10.5539 C   0  0  0  0  0  0  0  0  0  0  0  0
  -14.3312  -40.0091  -10.0566 C   0  0  0  0  0  0  0  0  0  0  0  0
  -14.0001  -40.1256   -8.6549 N   0  0  0  0  0  0  0  0  0  0  0  0
  -14.6466  -39.0612   -7.8631 C   0  0  0  0  0  0  0  0  0  0  0  0
  -16.0738  -39.5041   -7.6958 C   0  0  1  0  0  0  0  0  0  0  0  0
  -16.6862  -39.0822   -6.5506 O   0  0  0  0  0  0  0  0  0  0  0  0
  -16.9452  -39.2831   -8.9068 C   0  0  2  0  0  0  0  0  0  0  0  0
  -17.8689  -38.1568   -8.6267 C   0  0  0  0  0  0  0  0  0  0  0  0
  -19.3214  -38.3975   -8.4430 C   0  0  0  0  0  0  0  0  0  0  0  0
  -20.0181  -39.0501   -7.4440 C   0  0  0  0  0  0  0  0  0  0  0  0
  -21.3895  -39.1826   -7.4436 C   0  0  0  0  0  0  0  0  0  0  0  0
  -22.3862  -39.8132   -6.5720 C   0  0  0  0  0  0  0  0  0  0  0  0
  -22.0319  -40.6574   -5.4321 C   0  0  0  0  0  0  0  0  0  0  0  0
  -21.7495  -40.0393   -4.2190 C   0  0  0  0  0  0  0  0  0  0  0  0
  -21.4031  -40.6608   -3.0504 C   0  0  0  0  0  0  0  0  0  0  0  0
  -21.3149  -42.0320   -3.0328 C   0  0  0  0  0  0  0  0  0  0  0  0
  -21.5882  -42.6806   -4.2188 C   0  0  0  0  0  0  0  0  0  0  0  0
  -21.9405  -42.0485   -5.4083 C   0  0  0  0  0  0  0  0  0  0  0  0
  -22.1683  -42.8818   -6.4656 O   0  0  0  0  0  0  0  0  0  0  0  0
  -21.8125  -42.9149   -7.8268 C   0  0  0  0  0  0  0  0  0  0  0  0
  -20.5746  -43.7268   -8.0734 C   0  0  0  0  0  0  0  0  0  0  0  0
  -20.7795  -44.9667   -7.7836 O   0  0  0  0  0  0  0  0  0  0  0  0
  -19.3295  -43.3796   -8.5335 N   0  0  0  0  0  0  0  0  0  0  0  0
  -18.3487  -42.4175   -7.9777 C   0  0  1  0  0  0  0  0  0  0  0  0
  -17.3292  -43.1633   -7.1294 C   0  0  0  0  0  0  0  0  0  0  0  0
  -17.5653  -41.8006   -9.0893 C   0  0  0  0  0  0  0  0  0  0  0  0
  -16.8884  -42.7033   -9.7234 O   0  0  0  0  0  0  0  0  0  0  0  0
  -17.5047  -40.4592   -9.4724 N   0  0  0  0  0  0  0  0  0  0  0  0
  -22.1003  -38.6170   -8.5219 C   0  0  0  0  0  0  0  0  0  0  0  0
  -23.5530  -38.7466   -8.5362 O   0  0  0  0  0  0  0  0  0  0  0  0
  -21.4838  -37.9676   -9.5274 C   0  0  0  0  0  0  0  0  0  0  0  0
  -20.1261  -37.8649   -9.4816 C   0  0  0  0  0  0  0  0  0  0  0  0
  -12.5129  -38.4394  -10.7067 C   0  0  0  0  0  0  0  0  0  0  0  0
  -12.1309  -37.2105  -11.1790 C   0  0  0  0  0  0  0  0  0  0  0  0
  -13.0266  -36.2287  -11.5063 C   0  0  0  0  0  0  0  0  0  0  0  0
  1  2  1  0
  2  3  1  0
  2  4  1  0
  4  5  2  0
  5  6  1  0
  6  7  1  0
  7  8  1  0
  8  9  1  0
  9 10  1  0
 10 11  1  1
 10 12  1  0
 12 13  1  1
 13 14  1  0
 14 15  1  0
 15 16  2  0
 16 17  1  0
 17 18  1  0
 18 19  2  0
 19 20  1  0
 20 21  2  0
 21 22  1  0
 22 23  2  0
 23 24  1  0
 24 25  1  0
 25 26  1  0
 26 27  2  0
 26 28  1  0
 28 29  1  0
 29 30  1  1
 29 31  1  0
 31 32  2  0
 31 33  1  0
 16 34  1  0
 34 35  1  0
 34 36  2  0
 36 37  1  0
  6 38  2  0
 38 39  1  0
 39 40  2  0
 23 18  1  0
 33 12  1  0
 37 14  2  0
 40  4  1  0
M  END
$$$$
