
     RDKit          3D

 40 43  0  0  0  0  0  0  0  0999 V2000
  -24.8922  -41.2478   -4.3075 C   0  0  0  0  0  0  0  0  0  0  0  0
  -24.3671  -41.6036   -5.6938 C   0  0  0  0  0  0  0  0  0  0  0  0
  -23.8142  -43.0123   -5.5911 C   0  0  0  0  0  0  0  0  0  0  0  0
  -23.2845  -40.6584   -6.0577 C   0  0  0  0  0  0  0  0  0  0  0  0
  -22.1223  -40.6695   -5.3414 C   0  0  0  0  0  0  0  0  0  0  0  0
  -21.1109  -39.7930   -5.6774 C   0  0  0  0  0  0  0  0  0  0  0  0
  -19.8584  -39.8321   -4.8888 C   0  0  0  0  0  0  0  0  0  0  0  0
  -18.7959  -40.3382   -5.7271 N   0  0  0  0  0  0  0  0  0  0  0  0
  -17.6296  -39.4341   -5.7154 C   0  0  0  0  0  0  0  0  0  0  0  0
  -17.3004  -39.1943   -7.1629 C   0  0  1  0  0  0  0  0  0  0  0  0
  -17.7041  -37.9893   -7.6622 O   0  0  0  0  0  0  0  0  0  0  0  0
  -15.8735  -39.5037   -7.5413 C   0  0  2  0  0  0  0  0  0  0  0  0
  -15.4674  -38.5951   -8.6413 C   0  0  0  0  0  0  0  0  0  0  0  0
  -15.2507  -39.1177  -10.0129 C   0  0  0  0  0  0  0  0  0  0  0  0
  -16.1330  -39.6385  -10.9401 C   0  0  0  0  0  0  0  0  0  0  0  0
  -15.7432  -40.0873  -12.1829 C   0  0  0  0  0  0  0  0  0  0  0  0
  -16.4100  -40.6911  -13.3412 C   0  0  0  0  0  0  0  0  0  0  0  0
  -17.8118  -41.1065  -13.3302 C   0  0  0  0  0  0  0  0  0  0  0  0
  -18.7831  -40.1497  -13.6031 C   0  0  0  0  0  0  0  0  0  0  0  0
  -20.1360  -40.3509  -13.6390 C   0  0  0  0  0  0  0  0  0  0  0  0
  -20.6230  -41.6105  -13.3857 C   0  0  0  0  0  0  0  0  0  0  0  0
  -19.6887  -42.5868  -13.1106 C   0  0  0  0  0  0  0  0  0  0  0  0
  -18.3119  -42.3824  -13.0736 C   0  0  0  0  0  0  0  0  0  0  0  0
  -17.5665  -43.4882  -12.7804 O   0  0  0  0  0  0  0  0  0  0  0  0
  -16.4754  -43.7835  -11.9422 C   0  0  0  0  0  0  0  0  0  0  0  0
  -16.9088  -44.3144  -10.6070 C   0  0  0  0  0  0  0  0  0  0  0  0
  -17.5037  -45.4507  -10.7416 O   0  0  0  0  0  0  0  0  0  0  0  0
  -16.7791  -43.8119   -9.3368 N   0  0  0  0  0  0  0  0  0  0  0  0
  -17.2733  -42.5357   -8.7682 C   0  0  1  0  0  0  0  0  0  0  0  0
  -18.5931  -42.7759   -8.0502 C   0  0  0  0  0  0  0  0  0  0  0  0
  -16.3295  -42.0567   -7.7148 C   0  0  0  0  0  0  0  0  0  0  0  0
  -16.2695  -42.9047   -6.7389 O   0  0  0  0  0  0  0  0  0  0  0  0
  -15.5729  -40.8832   -7.6913 N   0  0  0  0  0  0  0  0  0  0  0  0
  -14.3739  -40.0017  -12.5082 C   0  0  0  0  0  0  0  0  0  0  0  0
  -13.9446  -40.4709  -13.8207 O   0  0  0  0  0  0  0  0  0  0  0  0
  -13.4616  -39.5046  -11.6519 C   0  0  0  0  0  0  0  0  0  0  0  0
  -13.8979  -39.0751  -10.4348 C   0  0  0  0  0  0  0  0  0  0  0  0
  -21.2767  -38.9226   -6.7201 C   0  0  0  0  0  0  0  0  0  0  0  0
  -22.4581  -38.9420   -7.4151 C   0  0  0  0  0  0  0  0  0  0  0  0
  -23.4843  -39.7957   -7.1127 C   0  0  0  0  0  0  0  0  0  0  0  0
  1  2  1  0
  2  3  1  0
  2  4  1  0
  4  5  2  0
  5  6  1  0
  6  7  1  0
  7  8  1  0
  8  9  1  0
  9 10  1  0
 10 11  1  1
 10 12  1  0
 12 13  1  6
 13 14  1  0
 14 15  1  0
 15 16  2  0
 16 17  1  0
 17 18  1  0
 18 19  2  0
 19 20  1  0
 20 21  2  0
 21 22  1  0
 22 23  2  0
 23 24  1  0
 24 25  1  0
 25 26  1  0
 26 27  2  0
 26 28  1  0
 28 29  1  0
 29 30  1  1
 29 31  1  0
 31 32  2  0
 31 33  1  0
 16 34  1  0
 34 35  1  0
 34 36  2  0
 36 37  1  0
  6 38  2  0
 38 39  1  0
 39 40  2  0
 23 18  1  0
 33 12  1  0
 37 14  2  0
 40  4  1  0
M  END
$$$$
