
     RDKit          3D

 40 43  0  0  0  0  0  0  0  0999 V2000
  -11.2301  -35.3800  -10.8742 C   0  0  0  0  0  0  0  0  0  0  0  0
  -12.4321  -35.8674  -11.6754 C   0  0  0  0  0  0  0  0  0  0  0  0
  -13.6508  -35.2077  -11.0587 C   0  0  0  0  0  0  0  0  0  0  0  0
  -12.5329  -37.3410  -11.5472 C   0  0  0  0  0  0  0  0  0  0  0  0
  -12.5986  -37.8980  -10.3024 C   0  0  0  0  0  0  0  0  0  0  0  0
  -12.6945  -39.2689  -10.1778 C   0  0  0  0  0  0  0  0  0  0  0  0
  -12.7721  -39.8455   -8.8163 C   0  0  0  0  0  0  0  0  0  0  0  0
  -14.1407  -40.2235   -8.5480 N   0  0  0  0  0  0  0  0  0  0  0  0
  -14.9418  -39.0604   -8.1196 C   0  0  0  0  0  0  0  0  0  0  0  0
  -16.3355  -39.5902   -7.9247 C   0  0  1  0  0  0  0  0  0  0  0  0
  -16.9817  -39.1389   -6.8098 O   0  0  0  0  0  0  0  0  0  0  0  0
  -17.2139  -39.5098   -9.1481 C   0  0  2  0  0  0  0  0  0  0  0  0
  -18.1947  -38.4137   -8.9558 C   0  0  0  0  0  0  0  0  0  0  0  0
  -19.6335  -38.7133   -8.7517 C   0  0  0  0  0  0  0  0  0  0  0  0
  -20.2985  -39.3204   -7.7036 C   0  0  0  0  0  0  0  0  0  0  0  0
  -21.6612  -39.5224   -7.6908 C   0  0  0  0  0  0  0  0  0  0  0  0
  -22.6266  -40.1329   -6.7710 C   0  0  0  0  0  0  0  0  0  0  0  0
  -22.2326  -40.8658   -5.5689 C   0  0  0  0  0  0  0  0  0  0  0  0
  -21.9853  -40.1409   -4.4085 C   0  0  0  0  0  0  0  0  0  0  0  0
  -21.6106  -40.6504   -3.1952 C   0  0  0  0  0  0  0  0  0  0  0  0
  -21.4524  -42.0096   -3.0702 C   0  0  0  0  0  0  0  0  0  0  0  0
  -21.6892  -42.7623   -4.2012 C   0  0  0  0  0  0  0  0  0  0  0  0
  -22.0702  -42.2443   -5.4362 C   0  0  0  0  0  0  0  0  0  0  0  0
  -22.2524  -43.1685   -6.4245 O   0  0  0  0  0  0  0  0  0  0  0  0
  -21.8919  -43.2900   -7.7794 C   0  0  0  0  0  0  0  0  0  0  0  0
  -20.6135  -44.0543   -7.9634 C   0  0  0  0  0  0  0  0  0  0  0  0
  -20.7555  -45.2765   -7.5769 O   0  0  0  0  0  0  0  0  0  0  0  0
  -19.3865  -43.6810   -8.4511 N   0  0  0  0  0  0  0  0  0  0  0  0
  -18.4577  -42.6294   -7.9739 C   0  0  1  0  0  0  0  0  0  0  0  0
  -17.4036  -43.2532   -7.0712 C   0  0  0  0  0  0  0  0  0  0  0  0
  -17.7040  -42.0623   -9.1316 C   0  0  0  0  0  0  0  0  0  0  0  0
  -16.9802  -42.9761   -9.6939 O   0  0  0  0  0  0  0  0  0  0  0  0
  -17.7110  -40.7536   -9.6188 N   0  0  0  0  0  0  0  0  0  0  0  0
  -22.3973  -39.0802   -8.8092 C   0  0  0  0  0  0  0  0  0  0  0  0
  -23.8414  -39.2847   -8.8111 O   0  0  0  0  0  0  0  0  0  0  0  0
  -21.8122  -38.4809   -9.8633 C   0  0  0  0  0  0  0  0  0  0  0  0
  -20.4616  -38.3057   -9.8277 C   0  0  0  0  0  0  0  0  0  0  0  0
  -12.7229  -40.0583  -11.2952 C   0  0  0  0  0  0  0  0  0  0  0  0
  -12.6548  -39.4613  -12.5273 C   0  0  0  0  0  0  0  0  0  0  0  0
  -12.5591  -38.1059  -12.6923 C   0  0  0  0  0  0  0  0  0  0  0  0
  1  2  1  0
  2  3  1  0
  2  4  1  0
  4  5  2  0
  5  6  1  0
  6  7  1  0
  7  8  1  0
  8  9  1  0
  9 10  1  0
 10 11  1  1
 10 12  1  0
 12 13  1  1
 13 14  1  0
 14 15  1  0
 15 16  2  0
 16 17  1  0
 17 18  1  0
 18 19  2  0
 19 20  1  0
 20 21  2  0
 21 22  1  0
 22 23  2  0
 23 24  1  0
 24 25  1  0
 25 26  1  0
 26 27  2  0
 26 28  1  0
 28 29  1  0
 29 30  1  1
 29 31  1  0
 31 32  2  0
 31 33  1  0
 16 34  1  0
 34 35  1  0
 34 36  2  0
 36 37  1  0
  6 38  2  0
 38 39  1  0
 39 40  2  0
 23 18  1  0
 33 12  1  0
 37 14  2  0
 40  4  1  0
M  END
$$$$
