
     RDKit          3D

 40 43  0  0  0  0  0  0  0  0999 V2000
  -11.5282  -39.8667   -4.0579 C   0  0  0  0  0  0  0  0  0  0  0  0
  -10.5760  -40.4665   -5.0864 C   0  0  0  0  0  0  0  0  0  0  0  0
   -9.3441  -39.5815   -5.0932 C   0  0  0  0  0  0  0  0  0  0  0  0
  -11.2260  -40.4424   -6.4186 C   0  0  0  0  0  0  0  0  0  0  0  0
  -12.1638  -39.4864   -6.6846 C   0  0  0  0  0  0  0  0  0  0  0  0
  -12.7704  -39.4586   -7.9237 C   0  0  0  0  0  0  0  0  0  0  0  0
  -13.7780  -38.4063   -8.1877 C   0  0  0  0  0  0  0  0  0  0  0  0
  -14.7016  -38.8869   -9.1896 N   0  0  0  0  0  0  0  0  0  0  0  0
  -15.7177  -39.7775   -8.5960 C   0  0  0  0  0  0  0  0  0  0  0  0
  -16.9345  -38.9155   -8.4023 C   0  0  1  0  0  0  0  0  0  0  0  0
  -16.6866  -37.6410   -7.9797 O   0  0  0  0  0  0  0  0  0  0  0  0
  -17.9106  -38.9408   -9.5519 C   0  0  2  0  0  0  0  0  0  0  0  0
  -19.0393  -38.0319   -9.2350 C   0  0  0  0  0  0  0  0  0  0  0  0
  -20.3879  -38.5754   -8.9393 C   0  0  0  0  0  0  0  0  0  0  0  0
  -20.8568  -39.3216   -7.8750 C   0  0  0  0  0  0  0  0  0  0  0  0
  -22.1622  -39.7494   -7.7708 C   0  0  0  0  0  0  0  0  0  0  0  0
  -22.9363  -40.5448   -6.8123 C   0  0  0  0  0  0  0  0  0  0  0  0
  -22.3309  -41.2429   -5.6792 C   0  0  0  0  0  0  0  0  0  0  0  0
  -22.1128  -40.5278   -4.5069 C   0  0  0  0  0  0  0  0  0  0  0  0
  -21.5622  -41.0093   -3.3506 C   0  0  0  0  0  0  0  0  0  0  0  0
  -21.1732  -42.3263   -3.3031 C   0  0  0  0  0  0  0  0  0  0  0  0
  -21.3740  -43.0681   -4.4482 C   0  0  0  0  0  0  0  0  0  0  0  0
  -21.9339  -42.5784   -5.6252 C   0  0  0  0  0  0  0  0  0  0  0  0
  -22.0414  -43.4851   -6.6404 O   0  0  0  0  0  0  0  0  0  0  0  0
  -21.7769  -43.4970   -8.0226 C   0  0  0  0  0  0  0  0  0  0  0  0
  -20.4095  -44.0293   -8.3374 C   0  0  0  0  0  0  0  0  0  0  0  0
  -20.3169  -45.2708   -8.0005 O   0  0  0  0  0  0  0  0  0  0  0  0
  -19.3043  -43.4388   -8.8963 N   0  0  0  0  0  0  0  0  0  0  0  0
  -18.5252  -42.2638   -8.4396 C   0  0  1  0  0  0  0  0  0  0  0  0
  -17.3133  -42.7332   -7.6485 C   0  0  0  0  0  0  0  0  0  0  0  0
  -17.9715  -41.5382   -9.6215 C   0  0  0  0  0  0  0  0  0  0  0  0
  -17.1554  -42.2976  -10.2791 O   0  0  0  0  0  0  0  0  0  0  0  0
  -18.2331  -40.2331  -10.0435 N   0  0  0  0  0  0  0  0  0  0  0  0
  -23.0493  -39.3980   -8.8090 C   0  0  0  0  0  0  0  0  0  0  0  0
  -24.4354  -39.8415   -8.7136 O   0  0  0  0  0  0  0  0  0  0  0  0
  -22.6581  -38.6728   -9.8737 C   0  0  0  0  0  0  0  0  0  0  0  0
  -21.3563  -38.2750   -9.9301 C   0  0  0  0  0  0  0  0  0  0  0  0
  -12.4312  -40.3832   -8.8737 C   0  0  0  0  0  0  0  0  0  0  0  0
  -11.4851  -41.3271   -8.5683 C   0  0  0  0  0  0  0  0  0  0  0  0
  -10.8612  -41.3877   -7.3516 C   0  0  0  0  0  0  0  0  0  0  0  0
  1  2  1  0
  2  3  1  0
  2  4  1  0
  4  5  2  0
  5  6  1  0
  6  7  1  0
  7  8  1  0
  8  9  1  0
  9 10  1  0
 10 11  1  6
 10 12  1  0
 12 13  1  1
 13 14  1  0
 14 15  1  0
 15 16  2  0
 16 17  1  0
 17 18  1  0
 18 19  2  0
 19 20  1  0
 20 21  2  0
 21 22  1  0
 22 23  2  0
 23 24  1  0
 24 25  1  0
 25 26  1  0
 26 27  2  0
 26 28  1  0
 28 29  1  0
 29 30  1  1
 29 31  1  0
 31 32  2  0
 31 33  1  0
 16 34  1  0
 34 35  1  0
 34 36  2  0
 36 37  1  0
  6 38  2  0
 38 39  1  0
 39 40  2  0
 23 18  1  0
 33 12  1  0
 37 14  2  0
 40  4  1  0
M  END
$$$$
