
     RDKit          3D

 40 43  0  0  0  0  0  0  0  0999 V2000
   -9.6077  -41.3989   -7.8972 C   0  0  0  0  0  0  0  0  0  0  0  0
  -10.1806  -40.5446   -9.0224 C   0  0  0  0  0  0  0  0  0  0  0  0
  -10.5535  -39.2132   -8.3987 C   0  0  0  0  0  0  0  0  0  0  0  0
  -11.3905  -41.2078   -9.5647 C   0  0  0  0  0  0  0  0  0  0  0  0
  -12.5461  -41.1823   -8.8380 C   0  0  0  0  0  0  0  0  0  0  0  0
  -13.6755  -41.7966   -9.3393 C   0  0  0  0  0  0  0  0  0  0  0  0
  -14.9168  -41.7467   -8.5339 C   0  0  0  0  0  0  0  0  0  0  0  0
  -14.9099  -40.5378   -7.7423 N   0  0  0  0  0  0  0  0  0  0  0  0
  -15.1931  -39.3526   -8.5749 C   0  0  0  0  0  0  0  0  0  0  0  0
  -16.6015  -38.9542   -8.2299 C   0  0  1  0  0  0  0  0  0  0  0  0
  -16.7165  -37.9073   -7.3610 O   0  0  0  0  0  0  0  0  0  0  0  0
  -17.5171  -38.7948   -9.4178 C   0  0  2  0  0  0  0  0  0  0  0  0
  -18.6260  -37.8839   -9.0423 C   0  0  0  0  0  0  0  0  0  0  0  0
  -20.0074  -38.4006   -8.8803 C   0  0  0  0  0  0  0  0  0  0  0  0
  -20.5581  -39.2514   -7.9411 C   0  0  0  0  0  0  0  0  0  0  0  0
  -21.8823  -39.6317   -7.9525 C   0  0  0  0  0  0  0  0  0  0  0  0
  -22.7340  -40.5051   -7.1385 C   0  0  0  0  0  0  0  0  0  0  0  0
  -22.2145  -41.3635   -6.0751 C   0  0  0  0  0  0  0  0  0  0  0  0
  -22.0307  -40.8088   -4.8134 C   0  0  0  0  0  0  0  0  0  0  0  0
  -21.5589  -41.4530   -3.7023 C   0  0  0  0  0  0  0  0  0  0  0  0
  -21.2223  -42.7814   -3.8024 C   0  0  0  0  0  0  0  0  0  0  0  0
  -21.3912  -43.3666   -5.0397 C   0  0  0  0  0  0  0  0  0  0  0  0
  -21.8709  -42.7114   -6.1707 C   0  0  0  0  0  0  0  0  0  0  0  0
  -21.9595  -43.4801   -7.2956 O   0  0  0  0  0  0  0  0  0  0  0  0
  -21.6246  -43.3327   -8.6545 C   0  0  0  0  0  0  0  0  0  0  0  0
  -20.2636  -43.8810   -8.9696 C   0  0  0  0  0  0  0  0  0  0  0  0
  -20.2349  -45.1574   -8.7873 O   0  0  0  0  0  0  0  0  0  0  0  0
  -19.1097  -43.2745   -9.3979 N   0  0  0  0  0  0  0  0  0  0  0  0
  -18.3120  -42.1999   -8.7614 C   0  0  1  0  0  0  0  0  0  0  0  0
  -17.1609  -42.8157   -7.9799 C   0  0  0  0  0  0  0  0  0  0  0  0
  -17.6712  -41.3587   -9.8157 C   0  0  0  0  0  0  0  0  0  0  0  0
  -16.8512  -42.0657  -10.5247 O   0  0  0  0  0  0  0  0  0  0  0  0
  -17.8617  -40.0013  -10.0823 N   0  0  0  0  0  0  0  0  0  0  0  0
  -22.7008  -39.1165   -8.9785 C   0  0  0  0  0  0  0  0  0  0  0  0
  -24.1056  -39.5077   -9.0043 O   0  0  0  0  0  0  0  0  0  0  0  0
  -22.2283  -38.2830   -9.9244 C   0  0  0  0  0  0  0  0  0  0  0  0
  -20.9114  -37.9382   -9.8696 C   0  0  0  0  0  0  0  0  0  0  0  0
  -13.6320  -42.4243  -10.5544 C   0  0  0  0  0  0  0  0  0  0  0  0
  -12.4530  -42.4282  -11.2538 C   0  0  0  0  0  0  0  0  0  0  0  0
  -11.3121  -41.8306  -10.7908 C   0  0  0  0  0  0  0  0  0  0  0  0
  1  2  1  0
  2  3  1  0
  2  4  1  0
  4  5  2  0
  5  6  1  0
  6  7  1  0
  7  8  1  0
  8  9  1  0
  9 10  1  0
 10 11  1  6
 10 12  1  0
 12 13  1  1
 13 14  1  0
 14 15  1  0
 15 16  2  0
 16 17  1  0
 17 18  1  0
 18 19  2  0
 19 20  1  0
 20 21  2  0
 21 22  1  0
 22 23  2  0
 23 24  1  0
 24 25  1  0
 25 26  1  0
 26 27  2  0
 26 28  1  0
 28 29  1  0
 29 30  1  1
 29 31  1  0
 31 32  2  0
 31 33  1  0
 16 34  1  0
 34 35  1  0
 34 36  2  0
 36 37  1  0
  6 38  2  0
 38 39  1  0
 39 40  2  0
 23 18  1  0
 33 12  1  0
 37 14  2  0
 40  4  1  0
M  END
$$$$
