
     RDKit          3D

 40 43  0  0  0  0  0  0  0  0999 V2000
  -10.9731  -35.0526  -11.1941 C   0  0  0  0  0  0  0  0  0  0  0  0
  -12.4019  -35.5773  -11.2789 C   0  0  0  0  0  0  0  0  0  0  0  0
  -13.2060  -34.7895  -10.2623 C   0  0  0  0  0  0  0  0  0  0  0  0
  -12.4096  -37.0173  -10.9267 C   0  0  0  0  0  0  0  0  0  0  0  0
  -12.8031  -37.3944   -9.6748 C   0  0  0  0  0  0  0  0  0  0  0  0
  -12.8138  -38.7337   -9.3427 C   0  0  0  0  0  0  0  0  0  0  0  0
  -13.2524  -39.1149   -7.9809 C   0  0  0  0  0  0  0  0  0  0  0  0
  -14.6005  -39.6298   -8.0530 N   0  0  0  0  0  0  0  0  0  0  0  0
  -15.3537  -39.0020   -9.1560 C   0  0  0  0  0  0  0  0  0  0  0  0
  -16.7875  -38.9962   -8.7030 C   0  0  1  0  0  0  0  0  0  0  0  0
  -17.1254  -37.9888   -7.8454 O   0  0  0  0  0  0  0  0  0  0  0  0
  -17.7970  -39.1436   -9.8138 C   0  0  2  0  0  0  0  0  0  0  0  0
  -18.9028  -38.1831   -9.5796 C   0  0  0  0  0  0  0  0  0  0  0  0
  -20.2499  -38.6624   -9.1831 C   0  0  0  0  0  0  0  0  0  0  0  0
  -20.6981  -39.2652   -8.0234 C   0  0  0  0  0  0  0  0  0  0  0  0
  -22.0060  -39.6539   -7.8323 C   0  0  0  0  0  0  0  0  0  0  0  0
  -22.7631  -40.3130   -6.7631 C   0  0  0  0  0  0  0  0  0  0  0  0
  -22.1350  -40.8789   -5.5703 C   0  0  0  0  0  0  0  0  0  0  0  0
  -21.8724  -40.0305   -4.5004 C   0  0  0  0  0  0  0  0  0  0  0  0
  -21.2952  -40.3777   -3.3094 C   0  0  0  0  0  0  0  0  0  0  0  0
  -20.9240  -41.6859   -3.1121 C   0  0  0  0  0  0  0  0  0  0  0  0
  -21.1688  -42.5577   -4.1523 C   0  0  0  0  0  0  0  0  0  0  0  0
  -21.7558  -42.2047   -5.3645 C   0  0  0  0  0  0  0  0  0  0  0  0
  -21.9059  -43.2260   -6.2583 O   0  0  0  0  0  0  0  0  0  0  0  0
  -21.6821  -43.4105   -7.6354 C   0  0  0  0  0  0  0  0  0  0  0  0
  -20.3323  -44.0015   -7.9200 C   0  0  0  0  0  0  0  0  0  0  0  0
  -20.2477  -45.1942   -7.4368 O   0  0  0  0  0  0  0  0  0  0  0  0
  -19.2355  -43.5031   -8.5767 N   0  0  0  0  0  0  0  0  0  0  0  0
  -18.4267  -42.2953   -8.2881 C   0  0  1  0  0  0  0  0  0  0  0  0
  -17.1989  -42.6866   -7.4790 C   0  0  0  0  0  0  0  0  0  0  0  0
  -17.8973  -41.7288   -9.5643 C   0  0  0  0  0  0  0  0  0  0  0  0
  -17.1118  -42.5769  -10.1464 O   0  0  0  0  0  0  0  0  0  0  0  0
  -18.1523  -40.4802  -10.1352 N   0  0  0  0  0  0  0  0  0  0  0  0
  -22.9178  -39.4155   -8.8810 C   0  0  0  0  0  0  0  0  0  0  0  0
  -24.3068  -39.8193   -8.6944 O   0  0  0  0  0  0  0  0  0  0  0  0
  -22.5476  -38.8321  -10.0365 C   0  0  0  0  0  0  0  0  0  0  0  0
  -21.2424  -38.4674  -10.1764 C   0  0  0  0  0  0  0  0  0  0  0  0
  -12.4324  -39.6712  -10.2636 C   0  0  0  0  0  0  0  0  0  0  0  0
  -12.0440  -39.2528  -11.5098 C   0  0  0  0  0  0  0  0  0  0  0  0
  -12.0198  -37.9346  -11.8773 C   0  0  0  0  0  0  0  0  0  0  0  0
  1  2  1  0
  2  3  1  0
  2  4  1  0
  4  5  2  0
  5  6  1  0
  6  7  1  0
  7  8  1  0
  8  9  1  0
  9 10  1  0
 10 11  1  6
 10 12  1  0
 12 13  1  1
 13 14  1  0
 14 15  1  0
 15 16  2  0
 16 17  1  0
 17 18  1  0
 18 19  2  0
 19 20  1  0
 20 21  2  0
 21 22  1  0
 22 23  2  0
 23 24  1  0
 24 25  1  0
 25 26  1  0
 26 27  2  0
 26 28  1  0
 28 29  1  0
 29 30  1  1
 29 31  1  0
 31 32  2  0
 31 33  1  0
 16 34  1  0
 34 35  1  0
 34 36  2  0
 36 37  1  0
  6 38  2  0
 38 39  1  0
 39 40  2  0
 23 18  1  0
 33 12  1  0
 37 14  2  0
 40  4  1  0
M  END
$$$$
