
     RDKit          3D

 40 43  0  0  0  0  0  0  0  0999 V2000
  -11.8096  -34.8993  -12.4991 C   0  0  0  0  0  0  0  0  0  0  0  0
  -12.1882  -35.4240  -11.1187 C   0  0  0  0  0  0  0  0  0  0  0  0
  -10.8938  -35.5356  -10.3359 C   0  0  0  0  0  0  0  0  0  0  0  0
  -12.8106  -36.7617  -11.2642 C   0  0  0  0  0  0  0  0  0  0  0  0
  -13.5441  -37.2705  -10.2312 C   0  0  0  0  0  0  0  0  0  0  0  0
  -14.1271  -38.5144  -10.3624 C   0  0  0  0  0  0  0  0  0  0  0  0
  -14.9235  -39.0384   -9.2296 C   0  0  0  0  0  0  0  0  0  0  0  0
  -14.3001  -40.2473   -8.7419 N   0  0  0  0  0  0  0  0  0  0  0  0
  -14.7030  -40.5324   -7.3511 C   0  0  0  0  0  0  0  0  0  0  0  0
  -16.1225  -40.0479   -7.2433 C   0  0  1  0  0  0  0  0  0  0  0  0
  -16.3158  -38.9868   -6.4060 O   0  0  0  0  0  0  0  0  0  0  0  0
  -16.8190  -39.8473   -8.5659 C   0  0  2  0  0  0  0  0  0  0  0  0
  -17.6866  -38.6482   -8.4674 C   0  0  0  0  0  0  0  0  0  0  0  0
  -19.1643  -38.7824   -8.4581 C   0  0  0  0  0  0  0  0  0  0  0  0
  -20.0245  -39.3247   -7.5226 C   0  0  0  0  0  0  0  0  0  0  0  0
  -21.3913  -39.3679   -7.6904 C   0  0  0  0  0  0  0  0  0  0  0  0
  -22.5311  -39.8768   -6.9206 C   0  0  0  0  0  0  0  0  0  0  0  0
  -22.3825  -40.6690   -5.7009 C   0  0  0  0  0  0  0  0  0  0  0  0
  -22.2087  -39.9957   -4.4968 C   0  0  0  0  0  0  0  0  0  0  0  0
  -22.0553  -40.5640   -3.2616 C   0  0  0  0  0  0  0  0  0  0  0  0
  -22.0691  -41.9341   -3.1589 C   0  0  0  0  0  0  0  0  0  0  0  0
  -22.2395  -42.6367   -4.3333 C   0  0  0  0  0  0  0  0  0  0  0  0
  -22.3952  -42.0589   -5.5905 C   0  0  0  0  0  0  0  0  0  0  0  0
  -22.5499  -42.9404   -6.6217 O   0  0  0  0  0  0  0  0  0  0  0  0
  -22.0316  -43.0817   -7.9224 C   0  0  0  0  0  0  0  0  0  0  0  0
  -20.8345  -43.9858   -7.9646 C   0  0  0  0  0  0  0  0  0  0  0  0
  -21.1626  -45.1892   -7.6368 O   0  0  0  0  0  0  0  0  0  0  0  0
  -19.5202  -43.7494   -8.2798 N   0  0  0  0  0  0  0  0  0  0  0  0
  -18.5490  -42.8199   -7.6560 C   0  0  1  0  0  0  0  0  0  0  0  0
  -17.6988  -43.5754   -6.6453 C   0  0  0  0  0  0  0  0  0  0  0  0
  -17.5916  -42.3259   -8.6900 C   0  0  0  0  0  0  0  0  0  0  0  0
  -16.9082  -43.3084   -9.1827 O   0  0  0  0  0  0  0  0  0  0  0  0
  -17.3874  -41.0178   -9.1340 N   0  0  0  0  0  0  0  0  0  0  0  0
  -21.9205  -38.8261   -8.8797 C   0  0  0  0  0  0  0  0  0  0  0  0
  -23.3657  -38.8621   -9.0726 O   0  0  0  0  0  0  0  0  0  0  0  0
  -21.1391  -38.2823   -9.8317 C   0  0  0  0  0  0  0  0  0  0  0  0
  -19.7936  -38.2650   -9.6184 C   0  0  0  0  0  0  0  0  0  0  0  0
  -13.9681  -39.2271  -11.5196 C   0  0  0  0  0  0  0  0  0  0  0  0
  -13.2244  -38.6820  -12.5340 C   0  0  0  0  0  0  0  0  0  0  0  0
  -12.6307  -37.4522  -12.4423 C   0  0  0  0  0  0  0  0  0  0  0  0
  1  2  1  0
  2  3  1  0
  2  4  1  0
  4  5  2  0
  5  6  1  0
  6  7  1  0
  7  8  1  0
  8  9  1  0
  9 10  1  0
 10 11  1  6
 10 12  1  0
 12 13  1  1
 13 14  1  0
 14 15  1  0
 15 16  2  0
 16 17  1  0
 17 18  1  0
 18 19  2  0
 19 20  1  0
 20 21  2  0
 21 22  1  0
 22 23  2  0
 23 24  1  0
 24 25  1  0
 25 26  1  0
 26 27  2  0
 26 28  1  0
 28 29  1  0
 29 30  1  1
 29 31  1  0
 31 32  2  0
 31 33  1  0
 16 34  1  0
 34 35  1  0
 34 36  2  0
 36 37  1  0
  6 38  2  0
 38 39  1  0
 39 40  2  0
 23 18  1  0
 33 12  1  0
 37 14  2  0
 40  4  1  0
M  END
$$$$
