
     RDKit          3D

 40 43  0  0  0  0  0  0  0  0999 V2000
  -11.7177  -35.3223  -11.1994 C   0  0  0  0  0  0  0  0  0  0  0  0
  -13.0449  -35.7284  -11.8300 C   0  0  0  0  0  0  0  0  0  0  0  0
  -14.1315  -35.1159  -10.9670 C   0  0  0  0  0  0  0  0  0  0  0  0
  -13.1558  -37.2066  -11.8129 C   0  0  0  0  0  0  0  0  0  0  0  0
  -12.8386  -37.8849  -10.6713 C   0  0  0  0  0  0  0  0  0  0  0  0
  -12.9420  -39.2608  -10.6497 C   0  0  0  0  0  0  0  0  0  0  0  0
  -12.5992  -39.9701   -9.3962 C   0  0  0  0  0  0  0  0  0  0  0  0
  -13.7260  -39.8937   -8.4948 N   0  0  0  0  0  0  0  0  0  0  0  0
  -14.8600  -40.6992   -8.9880 C   0  0  0  0  0  0  0  0  0  0  0  0
  -16.0887  -40.0355   -8.4304 C   0  0  1  0  0  0  0  0  0  0  0  0
  -15.8549  -39.0141   -7.5548 O   0  0  0  0  0  0  0  0  0  0  0  0
  -17.1211  -39.6579   -9.4631 C   0  0  2  0  0  0  0  0  0  0  0  0
  -17.8965  -38.4994   -8.9562 C   0  0  0  0  0  0  0  0  0  0  0  0
  -19.3159  -38.6571   -8.5536 C   0  0  0  0  0  0  0  0  0  0  0  0
  -19.8946  -39.3419   -7.5022 C   0  0  0  0  0  0  0  0  0  0  0  0
  -21.2545  -39.3822   -7.2857 C   0  0  0  0  0  0  0  0  0  0  0  0
  -22.1470  -40.0146   -6.3088 C   0  0  0  0  0  0  0  0  0  0  0  0
  -21.6842  -40.9715   -5.3050 C   0  0  0  0  0  0  0  0  0  0  0  0
  -21.1647  -40.4756   -4.1144 C   0  0  0  0  0  0  0  0  0  0  0  0
  -20.6874  -41.2130   -3.0653 C   0  0  0  0  0  0  0  0  0  0  0  0
  -20.7063  -42.5837   -3.1592 C   0  0  0  0  0  0  0  0  0  0  0  0
  -21.2150  -43.1128   -4.3267 C   0  0  0  0  0  0  0  0  0  0  0  0
  -21.7004  -42.3628   -5.3946 C   0  0  0  0  0  0  0  0  0  0  0  0
  -22.1585  -43.0892   -6.4561 O   0  0  0  0  0  0  0  0  0  0  0  0
  -22.0270  -43.0337   -7.8562 C   0  0  0  0  0  0  0  0  0  0  0  0
  -20.9122  -43.9032   -8.3596 C   0  0  0  0  0  0  0  0  0  0  0  0
  -21.1660  -45.1464   -8.1281 O   0  0  0  0  0  0  0  0  0  0  0  0
  -19.7324  -43.6031   -8.9925 N   0  0  0  0  0  0  0  0  0  0  0  0
  -18.6028  -42.7576   -8.5391 C   0  0  1  0  0  0  0  0  0  0  0  0
  -17.5238  -43.6370   -7.9246 C   0  0  0  0  0  0  0  0  0  0  0  0
  -17.9595  -42.1049   -9.7181 C   0  0  0  0  0  0  0  0  0  0  0  0
  -17.4654  -42.9954  -10.5168 O   0  0  0  0  0  0  0  0  0  0  0  0
  -17.8545  -40.7435  -10.0104 N   0  0  0  0  0  0  0  0  0  0  0  0
  -22.0806  -38.6835   -8.1900 C   0  0  0  0  0  0  0  0  0  0  0  0
  -23.5227  -38.7144   -7.9744 O   0  0  0  0  0  0  0  0  0  0  0  0
  -21.5821  -37.9961   -9.2348 C   0  0  0  0  0  0  0  0  0  0  0  0
  -20.2305  -37.9883   -9.4057 C   0  0  0  0  0  0  0  0  0  0  0  0
  -13.3592  -39.9343  -11.7655 C   0  0  0  0  0  0  0  0  0  0  0  0
  -13.6685  -39.2175  -12.8923 C   0  0  0  0  0  0  0  0  0  0  0  0
  -13.5789  -37.8531  -12.9533 C   0  0  0  0  0  0  0  0  0  0  0  0
  1  2  1  0
  2  3  1  0
  2  4  1  0
  4  5  2  0
  5  6  1  0
  6  7  1  0
  7  8  1  0
  8  9  1  0
  9 10  1  0
 10 11  1  6
 10 12  1  0
 12 13  1  1
 13 14  1  0
 14 15  1  0
 15 16  2  0
 16 17  1  0
 17 18  1  0
 18 19  2  0
 19 20  1  0
 20 21  2  0
 21 22  1  0
 22 23  2  0
 23 24  1  0
 24 25  1  0
 25 26  1  0
 26 27  2  0
 26 28  1  0
 28 29  1  0
 29 30  1  6
 29 31  1  0
 31 32  2  0
 31 33  1  0
 16 34  1  0
 34 35  1  0
 34 36  2  0
 36 37  1  0
  6 38  2  0
 38 39  1  0
 39 40  2  0
 23 18  1  0
 33 12  1  0
 37 14  2  0
 40  4  1  0
M  END
$$$$
