
     RDKit          3D

 40 43  0  0  0  0  0  0  0  0999 V2000
  -15.6204  -35.3180  -10.7657 C   0  0  0  0  0  0  0  0  0  0  0  0
  -15.2084  -36.0398  -12.0438 C   0  0  0  0  0  0  0  0  0  0  0  0
  -16.4114  -36.8544  -12.4795 C   0  0  0  0  0  0  0  0  0  0  0  0
  -14.0678  -36.9384  -11.7451 C   0  0  0  0  0  0  0  0  0  0  0  0
  -14.2727  -38.0353  -10.9584 C   0  0  0  0  0  0  0  0  0  0  0  0
  -13.2146  -38.8759  -10.6790 C   0  0  0  0  0  0  0  0  0  0  0  0
  -13.4669  -40.0623   -9.8298 C   0  0  0  0  0  0  0  0  0  0  0  0
  -14.8361  -40.0227   -9.3696 N   0  0  0  0  0  0  0  0  0  0  0  0
  -14.9219  -39.4971   -7.9932 C   0  0  0  0  0  0  0  0  0  0  0  0
  -16.3858  -39.5231   -7.6504 C   0  0  1  0  0  0  0  0  0  0  0  0
  -16.7483  -38.7611   -6.5769 O   0  0  0  0  0  0  0  0  0  0  0  0
  -17.3087  -39.3067   -8.8236 C   0  0  2  0  0  0  0  0  0  0  0  0
  -18.2295  -38.1891   -8.5021 C   0  0  0  0  0  0  0  0  0  0  0  0
  -19.6710  -38.4427   -8.2588 C   0  0  0  0  0  0  0  0  0  0  0  0
  -20.3199  -39.1038   -7.2335 C   0  0  0  0  0  0  0  0  0  0  0  0
  -21.6889  -39.2480   -7.1765 C   0  0  0  0  0  0  0  0  0  0  0  0
  -22.6431  -39.8893   -6.2660 C   0  0  0  0  0  0  0  0  0  0  0  0
  -22.2345  -40.7331   -5.1441 C   0  0  0  0  0  0  0  0  0  0  0  0
  -21.9071  -40.1156   -3.9421 C   0  0  0  0  0  0  0  0  0  0  0  0
  -21.5071  -40.7369   -2.7906 C   0  0  0  0  0  0  0  0  0  0  0  0
  -21.4066  -42.1073   -2.7806 C   0  0  0  0  0  0  0  0  0  0  0  0
  -21.7235  -42.7554   -3.9559 C   0  0  0  0  0  0  0  0  0  0  0  0
  -22.1303  -42.1234   -5.1280 C   0  0  0  0  0  0  0  0  0  0  0  0
  -22.3948  -42.9562   -6.1772 O   0  0  0  0  0  0  0  0  0  0  0  0
  -22.0957  -42.9829   -7.5521 C   0  0  0  0  0  0  0  0  0  0  0  0
  -20.8623  -43.7835   -7.8523 C   0  0  0  0  0  0  0  0  0  0  0  0
  -21.0445  -45.0258   -7.5576 O   0  0  0  0  0  0  0  0  0  0  0  0
  -19.6404  -43.4244   -8.3628 N   0  0  0  0  0  0  0  0  0  0  0  0
  -18.6456  -42.4554   -7.8456 C   0  0  1  0  0  0  0  0  0  0  0  0
  -17.5854  -43.1943   -7.0425 C   0  0  0  0  0  0  0  0  0  0  0  0
  -17.9144  -41.8290   -8.9871 C   0  0  0  0  0  0  0  0  0  0  0  0
  -17.2568  -42.7243   -9.6513 O   0  0  0  0  0  0  0  0  0  0  0  0
  -17.8812  -40.4862   -9.3686 N   0  0  0  0  0  0  0  0  0  0  0  0
  -22.4488  -38.6859   -8.2227 C   0  0  0  0  0  0  0  0  0  0  0  0
  -23.8996  -38.8281   -8.1770 O   0  0  0  0  0  0  0  0  0  0  0  0
  -21.8802  -38.0288   -9.2511 C   0  0  0  0  0  0  0  0  0  0  0  0
  -20.5227  -37.9146   -9.2616 C   0  0  0  0  0  0  0  0  0  0  0  0
  -11.9733  -38.6077  -11.1884 C   0  0  0  0  0  0  0  0  0  0  0  0
  -11.8079  -37.4966  -11.9741 C   0  0  0  0  0  0  0  0  0  0  0  0
  -12.8317  -36.6391  -12.2739 C   0  0  0  0  0  0  0  0  0  0  0  0
  1  2  1  0
  2  3  1  0
  2  4  1  0
  4  5  2  0
  5  6  1  0
  6  7  1  0
  7  8  1  0
  8  9  1  0
  9 10  1  0
 10 11  1  1
 10 12  1  0
 12 13  1  1
 13 14  1  0
 14 15  1  0
 15 16  2  0
 16 17  1  0
 17 18  1  0
 18 19  2  0
 19 20  1  0
 20 21  2  0
 21 22  1  0
 22 23  2  0
 23 24  1  0
 24 25  1  0
 25 26  1  0
 26 27  2  0
 26 28  1  0
 28 29  1  0
 29 30  1  1
 29 31  1  0
 31 32  2  0
 31 33  1  0
 16 34  1  0
 34 35  1  0
 34 36  2  0
 36 37  1  0
  6 38  2  0
 38 39  1  0
 39 40  2  0
 23 18  1  0
 33 12  1  0
 37 14  2  0
 40  4  1  0
M  END
$$$$
