
     RDKit          3D

 40 43  0  0  0  0  0  0  0  0999 V2000
  -20.4294  -44.2031   -2.9524 C   0  0  0  0  0  0  0  0  0  0  0  0
  -20.7635  -42.7961   -2.4701 C   0  0  0  0  0  0  0  0  0  0  0  0
  -22.2153  -42.8295   -2.0320 C   0  0  0  0  0  0  0  0  0  0  0  0
  -20.5946  -41.8464   -3.5959 C   0  0  0  0  0  0  0  0  0  0  0  0
  -19.4651  -41.0819   -3.6583 C   0  0  0  0  0  0  0  0  0  0  0  0
  -19.3024  -40.1979   -4.7053 C   0  0  0  0  0  0  0  0  0  0  0  0
  -18.0645  -39.3870   -4.7523 C   0  0  0  0  0  0  0  0  0  0  0  0
  -17.0647  -40.1068   -5.5075 N   0  0  0  0  0  0  0  0  0  0  0  0
  -16.3761  -39.2187   -6.4641 C   0  0  0  0  0  0  0  0  0  0  0  0
  -17.3650  -38.9894   -7.5734 C   0  0  1  0  0  0  0  0  0  0  0  0
  -17.8826  -37.7278   -7.6434 O   0  0  0  0  0  0  0  0  0  0  0  0
  -16.9159  -39.4827   -8.9261 C   0  0  2  0  0  0  0  0  0  0  0  0
  -17.5277  -38.6249   -9.9702 C   0  0  0  0  0  0  0  0  0  0  0  0
  -18.5888  -39.1572  -10.8604 C   0  0  0  0  0  0  0  0  0  0  0  0
  -19.8887  -39.5457  -10.5981 C   0  0  0  0  0  0  0  0  0  0  0  0
  -20.7412  -40.0293  -11.5663 C   0  0  0  0  0  0  0  0  0  0  0  0
  -22.1205  -40.5264  -11.6017 C   0  0  0  0  0  0  0  0  0  0  0  0
  -22.9208  -40.7509  -10.3990 C   0  0  0  0  0  0  0  0  0  0  0  0
  -23.6043  -39.6701   -9.8530 C   0  0  0  0  0  0  0  0  0  0  0  0
  -24.3986  -39.6884   -8.7391 C   0  0  0  0  0  0  0  0  0  0  0  0
  -24.5628  -40.8743   -8.0647 C   0  0  0  0  0  0  0  0  0  0  0  0
  -23.8996  -41.9695   -8.5771 C   0  0  0  0  0  0  0  0  0  0  0  0
  -23.0909  -41.9512   -9.7103 C   0  0  0  0  0  0  0  0  0  0  0  0
  -22.5279  -43.1497  -10.0436 O   0  0  0  0  0  0  0  0  0  0  0  0
  -21.2544  -43.5970  -10.4417 C   0  0  0  0  0  0  0  0  0  0  0  0
  -20.4311  -44.0793   -9.2833 C   0  0  0  0  0  0  0  0  0  0  0  0
  -20.9663  -45.1245   -8.7499 O   0  0  0  0  0  0  0  0  0  0  0  0
  -19.2644  -43.6121   -8.7327 N   0  0  0  0  0  0  0  0  0  0  0  0
  -18.9596  -42.2874   -8.1423 C   0  0  1  0  0  0  0  0  0  0  0  0
  -19.1138  -42.3567   -6.6302 C   0  0  0  0  0  0  0  0  0  0  0  0
  -17.5245  -41.9499   -8.3802 C   0  0  0  0  0  0  0  0  0  0  0  0
  -16.7529  -42.8086   -7.7951 O   0  0  0  0  0  0  0  0  0  0  0  0
  -16.9891  -40.8883   -9.1125 N   0  0  0  0  0  0  0  0  0  0  0  0
  -20.2469  -40.1240  -12.8834 C   0  0  0  0  0  0  0  0  0  0  0  0
  -21.1370  -40.6324  -13.9209 O   0  0  0  0  0  0  0  0  0  0  0  0
  -18.9912  -39.7622  -13.2074 C   0  0  0  0  0  0  0  0  0  0  0  0
  -18.1873  -39.2912  -12.2134 C   0  0  0  0  0  0  0  0  0  0  0  0
  -20.2675  -40.0925   -5.6696 C   0  0  0  0  0  0  0  0  0  0  0  0
  -21.3872  -40.8773   -5.5717 C   0  0  0  0  0  0  0  0  0  0  0  0
  -21.5853  -41.7654   -4.5494 C   0  0  0  0  0  0  0  0  0  0  0  0
  1  2  1  0
  2  3  1  0
  2  4  1  0
  4  5  2  0
  5  6  1  0
  6  7  1  0
  7  8  1  0
  8  9  1  0
  9 10  1  0
 10 11  1  6
 10 12  1  0
 12 13  1  6
 13 14  1  0
 14 15  1  0
 15 16  2  0
 16 17  1  0
 17 18  1  0
 18 19  2  0
 19 20  1  0
 20 21  2  0
 21 22  1  0
 22 23  2  0
 23 24  1  0
 24 25  1  0
 25 26  1  0
 26 27  2  0
 26 28  1  0
 28 29  1  0
 29 30  1  1
 29 31  1  0
 31 32  2  0
 31 33  1  0
 16 34  1  0
 34 35  1  0
 34 36  2  0
 36 37  1  0
  6 38  2  0
 38 39  1  0
 39 40  2  0
 23 18  1  0
 33 12  1  0
 37 14  2  0
 40  4  1  0
M  END
$$$$
