
     RDKit          3D

 40 43  0  0  0  0  0  0  0  0999 V2000
  -13.8067  -42.1158  -13.1151 C   0  0  0  0  0  0  0  0  0  0  0  0
  -13.4049  -40.6854  -13.4566 C   0  0  0  0  0  0  0  0  0  0  0  0
  -12.2712  -40.7892  -14.4588 C   0  0  0  0  0  0  0  0  0  0  0  0
  -12.9333  -40.0088  -12.2247 C   0  0  0  0  0  0  0  0  0  0  0  0
  -13.0926  -40.6318  -11.0203 C   0  0  0  0  0  0  0  0  0  0  0  0
  -12.6535  -40.0070   -9.8709 C   0  0  0  0  0  0  0  0  0  0  0  0
  -12.8318  -40.7088   -8.5795 C   0  0  0  0  0  0  0  0  0  0  0  0
  -14.2458  -40.8512   -8.3182 N   0  0  0  0  0  0  0  0  0  0  0  0
  -14.8405  -39.5716   -7.8856 C   0  0  0  0  0  0  0  0  0  0  0  0
  -16.3155  -39.8399   -7.7704 C   0  0  1  0  0  0  0  0  0  0  0  0
  -16.9231  -39.3033   -6.6716 O   0  0  0  0  0  0  0  0  0  0  0  0
  -17.1023  -39.5705   -9.0286 C   0  0  2  0  0  0  0  0  0  0  0  0
  -17.9937  -38.4090   -8.7904 C   0  0  0  0  0  0  0  0  0  0  0  0
  -19.4634  -38.5900   -8.6970 C   0  0  0  0  0  0  0  0  0  0  0  0
  -20.2456  -39.2225   -7.7497 C   0  0  0  0  0  0  0  0  0  0  0  0
  -21.6187  -39.2969   -7.8331 C   0  0  0  0  0  0  0  0  0  0  0  0
  -22.6916  -39.8935   -7.0307 C   0  0  0  0  0  0  0  0  0  0  0  0
  -22.4422  -40.7630   -5.8821 C   0  0  0  0  0  0  0  0  0  0  0  0
  -22.2081  -40.1693   -4.6468 C   0  0  0  0  0  0  0  0  0  0  0  0
  -21.9590  -40.8164   -3.4672 C   0  0  0  0  0  0  0  0  0  0  0  0
  -21.9290  -42.1902   -3.4614 C   0  0  0  0  0  0  0  0  0  0  0  0
  -22.1569  -42.8150   -4.6695 C   0  0  0  0  0  0  0  0  0  0  0  0
  -22.4102  -42.1569   -5.8701 C   0  0  0  0  0  0  0  0  0  0  0  0
  -22.6081  -42.9695   -6.9493 O   0  0  0  0  0  0  0  0  0  0  0  0
  -22.1725  -43.0041   -8.2870 C   0  0  0  0  0  0  0  0  0  0  0  0
  -20.9568  -43.8651   -8.4691 C   0  0  0  0  0  0  0  0  0  0  0  0
  -21.2301  -45.0980   -8.2074 O   0  0  0  0  0  0  0  0  0  0  0  0
  -19.6728  -43.5662   -8.8494 N   0  0  0  0  0  0  0  0  0  0  0  0
  -18.6882  -42.6519   -8.2241 C   0  0  1  0  0  0  0  0  0  0  0  0
  -17.7537  -43.4483   -7.3255 C   0  0  0  0  0  0  0  0  0  0  0  0
  -17.8142  -42.0577   -9.2790 C   0  0  0  0  0  0  0  0  0  0  0  0
  -17.1383  -42.9818   -9.8825 O   0  0  0  0  0  0  0  0  0  0  0  0
  -17.6749  -40.7163   -9.6411 N   0  0  0  0  0  0  0  0  0  0  0  0
  -22.2391  -38.6912   -8.9450 C   0  0  0  0  0  0  0  0  0  0  0  0
  -23.6924  -38.7593   -9.0479 O   0  0  0  0  0  0  0  0  0  0  0  0
  -21.5366  -38.0586   -9.9036 C   0  0  0  0  0  0  0  0  0  0  0  0
  -20.1810  -38.0138   -9.7754 C   0  0  0  0  0  0  0  0  0  0  0  0
  -12.0645  -38.7740   -9.9434 C   0  0  0  0  0  0  0  0  0  0  0  0
  -11.9226  -38.1811  -11.1713 C   0  0  0  0  0  0  0  0  0  0  0  0
  -12.3449  -38.7681  -12.3333 C   0  0  0  0  0  0  0  0  0  0  0  0
  1  2  1  0
  2  3  1  0
  2  4  1  0
  4  5  2  0
  5  6  1  0
  6  7  1  0
  7  8  1  0
  8  9  1  0
  9 10  1  0
 10 11  1  1
 10 12  1  0
 12 13  1  1
 13 14  1  0
 14 15  1  0
 15 16  2  0
 16 17  1  0
 17 18  1  0
 18 19  2  0
 19 20  1  0
 20 21  2  0
 21 22  1  0
 22 23  2  0
 23 24  1  0
 24 25  1  0
 25 26  1  0
 26 27  2  0
 26 28  1  0
 28 29  1  0
 29 30  1  1
 29 31  1  0
 31 32  2  0
 31 33  1  0
 16 34  1  0
 34 35  1  0
 34 36  2  0
 36 37  1  0
  6 38  2  0
 38 39  1  0
 39 40  2  0
 23 18  1  0
 33 12  1  0
 37 14  2  0
 40  4  1  0
M  END
$$$$
