
     RDKit          3D

 40 43  0  0  0  0  0  0  0  0999 V2000
  -10.4923  -41.5104  -10.7271 C   0  0  0  0  0  0  0  0  0  0  0  0
   -9.9720  -40.1957  -11.2972 C   0  0  0  0  0  0  0  0  0  0  0  0
   -9.0428  -39.6148  -10.2485 C   0  0  0  0  0  0  0  0  0  0  0  0
  -11.1163  -39.2810  -11.5245 C   0  0  0  0  0  0  0  0  0  0  0  0
  -12.3091  -39.5425  -10.9137 C   0  0  0  0  0  0  0  0  0  0  0  0
  -13.3768  -38.6930  -11.1205 C   0  0  0  0  0  0  0  0  0  0  0  0
  -14.6560  -38.9961  -10.4396 C   0  0  0  0  0  0  0  0  0  0  0  0
  -14.5683  -38.5556   -9.0663 N   0  0  0  0  0  0  0  0  0  0  0  0
  -14.9523  -39.6334   -8.1340 C   0  0  0  0  0  0  0  0  0  0  0  0
  -16.3894  -39.3612   -7.7851 C   0  0  1  0  0  0  0  0  0  0  0  0
  -16.5867  -38.4343   -6.8021 O   0  0  0  0  0  0  0  0  0  0  0  0
  -17.2870  -39.1139   -8.9716 C   0  0  2  0  0  0  0  0  0  0  0  0
  -18.1842  -37.9751   -8.6577 C   0  0  0  0  0  0  0  0  0  0  0  0
  -19.6355  -38.1933   -8.4396 C   0  0  0  0  0  0  0  0  0  0  0  0
  -20.3179  -38.8439   -7.4295 C   0  0  0  0  0  0  0  0  0  0  0  0
  -21.6908  -38.9534   -7.3957 C   0  0  0  0  0  0  0  0  0  0  0  0
  -22.6759  -39.5758   -6.5053 C   0  0  0  0  0  0  0  0  0  0  0  0
  -22.3075  -40.4369   -5.3826 C   0  0  0  0  0  0  0  0  0  0  0  0
  -21.9843  -39.8356   -4.1713 C   0  0  0  0  0  0  0  0  0  0  0  0
  -21.6193  -40.4743   -3.0177 C   0  0  0  0  0  0  0  0  0  0  0  0
  -21.5539  -41.8468   -3.0153 C   0  0  0  0  0  0  0  0  0  0  0  0
  -21.8679  -42.4791   -4.2000 C   0  0  0  0  0  0  0  0  0  0  0  0
  -22.2391  -41.8295   -5.3742 C   0  0  0  0  0  0  0  0  0  0  0  0
  -22.5074  -42.6486   -6.4332 O   0  0  0  0  0  0  0  0  0  0  0  0
  -22.1865  -42.6742   -7.8032 C   0  0  0  0  0  0  0  0  0  0  0  0
  -20.9691  -43.5042   -8.0886 C   0  0  0  0  0  0  0  0  0  0  0  0
  -21.1877  -44.7433   -7.8054 O   0  0  0  0  0  0  0  0  0  0  0  0
  -19.7302  -43.1734   -8.5767 N   0  0  0  0  0  0  0  0  0  0  0  0
  -18.7196  -42.2334   -8.0369 C   0  0  1  0  0  0  0  0  0  0  0  0
  -17.6920  -43.0043   -7.2216 C   0  0  0  0  0  0  0  0  0  0  0  0
  -17.9540  -41.6187   -9.1620 C   0  0  0  0  0  0  0  0  0  0  0  0
  -17.3086  -42.5263   -9.8215 O   0  0  0  0  0  0  0  0  0  0  0  0
  -17.8803  -40.2748   -9.5339 N   0  0  0  0  0  0  0  0  0  0  0  0
  -22.4188  -38.3654   -8.4504 C   0  0  0  0  0  0  0  0  0  0  0  0
  -23.8733  -38.4707   -8.4293 O   0  0  0  0  0  0  0  0  0  0  0  0
  -21.8168  -37.7166   -9.4650 C   0  0  0  0  0  0  0  0  0  0  0  0
  -20.4567  -37.6371   -9.4526 C   0  0  0  0  0  0  0  0  0  0  0  0
  -13.2357  -37.6000  -11.9315 C   0  0  0  0  0  0  0  0  0  0  0  0
  -12.0222  -37.3715  -12.5268 C   0  0  0  0  0  0  0  0  0  0  0  0
  -10.9401  -38.1901  -12.3466 C   0  0  0  0  0  0  0  0  0  0  0  0
  1  2  1  0
  2  3  1  0
  2  4  1  0
  4  5  2  0
  5  6  1  0
  6  7  1  0
  7  8  1  0
  8  9  1  0
  9 10  1  0
 10 11  1  1
 10 12  1  0
 12 13  1  1
 13 14  1  0
 14 15  1  0
 15 16  2  0
 16 17  1  0
 17 18  1  0
 18 19  2  0
 19 20  1  0
 20 21  2  0
 21 22  1  0
 22 23  2  0
 23 24  1  0
 24 25  1  0
 25 26  1  0
 26 27  2  0
 26 28  1  0
 28 29  1  0
 29 30  1  1
 29 31  1  0
 31 32  2  0
 31 33  1  0
 16 34  1  0
 34 35  1  0
 34 36  2  0
 36 37  1  0
  6 38  2  0
 38 39  1  0
 39 40  2  0
 23 18  1  0
 33 12  1  0
 37 14  2  0
 40  4  1  0
M  END
$$$$
