
     RDKit          3D

 40 43  0  0  0  0  0  0  0  0999 V2000
  -10.0749  -36.0730  -12.0719 C   0  0  0  0  0  0  0  0  0  0  0  0
  -10.7417  -36.5643  -10.7920 C   0  0  0  0  0  0  0  0  0  0  0  0
   -9.6197  -36.8787   -9.8209 C   0  0  0  0  0  0  0  0  0  0  0  0
  -11.5141  -37.7939  -11.0908 C   0  0  0  0  0  0  0  0  0  0  0  0
  -12.0535  -38.5082  -10.0599 C   0  0  0  0  0  0  0  0  0  0  0  0
  -12.7750  -39.6524  -10.3329 C   0  0  0  0  0  0  0  0  0  0  0  0
  -13.3554  -40.4032   -9.1964 C   0  0  0  0  0  0  0  0  0  0  0  0
  -14.7927  -40.2582   -9.2280 N   0  0  0  0  0  0  0  0  0  0  0  0
  -15.2291  -39.0901   -8.4385 C   0  0  0  0  0  0  0  0  0  0  0  0
  -16.6627  -39.3682   -8.0802 C   0  0  1  0  0  0  0  0  0  0  0  0
  -17.0929  -38.8058   -6.9127 O   0  0  0  0  0  0  0  0  0  0  0  0
  -17.6450  -39.1418   -9.2021 C   0  0  2  0  0  0  0  0  0  0  0  0
  -18.6119  -38.0983   -8.7818 C   0  0  0  0  0  0  0  0  0  0  0  0
  -20.0255  -38.4476   -8.4971 C   0  0  0  0  0  0  0  0  0  0  0  0
  -20.5929  -39.1998   -7.4863 C   0  0  0  0  0  0  0  0  0  0  0  0
  -21.9480  -39.4257   -7.3840 C   0  0  0  0  0  0  0  0  0  0  0  0
  -22.8258  -40.1696   -6.4747 C   0  0  0  0  0  0  0  0  0  0  0  0
  -22.3240  -41.0483   -5.4195 C   0  0  0  0  0  0  0  0  0  0  0  0
  -21.9808  -40.4793   -4.1981 C   0  0  0  0  0  0  0  0  0  0  0  0
  -21.4986  -41.1384   -3.1003 C   0  0  0  0  0  0  0  0  0  0  0  0
  -21.3219  -42.4992   -3.1720 C   0  0  0  0  0  0  0  0  0  0  0  0
  -21.6519  -43.0995   -4.3689 C   0  0  0  0  0  0  0  0  0  0  0  0
  -22.1424  -42.4291   -5.4864 C   0  0  0  0  0  0  0  0  0  0  0  0
  -22.4045  -43.2173   -6.5700 O   0  0  0  0  0  0  0  0  0  0  0  0
  -22.1628  -43.1518   -7.9549 C   0  0  0  0  0  0  0  0  0  0  0  0
  -20.9008  -43.8624   -8.3482 C   0  0  0  0  0  0  0  0  0  0  0  0
  -21.0012  -45.1273   -8.1176 O   0  0  0  0  0  0  0  0  0  0  0  0
  -19.7233  -43.4062   -8.8849 N   0  0  0  0  0  0  0  0  0  0  0  0
  -18.7627  -42.4109   -8.3529 C   0  0  1  0  0  0  0  0  0  0  0  0
  -17.6302  -43.1301   -7.6352 C   0  0  0  0  0  0  0  0  0  0  0  0
  -18.1163  -41.6822   -9.4847 C   0  0  0  0  0  0  0  0  0  0  0  0
  -17.4388  -42.5005  -10.2240 O   0  0  0  0  0  0  0  0  0  0  0  0
  -18.1738  -40.3208   -9.7904 N   0  0  0  0  0  0  0  0  0  0  0  0
  -22.7815  -38.8522   -8.3661 C   0  0  0  0  0  0  0  0  0  0  0  0
  -24.2190  -39.0801   -8.2717 O   0  0  0  0  0  0  0  0  0  0  0  0
  -22.2943  -38.1084   -9.3770 C   0  0  0  0  0  0  0  0  0  0  0  0
  -20.9468  -37.9156   -9.4341 C   0  0  0  0  0  0  0  0  0  0  0  0
  -12.9450  -40.0629  -11.6271 C   0  0  0  0  0  0  0  0  0  0  0  0
  -12.3880  -39.3185  -12.6345 C   0  0  0  0  0  0  0  0  0  0  0  0
  -11.6661  -38.1786  -12.4046 C   0  0  0  0  0  0  0  0  0  0  0  0
  1  2  1  0
  2  3  1  0
  2  4  1  0
  4  5  2  0
  5  6  1  0
  6  7  1  0
  7  8  1  0
  8  9  1  0
  9 10  1  0
 10 11  1  1
 10 12  1  0
 12 13  1  1
 13 14  1  0
 14 15  1  0
 15 16  2  0
 16 17  1  0
 17 18  1  0
 18 19  2  0
 19 20  1  0
 20 21  2  0
 21 22  1  0
 22 23  2  0
 23 24  1  0
 24 25  1  0
 25 26  1  0
 26 27  2  0
 26 28  1  0
 28 29  1  0
 29 30  1  6
 29 31  1  0
 31 32  2  0
 31 33  1  0
 16 34  1  0
 34 35  1  0
 34 36  2  0
 36 37  1  0
  6 38  2  0
 38 39  1  0
 39 40  2  0
 23 18  1  0
 33 12  1  0
 37 14  2  0
 40  4  1  0
M  END
$$$$
