
     RDKit          3D

 40 43  0  0  0  0  0  0  0  0999 V2000
  -14.1054  -41.6772  -12.3686 C   0  0  0  0  0  0  0  0  0  0  0  0
  -12.8633  -40.9893  -12.9238 C   0  0  0  0  0  0  0  0  0  0  0  0
  -11.7202  -41.9716  -12.7528 C   0  0  0  0  0  0  0  0  0  0  0  0
  -12.5990  -39.7607  -12.1372 C   0  0  0  0  0  0  0  0  0  0  0  0
  -12.7620  -39.7899  -10.7820 C   0  0  0  0  0  0  0  0  0  0  0  0
  -12.5155  -38.6495  -10.0452 C   0  0  0  0  0  0  0  0  0  0  0  0
  -12.6926  -38.7117   -8.5766 C   0  0  0  0  0  0  0  0  0  0  0  0
  -14.0919  -38.5255   -8.2681 N   0  0  0  0  0  0  0  0  0  0  0  0
  -14.7394  -39.8078   -7.9293 C   0  0  0  0  0  0  0  0  0  0  0  0
  -16.1473  -39.4497   -7.5414 C   0  0  1  0  0  0  0  0  0  0  0  0
  -16.2638  -38.6293   -6.4562 O   0  0  0  0  0  0  0  0  0  0  0  0
  -17.0145  -38.9863   -8.6851 C   0  0  2  0  0  0  0  0  0  0  0  0
  -17.9526  -37.9541   -8.1803 C   0  0  0  0  0  0  0  0  0  0  0  0
  -19.4033  -38.2428   -8.0631 C   0  0  0  0  0  0  0  0  0  0  0  0
  -20.0979  -39.0990   -7.2302 C   0  0  0  0  0  0  0  0  0  0  0  0
  -21.4676  -39.2423   -7.2686 C   0  0  0  0  0  0  0  0  0  0  0  0
  -22.4618  -40.0531   -6.5579 C   0  0  0  0  0  0  0  0  0  0  0  0
  -22.1042  -41.1157   -5.6196 C   0  0  0  0  0  0  0  0  0  0  0  0
  -21.8356  -40.7654   -4.3011 C   0  0  0  0  0  0  0  0  0  0  0  0
  -21.4885  -41.6167   -3.2876 C   0  0  0  0  0  0  0  0  0  0  0  0
  -21.3847  -42.9595   -3.5598 C   0  0  0  0  0  0  0  0  0  0  0  0
  -21.6440  -43.3453   -4.8582 C   0  0  0  0  0  0  0  0  0  0  0  0
  -21.9969  -42.4794   -5.8898 C   0  0  0  0  0  0  0  0  0  0  0  0
  -22.2093  -43.0724   -7.1012 O   0  0  0  0  0  0  0  0  0  0  0  0
  -21.8456  -42.8132   -8.4358 C   0  0  0  0  0  0  0  0  0  0  0  0
  -20.5971  -43.5420   -8.8389 C   0  0  0  0  0  0  0  0  0  0  0  0
  -20.7894  -44.8171   -8.8195 O   0  0  0  0  0  0  0  0  0  0  0  0
  -19.3535  -43.0928   -9.2053 N   0  0  0  0  0  0  0  0  0  0  0  0
  -18.3870  -42.2603   -8.4510 C   0  0  1  0  0  0  0  0  0  0  0  0
  -17.3637  -43.1583   -7.7717 C   0  0  0  0  0  0  0  0  0  0  0  0
  -17.6046  -41.4143   -9.4008 C   0  0  0  0  0  0  0  0  0  0  0  0
  -16.9139  -42.1555  -10.2062 O   0  0  0  0  0  0  0  0  0  0  0  0
  -17.5573  -40.0216   -9.4910 N   0  0  0  0  0  0  0  0  0  0  0  0
  -22.1790  -38.4685   -8.2084 C   0  0  0  0  0  0  0  0  0  0  0  0
  -23.6299  -38.6069   -8.2612 O   0  0  0  0  0  0  0  0  0  0  0  0
  -21.5644  -37.6150   -9.0489 C   0  0  0  0  0  0  0  0  0  0  0  0
  -20.2082  -37.5107   -8.9718 C   0  0  0  0  0  0  0  0  0  0  0  0
  -12.1115  -37.5024  -10.6724 C   0  0  0  0  0  0  0  0  0  0  0  0
  -11.9593  -37.5132  -12.0347 C   0  0  0  0  0  0  0  0  0  0  0  0
  -12.1938  -38.6234  -12.8001 C   0  0  0  0  0  0  0  0  0  0  0  0
  1  2  1  0
  2  3  1  0
  2  4  1  0
  4  5  2  0
  5  6  1  0
  6  7  1  0
  7  8  1  0
  8  9  1  0
  9 10  1  0
 10 11  1  1
 10 12  1  0
 12 13  1  1
 13 14  1  0
 14 15  1  0
 15 16  2  0
 16 17  1  0
 17 18  1  0
 18 19  2  0
 19 20  1  0
 20 21  2  0
 21 22  1  0
 22 23  2  0
 23 24  1  0
 24 25  1  0
 25 26  1  0
 26 27  2  0
 26 28  1  0
 28 29  1  0
 29 30  1  6
 29 31  1  0
 31 32  2  0
 31 33  1  0
 16 34  1  0
 34 35  1  0
 34 36  2  0
 36 37  1  0
  6 38  2  0
 38 39  1  0
 39 40  2  0
 23 18  1  0
 33 12  1  0
 37 14  2  0
 40  4  1  0
M  END
$$$$
