
     RDKit          3D

 35 37  0  0  0  0  0  0  0  0999 V2000
  -12.2570  -35.1605  -12.4668 C   0  0  0  0  0  0  0  0  0  0  0  0
  -13.6463  -34.7045  -12.8391 C   0  0  0  0  0  0  0  0  0  0  0  0
  -13.8706  -33.2515  -12.4657 C   0  0  0  0  0  0  0  0  0  0  0  0
  -14.6372  -35.5977  -12.2329 C   0  0  0  0  0  0  0  0  0  0  0  0
  -15.3875  -36.4243  -13.0414 C   0  0  0  0  0  0  0  0  0  0  0  0
  -16.3418  -37.2953  -12.5479 C   0  0  0  0  0  0  0  0  0  0  0  0
  -16.5264  -37.3143  -11.1905 C   0  0  0  0  0  0  0  0  0  0  0  0
  -15.8182  -36.5216  -10.3176 C   0  0  0  0  0  0  0  0  0  0  0  0
  -16.0433  -36.5659   -8.8402 C   0  0  0  0  0  0  0  0  0  0  0  0
  -15.7096  -37.8803   -8.3914 N   0  0  0  0  0  0  0  0  0  0  0  0
  -16.7335  -38.8764   -8.6123 C   0  0  0  0  0  0  0  0  0  0  0  0
  -16.2631  -40.1729   -8.0913 C   0  0  1  0  0  0  0  0  0  0  0  0
  -15.2909  -40.0927   -7.1294 O   0  0  0  0  0  0  0  0  0  0  0  0
  -17.3776  -41.0766   -7.5300 C   0  0  2  0  0  0  0  0  0  0  0  0
  -18.2266  -41.6630   -8.5937 C   0  0  0  0  0  0  0  0  0  0  0  0
  -18.2410  -43.2050   -8.5423 C   0  0  2  0  0  0  0  0  0  0  0  0
  -17.9159  -43.8152   -9.8644 C   0  0  0  0  0  0  0  0  0  0  0  0
  -19.5157  -43.7007   -7.9426 C   0  0  0  0  0  0  0  0  0  0  0  0
  -19.8151  -45.1467   -8.1946 C   0  0  0  0  0  0  0  0  0  0  0  0
  -20.9695  -45.6386   -7.3344 C   0  0  0  0  0  0  0  0  0  0  0  0
  -22.2214  -44.8477   -7.5283 C   0  0  0  0  0  0  0  0  0  0  0  0
  -22.8765  -44.4504   -6.2190 C   0  0  0  0  0  0  0  0  0  0  0  0
  -24.2156  -43.8332   -6.5358 C   0  0  0  0  0  0  0  0  0  0  0  0
  -24.2087  -42.3236   -6.3699 C   0  0  0  0  0  0  0  0  0  0  0  0
  -23.8051  -41.6249   -7.6267 C   0  0  0  0  0  0  0  0  0  0  0  0
  -22.6586  -40.6881   -7.3906 C   0  0  0  0  0  0  0  0  0  0  0  0
  -21.4186  -40.8782   -6.8414 C   0  0  0  0  0  0  0  0  0  0  0  0
  -20.5711  -39.7774   -6.8490 C   0  0  0  0  0  0  0  0  0  0  0  0
  -21.0184  -38.5524   -7.4043 C   0  0  0  0  0  0  0  0  0  0  0  0
  -22.2701  -38.3838   -7.9498 C   0  0  0  0  0  0  0  0  0  0  0  0
  -23.0363  -39.4575   -7.9198 N   0  0  0  0  0  0  0  0  0  0  0  0
  -19.1889  -39.6248   -6.3723 C   0  0  0  0  0  0  0  0  0  0  0  0
  -18.9929  -38.4702   -5.7474 O   0  0  0  0  0  0  0  0  0  0  0  0
  -18.0465  -40.4285   -6.4361 N   0  0  0  0  0  0  0  0  0  0  0  0
  -14.8776  -35.6718  -10.8778 C   0  0  0  0  0  0  0  0  0  0  0  0
  1  2  1  0
  2  3  1  0
  2  4  1  0
  4  5  2  0
  5  6  1  0
  6  7  2  0
  7  8  1  0
  8  9  1  0
  9 10  1  0
 10 11  1  0
 11 12  1  0
 12 13  1  1
 12 14  1  0
 14 15  1  6
 15 16  1  0
 16 17  1  6
 16 18  1  0
 18 19  1  0
 19 20  1  0
 20 21  1  0
 21 22  1  0
 22 23  1  0
 23 24  1  0
 24 25  1  0
 25 26  1  0
 26 27  2  0
 27 28  1  0
 28 29  2  0
 29 30  1  0
 30 31  2  0
 28 32  1  0
 32 33  2  0
 32 34  1  0
  8 35  2  0
 31 26  1  0
 34 14  1  0
 35  4  1  0
M  END
$$$$
