
     RDKit          3D

 35 37  0  0  0  0  0  0  0  0999 V2000
  -16.2431  -36.0691  -13.8625 C   0  0  0  0  0  0  0  0  0  0  0  0
  -14.9065  -35.3699  -13.8966 C   0  0  0  0  0  0  0  0  0  0  0  0
  -14.2835  -35.4337  -15.2782 C   0  0  0  0  0  0  0  0  0  0  0  0
  -14.0319  -35.9281  -12.8619 C   0  0  0  0  0  0  0  0  0  0  0  0
  -13.0744  -35.1254  -12.2798 C   0  0  0  0  0  0  0  0  0  0  0  0
  -12.2109  -35.5756  -11.2976 C   0  0  0  0  0  0  0  0  0  0  0  0
  -12.3379  -36.8825  -10.9068 C   0  0  0  0  0  0  0  0  0  0  0  0
  -13.2673  -37.7462  -11.4382 C   0  0  0  0  0  0  0  0  0  0  0  0
  -13.3806  -39.1680  -10.9900 C   0  0  0  0  0  0  0  0  0  0  0  0
  -13.7157  -39.1580   -9.6014 N   0  0  0  0  0  0  0  0  0  0  0  0
  -15.0728  -38.7574   -9.3064 C   0  0  0  0  0  0  0  0  0  0  0  0
  -15.5679  -39.5436   -8.1616 C   0  0  1  0  0  0  0  0  0  0  0  0
  -15.2732  -39.0220   -6.9295 O   0  0  0  0  0  0  0  0  0  0  0  0
  -17.0843  -39.8160   -8.1835 C   0  0  2  0  0  0  0  0  0  0  0  0
  -17.6352  -40.0846   -6.8343 C   0  0  0  0  0  0  0  0  0  0  0  0
  -18.7656  -39.1028   -6.4616 C   0  0  2  0  0  0  0  0  0  0  0  0
  -18.5359  -38.4571   -5.1363 C   0  0  0  0  0  0  0  0  0  0  0  0
  -20.0999  -39.7606   -6.5927 C   0  0  0  0  0  0  0  0  0  0  0  0
  -21.2248  -39.0576   -5.8966 C   0  0  0  0  0  0  0  0  0  0  0  0
  -22.5767  -39.6267   -6.2999 C   0  0  0  0  0  0  0  0  0  0  0  0
  -22.6941  -41.0931   -6.0429 C   0  0  0  0  0  0  0  0  0  0  0  0
  -23.2698  -41.8541   -7.2222 C   0  0  0  0  0  0  0  0  0  0  0  0
  -23.5200  -43.2750   -6.7832 C   0  0  0  0  0  0  0  0  0  0  0  0
  -22.4948  -44.2425   -7.3484 C   0  0  0  0  0  0  0  0  0  0  0  0
  -21.3046  -44.3798   -6.4566 C   0  0  0  0  0  0  0  0  0  0  0  0
  -20.0294  -44.1067   -7.1962 C   0  0  0  0  0  0  0  0  0  0  0  0
  -19.6159  -43.0373   -7.9450 C   0  0  0  0  0  0  0  0  0  0  0  0
  -18.3162  -43.0979   -8.4321 C   0  0  0  0  0  0  0  0  0  0  0  0
  -17.5106  -44.2273   -8.1411 C   0  0  0  0  0  0  0  0  0  0  0  0
  -17.9479  -45.2918   -7.3873 C   0  0  0  0  0  0  0  0  0  0  0  0
  -19.1874  -45.1865   -6.9473 N   0  0  0  0  0  0  0  0  0  0  0  0
  -17.5462  -42.1402   -9.2388 C   0  0  0  0  0  0  0  0  0  0  0  0
  -16.8248  -42.7356  -10.1806 O   0  0  0  0  0  0  0  0  0  0  0  0
  -17.4120  -40.7484   -9.2262 N   0  0  0  0  0  0  0  0  0  0  0  0
  -14.1011  -37.2312  -12.4182 C   0  0  0  0  0  0  0  0  0  0  0  0
  1  2  1  0
  2  3  1  0
  2  4  1  0
  4  5  2  0
  5  6  1  0
  6  7  2  0
  7  8  1  0
  8  9  1  0
  9 10  1  0
 10 11  1  0
 11 12  1  0
 12 13  1  1
 12 14  1  0
 14 15  1  1
 15 16  1  0
 16 17  1  1
 16 18  1  0
 18 19  1  0
 19 20  1  0
 20 21  1  0
 21 22  1  0
 22 23  1  0
 23 24  1  0
 24 25  1  0
 25 26  1  0
 26 27  2  0
 27 28  1  0
 28 29  2  0
 29 30  1  0
 30 31  2  0
 28 32  1  0
 32 33  2  0
 32 34  1  0
  8 35  2  0
 31 26  1  0
 34 14  1  0
 35  4  1  0
M  END
$$$$
