
     RDKit          3D

 35 37  0  0  0  0  0  0  0  0999 V2000
  -15.5324  -34.1037  -13.3721 C   0  0  0  0  0  0  0  0  0  0  0  0
  -15.9119  -35.2403  -12.4551 C   0  0  0  0  0  0  0  0  0  0  0  0
  -16.6598  -34.7400  -11.2339 C   0  0  0  0  0  0  0  0  0  0  0  0
  -14.7156  -36.0095  -12.1026 C   0  0  0  0  0  0  0  0  0  0  0  0
  -13.5060  -35.3606  -11.9782 C   0  0  0  0  0  0  0  0  0  0  0  0
  -12.3321  -36.0137  -11.6489 C   0  0  0  0  0  0  0  0  0  0  0  0
  -12.4075  -37.3661  -11.4432 C   0  0  0  0  0  0  0  0  0  0  0  0
  -13.5753  -38.0852  -11.5478 C   0  0  0  0  0  0  0  0  0  0  0  0
  -13.6245  -39.5616  -11.3168 C   0  0  0  0  0  0  0  0  0  0  0  0
  -13.8907  -39.7734   -9.9295 N   0  0  0  0  0  0  0  0  0  0  0  0
  -14.8369  -38.8507   -9.3442 C   0  0  0  0  0  0  0  0  0  0  0  0
  -15.3689  -39.4333   -8.0987 C   0  0  1  0  0  0  0  0  0  0  0  0
  -15.1164  -38.7069   -6.9650 O   0  0  0  0  0  0  0  0  0  0  0  0
  -16.8833  -39.7165   -8.1234 C   0  0  2  0  0  0  0  0  0  0  0  0
  -17.4632  -39.8372   -6.7651 C   0  0  0  0  0  0  0  0  0  0  0  0
  -18.6058  -38.8275   -6.5287 C   0  0  2  0  0  0  0  0  0  0  0  0
  -18.4086  -38.0371   -5.2787 C   0  0  0  0  0  0  0  0  0  0  0  0
  -19.9341  -39.5046   -6.6150 C   0  0  0  0  0  0  0  0  0  0  0  0
  -21.0772  -38.7361   -6.0261 C   0  0  0  0  0  0  0  0  0  0  0  0
  -22.4174  -39.3552   -6.3932 C   0  0  0  0  0  0  0  0  0  0  0  0
  -22.5345  -40.7849   -5.9773 C   0  0  0  0  0  0  0  0  0  0  0  0
  -23.0804  -41.6759   -7.0770 C   0  0  0  0  0  0  0  0  0  0  0  0
  -23.3346  -43.0409   -6.4884 C   0  0  0  0  0  0  0  0  0  0  0  0
  -22.2929  -44.0583   -6.9198 C   0  0  0  0  0  0  0  0  0  0  0  0
  -21.1226  -44.0879   -5.9924 C   0  0  0  0  0  0  0  0  0  0  0  0
  -19.8322  -43.8903   -6.7298 C   0  0  0  0  0  0  0  0  0  0  0  0
  -19.4064  -42.9080   -7.5837 C   0  0  0  0  0  0  0  0  0  0  0  0
  -18.0958  -43.0137   -8.0324 C   0  0  0  0  0  0  0  0  0  0  0  0
  -17.2923  -44.0985   -7.6001 C   0  0  0  0  0  0  0  0  0  0  0  0
  -17.7420  -45.0755   -6.7423 C   0  0  0  0  0  0  0  0  0  0  0  0
  -18.9915  -44.9302   -6.3440 N   0  0  0  0  0  0  0  0  0  0  0  0
  -17.3118  -42.1465   -8.9236 C   0  0  0  0  0  0  0  0  0  0  0  0
  -16.5669  -42.8381   -9.7773 O   0  0  0  0  0  0  0  0  0  0  0  0
  -17.1837  -40.7611   -9.0629 N   0  0  0  0  0  0  0  0  0  0  0  0
  -14.7146  -37.3698  -11.8807 C   0  0  0  0  0  0  0  0  0  0  0  0
  1  2  1  0
  2  3  1  0
  2  4  1  0
  4  5  2  0
  5  6  1  0
  6  7  2  0
  7  8  1  0
  8  9  1  0
  9 10  1  0
 10 11  1  0
 11 12  1  0
 12 13  1  1
 12 14  1  0
 14 15  1  1
 15 16  1  0
 16 17  1  1
 16 18  1  0
 18 19  1  0
 19 20  1  0
 20 21  1  0
 21 22  1  0
 22 23  1  0
 23 24  1  0
 24 25  1  0
 25 26  1  0
 26 27  2  0
 27 28  1  0
 28 29  2  0
 29 30  1  0
 30 31  2  0
 28 32  1  0
 32 33  2  0
 32 34  1  0
  8 35  2  0
 31 26  1  0
 34 14  1  0
 35  4  1  0
M  END
$$$$
