
     RDKit          3D

 35 37  0  0  0  0  0  0  0  0999 V2000
  -12.1558  -39.5978  -14.3351 C   0  0  0  0  0  0  0  0  0  0  0  0
  -11.6733  -38.4379  -13.4994 C   0  0  0  0  0  0  0  0  0  0  0  0
  -10.5302  -38.8483  -12.5906 C   0  0  0  0  0  0  0  0  0  0  0  0
  -12.7988  -37.8625  -12.7584 C   0  0  0  0  0  0  0  0  0  0  0  0
  -13.8550  -37.3119  -13.4519 C   0  0  0  0  0  0  0  0  0  0  0  0
  -14.9536  -36.7495  -12.8277 C   0  0  0  0  0  0  0  0  0  0  0  0
  -14.9632  -36.7553  -11.4577 C   0  0  0  0  0  0  0  0  0  0  0  0
  -13.9491  -37.2852  -10.6944 C   0  0  0  0  0  0  0  0  0  0  0  0
  -13.9895  -37.2760   -9.1998 C   0  0  0  0  0  0  0  0  0  0  0  0
  -13.6019  -38.5749   -8.7490 N   0  0  0  0  0  0  0  0  0  0  0  0
  -14.6986  -39.4759   -8.4757 C   0  0  0  0  0  0  0  0  0  0  0  0
  -15.5980  -38.8525   -7.4877 C   0  0  1  0  0  0  0  0  0  0  0  0
  -15.3326  -37.5372   -7.2111 O   0  0  0  0  0  0  0  0  0  0  0  0
  -17.0949  -38.9444   -7.8411 C   0  0  2  0  0  0  0  0  0  0  0  0
  -17.8923  -39.6026   -6.7796 C   0  0  0  0  0  0  0  0  0  0  0  0
  -19.0309  -38.6987   -6.2626 C   0  0  2  0  0  0  0  0  0  0  0  0
  -19.0201  -38.5749   -4.7758 C   0  0  0  0  0  0  0  0  0  0  0  0
  -20.3447  -39.1315   -6.8256 C   0  0  0  0  0  0  0  0  0  0  0  0
  -21.5479  -38.5997   -6.1090 C   0  0  0  0  0  0  0  0  0  0  0  0
  -22.8260  -38.8542   -6.8939 C   0  0  0  0  0  0  0  0  0  0  0  0
  -23.0475  -40.2995   -7.1978 C   0  0  0  0  0  0  0  0  0  0  0  0
  -23.4296  -40.5458   -8.6451 C   0  0  0  0  0  0  0  0  0  0  0  0
  -23.8128  -41.9976   -8.7859 C   0  0  0  0  0  0  0  0  0  0  0  0
  -22.7420  -42.8112   -9.4915 C   0  0  0  0  0  0  0  0  0  0  0  0
  -21.7404  -43.3674   -8.5333 C   0  0  0  0  0  0  0  0  0  0  0  0
  -20.3420  -42.9885   -8.9188 C   0  0  0  0  0  0  0  0  0  0  0  0
  -19.7562  -41.7751   -9.1634 C   0  0  0  0  0  0  0  0  0  0  0  0
  -18.3931  -41.7969   -9.4312 C   0  0  0  0  0  0  0  0  0  0  0  0
  -17.7003  -43.0334   -9.4400 C   0  0  0  0  0  0  0  0  0  0  0  0
  -18.3101  -44.2416   -9.1928 C   0  0  0  0  0  0  0  0  0  0  0  0
  -19.6036  -44.1680   -8.9430 N   0  0  0  0  0  0  0  0  0  0  0  0
  -17.4511  -40.7042   -9.7134 C   0  0  0  0  0  0  0  0  0  0  0  0
  -16.5952  -41.0100  -10.6808 O   0  0  0  0  0  0  0  0  0  0  0  0
  -17.2652  -39.4230   -9.1850 N   0  0  0  0  0  0  0  0  0  0  0  0
  -12.8781  -37.8327  -11.3827 C   0  0  0  0  0  0  0  0  0  0  0  0
  1  2  1  0
  2  3  1  0
  2  4  1  0
  4  5  2  0
  5  6  1  0
  6  7  2  0
  7  8  1  0
  8  9  1  0
  9 10  1  0
 10 11  1  0
 11 12  1  0
 12 13  1  6
 12 14  1  0
 14 15  1  1
 15 16  1  0
 16 17  1  1
 16 18  1  0
 18 19  1  0
 19 20  1  0
 20 21  1  0
 21 22  1  0
 22 23  1  0
 23 24  1  0
 24 25  1  0
 25 26  1  0
 26 27  2  0
 27 28  1  0
 28 29  2  0
 29 30  1  0
 30 31  2  0
 28 32  1  0
 32 33  2  0
 32 34  1  0
  8 35  2  0
 31 26  1  0
 34 14  1  0
 35  4  1  0
M  END
$$$$
