
     RDKit          3D

 35 37  0  0  0  0  0  0  0  0999 V2000
  -12.9138  -33.9517  -11.8611 C   0  0  0  0  0  0  0  0  0  0  0  0
  -11.8877  -35.0262  -11.5982 C   0  0  0  0  0  0  0  0  0  0  0  0
  -10.8094  -35.0348  -12.6651 C   0  0  0  0  0  0  0  0  0  0  0  0
  -12.5555  -36.3238  -11.4668 C   0  0  0  0  0  0  0  0  0  0  0  0
  -12.9521  -36.9987  -12.6013 C   0  0  0  0  0  0  0  0  0  0  0  0
  -13.5876  -38.2266  -12.5629 C   0  0  0  0  0  0  0  0  0  0  0  0
  -13.8190  -38.7706  -11.3270 C   0  0  0  0  0  0  0  0  0  0  0  0
  -13.4539  -38.1607  -10.1494 C   0  0  0  0  0  0  0  0  0  0  0  0
  -13.7208  -38.7810   -8.8155 C   0  0  0  0  0  0  0  0  0  0  0  0
  -14.1414  -40.1273   -9.0412 N   0  0  0  0  0  0  0  0  0  0  0  0
  -15.4118  -40.4753   -8.4461 C   0  0  0  0  0  0  0  0  0  0  0  0
  -16.2893  -39.2905   -8.4594 C   0  0  1  0  0  0  0  0  0  0  0  0
  -16.0504  -38.4037   -9.4758 O   0  0  0  0  0  0  0  0  0  0  0  0
  -17.7957  -39.6133   -8.4890 C   0  0  2  0  0  0  0  0  0  0  0  0
  -18.4364  -39.4682   -7.1608 C   0  0  0  0  0  0  0  0  0  0  0  0
  -19.6063  -38.4625   -7.1862 C   0  0  2  0  0  0  0  0  0  0  0  0
  -19.4819  -37.4274   -6.1189 C   0  0  0  0  0  0  0  0  0  0  0  0
  -20.9170  -39.1783   -7.1870 C   0  0  0  0  0  0  0  0  0  0  0  0
  -22.0998  -38.3363   -6.8181 C   0  0  0  0  0  0  0  0  0  0  0  0
  -23.4103  -39.0533   -7.1058 C   0  0  0  0  0  0  0  0  0  0  0  0
  -23.5216  -40.3698   -6.4094 C   0  0  0  0  0  0  0  0  0  0  0  0
  -23.9996  -41.4819   -7.3237 C   0  0  0  0  0  0  0  0  0  0  0  0
  -24.2571  -42.7033   -6.4775 C   0  0  0  0  0  0  0  0  0  0  0  0
  -23.1786  -43.7593   -6.6455 C   0  0  0  0  0  0  0  0  0  0  0  0
  -22.0527  -43.5665   -5.6834 C   0  0  0  0  0  0  0  0  0  0  0  0
  -20.7328  -43.4898   -6.3905 C   0  0  0  0  0  0  0  0  0  0  0  0
  -20.2848  -42.6927   -7.4098 C   0  0  0  0  0  0  0  0  0  0  0  0
  -18.9530  -42.8530   -7.7713 C   0  0  0  0  0  0  0  0  0  0  0  0
  -18.1517  -43.8040   -7.0911 C   0  0  0  0  0  0  0  0  0  0  0  0
  -18.6239  -44.5959   -6.0701 C   0  0  0  0  0  0  0  0  0  0  0  0
  -19.8930  -44.4055   -5.7634 N   0  0  0  0  0  0  0  0  0  0  0  0
  -18.1434  -42.1664   -8.7883 C   0  0  0  0  0  0  0  0  0  0  0  0
  -17.3474  -42.9982   -9.4488 O   0  0  0  0  0  0  0  0  0  0  0  0
  -18.0333  -40.8361   -9.2048 N   0  0  0  0  0  0  0  0  0  0  0  0
  -12.8213  -36.9325  -10.2591 C   0  0  0  0  0  0  0  0  0  0  0  0
  1  2  1  0
  2  3  1  0
  2  4  1  0
  4  5  2  0
  5  6  1  0
  6  7  2  0
  7  8  1  0
  8  9  1  0
  9 10  1  0
 10 11  1  0
 11 12  1  0
 12 13  1  6
 12 14  1  0
 14 15  1  1
 15 16  1  0
 16 17  1  1
 16 18  1  0
 18 19  1  0
 19 20  1  0
 20 21  1  0
 21 22  1  0
 22 23  1  0
 23 24  1  0
 24 25  1  0
 25 26  1  0
 26 27  2  0
 27 28  1  0
 28 29  2  0
 29 30  1  0
 30 31  2  0
 28 32  1  0
 32 33  2  0
 32 34  1  0
  8 35  2  0
 31 26  1  0
 34 14  1  0
 35  4  1  0
M  END
$$$$
