
     RDKit          3D

 35 37  0  0  0  0  0  0  0  0999 V2000
   -9.2590  -40.5493  -12.4302 C   0  0  0  0  0  0  0  0  0  0  0  0
  -10.3232  -41.6101  -12.2926 C   0  0  0  0  0  0  0  0  0  0  0  0
  -10.1937  -42.6673  -13.3726 C   0  0  0  0  0  0  0  0  0  0  0  0
  -11.6468  -40.9816  -12.2804 C   0  0  0  0  0  0  0  0  0  0  0  0
  -12.6197  -41.4358  -13.1447 C   0  0  0  0  0  0  0  0  0  0  0  0
  -13.8924  -40.8968  -13.1952 C   0  0  0  0  0  0  0  0  0  0  0  0
  -14.1680  -39.8666  -12.3352 C   0  0  0  0  0  0  0  0  0  0  0  0
  -13.2527  -39.3576  -11.4435 C   0  0  0  0  0  0  0  0  0  0  0  0
  -13.5847  -38.2318  -10.5173 C   0  0  0  0  0  0  0  0  0  0  0  0
  -14.2247  -38.7910   -9.3693 N   0  0  0  0  0  0  0  0  0  0  0  0
  -15.4135  -38.0927   -8.9353 C   0  0  0  0  0  0  0  0  0  0  0  0
  -16.0332  -38.8415   -7.8267 C   0  0  1  0  0  0  0  0  0  0  0  0
  -15.9964  -38.2123   -6.6104 O   0  0  0  0  0  0  0  0  0  0  0  0
  -17.4967  -39.2539   -8.0756 C   0  0  2  0  0  0  0  0  0  0  0  0
  -18.2673  -39.4089   -6.8194 C   0  0  0  0  0  0  0  0  0  0  0  0
  -19.5125  -38.4984   -6.7849 C   0  0  2  0  0  0  0  0  0  0  0  0
  -19.5770  -37.6801   -5.5390 C   0  0  0  0  0  0  0  0  0  0  0  0
  -20.7507  -39.2880   -7.0567 C   0  0  0  0  0  0  0  0  0  0  0  0
  -22.0308  -38.6140   -6.6682 C   0  0  0  0  0  0  0  0  0  0  0  0
  -23.2422  -39.3501   -7.2206 C   0  0  0  0  0  0  0  0  0  0  0  0
  -23.3028  -40.7797   -6.7929 C   0  0  0  0  0  0  0  0  0  0  0  0
  -23.5965  -41.7266   -7.9412 C   0  0  0  0  0  0  0  0  0  0  0  0
  -23.8241  -43.1017   -7.3653 C   0  0  0  0  0  0  0  0  0  0  0  0
  -22.6473  -44.0307   -7.6078 C   0  0  0  0  0  0  0  0  0  0  0  0
  -21.6357  -43.9493   -6.5120 C   0  0  0  0  0  0  0  0  0  0  0  0
  -20.2680  -43.6498   -7.0481 C   0  0  0  0  0  0  0  0  0  0  0  0
  -19.7987  -42.6442   -7.8505 C   0  0  0  0  0  0  0  0  0  0  0  0
  -18.4303  -42.6419   -8.0910 C   0  0  0  0  0  0  0  0  0  0  0  0
  -17.6158  -43.6488   -7.5148 C   0  0  0  0  0  0  0  0  0  0  0  0
  -18.1097  -44.6511   -6.7124 C   0  0  0  0  0  0  0  0  0  0  0  0
  -19.4134  -44.6092   -6.5133 N   0  0  0  0  0  0  0  0  0  0  0  0
  -17.5931  -41.7206   -8.8727 C   0  0  0  0  0  0  0  0  0  0  0  0
  -16.6705  -42.3551   -9.5856 O   0  0  0  0  0  0  0  0  0  0  0  0
  -17.5607  -40.3309   -9.0244 N   0  0  0  0  0  0  0  0  0  0  0  0
  -11.9965  -39.9429  -11.4446 C   0  0  0  0  0  0  0  0  0  0  0  0
  1  2  1  0
  2  3  1  0
  2  4  1  0
  4  5  2  0
  5  6  1  0
  6  7  2  0
  7  8  1  0
  8  9  1  0
  9 10  1  0
 10 11  1  0
 11 12  1  0
 12 13  1  1
 12 14  1  0
 14 15  1  1
 15 16  1  0
 16 17  1  1
 16 18  1  0
 18 19  1  0
 19 20  1  0
 20 21  1  0
 21 22  1  0
 22 23  1  0
 23 24  1  0
 24 25  1  0
 25 26  1  0
 26 27  2  0
 27 28  1  0
 28 29  2  0
 29 30  1  0
 30 31  2  0
 28 32  1  0
 32 33  2  0
 32 34  1  0
  8 35  2  0
 31 26  1  0
 34 14  1  0
 35  4  1  0
M  END
$$$$
