
     RDKit          3D

 35 37  0  0  0  0  0  0  0  0999 V2000
  -14.6771  -32.7256  -12.2815 C   0  0  0  0  0  0  0  0  0  0  0  0
  -15.9127  -33.3217  -11.6531 C   0  0  0  0  0  0  0  0  0  0  0  0
  -16.0771  -32.8664  -10.2155 C   0  0  0  0  0  0  0  0  0  0  0  0
  -15.8733  -34.7811  -11.7770 C   0  0  0  0  0  0  0  0  0  0  0  0
  -16.7397  -35.4102  -12.6451 C   0  0  0  0  0  0  0  0  0  0  0  0
  -16.7657  -36.7820  -12.8197 C   0  0  0  0  0  0  0  0  0  0  0  0
  -15.8785  -37.5214  -12.0828 C   0  0  0  0  0  0  0  0  0  0  0  0
  -14.9830  -36.9691  -11.1969 C   0  0  0  0  0  0  0  0  0  0  0  0
  -14.0268  -37.8041  -10.4069 C   0  0  0  0  0  0  0  0  0  0  0  0
  -14.6544  -38.1201   -9.1632 N   0  0  0  0  0  0  0  0  0  0  0  0
  -15.7531  -39.0546   -9.2568 C   0  0  0  0  0  0  0  0  0  0  0  0
  -16.3463  -39.2347   -7.9191 C   0  0  1  0  0  0  0  0  0  0  0  0
  -16.2537  -38.1459   -7.0928 O   0  0  0  0  0  0  0  0  0  0  0  0
  -17.8254  -39.6662   -7.9304 C   0  0  2  0  0  0  0  0  0  0  0  0
  -18.2807  -40.1769   -6.6160 C   0  0  0  0  0  0  0  0  0  0  0  0
  -19.4882  -39.3858   -6.0712 C   0  0  2  0  0  0  0  0  0  0  0  0
  -19.2644  -38.9076   -4.6757 C   0  0  0  0  0  0  0  0  0  0  0  0
  -20.7515  -40.1616   -6.2512 C   0  0  0  0  0  0  0  0  0  0  0  0
  -21.9091  -39.6890   -5.4262 C   0  0  0  0  0  0  0  0  0  0  0  0
  -23.2121  -40.3419   -5.8623 C   0  0  0  0  0  0  0  0  0  0  0  0
  -23.1639  -41.8337   -5.8126 C   0  0  0  0  0  0  0  0  0  0  0  0
  -23.7125  -42.4835   -7.0688 C   0  0  0  0  0  0  0  0  0  0  0  0
  -23.7924  -43.9701   -6.8283 C   0  0  0  0  0  0  0  0  0  0  0  0
  -22.7000  -44.7321   -7.5580 C   0  0  0  0  0  0  0  0  0  0  0  0
  -21.4611  -44.8596   -6.7337 C   0  0  0  0  0  0  0  0  0  0  0  0
  -20.2578  -44.3489   -7.4679 C   0  0  0  0  0  0  0  0  0  0  0  0
  -19.9938  -43.1478   -8.0702 C   0  0  0  0  0  0  0  0  0  0  0  0
  -18.7194  -42.9976   -8.6027 C   0  0  0  0  0  0  0  0  0  0  0  0
  -17.7877  -44.0611   -8.5014 C   0  0  0  0  0  0  0  0  0  0  0  0
  -18.0756  -45.2608   -7.8927 C   0  0  0  0  0  0  0  0  0  0  0  0
  -19.2970  -45.3538   -7.4023 N   0  0  0  0  0  0  0  0  0  0  0  0
  -18.0924  -41.8593   -9.2897 C   0  0  0  0  0  0  0  0  0  0  0  0
  -17.3584  -42.2365  -10.3294 O   0  0  0  0  0  0  0  0  0  0  0  0
  -18.1034  -40.4763   -9.0839 N   0  0  0  0  0  0  0  0  0  0  0  0
  -15.0095  -35.5893  -11.0698 C   0  0  0  0  0  0  0  0  0  0  0  0
  1  2  1  0
  2  3  1  0
  2  4  1  0
  4  5  2  0
  5  6  1  0
  6  7  2  0
  7  8  1  0
  8  9  1  0
  9 10  1  0
 10 11  1  0
 11 12  1  0
 12 13  1  1
 12 14  1  0
 14 15  1  1
 15 16  1  0
 16 17  1  1
 16 18  1  0
 18 19  1  0
 19 20  1  0
 20 21  1  0
 21 22  1  0
 22 23  1  0
 23 24  1  0
 24 25  1  0
 25 26  1  0
 26 27  2  0
 27 28  1  0
 28 29  2  0
 29 30  1  0
 30 31  2  0
 28 32  1  0
 32 33  2  0
 32 34  1  0
  8 35  2  0
 31 26  1  0
 34 14  1  0
 35  4  1  0
M  END
$$$$
