
     RDKit          3D

 35 37  0  0  0  0  0  0  0  0999 V2000
  -10.2933  -35.2140  -10.3740 C   0  0  0  0  0  0  0  0  0  0  0  0
  -11.5227  -35.2643  -11.2473 C   0  0  0  0  0  0  0  0  0  0  0  0
  -12.6680  -34.4792  -10.6366 C   0  0  0  0  0  0  0  0  0  0  0  0
  -11.8805  -36.6598  -11.5147 C   0  0  0  0  0  0  0  0  0  0  0  0
  -11.5643  -37.2177  -12.7349 C   0  0  0  0  0  0  0  0  0  0  0  0
  -11.8671  -38.5262  -13.0650 C   0  0  0  0  0  0  0  0  0  0  0  0
  -12.5100  -39.2761  -12.1157 C   0  0  0  0  0  0  0  0  0  0  0  0
  -12.8590  -38.7932  -10.8760 C   0  0  0  0  0  0  0  0  0  0  0  0
  -13.5607  -39.6377   -9.8611 C   0  0  0  0  0  0  0  0  0  0  0  0
  -14.7659  -38.9632   -9.4965 N   0  0  0  0  0  0  0  0  0  0  0  0
  -15.8778  -39.8319   -9.1831 C   0  0  0  0  0  0  0  0  0  0  0  0
  -16.9846  -39.5516  -10.1161 C   0  0  1  0  0  0  0  0  0  0  0  0
  -16.7547  -39.9202  -11.4154 O   0  0  0  0  0  0  0  0  0  0  0  0
  -18.3357  -40.1683   -9.7060 C   0  0  2  0  0  0  0  0  0  0  0  0
  -19.3047  -39.1535   -9.2293 C   0  0  0  0  0  0  0  0  0  0  0  0
  -20.6118  -39.1674  -10.0491 C   0  0  2  0  0  0  0  0  0  0  0  0
  -20.9745  -37.8106  -10.5528 C   0  0  0  0  0  0  0  0  0  0  0  0
  -21.7043  -39.8439   -9.2882 C   0  0  0  0  0  0  0  0  0  0  0  0
  -23.0888  -39.5779   -9.7946 C   0  0  0  0  0  0  0  0  0  0  0  0
  -24.1089  -40.5056   -9.1519 C   0  0  0  0  0  0  0  0  0  0  0  0
  -24.1182  -40.4212   -7.6608 C   0  0  0  0  0  0  0  0  0  0  0  0
  -24.1124  -41.7833   -6.9932 C   0  0  0  0  0  0  0  0  0  0  0  0
  -24.3170  -41.5784   -5.5132 C   0  0  0  0  0  0  0  0  0  0  0  0
  -23.0376  -41.7809   -4.7204 C   0  0  0  0  0  0  0  0  0  0  0  0
  -22.2534  -40.5163   -4.5920 C   0  0  0  0  0  0  0  0  0  0  0  0
  -20.8433  -40.6934   -5.0697 C   0  0  0  0  0  0  0  0  0  0  0  0
  -20.3278  -41.1479   -6.2542 C   0  0  0  0  0  0  0  0  0  0  0  0
  -18.9443  -41.1073   -6.3747 C   0  0  0  0  0  0  0  0  0  0  0  0
  -18.1614  -40.6160   -5.3001 C   0  0  0  0  0  0  0  0  0  0  0  0
  -18.7012  -40.1656   -4.1176 C   0  0  0  0  0  0  0  0  0  0  0  0
  -20.0178  -40.2233   -4.0526 N   0  0  0  0  0  0  0  0  0  0  0  0
  -18.0647  -41.4880   -7.4893 C   0  0  0  0  0  0  0  0  0  0  0  0
  -16.9750  -42.1259   -7.0800 O   0  0  0  0  0  0  0  0  0  0  0  0
  -18.1296  -41.3229   -8.8763 N   0  0  0  0  0  0  0  0  0  0  0  0
  -12.5265  -37.4743  -10.6098 C   0  0  0  0  0  0  0  0  0  0  0  0
  1  2  1  0
  2  3  1  0
  2  4  1  0
  4  5  2  0
  5  6  1  0
  6  7  2  0
  7  8  1  0
  8  9  1  0
  9 10  1  0
 10 11  1  0
 11 12  1  0
 12 13  1  6
 12 14  1  0
 14 15  1  1
 15 16  1  0
 16 17  1  1
 16 18  1  0
 18 19  1  0
 19 20  1  0
 20 21  1  0
 21 22  1  0
 22 23  1  0
 23 24  1  0
 24 25  1  0
 25 26  1  0
 26 27  2  0
 27 28  1  0
 28 29  2  0
 29 30  1  0
 30 31  2  0
 28 32  1  0
 32 33  2  0
 32 34  1  0
  8 35  2  0
 31 26  1  0
 34 14  1  0
 35  4  1  0
M  END
$$$$
