
     RDKit          3D

 35 37  0  0  0  0  0  0  0  0999 V2000
  -14.4387  -35.1528  -10.7890 C   0  0  0  0  0  0  0  0  0  0  0  0
  -13.3297  -35.7416  -11.6257 C   0  0  0  0  0  0  0  0  0  0  0  0
  -13.3519  -35.1926  -13.0396 C   0  0  0  0  0  0  0  0  0  0  0  0
  -13.4103  -37.2042  -11.5917 C   0  0  0  0  0  0  0  0  0  0  0  0
  -13.8622  -37.8831  -12.7030 C   0  0  0  0  0  0  0  0  0  0  0  0
  -13.9677  -39.2613  -12.7514 C   0  0  0  0  0  0  0  0  0  0  0  0
  -13.5988  -39.9548  -11.6290 C   0  0  0  0  0  0  0  0  0  0  0  0
  -13.1380  -39.3516  -10.4820 C   0  0  0  0  0  0  0  0  0  0  0  0
  -12.7430  -40.1372   -9.2727 C   0  0  0  0  0  0  0  0  0  0  0  0
  -13.7310  -39.9082   -8.2668 N   0  0  0  0  0  0  0  0  0  0  0  0
  -15.0986  -39.9979   -8.7262 C   0  0  0  0  0  0  0  0  0  0  0  0
  -15.9962  -39.5153   -7.6607 C   0  0  1  0  0  0  0  0  0  0  0  0
  -15.8512  -38.1924   -7.3358 O   0  0  0  0  0  0  0  0  0  0  0  0
  -17.4943  -39.7495   -7.9346 C   0  0  2  0  0  0  0  0  0  0  0  0
  -18.3330  -39.5465   -6.7299 C   0  0  0  0  0  0  0  0  0  0  0  0
  -19.4201  -38.4743   -6.9522 C   0  0  2  0  0  0  0  0  0  0  0  0
  -19.4090  -37.4319   -5.8848 C   0  0  0  0  0  0  0  0  0  0  0  0
  -20.7540  -39.1119   -7.1633 C   0  0  0  0  0  0  0  0  0  0  0  0
  -21.9280  -38.1962   -6.9977 C   0  0  0  0  0  0  0  0  0  0  0  0
  -23.2150  -38.8395   -7.4918 C   0  0  0  0  0  0  0  0  0  0  0  0
  -23.5177  -40.1362   -6.8155 C   0  0  0  0  0  0  0  0  0  0  0  0
  -23.9067  -41.2323   -7.7894 C   0  0  0  0  0  0  0  0  0  0  0  0
  -24.3720  -42.4233   -6.9898 C   0  0  0  0  0  0  0  0  0  0  0  0
  -23.3464  -43.5433   -6.9730 C   0  0  0  0  0  0  0  0  0  0  0  0
  -22.3827  -43.4020   -5.8408 C   0  0  0  0  0  0  0  0  0  0  0  0
  -20.9631  -43.4139   -6.3228 C   0  0  0  0  0  0  0  0  0  0  0  0
  -20.3075  -42.6603   -7.2596 C   0  0  0  0  0  0  0  0  0  0  0  0
  -18.9468  -42.9041   -7.3975 C   0  0  0  0  0  0  0  0  0  0  0  0
  -18.3260  -43.8899   -6.5899 C   0  0  0  0  0  0  0  0  0  0  0  0
  -19.0053  -44.6368   -5.6554 C   0  0  0  0  0  0  0  0  0  0  0  0
  -20.2936  -44.3675   -5.5615 N   0  0  0  0  0  0  0  0  0  0  0  0
  -17.9423  -42.2821   -8.2722 C   0  0  0  0  0  0  0  0  0  0  0  0
  -17.1010  -43.1694   -8.7888 O   0  0  0  0  0  0  0  0  0  0  0  0
  -17.6856  -40.9672   -8.6726 N   0  0  0  0  0  0  0  0  0  0  0  0
  -13.0569  -37.9682  -10.5003 C   0  0  0  0  0  0  0  0  0  0  0  0
  1  2  1  0
  2  3  1  0
  2  4  1  0
  4  5  2  0
  5  6  1  0
  6  7  2  0
  7  8  1  0
  8  9  1  0
  9 10  1  0
 10 11  1  0
 11 12  1  0
 12 13  1  6
 12 14  1  0
 14 15  1  1
 15 16  1  0
 16 17  1  1
 16 18  1  0
 18 19  1  0
 19 20  1  0
 20 21  1  0
 21 22  1  0
 22 23  1  0
 23 24  1  0
 24 25  1  0
 25 26  1  0
 26 27  2  0
 27 28  1  0
 28 29  2  0
 29 30  1  0
 30 31  2  0
 28 32  1  0
 32 33  2  0
 32 34  1  0
  8 35  2  0
 31 26  1  0
 34 14  1  0
 35  4  1  0
M  END
$$$$
