
     RDKit          3D

 35 37  0  0  0  0  0  0  0  0999 V2000
  -11.4792  -35.4316  -12.4386 C   0  0  0  0  0  0  0  0  0  0  0  0
  -12.7029  -35.9171  -13.1758 C   0  0  0  0  0  0  0  0  0  0  0  0
  -13.8956  -35.0145  -12.9232 C   0  0  0  0  0  0  0  0  0  0  0  0
  -12.9716  -37.3126  -12.8193 C   0  0  0  0  0  0  0  0  0  0  0  0
  -13.2113  -38.2322  -13.8178 C   0  0  0  0  0  0  0  0  0  0  0  0
  -13.4727  -39.5666  -13.5649 C   0  0  0  0  0  0  0  0  0  0  0  0
  -13.4871  -39.9615  -12.2531 C   0  0  0  0  0  0  0  0  0  0  0  0
  -13.2574  -39.1059  -11.2009 C   0  0  0  0  0  0  0  0  0  0  0  0
  -13.2801  -39.5684   -9.7792 C   0  0  0  0  0  0  0  0  0  0  0  0
  -14.1781  -38.7193   -9.0629 N   0  0  0  0  0  0  0  0  0  0  0  0
  -15.5684  -39.1083   -9.1324 C   0  0  0  0  0  0  0  0  0  0  0  0
  -16.0690  -39.3494   -7.7667 C   0  0  1  0  0  0  0  0  0  0  0  0
  -15.8044  -38.3502   -6.8677 O   0  0  0  0  0  0  0  0  0  0  0  0
  -17.5798  -39.6406   -7.6837 C   0  0  2  0  0  0  0  0  0  0  0  0
  -18.0238  -39.9625   -6.3070 C   0  0  0  0  0  0  0  0  0  0  0  0
  -19.1329  -39.0087   -5.8158 C   0  0  2  0  0  0  0  0  0  0  0  0
  -18.8100  -38.4059   -4.4898 C   0  0  0  0  0  0  0  0  0  0  0  0
  -20.4664  -39.6790   -5.8688 C   0  0  0  0  0  0  0  0  0  0  0  0
  -21.5424  -39.0150   -5.0655 C   0  0  0  0  0  0  0  0  0  0  0  0
  -22.9151  -39.5875   -5.3854 C   0  0  0  0  0  0  0  0  0  0  0  0
  -22.9974  -41.0633   -5.1719 C   0  0  0  0  0  0  0  0  0  0  0  0
  -23.6529  -41.7909   -6.3304 C   0  0  0  0  0  0  0  0  0  0  0  0
  -23.8544  -43.2292   -5.9240 C   0  0  0  0  0  0  0  0  0  0  0  0
  -22.8650  -44.1632   -6.5985 C   0  0  0  0  0  0  0  0  0  0  0  0
  -21.6092  -44.3155   -5.8045 C   0  0  0  0  0  0  0  0  0  0  0  0
  -20.3967  -44.0007   -6.6282 C   0  0  0  0  0  0  0  0  0  0  0  0
  -20.0524  -42.9010   -7.3681 C   0  0  0  0  0  0  0  0  0  0  0  0
  -18.7928  -42.9279   -7.9537 C   0  0  0  0  0  0  0  0  0  0  0  0
  -17.9558  -44.0560   -7.7642 C   0  0  0  0  0  0  0  0  0  0  0  0
  -18.3235  -45.1513   -7.0174 C   0  0  0  0  0  0  0  0  0  0  0  0
  -19.5270  -45.0773   -6.4816 N   0  0  0  0  0  0  0  0  0  0  0  0
  -18.0962  -41.9332   -8.7821 C   0  0  0  0  0  0  0  0  0  0  0  0
  -17.4422  -42.4865   -9.7960 O   0  0  0  0  0  0  0  0  0  0  0  0
  -17.9760  -40.5410   -8.7308 N   0  0  0  0  0  0  0  0  0  0  0  0
  -13.0019  -37.7827  -11.5240 C   0  0  0  0  0  0  0  0  0  0  0  0
  1  2  1  0
  2  3  1  0
  2  4  1  0
  4  5  2  0
  5  6  1  0
  6  7  2  0
  7  8  1  0
  8  9  1  0
  9 10  1  0
 10 11  1  0
 11 12  1  0
 12 13  1  1
 12 14  1  0
 14 15  1  1
 15 16  1  0
 16 17  1  1
 16 18  1  0
 18 19  1  0
 19 20  1  0
 20 21  1  0
 21 22  1  0
 22 23  1  0
 23 24  1  0
 24 25  1  0
 25 26  1  0
 26 27  2  0
 27 28  1  0
 28 29  2  0
 29 30  1  0
 30 31  2  0
 28 32  1  0
 32 33  2  0
 32 34  1  0
  8 35  2  0
 31 26  1  0
 34 14  1  0
 35  4  1  0
M  END
$$$$
