
     RDKit          3D

 35 37  0  0  0  0  0  0  0  0999 V2000
  -15.6915  -35.4109  -10.5929 C   0  0  0  0  0  0  0  0  0  0  0  0
  -15.3740  -36.0578  -11.9185 C   0  0  0  0  0  0  0  0  0  0  0  0
  -16.6052  -36.6981  -12.5309 C   0  0  0  0  0  0  0  0  0  0  0  0
  -14.2726  -37.0097  -11.7511 C   0  0  0  0  0  0  0  0  0  0  0  0
  -13.0212  -36.6881  -12.2311 C   0  0  0  0  0  0  0  0  0  0  0  0
  -11.9307  -37.5306  -12.1132 C   0  0  0  0  0  0  0  0  0  0  0  0
  -12.1352  -38.7313  -11.4860 C   0  0  0  0  0  0  0  0  0  0  0  0
  -13.3521  -39.1251  -10.9800 C   0  0  0  0  0  0  0  0  0  0  0  0
  -13.5428  -40.4431  -10.3004 C   0  0  0  0  0  0  0  0  0  0  0  0
  -13.4593  -40.2193   -8.8921 N   0  0  0  0  0  0  0  0  0  0  0  0
  -14.3656  -39.2160   -8.3811 C   0  0  0  0  0  0  0  0  0  0  0  0
  -15.2647  -39.8392   -7.3926 C   0  0  1  0  0  0  0  0  0  0  0  0
  -15.2220  -39.2855   -6.1402 O   0  0  0  0  0  0  0  0  0  0  0  0
  -16.7458  -39.8812   -7.8154 C   0  0  2  0  0  0  0  0  0  0  0  0
  -17.6657  -40.0014   -6.6599 C   0  0  0  0  0  0  0  0  0  0  0  0
  -18.6853  -38.8446   -6.6054 C   0  0  2  0  0  0  0  0  0  0  0  0
  -18.7119  -38.1803   -5.2697 C   0  0  0  0  0  0  0  0  0  0  0  0
  -20.0250  -39.2996   -7.0833 C   0  0  0  0  0  0  0  0  0  0  0  0
  -21.1678  -38.4041   -6.7143 C   0  0  0  0  0  0  0  0  0  0  0  0
  -22.4392  -38.7814   -7.4598 C   0  0  0  0  0  0  0  0  0  0  0  0
  -22.8488  -40.2001   -7.2365 C   0  0  0  0  0  0  0  0  0  0  0  0
  -23.2080  -40.9195   -8.5228 C   0  0  0  0  0  0  0  0  0  0  0  0
  -23.7846  -42.2648   -8.1597 C   0  0  0  0  0  0  0  0  0  0  0  0
  -22.8125  -43.4005   -8.4276 C   0  0  0  0  0  0  0  0  0  0  0  0
  -21.9342  -43.6739   -7.2510 C   0  0  0  0  0  0  0  0  0  0  0  0
  -20.4833  -43.6301   -7.6265 C   0  0  0  0  0  0  0  0  0  0  0  0
  -19.7254  -42.6708   -8.2434 C   0  0  0  0  0  0  0  0  0  0  0  0
  -18.3698  -42.9485   -8.3673 C   0  0  0  0  0  0  0  0  0  0  0  0
  -17.8564  -44.1715   -7.8676 C   0  0  0  0  0  0  0  0  0  0  0  0
  -18.6375  -45.1222   -7.2522 C   0  0  0  0  0  0  0  0  0  0  0  0
  -19.9164  -44.8116   -7.1578 N   0  0  0  0  0  0  0  0  0  0  0  0
  -17.2749  -42.1557   -8.9449 C   0  0  0  0  0  0  0  0  0  0  0  0
  -16.4350  -42.8956   -9.6584 O   0  0  0  0  0  0  0  0  0  0  0  0
  -16.9316  -40.8008   -8.9034 N   0  0  0  0  0  0  0  0  0  0  0  0
  -14.4027  -38.2341  -11.1317 C   0  0  0  0  0  0  0  0  0  0  0  0
  1  2  1  0
  2  3  1  0
  2  4  1  0
  4  5  2  0
  5  6  1  0
  6  7  2  0
  7  8  1  0
  8  9  1  0
  9 10  1  0
 10 11  1  0
 11 12  1  0
 12 13  1  1
 12 14  1  0
 14 15  1  1
 15 16  1  0
 16 17  1  1
 16 18  1  0
 18 19  1  0
 19 20  1  0
 20 21  1  0
 21 22  1  0
 22 23  1  0
 23 24  1  0
 24 25  1  0
 25 26  1  0
 26 27  2  0
 27 28  1  0
 28 29  2  0
 29 30  1  0
 30 31  2  0
 28 32  1  0
 32 33  2  0
 32 34  1  0
  8 35  2  0
 31 26  1  0
 34 14  1  0
 35  4  1  0
M  END
$$$$
