
     RDKit          3D

 35 37  0  0  0  0  0  0  0  0999 V2000
  -21.2684  -37.2072  -10.1843 C   0  0  0  0  0  0  0  0  0  0  0  0
  -22.3935  -37.9488   -9.5054 C   0  0  0  0  0  0  0  0  0  0  0  0
  -23.1891  -37.0338   -8.5940 C   0  0  0  0  0  0  0  0  0  0  0  0
  -21.8588  -39.1157   -8.7988 C   0  0  0  0  0  0  0  0  0  0  0  0
  -22.4701  -40.3411   -8.9562 C   0  0  0  0  0  0  0  0  0  0  0  0
  -22.0276  -41.4894   -8.3250 C   0  0  0  0  0  0  0  0  0  0  0  0
  -20.9301  -41.3715   -7.5135 C   0  0  0  0  0  0  0  0  0  0  0  0
  -20.2648  -40.1858   -7.3051 C   0  0  0  0  0  0  0  0  0  0  0  0
  -19.0691  -40.0900   -6.4126 C   0  0  0  0  0  0  0  0  0  0  0  0
  -17.9102  -40.0426   -7.2464 N   0  0  0  0  0  0  0  0  0  0  0  0
  -17.6730  -38.7682   -7.8859 C   0  0  0  0  0  0  0  0  0  0  0  0
  -16.2373  -38.4450   -7.7957 C   0  0  1  0  0  0  0  0  0  0  0  0
  -15.7935  -38.1228   -6.5403 O   0  0  0  0  0  0  0  0  0  0  0  0
  -15.3014  -39.5436   -8.3354 C   0  0  2  0  0  0  0  0  0  0  0  0
  -15.2765  -39.5950   -9.8161 C   0  0  0  0  0  0  0  0  0  0  0  0
  -13.8519  -39.4136  -10.3804 C   0  0  2  0  0  0  0  0  0  0  0  0
  -13.7907  -38.3466  -11.4214 C   0  0  0  0  0  0  0  0  0  0  0  0
  -13.2887  -40.7245  -10.8217 C   0  0  0  0  0  0  0  0  0  0  0  0
  -12.1013  -40.6311  -11.7301 C   0  0  0  0  0  0  0  0  0  0  0  0
  -11.4256  -41.9821  -11.9105 C   0  0  0  0  0  0  0  0  0  0  0  0
  -12.3493  -43.0327  -12.4335 C   0  0  0  0  0  0  0  0  0  0  0  0
  -12.2548  -44.3367  -11.6643 C   0  0  0  0  0  0  0  0  0  0  0  0
  -13.0780  -45.3690  -12.3931 C   0  0  0  0  0  0  0  0  0  0  0  0
  -14.3871  -45.6686  -11.6839 C   0  0  0  0  0  0  0  0  0  0  0  0
  -15.4848  -44.7588  -12.1287 C   0  0  0  0  0  0  0  0  0  0  0  0
  -16.1295  -44.0662  -10.9658 C   0  0  0  0  0  0  0  0  0  0  0  0
  -15.6128  -43.3023   -9.9535 C   0  0  0  0  0  0  0  0  0  0  0  0
  -16.5343  -42.7510   -9.0719 C   0  0  0  0  0  0  0  0  0  0  0  0
  -17.9172  -43.0007   -9.2568 C   0  0  0  0  0  0  0  0  0  0  0  0
  -18.4140  -43.7733  -10.2809 C   0  0  0  0  0  0  0  0  0  0  0  0
  -17.5002  -44.2727  -11.0911 N   0  0  0  0  0  0  0  0  0  0  0  0
  -16.3445  -41.8791   -7.9037 C   0  0  0  0  0  0  0  0  0  0  0  0
  -17.1279  -42.2166   -6.8867 O   0  0  0  0  0  0  0  0  0  0  0  0
  -15.5229  -40.7795   -7.6372 N   0  0  0  0  0  0  0  0  0  0  0  0
  -20.7602  -39.0738   -7.9675 C   0  0  0  0  0  0  0  0  0  0  0  0
  1  2  1  0
  2  3  1  0
  2  4  1  0
  4  5  2  0
  5  6  1  0
  6  7  2  0
  7  8  1  0
  8  9  1  0
  9 10  1  0
 10 11  1  0
 11 12  1  0
 12 13  1  1
 12 14  1  0
 14 15  1  6
 15 16  1  0
 16 17  1  6
 16 18  1  0
 18 19  1  0
 19 20  1  0
 20 21  1  0
 21 22  1  0
 22 23  1  0
 23 24  1  0
 24 25  1  0
 25 26  1  0
 26 27  2  0
 27 28  1  0
 28 29  2  0
 29 30  1  0
 30 31  2  0
 28 32  1  0
 32 33  2  0
 32 34  1  0
  8 35  2  0
 31 26  1  0
 34 14  1  0
 35  4  1  0
M  END
$$$$
