
     RDKit          3D

 35 37  0  0  0  0  0  0  0  0999 V2000
  -23.7241  -42.0583   -4.3752 C   0  0  0  0  0  0  0  0  0  0  0  0
  -22.2969  -41.8718   -4.8280 C   0  0  0  0  0  0  0  0  0  0  0  0
  -21.4446  -41.2586   -3.7333 C   0  0  0  0  0  0  0  0  0  0  0  0
  -22.2709  -41.0857   -6.0642 C   0  0  0  0  0  0  0  0  0  0  0  0
  -23.1573  -41.3862   -7.0761 C   0  0  0  0  0  0  0  0  0  0  0  0
  -23.1969  -40.6930   -8.2723 C   0  0  0  0  0  0  0  0  0  0  0  0
  -22.3026  -39.6669   -8.4283 C   0  0  0  0  0  0  0  0  0  0  0  0
  -21.3878  -39.3054   -7.4668 C   0  0  0  0  0  0  0  0  0  0  0  0
  -20.4244  -38.1798   -7.6678 C   0  0  0  0  0  0  0  0  0  0  0  0
  -19.3508  -38.6686   -8.4735 N   0  0  0  0  0  0  0  0  0  0  0  0
  -18.1832  -39.0959   -7.7363 C   0  0  0  0  0  0  0  0  0  0  0  0
  -17.1353  -38.0657   -7.8564 C   0  0  1  0  0  0  0  0  0  0  0  0
  -16.7226  -37.5178   -6.6706 O   0  0  0  0  0  0  0  0  0  0  0  0
  -15.8692  -38.5284   -8.6027 C   0  0  2  0  0  0  0  0  0  0  0  0
  -15.7958  -37.9983   -9.9846 C   0  0  0  0  0  0  0  0  0  0  0  0
  -14.5066  -37.1863  -10.2283 C   0  0  2  0  0  0  0  0  0  0  0  0
  -14.7903  -35.8392  -10.8035 C   0  0  0  0  0  0  0  0  0  0  0  0
  -13.5204  -37.9861  -11.0145 C   0  0  0  0  0  0  0  0  0  0  0  0
  -12.4165  -37.1918  -11.6426 C   0  0  0  0  0  0  0  0  0  0  0  0
  -11.3167  -38.0919  -12.1853 C   0  0  0  0  0  0  0  0  0  0  0  0
  -11.8149  -39.0906  -13.1777 C   0  0  0  0  0  0  0  0  0  0  0  0
  -11.2979  -40.4921  -12.9139 C   0  0  0  0  0  0  0  0  0  0  0  0
  -11.7034  -41.3651  -14.0749 C   0  0  0  0  0  0  0  0  0  0  0  0
  -12.8470  -42.3001  -13.7218 C   0  0  0  0  0  0  0  0  0  0  0  0
  -14.1792  -41.6746  -13.9756 C   0  0  0  0  0  0  0  0  0  0  0  0
  -15.0468  -41.7148  -12.7536 C   0  0  0  0  0  0  0  0  0  0  0  0
  -14.8440  -41.2784  -11.4715 C   0  0  0  0  0  0  0  0  0  0  0  0
  -15.9173  -41.4191  -10.6006 C   0  0  0  0  0  0  0  0  0  0  0  0
  -17.1277  -41.9908  -11.0666 C   0  0  0  0  0  0  0  0  0  0  0  0
  -17.3086  -42.4241  -12.3597 C   0  0  0  0  0  0  0  0  0  0  0  0
  -16.2617  -42.2680  -13.1475 N   0  0  0  0  0  0  0  0  0  0  0  0
  -16.0620  -41.0488   -9.1854 C   0  0  0  0  0  0  0  0  0  0  0  0
  -16.7053  -41.9732   -8.4828 O   0  0  0  0  0  0  0  0  0  0  0  0
  -15.6708  -39.9405   -8.4278 N   0  0  0  0  0  0  0  0  0  0  0  0
  -21.4015  -40.0409   -6.2923 C   0  0  0  0  0  0  0  0  0  0  0  0
  1  2  1  0
  2  3  1  0
  2  4  1  0
  4  5  2  0
  5  6  1  0
  6  7  2  0
  7  8  1  0
  8  9  1  0
  9 10  1  0
 10 11  1  0
 11 12  1  0
 12 13  1  1
 12 14  1  0
 14 15  1  6
 15 16  1  0
 16 17  1  6
 16 18  1  0
 18 19  1  0
 19 20  1  0
 20 21  1  0
 21 22  1  0
 22 23  1  0
 23 24  1  0
 24 25  1  0
 25 26  1  0
 26 27  2  0
 27 28  1  0
 28 29  2  0
 29 30  1  0
 30 31  2  0
 28 32  1  0
 32 33  2  0
 32 34  1  0
  8 35  2  0
 31 26  1  0
 34 14  1  0
 35  4  1  0
M  END
$$$$
