
     RDKit          3D

 35 37  0  0  0  0  0  0  0  0999 V2000
  -13.6983  -34.7841  -13.2631 C   0  0  0  0  0  0  0  0  0  0  0  0
  -13.3522  -35.1099  -11.8310 C   0  0  0  0  0  0  0  0  0  0  0  0
  -11.9505  -34.6474  -11.4814 C   0  0  0  0  0  0  0  0  0  0  0  0
  -13.5452  -36.5424  -11.5911 C   0  0  0  0  0  0  0  0  0  0  0  0
  -14.2596  -37.2909  -12.5017 C   0  0  0  0  0  0  0  0  0  0  0  0
  -14.4861  -38.6467  -12.3485 C   0  0  0  0  0  0  0  0  0  0  0  0
  -13.9640  -39.2439  -11.2315 C   0  0  0  0  0  0  0  0  0  0  0  0
  -13.2403  -38.5669  -10.2776 C   0  0  0  0  0  0  0  0  0  0  0  0
  -12.6836  -39.2480   -9.0687 C   0  0  0  0  0  0  0  0  0  0  0  0
  -13.6682  -39.1699   -8.0367 N   0  0  0  0  0  0  0  0  0  0  0  0
  -14.2405  -40.4382   -7.6453 C   0  0  0  0  0  0  0  0  0  0  0  0
  -15.3345  -40.1965   -6.6869 C   0  0  1  0  0  0  0  0  0  0  0  0
  -15.1749  -39.0925   -5.8915 O   0  0  0  0  0  0  0  0  0  0  0  0
  -16.7317  -40.0908   -7.3278 C   0  0  2  0  0  0  0  0  0  0  0  0
  -17.8234  -40.1368   -6.3268 C   0  0  0  0  0  0  0  0  0  0  0  0
  -18.7274  -38.8882   -6.3945 C   0  0  2  0  0  0  0  0  0  0  0  0
  -18.8945  -38.2414   -5.0604 C   0  0  0  0  0  0  0  0  0  0  0  0
  -20.0156  -39.2064   -7.0798 C   0  0  0  0  0  0  0  0  0  0  0  0
  -21.1129  -38.2101   -6.8621 C   0  0  0  0  0  0  0  0  0  0  0  0
  -22.2859  -38.4541   -7.7996 C   0  0  0  0  0  0  0  0  0  0  0  0
  -22.8548  -39.8296   -7.6786 C   0  0  0  0  0  0  0  0  0  0  0  0
  -23.0800  -40.4948   -9.0233 C   0  0  0  0  0  0  0  0  0  0  0  0
  -23.8276  -41.7831   -8.7871 C   0  0  0  0  0  0  0  0  0  0  0  0
  -22.9359  -43.0033   -8.9369 C   0  0  0  0  0  0  0  0  0  0  0  0
  -22.2756  -43.3747   -7.6499 C   0  0  0  0  0  0  0  0  0  0  0  0
  -20.7868  -43.4656   -7.8024 C   0  0  0  0  0  0  0  0  0  0  0  0
  -19.8582  -42.5758   -8.2726 C   0  0  0  0  0  0  0  0  0  0  0  0
  -18.5313  -42.9807   -8.1995 C   0  0  0  0  0  0  0  0  0  0  0  0
  -18.2156  -44.2537   -7.6618 C   0  0  0  0  0  0  0  0  0  0  0  0
  -19.1660  -45.1327   -7.1962 C   0  0  0  0  0  0  0  0  0  0  0  0
  -20.4099  -44.7019   -7.2862 N   0  0  0  0  0  0  0  0  0  0  0  0
  -17.2925  -42.2895   -8.5848 C   0  0  0  0  0  0  0  0  0  0  0  0
  -16.4266  -43.0975   -9.1842 O   0  0  0  0  0  0  0  0  0  0  0  0
  -16.8350  -40.9745   -8.4558 N   0  0  0  0  0  0  0  0  0  0  0  0
  -13.0503  -37.2110  -10.4921 C   0  0  0  0  0  0  0  0  0  0  0  0
  1  2  1  0
  2  3  1  0
  2  4  1  0
  4  5  2  0
  5  6  1  0
  6  7  2  0
  7  8  1  0
  8  9  1  0
  9 10  1  0
 10 11  1  0
 11 12  1  0
 12 13  1  6
 12 14  1  0
 14 15  1  1
 15 16  1  0
 16 17  1  1
 16 18  1  0
 18 19  1  0
 19 20  1  0
 20 21  1  0
 21 22  1  0
 22 23  1  0
 23 24  1  0
 24 25  1  0
 25 26  1  0
 26 27  2  0
 27 28  1  0
 28 29  2  0
 29 30  1  0
 30 31  2  0
 28 32  1  0
 32 33  2  0
 32 34  1  0
  8 35  2  0
 31 26  1  0
 34 14  1  0
 35  4  1  0
M  END
$$$$
