
     RDKit          3D

 35 37  0  0  0  0  0  0  0  0999 V2000
  -12.9221  -34.9627  -11.8847 C   0  0  0  0  0  0  0  0  0  0  0  0
  -14.0718  -35.7934  -12.3993 C   0  0  0  0  0  0  0  0  0  0  0  0
  -15.4010  -35.2829  -11.8765 C   0  0  0  0  0  0  0  0  0  0  0  0
  -13.8460  -37.2037  -12.0721 C   0  0  0  0  0  0  0  0  0  0  0  0
  -14.0818  -38.1668  -13.0296 C   0  0  0  0  0  0  0  0  0  0  0  0
  -13.8933  -39.5177  -12.8005 C   0  0  0  0  0  0  0  0  0  0  0  0
  -13.4517  -39.8835  -11.5563 C   0  0  0  0  0  0  0  0  0  0  0  0
  -13.1935  -38.9839  -10.5483 C   0  0  0  0  0  0  0  0  0  0  0  0
  -12.7120  -39.4154   -9.2002 C   0  0  0  0  0  0  0  0  0  0  0  0
  -13.8324  -39.9464   -8.4907 N   0  0  0  0  0  0  0  0  0  0  0  0
  -15.0726  -39.2311   -8.6898 C   0  0  0  0  0  0  0  0  0  0  0  0
  -15.8590  -39.2766   -7.4435 C   0  0  1  0  0  0  0  0  0  0  0  0
  -15.7755  -38.1530   -6.6641 O   0  0  0  0  0  0  0  0  0  0  0  0
  -17.3574  -39.5733   -7.6457 C   0  0  2  0  0  0  0  0  0  0  0  0
  -18.0731  -39.7927   -6.3668 C   0  0  0  0  0  0  0  0  0  0  0  0
  -19.2516  -38.8136   -6.1845 C   0  0  2  0  0  0  0  0  0  0  0  0
  -19.1993  -38.1086   -4.8706 C   0  0  0  0  0  0  0  0  0  0  0  0
  -20.5517  -39.4971   -6.4547 C   0  0  0  0  0  0  0  0  0  0  0  0
  -21.7631  -38.7827   -5.9388 C   0  0  0  0  0  0  0  0  0  0  0  0
  -23.0468  -39.3893   -6.4850 C   0  0  0  0  0  0  0  0  0  0  0  0
  -23.1814  -40.8452   -6.1803 C   0  0  0  0  0  0  0  0  0  0  0  0
  -23.5943  -41.6645   -7.3884 C   0  0  0  0  0  0  0  0  0  0  0  0
  -23.8843  -43.0692   -6.9224 C   0  0  0  0  0  0  0  0  0  0  0  0
  -22.7857  -44.0438   -7.3094 C   0  0  0  0  0  0  0  0  0  0  0  0
  -21.7177  -44.1245   -6.2685 C   0  0  0  0  0  0  0  0  0  0  0  0
  -20.3613  -43.8633   -6.8515 C   0  0  0  0  0  0  0  0  0  0  0  0
  -19.8664  -42.8205   -7.5884 C   0  0  0  0  0  0  0  0  0  0  0  0
  -18.5147  -42.8815   -7.9033 C   0  0  0  0  0  0  0  0  0  0  0  0
  -17.7415  -43.9849   -7.4628 C   0  0  0  0  0  0  0  0  0  0  0  0
  -18.2607  -45.0229   -6.7242 C   0  0  0  0  0  0  0  0  0  0  0  0
  -19.5471  -44.9183   -6.4502 N   0  0  0  0  0  0  0  0  0  0  0  0
  -17.6577  -41.9472   -8.6473 C   0  0  0  0  0  0  0  0  0  0  0  0
  -16.8161  -42.5709   -9.4626 O   0  0  0  0  0  0  0  0  0  0  0  0
  -17.5402  -40.5542   -8.6793 N   0  0  0  0  0  0  0  0  0  0  0  0
  -13.4030  -37.6463  -10.8443 C   0  0  0  0  0  0  0  0  0  0  0  0
  1  2  1  0
  2  3  1  0
  2  4  1  0
  4  5  2  0
  5  6  1  0
  6  7  2  0
  7  8  1  0
  8  9  1  0
  9 10  1  0
 10 11  1  0
 11 12  1  0
 12 13  1  6
 12 14  1  0
 14 15  1  1
 15 16  1  0
 16 17  1  1
 16 18  1  0
 18 19  1  0
 19 20  1  0
 20 21  1  0
 21 22  1  0
 22 23  1  0
 23 24  1  0
 24 25  1  0
 25 26  1  0
 26 27  2  0
 27 28  1  0
 28 29  2  0
 29 30  1  0
 30 31  2  0
 28 32  1  0
 32 33  2  0
 32 34  1  0
  8 35  2  0
 31 26  1  0
 34 14  1  0
 35  4  1  0
M  END
$$$$
