
     RDKit          3D

 35 37  0  0  0  0  0  0  0  0999 V2000
  -10.1526  -35.6072  -13.1583 C   0  0  0  0  0  0  0  0  0  0  0  0
  -10.1722  -37.0321  -12.6625 C   0  0  0  0  0  0  0  0  0  0  0  0
   -9.3782  -37.9468  -13.5756 C   0  0  0  0  0  0  0  0  0  0  0  0
  -11.5583  -37.4760  -12.4933 C   0  0  0  0  0  0  0  0  0  0  0  0
  -12.1831  -38.1505  -13.5202 C   0  0  0  0  0  0  0  0  0  0  0  0
  -13.4879  -38.6022  -13.4397 C   0  0  0  0  0  0  0  0  0  0  0  0
  -14.1633  -38.3528  -12.2742 C   0  0  0  0  0  0  0  0  0  0  0  0
  -13.6106  -37.6873  -11.2048 C   0  0  0  0  0  0  0  0  0  0  0  0
  -14.3747  -37.4307   -9.9455 C   0  0  0  0  0  0  0  0  0  0  0  0
  -14.2053  -38.5678   -9.0978 N   0  0  0  0  0  0  0  0  0  0  0  0
  -15.3546  -39.4404   -9.0140 C   0  0  0  0  0  0  0  0  0  0  0  0
  -16.2102  -39.0022   -7.8961 C   0  0  1  0  0  0  0  0  0  0  0  0
  -16.1272  -37.6693   -7.5907 O   0  0  0  0  0  0  0  0  0  0  0  0
  -17.7053  -39.3313   -8.0706 C   0  0  2  0  0  0  0  0  0  0  0  0
  -18.4360  -39.3660   -6.7819 C   0  0  0  0  0  0  0  0  0  0  0  0
  -19.6190  -38.3757   -6.7573 C   0  0  2  0  0  0  0  0  0  0  0  0
  -19.5844  -37.4874   -5.5591 C   0  0  0  0  0  0  0  0  0  0  0  0
  -20.9140  -39.0966   -6.9407 C   0  0  0  0  0  0  0  0  0  0  0  0
  -22.1334  -38.3200   -6.5481 C   0  0  0  0  0  0  0  0  0  0  0  0
  -23.4089  -39.0048   -7.0155 C   0  0  0  0  0  0  0  0  0  0  0  0
  -23.5435  -40.4017   -6.5044 C   0  0  0  0  0  0  0  0  0  0  0  0
  -23.9397  -41.3893   -7.5856 C   0  0  0  0  0  0  0  0  0  0  0  0
  -24.2319  -42.7127   -6.9241 C   0  0  0  0  0  0  0  0  0  0  0  0
  -23.1263  -43.7285   -7.1528 C   0  0  0  0  0  0  0  0  0  0  0  0
  -22.0708  -43.6529   -6.0988 C   0  0  0  0  0  0  0  0  0  0  0  0
  -20.7082  -43.4734   -6.6977 C   0  0  0  0  0  0  0  0  0  0  0  0
  -20.2069  -42.5464   -7.5722 C   0  0  0  0  0  0  0  0  0  0  0  0
  -18.8512  -42.6468   -7.8591 C   0  0  0  0  0  0  0  0  0  0  0  0
  -18.0808  -43.6713   -7.2541 C   0  0  0  0  0  0  0  0  0  0  0  0
  -18.6064  -44.5935   -6.3789 C   0  0  0  0  0  0  0  0  0  0  0  0
  -19.8963  -44.4556   -6.1381 N   0  0  0  0  0  0  0  0  0  0  0  0
  -17.9875  -41.8267   -8.7207 C   0  0  0  0  0  0  0  0  0  0  0  0
  -17.1346  -42.5585   -9.4270 O   0  0  0  0  0  0  0  0  0  0  0  0
  -17.8730  -40.4526   -8.9531 N   0  0  0  0  0  0  0  0  0  0  0  0
  -12.2998  -37.2618  -11.3514 C   0  0  0  0  0  0  0  0  0  0  0  0
  1  2  1  0
  2  3  1  0
  2  4  1  0
  4  5  2  0
  5  6  1  0
  6  7  2  0
  7  8  1  0
  8  9  1  0
  9 10  1  0
 10 11  1  0
 11 12  1  0
 12 13  1  6
 12 14  1  0
 14 15  1  1
 15 16  1  0
 16 17  1  1
 16 18  1  0
 18 19  1  0
 19 20  1  0
 20 21  1  0
 21 22  1  0
 22 23  1  0
 23 24  1  0
 24 25  1  0
 25 26  1  0
 26 27  2  0
 27 28  1  0
 28 29  2  0
 29 30  1  0
 30 31  2  0
 28 32  1  0
 32 33  2  0
 32 34  1  0
  8 35  2  0
 31 26  1  0
 34 14  1  0
 35  4  1  0
M  END
$$$$
