
     RDKit          3D

 35 37  0  0  0  0  0  0  0  0999 V2000
  -17.9919  -46.1149  -10.0195 C   0  0  0  0  0  0  0  0  0  0  0  0
  -16.6862  -46.5269  -10.6536 C   0  0  0  0  0  0  0  0  0  0  0  0
  -15.9198  -47.4898   -9.7667 C   0  0  0  0  0  0  0  0  0  0  0  0
  -15.9046  -45.3345  -10.9917 C   0  0  0  0  0  0  0  0  0  0  0  0
  -15.8633  -44.9007  -12.2993 C   0  0  0  0  0  0  0  0  0  0  0  0
  -15.1498  -43.7856  -12.7000 C   0  0  0  0  0  0  0  0  0  0  0  0
  -14.4638  -43.1027  -11.7306 C   0  0  0  0  0  0  0  0  0  0  0  0
  -14.4553  -43.4710  -10.4053 C   0  0  0  0  0  0  0  0  0  0  0  0
  -13.6960  -42.7039   -9.3707 C   0  0  0  0  0  0  0  0  0  0  0  0
  -14.6474  -42.1337   -8.4706 N   0  0  0  0  0  0  0  0  0  0  0  0
  -14.9275  -40.7327   -8.6893 C   0  0  0  0  0  0  0  0  0  0  0  0
  -15.7803  -40.2363   -7.5938 C   0  0  1  0  0  0  0  0  0  0  0  0
  -15.3826  -39.0465   -7.0433 O   0  0  0  0  0  0  0  0  0  0  0  0
  -17.2687  -40.0858   -7.9627 C   0  0  2  0  0  0  0  0  0  0  0  0
  -18.0317  -39.3153   -6.9528 C   0  0  0  0  0  0  0  0  0  0  0  0
  -18.7215  -38.0781   -7.5646 C   0  0  2  0  0  0  0  0  0  0  0  0
  -18.4109  -36.8296   -6.8091 C   0  0  0  0  0  0  0  0  0  0  0  0
  -20.1822  -38.3269   -7.7507 C   0  0  0  0  0  0  0  0  0  0  0  0
  -21.0134  -37.0982   -7.9595 C   0  0  0  0  0  0  0  0  0  0  0  0
  -22.4242  -37.4455   -8.4104 C   0  0  0  0  0  0  0  0  0  0  0  0
  -23.1357  -38.3511   -7.4595 C   0  0  0  0  0  0  0  0  0  0  0  0
  -23.8240  -39.5112   -8.1534 C   0  0  0  0  0  0  0  0  0  0  0  0
  -24.6598  -40.2377   -7.1297 C   0  0  0  0  0  0  0  0  0  0  0  0
  -24.0382  -41.5582   -6.7095 C   0  0  0  0  0  0  0  0  0  0  0  0
  -23.1081  -41.3952   -5.5524 C   0  0  0  0  0  0  0  0  0  0  0  0
  -21.7521  -41.9594   -5.8538 C   0  0  0  0  0  0  0  0  0  0  0  0
  -20.8696  -41.7270   -6.8748 C   0  0  0  0  0  0  0  0  0  0  0  0
  -19.6510  -42.3891   -6.7924 C   0  0  0  0  0  0  0  0  0  0  0  0
  -19.3918  -43.2458   -5.6933 C   0  0  0  0  0  0  0  0  0  0  0  0
  -20.2947  -43.4658   -4.6789 C   0  0  0  0  0  0  0  0  0  0  0  0
  -21.4353  -42.8140   -4.8020 N   0  0  0  0  0  0  0  0  0  0  0  0
  -18.4802  -42.3622   -7.6809 C   0  0  0  0  0  0  0  0  0  0  0  0
  -17.9469  -43.5655   -7.8532 O   0  0  0  0  0  0  0  0  0  0  0  0
  -17.8137  -41.3490   -8.3768 N   0  0  0  0  0  0  0  0  0  0  0  0
  -15.1906  -44.5974  -10.0716 C   0  0  0  0  0  0  0  0  0  0  0  0
  1  2  1  0
  2  3  1  0
  2  4  1  0
  4  5  2  0
  5  6  1  0
  6  7  2  0
  7  8  1  0
  8  9  1  0
  9 10  1  0
 10 11  1  0
 11 12  1  0
 12 13  1  6
 12 14  1  0
 14 15  1  1
 15 16  1  0
 16 17  1  1
 16 18  1  0
 18 19  1  0
 19 20  1  0
 20 21  1  0
 21 22  1  0
 22 23  1  0
 23 24  1  0
 24 25  1  0
 25 26  1  0
 26 27  2  0
 27 28  1  0
 28 29  2  0
 29 30  1  0
 30 31  2  0
 28 32  1  0
 32 33  2  0
 32 34  1  0
  8 35  2  0
 31 26  1  0
 34 14  1  0
 35  4  1  0
M  END
$$$$
