
     RDKit          3D

 35 37  0  0  0  0  0  0  0  0999 V2000
  -12.3428  -36.3558  -11.9003 C   0  0  0  0  0  0  0  0  0  0  0  0
  -13.0604  -37.2294  -12.8995 C   0  0  0  0  0  0  0  0  0  0  0  0
  -14.2522  -36.5130  -13.5057 C   0  0  0  0  0  0  0  0  0  0  0  0
  -13.4320  -38.4980  -12.2676 C   0  0  0  0  0  0  0  0  0  0  0  0
  -14.1926  -39.4073  -12.9710 C   0  0  0  0  0  0  0  0  0  0  0  0
  -14.5847  -40.6256  -12.4466 C   0  0  0  0  0  0  0  0  0  0  0  0
  -14.1834  -40.9126  -11.1686 C   0  0  0  0  0  0  0  0  0  0  0  0
  -13.4238  -40.0594  -10.4025 C   0  0  0  0  0  0  0  0  0  0  0  0
  -13.0017  -40.4023   -9.0097 C   0  0  0  0  0  0  0  0  0  0  0  0
  -13.9271  -39.7853   -8.1134 N   0  0  0  0  0  0  0  0  0  0  0  0
  -15.2713  -40.3138   -8.1684 C   0  0  0  0  0  0  0  0  0  0  0  0
  -16.1343  -39.5272   -7.2682 C   0  0  1  0  0  0  0  0  0  0  0  0
  -15.8255  -38.1950   -7.1871 O   0  0  0  0  0  0  0  0  0  0  0  0
  -17.6393  -39.6216   -7.5845 C   0  0  2  0  0  0  0  0  0  0  0  0
  -18.4883  -39.3952   -6.3912 C   0  0  0  0  0  0  0  0  0  0  0  0
  -19.4750  -38.2262   -6.5929 C   0  0  2  0  0  0  0  0  0  0  0  0
  -19.4030  -37.2313   -5.4833 C   0  0  0  0  0  0  0  0  0  0  0  0
  -20.8522  -38.7386   -6.8596 C   0  0  0  0  0  0  0  0  0  0  0  0
  -21.9484  -37.7332   -6.6821 C   0  0  0  0  0  0  0  0  0  0  0  0
  -23.2721  -38.2442   -7.2307 C   0  0  0  0  0  0  0  0  0  0  0  0
  -23.7005  -39.5359   -6.6154 C   0  0  0  0  0  0  0  0  0  0  0  0
  -24.1557  -40.5556   -7.6421 C   0  0  0  0  0  0  0  0  0  0  0  0
  -24.7402  -41.7330   -6.9028 C   0  0  0  0  0  0  0  0  0  0  0  0
  -23.8136  -42.9363   -6.9098 C   0  0  0  0  0  0  0  0  0  0  0  0
  -22.8707  -42.9226   -5.7517 C   0  0  0  0  0  0  0  0  0  0  0  0
  -21.4453  -43.0367   -6.2024 C   0  0  0  0  0  0  0  0  0  0  0  0
  -20.7048  -42.3057   -7.0926 C   0  0  0  0  0  0  0  0  0  0  0  0
  -19.3664  -42.6593   -7.2104 C   0  0  0  0  0  0  0  0  0  0  0  0
  -18.8519  -43.7254   -6.4307 C   0  0  0  0  0  0  0  0  0  0  0  0
  -19.6155  -44.4477   -5.5431 C   0  0  0  0  0  0  0  0  0  0  0  0
  -20.8784  -44.0732   -5.4666 N   0  0  0  0  0  0  0  0  0  0  0  0
  -18.2910  -42.0914   -8.0363 C   0  0  0  0  0  0  0  0  0  0  0  0
  -17.5148  -43.0263   -8.5705 O   0  0  0  0  0  0  0  0  0  0  0  0
  -17.9140  -40.7886   -8.3762 N   0  0  0  0  0  0  0  0  0  0  0  0
  -13.0653  -38.8556  -10.9880 C   0  0  0  0  0  0  0  0  0  0  0  0
  1  2  1  0
  2  3  1  0
  2  4  1  0
  4  5  2  0
  5  6  1  0
  6  7  2  0
  7  8  1  0
  8  9  1  0
  9 10  1  0
 10 11  1  0
 11 12  1  0
 12 13  1  6
 12 14  1  0
 14 15  1  1
 15 16  1  0
 16 17  1  1
 16 18  1  0
 18 19  1  0
 19 20  1  0
 20 21  1  0
 21 22  1  0
 22 23  1  0
 23 24  1  0
 24 25  1  0
 25 26  1  0
 26 27  2  0
 27 28  1  0
 28 29  2  0
 29 30  1  0
 30 31  2  0
 28 32  1  0
 32 33  2  0
 32 34  1  0
  8 35  2  0
 31 26  1  0
 34 14  1  0
 35  4  1  0
M  END
$$$$
