
     RDKit          3D

 35 37  0  0  0  0  0  0  0  0999 V2000
  -10.2679  -36.6720  -11.7021 C   0  0  0  0  0  0  0  0  0  0  0  0
  -10.8621  -37.2468  -12.9644 C   0  0  0  0  0  0  0  0  0  0  0  0
  -11.0868  -36.1712  -14.0101 C   0  0  0  0  0  0  0  0  0  0  0  0
  -12.0895  -37.9793  -12.6420 C   0  0  0  0  0  0  0  0  0  0  0  0
  -12.2791  -39.2429  -13.1590 C   0  0  0  0  0  0  0  0  0  0  0  0
  -13.4086  -39.9990  -12.9028 C   0  0  0  0  0  0  0  0  0  0  0  0
  -14.3636  -39.4396  -12.0954 C   0  0  0  0  0  0  0  0  0  0  0  0
  -14.2488  -38.1860  -11.5413 C   0  0  0  0  0  0  0  0  0  0  0  0
  -15.3097  -37.6033  -10.6635 C   0  0  0  0  0  0  0  0  0  0  0  0
  -15.4788  -38.4809   -9.5492 N   0  0  0  0  0  0  0  0  0  0  0  0
  -15.9927  -37.8527   -8.3531 C   0  0  0  0  0  0  0  0  0  0  0  0
  -16.3653  -38.8986   -7.3831 C   0  0  1  0  0  0  0  0  0  0  0  0
  -16.2064  -38.5518   -6.0673 O   0  0  0  0  0  0  0  0  0  0  0  0
  -17.8038  -39.4284   -7.5379 C   0  0  2  0  0  0  0  0  0  0  0  0
  -18.3553  -39.9608   -6.2697 C   0  0  0  0  0  0  0  0  0  0  0  0
  -19.6615  -39.2492   -5.8595 C   0  0  2  0  0  0  0  0  0  0  0  0
  -19.6124  -38.7489   -4.4547 C   0  0  0  0  0  0  0  0  0  0  0  0
  -20.8459  -40.1091   -6.1560 C   0  0  0  0  0  0  0  0  0  0  0  0
  -22.1099  -39.7103   -5.4579 C   0  0  0  0  0  0  0  0  0  0  0  0
  -23.3160  -40.4517   -6.0149 C   0  0  0  0  0  0  0  0  0  0  0  0
  -23.1745  -41.9367   -5.9417 C   0  0  0  0  0  0  0  0  0  0  0  0
  -23.5487  -42.6291   -7.2384 C   0  0  0  0  0  0  0  0  0  0  0  0
  -23.5541  -44.1164   -6.9885 C   0  0  0  0  0  0  0  0  0  0  0  0
  -22.3453  -44.8076   -7.5947 C   0  0  0  0  0  0  0  0  0  0  0  0
  -21.1907  -44.8469   -6.6482 C   0  0  0  0  0  0  0  0  0  0  0  0
  -19.9555  -44.2610   -7.2638 C   0  0  0  0  0  0  0  0  0  0  0  0
  -19.7119  -43.0484   -7.8515 C   0  0  0  0  0  0  0  0  0  0  0  0
  -18.4028  -42.8162   -8.2548 C   0  0  0  0  0  0  0  0  0  0  0  0
  -17.4179  -43.8142   -8.0466 C   0  0  0  0  0  0  0  0  0  0  0  0
  -17.6860  -45.0269   -7.4549 C   0  0  0  0  0  0  0  0  0  0  0  0
  -18.9420  -45.1987   -7.0890 N   0  0  0  0  0  0  0  0  0  0  0  0
  -17.7860  -41.6425   -8.8894 C   0  0  0  0  0  0  0  0  0  0  0  0
  -16.9271  -41.9757   -9.8450 O   0  0  0  0  0  0  0  0  0  0  0  0
  -17.9093  -40.2621   -8.7032 N   0  0  0  0  0  0  0  0  0  0  0  0
  -13.0925  -37.4819  -11.8381 C   0  0  0  0  0  0  0  0  0  0  0  0
  1  2  1  0
  2  3  1  0
  2  4  1  0
  4  5  2  0
  5  6  1  0
  6  7  2  0
  7  8  1  0
  8  9  1  0
  9 10  1  0
 10 11  1  0
 11 12  1  0
 12 13  1  1
 12 14  1  0
 14 15  1  1
 15 16  1  0
 16 17  1  1
 16 18  1  0
 18 19  1  0
 19 20  1  0
 20 21  1  0
 21 22  1  0
 22 23  1  0
 23 24  1  0
 24 25  1  0
 25 26  1  0
 26 27  2  0
 27 28  1  0
 28 29  2  0
 29 30  1  0
 30 31  2  0
 28 32  1  0
 32 33  2  0
 32 34  1  0
  8 35  2  0
 31 26  1  0
 34 14  1  0
 35  4  1  0
M  END
$$$$
