
     RDKit          3D

 35 37  0  0  0  0  0  0  0  0999 V2000
  -11.0718  -35.2327  -11.8677 C   0  0  0  0  0  0  0  0  0  0  0  0
  -12.5177  -35.5477  -12.1626 C   0  0  0  0  0  0  0  0  0  0  0  0
  -13.4487  -34.8058  -11.2226 C   0  0  0  0  0  0  0  0  0  0  0  0
  -12.7236  -36.9980  -12.1252 C   0  0  0  0  0  0  0  0  0  0  0  0
  -12.9174  -37.6847  -13.3045 C   0  0  0  0  0  0  0  0  0  0  0  0
  -13.1184  -39.0522  -13.3546 C   0  0  0  0  0  0  0  0  0  0  0  0
  -13.1194  -39.7264  -12.1620 C   0  0  0  0  0  0  0  0  0  0  0  0
  -12.9329  -39.1143  -10.9445 C   0  0  0  0  0  0  0  0  0  0  0  0
  -12.9395  -39.8789   -9.6596 C   0  0  0  0  0  0  0  0  0  0  0  0
  -13.7799  -39.1762   -8.7429 N   0  0  0  0  0  0  0  0  0  0  0  0
  -15.1898  -39.2140   -9.0592 C   0  0  0  0  0  0  0  0  0  0  0  0
  -15.9406  -39.6274   -7.8595 C   0  0  1  0  0  0  0  0  0  0  0  0
  -15.8327  -38.7808   -6.7879 O   0  0  0  0  0  0  0  0  0  0  0  0
  -17.4448  -39.8614   -8.0980 C   0  0  2  0  0  0  0  0  0  0  0  0
  -18.2348  -39.8168   -6.8451 C   0  0  0  0  0  0  0  0  0  0  0  0
  -19.3486  -38.7503   -6.8976 C   0  0  2  0  0  0  0  0  0  0  0  0
  -19.3099  -37.8376   -5.7180 C   0  0  0  0  0  0  0  0  0  0  0  0
  -20.6792  -39.3885   -7.1272 C   0  0  0  0  0  0  0  0  0  0  0  0
  -21.8606  -38.5240   -6.8094 C   0  0  0  0  0  0  0  0  0  0  0  0
  -23.1562  -39.1343   -7.3225 C   0  0  0  0  0  0  0  0  0  0  0  0
  -23.4076  -40.5065   -6.7893 C   0  0  0  0  0  0  0  0  0  0  0  0
  -23.8188  -41.4916   -7.8671 C   0  0  0  0  0  0  0  0  0  0  0  0
  -24.2291  -42.7766   -7.1927 C   0  0  0  0  0  0  0  0  0  0  0  0
  -23.1846  -43.8682   -7.3472 C   0  0  0  0  0  0  0  0  0  0  0  0
  -22.1762  -43.8370   -6.2459 C   0  0  0  0  0  0  0  0  0  0  0  0
  -20.7784  -43.7622   -6.7830 C   0  0  0  0  0  0  0  0  0  0  0  0
  -20.1764  -42.8916   -7.6519 C   0  0  0  0  0  0  0  0  0  0  0  0
  -18.8187  -43.0880   -7.8718 C   0  0  0  0  0  0  0  0  0  0  0  0
  -18.1473  -44.1462   -7.2095 C   0  0  0  0  0  0  0  0  0  0  0  0
  -18.7733  -45.0104   -6.3412 C   0  0  0  0  0  0  0  0  0  0  0  0
  -20.0608  -44.7821   -6.1649 N   0  0  0  0  0  0  0  0  0  0  0  0
  -17.8633  -42.3476   -8.7084 C   0  0  0  0  0  0  0  0  0  0  0  0
  -17.0296  -43.1509   -9.3578 O   0  0  0  0  0  0  0  0  0  0  0  0
  -17.6464  -40.9901   -8.9638 N   0  0  0  0  0  0  0  0  0  0  0  0
  -12.7370  -37.7425  -10.9654 C   0  0  0  0  0  0  0  0  0  0  0  0
  1  2  1  0
  2  3  1  0
  2  4  1  0
  4  5  2  0
  5  6  1  0
  6  7  2  0
  7  8  1  0
  8  9  1  0
  9 10  1  0
 10 11  1  0
 11 12  1  0
 12 13  1  1
 12 14  1  0
 14 15  1  1
 15 16  1  0
 16 17  1  1
 16 18  1  0
 18 19  1  0
 19 20  1  0
 20 21  1  0
 21 22  1  0
 22 23  1  0
 23 24  1  0
 24 25  1  0
 25 26  1  0
 26 27  2  0
 27 28  1  0
 28 29  2  0
 29 30  1  0
 30 31  2  0
 28 32  1  0
 32 33  2  0
 32 34  1  0
  8 35  2  0
 31 26  1  0
 34 14  1  0
 35  4  1  0
M  END
$$$$
