
     RDKit          3D

 35 37  0  0  0  0  0  0  0  0999 V2000
  -11.5749  -34.8615  -12.8049 C   0  0  0  0  0  0  0  0  0  0  0  0
  -11.1179  -35.8935  -11.8035 C   0  0  0  0  0  0  0  0  0  0  0  0
   -9.6251  -36.1423  -11.9073 C   0  0  0  0  0  0  0  0  0  0  0  0
  -11.9025  -37.1201  -11.9670 C   0  0  0  0  0  0  0  0  0  0  0  0
  -11.2867  -38.2597  -12.4381 C   0  0  0  0  0  0  0  0  0  0  0  0
  -11.9562  -39.4562  -12.6203 C   0  0  0  0  0  0  0  0  0  0  0  0
  -13.2903  -39.4779  -12.3097 C   0  0  0  0  0  0  0  0  0  0  0  0
  -13.9764  -38.3844  -11.8347 C   0  0  0  0  0  0  0  0  0  0  0  0
  -15.4335  -38.4405  -11.5046 C   0  0  0  0  0  0  0  0  0  0  0  0
  -15.5693  -38.1932  -10.1043 N   0  0  0  0  0  0  0  0  0  0  0  0
  -15.3811  -39.3521   -9.2612 C   0  0  0  0  0  0  0  0  0  0  0  0
  -16.1894  -39.1932   -8.0384 C   0  0  1  0  0  0  0  0  0  0  0  0
  -16.1024  -37.9630   -7.4419 O   0  0  0  0  0  0  0  0  0  0  0  0
  -17.6884  -39.4995   -8.2208 C   0  0  2  0  0  0  0  0  0  0  0  0
  -18.3163  -40.0303   -6.9881 C   0  0  0  0  0  0  0  0  0  0  0  0
  -19.5087  -39.1674   -6.5248 C   0  0  2  0  0  0  0  0  0  0  0  0
  -19.3947  -38.7739   -5.0902 C   0  0  0  0  0  0  0  0  0  0  0  0
  -20.8030  -39.8267   -6.8718 C   0  0  0  0  0  0  0  0  0  0  0  0
  -21.9998  -39.2978   -6.1424 C   0  0  0  0  0  0  0  0  0  0  0  0
  -23.2972  -39.8197   -6.7413 C   0  0  0  0  0  0  0  0  0  0  0  0
  -23.3708  -41.3111   -6.7677 C   0  0  0  0  0  0  0  0  0  0  0  0
  -23.8347  -41.8549   -8.1057 C   0  0  0  0  0  0  0  0  0  0  0  0
  -24.0547  -43.3392   -7.9551 C   0  0  0  0  0  0  0  0  0  0  0  0
  -22.9550  -44.1550   -8.6120 C   0  0  0  0  0  0  0  0  0  0  0  0
  -21.8223  -44.4225   -7.6761 C   0  0  0  0  0  0  0  0  0  0  0  0
  -20.5130  -43.9804   -8.2576 C   0  0  0  0  0  0  0  0  0  0  0  0
  -20.0951  -42.7790   -8.7647 C   0  0  0  0  0  0  0  0  0  0  0  0
  -18.7644  -42.7110   -9.1582 C   0  0  0  0  0  0  0  0  0  0  0  0
  -17.9340  -43.8516   -9.0219 C   0  0  0  0  0  0  0  0  0  0  0  0
  -18.3762  -45.0499   -8.5107 C   0  0  0  0  0  0  0  0  0  0  0  0
  -19.6455  -45.0635   -8.1507 N   0  0  0  0  0  0  0  0  0  0  0  0
  -17.9826  -41.5983   -9.7166 C   0  0  0  0  0  0  0  0  0  0  0  0
  -17.1760  -41.9872  -10.6965 O   0  0  0  0  0  0  0  0  0  0  0  0
  -17.9072  -40.2301   -9.4384 N   0  0  0  0  0  0  0  0  0  0  0  0
  -13.2461  -37.2174  -11.6754 C   0  0  0  0  0  0  0  0  0  0  0  0
  1  2  1  0
  2  3  1  0
  2  4  1  0
  4  5  2  0
  5  6  1  0
  6  7  2  0
  7  8  1  0
  8  9  1  0
  9 10  1  0
 10 11  1  0
 11 12  1  0
 12 13  1  6
 12 14  1  0
 14 15  1  1
 15 16  1  0
 16 17  1  1
 16 18  1  0
 18 19  1  0
 19 20  1  0
 20 21  1  0
 21 22  1  0
 22 23  1  0
 23 24  1  0
 24 25  1  0
 25 26  1  0
 26 27  2  0
 27 28  1  0
 28 29  2  0
 29 30  1  0
 30 31  2  0
 28 32  1  0
 32 33  2  0
 32 34  1  0
  8 35  2  0
 31 26  1  0
 34 14  1  0
 35  4  1  0
M  END
$$$$
