
     RDKit          3D

 35 37  0  0  0  0  0  0  0  0999 V2000
  -11.6037  -35.4694  -13.9324 C   0  0  0  0  0  0  0  0  0  0  0  0
  -10.9064  -36.0337  -12.7192 C   0  0  0  0  0  0  0  0  0  0  0  0
   -9.4861  -36.4562  -13.0436 C   0  0  0  0  0  0  0  0  0  0  0  0
  -11.7020  -37.1290  -12.1586 C   0  0  0  0  0  0  0  0  0  0  0  0
  -11.3917  -38.4301  -12.4914 C   0  0  0  0  0  0  0  0  0  0  0  0
  -12.0929  -39.5188  -12.0054 C   0  0  0  0  0  0  0  0  0  0  0  0
  -13.1372  -39.2599  -11.1574 C   0  0  0  0  0  0  0  0  0  0  0  0
  -13.5090  -37.9914  -10.7773 C   0  0  0  0  0  0  0  0  0  0  0  0
  -14.6545  -37.7419   -9.8494 C   0  0  0  0  0  0  0  0  0  0  0  0
  -14.3412  -38.3598   -8.6002 N   0  0  0  0  0  0  0  0  0  0  0  0
  -14.9752  -39.6398   -8.3791 C   0  0  0  0  0  0  0  0  0  0  0  0
  -15.8731  -39.5367   -7.2142 C   0  0  1  0  0  0  0  0  0  0  0  0
  -15.8436  -38.3308   -6.5648 O   0  0  0  0  0  0  0  0  0  0  0  0
  -17.3511  -39.8473   -7.5191 C   0  0  2  0  0  0  0  0  0  0  0  0
  -18.1472  -40.0920   -6.2934 C   0  0  0  0  0  0  0  0  0  0  0  0
  -19.3468  -39.1286   -6.1772 C   0  0  2  0  0  0  0  0  0  0  0  0
  -19.3901  -38.4409   -4.8539 C   0  0  0  0  0  0  0  0  0  0  0  0
  -20.6179  -39.8229   -6.5417 C   0  0  0  0  0  0  0  0  0  0  0  0
  -21.8693  -39.1291   -6.0982 C   0  0  0  0  0  0  0  0  0  0  0  0
  -23.1067  -39.7426   -6.7360 C   0  0  0  0  0  0  0  0  0  0  0  0
  -23.2435  -41.2039   -6.4595 C   0  0  0  0  0  0  0  0  0  0  0  0
  -23.5657  -42.0115   -7.7026 C   0  0  0  0  0  0  0  0  0  0  0  0
  -23.8689  -43.4254   -7.2747 C   0  0  0  0  0  0  0  0  0  0  0  0
  -22.7355  -44.3823   -7.6004 C   0  0  0  0  0  0  0  0  0  0  0  0
  -21.7378  -44.4651   -6.4921 C   0  0  0  0  0  0  0  0  0  0  0  0
  -20.3491  -44.1810   -6.9805 C   0  0  0  0  0  0  0  0  0  0  0  0
  -19.8191  -43.1229   -7.6696 C   0  0  0  0  0  0  0  0  0  0  0  0
  -18.4488  -43.1645   -7.8949 C   0  0  0  0  0  0  0  0  0  0  0  0
  -17.6933  -44.2650   -7.4182 C   0  0  0  0  0  0  0  0  0  0  0  0
  -18.2477  -45.3187   -6.7289 C   0  0  0  0  0  0  0  0  0  0  0  0
  -19.5506  -45.2322   -6.5396 N   0  0  0  0  0  0  0  0  0  0  0  0
  -17.5558  -42.2107   -8.5685 C   0  0  0  0  0  0  0  0  0  0  0  0
  -16.6547  -42.8139   -9.3341 O   0  0  0  0  0  0  0  0  0  0  0  0
  -17.4532  -40.8162   -8.5750 N   0  0  0  0  0  0  0  0  0  0  0  0
  -12.7648  -36.9458  -11.3004 C   0  0  0  0  0  0  0  0  0  0  0  0
  1  2  1  0
  2  3  1  0
  2  4  1  0
  4  5  2  0
  5  6  1  0
  6  7  2  0
  7  8  1  0
  8  9  1  0
  9 10  1  0
 10 11  1  0
 11 12  1  0
 12 13  1  6
 12 14  1  0
 14 15  1  1
 15 16  1  0
 16 17  1  1
 16 18  1  0
 18 19  1  0
 19 20  1  0
 20 21  1  0
 21 22  1  0
 22 23  1  0
 23 24  1  0
 24 25  1  0
 25 26  1  0
 26 27  2  0
 27 28  1  0
 28 29  2  0
 29 30  1  0
 30 31  2  0
 28 32  1  0
 32 33  2  0
 32 34  1  0
  8 35  2  0
 31 26  1  0
 34 14  1  0
 35  4  1  0
M  END
$$$$
