
     RDKit          3D

 35 37  0  0  0  0  0  0  0  0999 V2000
  -15.6403  -41.8582  -12.8766 C   0  0  0  0  0  0  0  0  0  0  0  0
  -14.4885  -41.0116  -13.3596 C   0  0  0  0  0  0  0  0  0  0  0  0
  -13.2115  -41.8234  -13.4660 C   0  0  0  0  0  0  0  0  0  0  0  0
  -14.3376  -39.8423  -12.4896 C   0  0  0  0  0  0  0  0  0  0  0  0
  -14.6062  -38.5867  -12.9908 C   0  0  0  0  0  0  0  0  0  0  0  0
  -14.4881  -37.4340  -12.2355 C   0  0  0  0  0  0  0  0  0  0  0  0
  -14.0843  -37.5795  -10.9345 C   0  0  0  0  0  0  0  0  0  0  0  0
  -13.7980  -38.7963  -10.3608 C   0  0  0  0  0  0  0  0  0  0  0  0
  -13.3592  -38.9217   -8.9370 C   0  0  0  0  0  0  0  0  0  0  0  0
  -14.4804  -38.6068   -8.1099 N   0  0  0  0  0  0  0  0  0  0  0  0
  -15.0212  -39.7232   -7.3680 C   0  0  0  0  0  0  0  0  0  0  0  0
  -16.2254  -39.2798   -6.6420 C   0  0  1  0  0  0  0  0  0  0  0  0
  -16.2601  -37.9444   -6.3383 O   0  0  0  0  0  0  0  0  0  0  0  0
  -17.5541  -39.6154   -7.3462 C   0  0  2  0  0  0  0  0  0  0  0  0
  -18.5802  -40.1338   -6.4113 C   0  0  0  0  0  0  0  0  0  0  0  0
  -19.8674  -39.2832   -6.4307 C   0  0  2  0  0  0  0  0  0  0  0  0
  -20.2835  -38.8608   -5.0616 C   0  0  0  0  0  0  0  0  0  0  0  0
  -20.9425  -39.9713   -7.2061 C   0  0  0  0  0  0  0  0  0  0  0  0
  -22.3269  -39.4497   -6.9710 C   0  0  0  0  0  0  0  0  0  0  0  0
  -23.3152  -40.0052   -7.9855 C   0  0  0  0  0  0  0  0  0  0  0  0
  -23.3602  -41.4979   -8.0012 C   0  0  0  0  0  0  0  0  0  0  0  0
  -23.3039  -42.0747   -9.4031 C   0  0  0  0  0  0  0  0  0  0  0  0
  -23.5495  -43.5596   -9.3067 C   0  0  0  0  0  0  0  0  0  0  0  0
  -22.2790  -44.3683   -9.5024 C   0  0  0  0  0  0  0  0  0  0  0  0
  -21.5588  -44.5984   -8.2144 C   0  0  0  0  0  0  0  0  0  0  0  0
  -20.1321  -44.1447   -8.2940 C   0  0  0  0  0  0  0  0  0  0  0  0
  -19.5704  -42.9460   -8.6444 C   0  0  0  0  0  0  0  0  0  0  0  0
  -18.1882  -42.8622   -8.5322 C   0  0  0  0  0  0  0  0  0  0  0  0
  -17.4526  -43.9855   -8.0779 C   0  0  0  0  0  0  0  0  0  0  0  0
  -18.0384  -45.1814   -7.7326 C   0  0  0  0  0  0  0  0  0  0  0  0
  -19.3518  -45.2103   -7.8552 N   0  0  0  0  0  0  0  0  0  0  0  0
  -17.2679  -41.7469   -8.7967 C   0  0  0  0  0  0  0  0  0  0  0  0
  -16.1580  -42.1400   -9.4096 O   0  0  0  0  0  0  0  0  0  0  0  0
  -17.3110  -40.3725   -8.5428 N   0  0  0  0  0  0  0  0  0  0  0  0
  -13.9365  -39.9109  -11.1727 C   0  0  0  0  0  0  0  0  0  0  0  0
  1  2  1  0
  2  3  1  0
  2  4  1  0
  4  5  2  0
  5  6  1  0
  6  7  2  0
  7  8  1  0
  8  9  1  0
  9 10  1  0
 10 11  1  0
 11 12  1  0
 12 13  1  6
 12 14  1  0
 14 15  1  1
 15 16  1  0
 16 17  1  1
 16 18  1  0
 18 19  1  0
 19 20  1  0
 20 21  1  0
 21 22  1  0
 22 23  1  0
 23 24  1  0
 24 25  1  0
 25 26  1  0
 26 27  2  0
 27 28  1  0
 28 29  2  0
 29 30  1  0
 30 31  2  0
 28 32  1  0
 32 33  2  0
 32 34  1  0
  8 35  2  0
 31 26  1  0
 34 14  1  0
 35  4  1  0
M  END
$$$$
