
     RDKit          3D

 35 37  0  0  0  0  0  0  0  0999 V2000
  -14.4871  -42.5124  -13.5798 C   0  0  0  0  0  0  0  0  0  0  0  0
  -13.2785  -41.6097  -13.6123 C   0  0  0  0  0  0  0  0  0  0  0  0
  -12.0285  -42.3420  -13.1627 C   0  0  0  0  0  0  0  0  0  0  0  0
  -13.5399  -40.4075  -12.8165 C   0  0  0  0  0  0  0  0  0  0  0  0
  -14.3223  -39.4031  -13.3446 C   0  0  0  0  0  0  0  0  0  0  0  0
  -14.6157  -38.2384  -12.6587 C   0  0  0  0  0  0  0  0  0  0  0  0
  -14.0907  -38.1068  -11.4002 C   0  0  0  0  0  0  0  0  0  0  0  0
  -13.3020  -39.0628  -10.8035 C   0  0  0  0  0  0  0  0  0  0  0  0
  -12.7438  -38.8890   -9.4274 C   0  0  0  0  0  0  0  0  0  0  0  0
  -13.8455  -38.7652   -8.5266 N   0  0  0  0  0  0  0  0  0  0  0  0
  -14.3949  -40.0189   -8.0622 C   0  0  0  0  0  0  0  0  0  0  0  0
  -15.4471  -39.7433   -7.0668 C   0  0  1  0  0  0  0  0  0  0  0  0
  -15.3832  -38.5052   -6.4838 O   0  0  0  0  0  0  0  0  0  0  0  0
  -16.8845  -39.9187   -7.5934 C   0  0  2  0  0  0  0  0  0  0  0  0
  -17.8806  -40.0395   -6.5030 C   0  0  0  0  0  0  0  0  0  0  0  0
  -18.9790  -38.9599   -6.5965 C   0  0  2  0  0  0  0  0  0  0  0  0
  -19.1549  -38.2234   -5.3109 C   0  0  0  0  0  0  0  0  0  0  0  0
  -20.2429  -39.5393   -7.1414 C   0  0  0  0  0  0  0  0  0  0  0  0
  -21.4701  -38.7108   -6.9143 C   0  0  0  0  0  0  0  0  0  0  0  0
  -22.6507  -39.2232   -7.7255 C   0  0  0  0  0  0  0  0  0  0  0  0
  -22.9772  -40.6530   -7.4436 C   0  0  0  0  0  0  0  0  0  0  0  0
  -23.1850  -41.4700   -8.7048 C   0  0  0  0  0  0  0  0  0  0  0  0
  -23.6935  -42.8310   -8.3005 C   0  0  0  0  0  0  0  0  0  0  0  0
  -22.6273  -43.9054   -8.4243 C   0  0  0  0  0  0  0  0  0  0  0  0
  -21.8261  -44.0449   -7.1717 C   0  0  0  0  0  0  0  0  0  0  0  0
  -20.3570  -43.9159   -7.4420 C   0  0  0  0  0  0  0  0  0  0  0  0
  -19.6218  -42.9406   -8.0612 C   0  0  0  0  0  0  0  0  0  0  0  0
  -18.2447  -43.1242   -8.0678 C   0  0  0  0  0  0  0  0  0  0  0  0
  -17.6882  -44.2751   -7.4556 C   0  0  0  0  0  0  0  0  0  0  0  0
  -18.4469  -45.2437   -6.8402 C   0  0  0  0  0  0  0  0  0  0  0  0
  -19.7477  -45.0233   -6.8595 N   0  0  0  0  0  0  0  0  0  0  0  0
  -17.1657  -42.2875   -8.6126 C   0  0  0  0  0  0  0  0  0  0  0  0
  -16.2240  -43.0034   -9.2146 O   0  0  0  0  0  0  0  0  0  0  0  0
  -16.9213  -40.9109   -8.6318 N   0  0  0  0  0  0  0  0  0  0  0  0
  -13.0468  -40.2052  -11.5454 C   0  0  0  0  0  0  0  0  0  0  0  0
  1  2  1  0
  2  3  1  0
  2  4  1  0
  4  5  2  0
  5  6  1  0
  6  7  2  0
  7  8  1  0
  8  9  1  0
  9 10  1  0
 10 11  1  0
 11 12  1  0
 12 13  1  6
 12 14  1  0
 14 15  1  1
 15 16  1  0
 16 17  1  1
 16 18  1  0
 18 19  1  0
 19 20  1  0
 20 21  1  0
 21 22  1  0
 22 23  1  0
 23 24  1  0
 24 25  1  0
 25 26  1  0
 26 27  2  0
 27 28  1  0
 28 29  2  0
 29 30  1  0
 30 31  2  0
 28 32  1  0
 32 33  2  0
 32 34  1  0
  8 35  2  0
 31 26  1  0
 34 14  1  0
 35  4  1  0
M  END
$$$$
