
     RDKit          3D

 35 37  0  0  0  0  0  0  0  0999 V2000
  -14.5158  -35.4547  -12.3210 C   0  0  0  0  0  0  0  0  0  0  0  0
  -13.1792  -35.9283  -12.8364 C   0  0  0  0  0  0  0  0  0  0  0  0
  -13.2541  -36.3069  -14.3034 C   0  0  0  0  0  0  0  0  0  0  0  0
  -12.6892  -37.0265  -11.9992 C   0  0  0  0  0  0  0  0  0  0  0  0
  -11.4241  -36.9519  -11.4571 C   0  0  0  0  0  0  0  0  0  0  0  0
  -10.8885  -37.9451  -10.6573 C   0  0  0  0  0  0  0  0  0  0  0  0
  -11.6750  -39.0394  -10.4110 C   0  0  0  0  0  0  0  0  0  0  0  0
  -12.9464  -39.1883  -10.9141 C   0  0  0  0  0  0  0  0  0  0  0  0
  -13.7801  -40.3957  -10.6266 C   0  0  0  0  0  0  0  0  0  0  0  0
  -14.2220  -40.3031   -9.2714 N   0  0  0  0  0  0  0  0  0  0  0  0
  -14.8679  -39.0569   -8.9264 C   0  0  0  0  0  0  0  0  0  0  0  0
  -15.6842  -39.2578   -7.7151 C   0  0  1  0  0  0  0  0  0  0  0  0
  -15.5684  -38.2742   -6.7686 O   0  0  0  0  0  0  0  0  0  0  0  0
  -17.1893  -39.4474   -7.9849 C   0  0  2  0  0  0  0  0  0  0  0  0
  -17.9580  -39.7360   -6.7513 C   0  0  0  0  0  0  0  0  0  0  0  0
  -19.0854  -38.7094   -6.5150 C   0  0  2  0  0  0  0  0  0  0  0  0
  -19.0372  -38.1267   -5.1423 C   0  0  0  0  0  0  0  0  0  0  0  0
  -20.4119  -39.2892   -6.8815 C   0  0  0  0  0  0  0  0  0  0  0  0
  -21.5979  -38.5533   -6.3378 C   0  0  0  0  0  0  0  0  0  0  0  0
  -22.8948  -39.0335   -6.9717 C   0  0  0  0  0  0  0  0  0  0  0  0
  -23.1203  -40.5001   -6.8025 C   0  0  0  0  0  0  0  0  0  0  0  0
  -23.5382  -41.1847   -8.0901 C   0  0  0  0  0  0  0  0  0  0  0  0
  -23.9213  -42.6055   -7.7600 C   0  0  0  0  0  0  0  0  0  0  0  0
  -22.8667  -43.6049   -8.2019 C   0  0  0  0  0  0  0  0  0  0  0  0
  -21.8398  -43.8390   -7.1430 C   0  0  0  0  0  0  0  0  0  0  0  0
  -20.4525  -43.6075   -7.6622 C   0  0  0  0  0  0  0  0  0  0  0  0
  -19.8761  -42.5348   -8.2886 C   0  0  0  0  0  0  0  0  0  0  0  0
  -18.5202  -42.6468   -8.5698 C   0  0  0  0  0  0  0  0  0  0  0  0
  -17.8247  -43.8279   -8.2084 C   0  0  0  0  0  0  0  0  0  0  0  0
  -18.4251  -44.8947   -7.5806 C   0  0  0  0  0  0  0  0  0  0  0  0
  -19.7121  -44.7394   -7.3344 N   0  0  0  0  0  0  0  0  0  0  0  0
  -17.5883  -41.7025   -9.2030 C   0  0  0  0  0  0  0  0  0  0  0  0
  -16.7564  -42.3004  -10.0470 O   0  0  0  0  0  0  0  0  0  0  0  0
  -17.3923  -40.3214   -9.1069 N   0  0  0  0  0  0  0  0  0  0  0  0
  -13.4224  -38.1567  -11.7079 C   0  0  0  0  0  0  0  0  0  0  0  0
  1  2  1  0
  2  3  1  0
  2  4  1  0
  4  5  2  0
  5  6  1  0
  6  7  2  0
  7  8  1  0
  8  9  1  0
  9 10  1  0
 10 11  1  0
 11 12  1  0
 12 13  1  1
 12 14  1  0
 14 15  1  1
 15 16  1  0
 16 17  1  1
 16 18  1  0
 18 19  1  0
 19 20  1  0
 20 21  1  0
 21 22  1  0
 22 23  1  0
 23 24  1  0
 24 25  1  0
 25 26  1  0
 26 27  2  0
 27 28  1  0
 28 29  2  0
 29 30  1  0
 30 31  2  0
 28 32  1  0
 32 33  2  0
 32 34  1  0
  8 35  2  0
 31 26  1  0
 34 14  1  0
 35  4  1  0
M  END
$$$$
