
     RDKit          3D

 35 37  0  0  0  0  0  0  0  0999 V2000
  -14.5295  -34.7879  -13.0918 C   0  0  0  0  0  0  0  0  0  0  0  0
  -14.0770  -35.3875  -11.7833 C   0  0  0  0  0  0  0  0  0  0  0  0
  -12.6945  -34.8962  -11.3980 C   0  0  0  0  0  0  0  0  0  0  0  0
  -14.1507  -36.8489  -11.8592 C   0  0  0  0  0  0  0  0  0  0  0  0
  -14.8980  -37.4380  -12.8564 C   0  0  0  0  0  0  0  0  0  0  0  0
  -15.0183  -38.8087  -12.9966 C   0  0  0  0  0  0  0  0  0  0  0  0
  -14.3530  -39.5892  -12.0884 C   0  0  0  0  0  0  0  0  0  0  0  0
  -13.5875  -39.0784  -11.0661 C   0  0  0  0  0  0  0  0  0  0  0  0
  -12.8732  -39.9577  -10.0904 C   0  0  0  0  0  0  0  0  0  0  0  0
  -13.7020  -40.0821   -8.9336 N   0  0  0  0  0  0  0  0  0  0  0  0
  -15.1227  -40.0407   -9.1963 C   0  0  0  0  0  0  0  0  0  0  0  0
  -15.8436  -39.8926   -7.9187 C   0  0  1  0  0  0  0  0  0  0  0  0
  -15.6081  -38.7186   -7.2530 O   0  0  0  0  0  0  0  0  0  0  0  0
  -17.3726  -40.0488   -8.0277 C   0  0  2  0  0  0  0  0  0  0  0  0
  -18.0379  -40.0865   -6.7041 C   0  0  0  0  0  0  0  0  0  0  0  0
  -19.1024  -38.9792   -6.5566 C   0  0  2  0  0  0  0  0  0  0  0  0
  -18.9112  -38.1769   -5.3133 C   0  0  0  0  0  0  0  0  0  0  0  0
  -20.4762  -39.5450   -6.7081 C   0  0  0  0  0  0  0  0  0  0  0  0
  -21.5819  -38.6691   -6.2039 C   0  0  0  0  0  0  0  0  0  0  0  0
  -22.9465  -39.1832   -6.6374 C   0  0  0  0  0  0  0  0  0  0  0  0
  -23.2083  -40.5871   -6.2004 C   0  0  0  0  0  0  0  0  0  0  0  0
  -23.7635  -41.4569   -7.3124 C   0  0  0  0  0  0  0  0  0  0  0  0
  -24.1661  -42.7806   -6.7125 C   0  0  0  0  0  0  0  0  0  0  0  0
  -23.1914  -43.8920   -7.0606 C   0  0  0  0  0  0  0  0  0  0  0  0
  -22.0832  -43.9959   -6.0648 C   0  0  0  0  0  0  0  0  0  0  0  0
  -20.7404  -43.9254   -6.7279 C   0  0  0  0  0  0  0  0  0  0  0  0
  -20.1843  -43.0039   -7.5746 C   0  0  0  0  0  0  0  0  0  0  0  0
  -18.8637  -43.2299   -7.9423 C   0  0  0  0  0  0  0  0  0  0  0  0
  -18.1814  -44.3668   -7.4412 C   0  0  0  0  0  0  0  0  0  0  0  0
  -18.7611  -45.2809   -6.5921 C   0  0  0  0  0  0  0  0  0  0  0  0
  -20.0145  -45.0218   -6.2718 N   0  0  0  0  0  0  0  0  0  0  0  0
  -17.9590  -42.4539   -8.8027 C   0  0  0  0  0  0  0  0  0  0  0  0
  -17.2276  -43.2266   -9.5964 O   0  0  0  0  0  0  0  0  0  0  0  0
  -17.7059  -41.0880   -8.9621 N   0  0  0  0  0  0  0  0  0  0  0  0
  -13.5092  -37.6972  -10.9826 C   0  0  0  0  0  0  0  0  0  0  0  0
  1  2  1  0
  2  3  1  0
  2  4  1  0
  4  5  2  0
  5  6  1  0
  6  7  2  0
  7  8  1  0
  8  9  1  0
  9 10  1  0
 10 11  1  0
 11 12  1  0
 12 13  1  6
 12 14  1  0
 14 15  1  1
 15 16  1  0
 16 17  1  1
 16 18  1  0
 18 19  1  0
 19 20  1  0
 20 21  1  0
 21 22  1  0
 22 23  1  0
 23 24  1  0
 24 25  1  0
 25 26  1  0
 26 27  2  0
 27 28  1  0
 28 29  2  0
 29 30  1  0
 30 31  2  0
 28 32  1  0
 32 33  2  0
 32 34  1  0
  8 35  2  0
 31 26  1  0
 34 14  1  0
 35  4  1  0
M  END
$$$$
