
     RDKit          3D

 38 40  0  0  0  0  0  0  0  0999 V2000
  -18.6770  -36.9789   -8.7330 C   0  0  0  0  0  0  0  0  0  0  0  0
  -19.6150  -38.0704   -8.1707 C   0  0  2  0  0  0  0  0  0  0  0  0
  -20.5536  -37.3609   -7.2754 C   0  0  0  0  0  0  0  0  0  0  0  0
  -21.4022  -38.2464   -6.3687 C   0  0  0  0  0  0  0  0  0  0  0  0
  -22.2279  -39.1794   -7.2029 C   0  0  0  0  0  0  0  0  0  0  0  0
  -23.4346  -39.6366   -7.1940 C   0  0  0  0  0  0  0  0  0  0  0  0
  -24.2389  -40.5730   -8.0415 C   0  0  0  0  0  0  0  0  0  0  0  0
  -24.6966  -41.6945   -7.0863 C   0  0  0  0  0  0  0  0  0  0  0  0
  -23.7044  -41.8230   -5.9978 C   0  0  0  0  0  0  0  0  0  0  0  0
  -22.7955  -42.9634   -6.1328 N   0  0  0  0  0  0  0  0  0  0  0  0
  -21.3961  -43.0160   -6.4113 C   0  0  0  0  0  0  0  0  0  0  0  0
  -20.6273  -42.4134   -7.3918 C   0  0  0  0  0  0  0  0  0  0  0  0
  -19.2610  -42.6396   -7.4084 C   0  0  0  0  0  0  0  0  0  0  0  0
  -18.6956  -43.4861   -6.4185 C   0  0  0  0  0  0  0  0  0  0  0  0
  -19.4189  -44.1017   -5.4341 C   0  0  0  0  0  0  0  0  0  0  0  0
  -18.7790  -44.9819   -4.4198 C   0  0  0  0  0  0  0  0  0  0  0  0
  -18.3554  -44.1625   -3.3878 O   0  0  0  0  0  0  0  0  0  0  0  0
  -20.7596  -43.8529   -5.4515 C   0  0  0  0  0  0  0  0  0  0  0  0
  -18.1927  -42.1580   -8.2910 C   0  0  0  0  0  0  0  0  0  0  0  0
  -17.2816  -43.0473   -8.6811 O   0  0  0  0  0  0  0  0  0  0  0  0
  -17.8854  -40.8959   -8.8558 N   0  0  0  0  0  0  0  0  0  0  0  0
  -17.6640  -39.6368   -8.2502 C   0  0  1  0  0  0  0  0  0  0  0  0
  -18.8012  -39.0936   -7.4116 C   0  0  0  0  0  0  0  0  0  0  0  0
  -16.3486  -39.5248   -7.4987 C   0  0  2  0  0  0  0  0  0  0  0  0
  -16.2860  -38.2452   -6.9460 O   0  0  0  0  0  0  0  0  0  0  0  0
  -15.1433  -39.7682   -8.3547 C   0  0  0  0  0  0  0  0  0  0  0  0
  -15.5054  -40.6476   -9.4376 N   0  0  0  0  0  0  0  0  0  0  0  0
  -14.5145  -41.5951   -9.8287 C   0  0  0  0  0  0  0  0  0  0  0  0
  -13.3511  -40.8121  -10.3835 C   0  0  0  0  0  0  0  0  0  0  0  0
  -13.1388  -39.4639  -10.4158 C   0  0  0  0  0  0  0  0  0  0  0  0
  -11.9230  -39.2485  -11.0236 C   0  0  0  0  0  0  0  0  0  0  0  0
  -11.2323  -37.9561  -11.3020 C   0  0  0  0  0  0  0  0  0  0  0  0
  -11.7560  -37.3214  -12.5708 C   0  0  0  0  0  0  0  0  0  0  0  0
  -11.8821  -38.3583  -13.6758 C   0  0  0  0  0  0  0  0  0  0  0  0
  -10.8928  -36.1959  -13.0436 C   0  0  0  0  0  0  0  0  0  0  0  0
  -13.1573  -36.8205  -12.2889 C   0  0  0  0  0  0  0  0  0  0  0  0
  -11.4488  -40.4314  -11.3325 O   0  0  0  0  0  0  0  0  0  0  0  0
  -12.2678  -41.3782  -10.9681 N   0  0  0  0  0  0  0  0  0  0  0  0
  2  1  1  1
  2  3  1  0
  3  4  1  0
  4  5  1  0
  5  6  2  0
  6  7  1  0
  7  8  1  0
  8  9  1  0
  9 10  1  0
 10 11  1  0
 11 12  1  0
 12 13  2  0
 13 14  1  0
 14 15  2  0
 15 16  1  0
 16 17  1  0
 15 18  1  0
 13 19  1  0
 19 20  2  0
 19 21  1  0
 21 22  1  0
 22 23  1  1
 22 24  1  0
 24 25  1  6
 24 26  1  0
 26 27  1  0
 27 28  1  0
 28 29  1  0
 29 30  1  0
 30 31  2  0
 31 32  1  0
 32 33  1  0
 33 34  1  0
 33 35  1  0
 33 36  1  0
 31 37  1  0
 37 38  1  0
 18 11  2  0
 23  2  1  0
 38 29  2  0
M  END
$$$$
