
     RDKit          3D

 38 40  0  0  0  0  0  0  0  0999 V2000
  -19.8455  -37.8969   -6.5577 C   0  0  0  0  0  0  0  0  0  0  0  0
  -20.2048  -39.3859   -6.7607 C   0  0  2  0  0  0  0  0  0  0  0  0
  -20.9710  -39.7743   -5.5573 C   0  0  0  0  0  0  0  0  0  0  0  0
  -21.1987  -41.2709   -5.3710 C   0  0  0  0  0  0  0  0  0  0  0  0
  -21.9452  -41.8190   -6.5500 C   0  0  0  0  0  0  0  0  0  0  0  0
  -22.9040  -42.6587   -6.7531 C   0  0  0  0  0  0  0  0  0  0  0  0
  -23.6345  -43.1929   -7.9460 C   0  0  0  0  0  0  0  0  0  0  0  0
  -23.4260  -44.7205   -7.8999 C   0  0  0  0  0  0  0  0  0  0  0  0
  -22.1460  -45.0029   -7.2159 C   0  0  0  0  0  0  0  0  0  0  0  0
  -21.0425  -45.3597   -8.1102 N   0  0  0  0  0  0  0  0  0  0  0  0
  -19.8503  -44.6526   -8.4526 C   0  0  0  0  0  0  0  0  0  0  0  0
  -19.6379  -43.3505   -8.8709 C   0  0  0  0  0  0  0  0  0  0  0  0
  -18.3431  -42.9277   -9.1214 C   0  0  0  0  0  0  0  0  0  0  0  0
  -17.2763  -43.8476   -8.9427 C   0  0  0  0  0  0  0  0  0  0  0  0
  -17.4427  -45.1420   -8.5328 C   0  0  0  0  0  0  0  0  0  0  0  0
  -16.2912  -46.0683   -8.3622 C   0  0  0  0  0  0  0  0  0  0  0  0
  -16.2408  -46.8589   -9.4972 O   0  0  0  0  0  0  0  0  0  0  0  0
  -18.7315  -45.5189   -8.2957 C   0  0  0  0  0  0  0  0  0  0  0  0
  -17.7942  -41.6407   -9.5625 C   0  0  0  0  0  0  0  0  0  0  0  0
  -16.8412  -41.6746  -10.4919 O   0  0  0  0  0  0  0  0  0  0  0  0
  -18.0546  -40.2939   -9.2094 N   0  0  0  0  0  0  0  0  0  0  0  0
  -18.0200  -39.6394   -7.9559 C   0  0  1  0  0  0  0  0  0  0  0  0
  -18.9365  -40.1986   -6.8887 C   0  0  0  0  0  0  0  0  0  0  0  0
  -16.6232  -39.4255   -7.3983 C   0  0  2  0  0  0  0  0  0  0  0  0
  -16.6854  -38.3577   -6.5024 O   0  0  0  0  0  0  0  0  0  0  0  0
  -15.5914  -39.1483   -8.4486 C   0  0  0  0  0  0  0  0  0  0  0  0
  -15.5177  -37.7263   -8.6717 N   0  0  0  0  0  0  0  0  0  0  0  0
  -16.0519  -37.2614   -9.9090 C   0  0  0  0  0  0  0  0  0  0  0  0
  -14.8901  -37.0973  -10.8565 C   0  0  0  0  0  0  0  0  0  0  0  0
  -13.5582  -37.3199  -10.6555 C   0  0  0  0  0  0  0  0  0  0  0  0
  -12.9054  -37.0285  -11.8315 C   0  0  0  0  0  0  0  0  0  0  0  0
  -11.4476  -37.1080  -12.1367 C   0  0  0  0  0  0  0  0  0  0  0  0
  -11.2088  -37.7360  -13.4915 C   0  0  0  0  0  0  0  0  0  0  0  0
  -10.3167  -38.9608  -13.3643 C   0  0  0  0  0  0  0  0  0  0  0  0
  -10.5995  -36.7782  -14.4646 C   0  0  0  0  0  0  0  0  0  0  0  0
  -12.5436  -38.2282  -14.0112 C   0  0  0  0  0  0  0  0  0  0  0  0
  -13.8280  -36.6500  -12.6830 O   0  0  0  0  0  0  0  0  0  0  0  0
  -15.0127  -36.6791  -12.1393 N   0  0  0  0  0  0  0  0  0  0  0  0
  2  1  1  1
  2  3  1  0
  3  4  1  0
  4  5  1  0
  5  6  2  0
  6  7  1  0
  7  8  1  0
  8  9  1  0
  9 10  1  0
 10 11  1  0
 11 12  1  0
 12 13  2  0
 13 14  1  0
 14 15  2  0
 15 16  1  0
 16 17  1  0
 15 18  1  0
 13 19  1  0
 19 20  2  0
 19 21  1  0
 21 22  1  0
 22 23  1  1
 22 24  1  0
 24 25  1  1
 24 26  1  0
 26 27  1  0
 27 28  1  0
 28 29  1  0
 29 30  1  0
 30 31  2  0
 31 32  1  0
 32 33  1  0
 33 34  1  0
 33 35  1  0
 33 36  1  0
 31 37  1  0
 37 38  1  0
 18 11  2  0
 23  2  1  0
 38 29  2  0
M  END
$$$$
