
     RDKit          3D

 38 40  0  0  0  0  0  0  0  0999 V2000
  -18.4251  -37.5100   -7.2320 C   0  0  0  0  0  0  0  0  0  0  0  0
  -19.2968  -38.7681   -7.0207 C   0  0  2  0  0  0  0  0  0  0  0  0
  -20.0714  -38.5087   -5.7883 C   0  0  0  0  0  0  0  0  0  0  0  0
  -20.7977  -39.7122   -5.1964 C   0  0  0  0  0  0  0  0  0  0  0  0
  -21.7634  -40.2642   -6.2016 C   0  0  0  0  0  0  0  0  0  0  0  0
  -22.9669  -40.7300   -6.1977 C   0  0  0  0  0  0  0  0  0  0  0  0
  -23.9137  -41.2791   -7.2196 C   0  0  0  0  0  0  0  0  0  0  0  0
  -24.2525  -42.7040   -6.7359 C   0  0  0  0  0  0  0  0  0  0  0  0
  -23.1121  -43.2203   -5.9492 C   0  0  0  0  0  0  0  0  0  0  0  0
  -22.2642  -44.1787   -6.6614 N   0  0  0  0  0  0  0  0  0  0  0  0
  -20.9243  -44.0656   -7.1414 C   0  0  0  0  0  0  0  0  0  0  0  0
  -20.2955  -43.0947   -7.9014 C   0  0  0  0  0  0  0  0  0  0  0  0
  -18.9536  -43.2463   -8.2090 C   0  0  0  0  0  0  0  0  0  0  0  0
  -18.2687  -44.3964   -7.7352 C   0  0  0  0  0  0  0  0  0  0  0  0
  -18.8524  -45.3790   -6.9836 C   0  0  0  0  0  0  0  0  0  0  0  0
  -18.0912  -46.5671   -6.5124 C   0  0  0  0  0  0  0  0  0  0  0  0
  -18.0536  -47.4633   -7.5666 O   0  0  0  0  0  0  0  0  0  0  0  0
  -20.1734  -45.1923   -6.7016 C   0  0  0  0  0  0  0  0  0  0  0  0
  -18.0173  -42.4146   -8.9730 C   0  0  0  0  0  0  0  0  0  0  0  0
  -17.1989  -43.0412   -9.8161 O   0  0  0  0  0  0  0  0  0  0  0  0
  -17.7648  -41.0218   -9.0252 N   0  0  0  0  0  0  0  0  0  0  0  0
  -17.4219  -40.1016   -8.0071 C   0  0  1  0  0  0  0  0  0  0  0  0
  -18.4057  -39.9792   -6.8631 C   0  0  0  0  0  0  0  0  0  0  0  0
  -16.0062  -40.2514   -7.4770 C   0  0  2  0  0  0  0  0  0  0  0  0
  -15.4847  -38.9697   -7.2982 O   0  0  0  0  0  0  0  0  0  0  0  0
  -15.1075  -41.0449   -8.3755 C   0  0  0  0  0  0  0  0  0  0  0  0
  -14.4838  -40.1548   -9.3221 N   0  0  0  0  0  0  0  0  0  0  0  0
  -14.5060  -40.5780  -10.6832 C   0  0  0  0  0  0  0  0  0  0  0  0
  -14.0157  -39.4181  -11.5132 C   0  0  0  0  0  0  0  0  0  0  0  0
  -14.5507  -38.1733  -11.6805 C   0  0  0  0  0  0  0  0  0  0  0  0
  -13.7253  -37.4768  -12.5334 C   0  0  0  0  0  0  0  0  0  0  0  0
  -13.8625  -36.0782  -13.0334 C   0  0  0  0  0  0  0  0  0  0  0  0
  -13.0887  -35.1116  -12.1653 C   0  0  0  0  0  0  0  0  0  0  0  0
  -13.9072  -33.8583  -11.8982 C   0  0  0  0  0  0  0  0  0  0  0  0
  -11.7765  -34.7268  -12.7700 C   0  0  0  0  0  0  0  0  0  0  0  0
  -12.8685  -35.7760  -10.8221 C   0  0  0  0  0  0  0  0  0  0  0  0
  -12.7469  -38.2909  -12.8488 O   0  0  0  0  0  0  0  0  0  0  0  0
  -12.8876  -39.4472  -12.2629 N   0  0  0  0  0  0  0  0  0  0  0  0
  2  1  1  1
  2  3  1  0
  3  4  1  0
  4  5  1  0
  5  6  2  0
  6  7  1  0
  7  8  1  0
  8  9  1  0
  9 10  1  0
 10 11  1  0
 11 12  1  0
 12 13  2  0
 13 14  1  0
 14 15  2  0
 15 16  1  0
 16 17  1  0
 15 18  1  0
 13 19  1  0
 19 20  2  0
 19 21  1  0
 21 22  1  0
 22 23  1  1
 22 24  1  0
 24 25  1  6
 24 26  1  0
 26 27  1  0
 27 28  1  0
 28 29  1  0
 29 30  1  0
 30 31  2  0
 31 32  1  0
 32 33  1  0
 33 34  1  0
 33 35  1  0
 33 36  1  0
 31 37  1  0
 37 38  1  0
 18 11  2  0
 23  2  1  0
 38 29  2  0
M  END
$$$$
