
     RDKit          3D

 38 40  0  0  0  0  0  0  0  0999 V2000
  -16.8073  -36.9884   -9.2497 C   0  0  0  0  0  0  0  0  0  0  0  0
  -16.4071  -38.4485   -9.5584 C   0  0  2  0  0  0  0  0  0  0  0  0
  -15.6844  -38.3952  -10.8472 C   0  0  0  0  0  0  0  0  0  0  0  0
  -15.4320  -39.7397  -11.5216 C   0  0  0  0  0  0  0  0  0  0  0  0
  -14.6241  -40.6170  -10.6130 C   0  0  0  0  0  0  0  0  0  0  0  0
  -13.6394  -41.4431  -10.7283 C   0  0  0  0  0  0  0  0  0  0  0  0
  -12.8473  -42.3124   -9.8015 C   0  0  0  0  0  0  0  0  0  0  0  0
  -13.0239  -43.7472  -10.3393 C   0  0  0  0  0  0  0  0  0  0  0  0
  -14.3253  -43.8347  -11.0355 C   0  0  0  0  0  0  0  0  0  0  0  0
  -15.3817  -44.5023  -10.2720 N   0  0  0  0  0  0  0  0  0  0  0  0
  -16.5735  -43.9879   -9.6774 C   0  0  0  0  0  0  0  0  0  0  0  0
  -16.7965  -42.9023   -8.8483 C   0  0  0  0  0  0  0  0  0  0  0  0
  -18.0885  -42.6299   -8.4304 C   0  0  0  0  0  0  0  0  0  0  0  0
  -19.1415  -43.4772   -8.8657 C   0  0  0  0  0  0  0  0  0  0  0  0
  -18.9642  -44.5598   -9.6828 C   0  0  0  0  0  0  0  0  0  0  0  0
  -20.1013  -45.4187  -10.1099 C   0  0  0  0  0  0  0  0  0  0  0  0
  -21.1974  -45.0374   -9.3556 O   0  0  0  0  0  0  0  0  0  0  0  0
  -17.6786  -44.7935  -10.0729 C   0  0  0  0  0  0  0  0  0  0  0  0
  -18.6463  -41.5777   -7.5736 C   0  0  0  0  0  0  0  0  0  0  0  0
  -19.5579  -41.9467   -6.6759 O   0  0  0  0  0  0  0  0  0  0  0  0
  -18.4307  -40.1813   -7.4737 N   0  0  0  0  0  0  0  0  0  0  0  0
  -18.5330  -39.1545   -8.4412 C   0  0  1  0  0  0  0  0  0  0  0  0
  -17.6507  -39.3018   -9.6624 C   0  0  0  0  0  0  0  0  0  0  0  0
  -19.9566  -38.8186   -8.8514 C   0  0  2  0  0  0  0  0  0  0  0  0
  -20.0276  -37.4376   -9.0369 O   0  0  0  0  0  0  0  0  0  0  0  0
  -20.9885  -39.2513   -7.8550 C   0  0  0  0  0  0  0  0  0  0  0  0
  -21.7750  -38.1081   -7.4660 N   0  0  0  0  0  0  0  0  0  0  0  0
  -22.8689  -38.3731   -6.5910 C   0  0  0  0  0  0  0  0  0  0  0  0
  -22.6244  -39.7293   -5.9783 C   0  0  0  0  0  0  0  0  0  0  0  0
  -22.4490  -40.0806   -4.6708 C   0  0  0  0  0  0  0  0  0  0  0  0
  -22.2649  -41.4437   -4.6273 C   0  0  0  0  0  0  0  0  0  0  0  0
  -22.0334  -42.3190   -3.4419 C   0  0  0  0  0  0  0  0  0  0  0  0
  -20.6461  -42.1134   -2.8762 C   0  0  0  0  0  0  0  0  0  0  0  0
  -19.8049  -43.3678   -3.0514 C   0  0  0  0  0  0  0  0  0  0  0  0
  -20.6706  -41.7311   -1.4310 C   0  0  0  0  0  0  0  0  0  0  0  0
  -19.9743  -41.0276   -3.6911 C   0  0  0  0  0  0  0  0  0  0  0  0
  -22.3311  -41.8660   -5.8669 O   0  0  0  0  0  0  0  0  0  0  0  0
  -22.5428  -40.8783   -6.6914 N   0  0  0  0  0  0  0  0  0  0  0  0
  2  1  1  6
  2  3  1  0
  3  4  1  0
  4  5  1  0
  5  6  2  0
  6  7  1  0
  7  8  1  0
  8  9  1  0
  9 10  1  0
 10 11  1  0
 11 12  1  0
 12 13  2  0
 13 14  1  0
 14 15  2  0
 15 16  1  0
 16 17  1  0
 15 18  1  0
 13 19  1  0
 19 20  2  0
 19 21  1  0
 21 22  1  0
 22 23  1  6
 22 24  1  0
 24 25  1  1
 24 26  1  0
 26 27  1  0
 27 28  1  0
 28 29  1  0
 29 30  1  0
 30 31  2  0
 31 32  1  0
 32 33  1  0
 33 34  1  0
 33 35  1  0
 33 36  1  0
 31 37  1  0
 37 38  1  0
 18 11  2  0
 23  2  1  0
 38 29  2  0
M  END
$$$$
