
     RDKit          3D

 38 40  0  0  0  0  0  0  0  0999 V2000
  -19.8972  -37.7760   -6.8114 C   0  0  0  0  0  0  0  0  0  0  0  0
  -20.5042  -39.1961   -6.7641 C   0  0  2  0  0  0  0  0  0  0  0  0
  -21.4144  -39.1974   -5.5990 C   0  0  0  0  0  0  0  0  0  0  0  0
  -21.9223  -40.5657   -5.1562 C   0  0  0  0  0  0  0  0  0  0  0  0
  -22.6670  -41.2170   -6.2827 C   0  0  0  0  0  0  0  0  0  0  0  0
  -23.7443  -41.9133   -6.4246 C   0  0  0  0  0  0  0  0  0  0  0  0
  -24.4696  -42.5567   -7.5656 C   0  0  0  0  0  0  0  0  0  0  0  0
  -24.5451  -44.0549   -7.2064 C   0  0  0  0  0  0  0  0  0  0  0  0
  -23.3912  -44.3939   -6.3464 C   0  0  0  0  0  0  0  0  0  0  0  0
  -22.3078  -45.1025   -7.0311 N   0  0  0  0  0  0  0  0  0  0  0  0
  -20.9854  -44.6849   -7.3708 C   0  0  0  0  0  0  0  0  0  0  0  0
  -20.5106  -43.5498   -8.0045 C   0  0  0  0  0  0  0  0  0  0  0  0
  -19.1457  -43.4042   -8.1892 C   0  0  0  0  0  0  0  0  0  0  0  0
  -18.2792  -44.4281   -7.7236 C   0  0  0  0  0  0  0  0  0  0  0  0
  -18.7068  -45.5650   -7.0947 C   0  0  0  0  0  0  0  0  0  0  0  0
  -17.7577  -46.6106   -6.6264 C   0  0  0  0  0  0  0  0  0  0  0  0
  -16.7843  -46.7348   -7.6026 O   0  0  0  0  0  0  0  0  0  0  0  0
  -20.0565  -45.6701   -6.9311 C   0  0  0  0  0  0  0  0  0  0  0  0
  -18.3420  -42.3429   -8.8057 C   0  0  0  0  0  0  0  0  0  0  0  0
  -17.3452  -42.7228   -9.6027 O   0  0  0  0  0  0  0  0  0  0  0  0
  -18.3796  -40.9282   -8.7466 N   0  0  0  0  0  0  0  0  0  0  0  0
  -18.3194  -40.0431   -7.6448 C   0  0  1  0  0  0  0  0  0  0  0  0
  -19.3980  -40.2128   -6.5963 C   0  0  0  0  0  0  0  0  0  0  0  0
  -16.9518  -39.9484   -6.9902 C   0  0  2  0  0  0  0  0  0  0  0  0
  -17.0705  -39.1053   -5.8849 O   0  0  0  0  0  0  0  0  0  0  0  0
  -15.8802  -39.4393   -7.9051 C   0  0  0  0  0  0  0  0  0  0  0  0
  -16.3567  -39.4943   -9.2641 N   0  0  0  0  0  0  0  0  0  0  0  0
  -15.4264  -39.9751  -10.2315 C   0  0  0  0  0  0  0  0  0  0  0  0
  -14.6661  -38.7779  -10.7444 C   0  0  0  0  0  0  0  0  0  0  0  0
  -15.0927  -37.5009  -10.9706 C   0  0  0  0  0  0  0  0  0  0  0  0
  -14.0168  -36.7786  -11.4339 C   0  0  0  0  0  0  0  0  0  0  0  0
  -13.9542  -35.3408  -11.8258 C   0  0  0  0  0  0  0  0  0  0  0  0
  -13.1480  -35.1564  -13.0919 C   0  0  0  0  0  0  0  0  0  0  0  0
  -11.7045  -35.5816  -12.8743 C   0  0  0  0  0  0  0  0  0  0  0  0
  -13.1798  -33.7463  -13.5878 C   0  0  0  0  0  0  0  0  0  0  0  0
  -13.7183  -36.0901  -14.1394 C   0  0  0  0  0  0  0  0  0  0  0  0
  -13.0031  -37.6094  -11.4748 O   0  0  0  0  0  0  0  0  0  0  0  0
  -13.3521  -38.8000  -11.0738 N   0  0  0  0  0  0  0  0  0  0  0  0
  2  1  1  1
  2  3  1  0
  3  4  1  0
  4  5  1  0
  5  6  2  0
  6  7  1  0
  7  8  1  0
  8  9  1  0
  9 10  1  0
 10 11  1  0
 11 12  1  0
 12 13  2  0
 13 14  1  0
 14 15  2  0
 15 16  1  0
 16 17  1  0
 15 18  1  0
 13 19  1  0
 19 20  2  0
 19 21  1  0
 21 22  1  0
 22 23  1  1
 22 24  1  0
 24 25  1  1
 24 26  1  0
 26 27  1  0
 27 28  1  0
 28 29  1  0
 29 30  1  0
 30 31  2  0
 31 32  1  0
 32 33  1  0
 33 34  1  0
 33 35  1  0
 33 36  1  0
 31 37  1  0
 37 38  1  0
 18 11  2  0
 23  2  1  0
 38 29  2  0
M  END
$$$$
