
     RDKit          3D

 38 40  0  0  0  0  0  0  0  0999 V2000
  -16.3929  -36.9205   -8.4722 C   0  0  0  0  0  0  0  0  0  0  0  0
  -15.7276  -37.8577   -9.5049 C   0  0  2  0  0  0  0  0  0  0  0  0
  -15.8153  -37.1456  -10.7977 C   0  0  0  0  0  0  0  0  0  0  0  0
  -15.4900  -37.9759  -12.0351 C   0  0  0  0  0  0  0  0  0  0  0  0
  -14.0923  -38.5086  -11.9330 C   0  0  0  0  0  0  0  0  0  0  0  0
  -13.0832  -38.6692  -12.7213 C   0  0  0  0  0  0  0  0  0  0  0  0
  -11.6917  -39.2075  -12.5952 C   0  0  0  0  0  0  0  0  0  0  0  0
  -11.6083  -40.3618  -13.6150 C   0  0  0  0  0  0  0  0  0  0  0  0
  -12.9610  -40.9294  -13.7988 C   0  0  0  0  0  0  0  0  0  0  0  0
  -13.1902  -42.1971  -13.1023 N   0  0  0  0  0  0  0  0  0  0  0  0
  -14.0174  -42.5123  -11.9820 C   0  0  0  0  0  0  0  0  0  0  0  0
  -14.1531  -41.9185  -10.7393 C   0  0  0  0  0  0  0  0  0  0  0  0
  -15.0652  -42.4439   -9.8391 C   0  0  0  0  0  0  0  0  0  0  0  0
  -15.8292  -43.5778  -10.2223 C   0  0  0  0  0  0  0  0  0  0  0  0
  -15.7249  -44.1952  -11.4385 C   0  0  0  0  0  0  0  0  0  0  0  0
  -16.5476  -45.3832  -11.7918 C   0  0  0  0  0  0  0  0  0  0  0  0
  -15.7863  -46.5006  -11.4957 O   0  0  0  0  0  0  0  0  0  0  0  0
  -14.8173  -43.6474  -12.2962 C   0  0  0  0  0  0  0  0  0  0  0  0
  -15.4418  -42.0535   -8.4760 C   0  0  0  0  0  0  0  0  0  0  0  0
  -15.5914  -43.0315   -7.5848 O   0  0  0  0  0  0  0  0  0  0  0  0
  -15.6999  -40.8087   -7.8513 N   0  0  0  0  0  0  0  0  0  0  0  0
  -16.6174  -39.7812   -8.1727 C   0  0  1  0  0  0  0  0  0  0  0  0
  -16.4755  -39.1707   -9.5507 C   0  0  0  0  0  0  0  0  0  0  0  0
  -18.0697  -40.1263   -7.8912 C   0  0  2  0  0  0  0  0  0  0  0  0
  -18.7749  -38.9273   -7.7826 O   0  0  0  0  0  0  0  0  0  0  0  0
  -18.2649  -40.9448   -6.6517 C   0  0  0  0  0  0  0  0  0  0  0  0
  -17.9553  -42.3218   -6.9438 N   0  0  0  0  0  0  0  0  0  0  0  0
  -18.6792  -43.2955   -6.1952 C   0  0  0  0  0  0  0  0  0  0  0  0
  -20.0637  -42.7403   -5.9731 C   0  0  0  0  0  0  0  0  0  0  0  0
  -20.6697  -41.6507   -6.5292 C   0  0  0  0  0  0  0  0  0  0  0  0
  -21.9393  -41.5676   -6.0046 C   0  0  0  0  0  0  0  0  0  0  0  0
  -23.0036  -40.5612   -6.2856 C   0  0  0  0  0  0  0  0  0  0  0  0
  -22.5753  -39.1790   -5.8462 C   0  0  0  0  0  0  0  0  0  0  0  0
  -21.3760  -38.7080   -6.6536 C   0  0  0  0  0  0  0  0  0  0  0  0
  -22.2454  -39.1207   -4.3891 C   0  0  0  0  0  0  0  0  0  0  0  0
  -23.7084  -38.2250   -6.1625 C   0  0  0  0  0  0  0  0  0  0  0  0
  -22.0630  -42.5743   -5.1734 O   0  0  0  0  0  0  0  0  0  0  0  0
  -20.9726  -43.2879   -5.1307 N   0  0  0  0  0  0  0  0  0  0  0  0
  2  1  1  1
  2  3  1  0
  3  4  1  0
  4  5  1  0
  5  6  2  0
  6  7  1  0
  7  8  1  0
  8  9  1  0
  9 10  1  0
 10 11  1  0
 11 12  1  0
 12 13  2  0
 13 14  1  0
 14 15  2  0
 15 16  1  0
 16 17  1  0
 15 18  1  0
 13 19  1  0
 19 20  2  0
 19 21  1  0
 21 22  1  0
 22 23  1  6
 22 24  1  0
 24 25  1  1
 24 26  1  0
 26 27  1  0
 27 28  1  0
 28 29  1  0
 29 30  1  0
 30 31  2  0
 31 32  1  0
 32 33  1  0
 33 34  1  0
 33 35  1  0
 33 36  1  0
 31 37  1  0
 37 38  1  0
 18 11  2  0
 23  2  1  0
 38 29  2  0
M  END
$$$$
