
     RDKit          3D

 38 40  0  0  0  0  0  0  0  0999 V2000
  -19.8861  -37.7790   -6.6111 C   0  0  0  0  0  0  0  0  0  0  0  0
  -20.3997  -39.2363   -6.5973 C   0  0  2  0  0  0  0  0  0  0  0  0
  -21.1604  -39.3743   -5.3370 C   0  0  0  0  0  0  0  0  0  0  0  0
  -21.5308  -40.7994   -4.9391 C   0  0  0  0  0  0  0  0  0  0  0  0
  -22.3675  -41.4232   -6.0155 C   0  0  0  0  0  0  0  0  0  0  0  0
  -23.4119  -42.1784   -6.0810 C   0  0  0  0  0  0  0  0  0  0  0  0
  -24.2317  -42.7921   -7.1734 C   0  0  0  0  0  0  0  0  0  0  0  0
  -24.1762  -44.3124   -6.9184 C   0  0  0  0  0  0  0  0  0  0  0  0
  -22.9089  -44.6300   -6.2263 C   0  0  0  0  0  0  0  0  0  0  0  0
  -21.8773  -45.2188   -7.0829 N   0  0  0  0  0  0  0  0  0  0  0  0
  -20.6322  -44.6931   -7.5434 C   0  0  0  0  0  0  0  0  0  0  0  0
  -20.3043  -43.4898   -8.1435 C   0  0  0  0  0  0  0  0  0  0  0  0
  -18.9826  -43.2423   -8.4753 C   0  0  0  0  0  0  0  0  0  0  0  0
  -18.0081  -44.2350   -8.1903 C   0  0  0  0  0  0  0  0  0  0  0  0
  -18.2899  -45.4367   -7.6006 C   0  0  0  0  0  0  0  0  0  0  0  0
  -17.2321  -46.4456   -7.3242 C   0  0  0  0  0  0  0  0  0  0  0  0
  -17.3124  -47.3959   -8.3274 O   0  0  0  0  0  0  0  0  0  0  0  0
  -19.6014  -45.6414   -7.2885 C   0  0  0  0  0  0  0  0  0  0  0  0
  -18.3224  -42.0920   -9.1022 C   0  0  0  0  0  0  0  0  0  0  0  0
  -17.4091  -42.3518  -10.0358 O   0  0  0  0  0  0  0  0  0  0  0  0
  -18.4344  -40.6898   -8.9358 N   0  0  0  0  0  0  0  0  0  0  0  0
  -18.2924  -39.8770   -7.7869 C   0  0  1  0  0  0  0  0  0  0  0  0
  -19.2243  -40.1863   -6.6347 C   0  0  0  0  0  0  0  0  0  0  0  0
  -16.8634  -39.7352   -7.2914 C   0  0  2  0  0  0  0  0  0  0  0  0
  -16.8668  -38.8011   -6.2550 O   0  0  0  0  0  0  0  0  0  0  0  0
  -15.8966  -39.3112   -8.3545 C   0  0  0  0  0  0  0  0  0  0  0  0
  -15.4643  -40.4741   -9.0880 N   0  0  0  0  0  0  0  0  0  0  0  0
  -14.0939  -40.4891   -9.4807 C   0  0  0  0  0  0  0  0  0  0  0  0
  -13.8467  -39.2252  -10.2655 C   0  0  0  0  0  0  0  0  0  0  0  0
  -14.2333  -38.8910  -11.5315 C   0  0  0  0  0  0  0  0  0  0  0  0
  -13.7653  -37.6225  -11.7883 C   0  0  0  0  0  0  0  0  0  0  0  0
  -13.9184  -36.8012  -13.0239 C   0  0  0  0  0  0  0  0  0  0  0  0
  -12.5736  -36.3481  -13.5462 C   0  0  0  0  0  0  0  0  0  0  0  0
  -12.7356  -35.5829  -14.8502 C   0  0  0  0  0  0  0  0  0  0  0  0
  -11.6293  -37.4884  -13.7550 C   0  0  0  0  0  0  0  0  0  0  0  0
  -11.9968  -35.3710  -12.5428 C   0  0  0  0  0  0  0  0  0  0  0  0
  -13.1297  -37.2367  -10.7081 O   0  0  0  0  0  0  0  0  0  0  0  0
  -13.1586  -38.1603   -9.7882 N   0  0  0  0  0  0  0  0  0  0  0  0
  2  1  1  1
  2  3  1  0
  3  4  1  0
  4  5  1  0
  5  6  2  0
  6  7  1  0
  7  8  1  0
  8  9  1  0
  9 10  1  0
 10 11  1  0
 11 12  1  0
 12 13  2  0
 13 14  1  0
 14 15  2  0
 15 16  1  0
 16 17  1  0
 15 18  1  0
 13 19  1  0
 19 20  2  0
 19 21  1  0
 21 22  1  0
 22 23  1  1
 22 24  1  0
 24 25  1  1
 24 26  1  0
 26 27  1  0
 27 28  1  0
 28 29  1  0
 29 30  1  0
 30 31  2  0
 31 32  1  0
 32 33  1  0
 33 34  1  0
 33 35  1  0
 33 36  1  0
 31 37  1  0
 37 38  1  0
 18 11  2  0
 23  2  1  0
 38 29  2  0
M  END
$$$$
