
     RDKit          3D

 38 40  0  0  0  0  0  0  0  0999 V2000
  -19.0621  -37.7615   -6.7006 C   0  0  0  0  0  0  0  0  0  0  0  0
  -19.7276  -39.1557   -6.6730 C   0  0  2  0  0  0  0  0  0  0  0  0
  -20.6205  -39.1432   -5.4946 C   0  0  0  0  0  0  0  0  0  0  0  0
  -21.1791  -40.4980   -5.0720 C   0  0  0  0  0  0  0  0  0  0  0  0
  -21.9665  -41.0940   -6.2001 C   0  0  0  0  0  0  0  0  0  0  0  0
  -23.0741  -41.7415   -6.3398 C   0  0  0  0  0  0  0  0  0  0  0  0
  -23.8420  -42.3301   -7.4825 C   0  0  0  0  0  0  0  0  0  0  0  0
  -23.9754  -43.8310   -7.1526 C   0  0  0  0  0  0  0  0  0  0  0  0
  -22.8247  -44.2358   -6.3172 C   0  0  0  0  0  0  0  0  0  0  0  0
  -21.7819  -44.9747   -7.0323 N   0  0  0  0  0  0  0  0  0  0  0  0
  -20.4481  -44.6057   -7.3835 C   0  0  0  0  0  0  0  0  0  0  0  0
  -19.9350  -43.4784   -8.0011 C   0  0  0  0  0  0  0  0  0  0  0  0
  -18.5679  -43.3862   -8.2034 C   0  0  0  0  0  0  0  0  0  0  0  0
  -17.7387  -44.4549   -7.7717 C   0  0  0  0  0  0  0  0  0  0  0  0
  -18.2049  -45.5859   -7.1596 C   0  0  0  0  0  0  0  0  0  0  0  0
  -17.2941  -46.6798   -6.7270 C   0  0  0  0  0  0  0  0  0  0  0  0
  -17.8468  -47.8648   -7.1810 O   0  0  0  0  0  0  0  0  0  0  0  0
  -19.5554  -45.6378   -6.9778 C   0  0  0  0  0  0  0  0  0  0  0  0
  -17.7291  -42.3468   -8.8103 C   0  0  0  0  0  0  0  0  0  0  0  0
  -16.7606  -42.7514   -9.6297 O   0  0  0  0  0  0  0  0  0  0  0  0
  -17.7063  -40.9333   -8.7220 N   0  0  0  0  0  0  0  0  0  0  0  0
  -17.5931  -40.0747   -7.6036 C   0  0  1  0  0  0  0  0  0  0  0  0
  -18.6629  -40.2211   -6.5425 C   0  0  0  0  0  0  0  0  0  0  0  0
  -16.2136  -40.0510   -6.9679 C   0  0  2  0  0  0  0  0  0  0  0  0
  -16.2671  -39.1843   -5.8758 O   0  0  0  0  0  0  0  0  0  0  0  0
  -15.1261  -39.6217   -7.9047 C   0  0  0  0  0  0  0  0  0  0  0  0
  -15.3918  -40.1633   -9.2135 N   0  0  0  0  0  0  0  0  0  0  0  0
  -14.2528  -40.3678  -10.0461 C   0  0  0  0  0  0  0  0  0  0  0  0
  -13.9534  -39.0495  -10.7146 C   0  0  0  0  0  0  0  0  0  0  0  0
  -14.2584  -38.6168  -11.9730 C   0  0  0  0  0  0  0  0  0  0  0  0
  -13.7721  -37.3358  -12.1018 C   0  0  0  0  0  0  0  0  0  0  0  0
  -13.8448  -36.4214  -13.2780 C   0  0  0  0  0  0  0  0  0  0  0  0
  -14.7845  -35.2667  -13.0123 C   0  0  0  0  0  0  0  0  0  0  0  0
  -14.2810  -34.4224  -11.8524 C   0  0  0  0  0  0  0  0  0  0  0  0
  -16.1796  -35.7215  -12.7252 C   0  0  0  0  0  0  0  0  0  0  0  0
  -14.7692  -34.3719  -14.2343 C   0  0  0  0  0  0  0  0  0  0  0  0
  -13.2049  -37.0383  -10.9575 O   0  0  0  0  0  0  0  0  0  0  0  0
  -13.2942  -38.0292  -10.1148 N   0  0  0  0  0  0  0  0  0  0  0  0
  2  1  1  1
  2  3  1  0
  3  4  1  0
  4  5  1  0
  5  6  2  0
  6  7  1  0
  7  8  1  0
  8  9  1  0
  9 10  1  0
 10 11  1  0
 11 12  1  0
 12 13  2  0
 13 14  1  0
 14 15  2  0
 15 16  1  0
 16 17  1  0
 15 18  1  0
 13 19  1  0
 19 20  2  0
 19 21  1  0
 21 22  1  0
 22 23  1  1
 22 24  1  0
 24 25  1  1
 24 26  1  0
 26 27  1  0
 27 28  1  0
 28 29  1  0
 29 30  1  0
 30 31  2  0
 31 32  1  0
 32 33  1  0
 33 34  1  0
 33 35  1  0
 33 36  1  0
 31 37  1  0
 37 38  1  0
 18 11  2  0
 23  2  1  0
 38 29  2  0
M  END
$$$$
