
     RDKit          3D

 38 40  0  0  0  0  0  0  0  0999 V2000
  -13.0515  -41.6907   -6.4735 C   0  0  0  0  0  0  0  0  0  0  0  0
  -13.5402  -42.1905   -7.8516 C   0  0  2  0  0  0  0  0  0  0  0  0
  -12.3272  -42.2772   -8.6924 C   0  0  0  0  0  0  0  0  0  0  0  0
  -12.5685  -42.4696  -10.1861 C   0  0  0  0  0  0  0  0  0  0  0  0
  -13.3398  -43.7348  -10.4145 C   0  0  0  0  0  0  0  0  0  0  0  0
  -13.3188  -44.7149  -11.2537 C   0  0  0  0  0  0  0  0  0  0  0  0
  -14.1044  -45.9724  -11.4626 C   0  0  0  0  0  0  0  0  0  0  0  0
  -14.6817  -45.8590  -12.8885 C   0  0  0  0  0  0  0  0  0  0  0  0
  -14.8480  -44.4277  -13.2192 C   0  0  0  0  0  0  0  0  0  0  0  0
  -16.2261  -43.9390  -13.1372 N   0  0  0  0  0  0  0  0  0  0  0  0
  -16.8453  -43.0363  -12.2205 C   0  0  0  0  0  0  0  0  0  0  0  0
  -16.8489  -42.9841  -10.8375 C   0  0  0  0  0  0  0  0  0  0  0  0
  -17.5393  -41.9634  -10.2052 C   0  0  0  0  0  0  0  0  0  0  0  0
  -18.2234  -41.0056  -10.9994 C   0  0  0  0  0  0  0  0  0  0  0  0
  -18.2464  -41.0218  -12.3670 C   0  0  0  0  0  0  0  0  0  0  0  0
  -18.9803  -39.9950  -13.1546 C   0  0  0  0  0  0  0  0  0  0  0  0
  -20.0968  -39.6448  -12.4151 O   0  0  0  0  0  0  0  0  0  0  0  0
  -17.5542  -42.0411  -12.9512 C   0  0  0  0  0  0  0  0  0  0  0  0
  -17.7301  -41.6323   -8.7887 C   0  0  0  0  0  0  0  0  0  0  0  0
  -18.9549  -41.2724   -8.4100 O   0  0  0  0  0  0  0  0  0  0  0  0
  -16.8665  -41.6025   -7.6665 N   0  0  0  0  0  0  0  0  0  0  0  0
  -15.6528  -40.9099   -7.4471 C   0  0  1  0  0  0  0  0  0  0  0  0
  -14.5337  -41.2046   -8.4230 C   0  0  0  0  0  0  0  0  0  0  0  0
  -15.8113  -39.4111   -7.2569 C   0  0  2  0  0  0  0  0  0  0  0  0
  -14.6890  -38.9523   -6.5665 O   0  0  0  0  0  0  0  0  0  0  0  0
  -17.0558  -39.0263   -6.5167 C   0  0  0  0  0  0  0  0  0  0  0  0
  -18.2050  -39.4222   -7.2911 N   0  0  0  0  0  0  0  0  0  0  0  0
  -19.3978  -38.6759   -7.0619 C   0  0  0  0  0  0  0  0  0  0  0  0
  -19.4596  -37.6070   -8.1240 C   0  0  0  0  0  0  0  0  0  0  0  0
  -18.7540  -37.4861   -9.2864 C   0  0  0  0  0  0  0  0  0  0  0  0
  -19.1797  -36.3376   -9.9141 C   0  0  0  0  0  0  0  0  0  0  0  0
  -18.7257  -35.7571  -11.2109 C   0  0  0  0  0  0  0  0  0  0  0  0
  -19.8301  -34.9580  -11.8657 C   0  0  0  0  0  0  0  0  0  0  0  0
  -19.8967  -33.5564  -11.2800 C   0  0  0  0  0  0  0  0  0  0  0  0
  -21.1663  -35.6153  -11.7309 C   0  0  0  0  0  0  0  0  0  0  0  0
  -19.4742  -34.7964  -13.3290 C   0  0  0  0  0  0  0  0  0  0  0  0
  -20.0994  -35.8124   -9.1410 O   0  0  0  0  0  0  0  0  0  0  0  0
  -20.2897  -36.5375   -8.0741 N   0  0  0  0  0  0  0  0  0  0  0  0
  2  1  1  1
  2  3  1  0
  3  4  1  0
  4  5  1  0
  5  6  2  0
  6  7  1  0
  7  8  1  0
  8  9  1  0
  9 10  1  0
 10 11  1  0
 11 12  1  0
 12 13  2  0
 13 14  1  0
 14 15  2  0
 15 16  1  0
 16 17  1  0
 15 18  1  0
 13 19  1  0
 19 20  2  0
 19 21  1  0
 21 22  1  0
 22 23  1  6
 22 24  1  0
 24 25  1  1
 24 26  1  0
 26 27  1  0
 27 28  1  0
 28 29  1  0
 29 30  1  0
 30 31  2  0
 31 32  1  0
 32 33  1  0
 33 34  1  0
 33 35  1  0
 33 36  1  0
 31 37  1  0
 37 38  1  0
 18 11  2  0
 23  2  1  0
 38 29  2  0
M  END
$$$$
