
     RDKit          3D

 38 40  0  0  0  0  0  0  0  0999 V2000
  -19.6728  -38.1583   -5.8696 C   0  0  0  0  0  0  0  0  0  0  0  0
  -20.1514  -39.6275   -5.8774 C   0  0  2  0  0  0  0  0  0  0  0  0
  -20.4483  -39.9529   -4.4660 C   0  0  0  0  0  0  0  0  0  0  0  0
  -20.6640  -41.4310   -4.1579 C   0  0  0  0  0  0  0  0  0  0  0  0
  -21.8113  -41.9540   -4.9690 C   0  0  0  0  0  0  0  0  0  0  0  0
  -22.8174  -42.7408   -4.7837 C   0  0  0  0  0  0  0  0  0  0  0  0
  -23.9541  -43.2511   -5.6141 C   0  0  0  0  0  0  0  0  0  0  0  0
  -23.8158  -44.7872   -5.5927 C   0  0  0  0  0  0  0  0  0  0  0  0
  -22.3901  -45.1313   -5.4061 C   0  0  0  0  0  0  0  0  0  0  0  0
  -21.7028  -45.5642   -6.6247 N   0  0  0  0  0  0  0  0  0  0  0  0
  -20.6828  -44.9314   -7.3979 C   0  0  0  0  0  0  0  0  0  0  0  0
  -20.5745  -43.6502   -7.9100 C   0  0  0  0  0  0  0  0  0  0  0  0
  -19.4392  -43.3056   -8.6246 C   0  0  0  0  0  0  0  0  0  0  0  0
  -18.4249  -44.2819   -8.8100 C   0  0  0  0  0  0  0  0  0  0  0  0
  -18.4931  -45.5582   -8.3226 C   0  0  0  0  0  0  0  0  0  0  0  0
  -17.4031  -46.5458   -8.5458 C   0  0  0  0  0  0  0  0  0  0  0  0
  -18.0108  -47.7544   -8.8387 O   0  0  0  0  0  0  0  0  0  0  0  0
  -19.6254  -45.8574   -7.6242 C   0  0  0  0  0  0  0  0  0  0  0  0
  -19.0265  -42.0589   -9.2785 C   0  0  0  0  0  0  0  0  0  0  0  0
  -18.4766  -42.1614  -10.4869 O   0  0  0  0  0  0  0  0  0  0  0  0
  -19.0774  -40.6942   -8.9027 N   0  0  0  0  0  0  0  0  0  0  0  0
  -18.5610  -40.0233   -7.7695 C   0  0  1  0  0  0  0  0  0  0  0  0
  -19.0552  -40.5129   -6.4250 C   0  0  0  0  0  0  0  0  0  0  0  0
  -17.0486  -39.8807   -7.7602 C   0  0  2  0  0  0  0  0  0  0  0  0
  -16.7158  -38.9825   -6.7457 O   0  0  0  0  0  0  0  0  0  0  0  0
  -16.4801  -39.4088   -9.0635 C   0  0  0  0  0  0  0  0  0  0  0  0
  -16.3048  -40.5411   -9.9376 N   0  0  0  0  0  0  0  0  0  0  0  0
  -16.4268  -40.2758  -11.3330 C   0  0  0  0  0  0  0  0  0  0  0  0
  -15.6171  -39.0357  -11.6180 C   0  0  0  0  0  0  0  0  0  0  0  0
  -15.7384  -37.7748  -11.1090 C   0  0  0  0  0  0  0  0  0  0  0  0
  -14.7565  -36.9987  -11.6814 C   0  0  0  0  0  0  0  0  0  0  0  0
  -14.4597  -35.5536  -11.4621 C   0  0  0  0  0  0  0  0  0  0  0  0
  -15.1302  -34.6950  -12.5110 C   0  0  0  0  0  0  0  0  0  0  0  0
  -14.3088  -34.6732  -13.7904 C   0  0  0  0  0  0  0  0  0  0  0  0
  -15.3542  -33.2930  -12.0422 C   0  0  0  0  0  0  0  0  0  0  0  0
  -16.4528  -35.3454  -12.8598 C   0  0  0  0  0  0  0  0  0  0  0  0
  -14.0907  -37.7838  -12.4938 O   0  0  0  0  0  0  0  0  0  0  0  0
  -14.5732  -38.9950  -12.4806 N   0  0  0  0  0  0  0  0  0  0  0  0
  2  1  1  1
  2  3  1  0
  3  4  1  0
  4  5  1  0
  5  6  2  0
  6  7  1  0
  7  8  1  0
  8  9  1  0
  9 10  1  0
 10 11  1  0
 11 12  1  0
 12 13  2  0
 13 14  1  0
 14 15  2  0
 15 16  1  0
 16 17  1  0
 15 18  1  0
 13 19  1  0
 19 20  2  0
 19 21  1  0
 21 22  1  0
 22 23  1  1
 22 24  1  0
 24 25  1  1
 24 26  1  0
 26 27  1  0
 27 28  1  0
 28 29  1  0
 29 30  1  0
 30 31  2  0
 31 32  1  0
 32 33  1  0
 33 34  1  0
 33 35  1  0
 33 36  1  0
 31 37  1  0
 37 38  1  0
 18 11  2  0
 23  2  1  0
 38 29  2  0
M  END
$$$$
