
     RDKit          3D

 38 40  0  0  0  0  0  0  0  0999 V2000
  -19.7571  -37.8258   -7.1349 C   0  0  0  0  0  0  0  0  0  0  0  0
  -20.3448  -39.2447   -6.9655 C   0  0  2  0  0  0  0  0  0  0  0  0
  -21.2852  -39.1489   -5.8286 C   0  0  0  0  0  0  0  0  0  0  0  0
  -21.7849  -40.4765   -5.2681 C   0  0  0  0  0  0  0  0  0  0  0  0
  -22.4904  -41.2458   -6.3444 C   0  0  0  0  0  0  0  0  0  0  0  0
  -23.5535  -41.9704   -6.4448 C   0  0  0  0  0  0  0  0  0  0  0  0
  -24.2395  -42.7328   -7.5357 C   0  0  0  0  0  0  0  0  0  0  0  0
  -24.3029  -44.1905   -7.0353 C   0  0  0  0  0  0  0  0  0  0  0  0
  -23.1672  -44.4257   -6.1183 C   0  0  0  0  0  0  0  0  0  0  0  0
  -22.0562  -45.1787   -6.7042 N   0  0  0  0  0  0  0  0  0  0  0  0
  -20.7315  -44.7737   -7.0500 C   0  0  0  0  0  0  0  0  0  0  0  0
  -20.2565  -43.6971   -7.7786 C   0  0  0  0  0  0  0  0  0  0  0  0
  -18.8895  -43.5471   -7.9427 C   0  0  0  0  0  0  0  0  0  0  0  0
  -18.0208  -44.5068   -7.3590 C   0  0  0  0  0  0  0  0  0  0  0  0
  -18.4486  -45.5848   -6.6337 C   0  0  0  0  0  0  0  0  0  0  0  0
  -17.4972  -46.5644   -6.0432 C   0  0  0  0  0  0  0  0  0  0  0  0
  -18.1841  -47.2425   -5.0512 O   0  0  0  0  0  0  0  0  0  0  0  0
  -19.8004  -45.6962   -6.4942 C   0  0  0  0  0  0  0  0  0  0  0  0
  -18.0851  -42.5369   -8.6390 C   0  0  0  0  0  0  0  0  0  0  0  0
  -17.0624  -42.9751   -9.3706 O   0  0  0  0  0  0  0  0  0  0  0  0
  -18.1445  -41.1239   -8.7180 N   0  0  0  0  0  0  0  0  0  0  0  0
  -18.1258  -40.1358   -7.7059 C   0  0  1  0  0  0  0  0  0  0  0  0
  -19.2290  -40.2218   -6.6728 C   0  0  0  0  0  0  0  0  0  0  0  0
  -16.7773  -39.9557   -7.0299 C   0  0  2  0  0  0  0  0  0  0  0  0
  -16.9196  -38.9595   -6.0634 O   0  0  0  0  0  0  0  0  0  0  0  0
  -15.6734  -39.5925   -7.9754 C   0  0  0  0  0  0  0  0  0  0  0  0
  -16.0254  -40.0344   -9.3013 N   0  0  0  0  0  0  0  0  0  0  0  0
  -16.2878  -39.0048  -10.2519 C   0  0  0  0  0  0  0  0  0  0  0  0
  -14.9714  -38.6595  -10.9018 C   0  0  0  0  0  0  0  0  0  0  0  0
  -13.9446  -37.8859  -10.4426 C   0  0  0  0  0  0  0  0  0  0  0  0
  -12.9615  -37.8845  -11.4057 C   0  0  0  0  0  0  0  0  0  0  0  0
  -11.6394  -37.1941  -11.3921 C   0  0  0  0  0  0  0  0  0  0  0  0
  -11.7071  -35.8744  -12.1274 C   0  0  0  0  0  0  0  0  0  0  0  0
  -13.1243  -35.5994  -12.6049 C   0  0  0  0  0  0  0  0  0  0  0  0
  -10.7726  -35.8228  -13.2934 C   0  0  0  0  0  0  0  0  0  0  0  0
  -11.3665  -34.7795  -11.1378 C   0  0  0  0  0  0  0  0  0  0  0  0
  -13.4049  -38.6313  -12.3882 O   0  0  0  0  0  0  0  0  0  0  0  0
  -14.5902  -39.1053  -12.1231 N   0  0  0  0  0  0  0  0  0  0  0  0
  2  1  1  1
  2  3  1  0
  3  4  1  0
  4  5  1  0
  5  6  2  0
  6  7  1  0
  7  8  1  0
  8  9  1  0
  9 10  1  0
 10 11  1  0
 11 12  1  0
 12 13  2  0
 13 14  1  0
 14 15  2  0
 15 16  1  0
 16 17  1  0
 15 18  1  0
 13 19  1  0
 19 20  2  0
 19 21  1  0
 21 22  1  0
 22 23  1  1
 22 24  1  0
 24 25  1  1
 24 26  1  0
 26 27  1  0
 27 28  1  0
 28 29  1  0
 29 30  1  0
 30 31  2  0
 31 32  1  0
 32 33  1  0
 33 34  1  0
 33 35  1  0
 33 36  1  0
 31 37  1  0
 37 38  1  0
 18 11  2  0
 23  2  1  0
 38 29  2  0
M  END
$$$$
