
     RDKit          3D

 38 40  0  0  0  0  0  0  0  0999 V2000
  -19.4772  -37.9871   -6.5458 C   0  0  0  0  0  0  0  0  0  0  0  0
  -20.1234  -39.3906   -6.5414 C   0  0  2  0  0  0  0  0  0  0  0  0
  -20.9111  -39.4582   -5.2920 C   0  0  0  0  0  0  0  0  0  0  0  0
  -21.4170  -40.8431   -4.9016 C   0  0  0  0  0  0  0  0  0  0  0  0
  -22.2928  -41.3865   -5.9905 C   0  0  0  0  0  0  0  0  0  0  0  0
  -23.4015  -42.0419   -6.0716 C   0  0  0  0  0  0  0  0  0  0  0  0
  -24.2593  -42.5768   -7.1762 C   0  0  0  0  0  0  0  0  0  0  0  0
  -24.3480  -44.0958   -6.9230 C   0  0  0  0  0  0  0  0  0  0  0  0
  -23.1253  -44.5295   -6.2139 C   0  0  0  0  0  0  0  0  0  0  0  0
  -22.1407  -45.2108   -7.0571 N   0  0  0  0  0  0  0  0  0  0  0  0
  -20.8461  -44.8023   -7.4996 C   0  0  0  0  0  0  0  0  0  0  0  0
  -20.4000  -43.6343   -8.0931 C   0  0  0  0  0  0  0  0  0  0  0  0
  -19.0566  -43.5099   -8.4062 C   0  0  0  0  0  0  0  0  0  0  0  0
  -18.1822  -44.5885   -8.1094 C   0  0  0  0  0  0  0  0  0  0  0  0
  -18.5819  -45.7591   -7.5256 C   0  0  0  0  0  0  0  0  0  0  0  0
  -17.6258  -46.8616   -7.2363 C   0  0  0  0  0  0  0  0  0  0  0  0
  -16.3858  -46.4465   -7.6901 O   0  0  0  0  0  0  0  0  0  0  0  0
  -19.9110  -45.8419   -7.2320 C   0  0  0  0  0  0  0  0  0  0  0  0
  -18.2843  -42.4253   -9.0221 C   0  0  0  0  0  0  0  0  0  0  0  0
  -17.3861  -42.7681   -9.9434 O   0  0  0  0  0  0  0  0  0  0  0  0
  -18.2685  -41.0188   -8.8549 N   0  0  0  0  0  0  0  0  0  0  0  0
  -18.0680  -40.2229   -7.7029 C   0  0  1  0  0  0  0  0  0  0  0  0
  -19.0404  -40.4452   -6.5642 C   0  0  0  0  0  0  0  0  0  0  0  0
  -16.6390  -40.2141   -7.1875 C   0  0  2  0  0  0  0  0  0  0  0  0
  -16.6057  -39.4066   -6.0502 O   0  0  0  0  0  0  0  0  0  0  0  0
  -15.6403  -39.7216   -8.1899 C   0  0  0  0  0  0  0  0  0  0  0  0
  -15.9407  -40.2991   -9.4757 N   0  0  0  0  0  0  0  0  0  0  0  0
  -14.8390  -40.4354  -10.3702 C   0  0  0  0  0  0  0  0  0  0  0  0
  -14.3875  -39.0417  -10.7284 C   0  0  0  0  0  0  0  0  0  0  0  0
  -15.0103  -38.0850  -11.4772 C   0  0  0  0  0  0  0  0  0  0  0  0
  -14.1907  -36.9798  -11.5055 C   0  0  0  0  0  0  0  0  0  0  0  0
  -14.4095  -35.6700  -12.1848 C   0  0  0  0  0  0  0  0  0  0  0  0
  -13.4195  -35.4686  -13.3101 C   0  0  0  0  0  0  0  0  0  0  0  0
  -13.6685  -34.1426  -14.0115 C   0  0  0  0  0  0  0  0  0  0  0  0
  -13.4640  -36.5759  -14.3137 C   0  0  0  0  0  0  0  0  0  0  0  0
  -12.0382  -35.3774  -12.6955 C   0  0  0  0  0  0  0  0  0  0  0  0
  -13.1303  -37.2870  -10.7979 O   0  0  0  0  0  0  0  0  0  0  0  0
  -13.2141  -38.4988  -10.3238 N   0  0  0  0  0  0  0  0  0  0  0  0
  2  1  1  1
  2  3  1  0
  3  4  1  0
  4  5  1  0
  5  6  2  0
  6  7  1  0
  7  8  1  0
  8  9  1  0
  9 10  1  0
 10 11  1  0
 11 12  1  0
 12 13  2  0
 13 14  1  0
 14 15  2  0
 15 16  1  0
 16 17  1  0
 15 18  1  0
 13 19  1  0
 19 20  2  0
 19 21  1  0
 21 22  1  0
 22 23  1  1
 22 24  1  0
 24 25  1  1
 24 26  1  0
 26 27  1  0
 27 28  1  0
 28 29  1  0
 29 30  1  0
 30 31  2  0
 31 32  1  0
 32 33  1  0
 33 34  1  0
 33 35  1  0
 33 36  1  0
 31 37  1  0
 37 38  1  0
 18 11  2  0
 23  2  1  0
 38 29  2  0
M  END
$$$$
