
     RDKit          3D

 38 40  0  0  0  0  0  0  0  0999 V2000
  -19.1366  -37.6194   -7.0698 C   0  0  0  0  0  0  0  0  0  0  0  0
  -19.8613  -38.9838   -7.0431 C   0  0  2  0  0  0  0  0  0  0  0  0
  -20.7246  -38.9483   -5.8433 C   0  0  0  0  0  0  0  0  0  0  0  0
  -21.3316  -40.2832   -5.4238 C   0  0  0  0  0  0  0  0  0  0  0  0
  -22.1706  -40.8297   -6.5397 C   0  0  0  0  0  0  0  0  0  0  0  0
  -23.3083  -41.4268   -6.6603 C   0  0  0  0  0  0  0  0  0  0  0  0
  -24.1280  -41.9665   -7.7912 C   0  0  0  0  0  0  0  0  0  0  0  0
  -24.3187  -43.4645   -7.4765 C   0  0  0  0  0  0  0  0  0  0  0  0
  -23.1672  -43.9296   -6.6742 C   0  0  0  0  0  0  0  0  0  0  0  0
  -22.1748  -44.7033   -7.4233 N   0  0  0  0  0  0  0  0  0  0  0  0
  -20.8349  -44.3877   -7.8022 C   0  0  0  0  0  0  0  0  0  0  0  0
  -20.2880  -43.2756   -8.4183 C   0  0  0  0  0  0  0  0  0  0  0  0
  -18.9234  -43.2398   -8.6525 C   0  0  0  0  0  0  0  0  0  0  0  0
  -18.1314  -44.3490   -8.2541 C   0  0  0  0  0  0  0  0  0  0  0  0
  -18.6318  -45.4668   -7.6446 C   0  0  0  0  0  0  0  0  0  0  0  0
  -17.7594  -46.6046   -7.2476 C   0  0  0  0  0  0  0  0  0  0  0  0
  -18.1482  -47.6928   -8.0095 O   0  0  0  0  0  0  0  0  0  0  0  0
  -19.9785  -45.4627   -7.4308 C   0  0  0  0  0  0  0  0  0  0  0  0
  -18.0547  -42.2297   -9.2668 C   0  0  0  0  0  0  0  0  0  0  0  0
  -17.1244  -42.6649  -10.1143 O   0  0  0  0  0  0  0  0  0  0  0  0
  -17.9683  -40.8198   -9.1619 N   0  0  0  0  0  0  0  0  0  0  0  0
  -17.7915  -39.9817   -8.0362 C   0  0  1  0  0  0  0  0  0  0  0  0
  -18.8412  -40.0958   -6.9514 C   0  0  0  0  0  0  0  0  0  0  0  0
  -16.3976  -40.0261   -7.4338 C   0  0  2  0  0  0  0  0  0  0  0  0
  -16.1484  -38.7814   -6.8548 O   0  0  0  0  0  0  0  0  0  0  0  0
  -15.3227  -40.3494   -8.4261 C   0  0  0  0  0  0  0  0  0  0  0  0
  -14.0509  -39.9268   -7.8962 N   0  0  0  0  0  0  0  0  0  0  0  0
  -12.9305  -40.0870   -8.7631 C   0  0  0  0  0  0  0  0  0  0  0  0
  -12.9756  -38.9524   -9.7555 C   0  0  0  0  0  0  0  0  0  0  0  0
  -14.0213  -38.4740  -10.4914 C   0  0  0  0  0  0  0  0  0  0  0  0
  -13.5528  -37.4224  -11.2456 C   0  0  0  0  0  0  0  0  0  0  0  0
  -14.2935  -36.5615  -12.2125 C   0  0  0  0  0  0  0  0  0  0  0  0
  -13.4847  -36.3354  -13.4701 C   0  0  0  0  0  0  0  0  0  0  0  0
  -12.4208  -35.2740  -13.2390 C   0  0  0  0  0  0  0  0  0  0  0  0
  -14.3371  -35.9376  -14.6323 C   0  0  0  0  0  0  0  0  0  0  0  0
  -12.7485  -37.6222  -13.7802 C   0  0  0  0  0  0  0  0  0  0  0  0
  -12.2799  -37.2975  -10.9561 O   0  0  0  0  0  0  0  0  0  0  0  0
  -11.9060  -38.1862  -10.0784 N   0  0  0  0  0  0  0  0  0  0  0  0
  2  1  1  1
  2  3  1  0
  3  4  1  0
  4  5  1  0
  5  6  2  0
  6  7  1  0
  7  8  1  0
  8  9  1  0
  9 10  1  0
 10 11  1  0
 11 12  1  0
 12 13  2  0
 13 14  1  0
 14 15  2  0
 15 16  1  0
 16 17  1  0
 15 18  1  0
 13 19  1  0
 19 20  2  0
 19 21  1  0
 21 22  1  0
 22 23  1  1
 22 24  1  0
 24 25  1  6
 24 26  1  0
 26 27  1  0
 27 28  1  0
 28 29  1  0
 29 30  1  0
 30 31  2  0
 31 32  1  0
 32 33  1  0
 33 34  1  0
 33 35  1  0
 33 36  1  0
 31 37  1  0
 37 38  1  0
 18 11  2  0
 23  2  1  0
 38 29  2  0
M  END
$$$$
