
     RDKit          3D

 38 40  0  0  0  0  0  0  0  0999 V2000
  -20.3371  -38.2228   -6.9353 C   0  0  0  0  0  0  0  0  0  0  0  0
  -20.6662  -39.7312   -6.8723 C   0  0  2  0  0  0  0  0  0  0  0  0
  -21.4884  -39.9049   -5.6557 C   0  0  0  0  0  0  0  0  0  0  0  0
  -21.7059  -41.3450   -5.2029 C   0  0  0  0  0  0  0  0  0  0  0  0
  -22.3836  -42.1204   -6.2926 C   0  0  0  0  0  0  0  0  0  0  0  0
  -23.3196  -43.0044   -6.3805 C   0  0  0  0  0  0  0  0  0  0  0  0
  -23.9807  -43.7683   -7.4857 C   0  0  0  0  0  0  0  0  0  0  0  0
  -23.7551  -45.2554   -7.1436 C   0  0  0  0  0  0  0  0  0  0  0  0
  -22.5086  -45.3763   -6.3578 C   0  0  0  0  0  0  0  0  0  0  0  0
  -21.3559  -45.8692   -7.1149 N   0  0  0  0  0  0  0  0  0  0  0  0
  -20.1569  -45.2120   -7.5261 C   0  0  0  0  0  0  0  0  0  0  0  0
  -19.9401  -44.0066   -8.1707 C   0  0  0  0  0  0  0  0  0  0  0  0
  -18.6396  -43.6092   -8.4335 C   0  0  0  0  0  0  0  0  0  0  0  0
  -17.5716  -44.4554   -8.0340 C   0  0  0  0  0  0  0  0  0  0  0  0
  -17.7422  -45.6538   -7.3969 C   0  0  0  0  0  0  0  0  0  0  0  0
  -16.5891  -46.5059   -7.0000 C   0  0  0  0  0  0  0  0  0  0  0  0
  -16.4837  -46.4218   -5.6224 O   0  0  0  0  0  0  0  0  0  0  0  0
  -19.0366  -46.0085   -7.1556 C   0  0  0  0  0  0  0  0  0  0  0  0
  -18.0854  -42.4153   -9.0813 C   0  0  0  0  0  0  0  0  0  0  0  0
  -17.0854  -42.6010   -9.9408 O   0  0  0  0  0  0  0  0  0  0  0  0
  -18.3811  -41.0324   -9.0004 N   0  0  0  0  0  0  0  0  0  0  0  0
  -18.4195  -40.1546   -7.8918 C   0  0  1  0  0  0  0  0  0  0  0  0
  -19.3826  -40.5249   -6.7841 C   0  0  0  0  0  0  0  0  0  0  0  0
  -17.0563  -39.8091   -7.3176 C   0  0  2  0  0  0  0  0  0  0  0  0
  -17.2244  -38.7269   -6.4532 O   0  0  0  0  0  0  0  0  0  0  0  0
  -16.0318  -39.4741   -8.3582 C   0  0  0  0  0  0  0  0  0  0  0  0
  -16.6697  -39.4321   -9.6499 N   0  0  0  0  0  0  0  0  0  0  0  0
  -16.5964  -38.1873  -10.3408 C   0  0  0  0  0  0  0  0  0  0  0  0
  -15.1940  -38.0659  -10.8822 C   0  0  0  0  0  0  0  0  0  0  0  0
  -14.6489  -37.1147  -11.6957 C   0  0  0  0  0  0  0  0  0  0  0  0
  -13.3292  -37.4481  -11.8995 C   0  0  0  0  0  0  0  0  0  0  0  0
  -12.2987  -36.7357  -12.7089 C   0  0  0  0  0  0  0  0  0  0  0  0
  -11.5089  -35.7689  -11.8553 C   0  0  0  0  0  0  0  0  0  0  0  0
  -10.6335  -36.5206  -10.8651 C   0  0  0  0  0  0  0  0  0  0  0  0
  -12.3881  -34.8137  -11.1137 C   0  0  0  0  0  0  0  0  0  0  0  0
  -10.5700  -35.0101  -12.7701 C   0  0  0  0  0  0  0  0  0  0  0  0
  -13.1188  -38.5542  -11.2275 O   0  0  0  0  0  0  0  0  0  0  0  0
  -14.2004  -38.9470  -10.6143 N   0  0  0  0  0  0  0  0  0  0  0  0
  2  1  1  1
  2  3  1  0
  3  4  1  0
  4  5  1  0
  5  6  2  0
  6  7  1  0
  7  8  1  0
  8  9  1  0
  9 10  1  0
 10 11  1  0
 11 12  1  0
 12 13  2  0
 13 14  1  0
 14 15  2  0
 15 16  1  0
 16 17  1  0
 15 18  1  0
 13 19  1  0
 19 20  2  0
 19 21  1  0
 21 22  1  0
 22 23  1  1
 22 24  1  0
 24 25  1  1
 24 26  1  0
 26 27  1  0
 27 28  1  0
 28 29  1  0
 29 30  1  0
 30 31  2  0
 31 32  1  0
 32 33  1  0
 33 34  1  0
 33 35  1  0
 33 36  1  0
 31 37  1  0
 37 38  1  0
 18 11  2  0
 23  2  1  0
 38 29  2  0
M  END
$$$$
