
     RDKit          3D

 38 40  0  0  0  0  0  0  0  0999 V2000
  -19.4764  -37.7966   -6.6260 C   0  0  0  0  0  0  0  0  0  0  0  0
  -20.1176  -39.1995   -6.5349 C   0  0  2  0  0  0  0  0  0  0  0  0
  -20.8663  -39.2089   -5.2600 C   0  0  0  0  0  0  0  0  0  0  0  0
  -21.3555  -40.5745   -4.7887 C   0  0  0  0  0  0  0  0  0  0  0  0
  -22.2625  -41.1708   -5.8230 C   0  0  0  0  0  0  0  0  0  0  0  0
  -23.3711  -41.8313   -5.8386 C   0  0  0  0  0  0  0  0  0  0  0  0
  -24.2606  -42.4198   -6.8895 C   0  0  0  0  0  0  0  0  0  0  0  0
  -24.3366  -43.9251   -6.5616 C   0  0  0  0  0  0  0  0  0  0  0  0
  -23.0913  -44.3223   -5.8708 C   0  0  0  0  0  0  0  0  0  0  0  0
  -22.1308  -45.0413   -6.7105 N   0  0  0  0  0  0  0  0  0  0  0  0
  -20.8517  -44.6520   -7.2117 C   0  0  0  0  0  0  0  0  0  0  0  0
  -20.4279  -43.5128   -7.8736 C   0  0  0  0  0  0  0  0  0  0  0  0
  -19.0952  -43.4011   -8.2335 C   0  0  0  0  0  0  0  0  0  0  0  0
  -18.2085  -44.4627   -7.9128 C   0  0  0  0  0  0  0  0  0  0  0  0
  -18.5863  -45.6050   -7.2619 C   0  0  0  0  0  0  0  0  0  0  0  0
  -17.6182  -46.6907   -6.9500 C   0  0  0  0  0  0  0  0  0  0  0  0
  -17.7265  -47.6277   -7.9630 O   0  0  0  0  0  0  0  0  0  0  0  0
  -19.9054  -45.6760   -6.9238 C   0  0  0  0  0  0  0  0  0  0  0  0
  -18.3456  -42.3457   -8.9239 C   0  0  0  0  0  0  0  0  0  0  0  0
  -17.4750  -42.7305   -9.8551 O   0  0  0  0  0  0  0  0  0  0  0  0
  -18.3294  -40.9328   -8.8244 N   0  0  0  0  0  0  0  0  0  0  0  0
  -18.0961  -40.0826   -7.7182 C   0  0  1  0  0  0  0  0  0  0  0  0
  -19.0324  -40.2521   -6.5408 C   0  0  0  0  0  0  0  0  0  0  0  0
  -16.6520  -40.0466   -7.2482 C   0  0  2  0  0  0  0  0  0  0  0  0
  -16.3450  -38.7235   -6.9292 O   0  0  0  0  0  0  0  0  0  0  0  0
  -15.6763  -40.5651   -8.2599 C   0  0  0  0  0  0  0  0  0  0  0  0
  -14.5995  -39.6179   -8.4033 N   0  0  0  0  0  0  0  0  0  0  0  0
  -13.7614  -39.7951   -9.5429 C   0  0  0  0  0  0  0  0  0  0  0  0
  -14.1733  -38.7587  -10.5580 C   0  0  0  0  0  0  0  0  0  0  0  0
  -14.7544  -37.5369  -10.3754 C   0  0  0  0  0  0  0  0  0  0  0  0
  -14.9266  -36.9682  -11.6168 C   0  0  0  0  0  0  0  0  0  0  0  0
  -15.5155  -35.6428  -11.9651 C   0  0  0  0  0  0  0  0  0  0  0  0
  -14.4734  -34.7246  -12.5633 C   0  0  0  0  0  0  0  0  0  0  0  0
  -15.1031  -33.7971  -13.5904 C   0  0  0  0  0  0  0  0  0  0  0  0
  -13.3482  -35.4766  -13.1988 C   0  0  0  0  0  0  0  0  0  0  0  0
  -13.9472  -33.8412  -11.4512 C   0  0  0  0  0  0  0  0  0  0  0  0
  -14.4616  -37.8317  -12.4872 O   0  0  0  0  0  0  0  0  0  0  0  0
  -14.0085  -38.9014  -11.8951 N   0  0  0  0  0  0  0  0  0  0  0  0
  2  1  1  1
  2  3  1  0
  3  4  1  0
  4  5  1  0
  5  6  2  0
  6  7  1  0
  7  8  1  0
  8  9  1  0
  9 10  1  0
 10 11  1  0
 11 12  1  0
 12 13  2  0
 13 14  1  0
 14 15  2  0
 15 16  1  0
 16 17  1  0
 15 18  1  0
 13 19  1  0
 19 20  2  0
 19 21  1  0
 21 22  1  0
 22 23  1  1
 22 24  1  0
 24 25  1  6
 24 26  1  0
 26 27  1  0
 27 28  1  0
 28 29  1  0
 29 30  1  0
 30 31  2  0
 31 32  1  0
 32 33  1  0
 33 34  1  0
 33 35  1  0
 33 36  1  0
 31 37  1  0
 37 38  1  0
 18 11  2  0
 23  2  1  0
 38 29  2  0
M  END
$$$$
