
     RDKit          3D

 38 40  0  0  0  0  0  0  0  0999 V2000
  -18.8745  -38.3740   -5.5660 C   0  0  0  0  0  0  0  0  0  0  0  0
  -19.6718  -39.6190   -6.0151 C   0  0  2  0  0  0  0  0  0  0  0  0
  -20.5756  -39.9359   -4.8887 C   0  0  0  0  0  0  0  0  0  0  0  0
  -21.2683  -41.2931   -4.9565 C   0  0  0  0  0  0  0  0  0  0  0  0
  -22.0937  -41.3773   -6.2053 C   0  0  0  0  0  0  0  0  0  0  0  0
  -23.2566  -41.8259   -6.5399 C   0  0  0  0  0  0  0  0  0  0  0  0
  -24.0617  -41.8999   -7.8002 C   0  0  0  0  0  0  0  0  0  0  0  0
  -24.3440  -43.4011   -8.0149 C   0  0  0  0  0  0  0  0  0  0  0  0
  -23.2495  -44.1811   -7.3986 C   0  0  0  0  0  0  0  0  0  0  0  0
  -22.2730  -44.7176   -8.3490 N   0  0  0  0  0  0  0  0  0  0  0  0
  -20.9050  -44.3778   -8.5763 C   0  0  0  0  0  0  0  0  0  0  0  0
  -20.2770  -43.1598   -8.7700 C   0  0  0  0  0  0  0  0  0  0  0  0
  -18.9047  -43.1331   -8.9556 C   0  0  0  0  0  0  0  0  0  0  0  0
  -18.1886  -44.3592   -8.9436 C   0  0  0  0  0  0  0  0  0  0  0  0
  -18.7703  -45.5831   -8.7573 C   0  0  0  0  0  0  0  0  0  0  0  0
  -17.9755  -46.8407   -8.7548 C   0  0  0  0  0  0  0  0  0  0  0  0
  -18.8810  -47.8873   -8.7317 O   0  0  0  0  0  0  0  0  0  0  0  0
  -20.1219  -45.5667   -8.5771 C   0  0  0  0  0  0  0  0  0  0  0  0
  -17.9611  -42.0318   -9.1769 C   0  0  0  0  0  0  0  0  0  0  0  0
  -17.0248  -42.2133  -10.1062 O   0  0  0  0  0  0  0  0  0  0  0  0
  -17.8031  -40.7483   -8.5991 N   0  0  0  0  0  0  0  0  0  0  0  0
  -17.6232  -40.3518   -7.2532 C   0  0  1  0  0  0  0  0  0  0  0  0
  -18.7168  -40.7586   -6.2887 C   0  0  0  0  0  0  0  0  0  0  0  0
  -16.2569  -40.6843   -6.6785 C   0  0  2  0  0  0  0  0  0  0  0  0
  -16.3092  -40.4511   -5.3039 O   0  0  0  0  0  0  0  0  0  0  0  0
  -15.1392  -39.8930   -7.2862 C   0  0  0  0  0  0  0  0  0  0  0  0
  -15.3458  -39.8039   -8.7097 N   0  0  0  0  0  0  0  0  0  0  0  0
  -14.2613  -39.2683   -9.4643 C   0  0  0  0  0  0  0  0  0  0  0  0
  -14.8574  -38.5934  -10.6741 C   0  0  0  0  0  0  0  0  0  0  0  0
  -15.3428  -37.3257  -10.8190 C   0  0  0  0  0  0  0  0  0  0  0  0
  -15.7714  -37.1903  -12.1198 C   0  0  0  0  0  0  0  0  0  0  0  0
  -16.3805  -36.0025  -12.7853 C   0  0  0  0  0  0  0  0  0  0  0  0
  -17.8634  -36.2025  -13.0047 C   0  0  0  0  0  0  0  0  0  0  0  0
  -18.4623  -37.0394  -11.8854 C   0  0  0  0  0  0  0  0  0  0  0  0
  -18.1633  -36.8469  -14.3201 C   0  0  0  0  0  0  0  0  0  0  0  0
  -18.5264  -34.8429  -12.9274 C   0  0  0  0  0  0  0  0  0  0  0  0
  -15.5421  -38.3404  -12.7067 O   0  0  0  0  0  0  0  0  0  0  0  0
  -15.0021  -39.1925  -11.8806 N   0  0  0  0  0  0  0  0  0  0  0  0
  2  1  1  1
  2  3  1  0
  3  4  1  0
  4  5  1  0
  5  6  2  0
  6  7  1  0
  7  8  1  0
  8  9  1  0
  9 10  1  0
 10 11  1  0
 11 12  1  0
 12 13  2  0
 13 14  1  0
 14 15  2  0
 15 16  1  0
 16 17  1  0
 15 18  1  0
 13 19  1  0
 19 20  2  0
 19 21  1  0
 21 22  1  0
 22 23  1  1
 22 24  1  0
 24 25  1  1
 24 26  1  0
 26 27  1  0
 27 28  1  0
 28 29  1  0
 29 30  1  0
 30 31  2  0
 31 32  1  0
 32 33  1  0
 33 34  1  0
 33 35  1  0
 33 36  1  0
 31 37  1  0
 37 38  1  0
 18 11  2  0
 23  2  1  0
 38 29  2  0
M  END
$$$$
