
     RDKit          3D

 38 40  0  0  0  0  0  0  0  0999 V2000
  -18.7017  -37.2322   -7.9545 C   0  0  0  0  0  0  0  0  0  0  0  0
  -19.4904  -38.5590   -8.0258 C   0  0  2  0  0  0  0  0  0  0  0  0
  -20.5504  -38.4431   -7.0015 C   0  0  0  0  0  0  0  0  0  0  0  0
  -21.2918  -39.7332   -6.6661 C   0  0  0  0  0  0  0  0  0  0  0  0
  -21.9464  -40.2754   -7.9011 C   0  0  0  0  0  0  0  0  0  0  0  0
  -23.0743  -40.8214   -8.2097 C   0  0  0  0  0  0  0  0  0  0  0  0
  -23.7069  -41.3583   -9.4561 C   0  0  0  0  0  0  0  0  0  0  0  0
  -24.0292  -42.8344   -9.1453 C   0  0  0  0  0  0  0  0  0  0  0  0
  -23.0651  -43.3272   -8.1386 C   0  0  0  0  0  0  0  0  0  0  0  0
  -21.9973  -44.1714   -8.6789 N   0  0  0  0  0  0  0  0  0  0  0  0
  -20.5966  -43.9325   -8.8186 C   0  0  0  0  0  0  0  0  0  0  0  0
  -19.8910  -42.8684   -9.3529 C   0  0  0  0  0  0  0  0  0  0  0  0
  -18.5065  -42.9053   -9.3393 C   0  0  0  0  0  0  0  0  0  0  0  0
  -17.8577  -44.0372   -8.7790 C   0  0  0  0  0  0  0  0  0  0  0  0
  -18.5166  -45.1093   -8.2429 C   0  0  0  0  0  0  0  0  0  0  0  0
  -17.7901  -46.2737   -7.6689 C   0  0  0  0  0  0  0  0  0  0  0  0
  -17.6829  -47.2162   -8.6769 O   0  0  0  0  0  0  0  0  0  0  0  0
  -19.8778  -45.0342   -8.2743 C   0  0  0  0  0  0  0  0  0  0  0  0
  -17.4905  -41.9584   -9.8117 C   0  0  0  0  0  0  0  0  0  0  0  0
  -16.4483  -42.4648  -10.4679 O   0  0  0  0  0  0  0  0  0  0  0  0
  -17.3500  -40.5515   -9.7264 N   0  0  0  0  0  0  0  0  0  0  0  0
  -17.3324  -39.6863   -8.6075 C   0  0  1  0  0  0  0  0  0  0  0  0
  -18.5629  -39.7146   -7.7262 C   0  0  0  0  0  0  0  0  0  0  0  0
  -16.0723  -39.7771   -7.7640 C   0  0  2  0  0  0  0  0  0  0  0  0
  -16.3227  -39.1197   -6.5591 O   0  0  0  0  0  0  0  0  0  0  0  0
  -14.8628  -39.1875   -8.4228 C   0  0  0  0  0  0  0  0  0  0  0  0
  -13.6953  -39.9237   -8.0080 N   0  0  0  0  0  0  0  0  0  0  0  0
  -12.4388  -39.3441   -8.3509 C   0  0  0  0  0  0  0  0  0  0  0  0
  -12.5588  -38.8381   -9.7666 C   0  0  0  0  0  0  0  0  0  0  0  0
  -12.8372  -37.5835  -10.2273 C   0  0  0  0  0  0  0  0  0  0  0  0
  -12.8289  -37.6339  -11.6026 C   0  0  0  0  0  0  0  0  0  0  0  0
  -13.0732  -36.5343  -12.5804 C   0  0  0  0  0  0  0  0  0  0  0  0
  -12.0011  -36.5062  -13.6466 C   0  0  0  0  0  0  0  0  0  0  0  0
  -12.5033  -35.7936  -14.8924 C   0  0  0  0  0  0  0  0  0  0  0  0
  -11.5282  -37.8757  -14.0159 C   0  0  0  0  0  0  0  0  0  0  0  0
  -10.8468  -35.6820  -13.1153 C   0  0  0  0  0  0  0  0  0  0  0  0
  -12.5556  -38.8749  -11.9259 O   0  0  0  0  0  0  0  0  0  0  0  0
  -12.3900  -39.6138  -10.8645 N   0  0  0  0  0  0  0  0  0  0  0  0
  2  1  1  1
  2  3  1  0
  3  4  1  0
  4  5  1  0
  5  6  2  0
  6  7  1  0
  7  8  1  0
  8  9  1  0
  9 10  1  0
 10 11  1  0
 11 12  1  0
 12 13  2  0
 13 14  1  0
 14 15  2  0
 15 16  1  0
 16 17  1  0
 15 18  1  0
 13 19  1  0
 19 20  2  0
 19 21  1  0
 21 22  1  0
 22 23  1  1
 22 24  1  0
 24 25  1  1
 24 26  1  0
 26 27  1  0
 27 28  1  0
 28 29  1  0
 29 30  1  0
 30 31  2  0
 31 32  1  0
 32 33  1  0
 33 34  1  0
 33 35  1  0
 33 36  1  0
 31 37  1  0
 37 38  1  0
 18 11  2  0
 23  2  1  0
 38 29  2  0
M  END
$$$$
