
     RDKit          3D

 38 40  0  0  0  0  0  0  0  0999 V2000
  -20.5494  -37.9797   -7.1815 C   0  0  0  0  0  0  0  0  0  0  0  0
  -20.4226  -39.5139   -7.3137 C   0  0  2  0  0  0  0  0  0  0  0  0
  -20.8958  -40.0613   -6.0243 C   0  0  0  0  0  0  0  0  0  0  0  0
  -20.6037  -41.5389   -5.7844 C   0  0  0  0  0  0  0  0  0  0  0  0
  -21.2453  -42.3620   -6.8609 C   0  0  0  0  0  0  0  0  0  0  0  0
  -21.8935  -43.4752   -6.9383 C   0  0  0  0  0  0  0  0  0  0  0  0
  -22.5259  -44.2808   -8.0307 C   0  0  0  0  0  0  0  0  0  0  0  0
  -21.8277  -45.6552   -7.9787 C   0  0  0  0  0  0  0  0  0  0  0  0
  -20.4638  -45.4729   -7.4379 C   0  0  0  0  0  0  0  0  0  0  0  0
  -19.3998  -45.5045   -8.4437 N   0  0  0  0  0  0  0  0  0  0  0  0
  -18.5436  -44.4714   -8.9320 C   0  0  0  0  0  0  0  0  0  0  0  0
  -18.8100  -43.1953   -9.3968 C   0  0  0  0  0  0  0  0  0  0  0  0
  -17.7554  -42.3930   -9.7998 C   0  0  0  0  0  0  0  0  0  0  0  0
  -16.4349  -42.9096   -9.7246 C   0  0  0  0  0  0  0  0  0  0  0  0
  -16.1287  -44.1641   -9.2735 C   0  0  0  0  0  0  0  0  0  0  0  0
  -14.7273  -44.6600   -9.2156 C   0  0  0  0  0  0  0  0  0  0  0  0
  -14.7790  -46.0307   -9.4008 O   0  0  0  0  0  0  0  0  0  0  0  0
  -17.1939  -44.9219   -8.8853 C   0  0  0  0  0  0  0  0  0  0  0  0
  -17.7028  -41.0241  -10.3249 C   0  0  0  0  0  0  0  0  0  0  0  0
  -16.8890  -40.8008  -11.3549 O   0  0  0  0  0  0  0  0  0  0  0  0
  -18.3509  -39.8154   -9.9709 N   0  0  0  0  0  0  0  0  0  0  0  0
  -18.4058  -39.1166   -8.7423 C   0  0  1  0  0  0  0  0  0  0  0  0
  -18.9783  -39.8813   -7.5679 C   0  0  0  0  0  0  0  0  0  0  0  0
  -17.1064  -38.4345   -8.3499 C   0  0  2  0  0  0  0  0  0  0  0  0
  -17.4338  -37.2852   -7.6299 O   0  0  0  0  0  0  0  0  0  0  0  0
  -16.2395  -38.0733   -9.5172 C   0  0  0  0  0  0  0  0  0  0  0  0
  -17.0604  -37.9639  -10.6967 N   0  0  0  0  0  0  0  0  0  0  0  0
  -16.6882  -36.9458  -11.6226 C   0  0  0  0  0  0  0  0  0  0  0  0
  -15.1894  -37.0152  -11.7746 C   0  0  0  0  0  0  0  0  0  0  0  0
  -14.4272  -37.8076  -12.5840 C   0  0  0  0  0  0  0  0  0  0  0  0
  -13.1081  -37.4874  -12.3572 C   0  0  0  0  0  0  0  0  0  0  0  0
  -11.8843  -38.0622  -12.9870 C   0  0  0  0  0  0  0  0  0  0  0  0
  -10.6895  -37.9368  -12.0685 C   0  0  0  0  0  0  0  0  0  0  0  0
  -10.2333  -39.3072  -11.5931 C   0  0  0  0  0  0  0  0  0  0  0  0
  -10.9699  -37.0693  -10.8834 C   0  0  0  0  0  0  0  0  0  0  0  0
   -9.5467  -37.3598  -12.8779 C   0  0  0  0  0  0  0  0  0  0  0  0
  -13.1075  -36.5427  -11.4477 O   0  0  0  0  0  0  0  0  0  0  0  0
  -14.3216  -36.2395  -11.0813 N   0  0  0  0  0  0  0  0  0  0  0  0
  2  1  1  1
  2  3  1  0
  3  4  1  0
  4  5  1  0
  5  6  2  0
  6  7  1  0
  7  8  1  0
  8  9  1  0
  9 10  1  0
 10 11  1  0
 11 12  1  0
 12 13  2  0
 13 14  1  0
 14 15  2  0
 15 16  1  0
 16 17  1  0
 15 18  1  0
 13 19  1  0
 19 20  2  0
 19 21  1  0
 21 22  1  0
 22 23  1  1
 22 24  1  0
 24 25  1  6
 24 26  1  0
 26 27  1  0
 27 28  1  0
 28 29  1  0
 29 30  1  0
 30 31  2  0
 31 32  1  0
 32 33  1  0
 33 34  1  0
 33 35  1  0
 33 36  1  0
 31 37  1  0
 37 38  1  0
 18 11  2  0
 23  2  1  0
 38 29  2  0
M  END
$$$$
