
     RDKit          3D

 38 40  0  0  0  0  0  0  0  0999 V2000
  -19.8888  -37.5389   -7.8322 C   0  0  0  0  0  0  0  0  0  0  0  0
  -20.4621  -38.9565   -7.6105 C   0  0  2  0  0  0  0  0  0  0  0  0
  -21.2972  -38.8584   -6.3943 C   0  0  0  0  0  0  0  0  0  0  0  0
  -21.7478  -40.1847   -5.7909 C   0  0  0  0  0  0  0  0  0  0  0  0
  -22.5481  -40.9527   -6.7997 C   0  0  0  0  0  0  0  0  0  0  0  0
  -23.6175  -41.6750   -6.8045 C   0  0  0  0  0  0  0  0  0  0  0  0
  -24.3996  -42.4363   -7.8296 C   0  0  0  0  0  0  0  0  0  0  0  0
  -24.4213  -43.8937   -7.3249 C   0  0  0  0  0  0  0  0  0  0  0  0
  -23.2089  -44.1311   -6.5126 C   0  0  0  0  0  0  0  0  0  0  0  0
  -22.1562  -44.8867   -7.1949 N   0  0  0  0  0  0  0  0  0  0  0  0
  -20.8667  -44.4847   -7.6577 C   0  0  0  0  0  0  0  0  0  0  0  0
  -20.4563  -43.4093   -8.4262 C   0  0  0  0  0  0  0  0  0  0  0  0
  -19.1090  -43.2623   -8.7117 C   0  0  0  0  0  0  0  0  0  0  0  0
  -18.1939  -44.2237   -8.2072 C   0  0  0  0  0  0  0  0  0  0  0  0
  -18.5575  -45.3007   -7.4463 C   0  0  0  0  0  0  0  0  0  0  0  0
  -17.5594  -46.2821   -6.9425 C   0  0  0  0  0  0  0  0  0  0  0  0
  -16.3276  -45.8919   -7.4386 O   0  0  0  0  0  0  0  0  0  0  0  0
  -19.8918  -45.4091   -7.1867 C   0  0  0  0  0  0  0  0  0  0  0  0
  -18.3678  -42.2540   -9.4773 C   0  0  0  0  0  0  0  0  0  0  0  0
  -17.4153  -42.6946  -10.2970 O   0  0  0  0  0  0  0  0  0  0  0  0
  -18.4309  -40.8409   -9.5513 N   0  0  0  0  0  0  0  0  0  0  0  0
  -18.3199  -39.8527   -8.5454 C   0  0  1  0  0  0  0  0  0  0  0  0
  -19.3267  -39.9360   -7.4180 C   0  0  0  0  0  0  0  0  0  0  0  0
  -16.9162  -39.6753   -7.9924 C   0  0  2  0  0  0  0  0  0  0  0  0
  -17.0017  -38.8264   -6.8884 O   0  0  0  0  0  0  0  0  0  0  0  0
  -15.9430  -39.1195   -8.9867 C   0  0  0  0  0  0  0  0  0  0  0  0
  -15.2088  -40.2062   -9.5842 N   0  0  0  0  0  0  0  0  0  0  0  0
  -13.8561  -39.9252   -9.9360 C   0  0  0  0  0  0  0  0  0  0  0  0
  -13.8869  -38.8026  -10.9426 C   0  0  0  0  0  0  0  0  0  0  0  0
  -13.2924  -37.5743  -10.9026 C   0  0  0  0  0  0  0  0  0  0  0  0
  -13.6187  -36.9159  -12.0662 C   0  0  0  0  0  0  0  0  0  0  0  0
  -13.2217  -35.5485  -12.5102 C   0  0  0  0  0  0  0  0  0  0  0  0
  -11.9576  -35.5911  -13.3392 C   0  0  0  0  0  0  0  0  0  0  0  0
  -12.1151  -36.5522  -14.5069 C   0  0  0  0  0  0  0  0  0  0  0  0
  -10.7604  -35.9822  -12.5335 C   0  0  0  0  0  0  0  0  0  0  0  0
  -11.7553  -34.2150  -13.9389 C   0  0  0  0  0  0  0  0  0  0  0  0
  -14.3763  -37.7351  -12.7551 O   0  0  0  0  0  0  0  0  0  0  0  0
  -14.5548  -38.8597  -12.1199 N   0  0  0  0  0  0  0  0  0  0  0  0
  2  1  1  1
  2  3  1  0
  3  4  1  0
  4  5  1  0
  5  6  2  0
  6  7  1  0
  7  8  1  0
  8  9  1  0
  9 10  1  0
 10 11  1  0
 11 12  1  0
 12 13  2  0
 13 14  1  0
 14 15  2  0
 15 16  1  0
 16 17  1  0
 15 18  1  0
 13 19  1  0
 19 20  2  0
 19 21  1  0
 21 22  1  0
 22 23  1  1
 22 24  1  0
 24 25  1  1
 24 26  1  0
 26 27  1  0
 27 28  1  0
 28 29  1  0
 29 30  1  0
 30 31  2  0
 31 32  1  0
 32 33  1  0
 33 34  1  0
 33 35  1  0
 33 36  1  0
 31 37  1  0
 37 38  1  0
 18 11  2  0
 23  2  1  0
 38 29  2  0
M  END
$$$$
