
     RDKit          3D

 38 40  0  0  0  0  0  0  0  0999 V2000
  -18.3336  -42.4898   -4.6035 C   0  0  0  0  0  0  0  0  0  0  0  0
  -19.3853  -41.9334   -5.5892 C   0  0  2  0  0  0  0  0  0  0  0  0
  -20.2587  -43.0790   -5.9222 C   0  0  0  0  0  0  0  0  0  0  0  0
  -21.2052  -42.8705   -7.0999 C   0  0  0  0  0  0  0  0  0  0  0  0
  -22.1103  -41.7082   -6.8210 C   0  0  0  0  0  0  0  0  0  0  0  0
  -23.3574  -41.4213   -6.9882 C   0  0  0  0  0  0  0  0  0  0  0  0
  -24.2414  -40.2474   -6.7012 C   0  0  0  0  0  0  0  0  0  0  0  0
  -24.8237  -39.8331   -8.0682 C   0  0  0  0  0  0  0  0  0  0  0  0
  -23.8644  -40.2150   -9.1264 C   0  0  0  0  0  0  0  0  0  0  0  0
  -23.0746  -39.1047   -9.6632 N   0  0  0  0  0  0  0  0  0  0  0  0
  -21.6843  -38.8026   -9.5439 C   0  0  0  0  0  0  0  0  0  0  0  0
  -20.8450  -38.7388   -8.4452 C   0  0  0  0  0  0  0  0  0  0  0  0
  -19.5088  -38.4293   -8.6371 C   0  0  0  0  0  0  0  0  0  0  0  0
  -19.0457  -38.1848   -9.9570 C   0  0  0  0  0  0  0  0  0  0  0  0
  -19.8412  -38.2360  -11.0686 C   0  0  0  0  0  0  0  0  0  0  0  0
  -19.3079  -37.9696  -12.4317 C   0  0  0  0  0  0  0  0  0  0  0  0
  -18.5563  -36.8102  -12.3487 O   0  0  0  0  0  0  0  0  0  0  0  0
  -21.1492  -38.5448  -10.8377 C   0  0  0  0  0  0  0  0  0  0  0  0
  -18.3852  -38.2903   -7.7041 C   0  0  0  0  0  0  0  0  0  0  0  0
  -17.5643  -37.2590   -7.8932 O   0  0  0  0  0  0  0  0  0  0  0  0
  -17.9434  -39.0403   -6.5867 N   0  0  0  0  0  0  0  0  0  0  0  0
  -17.6031  -40.4076   -6.4622 C   0  0  1  0  0  0  0  0  0  0  0  0
  -18.6902  -41.3983   -6.8205 C   0  0  0  0  0  0  0  0  0  0  0  0
  -16.2933  -40.7914   -7.1292 C   0  0  2  0  0  0  0  0  0  0  0  0
  -15.3047  -40.7990   -6.1446 O   0  0  0  0  0  0  0  0  0  0  0  0
  -15.8935  -39.8735   -8.2438 C   0  0  0  0  0  0  0  0  0  0  0  0
  -14.7378  -39.1148   -7.8366 N   0  0  0  0  0  0  0  0  0  0  0  0
  -13.6100  -39.1827   -8.7059 C   0  0  0  0  0  0  0  0  0  0  0  0
  -13.8960  -38.2686   -9.8709 C   0  0  0  0  0  0  0  0  0  0  0  0
  -14.1094  -38.5668  -11.1859 C   0  0  0  0  0  0  0  0  0  0  0  0
  -14.3331  -37.3825  -11.8502 C   0  0  0  0  0  0  0  0  0  0  0  0
  -14.6166  -37.1609  -13.2977 C   0  0  0  0  0  0  0  0  0  0  0  0
  -13.3845  -36.6708  -14.0248 C   0  0  0  0  0  0  0  0  0  0  0  0
  -13.4823  -36.9773  -15.5109 C   0  0  0  0  0  0  0  0  0  0  0  0
  -12.1260  -37.2648  -13.4782 C   0  0  0  0  0  0  0  0  0  0  0  0
  -13.3464  -35.1620  -13.8982 C   0  0  0  0  0  0  0  0  0  0  0  0
  -14.2514  -36.4321  -10.9503 O   0  0  0  0  0  0  0  0  0  0  0  0
  -13.9941  -36.9212   -9.7693 N   0  0  0  0  0  0  0  0  0  0  0  0
  2  1  1  1
  2  3  1  0
  3  4  1  0
  4  5  1  0
  5  6  2  0
  6  7  1  0
  7  8  1  0
  8  9  1  0
  9 10  1  0
 10 11  1  0
 11 12  1  0
 12 13  2  0
 13 14  1  0
 14 15  2  0
 15 16  1  0
 16 17  1  0
 15 18  1  0
 13 19  1  0
 19 20  2  0
 19 21  1  0
 21 22  1  0
 22 23  1  6
 22 24  1  0
 24 25  1  1
 24 26  1  0
 26 27  1  0
 27 28  1  0
 28 29  1  0
 29 30  1  0
 30 31  2  0
 31 32  1  0
 32 33  1  0
 33 34  1  0
 33 35  1  0
 33 36  1  0
 31 37  1  0
 37 38  1  0
 18 11  2  0
 23  2  1  0
 38 29  2  0
M  END
$$$$
