
     RDKit          3D

 38 40  0  0  0  0  0  0  0  0999 V2000
  -20.0039  -38.0210   -7.8330 C   0  0  0  0  0  0  0  0  0  0  0  0
  -20.4591  -39.4560   -7.4849 C   0  0  2  0  0  0  0  0  0  0  0  0
  -21.0868  -39.3576   -6.1498 C   0  0  0  0  0  0  0  0  0  0  0  0
  -21.3631  -40.6833   -5.4481 C   0  0  0  0  0  0  0  0  0  0  0  0
  -22.2776  -41.5204   -6.2912 C   0  0  0  0  0  0  0  0  0  0  0  0
  -23.2945  -42.2918   -6.1012 C   0  0  0  0  0  0  0  0  0  0  0  0
  -24.1942  -43.1218   -6.9637 C   0  0  0  0  0  0  0  0  0  0  0  0
  -24.0574  -44.5614   -6.4270 C   0  0  0  0  0  0  0  0  0  0  0  0
  -22.7174  -44.7152   -5.8214 C   0  0  0  0  0  0  0  0  0  0  0  0
  -21.7535  -45.4424   -6.6502 N   0  0  0  0  0  0  0  0  0  0  0  0
  -20.5801  -44.9957   -7.3299 C   0  0  0  0  0  0  0  0  0  0  0  0
  -20.3576  -43.9278   -8.1818 C   0  0  0  0  0  0  0  0  0  0  0  0
  -19.0849  -43.7272   -8.6901 C   0  0  0  0  0  0  0  0  0  0  0  0
  -18.0510  -44.6277   -8.3211 C   0  0  0  0  0  0  0  0  0  0  0  0
  -18.2286  -45.6952   -7.4844 C   0  0  0  0  0  0  0  0  0  0  0  0
  -17.1120  -46.6119   -7.1293 C   0  0  0  0  0  0  0  0  0  0  0  0
  -16.9617  -47.4900   -8.1887 O   0  0  0  0  0  0  0  0  0  0  0  0
  -19.4947  -45.8576   -7.0047 C   0  0  0  0  0  0  0  0  0  0  0  0
  -18.5327  -42.7107   -9.5923 C   0  0  0  0  0  0  0  0  0  0  0  0
  -17.7064  -43.1326  -10.5475 O   0  0  0  0  0  0  0  0  0  0  0  0
  -18.6799  -41.3052   -9.6891 N   0  0  0  0  0  0  0  0  0  0  0  0
  -18.4562  -40.2807   -8.7398 C   0  0  1  0  0  0  0  0  0  0  0  0
  -19.2585  -40.3744   -7.4595 C   0  0  0  0  0  0  0  0  0  0  0  0
  -16.9918  -40.0198   -8.4317 C   0  0  2  0  0  0  0  0  0  0  0  0
  -16.9384  -39.1037   -7.3807 O   0  0  0  0  0  0  0  0  0  0  0  0
  -16.2140  -39.4978   -9.6009 C   0  0  0  0  0  0  0  0  0  0  0  0
  -15.5242  -40.5936  -10.2339 N   0  0  0  0  0  0  0  0  0  0  0  0
  -15.4994  -40.5742  -11.6591 C   0  0  0  0  0  0  0  0  0  0  0  0
  -14.6996  -39.3632  -12.0693 C   0  0  0  0  0  0  0  0  0  0  0  0
  -14.0427  -38.4462  -11.3003 C   0  0  0  0  0  0  0  0  0  0  0  0
  -13.4586  -37.5335  -12.1487 C   0  0  0  0  0  0  0  0  0  0  0  0
  -12.6307  -36.3395  -11.8117 C   0  0  0  0  0  0  0  0  0  0  0  0
  -12.4513  -35.4439  -13.0170 C   0  0  0  0  0  0  0  0  0  0  0  0
  -11.0449  -34.8670  -13.0509 C   0  0  0  0  0  0  0  0  0  0  0  0
  -13.4457  -34.3279  -13.0512 C   0  0  0  0  0  0  0  0  0  0  0  0
  -12.5927  -36.3058  -14.2545 C   0  0  0  0  0  0  0  0  0  0  0  0
  -13.7675  -37.9096  -13.3664 O   0  0  0  0  0  0  0  0  0  0  0  0
  -14.5004  -38.9879  -13.3558 N   0  0  0  0  0  0  0  0  0  0  0  0
  2  1  1  1
  2  3  1  0
  3  4  1  0
  4  5  1  0
  5  6  2  0
  6  7  1  0
  7  8  1  0
  8  9  1  0
  9 10  1  0
 10 11  1  0
 11 12  1  0
 12 13  2  0
 13 14  1  0
 14 15  2  0
 15 16  1  0
 16 17  1  0
 15 18  1  0
 13 19  1  0
 19 20  2  0
 19 21  1  0
 21 22  1  0
 22 23  1  1
 22 24  1  0
 24 25  1  1
 24 26  1  0
 26 27  1  0
 27 28  1  0
 28 29  1  0
 29 30  1  0
 30 31  2  0
 31 32  1  0
 32 33  1  0
 33 34  1  0
 33 35  1  0
 33 36  1  0
 31 37  1  0
 37 38  1  0
 18 11  2  0
 23  2  1  0
 38 29  2  0
M  END
$$$$
