
     RDKit          3D

 38 40  0  0  0  0  0  0  0  0999 V2000
  -12.5476  -38.2894   -7.9678 C   0  0  0  0  0  0  0  0  0  0  0  0
  -13.5026  -37.9463   -9.1330 C   0  0  2  0  0  0  0  0  0  0  0  0
  -13.5335  -36.4694   -9.1957 C   0  0  0  0  0  0  0  0  0  0  0  0
  -14.6251  -35.8661  -10.0736 C   0  0  0  0  0  0  0  0  0  0  0  0
  -14.4661  -36.3519  -11.4831 C   0  0  0  0  0  0  0  0  0  0  0  0
  -14.5517  -35.8514  -12.6695 C   0  0  0  0  0  0  0  0  0  0  0  0
  -14.3890  -36.3599  -14.0684 C   0  0  0  0  0  0  0  0  0  0  0  0
  -15.7402  -36.0865  -14.7603 C   0  0  0  0  0  0  0  0  0  0  0  0
  -16.8068  -36.0978  -13.7365 C   0  0  0  0  0  0  0  0  0  0  0  0
  -17.6119  -37.3208  -13.7081 N   0  0  0  0  0  0  0  0  0  0  0  0
  -17.6930  -38.3647  -12.7374 C   0  0  0  0  0  0  0  0  0  0  0  0
  -16.7162  -39.1107  -12.1011 C   0  0  0  0  0  0  0  0  0  0  0  0
  -17.0975  -40.0664  -11.1741 C   0  0  0  0  0  0  0  0  0  0  0  0
  -18.4805  -40.2500  -10.9100 C   0  0  0  0  0  0  0  0  0  0  0  0
  -19.4768  -39.5360  -11.5172 C   0  0  0  0  0  0  0  0  0  0  0  0
  -20.9132  -39.7676  -11.2070 C   0  0  0  0  0  0  0  0  0  0  0  0
  -21.2358  -41.0162  -11.7100 O   0  0  0  0  0  0  0  0  0  0  0  0
  -19.0604  -38.6047  -12.4221 C   0  0  0  0  0  0  0  0  0  0  0  0
  -16.3256  -40.9975  -10.3437 C   0  0  0  0  0  0  0  0  0  0  0  0
  -16.7796  -42.2458  -10.2506 O   0  0  0  0  0  0  0  0  0  0  0  0
  -15.1441  -40.8714   -9.5727 N   0  0  0  0  0  0  0  0  0  0  0  0
  -14.8135  -39.9884   -8.5182 C   0  0  1  0  0  0  0  0  0  0  0  0
  -14.8748  -38.5114   -8.8444 C   0  0  0  0  0  0  0  0  0  0  0  0
  -15.5332  -40.2745   -7.2114 C   0  0  2  0  0  0  0  0  0  0  0  0
  -14.5815  -40.2507   -6.1915 O   0  0  0  0  0  0  0  0  0  0  0  0
  -16.2597  -41.5847   -7.1983 C   0  0  0  0  0  0  0  0  0  0  0  0
  -17.6124  -41.3680   -6.7509 N   0  0  0  0  0  0  0  0  0  0  0  0
  -18.4914  -42.4851   -6.8604 C   0  0  0  0  0  0  0  0  0  0  0  0
  -19.8776  -41.9884   -6.5347 C   0  0  0  0  0  0  0  0  0  0  0  0
  -20.4649  -40.7875   -6.8116 C   0  0  0  0  0  0  0  0  0  0  0  0
  -21.7457  -40.8250   -6.3093 C   0  0  0  0  0  0  0  0  0  0  0  0
  -22.7980  -39.7687   -6.3504 C   0  0  0  0  0  0  0  0  0  0  0  0
  -23.1984  -39.3448   -4.9551 C   0  0  0  0  0  0  0  0  0  0  0  0
  -23.1207  -40.5213   -3.9950 C   0  0  0  0  0  0  0  0  0  0  0  0
  -24.5730  -38.7584   -4.9098 C   0  0  0  0  0  0  0  0  0  0  0  0
  -22.1825  -38.3294   -4.4745 C   0  0  0  0  0  0  0  0  0  0  0  0
  -21.8937  -42.0067   -5.7605 O   0  0  0  0  0  0  0  0  0  0  0  0
  -20.8084  -42.7200   -5.8759 N   0  0  0  0  0  0  0  0  0  0  0  0
  2  1  1  1
  2  3  1  0
  3  4  1  0
  4  5  1  0
  5  6  2  0
  6  7  1  0
  7  8  1  0
  8  9  1  0
  9 10  1  0
 10 11  1  0
 11 12  1  0
 12 13  2  0
 13 14  1  0
 14 15  2  0
 15 16  1  0
 16 17  1  0
 15 18  1  0
 13 19  1  0
 19 20  2  0
 19 21  1  0
 21 22  1  0
 22 23  1  6
 22 24  1  0
 24 25  1  1
 24 26  1  0
 26 27  1  0
 27 28  1  0
 28 29  1  0
 29 30  1  0
 30 31  2  0
 31 32  1  0
 32 33  1  0
 33 34  1  0
 33 35  1  0
 33 36  1  0
 31 37  1  0
 37 38  1  0
 18 11  2  0
 23  2  1  0
 38 29  2  0
M  END
$$$$
