
     RDKit          3D

 38 40  0  0  0  0  0  0  0  0999 V2000
  -19.9711  -37.6573   -6.7959 C   0  0  0  0  0  0  0  0  0  0  0  0
  -20.4629  -39.1191   -6.7023 C   0  0  2  0  0  0  0  0  0  0  0  0
  -21.0654  -39.2471   -5.3582 C   0  0  0  0  0  0  0  0  0  0  0  0
  -21.3694  -40.6701   -4.9009 C   0  0  0  0  0  0  0  0  0  0  0  0
  -22.3221  -41.3167   -5.8612 C   0  0  0  0  0  0  0  0  0  0  0  0
  -23.3582  -42.0828   -5.7914 C   0  0  0  0  0  0  0  0  0  0  0  0
  -24.2961  -42.7194   -6.7698 C   0  0  0  0  0  0  0  0  0  0  0  0
  -24.1934  -44.2354   -6.5043 C   0  0  0  0  0  0  0  0  0  0  0  0
  -22.8488  -44.5312   -5.9653 C   0  0  0  0  0  0  0  0  0  0  0  0
  -21.9207  -45.1218   -6.9320 N   0  0  0  0  0  0  0  0  0  0  0  0
  -20.7458  -44.5905   -7.5452 C   0  0  0  0  0  0  0  0  0  0  0  0
  -20.5057  -43.3925   -8.1953 C   0  0  0  0  0  0  0  0  0  0  0  0
  -19.2362  -43.1369   -8.6864 C   0  0  0  0  0  0  0  0  0  0  0  0
  -18.2235  -44.1161   -8.5080 C   0  0  0  0  0  0  0  0  0  0  0  0
  -18.4190  -45.3121   -7.8737 C   0  0  0  0  0  0  0  0  0  0  0  0
  -17.3244  -46.3069   -7.7136 C   0  0  0  0  0  0  0  0  0  0  0  0
  -16.3317  -45.6943   -6.9686 O   0  0  0  0  0  0  0  0  0  0  0  0
  -19.6813  -45.5252   -7.4039 C   0  0  0  0  0  0  0  0  0  0  0  0
  -18.6688  -41.9889   -9.4024 C   0  0  0  0  0  0  0  0  0  0  0  0
  -17.8712  -42.2528  -10.4355 O   0  0  0  0  0  0  0  0  0  0  0  0
  -18.7759  -40.5858   -9.2413 N   0  0  0  0  0  0  0  0  0  0  0  0
  -18.5063  -39.7558   -8.1280 C   0  0  1  0  0  0  0  0  0  0  0  0
  -19.2898  -40.0582   -6.8686 C   0  0  0  0  0  0  0  0  0  0  0  0
  -17.0299  -39.5934   -7.8095 C   0  0  2  0  0  0  0  0  0  0  0  0
  -16.9269  -38.7430   -6.7082 O   0  0  0  0  0  0  0  0  0  0  0  0
  -16.2242  -39.0490   -8.9492 C   0  0  0  0  0  0  0  0  0  0  0  0
  -14.8702  -39.5305   -8.8403 N   0  0  0  0  0  0  0  0  0  0  0  0
  -14.2849  -40.0217  -10.0439 C   0  0  0  0  0  0  0  0  0  0  0  0
  -14.3013  -38.8866  -11.0368 C   0  0  0  0  0  0  0  0  0  0  0  0
  -13.6820  -37.6710  -10.9871 C   0  0  0  0  0  0  0  0  0  0  0  0
  -14.0045  -36.9922  -12.1401 C   0  0  0  0  0  0  0  0  0  0  0  0
  -13.5838  -35.6277  -12.5711 C   0  0  0  0  0  0  0  0  0  0  0  0
  -12.2641  -35.6726  -13.3083 C   0  0  0  0  0  0  0  0  0  0  0  0
  -12.3692  -36.5562  -14.5412 C   0  0  0  0  0  0  0  0  0  0  0  0
  -11.1448  -36.1587  -12.4444 C   0  0  0  0  0  0  0  0  0  0  0  0
  -11.9683  -34.2730  -13.8059 C   0  0  0  0  0  0  0  0  0  0  0  0
  -14.7838  -37.7878  -12.8323 O   0  0  0  0  0  0  0  0  0  0  0  0
  -14.9797  -38.9162  -12.2091 N   0  0  0  0  0  0  0  0  0  0  0  0
  2  1  1  1
  2  3  1  0
  3  4  1  0
  4  5  1  0
  5  6  2  0
  6  7  1  0
  7  8  1  0
  8  9  1  0
  9 10  1  0
 10 11  1  0
 11 12  1  0
 12 13  2  0
 13 14  1  0
 14 15  2  0
 15 16  1  0
 16 17  1  0
 15 18  1  0
 13 19  1  0
 19 20  2  0
 19 21  1  0
 21 22  1  0
 22 23  1  1
 22 24  1  0
 24 25  1  1
 24 26  1  0
 26 27  1  0
 27 28  1  0
 28 29  1  0
 29 30  1  0
 30 31  2  0
 31 32  1  0
 32 33  1  0
 33 34  1  0
 33 35  1  0
 33 36  1  0
 31 37  1  0
 37 38  1  0
 18 11  2  0
 23  2  1  0
 38 29  2  0
M  END
$$$$
