
     RDKit          3D

 38 40  0  0  0  0  0  0  0  0999 V2000
  -20.0217  -38.1910   -7.2708 C   0  0  0  0  0  0  0  0  0  0  0  0
  -20.5389  -39.6390   -7.1180 C   0  0  2  0  0  0  0  0  0  0  0  0
  -21.3262  -39.6466   -5.8665 C   0  0  0  0  0  0  0  0  0  0  0  0
  -21.7081  -41.0231   -5.3321 C   0  0  0  0  0  0  0  0  0  0  0  0
  -22.5236  -41.7541   -6.3561 C   0  0  0  0  0  0  0  0  0  0  0  0
  -23.5682  -42.5119   -6.3655 C   0  0  0  0  0  0  0  0  0  0  0  0
  -24.3665  -43.2345   -7.4060 C   0  0  0  0  0  0  0  0  0  0  0  0
  -24.3199  -44.7205   -6.9950 C   0  0  0  0  0  0  0  0  0  0  0  0
  -23.0681  -44.9655   -6.2473 C   0  0  0  0  0  0  0  0  0  0  0  0
  -22.0202  -45.6395   -7.0169 N   0  0  0  0  0  0  0  0  0  0  0  0
  -20.7645  -45.1642   -7.5027 C   0  0  0  0  0  0  0  0  0  0  0  0
  -20.4212  -44.0291   -8.2163 C   0  0  0  0  0  0  0  0  0  0  0  0
  -19.0923  -43.8173   -8.5439 C   0  0  0  0  0  0  0  0  0  0  0  0
  -18.1264  -44.7756   -8.1379 C   0  0  0  0  0  0  0  0  0  0  0  0
  -18.4232  -45.9102   -7.4337 C   0  0  0  0  0  0  0  0  0  0  0  0
  -17.3738  -46.8855   -7.0329 C   0  0  0  0  0  0  0  0  0  0  0  0
  -17.2749  -46.8238   -5.6537 O   0  0  0  0  0  0  0  0  0  0  0  0
  -19.7415  -46.0814   -7.1300 C   0  0  0  0  0  0  0  0  0  0  0  0
  -18.4164  -42.7377   -9.2718 C   0  0  0  0  0  0  0  0  0  0  0  0
  -17.4844  -43.0924  -10.1543 O   0  0  0  0  0  0  0  0  0  0  0  0
  -18.5285  -41.3258   -9.2528 N   0  0  0  0  0  0  0  0  0  0  0  0
  -18.4087  -40.3991   -8.1908 C   0  0  1  0  0  0  0  0  0  0  0  0
  -19.3652  -40.5881   -7.0328 C   0  0  0  0  0  0  0  0  0  0  0  0
  -16.9900  -40.2074   -7.6826 C   0  0  2  0  0  0  0  0  0  0  0  0
  -17.0408  -39.3044   -6.6202 O   0  0  0  0  0  0  0  0  0  0  0  0
  -16.0381  -39.7103   -8.7272 C   0  0  0  0  0  0  0  0  0  0  0  0
  -15.6876  -40.8012   -9.6015 N   0  0  0  0  0  0  0  0  0  0  0  0
  -14.3967  -40.7282  -10.2021 C   0  0  0  0  0  0  0  0  0  0  0  0
  -14.4097  -39.5404  -11.1312 C   0  0  0  0  0  0  0  0  0  0  0  0
  -13.9466  -38.2711  -10.9360 C   0  0  0  0  0  0  0  0  0  0  0  0
  -14.1869  -37.5585  -12.0887 C   0  0  0  0  0  0  0  0  0  0  0  0
  -13.8716  -36.1321  -12.3896 C   0  0  0  0  0  0  0  0  0  0  0  0
  -12.5010  -35.9978  -13.0144 C   0  0  0  0  0  0  0  0  0  0  0  0
  -12.1819  -34.5382  -13.2968 C   0  0  0  0  0  0  0  0  0  0  0  0
  -12.3705  -36.7868  -14.2777 C   0  0  0  0  0  0  0  0  0  0  0  0
  -11.4841  -36.4715  -11.9967 C   0  0  0  0  0  0  0  0  0  0  0  0
  -14.7693  -38.3872  -12.9215 O   0  0  0  0  0  0  0  0  0  0  0  0
  -14.9163  -39.5676  -12.3875 N   0  0  0  0  0  0  0  0  0  0  0  0
  2  1  1  1
  2  3  1  0
  3  4  1  0
  4  5  1  0
  5  6  2  0
  6  7  1  0
  7  8  1  0
  8  9  1  0
  9 10  1  0
 10 11  1  0
 11 12  1  0
 12 13  2  0
 13 14  1  0
 14 15  2  0
 15 16  1  0
 16 17  1  0
 15 18  1  0
 13 19  1  0
 19 20  2  0
 19 21  1  0
 21 22  1  0
 22 23  1  1
 22 24  1  0
 24 25  1  1
 24 26  1  0
 26 27  1  0
 27 28  1  0
 28 29  1  0
 29 30  1  0
 30 31  2  0
 31 32  1  0
 32 33  1  0
 33 34  1  0
 33 35  1  0
 33 36  1  0
 31 37  1  0
 37 38  1  0
 18 11  2  0
 23  2  1  0
 38 29  2  0
M  END
$$$$
