
     RDKit          3D

 38 40  0  0  0  0  0  0  0  0999 V2000
  -20.2650  -37.9735   -5.8283 C   0  0  0  0  0  0  0  0  0  0  0  0
  -20.3836  -39.4982   -6.0492 C   0  0  2  0  0  0  0  0  0  0  0  0
  -20.6029  -40.0755   -4.7058 C   0  0  0  0  0  0  0  0  0  0  0  0
  -20.4654  -41.5911   -4.6052 C   0  0  0  0  0  0  0  0  0  0  0  0
  -21.4527  -42.2499   -5.5213 C   0  0  0  0  0  0  0  0  0  0  0  0
  -22.2457  -43.2672   -5.4802 C   0  0  0  0  0  0  0  0  0  0  0  0
  -23.2256  -43.9085   -6.4133 C   0  0  0  0  0  0  0  0  0  0  0  0
  -22.7290  -45.3580   -6.5910 C   0  0  0  0  0  0  0  0  0  0  0  0
  -21.2634  -45.3830   -6.3982 C   0  0  0  0  0  0  0  0  0  0  0  0
  -20.4868  -45.4714   -7.6366 N   0  0  0  0  0  0  0  0  0  0  0  0
  -19.6408  -44.5180   -8.2800 C   0  0  0  0  0  0  0  0  0  0  0  0
  -19.8350  -43.1887   -8.6128 C   0  0  0  0  0  0  0  0  0  0  0  0
  -18.8092  -42.4940   -9.2320 C   0  0  0  0  0  0  0  0  0  0  0  0
  -17.5923  -43.1720   -9.5071 C   0  0  0  0  0  0  0  0  0  0  0  0
  -17.3601  -44.4838   -9.1965 C   0  0  0  0  0  0  0  0  0  0  0  0
  -16.0667  -45.1498   -9.5077 C   0  0  0  0  0  0  0  0  0  0  0  0
  -16.0111  -45.2949  -10.8830 O   0  0  0  0  0  0  0  0  0  0  0  0
  -18.3936  -45.1319   -8.5873 C   0  0  0  0  0  0  0  0  0  0  0  0
  -18.6987  -41.1075   -9.6984 C   0  0  0  0  0  0  0  0  0  0  0  0
  -18.1337  -40.9113  -10.8881 O   0  0  0  0  0  0  0  0  0  0  0  0
  -19.0721  -39.8574   -9.1468 N   0  0  0  0  0  0  0  0  0  0  0  0
  -18.7345  -39.2477   -7.9158 C   0  0  1  0  0  0  0  0  0  0  0  0
  -19.1065  -40.0197   -6.6679 C   0  0  0  0  0  0  0  0  0  0  0  0
  -17.2986  -38.7595   -7.8306 C   0  0  2  0  0  0  0  0  0  0  0  0
  -16.9633  -38.6685   -6.4793 O   0  0  0  0  0  0  0  0  0  0  0  0
  -17.0707  -37.4391   -8.5008 C   0  0  0  0  0  0  0  0  0  0  0  0
  -18.0068  -37.2953   -9.5872 N   0  0  0  0  0  0  0  0  0  0  0  0
  -17.8318  -38.1902  -10.6830 C   0  0  0  0  0  0  0  0  0  0  0  0
  -16.3696  -38.1557  -11.0508 C   0  0  0  0  0  0  0  0  0  0  0  0
  -15.3157  -37.5850  -10.3971 C   0  0  0  0  0  0  0  0  0  0  0  0
  -14.1824  -37.8351  -11.1368 C   0  0  0  0  0  0  0  0  0  0  0  0
  -12.7745  -37.4294  -10.8575 C   0  0  0  0  0  0  0  0  0  0  0  0
  -12.3058  -36.3791  -11.8393 C   0  0  0  0  0  0  0  0  0  0  0  0
  -11.9196  -35.1007  -11.1123 C   0  0  0  0  0  0  0  0  0  0  0  0
  -13.3370  -36.0672  -12.8761 C   0  0  0  0  0  0  0  0  0  0  0  0
  -11.0444  -36.8971  -12.4985 C   0  0  0  0  0  0  0  0  0  0  0  0
  -14.5679  -38.5262  -12.1824 O   0  0  0  0  0  0  0  0  0  0  0  0
  -15.8550  -38.7335  -12.1628 N   0  0  0  0  0  0  0  0  0  0  0  0
  2  1  1  1
  2  3  1  0
  3  4  1  0
  4  5  1  0
  5  6  2  0
  6  7  1  0
  7  8  1  0
  8  9  1  0
  9 10  1  0
 10 11  1  0
 11 12  1  0
 12 13  2  0
 13 14  1  0
 14 15  2  0
 15 16  1  0
 16 17  1  0
 15 18  1  0
 13 19  1  0
 19 20  2  0
 19 21  1  0
 21 22  1  0
 22 23  1  1
 22 24  1  0
 24 25  1  1
 24 26  1  0
 26 27  1  0
 27 28  1  0
 28 29  1  0
 29 30  1  0
 30 31  2  0
 31 32  1  0
 32 33  1  0
 33 34  1  0
 33 35  1  0
 33 36  1  0
 31 37  1  0
 37 38  1  0
 18 11  2  0
 23  2  1  0
 38 29  2  0
M  END
$$$$
