
     RDKit          3D

 38 40  0  0  0  0  0  0  0  0999 V2000
  -18.8238  -37.8244   -7.1661 C   0  0  0  0  0  0  0  0  0  0  0  0
  -19.5608  -39.1822   -7.1395 C   0  0  2  0  0  0  0  0  0  0  0  0
  -20.4094  -39.1466   -5.9293 C   0  0  0  0  0  0  0  0  0  0  0  0
  -21.0237  -40.4786   -5.5111 C   0  0  0  0  0  0  0  0  0  0  0  0
  -21.8810  -41.0100   -6.6204 C   0  0  0  0  0  0  0  0  0  0  0  0
  -23.0255  -41.5958   -6.7313 C   0  0  0  0  0  0  0  0  0  0  0  0
  -23.8636  -42.1205   -7.8557 C   0  0  0  0  0  0  0  0  0  0  0  0
  -24.0644  -43.6187   -7.5484 C   0  0  0  0  0  0  0  0  0  0  0  0
  -22.9079  -44.0997   -6.7629 C   0  0  0  0  0  0  0  0  0  0  0  0
  -21.9317  -44.8775   -7.5288 N   0  0  0  0  0  0  0  0  0  0  0  0
  -20.5934  -44.5718   -7.9216 C   0  0  0  0  0  0  0  0  0  0  0  0
  -20.0436  -43.4608   -8.5371 C   0  0  0  0  0  0  0  0  0  0  0  0
  -18.6816  -43.4361   -8.7873 C   0  0  0  0  0  0  0  0  0  0  0  0
  -17.8954  -44.5551   -8.4056 C   0  0  0  0  0  0  0  0  0  0  0  0
  -18.3987  -45.6721   -7.7974 C   0  0  0  0  0  0  0  0  0  0  0  0
  -17.5324  -46.8205   -7.4181 C   0  0  0  0  0  0  0  0  0  0  0  0
  -16.2454  -46.4997   -7.8139 O   0  0  0  0  0  0  0  0  0  0  0  0
  -19.7428  -45.6571   -7.5675 C   0  0  0  0  0  0  0  0  0  0  0  0
  -17.8110  -42.4300   -9.4055 C   0  0  0  0  0  0  0  0  0  0  0  0
  -16.8949  -42.8682  -10.2669 O   0  0  0  0  0  0  0  0  0  0  0  0
  -17.7103  -41.0217   -9.2926 N   0  0  0  0  0  0  0  0  0  0  0  0
  -17.5123  -40.1926   -8.1637 C   0  0  1  0  0  0  0  0  0  0  0  0
  -18.5500  -40.3041   -7.0672 C   0  0  0  0  0  0  0  0  0  0  0  0
  -16.1118  -40.2538   -7.5784 C   0  0  2  0  0  0  0  0  0  0  0  0
  -15.7884  -38.9750   -7.1235 O   0  0  0  0  0  0  0  0  0  0  0  0
  -15.0732  -40.7255   -8.5496 C   0  0  0  0  0  0  0  0  0  0  0  0
  -13.9805  -39.7859   -8.5629 N   0  0  0  0  0  0  0  0  0  0  0  0
  -13.1117  -39.8566   -9.6911 C   0  0  0  0  0  0  0  0  0  0  0  0
  -13.6378  -38.8812  -10.7140 C   0  0  0  0  0  0  0  0  0  0  0  0
  -13.2973  -37.5782  -10.9374 C   0  0  0  0  0  0  0  0  0  0  0  0
  -14.0593  -37.1235  -11.9894 C   0  0  0  0  0  0  0  0  0  0  0  0
  -14.0686  -35.7731  -12.6228 C   0  0  0  0  0  0  0  0  0  0  0  0
  -15.1301  -34.8901  -12.0062 C   0  0  0  0  0  0  0  0  0  0  0  0
  -15.2935  -35.2022  -10.5270 C   0  0  0  0  0  0  0  0  0  0  0  0
  -16.4527  -35.0259  -12.6902 C   0  0  0  0  0  0  0  0  0  0  0  0
  -14.6434  -33.4584  -12.0926 C   0  0  0  0  0  0  0  0  0  0  0  0
  -14.8147  -38.1288  -12.3611 O   0  0  0  0  0  0  0  0  0  0  0  0
  -14.5909  -39.1837  -11.6281 N   0  0  0  0  0  0  0  0  0  0  0  0
  2  1  1  1
  2  3  1  0
  3  4  1  0
  4  5  1  0
  5  6  2  0
  6  7  1  0
  7  8  1  0
  8  9  1  0
  9 10  1  0
 10 11  1  0
 11 12  1  0
 12 13  2  0
 13 14  1  0
 14 15  2  0
 15 16  1  0
 16 17  1  0
 15 18  1  0
 13 19  1  0
 19 20  2  0
 19 21  1  0
 21 22  1  0
 22 23  1  1
 22 24  1  0
 24 25  1  6
 24 26  1  0
 26 27  1  0
 27 28  1  0
 28 29  1  0
 29 30  1  0
 30 31  2  0
 31 32  1  0
 32 33  1  0
 33 34  1  0
 33 35  1  0
 33 36  1  0
 31 37  1  0
 37 38  1  0
 18 11  2  0
 23  2  1  0
 38 29  2  0
M  END
$$$$
