
     RDKit          3D

 38 40  0  0  0  0  0  0  0  0999 V2000
  -11.9752  -38.5215   -7.7381 C   0  0  0  0  0  0  0  0  0  0  0  0
  -12.4531  -38.7095   -9.1954 C   0  0  2  0  0  0  0  0  0  0  0  0
  -12.1824  -37.4212   -9.8685 C   0  0  0  0  0  0  0  0  0  0  0  0
  -12.8248  -37.2423  -11.2402 C   0  0  0  0  0  0  0  0  0  0  0  0
  -12.3456  -38.3192  -12.1669 C   0  0  0  0  0  0  0  0  0  0  0  0
  -11.9746  -38.4077  -13.3997 C   0  0  0  0  0  0  0  0  0  0  0  0
  -11.4994  -39.5002  -14.3068 C   0  0  0  0  0  0  0  0  0  0  0  0
  -12.5030  -39.5217  -15.4779 C   0  0  0  0  0  0  0  0  0  0  0  0
  -13.8093  -39.0297  -14.9907 C   0  0  0  0  0  0  0  0  0  0  0  0
  -14.8030  -40.0775  -14.7467 N   0  0  0  0  0  0  0  0  0  0  0  0
  -15.3685  -40.5649  -13.5296 C   0  0  0  0  0  0  0  0  0  0  0  0
  -14.7881  -40.9762  -12.3424 C   0  0  0  0  0  0  0  0  0  0  0  0
  -15.6044  -41.3939  -11.3044 C   0  0  0  0  0  0  0  0  0  0  0  0
  -17.0113  -41.3884  -11.4957 C   0  0  0  0  0  0  0  0  0  0  0  0
  -17.6247  -40.9917  -12.6522 C   0  0  0  0  0  0  0  0  0  0  0  0
  -19.1046  -41.0061  -12.8038 C   0  0  0  0  0  0  0  0  0  0  0  0
  -19.6260  -41.4625  -11.6056 O   0  0  0  0  0  0  0  0  0  0  0  0
  -16.7869  -40.5869  -13.6490 C   0  0  0  0  0  0  0  0  0  0  0  0
  -15.3090  -41.8749   -9.9503 C   0  0  0  0  0  0  0  0  0  0  0  0
  -15.9987  -42.9285   -9.5173 O   0  0  0  0  0  0  0  0  0  0  0  0
  -14.4119  -41.4556   -8.9375 N   0  0  0  0  0  0  0  0  0  0  0  0
  -14.2513  -40.2032   -8.2998 C   0  0  1  0  0  0  0  0  0  0  0  0
  -13.9299  -39.0330   -9.2049 C   0  0  0  0  0  0  0  0  0  0  0  0
  -15.3705  -39.8404   -7.3390 C   0  0  2  0  0  0  0  0  0  0  0  0
  -14.8606  -38.9158   -6.4270 O   0  0  0  0  0  0  0  0  0  0  0  0
  -15.9399  -41.0164   -6.6059 C   0  0  0  0  0  0  0  0  0  0  0  0
  -17.3420  -40.7864   -6.3648 N   0  0  0  0  0  0  0  0  0  0  0  0
  -18.1211  -41.9429   -6.0680 C   0  0  0  0  0  0  0  0  0  0  0  0
  -19.5648  -41.5074   -6.0450 C   0  0  0  0  0  0  0  0  0  0  0  0
  -20.3981  -41.1835   -7.0767 C   0  0  0  0  0  0  0  0  0  0  0  0
  -21.6212  -40.8568   -6.5369 C   0  0  0  0  0  0  0  0  0  0  0  0
  -22.8692  -40.4339   -7.2356 C   0  0  0  0  0  0  0  0  0  0  0  0
  -23.4745  -39.2140   -6.5779 C   0  0  0  0  0  0  0  0  0  0  0  0
  -22.4648  -38.0785   -6.5234 C   0  0  0  0  0  0  0  0  0  0  0  0
  -23.9742  -39.4992   -5.1979 C   0  0  0  0  0  0  0  0  0  0  0  0
  -24.6125  -38.7362   -7.4558 C   0  0  0  0  0  0  0  0  0  0  0  0
  -21.4991  -40.9869   -5.2377 O   0  0  0  0  0  0  0  0  0  0  0  0
  -20.2960  -41.3704   -4.9127 N   0  0  0  0  0  0  0  0  0  0  0  0
  2  1  1  1
  2  3  1  0
  3  4  1  0
  4  5  1  0
  5  6  2  0
  6  7  1  0
  7  8  1  0
  8  9  1  0
  9 10  1  0
 10 11  1  0
 11 12  1  0
 12 13  2  0
 13 14  1  0
 14 15  2  0
 15 16  1  0
 16 17  1  0
 15 18  1  0
 13 19  1  0
 19 20  2  0
 19 21  1  0
 21 22  1  0
 22 23  1  6
 22 24  1  0
 24 25  1  1
 24 26  1  0
 26 27  1  0
 27 28  1  0
 28 29  1  0
 29 30  1  0
 30 31  2  0
 31 32  1  0
 32 33  1  0
 33 34  1  0
 33 35  1  0
 33 36  1  0
 31 37  1  0
 37 38  1  0
 18 11  2  0
 23  2  1  0
 38 29  2  0
M  END
$$$$
