
     RDKit          3D

 38 40  0  0  0  0  0  0  0  0999 V2000
  -14.4179  -36.5691   -9.0875 C   0  0  0  0  0  0  0  0  0  0  0  0
  -14.3133  -37.7800  -10.0416 C   0  0  2  0  0  0  0  0  0  0  0  0
  -14.4353  -37.2199  -11.4045 C   0  0  0  0  0  0  0  0  0  0  0  0
  -14.6537  -38.2355  -12.5213 C   0  0  0  0  0  0  0  0  0  0  0  0
  -13.5084  -39.2024  -12.5561 C   0  0  0  0  0  0  0  0  0  0  0  0
  -12.7884  -39.7812  -13.4572 C   0  0  0  0  0  0  0  0  0  0  0  0
  -11.6457  -40.7487  -13.4667 C   0  0  0  0  0  0  0  0  0  0  0  0
  -12.1459  -41.9609  -14.2789 C   0  0  0  0  0  0  0  0  0  0  0  0
  -13.6161  -42.0448  -14.1467 C   0  0  0  0  0  0  0  0  0  0  0  0
  -14.0871  -43.0766  -13.2203 N   0  0  0  0  0  0  0  0  0  0  0  0
  -14.7213  -42.9699  -11.9456 C   0  0  0  0  0  0  0  0  0  0  0  0
  -14.4015  -42.2396  -10.8143 C   0  0  0  0  0  0  0  0  0  0  0  0
  -15.2265  -42.3227   -9.7050 C   0  0  0  0  0  0  0  0  0  0  0  0
  -16.3729  -43.1583   -9.7660 C   0  0  0  0  0  0  0  0  0  0  0  0
  -16.7238  -43.8970  -10.8625 C   0  0  0  0  0  0  0  0  0  0  0  0
  -17.9357  -44.7599  -10.8759 C   0  0  0  0  0  0  0  0  0  0  0  0
  -17.7956  -45.6313  -11.9422 O   0  0  0  0  0  0  0  0  0  0  0  0
  -15.8870  -43.7870  -11.9335 C   0  0  0  0  0  0  0  0  0  0  0  0
  -15.1694  -41.6870   -8.3841 C   0  0  0  0  0  0  0  0  0  0  0  0
  -15.4345  -42.4556   -7.3295 O   0  0  0  0  0  0  0  0  0  0  0  0
  -14.8838  -40.3715   -7.9434 N   0  0  0  0  0  0  0  0  0  0  0  0
  -15.4727  -39.1306   -8.2816 C   0  0  1  0  0  0  0  0  0  0  0  0
  -15.4320  -38.7532   -9.7470 C   0  0  0  0  0  0  0  0  0  0  0  0
  -16.8682  -38.9243   -7.7180 C   0  0  2  0  0  0  0  0  0  0  0  0
  -17.2559  -37.6182   -8.0189 O   0  0  0  0  0  0  0  0  0  0  0  0
  -16.9612  -39.1544   -6.2405 C   0  0  0  0  0  0  0  0  0  0  0  0
  -17.7547  -40.3327   -5.9971 N   0  0  0  0  0  0  0  0  0  0  0  0
  -18.8341  -40.1781   -5.0787 C   0  0  0  0  0  0  0  0  0  0  0  0
  -20.1074  -40.4134   -5.8519 C   0  0  0  0  0  0  0  0  0  0  0  0
  -21.0559  -41.3838   -5.7023 C   0  0  0  0  0  0  0  0  0  0  0  0
  -22.0296  -41.1637   -6.6497 C   0  0  0  0  0  0  0  0  0  0  0  0
  -23.2779  -41.9388   -6.9057 C   0  0  0  0  0  0  0  0  0  0  0  0
  -24.4754  -41.0216   -7.0138 C   0  0  0  0  0  0  0  0  0  0  0  0
  -24.2567  -39.9810   -8.1006 C   0  0  0  0  0  0  0  0  0  0  0  0
  -24.7843  -40.3327   -5.7232 C   0  0  0  0  0  0  0  0  0  0  0  0
  -25.6579  -41.8602   -7.4528 C   0  0  0  0  0  0  0  0  0  0  0  0
  -21.6567  -40.1027   -7.3241 O   0  0  0  0  0  0  0  0  0  0  0  0
  -20.5245  -39.6339   -6.8785 N   0  0  0  0  0  0  0  0  0  0  0  0
  2  1  1  1
  2  3  1  0
  3  4  1  0
  4  5  1  0
  5  6  2  0
  6  7  1  0
  7  8  1  0
  8  9  1  0
  9 10  1  0
 10 11  1  0
 11 12  1  0
 12 13  2  0
 13 14  1  0
 14 15  2  0
 15 16  1  0
 16 17  1  0
 15 18  1  0
 13 19  1  0
 19 20  2  0
 19 21  1  0
 21 22  1  0
 22 23  1  6
 22 24  1  0
 24 25  1  1
 24 26  1  0
 26 27  1  0
 27 28  1  0
 28 29  1  0
 29 30  1  0
 30 31  2  0
 31 32  1  0
 32 33  1  0
 33 34  1  0
 33 35  1  0
 33 36  1  0
 31 37  1  0
 37 38  1  0
 18 11  2  0
 23  2  1  0
 38 29  2  0
M  END
$$$$
