
     RDKit          3D

 38 40  0  0  0  0  0  0  0  0999 V2000
  -19.3228  -37.8241   -6.6909 C   0  0  0  0  0  0  0  0  0  0  0  0
  -19.9175  -39.2501   -6.6790 C   0  0  2  0  0  0  0  0  0  0  0  0
  -20.6656  -39.3548   -5.4080 C   0  0  0  0  0  0  0  0  0  0  0  0
  -21.1097  -40.7598   -5.0141 C   0  0  0  0  0  0  0  0  0  0  0  0
  -21.9966  -41.3272   -6.0815 C   0  0  0  0  0  0  0  0  0  0  0  0
  -23.0828  -42.0219   -6.1359 C   0  0  0  0  0  0  0  0  0  0  0  0
  -23.9525  -42.5799   -7.2195 C   0  0  0  0  0  0  0  0  0  0  0  0
  -23.9790  -44.1028   -6.9758 C   0  0  0  0  0  0  0  0  0  0  0  0
  -22.7213  -44.4967   -6.3057 C   0  0  0  0  0  0  0  0  0  0  0  0
  -21.7376  -45.1360   -7.1823 N   0  0  0  0  0  0  0  0  0  0  0  0
  -20.4720  -44.6778   -7.6587 C   0  0  0  0  0  0  0  0  0  0  0  0
  -20.0859  -43.4903   -8.2555 C   0  0  0  0  0  0  0  0  0  0  0  0
  -18.7575  -43.3151   -8.6063 C   0  0  0  0  0  0  0  0  0  0  0  0
  -17.8364  -44.3632   -8.3433 C   0  0  0  0  0  0  0  0  0  0  0  0
  -18.1765  -45.5516   -7.7574 C   0  0  0  0  0  0  0  0  0  0  0  0
  -17.1733  -46.6206   -7.5045 C   0  0  0  0  0  0  0  0  0  0  0  0
  -16.0525  -46.3038   -8.2525 O   0  0  0  0  0  0  0  0  0  0  0  0
  -19.4926  -45.6845   -7.4263 C   0  0  0  0  0  0  0  0  0  0  0  0
  -18.0430  -42.1989   -9.2355 C   0  0  0  0  0  0  0  0  0  0  0  0
  -17.1602  -42.5026  -10.1851 O   0  0  0  0  0  0  0  0  0  0  0  0
  -18.0732  -40.7940   -9.0578 N   0  0  0  0  0  0  0  0  0  0  0  0
  -17.8681  -39.9993   -7.9057 C   0  0  1  0  0  0  0  0  0  0  0  0
  -18.7983  -40.2646   -6.7413 C   0  0  0  0  0  0  0  0  0  0  0  0
  -16.4260  -39.9421   -7.4317 C   0  0  2  0  0  0  0  0  0  0  0  0
  -16.4350  -39.5139   -6.1038 O   0  0  0  0  0  0  0  0  0  0  0  0
  -15.5580  -39.0373   -8.2517 C   0  0  0  0  0  0  0  0  0  0  0  0
  -15.5130  -39.5288   -9.6058 N   0  0  0  0  0  0  0  0  0  0  0  0
  -14.2486  -40.0145  -10.0505 C   0  0  0  0  0  0  0  0  0  0  0  0
  -13.5187  -38.8459  -10.6638 C   0  0  0  0  0  0  0  0  0  0  0  0
  -13.6597  -38.2744  -11.8956 C   0  0  0  0  0  0  0  0  0  0  0  0
  -12.7660  -37.2308  -11.9749 C   0  0  0  0  0  0  0  0  0  0  0  0
  -12.5244  -36.2901  -13.1069 C   0  0  0  0  0  0  0  0  0  0  0  0
  -13.1778  -34.9507  -12.8503 C   0  0  0  0  0  0  0  0  0  0  0  0
  -13.1128  -34.0763  -14.0926 C   0  0  0  0  0  0  0  0  0  0  0  0
  -12.5570  -34.2244  -11.7003 C   0  0  0  0  0  0  0  0  0  0  0  0
  -14.6463  -35.2011  -12.5768 C   0  0  0  0  0  0  0  0  0  0  0  0
  -12.1298  -37.2003  -10.8287 O   0  0  0  0  0  0  0  0  0  0  0  0
  -12.5503  -38.1415  -10.0303 N   0  0  0  0  0  0  0  0  0  0  0  0
  2  1  1  1
  2  3  1  0
  3  4  1  0
  4  5  1  0
  5  6  2  0
  6  7  1  0
  7  8  1  0
  8  9  1  0
  9 10  1  0
 10 11  1  0
 11 12  1  0
 12 13  2  0
 13 14  1  0
 14 15  2  0
 15 16  1  0
 16 17  1  0
 15 18  1  0
 13 19  1  0
 19 20  2  0
 19 21  1  0
 21 22  1  0
 22 23  1  1
 22 24  1  0
 24 25  1  1
 24 26  1  0
 26 27  1  0
 27 28  1  0
 28 29  1  0
 29 30  1  0
 30 31  2  0
 31 32  1  0
 32 33  1  0
 33 34  1  0
 33 35  1  0
 33 36  1  0
 31 37  1  0
 37 38  1  0
 18 11  2  0
 23  2  1  0
 38 29  2  0
M  END
$$$$
