
     RDKit          3D

 38 40  0  0  0  0  0  0  0  0999 V2000
  -16.8600  -35.7427   -8.0519 C   0  0  0  0  0  0  0  0  0  0  0  0
  -16.3806  -36.9049   -8.9503 C   0  0  2  0  0  0  0  0  0  0  0  0
  -16.1558  -36.3060  -10.2833 C   0  0  0  0  0  0  0  0  0  0  0  0
  -15.9552  -37.2936  -11.4283 C   0  0  0  0  0  0  0  0  0  0  0  0
  -14.7677  -38.1633  -11.1431 C   0  0  0  0  0  0  0  0  0  0  0  0
  -13.7719  -38.6483  -11.8054 C   0  0  0  0  0  0  0  0  0  0  0  0
  -12.5940  -39.5197  -11.4969 C   0  0  0  0  0  0  0  0  0  0  0  0
  -12.7322  -40.7371  -12.4340 C   0  0  0  0  0  0  0  0  0  0  0  0
  -14.1654  -40.9439  -12.7326 C   0  0  0  0  0  0  0  0  0  0  0  0
  -14.7895  -42.0440  -11.9945 N   0  0  0  0  0  0  0  0  0  0  0  0
  -15.7691  -42.0362  -10.9558 C   0  0  0  0  0  0  0  0  0  0  0  0
  -15.8521  -41.3252   -9.7713 C   0  0  0  0  0  0  0  0  0  0  0  0
  -16.9497  -41.5158   -8.9484 C   0  0  0  0  0  0  0  0  0  0  0  0
  -17.9526  -42.4380   -9.3480 C   0  0  0  0  0  0  0  0  0  0  0  0
  -17.9085  -43.1612  -10.5083 C   0  0  0  0  0  0  0  0  0  0  0  0
  -18.9851  -44.1176  -10.8817 C   0  0  0  0  0  0  0  0  0  0  0  0
  -19.0355  -45.0746   -9.8829 O   0  0  0  0  0  0  0  0  0  0  0  0
  -16.8131  -42.9444  -11.2909 C   0  0  0  0  0  0  0  0  0  0  0  0
  -17.3293  -40.9271   -7.6593 C   0  0  0  0  0  0  0  0  0  0  0  0
  -17.8169  -41.7533   -6.7358 O   0  0  0  0  0  0  0  0  0  0  0  0
  -17.2984  -39.6103   -7.1386 N   0  0  0  0  0  0  0  0  0  0  0  0
  -17.8724  -38.4091   -7.6167 C   0  0  1  0  0  0  0  0  0  0  0  0
  -17.4470  -37.9752   -9.0033 C   0  0  0  0  0  0  0  0  0  0  0  0
  -19.3833  -38.3368   -7.4773 C   0  0  2  0  0  0  0  0  0  0  0  0
  -19.7453  -36.9895   -7.5018 O   0  0  0  0  0  0  0  0  0  0  0  0
  -19.9044  -38.9804   -6.2288 C   0  0  0  0  0  0  0  0  0  0  0  0
  -21.1215  -39.6881   -6.5372 N   0  0  0  0  0  0  0  0  0  0  0  0
  -21.7683  -40.3239   -5.4373 C   0  0  0  0  0  0  0  0  0  0  0  0
  -21.3807  -41.7807   -5.4806 C   0  0  0  0  0  0  0  0  0  0  0  0
  -21.7487  -42.7588   -6.3591 C   0  0  0  0  0  0  0  0  0  0  0  0
  -21.1215  -43.9217   -5.9738 C   0  0  0  0  0  0  0  0  0  0  0  0
  -21.1909  -45.2737   -6.5998 C   0  0  0  0  0  0  0  0  0  0  0  0
  -22.3495  -46.0716   -6.0448 C   0  0  0  0  0  0  0  0  0  0  0  0
  -23.6490  -45.2938   -6.1802 C   0  0  0  0  0  0  0  0  0  0  0  0
  -22.1463  -46.4514   -4.6131 C   0  0  0  0  0  0  0  0  0  0  0  0
  -22.5011  -47.3144   -6.8971 C   0  0  0  0  0  0  0  0  0  0  0  0
  -20.4156  -43.6262   -4.9089 O   0  0  0  0  0  0  0  0  0  0  0  0
  -20.5460  -42.3687   -4.5901 N   0  0  0  0  0  0  0  0  0  0  0  0
  2  1  1  1
  2  3  1  0
  3  4  1  0
  4  5  1  0
  5  6  2  0
  6  7  1  0
  7  8  1  0
  8  9  1  0
  9 10  1  0
 10 11  1  0
 11 12  1  0
 12 13  2  0
 13 14  1  0
 14 15  2  0
 15 16  1  0
 16 17  1  0
 15 18  1  0
 13 19  1  0
 19 20  2  0
 19 21  1  0
 21 22  1  0
 22 23  1  6
 22 24  1  0
 24 25  1  1
 24 26  1  0
 26 27  1  0
 27 28  1  0
 28 29  1  0
 29 30  1  0
 30 31  2  0
 31 32  1  0
 32 33  1  0
 33 34  1  0
 33 35  1  0
 33 36  1  0
 31 37  1  0
 37 38  1  0
 18 11  2  0
 23  2  1  0
 38 29  2  0
M  END
$$$$
