
     RDKit          3D

 38 40  0  0  0  0  0  0  0  0999 V2000
  -20.4377  -37.9916   -7.4795 C   0  0  0  0  0  0  0  0  0  0  0  0
  -20.7339  -39.5064   -7.4081 C   0  0  2  0  0  0  0  0  0  0  0  0
  -21.6805  -39.6706   -6.2842 C   0  0  0  0  0  0  0  0  0  0  0  0
  -21.9105  -41.1037   -5.8154 C   0  0  0  0  0  0  0  0  0  0  0  0
  -22.4442  -41.9267   -6.9493 C   0  0  0  0  0  0  0  0  0  0  0  0
  -23.3424  -42.8388   -7.1128 C   0  0  0  0  0  0  0  0  0  0  0  0
  -23.8582  -43.6504   -8.2606 C   0  0  0  0  0  0  0  0  0  0  0  0
  -23.6345  -45.1208   -7.8519 C   0  0  0  0  0  0  0  0  0  0  0  0
  -22.4795  -45.1855   -6.9312 C   0  0  0  0  0  0  0  0  0  0  0  0
  -21.2384  -45.6657   -7.5425 N   0  0  0  0  0  0  0  0  0  0  0  0
  -20.0183  -44.9862   -7.8393 C   0  0  0  0  0  0  0  0  0  0  0  0
  -19.7620  -43.7929   -8.4918 C   0  0  0  0  0  0  0  0  0  0  0  0
  -18.4508  -43.3661   -8.6222 C   0  0  0  0  0  0  0  0  0  0  0  0
  -17.4125  -44.1709   -8.0833 C   0  0  0  0  0  0  0  0  0  0  0  0
  -17.6222  -45.3561   -7.4334 C   0  0  0  0  0  0  0  0  0  0  0  0
  -16.4989  -46.1645   -6.8876 C   0  0  0  0  0  0  0  0  0  0  0  0
  -16.1777  -45.6236   -5.6546 O   0  0  0  0  0  0  0  0  0  0  0  0
  -18.9260  -45.7406   -7.3249 C   0  0  0  0  0  0  0  0  0  0  0  0
  -17.8588  -42.1748   -9.2407 C   0  0  0  0  0  0  0  0  0  0  0  0
  -16.7658  -42.3552   -9.9796 O   0  0  0  0  0  0  0  0  0  0  0  0
  -18.1962  -40.7992   -9.2336 N   0  0  0  0  0  0  0  0  0  0  0  0
  -18.3786  -39.8934   -8.1625 C   0  0  1  0  0  0  0  0  0  0  0  0
  -19.4482  -40.2610   -7.1564 C   0  0  0  0  0  0  0  0  0  0  0  0
  -17.0960  -39.4944   -7.4530 C   0  0  2  0  0  0  0  0  0  0  0  0
  -17.2760  -38.2060   -6.9488 O   0  0  0  0  0  0  0  0  0  0  0  0
  -15.8843  -39.5310   -8.3334 C   0  0  0  0  0  0  0  0  0  0  0  0
  -15.0843  -38.3590   -8.0813 N   0  0  0  0  0  0  0  0  0  0  0  0
  -15.4480  -37.1881   -8.8087 C   0  0  0  0  0  0  0  0  0  0  0  0
  -14.8710  -37.3334  -10.1945 C   0  0  0  0  0  0  0  0  0  0  0  0
  -14.1768  -36.4349  -10.9524 C   0  0  0  0  0  0  0  0  0  0  0  0
  -13.8637  -37.0492  -12.1435 C   0  0  0  0  0  0  0  0  0  0  0  0
  -13.1141  -36.5005  -13.3104 C   0  0  0  0  0  0  0  0  0  0  0  0
  -11.7075  -37.0535  -13.3625 C   0  0  0  0  0  0  0  0  0  0  0  0
  -10.7134  -35.9568  -13.7102 C   0  0  0  0  0  0  0  0  0  0  0  0
  -11.5715  -38.1744  -14.3426 C   0  0  0  0  0  0  0  0  0  0  0  0
  -11.3506  -37.5322  -11.9706 C   0  0  0  0  0  0  0  0  0  0  0  0
  -14.3602  -38.2611  -12.0766 O   0  0  0  0  0  0  0  0  0  0  0  0
  -14.9623  -38.4624  -10.9378 N   0  0  0  0  0  0  0  0  0  0  0  0
  2  1  1  1
  2  3  1  0
  3  4  1  0
  4  5  1  0
  5  6  2  0
  6  7  1  0
  7  8  1  0
  8  9  1  0
  9 10  1  0
 10 11  1  0
 11 12  1  0
 12 13  2  0
 13 14  1  0
 14 15  2  0
 15 16  1  0
 16 17  1  0
 15 18  1  0
 13 19  1  0
 19 20  2  0
 19 21  1  0
 21 22  1  0
 22 23  1  1
 22 24  1  0
 24 25  1  6
 24 26  1  0
 26 27  1  0
 27 28  1  0
 28 29  1  0
 29 30  1  0
 30 31  2  0
 31 32  1  0
 32 33  1  0
 33 34  1  0
 33 35  1  0
 33 36  1  0
 31 37  1  0
 37 38  1  0
 18 11  2  0
 23  2  1  0
 38 29  2  0
M  END
$$$$
