
     RDKit          3D

 38 41  0  0  0  0  0  0  0  0999 V2000
  -17.1827  -44.1956   -9.5788 C   0  0  0  0  0  0  0  0  0  0  0  0
  -16.5182  -42.8644   -9.5044 C   0  0  0  0  0  0  0  0  0  0  0  0
  -16.8079  -41.9684   -8.4961 C   0  0  0  0  0  0  0  0  0  0  0  0
  -16.2019  -40.6956   -8.3929 C   0  0  0  0  0  0  0  0  0  0  0  0
  -15.2710  -40.3087   -9.3335 C   0  0  0  0  0  0  0  0  0  0  0  0
  -14.9880  -41.2048  -10.3335 C   0  0  0  0  0  0  0  0  0  0  0  0
  -14.0987  -41.1659  -11.4625 N   0  0  0  0  0  0  0  0  0  0  0  0
  -13.9861  -40.2438  -12.5456 C   0  0  0  0  0  0  0  0  0  0  0  0
  -14.6444  -38.9305  -12.1074 C   0  0  0  0  0  0  0  0  0  0  0  0
  -13.6271  -37.9673  -11.5985 C   0  0  0  0  0  0  0  0  0  0  0  0
  -14.2022  -36.6148  -11.2309 C   0  0  0  0  0  0  0  0  0  0  0  0
  -15.6371  -36.6523  -10.8225 C   0  0  0  0  0  0  0  0  0  0  0  0
  -16.4667  -36.3876  -11.9404 C   0  0  0  0  0  0  0  0  0  0  0  0
  -17.8277  -36.3142  -11.8809 C   0  0  0  0  0  0  0  0  0  0  0  0
  -18.3491  -36.5193  -10.6297 C   0  0  0  0  0  0  0  0  0  0  0  0
  -17.5792  -36.7890   -9.4737 C   0  0  0  0  0  0  0  0  0  0  0  0
  -18.4508  -36.9137   -8.2797 C   0  0  0  0  0  0  0  0  0  0  0  0
  -18.5564  -38.2248   -7.5827 C   0  0  2  0  0  0  0  0  0  0  0  0
  -17.2786  -38.6885   -7.0806 N   0  0  0  0  0  0  0  0  0  0  0  0
  -16.7273  -39.9938   -7.2074 C   0  0  0  0  0  0  0  0  0  0  0  0
  -16.7106  -40.6338   -6.0443 O   0  0  0  0  0  0  0  0  0  0  0  0
  -19.2974  -39.2086   -8.4152 C   0  0  2  0  0  0  0  0  0  0  0  0
  -19.0350  -39.1117   -9.7539 O   0  0  0  0  0  0  0  0  0  0  0  0
  -20.7019  -39.5020   -8.0116 C   0  0  0  0  0  0  0  0  0  0  0  0
  -21.2861  -38.4477   -7.2632 N   0  0  0  0  0  0  0  0  0  0  0  0
  -22.4286  -38.9502   -6.4974 C   0  0  0  0  0  0  0  0  0  0  0  0
  -22.1646  -40.3227   -5.9907 C   0  0  0  0  0  0  0  0  0  0  0  0
  -22.0081  -40.4761   -4.6310 C   0  0  0  0  0  0  0  0  0  0  0  0
  -21.7597  -41.7223   -4.0980 C   0  0  0  0  0  0  0  0  0  0  0  0
  -21.6750  -42.7875   -4.9401 C   0  0  0  0  0  0  0  0  0  0  0  0
  -21.8387  -42.5945   -6.2983 C   0  0  0  0  0  0  0  0  0  0  0  0
  -22.0783  -41.3786   -6.8033 N   0  0  0  0  0  0  0  0  0  0  0  0
  -21.5853  -41.8704   -2.6424 C   0  0  0  0  0  0  0  0  0  0  0  0
  -20.4224  -42.8054   -2.3254 C   0  0  0  0  0  0  0  0  0  0  0  0
  -22.8098  -42.5236   -2.0114 C   0  0  0  0  0  0  0  0  0  0  0  0
  -21.4088  -40.5148   -2.0289 C   0  0  0  0  0  0  0  0  0  0  0  0
  -16.2133  -36.8545   -9.5901 C   0  0  0  0  0  0  0  0  0  0  0  0
  -15.6254  -42.4397  -10.3708 N   0  0  0  0  0  0  0  0  0  0  0  0
  1  2  1  0
  2  3  2  0
  3  4  1  0
  4  5  2  0
  5  6  1  0
  6  7  1  0
  7  8  1  0
  8  9  1  0
  9 10  1  0
 10 11  1  0
 11 12  1  0
 12 13  1  0
 13 14  2  0
 14 15  1  0
 15 16  2  0
 16 17  1  0
 18 17  1  6
 18 19  1  0
 19 20  1  0
 20 21  2  0
 18 22  1  0
 22 23  1  6
 22 24  1  0
 24 25  1  0
 25 26  1  0
 26 27  1  0
 27 28  2  0
 28 29  1  0
 29 30  2  0
 30 31  1  0
 31 32  2  0
 29 33  1  0
 33 34  1  0
 33 35  1  0
 33 36  1  0
 16 37  1  0
  6 38  2  0
 20  4  1  0
 32 27  1  0
 37 12  2  0
 38  2  1  0
M  END
$$$$
