
     RDKit          3D

 38 41  0  0  0  0  0  0  0  0999 V2000
  -17.3358  -45.5325   -7.2994 C   0  0  0  0  0  0  0  0  0  0  0  0
  -18.4273  -44.5437   -7.5238 C   0  0  0  0  0  0  0  0  0  0  0  0
  -18.3061  -43.5340   -8.4560 C   0  0  0  0  0  0  0  0  0  0  0  0
  -19.3169  -42.5753   -8.6957 C   0  0  0  0  0  0  0  0  0  0  0  0
  -20.4915  -42.6329   -7.9759 C   0  0  0  0  0  0  0  0  0  0  0  0
  -20.6049  -43.6397   -7.0504 C   0  0  0  0  0  0  0  0  0  0  0  0
  -21.6470  -44.0173   -6.1346 N   0  0  0  0  0  0  0  0  0  0  0  0
  -22.3139  -43.2848   -5.1077 C   0  0  0  0  0  0  0  0  0  0  0  0
  -22.1313  -41.7927   -5.4085 C   0  0  0  0  0  0  0  0  0  0  0  0
  -23.3156  -41.2446   -6.1288 C   0  0  0  0  0  0  0  0  0  0  0  0
  -23.2371  -39.7524   -6.3785 C   0  0  0  0  0  0  0  0  0  0  0  0
  -21.8455  -39.2221   -6.4748 C   0  0  0  0  0  0  0  0  0  0  0  0
  -21.4182  -38.7486   -5.2094 C   0  0  0  0  0  0  0  0  0  0  0  0
  -20.2047  -38.1685   -4.9812 C   0  0  0  0  0  0  0  0  0  0  0  0
  -19.4075  -38.0731   -6.0924 C   0  0  0  0  0  0  0  0  0  0  0  0
  -19.7714  -38.5263   -7.3825 C   0  0  0  0  0  0  0  0  0  0  0  0
  -18.6998  -38.2300   -8.3647 C   0  0  0  0  0  0  0  0  0  0  0  0
  -17.9680  -39.3528   -9.0124 C   0  0  2  0  0  0  0  0  0  0  0  0
  -18.8466  -40.2222   -9.7686 N   0  0  0  0  0  0  0  0  0  0  0  0
  -18.8739  -41.6444   -9.7497 C   0  0  0  0  0  0  0  0  0  0  0  0
  -18.4152  -42.1584  -10.8847 O   0  0  0  0  0  0  0  0  0  0  0  0
  -17.0897  -40.0464   -8.0339 C   0  0  2  0  0  0  0  0  0  0  0  0
  -16.8836  -39.3445   -6.8785 O   0  0  0  0  0  0  0  0  0  0  0  0
  -15.9326  -40.8018   -8.5927 C   0  0  0  0  0  0  0  0  0  0  0  0
  -15.7165  -40.5296   -9.9682 N   0  0  0  0  0  0  0  0  0  0  0  0
  -15.3882  -39.1146  -10.1535 C   0  0  0  0  0  0  0  0  0  0  0  0
  -14.0679  -38.9596  -10.8190 C   0  0  0  0  0  0  0  0  0  0  0  0
  -13.7823  -37.7350  -11.3808 C   0  0  0  0  0  0  0  0  0  0  0  0
  -12.5761  -37.5271  -12.0137 C   0  0  0  0  0  0  0  0  0  0  0  0
  -11.6823  -38.5513  -12.0684 C   0  0  0  0  0  0  0  0  0  0  0  0
  -12.0041  -39.7653  -11.4924 C   0  0  0  0  0  0  0  0  0  0  0  0
  -13.1796  -39.9545  -10.8816 N   0  0  0  0  0  0  0  0  0  0  0  0
  -12.2875  -36.2147  -12.6183 C   0  0  0  0  0  0  0  0  0  0  0  0
  -10.9024  -36.2022  -13.2578 C   0  0  0  0  0  0  0  0  0  0  0  0
  -12.2492  -35.1226  -11.5553 C   0  0  0  0  0  0  0  0  0  0  0  0
  -13.3695  -35.8772  -13.5982 C   0  0  0  0  0  0  0  0  0  0  0  0
  -21.0037  -39.1050   -7.5562 C   0  0  0  0  0  0  0  0  0  0  0  0
  -19.5671  -44.5467   -6.8689 N   0  0  0  0  0  0  0  0  0  0  0  0
  1  2  1  0
  2  3  2  0
  3  4  1  0
  4  5  2  0
  5  6  1  0
  6  7  1  0
  7  8  1  0
  8  9  1  0
  9 10  1  0
 10 11  1  0
 11 12  1  0
 12 13  1  0
 13 14  2  0
 14 15  1  0
 15 16  2  0
 16 17  1  0
 18 17  1  1
 18 19  1  0
 19 20  1  0
 20 21  2  0
 18 22  1  0
 22 23  1  1
 22 24  1  0
 24 25  1  0
 25 26  1  0
 26 27  1  0
 27 28  2  0
 28 29  1  0
 29 30  2  0
 30 31  1  0
 31 32  2  0
 29 33  1  0
 33 34  1  0
 33 35  1  0
 33 36  1  0
 16 37  1  0
  6 38  2  0
 20  4  1  0
 32 27  1  0
 37 12  2  0
 38  2  1  0
M  END
$$$$
