
     RDKit          3D

 38 41  0  0  0  0  0  0  0  0999 V2000
  -16.4923  -44.6326   -7.2215 C   0  0  0  0  0  0  0  0  0  0  0  0
  -17.8145  -44.0307   -7.5512 C   0  0  0  0  0  0  0  0  0  0  0  0
  -17.9532  -43.1032   -8.5631 C   0  0  0  0  0  0  0  0  0  0  0  0
  -19.1888  -42.5072   -8.9038 C   0  0  0  0  0  0  0  0  0  0  0  0
  -20.3258  -42.8553   -8.2059 C   0  0  0  0  0  0  0  0  0  0  0  0
  -20.1803  -43.7782   -7.2009 C   0  0  0  0  0  0  0  0  0  0  0  0
  -21.1057  -44.3773   -6.2779 N   0  0  0  0  0  0  0  0  0  0  0  0
  -22.0030  -43.7999   -5.3307 C   0  0  0  0  0  0  0  0  0  0  0  0
  -22.2526  -42.3475   -5.7531 C   0  0  0  0  0  0  0  0  0  0  0  0
  -23.5121  -42.2299   -6.5414 C   0  0  0  0  0  0  0  0  0  0  0  0
  -23.8634  -40.8044   -6.9152 C   0  0  0  0  0  0  0  0  0  0  0  0
  -22.6855  -39.8950   -7.0276 C   0  0  0  0  0  0  0  0  0  0  0  0
  -22.4726  -39.2227   -5.7985 C   0  0  0  0  0  0  0  0  0  0  0  0
  -21.4938  -38.2943   -5.5956 C   0  0  0  0  0  0  0  0  0  0  0  0
  -20.7109  -38.0511   -6.6944 C   0  0  0  0  0  0  0  0  0  0  0  0
  -20.8681  -38.6871   -7.9485 C   0  0  0  0  0  0  0  0  0  0  0  0
  -19.8878  -38.1617   -8.9302 C   0  0  0  0  0  0  0  0  0  0  0  0
  -18.8309  -39.0631   -9.4652 C   0  0  2  0  0  0  0  0  0  0  0  0
  -19.3815  -40.2076  -10.1628 N   0  0  0  0  0  0  0  0  0  0  0  0
  -18.9916  -41.5687  -10.0238 C   0  0  0  0  0  0  0  0  0  0  0  0
  -18.3522  -42.0077  -11.1014 O   0  0  0  0  0  0  0  0  0  0  0  0
  -17.8324  -39.3905   -8.4136 C   0  0  2  0  0  0  0  0  0  0  0  0
  -18.2634  -39.1360   -7.1409 O   0  0  0  0  0  0  0  0  0  0  0  0
  -16.4072  -39.0879   -8.7280 C   0  0  0  0  0  0  0  0  0  0  0  0
  -16.1435  -39.0908  -10.1220 N   0  0  0  0  0  0  0  0  0  0  0  0
  -14.9397  -38.3067  -10.4059 C   0  0  0  0  0  0  0  0  0  0  0  0
  -14.0004  -39.0713  -11.2681 C   0  0  0  0  0  0  0  0  0  0  0  0
  -12.6631  -38.7532  -11.1844 C   0  0  0  0  0  0  0  0  0  0  0  0
  -11.7412  -39.4240  -11.9583 C   0  0  0  0  0  0  0  0  0  0  0  0
  -12.1805  -40.3998  -12.7984 C   0  0  0  0  0  0  0  0  0  0  0  0
  -13.5299  -40.6915  -12.8541 C   0  0  0  0  0  0  0  0  0  0  0  0
  -14.4151  -40.0317  -12.0979 N   0  0  0  0  0  0  0  0  0  0  0  0
  -10.3146  -39.0671  -11.8652 C   0  0  0  0  0  0  0  0  0  0  0  0
  -10.0323  -37.7565  -12.5934 C   0  0  0  0  0  0  0  0  0  0  0  0
   -9.4465  -40.1089  -12.5617 C   0  0  0  0  0  0  0  0  0  0  0  0
   -9.9154  -39.0134  -10.4221 C   0  0  0  0  0  0  0  0  0  0  0  0
  -21.8676  -39.6156   -8.0976 C   0  0  0  0  0  0  0  0  0  0  0  0
  -18.9314  -44.3215   -6.9219 N   0  0  0  0  0  0  0  0  0  0  0  0
  1  2  1  0
  2  3  2  0
  3  4  1  0
  4  5  2  0
  5  6  1  0
  6  7  1  0
  7  8  1  0
  8  9  1  0
  9 10  1  0
 10 11  1  0
 11 12  1  0
 12 13  1  0
 13 14  2  0
 14 15  1  0
 15 16  2  0
 16 17  1  0
 18 17  1  1
 18 19  1  0
 19 20  1  0
 20 21  2  0
 18 22  1  0
 22 23  1  1
 22 24  1  0
 24 25  1  0
 25 26  1  0
 26 27  1  0
 27 28  2  0
 28 29  1  0
 29 30  2  0
 30 31  1  0
 31 32  2  0
 29 33  1  0
 33 34  1  0
 33 35  1  0
 33 36  1  0
 16 37  1  0
  6 38  2  0
 20  4  1  0
 32 27  1  0
 37 12  2  0
 38  2  1  0
M  END
$$$$
