
     RDKit          3D

 38 41  0  0  0  0  0  0  0  0999 V2000
  -19.3599  -42.7581  -10.7913 C   0  0  0  0  0  0  0  0  0  0  0  0
  -18.0320  -42.0968  -10.9289 C   0  0  0  0  0  0  0  0  0  0  0  0
  -17.1151  -42.0974   -9.8981 C   0  0  0  0  0  0  0  0  0  0  0  0
  -15.8474  -41.4787   -9.9885 C   0  0  0  0  0  0  0  0  0  0  0  0
  -15.4861  -40.8385  -11.1550 C   0  0  0  0  0  0  0  0  0  0  0  0
  -16.4030  -40.8419  -12.1758 C   0  0  0  0  0  0  0  0  0  0  0  0
  -16.3918  -40.2966  -13.5061 N   0  0  0  0  0  0  0  0  0  0  0  0
  -16.1827  -38.9674  -13.9809 C   0  0  0  0  0  0  0  0  0  0  0  0
  -15.4426  -38.1936  -12.8839 C   0  0  0  0  0  0  0  0  0  0  0  0
  -13.9744  -38.1765  -13.1407 C   0  0  0  0  0  0  0  0  0  0  0  0
  -13.1926  -37.3516  -12.1390 C   0  0  0  0  0  0  0  0  0  0  0  0
  -13.8362  -37.2511  -10.7964 C   0  0  0  0  0  0  0  0  0  0  0  0
  -14.6259  -36.0767  -10.7237 C   0  0  0  0  0  0  0  0  0  0  0  0
  -15.3100  -35.6844   -9.6104 C   0  0  0  0  0  0  0  0  0  0  0  0
  -15.1749  -36.5288   -8.5389 C   0  0  0  0  0  0  0  0  0  0  0  0
  -14.4048  -37.7158   -8.5446 C   0  0  0  0  0  0  0  0  0  0  0  0
  -14.4360  -38.3683   -7.2126 C   0  0  0  0  0  0  0  0  0  0  0  0
  -15.0860  -39.6990   -7.0631 C   0  0  2  0  0  0  0  0  0  0  0  0
  -14.4634  -40.7143   -7.8885 N   0  0  0  0  0  0  0  0  0  0  0  0
  -15.1163  -41.6648   -8.7216 C   0  0  0  0  0  0  0  0  0  0  0  0
  -15.0211  -42.8945   -8.2302 O   0  0  0  0  0  0  0  0  0  0  0  0
  -16.5610  -39.5873   -7.2124 C   0  0  2  0  0  0  0  0  0  0  0  0
  -17.0352  -38.3099   -7.0961 O   0  0  0  0  0  0  0  0  0  0  0  0
  -17.3780  -40.6792   -6.6108 C   0  0  0  0  0  0  0  0  0  0  0  0
  -18.0076  -41.4917   -7.5887 N   0  0  0  0  0  0  0  0  0  0  0  0
  -18.9188  -42.4385   -6.9424 C   0  0  0  0  0  0  0  0  0  0  0  0
  -20.1406  -41.7476   -6.4524 C   0  0  0  0  0  0  0  0  0  0  0  0
  -20.8914  -41.0572   -7.3778 C   0  0  0  0  0  0  0  0  0  0  0  0
  -22.0346  -40.3942   -6.9874 C   0  0  0  0  0  0  0  0  0  0  0  0
  -22.4005  -40.4392   -5.6779 C   0  0  0  0  0  0  0  0  0  0  0  0
  -21.6224  -41.1430   -4.7788 C   0  0  0  0  0  0  0  0  0  0  0  0
  -20.5137  -41.7817   -5.1708 N   0  0  0  0  0  0  0  0  0  0  0  0
  -22.8233  -39.6519   -7.9865 C   0  0  0  0  0  0  0  0  0  0  0  0
  -23.8917  -40.5448   -8.6099 C   0  0  0  0  0  0  0  0  0  0  0  0
  -21.9451  -39.2041   -9.1495 C   0  0  0  0  0  0  0  0  0  0  0  0
  -23.4068  -38.4313   -7.3427 C   0  0  0  0  0  0  0  0  0  0  0  0
  -13.7383  -38.0653   -9.6922 C   0  0  0  0  0  0  0  0  0  0  0  0
  -17.6321  -41.4710  -12.0136 N   0  0  0  0  0  0  0  0  0  0  0  0
  1  2  1  0
  2  3  2  0
  3  4  1  0
  4  5  2  0
  5  6  1  0
  6  7  1  0
  7  8  1  0
  8  9  1  0
  9 10  1  0
 10 11  1  0
 11 12  1  0
 12 13  1  0
 13 14  2  0
 14 15  1  0
 15 16  2  0
 16 17  1  0
 18 17  1  6
 18 19  1  0
 19 20  1  0
 20 21  2  0
 18 22  1  0
 22 23  1  1
 22 24  1  0
 24 25  1  0
 25 26  1  0
 26 27  1  0
 27 28  2  0
 28 29  1  0
 29 30  2  0
 30 31  1  0
 31 32  2  0
 29 33  1  0
 33 34  1  0
 33 35  1  0
 33 36  1  0
 16 37  1  0
  6 38  2  0
 20  4  1  0
 32 27  1  0
 37 12  2  0
 38  2  1  0
M  END
$$$$
