
     RDKit          3D

 38 41  0  0  0  0  0  0  0  0999 V2000
  -17.1186  -45.5203   -8.1102 C   0  0  0  0  0  0  0  0  0  0  0  0
  -18.2924  -44.6031   -8.1321 C   0  0  0  0  0  0  0  0  0  0  0  0
  -18.3011  -43.4603   -8.9051 C   0  0  0  0  0  0  0  0  0  0  0  0
  -19.3931  -42.5639   -8.9503 C   0  0  0  0  0  0  0  0  0  0  0  0
  -20.5167  -42.8240   -8.1948 C   0  0  0  0  0  0  0  0  0  0  0  0
  -20.5008  -43.9622   -7.4284 C   0  0  0  0  0  0  0  0  0  0  0  0
  -21.4573  -44.5557   -6.5339 N   0  0  0  0  0  0  0  0  0  0  0  0
  -22.1172  -44.0404   -5.3785 C   0  0  0  0  0  0  0  0  0  0  0  0
  -22.0647  -42.5103   -5.4576 C   0  0  0  0  0  0  0  0  0  0  0  0
  -23.3262  -41.9620   -6.0319 C   0  0  0  0  0  0  0  0  0  0  0  0
  -23.3743  -40.4480   -6.0558 C   0  0  0  0  0  0  0  0  0  0  0  0
  -22.0343  -39.7959   -6.1339 C   0  0  0  0  0  0  0  0  0  0  0  0
  -21.5718  -39.4804   -4.8321 C   0  0  0  0  0  0  0  0  0  0  0  0
  -20.3940  -38.8419   -4.5742 C   0  0  0  0  0  0  0  0  0  0  0  0
  -19.6715  -38.5179   -5.6933 C   0  0  0  0  0  0  0  0  0  0  0  0
  -20.0739  -38.8045   -7.0192 C   0  0  0  0  0  0  0  0  0  0  0  0
  -19.0858  -38.2788   -7.9930 C   0  0  0  0  0  0  0  0  0  0  0  0
  -18.3102  -39.2293   -8.8361 C   0  0  2  0  0  0  0  0  0  0  0  0
  -19.1632  -40.0474   -9.6745 N   0  0  0  0  0  0  0  0  0  0  0  0
  -19.0824  -41.4542   -9.8702 C   0  0  0  0  0  0  0  0  0  0  0  0
  -18.6524  -41.7555  -11.0896 O   0  0  0  0  0  0  0  0  0  0  0  0
  -17.3276  -39.9846   -8.0150 C   0  0  2  0  0  0  0  0  0  0  0  0
  -17.3615  -39.6735   -6.6838 O   0  0  0  0  0  0  0  0  0  0  0  0
  -15.9910  -40.2276   -8.6283 C   0  0  0  0  0  0  0  0  0  0  0  0
  -15.6760  -39.2853   -9.6412 N   0  0  0  0  0  0  0  0  0  0  0  0
  -15.5668  -39.9597  -10.9365 C   0  0  0  0  0  0  0  0  0  0  0  0
  -14.3479  -39.5168  -11.6634 C   0  0  0  0  0  0  0  0  0  0  0  0
  -14.3260  -38.2219  -12.1318 C   0  0  0  0  0  0  0  0  0  0  0  0
  -13.2260  -37.7504  -12.8149 C   0  0  0  0  0  0  0  0  0  0  0  0
  -12.1718  -38.5873  -13.0122 C   0  0  0  0  0  0  0  0  0  0  0  0
  -12.2300  -39.8795  -12.5264 C   0  0  0  0  0  0  0  0  0  0  0  0
  -13.3048  -40.3254  -11.8656 N   0  0  0  0  0  0  0  0  0  0  0  0
  -13.2199  -36.3656  -13.3185 C   0  0  0  0  0  0  0  0  0  0  0  0
  -14.6289  -35.9154  -13.6918 C   0  0  0  0  0  0  0  0  0  0  0  0
  -12.4095  -36.2581  -14.6053 C   0  0  0  0  0  0  0  0  0  0  0  0
  -12.5907  -35.4731  -12.2925 C   0  0  0  0  0  0  0  0  0  0  0  0
  -21.2672  -39.4512   -7.2222 C   0  0  0  0  0  0  0  0  0  0  0  0
  -19.3892  -44.7970   -7.4340 N   0  0  0  0  0  0  0  0  0  0  0  0
  1  2  1  0
  2  3  2  0
  3  4  1  0
  4  5  2  0
  5  6  1  0
  6  7  1  0
  7  8  1  0
  8  9  1  0
  9 10  1  0
 10 11  1  0
 11 12  1  0
 12 13  1  0
 13 14  2  0
 14 15  1  0
 15 16  2  0
 16 17  1  0
 18 17  1  1
 18 19  1  0
 19 20  1  0
 20 21  2  0
 18 22  1  0
 22 23  1  1
 22 24  1  0
 24 25  1  0
 25 26  1  0
 26 27  1  0
 27 28  2  0
 28 29  1  0
 29 30  2  0
 30 31  1  0
 31 32  2  0
 29 33  1  0
 33 34  1  0
 33 35  1  0
 33 36  1  0
 16 37  1  0
  6 38  2  0
 20  4  1  0
 32 27  1  0
 37 12  2  0
 38  2  1  0
M  END
$$$$
