
     RDKit          3D

 38 41  0  0  0  0  0  0  0  0999 V2000
  -17.0654  -45.4767   -7.5865 C   0  0  0  0  0  0  0  0  0  0  0  0
  -18.0587  -44.4588   -8.0300 C   0  0  0  0  0  0  0  0  0  0  0  0
  -17.6999  -43.4105   -8.8519 C   0  0  0  0  0  0  0  0  0  0  0  0
  -18.6113  -42.4234   -9.2913 C   0  0  0  0  0  0  0  0  0  0  0  0
  -19.9297  -42.4916   -8.8935 C   0  0  0  0  0  0  0  0  0  0  0  0
  -20.2793  -43.5368   -8.0761 C   0  0  0  0  0  0  0  0  0  0  0  0
  -21.5210  -43.9359   -7.4710 N   0  0  0  0  0  0  0  0  0  0  0  0
  -22.4203  -43.2382   -6.6106 C   0  0  0  0  0  0  0  0  0  0  0  0
  -22.1580  -41.7377   -6.7834 C   0  0  0  0  0  0  0  0  0  0  0  0
  -23.1189  -41.1358   -7.7509 C   0  0  0  0  0  0  0  0  0  0  0  0
  -22.9701  -39.6356   -7.9005 C   0  0  0  0  0  0  0  0  0  0  0  0
  -21.5957  -39.1274   -7.6181 C   0  0  0  0  0  0  0  0  0  0  0  0
  -21.4980  -38.7194   -6.2646 C   0  0  0  0  0  0  0  0  0  0  0  0
  -20.3773  -38.1729   -5.7109 C   0  0  0  0  0  0  0  0  0  0  0  0
  -19.3253  -38.0422   -6.5801 C   0  0  0  0  0  0  0  0  0  0  0  0
  -19.3554  -38.4300   -7.9405 C   0  0  0  0  0  0  0  0  0  0  0  0
  -18.0689  -38.1096   -8.6063 C   0  0  0  0  0  0  0  0  0  0  0  0
  -17.2049  -39.2154   -9.1028 C   0  0  2  0  0  0  0  0  0  0  0  0
  -17.8703  -40.0334  -10.0967 N   0  0  0  0  0  0  0  0  0  0  0  0
  -17.9108  -41.4542  -10.1539 C   0  0  0  0  0  0  0  0  0  0  0  0
  -17.1843  -41.9250  -11.1606 O   0  0  0  0  0  0  0  0  0  0  0  0
  -16.6061  -39.9687   -7.9695 C   0  0  2  0  0  0  0  0  0  0  0  0
  -16.9006  -39.4478   -6.7399 O   0  0  0  0  0  0  0  0  0  0  0  0
  -15.2303  -40.5038   -8.1756 C   0  0  0  0  0  0  0  0  0  0  0  0
  -14.4338  -39.6609   -8.9930 N   0  0  0  0  0  0  0  0  0  0  0  0
  -14.2586  -40.2654  -10.3152 C   0  0  0  0  0  0  0  0  0  0  0  0
  -14.0318  -39.2216  -11.3492 C   0  0  0  0  0  0  0  0  0  0  0  0
  -14.2862  -37.9150  -10.9959 C   0  0  0  0  0  0  0  0  0  0  0  0
  -14.0974  -36.9005  -11.9091 C   0  0  0  0  0  0  0  0  0  0  0  0
  -13.6564  -37.2184  -13.1562 C   0  0  0  0  0  0  0  0  0  0  0  0
  -13.4110  -38.5405  -13.4736 C   0  0  0  0  0  0  0  0  0  0  0  0
  -13.5996  -39.5165  -12.5776 N   0  0  0  0  0  0  0  0  0  0  0  0
  -14.3822  -35.5081  -11.5202 C   0  0  0  0  0  0  0  0  0  0  0  0
  -13.1223  -34.6515  -11.6002 C   0  0  0  0  0  0  0  0  0  0  0  0
  -14.8294  -35.4302  -10.0649 C   0  0  0  0  0  0  0  0  0  0  0  0
  -15.4879  -34.9750  -12.3795 C   0  0  0  0  0  0  0  0  0  0  0  0
  -20.5078  -38.9772   -8.4462 C   0  0  0  0  0  0  0  0  0  0  0  0
  -19.3267  -44.4702   -7.6835 N   0  0  0  0  0  0  0  0  0  0  0  0
  1  2  1  0
  2  3  2  0
  3  4  1  0
  4  5  2  0
  5  6  1  0
  6  7  1  0
  7  8  1  0
  8  9  1  0
  9 10  1  0
 10 11  1  0
 11 12  1  0
 12 13  1  0
 13 14  2  0
 14 15  1  0
 15 16  2  0
 16 17  1  0
 18 17  1  1
 18 19  1  0
 19 20  1  0
 20 21  2  0
 18 22  1  0
 22 23  1  1
 22 24  1  0
 24 25  1  0
 25 26  1  0
 26 27  1  0
 27 28  2  0
 28 29  1  0
 29 30  2  0
 30 31  1  0
 31 32  2  0
 29 33  1  0
 33 34  1  0
 33 35  1  0
 33 36  1  0
 16 37  1  0
  6 38  2  0
 20  4  1  0
 32 27  1  0
 37 12  2  0
 38  2  1  0
M  END
$$$$
