
     RDKit          3D

 38 41  0  0  0  0  0  0  0  0999 V2000
  -17.0434  -45.3559   -6.3721 C   0  0  0  0  0  0  0  0  0  0  0  0
  -18.0749  -44.4646   -6.9730 C   0  0  0  0  0  0  0  0  0  0  0  0
  -17.7584  -43.5630   -7.9681 C   0  0  0  0  0  0  0  0  0  0  0  0
  -18.7070  -42.6986   -8.5607 C   0  0  0  0  0  0  0  0  0  0  0  0
  -20.0198  -42.7416   -8.1413 C   0  0  0  0  0  0  0  0  0  0  0  0
  -20.3271  -43.6407   -7.1512 C   0  0  0  0  0  0  0  0  0  0  0  0
  -21.5501  -43.9709   -6.4713 N   0  0  0  0  0  0  0  0  0  0  0  0
  -22.4686  -43.1656   -5.7338 C   0  0  0  0  0  0  0  0  0  0  0  0
  -22.2609  -41.7097   -6.1666 C   0  0  0  0  0  0  0  0  0  0  0  0
  -23.2483  -41.3177   -7.2121 C   0  0  0  0  0  0  0  0  0  0  0  0
  -23.1540  -39.8619   -7.6207 C   0  0  0  0  0  0  0  0  0  0  0  0
  -21.7969  -39.2660   -7.4470 C   0  0  0  0  0  0  0  0  0  0  0  0
  -21.7057  -38.6265   -6.1857 C   0  0  0  0  0  0  0  0  0  0  0  0
  -20.6018  -37.9545   -5.7484 C   0  0  0  0  0  0  0  0  0  0  0  0
  -19.5603  -37.9408   -6.6398 C   0  0  0  0  0  0  0  0  0  0  0  0
  -19.5847  -38.5591   -7.9121 C   0  0  0  0  0  0  0  0  0  0  0  0
  -18.3144  -38.3154   -8.6387 C   0  0  0  0  0  0  0  0  0  0  0  0
  -17.4146  -39.4605   -8.9468 C   0  0  2  0  0  0  0  0  0  0  0  0
  -18.0564  -40.4605   -9.7761 N   0  0  0  0  0  0  0  0  0  0  0  0
  -18.0466  -41.8703   -9.5863 C   0  0  0  0  0  0  0  0  0  0  0  0
  -17.3099  -42.4834  -10.5050 O   0  0  0  0  0  0  0  0  0  0  0  0
  -16.7827  -39.9852   -7.7076 C   0  0  2  0  0  0  0  0  0  0  0  0
  -17.1277  -39.2996   -6.5758 O   0  0  0  0  0  0  0  0  0  0  0  0
  -15.3717  -40.4517   -7.8230 C   0  0  0  0  0  0  0  0  0  0  0  0
  -14.6361  -39.7291   -8.7975 N   0  0  0  0  0  0  0  0  0  0  0  0
  -14.5290  -40.5148  -10.0287 C   0  0  0  0  0  0  0  0  0  0  0  0
  -14.0359  -39.6750  -11.1520 C   0  0  0  0  0  0  0  0  0  0  0  0
  -13.4517  -38.4696  -10.8319 C   0  0  0  0  0  0  0  0  0  0  0  0
  -12.9756  -37.6440  -11.8271 C   0  0  0  0  0  0  0  0  0  0  0  0
  -13.0946  -38.0459  -13.1214 C   0  0  0  0  0  0  0  0  0  0  0  0
  -13.6857  -39.2624  -13.4035 C   0  0  0  0  0  0  0  0  0  0  0  0
  -14.1452  -40.0544  -12.4275 N   0  0  0  0  0  0  0  0  0  0  0  0
  -12.3610  -36.3531  -11.4708 C   0  0  0  0  0  0  0  0  0  0  0  0
  -13.2755  -35.5498  -10.5511 C   0  0  0  0  0  0  0  0  0  0  0  0
  -12.1690  -35.4821  -12.7072 C   0  0  0  0  0  0  0  0  0  0  0  0
  -11.0160  -36.6021  -10.8594 C   0  0  0  0  0  0  0  0  0  0  0  0
  -20.7200  -39.2247   -8.3016 C   0  0  0  0  0  0  0  0  0  0  0  0
  -19.3396  -44.4590   -6.6146 N   0  0  0  0  0  0  0  0  0  0  0  0
  1  2  1  0
  2  3  2  0
  3  4  1  0
  4  5  2  0
  5  6  1  0
  6  7  1  0
  7  8  1  0
  8  9  1  0
  9 10  1  0
 10 11  1  0
 11 12  1  0
 12 13  1  0
 13 14  2  0
 14 15  1  0
 15 16  2  0
 16 17  1  0
 18 17  1  1
 18 19  1  0
 19 20  1  0
 20 21  2  0
 18 22  1  0
 22 23  1  1
 22 24  1  0
 24 25  1  0
 25 26  1  0
 26 27  1  0
 27 28  2  0
 28 29  1  0
 29 30  2  0
 30 31  1  0
 31 32  2  0
 29 33  1  0
 33 34  1  0
 33 35  1  0
 33 36  1  0
 16 37  1  0
  6 38  2  0
 20  4  1  0
 32 27  1  0
 37 12  2  0
 38  2  1  0
M  END
$$$$
