
     RDKit          3D

 38 41  0  0  0  0  0  0  0  0999 V2000
  -15.6072  -38.9660   -6.7538 C   0  0  0  0  0  0  0  0  0  0  0  0
  -16.8093  -39.8166   -6.5284 C   0  0  0  0  0  0  0  0  0  0  0  0
  -16.9763  -41.0187   -7.1845 C   0  0  0  0  0  0  0  0  0  0  0  0
  -18.1032  -41.8519   -7.0004 C   0  0  0  0  0  0  0  0  0  0  0  0
  -19.0969  -41.4663   -6.1257 C   0  0  0  0  0  0  0  0  0  0  0  0
  -18.9241  -40.2696   -5.4768 C   0  0  0  0  0  0  0  0  0  0  0  0
  -19.7171  -39.5512   -4.5165 N   0  0  0  0  0  0  0  0  0  0  0  0
  -21.0671  -39.0914   -4.5603 C   0  0  0  0  0  0  0  0  0  0  0  0
  -21.8030  -39.9131   -5.6249 C   0  0  0  0  0  0  0  0  0  0  0  0
  -22.5442  -41.0481   -5.0051 C   0  0  0  0  0  0  0  0  0  0  0  0
  -23.3657  -41.8490   -5.9945 C   0  0  0  0  0  0  0  0  0  0  0  0
  -22.8379  -41.8209   -7.3901 C   0  0  0  0  0  0  0  0  0  0  0  0
  -23.4713  -40.7898   -8.1275 C   0  0  0  0  0  0  0  0  0  0  0  0
  -23.2308  -40.5359   -9.4462 C   0  0  0  0  0  0  0  0  0  0  0  0
  -22.3095  -41.3718  -10.0224 C   0  0  0  0  0  0  0  0  0  0  0  0
  -21.6404  -42.4180   -9.3443 C   0  0  0  0  0  0  0  0  0  0  0  0
  -20.7459  -43.1558  -10.2698 C   0  0  0  0  0  0  0  0  0  0  0  0
  -19.2731  -43.1081  -10.0595 C   0  0  2  0  0  0  0  0  0  0  0  0
  -18.8816  -43.6352   -8.7678 N   0  0  0  0  0  0  0  0  0  0  0  0
  -17.9701  -43.0548   -7.8425 C   0  0  0  0  0  0  0  0  0  0  0  0
  -16.8393  -43.7466   -7.7691 O   0  0  0  0  0  0  0  0  0  0  0  0
  -18.7370  -41.7577  -10.3743 C   0  0  2  0  0  0  0  0  0  0  0  0
  -19.6316  -40.7439  -10.1687 O   0  0  0  0  0  0  0  0  0  0  0  0
  -17.8445  -41.6535  -11.5635 C   0  0  0  0  0  0  0  0  0  0  0  0
  -17.5167  -42.9202  -12.1122 N   0  0  0  0  0  0  0  0  0  0  0  0
  -16.0646  -43.1094  -12.1035 C   0  0  0  0  0  0  0  0  0  0  0  0
  -15.3645  -41.8556  -12.4886 C   0  0  0  0  0  0  0  0  0  0  0  0
  -14.5531  -41.2681  -11.5435 C   0  0  0  0  0  0  0  0  0  0  0  0
  -13.8775  -40.1036  -11.8373 C   0  0  0  0  0  0  0  0  0  0  0  0
  -14.0293  -39.5546  -13.0728 C   0  0  0  0  0  0  0  0  0  0  0  0
  -14.8512  -40.1736  -13.9950 C   0  0  0  0  0  0  0  0  0  0  0  0
  -15.5028  -41.3037  -13.6965 N   0  0  0  0  0  0  0  0  0  0  0  0
  -13.0199  -39.4810  -10.8136 C   0  0  0  0  0  0  0  0  0  0  0  0
  -13.1202  -40.2313   -9.4891 C   0  0  0  0  0  0  0  0  0  0  0  0
  -13.4821  -38.0609  -10.5069 C   0  0  0  0  0  0  0  0  0  0  0  0
  -11.6132  -39.4158  -11.3253 C   0  0  0  0  0  0  0  0  0  0  0  0
  -21.9178  -42.6285   -8.0169 C   0  0  0  0  0  0  0  0  0  0  0  0
  -17.7885  -39.5023   -5.7094 N   0  0  0  0  0  0  0  0  0  0  0  0
  1  2  1  0
  2  3  2  0
  3  4  1  0
  4  5  2  0
  5  6  1  0
  6  7  1  0
  7  8  1  0
  8  9  1  0
  9 10  1  0
 10 11  1  0
 11 12  1  0
 12 13  1  0
 13 14  2  0
 14 15  1  0
 15 16  2  0
 16 17  1  0
 18 17  1  1
 18 19  1  0
 19 20  1  0
 20 21  2  0
 18 22  1  0
 22 23  1  6
 22 24  1  0
 24 25  1  0
 25 26  1  0
 26 27  1  0
 27 28  2  0
 28 29  1  0
 29 30  2  0
 30 31  1  0
 31 32  2  0
 29 33  1  0
 33 34  1  0
 33 35  1  0
 33 36  1  0
 16 37  1  0
  6 38  2  0
 20  4  1  0
 32 27  1  0
 37 12  2  0
 38  2  1  0
M  END
$$$$
