
     RDKit          3D

 38 41  0  0  0  0  0  0  0  0999 V2000
  -17.2776  -45.6736   -7.3921 C   0  0  0  0  0  0  0  0  0  0  0  0
  -18.2393  -44.6174   -7.8153 C   0  0  0  0  0  0  0  0  0  0  0  0
  -17.8486  -43.5651   -8.6174 C   0  0  0  0  0  0  0  0  0  0  0  0
  -18.7295  -42.5424   -9.0372 C   0  0  0  0  0  0  0  0  0  0  0  0
  -20.0492  -42.5777   -8.6397 C   0  0  0  0  0  0  0  0  0  0  0  0
  -20.4305  -43.6272   -7.8421 C   0  0  0  0  0  0  0  0  0  0  0  0
  -21.6837  -43.9995   -7.2438 N   0  0  0  0  0  0  0  0  0  0  0  0
  -22.5611  -43.2912   -6.3695 C   0  0  0  0  0  0  0  0  0  0  0  0
  -22.2529  -41.7964   -6.5137 C   0  0  0  0  0  0  0  0  0  0  0  0
  -23.1951  -41.1470   -7.4689 C   0  0  0  0  0  0  0  0  0  0  0  0
  -23.0005  -39.6495   -7.5899 C   0  0  0  0  0  0  0  0  0  0  0  0
  -21.6111  -39.1891   -7.2989 C   0  0  0  0  0  0  0  0  0  0  0  0
  -21.5007  -38.8102   -5.9379 C   0  0  0  0  0  0  0  0  0  0  0  0
  -20.3636  -38.3089   -5.3748 C   0  0  0  0  0  0  0  0  0  0  0  0
  -19.3083  -38.1940   -6.2422 C   0  0  0  0  0  0  0  0  0  0  0  0
  -19.3505  -38.5545   -7.6098 C   0  0  0  0  0  0  0  0  0  0  0  0
  -18.0550  -38.2611   -8.2704 C   0  0  0  0  0  0  0  0  0  0  0  0
  -17.2254  -39.3832   -8.7885 C   0  0  2  0  0  0  0  0  0  0  0  0
  -17.9158  -40.1612   -9.7973 N   0  0  0  0  0  0  0  0  0  0  0  0
  -17.9998  -41.5788   -9.8817 C   0  0  0  0  0  0  0  0  0  0  0  0
  -17.2883  -42.0523  -10.8977 O   0  0  0  0  0  0  0  0  0  0  0  0
  -16.6497  -40.1759   -7.6704 C   0  0  2  0  0  0  0  0  0  0  0  0
  -16.8800  -39.6393   -6.4338 O   0  0  0  0  0  0  0  0  0  0  0  0
  -15.3170  -40.7990   -7.9098 C   0  0  0  0  0  0  0  0  0  0  0  0
  -14.4334  -39.9426   -8.6161 N   0  0  0  0  0  0  0  0  0  0  0  0
  -13.8783  -40.6424   -9.7765 C   0  0  0  0  0  0  0  0  0  0  0  0
  -14.0846  -39.8535  -11.0196 C   0  0  0  0  0  0  0  0  0  0  0  0
  -13.6011  -38.5641  -11.0384 C   0  0  0  0  0  0  0  0  0  0  0  0
  -13.7614  -37.7799  -12.1600 C   0  0  0  0  0  0  0  0  0  0  0  0
  -14.4018  -38.3063  -13.2387 C   0  0  0  0  0  0  0  0  0  0  0  0
  -14.8722  -39.6042  -13.1828 C   0  0  0  0  0  0  0  0  0  0  0  0
  -14.7111  -40.3549  -12.0868 N   0  0  0  0  0  0  0  0  0  0  0  0
  -13.2471  -36.3991  -12.1629 C   0  0  0  0  0  0  0  0  0  0  0  0
  -13.3621  -35.7778  -13.5515 C   0  0  0  0  0  0  0  0  0  0  0  0
  -11.7590  -36.3720  -11.8325 C   0  0  0  0  0  0  0  0  0  0  0  0
  -13.9729  -35.6029  -11.1216 C   0  0  0  0  0  0  0  0  0  0  0  0
  -20.5193  -39.0565   -8.1248 C   0  0  0  0  0  0  0  0  0  0  0  0
  -19.5070  -44.5966   -7.4682 N   0  0  0  0  0  0  0  0  0  0  0  0
  1  2  1  0
  2  3  2  0
  3  4  1  0
  4  5  2  0
  5  6  1  0
  6  7  1  0
  7  8  1  0
  8  9  1  0
  9 10  1  0
 10 11  1  0
 11 12  1  0
 12 13  1  0
 13 14  2  0
 14 15  1  0
 15 16  2  0
 16 17  1  0
 18 17  1  1
 18 19  1  0
 19 20  1  0
 20 21  2  0
 18 22  1  0
 22 23  1  1
 22 24  1  0
 24 25  1  0
 25 26  1  0
 26 27  1  0
 27 28  2  0
 28 29  1  0
 29 30  2  0
 30 31  1  0
 31 32  2  0
 29 33  1  0
 33 34  1  0
 33 35  1  0
 33 36  1  0
 16 37  1  0
  6 38  2  0
 20  4  1  0
 32 27  1  0
 37 12  2  0
 38  2  1  0
M  END
$$$$
