
     RDKit          3D

 38 41  0  0  0  0  0  0  0  0999 V2000
  -15.2756  -42.8278   -6.8720 C   0  0  0  0  0  0  0  0  0  0  0  0
  -16.6997  -42.5856   -7.2367 C   0  0  0  0  0  0  0  0  0  0  0  0
  -17.0464  -41.9652   -8.4191 C   0  0  0  0  0  0  0  0  0  0  0  0
  -18.3846  -41.7146   -8.7991 C   0  0  0  0  0  0  0  0  0  0  0  0
  -19.4113  -42.1017   -7.9642 C   0  0  0  0  0  0  0  0  0  0  0  0
  -19.0589  -42.7181   -6.7899 C   0  0  0  0  0  0  0  0  0  0  0  0
  -19.8224  -43.2509   -5.6943 N   0  0  0  0  0  0  0  0  0  0  0  0
  -20.7969  -42.6516   -4.8416 C   0  0  0  0  0  0  0  0  0  0  0  0
  -21.3456  -41.4143   -5.5615 C   0  0  0  0  0  0  0  0  0  0  0  0
  -22.6201  -41.7289   -6.2674 C   0  0  0  0  0  0  0  0  0  0  0  0
  -23.2618  -40.5254   -6.9269 C   0  0  0  0  0  0  0  0  0  0  0  0
  -22.2959  -39.4586   -7.3217 C   0  0  0  0  0  0  0  0  0  0  0  0
  -22.1965  -38.4893   -6.2928 C   0  0  0  0  0  0  0  0  0  0  0  0
  -21.4222  -37.3687   -6.3717 C   0  0  0  0  0  0  0  0  0  0  0  0
  -20.7299  -37.2435   -7.5483 C   0  0  0  0  0  0  0  0  0  0  0  0
  -20.7828  -38.1733   -8.6135 C   0  0  0  0  0  0  0  0  0  0  0  0
  -19.9518  -37.7138   -9.7533 C   0  0  0  0  0  0  0  0  0  0  0  0
  -18.7462  -38.4949  -10.1436 C   0  0  2  0  0  0  0  0  0  0  0  0
  -19.0685  -39.8548  -10.5263 N   0  0  0  0  0  0  0  0  0  0  0  0
  -18.4072  -41.0443  -10.1122 C   0  0  0  0  0  0  0  0  0  0  0  0
  -17.7164  -41.5920  -11.1050 O   0  0  0  0  0  0  0  0  0  0  0  0
  -17.6787  -38.3688   -9.1166 C   0  0  2  0  0  0  0  0  0  0  0  0
  -18.0367  -37.6136   -8.0341 O   0  0  0  0  0  0  0  0  0  0  0  0
  -16.2821  -38.2290   -9.6182 C   0  0  0  0  0  0  0  0  0  0  0  0
  -15.4330  -39.2718   -9.1660 N   0  0  0  0  0  0  0  0  0  0  0  0
  -14.1169  -39.1558   -9.7975 C   0  0  0  0  0  0  0  0  0  0  0  0
  -13.8536  -40.3149  -10.6904 C   0  0  0  0  0  0  0  0  0  0  0  0
  -13.0857  -41.3408  -10.1858 C   0  0  0  0  0  0  0  0  0  0  0  0
  -12.8039  -42.4430  -10.9633 C   0  0  0  0  0  0  0  0  0  0  0  0
  -13.2994  -42.4929  -12.2293 C   0  0  0  0  0  0  0  0  0  0  0  0
  -14.0668  -41.4449  -12.7003 C   0  0  0  0  0  0  0  0  0  0  0  0
  -14.3321  -40.3795  -11.9353 N   0  0  0  0  0  0  0  0  0  0  0  0
  -11.9734  -43.5290  -10.4136 C   0  0  0  0  0  0  0  0  0  0  0  0
  -11.9138  -44.7103  -11.3772 C   0  0  0  0  0  0  0  0  0  0  0  0
  -12.5841  -44.0858   -9.1325 C   0  0  0  0  0  0  0  0  0  0  0  0
  -10.6134  -42.9906  -10.0891 C   0  0  0  0  0  0  0  0  0  0  0  0
  -21.5760  -39.2854   -8.4809 C   0  0  0  0  0  0  0  0  0  0  0  0
  -17.7198  -42.9303   -6.4826 N   0  0  0  0  0  0  0  0  0  0  0  0
  1  2  1  0
  2  3  2  0
  3  4  1  0
  4  5  2  0
  5  6  1  0
  6  7  1  0
  7  8  1  0
  8  9  1  0
  9 10  1  0
 10 11  1  0
 11 12  1  0
 12 13  1  0
 13 14  2  0
 14 15  1  0
 15 16  2  0
 16 17  1  0
 18 17  1  1
 18 19  1  0
 19 20  1  0
 20 21  2  0
 18 22  1  0
 22 23  1  6
 22 24  1  0
 24 25  1  0
 25 26  1  0
 26 27  1  0
 27 28  2  0
 28 29  1  0
 29 30  2  0
 30 31  1  0
 31 32  2  0
 29 33  1  0
 33 34  1  0
 33 35  1  0
 33 36  1  0
 16 37  1  0
  6 38  2  0
 20  4  1  0
 32 27  1  0
 37 12  2  0
 38  2  1  0
M  END
$$$$
