
     RDKit          3D

 38 41  0  0  0  0  0  0  0  0999 V2000
  -17.1119  -45.0175   -5.3824 C   0  0  0  0  0  0  0  0  0  0  0  0
  -18.1393  -44.2735   -6.1637 C   0  0  0  0  0  0  0  0  0  0  0  0
  -17.7972  -43.5021   -7.2552 C   0  0  0  0  0  0  0  0  0  0  0  0
  -18.7413  -42.7792   -8.0194 C   0  0  0  0  0  0  0  0  0  0  0  0
  -20.0760  -42.8335   -7.6776 C   0  0  0  0  0  0  0  0  0  0  0  0
  -20.4087  -43.6025   -6.5909 C   0  0  0  0  0  0  0  0  0  0  0  0
  -21.6587  -43.9003   -5.9459 N   0  0  0  0  0  0  0  0  0  0  0  0
  -22.6590  -43.0510   -5.3856 C   0  0  0  0  0  0  0  0  0  0  0  0
  -22.4873  -41.6596   -6.0061 C   0  0  0  0  0  0  0  0  0  0  0  0
  -23.4191  -41.4683   -7.1537 C   0  0  0  0  0  0  0  0  0  0  0  0
  -23.3620  -40.0798   -7.7569 C   0  0  0  0  0  0  0  0  0  0  0  0
  -22.0471  -39.3946   -7.5879 C   0  0  0  0  0  0  0  0  0  0  0  0
  -22.0687  -38.5834   -6.4261 C   0  0  0  0  0  0  0  0  0  0  0  0
  -21.0273  -37.8000   -6.0225 C   0  0  0  0  0  0  0  0  0  0  0  0
  -19.9302  -37.8540   -6.8428 C   0  0  0  0  0  0  0  0  0  0  0  0
  -19.8422  -38.6423   -8.0145 C   0  0  0  0  0  0  0  0  0  0  0  0
  -18.5382  -38.4340   -8.6906 C   0  0  0  0  0  0  0  0  0  0  0  0
  -17.5702  -39.5612   -8.7797 C   0  0  2  0  0  0  0  0  0  0  0  0
  -18.1104  -40.6986   -9.4969 N   0  0  0  0  0  0  0  0  0  0  0  0
  -18.0511  -42.0663   -9.1100 C   0  0  0  0  0  0  0  0  0  0  0  0
  -17.2283  -42.7602   -9.8873 O   0  0  0  0  0  0  0  0  0  0  0  0
  -16.9999  -39.8759   -7.4433 C   0  0  2  0  0  0  0  0  0  0  0  0
  -17.0753  -38.8426   -6.5507 O   0  0  0  0  0  0  0  0  0  0  0  0
  -15.7648  -40.7101   -7.4235 C   0  0  0  0  0  0  0  0  0  0  0  0
  -15.5089  -41.3358   -8.6708 N   0  0  0  0  0  0  0  0  0  0  0  0
  -14.1650  -40.9901   -9.1385 C   0  0  0  0  0  0  0  0  0  0  0  0
  -14.2263  -39.9758  -10.2238 C   0  0  0  0  0  0  0  0  0  0  0  0
  -15.1167  -38.9367  -10.0692 C   0  0  0  0  0  0  0  0  0  0  0  0
  -15.2229  -37.9645  -11.0400 C   0  0  0  0  0  0  0  0  0  0  0  0
  -14.4329  -38.0551  -12.1439 C   0  0  0  0  0  0  0  0  0  0  0  0
  -13.5507  -39.1117  -12.2632 C   0  0  0  0  0  0  0  0  0  0  0  0
  -13.4583  -40.0500  -11.3135 N   0  0  0  0  0  0  0  0  0  0  0  0
  -16.1864  -36.8633  -10.8658 C   0  0  0  0  0  0  0  0  0  0  0  0
  -15.6411  -35.8088   -9.9077 C   0  0  0  0  0  0  0  0  0  0  0  0
  -17.4743  -37.3640  -10.2217 C   0  0  0  0  0  0  0  0  0  0  0  0
  -16.5255  -36.2910  -12.2084 C   0  0  0  0  0  0  0  0  0  0  0  0
  -20.9184  -39.4143   -8.3736 C   0  0  0  0  0  0  0  0  0  0  0  0
  -19.4242  -44.2855   -5.8861 N   0  0  0  0  0  0  0  0  0  0  0  0
  1  2  1  0
  2  3  2  0
  3  4  1  0
  4  5  2  0
  5  6  1  0
  6  7  1  0
  7  8  1  0
  8  9  1  0
  9 10  1  0
 10 11  1  0
 11 12  1  0
 12 13  1  0
 13 14  2  0
 14 15  1  0
 15 16  2  0
 16 17  1  0
 18 17  1  1
 18 19  1  0
 19 20  1  0
 20 21  2  0
 18 22  1  0
 22 23  1  6
 22 24  1  0
 24 25  1  0
 25 26  1  0
 26 27  1  0
 27 28  2  0
 28 29  1  0
 29 30  2  0
 30 31  1  0
 31 32  2  0
 29 33  1  0
 33 34  1  0
 33 35  1  0
 33 36  1  0
 16 37  1  0
  6 38  2  0
 20  4  1  0
 32 27  1  0
 37 12  2  0
 38  2  1  0
M  END
$$$$
