
     RDKit          3D

 38 41  0  0  0  0  0  0  0  0999 V2000
  -16.5564  -44.2927   -9.9639 C   0  0  0  0  0  0  0  0  0  0  0  0
  -15.8980  -42.9601  -10.0645 C   0  0  0  0  0  0  0  0  0  0  0  0
  -15.8320  -42.1042   -8.9845 C   0  0  0  0  0  0  0  0  0  0  0  0
  -15.2195  -40.8316   -9.0408 C   0  0  0  0  0  0  0  0  0  0  0  0
  -14.6515  -40.4032  -10.2219 C   0  0  0  0  0  0  0  0  0  0  0  0
  -14.7209  -41.2597  -11.2918 C   0  0  0  0  0  0  0  0  0  0  0  0
  -14.2565  -41.1724  -12.6496 N   0  0  0  0  0  0  0  0  0  0  0  0
  -14.5048  -40.2102  -13.6735 C   0  0  0  0  0  0  0  0  0  0  0  0
  -14.9736  -38.9189  -12.9931 C   0  0  0  0  0  0  0  0  0  0  0  0
  -13.8400  -37.9676  -12.8149 C   0  0  0  0  0  0  0  0  0  0  0  0
  -14.2535  -36.6339  -12.2271 C   0  0  0  0  0  0  0  0  0  0  0  0
  -15.4718  -36.6972  -11.3675 C   0  0  0  0  0  0  0  0  0  0  0  0
  -16.6239  -36.3976  -12.1362 C   0  0  0  0  0  0  0  0  0  0  0  0
  -17.8877  -36.3367  -11.6258 C   0  0  0  0  0  0  0  0  0  0  0  0
  -17.9655  -36.5917  -10.2811 C   0  0  0  0  0  0  0  0  0  0  0  0
  -16.8570  -36.8982   -9.4569 C   0  0  0  0  0  0  0  0  0  0  0  0
  -17.2837  -37.0734   -8.0469 C   0  0  0  0  0  0  0  0  0  0  0  0
  -17.1588  -38.4100   -7.4037 C   0  0  2  0  0  0  0  0  0  0  0  0
  -15.7893  -38.8824   -7.3717 N   0  0  0  0  0  0  0  0  0  0  0  0
  -15.3181  -40.1780   -7.7228 C   0  0  0  0  0  0  0  0  0  0  0  0
  -14.9197  -40.8603   -6.6559 O   0  0  0  0  0  0  0  0  0  0  0  0
  -18.1392  -39.3680   -7.9794 C   0  0  2  0  0  0  0  0  0  0  0  0
  -18.7052  -38.9459   -9.1506 O   0  0  0  0  0  0  0  0  0  0  0  0
  -19.0181  -40.0862   -7.0132 C   0  0  0  0  0  0  0  0  0  0  0  0
  -18.5173  -40.0463   -5.6864 N   0  0  0  0  0  0  0  0  0  0  0  0
  -18.6583  -41.3614   -5.0579 C   0  0  0  0  0  0  0  0  0  0  0  0
  -20.0854  -41.7752   -5.0094 C   0  0  0  0  0  0  0  0  0  0  0  0
  -20.9989  -40.9745   -5.6584 C   0  0  0  0  0  0  0  0  0  0  0  0
  -22.3373  -41.3021   -5.6498 C   0  0  0  0  0  0  0  0  0  0  0  0
  -22.7302  -42.4260   -4.9916 C   0  0  0  0  0  0  0  0  0  0  0  0
  -21.7845  -43.2050   -4.3529 C   0  0  0  0  0  0  0  0  0  0  0  0
  -20.4877  -42.8750   -4.3679 N   0  0  0  0  0  0  0  0  0  0  0  0
  -23.3047  -40.4314   -6.3406 C   0  0  0  0  0  0  0  0  0  0  0  0
  -24.1761  -41.2378   -7.2987 C   0  0  0  0  0  0  0  0  0  0  0  0
  -22.5884  -39.4076   -7.2140 C   0  0  0  0  0  0  0  0  0  0  0  0
  -24.1152  -39.6918   -5.3203 C   0  0  0  0  0  0  0  0  0  0  0  0
  -15.6075  -36.9491  -10.0222 C   0  0  0  0  0  0  0  0  0  0  0  0
  -15.3410  -42.4971  -11.1615 N   0  0  0  0  0  0  0  0  0  0  0  0
  1  2  1  0
  2  3  2  0
  3  4  1  0
  4  5  2  0
  5  6  1  0
  6  7  1  0
  7  8  1  0
  8  9  1  0
  9 10  1  0
 10 11  1  0
 11 12  1  0
 12 13  1  0
 13 14  2  0
 14 15  1  0
 15 16  2  0
 16 17  1  0
 18 17  1  6
 18 19  1  0
 19 20  1  0
 20 21  2  0
 18 22  1  0
 22 23  1  6
 22 24  1  0
 24 25  1  0
 25 26  1  0
 26 27  1  0
 27 28  2  0
 28 29  1  0
 29 30  2  0
 30 31  1  0
 31 32  2  0
 29 33  1  0
 33 34  1  0
 33 35  1  0
 33 36  1  0
 16 37  1  0
  6 38  2  0
 20  4  1  0
 32 27  1  0
 37 12  2  0
 38  2  1  0
M  END
$$$$
