
     RDKit          3D

 38 41  0  0  0  0  0  0  0  0999 V2000
  -16.2827  -45.3267   -7.6201 C   0  0  0  0  0  0  0  0  0  0  0  0
  -17.4586  -44.4486   -7.8761 C   0  0  0  0  0  0  0  0  0  0  0  0
  -17.4075  -43.4246   -8.7992 C   0  0  0  0  0  0  0  0  0  0  0  0
  -18.4996  -42.5684   -9.0679 C   0  0  0  0  0  0  0  0  0  0  0  0
  -19.6856  -42.7470   -8.3877 C   0  0  0  0  0  0  0  0  0  0  0  0
  -19.7291  -43.7672   -7.4711 C   0  0  0  0  0  0  0  0  0  0  0  0
  -20.7581  -44.2527   -6.5921 N   0  0  0  0  0  0  0  0  0  0  0  0
  -21.5271  -43.5975   -5.5846 C   0  0  0  0  0  0  0  0  0  0  0  0
  -21.4831  -42.0924   -5.8724 C   0  0  0  0  0  0  0  0  0  0  0  0
  -22.6916  -41.6581   -6.6292 C   0  0  0  0  0  0  0  0  0  0  0  0
  -22.7528  -40.1636   -6.8694 C   0  0  0  0  0  0  0  0  0  0  0  0
  -21.4179  -39.4980   -6.9171 C   0  0  0  0  0  0  0  0  0  0  0  0
  -21.0810  -38.9945   -5.6361 C   0  0  0  0  0  0  0  0  0  0  0  0
  -19.9387  -38.2995   -5.3651 C   0  0  0  0  0  0  0  0  0  0  0  0
  -19.1191  -38.1174   -6.4489 C   0  0  0  0  0  0  0  0  0  0  0  0
  -19.3943  -38.5942   -7.7523 C   0  0  0  0  0  0  0  0  0  0  0  0
  -18.3258  -38.1861   -8.6971 C   0  0  0  0  0  0  0  0  0  0  0  0
  -17.4659  -39.2262   -9.3253 C   0  0  2  0  0  0  0  0  0  0  0  0
  -18.2293  -40.1721  -10.1141 N   0  0  0  0  0  0  0  0  0  0  0  0
  -18.1166  -41.5902  -10.1025 C   0  0  0  0  0  0  0  0  0  0  0  0
  -17.5726  -42.0477  -11.2239 O   0  0  0  0  0  0  0  0  0  0  0  0
  -16.5558  -39.8376   -8.3213 C   0  0  2  0  0  0  0  0  0  0  0  0
  -16.8380  -39.4863   -7.0301 O   0  0  0  0  0  0  0  0  0  0  0  0
  -15.1192  -39.9501   -8.7026 C   0  0  0  0  0  0  0  0  0  0  0  0
  -14.8804  -41.0011   -9.6252 N   0  0  0  0  0  0  0  0  0  0  0  0
  -13.5052  -40.9279  -10.1231 C   0  0  0  0  0  0  0  0  0  0  0  0
  -13.4550  -40.2441  -11.4422 C   0  0  0  0  0  0  0  0  0  0  0  0
  -13.3275  -38.8727  -11.4397 C   0  0  0  0  0  0  0  0  0  0  0  0
  -13.2765  -38.1790  -12.6292 C   0  0  0  0  0  0  0  0  0  0  0  0
  -13.3533  -38.8758  -13.7951 C   0  0  0  0  0  0  0  0  0  0  0  0
  -13.4796  -40.2512  -13.7577 C   0  0  0  0  0  0  0  0  0  0  0  0
  -13.5292  -40.9128  -12.5955 N   0  0  0  0  0  0  0  0  0  0  0  0
  -13.1491  -36.7112  -12.6115 C   0  0  0  0  0  0  0  0  0  0  0  0
  -11.7149  -36.2925  -12.3033 C   0  0  0  0  0  0  0  0  0  0  0  0
  -13.9932  -36.1052  -11.4959 C   0  0  0  0  0  0  0  0  0  0  0  0
  -13.6341  -36.1607  -13.9179 C   0  0  0  0  0  0  0  0  0  0  0  0
  -20.5570  -39.2901   -7.9694 C   0  0  0  0  0  0  0  0  0  0  0  0
  -18.6133  -44.5690   -7.2593 N   0  0  0  0  0  0  0  0  0  0  0  0
  1  2  1  0
  2  3  2  0
  3  4  1  0
  4  5  2  0
  5  6  1  0
  6  7  1  0
  7  8  1  0
  8  9  1  0
  9 10  1  0
 10 11  1  0
 11 12  1  0
 12 13  1  0
 13 14  2  0
 14 15  1  0
 15 16  2  0
 16 17  1  0
 18 17  1  1
 18 19  1  0
 19 20  1  0
 20 21  2  0
 18 22  1  0
 22 23  1  1
 22 24  1  0
 24 25  1  0
 25 26  1  0
 26 27  1  0
 27 28  2  0
 28 29  1  0
 29 30  2  0
 30 31  1  0
 31 32  2  0
 29 33  1  0
 33 34  1  0
 33 35  1  0
 33 36  1  0
 16 37  1  0
  6 38  2  0
 20  4  1  0
 32 27  1  0
 37 12  2  0
 38  2  1  0
M  END
$$$$
