
     RDKit          3D

 38 41  0  0  0  0  0  0  0  0999 V2000
  -16.4973  -44.6628   -6.6742 C   0  0  0  0  0  0  0  0  0  0  0  0
  -17.5958  -43.9398   -7.3743 C   0  0  0  0  0  0  0  0  0  0  0  0
  -17.3534  -43.1629   -8.4883 C   0  0  0  0  0  0  0  0  0  0  0  0
  -18.3672  -42.4594   -9.1777 C   0  0  0  0  0  0  0  0  0  0  0  0
  -19.6705  -42.5397   -8.7350 C   0  0  0  0  0  0  0  0  0  0  0  0
  -19.9040  -43.3141   -7.6265 C   0  0  0  0  0  0  0  0  0  0  0  0
  -21.0950  -43.6358   -6.8881 N   0  0  0  0  0  0  0  0  0  0  0  0
  -22.0661  -42.8059   -6.2526 C   0  0  0  0  0  0  0  0  0  0  0  0
  -21.9698  -41.4120   -6.8835 C   0  0  0  0  0  0  0  0  0  0  0  0
  -22.9901  -41.2401   -7.9564 C   0  0  0  0  0  0  0  0  0  0  0  0
  -23.0066  -39.8513   -8.5614 C   0  0  0  0  0  0  0  0  0  0  0  0
  -21.6964  -39.1402   -8.4929 C   0  0  0  0  0  0  0  0  0  0  0  0
  -21.6452  -38.3285   -7.3324 C   0  0  0  0  0  0  0  0  0  0  0  0
  -20.5916  -37.5244   -7.0091 C   0  0  0  0  0  0  0  0  0  0  0  0
  -19.5595  -37.5575   -7.9108 C   0  0  0  0  0  0  0  0  0  0  0  0
  -19.5458  -38.3449   -9.0862 C   0  0  0  0  0  0  0  0  0  0  0  0
  -18.3016  -38.1116   -9.8600 C   0  0  0  0  0  0  0  0  0  0  0  0
  -17.3212  -39.2197  -10.0234 C   0  0  2  0  0  0  0  0  0  0  0  0
  -17.8921  -40.3681  -10.6978 N   0  0  0  0  0  0  0  0  0  0  0  0
  -17.7765  -41.7340  -10.3174 C   0  0  0  0  0  0  0  0  0  0  0  0
  -17.0019  -42.4123  -11.1557 O   0  0  0  0  0  0  0  0  0  0  0  0
  -16.6444  -39.5218   -8.7347 C   0  0  2  0  0  0  0  0  0  0  0  0
  -17.0706  -38.7493   -7.6898 O   0  0  0  0  0  0  0  0  0  0  0  0
  -15.1900  -39.8411   -8.8025 C   0  0  0  0  0  0  0  0  0  0  0  0
  -14.9440  -41.1901   -9.1666 N   0  0  0  0  0  0  0  0  0  0  0  0
  -14.8024  -41.2989  -10.6200 C   0  0  0  0  0  0  0  0  0  0  0  0
  -13.7038  -40.4265  -11.1122 C   0  0  0  0  0  0  0  0  0  0  0  0
  -13.9825  -39.0872  -11.2718 C   0  0  0  0  0  0  0  0  0  0  0  0
  -13.0077  -38.2256  -11.7260 C   0  0  0  0  0  0  0  0  0  0  0  0
  -11.7746  -38.7257  -12.0090 C   0  0  0  0  0  0  0  0  0  0  0  0
  -11.5323  -40.0748  -11.8354 C   0  0  0  0  0  0  0  0  0  0  0  0
  -12.4882  -40.9012  -11.3947 N   0  0  0  0  0  0  0  0  0  0  0  0
  -13.3225  -36.7968  -11.9007 C   0  0  0  0  0  0  0  0  0  0  0  0
  -12.8772  -36.3049  -13.2744 C   0  0  0  0  0  0  0  0  0  0  0  0
  -12.5523  -35.9435  -10.8992 C   0  0  0  0  0  0  0  0  0  0  0  0
  -14.7874  -36.5850  -11.6680 C   0  0  0  0  0  0  0  0  0  0  0  0
  -20.6309  -39.1384   -9.3626 C   0  0  0  0  0  0  0  0  0  0  0  0
  -18.8552  -43.9770   -6.9994 N   0  0  0  0  0  0  0  0  0  0  0  0
  1  2  1  0
  2  3  2  0
  3  4  1  0
  4  5  2  0
  5  6  1  0
  6  7  1  0
  7  8  1  0
  8  9  1  0
  9 10  1  0
 10 11  1  0
 11 12  1  0
 12 13  1  0
 13 14  2  0
 14 15  1  0
 15 16  2  0
 16 17  1  0
 18 17  1  1
 18 19  1  0
 19 20  1  0
 20 21  2  0
 18 22  1  0
 22 23  1  1
 22 24  1  0
 24 25  1  0
 25 26  1  0
 26 27  1  0
 27 28  2  0
 28 29  1  0
 29 30  2  0
 30 31  1  0
 31 32  2  0
 29 33  1  0
 33 34  1  0
 33 35  1  0
 33 36  1  0
 16 37  1  0
  6 38  2  0
 20  4  1  0
 32 27  1  0
 37 12  2  0
 38  2  1  0
M  END
$$$$
