
     RDKit          3D

 38 41  0  0  0  0  0  0  0  0999 V2000
  -17.5050  -45.7716   -6.1083 C   0  0  0  0  0  0  0  0  0  0  0  0
  -18.4600  -44.8362   -6.7659 C   0  0  0  0  0  0  0  0  0  0  0  0
  -18.0567  -43.9815   -7.7709 C   0  0  0  0  0  0  0  0  0  0  0  0
  -18.9309  -43.0777   -8.4167 C   0  0  0  0  0  0  0  0  0  0  0  0
  -20.2570  -43.0311   -8.0420 C   0  0  0  0  0  0  0  0  0  0  0  0
  -20.6509  -43.8839   -7.0417 C   0  0  0  0  0  0  0  0  0  0  0  0
  -21.9136  -44.1224   -6.3969 N   0  0  0  0  0  0  0  0  0  0  0  0
  -22.8054  -43.2446   -5.7113 C   0  0  0  0  0  0  0  0  0  0  0  0
  -22.4955  -41.8155   -6.1716 C   0  0  0  0  0  0  0  0  0  0  0  0
  -23.4222  -41.3926   -7.2598 C   0  0  0  0  0  0  0  0  0  0  0  0
  -23.2261  -39.9563   -7.6999 C   0  0  0  0  0  0  0  0  0  0  0  0
  -21.8419  -39.4384   -7.4938 C   0  0  0  0  0  0  0  0  0  0  0  0
  -21.7538  -38.7727   -6.2459 C   0  0  0  0  0  0  0  0  0  0  0  0
  -20.6263  -38.1567   -5.7870 C   0  0  0  0  0  0  0  0  0  0  0  0
  -19.5569  -38.2287   -6.6418 C   0  0  0  0  0  0  0  0  0  0  0  0
  -19.5767  -38.8776   -7.8990 C   0  0  0  0  0  0  0  0  0  0  0  0
  -18.2706  -38.7294   -8.5869 C   0  0  0  0  0  0  0  0  0  0  0  0
  -17.4322  -39.9340   -8.8358 C   0  0  2  0  0  0  0  0  0  0  0  0
  -18.1058  -40.9151   -9.6625 N   0  0  0  0  0  0  0  0  0  0  0  0
  -18.1879  -42.3176   -9.4385 C   0  0  0  0  0  0  0  0  0  0  0  0
  -17.4597  -42.9975  -10.3160 O   0  0  0  0  0  0  0  0  0  0  0  0
  -16.8747  -40.4629   -7.5632 C   0  0  2  0  0  0  0  0  0  0  0  0
  -17.0724  -39.6421   -6.4874 O   0  0  0  0  0  0  0  0  0  0  0  0
  -15.5683  -41.1752   -7.6510 C   0  0  0  0  0  0  0  0  0  0  0  0
  -14.8885  -40.9198   -8.8699 N   0  0  0  0  0  0  0  0  0  0  0  0
  -14.2981  -39.5800   -8.8431 C   0  0  0  0  0  0  0  0  0  0  0  0
  -14.4296  -38.9164  -10.1669 C   0  0  0  0  0  0  0  0  0  0  0  0
  -15.3108  -37.8622  -10.2615 C   0  0  0  0  0  0  0  0  0  0  0  0
  -15.4799  -37.2056  -11.4611 C   0  0  0  0  0  0  0  0  0  0  0  0
  -14.7607  -37.6197  -12.5392 C   0  0  0  0  0  0  0  0  0  0  0  0
  -13.8856  -38.6805  -12.4053 C   0  0  0  0  0  0  0  0  0  0  0  0
  -13.7316  -39.3104  -11.2347 N   0  0  0  0  0  0  0  0  0  0  0  0
  -16.4327  -36.0852  -11.5502 C   0  0  0  0  0  0  0  0  0  0  0  0
  -17.7199  -36.4034  -10.7957 C   0  0  0  0  0  0  0  0  0  0  0  0
  -16.8612  -35.8488  -12.9941 C   0  0  0  0  0  0  0  0  0  0  0  0
  -15.7721  -34.8380  -11.0472 C   0  0  0  0  0  0  0  0  0  0  0  0
  -20.7367  -39.4839   -8.3113 C   0  0  0  0  0  0  0  0  0  0  0  0
  -19.7333  -44.7455   -6.4517 N   0  0  0  0  0  0  0  0  0  0  0  0
  1  2  1  0
  2  3  2  0
  3  4  1  0
  4  5  2  0
  5  6  1  0
  6  7  1  0
  7  8  1  0
  8  9  1  0
  9 10  1  0
 10 11  1  0
 11 12  1  0
 12 13  1  0
 13 14  2  0
 14 15  1  0
 15 16  2  0
 16 17  1  0
 18 17  1  1
 18 19  1  0
 19 20  1  0
 20 21  2  0
 18 22  1  0
 22 23  1  1
 22 24  1  0
 24 25  1  0
 25 26  1  0
 26 27  1  0
 27 28  2  0
 28 29  1  0
 29 30  2  0
 30 31  1  0
 31 32  2  0
 29 33  1  0
 33 34  1  0
 33 35  1  0
 33 36  1  0
 16 37  1  0
  6 38  2  0
 20  4  1  0
 32 27  1  0
 37 12  2  0
 38  2  1  0
M  END
$$$$
