
     RDKit          3D

 38 41  0  0  0  0  0  0  0  0999 V2000
  -17.0307  -45.2388   -7.1280 C   0  0  0  0  0  0  0  0  0  0  0  0
  -18.1138  -44.3344   -7.6057 C   0  0  0  0  0  0  0  0  0  0  0  0
  -17.9059  -43.4407   -8.6361 C   0  0  0  0  0  0  0  0  0  0  0  0
  -18.9061  -42.5644   -9.1153 C   0  0  0  0  0  0  0  0  0  0  0  0
  -20.1597  -42.5866   -8.5417 C   0  0  0  0  0  0  0  0  0  0  0  0
  -20.3592  -43.4778   -7.5175 C   0  0  0  0  0  0  0  0  0  0  0  0
  -21.4968  -43.7877   -6.6947 N   0  0  0  0  0  0  0  0  0  0  0  0
  -22.3088  -42.9666   -5.8567 C   0  0  0  0  0  0  0  0  0  0  0  0
  -22.1336  -41.5153   -6.3186 C   0  0  0  0  0  0  0  0  0  0  0  0
  -23.2333  -41.1122   -7.2405 C   0  0  0  0  0  0  0  0  0  0  0  0
  -23.1678  -39.6593   -7.6646 C   0  0  0  0  0  0  0  0  0  0  0  0
  -21.7913  -39.0829   -7.6574 C   0  0  0  0  0  0  0  0  0  0  0  0
  -21.5408  -38.4408   -6.4193 C   0  0  0  0  0  0  0  0  0  0  0  0
  -20.3831  -37.7837   -6.1204 C   0  0  0  0  0  0  0  0  0  0  0  0
  -19.4555  -37.7882   -7.1299 C   0  0  0  0  0  0  0  0  0  0  0  0
  -19.6407  -38.4103   -8.3872 C   0  0  0  0  0  0  0  0  0  0  0  0
  -18.4631  -38.1877   -9.2616 C   0  0  0  0  0  0  0  0  0  0  0  0
  -17.6230  -39.3470   -9.6693 C   0  0  2  0  0  0  0  0  0  0  0  0
  -18.3736  -40.3401  -10.4109 N   0  0  0  0  0  0  0  0  0  0  0  0
  -18.3613  -41.7493  -10.2166 C   0  0  0  0  0  0  0  0  0  0  0  0
  -17.7485  -42.3762  -11.2137 O   0  0  0  0  0  0  0  0  0  0  0  0
  -16.8550  -39.8769   -8.5119 C   0  0  2  0  0  0  0  0  0  0  0  0
  -17.1744  -39.2901   -7.3187 O   0  0  0  0  0  0  0  0  0  0  0  0
  -15.4204  -40.2011   -8.7540 C   0  0  0  0  0  0  0  0  0  0  0  0
  -15.2292  -40.9987   -9.9117 N   0  0  0  0  0  0  0  0  0  0  0  0
  -15.5975  -40.2404  -11.1090 C   0  0  0  0  0  0  0  0  0  0  0  0
  -14.5162  -39.2940  -11.4903 C   0  0  0  0  0  0  0  0  0  0  0  0
  -14.7973  -37.9479  -11.4138 C   0  0  0  0  0  0  0  0  0  0  0  0
  -13.8383  -37.0190  -11.7548 C   0  0  0  0  0  0  0  0  0  0  0  0
  -12.6182  -37.4603  -12.1639 C   0  0  0  0  0  0  0  0  0  0  0  0
  -12.3730  -38.8185  -12.2269 C   0  0  0  0  0  0  0  0  0  0  0  0
  -13.3135  -39.7104  -11.8940 N   0  0  0  0  0  0  0  0  0  0  0  0
  -14.1558  -35.5822  -11.6769 C   0  0  0  0  0  0  0  0  0  0  0  0
  -13.1899  -34.7639  -12.5283 C   0  0  0  0  0  0  0  0  0  0  0  0
  -13.9779  -35.0620  -10.2550 C   0  0  0  0  0  0  0  0  0  0  0  0
  -15.5844  -35.3729  -12.0773 C   0  0  0  0  0  0  0  0  0  0  0  0
  -20.8238  -39.0603   -8.6348 C   0  0  0  0  0  0  0  0  0  0  0  0
  -19.3264  -44.3089   -7.0988 N   0  0  0  0  0  0  0  0  0  0  0  0
  1  2  1  0
  2  3  2  0
  3  4  1  0
  4  5  2  0
  5  6  1  0
  6  7  1  0
  7  8  1  0
  8  9  1  0
  9 10  1  0
 10 11  1  0
 11 12  1  0
 12 13  1  0
 13 14  2  0
 14 15  1  0
 15 16  2  0
 16 17  1  0
 18 17  1  1
 18 19  1  0
 19 20  1  0
 20 21  2  0
 18 22  1  0
 22 23  1  1
 22 24  1  0
 24 25  1  0
 25 26  1  0
 26 27  1  0
 27 28  2  0
 28 29  1  0
 29 30  2  0
 30 31  1  0
 31 32  2  0
 29 33  1  0
 33 34  1  0
 33 35  1  0
 33 36  1  0
 16 37  1  0
  6 38  2  0
 20  4  1  0
 32 27  1  0
 37 12  2  0
 38  2  1  0
M  END
$$$$
