
     RDKit          3D

 38 41  0  0  0  0  0  0  0  0999 V2000
  -15.3724  -44.0316   -7.6384 C   0  0  0  0  0  0  0  0  0  0  0  0
  -16.7748  -43.6460   -7.9609 C   0  0  0  0  0  0  0  0  0  0  0  0
  -17.0581  -42.6539   -8.8769 C   0  0  0  0  0  0  0  0  0  0  0  0
  -18.3739  -42.2572   -9.2072 C   0  0  0  0  0  0  0  0  0  0  0  0
  -19.4434  -42.8791   -8.5985 C   0  0  0  0  0  0  0  0  0  0  0  0
  -19.1541  -43.8647   -7.6886 C   0  0  0  0  0  0  0  0  0  0  0  0
  -19.9747  -44.7181   -6.8729 N   0  0  0  0  0  0  0  0  0  0  0  0
  -20.9851  -44.4193   -5.9108 C   0  0  0  0  0  0  0  0  0  0  0  0
  -21.4878  -42.9985   -6.1917 C   0  0  0  0  0  0  0  0  0  0  0  0
  -22.7286  -43.0249   -7.0171 C   0  0  0  0  0  0  0  0  0  0  0  0
  -23.3275  -41.6541   -7.2567 C   0  0  0  0  0  0  0  0  0  0  0  0
  -22.3349  -40.5402   -7.2240 C   0  0  0  0  0  0  0  0  0  0  0  0
  -22.2784  -39.9789   -5.9241 C   0  0  0  0  0  0  0  0  0  0  0  0
  -21.4922  -38.9168   -5.5847 C   0  0  0  0  0  0  0  0  0  0  0  0
  -20.7420  -38.4177   -6.6178 C   0  0  0  0  0  0  0  0  0  0  0  0
  -20.7500  -38.9308   -7.9364 C   0  0  0  0  0  0  0  0  0  0  0  0
  -19.8604  -38.1329   -8.8156 C   0  0  0  0  0  0  0  0  0  0  0  0
  -18.6433  -38.7648   -9.3947 C   0  0  2  0  0  0  0  0  0  0  0  0
  -18.9573  -39.9068  -10.2295 N   0  0  0  0  0  0  0  0  0  0  0  0
  -18.3267  -41.1819  -10.2149 C   0  0  0  0  0  0  0  0  0  0  0  0
  -17.5923  -41.3780  -11.3035 O   0  0  0  0  0  0  0  0  0  0  0  0
  -17.6266  -39.0194   -8.3404 C   0  0  2  0  0  0  0  0  0  0  0  0
  -18.1124  -38.9210   -7.0659 O   0  0  0  0  0  0  0  0  0  0  0  0
  -16.2551  -38.4933   -8.5937 C   0  0  0  0  0  0  0  0  0  0  0  0
  -15.8014  -38.7643   -9.9104 N   0  0  0  0  0  0  0  0  0  0  0  0
  -15.1992  -37.5620  -10.4902 C   0  0  0  0  0  0  0  0  0  0  0  0
  -13.7153  -37.6522  -10.4742 C   0  0  0  0  0  0  0  0  0  0  0  0
  -13.1590  -38.9010  -10.3078 C   0  0  0  0  0  0  0  0  0  0  0  0
  -11.7896  -39.0522  -10.2826 C   0  0  0  0  0  0  0  0  0  0  0  0
  -11.0081  -37.9478  -10.4260 C   0  0  0  0  0  0  0  0  0  0  0  0
  -11.6026  -36.7117  -10.5919 C   0  0  0  0  0  0  0  0  0  0  0  0
  -12.9340  -36.5785  -10.6134 N   0  0  0  0  0  0  0  0  0  0  0  0
  -11.2081  -40.3930  -10.0947 C   0  0  0  0  0  0  0  0  0  0  0  0
   -9.7285  -40.2996   -9.7348 C   0  0  0  0  0  0  0  0  0  0  0  0
  -11.2566  -41.1936  -11.3911 C   0  0  0  0  0  0  0  0  0  0  0  0
  -12.0001  -41.1305   -9.0584 C   0  0  0  0  0  0  0  0  0  0  0  0
  -21.5576  -40.0026   -8.2233 C   0  0  0  0  0  0  0  0  0  0  0  0
  -17.8334  -44.2007   -7.4136 N   0  0  0  0  0  0  0  0  0  0  0  0
  1  2  1  0
  2  3  2  0
  3  4  1  0
  4  5  2  0
  5  6  1  0
  6  7  1  0
  7  8  1  0
  8  9  1  0
  9 10  1  0
 10 11  1  0
 11 12  1  0
 12 13  1  0
 13 14  2  0
 14 15  1  0
 15 16  2  0
 16 17  1  0
 18 17  1  1
 18 19  1  0
 19 20  1  0
 20 21  2  0
 18 22  1  0
 22 23  1  1
 22 24  1  0
 24 25  1  0
 25 26  1  0
 26 27  1  0
 27 28  2  0
 28 29  1  0
 29 30  2  0
 30 31  1  0
 31 32  2  0
 29 33  1  0
 33 34  1  0
 33 35  1  0
 33 36  1  0
 16 37  1  0
  6 38  2  0
 20  4  1  0
 32 27  1  0
 37 12  2  0
 38  2  1  0
M  END
$$$$
