
     RDKit          3D

 38 41  0  0  0  0  0  0  0  0999 V2000
  -16.5456  -45.3748   -6.8771 C   0  0  0  0  0  0  0  0  0  0  0  0
  -17.7166  -44.5917   -7.3617 C   0  0  0  0  0  0  0  0  0  0  0  0
  -17.5825  -43.6158   -8.3276 C   0  0  0  0  0  0  0  0  0  0  0  0
  -18.6676  -42.8495   -8.8107 C   0  0  0  0  0  0  0  0  0  0  0  0
  -19.9323  -43.0715   -8.3084 C   0  0  0  0  0  0  0  0  0  0  0  0
  -20.0581  -44.0435   -7.3480 C   0  0  0  0  0  0  0  0  0  0  0  0
  -21.1809  -44.5505   -6.6069 N   0  0  0  0  0  0  0  0  0  0  0  0
  -22.1337  -43.8969   -5.7697 C   0  0  0  0  0  0  0  0  0  0  0  0
  -22.1330  -42.4091   -6.1394 C   0  0  0  0  0  0  0  0  0  0  0  0
  -23.2327  -42.0963   -7.0957 C   0  0  0  0  0  0  0  0  0  0  0  0
  -23.3426  -40.6237   -7.4337 C   0  0  0  0  0  0  0  0  0  0  0  0
  -22.0574  -39.8737   -7.3194 C   0  0  0  0  0  0  0  0  0  0  0  0
  -21.9530  -39.2832   -6.0355 C   0  0  0  0  0  0  0  0  0  0  0  0
  -20.9088  -38.5003   -5.6379 C   0  0  0  0  0  0  0  0  0  0  0  0
  -19.9431  -38.3202   -6.5941 C   0  0  0  0  0  0  0  0  0  0  0  0
  -19.9847  -38.8812   -7.8924 C   0  0  0  0  0  0  0  0  0  0  0  0
  -18.8081  -38.4521   -8.6877 C   0  0  0  0  0  0  0  0  0  0  0  0
  -17.8024  -39.4636   -9.1133 C   0  0  2  0  0  0  0  0  0  0  0  0
  -18.3780  -40.4979   -9.9491 N   0  0  0  0  0  0  0  0  0  0  0  0
  -18.1863  -41.9028   -9.8335 C   0  0  0  0  0  0  0  0  0  0  0  0
  -17.4494  -42.3804  -10.8293 O   0  0  0  0  0  0  0  0  0  0  0  0
  -17.0250  -39.9599   -7.9474 C   0  0  2  0  0  0  0  0  0  0  0  0
  -17.6280  -39.7327   -6.7412 O   0  0  0  0  0  0  0  0  0  0  0  0
  -15.5445  -39.8001   -8.0144 C   0  0  0  0  0  0  0  0  0  0  0  0
  -15.0294  -40.0301   -9.3162 N   0  0  0  0  0  0  0  0  0  0  0  0
  -15.5251  -39.0071  -10.2393 C   0  0  0  0  0  0  0  0  0  0  0  0
  -14.5017  -38.6798  -11.2668 C   0  0  0  0  0  0  0  0  0  0  0  0
  -14.1226  -37.3611  -11.3848 C   0  0  0  0  0  0  0  0  0  0  0  0
  -13.1795  -36.9918  -12.3191 C   0  0  0  0  0  0  0  0  0  0  0  0
  -12.6363  -37.9533  -13.1137 C   0  0  0  0  0  0  0  0  0  0  0  0
  -13.0410  -39.2659  -12.9652 C   0  0  0  0  0  0  0  0  0  0  0  0
  -13.9588  -39.6111  -12.0547 N   0  0  0  0  0  0  0  0  0  0  0  0
  -12.7900  -35.5759  -12.4406 C   0  0  0  0  0  0  0  0  0  0  0  0
  -12.0222  -35.3313  -13.7360 C   0  0  0  0  0  0  0  0  0  0  0  0
  -11.8315  -35.1775  -11.3240 C   0  0  0  0  0  0  0  0  0  0  0  0
  -14.0147  -34.7192  -12.3348 C   0  0  0  0  0  0  0  0  0  0  0  0
  -21.0573  -39.6635   -8.2400 C   0  0  0  0  0  0  0  0  0  0  0  0
  -18.9440  -44.7569   -6.9208 N   0  0  0  0  0  0  0  0  0  0  0  0
  1  2  1  0
  2  3  2  0
  3  4  1  0
  4  5  2  0
  5  6  1  0
  6  7  1  0
  7  8  1  0
  8  9  1  0
  9 10  1  0
 10 11  1  0
 11 12  1  0
 12 13  1  0
 13 14  2  0
 14 15  1  0
 15 16  2  0
 16 17  1  0
 18 17  1  1
 18 19  1  0
 19 20  1  0
 20 21  2  0
 18 22  1  0
 22 23  1  1
 22 24  1  0
 24 25  1  0
 25 26  1  0
 26 27  1  0
 27 28  2  0
 28 29  1  0
 29 30  2  0
 30 31  1  0
 31 32  2  0
 29 33  1  0
 33 34  1  0
 33 35  1  0
 33 36  1  0
 16 37  1  0
  6 38  2  0
 20  4  1  0
 32 27  1  0
 37 12  2  0
 38  2  1  0
M  END
$$$$
