
     RDKit          3D

 38 41  0  0  0  0  0  0  0  0999 V2000
  -16.8634  -44.9304   -6.3475 C   0  0  0  0  0  0  0  0  0  0  0  0
  -17.9754  -44.1118   -6.9067 C   0  0  0  0  0  0  0  0  0  0  0  0
  -17.7982  -43.3199   -8.0225 C   0  0  0  0  0  0  0  0  0  0  0  0
  -18.8264  -42.5269   -8.5809 C   0  0  0  0  0  0  0  0  0  0  0  0
  -20.0771  -42.5297   -8.0004 C   0  0  0  0  0  0  0  0  0  0  0  0
  -20.2459  -43.3195   -6.8910 C   0  0  0  0  0  0  0  0  0  0  0  0
  -21.3709  -43.5799   -6.0345 N   0  0  0  0  0  0  0  0  0  0  0  0
  -22.2054  -42.7042   -5.2779 C   0  0  0  0  0  0  0  0  0  0  0  0
  -22.0765  -41.3018   -5.8836 C   0  0  0  0  0  0  0  0  0  0  0  0
  -23.1909  -41.0266   -6.8345 C   0  0  0  0  0  0  0  0  0  0  0  0
  -23.1715  -39.6222   -7.4023 C   0  0  0  0  0  0  0  0  0  0  0  0
  -21.8135  -39.0064   -7.4611 C   0  0  0  0  0  0  0  0  0  0  0  0
  -21.5793  -38.2361   -6.2949 C   0  0  0  0  0  0  0  0  0  0  0  0
  -20.4416  -37.5175   -6.0703 C   0  0  0  0  0  0  0  0  0  0  0  0
  -19.5173  -37.5948   -7.0799 C   0  0  0  0  0  0  0  0  0  0  0  0
  -19.6870  -38.3451   -8.2674 C   0  0  0  0  0  0  0  0  0  0  0  0
  -18.5194  -38.1754   -9.1669 C   0  0  0  0  0  0  0  0  0  0  0  0
  -17.6451  -39.3435   -9.4616 C   0  0  2  0  0  0  0  0  0  0  0  0
  -18.3668  -40.4283  -10.0957 N   0  0  0  0  0  0  0  0  0  0  0  0
  -18.3104  -41.8099   -9.7615 C   0  0  0  0  0  0  0  0  0  0  0  0
  -17.6815  -42.5146  -10.6946 O   0  0  0  0  0  0  0  0  0  0  0  0
  -16.8576  -39.7313   -8.2618 C   0  0  2  0  0  0  0  0  0  0  0  0
  -17.3315  -39.2031   -7.0927 O   0  0  0  0  0  0  0  0  0  0  0  0
  -15.3785  -39.8078   -8.4293 C   0  0  0  0  0  0  0  0  0  0  0  0
  -14.9989  -40.4082   -9.6575 N   0  0  0  0  0  0  0  0  0  0  0  0
  -15.8311  -39.8915  -10.7461 C   0  0  0  0  0  0  0  0  0  0  0  0
  -15.4302  -38.5064  -11.1078 C   0  0  0  0  0  0  0  0  0  0  0  0
  -14.1554  -38.3236  -11.5960 C   0  0  0  0  0  0  0  0  0  0  0  0
  -13.7220  -37.0639  -11.9482 C   0  0  0  0  0  0  0  0  0  0  0  0
  -14.5768  -36.0153  -11.8044 C   0  0  0  0  0  0  0  0  0  0  0  0
  -15.8485  -36.2380  -11.3123 C   0  0  0  0  0  0  0  0  0  0  0  0
  -16.2567  -37.4664  -10.9727 N   0  0  0  0  0  0  0  0  0  0  0  0
  -12.3525  -36.8816  -12.4605 C   0  0  0  0  0  0  0  0  0  0  0  0
  -12.3630  -36.1306  -13.7884 C   0  0  0  0  0  0  0  0  0  0  0  0
  -11.7018  -38.2263  -12.7645 C   0  0  0  0  0  0  0  0  0  0  0  0
  -11.5279  -36.1864  -11.4204 C   0  0  0  0  0  0  0  0  0  0  0  0
  -20.8501  -39.0523   -8.4416 C   0  0  0  0  0  0  0  0  0  0  0  0
  -19.1867  -44.0726   -6.3975 N   0  0  0  0  0  0  0  0  0  0  0  0
  1  2  1  0
  2  3  2  0
  3  4  1  0
  4  5  2  0
  5  6  1  0
  6  7  1  0
  7  8  1  0
  8  9  1  0
  9 10  1  0
 10 11  1  0
 11 12  1  0
 12 13  1  0
 13 14  2  0
 14 15  1  0
 15 16  2  0
 16 17  1  0
 18 17  1  1
 18 19  1  0
 19 20  1  0
 20 21  2  0
 18 22  1  0
 22 23  1  1
 22 24  1  0
 24 25  1  0
 25 26  1  0
 26 27  1  0
 27 28  2  0
 28 29  1  0
 29 30  2  0
 30 31  1  0
 31 32  2  0
 29 33  1  0
 33 34  1  0
 33 35  1  0
 33 36  1  0
 16 37  1  0
  6 38  2  0
 20  4  1  0
 32 27  1  0
 37 12  2  0
 38  2  1  0
M  END
$$$$
