
     RDKit          3D

 38 41  0  0  0  0  0  0  0  0999 V2000
  -14.9422  -43.5572  -10.5662 C   0  0  0  0  0  0  0  0  0  0  0  0
  -15.1203  -42.1303  -10.1767 C   0  0  0  0  0  0  0  0  0  0  0  0
  -15.4753  -41.7716   -8.8926 C   0  0  0  0  0  0  0  0  0  0  0  0
  -15.6570  -40.4303   -8.4851 C   0  0  0  0  0  0  0  0  0  0  0  0
  -15.4744  -39.4129   -9.3976 C   0  0  0  0  0  0  0  0  0  0  0  0
  -15.1215  -39.7772  -10.6727 C   0  0  0  0  0  0  0  0  0  0  0  0
  -14.8491  -39.0254  -11.8676 N   0  0  0  0  0  0  0  0  0  0  0  0
  -15.6326  -38.0715  -12.5832 C   0  0  0  0  0  0  0  0  0  0  0  0
  -16.6927  -37.5252  -11.6199 C   0  0  0  0  0  0  0  0  0  0  0  0
  -16.2512  -36.2361  -11.0158 C   0  0  0  0  0  0  0  0  0  0  0  0
  -17.2928  -35.5974  -10.1200 C   0  0  0  0  0  0  0  0  0  0  0  0
  -18.2350  -36.5687   -9.4909 C   0  0  0  0  0  0  0  0  0  0  0  0
  -19.4023  -36.6954  -10.2843 C   0  0  0  0  0  0  0  0  0  0  0  0
  -20.4681  -37.4807   -9.9545 C   0  0  0  0  0  0  0  0  0  0  0  0
  -20.3259  -38.1554   -8.7696 C   0  0  0  0  0  0  0  0  0  0  0  0
  -19.1887  -38.0751   -7.9317 C   0  0  0  0  0  0  0  0  0  0  0  0
  -19.3789  -38.8928   -6.7086 C   0  0  0  0  0  0  0  0  0  0  0  0
  -18.5147  -40.0832   -6.4807 C   0  0  2  0  0  0  0  0  0  0  0  0
  -17.1090  -39.7397   -6.4056 N   0  0  0  0  0  0  0  0  0  0  0  0
  -16.0277  -40.3942   -7.0585 C   0  0  0  0  0  0  0  0  0  0  0  0
  -15.2685  -41.0628   -6.1988 O   0  0  0  0  0  0  0  0  0  0  0  0
  -18.8445  -41.1683   -7.4418 C   0  0  2  0  0  0  0  0  0  0  0  0
  -19.9892  -40.9474   -8.1566 O   0  0  0  0  0  0  0  0  0  0  0  0
  -18.5760  -42.5638   -6.9920 C   0  0  0  0  0  0  0  0  0  0  0  0
  -17.8620  -43.3202   -7.9569 N   0  0  0  0  0  0  0  0  0  0  0  0
  -18.7975  -43.9627   -8.8822 C   0  0  0  0  0  0  0  0  0  0  0  0
  -20.1275  -44.1513   -8.2453 C   0  0  0  0  0  0  0  0  0  0  0  0
  -20.3484  -43.5185   -7.0421 C   0  0  0  0  0  0  0  0  0  0  0  0
  -21.5597  -43.6543   -6.3995 C   0  0  0  0  0  0  0  0  0  0  0  0
  -22.5234  -44.4206   -6.9781 C   0  0  0  0  0  0  0  0  0  0  0  0
  -22.2653  -45.0391   -8.1864 C   0  0  0  0  0  0  0  0  0  0  0  0
  -21.0840  -44.9000   -8.7996 N   0  0  0  0  0  0  0  0  0  0  0  0
  -21.7790  -42.9790   -5.1084 C   0  0  0  0  0  0  0  0  0  0  0  0
  -20.9660  -41.6910   -5.0221 C   0  0  0  0  0  0  0  0  0  0  0  0
  -21.2875  -43.8427   -3.9522 C   0  0  0  0  0  0  0  0  0  0  0  0
  -23.2464  -42.7390   -4.9231 C   0  0  0  0  0  0  0  0  0  0  0  0
  -18.1431  -37.2717   -8.3124 C   0  0  0  0  0  0  0  0  0  0  0  0
  -14.9615  -41.1186  -11.0009 N   0  0  0  0  0  0  0  0  0  0  0  0
  1  2  1  0
  2  3  2  0
  3  4  1  0
  4  5  2  0
  5  6  1  0
  6  7  1  0
  7  8  1  0
  8  9  1  0
  9 10  1  0
 10 11  1  0
 11 12  1  0
 12 13  1  0
 13 14  2  0
 14 15  1  0
 15 16  2  0
 16 17  1  0
 18 17  1  6
 18 19  1  0
 19 20  1  0
 20 21  2  0
 18 22  1  0
 22 23  1  1
 22 24  1  0
 24 25  1  0
 25 26  1  0
 26 27  1  0
 27 28  2  0
 28 29  1  0
 29 30  2  0
 30 31  1  0
 31 32  2  0
 29 33  1  0
 33 34  1  0
 33 35  1  0
 33 36  1  0
 16 37  1  0
  6 38  2  0
 20  4  1  0
 32 27  1  0
 37 12  2  0
 38  2  1  0
M  END
$$$$
