
     RDKit          3D

 38 41  0  0  0  0  0  0  0  0999 V2000
  -15.3050  -43.8370   -7.3082 C   0  0  0  0  0  0  0  0  0  0  0  0
  -16.7246  -43.4325   -7.5098 C   0  0  0  0  0  0  0  0  0  0  0  0
  -17.1254  -42.7419   -8.6349 C   0  0  0  0  0  0  0  0  0  0  0  0
  -18.4609  -42.3377   -8.8610 C   0  0  0  0  0  0  0  0  0  0  0  0
  -19.4288  -42.6387   -7.9263 C   0  0  0  0  0  0  0  0  0  0  0  0
  -19.0228  -43.3257   -6.8100 C   0  0  0  0  0  0  0  0  0  0  0  0
  -19.7188  -43.8078   -5.6480 N   0  0  0  0  0  0  0  0  0  0  0  0
  -20.5250  -43.1347   -4.6821 C   0  0  0  0  0  0  0  0  0  0  0  0
  -21.0082  -41.8239   -5.3133 C   0  0  0  0  0  0  0  0  0  0  0  0
  -22.3777  -41.9781   -5.8813 C   0  0  0  0  0  0  0  0  0  0  0  0
  -22.9501  -40.6928   -6.4429 C   0  0  0  0  0  0  0  0  0  0  0  0
  -21.9207  -39.7235   -6.9203 C   0  0  0  0  0  0  0  0  0  0  0  0
  -21.6062  -38.8031   -5.8898 C   0  0  0  0  0  0  0  0  0  0  0  0
  -20.7265  -37.7700   -6.0312 C   0  0  0  0  0  0  0  0  0  0  0  0
  -20.1542  -37.6828   -7.2739 C   0  0  0  0  0  0  0  0  0  0  0  0
  -20.4223  -38.5678   -8.3448 C   0  0  0  0  0  0  0  0  0  0  0  0
  -19.6724  -38.1644   -9.5596 C   0  0  0  0  0  0  0  0  0  0  0  0
  -18.6084  -39.0573  -10.0947 C   0  0  2  0  0  0  0  0  0  0  0  0
  -19.1170  -40.3623  -10.4663 N   0  0  0  0  0  0  0  0  0  0  0  0
  -18.5499  -41.6282  -10.1504 C   0  0  0  0  0  0  0  0  0  0  0  0
  -18.0334  -42.2152  -11.2234 O   0  0  0  0  0  0  0  0  0  0  0  0
  -17.4300  -39.0784   -9.1886 C   0  0  2  0  0  0  0  0  0  0  0  0
  -17.6046  -38.3655   -8.0348 O   0  0  0  0  0  0  0  0  0  0  0  0
  -16.0885  -39.0175   -9.8355 C   0  0  0  0  0  0  0  0  0  0  0  0
  -16.1610  -39.0959  -11.2503 N   0  0  0  0  0  0  0  0  0  0  0  0
  -14.9345  -39.6932  -11.7825 C   0  0  0  0  0  0  0  0  0  0  0  0
  -13.7744  -38.7843  -11.5870 C   0  0  0  0  0  0  0  0  0  0  0  0
  -13.9458  -37.4589  -11.9197 C   0  0  0  0  0  0  0  0  0  0  0  0
  -12.9087  -36.5652  -11.7635 C   0  0  0  0  0  0  0  0  0  0  0  0
  -11.7228  -37.0199  -11.2759 C   0  0  0  0  0  0  0  0  0  0  0  0
  -11.5890  -38.3564  -10.9522 C   0  0  0  0  0  0  0  0  0  0  0  0
  -12.6038  -39.2143  -11.1099 N   0  0  0  0  0  0  0  0  0  0  0  0
  -13.1033  -35.1519  -12.1321 C   0  0  0  0  0  0  0  0  0  0  0  0
  -11.8012  -34.3689  -11.9955 C   0  0  0  0  0  0  0  0  0  0  0  0
  -14.0827  -34.4717  -11.1821 C   0  0  0  0  0  0  0  0  0  0  0  0
  -13.6679  -35.0794  -13.5181 C   0  0  0  0  0  0  0  0  0  0  0  0
  -21.3141  -39.5922   -8.1478 C   0  0  0  0  0  0  0  0  0  0  0  0
  -17.6900  -43.6895   -6.6555 N   0  0  0  0  0  0  0  0  0  0  0  0
  1  2  1  0
  2  3  2  0
  3  4  1  0
  4  5  2  0
  5  6  1  0
  6  7  1  0
  7  8  1  0
  8  9  1  0
  9 10  1  0
 10 11  1  0
 11 12  1  0
 12 13  1  0
 13 14  2  0
 14 15  1  0
 15 16  2  0
 16 17  1  0
 18 17  1  1
 18 19  1  0
 19 20  1  0
 20 21  2  0
 18 22  1  0
 22 23  1  1
 22 24  1  0
 24 25  1  0
 25 26  1  0
 26 27  1  0
 27 28  2  0
 28 29  1  0
 29 30  2  0
 30 31  1  0
 31 32  2  0
 29 33  1  0
 33 34  1  0
 33 35  1  0
 33 36  1  0
 16 37  1  0
  6 38  2  0
 20  4  1  0
 32 27  1  0
 37 12  2  0
 38  2  1  0
M  END
$$$$
