
     RDKit          3D

 38 41  0  0  0  0  0  0  0  0999 V2000
  -17.9746  -45.3798   -5.2711 C   0  0  0  0  0  0  0  0  0  0  0  0
  -18.7463  -44.4390   -6.1306 C   0  0  0  0  0  0  0  0  0  0  0  0
  -18.1541  -43.7716   -7.1828 C   0  0  0  0  0  0  0  0  0  0  0  0
  -18.8508  -42.8692   -8.0185 C   0  0  0  0  0  0  0  0  0  0  0  0
  -20.1895  -42.6294   -7.7916 C   0  0  0  0  0  0  0  0  0  0  0  0
  -20.7718  -43.2966   -6.7434 C   0  0  0  0  0  0  0  0  0  0  0  0
  -22.1066  -43.3096   -6.2093 N   0  0  0  0  0  0  0  0  0  0  0  0
  -22.9426  -42.2579   -5.7290 C   0  0  0  0  0  0  0  0  0  0  0  0
  -22.4215  -40.9434   -6.3212 C   0  0  0  0  0  0  0  0  0  0  0  0
  -23.1891  -40.5667   -7.5422 C   0  0  0  0  0  0  0  0  0  0  0  0
  -22.7814  -39.2300   -8.1270 C   0  0  0  0  0  0  0  0  0  0  0  0
  -21.3684  -38.8443   -7.8414 C   0  0  0  0  0  0  0  0  0  0  0  0
  -21.3118  -38.0356   -6.6791 C   0  0  0  0  0  0  0  0  0  0  0  0
  -20.1632  -37.4923   -6.1822 C   0  0  0  0  0  0  0  0  0  0  0  0
  -19.0386  -37.7914   -6.9068 C   0  0  0  0  0  0  0  0  0  0  0  0
  -19.0248  -38.5922   -8.0732 C   0  0  0  0  0  0  0  0  0  0  0  0
  -17.6543  -38.6786   -8.6346 C   0  0  0  0  0  0  0  0  0  0  0  0
  -16.9497  -39.9898   -8.6504 C   0  0  2  0  0  0  0  0  0  0  0  0
  -17.6610  -40.9904   -9.4200 N   0  0  0  0  0  0  0  0  0  0  0  0
  -17.9327  -42.3344   -9.0407 C   0  0  0  0  0  0  0  0  0  0  0  0
  -17.2172  -43.1982   -9.7510 O   0  0  0  0  0  0  0  0  0  0  0  0
  -16.5764  -40.4066   -7.2730 C   0  0  2  0  0  0  0  0  0  0  0  0
  -17.1784  -39.6723   -6.2889 O   0  0  0  0  0  0  0  0  0  0  0  0
  -15.1570  -40.8077   -7.0579 C   0  0  0  0  0  0  0  0  0  0  0  0
  -14.5414  -41.2911   -8.2412 N   0  0  0  0  0  0  0  0  0  0  0  0
  -15.0388  -40.5514   -9.4030 C   0  0  0  0  0  0  0  0  0  0  0  0
  -13.9141  -40.0913  -10.2595 C   0  0  0  0  0  0  0  0  0  0  0  0
  -13.5522  -40.8975  -11.3158 C   0  0  0  0  0  0  0  0  0  0  0  0
  -12.5166  -40.5283  -12.1465 C   0  0  0  0  0  0  0  0  0  0  0  0
  -11.8676  -39.3583  -11.9005 C   0  0  0  0  0  0  0  0  0  0  0  0
  -12.2599  -38.5754  -10.8318 C   0  0  0  0  0  0  0  0  0  0  0  0
  -13.2666  -38.9460  -10.0318 N   0  0  0  0  0  0  0  0  0  0  0  0
  -12.1341  -41.4050  -13.2674 C   0  0  0  0  0  0  0  0  0  0  0  0
  -13.2737  -41.5311  -14.2738 C   0  0  0  0  0  0  0  0  0  0  0  0
  -11.8683  -42.8252  -12.7811 C   0  0  0  0  0  0  0  0  0  0  0  0
  -10.8777  -40.8811  -13.8935 C   0  0  0  0  0  0  0  0  0  0  0  0
  -20.2085  -39.1164   -8.5287 C   0  0  0  0  0  0  0  0  0  0  0  0
  -20.0220  -44.1694   -5.9632 N   0  0  0  0  0  0  0  0  0  0  0  0
  1  2  1  0
  2  3  2  0
  3  4  1  0
  4  5  2  0
  5  6  1  0
  6  7  1  0
  7  8  1  0
  8  9  1  0
  9 10  1  0
 10 11  1  0
 11 12  1  0
 12 13  1  0
 13 14  2  0
 14 15  1  0
 15 16  2  0
 16 17  1  0
 18 17  1  1
 18 19  1  0
 19 20  1  0
 20 21  2  0
 18 22  1  0
 22 23  1  1
 22 24  1  0
 24 25  1  0
 25 26  1  0
 26 27  1  0
 27 28  2  0
 28 29  1  0
 29 30  2  0
 30 31  1  0
 31 32  2  0
 29 33  1  0
 33 34  1  0
 33 35  1  0
 33 36  1  0
 16 37  1  0
  6 38  2  0
 20  4  1  0
 32 27  1  0
 37 12  2  0
 38  2  1  0
M  END
$$$$
