
     RDKit          3D

 38 41  0  0  0  0  0  0  0  0999 V2000
  -17.1298  -45.3356   -6.6306 C   0  0  0  0  0  0  0  0  0  0  0  0
  -18.1370  -44.4422   -7.2685 C   0  0  0  0  0  0  0  0  0  0  0  0
  -17.7918  -43.5749   -8.2844 C   0  0  0  0  0  0  0  0  0  0  0  0
  -18.7167  -42.7097   -8.9121 C   0  0  0  0  0  0  0  0  0  0  0  0
  -20.0348  -42.7162   -8.5076 C   0  0  0  0  0  0  0  0  0  0  0  0
  -20.3707  -43.5813   -7.4968 C   0  0  0  0  0  0  0  0  0  0  0  0
  -21.6077  -43.8692   -6.8229 N   0  0  0  0  0  0  0  0  0  0  0  0
  -22.5191  -43.0265   -6.1192 C   0  0  0  0  0  0  0  0  0  0  0  0
  -22.2785  -41.5874   -6.5898 C   0  0  0  0  0  0  0  0  0  0  0  0
  -23.2460  -41.2063   -7.6576 C   0  0  0  0  0  0  0  0  0  0  0  0
  -23.1190  -39.7645   -8.1052 C   0  0  0  0  0  0  0  0  0  0  0  0
  -21.7528  -39.1897   -7.9317 C   0  0  0  0  0  0  0  0  0  0  0  0
  -21.6641  -38.5170   -6.6876 C   0  0  0  0  0  0  0  0  0  0  0  0
  -20.5527  -37.8539   -6.2558 C   0  0  0  0  0  0  0  0  0  0  0  0
  -19.5008  -37.8848   -7.1345 C   0  0  0  0  0  0  0  0  0  0  0  0
  -19.5223  -38.5379   -8.3894 C   0  0  0  0  0  0  0  0  0  0  0  0
  -18.2392  -38.3386   -9.1070 C   0  0  0  0  0  0  0  0  0  0  0  0
  -17.3580  -39.5086   -9.3722 C   0  0  2  0  0  0  0  0  0  0  0  0
  -18.0092  -40.5191  -10.1812 N   0  0  0  0  0  0  0  0  0  0  0  0
  -18.0287  -41.9230   -9.9522 C   0  0  0  0  0  0  0  0  0  0  0  0
  -17.2932  -42.5754  -10.8445 O   0  0  0  0  0  0  0  0  0  0  0  0
  -16.7507  -40.0102   -8.1114 C   0  0  2  0  0  0  0  0  0  0  0  0
  -17.4710  -39.7063   -6.9894 O   0  0  0  0  0  0  0  0  0  0  0  0
  -15.2651  -39.9414   -8.0117 C   0  0  0  0  0  0  0  0  0  0  0  0
  -14.6171  -40.8608   -8.8765 N   0  0  0  0  0  0  0  0  0  0  0  0
  -14.8294  -40.4710  -10.2720 C   0  0  0  0  0  0  0  0  0  0  0  0
  -14.5984  -39.0140  -10.4563 C   0  0  0  0  0  0  0  0  0  0  0  0
  -13.6536  -38.6355  -11.3840 C   0  0  0  0  0  0  0  0  0  0  0  0
  -13.3913  -37.3003  -11.6012 C   0  0  0  0  0  0  0  0  0  0  0  0
  -14.0830  -36.3739  -10.8841 C   0  0  0  0  0  0  0  0  0  0  0  0
  -15.0241  -36.7920   -9.9629 C   0  0  0  0  0  0  0  0  0  0  0  0
  -15.2685  -38.0921   -9.7607 N   0  0  0  0  0  0  0  0  0  0  0  0
  -12.3713  -36.9098  -12.5903 C   0  0  0  0  0  0  0  0  0  0  0  0
  -11.0124  -37.5059  -12.2359 C   0  0  0  0  0  0  0  0  0  0  0  0
  -12.1608  -35.3999  -12.5879 C   0  0  0  0  0  0  0  0  0  0  0  0
  -12.8319  -37.3166  -13.9568 C   0  0  0  0  0  0  0  0  0  0  0  0
  -20.6655  -39.1926   -8.7740 C   0  0  0  0  0  0  0  0  0  0  0  0
  -19.4054  -44.4027   -6.9258 N   0  0  0  0  0  0  0  0  0  0  0  0
  1  2  1  0
  2  3  2  0
  3  4  1  0
  4  5  2  0
  5  6  1  0
  6  7  1  0
  7  8  1  0
  8  9  1  0
  9 10  1  0
 10 11  1  0
 11 12  1  0
 12 13  1  0
 13 14  2  0
 14 15  1  0
 15 16  2  0
 16 17  1  0
 18 17  1  1
 18 19  1  0
 19 20  1  0
 20 21  2  0
 18 22  1  0
 22 23  1  1
 22 24  1  0
 24 25  1  0
 25 26  1  0
 26 27  1  0
 27 28  2  0
 28 29  1  0
 29 30  2  0
 30 31  1  0
 31 32  2  0
 29 33  1  0
 33 34  1  0
 33 35  1  0
 33 36  1  0
 16 37  1  0
  6 38  2  0
 20  4  1  0
 32 27  1  0
 37 12  2  0
 38  2  1  0
M  END
$$$$
