
     RDKit          3D

 38 41  0  0  0  0  0  0  0  0999 V2000
  -15.9698  -44.9149   -8.1115 C   0  0  0  0  0  0  0  0  0  0  0  0
  -17.1281  -44.0806   -8.5377 C   0  0  0  0  0  0  0  0  0  0  0  0
  -16.9530  -42.9137   -9.2525 C   0  0  0  0  0  0  0  0  0  0  0  0
  -18.0252  -42.0936   -9.6719 C   0  0  0  0  0  0  0  0  0  0  0  0
  -19.3190  -42.4581   -9.3647 C   0  0  0  0  0  0  0  0  0  0  0  0
  -19.4855  -43.6198   -8.6535 C   0  0  0  0  0  0  0  0  0  0  0  0
  -20.6464  -44.3102   -8.1607 N   0  0  0  0  0  0  0  0  0  0  0  0
  -21.7082  -43.8843   -7.3080 C   0  0  0  0  0  0  0  0  0  0  0  0
  -21.7499  -42.3524   -7.3483 C   0  0  0  0  0  0  0  0  0  0  0  0
  -22.7674  -41.8717   -8.3258 C   0  0  0  0  0  0  0  0  0  0  0  0
  -22.9212  -40.3647   -8.3502 C   0  0  0  0  0  0  0  0  0  0  0  0
  -21.6940  -39.6194   -7.9433 C   0  0  0  0  0  0  0  0  0  0  0  0
  -21.7447  -39.3206   -6.5590 C   0  0  0  0  0  0  0  0  0  0  0  0
  -20.7861  -38.6122   -5.8952 C   0  0  0  0  0  0  0  0  0  0  0  0
  -19.7436  -38.1985   -6.6835 C   0  0  0  0  0  0  0  0  0  0  0  0
  -19.6306  -38.4633   -8.0688 C   0  0  0  0  0  0  0  0  0  0  0  0
  -18.4071  -37.8355   -8.6253 C   0  0  0  0  0  0  0  0  0  0  0  0
  -17.3135  -38.6988   -9.1493 C   0  0  2  0  0  0  0  0  0  0  0  0
  -17.7510  -39.5425  -10.2431 N   0  0  0  0  0  0  0  0  0  0  0  0
  -17.4979  -40.9322  -10.4115 C   0  0  0  0  0  0  0  0  0  0  0  0
  -16.6447  -41.1583  -11.4033 O   0  0  0  0  0  0  0  0  0  0  0  0
  -16.6269  -39.4140   -8.0415 C   0  0  2  0  0  0  0  0  0  0  0  0
  -17.3267  -39.4191   -6.8666 O   0  0  0  0  0  0  0  0  0  0  0  0
  -15.1475  -39.2527   -7.9574 C   0  0  0  0  0  0  0  0  0  0  0  0
  -14.6780  -38.1345   -8.6937 N   0  0  0  0  0  0  0  0  0  0  0  0
  -13.5727  -38.5371   -9.5658 C   0  0  0  0  0  0  0  0  0  0  0  0
  -13.4279  -37.5951  -10.7069 C   0  0  0  0  0  0  0  0  0  0  0  0
  -12.8034  -38.0657  -11.8406 C   0  0  0  0  0  0  0  0  0  0  0  0
  -12.6365  -37.2420  -12.9326 C   0  0  0  0  0  0  0  0  0  0  0  0
  -13.1006  -35.9650  -12.8643 C   0  0  0  0  0  0  0  0  0  0  0  0
  -13.7227  -35.5291  -11.7102 C   0  0  0  0  0  0  0  0  0  0  0  0
  -13.8775  -36.3389  -10.6561 N   0  0  0  0  0  0  0  0  0  0  0  0
  -11.9585  -37.7559  -14.1357 C   0  0  0  0  0  0  0  0  0  0  0  0
  -11.4540  -39.1781  -13.9111 C   0  0  0  0  0  0  0  0  0  0  0  0
  -10.7144  -36.9335  -14.4523 C   0  0  0  0  0  0  0  0  0  0  0  0
  -12.8924  -37.6614  -15.3035 C   0  0  0  0  0  0  0  0  0  0  0  0
  -20.6224  -39.1830   -8.6869 C   0  0  0  0  0  0  0  0  0  0  0  0
  -18.3819  -44.3752   -8.2742 N   0  0  0  0  0  0  0  0  0  0  0  0
  1  2  1  0
  2  3  2  0
  3  4  1  0
  4  5  2  0
  5  6  1  0
  6  7  1  0
  7  8  1  0
  8  9  1  0
  9 10  1  0
 10 11  1  0
 11 12  1  0
 12 13  1  0
 13 14  2  0
 14 15  1  0
 15 16  2  0
 16 17  1  0
 18 17  1  1
 18 19  1  0
 19 20  1  0
 20 21  2  0
 18 22  1  0
 22 23  1  1
 22 24  1  0
 24 25  1  0
 25 26  1  0
 26 27  1  0
 27 28  2  0
 28 29  1  0
 29 30  2  0
 30 31  1  0
 31 32  2  0
 29 33  1  0
 33 34  1  0
 33 35  1  0
 33 36  1  0
 16 37  1  0
  6 38  2  0
 20  4  1  0
 32 27  1  0
 37 12  2  0
 38  2  1  0
M  END
$$$$
