
     RDKit          3D

 38 41  0  0  0  0  0  0  0  0999 V2000
  -16.3777  -44.9201   -6.8667 C   0  0  0  0  0  0  0  0  0  0  0  0
  -17.5864  -44.1856   -7.3345 C   0  0  0  0  0  0  0  0  0  0  0  0
  -17.5827  -43.4649   -8.5110 C   0  0  0  0  0  0  0  0  0  0  0  0
  -18.7071  -42.7525   -8.9867 C   0  0  0  0  0  0  0  0  0  0  0  0
  -19.8771  -42.7651   -8.2573 C   0  0  0  0  0  0  0  0  0  0  0  0
  -19.8734  -43.4838   -7.0883 C   0  0  0  0  0  0  0  0  0  0  0  0
  -20.8733  -43.7296   -6.0849 N   0  0  0  0  0  0  0  0  0  0  0  0
  -21.6510  -42.8380   -5.2874 C   0  0  0  0  0  0  0  0  0  0  0  0
  -21.6625  -41.4759   -5.9908 C   0  0  0  0  0  0  0  0  0  0  0  0
  -22.8952  -41.3099   -6.8123 C   0  0  0  0  0  0  0  0  0  0  0  0
  -23.0108  -39.9476   -7.4647 C   0  0  0  0  0  0  0  0  0  0  0  0
  -21.7004  -39.2842   -7.7290 C   0  0  0  0  0  0  0  0  0  0  0  0
  -21.3640  -38.4281   -6.6511 C   0  0  0  0  0  0  0  0  0  0  0  0
  -20.2428  -37.6517   -6.6140 C   0  0  0  0  0  0  0  0  0  0  0  0
  -19.4444  -37.7610   -7.7231 C   0  0  0  0  0  0  0  0  0  0  0  0
  -19.7203  -38.5961   -8.8314 C   0  0  0  0  0  0  0  0  0  0  0  0
  -18.6790  -38.4421   -9.8769 C   0  0  0  0  0  0  0  0  0  0  0  0
  -17.7924  -39.5922  -10.2037 C   0  0  2  0  0  0  0  0  0  0  0  0
  -18.5332  -40.7450  -10.6748 N   0  0  0  0  0  0  0  0  0  0  0  0
  -18.3717  -42.0975  -10.2644 C   0  0  0  0  0  0  0  0  0  0  0  0
  -17.8272  -42.8386  -11.2221 O   0  0  0  0  0  0  0  0  0  0  0  0
  -16.8485  -39.8665   -9.0883 C   0  0  2  0  0  0  0  0  0  0  0  0
  -17.3515  -39.5728   -7.8510 O   0  0  0  0  0  0  0  0  0  0  0  0
  -15.4123  -39.5540   -9.3362 C   0  0  0  0  0  0  0  0  0  0  0  0
  -14.7390  -40.5944  -10.0269 N   0  0  0  0  0  0  0  0  0  0  0  0
  -14.8872  -40.4139  -11.4725 C   0  0  0  0  0  0  0  0  0  0  0  0
  -15.1826  -38.9946  -11.8018 C   0  0  0  0  0  0  0  0  0  0  0  0
  -14.2499  -38.0516  -11.4311 C   0  0  0  0  0  0  0  0  0  0  0  0
  -14.4647  -36.7185  -11.7060 C   0  0  0  0  0  0  0  0  0  0  0  0
  -15.6096  -36.3605  -12.3477 C   0  0  0  0  0  0  0  0  0  0  0  0
  -16.5216  -37.3351  -12.7048 C   0  0  0  0  0  0  0  0  0  0  0  0
  -16.3014  -38.6263  -12.4308 N   0  0  0  0  0  0  0  0  0  0  0  0
  -13.4624  -35.7194  -11.2955 C   0  0  0  0  0  0  0  0  0  0  0  0
  -12.0620  -36.1434  -11.7274 C   0  0  0  0  0  0  0  0  0  0  0  0
  -13.3975  -35.6061   -9.7766 C   0  0  0  0  0  0  0  0  0  0  0  0
  -13.8478  -34.3816  -11.8493 C   0  0  0  0  0  0  0  0  0  0  0  0
  -20.8612  -39.3586   -8.8162 C   0  0  0  0  0  0  0  0  0  0  0  0
  -18.7280  -44.1595   -6.6832 N   0  0  0  0  0  0  0  0  0  0  0  0
  1  2  1  0
  2  3  2  0
  3  4  1  0
  4  5  2  0
  5  6  1  0
  6  7  1  0
  7  8  1  0
  8  9  1  0
  9 10  1  0
 10 11  1  0
 11 12  1  0
 12 13  1  0
 13 14  2  0
 14 15  1  0
 15 16  2  0
 16 17  1  0
 18 17  1  1
 18 19  1  0
 19 20  1  0
 20 21  2  0
 18 22  1  0
 22 23  1  1
 22 24  1  0
 24 25  1  0
 25 26  1  0
 26 27  1  0
 27 28  2  0
 28 29  1  0
 29 30  2  0
 30 31  1  0
 31 32  2  0
 29 33  1  0
 33 34  1  0
 33 35  1  0
 33 36  1  0
 16 37  1  0
  6 38  2  0
 20  4  1  0
 32 27  1  0
 37 12  2  0
 38  2  1  0
M  END
$$$$
