
     RDKit          3D

 43 47  0  0  0  0  0  0  0  0999 V2000
  -17.3974  -35.6602  -10.1262 C   0  0  0  0  0  0  0  0  0  0  0  0
  -18.4885  -36.5578   -9.5880 C   0  0  2  0  0  0  0  0  0  0  0  0
  -19.7054  -35.6462   -9.3872 C   0  0  0  0  0  0  0  0  0  0  0  0
  -20.7256  -35.9065  -10.4700 C   0  0  0  0  0  0  0  0  0  0  0  0
  -22.1389  -35.9604   -9.9077 C   0  0  0  0  0  0  0  0  0  0  0  0
  -22.2361  -37.2861   -9.1882 C   0  0  0  0  0  0  0  0  0  0  0  0
  -23.5836  -37.4898   -8.5815 C   0  0  0  0  0  0  0  0  0  0  0  0
  -23.6216  -38.6681   -7.6339 C   0  0  0  0  0  0  0  0  0  0  0  0
  -23.9057  -39.9671   -8.3519 C   0  0  0  0  0  0  0  0  0  0  0  0
  -23.0072  -41.0355   -7.9592 N   0  0  0  0  0  0  0  0  0  0  0  0
  -21.7712  -41.0424   -7.2455 C   0  0  0  0  0  0  0  0  0  0  0  0
  -21.7894  -42.1153   -6.3135 C   0  0  0  0  0  0  0  0  0  0  0  0
  -20.7555  -42.4103   -5.4703 C   0  0  0  0  0  0  0  0  0  0  0  0
  -19.6720  -41.5888   -5.5807 C   0  0  0  0  0  0  0  0  0  0  0  0
  -19.5765  -40.4950   -6.4893 C   0  0  0  0  0  0  0  0  0  0  0  0
  -20.6519  -40.2395   -7.3202 C   0  0  0  0  0  0  0  0  0  0  0  0
  -18.2826  -39.8331   -6.3281 C   0  0  0  0  0  0  0  0  0  0  0  0
  -17.8096  -39.6887   -5.0927 O   0  0  0  0  0  0  0  0  0  0  0  0
  -17.3329  -39.2679   -7.2079 N   0  0  0  0  0  0  0  0  0  0  0  0
  -17.6186  -38.6102   -8.4796 C   0  0  1  0  0  0  0  0  0  0  0  0
  -18.1097  -37.2242   -8.2815 C   0  0  0  0  0  0  0  0  0  0  0  0
  -16.5190  -38.8374   -9.4441 C   0  0  2  0  0  0  0  0  0  0  0  0
  -17.1706  -38.8382  -10.7330 O   0  0  0  0  0  0  0  0  0  0  0  0
  -15.7793  -40.1155   -9.4161 C   0  0  0  0  0  0  0  0  0  0  0  0
  -15.8511  -40.9132   -8.2413 N   0  0  0  0  0  0  0  0  0  0  0  0
  -15.4145  -42.3006   -8.5226 C   0  0  0  0  0  0  0  0  0  0  0  0
  -16.5553  -43.3268   -8.6743 C   0  0  0  0  0  0  0  0  0  0  0  0
  -15.6599  -43.3364   -7.4906 C   0  0  0  0  0  0  0  0  0  0  0  0
  -14.2113  -42.4943   -9.3678 C   0  0  0  0  0  0  0  0  0  0  0  0
  -13.1279  -41.6423   -9.3879 C   0  0  0  0  0  0  0  0  0  0  0  0
  -12.0308  -41.8855  -10.2013 C   0  0  0  0  0  0  0  0  0  0  0  0
  -12.0156  -43.0062  -11.0136 C   0  0  0  0  0  0  0  0  0  0  0  0
  -13.1119  -43.8342  -10.9688 C   0  0  0  0  0  0  0  0  0  0  0  0
  -14.1619  -43.5727  -10.1699 N   0  0  0  0  0  0  0  0  0  0  0  0
  -10.8931  -40.9620  -10.2088 C   0  0  0  0  0  0  0  0  0  0  0  0
  -11.3151  -39.5786   -9.8107 C   0  0  0  0  0  0  0  0  0  0  0  0
   -9.8580  -41.4068   -9.1753 C   0  0  0  0  0  0  0  0  0  0  0  0
  -10.1735  -40.9057  -11.5327 C   0  0  0  0  0  0  0  0  0  0  0  0
  -20.8072  -43.5157   -4.5267 C   0  0  0  0  0  0  0  0  0  0  0  0
  -20.5157  -43.4033   -3.2229 N   0  0  0  0  0  0  0  0  0  0  0  0
  -20.6664  -44.6278   -2.6336 C   0  0  0  0  0  0  0  0  0  0  0  0
  -21.0600  -45.4599   -3.6568 C   0  0  0  0  0  0  0  0  0  0  0  0
  -21.1239  -44.7538   -4.7342 O   0  0  0  0  0  0  0  0  0  0  0  0
  2  1  1  1
  2  3  1  0
  3  4  1  0
  4  5  1  0
  5  6  1  0
  6  7  1  0
  7  8  1  0
  8  9  1  0
  9 10  1  0
 10 11  1  0
 11 12  1  0
 12 13  2  0
 13 14  1  0
 14 15  2  0
 15 16  1  0
 15 17  1  0
 17 18  2  0
 17 19  1  0
 19 20  1  0
 20 21  1  1
 20 22  1  0
 22 23  1  6
 22 24  1  0
 24 25  1  0
 25 26  1  0
 26 27  1  0
 27 28  1  0
 26 29  1  0
 29 30  2  0
 30 31  1  0
 31 32  2  0
 32 33  1  0
 33 34  2  0
 31 35  1  0
 35 36  1  0
 35 37  1  0
 35 38  1  0
 13 39  1  0
 39 40  2  0
 40 41  1  0
 41 42  2  0
 42 43  1  0
 16 11  2  0
 21  2  1  0
 28 26  1  0
 34 29  1  0
 43 39  1  0
M  END
$$$$
