
     RDKit          3D

 43 47  0  0  0  0  0  0  0  0999 V2000
  -19.2784  -37.8257  -11.4008 C   0  0  0  0  0  0  0  0  0  0  0  0
  -20.0559  -38.4420  -10.2600 C   0  0  2  0  0  0  0  0  0  0  0  0
  -21.3557  -37.6333  -10.1677 C   0  0  0  0  0  0  0  0  0  0  0  0
  -22.5046  -38.4440  -10.7189 C   0  0  0  0  0  0  0  0  0  0  0  0
  -23.7434  -38.3297   -9.8420 C   0  0  0  0  0  0  0  0  0  0  0  0
  -23.4491  -39.1660   -8.6178 C   0  0  0  0  0  0  0  0  0  0  0  0
  -24.5880  -39.1579   -7.6543 C   0  0  0  0  0  0  0  0  0  0  0  0
  -24.2187  -39.7531   -6.3138 C   0  0  0  0  0  0  0  0  0  0  0  0
  -24.3947  -41.2538   -6.2894 C   0  0  0  0  0  0  0  0  0  0  0  0
  -23.2545  -41.9450   -5.7192 N   0  0  0  0  0  0  0  0  0  0  0  0
  -21.9219  -41.5270   -5.4252 C   0  0  0  0  0  0  0  0  0  0  0  0
  -21.5561  -42.0354   -4.1493 C   0  0  0  0  0  0  0  0  0  0  0  0
  -20.3391  -41.8249   -3.5651 C   0  0  0  0  0  0  0  0  0  0  0  0
  -19.4698  -41.0754   -4.3025 C   0  0  0  0  0  0  0  0  0  0  0  0
  -19.7605  -40.5321   -5.5876 C   0  0  0  0  0  0  0  0  0  0  0  0
  -21.0078  -40.7746   -6.1332 C   0  0  0  0  0  0  0  0  0  0  0  0
  -18.6054  -39.7805   -6.0766 C   0  0  0  0  0  0  0  0  0  0  0  0
  -17.9315  -39.0396   -5.2002 O   0  0  0  0  0  0  0  0  0  0  0  0
  -17.9704  -39.6272   -7.3290 N   0  0  0  0  0  0  0  0  0  0  0  0
  -18.6193  -39.6656   -8.6362 C   0  0  1  0  0  0  0  0  0  0  0  0
  -19.3087  -38.3882   -8.9434 C   0  0  0  0  0  0  0  0  0  0  0  0
  -17.7105  -40.2387   -9.6543 C   0  0  2  0  0  0  0  0  0  0  0  0
  -17.5500  -41.6167   -9.2529 O   0  0  0  0  0  0  0  0  0  0  0  0
  -16.3267  -39.7336   -9.7610 C   0  0  0  0  0  0  0  0  0  0  0  0
  -15.5579  -39.6101   -8.5714 N   0  0  0  0  0  0  0  0  0  0  0  0
  -14.1295  -39.3828   -8.8918 C   0  0  0  0  0  0  0  0  0  0  0  0
  -13.2053  -40.5937   -8.6529 C   0  0  0  0  0  0  0  0  0  0  0  0
  -13.1499  -39.3952   -7.7790 C   0  0  0  0  0  0  0  0  0  0  0  0
  -13.8049  -38.4975  -10.0366 C   0  0  0  0  0  0  0  0  0  0  0  0
  -14.3751  -37.2611  -10.2515 C   0  0  0  0  0  0  0  0  0  0  0  0
  -14.0223  -36.4811  -11.3430 C   0  0  0  0  0  0  0  0  0  0  0  0
  -13.0775  -36.9472  -12.2409 C   0  0  0  0  0  0  0  0  0  0  0  0
  -12.5291  -38.1837  -11.9964 C   0  0  0  0  0  0  0  0  0  0  0  0
  -12.8910  -38.9179  -10.9292 N   0  0  0  0  0  0  0  0  0  0  0  0
  -14.6466  -35.1720  -11.5528 C   0  0  0  0  0  0  0  0  0  0  0  0
  -14.9214  -34.9293  -13.0073 C   0  0  0  0  0  0  0  0  0  0  0  0
  -16.0026  -35.1260  -10.8482 C   0  0  0  0  0  0  0  0  0  0  0  0
  -13.8403  -34.0257  -10.9963 C   0  0  0  0  0  0  0  0  0  0  0  0
  -19.9973  -42.3587   -2.2562 C   0  0  0  0  0  0  0  0  0  0  0  0
  -18.9412  -41.9572   -1.5345 N   0  0  0  0  0  0  0  0  0  0  0  0
  -18.9181  -42.6617   -0.3630 C   0  0  0  0  0  0  0  0  0  0  0  0
  -20.0119  -43.4938   -0.4363 C   0  0  0  0  0  0  0  0  0  0  0  0
  -20.6000  -43.2705   -1.5622 O   0  0  0  0  0  0  0  0  0  0  0  0
  2  1  1  6
  2  3  1  0
  3  4  1  0
  4  5  1  0
  5  6  1  0
  6  7  1  0
  7  8  1  0
  8  9  1  0
  9 10  1  0
 10 11  1  0
 11 12  1  0
 12 13  2  0
 13 14  1  0
 14 15  2  0
 15 16  1  0
 15 17  1  0
 17 18  2  0
 17 19  1  0
 19 20  1  0
 20 21  1  6
 20 22  1  0
 22 23  1  1
 22 24  1  0
 24 25  1  0
 25 26  1  0
 26 27  1  0
 27 28  1  0
 26 29  1  0
 29 30  2  0
 30 31  1  0
 31 32  2  0
 32 33  1  0
 33 34  2  0
 31 35  1  0
 35 36  1  0
 35 37  1  0
 35 38  1  0
 13 39  1  0
 39 40  2  0
 40 41  1  0
 41 42  2  0
 42 43  1  0
 16 11  2  0
 21  2  1  0
 28 26  1  0
 34 29  1  0
 43 39  1  0
M  END
$$$$
