
     RDKit          3D

 43 47  0  0  0  0  0  0  0  0999 V2000
  -18.7833  -36.6437   -6.6574 C   0  0  0  0  0  0  0  0  0  0  0  0
  -19.5236  -37.9600   -6.5864 C   0  0  2  0  0  0  0  0  0  0  0  0
  -20.5129  -37.8101   -5.4241 C   0  0  0  0  0  0  0  0  0  0  0  0
  -21.9130  -37.6321   -5.9619 C   0  0  0  0  0  0  0  0  0  0  0  0
  -22.9233  -38.4599   -5.1805 C   0  0  0  0  0  0  0  0  0  0  0  0
  -22.6979  -39.8890   -5.6180 C   0  0  0  0  0  0  0  0  0  0  0  0
  -23.6307  -40.8314   -4.9345 C   0  0  0  0  0  0  0  0  0  0  0  0
  -23.2486  -42.2799   -5.1431 C   0  0  0  0  0  0  0  0  0  0  0  0
  -23.8358  -42.8460   -6.4153 C   0  0  0  0  0  0  0  0  0  0  0  0
  -22.8655  -43.5786   -7.2057 N   0  0  0  0  0  0  0  0  0  0  0  0
  -21.4407  -43.6495   -7.1600 C   0  0  0  0  0  0  0  0  0  0  0  0
  -21.0471  -45.0068   -7.3113 C   0  0  0  0  0  0  0  0  0  0  0  0
  -19.7471  -45.4273   -7.3187 C   0  0  0  0  0  0  0  0  0  0  0  0
  -18.8219  -44.4360   -7.1683 C   0  0  0  0  0  0  0  0  0  0  0  0
  -19.1358  -43.0546   -7.0127 C   0  0  0  0  0  0  0  0  0  0  0  0
  -20.4678  -42.6829   -7.0116 C   0  0  0  0  0  0  0  0  0  0  0  0
  -17.9021  -42.2829   -6.8698 C   0  0  0  0  0  0  0  0  0  0  0  0
  -16.9232  -42.8085   -6.1373 O   0  0  0  0  0  0  0  0  0  0  0  0
  -17.4443  -41.0336   -7.3443 N   0  0  0  0  0  0  0  0  0  0  0  0
  -18.2654  -39.8540   -7.6002 C   0  0  1  0  0  0  0  0  0  0  0  0
  -18.6036  -39.1390   -6.3449 C   0  0  0  0  0  0  0  0  0  0  0  0
  -17.7184  -39.0718   -8.7315 C   0  0  2  0  0  0  0  0  0  0  0  0
  -18.7306  -39.1730   -9.7567 O   0  0  0  0  0  0  0  0  0  0  0  0
  -16.4836  -39.5277   -9.4014 C   0  0  0  0  0  0  0  0  0  0  0  0
  -15.3160  -39.7166   -8.6123 N   0  0  0  0  0  0  0  0  0  0  0  0
  -14.2411  -40.3508   -9.4105 C   0  0  0  0  0  0  0  0  0  0  0  0
  -12.8342  -40.2829   -8.7830 C   0  0  0  0  0  0  0  0  0  0  0  0
  -13.1850  -39.4812   -9.9819 C   0  0  0  0  0  0  0  0  0  0  0  0
  -14.5777  -41.5665  -10.1905 C   0  0  0  0  0  0  0  0  0  0  0  0
  -14.7970  -42.8103   -9.6386 C   0  0  0  0  0  0  0  0  0  0  0  0
  -15.1126  -43.9069  -10.4275 C   0  0  0  0  0  0  0  0  0  0  0  0
  -15.2115  -43.7572  -11.8000 C   0  0  0  0  0  0  0  0  0  0  0  0
  -14.9867  -42.5035  -12.3170 C   0  0  0  0  0  0  0  0  0  0  0  0
  -14.6822  -41.4585  -11.5270 N   0  0  0  0  0  0  0  0  0  0  0  0
  -15.3362  -45.2204   -9.8176 C   0  0  0  0  0  0  0  0  0  0  0  0
  -16.5441  -45.2067   -8.9283 C   0  0  0  0  0  0  0  0  0  0  0  0
  -15.6191  -46.2557  -10.9064 C   0  0  0  0  0  0  0  0  0  0  0  0
  -14.1485  -45.7333   -9.0429 C   0  0  0  0  0  0  0  0  0  0  0  0
  -19.3785  -46.8255   -7.4743 C   0  0  0  0  0  0  0  0  0  0  0  0
  -20.1883  -47.7621   -7.9883 N   0  0  0  0  0  0  0  0  0  0  0  0
  -19.5282  -48.9595   -7.9881 C   0  0  0  0  0  0  0  0  0  0  0  0
  -18.2941  -48.6759   -7.4489 C   0  0  0  0  0  0  0  0  0  0  0  0
  -18.2678  -47.4170   -7.1698 O   0  0  0  0  0  0  0  0  0  0  0  0
  2  1  1  1
  2  3  1  0
  3  4  1  0
  4  5  1  0
  5  6  1  0
  6  7  1  0
  7  8  1  0
  8  9  1  0
  9 10  1  0
 10 11  1  0
 11 12  1  0
 12 13  2  0
 13 14  1  0
 14 15  2  0
 15 16  1  0
 15 17  1  0
 17 18  2  0
 17 19  1  0
 19 20  1  0
 20 21  1  1
 20 22  1  0
 22 23  1  6
 22 24  1  0
 24 25  1  0
 25 26  1  0
 26 27  1  0
 27 28  1  0
 26 29  1  0
 29 30  2  0
 30 31  1  0
 31 32  2  0
 32 33  1  0
 33 34  2  0
 31 35  1  0
 35 36  1  0
 35 37  1  0
 35 38  1  0
 13 39  1  0
 39 40  2  0
 40 41  1  0
 41 42  2  0
 42 43  1  0
 16 11  2  0
 21  2  1  0
 28 26  1  0
 34 29  1  0
 43 39  1  0
M  END
$$$$
