
     RDKit          3D

 43 47  0  0  0  0  0  0  0  0999 V2000
  -14.8236  -36.8038   -9.0194 C   0  0  0  0  0  0  0  0  0  0  0  0
  -16.0462  -37.3117   -9.7496 C   0  0  2  0  0  0  0  0  0  0  0  0
  -16.1993  -36.3997  -10.9731 C   0  0  0  0  0  0  0  0  0  0  0  0
  -15.7730  -37.1381  -12.2198 C   0  0  0  0  0  0  0  0  0  0  0  0
  -16.7343  -36.8920  -13.3738 C   0  0  0  0  0  0  0  0  0  0  0  0
  -17.9694  -37.7005  -13.0489 C   0  0  0  0  0  0  0  0  0  0  0  0
  -19.0142  -37.5647  -14.1049 C   0  0  0  0  0  0  0  0  0  0  0  0
  -20.3487  -38.1344  -13.6779 C   0  0  0  0  0  0  0  0  0  0  0  0
  -20.4538  -39.6144  -13.9647 C   0  0  0  0  0  0  0  0  0  0  0  0
  -20.9673  -40.3708  -12.8390 N   0  0  0  0  0  0  0  0  0  0  0  0
  -21.1414  -40.0483  -11.4596 C   0  0  0  0  0  0  0  0  0  0  0  0
  -22.4079  -40.5337  -11.0346 C   0  0  0  0  0  0  0  0  0  0  0  0
  -22.8890  -40.3974   -9.7631 C   0  0  0  0  0  0  0  0  0  0  0  0
  -22.0554  -39.7484   -8.9000 C   0  0  0  0  0  0  0  0  0  0  0  0
  -20.7726  -39.2343   -9.2484 C   0  0  0  0  0  0  0  0  0  0  0  0
  -20.3337  -39.3987  -10.5494 C   0  0  0  0  0  0  0  0  0  0  0  0
  -20.1650  -38.5961   -8.0815 C   0  0  0  0  0  0  0  0  0  0  0  0
  -20.9540  -37.8772   -7.2868 O   0  0  0  0  0  0  0  0  0  0  0  0
  -18.8627  -38.5425   -7.5368 N   0  0  0  0  0  0  0  0  0  0  0  0
  -17.6110  -38.5806   -8.2871 C   0  0  1  0  0  0  0  0  0  0  0  0
  -17.2992  -37.2657   -8.8997 C   0  0  0  0  0  0  0  0  0  0  0  0
  -16.5544  -39.2631   -7.5069 C   0  0  2  0  0  0  0  0  0  0  0  0
  -16.1702  -40.3841   -8.3324 O   0  0  0  0  0  0  0  0  0  0  0  0
  -16.8917  -39.8756   -6.2059 C   0  0  0  0  0  0  0  0  0  0  0  0
  -18.1016  -39.4867   -5.5685 N   0  0  0  0  0  0  0  0  0  0  0  0
  -18.9833  -40.6586   -5.3583 C   0  0  0  0  0  0  0  0  0  0  0  0
  -18.7834  -41.8147   -6.3588 C   0  0  0  0  0  0  0  0  0  0  0  0
  -20.0006  -40.9659   -6.3921 C   0  0  0  0  0  0  0  0  0  0  0  0
  -19.3391  -41.0215   -3.9650 C   0  0  0  0  0  0  0  0  0  0  0  0
  -19.8437  -40.1386   -3.0346 C   0  0  0  0  0  0  0  0  0  0  0  0
  -20.1596  -40.5462   -1.7467 C   0  0  0  0  0  0  0  0  0  0  0  0
  -19.9671  -41.8669   -1.3800 C   0  0  0  0  0  0  0  0  0  0  0  0
  -19.4625  -42.7203   -2.3322 C   0  0  0  0  0  0  0  0  0  0  0  0
  -19.1651  -42.2963   -3.5734 N   0  0  0  0  0  0  0  0  0  0  0  0
  -20.6900  -39.5874   -0.7738 C   0  0  0  0  0  0  0  0  0  0  0  0
  -20.6080  -40.1301    0.6222 C   0  0  0  0  0  0  0  0  0  0  0  0
  -19.8441  -38.3139   -0.7875 C   0  0  0  0  0  0  0  0  0  0  0  0
  -22.1065  -39.1588   -1.0632 C   0  0  0  0  0  0  0  0  0  0  0  0
  -24.1913  -40.9050   -9.3613 C   0  0  0  0  0  0  0  0  0  0  0  0
  -24.7617  -42.0017   -9.8803 N   0  0  0  0  0  0  0  0  0  0  0  0
  -25.9753  -42.1900   -9.2793 C   0  0  0  0  0  0  0  0  0  0  0  0
  -26.0852  -41.1498   -8.3847 C   0  0  0  0  0  0  0  0  0  0  0  0
  -25.0150  -40.4362   -8.4794 O   0  0  0  0  0  0  0  0  0  0  0  0
  2  1  1  1
  2  3  1  0
  3  4  1  0
  4  5  1  0
  5  6  1  0
  6  7  1  0
  7  8  1  0
  8  9  1  0
  9 10  1  0
 10 11  1  0
 11 12  1  0
 12 13  2  0
 13 14  1  0
 14 15  2  0
 15 16  1  0
 15 17  1  0
 17 18  2  0
 17 19  1  0
 19 20  1  0
 20 21  1  1
 20 22  1  0
 22 23  1  6
 22 24  1  0
 24 25  1  0
 25 26  1  0
 26 27  1  0
 27 28  1  0
 26 29  1  0
 29 30  2  0
 30 31  1  0
 31 32  2  0
 32 33  1  0
 33 34  2  0
 31 35  1  0
 35 36  1  0
 35 37  1  0
 35 38  1  0
 13 39  1  0
 39 40  2  0
 40 41  1  0
 41 42  2  0
 42 43  1  0
 16 11  2  0
 21  2  1  0
 28 26  1  0
 34 29  1  0
 43 39  1  0
M  END
$$$$
