
     RDKit          3D

 43 47  0  0  0  0  0  0  0  0999 V2000
  -19.0339  -37.1968   -5.2474 C   0  0  0  0  0  0  0  0  0  0  0  0
  -19.6236  -38.4953   -5.7494 C   0  0  2  0  0  0  0  0  0  0  0  0
  -20.9425  -38.6670   -4.9858 C   0  0  0  0  0  0  0  0  0  0  0  0
  -22.1073  -38.3726   -5.9010 C   0  0  0  0  0  0  0  0  0  0  0  0
  -23.2272  -39.3887   -5.7282 C   0  0  0  0  0  0  0  0  0  0  0  0
  -22.7331  -40.6508   -6.3972 C   0  0  0  0  0  0  0  0  0  0  0  0
  -23.7373  -41.7509   -6.3153 C   0  0  0  0  0  0  0  0  0  0  0  0
  -23.1669  -43.0895   -6.7282 C   0  0  0  0  0  0  0  0  0  0  0  0
  -23.2570  -43.3109   -8.2203 C   0  0  0  0  0  0  0  0  0  0  0  0
  -22.0172  -43.7990   -8.7928 N   0  0  0  0  0  0  0  0  0  0  0  0
  -20.6824  -43.8611   -8.2914 C   0  0  0  0  0  0  0  0  0  0  0  0
  -20.1284  -45.1265   -8.6261 C   0  0  0  0  0  0  0  0  0  0  0  0
  -18.8595  -45.5137   -8.2995 C   0  0  0  0  0  0  0  0  0  0  0  0
  -18.1342  -44.5845   -7.6128 C   0  0  0  0  0  0  0  0  0  0  0  0
  -18.6167  -43.2959   -7.2416 C   0  0  0  0  0  0  0  0  0  0  0  0
  -19.9090  -42.9545   -7.5965 C   0  0  0  0  0  0  0  0  0  0  0  0
  -17.5765  -42.5726   -6.5116 C   0  0  0  0  0  0  0  0  0  0  0  0
  -16.8364  -43.2589   -5.6442 O   0  0  0  0  0  0  0  0  0  0  0  0
  -17.1172  -41.2370   -6.4879 N   0  0  0  0  0  0  0  0  0  0  0  0
  -17.9260  -40.0421   -6.7101 C   0  0  1  0  0  0  0  0  0  0  0  0
  -18.7172  -39.6845   -5.5070 C   0  0  0  0  0  0  0  0  0  0  0  0
  -17.1261  -38.9845   -7.3679 C   0  0  2  0  0  0  0  0  0  0  0  0
  -17.8737  -38.6629   -8.5610 O   0  0  0  0  0  0  0  0  0  0  0  0
  -15.7728  -39.3007   -7.8677 C   0  0  0  0  0  0  0  0  0  0  0  0
  -15.4247  -40.6657   -8.0605 N   0  0  0  0  0  0  0  0  0  0  0  0
  -14.3675  -40.7965   -9.0901 C   0  0  0  0  0  0  0  0  0  0  0  0
  -13.8903  -42.2382   -9.3575 C   0  0  0  0  0  0  0  0  0  0  0  0
  -13.0237  -41.2539   -8.6621 C   0  0  0  0  0  0  0  0  0  0  0  0
  -14.4030  -39.8685  -10.2464 C   0  0  0  0  0  0  0  0  0  0  0  0
  -15.4024  -38.9475  -10.4759 C   0  0  0  0  0  0  0  0  0  0  0  0
  -15.3717  -38.1053  -11.5778 C   0  0  0  0  0  0  0  0  0  0  0  0
  -14.3175  -38.1851  -12.4714 C   0  0  0  0  0  0  0  0  0  0  0  0
  -13.3383  -39.1144  -12.2124 C   0  0  0  0  0  0  0  0  0  0  0  0
  -13.3949  -39.9180  -11.1354 N   0  0  0  0  0  0  0  0  0  0  0  0
  -16.4489  -37.1377  -11.8029 C   0  0  0  0  0  0  0  0  0  0  0  0
  -15.9799  -35.7356  -11.5494 C   0  0  0  0  0  0  0  0  0  0  0  0
  -16.8884  -37.1831  -13.2665 C   0  0  0  0  0  0  0  0  0  0  0  0
  -17.6831  -37.4104  -10.9807 C   0  0  0  0  0  0  0  0  0  0  0  0
  -18.3238  -46.8178   -8.6565 C   0  0  0  0  0  0  0  0  0  0  0  0
  -19.0585  -47.8169   -9.1658 N   0  0  0  0  0  0  0  0  0  0  0  0
  -18.2433  -48.8928   -9.3835 C   0  0  0  0  0  0  0  0  0  0  0  0
  -16.9975  -48.4729   -8.9764 C   0  0  0  0  0  0  0  0  0  0  0  0
  -17.1091  -47.2561   -8.5634 O   0  0  0  0  0  0  0  0  0  0  0  0
  2  1  1  1
  2  3  1  0
  3  4  1  0
  4  5  1  0
  5  6  1  0
  6  7  1  0
  7  8  1  0
  8  9  1  0
  9 10  1  0
 10 11  1  0
 11 12  1  0
 12 13  2  0
 13 14  1  0
 14 15  2  0
 15 16  1  0
 15 17  1  0
 17 18  2  0
 17 19  1  0
 19 20  1  0
 20 21  1  1
 20 22  1  0
 22 23  1  6
 22 24  1  0
 24 25  1  0
 25 26  1  0
 26 27  1  0
 27 28  1  0
 26 29  1  0
 29 30  2  0
 30 31  1  0
 31 32  2  0
 32 33  1  0
 33 34  2  0
 31 35  1  0
 35 36  1  0
 35 37  1  0
 35 38  1  0
 13 39  1  0
 39 40  2  0
 40 41  1  0
 41 42  2  0
 42 43  1  0
 16 11  2  0
 21  2  1  0
 28 26  1  0
 34 29  1  0
 43 39  1  0
M  END
$$$$
