
     RDKit          3D

 43 47  0  0  0  0  0  0  0  0999 V2000
  -12.6906  -40.6707   -9.3636 C   0  0  0  0  0  0  0  0  0  0  0  0
  -13.8455  -41.6312   -9.1916 C   0  0  2  0  0  0  0  0  0  0  0  0
  -13.3660  -42.9582   -9.7926 C   0  0  0  0  0  0  0  0  0  0  0  0
  -13.0487  -43.9372   -8.6872 C   0  0  0  0  0  0  0  0  0  0  0  0
  -13.5769  -45.3294   -9.0022 C   0  0  0  0  0  0  0  0  0  0  0  0
  -15.0730  -45.2474   -8.8030 C   0  0  0  0  0  0  0  0  0  0  0  0
  -15.7402  -46.5544   -9.0717 C   0  0  0  0  0  0  0  0  0  0  0  0
  -17.2459  -46.4328   -9.1475 C   0  0  0  0  0  0  0  0  0  0  0  0
  -17.8951  -46.5430   -7.7873 C   0  0  0  0  0  0  0  0  0  0  0  0
  -18.8841  -45.5092   -7.5503 N   0  0  0  0  0  0  0  0  0  0  0  0
  -19.1748  -44.2817   -8.2180 C   0  0  0  0  0  0  0  0  0  0  0  0
  -20.5848  -44.1546   -8.3442 C   0  0  0  0  0  0  0  0  0  0  0  0
  -21.2045  -43.0886   -8.9329 C   0  0  0  0  0  0  0  0  0  0  0  0
  -20.3632  -42.1245   -9.4059 C   0  0  0  0  0  0  0  0  0  0  0  0
  -18.9417  -42.1777   -9.3167 C   0  0  0  0  0  0  0  0  0  0  0  0
  -18.3655  -43.2796   -8.7116 C   0  0  0  0  0  0  0  0  0  0  0  0
  -18.3652  -40.9832   -9.9322 C   0  0  0  0  0  0  0  0  0  0  0  0
  -18.9249  -40.5308  -11.0516 O   0  0  0  0  0  0  0  0  0  0  0  0
  -17.2911  -40.1193   -9.6233 N   0  0  0  0  0  0  0  0  0  0  0  0
  -16.0471  -40.4930   -8.9569 C   0  0  1  0  0  0  0  0  0  0  0  0
  -15.1068  -41.1639   -9.8881 C   0  0  0  0  0  0  0  0  0  0  0  0
  -15.5416  -39.3752   -8.1286 C   0  0  2  0  0  0  0  0  0  0  0  0
  -15.5198  -39.9082   -6.7865 O   0  0  0  0  0  0  0  0  0  0  0  0
  -16.3406  -38.1387   -8.0098 C   0  0  0  0  0  0  0  0  0  0  0  0
  -17.6038  -38.2092   -7.3611 N   0  0  0  0  0  0  0  0  0  0  0  0
  -18.6877  -37.7846   -8.2773 C   0  0  0  0  0  0  0  0  0  0  0  0
  -20.0616  -37.5719   -7.6103 C   0  0  0  0  0  0  0  0  0  0  0  0
  -19.8121  -38.7210   -8.5160 C   0  0  0  0  0  0  0  0  0  0  0  0
  -18.3353  -36.8878   -9.4048 C   0  0  0  0  0  0  0  0  0  0  0  0
  -17.0911  -36.8308   -9.9953 C   0  0  0  0  0  0  0  0  0  0  0  0
  -16.8298  -35.9698  -11.0511 C   0  0  0  0  0  0  0  0  0  0  0  0
  -17.8351  -35.1466  -11.5284 C   0  0  0  0  0  0  0  0  0  0  0  0
  -19.0634  -35.2292  -10.9167 C   0  0  0  0  0  0  0  0  0  0  0  0
  -19.2874  -36.0738   -9.8943 N   0  0  0  0  0  0  0  0  0  0  0  0
  -15.4972  -35.9237  -11.6590 C   0  0  0  0  0  0  0  0  0  0  0  0
  -14.4330  -35.7363  -10.6186 C   0  0  0  0  0  0  0  0  0  0  0  0
  -15.1944  -37.2560  -12.3448 C   0  0  0  0  0  0  0  0  0  0  0  0
  -15.3564  -34.8597  -12.7182 C   0  0  0  0  0  0  0  0  0  0  0  0
  -22.6509  -42.9905   -9.0471 C   0  0  0  0  0  0  0  0  0  0  0  0
  -23.5105  -43.5047   -8.1559 N   0  0  0  0  0  0  0  0  0  0  0  0
  -24.7849  -43.2315   -8.5690 C   0  0  0  0  0  0  0  0  0  0  0  0
  -24.6271  -42.5332   -9.7444 C   0  0  0  0  0  0  0  0  0  0  0  0
  -23.3618  -42.4250   -9.9696 O   0  0  0  0  0  0  0  0  0  0  0  0
  2  1  1  6
  2  3  1  0
  3  4  1  0
  4  5  1  0
  5  6  1  0
  6  7  1  0
  7  8  1  0
  8  9  1  0
  9 10  1  0
 10 11  1  0
 11 12  1  0
 12 13  2  0
 13 14  1  0
 14 15  2  0
 15 16  1  0
 15 17  1  0
 17 18  2  0
 17 19  1  0
 19 20  1  0
 20 21  1  6
 20 22  1  0
 22 23  1  1
 22 24  1  0
 24 25  1  0
 25 26  1  0
 26 27  1  0
 27 28  1  0
 26 29  1  0
 29 30  2  0
 30 31  1  0
 31 32  2  0
 32 33  1  0
 33 34  2  0
 31 35  1  0
 35 36  1  0
 35 37  1  0
 35 38  1  0
 13 39  1  0
 39 40  2  0
 40 41  1  0
 41 42  2  0
 42 43  1  0
 16 11  2  0
 21  2  1  0
 28 26  1  0
 34 29  1  0
 43 39  1  0
M  END
$$$$
