
     RDKit          3D

 43 47  0  0  0  0  0  0  0  0999 V2000
  -19.5804  -37.5382   -5.5604 C   0  0  0  0  0  0  0  0  0  0  0  0
  -20.1319  -38.9242   -5.8069 C   0  0  2  0  0  0  0  0  0  0  0  0
  -21.2018  -39.1358   -4.7286 C   0  0  0  0  0  0  0  0  0  0  0  0
  -22.5774  -39.0305   -5.3431 C   0  0  0  0  0  0  0  0  0  0  0  0
  -23.5077  -40.1182   -4.8256 C   0  0  0  0  0  0  0  0  0  0  0  0
  -23.0578  -41.3906   -5.5060 C   0  0  0  0  0  0  0  0  0  0  0  0
  -23.8895  -42.5604   -5.0993 C   0  0  0  0  0  0  0  0  0  0  0  0
  -23.2961  -43.8780   -5.5460 C   0  0  0  0  0  0  0  0  0  0  0  0
  -23.7192  -44.2462   -6.9492 C   0  0  0  0  0  0  0  0  0  0  0  0
  -22.6092  -44.6777   -7.7767 N   0  0  0  0  0  0  0  0  0  0  0  0
  -21.1941  -44.5772   -7.6207 C   0  0  0  0  0  0  0  0  0  0  0  0
  -20.6055  -45.8163   -7.9929 C   0  0  0  0  0  0  0  0  0  0  0  0
  -19.2615  -46.0603   -7.9664 C   0  0  0  0  0  0  0  0  0  0  0  0
  -18.4953  -45.0115   -7.5493 C   0  0  0  0  0  0  0  0  0  0  0  0
  -19.0087  -43.7399   -7.1612 C   0  0  0  0  0  0  0  0  0  0  0  0
  -20.3771  -43.5459   -7.2060 C   0  0  0  0  0  0  0  0  0  0  0  0
  -17.9063  -42.8641   -6.7662 C   0  0  0  0  0  0  0  0  0  0  0  0
  -16.9102  -43.3992   -6.0645 O   0  0  0  0  0  0  0  0  0  0  0  0
  -17.5999  -41.4977   -6.9517 N   0  0  0  0  0  0  0  0  0  0  0  0
  -18.5610  -40.4031   -7.0490 C   0  0  1  0  0  0  0  0  0  0  0  0
  -19.0723  -40.0028   -5.7149 C   0  0  0  0  0  0  0  0  0  0  0  0
  -18.0608  -39.3475   -7.9580 C   0  0  2  0  0  0  0  0  0  0  0  0
  -19.1051  -39.2035   -8.9451 O   0  0  0  0  0  0  0  0  0  0  0  0
  -16.8436  -39.5931   -8.7578 C   0  0  0  0  0  0  0  0  0  0  0  0
  -15.6374  -39.9087   -8.0745 N   0  0  0  0  0  0  0  0  0  0  0  0
  -14.6118  -40.4023   -9.0228 C   0  0  0  0  0  0  0  0  0  0  0  0
  -14.5965  -41.9299   -9.2322 C   0  0  0  0  0  0  0  0  0  0  0  0
  -13.5103  -41.2406   -8.4916 C   0  0  0  0  0  0  0  0  0  0  0  0
  -14.2797  -39.5541  -10.1932 C   0  0  0  0  0  0  0  0  0  0  0  0
  -14.6611  -38.2371  -10.3342 C   0  0  0  0  0  0  0  0  0  0  0  0
  -14.3125  -37.4986  -11.4556 C   0  0  0  0  0  0  0  0  0  0  0  0
  -13.5651  -38.0897  -12.4596 C   0  0  0  0  0  0  0  0  0  0  0  0
  -13.2017  -39.4041  -12.2867 C   0  0  0  0  0  0  0  0  0  0  0  0
  -13.5546  -40.0953  -11.1882 N   0  0  0  0  0  0  0  0  0  0  0  0
  -14.7344  -36.1012  -11.5848 C   0  0  0  0  0  0  0  0  0  0  0  0
  -15.2339  -35.8116  -12.9693 C   0  0  0  0  0  0  0  0  0  0  0  0
  -15.9053  -35.8244  -10.6416 C   0  0  0  0  0  0  0  0  0  0  0  0
  -13.6554  -35.1118  -11.2234 C   0  0  0  0  0  0  0  0  0  0  0  0
  -18.6917  -47.3414   -8.3529 C   0  0  0  0  0  0  0  0  0  0  0  0
  -18.0431  -48.1586   -7.5109 N   0  0  0  0  0  0  0  0  0  0  0  0
  -17.6422  -49.2691   -8.2006 C   0  0  0  0  0  0  0  0  0  0  0  0
  -18.0884  -49.0600   -9.4856 C   0  0  0  0  0  0  0  0  0  0  0  0
  -18.6919  -47.9204   -9.5109 O   0  0  0  0  0  0  0  0  0  0  0  0
  2  1  1  1
  2  3  1  0
  3  4  1  0
  4  5  1  0
  5  6  1  0
  6  7  1  0
  7  8  1  0
  8  9  1  0
  9 10  1  0
 10 11  1  0
 11 12  1  0
 12 13  2  0
 13 14  1  0
 14 15  2  0
 15 16  1  0
 15 17  1  0
 17 18  2  0
 17 19  1  0
 19 20  1  0
 20 21  1  1
 20 22  1  0
 22 23  1  6
 22 24  1  0
 24 25  1  0
 25 26  1  0
 26 27  1  0
 27 28  1  0
 26 29  1  0
 29 30  2  0
 30 31  1  0
 31 32  2  0
 32 33  1  0
 33 34  2  0
 31 35  1  0
 35 36  1  0
 35 37  1  0
 35 38  1  0
 13 39  1  0
 39 40  2  0
 40 41  1  0
 41 42  2  0
 42 43  1  0
 16 11  2  0
 21  2  1  0
 28 26  1  0
 34 29  1  0
 43 39  1  0
M  END
$$$$
