
     RDKit          3D

 43 47  0  0  0  0  0  0  0  0999 V2000
  -14.0283  -41.9311   -7.1026 C   0  0  0  0  0  0  0  0  0  0  0  0
  -15.4908  -42.3008   -7.2031 C   0  0  2  0  0  0  0  0  0  0  0  0
  -15.5286  -43.8334   -7.1604 C   0  0  0  0  0  0  0  0  0  0  0  0
  -16.0264  -44.2970   -5.8120 C   0  0  0  0  0  0  0  0  0  0  0  0
  -17.0227  -45.4399   -5.9446 C   0  0  0  0  0  0  0  0  0  0  0  0
  -18.2996  -44.8054   -6.4461 C   0  0  0  0  0  0  0  0  0  0  0  0
  -19.3866  -45.8117   -6.6218 C   0  0  0  0  0  0  0  0  0  0  0  0
  -20.5754  -45.2569   -7.3746 C   0  0  0  0  0  0  0  0  0  0  0  0
  -21.5580  -44.5660   -6.4576 C   0  0  0  0  0  0  0  0  0  0  0  0
  -21.9806  -43.2721   -6.9577 N   0  0  0  0  0  0  0  0  0  0  0  0
  -21.4701  -42.4213   -7.9836 C   0  0  0  0  0  0  0  0  0  0  0  0
  -22.5614  -41.9138   -8.7396 C   0  0  0  0  0  0  0  0  0  0  0  0
  -22.4244  -41.0607   -9.7980 C   0  0  0  0  0  0  0  0  0  0  0  0
  -21.1385  -40.7144  -10.0940 C   0  0  0  0  0  0  0  0  0  0  0  0
  -19.9930  -41.1787   -9.3844 C   0  0  0  0  0  0  0  0  0  0  0  0
  -20.1877  -42.0413   -8.3213 C   0  0  0  0  0  0  0  0  0  0  0  0
  -18.7831  -40.6125   -9.9792 C   0  0  0  0  0  0  0  0  0  0  0  0
  -18.7278  -40.5229  -11.3058 O   0  0  0  0  0  0  0  0  0  0  0  0
  -17.5694  -40.0952   -9.4745 N   0  0  0  0  0  0  0  0  0  0  0  0
  -16.8845  -40.5297   -8.2607 C   0  0  1  0  0  0  0  0  0  0  0  0
  -16.1387  -41.7942   -8.4752 C   0  0  0  0  0  0  0  0  0  0  0  0
  -16.1793  -39.3947   -7.6237 C   0  0  2  0  0  0  0  0  0  0  0  0
  -16.8096  -39.2645   -6.3308 O   0  0  0  0  0  0  0  0  0  0  0  0
  -16.2910  -38.0454   -8.2139 C   0  0  0  0  0  0  0  0  0  0  0  0
  -15.1007  -37.3886   -8.6303 N   0  0  0  0  0  0  0  0  0  0  0  0
  -14.9719  -37.4232  -10.1058 C   0  0  0  0  0  0  0  0  0  0  0  0
  -14.2573  -38.6674  -10.6705 C   0  0  0  0  0  0  0  0  0  0  0  0
  -13.6143  -37.3299  -10.6942 C   0  0  0  0  0  0  0  0  0  0  0  0
  -16.0742  -36.8488  -10.9148 C   0  0  0  0  0  0  0  0  0  0  0  0
  -16.9787  -35.9183  -10.4500 C   0  0  0  0  0  0  0  0  0  0  0  0
  -17.9855  -35.4185  -11.2630 C   0  0  0  0  0  0  0  0  0  0  0  0
  -18.0910  -35.8585  -12.5712 C   0  0  0  0  0  0  0  0  0  0  0  0
  -17.1729  -36.7864  -13.0020 C   0  0  0  0  0  0  0  0  0  0  0  0
  -16.2072  -37.2533  -12.1905 N   0  0  0  0  0  0  0  0  0  0  0  0
  -18.9383  -34.4335  -10.7442 C   0  0  0  0  0  0  0  0  0  0  0  0
  -19.4274  -34.8191   -9.3795 C   0  0  0  0  0  0  0  0  0  0  0  0
  -18.2475  -33.0792  -10.5835 C   0  0  0  0  0  0  0  0  0  0  0  0
  -20.1187  -34.2024  -11.6535 C   0  0  0  0  0  0  0  0  0  0  0  0
  -23.5632  -40.5609  -10.5519 C   0  0  0  0  0  0  0  0  0  0  0  0
  -23.5853  -39.3773  -11.1812 N   0  0  0  0  0  0  0  0  0  0  0  0
  -24.8020  -39.2260  -11.7863 C   0  0  0  0  0  0  0  0  0  0  0  0
  -25.4886  -40.3786  -11.4794 C   0  0  0  0  0  0  0  0  0  0  0  0
  -24.7144  -41.1163  -10.7585 O   0  0  0  0  0  0  0  0  0  0  0  0
  2  1  1  6
  2  3  1  0
  3  4  1  0
  4  5  1  0
  5  6  1  0
  6  7  1  0
  7  8  1  0
  8  9  1  0
  9 10  1  0
 10 11  1  0
 11 12  1  0
 12 13  2  0
 13 14  1  0
 14 15  2  0
 15 16  1  0
 15 17  1  0
 17 18  2  0
 17 19  1  0
 19 20  1  0
 20 21  1  6
 20 22  1  0
 22 23  1  1
 22 24  1  0
 24 25  1  0
 25 26  1  0
 26 27  1  0
 27 28  1  0
 26 29  1  0
 29 30  2  0
 30 31  1  0
 31 32  2  0
 32 33  1  0
 33 34  2  0
 31 35  1  0
 35 36  1  0
 35 37  1  0
 35 38  1  0
 13 39  1  0
 39 40  2  0
 40 41  1  0
 41 42  2  0
 42 43  1  0
 16 11  2  0
 21  2  1  0
 28 26  1  0
 34 29  1  0
 43 39  1  0
M  END
$$$$
