
     RDKit          3D

 43 47  0  0  0  0  0  0  0  0999 V2000
  -15.8392  -36.7181  -10.5474 C   0  0  0  0  0  0  0  0  0  0  0  0
  -15.4738  -38.1803  -10.6673 C   0  0  2  0  0  0  0  0  0  0  0  0
  -14.8289  -38.3280  -12.0509 C   0  0  0  0  0  0  0  0  0  0  0  0
  -13.3342  -38.4889  -11.9058 C   0  0  0  0  0  0  0  0  0  0  0  0
  -12.7947  -39.5731  -12.8276 C   0  0  0  0  0  0  0  0  0  0  0  0
  -13.2202  -40.8820  -12.2027 C   0  0  0  0  0  0  0  0  0  0  0  0
  -12.7534  -42.0538  -12.9990 C   0  0  0  0  0  0  0  0  0  0  0  0
  -13.3917  -43.3504  -12.5528 C   0  0  0  0  0  0  0  0  0  0  0  0
  -12.6313  -43.9986  -11.4190 C   0  0  0  0  0  0  0  0  0  0  0  0
  -13.4948  -44.4330  -10.3380 N   0  0  0  0  0  0  0  0  0  0  0  0
  -14.8546  -44.1440  -10.0146 C   0  0  0  0  0  0  0  0  0  0  0  0
  -15.4979  -45.3516   -9.6299 C   0  0  0  0  0  0  0  0  0  0  0  0
  -16.8083  -45.4300   -9.2510 C   0  0  0  0  0  0  0  0  0  0  0  0
  -17.4820  -44.2439   -9.2639 C   0  0  0  0  0  0  0  0  0  0  0  0
  -16.9087  -42.9930   -9.6350 C   0  0  0  0  0  0  0  0  0  0  0  0
  -15.5781  -42.9695  -10.0110 C   0  0  0  0  0  0  0  0  0  0  0  0
  -17.9198  -41.9410   -9.5401 C   0  0  0  0  0  0  0  0  0  0  0  0
  -19.1548  -42.2297   -9.9433 O   0  0  0  0  0  0  0  0  0  0  0  0
  -17.9279  -40.5999   -9.0965 N   0  0  0  0  0  0  0  0  0  0  0  0
  -16.8166  -39.6567   -9.1792 C   0  0  1  0  0  0  0  0  0  0  0  0
  -16.6733  -39.0973  -10.5459 C   0  0  0  0  0  0  0  0  0  0  0  0
  -16.8394  -38.7204   -8.0330 C   0  0  2  0  0  0  0  0  0  0  0  0
  -16.2454  -39.4689   -6.9500 O   0  0  0  0  0  0  0  0  0  0  0  0
  -18.1358  -38.2694   -7.4877 C   0  0  0  0  0  0  0  0  0  0  0  0
  -19.0028  -39.2395   -6.9143 N   0  0  0  0  0  0  0  0  0  0  0  0
  -20.4186  -38.9132   -7.2037 C   0  0  0  0  0  0  0  0  0  0  0  0
  -20.7547  -38.7286   -8.6972 C   0  0  0  0  0  0  0  0  0  0  0  0
  -20.7305  -37.5758   -7.7624 C   0  0  0  0  0  0  0  0  0  0  0  0
  -21.4631  -39.5205   -6.3436 C   0  0  0  0  0  0  0  0  0  0  0  0
  -21.8416  -40.8449   -6.3950 C   0  0  0  0  0  0  0  0  0  0  0  0
  -22.8254  -41.3496   -5.5572 C   0  0  0  0  0  0  0  0  0  0  0  0
  -23.4454  -40.5116   -4.6466 C   0  0  0  0  0  0  0  0  0  0  0  0
  -23.0438  -39.1972   -4.6220 C   0  0  0  0  0  0  0  0  0  0  0  0
  -22.0869  -38.7359   -5.4469 N   0  0  0  0  0  0  0  0  0  0  0  0
  -23.2141  -42.7604   -5.6344 C   0  0  0  0  0  0  0  0  0  0  0  0
  -23.4276  -43.1868   -7.0567 C   0  0  0  0  0  0  0  0  0  0  0  0
  -22.0875  -43.6386   -5.0897 C   0  0  0  0  0  0  0  0  0  0  0  0
  -24.4405  -43.0912   -4.8219 C   0  0  0  0  0  0  0  0  0  0  0  0
  -17.4366  -46.6833   -8.8643 C   0  0  0  0  0  0  0  0  0  0  0  0
  -16.9215  -47.5350   -7.9661 N   0  0  0  0  0  0  0  0  0  0  0  0
  -17.7646  -48.6043   -7.8431 C   0  0  0  0  0  0  0  0  0  0  0  0
  -18.7964  -48.3352   -8.7133 C   0  0  0  0  0  0  0  0  0  0  0  0
  -18.5480  -47.2027   -9.2781 O   0  0  0  0  0  0  0  0  0  0  0  0
  2  1  1  6
  2  3  1  0
  3  4  1  0
  4  5  1  0
  5  6  1  0
  6  7  1  0
  7  8  1  0
  8  9  1  0
  9 10  1  0
 10 11  1  0
 11 12  1  0
 12 13  2  0
 13 14  1  0
 14 15  2  0
 15 16  1  0
 15 17  1  0
 17 18  2  0
 17 19  1  0
 19 20  1  0
 20 21  1  6
 20 22  1  0
 22 23  1  1
 22 24  1  0
 24 25  1  0
 25 26  1  0
 26 27  1  0
 27 28  1  0
 26 29  1  0
 29 30  2  0
 30 31  1  0
 31 32  2  0
 32 33  1  0
 33 34  2  0
 31 35  1  0
 35 36  1  0
 35 37  1  0
 35 38  1  0
 13 39  1  0
 39 40  2  0
 40 41  1  0
 41 42  2  0
 42 43  1  0
 16 11  2  0
 21  2  1  0
 28 26  1  0
 34 29  1  0
 43 39  1  0
M  END
$$$$
