
     RDKit          3D

 43 47  0  0  0  0  0  0  0  0999 V2000
  -14.4010  -42.3075  -10.7316 C   0  0  0  0  0  0  0  0  0  0  0  0
  -15.5778  -42.9022   -9.9917 C   0  0  2  0  0  0  0  0  0  0  0  0
  -16.0134  -44.1144  -10.8242 C   0  0  0  0  0  0  0  0  0  0  0  0
  -15.5860  -45.3894  -10.1365 C   0  0  0  0  0  0  0  0  0  0  0  0
  -16.6853  -46.4414  -10.1720 C   0  0  0  0  0  0  0  0  0  0  0  0
  -17.7157  -45.9817   -9.1662 C   0  0  0  0  0  0  0  0  0  0  0  0
  -18.8671  -46.9263   -9.0812 C   0  0  0  0  0  0  0  0  0  0  0  0
  -20.0278  -46.3578   -8.2956 C   0  0  0  0  0  0  0  0  0  0  0  0
  -19.8916  -46.6146   -6.8126 C   0  0  0  0  0  0  0  0  0  0  0  0
  -20.1462  -45.4332   -6.0111 N   0  0  0  0  0  0  0  0  0  0  0  0
  -20.2384  -44.0472   -6.3390 C   0  0  0  0  0  0  0  0  0  0  0  0
  -21.3480  -43.4885   -5.6483 C   0  0  0  0  0  0  0  0  0  0  0  0
  -21.7178  -42.1761   -5.7350 C   0  0  0  0  0  0  0  0  0  0  0  0
  -20.9339  -41.4110   -6.5482 C   0  0  0  0  0  0  0  0  0  0  0  0
  -19.8059  -41.8954   -7.2722 C   0  0  0  0  0  0  0  0  0  0  0  0
  -19.4754  -43.2325   -7.1495 C   0  0  0  0  0  0  0  0  0  0  0  0
  -19.2113  -40.8048   -8.0436 C   0  0  0  0  0  0  0  0  0  0  0  0
  -20.0348  -39.9419   -8.6339 O   0  0  0  0  0  0  0  0  0  0  0  0
  -17.8928  -40.3973   -8.3453 N   0  0  0  0  0  0  0  0  0  0  0  0
  -16.7353  -41.2718   -8.5086 C   0  0  1  0  0  0  0  0  0  0  0  0
  -16.7283  -41.9287   -9.8389 C   0  0  0  0  0  0  0  0  0  0  0  0
  -15.5009  -40.5961   -8.0496 C   0  0  2  0  0  0  0  0  0  0  0  0
  -15.6446  -40.5287   -6.6142 O   0  0  0  0  0  0  0  0  0  0  0  0
  -15.2453  -39.1975   -8.4498 C   0  0  0  0  0  0  0  0  0  0  0  0
  -14.8396  -38.9401   -9.7880 N   0  0  0  0  0  0  0  0  0  0  0  0
  -15.1177  -37.5329  -10.1583 C   0  0  0  0  0  0  0  0  0  0  0  0
  -14.4570  -37.0589  -11.4684 C   0  0  0  0  0  0  0  0  0  0  0  0
  -13.9916  -36.5684  -10.1470 C   0  0  0  0  0  0  0  0  0  0  0  0
  -16.4544  -36.9784   -9.8338 C   0  0  0  0  0  0  0  0  0  0  0  0
  -16.8580  -35.6941  -10.1301 C   0  0  0  0  0  0  0  0  0  0  0  0
  -18.1269  -35.2401   -9.8010 C   0  0  0  0  0  0  0  0  0  0  0  0
  -19.0134  -36.0890   -9.1612 C   0  0  0  0  0  0  0  0  0  0  0  0
  -18.5784  -37.3625   -8.8808 C   0  0  0  0  0  0  0  0  0  0  0  0
  -17.3418  -37.7750   -9.2119 N   0  0  0  0  0  0  0  0  0  0  0  0
  -18.5308  -33.8685  -10.1219 C   0  0  0  0  0  0  0  0  0  0  0  0
  -19.8971  -33.8364  -10.7404 C   0  0  0  0  0  0  0  0  0  0  0  0
  -18.6231  -33.0421   -8.8390 C   0  0  0  0  0  0  0  0  0  0  0  0
  -17.5563  -33.1497  -11.0204 C   0  0  0  0  0  0  0  0  0  0  0  0
  -22.8606  -41.6367   -5.0154 C   0  0  0  0  0  0  0  0  0  0  0  0
  -23.1999  -41.9955   -3.7689 N   0  0  0  0  0  0  0  0  0  0  0  0
  -24.3175  -41.2988   -3.4017 C   0  0  0  0  0  0  0  0  0  0  0  0
  -24.6139  -40.5162   -4.4944 C   0  0  0  0  0  0  0  0  0  0  0  0
  -23.7294  -40.7578   -5.4015 O   0  0  0  0  0  0  0  0  0  0  0  0
  2  1  1  6
  2  3  1  0
  3  4  1  0
  4  5  1  0
  5  6  1  0
  6  7  1  0
  7  8  1  0
  8  9  1  0
  9 10  1  0
 10 11  1  0
 11 12  1  0
 12 13  2  0
 13 14  1  0
 14 15  2  0
 15 16  1  0
 15 17  1  0
 17 18  2  0
 17 19  1  0
 19 20  1  0
 20 21  1  6
 20 22  1  0
 22 23  1  1
 22 24  1  0
 24 25  1  0
 25 26  1  0
 26 27  1  0
 27 28  1  0
 26 29  1  0
 29 30  2  0
 30 31  1  0
 31 32  2  0
 32 33  1  0
 33 34  2  0
 31 35  1  0
 35 36  1  0
 35 37  1  0
 35 38  1  0
 13 39  1  0
 39 40  2  0
 40 41  1  0
 41 42  2  0
 42 43  1  0
 16 11  2  0
 21  2  1  0
 28 26  1  0
 34 29  1  0
 43 39  1  0
M  END
$$$$
