
     RDKit          3D

 43 47  0  0  0  0  0  0  0  0999 V2000
  -14.0681  -36.3047   -9.7189 C   0  0  0  0  0  0  0  0  0  0  0  0
  -13.7796  -37.6828  -10.2697 C   0  0  2  0  0  0  0  0  0  0  0  0
  -12.9297  -37.4511  -11.5252 C   0  0  0  0  0  0  0  0  0  0  0  0
  -11.4912  -37.8162  -11.2454 C   0  0  0  0  0  0  0  0  0  0  0  0
  -10.8779  -38.6016  -12.3959 C   0  0  0  0  0  0  0  0  0  0  0  0
  -11.4794  -39.9853  -12.3051 C   0  0  0  0  0  0  0  0  0  0  0  0
  -10.9635  -40.8852  -13.3772 C   0  0  0  0  0  0  0  0  0  0  0  0
  -11.7448  -42.1764  -13.4772 C   0  0  0  0  0  0  0  0  0  0  0  0
  -11.2196  -43.2340  -12.5342 C   0  0  0  0  0  0  0  0  0  0  0  0
  -12.2720  -43.8920  -11.7841 N   0  0  0  0  0  0  0  0  0  0  0  0
  -13.6455  -43.5715  -11.5660 C   0  0  0  0  0  0  0  0  0  0  0  0
  -14.4164  -44.7587  -11.6945 C   0  0  0  0  0  0  0  0  0  0  0  0
  -15.7731  -44.8072  -11.5404 C   0  0  0  0  0  0  0  0  0  0  0  0
  -16.3609  -43.6118  -11.2463 C   0  0  0  0  0  0  0  0  0  0  0  0
  -15.6586  -42.3803  -11.1000 C   0  0  0  0  0  0  0  0  0  0  0  0
  -14.2858  -42.3868  -11.2669 C   0  0  0  0  0  0  0  0  0  0  0  0
  -16.6045  -41.3079  -10.7946 C   0  0  0  0  0  0  0  0  0  0  0  0
  -17.7734  -41.3123  -11.4307 O   0  0  0  0  0  0  0  0  0  0  0  0
  -16.6009  -40.1873   -9.9346 N   0  0  0  0  0  0  0  0  0  0  0  0
  -15.4346  -39.3978   -9.5504 C   0  0  1  0  0  0  0  0  0  0  0  0
  -15.0376  -38.4502  -10.6208 C   0  0  0  0  0  0  0  0  0  0  0  0
  -15.5843  -38.8812   -8.1714 C   0  0  2  0  0  0  0  0  0  0  0  0
  -14.9522  -39.8830   -7.3453 O   0  0  0  0  0  0  0  0  0  0  0  0
  -16.9348  -38.7384   -7.5907 C   0  0  0  0  0  0  0  0  0  0  0  0
  -18.0597  -38.9401   -8.4366 N   0  0  0  0  0  0  0  0  0  0  0  0
  -19.3135  -38.9499   -7.6476 C   0  0  0  0  0  0  0  0  0  0  0  0
  -19.1388  -38.6814   -6.1393 C   0  0  0  0  0  0  0  0  0  0  0  0
  -19.5049  -40.0272   -6.6471 C   0  0  0  0  0  0  0  0  0  0  0  0
  -20.5451  -38.4308   -8.2905 C   0  0  0  0  0  0  0  0  0  0  0  0
  -20.5696  -37.7404   -9.4833 C   0  0  0  0  0  0  0  0  0  0  0  0
  -21.7597  -37.2852  -10.0319 C   0  0  0  0  0  0  0  0  0  0  0  0
  -22.9533  -37.5255   -9.3734 C   0  0  0  0  0  0  0  0  0  0  0  0
  -22.8926  -38.2166   -8.1867 C   0  0  0  0  0  0  0  0  0  0  0  0
  -21.7234  -38.6457   -7.6789 N   0  0  0  0  0  0  0  0  0  0  0  0
  -21.7594  -36.5489  -11.2989 C   0  0  0  0  0  0  0  0  0  0  0  0
  -21.6222  -37.4801  -12.4669 C   0  0  0  0  0  0  0  0  0  0  0  0
  -23.0963  -35.8298  -11.4804 C   0  0  0  0  0  0  0  0  0  0  0  0
  -20.6923  -35.4863  -11.3761 C   0  0  0  0  0  0  0  0  0  0  0  0
  -16.5322  -46.0398  -11.6803 C   0  0  0  0  0  0  0  0  0  0  0  0
  -16.1428  -47.2215  -11.1809 N   0  0  0  0  0  0  0  0  0  0  0  0
  -17.0856  -48.1610  -11.4939 C   0  0  0  0  0  0  0  0  0  0  0  0
  -18.0438  -47.4700  -12.2001 C   0  0  0  0  0  0  0  0  0  0  0  0
  -17.6646  -46.2396  -12.2752 O   0  0  0  0  0  0  0  0  0  0  0  0
  2  1  1  6
  2  3  1  0
  3  4  1  0
  4  5  1  0
  5  6  1  0
  6  7  1  0
  7  8  1  0
  8  9  1  0
  9 10  1  0
 10 11  1  0
 11 12  1  0
 12 13  2  0
 13 14  1  0
 14 15  2  0
 15 16  1  0
 15 17  1  0
 17 18  2  0
 17 19  1  0
 19 20  1  0
 20 21  1  6
 20 22  1  0
 22 23  1  1
 22 24  1  0
 24 25  1  0
 25 26  1  0
 26 27  1  0
 27 28  1  0
 26 29  1  0
 29 30  2  0
 30 31  1  0
 31 32  2  0
 32 33  1  0
 33 34  2  0
 31 35  1  0
 35 36  1  0
 35 37  1  0
 35 38  1  0
 13 39  1  0
 39 40  2  0
 40 41  1  0
 41 42  2  0
 42 43  1  0
 16 11  2  0
 21  2  1  0
 28 26  1  0
 34 29  1  0
 43 39  1  0
M  END
$$$$
