
     RDKit          3D

 43 47  0  0  0  0  0  0  0  0999 V2000
  -15.8271  -36.5035   -9.4179 C   0  0  0  0  0  0  0  0  0  0  0  0
  -15.7237  -37.8855  -10.0224 C   0  0  2  0  0  0  0  0  0  0  0  0
  -15.0298  -37.6884  -11.3758 C   0  0  0  0  0  0  0  0  0  0  0  0
  -13.6006  -38.1699  -11.2945 C   0  0  0  0  0  0  0  0  0  0  0  0
  -13.2076  -38.9709  -12.5275 C   0  0  0  0  0  0  0  0  0  0  0  0
  -13.9001  -40.3061  -12.3782 C   0  0  0  0  0  0  0  0  0  0  0  0
  -13.6022  -41.2159  -13.5223 C   0  0  0  0  0  0  0  0  0  0  0  0
  -14.4900  -42.4403  -13.5370 C   0  0  0  0  0  0  0  0  0  0  0  0
  -13.9317  -43.5585  -12.6875 C   0  0  0  0  0  0  0  0  0  0  0  0
  -14.9258  -44.1523  -11.8144 N   0  0  0  0  0  0  0  0  0  0  0  0
  -16.2291  -43.7327  -11.4116 C   0  0  0  0  0  0  0  0  0  0  0  0
  -17.1020  -44.8535  -11.4543 C   0  0  0  0  0  0  0  0  0  0  0  0
  -18.4264  -44.8015  -11.1226 C   0  0  0  0  0  0  0  0  0  0  0  0
  -18.8738  -43.5721  -10.7356 C   0  0  0  0  0  0  0  0  0  0  0  0
  -18.0626  -42.4024  -10.6655 C   0  0  0  0  0  0  0  0  0  0  0  0
  -16.7285  -42.5101  -11.0129 C   0  0  0  0  0  0  0  0  0  0  0  0
  -18.8722  -41.2684  -10.2218 C   0  0  0  0  0  0  0  0  0  0  0  0
  -20.1109  -41.1670  -10.6975 O   0  0  0  0  0  0  0  0  0  0  0  0
  -18.6670  -40.1733   -9.3535 N   0  0  0  0  0  0  0  0  0  0  0  0
  -17.4013  -39.4857   -9.1155 C   0  0  1  0  0  0  0  0  0  0  0  0
  -17.0738  -38.5448  -10.2150 C   0  0  0  0  0  0  0  0  0  0  0  0
  -17.3278  -38.9938   -7.7214 C   0  0  2  0  0  0  0  0  0  0  0  0
  -16.2799  -39.7848   -7.1196 O   0  0  0  0  0  0  0  0  0  0  0  0
  -18.4826  -39.1849   -6.8207 C   0  0  0  0  0  0  0  0  0  0  0  0
  -19.6963  -38.5093   -7.1241 N   0  0  0  0  0  0  0  0  0  0  0  0
  -20.8616  -39.3918   -6.8835 C   0  0  0  0  0  0  0  0  0  0  0  0
  -21.3167  -40.2203   -8.1017 C   0  0  0  0  0  0  0  0  0  0  0  0
  -22.1294  -39.0887   -7.5898 C   0  0  0  0  0  0  0  0  0  0  0  0
  -20.9940  -40.0218   -5.5473 C   0  0  0  0  0  0  0  0  0  0  0  0
  -20.4244  -39.5280   -4.3933 C   0  0  0  0  0  0  0  0  0  0  0  0
  -20.5916  -40.1664   -3.1731 C   0  0  0  0  0  0  0  0  0  0  0  0
  -21.3457  -41.3251   -3.1041 C   0  0  0  0  0  0  0  0  0  0  0  0
  -21.8991  -41.7896   -4.2735 C   0  0  0  0  0  0  0  0  0  0  0  0
  -21.7196  -41.1492   -5.4425 N   0  0  0  0  0  0  0  0  0  0  0  0
  -19.9717  -39.6246   -1.9608 C   0  0  0  0  0  0  0  0  0  0  0  0
  -20.1483  -40.5565   -0.7987 C   0  0  0  0  0  0  0  0  0  0  0  0
  -18.4638  -39.4827   -2.1693 C   0  0  0  0  0  0  0  0  0  0  0  0
  -20.4790  -38.2547   -1.5871 C   0  0  0  0  0  0  0  0  0  0  0  0
  -19.2929  -45.9681  -11.1788 C   0  0  0  0  0  0  0  0  0  0  0  0
  -18.9374  -47.1880  -10.7511 N   0  0  0  0  0  0  0  0  0  0  0  0
  -19.9845  -48.0442  -10.9508 C   0  0  0  0  0  0  0  0  0  0  0  0
  -20.9680  -47.2647  -11.5159 C   0  0  0  0  0  0  0  0  0  0  0  0
  -20.5051  -46.0657  -11.6230 O   0  0  0  0  0  0  0  0  0  0  0  0
  2  1  1  6
  2  3  1  0
  3  4  1  0
  4  5  1  0
  5  6  1  0
  6  7  1  0
  7  8  1  0
  8  9  1  0
  9 10  1  0
 10 11  1  0
 11 12  1  0
 12 13  2  0
 13 14  1  0
 14 15  2  0
 15 16  1  0
 15 17  1  0
 17 18  2  0
 17 19  1  0
 19 20  1  0
 20 21  1  6
 20 22  1  0
 22 23  1  1
 22 24  1  0
 24 25  1  0
 25 26  1  0
 26 27  1  0
 27 28  1  0
 26 29  1  0
 29 30  2  0
 30 31  1  0
 31 32  2  0
 32 33  1  0
 33 34  2  0
 31 35  1  0
 35 36  1  0
 35 37  1  0
 35 38  1  0
 13 39  1  0
 39 40  2  0
 40 41  1  0
 41 42  2  0
 42 43  1  0
 16 11  2  0
 21  2  1  0
 28 26  1  0
 34 29  1  0
 43 39  1  0
M  END
$$$$
