
     RDKit          3D

 43 47  0  0  0  0  0  0  0  0999 V2000
  -15.7007  -36.0391   -9.1558 C   0  0  0  0  0  0  0  0  0  0  0  0
  -16.7564  -36.8997   -9.8121 C   0  0  2  0  0  0  0  0  0  0  0  0
  -17.1162  -36.1801  -11.1178 C   0  0  0  0  0  0  0  0  0  0  0  0
  -16.5120  -36.9141  -12.2914 C   0  0  0  0  0  0  0  0  0  0  0  0
  -17.4941  -37.0264  -13.4486 C   0  0  0  0  0  0  0  0  0  0  0  0
  -18.4980  -38.0740  -13.0250 C   0  0  0  0  0  0  0  0  0  0  0  0
  -19.5352  -38.3032  -14.0725 C   0  0  0  0  0  0  0  0  0  0  0  0
  -20.6945  -39.1343  -13.5696 C   0  0  0  0  0  0  0  0  0  0  0  0
  -20.4336  -40.6166  -13.7058 C   0  0  0  0  0  0  0  0  0  0  0  0
  -20.7573  -41.3580  -12.5023 N   0  0  0  0  0  0  0  0  0  0  0  0
  -21.0168  -40.9505  -11.1593 C   0  0  0  0  0  0  0  0  0  0  0  0
  -22.1306  -41.6840  -10.6678 C   0  0  0  0  0  0  0  0  0  0  0  0
  -22.6416  -41.5416   -9.4087 C   0  0  0  0  0  0  0  0  0  0  0  0
  -21.9987  -40.6261   -8.6280 C   0  0  0  0  0  0  0  0  0  0  0  0
  -20.8766  -39.8533   -9.0463 C   0  0  0  0  0  0  0  0  0  0  0  0
  -20.3995  -40.0360  -10.3313 C   0  0  0  0  0  0  0  0  0  0  0  0
  -20.4530  -38.9726   -7.9587 C   0  0  0  0  0  0  0  0  0  0  0  0
  -21.4002  -38.3909   -7.2271 O   0  0  0  0  0  0  0  0  0  0  0  0
  -19.2078  -38.5495   -7.4429 N   0  0  0  0  0  0  0  0  0  0  0  0
  -17.9780  -38.3574   -8.2057 C   0  0  1  0  0  0  0  0  0  0  0  0
  -17.9903  -37.0746   -8.9511 C   0  0  0  0  0  0  0  0  0  0  0  0
  -16.7939  -38.6806   -7.3783 C   0  0  2  0  0  0  0  0  0  0  0  0
  -15.9411  -39.4432   -8.2598 O   0  0  0  0  0  0  0  0  0  0  0  0
  -16.9496  -39.5474   -6.1927 C   0  0  0  0  0  0  0  0  0  0  0  0
  -18.0623  -39.3275   -5.3353 N   0  0  0  0  0  0  0  0  0  0  0  0
  -18.9501  -40.5133   -5.3145 C   0  0  0  0  0  0  0  0  0  0  0  0
  -20.3589  -40.2652   -4.7389 C   0  0  0  0  0  0  0  0  0  0  0  0
  -19.3520  -41.0661   -3.9988 C   0  0  0  0  0  0  0  0  0  0  0  0
  -18.8334  -41.4903   -6.4242 C   0  0  0  0  0  0  0  0  0  0  0  0
  -17.9458  -41.3761   -7.4726 C   0  0  0  0  0  0  0  0  0  0  0  0
  -17.8863  -42.3303   -8.4778 C   0  0  0  0  0  0  0  0  0  0  0  0
  -18.7331  -43.4243   -8.4345 C   0  0  0  0  0  0  0  0  0  0  0  0
  -19.6054  -43.5069   -7.3753 C   0  0  0  0  0  0  0  0  0  0  0  0
  -19.6406  -42.5659   -6.4149 N   0  0  0  0  0  0  0  0  0  0  0  0
  -16.9375  -42.1839   -9.5850 C   0  0  0  0  0  0  0  0  0  0  0  0
  -16.8235  -40.7515  -10.0154 C   0  0  0  0  0  0  0  0  0  0  0  0
  -15.5405  -42.6056   -9.1291 C   0  0  0  0  0  0  0  0  0  0  0  0
  -17.2708  -43.0418  -10.7794 C   0  0  0  0  0  0  0  0  0  0  0  0
  -23.7846  -42.3076   -8.9375 C   0  0  0  0  0  0  0  0  0  0  0  0
  -24.0779  -43.5487   -9.3510 N   0  0  0  0  0  0  0  0  0  0  0  0
  -25.2105  -43.9675   -8.7099 C   0  0  0  0  0  0  0  0  0  0  0  0
  -25.5638  -42.9104   -7.9024 C   0  0  0  0  0  0  0  0  0  0  0  0
  -24.6949  -41.9739   -8.0795 O   0  0  0  0  0  0  0  0  0  0  0  0
  2  1  1  1
  2  3  1  0
  3  4  1  0
  4  5  1  0
  5  6  1  0
  6  7  1  0
  7  8  1  0
  8  9  1  0
  9 10  1  0
 10 11  1  0
 11 12  1  0
 12 13  2  0
 13 14  1  0
 14 15  2  0
 15 16  1  0
 15 17  1  0
 17 18  2  0
 17 19  1  0
 19 20  1  0
 20 21  1  1
 20 22  1  0
 22 23  1  6
 22 24  1  0
 24 25  1  0
 25 26  1  0
 26 27  1  0
 27 28  1  0
 26 29  1  0
 29 30  2  0
 30 31  1  0
 31 32  2  0
 32 33  1  0
 33 34  2  0
 31 35  1  0
 35 36  1  0
 35 37  1  0
 35 38  1  0
 13 39  1  0
 39 40  2  0
 40 41  1  0
 41 42  2  0
 42 43  1  0
 16 11  2  0
 21  2  1  0
 28 26  1  0
 34 29  1  0
 43 39  1  0
M  END
$$$$
