
     RDKit          3D

 43 47  0  0  0  0  0  0  0  0999 V2000
  -18.9441  -37.2023   -6.2168 C   0  0  0  0  0  0  0  0  0  0  0  0
  -19.6328  -38.5429   -6.3367 C   0  0  2  0  0  0  0  0  0  0  0  0
  -20.7103  -38.5477   -5.2453 C   0  0  0  0  0  0  0  0  0  0  0  0
  -22.0732  -38.3617   -5.8692 C   0  0  0  0  0  0  0  0  0  0  0  0
  -23.1033  -39.2995   -5.2561 C   0  0  0  0  0  0  0  0  0  0  0  0
  -22.7875  -40.6671   -5.8169 C   0  0  0  0  0  0  0  0  0  0  0  0
  -23.7285  -41.7061   -5.3065 C   0  0  0  0  0  0  0  0  0  0  0  0
  -23.2727  -43.1115   -5.6302 C   0  0  0  0  0  0  0  0  0  0  0  0
  -23.7409  -43.5617   -6.9947 C   0  0  0  0  0  0  0  0  0  0  0  0
  -22.6856  -44.1754   -7.7776 N   0  0  0  0  0  0  0  0  0  0  0  0
  -21.2664  -44.2029   -7.6290 C   0  0  0  0  0  0  0  0  0  0  0  0
  -20.8071  -45.5233   -7.8858 C   0  0  0  0  0  0  0  0  0  0  0  0
  -19.4938  -45.8970   -7.8349 C   0  0  0  0  0  0  0  0  0  0  0  0
  -18.6239  -44.8963   -7.5139 C   0  0  0  0  0  0  0  0  0  0  0  0
  -19.0051  -43.5498   -7.2443 C   0  0  0  0  0  0  0  0  0  0  0  0
  -20.3477  -43.2250   -7.3088 C   0  0  0  0  0  0  0  0  0  0  0  0
  -17.8181  -42.7563   -6.9290 C   0  0  0  0  0  0  0  0  0  0  0  0
  -16.8749  -43.3221   -6.1798 O   0  0  0  0  0  0  0  0  0  0  0  0
  -17.3785  -41.4498   -7.2379 N   0  0  0  0  0  0  0  0  0  0  0  0
  -18.2265  -40.2781   -7.4362 C   0  0  1  0  0  0  0  0  0  0  0  0
  -18.6853  -39.7091   -6.1450 C   0  0  0  0  0  0  0  0  0  0  0  0
  -17.6304  -39.3648   -8.4369 C   0  0  2  0  0  0  0  0  0  0  0  0
  -18.6924  -39.1378   -9.3889 O   0  0  0  0  0  0  0  0  0  0  0  0
  -16.5004  -39.8315   -9.2657 C   0  0  0  0  0  0  0  0  0  0  0  0
  -15.1876  -39.7532   -8.7256 N   0  0  0  0  0  0  0  0  0  0  0  0
  -14.2149  -40.4335   -9.6120 C   0  0  0  0  0  0  0  0  0  0  0  0
  -14.3467  -41.9687   -9.6710 C   0  0  0  0  0  0  0  0  0  0  0  0
  -13.1988  -41.3174   -8.9918 C   0  0  0  0  0  0  0  0  0  0  0  0
  -13.8034  -39.7400  -10.8567 C   0  0  0  0  0  0  0  0  0  0  0  0
  -13.3976  -38.4241  -10.9177 C   0  0  0  0  0  0  0  0  0  0  0  0
  -13.0215  -37.8374  -12.1172 C   0  0  0  0  0  0  0  0  0  0  0  0
  -13.0513  -38.5829  -13.2831 C   0  0  0  0  0  0  0  0  0  0  0  0
  -13.4609  -39.8915  -13.1863 C   0  0  0  0  0  0  0  0  0  0  0  0
  -13.8200  -40.4335  -12.0089 N   0  0  0  0  0  0  0  0  0  0  0  0
  -12.5987  -36.4349  -12.1571 C   0  0  0  0  0  0  0  0  0  0  0  0
  -13.3750  -35.6065  -11.1766 C   0  0  0  0  0  0  0  0  0  0  0  0
  -11.1313  -36.3243  -11.7424 C   0  0  0  0  0  0  0  0  0  0  0  0
  -12.6998  -35.8156  -13.5282 C   0  0  0  0  0  0  0  0  0  0  0  0
  -19.0575  -47.2583   -8.1019 C   0  0  0  0  0  0  0  0  0  0  0  0
  -19.5736  -48.0365   -9.0639 N   0  0  0  0  0  0  0  0  0  0  0  0
  -18.9364  -49.2459   -9.0375 C   0  0  0  0  0  0  0  0  0  0  0  0
  -18.0236  -49.1355   -8.0134 C   0  0  0  0  0  0  0  0  0  0  0  0
  -18.1425  -47.9551   -7.5074 O   0  0  0  0  0  0  0  0  0  0  0  0
  2  1  1  1
  2  3  1  0
  3  4  1  0
  4  5  1  0
  5  6  1  0
  6  7  1  0
  7  8  1  0
  8  9  1  0
  9 10  1  0
 10 11  1  0
 11 12  1  0
 12 13  2  0
 13 14  1  0
 14 15  2  0
 15 16  1  0
 15 17  1  0
 17 18  2  0
 17 19  1  0
 19 20  1  0
 20 21  1  1
 20 22  1  0
 22 23  1  6
 22 24  1  0
 24 25  1  0
 25 26  1  0
 26 27  1  0
 27 28  1  0
 26 29  1  0
 29 30  2  0
 30 31  1  0
 31 32  2  0
 32 33  1  0
 33 34  2  0
 31 35  1  0
 35 36  1  0
 35 37  1  0
 35 38  1  0
 13 39  1  0
 39 40  2  0
 40 41  1  0
 41 42  2  0
 42 43  1  0
 16 11  2  0
 21  2  1  0
 28 26  1  0
 34 29  1  0
 43 39  1  0
M  END
$$$$
