
     RDKit          3D

 43 47  0  0  0  0  0  0  0  0999 V2000
  -17.5665  -37.0139  -10.6510 C   0  0  0  0  0  0  0  0  0  0  0  0
  -18.6282  -37.5992   -9.7475 C   0  0  2  0  0  0  0  0  0  0  0  0
  -19.7898  -36.5983   -9.7807 C   0  0  0  0  0  0  0  0  0  0  0  0
  -20.9186  -37.1499  -10.6188 C   0  0  0  0  0  0  0  0  0  0  0  0
  -22.2713  -36.9161   -9.9617 C   0  0  0  0  0  0  0  0  0  0  0  0
  -22.3405  -37.9035   -8.8193 C   0  0  0  0  0  0  0  0  0  0  0  0
  -23.6282  -37.7988   -8.0736 C   0  0  0  0  0  0  0  0  0  0  0  0
  -23.6114  -38.5733   -6.7745 C   0  0  0  0  0  0  0  0  0  0  0  0
  -24.0058  -40.0191   -6.9686 C   0  0  0  0  0  0  0  0  0  0  0  0
  -23.1081  -40.9419   -6.3011 N   0  0  0  0  0  0  0  0  0  0  0  0
  -21.8093  -40.7815   -5.7315 C   0  0  0  0  0  0  0  0  0  0  0  0
  -21.7709  -41.4639   -4.4853 C   0  0  0  0  0  0  0  0  0  0  0  0
  -20.6698  -41.5158   -3.6781 C   0  0  0  0  0  0  0  0  0  0  0  0
  -19.5763  -40.8539   -4.1549 C   0  0  0  0  0  0  0  0  0  0  0  0
  -19.5348  -40.1487   -5.3927 C   0  0  0  0  0  0  0  0  0  0  0  0
  -20.6774  -40.1270   -6.1714 C   0  0  0  0  0  0  0  0  0  0  0  0
  -18.2108  -39.5562   -5.5771 C   0  0  0  0  0  0  0  0  0  0  0  0
  -17.6152  -39.0254   -4.5120 O   0  0  0  0  0  0  0  0  0  0  0  0
  -17.3337  -39.3909   -6.6720 N   0  0  0  0  0  0  0  0  0  0  0  0
  -17.7208  -39.1950   -8.0660 C   0  0  1  0  0  0  0  0  0  0  0  0
  -18.1454  -37.7972   -8.3255 C   0  0  0  0  0  0  0  0  0  0  0  0
  -16.7284  -39.8106   -8.9754 C   0  0  2  0  0  0  0  0  0  0  0  0
  -17.4226  -40.9404   -9.5476 O   0  0  0  0  0  0  0  0  0  0  0  0
  -15.4932  -40.3956   -8.4155 C   0  0  0  0  0  0  0  0  0  0  0  0
  -14.4084  -39.5266   -8.1162 N   0  0  0  0  0  0  0  0  0  0  0  0
  -13.2364  -39.8394   -8.9667 C   0  0  0  0  0  0  0  0  0  0  0  0
  -13.2303  -41.2560   -9.5759 C   0  0  0  0  0  0  0  0  0  0  0  0
  -12.2847  -40.8748   -8.4971 C   0  0  0  0  0  0  0  0  0  0  0  0
  -12.6589  -38.7464   -9.7861 C   0  0  0  0  0  0  0  0  0  0  0  0
  -13.3882  -37.9370  -10.6305 C   0  0  0  0  0  0  0  0  0  0  0  0
  -12.7843  -36.9283  -11.3669 C   0  0  0  0  0  0  0  0  0  0  0  0
  -11.4198  -36.7234  -11.2570 C   0  0  0  0  0  0  0  0  0  0  0  0
  -10.7232  -37.5483  -10.4062 C   0  0  0  0  0  0  0  0  0  0  0  0
  -11.3360  -38.5185   -9.7047 N   0  0  0  0  0  0  0  0  0  0  0  0
  -13.5804  -36.0842  -12.2618 C   0  0  0  0  0  0  0  0  0  0  0  0
  -14.4187  -36.9151  -13.1875 C   0  0  0  0  0  0  0  0  0  0  0  0
  -14.5570  -35.2389  -11.4439 C   0  0  0  0  0  0  0  0  0  0  0  0
  -12.7527  -35.1151  -13.0679 C   0  0  0  0  0  0  0  0  0  0  0  0
  -20.6648  -42.2224   -2.4070 C   0  0  0  0  0  0  0  0  0  0  0  0
  -21.7604  -42.7363   -1.8300 N   0  0  0  0  0  0  0  0  0  0  0  0
  -21.3980  -43.3284   -0.6521 C   0  0  0  0  0  0  0  0  0  0  0  0
  -20.0378  -43.1347   -0.5698 C   0  0  0  0  0  0  0  0  0  0  0  0
  -19.6698  -42.4847   -1.6212 O   0  0  0  0  0  0  0  0  0  0  0  0
  2  1  1  6
  2  3  1  0
  3  4  1  0
  4  5  1  0
  5  6  1  0
  6  7  1  0
  7  8  1  0
  8  9  1  0
  9 10  1  0
 10 11  1  0
 11 12  1  0
 12 13  2  0
 13 14  1  0
 14 15  2  0
 15 16  1  0
 15 17  1  0
 17 18  2  0
 17 19  1  0
 19 20  1  0
 20 21  1  6
 20 22  1  0
 22 23  1  1
 22 24  1  0
 24 25  1  0
 25 26  1  0
 26 27  1  0
 27 28  1  0
 26 29  1  0
 29 30  2  0
 30 31  1  0
 31 32  2  0
 32 33  1  0
 33 34  2  0
 31 35  1  0
 35 36  1  0
 35 37  1  0
 35 38  1  0
 13 39  1  0
 39 40  2  0
 40 41  1  0
 41 42  2  0
 42 43  1  0
 16 11  2  0
 21  2  1  0
 28 26  1  0
 34 29  1  0
 43 39  1  0
M  END
$$$$
