
     RDKit          3D

 43 47  0  0  0  0  0  0  0  0999 V2000
  -18.9607  -37.1206   -6.8395 C   0  0  0  0  0  0  0  0  0  0  0  0
  -19.6625  -38.4580   -6.7703 C   0  0  2  0  0  0  0  0  0  0  0  0
  -20.7992  -38.2709   -5.7578 C   0  0  0  0  0  0  0  0  0  0  0  0
  -22.1220  -38.1855   -6.4816 C   0  0  0  0  0  0  0  0  0  0  0  0
  -23.1993  -38.9993   -5.7791 C   0  0  0  0  0  0  0  0  0  0  0  0
  -22.8743  -40.4442   -6.0813 C   0  0  0  0  0  0  0  0  0  0  0  0
  -23.8584  -41.3757   -5.4575 C   0  0  0  0  0  0  0  0  0  0  0  0
  -23.4073  -42.8184   -5.5119 C   0  0  0  0  0  0  0  0  0  0  0  0
  -23.8057  -43.4910   -6.8052 C   0  0  0  0  0  0  0  0  0  0  0  0
  -22.7182  -44.2350   -7.4109 N   0  0  0  0  0  0  0  0  0  0  0  0
  -21.3100  -44.2454   -7.1782 C   0  0  0  0  0  0  0  0  0  0  0  0
  -20.8578  -45.5929   -7.1810 C   0  0  0  0  0  0  0  0  0  0  0  0
  -19.5555  -45.9604   -6.9920 C   0  0  0  0  0  0  0  0  0  0  0  0
  -18.6892  -44.9250   -6.7954 C   0  0  0  0  0  0  0  0  0  0  0  0
  -19.0637  -43.5499   -6.7799 C   0  0  0  0  0  0  0  0  0  0  0  0
  -20.3954  -43.2328   -6.9757 C   0  0  0  0  0  0  0  0  0  0  0  0
  -17.8838  -42.7215   -6.5356 C   0  0  0  0  0  0  0  0  0  0  0  0
  -16.9930  -43.1576   -5.6484 O   0  0  0  0  0  0  0  0  0  0  0  0
  -17.4073  -41.4892   -7.0353 N   0  0  0  0  0  0  0  0  0  0  0  0
  -18.2244  -40.3631   -7.4774 C   0  0  1  0  0  0  0  0  0  0  0  0
  -18.7456  -39.5804   -6.3298 C   0  0  0  0  0  0  0  0  0  0  0  0
  -17.5592  -39.6366   -8.5822 C   0  0  2  0  0  0  0  0  0  0  0  0
  -18.6024  -39.4474   -9.5629 O   0  0  0  0  0  0  0  0  0  0  0  0
  -16.4739  -40.2956   -9.3367 C   0  0  0  0  0  0  0  0  0  0  0  0
  -15.1468  -39.8114   -9.1750 N   0  0  0  0  0  0  0  0  0  0  0  0
  -14.2085  -40.5526  -10.0496 C   0  0  0  0  0  0  0  0  0  0  0  0
  -14.7459  -41.8885  -10.6013 C   0  0  0  0  0  0  0  0  0  0  0  0
  -13.6792  -41.8517   -9.5698 C   0  0  0  0  0  0  0  0  0  0  0  0
  -13.3100  -39.7676  -10.9305 C   0  0  0  0  0  0  0  0  0  0  0  0
  -13.3839  -38.4018  -11.1005 C   0  0  0  0  0  0  0  0  0  0  0  0
  -12.5076  -37.7281  -11.9389 C   0  0  0  0  0  0  0  0  0  0  0  0
  -11.5345  -38.4357  -12.6233 C   0  0  0  0  0  0  0  0  0  0  0  0
  -11.4890  -39.7960  -12.4307 C   0  0  0  0  0  0  0  0  0  0  0  0
  -12.3524  -40.4221  -11.6113 N   0  0  0  0  0  0  0  0  0  0  0  0
  -12.6097  -36.2760  -12.1071 C   0  0  0  0  0  0  0  0  0  0  0  0
  -11.4693  -35.7433  -12.9231 C   0  0  0  0  0  0  0  0  0  0  0  0
  -13.8841  -35.9323  -12.8784 C   0  0  0  0  0  0  0  0  0  0  0  0
  -12.6876  -35.5240  -10.8024 C   0  0  0  0  0  0  0  0  0  0  0  0
  -19.1263  -47.3499   -6.9993 C   0  0  0  0  0  0  0  0  0  0  0  0
  -19.7793  -48.3335   -7.6345 N   0  0  0  0  0  0  0  0  0  0  0  0
  -19.1052  -49.5062   -7.4354 C   0  0  0  0  0  0  0  0  0  0  0  0
  -18.0274  -49.1591   -6.6531 C   0  0  0  0  0  0  0  0  0  0  0  0
  -18.0950  -47.8901   -6.4328 O   0  0  0  0  0  0  0  0  0  0  0  0
  2  1  1  1
  2  3  1  0
  3  4  1  0
  4  5  1  0
  5  6  1  0
  6  7  1  0
  7  8  1  0
  8  9  1  0
  9 10  1  0
 10 11  1  0
 11 12  1  0
 12 13  2  0
 13 14  1  0
 14 15  2  0
 15 16  1  0
 15 17  1  0
 17 18  2  0
 17 19  1  0
 19 20  1  0
 20 21  1  1
 20 22  1  0
 22 23  1  6
 22 24  1  0
 24 25  1  0
 25 26  1  0
 26 27  1  0
 27 28  1  0
 26 29  1  0
 29 30  2  0
 30 31  1  0
 31 32  2  0
 32 33  1  0
 33 34  2  0
 31 35  1  0
 35 36  1  0
 35 37  1  0
 35 38  1  0
 13 39  1  0
 39 40  2  0
 40 41  1  0
 41 42  2  0
 42 43  1  0
 16 11  2  0
 21  2  1  0
 28 26  1  0
 34 29  1  0
 43 39  1  0
M  END
$$$$
