
     RDKit          3D

 43 47  0  0  0  0  0  0  0  0999 V2000
  -18.3449  -38.2844   -4.5442 C   0  0  0  0  0  0  0  0  0  0  0  0
  -18.9954  -39.3369   -5.4131 C   0  0  2  0  0  0  0  0  0  0  0  0
  -20.1793  -39.8673   -4.5951 C   0  0  0  0  0  0  0  0  0  0  0  0
  -21.4736  -39.3291   -5.1575 C   0  0  0  0  0  0  0  0  0  0  0  0
  -22.5458  -40.4070   -5.2278 C   0  0  0  0  0  0  0  0  0  0  0  0
  -22.1515  -41.2926   -6.3875 C   0  0  0  0  0  0  0  0  0  0  0  0
  -23.1227  -42.4067   -6.5892 C   0  0  0  0  0  0  0  0  0  0  0  0
  -22.6129  -43.4538   -7.5542 C   0  0  0  0  0  0  0  0  0  0  0  0
  -22.9306  -43.1071   -8.9904 C   0  0  0  0  0  0  0  0  0  0  0  0
  -21.7904  -43.2638   -9.8727 N   0  0  0  0  0  0  0  0  0  0  0  0
  -20.3937  -43.4214   -9.6246 C   0  0  0  0  0  0  0  0  0  0  0  0
  -19.8887  -44.4310  -10.4881 C   0  0  0  0  0  0  0  0  0  0  0  0
  -18.5817  -44.8284  -10.5139 C   0  0  0  0  0  0  0  0  0  0  0  0
  -17.7661  -44.1778   -9.6350 C   0  0  0  0  0  0  0  0  0  0  0  0
  -18.1951  -43.1556   -8.7393 C   0  0  0  0  0  0  0  0  0  0  0  0
  -19.5291  -42.7916   -8.7535 C   0  0  0  0  0  0  0  0  0  0  0  0
  -17.0601  -42.6911   -7.9430 C   0  0  0  0  0  0  0  0  0  0  0  0
  -16.1899  -43.6018   -7.5135 O   0  0  0  0  0  0  0  0  0  0  0  0
  -16.6126  -41.4341   -7.4792 N   0  0  0  0  0  0  0  0  0  0  0  0
  -17.4549  -40.2983   -7.1161 C   0  0  1  0  0  0  0  0  0  0  0  0
  -18.0536  -40.4686   -5.7693 C   0  0  0  0  0  0  0  0  0  0  0  0
  -16.7741  -39.0217   -7.4287 C   0  0  2  0  0  0  0  0  0  0  0  0
  -17.8261  -38.1719   -7.9354 O   0  0  0  0  0  0  0  0  0  0  0  0
  -15.7445  -38.9865   -8.4870 C   0  0  0  0  0  0  0  0  0  0  0  0
  -15.3979  -40.2040   -9.1345 N   0  0  0  0  0  0  0  0  0  0  0  0
  -13.9724  -40.1957   -9.5377 C   0  0  0  0  0  0  0  0  0  0  0  0
  -13.3722  -41.5822   -9.8459 C   0  0  0  0  0  0  0  0  0  0  0  0
  -12.9827  -40.8245   -8.6304 C   0  0  0  0  0  0  0  0  0  0  0  0
  -13.4832  -39.0506  -10.3435 C   0  0  0  0  0  0  0  0  0  0  0  0
  -14.2951  -38.0837  -10.8963 C   0  0  0  0  0  0  0  0  0  0  0  0
  -13.7704  -37.0350  -11.6375 C   0  0  0  0  0  0  0  0  0  0  0  0
  -12.4024  -36.9503  -11.8308 C   0  0  0  0  0  0  0  0  0  0  0  0
  -11.6223  -37.9310  -11.2657 C   0  0  0  0  0  0  0  0  0  0  0  0
  -12.1595  -38.9363  -10.5518 N   0  0  0  0  0  0  0  0  0  0  0  0
  -14.6548  -36.0219  -12.2196 C   0  0  0  0  0  0  0  0  0  0  0  0
  -15.4755  -36.5959  -13.3363 C   0  0  0  0  0  0  0  0  0  0  0  0
  -15.6491  -35.5349  -11.1653 C   0  0  0  0  0  0  0  0  0  0  0  0
  -13.9245  -34.7977  -12.7114 C   0  0  0  0  0  0  0  0  0  0  0  0
  -18.0978  -45.8667  -11.4099 C   0  0  0  0  0  0  0  0  0  0  0  0
  -16.9183  -46.4885  -11.2700 N   0  0  0  0  0  0  0  0  0  0  0  0
  -16.7826  -47.4018  -12.2784 C   0  0  0  0  0  0  0  0  0  0  0  0
  -17.9401  -47.2825  -13.0134 C   0  0  0  0  0  0  0  0  0  0  0  0
  -18.6658  -46.3726  -12.4575 O   0  0  0  0  0  0  0  0  0  0  0  0
  2  1  1  1
  2  3  1  0
  3  4  1  0
  4  5  1  0
  5  6  1  0
  6  7  1  0
  7  8  1  0
  8  9  1  0
  9 10  1  0
 10 11  1  0
 11 12  1  0
 12 13  2  0
 13 14  1  0
 14 15  2  0
 15 16  1  0
 15 17  1  0
 17 18  2  0
 17 19  1  0
 19 20  1  0
 20 21  1  1
 20 22  1  0
 22 23  1  6
 22 24  1  0
 24 25  1  0
 25 26  1  0
 26 27  1  0
 27 28  1  0
 26 29  1  0
 29 30  2  0
 30 31  1  0
 31 32  2  0
 32 33  1  0
 33 34  2  0
 31 35  1  0
 35 36  1  0
 35 37  1  0
 35 38  1  0
 13 39  1  0
 39 40  2  0
 40 41  1  0
 41 42  2  0
 42 43  1  0
 16 11  2  0
 21  2  1  0
 28 26  1  0
 34 29  1  0
 43 39  1  0
M  END
$$$$
