
     RDKit          3D

 43 47  0  0  0  0  0  0  0  0999 V2000
  -14.6718  -43.4225  -11.2479 C   0  0  0  0  0  0  0  0  0  0  0  0
  -15.7861  -43.8043  -10.3001 C   0  0  2  0  0  0  0  0  0  0  0  0
  -16.3235  -45.1435  -10.8198 C   0  0  0  0  0  0  0  0  0  0  0  0
  -15.8604  -46.2656   -9.9212 C   0  0  0  0  0  0  0  0  0  0  0  0
  -16.9802  -47.2573   -9.6399 C   0  0  0  0  0  0  0  0  0  0  0  0
  -17.9015  -46.5593   -8.6660 C   0  0  0  0  0  0  0  0  0  0  0  0
  -19.0595  -47.4192   -8.2852 C   0  0  0  0  0  0  0  0  0  0  0  0
  -20.1289  -46.6549   -7.5370 C   0  0  0  0  0  0  0  0  0  0  0  0
  -19.8594  -46.6061   -6.0508 C   0  0  0  0  0  0  0  0  0  0  0  0
  -20.0124  -45.2756   -5.4944 N   0  0  0  0  0  0  0  0  0  0  0  0
  -20.1058  -43.9843   -6.0950 C   0  0  0  0  0  0  0  0  0  0  0  0
  -21.1335  -43.2513   -5.4417 C   0  0  0  0  0  0  0  0  0  0  0  0
  -21.4819  -41.9710   -5.7677 C   0  0  0  0  0  0  0  0  0  0  0  0
  -20.7621  -41.4219   -6.7881 C   0  0  0  0  0  0  0  0  0  0  0  0
  -19.7176  -42.0899   -7.4910 C   0  0  0  0  0  0  0  0  0  0  0  0
  -19.4053  -43.3853   -7.1214 C   0  0  0  0  0  0  0  0  0  0  0  0
  -19.1752  -41.2063   -8.5221 C   0  0  0  0  0  0  0  0  0  0  0  0
  -20.0321  -40.4511   -9.2051 O   0  0  0  0  0  0  0  0  0  0  0  0
  -17.8826  -40.9231   -9.0165 N   0  0  0  0  0  0  0  0  0  0  0  0
  -16.7643  -41.8582   -9.0944 C   0  0  1  0  0  0  0  0  0  0  0  0
  -16.8963  -42.7748  -10.2537 C   0  0  0  0  0  0  0  0  0  0  0  0
  -15.4782  -41.1527   -8.8965 C   0  0  2  0  0  0  0  0  0  0  0  0
  -15.5135  -40.7288   -7.5163 O   0  0  0  0  0  0  0  0  0  0  0  0
  -15.2078  -39.9091   -9.6461 C   0  0  0  0  0  0  0  0  0  0  0  0
  -14.7833  -38.7615   -8.9220 N   0  0  0  0  0  0  0  0  0  0  0  0
  -15.0186  -37.5287   -9.7092 C   0  0  0  0  0  0  0  0  0  0  0  0
  -13.7615  -36.9212  -10.3636 C   0  0  0  0  0  0  0  0  0  0  0  0
  -14.4323  -36.2590   -9.2169 C   0  0  0  0  0  0  0  0  0  0  0  0
  -16.2952  -37.4116  -10.4550 C   0  0  0  0  0  0  0  0  0  0  0  0
  -17.1269  -36.3134  -10.4082 C   0  0  0  0  0  0  0  0  0  0  0  0
  -18.3073  -36.2678  -11.1356 C   0  0  0  0  0  0  0  0  0  0  0  0
  -18.6649  -37.3445  -11.9285 C   0  0  0  0  0  0  0  0  0  0  0  0
  -17.8129  -38.4229  -11.9520 C   0  0  0  0  0  0  0  0  0  0  0  0
  -16.6746  -38.4389  -11.2357 N   0  0  0  0  0  0  0  0  0  0  0  0
  -19.1775  -35.0910  -11.0652 C   0  0  0  0  0  0  0  0  0  0  0  0
  -20.0892  -35.0191  -12.2543 C   0  0  0  0  0  0  0  0  0  0  0  0
  -20.0834  -35.1893   -9.8376 C   0  0  0  0  0  0  0  0  0  0  0  0
  -18.4226  -33.7924  -10.9324 C   0  0  0  0  0  0  0  0  0  0  0  0
  -22.5405  -41.2495   -5.0793 C   0  0  0  0  0  0  0  0  0  0  0  0
  -23.1472  -40.1592   -5.5699 N   0  0  0  0  0  0  0  0  0  0  0  0
  -24.0871  -39.7391   -4.6703 C   0  0  0  0  0  0  0  0  0  0  0  0
  -23.9992  -40.6371   -3.6309 C   0  0  0  0  0  0  0  0  0  0  0  0
  -23.0808  -41.4925   -3.9281 O   0  0  0  0  0  0  0  0  0  0  0  0
  2  1  1  6
  2  3  1  0
  3  4  1  0
  4  5  1  0
  5  6  1  0
  6  7  1  0
  7  8  1  0
  8  9  1  0
  9 10  1  0
 10 11  1  0
 11 12  1  0
 12 13  2  0
 13 14  1  0
 14 15  2  0
 15 16  1  0
 15 17  1  0
 17 18  2  0
 17 19  1  0
 19 20  1  0
 20 21  1  6
 20 22  1  0
 22 23  1  1
 22 24  1  0
 24 25  1  0
 25 26  1  0
 26 27  1  0
 27 28  1  0
 26 29  1  0
 29 30  2  0
 30 31  1  0
 31 32  2  0
 32 33  1  0
 33 34  2  0
 31 35  1  0
 35 36  1  0
 35 37  1  0
 35 38  1  0
 13 39  1  0
 39 40  2  0
 40 41  1  0
 41 42  2  0
 42 43  1  0
 16 11  2  0
 21  2  1  0
 28 26  1  0
 34 29  1  0
 43 39  1  0
M  END
$$$$
