
     RDKit          3D

 43 47  0  0  0  0  0  0  0  0999 V2000
  -19.0085  -37.6544   -4.8844 C   0  0  0  0  0  0  0  0  0  0  0  0
  -19.5581  -38.8964   -5.5485 C   0  0  2  0  0  0  0  0  0  0  0  0
  -20.7287  -39.3474   -4.6663 C   0  0  0  0  0  0  0  0  0  0  0  0
  -22.0380  -39.0206   -5.3446 C   0  0  0  0  0  0  0  0  0  0  0  0
  -23.0317  -40.1674   -5.2278 C   0  0  0  0  0  0  0  0  0  0  0  0
  -22.5416  -41.2250   -6.1900 C   0  0  0  0  0  0  0  0  0  0  0  0
  -23.4281  -42.4248   -6.1934 C   0  0  0  0  0  0  0  0  0  0  0  0
  -22.8180  -43.5954   -6.9317 C   0  0  0  0  0  0  0  0  0  0  0  0
  -23.1126  -43.5500   -8.4132 C   0  0  0  0  0  0  0  0  0  0  0  0
  -21.9370  -43.7873   -9.2284 N   0  0  0  0  0  0  0  0  0  0  0  0
  -20.5414  -43.7933   -8.9292 C   0  0  0  0  0  0  0  0  0  0  0  0
  -19.9418  -44.9084   -9.5751 C   0  0  0  0  0  0  0  0  0  0  0  0
  -18.6107  -45.2074   -9.5008 C   0  0  0  0  0  0  0  0  0  0  0  0
  -17.8695  -44.3450   -8.7472 C   0  0  0  0  0  0  0  0  0  0  0  0
  -18.3952  -43.2060   -8.0707 C   0  0  0  0  0  0  0  0  0  0  0  0
  -19.7497  -42.9492   -8.1784 C   0  0  0  0  0  0  0  0  0  0  0  0
  -17.3202  -42.5184   -7.3569 C   0  0  0  0  0  0  0  0  0  0  0  0
  -16.4043  -43.2658   -6.7458 O   0  0  0  0  0  0  0  0  0  0  0  0
  -16.9740  -41.1672   -7.1330 N   0  0  0  0  0  0  0  0  0  0  0  0
  -17.9026  -40.0476   -7.0086 C   0  0  1  0  0  0  0  0  0  0  0  0
  -18.5308  -40.0035   -5.6652 C   0  0  0  0  0  0  0  0  0  0  0  0
  -17.3003  -38.8069   -7.5462 C   0  0  2  0  0  0  0  0  0  0  0  0
  -18.3867  -38.1554   -8.2397 O   0  0  0  0  0  0  0  0  0  0  0  0
  -16.2311  -38.8978   -8.5611 C   0  0  0  0  0  0  0  0  0  0  0  0
  -14.9635  -39.4053   -8.1647 N   0  0  0  0  0  0  0  0  0  0  0  0
  -14.1804  -39.8391   -9.3451 C   0  0  0  0  0  0  0  0  0  0  0  0
  -14.2567  -41.3461   -9.6623 C   0  0  0  0  0  0  0  0  0  0  0  0
  -13.0167  -40.7313   -9.1261 C   0  0  0  0  0  0  0  0  0  0  0  0
  -14.0811  -38.9082  -10.4954 C   0  0  0  0  0  0  0  0  0  0  0  0
  -13.7754  -39.2915  -11.7836 C   0  0  0  0  0  0  0  0  0  0  0  0
  -13.7025  -38.3675  -12.8158 C   0  0  0  0  0  0  0  0  0  0  0  0
  -13.9406  -37.0292  -12.5548 C   0  0  0  0  0  0  0  0  0  0  0  0
  -14.2426  -36.6817  -11.2596 C   0  0  0  0  0  0  0  0  0  0  0  0
  -14.3062  -37.6001  -10.2790 N   0  0  0  0  0  0  0  0  0  0  0  0
  -13.3706  -38.7990  -14.1763 C   0  0  0  0  0  0  0  0  0  0  0  0
  -13.1431  -37.6220  -15.0780 C   0  0  0  0  0  0  0  0  0  0  0  0
  -12.0609  -39.5877  -14.1646 C   0  0  0  0  0  0  0  0  0  0  0  0
  -14.4071  -39.7071  -14.7884 C   0  0  0  0  0  0  0  0  0  0  0  0
  -18.0292  -46.3582  -10.1734 C   0  0  0  0  0  0  0  0  0  0  0  0
  -18.2141  -46.6415  -11.4707 N   0  0  0  0  0  0  0  0  0  0  0  0
  -17.5288  -47.7859  -11.7708 C   0  0  0  0  0  0  0  0  0  0  0  0
  -16.9354  -48.1566  -10.5857 C   0  0  0  0  0  0  0  0  0  0  0  0
  -17.2643  -47.2858   -9.6930 O   0  0  0  0  0  0  0  0  0  0  0  0
  2  1  1  1
  2  3  1  0
  3  4  1  0
  4  5  1  0
  5  6  1  0
  6  7  1  0
  7  8  1  0
  8  9  1  0
  9 10  1  0
 10 11  1  0
 11 12  1  0
 12 13  2  0
 13 14  1  0
 14 15  2  0
 15 16  1  0
 15 17  1  0
 17 18  2  0
 17 19  1  0
 19 20  1  0
 20 21  1  1
 20 22  1  0
 22 23  1  6
 22 24  1  0
 24 25  1  0
 25 26  1  0
 26 27  1  0
 27 28  1  0
 26 29  1  0
 29 30  2  0
 30 31  1  0
 31 32  2  0
 32 33  1  0
 33 34  2  0
 31 35  1  0
 35 36  1  0
 35 37  1  0
 35 38  1  0
 13 39  1  0
 39 40  2  0
 40 41  1  0
 41 42  2  0
 42 43  1  0
 16 11  2  0
 21  2  1  0
 28 26  1  0
 34 29  1  0
 43 39  1  0
M  END
$$$$
