
     RDKit          3D

 38 40  0  0  0  0  0  0  0  0999 V2000
  -18.1726  -38.1295   -5.6880 C   0  0  0  0  0  0  0  0  0  0  0  0
  -19.3412  -38.5467   -6.5099 C   0  0  2  0  0  0  0  0  0  0  0  0
  -20.2579  -39.4035   -5.6608 C   0  0  0  0  0  0  0  0  0  0  0  0
  -21.6881  -38.8502   -5.6677 C   0  0  0  0  0  0  0  0  0  0  0  0
  -22.6202  -39.6395   -4.8131 C   0  0  0  0  0  0  0  0  0  0  0  0
  -23.2209  -40.7594   -5.6015 C   0  0  0  0  0  0  0  0  0  0  0  0
  -22.7769  -42.0755   -4.9664 C   0  0  0  0  0  0  0  0  0  0  0  0
  -22.7333  -43.1233   -6.0440 C   0  0  0  0  0  0  0  0  0  0  0  0
  -21.4824  -43.9735   -5.9288 C   0  0  0  0  0  0  0  0  0  0  0  0
  -20.3537  -43.3877   -6.7936 C   0  0  0  0  0  0  0  0  0  0  0  0
  -19.6104  -44.4742   -7.4860 C   0  0  0  0  0  0  0  0  0  0  0  0
  -20.2466  -45.5815   -7.6074 O   0  0  0  0  0  0  0  0  0  0  0  0
  -18.2990  -44.3721   -7.9990 N   0  0  0  0  0  0  0  0  0  0  0  0
  -17.3842  -45.4826   -7.7538 C   0  0  0  0  0  0  0  0  0  0  0  0
  -17.8306  -43.2030   -8.7665 C   0  0  1  0  0  0  0  0  0  0  0  0
  -18.8639  -42.6491   -9.6733 C   0  0  0  0  0  0  0  0  0  0  0  0
  -17.1458  -42.2446   -7.8777 C   0  0  0  0  0  0  0  0  0  0  0  0
  -15.9993  -42.6763   -7.4530 O   0  0  0  0  0  0  0  0  0  0  0  0
  -17.5747  -40.9752   -7.4558 N   0  0  0  0  0  0  0  0  0  0  0  0
  -17.8665  -39.7975   -8.1920 C   0  0  1  0  0  0  0  0  0  0  0  0
  -19.1025  -39.0631   -7.8570 C   0  0  0  0  0  0  0  0  0  0  0  0
  -16.6511  -38.9007   -8.4475 C   0  0  2  0  0  0  0  0  0  0  0  0
  -17.1941  -37.7657   -9.0986 O   0  0  0  0  0  0  0  0  0  0  0  0
  -15.7760  -39.5162   -9.5628 C   0  0  0  0  0  0  0  0  0  0  0  0
  -14.5300  -39.8676   -8.9127 N   0  0  0  0  0  0  0  0  0  0  0  0
  -13.4541  -40.1650   -9.8118 C   0  0  0  0  0  0  0  0  0  0  0  0
  -12.2345  -40.8702   -9.3372 C   0  0  0  0  0  0  0  0  0  0  0  0
  -13.3019  -41.6806  -10.0538 C   0  0  0  0  0  0  0  0  0  0  0  0
  -13.3136  -39.2913  -10.9943 C   0  0  0  0  0  0  0  0  0  0  0  0
  -13.7404  -37.9873  -11.0523 C   0  0  0  0  0  0  0  0  0  0  0  0
  -13.6373  -37.1844  -12.1552 C   0  0  0  0  0  0  0  0  0  0  0  0
  -13.0654  -37.7127  -13.2908 C   0  0  0  0  0  0  0  0  0  0  0  0
  -12.6357  -39.0235  -13.2316 C   0  0  0  0  0  0  0  0  0  0  0  0
  -12.7501  -39.7875  -12.1356 N   0  0  0  0  0  0  0  0  0  0  0  0
  -14.1311  -35.7740  -12.1270 C   0  0  0  0  0  0  0  0  0  0  0  0
  -15.6143  -35.7984  -11.9178 C   0  0  0  0  0  0  0  0  0  0  0  0
  -13.8282  -35.0867  -13.4518 C   0  0  0  0  0  0  0  0  0  0  0  0
  -13.3685  -35.0395  -11.0596 C   0  0  0  0  0  0  0  0  0  0  0  0
  2  1  1  1
  2  3  1  0
  3  4  1  0
  4  5  1  0
  5  6  1  0
  6  7  1  0
  7  8  1  0
  8  9  1  0
  9 10  1  0
 10 11  1  0
 11 12  2  0
 11 13  1  0
 13 14  1  0
 13 15  1  0
 15 16  1  1
 15 17  1  0
 17 18  2  0
 17 19  1  0
 19 20  1  0
 20 21  1  1
 20 22  1  0
 22 23  1  6
 22 24  1  0
 24 25  1  0
 25 26  1  0
 26 27  1  0
 27 28  1  0
 26 29  1  0
 29 30  2  0
 30 31  1  0
 31 32  2  0
 32 33  1  0
 33 34  2  0
 31 35  1  0
 35 36  1  0
 35 37  1  0
 35 38  1  0
 21  2  1  0
 28 26  1  0
 34 29  1  0
M  END
$$$$
