
     RDKit          3D

 38 40  0  0  0  0  0  0  0  0999 V2000
  -18.0089  -37.6142   -6.0169 C   0  0  0  0  0  0  0  0  0  0  0  0
  -18.8172  -38.1275   -7.1563 C   0  0  2  0  0  0  0  0  0  0  0  0
  -20.2439  -38.3366   -6.6913 C   0  0  0  0  0  0  0  0  0  0  0  0
  -21.2310  -37.5899   -7.5966 C   0  0  0  0  0  0  0  0  0  0  0  0
  -22.6475  -37.7345   -7.1550 C   0  0  0  0  0  0  0  0  0  0  0  0
  -23.2574  -38.9550   -7.7672 C   0  0  0  0  0  0  0  0  0  0  0  0
  -23.6321  -39.9129   -6.6383 C   0  0  0  0  0  0  0  0  0  0  0  0
  -23.5606  -41.3165   -7.1731 C   0  0  0  0  0  0  0  0  0  0  0  0
  -22.8780  -42.2432   -6.1851 C   0  0  0  0  0  0  0  0  0  0  0  0
  -21.3692  -42.3181   -6.4735 C   0  0  0  0  0  0  0  0  0  0  0  0
  -20.8794  -43.7150   -6.3267 C   0  0  0  0  0  0  0  0  0  0  0  0
  -21.7795  -44.6238   -6.4243 O   0  0  0  0  0  0  0  0  0  0  0  0
  -19.5392  -44.0933   -6.0949 N   0  0  0  0  0  0  0  0  0  0  0  0
  -19.2874  -45.1294   -5.0983 C   0  0  0  0  0  0  0  0  0  0  0  0
  -18.4031  -43.4911   -6.8174 C   0  0  1  0  0  0  0  0  0  0  0  0
  -18.6999  -43.2137   -8.2428 C   0  0  0  0  0  0  0  0  0  0  0  0
  -17.8232  -42.3837   -6.0333 C   0  0  0  0  0  0  0  0  0  0  0  0
  -17.1940  -42.7872   -4.9737 O   0  0  0  0  0  0  0  0  0  0  0  0
  -17.8736  -41.0036   -6.2900 N   0  0  0  0  0  0  0  0  0  0  0  0
  -17.3833  -40.2397   -7.3810 C   0  0  1  0  0  0  0  0  0  0  0  0
  -18.2758  -39.2190   -7.9648 C   0  0  0  0  0  0  0  0  0  0  0  0
  -15.9274  -39.7888   -7.2265 C   0  0  2  0  0  0  0  0  0  0  0  0
  -16.0047  -38.3743   -7.2337 O   0  0  0  0  0  0  0  0  0  0  0  0
  -15.1544  -40.0697   -8.5350 C   0  0  0  0  0  0  0  0  0  0  0  0
  -13.9269  -40.7149   -8.1159 N   0  0  0  0  0  0  0  0  0  0  0  0
  -13.1676  -41.2972   -9.1829 C   0  0  0  0  0  0  0  0  0  0  0  0
  -11.6980  -41.4850   -9.0610 C   0  0  0  0  0  0  0  0  0  0  0  0
  -12.6004  -42.6806   -8.8041 C   0  0  0  0  0  0  0  0  0  0  0  0
  -13.7218  -41.1627  -10.5453 C   0  0  0  0  0  0  0  0  0  0  0  0
  -13.6173  -42.1194  -11.5249 C   0  0  0  0  0  0  0  0  0  0  0  0
  -14.1048  -41.9863  -12.7962 C   0  0  0  0  0  0  0  0  0  0  0  0
  -14.7481  -40.8140  -13.1246 C   0  0  0  0  0  0  0  0  0  0  0  0
  -14.8538  -39.8528  -12.1391 C   0  0  0  0  0  0  0  0  0  0  0  0
  -14.3654  -40.0111  -10.9003 N   0  0  0  0  0  0  0  0  0  0  0  0
  -13.9438  -43.0827  -13.7991 C   0  0  0  0  0  0  0  0  0  0  0  0
  -15.1033  -43.0288  -14.7461 C   0  0  0  0  0  0  0  0  0  0  0  0
  -13.9371  -44.4353  -13.0995 C   0  0  0  0  0  0  0  0  0  0  0  0
  -12.6016  -42.9141  -14.4553 C   0  0  0  0  0  0  0  0  0  0  0  0
  2  1  1  1
  2  3  1  0
  3  4  1  0
  4  5  1  0
  5  6  1  0
  6  7  1  0
  7  8  1  0
  8  9  1  0
  9 10  1  0
 10 11  1  0
 11 12  2  0
 11 13  1  0
 13 14  1  0
 13 15  1  0
 15 16  1  6
 15 17  1  0
 17 18  2  0
 17 19  1  0
 19 20  1  0
 20 21  1  1
 20 22  1  0
 22 23  1  6
 22 24  1  0
 24 25  1  0
 25 26  1  0
 26 27  1  0
 27 28  1  0
 26 29  1  0
 29 30  2  0
 30 31  1  0
 31 32  2  0
 32 33  1  0
 33 34  2  0
 31 35  1  0
 35 36  1  0
 35 37  1  0
 35 38  1  0
 21  2  1  0
 28 26  1  0
 34 29  1  0
M  END
$$$$
