
     RDKit          3D

 38 40  0  0  0  0  0  0  0  0999 V2000
  -17.9773  -40.9814   -4.9805 C   0  0  0  0  0  0  0  0  0  0  0  0
  -18.9596  -39.9442   -5.3980 C   0  0  2  0  0  0  0  0  0  0  0  0
  -20.3147  -40.5966   -5.5808 C   0  0  0  0  0  0  0  0  0  0  0  0
  -21.3850  -39.8808   -4.7479 C   0  0  0  0  0  0  0  0  0  0  0  0
  -22.7305  -40.5118   -4.8653 C   0  0  0  0  0  0  0  0  0  0  0  0
  -23.4739  -39.9311   -6.0257 C   0  0  0  0  0  0  0  0  0  0  0  0
  -23.7286  -41.0514   -7.0320 C   0  0  0  0  0  0  0  0  0  0  0  0
  -23.7953  -40.4407   -8.4045 C   0  0  0  0  0  0  0  0  0  0  0  0
  -23.0227  -41.2724   -9.4105 C   0  0  0  0  0  0  0  0  0  0  0  0
  -21.5742  -40.7683   -9.5242 C   0  0  0  0  0  0  0  0  0  0  0  0
  -21.1311  -40.7721  -10.9442 C   0  0  0  0  0  0  0  0  0  0  0  0
  -22.0755  -40.7574  -11.8123 O   0  0  0  0  0  0  0  0  0  0  0  0
  -19.7897  -40.7907  -11.3841 N   0  0  0  0  0  0  0  0  0  0  0  0
  -19.4468  -41.6868  -12.4839 C   0  0  0  0  0  0  0  0  0  0  0  0
  -18.7407  -39.9454  -10.7838 C   0  0  1  0  0  0  0  0  0  0  0  0
  -19.2221  -38.5930  -10.4149 C   0  0  0  0  0  0  0  0  0  0  0  0
  -18.0078  -40.6945   -9.7450 C   0  0  0  0  0  0  0  0  0  0  0  0
  -17.2547  -41.6314  -10.2310 O   0  0  0  0  0  0  0  0  0  0  0  0
  -18.0324  -40.5186   -8.3515 N   0  0  0  0  0  0  0  0  0  0  0  0
  -17.6667  -39.4094   -7.5453 C   0  0  1  0  0  0  0  0  0  0  0  0
  -18.5860  -39.0119   -6.4608 C   0  0  0  0  0  0  0  0  0  0  0  0
  -16.1850  -39.3777   -7.1577 C   0  0  2  0  0  0  0  0  0  0  0  0
  -15.9569  -38.0293   -6.7877 O   0  0  0  0  0  0  0  0  0  0  0  0
  -15.3126  -39.5090   -8.4267 C   0  0  0  0  0  0  0  0  0  0  0  0
  -14.2570  -40.4324   -8.0638 N   0  0  0  0  0  0  0  0  0  0  0  0
  -13.2187  -40.5624   -9.0433 C   0  0  0  0  0  0  0  0  0  0  0  0
  -11.8811  -41.0949   -8.6728 C   0  0  0  0  0  0  0  0  0  0  0  0
  -12.8743  -42.0378   -9.3319 C   0  0  0  0  0  0  0  0  0  0  0  0
  -13.2885  -39.6612  -10.2113 C   0  0  0  0  0  0  0  0  0  0  0  0
  -12.4697  -38.5759  -10.4057 C   0  0  0  0  0  0  0  0  0  0  0  0
  -12.5504  -37.7229  -11.4723 C   0  0  0  0  0  0  0  0  0  0  0  0
  -13.5170  -37.9630  -12.4230 C   0  0  0  0  0  0  0  0  0  0  0  0
  -14.3393  -39.0548  -12.2275 C   0  0  0  0  0  0  0  0  0  0  0  0
  -14.2371  -39.8743  -11.1711 N   0  0  0  0  0  0  0  0  0  0  0  0
  -11.6153  -36.5642  -11.6012 C   0  0  0  0  0  0  0  0  0  0  0  0
  -12.0447  -35.5027  -10.6353 C   0  0  0  0  0  0  0  0  0  0  0  0
  -11.6716  -36.0007  -13.0148 C   0  0  0  0  0  0  0  0  0  0  0  0
  -10.2178  -37.0724  -11.3797 C   0  0  0  0  0  0  0  0  0  0  0  0
  2  1  1  6
  2  3  1  0
  3  4  1  0
  4  5  1  0
  5  6  1  0
  6  7  1  0
  7  8  1  0
  8  9  1  0
  9 10  1  0
 10 11  1  0
 11 12  2  0
 11 13  1  0
 13 14  1  0
 13 15  1  0
 15 16  1  1
 15 17  1  0
 17 18  2  0
 17 19  1  0
 19 20  1  0
 20 21  1  1
 20 22  1  0
 22 23  1  6
 22 24  1  0
 24 25  1  0
 25 26  1  0
 26 27  1  0
 27 28  1  0
 26 29  1  0
 29 30  2  0
 30 31  1  0
 31 32  2  0
 32 33  1  0
 33 34  2  0
 31 35  1  0
 35 36  1  0
 35 37  1  0
 35 38  1  0
 21  2  1  0
 28 26  1  0
 34 29  1  0
M  END
$$$$
