
     RDKit          3D

 38 40  0  0  0  0  0  0  0  0999 V2000
  -18.4300  -38.2239   -6.3824 C   0  0  0  0  0  0  0  0  0  0  0  0
  -19.4897  -38.7705   -7.2731 C   0  0  2  0  0  0  0  0  0  0  0  0
  -20.5280  -39.4763   -6.4252 C   0  0  0  0  0  0  0  0  0  0  0  0
  -21.9327  -38.9319   -6.7117 C   0  0  0  0  0  0  0  0  0  0  0  0
  -22.9856  -39.5703   -5.8714 C   0  0  0  0  0  0  0  0  0  0  0  0
  -23.5020  -40.8045   -6.5397 C   0  0  0  0  0  0  0  0  0  0  0  0
  -23.1736  -41.9984   -5.6456 C   0  0  0  0  0  0  0  0  0  0  0  0
  -23.0121  -43.2089   -6.5230 C   0  0  0  0  0  0  0  0  0  0  0  0
  -21.8057  -44.0285   -6.1060 C   0  0  0  0  0  0  0  0  0  0  0  0
  -20.5611  -43.5924   -6.8972 C   0  0  0  0  0  0  0  0  0  0  0  0
  -19.7572  -44.7779   -7.2987 C   0  0  0  0  0  0  0  0  0  0  0  0
  -20.3960  -45.8901   -7.3217 O   0  0  0  0  0  0  0  0  0  0  0  0
  -18.3881  -44.7612   -7.6429 N   0  0  0  0  0  0  0  0  0  0  0  0
  -17.5375  -45.8162   -7.1012 C   0  0  0  0  0  0  0  0  0  0  0  0
  -17.7980  -43.7339   -8.5214 C   0  0  1  0  0  0  0  0  0  0  0  0
  -18.6915  -43.3364   -9.6352 C   0  0  0  0  0  0  0  0  0  0  0  0
  -17.2148  -42.6425   -7.7175 C   0  0  0  0  0  0  0  0  0  0  0  0
  -16.1434  -42.9985   -7.0799 O   0  0  0  0  0  0  0  0  0  0  0  0
  -17.6676  -41.3211   -7.5684 N   0  0  0  0  0  0  0  0  0  0  0  0
  -17.8350  -40.2802   -8.5185 C   0  0  1  0  0  0  0  0  0  0  0  0
  -19.0881  -39.5009   -8.4745 C   0  0  0  0  0  0  0  0  0  0  0  0
  -16.5775  -39.4374   -8.7530 C   0  0  2  0  0  0  0  0  0  0  0  0
  -16.9224  -38.6048   -9.8461 O   0  0  0  0  0  0  0  0  0  0  0  0
  -15.4668  -40.3200   -9.3663 C   0  0  0  0  0  0  0  0  0  0  0  0
  -14.3396  -39.4297   -9.5546 N   0  0  0  0  0  0  0  0  0  0  0  0
  -13.5803  -39.6762  -10.7449 C   0  0  0  0  0  0  0  0  0  0  0  0
  -12.6426  -40.8267  -10.8285 C   0  0  0  0  0  0  0  0  0  0  0  0
  -14.0193  -40.9729  -11.4554 C   0  0  0  0  0  0  0  0  0  0  0  0
  -13.3021  -38.5123  -11.6104 C   0  0  0  0  0  0  0  0  0  0  0  0
  -13.7972  -37.2492  -11.3972 C   0  0  0  0  0  0  0  0  0  0  0  0
  -13.5645  -36.1755  -12.2125 C   0  0  0  0  0  0  0  0  0  0  0  0
  -12.7785  -36.3658  -13.3268 C   0  0  0  0  0  0  0  0  0  0  0  0
  -12.2802  -37.6356  -13.5403 C   0  0  0  0  0  0  0  0  0  0  0  0
  -12.5255  -38.6702  -12.7232 N   0  0  0  0  0  0  0  0  0  0  0  0
  -14.1467  -34.8347  -11.9013 C   0  0  0  0  0  0  0  0  0  0  0  0
  -13.7512  -33.8851  -12.9904 C   0  0  0  0  0  0  0  0  0  0  0  0
  -13.6021  -34.3224  -10.5746 C   0  0  0  0  0  0  0  0  0  0  0  0
  -15.6318  -35.0033  -11.7378 C   0  0  0  0  0  0  0  0  0  0  0  0
  2  1  1  1
  2  3  1  0
  3  4  1  0
  4  5  1  0
  5  6  1  0
  6  7  1  0
  7  8  1  0
  8  9  1  0
  9 10  1  0
 10 11  1  0
 11 12  2  0
 11 13  1  0
 13 14  1  0
 13 15  1  0
 15 16  1  6
 15 17  1  0
 17 18  2  0
 17 19  1  0
 19 20  1  0
 20 21  1  1
 20 22  1  0
 22 23  1  6
 22 24  1  0
 24 25  1  0
 25 26  1  0
 26 27  1  0
 27 28  1  0
 26 29  1  0
 29 30  2  0
 30 31  1  0
 31 32  2  0
 32 33  1  0
 33 34  2  0
 31 35  1  0
 35 36  1  0
 35 37  1  0
 35 38  1  0
 21  2  1  0
 28 26  1  0
 34 29  1  0
M  END
$$$$
