
     RDKit          3D

 38 40  0  0  0  0  0  0  0  0999 V2000
  -18.7499  -38.1979   -5.6121 C   0  0  0  0  0  0  0  0  0  0  0  0
  -19.3016  -38.4281   -6.9751 C   0  0  2  0  0  0  0  0  0  0  0  0
  -20.7217  -38.9409   -6.8498 C   0  0  0  0  0  0  0  0  0  0  0  0
  -21.6911  -38.0759   -7.6645 C   0  0  0  0  0  0  0  0  0  0  0  0
  -23.1091  -38.5194   -7.5411 C   0  0  0  0  0  0  0  0  0  0  0  0
  -23.4180  -39.5555   -8.5742 C   0  0  0  0  0  0  0  0  0  0  0  0
  -23.7729  -40.8529   -7.8507 C   0  0  0  0  0  0  0  0  0  0  0  0
  -23.3957  -42.0036   -8.7423 C   0  0  0  0  0  0  0  0  0  0  0  0
  -22.7044  -43.1006   -7.9551 C   0  0  0  0  0  0  0  0  0  0  0  0
  -21.1798  -42.9004   -7.9806 C   0  0  0  0  0  0  0  0  0  0  0  0
  -20.4859  -44.2046   -8.1540 C   0  0  0  0  0  0  0  0  0  0  0  0
  -21.1991  -45.1405   -8.6649 O   0  0  0  0  0  0  0  0  0  0  0  0
  -19.1439  -44.4715   -7.8059 N   0  0  0  0  0  0  0  0  0  0  0  0
  -18.8562  -45.7263   -7.1183 C   0  0  0  0  0  0  0  0  0  0  0  0
  -18.0395  -43.5435   -8.1130 C   0  0  1  0  0  0  0  0  0  0  0  0
  -18.1866  -42.8777   -9.4290 C   0  0  0  0  0  0  0  0  0  0  0  0
  -17.7637  -42.6706   -6.9556 C   0  0  0  0  0  0  0  0  0  0  0  0
  -17.2222  -43.3025   -5.9612 O   0  0  0  0  0  0  0  0  0  0  0  0
  -18.0111  -41.2953   -6.8125 N   0  0  0  0  0  0  0  0  0  0  0  0
  -17.5157  -40.1788   -7.5351 C   0  0  1  0  0  0  0  0  0  0  0  0
  -18.4815  -39.1431   -7.9520 C   0  0  0  0  0  0  0  0  0  0  0  0
  -16.1901  -39.6255   -7.0026 C   0  0  2  0  0  0  0  0  0  0  0  0
  -16.4816  -38.2730   -6.6981 O   0  0  0  0  0  0  0  0  0  0  0  0
  -15.1836  -39.4776   -8.1661 C   0  0  0  0  0  0  0  0  0  0  0  0
  -14.8560  -40.8340   -8.5552 N   0  0  0  0  0  0  0  0  0  0  0  0
  -13.7982  -40.9372   -9.5168 C   0  0  0  0  0  0  0  0  0  0  0  0
  -12.4456  -41.4070   -9.1174 C   0  0  0  0  0  0  0  0  0  0  0  0
  -13.3885  -42.4017   -9.7742 C   0  0  0  0  0  0  0  0  0  0  0  0
  -13.8873  -40.0598  -10.7015 C   0  0  0  0  0  0  0  0  0  0  0  0
  -13.2776  -38.8339  -10.8084 C   0  0  0  0  0  0  0  0  0  0  0  0
  -13.3813  -38.0065  -11.8930 C   0  0  0  0  0  0  0  0  0  0  0  0
  -14.1481  -38.4253  -12.9572 C   0  0  0  0  0  0  0  0  0  0  0  0
  -14.7601  -39.6583  -12.8496 C   0  0  0  0  0  0  0  0  0  0  0  0
  -14.6407  -40.4485  -11.7728 N   0  0  0  0  0  0  0  0  0  0  0  0
  -12.6815  -36.6862  -11.9212 C   0  0  0  0  0  0  0  0  0  0  0  0
  -12.8752  -36.0793  -13.2770 C   0  0  0  0  0  0  0  0  0  0  0  0
  -11.1915  -36.8780  -11.6718 C   0  0  0  0  0  0  0  0  0  0  0  0
  -13.2191  -35.8549  -10.7896 C   0  0  0  0  0  0  0  0  0  0  0  0
  2  1  1  1
  2  3  1  0
  3  4  1  0
  4  5  1  0
  5  6  1  0
  6  7  1  0
  7  8  1  0
  8  9  1  0
  9 10  1  0
 10 11  1  0
 11 12  2  0
 11 13  1  0
 13 14  1  0
 13 15  1  0
 15 16  1  6
 15 17  1  0
 17 18  2  0
 17 19  1  0
 19 20  1  0
 20 21  1  1
 20 22  1  0
 22 23  1  6
 22 24  1  0
 24 25  1  0
 25 26  1  0
 26 27  1  0
 27 28  1  0
 26 29  1  0
 29 30  2  0
 30 31  1  0
 31 32  2  0
 32 33  1  0
 33 34  2  0
 31 35  1  0
 35 36  1  0
 35 37  1  0
 35 38  1  0
 21  2  1  0
 28 26  1  0
 34 29  1  0
M  END
$$$$
