
     RDKit          3D

 38 40  0  0  0  0  0  0  0  0999 V2000
  -18.4257  -37.9414   -5.9630 C   0  0  0  0  0  0  0  0  0  0  0  0
  -19.2305  -38.4103   -7.1238 C   0  0  2  0  0  0  0  0  0  0  0  0
  -20.4924  -39.0732   -6.6107 C   0  0  0  0  0  0  0  0  0  0  0  0
  -21.7391  -38.4453   -7.2458 C   0  0  0  0  0  0  0  0  0  0  0  0
  -23.0098  -39.0399   -6.7416 C   0  0  0  0  0  0  0  0  0  0  0  0
  -23.3858  -40.2300   -7.5655 C   0  0  0  0  0  0  0  0  0  0  0  0
  -23.3700  -41.4576   -6.6570 C   0  0  0  0  0  0  0  0  0  0  0  0
  -23.0365  -42.6580   -7.4991 C   0  0  0  0  0  0  0  0  0  0  0  0
  -22.0293  -43.5518   -6.8011 C   0  0  0  0  0  0  0  0  0  0  0  0
  -20.5973  -43.1710   -7.2132 C   0  0  0  0  0  0  0  0  0  0  0  0
  -19.7737  -44.3916   -7.4237 C   0  0  0  0  0  0  0  0  0  0  0  0
  -20.4359  -45.4657   -7.6552 O   0  0  0  0  0  0  0  0  0  0  0  0
  -18.3634  -44.4451   -7.3863 N   0  0  0  0  0  0  0  0  0  0  0  0
  -17.7434  -45.5565   -6.6718 C   0  0  0  0  0  0  0  0  0  0  0  0
  -17.5084  -43.4356   -8.0384 C   0  0  1  0  0  0  0  0  0  0  0  0
  -18.0471  -42.9671   -9.3374 C   0  0  0  0  0  0  0  0  0  0  0  0
  -17.1117  -42.3945   -7.0709 C   0  0  0  0  0  0  0  0  0  0  0  0
  -16.2712  -42.8224   -6.1811 O   0  0  0  0  0  0  0  0  0  0  0  0
  -17.5230  -41.0529   -7.0045 N   0  0  0  0  0  0  0  0  0  0  0  0
  -17.3764  -39.9860   -7.9288 C   0  0  1  0  0  0  0  0  0  0  0  0
  -18.5551  -39.1387   -8.1970 C   0  0  0  0  0  0  0  0  0  0  0  0
  -16.0627  -39.2106   -7.7878 C   0  0  2  0  0  0  0  0  0  0  0  0
  -16.4492  -37.8547   -7.9257 O   0  0  0  0  0  0  0  0  0  0  0  0
  -15.1961  -39.4220   -9.0500 C   0  0  0  0  0  0  0  0  0  0  0  0
  -14.1811  -40.3768   -8.6539 N   0  0  0  0  0  0  0  0  0  0  0  0
  -13.1396  -40.5712   -9.6192 C   0  0  0  0  0  0  0  0  0  0  0  0
  -11.7087  -40.5304   -9.2182 C   0  0  0  0  0  0  0  0  0  0  0  0
  -12.3709  -41.8880   -9.3865 C   0  0  0  0  0  0  0  0  0  0  0  0
  -13.4593  -40.2336  -11.0210 C   0  0  0  0  0  0  0  0  0  0  0  0
  -12.7965  -40.7386  -12.1127 C   0  0  0  0  0  0  0  0  0  0  0  0
  -13.0717  -40.4062  -13.4110 C   0  0  0  0  0  0  0  0  0  0  0  0
  -14.0838  -39.5035  -13.6487 C   0  0  0  0  0  0  0  0  0  0  0  0
  -14.7505  -38.9968  -12.5509 C   0  0  0  0  0  0  0  0  0  0  0  0
  -14.4585  -39.3410  -11.2882 N   0  0  0  0  0  0  0  0  0  0  0  0
  -12.2957  -41.0068  -14.5383 C   0  0  0  0  0  0  0  0  0  0  0  0
  -13.0751  -40.8123  -15.8028 C   0  0  0  0  0  0  0  0  0  0  0  0
  -12.0981  -42.4982  -14.3019 C   0  0  0  0  0  0  0  0  0  0  0  0
  -10.9324  -40.3731  -14.5490 C   0  0  0  0  0  0  0  0  0  0  0  0
  2  1  1  1
  2  3  1  0
  3  4  1  0
  4  5  1  0
  5  6  1  0
  6  7  1  0
  7  8  1  0
  8  9  1  0
  9 10  1  0
 10 11  1  0
 11 12  2  0
 11 13  1  0
 13 14  1  0
 13 15  1  0
 15 16  1  6
 15 17  1  0
 17 18  2  0
 17 19  1  0
 19 20  1  0
 20 21  1  1
 20 22  1  0
 22 23  1  6
 22 24  1  0
 24 25  1  0
 25 26  1  0
 26 27  1  0
 27 28  1  0
 26 29  1  0
 29 30  2  0
 30 31  1  0
 31 32  2  0
 32 33  1  0
 33 34  2  0
 31 35  1  0
 35 36  1  0
 35 37  1  0
 35 38  1  0
 21  2  1  0
 28 26  1  0
 34 29  1  0
M  END
$$$$
