
     RDKit          3D

 38 40  0  0  0  0  0  0  0  0999 V2000
  -19.2811  -38.8488   -5.2248 C   0  0  0  0  0  0  0  0  0  0  0  0
  -20.1435  -39.2508   -6.3692 C   0  0  2  0  0  0  0  0  0  0  0  0
  -21.1576  -40.2675   -5.8863 C   0  0  0  0  0  0  0  0  0  0  0  0
  -22.5849  -39.8245   -6.2300 C   0  0  0  0  0  0  0  0  0  0  0  0
  -23.6223  -40.7762   -5.7397 C   0  0  0  0  0  0  0  0  0  0  0  0
  -23.8763  -41.8361   -6.7637 C   0  0  0  0  0  0  0  0  0  0  0  0
  -23.4816  -43.1817   -6.1587 C   0  0  0  0  0  0  0  0  0  0  0  0
  -23.0490  -44.0884   -7.2777 C   0  0  0  0  0  0  0  0  0  0  0  0
  -21.7915  -44.8515   -6.9070 C   0  0  0  0  0  0  0  0  0  0  0  0
  -20.5419  -44.0855   -7.3729 C   0  0  0  0  0  0  0  0  0  0  0  0
  -19.5350  -45.0245   -7.9361 C   0  0  0  0  0  0  0  0  0  0  0  0
  -19.9996  -46.1536   -8.3299 O   0  0  0  0  0  0  0  0  0  0  0  0
  -18.1528  -44.7658   -8.0608 N   0  0  0  0  0  0  0  0  0  0  0  0
  -17.2251  -45.8268   -7.6818 C   0  0  0  0  0  0  0  0  0  0  0  0
  -17.6223  -43.4826   -8.5581 C   0  0  1  0  0  0  0  0  0  0  0  0
  -18.4326  -42.9029   -9.6554 C   0  0  0  0  0  0  0  0  0  0  0  0
  -17.2973  -42.5882   -7.4303 C   0  0  0  0  0  0  0  0  0  0  0  0
  -16.2643  -42.9814   -6.7523 O   0  0  0  0  0  0  0  0  0  0  0  0
  -17.9502  -41.4129   -7.0233 N   0  0  0  0  0  0  0  0  0  0  0  0
  -18.1583  -40.1811   -7.6966 C   0  0  1  0  0  0  0  0  0  0  0  0
  -19.5077  -39.5849   -7.6430 C   0  0  0  0  0  0  0  0  0  0  0  0
  -17.0175  -39.1730   -7.5259 C   0  0  2  0  0  0  0  0  0  0  0  0
  -17.6522  -37.9130   -7.6542 O   0  0  0  0  0  0  0  0  0  0  0  0
  -16.1098  -39.1982   -8.7767 C   0  0  0  0  0  0  0  0  0  0  0  0
  -16.1034  -37.8342   -9.2645 N   0  0  0  0  0  0  0  0  0  0  0  0
  -16.1065  -37.7141  -10.6927 C   0  0  0  0  0  0  0  0  0  0  0  0
  -16.7071  -38.7720  -11.5471 C   0  0  0  0  0  0  0  0  0  0  0  0
  -17.5301  -37.5278  -11.2564 C   0  0  0  0  0  0  0  0  0  0  0  0
  -15.0455  -36.8804  -11.2933 C   0  0  0  0  0  0  0  0  0  0  0  0
  -13.8307  -37.3574  -11.7205 C   0  0  0  0  0  0  0  0  0  0  0  0
  -12.8351  -36.5835  -12.2511 C   0  0  0  0  0  0  0  0  0  0  0  0
  -13.0593  -35.2302  -12.3698 C   0  0  0  0  0  0  0  0  0  0  0  0
  -14.2812  -34.7513  -11.9410 C   0  0  0  0  0  0  0  0  0  0  0  0
  -15.2391  -35.5344  -11.4241 N   0  0  0  0  0  0  0  0  0  0  0  0
  -11.5417  -37.1906  -12.6895 C   0  0  0  0  0  0  0  0  0  0  0  0
  -11.8408  -38.4775  -13.3956 C   0  0  0  0  0  0  0  0  0  0  0  0
  -10.6630  -37.4810  -11.4801 C   0  0  0  0  0  0  0  0  0  0  0  0
  -10.8186  -36.1771  -13.5323 C   0  0  0  0  0  0  0  0  0  0  0  0
  2  1  1  1
  2  3  1  0
  3  4  1  0
  4  5  1  0
  5  6  1  0
  6  7  1  0
  7  8  1  0
  8  9  1  0
  9 10  1  0
 10 11  1  0
 11 12  2  0
 11 13  1  0
 13 14  1  0
 13 15  1  0
 15 16  1  6
 15 17  1  0
 17 18  2  0
 17 19  1  0
 19 20  1  0
 20 21  1  1
 20 22  1  0
 22 23  1  6
 22 24  1  0
 24 25  1  0
 25 26  1  0
 26 27  1  0
 27 28  1  0
 26 29  1  0
 29 30  2  0
 30 31  1  0
 31 32  2  0
 32 33  1  0
 33 34  2  0
 31 35  1  0
 35 36  1  0
 35 37  1  0
 35 38  1  0
 21  2  1  0
 28 26  1  0
 34 29  1  0
M  END
$$$$
