
     RDKit          3D

 38 40  0  0  0  0  0  0  0  0999 V2000
  -18.3953  -37.9716   -6.0207 C   0  0  0  0  0  0  0  0  0  0  0  0
  -19.4488  -38.5788   -6.8790 C   0  0  2  0  0  0  0  0  0  0  0  0
  -20.4919  -39.2267   -5.9917 C   0  0  0  0  0  0  0  0  0  0  0  0
  -21.8951  -38.7048   -6.3236 C   0  0  0  0  0  0  0  0  0  0  0  0
  -22.9529  -39.2860   -5.4486 C   0  0  0  0  0  0  0  0  0  0  0  0
  -23.4640  -40.5633   -6.0348 C   0  0  0  0  0  0  0  0  0  0  0  0
  -23.1404  -41.6933   -5.0596 C   0  0  0  0  0  0  0  0  0  0  0  0
  -22.9722  -42.9604   -5.8516 C   0  0  0  0  0  0  0  0  0  0  0  0
  -21.7679  -43.7483   -5.3723 C   0  0  0  0  0  0  0  0  0  0  0  0
  -20.5185  -43.3654   -6.1833 C   0  0  0  0  0  0  0  0  0  0  0  0
  -19.7110  -44.5743   -6.4982 C   0  0  0  0  0  0  0  0  0  0  0  0
  -20.3487  -45.6864   -6.4496 O   0  0  0  0  0  0  0  0  0  0  0  0
  -18.3398  -44.5793   -6.8339 N   0  0  0  0  0  0  0  0  0  0  0  0
  -17.4918  -45.5941   -6.2163 C   0  0  0  0  0  0  0  0  0  0  0  0
  -17.7449  -43.6133   -7.7763 C   0  0  1  0  0  0  0  0  0  0  0  0
  -18.6314  -43.2935   -8.9203 C   0  0  0  0  0  0  0  0  0  0  0  0
  -17.1678  -42.4691   -7.0448 C   0  0  0  0  0  0  0  0  0  0  0  0
  -16.1002  -42.7796   -6.3776 O   0  0  0  0  0  0  0  0  0  0  0  0
  -17.6227  -41.1412   -6.9887 N   0  0  0  0  0  0  0  0  0  0  0  0
  -17.7848  -40.1675   -8.0084 C   0  0  1  0  0  0  0  0  0  0  0  0
  -19.0387  -39.3886   -8.0254 C   0  0  0  0  0  0  0  0  0  0  0  0
  -16.5264  -39.3409   -8.2915 C   0  0  2  0  0  0  0  0  0  0  0  0
  -16.8918  -38.5277   -9.3924 O   0  0  0  0  0  0  0  0  0  0  0  0
  -15.4391  -40.2458   -8.9142 C   0  0  0  0  0  0  0  0  0  0  0  0
  -14.4886  -39.3326   -9.5154 N   0  0  0  0  0  0  0  0  0  0  0  0
  -13.8700  -39.8220  -10.7121 C   0  0  0  0  0  0  0  0  0  0  0  0
  -12.8048  -40.8572  -10.6532 C   0  0  0  0  0  0  0  0  0  0  0  0
  -14.2207  -41.2990  -10.9846 C   0  0  0  0  0  0  0  0  0  0  0  0
  -13.8713  -38.9180  -11.8801 C   0  0  0  0  0  0  0  0  0  0  0  0
  -14.2054  -37.5868  -11.8322 C   0  0  0  0  0  0  0  0  0  0  0  0
  -14.2349  -36.7537  -12.9170 C   0  0  0  0  0  0  0  0  0  0  0  0
  -13.9068  -37.2785  -14.1469 C   0  0  0  0  0  0  0  0  0  0  0  0
  -13.5702  -38.6167  -14.1943 C   0  0  0  0  0  0  0  0  0  0  0  0
  -13.5501  -39.4100  -13.1134 N   0  0  0  0  0  0  0  0  0  0  0  0
  -14.6122  -35.3150  -12.7701 C   0  0  0  0  0  0  0  0  0  0  0  0
  -15.7985  -35.2297  -11.8593 C   0  0  0  0  0  0  0  0  0  0  0  0
  -14.9847  -34.7303  -14.1260 C   0  0  0  0  0  0  0  0  0  0  0  0
  -13.4024  -34.5686  -12.2804 C   0  0  0  0  0  0  0  0  0  0  0  0
  2  1  1  1
  2  3  1  0
  3  4  1  0
  4  5  1  0
  5  6  1  0
  6  7  1  0
  7  8  1  0
  8  9  1  0
  9 10  1  0
 10 11  1  0
 11 12  2  0
 11 13  1  0
 13 14  1  0
 13 15  1  0
 15 16  1  6
 15 17  1  0
 17 18  2  0
 17 19  1  0
 19 20  1  0
 20 21  1  1
 20 22  1  0
 22 23  1  6
 22 24  1  0
 24 25  1  0
 25 26  1  0
 26 27  1  0
 27 28  1  0
 26 29  1  0
 29 30  2  0
 30 31  1  0
 31 32  2  0
 32 33  1  0
 33 34  2  0
 31 35  1  0
 35 36  1  0
 35 37  1  0
 35 38  1  0
 21  2  1  0
 28 26  1  0
 34 29  1  0
M  END
$$$$
