
     RDKit          3D

 38 40  0  0  0  0  0  0  0  0999 V2000
  -18.4034  -37.5854   -6.2362 C   0  0  0  0  0  0  0  0  0  0  0  0
  -19.3752  -38.1803   -7.1937 C   0  0  2  0  0  0  0  0  0  0  0  0
  -20.4675  -38.8816   -6.4124 C   0  0  0  0  0  0  0  0  0  0  0  0
  -21.8531  -38.3752   -6.8311 C   0  0  0  0  0  0  0  0  0  0  0  0
  -22.9605  -39.0097   -6.0607 C   0  0  0  0  0  0  0  0  0  0  0  0
  -23.3971  -40.2738   -6.7299 C   0  0  0  0  0  0  0  0  0  0  0  0
  -23.1226  -41.4333   -5.7745 C   0  0  0  0  0  0  0  0  0  0  0  0
  -22.8668  -42.6660   -6.5967 C   0  0  0  0  0  0  0  0  0  0  0  0
  -21.6847  -43.4476   -6.0558 C   0  0  0  0  0  0  0  0  0  0  0  0
  -20.3866  -43.0099   -6.7549 C   0  0  0  0  0  0  0  0  0  0  0  0
  -19.5308  -44.1900   -7.0509 C   0  0  0  0  0  0  0  0  0  0  0  0
  -20.1452  -45.3154   -7.0913 O   0  0  0  0  0  0  0  0  0  0  0  0
  -18.1384  -44.1554   -7.2812 N   0  0  0  0  0  0  0  0  0  0  0  0
  -17.3168  -45.1758   -6.6379 C   0  0  0  0  0  0  0  0  0  0  0  0
  -17.4960  -43.1429   -8.1401 C   0  0  1  0  0  0  0  0  0  0  0  0
  -18.3007  -42.7977   -9.3359 C   0  0  0  0  0  0  0  0  0  0  0  0
  -17.0015  -42.0161   -7.3258 C   0  0  0  0  0  0  0  0  0  0  0  0
  -15.9805  -42.3305   -6.5909 O   0  0  0  0  0  0  0  0  0  0  0  0
  -17.4890  -40.7004   -7.2566 N   0  0  0  0  0  0  0  0  0  0  0  0
  -17.5956  -39.6922   -8.2497 C   0  0  1  0  0  0  0  0  0  0  0  0
  -18.8619  -38.9381   -8.3341 C   0  0  0  0  0  0  0  0  0  0  0  0
  -16.3384  -38.8311   -8.4061 C   0  0  2  0  0  0  0  0  0  0  0  0
  -16.8244  -37.5018   -8.3447 O   0  0  0  0  0  0  0  0  0  0  0  0
  -15.8291  -38.9142   -9.8630 C   0  0  0  0  0  0  0  0  0  0  0  0
  -14.7625  -39.8942   -9.8334 N   0  0  0  0  0  0  0  0  0  0  0  0
  -13.9513  -39.9250  -11.0146 C   0  0  0  0  0  0  0  0  0  0  0  0
  -12.6238  -40.5940  -11.0125 C   0  0  0  0  0  0  0  0  0  0  0  0
  -13.8107  -41.3511  -11.5852 C   0  0  0  0  0  0  0  0  0  0  0  0
  -14.1610  -38.8406  -11.9951 C   0  0  0  0  0  0  0  0  0  0  0  0
  -13.5162  -37.6285  -11.9631 C   0  0  0  0  0  0  0  0  0  0  0  0
  -13.7290  -36.6115  -12.8532 C   0  0  0  0  0  0  0  0  0  0  0  0
  -14.6521  -36.8094  -13.8554 C   0  0  0  0  0  0  0  0  0  0  0  0
  -15.2994  -38.0286  -13.8876 C   0  0  0  0  0  0  0  0  0  0  0  0
  -15.0704  -39.0079  -13.0007 N   0  0  0  0  0  0  0  0  0  0  0  0
  -12.9800  -35.3231  -12.7403 C   0  0  0  0  0  0  0  0  0  0  0  0
  -13.4095  -34.4287  -13.8627 C   0  0  0  0  0  0  0  0  0  0  0  0
  -11.4826  -35.5764  -12.8531 C   0  0  0  0  0  0  0  0  0  0  0  0
  -13.2345  -34.7601  -11.3697 C   0  0  0  0  0  0  0  0  0  0  0  0
  2  1  1  1
  2  3  1  0
  3  4  1  0
  4  5  1  0
  5  6  1  0
  6  7  1  0
  7  8  1  0
  8  9  1  0
  9 10  1  0
 10 11  1  0
 11 12  2  0
 11 13  1  0
 13 14  1  0
 13 15  1  0
 15 16  1  6
 15 17  1  0
 17 18  2  0
 17 19  1  0
 19 20  1  0
 20 21  1  1
 20 22  1  0
 22 23  1  6
 22 24  1  0
 24 25  1  0
 25 26  1  0
 26 27  1  0
 27 28  1  0
 26 29  1  0
 29 30  2  0
 30 31  1  0
 31 32  2  0
 32 33  1  0
 33 34  2  0
 31 35  1  0
 35 36  1  0
 35 37  1  0
 35 38  1  0
 21  2  1  0
 28 26  1  0
 34 29  1  0
M  END
$$$$
