
     RDKit          3D

 38 40  0  0  0  0  0  0  0  0999 V2000
  -18.7987  -38.3643   -6.6539 C   0  0  0  0  0  0  0  0  0  0  0  0
  -19.9540  -39.0614   -7.2819 C   0  0  2  0  0  0  0  0  0  0  0  0
  -20.7881  -39.7071   -6.1944 C   0  0  0  0  0  0  0  0  0  0  0  0
  -22.2534  -39.2654   -6.2918 C   0  0  0  0  0  0  0  0  0  0  0  0
  -23.1076  -39.8457   -5.2166 C   0  0  0  0  0  0  0  0  0  0  0  0
  -23.6465  -41.1733   -5.6451 C   0  0  0  0  0  0  0  0  0  0  0  0
  -23.0965  -42.2353   -4.6953 C   0  0  0  0  0  0  0  0  0  0  0  0
  -23.0047  -43.5336   -5.4483 C   0  0  0  0  0  0  0  0  0  0  0  0
  -21.6948  -44.2415   -5.1586 C   0  0  0  0  0  0  0  0  0  0  0  0
  -20.6306  -43.8473   -6.1965 C   0  0  0  0  0  0  0  0  0  0  0  0
  -19.8292  -45.0345   -6.5978 C   0  0  0  0  0  0  0  0  0  0  0  0
  -20.3889  -46.1694   -6.3870 O   0  0  0  0  0  0  0  0  0  0  0  0
  -18.5407  -44.9969   -7.1735 N   0  0  0  0  0  0  0  0  0  0  0  0
  -17.5447  -45.9396   -6.6741 C   0  0  0  0  0  0  0  0  0  0  0  0
  -18.1736  -44.0564   -8.2487 C   0  0  1  0  0  0  0  0  0  0  0  0
  -19.2642  -43.8364   -9.2281 C   0  0  0  0  0  0  0  0  0  0  0  0
  -17.5371  -42.8512   -7.6834 C   0  0  0  0  0  0  0  0  0  0  0  0
  -16.3535  -43.0791   -7.2055 O   0  0  0  0  0  0  0  0  0  0  0  0
  -18.0440  -41.5434   -7.6049 N   0  0  0  0  0  0  0  0  0  0  0  0
  -18.4350  -40.6326   -8.6206 C   0  0  1  0  0  0  0  0  0  0  0  0
  -19.7114  -39.9116   -8.4467 C   0  0  0  0  0  0  0  0  0  0  0  0
  -17.2919  -39.7676   -9.1608 C   0  0  2  0  0  0  0  0  0  0  0  0
  -17.6330  -39.5595  -10.5199 O   0  0  0  0  0  0  0  0  0  0  0  0
  -16.0084  -40.6199   -9.2841 C   0  0  0  0  0  0  0  0  0  0  0  0
  -14.9986  -39.8882   -8.5468 N   0  0  0  0  0  0  0  0  0  0  0  0
  -13.9508  -39.3412   -9.3575 C   0  0  0  0  0  0  0  0  0  0  0  0
  -12.5427  -39.3301   -8.8810 C   0  0  0  0  0  0  0  0  0  0  0  0
  -12.9680  -40.4253   -9.8451 C   0  0  0  0  0  0  0  0  0  0  0  0
  -14.3397  -38.3127  -10.3435 C   0  0  0  0  0  0  0  0  0  0  0  0
  -14.9718  -37.1346  -10.0295 C   0  0  0  0  0  0  0  0  0  0  0  0
  -15.3586  -36.1928  -10.9434 C   0  0  0  0  0  0  0  0  0  0  0  0
  -15.0985  -36.4348  -12.2736 C   0  0  0  0  0  0  0  0  0  0  0  0
  -14.4622  -37.6189  -12.5887 C   0  0  0  0  0  0  0  0  0  0  0  0
  -14.0946  -38.5246  -11.6707 N   0  0  0  0  0  0  0  0  0  0  0  0
  -16.0434  -34.9373  -10.5091 C   0  0  0  0  0  0  0  0  0  0  0  0
  -17.4255  -34.9306  -11.0869 C   0  0  0  0  0  0  0  0  0  0  0  0
  -15.2844  -33.7219  -11.0245 C   0  0  0  0  0  0  0  0  0  0  0  0
  -16.0013  -34.8847   -9.0072 C   0  0  0  0  0  0  0  0  0  0  0  0
  2  1  1  1
  2  3  1  0
  3  4  1  0
  4  5  1  0
  5  6  1  0
  6  7  1  0
  7  8  1  0
  8  9  1  0
  9 10  1  0
 10 11  1  0
 11 12  2  0
 11 13  1  0
 13 14  1  0
 13 15  1  0
 15 16  1  1
 15 17  1  0
 17 18  2  0
 17 19  1  0
 19 20  1  0
 20 21  1  1
 20 22  1  0
 22 23  1  6
 22 24  1  0
 24 25  1  0
 25 26  1  0
 26 27  1  0
 27 28  1  0
 26 29  1  0
 29 30  2  0
 30 31  1  0
 31 32  2  0
 32 33  1  0
 33 34  2  0
 31 35  1  0
 35 36  1  0
 35 37  1  0
 35 38  1  0
 21  2  1  0
 28 26  1  0
 34 29  1  0
M  END
$$$$
