
     RDKit          3D

 38 40  0  0  0  0  0  0  0  0999 V2000
  -17.9349  -37.6814   -6.9888 C   0  0  0  0  0  0  0  0  0  0  0  0
  -19.1638  -38.0978   -7.7178 C   0  0  2  0  0  0  0  0  0  0  0  0
  -20.2378  -38.4494   -6.7087 C   0  0  0  0  0  0  0  0  0  0  0  0
  -21.5234  -37.6577   -6.9774 C   0  0  0  0  0  0  0  0  0  0  0  0
  -22.5986  -37.9420   -5.9848 C   0  0  0  0  0  0  0  0  0  0  0  0
  -23.4166  -39.1120   -6.4301 C   0  0  0  0  0  0  0  0  0  0  0  0
  -23.2537  -40.2235   -5.3954 C   0  0  0  0  0  0  0  0  0  0  0  0
  -23.4262  -41.5430   -6.0957 C   0  0  0  0  0  0  0  0  0  0  0  0
  -22.3774  -42.5417   -5.6450 C   0  0  0  0  0  0  0  0  0  0  0  0
  -21.1517  -42.4883   -6.5724 C   0  0  0  0  0  0  0  0  0  0  0  0
  -20.6477  -43.8601   -6.8494 C   0  0  0  0  0  0  0  0  0  0  0  0
  -21.4983  -44.8029   -6.6674 O   0  0  0  0  0  0  0  0  0  0  0  0
  -19.3431  -44.1819   -7.2828 N   0  0  0  0  0  0  0  0  0  0  0  0
  -18.6768  -45.3163   -6.6509 C   0  0  0  0  0  0  0  0  0  0  0  0
  -18.6435  -43.4268   -8.3389 C   0  0  1  0  0  0  0  0  0  0  0  0
  -19.5400  -42.9934   -9.4368 C   0  0  0  0  0  0  0  0  0  0  0  0
  -17.7764  -42.3919   -7.7434 C   0  0  0  0  0  0  0  0  0  0  0  0
  -16.7437  -42.8845   -7.1335 O   0  0  0  0  0  0  0  0  0  0  0  0
  -17.9349  -40.9962   -7.7588 N   0  0  0  0  0  0  0  0  0  0  0  0
  -17.9774  -40.0746   -8.8372 C   0  0  1  0  0  0  0  0  0  0  0  0
  -19.0359  -39.0456   -8.8239 C   0  0  0  0  0  0  0  0  0  0  0  0
  -16.6032  -39.5584   -9.2752 C   0  0  2  0  0  0  0  0  0  0  0  0
  -16.8463  -38.9694  -10.5405 O   0  0  0  0  0  0  0  0  0  0  0  0
  -15.6954  -40.7514   -9.6513 C   0  0  0  0  0  0  0  0  0  0  0  0
  -14.4949  -40.5749   -8.8598 N   0  0  0  0  0  0  0  0  0  0  0  0
  -13.2745  -40.8311   -9.5664 C   0  0  0  0  0  0  0  0  0  0  0  0
  -12.1501  -41.5513   -8.9131 C   0  0  0  0  0  0  0  0  0  0  0  0
  -13.0661  -42.3349   -9.8386 C   0  0  0  0  0  0  0  0  0  0  0  0
  -12.9374  -39.9087  -10.6695 C   0  0  0  0  0  0  0  0  0  0  0  0
  -13.2128  -38.5633  -10.6693 C   0  0  0  0  0  0  0  0  0  0  0  0
  -12.9274  -37.7116  -11.7012 C   0  0  0  0  0  0  0  0  0  0  0  0
  -12.3201  -38.2317  -12.8222 C   0  0  0  0  0  0  0  0  0  0  0  0
  -12.0426  -39.5842  -12.8215 C   0  0  0  0  0  0  0  0  0  0  0  0
  -12.3345  -40.3956  -11.7946 N   0  0  0  0  0  0  0  0  0  0  0  0
  -13.2650  -36.2584  -11.6131 C   0  0  0  0  0  0  0  0  0  0  0  0
  -12.5410  -35.6771  -10.4374 C   0  0  0  0  0  0  0  0  0  0  0  0
  -14.7637  -36.0803  -11.4102 C   0  0  0  0  0  0  0  0  0  0  0  0
  -12.9151  -35.6228  -12.9299 C   0  0  0  0  0  0  0  0  0  0  0  0
  2  1  1  1
  2  3  1  0
  3  4  1  0
  4  5  1  0
  5  6  1  0
  6  7  1  0
  7  8  1  0
  8  9  1  0
  9 10  1  0
 10 11  1  0
 11 12  2  0
 11 13  1  0
 13 14  1  0
 13 15  1  0
 15 16  1  6
 15 17  1  0
 17 18  2  0
 17 19  1  0
 19 20  1  0
 20 21  1  1
 20 22  1  0
 22 23  1  6
 22 24  1  0
 24 25  1  0
 25 26  1  0
 26 27  1  0
 27 28  1  0
 26 29  1  0
 29 30  2  0
 30 31  1  0
 31 32  2  0
 32 33  1  0
 33 34  2  0
 31 35  1  0
 35 36  1  0
 35 37  1  0
 35 38  1  0
 21  2  1  0
 28 26  1  0
 34 29  1  0
M  END
$$$$
