
     RDKit          3D

 38 40  0  0  0  0  0  0  0  0999 V2000
  -18.7515  -37.9676   -5.6372 C   0  0  0  0  0  0  0  0  0  0  0  0
  -19.6840  -38.3638   -6.7274 C   0  0  2  0  0  0  0  0  0  0  0  0
  -20.8197  -39.1712   -6.1327 C   0  0  0  0  0  0  0  0  0  0  0  0
  -22.1783  -38.5714   -6.5152 C   0  0  0  0  0  0  0  0  0  0  0  0
  -23.3278  -39.3108   -5.9200 C   0  0  0  0  0  0  0  0  0  0  0  0
  -23.7469  -40.4272   -6.8226 C   0  0  0  0  0  0  0  0  0  0  0  0
  -23.5309  -41.7430   -6.0780 C   0  0  0  0  0  0  0  0  0  0  0  0
  -23.2508  -42.8149   -7.0947 C   0  0  0  0  0  0  0  0  0  0  0  0
  -22.1044  -43.7031   -6.6502 C   0  0  0  0  0  0  0  0  0  0  0  0
  -20.7701  -43.1738   -7.2020 C   0  0  0  0  0  0  0  0  0  0  0  0
  -19.9148  -44.2991   -7.6656 C   0  0  0  0  0  0  0  0  0  0  0  0
  -20.5395  -45.3872   -7.9331 O   0  0  0  0  0  0  0  0  0  0  0  0
  -18.5128  -44.2515   -7.8243 N   0  0  0  0  0  0  0  0  0  0  0  0
  -17.7341  -45.3859   -7.3376 C   0  0  0  0  0  0  0  0  0  0  0  0
  -17.8192  -43.1154   -8.4596 C   0  0  1  0  0  0  0  0  0  0  0  0
  -18.5629  -42.5475   -9.6090 C   0  0  0  0  0  0  0  0  0  0  0  0
  -17.3507  -42.1609   -7.4364 C   0  0  0  0  0  0  0  0  0  0  0  0
  -16.3691  -42.6209   -6.7250 O   0  0  0  0  0  0  0  0  0  0  0  0
  -17.8259  -40.8692   -7.1552 N   0  0  0  0  0  0  0  0  0  0  0  0
  -17.8742  -39.6988   -7.9564 C   0  0  1  0  0  0  0  0  0  0  0  0
  -19.1264  -38.9170   -7.9608 C   0  0  0  0  0  0  0  0  0  0  0  0
  -16.6012  -38.8483   -7.9010 C   0  0  2  0  0  0  0  0  0  0  0  0
  -16.9361  -37.6831   -8.6339 O   0  0  0  0  0  0  0  0  0  0  0  0
  -15.5127  -39.4827   -8.7963 C   0  0  0  0  0  0  0  0  0  0  0  0
  -15.1320  -38.4371   -9.7239 N   0  0  0  0  0  0  0  0  0  0  0  0
  -14.4210  -38.8984  -10.8798 C   0  0  0  0  0  0  0  0  0  0  0  0
  -14.8315  -38.4810  -12.2463 C   0  0  0  0  0  0  0  0  0  0  0  0
  -13.6668  -37.7566  -11.5914 C   0  0  0  0  0  0  0  0  0  0  0  0
  -13.7034  -40.1829  -10.7515 C   0  0  0  0  0  0  0  0  0  0  0  0
  -13.6781  -40.9486   -9.6118 C   0  0  0  0  0  0  0  0  0  0  0  0
  -12.9912  -42.1245   -9.4809 C   0  0  0  0  0  0  0  0  0  0  0  0
  -12.2731  -42.5801  -10.5637 C   0  0  0  0  0  0  0  0  0  0  0  0
  -12.2996  -41.8103  -11.7096 C   0  0  0  0  0  0  0  0  0  0  0  0
  -12.9823  -40.6604  -11.8090 N   0  0  0  0  0  0  0  0  0  0  0  0
  -13.0206  -42.8923   -8.1989 C   0  0  0  0  0  0  0  0  0  0  0  0
  -14.4516  -43.1105   -7.8132 C   0  0  0  0  0  0  0  0  0  0  0  0
  -12.3255  -42.1012   -7.0989 C   0  0  0  0  0  0  0  0  0  0  0  0
  -12.2353  -44.1583   -8.4013 C   0  0  0  0  0  0  0  0  0  0  0  0
  2  1  1  1
  2  3  1  0
  3  4  1  0
  4  5  1  0
  5  6  1  0
  6  7  1  0
  7  8  1  0
  8  9  1  0
  9 10  1  0
 10 11  1  0
 11 12  2  0
 11 13  1  0
 13 14  1  0
 13 15  1  0
 15 16  1  6
 15 17  1  0
 17 18  2  0
 17 19  1  0
 19 20  1  0
 20 21  1  1
 20 22  1  0
 22 23  1  6
 22 24  1  0
 24 25  1  0
 25 26  1  0
 26 27  1  0
 27 28  1  0
 26 29  1  0
 29 30  2  0
 30 31  1  0
 31 32  2  0
 32 33  1  0
 33 34  2  0
 31 35  1  0
 35 36  1  0
 35 37  1  0
 35 38  1  0
 21  2  1  0
 28 26  1  0
 34 29  1  0
M  END
$$$$
