
     RDKit          3D

 38 40  0  0  0  0  0  0  0  0999 V2000
  -18.2958  -38.1325   -5.5570 C   0  0  0  0  0  0  0  0  0  0  0  0
  -19.0575  -38.4362   -6.7991 C   0  0  2  0  0  0  0  0  0  0  0  0
  -20.4980  -38.7291   -6.4325 C   0  0  0  0  0  0  0  0  0  0  0  0
  -21.4587  -37.8354   -7.2262 C   0  0  0  0  0  0  0  0  0  0  0  0
  -22.8888  -38.0606   -6.8708 C   0  0  0  0  0  0  0  0  0  0  0  0
  -23.4646  -39.1538   -7.7133 C   0  0  0  0  0  0  0  0  0  0  0  0
  -23.8709  -40.2990   -6.7882 C   0  0  0  0  0  0  0  0  0  0  0  0
  -23.7668  -41.5842   -7.5618 C   0  0  0  0  0  0  0  0  0  0  0  0
  -23.1118  -42.6706   -6.7302 C   0  0  0  0  0  0  0  0  0  0  0  0
  -21.5929  -42.6886   -6.9708 C   0  0  0  0  0  0  0  0  0  0  0  0
  -21.0956  -44.0878   -7.0574 C   0  0  0  0  0  0  0  0  0  0  0  0
  -21.9829  -44.9671   -7.3491 O   0  0  0  0  0  0  0  0  0  0  0  0
  -19.7611  -44.4977   -6.8468 N   0  0  0  0  0  0  0  0  0  0  0  0
  -19.5359  -45.6945   -6.0424 C   0  0  0  0  0  0  0  0  0  0  0  0
  -18.6053  -43.7730   -7.4073 C   0  0  1  0  0  0  0  0  0  0  0  0
  -18.8528  -43.2462   -8.7704 C   0  0  0  0  0  0  0  0  0  0  0  0
  -18.0647  -42.8218   -6.4171 C   0  0  0  0  0  0  0  0  0  0  0  0
  -17.4706  -43.4063   -5.4238 O   0  0  0  0  0  0  0  0  0  0  0  0
  -18.1187  -41.4181   -6.4252 N   0  0  0  0  0  0  0  0  0  0  0  0
  -17.5964  -40.4703   -7.3433 C   0  0  1  0  0  0  0  0  0  0  0  0
  -18.4768  -39.3642   -7.7686 C   0  0  0  0  0  0  0  0  0  0  0  0
  -16.1515  -40.0502   -7.0565 C   0  0  2  0  0  0  0  0  0  0  0  0
  -16.2069  -38.6350   -7.0227 O   0  0  0  0  0  0  0  0  0  0  0  0
  -15.2787  -40.3024   -8.3068 C   0  0  0  0  0  0  0  0  0  0  0  0
  -15.0895  -38.9959   -8.9035 N   0  0  0  0  0  0  0  0  0  0  0  0
  -14.1300  -38.9622   -9.9677 C   0  0  0  0  0  0  0  0  0  0  0  0
  -12.9027  -39.7994   -9.9167 C   0  0  0  0  0  0  0  0  0  0  0  0
  -14.0776  -40.2937  -10.7444 C   0  0  0  0  0  0  0  0  0  0  0  0
  -14.0729  -37.7262  -10.7740 C   0  0  0  0  0  0  0  0  0  0  0  0
  -13.0791  -37.4308  -11.6745 C   0  0  0  0  0  0  0  0  0  0  0  0
  -13.0083  -36.2743  -12.4020 C   0  0  0  0  0  0  0  0  0  0  0  0
  -14.0001  -35.3357  -12.2258 C   0  0  0  0  0  0  0  0  0  0  0  0
  -14.9996  -35.6335  -11.3211 C   0  0  0  0  0  0  0  0  0  0  0  0
  -15.0430  -36.7764  -10.6211 N   0  0  0  0  0  0  0  0  0  0  0  0
  -11.8864  -36.0377  -13.3607 C   0  0  0  0  0  0  0  0  0  0  0  0
  -11.9209  -37.1150  -14.4012 C   0  0  0  0  0  0  0  0  0  0  0  0
  -10.5518  -36.0967  -12.6297 C   0  0  0  0  0  0  0  0  0  0  0  0
  -12.0333  -34.6452  -13.9081 C   0  0  0  0  0  0  0  0  0  0  0  0
  2  1  1  1
  2  3  1  0
  3  4  1  0
  4  5  1  0
  5  6  1  0
  6  7  1  0
  7  8  1  0
  8  9  1  0
  9 10  1  0
 10 11  1  0
 11 12  2  0
 11 13  1  0
 13 14  1  0
 13 15  1  0
 15 16  1  6
 15 17  1  0
 17 18  2  0
 17 19  1  0
 19 20  1  0
 20 21  1  1
 20 22  1  0
 22 23  1  6
 22 24  1  0
 24 25  1  0
 25 26  1  0
 26 27  1  0
 27 28  1  0
 26 29  1  0
 29 30  2  0
 30 31  1  0
 31 32  2  0
 32 33  1  0
 33 34  2  0
 31 35  1  0
 35 36  1  0
 35 37  1  0
 35 38  1  0
 21  2  1  0
 28 26  1  0
 34 29  1  0
M  END
$$$$
