
     RDKit          3D

 38 40  0  0  0  0  0  0  0  0999 V2000
  -18.3869  -37.7618   -5.9092 C   0  0  0  0  0  0  0  0  0  0  0  0
  -19.2078  -38.2275   -7.0601 C   0  0  2  0  0  0  0  0  0  0  0  0
  -20.5752  -38.6383   -6.5534 C   0  0  0  0  0  0  0  0  0  0  0  0
  -21.6856  -37.9043   -7.3150 C   0  0  0  0  0  0  0  0  0  0  0  0
  -23.0509  -38.2476   -6.8246 C   0  0  0  0  0  0  0  0  0  0  0  0
  -23.5717  -39.4499   -7.5456 C   0  0  0  0  0  0  0  0  0  0  0  0
  -23.7789  -40.5626   -6.5202 C   0  0  0  0  0  0  0  0  0  0  0  0
  -23.5998  -41.8818   -7.2193 C   0  0  0  0  0  0  0  0  0  0  0  0
  -22.7688  -42.8353   -6.3819 C   0  0  0  0  0  0  0  0  0  0  0  0
  -21.2806  -42.7162   -6.7509 C   0  0  0  0  0  0  0  0  0  0  0  0
  -20.6452  -44.0605   -6.7936 C   0  0  0  0  0  0  0  0  0  0  0  0
  -21.4540  -45.0434   -6.9532 O   0  0  0  0  0  0  0  0  0  0  0  0
  -19.2621  -44.3174   -6.6740 N   0  0  0  0  0  0  0  0  0  0  0  0
  -18.8475  -45.4258   -5.8198 C   0  0  0  0  0  0  0  0  0  0  0  0
  -18.2383  -43.5205   -7.3754 C   0  0  1  0  0  0  0  0  0  0  0  0
  -18.6478  -43.1185   -8.7420 C   0  0  0  0  0  0  0  0  0  0  0  0
  -17.7255  -42.4524   -6.4958 C   0  0  0  0  0  0  0  0  0  0  0  0
  -16.9957  -42.9026   -5.5233 O   0  0  0  0  0  0  0  0  0  0  0  0
  -17.9296  -41.0654   -6.5856 N   0  0  0  0  0  0  0  0  0  0  0  0
  -17.5858  -40.1364   -7.6018 C   0  0  1  0  0  0  0  0  0  0  0  0
  -18.6100  -39.1577   -8.0170 C   0  0  0  0  0  0  0  0  0  0  0  0
  -16.1757  -39.5531   -7.4669 C   0  0  2  0  0  0  0  0  0  0  0  0
  -16.1508  -38.4964   -8.4102 O   0  0  0  0  0  0  0  0  0  0  0  0
  -15.1462  -40.5370   -8.0674 C   0  0  0  0  0  0  0  0  0  0  0  0
  -14.3762  -39.7486   -9.0077 N   0  0  0  0  0  0  0  0  0  0  0  0
  -13.5311  -40.5160   -9.8744 C   0  0  0  0  0  0  0  0  0  0  0  0
  -12.2432  -39.9641  -10.3709 C   0  0  0  0  0  0  0  0  0  0  0  0
  -12.2095  -40.9189   -9.1889 C   0  0  0  0  0  0  0  0  0  0  0  0
  -14.1873  -41.5501  -10.6999 C   0  0  0  0  0  0  0  0  0  0  0  0
  -15.4583  -42.0242  -10.4863 C   0  0  0  0  0  0  0  0  0  0  0  0
  -16.0585  -43.0019  -11.2317 C   0  0  0  0  0  0  0  0  0  0  0  0
  -15.3451  -43.5540  -12.2720 C   0  0  0  0  0  0  0  0  0  0  0  0
  -14.0676  -43.0764  -12.4869 C   0  0  0  0  0  0  0  0  0  0  0  0
  -13.5046  -42.1163  -11.7390 N   0  0  0  0  0  0  0  0  0  0  0  0
  -17.4487  -43.4567  -10.9251 C   0  0  0  0  0  0  0  0  0  0  0  0
  -17.8171  -42.9590   -9.5610 C   0  0  0  0  0  0  0  0  0  0  0  0
  -17.5156  -44.9781  -10.9328 C   0  0  0  0  0  0  0  0  0  0  0  0
  -18.3479  -42.9658  -12.0255 C   0  0  0  0  0  0  0  0  0  0  0  0
  2  1  1  1
  2  3  1  0
  3  4  1  0
  4  5  1  0
  5  6  1  0
  6  7  1  0
  7  8  1  0
  8  9  1  0
  9 10  1  0
 10 11  1  0
 11 12  2  0
 11 13  1  0
 13 14  1  0
 13 15  1  0
 15 16  1  6
 15 17  1  0
 17 18  2  0
 17 19  1  0
 19 20  1  0
 20 21  1  1
 20 22  1  0
 22 23  1  6
 22 24  1  0
 24 25  1  0
 25 26  1  0
 26 27  1  0
 27 28  1  0
 26 29  1  0
 29 30  2  0
 30 31  1  0
 31 32  2  0
 32 33  1  0
 33 34  2  0
 31 35  1  0
 35 36  1  0
 35 37  1  0
 35 38  1  0
 21  2  1  0
 28 26  1  0
 34 29  1  0
M  END
$$$$
