
     RDKit          3D

 38 40  0  0  0  0  0  0  0  0999 V2000
  -18.8955  -38.1584   -5.4237 C   0  0  0  0  0  0  0  0  0  0  0  0
  -19.7252  -38.6227   -6.5688 C   0  0  2  0  0  0  0  0  0  0  0  0
  -20.9381  -39.3544   -6.0314 C   0  0  0  0  0  0  0  0  0  0  0  0
  -22.2331  -38.7592   -6.5973 C   0  0  0  0  0  0  0  0  0  0  0  0
  -23.4579  -39.4228   -6.0663 C   0  0  0  0  0  0  0  0  0  0  0  0
  -23.8169  -40.6002   -6.9156 C   0  0  0  0  0  0  0  0  0  0  0  0
  -23.7156  -41.8550   -6.0508 C   0  0  0  0  0  0  0  0  0  0  0  0
  -23.3665  -43.0122   -6.9453 C   0  0  0  0  0  0  0  0  0  0  0  0
  -22.2972  -43.8852   -6.3166 C   0  0  0  0  0  0  0  0  0  0  0  0
  -20.8992  -43.4312   -6.7691 C   0  0  0  0  0  0  0  0  0  0  0  0
  -20.0352  -44.6086   -7.0520 C   0  0  0  0  0  0  0  0  0  0  0  0
  -20.6616  -45.7015   -7.2949 O   0  0  0  0  0  0  0  0  0  0  0  0
  -18.6235  -44.6039   -7.0695 N   0  0  0  0  0  0  0  0  0  0  0  0
  -17.9313  -45.7109   -6.4173 C   0  0  0  0  0  0  0  0  0  0  0  0
  -17.8366  -43.5386   -7.7186 C   0  0  1  0  0  0  0  0  0  0  0  0
  -18.4441  -43.0511   -8.9795 C   0  0  0  0  0  0  0  0  0  0  0  0
  -17.4452  -42.5138   -6.7317 C   0  0  0  0  0  0  0  0  0  0  0  0
  -16.5539  -42.9347   -5.8893 O   0  0  0  0  0  0  0  0  0  0  0  0
  -17.9080  -41.1936   -6.6041 N   0  0  0  0  0  0  0  0  0  0  0  0
  -17.8412  -40.0919   -7.4962 C   0  0  1  0  0  0  0  0  0  0  0  0
  -19.0631  -39.2867   -7.6908 C   0  0  0  0  0  0  0  0  0  0  0  0
  -16.5557  -39.2670   -7.3785 C   0  0  2  0  0  0  0  0  0  0  0  0
  -16.9896  -38.0332   -6.8338 O   0  0  0  0  0  0  0  0  0  0  0  0
  -16.0803  -38.8411   -8.7861 C   0  0  0  0  0  0  0  0  0  0  0  0
  -15.2446  -39.9311   -9.2467 N   0  0  0  0  0  0  0  0  0  0  0  0
  -14.4451  -39.6221  -10.3955 C   0  0  0  0  0  0  0  0  0  0  0  0
  -12.9922  -39.9355  -10.4219 C   0  0  0  0  0  0  0  0  0  0  0  0
  -13.9479  -40.8923  -11.1154 C   0  0  0  0  0  0  0  0  0  0  0  0
  -14.9149  -38.5178  -11.2563 C   0  0  0  0  0  0  0  0  0  0  0  0
  -14.1891  -37.3853  -11.5331 C   0  0  0  0  0  0  0  0  0  0  0  0
  -14.6327  -36.3479  -12.3070 C   0  0  0  0  0  0  0  0  0  0  0  0
  -15.8940  -36.4384  -12.8516 C   0  0  0  0  0  0  0  0  0  0  0  0
  -16.6229  -37.5776  -12.5739 C   0  0  0  0  0  0  0  0  0  0  0  0
  -16.1620  -38.5793  -11.8108 N   0  0  0  0  0  0  0  0  0  0  0  0
  -13.7718  -35.1515  -12.5541 C   0  0  0  0  0  0  0  0  0  0  0  0
  -12.6227  -35.5687  -13.4200 C   0  0  0  0  0  0  0  0  0  0  0  0
  -13.2302  -34.6149  -11.2358 C   0  0  0  0  0  0  0  0  0  0  0  0
  -14.6367  -34.0762  -13.1509 C   0  0  0  0  0  0  0  0  0  0  0  0
  2  1  1  1
  2  3  1  0
  3  4  1  0
  4  5  1  0
  5  6  1  0
  6  7  1  0
  7  8  1  0
  8  9  1  0
  9 10  1  0
 10 11  1  0
 11 12  2  0
 11 13  1  0
 13 14  1  0
 13 15  1  0
 15 16  1  6
 15 17  1  0
 17 18  2  0
 17 19  1  0
 19 20  1  0
 20 21  1  1
 20 22  1  0
 22 23  1  1
 22 24  1  0
 24 25  1  0
 25 26  1  0
 26 27  1  0
 27 28  1  0
 26 29  1  0
 29 30  2  0
 30 31  1  0
 31 32  2  0
 32 33  1  0
 33 34  2  0
 31 35  1  0
 35 36  1  0
 35 37  1  0
 35 38  1  0
 21  2  1  0
 28 26  1  0
 34 29  1  0
M  END
$$$$
