
     RDKit          3D

 38 40  0  0  0  0  0  0  0  0999 V2000
  -18.6932  -38.6254   -4.8446 C   0  0  0  0  0  0  0  0  0  0  0  0
  -19.5044  -38.8623   -6.0697 C   0  0  2  0  0  0  0  0  0  0  0  0
  -20.7191  -39.6897   -5.7019 C   0  0  0  0  0  0  0  0  0  0  0  0
  -22.0107  -39.0016   -6.1601 C   0  0  0  0  0  0  0  0  0  0  0  0
  -23.2376  -39.7611   -5.7854 C   0  0  0  0  0  0  0  0  0  0  0  0
  -23.5772  -40.7528   -6.8520 C   0  0  0  0  0  0  0  0  0  0  0  0
  -23.4783  -42.1511   -6.2457 C   0  0  0  0  0  0  0  0  0  0  0  0
  -23.1094  -43.1112   -7.3426 C   0  0  0  0  0  0  0  0  0  0  0  0
  -22.0422  -44.0849   -6.8799 C   0  0  0  0  0  0  0  0  0  0  0  0
  -20.6417  -43.5456   -7.2157 C   0  0  0  0  0  0  0  0  0  0  0  0
  -19.7657  -44.6419   -7.7092 C   0  0  0  0  0  0  0  0  0  0  0  0
  -20.3811  -45.6696   -8.1684 O   0  0  0  0  0  0  0  0  0  0  0  0
  -18.3540  -44.6277   -7.7053 N   0  0  0  0  0  0  0  0  0  0  0  0
  -17.6627  -45.8372   -7.2703 C   0  0  0  0  0  0  0  0  0  0  0  0
  -17.5661  -43.4533   -8.1240 C   0  0  1  0  0  0  0  0  0  0  0  0
  -18.1604  -42.7331   -9.2751 C   0  0  0  0  0  0  0  0  0  0  0  0
  -17.1951  -42.6378   -6.9516 C   0  0  0  0  0  0  0  0  0  0  0  0
  -16.3120  -43.2102   -6.1942 O   0  0  0  0  0  0  0  0  0  0  0  0
  -17.6688  -41.3695   -6.5770 N   0  0  0  0  0  0  0  0  0  0  0  0
  -17.5980  -40.1153   -7.2375 C   0  0  1  0  0  0  0  0  0  0  0  0
  -18.8229  -39.2930   -7.2897 C   0  0  0  0  0  0  0  0  0  0  0  0
  -16.3201  -39.3233   -6.9435 C   0  0  2  0  0  0  0  0  0  0  0  0
  -16.4072  -38.2015   -7.8043 O   0  0  0  0  0  0  0  0  0  0  0  0
  -15.0990  -40.0725   -7.5235 C   0  0  0  0  0  0  0  0  0  0  0  0
  -14.4163  -39.0971   -8.3488 N   0  0  0  0  0  0  0  0  0  0  0  0
  -14.1122  -39.5495   -9.6745 C   0  0  0  0  0  0  0  0  0  0  0  0
  -12.7784  -40.1193  -10.0002 C   0  0  0  0  0  0  0  0  0  0  0  0
  -13.9269  -41.0794   -9.7376 C   0  0  0  0  0  0  0  0  0  0  0  0
  -14.8723  -38.9315  -10.7797 C   0  0  0  0  0  0  0  0  0  0  0  0
  -15.7197  -37.8603  -10.6366 C   0  0  0  0  0  0  0  0  0  0  0  0
  -16.4468  -37.3036  -11.6530 C   0  0  0  0  0  0  0  0  0  0  0  0
  -16.3252  -37.8488  -12.9115 C   0  0  0  0  0  0  0  0  0  0  0  0
  -15.4725  -38.9252  -13.0550 C   0  0  0  0  0  0  0  0  0  0  0  0
  -14.7720  -39.4506  -12.0395 N   0  0  0  0  0  0  0  0  0  0  0  0
  -17.3465  -36.1365  -11.4037 C   0  0  0  0  0  0  0  0  0  0  0  0
  -16.7945  -35.3539  -10.2517 C   0  0  0  0  0  0  0  0  0  0  0  0
  -18.7461  -36.6208  -11.0490 C   0  0  0  0  0  0  0  0  0  0  0  0
  -17.4563  -35.3568  -12.6844 C   0  0  0  0  0  0  0  0  0  0  0  0
  2  1  1  1
  2  3  1  0
  3  4  1  0
  4  5  1  0
  5  6  1  0
  6  7  1  0
  7  8  1  0
  8  9  1  0
  9 10  1  0
 10 11  1  0
 11 12  2  0
 11 13  1  0
 13 14  1  0
 13 15  1  0
 15 16  1  6
 15 17  1  0
 17 18  2  0
 17 19  1  0
 19 20  1  0
 20 21  1  1
 20 22  1  0
 22 23  1  6
 22 24  1  0
 24 25  1  0
 25 26  1  0
 26 27  1  0
 27 28  1  0
 26 29  1  0
 29 30  2  0
 30 31  1  0
 31 32  2  0
 32 33  1  0
 33 34  2  0
 31 35  1  0
 35 36  1  0
 35 37  1  0
 35 38  1  0
 21  2  1  0
 28 26  1  0
 34 29  1  0
M  END
$$$$
