
     RDKit          3D

 38 40  0  0  0  0  0  0  0  0999 V2000
  -19.7186  -37.5151   -6.7342 C   0  0  0  0  0  0  0  0  0  0  0  0
  -20.7582  -38.4738   -7.1983 C   0  0  2  0  0  0  0  0  0  0  0  0
  -21.1234  -39.3948   -6.0521 C   0  0  0  0  0  0  0  0  0  0  0  0
  -22.6362  -39.3846   -5.8008 C   0  0  0  0  0  0  0  0  0  0  0  0
  -23.0403  -40.2481   -4.6548 C   0  0  0  0  0  0  0  0  0  0  0  0
  -23.2897  -41.6460   -5.1240 C   0  0  0  0  0  0  0  0  0  0  0  0
  -22.2780  -42.5619   -4.4385 C   0  0  0  0  0  0  0  0  0  0  0  0
  -22.0172  -43.7324   -5.3458 C   0  0  0  0  0  0  0  0  0  0  0  0
  -20.5361  -44.0532   -5.4112 C   0  0  0  0  0  0  0  0  0  0  0  0
  -19.8772  -43.3100   -6.5855 C   0  0  0  0  0  0  0  0  0  0  0  0
  -18.9014  -44.1928   -7.2791 C   0  0  0  0  0  0  0  0  0  0  0  0
  -19.0772  -45.4507   -7.0993 O   0  0  0  0  0  0  0  0  0  0  0  0
  -17.8333  -43.7545   -8.0917 N   0  0  0  0  0  0  0  0  0  0  0  0
  -16.5369  -44.4021   -7.9189 C   0  0  0  0  0  0  0  0  0  0  0  0
  -17.9814  -42.6856   -9.0971 C   0  0  1  0  0  0  0  0  0  0  0  0
  -19.2830  -42.7274   -9.8049 C   0  0  0  0  0  0  0  0  0  0  0  0
  -17.5772  -41.3851   -8.5290 C   0  0  0  0  0  0  0  0  0  0  0  0
  -16.2994  -41.2941   -8.3283 O   0  0  0  0  0  0  0  0  0  0  0  0
  -18.3818  -40.2835   -8.1935 N   0  0  0  0  0  0  0  0  0  0  0  0
  -19.2191  -39.4628   -8.9931 C   0  0  1  0  0  0  0  0  0  0  0  0
  -20.5677  -39.1477   -8.4820 C   0  0  0  0  0  0  0  0  0  0  0  0
  -18.4990  -38.2767   -9.6423 C   0  0  2  0  0  0  0  0  0  0  0  0
  -19.1901  -38.0838  -10.8638 O   0  0  0  0  0  0  0  0  0  0  0  0
  -17.1038  -38.7223  -10.1357 C   0  0  0  0  0  0  0  0  0  0  0  0
  -16.7965  -37.8396  -11.2426 N   0  0  0  0  0  0  0  0  0  0  0  0
  -15.5218  -37.1909  -11.1489 C   0  0  0  0  0  0  0  0  0  0  0  0
  -15.2500  -35.9302  -11.8881 C   0  0  0  0  0  0  0  0  0  0  0  0
  -15.6120  -35.8373  -10.4150 C   0  0  0  0  0  0  0  0  0  0  0  0
  -14.3630  -38.0444  -10.8175 C   0  0  0  0  0  0  0  0  0  0  0  0
  -14.2410  -39.3638  -11.1783 C   0  0  0  0  0  0  0  0  0  0  0  0
  -13.1820  -40.1648  -10.8488 C   0  0  0  0  0  0  0  0  0  0  0  0
  -12.1617  -39.6170  -10.1040 C   0  0  0  0  0  0  0  0  0  0  0  0
  -12.2844  -38.2902   -9.7423 C   0  0  0  0  0  0  0  0  0  0  0  0
  -13.3353  -37.5287  -10.0798 N   0  0  0  0  0  0  0  0  0  0  0  0
  -13.1346  -41.5933  -11.2856 C   0  0  0  0  0  0  0  0  0  0  0  0
  -13.2736  -42.4616  -10.0727 C   0  0  0  0  0  0  0  0  0  0  0  0
  -11.8014  -41.8911  -11.9586 C   0  0  0  0  0  0  0  0  0  0  0  0
  -14.2094  -41.7962  -12.3171 C   0  0  0  0  0  0  0  0  0  0  0  0
  2  1  1  1
  2  3  1  0
  3  4  1  0
  4  5  1  0
  5  6  1  0
  6  7  1  0
  7  8  1  0
  8  9  1  0
  9 10  1  0
 10 11  1  0
 11 12  2  0
 11 13  1  0
 13 14  1  0
 13 15  1  0
 15 16  1  1
 15 17  1  0
 17 18  2  0
 17 19  1  0
 19 20  1  0
 20 21  1  1
 20 22  1  0
 22 23  1  6
 22 24  1  0
 24 25  1  0
 25 26  1  0
 26 27  1  0
 27 28  1  0
 26 29  1  0
 29 30  2  0
 30 31  1  0
 31 32  2  0
 32 33  1  0
 33 34  2  0
 31 35  1  0
 35 36  1  0
 35 37  1  0
 35 38  1  0
 21  2  1  0
 28 26  1  0
 34 29  1  0
M  END
$$$$
