
     RDKit          3D

 38 40  0  0  0  0  0  0  0  0999 V2000
  -18.8218  -38.5494   -5.3150 C   0  0  0  0  0  0  0  0  0  0  0  0
  -19.8330  -38.9114   -6.3454 C   0  0  2  0  0  0  0  0  0  0  0  0
  -21.0343  -39.5285   -5.6589 C   0  0  0  0  0  0  0  0  0  0  0  0
  -22.3251  -38.7997   -6.0519 C   0  0  0  0  0  0  0  0  0  0  0  0
  -23.5321  -39.3477   -5.3700 C   0  0  0  0  0  0  0  0  0  0  0  0
  -24.1122  -40.4703   -6.1698 C   0  0  0  0  0  0  0  0  0  0  0  0
  -24.0271  -41.7426   -5.3291 C   0  0  0  0  0  0  0  0  0  0  0  0
  -23.9122  -42.9142   -6.2647 C   0  0  0  0  0  0  0  0  0  0  0  0
  -22.8638  -43.8982   -5.7814 C   0  0  0  0  0  0  0  0  0  0  0  0
  -21.4967  -43.5771   -6.4083 C   0  0  0  0  0  0  0  0  0  0  0  0
  -20.7977  -44.8292   -6.8035 C   0  0  0  0  0  0  0  0  0  0  0  0
  -21.5558  -45.8510   -6.9674 O   0  0  0  0  0  0  0  0  0  0  0  0
  -19.4064  -44.9633   -7.0023 N   0  0  0  0  0  0  0  0  0  0  0  0
  -18.7506  -46.1434   -6.4479 C   0  0  0  0  0  0  0  0  0  0  0  0
  -18.6064  -43.9706   -7.7437 C   0  0  1  0  0  0  0  0  0  0  0  0
  -19.3181  -43.4056   -8.9147 C   0  0  0  0  0  0  0  0  0  0  0  0
  -17.9921  -43.0051   -6.8121 C   0  0  0  0  0  0  0  0  0  0  0  0
  -17.0470  -43.5251   -6.0926 O   0  0  0  0  0  0  0  0  0  0  0  0
  -18.3007  -41.6479   -6.6220 N   0  0  0  0  0  0  0  0  0  0  0  0
  -18.2387  -40.5442   -7.5119 C   0  0  1  0  0  0  0  0  0  0  0  0
  -19.3889  -39.6195   -7.5453 C   0  0  0  0  0  0  0  0  0  0  0  0
  -16.8729  -39.8519   -7.5576 C   0  0  2  0  0  0  0  0  0  0  0  0
  -16.8118  -39.1346   -6.3375 O   0  0  0  0  0  0  0  0  0  0  0  0
  -16.9046  -38.7073   -8.5958 C   0  0  0  0  0  0  0  0  0  0  0  0
  -15.8351  -39.0118   -9.5243 N   0  0  0  0  0  0  0  0  0  0  0  0
  -15.5606  -37.9748  -10.4749 C   0  0  0  0  0  0  0  0  0  0  0  0
  -16.6630  -37.3001  -11.2093 C   0  0  0  0  0  0  0  0  0  0  0  0
  -16.0708  -36.5998   -9.9975 C   0  0  0  0  0  0  0  0  0  0  0  0
  -14.2321  -37.9972  -11.1199 C   0  0  0  0  0  0  0  0  0  0  0  0
  -13.5547  -36.8801  -11.5432 C   0  0  0  0  0  0  0  0  0  0  0  0
  -12.3369  -36.8996  -12.1663 C   0  0  0  0  0  0  0  0  0  0  0  0
  -11.7411  -38.1210  -12.3874 C   0  0  0  0  0  0  0  0  0  0  0  0
  -12.4221  -39.2437  -11.9609 C   0  0  0  0  0  0  0  0  0  0  0  0
  -13.6160  -39.1942  -11.3523 N   0  0  0  0  0  0  0  0  0  0  0  0
  -11.6729  -35.6308  -12.5940 C   0  0  0  0  0  0  0  0  0  0  0  0
  -10.7834  -35.1665  -11.4816 C   0  0  0  0  0  0  0  0  0  0  0  0
  -12.7195  -34.5600  -12.8720 C   0  0  0  0  0  0  0  0  0  0  0  0
  -10.9555  -35.8989  -13.8878 C   0  0  0  0  0  0  0  0  0  0  0  0
  2  1  1  1
  2  3  1  0
  3  4  1  0
  4  5  1  0
  5  6  1  0
  6  7  1  0
  7  8  1  0
  8  9  1  0
  9 10  1  0
 10 11  1  0
 11 12  2  0
 11 13  1  0
 13 14  1  0
 13 15  1  0
 15 16  1  6
 15 17  1  0
 17 18  2  0
 17 19  1  0
 19 20  1  0
 20 21  1  1
 20 22  1  0
 22 23  1  1
 22 24  1  0
 24 25  1  0
 25 26  1  0
 26 27  1  0
 27 28  1  0
 26 29  1  0
 29 30  2  0
 30 31  1  0
 31 32  2  0
 32 33  1  0
 33 34  2  0
 31 35  1  0
 35 36  1  0
 35 37  1  0
 35 38  1  0
 21  2  1  0
 28 26  1  0
 34 29  1  0
M  END
$$$$
