
     RDKit          3D

 38 40  0  0  0  0  0  0  0  0999 V2000
  -19.0793  -37.8557   -5.9775 C   0  0  0  0  0  0  0  0  0  0  0  0
  -19.9401  -38.4676   -7.0262 C   0  0  2  0  0  0  0  0  0  0  0  0
  -21.1550  -39.0858   -6.3650 C   0  0  0  0  0  0  0  0  0  0  0  0
  -22.4502  -38.5545   -6.9909 C   0  0  0  0  0  0  0  0  0  0  0  0
  -23.6758  -39.1061   -6.3458 C   0  0  0  0  0  0  0  0  0  0  0  0
  -24.0731  -40.3888   -7.0039 C   0  0  0  0  0  0  0  0  0  0  0  0
  -23.9771  -41.5030   -5.9637 C   0  0  0  0  0  0  0  0  0  0  0  0
  -23.6671  -42.7873   -6.6817 C   0  0  0  0  0  0  0  0  0  0  0  0
  -22.6013  -43.5793   -5.9485 C   0  0  0  0  0  0  0  0  0  0  0  0
  -21.2047  -43.2269   -6.4877 C   0  0  0  0  0  0  0  0  0  0  0  0
  -20.3680  -44.4511   -6.6068 C   0  0  0  0  0  0  0  0  0  0  0  0
  -21.0188  -45.5546   -6.6733 O   0  0  0  0  0  0  0  0  0  0  0  0
  -18.9571  -44.4785   -6.6491 N   0  0  0  0  0  0  0  0  0  0  0  0
  -18.2721  -45.4905   -5.8513 C   0  0  0  0  0  0  0  0  0  0  0  0
  -18.1643  -43.5382   -7.4631 C   0  0  1  0  0  0  0  0  0  0  0  0
  -18.7882  -43.2309   -8.7720 C   0  0  0  0  0  0  0  0  0  0  0  0
  -17.7347  -42.3864   -6.6468 C   0  0  0  0  0  0  0  0  0  0  0  0
  -16.8343  -42.6960   -5.7666 O   0  0  0  0  0  0  0  0  0  0  0  0
  -18.1708  -41.0525   -6.7094 N   0  0  0  0  0  0  0  0  0  0  0  0
  -18.1021  -40.0974   -7.7567 C   0  0  1  0  0  0  0  0  0  0  0  0
  -19.3129  -39.3046   -8.0480 C   0  0  0  0  0  0  0  0  0  0  0  0
  -16.7998  -39.2911   -7.7853 C   0  0  2  0  0  0  0  0  0  0  0  0
  -16.9168  -38.4933   -8.9502 O   0  0  0  0  0  0  0  0  0  0  0  0
  -15.6212  -40.2198   -8.1555 C   0  0  0  0  0  0  0  0  0  0  0  0
  -14.5474  -39.3285   -8.5440 N   0  0  0  0  0  0  0  0  0  0  0  0
  -13.7587  -39.7938   -9.6466 C   0  0  0  0  0  0  0  0  0  0  0  0
  -12.7161  -38.9290  -10.2591 C   0  0  0  0  0  0  0  0  0  0  0  0
  -12.2781  -39.9875   -9.2604 C   0  0  0  0  0  0  0  0  0  0  0  0
  -14.3590  -40.8383  -10.5010 C   0  0  0  0  0  0  0  0  0  0  0  0
  -15.6743  -41.2289  -10.4428 C   0  0  0  0  0  0  0  0  0  0  0  0
  -16.2267  -42.2155  -11.2129 C   0  0  0  0  0  0  0  0  0  0  0  0
  -15.4138  -42.8670  -12.1133 C   0  0  0  0  0  0  0  0  0  0  0  0
  -14.0917  -42.4733  -12.1720 C   0  0  0  0  0  0  0  0  0  0  0  0
  -13.5775  -41.5021  -11.4037 N   0  0  0  0  0  0  0  0  0  0  0  0
  -17.6714  -42.5748  -11.0805 C   0  0  0  0  0  0  0  0  0  0  0  0
  -18.4635  -41.6837  -11.9875 C   0  0  0  0  0  0  0  0  0  0  0  0
  -18.1348  -42.3603   -9.6458 C   0  0  0  0  0  0  0  0  0  0  0  0
  -17.8111  -44.0417  -11.3790 C   0  0  0  0  0  0  0  0  0  0  0  0
  2  1  1  1
  2  3  1  0
  3  4  1  0
  4  5  1  0
  5  6  1  0
  6  7  1  0
  7  8  1  0
  8  9  1  0
  9 10  1  0
 10 11  1  0
 11 12  2  0
 11 13  1  0
 13 14  1  0
 13 15  1  0
 15 16  1  6
 15 17  1  0
 17 18  2  0
 17 19  1  0
 19 20  1  0
 20 21  1  1
 20 22  1  0
 22 23  1  6
 22 24  1  0
 24 25  1  0
 25 26  1  0
 26 27  1  0
 27 28  1  0
 26 29  1  0
 29 30  2  0
 30 31  1  0
 31 32  2  0
 32 33  1  0
 33 34  2  0
 31 35  1  0
 35 36  1  0
 35 37  1  0
 35 38  1  0
 21  2  1  0
 28 26  1  0
 34 29  1  0
M  END
$$$$
