
     RDKit          3D

 38 40  0  0  0  0  0  0  0  0999 V2000
  -17.9831  -38.1665   -5.5372 C   0  0  0  0  0  0  0  0  0  0  0  0
  -18.6689  -38.3075   -6.8506 C   0  0  2  0  0  0  0  0  0  0  0  0
  -20.0974  -38.7529   -6.6132 C   0  0  0  0  0  0  0  0  0  0  0  0
  -21.0888  -37.8046   -7.2984 C   0  0  0  0  0  0  0  0  0  0  0  0
  -22.5116  -38.1808   -7.0603 C   0  0  0  0  0  0  0  0  0  0  0  0
  -22.9697  -39.1529   -8.1003 C   0  0  0  0  0  0  0  0  0  0  0  0
  -23.3270  -40.4617   -7.3988 C   0  0  0  0  0  0  0  0  0  0  0  0
  -23.0963  -41.5890   -8.3668 C   0  0  0  0  0  0  0  0  0  0  0  0
  -22.3967  -42.7536   -7.6921 C   0  0  0  0  0  0  0  0  0  0  0  0
  -20.8722  -42.6298   -7.8525 C   0  0  0  0  0  0  0  0  0  0  0  0
  -20.2691  -43.9584   -8.1419 C   0  0  0  0  0  0  0  0  0  0  0  0
  -21.0761  -44.8333   -8.6204 O   0  0  0  0  0  0  0  0  0  0  0  0
  -18.9175  -44.3081   -7.9320 N   0  0  0  0  0  0  0  0  0  0  0  0
  -18.6368  -45.6052   -7.3248 C   0  0  0  0  0  0  0  0  0  0  0  0
  -17.7969  -43.4243   -8.3042 C   0  0  1  0  0  0  0  0  0  0  0  0
  -18.0274  -42.6938   -9.5731 C   0  0  0  0  0  0  0  0  0  0  0  0
  -17.3692  -42.6190   -7.1440 C   0  0  0  0  0  0  0  0  0  0  0  0
  -16.7742  -43.3212   -6.2306 O   0  0  0  0  0  0  0  0  0  0  0  0
  -17.5271  -41.2407   -6.9237 N   0  0  0  0  0  0  0  0  0  0  0  0
  -17.0399  -40.1196   -7.6447 C   0  0  1  0  0  0  0  0  0  0  0  0
  -17.9820  -39.0188   -7.9278 C   0  0  0  0  0  0  0  0  0  0  0  0
  -15.6430  -39.6583   -7.2173 C   0  0  2  0  0  0  0  0  0  0  0  0
  -15.8428  -38.3279   -6.7736 O   0  0  0  0  0  0  0  0  0  0  0  0
  -14.7604  -39.4451   -8.4681 C   0  0  0  0  0  0  0  0  0  0  0  0
  -14.7894  -40.7122   -9.1696 N   0  0  0  0  0  0  0  0  0  0  0  0
  -13.8919  -40.7949  -10.2840 C   0  0  0  0  0  0  0  0  0  0  0  0
  -13.0798  -42.0171  -10.5219 C   0  0  0  0  0  0  0  0  0  0  0  0
  -14.3555  -41.8322  -11.3270 C   0  0  0  0  0  0  0  0  0  0  0  0
  -13.3658  -39.5196  -10.8115 C   0  0  0  0  0  0  0  0  0  0  0  0
  -14.1349  -38.5452  -11.3988 C   0  0  0  0  0  0  0  0  0  0  0  0
  -13.6470  -37.3754  -11.9138 C   0  0  0  0  0  0  0  0  0  0  0  0
  -12.2905  -37.1508  -11.8410 C   0  0  0  0  0  0  0  0  0  0  0  0
  -11.5178  -38.1304  -11.2496 C   0  0  0  0  0  0  0  0  0  0  0  0
  -12.0242  -39.2685  -10.7532 N   0  0  0  0  0  0  0  0  0  0  0  0
  -14.5610  -36.3705  -12.5369 C   0  0  0  0  0  0  0  0  0  0  0  0
  -13.9110  -35.8512  -13.7827 C   0  0  0  0  0  0  0  0  0  0  0  0
  -14.7946  -35.2102  -11.5786 C   0  0  0  0  0  0  0  0  0  0  0  0
  -15.8905  -37.0347  -12.7645 C   0  0  0  0  0  0  0  0  0  0  0  0
  2  1  1  1
  2  3  1  0
  3  4  1  0
  4  5  1  0
  5  6  1  0
  6  7  1  0
  7  8  1  0
  8  9  1  0
  9 10  1  0
 10 11  1  0
 11 12  2  0
 11 13  1  0
 13 14  1  0
 13 15  1  0
 15 16  1  6
 15 17  1  0
 17 18  2  0
 17 19  1  0
 19 20  1  0
 20 21  1  1
 20 22  1  0
 22 23  1  6
 22 24  1  0
 24 25  1  0
 25 26  1  0
 26 27  1  0
 27 28  1  0
 26 29  1  0
 29 30  2  0
 30 31  1  0
 31 32  2  0
 32 33  1  0
 33 34  2  0
 31 35  1  0
 35 36  1  0
 35 37  1  0
 35 38  1  0
 21  2  1  0
 28 26  1  0
 34 29  1  0
M  END
$$$$
