
     RDKit          3D

 38 40  0  0  0  0  0  0  0  0999 V2000
  -18.0181  -38.4597   -5.4372 C   0  0  0  0  0  0  0  0  0  0  0  0
  -18.7969  -38.6345   -6.6934 C   0  0  2  0  0  0  0  0  0  0  0  0
  -20.1259  -39.2815   -6.3610 C   0  0  0  0  0  0  0  0  0  0  0  0
  -21.2928  -38.4483   -6.9048 C   0  0  0  0  0  0  0  0  0  0  0  0
  -22.6252  -39.0261   -6.5684 C   0  0  0  0  0  0  0  0  0  0  0  0
  -23.0442  -40.0044   -7.6190 C   0  0  0  0  0  0  0  0  0  0  0  0
  -23.1591  -41.3797   -6.9649 C   0  0  0  0  0  0  0  0  0  0  0  0
  -22.8709  -42.4206   -8.0112 C   0  0  0  0  0  0  0  0  0  0  0  0
  -21.9643  -43.5073   -7.4653 C   0  0  0  0  0  0  0  0  0  0  0  0
  -20.4908  -43.1688   -7.7473 C   0  0  0  0  0  0  0  0  0  0  0  0
  -19.7462  -44.3881   -8.1616 C   0  0  0  0  0  0  0  0  0  0  0  0
  -20.4707  -45.3431   -8.6186 O   0  0  0  0  0  0  0  0  0  0  0  0
  -18.3467  -44.5585   -8.0874 N   0  0  0  0  0  0  0  0  0  0  0  0
  -17.8422  -45.8307   -7.5806 C   0  0  0  0  0  0  0  0  0  0  0  0
  -17.3920  -43.5138   -8.5028 C   0  0  1  0  0  0  0  0  0  0  0  0
  -17.8327  -42.7660   -9.7042 C   0  0  0  0  0  0  0  0  0  0  0  0
  -16.9700  -42.7101   -7.3395 C   0  0  0  0  0  0  0  0  0  0  0  0
  -16.2059  -43.3641   -6.5212 O   0  0  0  0  0  0  0  0  0  0  0  0
  -17.2882  -41.3775   -7.0290 N   0  0  0  0  0  0  0  0  0  0  0  0
  -17.0220  -40.1692   -7.7242 C   0  0  1  0  0  0  0  0  0  0  0  0
  -18.1235  -39.1964   -7.8635 C   0  0  0  0  0  0  0  0  0  0  0  0
  -15.6652  -39.5406   -7.3916 C   0  0  2  0  0  0  0  0  0  0  0  0
  -16.0001  -38.3071   -6.7807 O   0  0  0  0  0  0  0  0  0  0  0  0
  -14.9763  -39.0716   -8.6933 C   0  0  0  0  0  0  0  0  0  0  0  0
  -15.1838  -40.1498   -9.6383 N   0  0  0  0  0  0  0  0  0  0  0  0
  -14.1655  -40.2656  -10.6403 C   0  0  0  0  0  0  0  0  0  0  0  0
  -13.1236  -41.3223  -10.5523 C   0  0  0  0  0  0  0  0  0  0  0  0
  -14.3119  -41.5574  -11.4702 C   0  0  0  0  0  0  0  0  0  0  0  0
  -13.8229  -39.0381  -11.3867 C   0  0  0  0  0  0  0  0  0  0  0  0
  -14.5579  -37.8784  -11.3547 C   0  0  0  0  0  0  0  0  0  0  0  0
  -14.2589  -36.7492  -12.0668 C   0  0  0  0  0  0  0  0  0  0  0  0
  -13.1436  -36.7678  -12.8740 C   0  0  0  0  0  0  0  0  0  0  0  0
  -12.4045  -37.9336  -12.9050 C   0  0  0  0  0  0  0  0  0  0  0  0
  -12.7221  -39.0263  -12.1957 N   0  0  0  0  0  0  0  0  0  0  0  0
  -15.1187  -35.5305  -11.9704 C   0  0  0  0  0  0  0  0  0  0  0  0
  -16.5452  -35.9437  -12.1667 C   0  0  0  0  0  0  0  0  0  0  0  0
  -14.7372  -34.5333  -13.0562 C   0  0  0  0  0  0  0  0  0  0  0  0
  -14.8422  -34.8745  -10.6461 C   0  0  0  0  0  0  0  0  0  0  0  0
  2  1  1  1
  2  3  1  0
  3  4  1  0
  4  5  1  0
  5  6  1  0
  6  7  1  0
  7  8  1  0
  8  9  1  0
  9 10  1  0
 10 11  1  0
 11 12  2  0
 11 13  1  0
 13 14  1  0
 13 15  1  0
 15 16  1  6
 15 17  1  0
 17 18  2  0
 17 19  1  0
 19 20  1  0
 20 21  1  1
 20 22  1  0
 22 23  1  1
 22 24  1  0
 24 25  1  0
 25 26  1  0
 26 27  1  0
 27 28  1  0
 26 29  1  0
 29 30  2  0
 30 31  1  0
 31 32  2  0
 32 33  1  0
 33 34  2  0
 31 35  1  0
 35 36  1  0
 35 37  1  0
 35 38  1  0
 21  2  1  0
 28 26  1  0
 34 29  1  0
M  END
$$$$
