
     RDKit          3D

 38 40  0  0  0  0  0  0  0  0999 V2000
  -18.1188  -37.6320   -6.4181 C   0  0  0  0  0  0  0  0  0  0  0  0
  -19.1441  -38.1077   -7.3864 C   0  0  2  0  0  0  0  0  0  0  0  0
  -20.3058  -38.7040   -6.6182 C   0  0  0  0  0  0  0  0  0  0  0  0
  -21.6299  -38.0499   -7.0309 C   0  0  0  0  0  0  0  0  0  0  0  0
  -22.7997  -38.5779   -6.2726 C   0  0  0  0  0  0  0  0  0  0  0  0
  -23.3630  -39.7792   -6.9625 C   0  0  0  0  0  0  0  0  0  0  0  0
  -23.2135  -40.9757   -6.0252 C   0  0  0  0  0  0  0  0  0  0  0  0
  -23.0844  -42.2153   -6.8665 C   0  0  0  0  0  0  0  0  0  0  0  0
  -21.9915  -43.1238   -6.3362 C   0  0  0  0  0  0  0  0  0  0  0  0
  -20.6528  -42.8124   -7.0262 C   0  0  0  0  0  0  0  0  0  0  0  0
  -19.9232  -44.0702   -7.3395 C   0  0  0  0  0  0  0  0  0  0  0  0
  -20.6509  -45.1250   -7.3988 O   0  0  0  0  0  0  0  0  0  0  0  0
  -18.5339  -44.1768   -7.5670 N   0  0  0  0  0  0  0  0  0  0  0  0
  -17.8249  -45.2870   -6.9387 C   0  0  0  0  0  0  0  0  0  0  0  0
  -17.7871  -43.2232   -8.4086 C   0  0  1  0  0  0  0  0  0  0  0  0
  -18.5478  -42.7776   -9.6001 C   0  0  0  0  0  0  0  0  0  0  0  0
  -17.1810  -42.1667   -7.5757 C   0  0  0  0  0  0  0  0  0  0  0  0
  -16.2006  -42.5970   -6.8443 O   0  0  0  0  0  0  0  0  0  0  0  0
  -17.5295  -40.8088   -7.4864 N   0  0  0  0  0  0  0  0  0  0  0  0
  -17.5276  -39.7796   -8.4635 C   0  0  1  0  0  0  0  0  0  0  0  0
  -18.7085  -38.8968   -8.5379 C   0  0  0  0  0  0  0  0  0  0  0  0
  -16.1873  -39.0513   -8.6042 C   0  0  2  0  0  0  0  0  0  0  0  0
  -16.5497  -37.6863   -8.7162 O   0  0  0  0  0  0  0  0  0  0  0  0
  -15.5858  -39.3339   -9.9996 C   0  0  0  0  0  0  0  0  0  0  0  0
  -14.4248  -40.1630   -9.7480 N   0  0  0  0  0  0  0  0  0  0  0  0
  -13.5733  -40.3535  -10.8851 C   0  0  0  0  0  0  0  0  0  0  0  0
  -12.4005  -41.2645  -10.8173 C   0  0  0  0  0  0  0  0  0  0  0  0
  -13.6786  -41.7824  -11.4561 C   0  0  0  0  0  0  0  0  0  0  0  0
  -13.5194  -39.2530  -11.8686 C   0  0  0  0  0  0  0  0  0  0  0  0
  -13.4750  -37.9200  -11.5417 C   0  0  0  0  0  0  0  0  0  0  0  0
  -13.4535  -36.8974  -12.4503 C   0  0  0  0  0  0  0  0  0  0  0  0
  -13.4767  -37.2189  -13.7890 C   0  0  0  0  0  0  0  0  0  0  0  0
  -13.5205  -38.5593  -14.1171 C   0  0  0  0  0  0  0  0  0  0  0  0
  -13.5409  -39.5410  -13.2039 N   0  0  0  0  0  0  0  0  0  0  0  0
  -13.4058  -35.4726  -12.0018 C   0  0  0  0  0  0  0  0  0  0  0  0
  -14.6216  -35.1995  -11.1702 C   0  0  0  0  0  0  0  0  0  0  0  0
  -13.4112  -34.5434  -13.2083 C   0  0  0  0  0  0  0  0  0  0  0  0
  -12.1037  -35.2592  -11.2811 C   0  0  0  0  0  0  0  0  0  0  0  0
  2  1  1  1
  2  3  1  0
  3  4  1  0
  4  5  1  0
  5  6  1  0
  6  7  1  0
  7  8  1  0
  8  9  1  0
  9 10  1  0
 10 11  1  0
 11 12  2  0
 11 13  1  0
 13 14  1  0
 13 15  1  0
 15 16  1  6
 15 17  1  0
 17 18  2  0
 17 19  1  0
 19 20  1  0
 20 21  1  1
 20 22  1  0
 22 23  1  6
 22 24  1  0
 24 25  1  0
 25 26  1  0
 26 27  1  0
 27 28  1  0
 26 29  1  0
 29 30  2  0
 30 31  1  0
 31 32  2  0
 32 33  1  0
 33 34  2  0
 31 35  1  0
 35 36  1  0
 35 37  1  0
 35 38  1  0
 21  2  1  0
 28 26  1  0
 34 29  1  0
M  END
$$$$
