
     RDKit          3D

 38 40  0  0  0  0  0  0  0  0999 V2000
  -18.4719  -38.7992   -4.5583 C   0  0  0  0  0  0  0  0  0  0  0  0
  -19.2012  -38.7649   -5.8552 C   0  0  2  0  0  0  0  0  0  0  0  0
  -20.5205  -39.4925   -5.6960 C   0  0  0  0  0  0  0  0  0  0  0  0
  -21.6929  -38.6036   -6.1282 C   0  0  0  0  0  0  0  0  0  0  0  0
  -23.0179  -39.2640   -5.9527 C   0  0  0  0  0  0  0  0  0  0  0  0
  -23.3703  -40.0482   -7.1764 C   0  0  0  0  0  0  0  0  0  0  0  0
  -23.4656  -41.5207   -6.7826 C   0  0  0  0  0  0  0  0  0  0  0  0
  -23.1099  -42.3502   -7.9853 C   0  0  0  0  0  0  0  0  0  0  0  0
  -22.1898  -43.4951   -7.6063 C   0  0  0  0  0  0  0  0  0  0  0  0
  -20.7185  -43.0765   -7.7654 C   0  0  0  0  0  0  0  0  0  0  0  0
  -19.9232  -44.1837   -8.3604 C   0  0  0  0  0  0  0  0  0  0  0  0
  -20.6020  -45.0585   -9.0083 O   0  0  0  0  0  0  0  0  0  0  0  0
  -18.5225  -44.3311   -8.2627 N   0  0  0  0  0  0  0  0  0  0  0  0
  -17.9970  -45.6611   -7.9710 C   0  0  0  0  0  0  0  0  0  0  0  0
  -17.5864  -43.2064   -8.4476 C   0  0  1  0  0  0  0  0  0  0  0  0
  -18.0081  -42.2663   -9.5131 C   0  0  0  0  0  0  0  0  0  0  0  0
  -17.2295  -42.6141   -7.1441 C   0  0  0  0  0  0  0  0  0  0  0  0
  -16.4744  -43.3856   -6.4259 O   0  0  0  0  0  0  0  0  0  0  0  0
  -17.5988  -41.3666   -6.6142 N   0  0  0  0  0  0  0  0  0  0  0  0
  -17.3458  -40.0474   -7.0721 C   0  0  1  0  0  0  0  0  0  0  0  0
  -18.4711  -39.0919   -7.0793 C   0  0  0  0  0  0  0  0  0  0  0  0
  -16.0211  -39.4562   -6.5798 C   0  0  2  0  0  0  0  0  0  0  0  0
  -16.3191  -38.0897   -6.3544 O   0  0  0  0  0  0  0  0  0  0  0  0
  -15.0207  -39.3717   -7.7549 C   0  0  0  0  0  0  0  0  0  0  0  0
  -15.8265  -39.0387   -8.9119 N   0  0  0  0  0  0  0  0  0  0  0  0
  -15.2341  -39.3893  -10.1691 C   0  0  0  0  0  0  0  0  0  0  0  0
  -14.0594  -40.2979  -10.2333 C   0  0  0  0  0  0  0  0  0  0  0  0
  -15.4358  -40.8799  -10.5102 C   0  0  0  0  0  0  0  0  0  0  0  0
  -15.4090  -38.4298  -11.2782 C   0  0  0  0  0  0  0  0  0  0  0  0
  -16.3033  -37.3877  -11.2707 C   0  0  0  0  0  0  0  0  0  0  0  0
  -16.4876  -36.5144  -12.3076 C   0  0  0  0  0  0  0  0  0  0  0  0
  -15.7258  -36.6846  -13.4419 C   0  0  0  0  0  0  0  0  0  0  0  0
  -14.8262  -37.7319  -13.4486 C   0  0  0  0  0  0  0  0  0  0  0  0
  -14.6672  -38.5731  -12.4164 N   0  0  0  0  0  0  0  0  0  0  0  0
  -17.4870  -35.4074  -12.2108 C   0  0  0  0  0  0  0  0  0  0  0  0
  -18.3619  -35.6652  -11.0224 C   0  0  0  0  0  0  0  0  0  0  0  0
  -18.3510  -35.3710  -13.4643 C   0  0  0  0  0  0  0  0  0  0  0  0
  -16.7322  -34.1084  -12.1522 C   0  0  0  0  0  0  0  0  0  0  0  0
  2  1  1  1
  2  3  1  0
  3  4  1  0
  4  5  1  0
  5  6  1  0
  6  7  1  0
  7  8  1  0
  8  9  1  0
  9 10  1  0
 10 11  1  0
 11 12  2  0
 11 13  1  0
 13 14  1  0
 13 15  1  0
 15 16  1  6
 15 17  1  0
 17 18  2  0
 17 19  1  0
 19 20  1  0
 20 21  1  1
 20 22  1  0
 22 23  1  6
 22 24  1  0
 24 25  1  0
 25 26  1  0
 26 27  1  0
 27 28  1  0
 26 29  1  0
 29 30  2  0
 30 31  1  0
 31 32  2  0
 32 33  1  0
 33 34  2  0
 31 35  1  0
 35 36  1  0
 35 37  1  0
 35 38  1  0
 21  2  1  0
 28 26  1  0
 34 29  1  0
M  END
$$$$
