
     RDKit          3D

 37 39  0  0  0  0  0  0  0  0999 V2000
  -10.2400  -36.5946  -12.5876 C   0  0  0  0  0  0  0  0  0  0  0  0
  -10.9448  -36.6144  -11.2606 C   0  0  0  0  0  0  0  0  0  0  0  0
  -10.0831  -37.4298  -10.3071 C   0  0  0  0  0  0  0  0  0  0  0  0
  -12.2452  -37.3334  -11.3857 C   0  0  0  0  0  0  0  0  0  0  0  0
  -13.3338  -37.0616  -10.5840 C   0  0  0  0  0  0  0  0  0  0  0  0
  -14.5187  -37.7355  -10.7095 C   0  0  0  0  0  0  0  0  0  0  0  0
  -15.7020  -37.4326   -9.8276 C   0  0  0  0  0  0  0  0  0  0  0  0
  -15.5524  -38.0827   -8.5685 N   0  0  0  0  0  0  0  0  0  0  0  0
  -16.3544  -39.2735   -8.4817 C   0  0  0  0  0  0  0  0  0  0  0  0
  -17.8031  -38.9727   -8.3321 C   0  0  1  0  0  0  0  0  0  0  0  0
  -18.3329  -38.7171   -9.5949 O   0  0  0  0  0  0  0  0  0  0  0  0
  -18.5599  -40.1218   -7.6572 C   0  0  2  0  0  0  0  0  0  0  0  0
  -19.4601  -39.4970   -6.6119 C   0  0  0  0  0  0  0  0  0  0  0  0
  -20.8512  -39.2265   -7.0849 C   0  0  2  0  0  0  0  0  0  0  0  0
  -21.1206  -37.7755   -7.4132 C   0  0  0  0  0  0  0  0  0  0  0  0
  -21.7885  -39.5855   -5.9229 C   0  0  0  0  0  0  0  0  0  0  0  0
  -23.0843  -40.0288   -6.4675 C   0  0  0  0  0  0  0  0  0  0  0  0
  -23.6444  -41.3437   -5.9648 C   0  0  0  0  0  0  0  0  0  0  0  0
  -23.2190  -42.5563   -6.0115 C   0  0  0  0  0  0  0  0  0  0  0  0
  -23.7699  -43.8740   -5.5116 C   0  0  0  0  0  0  0  0  0  0  0  0
  -22.6045  -44.9024   -5.5006 C   0  0  0  0  0  0  0  0  0  0  0  0
  -22.4368  -45.3987   -6.8972 C   0  0  0  0  0  0  0  0  0  0  0  0
  -21.0827  -45.8403   -7.1804 N   0  0  0  0  0  0  0  0  0  0  0  0
  -19.9010  -45.1193   -7.5257 C   0  0  0  0  0  0  0  0  0  0  0  0
  -19.2407  -45.7977   -8.5899 C   0  0  0  0  0  0  0  0  0  0  0  0
  -18.0761  -45.3715   -9.1529 C   0  0  0  0  0  0  0  0  0  0  0  0
  -17.4380  -46.1243  -10.2612 C   0  0  0  0  0  0  0  0  0  0  0  0
  -16.1019  -46.3240   -9.8887 O   0  0  0  0  0  0  0  0  0  0  0  0
  -17.5568  -44.2238   -8.6275 C   0  0  0  0  0  0  0  0  0  0  0  0
  -18.1612  -43.4953   -7.5659 C   0  0  0  0  0  0  0  0  0  0  0  0
  -19.3413  -43.9616   -7.0228 C   0  0  0  0  0  0  0  0  0  0  0  0
  -17.3320  -42.3290   -7.2581 C   0  0  0  0  0  0  0  0  0  0  0  0
  -16.0119  -42.4695   -7.2498 O   0  0  0  0  0  0  0  0  0  0  0  0
  -17.6343  -40.9810   -6.9455 N   0  0  0  0  0  0  0  0  0  0  0  0
  -14.6130  -38.7151  -11.6732 C   0  0  0  0  0  0  0  0  0  0  0  0
  -13.5237  -39.0026  -12.4918 C   0  0  0  0  0  0  0  0  0  0  0  0
  -12.3371  -38.3202  -12.3583 C   0  0  0  0  0  0  0  0  0  0  0  0
  1  2  1  0
  2  3  1  0
  2  4  1  0
  4  5  2  0
  5  6  1  0
  6  7  1  0
  7  8  1  0
  8  9  1  0
  9 10  1  0
 10 11  1  6
 10 12  1  0
 12 13  1  1
 13 14  1  0
 14 15  1  1
 14 16  1  0
 16 17  1  0
 17 18  1  0
 18 19  2  0
 19 20  1  0
 20 21  1  0
 21 22  1  0
 22 23  1  0
 23 24  1  0
 24 25  2  0
 25 26  1  0
 26 27  1  0
 27 28  1  0
 26 29  2  0
 29 30  1  0
 30 31  2  0
 30 32  1  0
 32 33  2  0
 32 34  1  0
  6 35  2  0
 35 36  1  0
 36 37  2  0
 31 24  1  0
 34 12  1  0
 37  4  1  0
M  END
$$$$
