
     RDKit          3D

 37 39  0  0  0  0  0  0  0  0999 V2000
  -14.0958  -35.1845  -14.1455 C   0  0  0  0  0  0  0  0  0  0  0  0
  -14.8290  -35.7457  -12.9601 C   0  0  0  0  0  0  0  0  0  0  0  0
  -15.5041  -34.5775  -12.2558 C   0  0  0  0  0  0  0  0  0  0  0  0
  -13.8578  -36.3285  -11.9902 C   0  0  0  0  0  0  0  0  0  0  0  0
  -14.1380  -37.4391  -11.2222 C   0  0  0  0  0  0  0  0  0  0  0  0
  -13.2359  -37.9577  -10.3328 C   0  0  0  0  0  0  0  0  0  0  0  0
  -13.5519  -39.1705   -9.4968 C   0  0  0  0  0  0  0  0  0  0  0  0
  -14.4902  -38.8319   -8.4793 N   0  0  0  0  0  0  0  0  0  0  0  0
  -15.8167  -39.2853   -8.8014 C   0  0  0  0  0  0  0  0  0  0  0  0
  -16.8468  -38.7197   -7.8900 C   0  0  1  0  0  0  0  0  0  0  0  0
  -17.5334  -37.7160   -8.5697 O   0  0  0  0  0  0  0  0  0  0  0  0
  -17.8221  -39.7920   -7.3924 C   0  0  2  0  0  0  0  0  0  0  0  0
  -18.6549  -39.1520   -6.3014 C   0  0  0  0  0  0  0  0  0  0  0  0
  -19.9535  -38.5853   -6.7757 C   0  0  2  0  0  0  0  0  0  0  0  0
  -19.9543  -37.0804   -6.9206 C   0  0  0  0  0  0  0  0  0  0  0  0
  -20.9966  -38.9140   -5.6979 C   0  0  0  0  0  0  0  0  0  0  0  0
  -22.3194  -39.0525   -6.3330 C   0  0  0  0  0  0  0  0  0  0  0  0
  -23.1205  -40.3002   -6.0218 C   0  0  0  0  0  0  0  0  0  0  0  0
  -22.9062  -41.5536   -6.2131 C   0  0  0  0  0  0  0  0  0  0  0  0
  -23.6987  -42.8053   -5.9048 C   0  0  0  0  0  0  0  0  0  0  0  0
  -22.7278  -44.0158   -5.9933 C   0  0  0  0  0  0  0  0  0  0  0  0
  -22.5758  -44.3586   -7.4371 C   0  0  0  0  0  0  0  0  0  0  0  0
  -21.3041  -44.9930   -7.7357 N   0  0  0  0  0  0  0  0  0  0  0  0
  -20.0007  -44.4539   -7.9498 C   0  0  0  0  0  0  0  0  0  0  0  0
  -19.4121  -45.1020   -9.0734 C   0  0  0  0  0  0  0  0  0  0  0  0
  -18.1645  -44.8211   -9.5421 C   0  0  0  0  0  0  0  0  0  0  0  0
  -17.6081  -45.5324  -10.7197 C   0  0  0  0  0  0  0  0  0  0  0  0
  -17.7729  -44.6757  -11.8162 O   0  0  0  0  0  0  0  0  0  0  0  0
  -17.4848  -43.8558   -8.8573 C   0  0  0  0  0  0  0  0  0  0  0  0
  -18.0097  -43.1683   -7.7282 C   0  0  0  0  0  0  0  0  0  0  0  0
  -19.2783  -43.4832   -7.2848 C   0  0  0  0  0  0  0  0  0  0  0  0
  -17.0107  -42.2127   -7.2475 C   0  0  0  0  0  0  0  0  0  0  0  0
  -15.7361  -42.5828   -7.2191 O   0  0  0  0  0  0  0  0  0  0  0  0
  -17.0942  -40.8812   -6.7715 N   0  0  0  0  0  0  0  0  0  0  0  0
  -12.0109  -37.3397  -10.2112 C   0  0  0  0  0  0  0  0  0  0  0  0
  -11.7109  -36.2173  -10.9790 C   0  0  0  0  0  0  0  0  0  0  0  0
  -12.6237  -35.7034  -11.8701 C   0  0  0  0  0  0  0  0  0  0  0  0
  1  2  1  0
  2  3  1  0
  2  4  1  0
  4  5  2  0
  5  6  1  0
  6  7  1  0
  7  8  1  0
  8  9  1  0
  9 10  1  0
 10 11  1  6
 10 12  1  0
 12 13  1  1
 13 14  1  0
 14 15  1  1
 14 16  1  0
 16 17  1  0
 17 18  1  0
 18 19  2  0
 19 20  1  0
 20 21  1  0
 21 22  1  0
 22 23  1  0
 23 24  1  0
 24 25  2  0
 25 26  1  0
 26 27  1  0
 27 28  1  0
 26 29  2  0
 29 30  1  0
 30 31  2  0
 30 32  1  0
 32 33  2  0
 32 34  1  0
  6 35  2  0
 35 36  1  0
 36 37  2  0
 31 24  1  0
 34 12  1  0
 37  4  1  0
M  END
$$$$
