
     RDKit          3D

 37 39  0  0  0  0  0  0  0  0999 V2000
  -14.7959  -34.8113  -12.4824 C   0  0  0  0  0  0  0  0  0  0  0  0
  -13.8561  -35.2837  -11.4093 C   0  0  0  0  0  0  0  0  0  0  0  0
  -12.4762  -34.7396  -11.7501 C   0  0  0  0  0  0  0  0  0  0  0  0
  -13.7515  -36.7709  -11.4430 C   0  0  0  0  0  0  0  0  0  0  0  0
  -13.5719  -37.5369  -10.3104 C   0  0  0  0  0  0  0  0  0  0  0  0
  -13.4729  -38.9013  -10.3606 C   0  0  0  0  0  0  0  0  0  0  0  0
  -13.2749  -39.7296   -9.1179 C   0  0  0  0  0  0  0  0  0  0  0  0
  -14.2388  -39.3699   -8.1321 N   0  0  0  0  0  0  0  0  0  0  0  0
  -15.5841  -39.5671   -8.6012 C   0  0  0  0  0  0  0  0  0  0  0  0
  -16.6013  -39.1241   -7.6108 C   0  0  1  0  0  0  0  0  0  0  0  0
  -17.2695  -38.0176   -8.1302 O   0  0  0  0  0  0  0  0  0  0  0  0
  -17.5964  -40.2399   -7.2738 C   0  0  2  0  0  0  0  0  0  0  0  0
  -18.6309  -39.6367   -6.3467 C   0  0  0  0  0  0  0  0  0  0  0  0
  -19.8549  -39.1336   -7.0402 C   0  0  2  0  0  0  0  0  0  0  0  0
  -19.9005  -37.6308   -7.1997 C   0  0  0  0  0  0  0  0  0  0  0  0
  -21.0494  -39.5080   -6.1511 C   0  0  0  0  0  0  0  0  0  0  0  0
  -22.2375  -39.7108   -6.9994 C   0  0  0  0  0  0  0  0  0  0  0  0
  -23.0214  -40.9940   -6.8147 C   0  0  0  0  0  0  0  0  0  0  0  0
  -22.7202  -42.2365   -6.9532 C   0  0  0  0  0  0  0  0  0  0  0  0
  -23.4949  -43.5233   -6.7697 C   0  0  0  0  0  0  0  0  0  0  0  0
  -22.4683  -44.6868   -6.6793 C   0  0  0  0  0  0  0  0  0  0  0  0
  -22.0579  -45.0264   -8.0726 C   0  0  0  0  0  0  0  0  0  0  0  0
  -20.7261  -45.6008   -8.1446 N   0  0  0  0  0  0  0  0  0  0  0  0
  -19.4315  -45.0013   -8.1408 C   0  0  0  0  0  0  0  0  0  0  0  0
  -18.6316  -45.6242   -9.1413 C   0  0  0  0  0  0  0  0  0  0  0  0
  -17.3368  -45.2861   -9.3951 C   0  0  0  0  0  0  0  0  0  0  0  0
  -16.5565  -45.9738  -10.4535 C   0  0  0  0  0  0  0  0  0  0  0  0
  -15.6686  -45.0229  -10.9743 O   0  0  0  0  0  0  0  0  0  0  0  0
  -16.8284  -44.2876   -8.6157 C   0  0  0  0  0  0  0  0  0  0  0  0
  -17.5685  -43.6223   -7.5994 C   0  0  0  0  0  0  0  0  0  0  0  0
  -18.8780  -43.9955   -7.3738 C   0  0  0  0  0  0  0  0  0  0  0  0
  -16.7106  -42.6190   -6.9670 C   0  0  0  0  0  0  0  0  0  0  0  0
  -15.4436  -42.9283   -6.7191 O   0  0  0  0  0  0  0  0  0  0  0  0
  -16.9350  -41.2916   -6.5267 N   0  0  0  0  0  0  0  0  0  0  0  0
  -13.5574  -39.5166  -11.5901 C   0  0  0  0  0  0  0  0  0  0  0  0
  -13.7389  -38.7586  -12.7441 C   0  0  0  0  0  0  0  0  0  0  0  0
  -13.8373  -37.3881  -12.6838 C   0  0  0  0  0  0  0  0  0  0  0  0
  1  2  1  0
  2  3  1  0
  2  4  1  0
  4  5  2  0
  5  6  1  0
  6  7  1  0
  7  8  1  0
  8  9  1  0
  9 10  1  0
 10 11  1  6
 10 12  1  0
 12 13  1  1
 13 14  1  0
 14 15  1  1
 14 16  1  0
 16 17  1  0
 17 18  1  0
 18 19  2  0
 19 20  1  0
 20 21  1  0
 21 22  1  0
 22 23  1  0
 23 24  1  0
 24 25  2  0
 25 26  1  0
 26 27  1  0
 27 28  1  0
 26 29  2  0
 29 30  1  0
 30 31  2  0
 30 32  1  0
 32 33  2  0
 32 34  1  0
  6 35  2  0
 35 36  1  0
 36 37  2  0
 31 24  1  0
 34 12  1  0
 37  4  1  0
M  END
$$$$
