
     RDKit          3D

 37 39  0  0  0  0  0  0  0  0999 V2000
  -13.3030  -37.0040  -14.2445 C   0  0  0  0  0  0  0  0  0  0  0  0
  -13.0563  -38.3506  -13.6248 C   0  0  0  0  0  0  0  0  0  0  0  0
  -14.3001  -39.1924  -13.8711 C   0  0  0  0  0  0  0  0  0  0  0  0
  -12.9170  -38.2126  -12.1466 C   0  0  0  0  0  0  0  0  0  0  0  0
  -13.3894  -39.1542  -11.2566 C   0  0  0  0  0  0  0  0  0  0  0  0
  -13.2572  -39.0086   -9.9019 C   0  0  0  0  0  0  0  0  0  0  0  0
  -13.7781  -40.0421   -8.9374 C   0  0  0  0  0  0  0  0  0  0  0  0
  -15.1664  -39.8301   -8.6966 N   0  0  0  0  0  0  0  0  0  0  0  0
  -15.4079  -38.5888   -8.0114 C   0  0  0  0  0  0  0  0  0  0  0  0
  -16.8581  -38.3104   -7.8352 C   0  0  1  0  0  0  0  0  0  0  0  0
  -17.3200  -37.6448   -8.9685 O   0  0  0  0  0  0  0  0  0  0  0  0
  -17.6635  -39.5935   -7.6032 C   0  0  2  0  0  0  0  0  0  0  0  0
  -18.5931  -39.3208   -6.4392 C   0  0  0  0  0  0  0  0  0  0  0  0
  -19.9585  -38.8657   -6.8400 C   0  0  2  0  0  0  0  0  0  0  0  0
  -20.1866  -37.3799   -6.6779 C   0  0  0  0  0  0  0  0  0  0  0  0
  -20.9488  -39.5585   -5.8928 C   0  0  0  0  0  0  0  0  0  0  0  0
  -22.2298  -39.7561   -6.5943 C   0  0  0  0  0  0  0  0  0  0  0  0
  -22.8348  -41.1449   -6.5733 C   0  0  0  0  0  0  0  0  0  0  0  0
  -22.4312  -42.2869   -7.0052 C   0  0  0  0  0  0  0  0  0  0  0  0
  -23.0271  -43.6777   -6.9875 C   0  0  0  0  0  0  0  0  0  0  0  0
  -21.8829  -44.6882   -7.2804 C   0  0  0  0  0  0  0  0  0  0  0  0
  -21.6684  -44.7008   -8.7565 C   0  0  0  0  0  0  0  0  0  0  0  0
  -20.3127  -45.0665   -9.1267 N   0  0  0  0  0  0  0  0  0  0  0  0
  -19.1044  -44.3095   -9.1761 C   0  0  0  0  0  0  0  0  0  0  0  0
  -18.4148  -44.6190  -10.3833 C   0  0  0  0  0  0  0  0  0  0  0  0
  -17.2204  -44.0678  -10.7361 C   0  0  0  0  0  0  0  0  0  0  0  0
  -16.5525  -44.4322  -12.0102 C   0  0  0  0  0  0  0  0  0  0  0  0
  -15.6119  -45.4226  -11.6970 O   0  0  0  0  0  0  0  0  0  0  0  0
  -16.7009  -43.1747   -9.8442 C   0  0  0  0  0  0  0  0  0  0  0  0
  -17.3336  -42.8188   -8.6211 C   0  0  0  0  0  0  0  0  0  0  0  0
  -18.5434  -43.4008   -8.3008 C   0  0  0  0  0  0  0  0  0  0  0  0
  -16.4953  -41.8462   -7.9183 C   0  0  0  0  0  0  0  0  0  0  0  0
  -15.1796  -42.0230   -7.9151 O   0  0  0  0  0  0  0  0  0  0  0  0
  -16.7841  -40.6681   -7.1869 N   0  0  0  0  0  0  0  0  0  0  0  0
  -12.6291  -37.8791   -9.4255 C   0  0  0  0  0  0  0  0  0  0  0  0
  -12.1458  -36.9180  -10.3099 C   0  0  0  0  0  0  0  0  0  0  0  0
  -12.2832  -37.0729  -11.6695 C   0  0  0  0  0  0  0  0  0  0  0  0
  1  2  1  0
  2  3  1  0
  2  4  1  0
  4  5  2  0
  5  6  1  0
  6  7  1  0
  7  8  1  0
  8  9  1  0
  9 10  1  0
 10 11  1  6
 10 12  1  0
 12 13  1  1
 13 14  1  0
 14 15  1  1
 14 16  1  0
 16 17  1  0
 17 18  1  0
 18 19  2  0
 19 20  1  0
 20 21  1  0
 21 22  1  0
 22 23  1  0
 23 24  1  0
 24 25  2  0
 25 26  1  0
 26 27  1  0
 27 28  1  0
 26 29  2  0
 29 30  1  0
 30 31  2  0
 30 32  1  0
 32 33  2  0
 32 34  1  0
  6 35  2  0
 35 36  1  0
 36 37  2  0
 31 24  1  0
 34 12  1  0
 37  4  1  0
M  END
$$$$
