
     RDKit          3D

 37 39  0  0  0  0  0  0  0  0999 V2000
  -23.1146  -42.2210   -5.7742 C   0  0  0  0  0  0  0  0  0  0  0  0
  -21.8563  -41.8518   -5.0405 C   0  0  0  0  0  0  0  0  0  0  0  0
  -22.2311  -41.6530   -3.5788 C   0  0  0  0  0  0  0  0  0  0  0  0
  -21.3450  -40.5412   -5.5347 C   0  0  0  0  0  0  0  0  0  0  0  0
  -20.5581  -40.4183   -6.6606 C   0  0  0  0  0  0  0  0  0  0  0  0
  -20.0932  -39.2070   -7.0971 C   0  0  0  0  0  0  0  0  0  0  0  0
  -19.2326  -39.0831   -8.3275 C   0  0  0  0  0  0  0  0  0  0  0  0
  -17.9644  -39.6915   -8.1003 N   0  0  0  0  0  0  0  0  0  0  0  0
  -17.0001  -38.7491   -7.5995 C   0  0  0  0  0  0  0  0  0  0  0  0
  -16.6196  -37.7320   -8.6156 C   0  0  1  0  0  0  0  0  0  0  0  0
  -15.7762  -36.8012   -8.0131 O   0  0  0  0  0  0  0  0  0  0  0  0
  -15.9350  -38.3655   -9.8316 C   0  0  2  0  0  0  0  0  0  0  0  0
  -16.1657  -37.4292  -10.9993 C   0  0  0  0  0  0  0  0  0  0  0  0
  -15.0570  -36.4547  -11.2305 C   0  0  2  0  0  0  0  0  0  0  0  0
  -15.3526  -35.0554  -10.7403 C   0  0  0  0  0  0  0  0  0  0  0  0
  -14.8755  -36.3478  -12.7515 C   0  0  0  0  0  0  0  0  0  0  0  0
  -13.4675  -36.0289  -13.0481 C   0  0  0  0  0  0  0  0  0  0  0  0
  -12.7500  -36.8953  -14.0630 C   0  0  0  0  0  0  0  0  0  0  0  0
  -12.4667  -38.1489  -14.1055 C   0  0  0  0  0  0  0  0  0  0  0  0
  -11.7528  -39.0223  -15.1142 C   0  0  0  0  0  0  0  0  0  0  0  0
  -12.1029  -40.5022  -14.7929 C   0  0  0  0  0  0  0  0  0  0  0  0
  -11.2261  -40.9314  -13.6651 C   0  0  0  0  0  0  0  0  0  0  0  0
  -11.8151  -41.9890  -12.8631 N   0  0  0  0  0  0  0  0  0  0  0  0
  -12.7818  -41.9596  -11.8143 C   0  0  0  0  0  0  0  0  0  0  0  0
  -12.3485  -42.8174  -10.7630 C   0  0  0  0  0  0  0  0  0  0  0  0
  -13.0487  -43.0187   -9.6122 C   0  0  0  0  0  0  0  0  0  0  0  0
  -12.5417  -43.9261   -8.5532 C   0  0  0  0  0  0  0  0  0  0  0  0
  -13.4966  -44.9415   -8.4088 O   0  0  0  0  0  0  0  0  0  0  0  0
  -14.2257  -42.3345   -9.5152 C   0  0  0  0  0  0  0  0  0  0  0  0
  -14.7196  -41.4624  -10.5244 C   0  0  0  0  0  0  0  0  0  0  0  0
  -13.9793  -41.2863  -11.6759 C   0  0  0  0  0  0  0  0  0  0  0  0
  -16.0023  -40.9089  -10.0876 C   0  0  0  0  0  0  0  0  0  0  0  0
  -16.8655  -41.7085   -9.4728 O   0  0  0  0  0  0  0  0  0  0  0  0
  -16.5797  -39.6183  -10.1727 N   0  0  0  0  0  0  0  0  0  0  0  0
  -20.4303  -38.0814   -6.3783 C   0  0  0  0  0  0  0  0  0  0  0  0
  -21.2241  -38.1870   -5.2389 C   0  0  0  0  0  0  0  0  0  0  0  0
  -21.6866  -39.4084   -4.8080 C   0  0  0  0  0  0  0  0  0  0  0  0
  1  2  1  0
  2  3  1  0
  2  4  1  0
  4  5  2  0
  5  6  1  0
  6  7  1  0
  7  8  1  0
  8  9  1  0
  9 10  1  0
 10 11  1  1
 10 12  1  0
 12 13  1  6
 13 14  1  0
 14 15  1  6
 14 16  1  0
 16 17  1  0
 17 18  1  0
 18 19  2  0
 19 20  1  0
 20 21  1  0
 21 22  1  0
 22 23  1  0
 23 24  1  0
 24 25  2  0
 25 26  1  0
 26 27  1  0
 27 28  1  0
 26 29  2  0
 29 30  1  0
 30 31  2  0
 30 32  1  0
 32 33  2  0
 32 34  1  0
  6 35  2  0
 35 36  1  0
 36 37  2  0
 31 24  1  0
 34 12  1  0
 37  4  1  0
M  END
$$$$
