
     RDKit          3D

 37 39  0  0  0  0  0  0  0  0999 V2000
  -23.6156  -40.6417   -5.4255 C   0  0  0  0  0  0  0  0  0  0  0  0
  -23.3797  -41.0103   -6.8630 C   0  0  0  0  0  0  0  0  0  0  0  0
  -22.8661  -42.4429   -6.8803 C   0  0  0  0  0  0  0  0  0  0  0  0
  -22.2972  -40.1592   -7.4354 C   0  0  0  0  0  0  0  0  0  0  0  0
  -21.1408  -39.8528   -6.7494 C   0  0  0  0  0  0  0  0  0  0  0  0
  -20.1595  -39.0654   -7.2888 C   0  0  0  0  0  0  0  0  0  0  0  0
  -18.9002  -38.7347   -6.5308 C   0  0  0  0  0  0  0  0  0  0  0  0
  -17.7727  -38.8125   -7.3985 N   0  0  0  0  0  0  0  0  0  0  0  0
  -16.5972  -38.2364   -6.8025 C   0  0  0  0  0  0  0  0  0  0  0  0
  -15.3799  -39.0569   -7.0403 C   0  0  1  0  0  0  0  0  0  0  0  0
  -15.3786  -40.1162   -6.1356 O   0  0  0  0  0  0  0  0  0  0  0  0
  -15.3152  -39.5821   -8.4787 C   0  0  2  0  0  0  0  0  0  0  0  0
  -15.0523  -38.3855   -9.3688 C   0  0  0  0  0  0  0  0  0  0  0  0
  -13.6086  -38.1599   -9.6802 C   0  0  2  0  0  0  0  0  0  0  0  0
  -12.9744  -37.0379   -8.8899 C   0  0  0  0  0  0  0  0  0  0  0  0
  -13.5373  -37.7402  -11.1556 C   0  0  0  0  0  0  0  0  0  0  0  0
  -12.2469  -38.1754  -11.7192 C   0  0  0  0  0  0  0  0  0  0  0  0
  -12.2754  -38.9593  -13.0153 C   0  0  0  0  0  0  0  0  0  0  0  0
  -12.7929  -40.0881  -13.3494 C   0  0  0  0  0  0  0  0  0  0  0  0
  -12.8278  -40.8773  -14.6400 C   0  0  0  0  0  0  0  0  0  0  0  0
  -13.9540  -41.9413  -14.5156 C   0  0  0  0  0  0  0  0  0  0  0  0
  -13.4028  -43.0815  -13.7275 C   0  0  0  0  0  0  0  0  0  0  0  0
  -14.4276  -43.8201  -13.0112 N   0  0  0  0  0  0  0  0  0  0  0  0
  -15.0904  -43.5677  -11.7733 C   0  0  0  0  0  0  0  0  0  0  0  0
  -15.1550  -44.7803  -11.0287 C   0  0  0  0  0  0  0  0  0  0  0  0
  -15.7313  -44.8844   -9.7991 C   0  0  0  0  0  0  0  0  0  0  0  0
  -15.7655  -46.1785   -9.0737 C   0  0  0  0  0  0  0  0  0  0  0  0
  -17.0769  -46.6604   -9.1816 O   0  0  0  0  0  0  0  0  0  0  0  0
  -16.2618  -43.7297   -9.3009 C   0  0  0  0  0  0  0  0  0  0  0  0
  -16.2335  -42.4848   -9.9883 C   0  0  0  0  0  0  0  0  0  0  0  0
  -15.6400  -42.4222  -11.2328 C   0  0  0  0  0  0  0  0  0  0  0  0
  -16.8953  -41.4722   -9.1641 C   0  0  0  0  0  0  0  0  0  0  0  0
  -18.0042  -41.8043   -8.5142 O   0  0  0  0  0  0  0  0  0  0  0  0
  -16.6032  -40.1168   -8.8746 N   0  0  0  0  0  0  0  0  0  0  0  0
  -20.3464  -38.5695   -8.5602 C   0  0  0  0  0  0  0  0  0  0  0  0
  -21.5080  -38.8689   -9.2674 C   0  0  0  0  0  0  0  0  0  0  0  0
  -22.4885  -39.6609   -8.7173 C   0  0  0  0  0  0  0  0  0  0  0  0
  1  2  1  0
  2  3  1  0
  2  4  1  0
  4  5  2  0
  5  6  1  0
  6  7  1  0
  7  8  1  0
  8  9  1  0
  9 10  1  0
 10 11  1  1
 10 12  1  0
 12 13  1  6
 13 14  1  0
 14 15  1  1
 14 16  1  0
 16 17  1  0
 17 18  1  0
 18 19  2  0
 19 20  1  0
 20 21  1  0
 21 22  1  0
 22 23  1  0
 23 24  1  0
 24 25  2  0
 25 26  1  0
 26 27  1  0
 27 28  1  0
 26 29  2  0
 29 30  1  0
 30 31  2  0
 30 32  1  0
 32 33  2  0
 32 34  1  0
  6 35  2  0
 35 36  1  0
 36 37  2  0
 31 24  1  0
 34 12  1  0
 37  4  1  0
M  END
$$$$
