
     RDKit          3D

 37 39  0  0  0  0  0  0  0  0999 V2000
  -21.7345  -41.8291   -5.0012 C   0  0  0  0  0  0  0  0  0  0  0  0
  -22.1829  -40.3962   -5.0620 C   0  0  0  0  0  0  0  0  0  0  0  0
  -23.7048  -40.4012   -5.0468 C   0  0  0  0  0  0  0  0  0  0  0  0
  -21.7684  -39.7879   -6.3588 C   0  0  0  0  0  0  0  0  0  0  0  0
  -20.6774  -38.9536   -6.4824 C   0  0  0  0  0  0  0  0  0  0  0  0
  -20.3144  -38.3998   -7.6805 C   0  0  0  0  0  0  0  0  0  0  0  0
  -19.1216  -37.4879   -7.8051 C   0  0  0  0  0  0  0  0  0  0  0  0
  -18.1205  -37.8610   -6.8624 N   0  0  0  0  0  0  0  0  0  0  0  0
  -17.6232  -39.1885   -7.1061 C   0  0  0  0  0  0  0  0  0  0  0  0
  -16.2340  -39.1858   -7.6367 C   0  0  1  0  0  0  0  0  0  0  0  0
  -15.3543  -39.3537   -6.5696 O   0  0  0  0  0  0  0  0  0  0  0  0
  -16.0190  -40.2833   -8.6846 C   0  0  2  0  0  0  0  0  0  0  0  0
  -14.9879  -39.7580   -9.6614 C   0  0  0  0  0  0  0  0  0  0  0  0
  -13.5851  -40.1666   -9.3493 C   0  0  2  0  0  0  0  0  0  0  0  0
  -12.7526  -39.0782   -8.7103 C   0  0  0  0  0  0  0  0  0  0  0  0
  -12.9124  -40.4906  -10.6910 C   0  0  0  0  0  0  0  0  0  0  0  0
  -11.8757  -41.5158  -10.4759 C   0  0  0  0  0  0  0  0  0  0  0  0
  -11.8999  -42.7376  -11.3715 C   0  0  0  0  0  0  0  0  0  0  0  0
  -12.7667  -43.6668  -11.5685 C   0  0  0  0  0  0  0  0  0  0  0  0
  -12.8002  -44.8885  -12.4607 C   0  0  0  0  0  0  0  0  0  0  0  0
  -14.2761  -45.3666  -12.5558 C   0  0  0  0  0  0  0  0  0  0  0  0
  -14.5700  -46.1491  -11.3203 C   0  0  0  0  0  0  0  0  0  0  0  0
  -15.9761  -46.1248  -10.9580 N   0  0  0  0  0  0  0  0  0  0  0  0
  -16.7630  -45.1542  -10.2695 C   0  0  0  0  0  0  0  0  0  0  0  0
  -17.5943  -45.8204   -9.3240 C   0  0  0  0  0  0  0  0  0  0  0  0
  -18.4731  -45.1798   -8.5040 C   0  0  0  0  0  0  0  0  0  0  0  0
  -19.3115  -45.9326   -7.5385 C   0  0  0  0  0  0  0  0  0  0  0  0
  -20.1311  -46.7781   -8.2981 O   0  0  0  0  0  0  0  0  0  0  0  0
  -18.5184  -43.8224   -8.6397 C   0  0  0  0  0  0  0  0  0  0  0  0
  -17.7186  -43.0922   -9.5617 C   0  0  0  0  0  0  0  0  0  0  0  0
  -16.8406  -43.7796  -10.3750 C   0  0  0  0  0  0  0  0  0  0  0  0
  -18.0325  -41.6678   -9.4383 C   0  0  0  0  0  0  0  0  0  0  0  0
  -19.3002  -41.3053   -9.2840 O   0  0  0  0  0  0  0  0  0  0  0  0
  -17.2360  -40.4965   -9.4429 N   0  0  0  0  0  0  0  0  0  0  0  0
  -21.0731  -38.6944   -8.7917 C   0  0  0  0  0  0  0  0  0  0  0  0
  -22.1781  -39.5352   -8.6853 C   0  0  0  0  0  0  0  0  0  0  0  0
  -22.5352  -40.0870   -7.4772 C   0  0  0  0  0  0  0  0  0  0  0  0
  1  2  1  0
  2  3  1  0
  2  4  1  0
  4  5  2  0
  5  6  1  0
  6  7  1  0
  7  8  1  0
  8  9  1  0
  9 10  1  0
 10 11  1  1
 10 12  1  0
 12 13  1  6
 13 14  1  0
 14 15  1  6
 14 16  1  0
 16 17  1  0
 17 18  1  0
 18 19  2  0
 19 20  1  0
 20 21  1  0
 21 22  1  0
 22 23  1  0
 23 24  1  0
 24 25  2  0
 25 26  1  0
 26 27  1  0
 27 28  1  0
 26 29  2  0
 29 30  1  0
 30 31  2  0
 30 32  1  0
 32 33  2  0
 32 34  1  0
  6 35  2  0
 35 36  1  0
 36 37  2  0
 31 24  1  0
 34 12  1  0
 37  4  1  0
M  END
$$$$
