
     RDKit          3D

 37 39  0  0  0  0  0  0  0  0999 V2000
  -12.5259  -33.8165  -12.3001 C   0  0  0  0  0  0  0  0  0  0  0  0
  -12.8783  -35.0443  -13.0915 C   0  0  0  0  0  0  0  0  0  0  0  0
  -13.6274  -34.5788  -14.3319 C   0  0  0  0  0  0  0  0  0  0  0  0
  -13.8229  -35.8970  -12.3142 C   0  0  0  0  0  0  0  0  0  0  0  0
  -13.4053  -36.8203  -11.3789 C   0  0  0  0  0  0  0  0  0  0  0  0
  -14.2867  -37.5986  -10.6779 C   0  0  0  0  0  0  0  0  0  0  0  0
  -13.8207  -38.6059   -9.6592 C   0  0  0  0  0  0  0  0  0  0  0  0
  -14.7310  -38.6505   -8.5639 N   0  0  0  0  0  0  0  0  0  0  0  0
  -15.9846  -39.2513   -8.9333 C   0  0  0  0  0  0  0  0  0  0  0  0
  -17.0985  -38.8354   -8.0401 C   0  0  1  0  0  0  0  0  0  0  0  0
  -17.9842  -38.0514   -8.7759 O   0  0  0  0  0  0  0  0  0  0  0  0
  -17.8270  -40.0400   -7.4342 C   0  0  2  0  0  0  0  0  0  0  0  0
  -18.7087  -39.5044   -6.3256 C   0  0  0  0  0  0  0  0  0  0  0  0
  -20.1134  -39.2170   -6.7456 C   0  0  2  0  0  0  0  0  0  0  0  0
  -20.4058  -37.7493   -6.9603 C   0  0  0  0  0  0  0  0  0  0  0  0
  -21.0192  -39.6715   -5.5920 C   0  0  0  0  0  0  0  0  0  0  0  0
  -22.3228  -40.0895   -6.1379 C   0  0  0  0  0  0  0  0  0  0  0  0
  -22.8570  -41.4444   -5.7204 C   0  0  0  0  0  0  0  0  0  0  0  0
  -22.4200  -42.6450   -5.8657 C   0  0  0  0  0  0  0  0  0  0  0  0
  -22.9451  -44.0024   -5.4514 C   0  0  0  0  0  0  0  0  0  0  0  0
  -21.7690  -45.0145   -5.5425 C   0  0  0  0  0  0  0  0  0  0  0  0
  -21.6291  -45.4053   -6.9752 C   0  0  0  0  0  0  0  0  0  0  0  0
  -20.2776  -45.8084   -7.3209 N   0  0  0  0  0  0  0  0  0  0  0  0
  -19.1120  -45.0497   -7.6392 C   0  0  0  0  0  0  0  0  0  0  0  0
  -18.4700  -45.6404   -8.7652 C   0  0  0  0  0  0  0  0  0  0  0  0
  -17.3236  -45.1600   -9.3218 C   0  0  0  0  0  0  0  0  0  0  0  0
  -16.7040  -45.8218  -10.4966 C   0  0  0  0  0  0  0  0  0  0  0  0
  -17.0105  -45.0264  -11.6088 O   0  0  0  0  0  0  0  0  0  0  0  0
  -16.8041  -44.0475   -8.7256 C   0  0  0  0  0  0  0  0  0  0  0  0
  -17.3909  -43.4060   -7.5999 C   0  0  0  0  0  0  0  0  0  0  0  0
  -18.5528  -43.9251   -7.0657 C   0  0  0  0  0  0  0  0  0  0  0  0
  -16.5669  -42.2553   -7.2263 C   0  0  0  0  0  0  0  0  0  0  0  0
  -15.2456  -42.3799   -7.2585 O   0  0  0  0  0  0  0  0  0  0  0  0
  -16.8758  -40.9375   -6.8088 N   0  0  0  0  0  0  0  0  0  0  0  0
  -15.6329  -37.4437  -10.9249 C   0  0  0  0  0  0  0  0  0  0  0  0
  -16.0724  -36.5159  -11.8660 C   0  0  0  0  0  0  0  0  0  0  0  0
  -15.1793  -35.7384  -12.5654 C   0  0  0  0  0  0  0  0  0  0  0  0
  1  2  1  0
  2  3  1  0
  2  4  1  0
  4  5  2  0
  5  6  1  0
  6  7  1  0
  7  8  1  0
  8  9  1  0
  9 10  1  0
 10 11  1  6
 10 12  1  0
 12 13  1  1
 13 14  1  0
 14 15  1  1
 14 16  1  0
 16 17  1  0
 17 18  1  0
 18 19  2  0
 19 20  1  0
 20 21  1  0
 21 22  1  0
 22 23  1  0
 23 24  1  0
 24 25  2  0
 25 26  1  0
 26 27  1  0
 27 28  1  0
 26 29  2  0
 29 30  1  0
 30 31  2  0
 30 32  1  0
 32 33  2  0
 32 34  1  0
  6 35  2  0
 35 36  1  0
 36 37  2  0
 31 24  1  0
 34 12  1  0
 37  4  1  0
M  END
$$$$
