
     RDKit          3D

 37 39  0  0  0  0  0  0  0  0999 V2000
  -13.6753  -35.0051  -13.1406 C   0  0  0  0  0  0  0  0  0  0  0  0
  -13.1652  -35.4810  -11.8098 C   0  0  0  0  0  0  0  0  0  0  0  0
  -11.6792  -35.1566  -11.7568 C   0  0  0  0  0  0  0  0  0  0  0  0
  -13.2842  -36.9648  -11.7202 C   0  0  0  0  0  0  0  0  0  0  0  0
  -13.4467  -37.6345  -10.5257 C   0  0  0  0  0  0  0  0  0  0  0  0
  -13.5490  -38.9980  -10.4618 C   0  0  0  0  0  0  0  0  0  0  0  0
  -13.7247  -39.7208   -9.1516 C   0  0  0  0  0  0  0  0  0  0  0  0
  -14.4636  -38.9107   -8.2417 N   0  0  0  0  0  0  0  0  0  0  0  0
  -15.8826  -39.0775   -8.4066 C   0  0  0  0  0  0  0  0  0  0  0  0
  -16.6112  -39.0563   -7.1104 C   0  0  1  0  0  0  0  0  0  0  0  0
  -17.2809  -37.8396   -7.0010 O   0  0  0  0  0  0  0  0  0  0  0  0
  -17.5980  -40.2225   -6.9889 C   0  0  2  0  0  0  0  0  0  0  0  0
  -18.6500  -39.8013   -5.9843 C   0  0  0  0  0  0  0  0  0  0  0  0
  -19.8710  -39.1943   -6.5950 C   0  0  2  0  0  0  0  0  0  0  0  0
  -19.9312  -37.6874   -6.4877 C   0  0  0  0  0  0  0  0  0  0  0  0
  -21.0720  -39.7299   -5.8022 C   0  0  0  0  0  0  0  0  0  0  0  0
  -22.2475  -39.7902   -6.6892 C   0  0  0  0  0  0  0  0  0  0  0  0
  -23.0196  -41.0926   -6.7442 C   0  0  0  0  0  0  0  0  0  0  0  0
  -22.7032  -42.2885   -7.0954 C   0  0  0  0  0  0  0  0  0  0  0  0
  -23.4660  -43.5942   -7.1523 C   0  0  0  0  0  0  0  0  0  0  0  0
  -22.4279  -44.7465   -7.2543 C   0  0  0  0  0  0  0  0  0  0  0  0
  -21.9971  -44.8314   -8.6799 C   0  0  0  0  0  0  0  0  0  0  0  0
  -20.6584  -45.3727   -8.8337 N   0  0  0  0  0  0  0  0  0  0  0  0
  -19.3706  -44.7721   -8.7066 C   0  0  0  0  0  0  0  0  0  0  0  0
  -18.5520  -45.2018   -9.7902 C   0  0  0  0  0  0  0  0  0  0  0  0
  -17.2581  -44.8130   -9.9626 C   0  0  0  0  0  0  0  0  0  0  0  0
  -16.4577  -45.2965  -11.1149 C   0  0  0  0  0  0  0  0  0  0  0  0
  -15.1713  -44.7637  -10.9570 O   0  0  0  0  0  0  0  0  0  0  0  0
  -16.7699  -43.9633   -9.0126 C   0  0  0  0  0  0  0  0  0  0  0  0
  -17.5293  -43.4941   -7.9051 C   0  0  0  0  0  0  0  0  0  0  0  0
  -18.8372  -43.9125   -7.7668 C   0  0  0  0  0  0  0  0  0  0  0  0
  -16.6900  -42.6107   -7.0941 C   0  0  0  0  0  0  0  0  0  0  0  0
  -15.4228  -42.9480   -6.8873 O   0  0  0  0  0  0  0  0  0  0  0  0
  -16.9342  -41.3837   -6.4299 N   0  0  0  0  0  0  0  0  0  0  0  0
  -13.4863  -39.7126  -11.6377 C   0  0  0  0  0  0  0  0  0  0  0  0
  -13.3226  -39.0527  -12.8530 C   0  0  0  0  0  0  0  0  0  0  0  0
  -13.2207  -37.6823  -12.9074 C   0  0  0  0  0  0  0  0  0  0  0  0
  1  2  1  0
  2  3  1  0
  2  4  1  0
  4  5  2  0
  5  6  1  0
  6  7  1  0
  7  8  1  0
  8  9  1  0
  9 10  1  0
 10 11  1  6
 10 12  1  0
 12 13  1  1
 13 14  1  0
 14 15  1  1
 14 16  1  0
 16 17  1  0
 17 18  1  0
 18 19  2  0
 19 20  1  0
 20 21  1  0
 21 22  1  0
 22 23  1  0
 23 24  1  0
 24 25  2  0
 25 26  1  0
 26 27  1  0
 27 28  1  0
 26 29  2  0
 29 30  1  0
 30 31  2  0
 30 32  1  0
 32 33  2  0
 32 34  1  0
  6 35  2  0
 35 36  1  0
 36 37  2  0
 31 24  1  0
 34 12  1  0
 37  4  1  0
M  END
$$$$
