
     RDKit          3D

 37 39  0  0  0  0  0  0  0  0999 V2000
  -21.1303  -40.4005   -4.1141 C   0  0  0  0  0  0  0  0  0  0  0  0
  -21.9972  -39.3116   -4.6805 C   0  0  0  0  0  0  0  0  0  0  0  0
  -23.4439  -39.7250   -4.4511 C   0  0  0  0  0  0  0  0  0  0  0  0
  -21.8046  -39.2239   -6.1566 C   0  0  0  0  0  0  0  0  0  0  0  0
  -21.0241  -38.2578   -6.7560 C   0  0  0  0  0  0  0  0  0  0  0  0
  -20.8626  -38.1891   -8.1136 C   0  0  0  0  0  0  0  0  0  0  0  0
  -20.0091  -37.1288   -8.7593 C   0  0  0  0  0  0  0  0  0  0  0  0
  -18.6560  -37.2643   -8.3340 N   0  0  0  0  0  0  0  0  0  0  0  0
  -18.3818  -38.5840   -7.8320 C   0  0  0  0  0  0  0  0  0  0  0  0
  -16.9579  -38.9745   -8.0097 C   0  0  1  0  0  0  0  0  0  0  0  0
  -16.3660  -39.0669   -6.7520 O   0  0  0  0  0  0  0  0  0  0  0  0
  -16.8177  -40.3005   -8.7653 C   0  0  2  0  0  0  0  0  0  0  0  0
  -15.6190  -40.1570   -9.6796 C   0  0  0  0  0  0  0  0  0  0  0  0
  -14.3418  -40.6714   -9.0995 C   0  0  2  0  0  0  0  0  0  0  0  0
  -13.4135  -39.5903   -8.5943 C   0  0  0  0  0  0  0  0  0  0  0  0
  -13.5957  -41.3809  -10.2387 C   0  0  0  0  0  0  0  0  0  0  0  0
  -12.7683  -42.4620   -9.6738 C   0  0  0  0  0  0  0  0  0  0  0  0
  -12.8988  -43.8404  -10.2888 C   0  0  0  0  0  0  0  0  0  0  0  0
  -13.8806  -44.6628  -10.4041 C   0  0  0  0  0  0  0  0  0  0  0  0
  -14.0206  -46.0392  -11.0171 C   0  0  0  0  0  0  0  0  0  0  0  0
  -15.5369  -46.3204  -11.2115 C   0  0  0  0  0  0  0  0  0  0  0  0
  -16.0812  -46.7535   -9.8920 C   0  0  0  0  0  0  0  0  0  0  0  0
  -17.4942  -46.4557   -9.7391 N   0  0  0  0  0  0  0  0  0  0  0  0
  -18.1791  -45.2558   -9.3833 C   0  0  0  0  0  0  0  0  0  0  0  0
  -19.2015  -45.5695   -8.4425 C   0  0  0  0  0  0  0  0  0  0  0  0
  -20.0441  -44.6453   -7.9031 C   0  0  0  0  0  0  0  0  0  0  0  0
  -21.0898  -45.0369   -6.9257 C   0  0  0  0  0  0  0  0  0  0  0  0
  -20.4787  -45.0284   -5.6647 O   0  0  0  0  0  0  0  0  0  0  0  0
  -19.8527  -43.3613   -8.3245 C   0  0  0  0  0  0  0  0  0  0  0  0
  -18.8531  -42.9762   -9.2602 C   0  0  0  0  0  0  0  0  0  0  0  0
  -18.0197  -43.9440   -9.7836 C   0  0  0  0  0  0  0  0  0  0  0  0
  -18.9412  -41.5320   -9.4816 C   0  0  0  0  0  0  0  0  0  0  0  0
  -20.1417  -40.9743   -9.5819 O   0  0  0  0  0  0  0  0  0  0  0  0
  -17.9679  -40.5125   -9.6218 N   0  0  0  0  0  0  0  0  0  0  0  0
  -21.5067  -39.1228   -8.8951 C   0  0  0  0  0  0  0  0  0  0  0  0
  -22.2988  -40.1055   -8.3066 C   0  0  0  0  0  0  0  0  0  0  0  0
  -22.4551  -40.1665   -6.9416 C   0  0  0  0  0  0  0  0  0  0  0  0
  1  2  1  0
  2  3  1  0
  2  4  1  0
  4  5  2  0
  5  6  1  0
  6  7  1  0
  7  8  1  0
  8  9  1  0
  9 10  1  0
 10 11  1  1
 10 12  1  0
 12 13  1  6
 13 14  1  0
 14 15  1  6
 14 16  1  0
 16 17  1  0
 17 18  1  0
 18 19  2  0
 19 20  1  0
 20 21  1  0
 21 22  1  0
 22 23  1  0
 23 24  1  0
 24 25  2  0
 25 26  1  0
 26 27  1  0
 27 28  1  0
 26 29  2  0
 29 30  1  0
 30 31  2  0
 30 32  1  0
 32 33  2  0
 32 34  1  0
  6 35  2  0
 35 36  1  0
 36 37  2  0
 31 24  1  0
 34 12  1  0
 37  4  1  0
M  END
$$$$
