
     RDKit          3D

 37 39  0  0  0  0  0  0  0  0999 V2000
  -13.2039  -34.0473  -11.2052 C   0  0  0  0  0  0  0  0  0  0  0  0
  -14.2115  -34.7733  -12.0513 C   0  0  0  0  0  0  0  0  0  0  0  0
  -15.5848  -34.2381  -11.6719 C   0  0  0  0  0  0  0  0  0  0  0  0
  -14.2081  -36.2256  -11.7128 C   0  0  0  0  0  0  0  0  0  0  0  0
  -13.8393  -36.7072  -10.4743 C   0  0  0  0  0  0  0  0  0  0  0  0
  -13.8373  -38.0447  -10.1826 C   0  0  0  0  0  0  0  0  0  0  0  0
  -13.4309  -38.5614   -8.8270 C   0  0  0  0  0  0  0  0  0  0  0  0
  -14.4900  -38.3697   -7.8933 N   0  0  0  0  0  0  0  0  0  0  0  0
  -15.6468  -39.1569   -8.2261 C   0  0  0  0  0  0  0  0  0  0  0  0
  -16.8483  -38.7586   -7.4456 C   0  0  1  0  0  0  0  0  0  0  0  0
  -17.5521  -37.8039   -8.1764 O   0  0  0  0  0  0  0  0  0  0  0  0
  -17.7478  -39.9578   -7.1268 C   0  0  2  0  0  0  0  0  0  0  0  0
  -18.5106  -39.6083   -5.8662 C   0  0  0  0  0  0  0  0  0  0  0  0
  -19.8595  -39.0146   -6.1119 C   0  0  2  0  0  0  0  0  0  0  0  0
  -19.9180  -37.5156   -5.9236 C   0  0  0  0  0  0  0  0  0  0  0  0
  -20.8032  -39.6170   -5.0611 C   0  0  0  0  0  0  0  0  0  0  0  0
  -22.1674  -39.6774   -5.6158 C   0  0  0  0  0  0  0  0  0  0  0  0
  -22.9026  -40.9992   -5.5292 C   0  0  0  0  0  0  0  0  0  0  0  0
  -22.6659  -42.1703   -6.0047 C   0  0  0  0  0  0  0  0  0  0  0  0
  -23.3927  -43.4950   -5.9224 C   0  0  0  0  0  0  0  0  0  0  0  0
  -22.3952  -44.6107   -6.3421 C   0  0  0  0  0  0  0  0  0  0  0  0
  -22.3477  -44.6263   -7.8329 C   0  0  0  0  0  0  0  0  0  0  0  0
  -21.0849  -45.1206   -8.3522 N   0  0  0  0  0  0  0  0  0  0  0  0
  -19.8197  -44.4871   -8.5350 C   0  0  0  0  0  0  0  0  0  0  0  0
  -19.3025  -44.8489   -9.8119 C   0  0  0  0  0  0  0  0  0  0  0  0
  -18.1053  -44.4150  -10.2949 C   0  0  0  0  0  0  0  0  0  0  0  0
  -17.6225  -44.8284  -11.6358 C   0  0  0  0  0  0  0  0  0  0  0  0
  -16.8406  -45.9748  -11.4409 O   0  0  0  0  0  0  0  0  0  0  0  0
  -17.4033  -43.5892   -9.4653 C   0  0  0  0  0  0  0  0  0  0  0  0
  -17.8578  -43.1871   -8.1789 C   0  0  0  0  0  0  0  0  0  0  0  0
  -19.0769  -43.6497   -7.7265 C   0  0  0  0  0  0  0  0  0  0  0  0
  -16.8535  -42.3116   -7.5728 C   0  0  0  0  0  0  0  0  0  0  0  0
  -15.5700  -42.6186   -7.7163 O   0  0  0  0  0  0  0  0  0  0  0  0
  -16.9399  -41.1197   -6.8124 N   0  0  0  0  0  0  0  0  0  0  0  0
  -14.2190  -38.9278  -11.1684 C   0  0  0  0  0  0  0  0  0  0  0  0
  -14.5947  -38.4589  -12.4247 C   0  0  0  0  0  0  0  0  0  0  0  0
  -14.5935  -37.1133  -12.7086 C   0  0  0  0  0  0  0  0  0  0  0  0
  1  2  1  0
  2  3  1  0
  2  4  1  0
  4  5  2  0
  5  6  1  0
  6  7  1  0
  7  8  1  0
  8  9  1  0
  9 10  1  0
 10 11  1  6
 10 12  1  0
 12 13  1  1
 13 14  1  0
 14 15  1  1
 14 16  1  0
 16 17  1  0
 17 18  1  0
 18 19  2  0
 19 20  1  0
 20 21  1  0
 21 22  1  0
 22 23  1  0
 23 24  1  0
 24 25  2  0
 25 26  1  0
 26 27  1  0
 27 28  1  0
 26 29  2  0
 29 30  1  0
 30 31  2  0
 30 32  1  0
 32 33  2  0
 32 34  1  0
  6 35  2  0
 35 36  1  0
 36 37  2  0
 31 24  1  0
 34 12  1  0
 37  4  1  0
M  END
$$$$
