
     RDKit          3D

 37 39  0  0  0  0  0  0  0  0999 V2000
  -22.7455  -38.1330   -5.3569 C   0  0  0  0  0  0  0  0  0  0  0  0
  -23.3065  -39.2678   -6.1663 C   0  0  0  0  0  0  0  0  0  0  0  0
  -23.8018  -40.3185   -5.1829 C   0  0  0  0  0  0  0  0  0  0  0  0
  -22.2226  -39.9063   -6.9670 C   0  0  0  0  0  0  0  0  0  0  0  0
  -20.9872  -40.2220   -6.4416 C   0  0  0  0  0  0  0  0  0  0  0  0
  -20.0018  -40.8035   -7.1930 C   0  0  0  0  0  0  0  0  0  0  0  0
  -18.6546  -41.1432   -6.6104 C   0  0  0  0  0  0  0  0  0  0  0  0
  -17.7302  -40.0904   -6.8702 N   0  0  0  0  0  0  0  0  0  0  0  0
  -17.0667  -40.2600   -8.1350 C   0  0  0  0  0  0  0  0  0  0  0  0
  -16.0310  -39.2205   -8.3766 C   0  0  1  0  0  0  0  0  0  0  0  0
  -15.0401  -39.3516   -7.4063 O   0  0  0  0  0  0  0  0  0  0  0  0
  -15.4239  -39.3321   -9.7794 C   0  0  2  0  0  0  0  0  0  0  0  0
  -15.4048  -37.9332  -10.3592 C   0  0  0  0  0  0  0  0  0  0  0  0
  -14.1150  -37.2059  -10.1602 C   0  0  2  0  0  0  0  0  0  0  0  0
  -14.1527  -36.1722   -9.0576 C   0  0  0  0  0  0  0  0  0  0  0  0
  -13.8383  -36.4374  -11.4605 C   0  0  0  0  0  0  0  0  0  0  0  0
  -12.3817  -36.3032  -11.6411 C   0  0  0  0  0  0  0  0  0  0  0  0
  -11.7988  -36.7162  -12.9771 C   0  0  0  0  0  0  0  0  0  0  0  0
  -11.7673  -37.8317  -13.6160 C   0  0  0  0  0  0  0  0  0  0  0  0
  -11.1895  -38.2528  -14.9497 C   0  0  0  0  0  0  0  0  0  0  0  0
  -11.8414  -39.6079  -15.3430 C   0  0  0  0  0  0  0  0  0  0  0  0
  -11.1256  -40.6797  -14.5920 C   0  0  0  0  0  0  0  0  0  0  0  0
  -11.9525  -41.8490  -14.3518 N   0  0  0  0  0  0  0  0  0  0  0  0
  -12.9466  -42.1232  -13.3659 C   0  0  0  0  0  0  0  0  0  0  0  0
  -12.7458  -43.4402  -12.8618 C   0  0  0  0  0  0  0  0  0  0  0  0
  -13.5300  -44.0136  -11.9072 C   0  0  0  0  0  0  0  0  0  0  0  0
  -13.2674  -45.3915  -11.4230 C   0  0  0  0  0  0  0  0  0  0  0  0
  -13.9508  -46.2546  -12.2899 O   0  0  0  0  0  0  0  0  0  0  0  0
  -14.5518  -43.2364  -11.4436 C   0  0  0  0  0  0  0  0  0  0  0  0
  -14.8112  -41.9148  -11.9010 C   0  0  0  0  0  0  0  0  0  0  0  0
  -13.9927  -41.3707  -12.8701 C   0  0  0  0  0  0  0  0  0  0  0  0
  -15.9797  -41.3885  -11.1940 C   0  0  0  0  0  0  0  0  0  0  0  0
  -17.0143  -42.1936  -10.9845 O   0  0  0  0  0  0  0  0  0  0  0  0
  -16.2854  -40.1229  -10.6361 N   0  0  0  0  0  0  0  0  0  0  0  0
  -20.2666  -41.0772   -8.5167 C   0  0  0  0  0  0  0  0  0  0  0  0
  -21.5087  -40.7652   -9.0639 C   0  0  0  0  0  0  0  0  0  0  0  0
  -22.4927  -40.1811   -8.3011 C   0  0  0  0  0  0  0  0  0  0  0  0
  1  2  1  0
  2  3  1  0
  2  4  1  0
  4  5  2  0
  5  6  1  0
  6  7  1  0
  7  8  1  0
  8  9  1  0
  9 10  1  0
 10 11  1  1
 10 12  1  0
 12 13  1  6
 13 14  1  0
 14 15  1  1
 14 16  1  0
 16 17  1  0
 17 18  1  0
 18 19  2  0
 19 20  1  0
 20 21  1  0
 21 22  1  0
 22 23  1  0
 23 24  1  0
 24 25  2  0
 25 26  1  0
 26 27  1  0
 27 28  1  0
 26 29  2  0
 29 30  1  0
 30 31  2  0
 30 32  1  0
 32 33  2  0
 32 34  1  0
  6 35  2  0
 35 36  1  0
 36 37  2  0
 31 24  1  0
 34 12  1  0
 37  4  1  0
M  END
$$$$
