
     RDKit          3D

 37 39  0  0  0  0  0  0  0  0999 V2000
  -11.1930  -37.8667   -9.3801 C   0  0  0  0  0  0  0  0  0  0  0  0
  -11.1753  -37.8727  -10.8826 C   0  0  0  0  0  0  0  0  0  0  0  0
  -10.1188  -36.8695  -11.3228 C   0  0  0  0  0  0  0  0  0  0  0  0
  -12.4807  -37.3803  -11.4089 C   0  0  0  0  0  0  0  0  0  0  0  0
  -13.3571  -36.6261  -10.6573 C   0  0  0  0  0  0  0  0  0  0  0  0
  -14.5541  -36.1866  -11.1553 C   0  0  0  0  0  0  0  0  0  0  0  0
  -15.5058  -35.3646  -10.3257 C   0  0  0  0  0  0  0  0  0  0  0  0
  -16.8165  -35.9194  -10.3919 N   0  0  0  0  0  0  0  0  0  0  0  0
  -16.8532  -37.2682   -9.8938 C   0  0  0  0  0  0  0  0  0  0  0  0
  -17.6040  -37.3808   -8.6150 C   0  0  1  0  0  0  0  0  0  0  0  0
  -18.8296  -36.7358   -8.7652 O   0  0  0  0  0  0  0  0  0  0  0  0
  -17.8156  -38.8414   -8.2018 C   0  0  2  0  0  0  0  0  0  0  0  0
  -18.7889  -38.8302   -7.0417 C   0  0  0  0  0  0  0  0  0  0  0  0
  -20.2161  -39.0252   -7.4384 C   0  0  2  0  0  0  0  0  0  0  0  0
  -21.0349  -37.7542   -7.4430 C   0  0  0  0  0  0  0  0  0  0  0  0
  -20.8466  -39.9388   -6.3775 C   0  0  0  0  0  0  0  0  0  0  0  0
  -21.9257  -40.7270   -6.9992 C   0  0  0  0  0  0  0  0  0  0  0  0
  -21.9087  -42.2275   -6.7910 C   0  0  0  0  0  0  0  0  0  0  0  0
  -21.0674  -43.1492   -7.1015 C   0  0  0  0  0  0  0  0  0  0  0  0
  -21.0412  -44.6482   -6.8967 C   0  0  0  0  0  0  0  0  0  0  0  0
  -19.5801  -45.1317   -7.1143 C   0  0  0  0  0  0  0  0  0  0  0  0
  -19.3619  -45.2379   -8.5861 C   0  0  0  0  0  0  0  0  0  0  0  0
  -17.9711  -45.0613   -8.9646 N   0  0  0  0  0  0  0  0  0  0  0  0
  -17.1786  -43.8896   -9.1508 C   0  0  0  0  0  0  0  0  0  0  0  0
  -16.4085  -44.0374  -10.3398 C   0  0  0  0  0  0  0  0  0  0  0  0
  -15.5408  -43.0950  -10.8024 C   0  0  0  0  0  0  0  0  0  0  0  0
  -14.7673  -43.3096  -12.0505 C   0  0  0  0  0  0  0  0  0  0  0  0
  -15.3332  -42.4692  -13.0186 O   0  0  0  0  0  0  0  0  0  0  0  0
  -15.4435  -41.9650  -10.0431 C   0  0  0  0  0  0  0  0  0  0  0  0
  -16.1809  -41.7501   -8.8460 C   0  0  0  0  0  0  0  0  0  0  0  0
  -17.0496  -42.7306   -8.4114 C   0  0  0  0  0  0  0  0  0  0  0  0
  -15.8231  -40.4415   -8.2965 C   0  0  0  0  0  0  0  0  0  0  0  0
  -14.5507  -40.0642   -8.3250 O   0  0  0  0  0  0  0  0  0  0  0  0
  -16.5780  -39.4032   -7.6976 N   0  0  0  0  0  0  0  0  0  0  0  0
  -14.8813  -36.5158  -12.4521 C   0  0  0  0  0  0  0  0  0  0  0  0
  -14.0081  -37.2766  -13.2256 C   0  0  0  0  0  0  0  0  0  0  0  0
  -12.8076  -37.7137  -12.7166 C   0  0  0  0  0  0  0  0  0  0  0  0
  1  2  1  0
  2  3  1  0
  2  4  1  0
  4  5  2  0
  5  6  1  0
  6  7  1  0
  7  8  1  0
  8  9  1  0
  9 10  1  0
 10 11  1  6
 10 12  1  0
 12 13  1  1
 13 14  1  0
 14 15  1  1
 14 16  1  0
 16 17  1  0
 17 18  1  0
 18 19  2  0
 19 20  1  0
 20 21  1  0
 21 22  1  0
 22 23  1  0
 23 24  1  0
 24 25  2  0
 25 26  1  0
 26 27  1  0
 27 28  1  0
 26 29  2  0
 29 30  1  0
 30 31  2  0
 30 32  1  0
 32 33  2  0
 32 34  1  0
  6 35  2  0
 35 36  1  0
 36 37  2  0
 31 24  1  0
 34 12  1  0
 37  4  1  0
M  END
$$$$
