
     RDKit          3D

 37 39  0  0  0  0  0  0  0  0999 V2000
  -10.1883  -36.1795  -10.5624 C   0  0  0  0  0  0  0  0  0  0  0  0
  -10.3847  -37.2950  -11.5497 C   0  0  0  0  0  0  0  0  0  0  0  0
  -10.0421  -36.7420  -12.9256 C   0  0  0  0  0  0  0  0  0  0  0  0
  -11.8220  -37.6903  -11.5915 C   0  0  0  0  0  0  0  0  0  0  0  0
  -12.7473  -37.2570  -10.6654 C   0  0  0  0  0  0  0  0  0  0  0  0
  -14.0622  -37.6343  -10.7163 C   0  0  0  0  0  0  0  0  0  0  0  0
  -15.0655  -37.1569   -9.6988 C   0  0  0  0  0  0  0  0  0  0  0  0
  -15.2505  -38.1483   -8.6922 N   0  0  0  0  0  0  0  0  0  0  0  0
  -16.2480  -39.1139   -9.0682 C   0  0  0  0  0  0  0  0  0  0  0  0
  -17.6307  -38.5828   -8.9352 C   0  0  1  0  0  0  0  0  0  0  0  0
  -18.1360  -38.3445  -10.2114 O   0  0  0  0  0  0  0  0  0  0  0  0
  -18.5436  -39.5473   -8.1703 C   0  0  2  0  0  0  0  0  0  0  0  0
  -19.4971  -38.6950   -7.3593 C   0  0  0  0  0  0  0  0  0  0  0  0
  -20.8044  -38.4299   -8.0322 C   0  0  2  0  0  0  0  0  0  0  0  0
  -20.9216  -37.0463   -8.6304 C   0  0  0  0  0  0  0  0  0  0  0  0
  -21.8851  -38.5212   -6.9453 C   0  0  0  0  0  0  0  0  0  0  0  0
  -23.1469  -38.9757   -7.5565 C   0  0  0  0  0  0  0  0  0  0  0  0
  -23.8597  -40.1452   -6.9087 C   0  0  0  0  0  0  0  0  0  0  0  0
  -23.5291  -41.3701   -6.6993 C   0  0  0  0  0  0  0  0  0  0  0  0
  -24.2327  -42.5435   -6.0528 C   0  0  0  0  0  0  0  0  0  0  0  0
  -23.1602  -43.6214   -5.7306 C   0  0  0  0  0  0  0  0  0  0  0  0
  -22.8852  -44.3659   -6.9935 C   0  0  0  0  0  0  0  0  0  0  0  0
  -21.5480  -44.9306   -7.0361 N   0  0  0  0  0  0  0  0  0  0  0  0
  -20.2830  -44.3538   -7.3560 C   0  0  0  0  0  0  0  0  0  0  0  0
  -19.5694  -45.2478   -8.2048 C   0  0  0  0  0  0  0  0  0  0  0  0
  -18.3216  -44.9981   -8.6900 C   0  0  0  0  0  0  0  0  0  0  0  0
  -17.6312  -45.9716   -9.5719 C   0  0  0  0  0  0  0  0  0  0  0  0
  -16.9144  -46.8323   -8.7298 O   0  0  0  0  0  0  0  0  0  0  0  0
  -17.7716  -43.8087   -8.3084 C   0  0  0  0  0  0  0  0  0  0  0  0
  -18.4255  -42.8692   -7.4641 C   0  0  0  0  0  0  0  0  0  0  0  0
  -19.6897  -43.1609   -6.9933 C   0  0  0  0  0  0  0  0  0  0  0  0
  -17.5438  -41.7185   -7.2618 C   0  0  0  0  0  0  0  0  0  0  0  0
  -16.2473  -41.9338   -7.0740 O   0  0  0  0  0  0  0  0  0  0  0  0
  -17.7696  -40.3208   -7.2193 N   0  0  0  0  0  0  0  0  0  0  0  0
  -14.4607  -38.4750  -11.7320 C   0  0  0  0  0  0  0  0  0  0  0  0
  -13.5397  -38.9223  -12.6759 C   0  0  0  0  0  0  0  0  0  0  0  0
  -12.2206  -38.5379  -12.6167 C   0  0  0  0  0  0  0  0  0  0  0  0
  1  2  1  0
  2  3  1  0
  2  4  1  0
  4  5  2  0
  5  6  1  0
  6  7  1  0
  7  8  1  0
  8  9  1  0
  9 10  1  0
 10 11  1  6
 10 12  1  0
 12 13  1  1
 13 14  1  0
 14 15  1  1
 14 16  1  0
 16 17  1  0
 17 18  1  0
 18 19  2  0
 19 20  1  0
 20 21  1  0
 21 22  1  0
 22 23  1  0
 23 24  1  0
 24 25  2  0
 25 26  1  0
 26 27  1  0
 27 28  1  0
 26 29  2  0
 29 30  1  0
 30 31  2  0
 30 32  1  0
 32 33  2  0
 32 34  1  0
  6 35  2  0
 35 36  1  0
 36 37  2  0
 31 24  1  0
 34 12  1  0
 37  4  1  0
M  END
$$$$
