
     RDKit          3D

 37 39  0  0  0  0  0  0  0  0999 V2000
  -12.1141  -42.1599  -12.1120 C   0  0  0  0  0  0  0  0  0  0  0  0
  -13.2701  -42.0214  -11.1620 C   0  0  0  0  0  0  0  0  0  0  0  0
  -14.2781  -43.1037  -11.5212 C   0  0  0  0  0  0  0  0  0  0  0  0
  -13.9510  -40.7122  -11.3765 C   0  0  0  0  0  0  0  0  0  0  0  0
  -13.9570  -39.7055  -10.4340 C   0  0  0  0  0  0  0  0  0  0  0  0
  -14.5918  -38.5114  -10.6460 C   0  0  0  0  0  0  0  0  0  0  0  0
  -14.5942  -37.4181   -9.6094 C   0  0  0  0  0  0  0  0  0  0  0  0
  -15.1880  -37.8896   -8.4030 N   0  0  0  0  0  0  0  0  0  0  0  0
  -16.3797  -38.6543   -8.6556 C   0  0  0  0  0  0  0  0  0  0  0  0
  -17.4699  -38.3408   -7.6939 C   0  0  1  0  0  0  0  0  0  0  0  0
  -18.3578  -37.4591   -8.3062 O   0  0  0  0  0  0  0  0  0  0  0  0
  -18.2046  -39.6031   -7.2297 C   0  0  2  0  0  0  0  0  0  0  0  0
  -19.0677  -39.1979   -6.0531 C   0  0  0  0  0  0  0  0  0  0  0  0
  -20.4738  -38.8483   -6.4173 C   0  0  2  0  0  0  0  0  0  0  0  0
  -20.7525  -37.3627   -6.4483 C   0  0  0  0  0  0  0  0  0  0  0  0
  -21.3712  -39.4311   -5.3160 C   0  0  0  0  0  0  0  0  0  0  0  0
  -22.6855  -39.7672   -5.8921 C   0  0  0  0  0  0  0  0  0  0  0  0
  -23.2297  -41.1577   -5.6355 C   0  0  0  0  0  0  0  0  0  0  0  0
  -22.8077  -42.3358   -5.9311 C   0  0  0  0  0  0  0  0  0  0  0  0
  -23.3429  -43.7285   -5.6781 C   0  0  0  0  0  0  0  0  0  0  0  0
  -22.1790  -44.7331   -5.9064 C   0  0  0  0  0  0  0  0  0  0  0  0
  -22.0599  -44.9481   -7.3776 C   0  0  0  0  0  0  0  0  0  0  0  0
  -20.7168  -45.3190   -7.7868 N   0  0  0  0  0  0  0  0  0  0  0  0
  -19.5468  -44.5383   -8.0254 C   0  0  0  0  0  0  0  0  0  0  0  0
  -18.9242  -44.9938   -9.2228 C   0  0  0  0  0  0  0  0  0  0  0  0
  -17.7790  -44.4602   -9.7314 C   0  0  0  0  0  0  0  0  0  0  0  0
  -17.1801  -44.9801  -10.9857 C   0  0  0  0  0  0  0  0  0  0  0  0
  -16.3640  -46.0588  -10.6194 O   0  0  0  0  0  0  0  0  0  0  0  0
  -17.2406  -43.4334   -9.0112 C   0  0  0  0  0  0  0  0  0  0  0  0
  -17.8073  -42.9280   -7.8085 C   0  0  0  0  0  0  0  0  0  0  0  0
  -18.9687  -43.4972   -7.3266 C   0  0  0  0  0  0  0  0  0  0  0  0
  -16.9666  -41.8392   -7.3084 C   0  0  0  0  0  0  0  0  0  0  0  0
  -15.6472  -41.9715   -7.3722 O   0  0  0  0  0  0  0  0  0  0  0  0
  -17.2562  -40.5790   -6.7300 N   0  0  0  0  0  0  0  0  0  0  0  0
  -15.2423  -38.3224  -11.8453 C   0  0  0  0  0  0  0  0  0  0  0  0
  -15.2464  -39.3283  -12.8085 C   0  0  0  0  0  0  0  0  0  0  0  0
  -14.6058  -40.5248  -12.5866 C   0  0  0  0  0  0  0  0  0  0  0  0
  1  2  1  0
  2  3  1  0
  2  4  1  0
  4  5  2  0
  5  6  1  0
  6  7  1  0
  7  8  1  0
  8  9  1  0
  9 10  1  0
 10 11  1  6
 10 12  1  0
 12 13  1  1
 13 14  1  0
 14 15  1  1
 14 16  1  0
 16 17  1  0
 17 18  1  0
 18 19  2  0
 19 20  1  0
 20 21  1  0
 21 22  1  0
 22 23  1  0
 23 24  1  0
 24 25  2  0
 25 26  1  0
 26 27  1  0
 27 28  1  0
 26 29  2  0
 29 30  1  0
 30 31  2  0
 30 32  1  0
 32 33  2  0
 32 34  1  0
  6 35  2  0
 35 36  1  0
 36 37  2  0
 31 24  1  0
 34 12  1  0
 37  4  1  0
M  END
$$$$
