
     RDKit          3D

 37 39  0  0  0  0  0  0  0  0999 V2000
  -23.1008  -35.2900   -7.5682 C   0  0  0  0  0  0  0  0  0  0  0  0
  -22.4079  -36.2455   -6.6383 C   0  0  0  0  0  0  0  0  0  0  0  0
  -20.9835  -35.7410   -6.4564 C   0  0  0  0  0  0  0  0  0  0  0  0
  -22.3089  -37.5914   -7.2726 C   0  0  0  0  0  0  0  0  0  0  0  0
  -21.1169  -38.2710   -7.4102 C   0  0  0  0  0  0  0  0  0  0  0  0
  -21.0439  -39.5041   -8.0001 C   0  0  0  0  0  0  0  0  0  0  0  0
  -19.7365  -40.2381   -8.1474 C   0  0  0  0  0  0  0  0  0  0  0  0
  -18.6495  -39.3198   -8.0739 N   0  0  0  0  0  0  0  0  0  0  0  0
  -17.7516  -39.6377   -6.9962 C   0  0  0  0  0  0  0  0  0  0  0  0
  -16.3472  -39.8022   -7.4571 C   0  0  1  0  0  0  0  0  0  0  0  0
  -15.5521  -40.0963   -6.3517 O   0  0  0  0  0  0  0  0  0  0  0  0
  -16.2173  -40.9017   -8.5169 C   0  0  2  0  0  0  0  0  0  0  0  0
  -15.6812  -40.2398   -9.7690 C   0  0  0  0  0  0  0  0  0  0  0  0
  -14.1957  -40.3118   -9.9112 C   0  0  2  0  0  0  0  0  0  0  0  0
  -13.4794  -39.0254   -9.5681 C   0  0  0  0  0  0  0  0  0  0  0  0
  -13.9084  -40.5811  -11.3953 C   0  0  0  0  0  0  0  0  0  0  0  0
  -12.6503  -41.3397  -11.5134 C   0  0  0  0  0  0  0  0  0  0  0  0
  -12.6668  -42.6005  -12.3532 C   0  0  0  0  0  0  0  0  0  0  0  0
  -13.3165  -43.7068  -12.2663 C   0  0  0  0  0  0  0  0  0  0  0  0
  -13.3407  -44.9695  -13.1000 C   0  0  0  0  0  0  0  0  0  0  0  0
  -14.6255  -45.7605  -12.7266 C   0  0  0  0  0  0  0  0  0  0  0  0
  -14.3425  -46.4946  -11.4593 C   0  0  0  0  0  0  0  0  0  0  0  0
  -15.5380  -46.7476  -10.6746 N   0  0  0  0  0  0  0  0  0  0  0  0
  -16.2773  -45.9217   -9.7766 C   0  0  0  0  0  0  0  0  0  0  0  0
  -16.6061  -46.6800   -8.6165 C   0  0  0  0  0  0  0  0  0  0  0  0
  -17.3151  -46.1854   -7.5641 C   0  0  0  0  0  0  0  0  0  0  0  0
  -17.6247  -47.0281   -6.3825 C   0  0  0  0  0  0  0  0  0  0  0  0
  -19.0183  -47.1711   -6.3501 O   0  0  0  0  0  0  0  0  0  0  0  0
  -17.7079  -44.8836   -7.6820 C   0  0  0  0  0  0  0  0  0  0  0  0
  -17.4156  -44.0680   -8.8101 C   0  0  0  0  0  0  0  0  0  0  0  0
  -16.6947  -44.6079   -9.8559 C   0  0  0  0  0  0  0  0  0  0  0  0
  -17.9932  -42.7398   -8.5981 C   0  0  0  0  0  0  0  0  0  0  0  0
  -19.2012  -42.6491   -8.0551 O   0  0  0  0  0  0  0  0  0  0  0  0
  -17.5251  -41.4279   -8.8550 N   0  0  0  0  0  0  0  0  0  0  0  0
  -22.2079  -40.0736   -8.4671 C   0  0  0  0  0  0  0  0  0  0  0  0
  -23.4206  -39.4015   -8.3365 C   0  0  0  0  0  0  0  0  0  0  0  0
  -23.4841  -38.1628   -7.7423 C   0  0  0  0  0  0  0  0  0  0  0  0
  1  2  1  0
  2  3  1  0
  2  4  1  0
  4  5  2  0
  5  6  1  0
  6  7  1  0
  7  8  1  0
  8  9  1  0
  9 10  1  0
 10 11  1  1
 10 12  1  0
 12 13  1  6
 13 14  1  0
 14 15  1  6
 14 16  1  0
 16 17  1  0
 17 18  1  0
 18 19  2  0
 19 20  1  0
 20 21  1  0
 21 22  1  0
 22 23  1  0
 23 24  1  0
 24 25  2  0
 25 26  1  0
 26 27  1  0
 27 28  1  0
 26 29  2  0
 29 30  1  0
 30 31  2  0
 30 32  1  0
 32 33  2  0
 32 34  1  0
  6 35  2  0
 35 36  1  0
 36 37  2  0
 31 24  1  0
 34 12  1  0
 37  4  1  0
M  END
$$$$
