
     RDKit          3D

 37 39  0  0  0  0  0  0  0  0999 V2000
  -23.2461  -42.2299   -4.4067 C   0  0  0  0  0  0  0  0  0  0  0  0
  -21.9571  -41.9029   -5.1062 C   0  0  0  0  0  0  0  0  0  0  0  0
  -20.9856  -41.4037   -4.0463 C   0  0  0  0  0  0  0  0  0  0  0  0
  -22.1676  -40.7763   -6.0603 C   0  0  0  0  0  0  0  0  0  0  0  0
  -21.3588  -40.5589   -7.1559 C   0  0  0  0  0  0  0  0  0  0  0  0
  -21.5638  -39.5162   -8.0188 C   0  0  0  0  0  0  0  0  0  0  0  0
  -20.6736  -39.2859   -9.2121 C   0  0  0  0  0  0  0  0  0  0  0  0
  -19.6376  -38.3662   -8.8789 N   0  0  0  0  0  0  0  0  0  0  0  0
  -18.4737  -39.0346   -8.3618 C   0  0  0  0  0  0  0  0  0  0  0  0
  -17.2248  -38.6154   -9.0519 C   0  0  1  0  0  0  0  0  0  0  0  0
  -16.3906  -38.0024   -8.1197 O   0  0  0  0  0  0  0  0  0  0  0  0
  -16.5101  -39.7996   -9.7118 C   0  0  2  0  0  0  0  0  0  0  0  0
  -15.4435  -39.2171  -10.6154 C   0  0  0  0  0  0  0  0  0  0  0  0
  -14.0945  -39.1131   -9.9816 C   0  0  2  0  0  0  0  0  0  0  0  0
  -13.7266  -37.7153   -9.5382 C   0  0  0  0  0  0  0  0  0  0  0  0
  -13.0717  -39.5059  -11.0575 C   0  0  0  0  0  0  0  0  0  0  0  0
  -11.8929  -40.1051  -10.4066 C   0  0  0  0  0  0  0  0  0  0  0  0
  -11.4077  -41.4428  -10.9268 C   0  0  0  0  0  0  0  0  0  0  0  0
  -11.9491  -42.6069  -11.0000 C   0  0  0  0  0  0  0  0  0  0  0  0
  -11.4736  -43.9466  -11.5185 C   0  0  0  0  0  0  0  0  0  0  0  0
  -12.7230  -44.8498  -11.7163 C   0  0  0  0  0  0  0  0  0  0  0  0
  -13.0921  -45.3966  -10.3785 C   0  0  0  0  0  0  0  0  0  0  0  0
  -14.5052  -45.7126  -10.2682 N   0  0  0  0  0  0  0  0  0  0  0  0
  -15.6441  -44.8941  -10.0067 C   0  0  0  0  0  0  0  0  0  0  0  0
  -16.4806  -45.5552   -9.0623 C   0  0  0  0  0  0  0  0  0  0  0  0
  -17.6550  -45.0423   -8.6010 C   0  0  0  0  0  0  0  0  0  0  0  0
  -18.4816  -45.7817   -7.6150 C   0  0  0  0  0  0  0  0  0  0  0  0
  -19.8189  -45.5157   -7.9382 O   0  0  0  0  0  0  0  0  0  0  0  0
  -18.0008  -43.8229   -9.1071 C   0  0  0  0  0  0  0  0  0  0  0  0
  -17.2151  -43.1064  -10.0518 C   0  0  0  0  0  0  0  0  0  0  0  0
  -16.0315  -43.6617  -10.4942 C   0  0  0  0  0  0  0  0  0  0  0  0
  -17.8900  -41.8481  -10.3738 C   0  0  0  0  0  0  0  0  0  0  0  0
  -19.2083  -41.8537  -10.5307 O   0  0  0  0  0  0  0  0  0  0  0  0
  -17.4279  -40.5235  -10.5692 N   0  0  0  0  0  0  0  0  0  0  0  0
  -22.6171  -38.6634   -7.7726 C   0  0  0  0  0  0  0  0  0  0  0  0
  -23.4441  -38.8680   -6.6710 C   0  0  0  0  0  0  0  0  0  0  0  0
  -23.2303  -39.9185   -5.8095 C   0  0  0  0  0  0  0  0  0  0  0  0
  1  2  1  0
  2  3  1  0
  2  4  1  0
  4  5  2  0
  5  6  1  0
  6  7  1  0
  7  8  1  0
  8  9  1  0
  9 10  1  0
 10 11  1  1
 10 12  1  0
 12 13  1  6
 13 14  1  0
 14 15  1  6
 14 16  1  0
 16 17  1  0
 17 18  1  0
 18 19  2  0
 19 20  1  0
 20 21  1  0
 21 22  1  0
 22 23  1  0
 23 24  1  0
 24 25  2  0
 25 26  1  0
 26 27  1  0
 27 28  1  0
 26 29  2  0
 29 30  1  0
 30 31  2  0
 30 32  1  0
 32 33  2  0
 32 34  1  0
  6 35  2  0
 35 36  1  0
 36 37  2  0
 31 24  1  0
 34 12  1  0
 37  4  1  0
M  END
$$$$
