
     RDKit          3D

 37 39  0  0  0  0  0  0  0  0999 V2000
  -21.4863  -40.8192  -10.5460 C   0  0  0  0  0  0  0  0  0  0  0  0
  -22.3742  -39.6983  -10.0844 C   0  0  0  0  0  0  0  0  0  0  0  0
  -23.1361  -39.1982  -11.3034 C   0  0  0  0  0  0  0  0  0  0  0  0
  -21.5442  -38.5584   -9.5994 C   0  0  0  0  0  0  0  0  0  0  0  0
  -20.2212  -38.6944   -9.2348 C   0  0  0  0  0  0  0  0  0  0  0  0
  -19.4755  -37.6374   -8.7868 C   0  0  0  0  0  0  0  0  0  0  0  0
  -18.0311  -37.7963   -8.3892 C   0  0  0  0  0  0  0  0  0  0  0  0
  -17.9245  -37.9204   -6.9737 N   0  0  0  0  0  0  0  0  0  0  0  0
  -17.4337  -39.2152   -6.5848 C   0  0  0  0  0  0  0  0  0  0  0  0
  -16.6015  -39.8480   -7.6425 C   0  0  1  0  0  0  0  0  0  0  0  0
  -15.3231  -40.0583   -7.1306 O   0  0  0  0  0  0  0  0  0  0  0  0
  -17.2052  -41.1687   -8.1325 C   0  0  2  0  0  0  0  0  0  0  0  0
  -16.4878  -41.5263   -9.4173 C   0  0  0  0  0  0  0  0  0  0  0  0
  -15.3250  -42.4462   -9.2333 C   0  0  2  0  0  0  0  0  0  0  0  0
  -13.9789  -41.7610   -9.2998 C   0  0  0  0  0  0  0  0  0  0  0  0
  -15.3601  -43.4391  -10.4042 C   0  0  0  0  0  0  0  0  0  0  0  0
  -14.7727  -44.7190   -9.9692 C   0  0  0  0  0  0  0  0  0  0  0  0
  -15.5708  -45.9810  -10.2256 C   0  0  0  0  0  0  0  0  0  0  0  0
  -16.7259  -46.3864   -9.8320 C   0  0  0  0  0  0  0  0  0  0  0  0
  -17.5308  -47.6428  -10.0837 C   0  0  0  0  0  0  0  0  0  0  0  0
  -19.0031  -47.3525   -9.6790 C   0  0  0  0  0  0  0  0  0  0  0  0
  -19.0906  -47.4849   -8.1958 C   0  0  0  0  0  0  0  0  0  0  0  0
  -20.1509  -46.6779   -7.6187 N   0  0  0  0  0  0  0  0  0  0  0  0
  -20.2143  -45.2932   -7.2813 C   0  0  0  0  0  0  0  0  0  0  0  0
  -20.8243  -45.1574   -6.0013 C   0  0  0  0  0  0  0  0  0  0  0  0
  -21.0397  -43.9606   -5.3879 C   0  0  0  0  0  0  0  0  0  0  0  0
  -21.6803  -43.8866   -4.0514 C   0  0  0  0  0  0  0  0  0  0  0  0
  -21.6115  -42.5454   -3.6512 O   0  0  0  0  0  0  0  0  0  0  0  0
  -20.6282  -42.8621   -6.0856 C   0  0  0  0  0  0  0  0  0  0  0  0
  -20.0130  -42.9229   -7.3666 C   0  0  0  0  0  0  0  0  0  0  0  0
  -19.8131  -44.1559   -7.9538 C   0  0  0  0  0  0  0  0  0  0  0  0
  -19.7117  -41.5621   -7.8137 C   0  0  0  0  0  0  0  0  0  0  0  0
  -20.6054  -40.6057   -7.5925 O   0  0  0  0  0  0  0  0  0  0  0  0
  -18.6013  -40.9838   -8.4763 N   0  0  0  0  0  0  0  0  0  0  0  0
  -20.0794  -36.4024   -8.7024 C   0  0  0  0  0  0  0  0  0  0  0  0
  -21.4146  -36.2468   -9.0665 C   0  0  0  0  0  0  0  0  0  0  0  0
  -22.1559  -37.3146   -9.5156 C   0  0  0  0  0  0  0  0  0  0  0  0
  1  2  1  0
  2  3  1  0
  2  4  1  0
  4  5  2  0
  5  6  1  0
  6  7  1  0
  7  8  1  0
  8  9  1  0
  9 10  1  0
 10 11  1  1
 10 12  1  0
 12 13  1  6
 13 14  1  0
 14 15  1  6
 14 16  1  0
 16 17  1  0
 17 18  1  0
 18 19  2  0
 19 20  1  0
 20 21  1  0
 21 22  1  0
 22 23  1  0
 23 24  1  0
 24 25  2  0
 25 26  1  0
 26 27  1  0
 27 28  1  0
 26 29  2  0
 29 30  1  0
 30 31  2  0
 30 32  1  0
 32 33  2  0
 32 34  1  0
  6 35  2  0
 35 36  1  0
 36 37  2  0
 31 24  1  0
 34 12  1  0
 37  4  1  0
M  END
$$$$
