
     RDKit          3D

 37 39  0  0  0  0  0  0  0  0999 V2000
  -11.1058  -43.2689  -11.7558 C   0  0  0  0  0  0  0  0  0  0  0  0
  -12.4235  -42.7608  -11.2426 C   0  0  0  0  0  0  0  0  0  0  0  0
  -13.5137  -43.5860  -11.9112 C   0  0  0  0  0  0  0  0  0  0  0  0
  -12.6277  -41.3485  -11.6755 C   0  0  0  0  0  0  0  0  0  0  0  0
  -13.0811  -40.3608  -10.8265 C   0  0  0  0  0  0  0  0  0  0  0  0
  -13.2676  -39.0701  -11.2425 C   0  0  0  0  0  0  0  0  0  0  0  0
  -13.7650  -37.9983  -10.3078 C   0  0  0  0  0  0  0  0  0  0  0  0
  -14.0827  -38.5647   -9.0395 N   0  0  0  0  0  0  0  0  0  0  0  0
  -15.2966  -39.3348   -9.0856 C   0  0  0  0  0  0  0  0  0  0  0  0
  -16.3364  -38.8115   -8.1600 C   0  0  1  0  0  0  0  0  0  0  0  0
  -17.0394  -37.8013   -8.8127 O   0  0  0  0  0  0  0  0  0  0  0  0
  -17.2938  -39.9131   -7.6925 C   0  0  2  0  0  0  0  0  0  0  0  0
  -18.2691  -39.2651   -6.7322 C   0  0  0  0  0  0  0  0  0  0  0  0
  -19.5430  -38.8112   -7.3671 C   0  0  2  0  0  0  0  0  0  0  0  0
  -19.6160  -37.3204   -7.6080 C   0  0  0  0  0  0  0  0  0  0  0  0
  -20.6699  -39.1424   -6.3780 C   0  0  0  0  0  0  0  0  0  0  0  0
  -21.9108  -39.4019   -7.1297 C   0  0  0  0  0  0  0  0  0  0  0  0
  -22.6661  -40.6779   -6.8189 C   0  0  0  0  0  0  0  0  0  0  0  0
  -22.3615  -41.9241   -6.9071 C   0  0  0  0  0  0  0  0  0  0  0  0
  -23.1077  -43.2038   -6.5981 C   0  0  0  0  0  0  0  0  0  0  0  0
  -22.0646  -44.3529   -6.5127 C   0  0  0  0  0  0  0  0  0  0  0  0
  -21.7466  -44.7689   -7.9095 C   0  0  0  0  0  0  0  0  0  0  0  0
  -20.4167  -45.3371   -8.0403 N   0  0  0  0  0  0  0  0  0  0  0  0
  -19.1315  -44.7293   -8.1597 C   0  0  0  0  0  0  0  0  0  0  0  0
  -18.3950  -45.4028   -9.1760 C   0  0  0  0  0  0  0  0  0  0  0  0
  -17.1245  -45.0706   -9.5371 C   0  0  0  0  0  0  0  0  0  0  0  0
  -16.4108  -45.8123  -10.6060 C   0  0  0  0  0  0  0  0  0  0  0  0
  -15.1151  -45.2817  -10.6612 O   0  0  0  0  0  0  0  0  0  0  0  0
  -16.5750  -44.0256   -8.8524 C   0  0  0  0  0  0  0  0  0  0  0  0
  -17.2511  -43.3083   -7.8270 C   0  0  0  0  0  0  0  0  0  0  0  0
  -18.5379  -43.6772   -7.4909 C   0  0  0  0  0  0  0  0  0  0  0  0
  -16.3630  -42.2644   -7.3131 C   0  0  0  0  0  0  0  0  0  0  0  0
  -15.0787  -42.5500   -7.1359 O   0  0  0  0  0  0  0  0  0  0  0  0
  -16.5714  -40.9155   -6.9344 N   0  0  0  0  0  0  0  0  0  0  0  0
  -12.9891  -38.7614  -12.5557 C   0  0  0  0  0  0  0  0  0  0  0  0
  -12.5303  -39.7462  -13.4269 C   0  0  0  0  0  0  0  0  0  0  0  0
  -12.3459  -41.0404  -12.9998 C   0  0  0  0  0  0  0  0  0  0  0  0
  1  2  1  0
  2  3  1  0
  2  4  1  0
  4  5  2  0
  5  6  1  0
  6  7  1  0
  7  8  1  0
  8  9  1  0
  9 10  1  0
 10 11  1  6
 10 12  1  0
 12 13  1  1
 13 14  1  0
 14 15  1  1
 14 16  1  0
 16 17  1  0
 17 18  1  0
 18 19  2  0
 19 20  1  0
 20 21  1  0
 21 22  1  0
 22 23  1  0
 23 24  1  0
 24 25  2  0
 25 26  1  0
 26 27  1  0
 27 28  1  0
 26 29  2  0
 29 30  1  0
 30 31  2  0
 30 32  1  0
 32 33  2  0
 32 34  1  0
  6 35  2  0
 35 36  1  0
 36 37  2  0
 31 24  1  0
 34 12  1  0
 37  4  1  0
M  END
$$$$
