
     RDKit          3D

 37 39  0  0  0  0  0  0  0  0999 V2000
  -14.7696  -35.0384  -13.1809 C   0  0  0  0  0  0  0  0  0  0  0  0
  -15.9696  -35.7406  -12.6108 C   0  0  0  0  0  0  0  0  0  0  0  0
  -16.4155  -34.9479  -11.3905 C   0  0  0  0  0  0  0  0  0  0  0  0
  -15.5825  -37.0960  -12.1244 C   0  0  0  0  0  0  0  0  0  0  0  0
  -15.1938  -37.3449  -10.8249 C   0  0  0  0  0  0  0  0  0  0  0  0
  -14.8368  -38.5952  -10.3969 C   0  0  0  0  0  0  0  0  0  0  0  0
  -14.4118  -38.8569   -8.9754 C   0  0  0  0  0  0  0  0  0  0  0  0
  -15.2674  -38.1607   -8.0734 N   0  0  0  0  0  0  0  0  0  0  0  0
  -16.5680  -38.7692   -7.9911 C   0  0  0  0  0  0  0  0  0  0  0  0
  -16.9256  -39.1588   -6.6011 C   0  0  1  0  0  0  0  0  0  0  0  0
  -17.6014  -38.0962   -6.0055 O   0  0  0  0  0  0  0  0  0  0  0  0
  -17.7854  -40.4269   -6.5649 C   0  0  2  0  0  0  0  0  0  0  0  0
  -18.8570  -40.1979   -5.5197 C   0  0  0  0  0  0  0  0  0  0  0  0
  -20.1444  -39.6741   -6.0678 C   0  0  2  0  0  0  0  0  0  0  0  0
  -20.3567  -38.1948   -5.8385 C   0  0  0  0  0  0  0  0  0  0  0  0
  -21.2699  -40.3925   -5.3096 C   0  0  0  0  0  0  0  0  0  0  0  0
  -22.4487  -40.5035   -6.1874 C   0  0  0  0  0  0  0  0  0  0  0  0
  -23.0840  -41.8704   -6.3402 C   0  0  0  0  0  0  0  0  0  0  0  0
  -22.6530  -42.9954   -6.7898 C   0  0  0  0  0  0  0  0  0  0  0  0
  -23.2789  -44.3644   -6.9448 C   0  0  0  0  0  0  0  0  0  0  0  0
  -22.1302  -45.3913   -7.1493 C   0  0  0  0  0  0  0  0  0  0  0  0
  -21.7184  -45.3177   -8.5811 C   0  0  0  0  0  0  0  0  0  0  0  0
  -20.3342  -45.7035   -8.7908 N   0  0  0  0  0  0  0  0  0  0  0  0
  -19.1126  -44.9847   -8.6278 C   0  0  0  0  0  0  0  0  0  0  0  0
  -18.2736  -45.2400   -9.7502 C   0  0  0  0  0  0  0  0  0  0  0  0
  -17.0296  -44.7069   -9.9029 C   0  0  0  0  0  0  0  0  0  0  0  0
  -16.2045  -45.0119  -11.0979 C   0  0  0  0  0  0  0  0  0  0  0  0
  -16.9035  -44.5079  -12.2030 O   0  0  0  0  0  0  0  0  0  0  0  0
  -16.6143  -43.8893   -8.8919 C   0  0  0  0  0  0  0  0  0  0  0  0
  -17.3980  -43.5907   -7.7431 C   0  0  0  0  0  0  0  0  0  0  0  0
  -18.6536  -44.1519   -7.6267 C   0  0  0  0  0  0  0  0  0  0  0  0
  -16.6394  -42.6923   -6.8713 C   0  0  0  0  0  0  0  0  0  0  0  0
  -15.3409  -42.9119   -6.7044 O   0  0  0  0  0  0  0  0  0  0  0  0
  -16.9962  -41.5538   -6.1079 N   0  0  0  0  0  0  0  0  0  0  0  0
  -14.8717  -39.6302  -11.3052 C   0  0  0  0  0  0  0  0  0  0  0  0
  -15.2619  -39.3969  -12.6215 C   0  0  0  0  0  0  0  0  0  0  0  0
  -15.6189  -38.1373  -13.0423 C   0  0  0  0  0  0  0  0  0  0  0  0
  1  2  1  0
  2  3  1  0
  2  4  1  0
  4  5  2  0
  5  6  1  0
  6  7  1  0
  7  8  1  0
  8  9  1  0
  9 10  1  0
 10 11  1  6
 10 12  1  0
 12 13  1  1
 13 14  1  0
 14 15  1  1
 14 16  1  0
 16 17  1  0
 17 18  1  0
 18 19  2  0
 19 20  1  0
 20 21  1  0
 21 22  1  0
 22 23  1  0
 23 24  1  0
 24 25  2  0
 25 26  1  0
 26 27  1  0
 27 28  1  0
 26 29  2  0
 29 30  1  0
 30 31  2  0
 30 32  1  0
 32 33  2  0
 32 34  1  0
  6 35  2  0
 35 36  1  0
 36 37  2  0
 31 24  1  0
 34 12  1  0
 37  4  1  0
M  END
$$$$
