
     RDKit          3D

 37 39  0  0  0  0  0  0  0  0999 V2000
  -22.6269  -36.4221   -7.5505 C   0  0  0  0  0  0  0  0  0  0  0  0
  -23.4136  -37.6940   -7.4041 C   0  0  0  0  0  0  0  0  0  0  0  0
  -24.1489  -37.6161   -6.0739 C   0  0  0  0  0  0  0  0  0  0  0  0
  -22.4862  -38.8584   -7.3146 C   0  0  0  0  0  0  0  0  0  0  0  0
  -21.3285  -38.8406   -6.5655 C   0  0  0  0  0  0  0  0  0  0  0  0
  -20.4860  -39.9174   -6.4989 C   0  0  0  0  0  0  0  0  0  0  0  0
  -19.2224  -39.8878   -5.6790 C   0  0  0  0  0  0  0  0  0  0  0  0
  -18.1167  -40.3155   -6.4694 N   0  0  0  0  0  0  0  0  0  0  0  0
  -18.0156  -39.5716   -7.6962 C   0  0  0  0  0  0  0  0  0  0  0  0
  -16.6428  -39.0507   -7.9328 C   0  0  1  0  0  0  0  0  0  0  0  0
  -15.8144  -39.5122   -6.9123 O   0  0  0  0  0  0  0  0  0  0  0  0
  -16.0960  -39.4773   -9.2995 C   0  0  2  0  0  0  0  0  0  0  0  0
  -16.2610  -38.2903  -10.2253 C   0  0  0  0  0  0  0  0  0  0  0  0
  -15.0521  -37.4180  -10.3234 C   0  0  2  0  0  0  0  0  0  0  0  0
  -15.1509  -36.1344   -9.5306 C   0  0  0  0  0  0  0  0  0  0  0  0
  -14.9263  -37.0046  -11.7968 C   0  0  0  0  0  0  0  0  0  0  0  0
  -13.5042  -36.7870  -12.1172 C   0  0  0  0  0  0  0  0  0  0  0  0
  -12.9446  -37.4868  -13.3389 C   0  0  0  0  0  0  0  0  0  0  0  0
  -12.8202  -38.7249  -13.6635 C   0  0  0  0  0  0  0  0  0  0  0  0
  -12.2648  -39.4324  -14.8804 C   0  0  0  0  0  0  0  0  0  0  0  0
  -12.7801  -40.8985  -14.8536 C   0  0  0  0  0  0  0  0  0  0  0  0
  -11.9137  -41.6567  -13.9051 C   0  0  0  0  0  0  0  0  0  0  0  0
  -12.5926  -42.7910  -13.3042 N   0  0  0  0  0  0  0  0  0  0  0  0
  -13.5008  -42.8828  -12.2078 C   0  0  0  0  0  0  0  0  0  0  0  0
  -13.1304  -43.9908  -11.3931 C   0  0  0  0  0  0  0  0  0  0  0  0
  -13.7985  -44.3580  -10.2644 C   0  0  0  0  0  0  0  0  0  0  0  0
  -13.3608  -45.5240   -9.4576 C   0  0  0  0  0  0  0  0  0  0  0  0
  -11.9626  -45.4584   -9.3899 O   0  0  0  0  0  0  0  0  0  0  0  0
  -14.8767  -43.5849   -9.9439 C   0  0  0  0  0  0  0  0  0  0  0  0
  -15.3035  -42.4654  -10.7105 C   0  0  0  0  0  0  0  0  0  0  0  0
  -14.5989  -42.1269  -11.8480 C   0  0  0  0  0  0  0  0  0  0  0  0
  -16.4876  -41.8811  -10.0788 C   0  0  0  0  0  0  0  0  0  0  0  0
  -17.4147  -42.6942   -9.5871 O   0  0  0  0  0  0  0  0  0  0  0  0
  -16.9048  -40.5469   -9.8504 N   0  0  0  0  0  0  0  0  0  0  0  0
  -20.8180  -41.0502   -7.2087 C   0  0  0  0  0  0  0  0  0  0  0  0
  -21.9833  -41.0857   -7.9704 C   0  0  0  0  0  0  0  0  0  0  0  0
  -22.8238  -39.9988   -8.0312 C   0  0  0  0  0  0  0  0  0  0  0  0
  1  2  1  0
  2  3  1  0
  2  4  1  0
  4  5  2  0
  5  6  1  0
  6  7  1  0
  7  8  1  0
  8  9  1  0
  9 10  1  0
 10 11  1  1
 10 12  1  0
 12 13  1  6
 13 14  1  0
 14 15  1  1
 14 16  1  0
 16 17  1  0
 17 18  1  0
 18 19  2  0
 19 20  1  0
 20 21  1  0
 21 22  1  0
 22 23  1  0
 23 24  1  0
 24 25  2  0
 25 26  1  0
 26 27  1  0
 27 28  1  0
 26 29  2  0
 29 30  1  0
 30 31  2  0
 30 32  1  0
 32 33  2  0
 32 34  1  0
  6 35  2  0
 35 36  1  0
 36 37  2  0
 31 24  1  0
 34 12  1  0
 37  4  1  0
M  END
$$$$
