
     RDKit          3D

 37 39  0  0  0  0  0  0  0  0999 V2000
  -21.8046  -40.7277   -4.6826 C   0  0  0  0  0  0  0  0  0  0  0  0
  -22.8579  -40.1784   -5.6027 C   0  0  0  0  0  0  0  0  0  0  0  0
  -23.2528  -41.2999   -6.5528 C   0  0  0  0  0  0  0  0  0  0  0  0
  -22.2825  -39.0879   -6.4413 C   0  0  0  0  0  0  0  0  0  0  0  0
  -21.1321  -39.2407   -7.1862 C   0  0  0  0  0  0  0  0  0  0  0  0
  -20.6151  -38.2267   -7.9467 C   0  0  0  0  0  0  0  0  0  0  0  0
  -19.3566  -38.4028   -8.7558 C   0  0  0  0  0  0  0  0  0  0  0  0
  -18.4626  -39.2854   -8.0834 N   0  0  0  0  0  0  0  0  0  0  0  0
  -17.1597  -38.7005   -7.9125 C   0  0  0  0  0  0  0  0  0  0  0  0
  -16.1540  -39.6851   -7.4322 C   0  0  1  0  0  0  0  0  0  0  0  0
  -16.4137  -39.9623   -6.0919 O   0  0  0  0  0  0  0  0  0  0  0  0
  -16.1755  -40.9754   -8.2589 C   0  0  2  0  0  0  0  0  0  0  0  0
  -15.2821  -40.7398   -9.4588 C   0  0  0  0  0  0  0  0  0  0  0  0
  -13.8752  -41.2084   -9.2756 C   0  0  2  0  0  0  0  0  0  0  0  0
  -12.8869  -40.0996   -8.9937 C   0  0  0  0  0  0  0  0  0  0  0  0
  -13.4448  -41.8394  -10.6077 C   0  0  0  0  0  0  0  0  0  0  0  0
  -12.4519  -42.8958  -10.3426 C   0  0  0  0  0  0  0  0  0  0  0  0
  -12.6925  -44.2571  -10.9625 C   0  0  0  0  0  0  0  0  0  0  0  0
  -13.6349  -45.1239  -10.8431 C   0  0  0  0  0  0  0  0  0  0  0  0
  -13.8842  -46.4837  -11.4584 C   0  0  0  0  0  0  0  0  0  0  0  0
  -15.3830  -46.8346  -11.2431 C   0  0  0  0  0  0  0  0  0  0  0  0
  -15.5248  -47.3400   -9.8469 C   0  0  0  0  0  0  0  0  0  0  0  0
  -16.8515  -47.1199   -9.2990 N   0  0  0  0  0  0  0  0  0  0  0  0
  -17.4584  -45.9693   -8.7131 C   0  0  0  0  0  0  0  0  0  0  0  0
  -18.1685  -46.3667   -7.5441 C   0  0  0  0  0  0  0  0  0  0  0  0
  -18.8654  -45.5057   -6.7516 C   0  0  0  0  0  0  0  0  0  0  0  0
  -19.5847  -45.9834   -5.5448 C   0  0  0  0  0  0  0  0  0  0  0  0
  -20.4578  -46.9914   -5.9753 O   0  0  0  0  0  0  0  0  0  0  0  0
  -18.8483  -44.1999   -7.1483 C   0  0  0  0  0  0  0  0  0  0  0  0
  -18.1615  -43.7325   -8.3029 C   0  0  0  0  0  0  0  0  0  0  0  0
  -17.4673  -44.6380   -9.0795 C   0  0  0  0  0  0  0  0  0  0  0  0
  -18.3640  -42.2878   -8.4234 C   0  0  0  0  0  0  0  0  0  0  0  0
  -19.5666  -41.7887   -8.1646 O   0  0  0  0  0  0  0  0  0  0  0  0
  -17.5080  -41.2160   -8.7767 N   0  0  0  0  0  0  0  0  0  0  0  0
  -21.2765  -37.0185   -7.9593 C   0  0  0  0  0  0  0  0  0  0  0  0
  -22.4397  -36.8465   -7.2132 C   0  0  0  0  0  0  0  0  0  0  0  0
  -22.9517  -37.8712   -6.4520 C   0  0  0  0  0  0  0  0  0  0  0  0
  1  2  1  0
  2  3  1  0
  2  4  1  0
  4  5  2  0
  5  6  1  0
  6  7  1  0
  7  8  1  0
  8  9  1  0
  9 10  1  0
 10 11  1  1
 10 12  1  0
 12 13  1  6
 13 14  1  0
 14 15  1  6
 14 16  1  0
 16 17  1  0
 17 18  1  0
 18 19  2  0
 19 20  1  0
 20 21  1  0
 21 22  1  0
 22 23  1  0
 23 24  1  0
 24 25  2  0
 25 26  1  0
 26 27  1  0
 27 28  1  0
 26 29  2  0
 29 30  1  0
 30 31  2  0
 30 32  1  0
 32 33  2  0
 32 34  1  0
  6 35  2  0
 35 36  1  0
 36 37  2  0
 31 24  1  0
 34 12  1  0
 37  4  1  0
M  END
$$$$
