
     RDKit          3D

 37 39  0  0  0  0  0  0  0  0999 V2000
  -14.6011  -34.5706   -8.3406 C   0  0  0  0  0  0  0  0  0  0  0  0
  -15.7755  -34.8595   -9.2324 C   0  0  0  0  0  0  0  0  0  0  0  0
  -16.8964  -35.3794   -8.3438 C   0  0  0  0  0  0  0  0  0  0  0  0
  -15.4354  -35.9581  -10.1817 C   0  0  0  0  0  0  0  0  0  0  0  0
  -14.8573  -37.1444   -9.7813 C   0  0  0  0  0  0  0  0  0  0  0  0
  -14.5471  -38.1405  -10.6676 C   0  0  0  0  0  0  0  0  0  0  0  0
  -13.9141  -39.4325  -10.2208 C   0  0  0  0  0  0  0  0  0  0  0  0
  -14.6421  -39.9803   -9.1253 N   0  0  0  0  0  0  0  0  0  0  0  0
  -15.9894  -39.4797   -9.0735 C   0  0  0  0  0  0  0  0  0  0  0  0
  -16.9711  -40.4298   -9.6610 C   0  0  1  0  0  0  0  0  0  0  0  0
  -16.2847  -41.5636  -10.0900 O   0  0  0  0  0  0  0  0  0  0  0  0
  -18.0657  -40.8145   -8.6597 C   0  0  2  0  0  0  0  0  0  0  0  0
  -18.8022  -39.5391   -8.3070 C   0  0  0  0  0  0  0  0  0  0  0  0
  -20.0260  -39.2921   -9.1277 C   0  0  2  0  0  0  0  0  0  0  0  0
  -19.8432  -38.2547  -10.2122 C   0  0  0  0  0  0  0  0  0  0  0  0
  -21.0904  -38.7327   -8.1728 C   0  0  0  0  0  0  0  0  0  0  0  0
  -22.4267  -39.1184   -8.6606 C   0  0  0  0  0  0  0  0  0  0  0  0
  -23.3720  -39.7737   -7.6745 C   0  0  0  0  0  0  0  0  0  0  0  0
  -23.3155  -40.8623   -6.9924 C   0  0  0  0  0  0  0  0  0  0  0  0
  -24.2527  -41.5235   -6.0053 C   0  0  0  0  0  0  0  0  0  0  0  0
  -23.4391  -42.5886   -5.2183 C   0  0  0  0  0  0  0  0  0  0  0  0
  -23.3453  -43.8022   -6.0805 C   0  0  0  0  0  0  0  0  0  0  0  0
  -22.1645  -44.6010   -5.8041 N   0  0  0  0  0  0  0  0  0  0  0  0
  -20.8069  -44.4655   -6.2213 C   0  0  0  0  0  0  0  0  0  0  0  0
  -20.3142  -45.7438   -6.6113 C   0  0  0  0  0  0  0  0  0  0  0  0
  -19.0464  -45.9627   -7.0584 C   0  0  0  0  0  0  0  0  0  0  0  0
  -18.5940  -47.3205   -7.4507 C   0  0  0  0  0  0  0  0  0  0  0  0
  -18.2204  -47.9724   -6.2678 O   0  0  0  0  0  0  0  0  0  0  0  0
  -18.2461  -44.8586   -7.1148 C   0  0  0  0  0  0  0  0  0  0  0  0
  -18.6708  -43.5535   -6.7416 C   0  0  0  0  0  0  0  0  0  0  0  0
  -19.9638  -43.3745   -6.2932 C   0  0  0  0  0  0  0  0  0  0  0  0
  -17.5568  -42.6215   -6.9235 C   0  0  0  0  0  0  0  0  0  0  0  0
  -16.3372  -43.0088   -6.5700 O   0  0  0  0  0  0  0  0  0  0  0  0
  -17.4710  -41.3018   -7.4308 N   0  0  0  0  0  0  0  0  0  0  0  0
  -14.8274  -37.9377  -12.0009 C   0  0  0  0  0  0  0  0  0  0  0  0
  -15.4112  -36.7459  -12.4228 C   0  0  0  0  0  0  0  0  0  0  0  0
  -15.7193  -35.7507  -11.5250 C   0  0  0  0  0  0  0  0  0  0  0  0
  1  2  1  0
  2  3  1  0
  2  4  1  0
  4  5  2  0
  5  6  1  0
  6  7  1  0
  7  8  1  0
  8  9  1  0
  9 10  1  0
 10 11  1  1
 10 12  1  0
 12 13  1  1
 13 14  1  0
 14 15  1  6
 14 16  1  0
 16 17  1  0
 17 18  1  0
 18 19  2  0
 19 20  1  0
 20 21  1  0
 21 22  1  0
 22 23  1  0
 23 24  1  0
 24 25  2  0
 25 26  1  0
 26 27  1  0
 27 28  1  0
 26 29  2  0
 29 30  1  0
 30 31  2  0
 30 32  1  0
 32 33  2  0
 32 34  1  0
  6 35  2  0
 35 36  1  0
 36 37  2  0
 31 24  1  0
 34 12  1  0
 37  4  1  0
M  END
$$$$
