
     RDKit          3D

 37 39  0  0  0  0  0  0  0  0999 V2000
  -20.9359  -37.8933   -9.2839 C   0  0  0  0  0  0  0  0  0  0  0  0
  -20.6653  -36.4601   -9.6453 C   0  0  0  0  0  0  0  0  0  0  0  0
  -21.7605  -36.0259  -10.6089 C   0  0  0  0  0  0  0  0  0  0  0  0
  -19.3755  -36.3571  -10.3866 C   0  0  0  0  0  0  0  0  0  0  0  0
  -18.2450  -37.0610  -10.0283 C   0  0  0  0  0  0  0  0  0  0  0  0
  -17.0676  -36.9502  -10.7176 C   0  0  0  0  0  0  0  0  0  0  0  0
  -15.8372  -37.7221  -10.3173 C   0  0  0  0  0  0  0  0  0  0  0  0
  -15.5958  -37.5675   -8.9216 N   0  0  0  0  0  0  0  0  0  0  0  0
  -16.4505  -38.4140   -8.1330 C   0  0  0  0  0  0  0  0  0  0  0  0
  -15.8575  -39.7572   -7.8966 C   0  0  1  0  0  0  0  0  0  0  0  0
  -15.4191  -39.8192   -6.5758 O   0  0  0  0  0  0  0  0  0  0  0  0
  -16.8577  -40.8829   -8.1815 C   0  0  2  0  0  0  0  0  0  0  0  0
  -16.4120  -41.5477   -9.4671 C   0  0  0  0  0  0  0  0  0  0  0  0
  -15.5427  -42.7462   -9.2669 C   0  0  2  0  0  0  0  0  0  0  0  0
  -14.0733  -42.4919   -9.5159 C   0  0  0  0  0  0  0  0  0  0  0  0
  -15.9813  -43.7864  -10.3078 C   0  0  0  0  0  0  0  0  0  0  0  0
  -15.7352  -45.1376   -9.7729 C   0  0  0  0  0  0  0  0  0  0  0  0
  -16.8792  -46.1298   -9.8183 C   0  0  0  0  0  0  0  0  0  0  0  0
  -18.0527  -46.1440   -9.2926 C   0  0  0  0  0  0  0  0  0  0  0  0
  -19.2011  -47.1286   -9.3335 C   0  0  0  0  0  0  0  0  0  0  0  0
  -20.4798  -46.3867   -8.8536 C   0  0  0  0  0  0  0  0  0  0  0  0
  -20.4416  -46.3545   -7.3628 C   0  0  0  0  0  0  0  0  0  0  0  0
  -21.1635  -45.2252   -6.8040 N   0  0  0  0  0  0  0  0  0  0  0  0
  -20.7977  -43.8577   -6.6266 C   0  0  0  0  0  0  0  0  0  0  0  0
  -21.2040  -43.4359   -5.3281 C   0  0  0  0  0  0  0  0  0  0  0  0
  -21.0065  -42.1784   -4.8438 C   0  0  0  0  0  0  0  0  0  0  0  0
  -21.4533  -41.8015   -3.4799 C   0  0  0  0  0  0  0  0  0  0  0  0
  -21.4770  -40.4009   -3.4420 O   0  0  0  0  0  0  0  0  0  0  0  0
  -20.3794  -41.3146   -5.6944 C   0  0  0  0  0  0  0  0  0  0  0  0
  -19.9471  -41.6666   -7.0030 C   0  0  0  0  0  0  0  0  0  0  0  0
  -20.1668  -42.9517   -7.4559 C   0  0  0  0  0  0  0  0  0  0  0  0
  -19.3243  -40.4985   -7.6275 C   0  0  0  0  0  0  0  0  0  0  0  0
  -19.8833  -39.3073   -7.4514 O   0  0  0  0  0  0  0  0  0  0  0  0
  -18.1736  -40.3307   -8.4363 N   0  0  0  0  0  0  0  0  0  0  0  0
  -17.0246  -36.1040  -11.8035 C   0  0  0  0  0  0  0  0  0  0  0  0
  -18.1568  -35.3855  -12.1796 C   0  0  0  0  0  0  0  0  0  0  0  0
  -19.3355  -35.5033  -11.4809 C   0  0  0  0  0  0  0  0  0  0  0  0
  1  2  1  0
  2  3  1  0
  2  4  1  0
  4  5  2  0
  5  6  1  0
  6  7  1  0
  7  8  1  0
  8  9  1  0
  9 10  1  0
 10 11  1  1
 10 12  1  0
 12 13  1  6
 13 14  1  0
 14 15  1  6
 14 16  1  0
 16 17  1  0
 17 18  1  0
 18 19  2  0
 19 20  1  0
 20 21  1  0
 21 22  1  0
 22 23  1  0
 23 24  1  0
 24 25  2  0
 25 26  1  0
 26 27  1  0
 27 28  1  0
 26 29  2  0
 29 30  1  0
 30 31  2  0
 30 32  1  0
 32 33  2  0
 32 34  1  0
  6 35  2  0
 35 36  1  0
 36 37  2  0
 31 24  1  0
 34 12  1  0
 37  4  1  0
M  END
$$$$
