
     RDKit          3D

 37 39  0  0  0  0  0  0  0  0999 V2000
  -15.0523  -33.7835  -11.2606 C   0  0  0  0  0  0  0  0  0  0  0  0
  -15.1363  -35.0621  -12.0455 C   0  0  0  0  0  0  0  0  0  0  0  0
  -16.5468  -35.6056  -11.8682 C   0  0  0  0  0  0  0  0  0  0  0  0
  -14.2093  -36.0765  -11.4663 C   0  0  0  0  0  0  0  0  0  0  0  0
  -14.6377  -37.2927  -10.9772 C   0  0  0  0  0  0  0  0  0  0  0  0
  -13.7729  -38.2102  -10.4441 C   0  0  0  0  0  0  0  0  0  0  0  0
  -14.2507  -39.5357   -9.9107 C   0  0  0  0  0  0  0  0  0  0  0  0
  -14.8997  -39.3523   -8.6556 N   0  0  0  0  0  0  0  0  0  0  0  0
  -15.9496  -38.3723   -8.7334 C   0  0  0  0  0  0  0  0  0  0  0  0
  -17.1654  -38.8955   -9.4115 C   0  0  1  0  0  0  0  0  0  0  0  0
  -16.7663  -39.6385  -10.5203 O   0  0  0  0  0  0  0  0  0  0  0  0
  -18.0204  -39.7535   -8.4726 C   0  0  2  0  0  0  0  0  0  0  0  0
  -18.6562  -38.8078   -7.4752 C   0  0  0  0  0  0  0  0  0  0  0  0
  -20.0268  -38.3496   -7.8543 C   0  0  2  0  0  0  0  0  0  0  0  0
  -20.0764  -36.9444   -8.4102 C   0  0  0  0  0  0  0  0  0  0  0  0
  -20.8571  -38.3304   -6.5628 C   0  0  0  0  0  0  0  0  0  0  0  0
  -22.2693  -38.5930   -6.8930 C   0  0  0  0  0  0  0  0  0  0  0  0
  -22.9833  -39.6769   -6.1117 C   0  0  0  0  0  0  0  0  0  0  0  0
  -22.7871  -40.9410   -5.9806 C   0  0  0  0  0  0  0  0  0  0  0  0
  -23.4931  -42.0300   -5.2024 C   0  0  0  0  0  0  0  0  0  0  0  0
  -22.5349  -43.2509   -5.1183 C   0  0  0  0  0  0  0  0  0  0  0  0
  -22.6361  -43.9850   -6.4129 C   0  0  0  0  0  0  0  0  0  0  0  0
  -21.4280  -44.7213   -6.7401 N   0  0  0  0  0  0  0  0  0  0  0  0
  -20.1916  -44.3085   -7.3201 C   0  0  0  0  0  0  0  0  0  0  0  0
  -19.8018  -45.2623   -8.3034 C   0  0  0  0  0  0  0  0  0  0  0  0
  -18.6616  -45.1660   -9.0421 C   0  0  0  0  0  0  0  0  0  0  0  0
  -18.3120  -46.1944  -10.0532 C   0  0  0  0  0  0  0  0  0  0  0  0
  -17.5104  -47.1392   -9.3986 O   0  0  0  0  0  0  0  0  0  0  0  0
  -17.8860  -44.0732   -8.7829 C   0  0  0  0  0  0  0  0  0  0  0  0
  -18.2129  -43.0821   -7.8164 C   0  0  0  0  0  0  0  0  0  0  0  0
  -19.3777  -43.2174   -7.0886 C   0  0  0  0  0  0  0  0  0  0  0  0
  -17.1591  -42.0663   -7.8031 C   0  0  0  0  0  0  0  0  0  0  0  0
  -15.8942  -42.4584   -7.8957 O   0  0  0  0  0  0  0  0  0  0  0  0
  -17.1774  -40.6530   -7.7099 N   0  0  0  0  0  0  0  0  0  0  0  0
  -12.4327  -37.8951  -10.4012 C   0  0  0  0  0  0  0  0  0  0  0  0
  -11.9825  -36.6716  -10.8906 C   0  0  0  0  0  0  0  0  0  0  0  0
  -12.8589  -35.7560  -11.4245 C   0  0  0  0  0  0  0  0  0  0  0  0
  1  2  1  0
  2  3  1  0
  2  4  1  0
  4  5  2  0
  5  6  1  0
  6  7  1  0
  7  8  1  0
  8  9  1  0
  9 10  1  0
 10 11  1  6
 10 12  1  0
 12 13  1  1
 13 14  1  0
 14 15  1  1
 14 16  1  0
 16 17  1  0
 17 18  1  0
 18 19  2  0
 19 20  1  0
 20 21  1  0
 21 22  1  0
 22 23  1  0
 23 24  1  0
 24 25  2  0
 25 26  1  0
 26 27  1  0
 27 28  1  0
 26 29  2  0
 29 30  1  0
 30 31  2  0
 30 32  1  0
 32 33  2  0
 32 34  1  0
  6 35  2  0
 35 36  1  0
 36 37  2  0
 31 24  1  0
 34 12  1  0
 37  4  1  0
M  END
$$$$
