
     RDKit          3D

 37 39  0  0  0  0  0  0  0  0999 V2000
  -24.9056  -41.0910   -5.4206 C   0  0  0  0  0  0  0  0  0  0  0  0
  -23.6167  -40.3383   -5.2470 C   0  0  0  0  0  0  0  0  0  0  0  0
  -23.9311  -38.8611   -5.4348 C   0  0  0  0  0  0  0  0  0  0  0  0
  -22.6587  -40.7140   -6.3262 C   0  0  0  0  0  0  0  0  0  0  0  0
  -21.6237  -41.6051   -6.1350 C   0  0  0  0  0  0  0  0  0  0  0  0
  -20.7503  -41.9346   -7.1362 C   0  0  0  0  0  0  0  0  0  0  0  0
  -19.6215  -42.9080   -6.9172 C   0  0  0  0  0  0  0  0  0  0  0  0
  -18.9183  -43.1238   -8.1375 N   0  0  0  0  0  0  0  0  0  0  0  0
  -17.8992  -42.1315   -8.3512 C   0  0  0  0  0  0  0  0  0  0  0  0
  -16.7764  -42.6409   -9.1828 C   0  0  1  0  0  0  0  0  0  0  0  0
  -17.3084  -43.2397  -10.3226 O   0  0  0  0  0  0  0  0  0  0  0  0
  -15.7995  -41.5257   -9.5711 C   0  0  2  0  0  0  0  0  0  0  0  0
  -14.4738  -42.1925   -9.8733 C   0  0  0  0  0  0  0  0  0  0  0  0
  -14.2607  -42.5035  -11.3190 C   0  0  2  0  0  0  0  0  0  0  0  0
  -14.4656  -43.9586  -11.6743 C   0  0  0  0  0  0  0  0  0  0  0  0
  -12.7888  -42.1897  -11.6240 C   0  0  0  0  0  0  0  0  0  0  0  0
  -12.6646  -41.7834  -13.0353 C   0  0  0  0  0  0  0  0  0  0  0  0
  -11.9267  -40.4939  -13.3324 C   0  0  0  0  0  0  0  0  0  0  0  0
  -12.1325  -39.2674  -13.0056 C   0  0  0  0  0  0  0  0  0  0  0  0
  -11.4013  -37.9747  -13.2959 C   0  0  0  0  0  0  0  0  0  0  0  0
  -11.9011  -36.9084  -12.2815 C   0  0  0  0  0  0  0  0  0  0  0  0
  -13.2049  -36.3902  -12.7880 C   0  0  0  0  0  0  0  0  0  0  0  0
  -14.0678  -35.9004  -11.7276 N   0  0  0  0  0  0  0  0  0  0  0  0
  -14.9365  -36.5775  -10.8208 C   0  0  0  0  0  0  0  0  0  0  0  0
  -16.1672  -35.8649  -10.7415 C   0  0  0  0  0  0  0  0  0  0  0  0
  -17.2137  -36.2454   -9.9572 C   0  0  0  0  0  0  0  0  0  0  0  0
  -18.4714  -35.4587   -9.9196 C   0  0  0  0  0  0  0  0  0  0  0  0
  -18.8681  -35.4070   -8.5766 O   0  0  0  0  0  0  0  0  0  0  0  0
  -17.0160  -37.3813   -9.2268 C   0  0  0  0  0  0  0  0  0  0  0  0
  -15.8146  -38.1422   -9.2566 C   0  0  0  0  0  0  0  0  0  0  0  0
  -14.7776  -37.7219  -10.0647 C   0  0  0  0  0  0  0  0  0  0  0  0
  -15.9530  -39.2837   -8.3509 C   0  0  0  0  0  0  0  0  0  0  0  0
  -16.5494  -39.0995   -7.1793 O   0  0  0  0  0  0  0  0  0  0  0  0
  -15.5715  -40.6447   -8.4427 N   0  0  0  0  0  0  0  0  0  0  0  0
  -20.9227  -41.3492   -8.3711 C   0  0  0  0  0  0  0  0  0  0  0  0
  -21.9626  -40.4472   -8.5819 C   0  0  0  0  0  0  0  0  0  0  0  0
  -22.8352  -40.1222   -7.5699 C   0  0  0  0  0  0  0  0  0  0  0  0
  1  2  1  0
  2  3  1  0
  2  4  1  0
  4  5  2  0
  5  6  1  0
  6  7  1  0
  7  8  1  0
  8  9  1  0
  9 10  1  0
 10 11  1  6
 10 12  1  0
 12 13  1  1
 13 14  1  0
 14 15  1  1
 14 16  1  0
 16 17  1  0
 17 18  1  0
 18 19  2  0
 19 20  1  0
 20 21  1  0
 21 22  1  0
 22 23  1  0
 23 24  1  0
 24 25  2  0
 25 26  1  0
 26 27  1  0
 27 28  1  0
 26 29  2  0
 29 30  1  0
 30 31  2  0
 30 32  1  0
 32 33  2  0
 32 34  1  0
  6 35  2  0
 35 36  1  0
 36 37  2  0
 31 24  1  0
 34 12  1  0
 37  4  1  0
M  END
$$$$
