
     RDKit          3D

 37 39  0  0  0  0  0  0  0  0999 V2000
  -23.6292  -40.9286   -5.6773 C   0  0  0  0  0  0  0  0  0  0  0  0
  -22.3001  -40.2512   -5.4969 C   0  0  0  0  0  0  0  0  0  0  0  0
  -22.4753  -39.2024   -4.4079 C   0  0  0  0  0  0  0  0  0  0  0  0
  -21.9288  -39.5194   -6.7420 C   0  0  0  0  0  0  0  0  0  0  0  0
  -20.6674  -39.0086   -6.9650 C   0  0  0  0  0  0  0  0  0  0  0  0
  -20.3455  -38.3348   -8.1123 C   0  0  0  0  0  0  0  0  0  0  0  0
  -18.9649  -37.7788   -8.3461 C   0  0  0  0  0  0  0  0  0  0  0  0
  -18.1911  -37.8742   -7.1534 N   0  0  0  0  0  0  0  0  0  0  0  0
  -17.8609  -39.2378   -6.8366 C   0  0  0  0  0  0  0  0  0  0  0  0
  -16.4713  -39.5916   -7.2309 C   0  0  1  0  0  0  0  0  0  0  0  0
  -15.7484  -39.8898   -6.0780 O   0  0  0  0  0  0  0  0  0  0  0  0
  -16.4359  -40.7743   -8.2051 C   0  0  2  0  0  0  0  0  0  0  0  0
  -15.3137  -40.4998   -9.1841 C   0  0  0  0  0  0  0  0  0  0  0  0
  -14.0093  -41.1256   -8.8111 C   0  0  2  0  0  0  0  0  0  0  0  0
  -13.0089  -40.1604   -8.2168 C   0  0  0  0  0  0  0  0  0  0  0  0
  -13.3832  -41.6465  -10.1128 C   0  0  0  0  0  0  0  0  0  0  0  0
  -12.5458  -42.8208   -9.8092 C   0  0  0  0  0  0  0  0  0  0  0  0
  -12.7700  -44.0742  -10.6302 C   0  0  0  0  0  0  0  0  0  0  0  0
  -13.7832  -44.8489  -10.7939 C   0  0  0  0  0  0  0  0  0  0  0  0
  -14.0167  -46.1005  -11.6118 C   0  0  0  0  0  0  0  0  0  0  0  0
  -15.5520  -46.3194  -11.7170 C   0  0  0  0  0  0  0  0  0  0  0  0
  -15.9977  -46.9584  -10.4450 C   0  0  0  0  0  0  0  0  0  0  0  0
  -17.3831  -46.6667  -10.1221 N   0  0  0  0  0  0  0  0  0  0  0  0
  -17.9982  -45.5321   -9.5140 C   0  0  0  0  0  0  0  0  0  0  0  0
  -18.9479  -45.9818   -8.5525 C   0  0  0  0  0  0  0  0  0  0  0  0
  -19.7134  -45.1471   -7.7959 C   0  0  0  0  0  0  0  0  0  0  0  0
  -20.6857  -45.6794   -6.8094 C   0  0  0  0  0  0  0  0  0  0  0  0
  -21.9340  -45.6879   -7.4461 O   0  0  0  0  0  0  0  0  0  0  0  0
  -19.5177  -43.8140   -8.0139 C   0  0  0  0  0  0  0  0  0  0  0  0
  -18.5881  -43.2944   -8.9566 C   0  0  0  0  0  0  0  0  0  0  0  0
  -17.8318  -44.1746   -9.7038 C   0  0  0  0  0  0  0  0  0  0  0  0
  -18.6491  -41.8322   -8.9272 C   0  0  0  0  0  0  0  0  0  0  0  0
  -19.8358  -41.2454   -8.8284 O   0  0  0  0  0  0  0  0  0  0  0  0
  -17.6595  -40.8202   -8.9811 N   0  0  0  0  0  0  0  0  0  0  0  0
  -21.3238  -38.1689   -9.0676 C   0  0  0  0  0  0  0  0  0  0  0  0
  -22.6030  -38.6782   -8.8590 C   0  0  0  0  0  0  0  0  0  0  0  0
  -22.9172  -39.3539   -7.7031 C   0  0  0  0  0  0  0  0  0  0  0  0
  1  2  1  0
  2  3  1  0
  2  4  1  0
  4  5  2  0
  5  6  1  0
  6  7  1  0
  7  8  1  0
  8  9  1  0
  9 10  1  0
 10 11  1  1
 10 12  1  0
 12 13  1  6
 13 14  1  0
 14 15  1  6
 14 16  1  0
 16 17  1  0
 17 18  1  0
 18 19  2  0
 19 20  1  0
 20 21  1  0
 21 22  1  0
 22 23  1  0
 23 24  1  0
 24 25  2  0
 25 26  1  0
 26 27  1  0
 27 28  1  0
 26 29  2  0
 29 30  1  0
 30 31  2  0
 30 32  1  0
 32 33  2  0
 32 34  1  0
  6 35  2  0
 35 36  1  0
 36 37  2  0
 31 24  1  0
 34 12  1  0
 37  4  1  0
M  END
$$$$
