
     RDKit          3D

 37 39  0  0  0  0  0  0  0  0999 V2000
  -24.3791  -41.6184   -8.2026 C   0  0  0  0  0  0  0  0  0  0  0  0
  -24.1313  -40.1371   -8.2486 C   0  0  0  0  0  0  0  0  0  0  0  0
  -23.6789  -39.8016   -9.6626 C   0  0  0  0  0  0  0  0  0  0  0  0
  -23.0028  -39.7815   -7.3411 C   0  0  0  0  0  0  0  0  0  0  0  0
  -21.9082  -39.0514   -7.7542 C   0  0  0  0  0  0  0  0  0  0  0  0
  -20.8785  -38.7383   -6.9083 C   0  0  0  0  0  0  0  0  0  0  0  0
  -19.6859  -37.9416   -7.3694 C   0  0  0  0  0  0  0  0  0  0  0  0
  -18.6969  -37.9044   -6.3444 N   0  0  0  0  0  0  0  0  0  0  0  0
  -17.8528  -39.0687   -6.3718 C   0  0  0  0  0  0  0  0  0  0  0  0
  -17.1442  -39.2257   -7.6699 C   0  0  1  0  0  0  0  0  0  0  0  0
  -15.7938  -38.9468   -7.4714 O   0  0  0  0  0  0  0  0  0  0  0  0
  -17.3197  -40.6326   -8.2517 C   0  0  2  0  0  0  0  0  0  0  0  0
  -16.5177  -40.6772   -9.5355 C   0  0  0  0  0  0  0  0  0  0  0  0
  -15.1340  -41.2171   -9.3742 C   0  0  2  0  0  0  0  0  0  0  0  0
  -14.0552  -40.1579   -9.3647 C   0  0  0  0  0  0  0  0  0  0  0  0
  -14.8601  -42.0987  -10.6012 C   0  0  0  0  0  0  0  0  0  0  0  0
  -13.9192  -43.1693  -10.2257 C   0  0  0  0  0  0  0  0  0  0  0  0
  -14.2998  -44.5932  -10.5762 C   0  0  0  0  0  0  0  0  0  0  0  0
  -15.2831  -45.3496  -10.2378 C   0  0  0  0  0  0  0  0  0  0  0  0
  -15.6718  -46.7706  -10.5833 C   0  0  0  0  0  0  0  0  0  0  0  0
  -17.1666  -46.9601  -10.2020 C   0  0  0  0  0  0  0  0  0  0  0  0
  -17.2222  -47.2063   -8.7318 C   0  0  0  0  0  0  0  0  0  0  0  0
  -18.4805  -46.7916   -8.1373 N   0  0  0  0  0  0  0  0  0  0  0  0
  -18.9593  -45.5134   -7.7220 C   0  0  0  0  0  0  0  0  0  0  0  0
  -19.5922  -45.6477   -6.4530 C   0  0  0  0  0  0  0  0  0  0  0  0
  -20.1618  -44.6114   -5.7771 C   0  0  0  0  0  0  0  0  0  0  0  0
  -20.8058  -44.8172   -4.4562 C   0  0  0  0  0  0  0  0  0  0  0  0
  -21.6440  -45.9320   -4.5919 O   0  0  0  0  0  0  0  0  0  0  0  0
  -20.0933  -43.3982   -6.3987 C   0  0  0  0  0  0  0  0  0  0  0  0
  -19.4778  -43.1910   -7.6641 C   0  0  0  0  0  0  0  0  0  0  0  0
  -18.9124  -44.2680   -8.3163 C   0  0  0  0  0  0  0  0  0  0  0  0
  -19.5952  -41.7769   -8.0233 C   0  0  0  0  0  0  0  0  0  0  0  0
  -20.7364  -41.1475   -7.7709 O   0  0  0  0  0  0  0  0  0  0  0  0
  -18.7042  -40.8523   -8.6213 N   0  0  0  0  0  0  0  0  0  0  0  0
  -20.9512  -39.1733   -5.6033 C   0  0  0  0  0  0  0  0  0  0  0  0
  -22.0492  -39.9115   -5.1690 C   0  0  0  0  0  0  0  0  0  0  0  0
  -23.0791  -40.2213   -6.0262 C   0  0  0  0  0  0  0  0  0  0  0  0
  1  2  1  0
  2  3  1  0
  2  4  1  0
  4  5  2  0
  5  6  1  0
  6  7  1  0
  7  8  1  0
  8  9  1  0
  9 10  1  0
 10 11  1  1
 10 12  1  0
 12 13  1  6
 13 14  1  0
 14 15  1  6
 14 16  1  0
 16 17  1  0
 17 18  1  0
 18 19  2  0
 19 20  1  0
 20 21  1  0
 21 22  1  0
 22 23  1  0
 23 24  1  0
 24 25  2  0
 25 26  1  0
 26 27  1  0
 27 28  1  0
 26 29  2  0
 29 30  1  0
 30 31  2  0
 30 32  1  0
 32 33  2  0
 32 34  1  0
  6 35  2  0
 35 36  1  0
 36 37  2  0
 31 24  1  0
 34 12  1  0
 37  4  1  0
M  END
$$$$
