
     RDKit          3D

 39 40  0  0  0  0  0  0  0  0999 V2000
  -13.2642  -33.1565  -10.8402 C   0  0  0  0  0  0  0  0  0  0  0  0
  -13.3532  -34.4332  -11.6264 C   0  0  0  0  0  0  0  0  0  0  0  0
  -13.3001  -35.5961  -10.8372 O   0  0  0  0  0  0  0  0  0  0  0  0
  -13.2756  -36.8796  -11.3465 C   0  0  0  0  0  0  0  0  0  0  0  0
  -13.4795  -38.0123  -10.6073 C   0  0  0  0  0  0  0  0  0  0  0  0
  -13.4453  -39.2909  -11.1667 C   0  0  0  0  0  0  0  0  0  0  0  0
  -13.6601  -40.5134  -10.3927 C   0  0  0  0  0  0  0  0  0  0  0  0
  -14.0836  -40.2929   -9.0228 N   0  0  0  0  0  0  0  0  0  0  0  0
  -15.5414  -40.2292   -9.0531 C   0  0  0  0  0  0  0  0  0  0  0  0
  -16.1335  -39.8257   -7.7273 C   0  0  1  0  0  0  0  0  0  0  0  0
  -15.8213  -38.5126   -7.4992 O   0  0  0  0  0  0  0  0  0  0  0  0
  -17.6496  -39.9946   -7.7105 C   0  0  2  0  0  0  0  0  0  0  0  0
  -18.3017  -38.9073   -6.8977 C   0  0  0  0  0  0  0  0  0  0  0  0
  -19.7470  -38.6821   -7.2426 C   0  0  2  0  0  0  0  0  0  0  0  0
  -20.0889  -37.2010   -7.0453 C   0  0  0  0  0  0  0  0  0  0  0  0
  -20.6671  -39.5412   -6.3946 C   0  0  0  0  0  0  0  0  0  0  0  0
  -22.0159  -39.6962   -7.0296 C   0  0  0  0  0  0  0  0  0  0  0  0
  -22.9864  -40.4392   -6.1574 C   0  0  0  0  0  0  0  0  0  0  0  0
  -22.5694  -41.8228   -5.8179 C   0  0  0  0  0  0  0  0  0  0  0  0
  -23.2869  -42.8953   -6.6563 C   0  0  0  0  0  0  0  0  0  0  0  0
  -22.5168  -44.1712   -6.4026 C   0  0  0  0  0  0  0  0  0  0  0  0
  -22.5787  -45.1786   -7.4770 C   0  0  0  0  0  0  0  0  0  0  0  0
  -21.5259  -45.0992   -8.5489 C   0  0  0  0  0  0  0  0  0  0  0  0
  -20.1403  -45.1333   -8.0502 C   0  0  0  0  0  0  0  0  0  0  0  0
  -19.9829  -45.8959   -7.0192 O   0  0  0  0  0  0  0  0  0  0  0  0
  -18.9964  -44.4703   -8.5297 N   0  0  0  0  0  0  0  0  0  0  0  0
  -17.8150  -45.2735   -8.9277 C   0  0  0  0  0  0  0  0  0  0  0  0
  -18.8058  -43.0307   -8.6719 C   0  0  1  0  0  0  0  0  0  0  0  0
  -20.0808  -42.2877   -8.8332 C   0  0  0  0  0  0  0  0  0  0  0  0
  -17.9759  -42.5344   -7.5587 C   0  0  0  0  0  0  0  0  0  0  0  0
  -17.2302  -43.4179   -6.9819 O   0  0  0  0  0  0  0  0  0  0  0  0
  -17.8834  -41.2524   -7.0424 N   0  0  0  0  0  0  0  0  0  0  0  0
  -13.1939  -39.3712  -12.5154 C   0  0  0  0  0  0  0  0  0  0  0  0
  -12.9834  -38.2312  -13.2875 C   0  0  0  0  0  0  0  0  0  0  0  0
  -13.0240  -36.9937  -12.7070 C   0  0  0  0  0  0  0  0  0  0  0  0
  -13.1435  -40.6888  -13.1765 C   0  0  0  0  0  0  0  0  0  0  0  0
  -14.3463  -41.3723  -12.9598 F   0  0  0  0  0  0  0  0  0  0  0  0
  -12.1473  -41.5041  -12.7131 F   0  0  0  0  0  0  0  0  0  0  0  0
  -13.0818  -40.4767  -14.5443 F   0  0  0  0  0  0  0  0  0  0  0  0
  1  2  1  0
  2  3  1  0
  3  4  1  0
  4  5  2  0
  5  6  1  0
  6  7  1  0
  7  8  1  0
  8  9  1  0
  9 10  1  0
 10 11  1  6
 10 12  1  0
 12 13  1  1
 13 14  1  0
 14 15  1  1
 14 16  1  0
 16 17  1  0
 17 18  1  0
 18 19  1  0
 19 20  1  0
 20 21  1  0
 21 22  1  0
 22 23  1  0
 23 24  1  0
 24 25  2  0
 24 26  1  0
 26 27  1  0
 26 28  1  0
 28 29  1  1
 28 30  1  0
 30 31  2  0
 30 32  1  0
  6 33  2  0
 33 34  1  0
 34 35  2  0
 33 36  1  0
 36 37  1  0
 36 38  1  0
 36 39  1  0
 32 12  1  0
 35  4  1  0
M  END
$$$$
