
     RDKit          3D

 39 40  0  0  0  0  0  0  0  0999 V2000
  -11.4345  -42.4640  -13.7210 C   0  0  0  0  0  0  0  0  0  0  0  0
  -12.5884  -41.7584  -13.0679 C   0  0  0  0  0  0  0  0  0  0  0  0
  -13.0108  -40.6019  -13.7478 O   0  0  0  0  0  0  0  0  0  0  0  0
  -13.4399  -39.4473  -13.1233 C   0  0  0  0  0  0  0  0  0  0  0  0
  -13.5389  -39.2884  -11.7682 C   0  0  0  0  0  0  0  0  0  0  0  0
  -13.9785  -38.1005  -11.1812 C   0  0  0  0  0  0  0  0  0  0  0  0
  -14.0916  -37.9117   -9.7351 C   0  0  0  0  0  0  0  0  0  0  0  0
  -13.9701  -39.1301   -8.9569 N   0  0  0  0  0  0  0  0  0  0  0  0
  -15.3303  -39.6163   -8.7476 C   0  0  0  0  0  0  0  0  0  0  0  0
  -16.1974  -38.6223   -8.0188 C   0  0  1  0  0  0  0  0  0  0  0  0
  -16.1540  -37.4349   -8.6984 O   0  0  0  0  0  0  0  0  0  0  0  0
  -17.6441  -39.0971   -7.9238 C   0  0  2  0  0  0  0  0  0  0  0  0
  -18.5249  -38.0215   -7.3447 C   0  0  0  0  0  0  0  0  0  0  0  0
  -19.9787  -38.1835   -7.6892 C   0  0  2  0  0  0  0  0  0  0  0  0
  -20.6282  -36.7997   -7.8041 C   0  0  0  0  0  0  0  0  0  0  0  0
  -20.7127  -39.0130   -6.6515 C   0  0  0  0  0  0  0  0  0  0  0  0
  -21.9870  -39.5798   -7.2006 C   0  0  0  0  0  0  0  0  0  0  0  0
  -22.7950  -40.3041   -6.1627 C   0  0  0  0  0  0  0  0  0  0  0  0
  -22.1025  -41.4635   -5.5466 C   0  0  0  0  0  0  0  0  0  0  0  0
  -22.5630  -42.8171   -6.1155 C   0  0  0  0  0  0  0  0  0  0  0  0
  -21.5464  -43.8184   -5.6161 C   0  0  0  0  0  0  0  0  0  0  0  0
  -21.3756  -45.0235   -6.4478 C   0  0  0  0  0  0  0  0  0  0  0  0
  -20.3438  -44.9580   -7.5409 C   0  0  0  0  0  0  0  0  0  0  0  0
  -18.9913  -44.5932   -7.0855 C   0  0  0  0  0  0  0  0  0  0  0  0
  -18.6957  -45.0659   -5.9199 O   0  0  0  0  0  0  0  0  0  0  0  0
  -18.0040  -43.8246   -7.7276 N   0  0  0  0  0  0  0  0  0  0  0  0
  -16.6730  -44.4291   -7.9774 C   0  0  0  0  0  0  0  0  0  0  0  0
  -18.1180  -42.4421   -8.1801 C   0  0  1  0  0  0  0  0  0  0  0  0
  -19.5176  -42.0349   -8.4609 C   0  0  0  0  0  0  0  0  0  0  0  0
  -17.4314  -41.5555   -7.2227 C   0  0  0  0  0  0  0  0  0  0  0  0
  -16.5270  -42.1179   -6.4912 O   0  0  0  0  0  0  0  0  0  0  0  0
  -17.6200  -40.2020   -6.9956 N   0  0  0  0  0  0  0  0  0  0  0  0
  -14.3152  -37.0755  -12.0326 C   0  0  0  0  0  0  0  0  0  0  0  0
  -14.2222  -37.2152  -13.4154 C   0  0  0  0  0  0  0  0  0  0  0  0
  -13.7875  -38.3932  -13.9570 C   0  0  0  0  0  0  0  0  0  0  0  0
  -14.7873  -35.7900  -11.4847 C   0  0  0  0  0  0  0  0  0  0  0  0
  -15.6952  -36.0247  -10.4448 F   0  0  0  0  0  0  0  0  0  0  0  0
  -15.4388  -35.0045  -12.3960 F   0  0  0  0  0  0  0  0  0  0  0  0
  -13.7061  -35.1565  -10.8936 F   0  0  0  0  0  0  0  0  0  0  0  0
  1  2  1  0
  2  3  1  0
  3  4  1  0
  4  5  2  0
  5  6  1  0
  6  7  1  0
  7  8  1  0
  8  9  1  0
  9 10  1  0
 10 11  1  6
 10 12  1  0
 12 13  1  1
 13 14  1  0
 14 15  1  1
 14 16  1  0
 16 17  1  0
 17 18  1  0
 18 19  1  0
 19 20  1  0
 20 21  1  0
 21 22  1  0
 22 23  1  0
 23 24  1  0
 24 25  2  0
 24 26  1  0
 26 27  1  0
 26 28  1  0
 28 29  1  1
 28 30  1  0
 30 31  2  0
 30 32  1  0
  6 33  2  0
 33 34  1  0
 34 35  2  0
 33 36  1  0
 36 37  1  0
 36 38  1  0
 36 39  1  0
 32 12  1  0
 35  4  1  0
M  END
$$$$
