
     RDKit          3D

 39 40  0  0  0  0  0  0  0  0999 V2000
  -20.1181  -36.5170  -13.1218 C   0  0  0  0  0  0  0  0  0  0  0  0
  -18.8295  -36.5717  -12.3522 C   0  0  0  0  0  0  0  0  0  0  0  0
  -17.6909  -36.2692  -13.1204 O   0  0  0  0  0  0  0  0  0  0  0  0
  -16.3953  -36.3316  -12.6462 C   0  0  0  0  0  0  0  0  0  0  0  0
  -16.0569  -36.4746  -11.3286 C   0  0  0  0  0  0  0  0  0  0  0  0
  -14.7310  -36.5330  -10.8955 C   0  0  0  0  0  0  0  0  0  0  0  0
  -14.3494  -36.6848   -9.4915 C   0  0  0  0  0  0  0  0  0  0  0  0
  -14.3295  -38.0557   -9.0173 N   0  0  0  0  0  0  0  0  0  0  0  0
  -15.6215  -38.2834   -8.3774 C   0  0  0  0  0  0  0  0  0  0  0  0
  -16.2284  -39.6117   -8.7493 C   0  0  1  0  0  0  0  0  0  0  0  0
  -15.6110  -40.5871   -8.0138 O   0  0  0  0  0  0  0  0  0  0  0  0
  -17.7285  -39.6447   -8.4736 C   0  0  2  0  0  0  0  0  0  0  0  0
  -18.2428  -38.2697   -8.1378 C   0  0  0  0  0  0  0  0  0  0  0  0
  -19.7196  -38.1072   -8.3644 C   0  0  2  0  0  0  0  0  0  0  0  0
  -20.0101  -36.6626   -8.7870 C   0  0  0  0  0  0  0  0  0  0  0  0
  -20.5197  -38.4517   -7.1215 C   0  0  0  0  0  0  0  0  0  0  0  0
  -21.9476  -38.7627   -7.4546 C   0  0  0  0  0  0  0  0  0  0  0  0
  -22.7926  -38.9887   -6.2341 C   0  0  0  0  0  0  0  0  0  0  0  0
  -22.3495  -40.1217   -5.3836 C   0  0  0  0  0  0  0  0  0  0  0  0
  -23.1939  -41.3932   -5.5792 C   0  0  0  0  0  0  0  0  0  0  0  0
  -22.4122  -42.4919   -4.8958 C   0  0  0  0  0  0  0  0  0  0  0  0
  -22.6409  -43.8538   -5.4115 C   0  0  0  0  0  0  0  0  0  0  0  0
  -21.7518  -44.3174   -6.5332 C   0  0  0  0  0  0  0  0  0  0  0  0
  -20.3096  -44.2376   -6.2446 C   0  0  0  0  0  0  0  0  0  0  0  0
  -20.0159  -44.4968   -5.0134 O   0  0  0  0  0  0  0  0  0  0  0  0
  -19.2377  -43.9291   -7.1013 N   0  0  0  0  0  0  0  0  0  0  0  0
  -18.1363  -44.9101   -7.2552 C   0  0  0  0  0  0  0  0  0  0  0  0
  -19.0505  -42.7063   -7.8749 C   0  0  1  0  0  0  0  0  0  0  0  0
  -20.3256  -42.0112   -8.1827 C   0  0  0  0  0  0  0  0  0  0  0  0
  -18.0630  -41.8452   -7.1984 C   0  0  0  0  0  0  0  0  0  0  0  0
  -17.2539  -42.4505   -6.3932 O   0  0  0  0  0  0  0  0  0  0  0  0
  -17.8805  -40.4761   -7.3037 N   0  0  0  0  0  0  0  0  0  0  0  0
  -13.7583  -36.4396  -11.8619 C   0  0  0  0  0  0  0  0  0  0  0  0
  -14.0799  -36.2937  -13.2092 C   0  0  0  0  0  0  0  0  0  0  0  0
  -15.3896  -36.2400  -13.5988 C   0  0  0  0  0  0  0  0  0  0  0  0
  -12.3347  -36.4944  -11.4795 C   0  0  0  0  0  0  0  0  0  0  0  0
  -11.5368  -36.5103  -12.6301 F   0  0  0  0  0  0  0  0  0  0  0  0
  -11.9962  -37.6075  -10.7596 F   0  0  0  0  0  0  0  0  0  0  0  0
  -12.0223  -35.3105  -10.8311 F   0  0  0  0  0  0  0  0  0  0  0  0
  1  2  1  0
  2  3  1  0
  3  4  1  0
  4  5  2  0
  5  6  1  0
  6  7  1  0
  7  8  1  0
  8  9  1  0
  9 10  1  0
 10 11  1  1
 10 12  1  0
 12 13  1  1
 13 14  1  0
 14 15  1  1
 14 16  1  0
 16 17  1  0
 17 18  1  0
 18 19  1  0
 19 20  1  0
 20 21  1  0
 21 22  1  0
 22 23  1  0
 23 24  1  0
 24 25  2  0
 24 26  1  0
 26 27  1  0
 26 28  1  0
 28 29  1  1
 28 30  1  0
 30 31  2  0
 30 32  1  0
  6 33  2  0
 33 34  1  0
 34 35  2  0
 33 36  1  0
 36 37  1  0
 36 38  1  0
 36 39  1  0
 32 12  1  0
 35  4  1  0
M  END
$$$$
