
     RDKit          3D

 39 40  0  0  0  0  0  0  0  0999 V2000
  -10.2897  -44.0198   -7.3485 C   0  0  0  0  0  0  0  0  0  0  0  0
  -11.1703  -43.0241   -8.0478 C   0  0  0  0  0  0  0  0  0  0  0  0
  -10.4814  -42.1686   -8.9262 O   0  0  0  0  0  0  0  0  0  0  0  0
  -11.0672  -41.1190   -9.6063 C   0  0  0  0  0  0  0  0  0  0  0  0
  -12.3963  -40.8009   -9.5474 C   0  0  0  0  0  0  0  0  0  0  0  0
  -12.9443  -39.7287  -10.2537 C   0  0  0  0  0  0  0  0  0  0  0  0
  -14.3624  -39.3735  -10.2040 C   0  0  0  0  0  0  0  0  0  0  0  0
  -14.8539  -39.0390   -8.8807 N   0  0  0  0  0  0  0  0  0  0  0  0
  -16.2438  -39.4822   -8.8390 C   0  0  0  0  0  0  0  0  0  0  0  0
  -17.1035  -38.6179   -7.9530 C   0  0  1  0  0  0  0  0  0  0  0  0
  -17.1623  -37.3652   -8.5017 O   0  0  0  0  0  0  0  0  0  0  0  0
  -18.5166  -39.1766   -7.8175 C   0  0  2  0  0  0  0  0  0  0  0  0
  -19.3011  -38.4077   -6.7873 C   0  0  0  0  0  0  0  0  0  0  0  0
  -20.7901  -38.5254   -6.9532 C   0  0  2  0  0  0  0  0  0  0  0  0
  -21.4542  -37.2214   -6.4968 C   0  0  0  0  0  0  0  0  0  0  0  0
  -21.3524  -39.6940   -6.1644 C   0  0  0  0  0  0  0  0  0  0  0  0
  -22.6942  -40.1140   -6.6836 C   0  0  0  0  0  0  0  0  0  0  0  0
  -23.3299  -41.1877   -5.8483 C   0  0  0  0  0  0  0  0  0  0  0  0
  -22.5467  -42.4462   -5.7689 C   0  0  0  0  0  0  0  0  0  0  0  0
  -23.0849  -43.5545   -6.6908 C   0  0  0  0  0  0  0  0  0  0  0  0
  -22.0000  -44.6070   -6.7129 C   0  0  0  0  0  0  0  0  0  0  0  0
  -21.9554  -45.4526   -7.9195 C   0  0  0  0  0  0  0  0  0  0  0  0
  -21.1049  -44.9678   -9.0620 C   0  0  0  0  0  0  0  0  0  0  0  0
  -19.6996  -44.7020   -8.7096 C   0  0  0  0  0  0  0  0  0  0  0  0
  -19.2261  -45.5205   -7.8292 O   0  0  0  0  0  0  0  0  0  0  0  0
  -18.8258  -43.7091   -9.1879 N   0  0  0  0  0  0  0  0  0  0  0  0
  -17.5473  -44.1202   -9.8168 C   0  0  0  0  0  0  0  0  0  0  0  0
  -19.0130  -42.2636   -9.1228 C   0  0  1  0  0  0  0  0  0  0  0  0
  -20.4406  -41.8642   -9.0440 C   0  0  0  0  0  0  0  0  0  0  0  0
  -18.1899  -41.7120   -8.0308 C   0  0  0  0  0  0  0  0  0  0  0  0
  -17.1816  -42.4358   -7.6719 O   0  0  0  0  0  0  0  0  0  0  0  0
  -18.3458  -40.5254   -7.3332 N   0  0  0  0  0  0  0  0  0  0  0  0
  -12.0812  -38.9892  -11.0264 C   0  0  0  0  0  0  0  0  0  0  0  0
  -10.7244  -39.2950  -11.1013 C   0  0  0  0  0  0  0  0  0  0  0  0
  -10.2208  -40.3527  -10.3960 C   0  0  0  0  0  0  0  0  0  0  0  0
  -12.5881  -37.8405  -11.8005 C   0  0  0  0  0  0  0  0  0  0  0  0
  -13.0902  -38.2842  -13.0302 F   0  0  0  0  0  0  0  0  0  0  0  0
  -11.6353  -36.9019  -12.0886 F   0  0  0  0  0  0  0  0  0  0  0  0
  -13.6791  -37.3194  -11.1239 F   0  0  0  0  0  0  0  0  0  0  0  0
  1  2  1  0
  2  3  1  0
  3  4  1  0
  4  5  2  0
  5  6  1  0
  6  7  1  0
  7  8  1  0
  8  9  1  0
  9 10  1  0
 10 11  1  6
 10 12  1  0
 12 13  1  1
 13 14  1  0
 14 15  1  1
 14 16  1  0
 16 17  1  0
 17 18  1  0
 18 19  1  0
 19 20  1  0
 20 21  1  0
 21 22  1  0
 22 23  1  0
 23 24  1  0
 24 25  2  0
 24 26  1  0
 26 27  1  0
 26 28  1  0
 28 29  1  1
 28 30  1  0
 30 31  2  0
 30 32  1  0
  6 33  2  0
 33 34  1  0
 34 35  2  0
 33 36  1  0
 36 37  1  0
 36 38  1  0
 36 39  1  0
 32 12  1  0
 35  4  1  0
M  END
$$$$
