
     RDKit          3D

 39 40  0  0  0  0  0  0  0  0999 V2000
  -14.7304  -43.8577  -12.7612 C   0  0  0  0  0  0  0  0  0  0  0  0
  -13.3153  -43.3593  -12.6912 C   0  0  0  0  0  0  0  0  0  0  0  0
  -13.0918  -42.1689  -13.4061 O   0  0  0  0  0  0  0  0  0  0  0  0
  -12.8980  -40.9346  -12.8177 C   0  0  0  0  0  0  0  0  0  0  0  0
  -13.2449  -40.6246  -11.5313 C   0  0  0  0  0  0  0  0  0  0  0  0
  -13.0291  -39.3609  -10.9786 C   0  0  0  0  0  0  0  0  0  0  0  0
  -13.3936  -39.0104   -9.6060 C   0  0  0  0  0  0  0  0  0  0  0  0
  -14.7725  -38.5924   -9.4367 N   0  0  0  0  0  0  0  0  0  0  0  0
  -15.3951  -39.5868   -8.5685 C   0  0  0  0  0  0  0  0  0  0  0  0
  -16.2795  -38.9682   -7.5167 C   0  0  1  0  0  0  0  0  0  0  0  0
  -16.0817  -37.6138   -7.5315 O   0  0  0  0  0  0  0  0  0  0  0  0
  -17.7539  -39.2660   -7.7713 C   0  0  2  0  0  0  0  0  0  0  0  0
  -18.6227  -38.1430   -7.2693 C   0  0  0  0  0  0  0  0  0  0  0  0
  -19.9771  -38.0930   -7.9185 C   0  0  2  0  0  0  0  0  0  0  0  0
  -20.4400  -36.6346   -8.0105 C   0  0  0  0  0  0  0  0  0  0  0  0
  -20.9989  -38.9108   -7.1499 C   0  0  0  0  0  0  0  0  0  0  0  0
  -22.1768  -39.2658   -8.0061 C   0  0  0  0  0  0  0  0  0  0  0  0
  -23.2596  -39.9703   -7.2407 C   0  0  0  0  0  0  0  0  0  0  0  0
  -22.8395  -41.2553   -6.6277 C   0  0  0  0  0  0  0  0  0  0  0  0
  -23.3042  -42.4875   -7.4237 C   0  0  0  0  0  0  0  0  0  0  0  0
  -22.5279  -43.6463   -6.8409 C   0  0  0  0  0  0  0  0  0  0  0  0
  -22.3076  -44.7876   -7.7476 C   0  0  0  0  0  0  0  0  0  0  0  0
  -21.0637  -44.7573   -8.5934 C   0  0  0  0  0  0  0  0  0  0  0  0
  -19.8105  -44.6037   -7.8346 C   0  0  0  0  0  0  0  0  0  0  0  0
  -19.8231  -45.2076   -6.6925 O   0  0  0  0  0  0  0  0  0  0  0  0
  -18.6342  -43.9115   -8.1736 N   0  0  0  0  0  0  0  0  0  0  0  0
  -17.3504  -44.6529   -8.2117 C   0  0  0  0  0  0  0  0  0  0  0  0
  -18.5047  -42.4919   -8.4850 C   0  0  1  0  0  0  0  0  0  0  0  0
  -19.7613  -41.8914   -8.9987 C   0  0  0  0  0  0  0  0  0  0  0  0
  -17.9523  -41.7827   -7.3161 C   0  0  0  0  0  0  0  0  0  0  0  0
  -17.2896  -42.5137   -6.4821 O   0  0  0  0  0  0  0  0  0  0  0  0
  -18.0444  -40.4408   -6.9849 N   0  0  0  0  0  0  0  0  0  0  0  0
  -12.4431  -38.4204  -11.7915 C   0  0  0  0  0  0  0  0  0  0  0  0
  -12.0818  -38.7139  -13.1043 C   0  0  0  0  0  0  0  0  0  0  0  0
  -12.3077  -39.9627  -13.6139 C   0  0  0  0  0  0  0  0  0  0  0  0
  -12.1832  -37.0630  -11.2762 C   0  0  0  0  0  0  0  0  0  0  0  0
  -11.4928  -36.3164  -12.2389 F   0  0  0  0  0  0  0  0  0  0  0  0
  -11.4155  -37.0371  -10.1440 F   0  0  0  0  0  0  0  0  0  0  0  0
  -13.4036  -36.4255  -11.1215 F   0  0  0  0  0  0  0  0  0  0  0  0
  1  2  1  0
  2  3  1  0
  3  4  1  0
  4  5  2  0
  5  6  1  0
  6  7  1  0
  7  8  1  0
  8  9  1  0
  9 10  1  0
 10 11  1  6
 10 12  1  0
 12 13  1  1
 13 14  1  0
 14 15  1  1
 14 16  1  0
 16 17  1  0
 17 18  1  0
 18 19  1  0
 19 20  1  0
 20 21  1  0
 21 22  1  0
 22 23  1  0
 23 24  1  0
 24 25  2  0
 24 26  1  0
 26 27  1  0
 26 28  1  0
 28 29  1  1
 28 30  1  0
 30 31  2  0
 30 32  1  0
  6 33  2  0
 33 34  1  0
 34 35  2  0
 33 36  1  0
 36 37  1  0
 36 38  1  0
 36 39  1  0
 32 12  1  0
 35  4  1  0
M  END
$$$$
