
     RDKit          3D

 39 40  0  0  0  0  0  0  0  0999 V2000
  -19.7006  -36.4899  -13.9607 C   0  0  0  0  0  0  0  0  0  0  0  0
  -18.4089  -36.1103  -13.2949 C   0  0  0  0  0  0  0  0  0  0  0  0
  -17.7402  -37.1879  -12.6868 O   0  0  0  0  0  0  0  0  0  0  0  0
  -16.4643  -37.1143  -12.1638 C   0  0  0  0  0  0  0  0  0  0  0  0
  -16.0609  -37.7305  -11.0111 C   0  0  0  0  0  0  0  0  0  0  0  0
  -14.7580  -37.6274  -10.5202 C   0  0  0  0  0  0  0  0  0  0  0  0
  -14.3082  -38.2781   -9.2898 C   0  0  0  0  0  0  0  0  0  0  0  0
  -14.9728  -39.5334   -8.9943 N   0  0  0  0  0  0  0  0  0  0  0  0
  -15.4239  -39.4385   -7.6095 C   0  0  0  0  0  0  0  0  0  0  0  0
  -16.5658  -38.4706   -7.4349 C   0  0  1  0  0  0  0  0  0  0  0  0
  -16.5568  -37.6007   -8.4917 O   0  0  0  0  0  0  0  0  0  0  0  0
  -17.9114  -39.1874   -7.3823 C   0  0  2  0  0  0  0  0  0  0  0  0
  -18.7634  -38.6481   -6.2637 C   0  0  0  0  0  0  0  0  0  0  0  0
  -20.2332  -38.8983   -6.4518 C   0  0  2  0  0  0  0  0  0  0  0  0
  -21.0262  -37.7430   -5.8304 C   0  0  0  0  0  0  0  0  0  0  0  0
  -20.6634  -40.2133   -5.8279 C   0  0  0  0  0  0  0  0  0  0  0  0
  -21.9583  -40.6993   -6.4056 C   0  0  0  0  0  0  0  0  0  0  0  0
  -22.4711  -41.9347   -5.7233 C   0  0  0  0  0  0  0  0  0  0  0  0
  -21.5599  -43.1035   -5.8070 C   0  0  0  0  0  0  0  0  0  0  0  0
  -21.9869  -44.1304   -6.8705 C   0  0  0  0  0  0  0  0  0  0  0  0
  -20.7981  -45.0512   -7.0259 C   0  0  0  0  0  0  0  0  0  0  0  0
  -20.6755  -45.7204   -8.3337 C   0  0  0  0  0  0  0  0  0  0  0  0
  -19.8901  -45.0021   -9.3972 C   0  0  0  0  0  0  0  0  0  0  0  0
  -18.5173  -44.6395   -9.0050 C   0  0  0  0  0  0  0  0  0  0  0  0
  -17.9533  -45.5131   -8.2381 O   0  0  0  0  0  0  0  0  0  0  0  0
  -17.7564  -43.5060   -9.3427 N   0  0  0  0  0  0  0  0  0  0  0  0
  -16.4472  -43.6939  -10.0136 C   0  0  0  0  0  0  0  0  0  0  0  0
  -18.0932  -42.1094   -9.0877 C   0  0  1  0  0  0  0  0  0  0  0  0
  -19.5540  -41.8759   -8.9646 C   0  0  0  0  0  0  0  0  0  0  0  0
  -17.3231  -41.6240   -7.9278 C   0  0  0  0  0  0  0  0  0  0  0  0
  -16.2416  -42.2792   -7.6625 O   0  0  0  0  0  0  0  0  0  0  0  0
  -17.5964  -40.5631   -7.0800 N   0  0  0  0  0  0  0  0  0  0  0  0
  -13.8775  -36.8681  -11.2531 C   0  0  0  0  0  0  0  0  0  0  0  0
  -14.2664  -36.2318  -12.4295 C   0  0  0  0  0  0  0  0  0  0  0  0
  -15.5511  -36.3541  -12.8818 C   0  0  0  0  0  0  0  0  0  0  0  0
  -12.4833  -36.7142  -10.7967 C   0  0  0  0  0  0  0  0  0  0  0  0
  -12.2640  -37.5157   -9.6697 F   0  0  0  0  0  0  0  0  0  0  0  0
  -12.1572  -35.4367  -10.4313 F   0  0  0  0  0  0  0  0  0  0  0  0
  -11.6542  -37.2278  -11.7808 F   0  0  0  0  0  0  0  0  0  0  0  0
  1  2  1  0
  2  3  1  0
  3  4  1  0
  4  5  2  0
  5  6  1  0
  6  7  1  0
  7  8  1  0
  8  9  1  0
  9 10  1  0
 10 11  1  6
 10 12  1  0
 12 13  1  1
 13 14  1  0
 14 15  1  1
 14 16  1  0
 16 17  1  0
 17 18  1  0
 18 19  1  0
 19 20  1  0
 20 21  1  0
 21 22  1  0
 22 23  1  0
 23 24  1  0
 24 25  2  0
 24 26  1  0
 26 27  1  0
 26 28  1  0
 28 29  1  1
 28 30  1  0
 30 31  2  0
 30 32  1  0
  6 33  2  0
 33 34  1  0
 34 35  2  0
 33 36  1  0
 36 37  1  0
 36 38  1  0
 36 39  1  0
 32 12  1  0
 35  4  1  0
M  END
$$$$
