
     RDKit          3D

 39 40  0  0  0  0  0  0  0  0999 V2000
  -19.3791  -37.7435  -13.6362 C   0  0  0  0  0  0  0  0  0  0  0  0
  -18.9038  -37.1121  -12.3589 C   0  0  0  0  0  0  0  0  0  0  0  0
  -17.9734  -36.0741  -12.5454 O   0  0  0  0  0  0  0  0  0  0  0  0
  -16.6184  -36.1940  -12.3073 C   0  0  0  0  0  0  0  0  0  0  0  0
  -16.0323  -37.2551  -11.6735 C   0  0  0  0  0  0  0  0  0  0  0  0
  -14.6557  -37.3328  -11.4549 C   0  0  0  0  0  0  0  0  0  0  0  0
  -14.0109  -38.4584  -10.7788 C   0  0  0  0  0  0  0  0  0  0  0  0
  -14.3224  -38.5719   -9.3665 N   0  0  0  0  0  0  0  0  0  0  0  0
  -15.4987  -39.4313   -9.2773 C   0  0  0  0  0  0  0  0  0  0  0  0
  -15.9528  -39.6499   -7.8571 C   0  0  1  0  0  0  0  0  0  0  0  0
  -15.6755  -38.5183   -7.1385 O   0  0  0  0  0  0  0  0  0  0  0  0
  -17.4480  -39.9430   -7.7804 C   0  0  2  0  0  0  0  0  0  0  0  0
  -18.1826  -38.8129   -7.1087 C   0  0  0  0  0  0  0  0  0  0  0  0
  -19.6462  -38.7614   -7.4460 C   0  0  2  0  0  0  0  0  0  0  0  0
  -20.1140  -37.3017   -7.4452 C   0  0  0  0  0  0  0  0  0  0  0  0
  -20.4771  -39.5697   -6.4662 C   0  0  0  0  0  0  0  0  0  0  0  0
  -21.8149  -39.9253   -7.0411 C   0  0  0  0  0  0  0  0  0  0  0  0
  -22.7058  -40.6201   -6.0520 C   0  0  0  0  0  0  0  0  0  0  0  0
  -22.1652  -41.9028   -5.5363 C   0  0  0  0  0  0  0  0  0  0  0  0
  -22.7963  -43.1382   -6.2022 C   0  0  0  0  0  0  0  0  0  0  0  0
  -21.9144  -44.2965   -5.7948 C   0  0  0  0  0  0  0  0  0  0  0  0
  -21.9011  -45.4446   -6.7193 C   0  0  0  0  0  0  0  0  0  0  0  0
  -20.8726  -45.4254   -7.8172 C   0  0  0  0  0  0  0  0  0  0  0  0
  -19.4833  -45.2721   -7.3524 C   0  0  0  0  0  0  0  0  0  0  0  0
  -19.2471  -45.8684   -6.2307 O   0  0  0  0  0  0  0  0  0  0  0  0
  -18.4078  -44.5872   -7.9458 N   0  0  0  0  0  0  0  0  0  0  0  0
  -17.1656  -45.3344   -8.2586 C   0  0  0  0  0  0  0  0  0  0  0  0
  -18.3457  -43.1703   -8.2885 C   0  0  1  0  0  0  0  0  0  0  0  0
  -19.6827  -42.5679   -8.5190 C   0  0  0  0  0  0  0  0  0  0  0  0
  -17.5488  -42.4558   -7.2743 C   0  0  0  0  0  0  0  0  0  0  0  0
  -16.7215  -43.1841   -6.6001 O   0  0  0  0  0  0  0  0  0  0  0  0
  -17.5625  -41.1113   -6.9408 N   0  0  0  0  0  0  0  0  0  0  0  0
  -13.8953  -36.2820  -11.9093 C   0  0  0  0  0  0  0  0  0  0  0  0
  -14.4707  -35.1915  -12.5572 C   0  0  0  0  0  0  0  0  0  0  0  0
  -15.8231  -35.1478  -12.7548 C   0  0  0  0  0  0  0  0  0  0  0  0
  -12.4332  -36.2947  -11.7149 C   0  0  0  0  0  0  0  0  0  0  0  0
  -11.9414  -37.5906  -11.9138 F   0  0  0  0  0  0  0  0  0  0  0  0
  -12.0373  -35.9199  -10.4600 F   0  0  0  0  0  0  0  0  0  0  0  0
  -11.8638  -35.5268  -12.7178 F   0  0  0  0  0  0  0  0  0  0  0  0
  1  2  1  0
  2  3  1  0
  3  4  1  0
  4  5  2  0
  5  6  1  0
  6  7  1  0
  7  8  1  0
  8  9  1  0
  9 10  1  0
 10 11  1  1
 10 12  1  0
 12 13  1  1
 13 14  1  0
 14 15  1  1
 14 16  1  0
 16 17  1  0
 17 18  1  0
 18 19  1  0
 19 20  1  0
 20 21  1  0
 21 22  1  0
 22 23  1  0
 23 24  1  0
 24 25  2  0
 24 26  1  0
 26 27  1  0
 26 28  1  0
 28 29  1  1
 28 30  1  0
 30 31  2  0
 30 32  1  0
  6 33  2  0
 33 34  1  0
 34 35  2  0
 33 36  1  0
 36 37  1  0
 36 38  1  0
 36 39  1  0
 32 12  1  0
 35  4  1  0
M  END
$$$$
