
     RDKit          3D

 39 40  0  0  0  0  0  0  0  0999 V2000
   -9.3492  -36.1763  -10.6500 C   0  0  0  0  0  0  0  0  0  0  0  0
  -10.4596  -35.8216   -9.7028 C   0  0  0  0  0  0  0  0  0  0  0  0
  -11.5228  -35.1236  -10.3032 O   0  0  0  0  0  0  0  0  0  0  0  0
  -12.7595  -35.6756  -10.5736 C   0  0  0  0  0  0  0  0  0  0  0  0
  -13.1224  -36.9573  -10.2625 C   0  0  0  0  0  0  0  0  0  0  0  0
  -14.3863  -37.4725  -10.5560 C   0  0  0  0  0  0  0  0  0  0  0  0
  -14.7926  -38.8399  -10.2319 C   0  0  0  0  0  0  0  0  0  0  0  0
  -14.6373  -39.1997   -8.8351 N   0  0  0  0  0  0  0  0  0  0  0  0
  -15.8264  -38.7003   -8.1519 C   0  0  0  0  0  0  0  0  0  0  0  0
  -16.4472  -39.7269   -7.2398 C   0  0  1  0  0  0  0  0  0  0  0  0
  -16.1834  -39.3672   -5.9457 O   0  0  0  0  0  0  0  0  0  0  0  0
  -17.9567  -39.8217   -7.4400 C   0  0  2  0  0  0  0  0  0  0  0  0
  -18.6399  -38.5632   -6.9736 C   0  0  0  0  0  0  0  0  0  0  0  0
  -19.9944  -38.3500   -7.5888 C   0  0  2  0  0  0  0  0  0  0  0  0
  -20.2483  -36.8463   -7.7434 C   0  0  0  0  0  0  0  0  0  0  0  0
  -21.0957  -38.9757   -6.7526 C   0  0  0  0  0  0  0  0  0  0  0  0
  -22.3400  -39.1978   -7.5581 C   0  0  0  0  0  0  0  0  0  0  0  0
  -23.4858  -39.7029   -6.7294 C   0  0  0  0  0  0  0  0  0  0  0  0
  -23.2322  -41.0046   -6.0625 C   0  0  0  0  0  0  0  0  0  0  0  0
  -23.8935  -42.1934   -6.7817 C   0  0  0  0  0  0  0  0  0  0  0  0
  -23.2706  -43.4229   -6.1607 C   0  0  0  0  0  0  0  0  0  0  0  0
  -23.2450  -44.6254   -7.0130 C   0  0  0  0  0  0  0  0  0  0  0  0
  -22.0384  -44.8138   -7.8917 C   0  0  0  0  0  0  0  0  0  0  0  0
  -20.7515  -44.8060   -7.1750 C   0  0  0  0  0  0  0  0  0  0  0  0
  -20.8116  -45.3474   -6.0034 O   0  0  0  0  0  0  0  0  0  0  0  0
  -19.5007  -44.3065   -7.5799 N   0  0  0  0  0  0  0  0  0  0  0  0
  -18.3373  -45.2254   -7.6136 C   0  0  0  0  0  0  0  0  0  0  0  0
  -19.1814  -42.9364   -7.9671 C   0  0  1  0  0  0  0  0  0  0  0  0
  -20.3564  -42.1867   -8.4777 C   0  0  0  0  0  0  0  0  0  0  0  0
  -18.4951  -42.2596   -6.8511 C   0  0  0  0  0  0  0  0  0  0  0  0
  -17.9155  -43.0381   -5.9983 O   0  0  0  0  0  0  0  0  0  0  0  0
  -18.3847  -40.9043   -6.5870 N   0  0  0  0  0  0  0  0  0  0  0  0
  -15.2706  -36.6270  -11.1820 C   0  0  0  0  0  0  0  0  0  0  0  0
  -14.9225  -35.3184  -11.5081 C   0  0  0  0  0  0  0  0  0  0  0  0
  -13.6753  -34.8459  -11.2060 C   0  0  0  0  0  0  0  0  0  0  0  0
  -16.6251  -37.1013  -11.5227 C   0  0  0  0  0  0  0  0  0  0  0  0
  -16.5446  -38.0907  -12.5103 F   0  0  0  0  0  0  0  0  0  0  0  0
  -17.4457  -36.1258  -12.0195 F   0  0  0  0  0  0  0  0  0  0  0  0
  -17.1469  -37.7362  -10.4072 F   0  0  0  0  0  0  0  0  0  0  0  0
  1  2  1  0
  2  3  1  0
  3  4  1  0
  4  5  2  0
  5  6  1  0
  6  7  1  0
  7  8  1  0
  8  9  1  0
  9 10  1  0
 10 11  1  1
 10 12  1  0
 12 13  1  1
 13 14  1  0
 14 15  1  1
 14 16  1  0
 16 17  1  0
 17 18  1  0
 18 19  1  0
 19 20  1  0
 20 21  1  0
 21 22  1  0
 22 23  1  0
 23 24  1  0
 24 25  2  0
 24 26  1  0
 26 27  1  0
 26 28  1  0
 28 29  1  1
 28 30  1  0
 30 31  2  0
 30 32  1  0
  6 33  2  0
 33 34  1  0
 34 35  2  0
 33 36  1  0
 36 37  1  0
 36 38  1  0
 36 39  1  0
 32 12  1  0
 35  4  1  0
M  END
$$$$
