
     RDKit          3D

 39 40  0  0  0  0  0  0  0  0999 V2000
  -17.2085  -32.6428  -11.1235 C   0  0  0  0  0  0  0  0  0  0  0  0
  -16.4871  -33.9470  -10.9371 C   0  0  0  0  0  0  0  0  0  0  0  0
  -15.6769  -34.3136  -12.0267 O   0  0  0  0  0  0  0  0  0  0  0  0
  -14.8854  -35.4448  -12.0595 C   0  0  0  0  0  0  0  0  0  0  0  0
  -14.8609  -36.4040  -11.0846 C   0  0  0  0  0  0  0  0  0  0  0  0
  -14.0429  -37.5326  -11.1612 C   0  0  0  0  0  0  0  0  0  0  0  0
  -14.0024  -38.5683  -10.1290 C   0  0  0  0  0  0  0  0  0  0  0  0
  -15.1670  -39.4327  -10.0965 N   0  0  0  0  0  0  0  0  0  0  0  0
  -15.4820  -39.6378   -8.6862 C   0  0  0  0  0  0  0  0  0  0  0  0
  -16.4785  -38.6366   -8.1613 C   0  0  1  0  0  0  0  0  0  0  0  0
  -16.5056  -37.5685   -9.0169 O   0  0  0  0  0  0  0  0  0  0  0  0
  -17.8781  -39.2343   -8.0553 C   0  0  2  0  0  0  0  0  0  0  0  0
  -18.7949  -38.3206   -7.2854 C   0  0  0  0  0  0  0  0  0  0  0  0
  -20.2525  -38.5508   -7.5701 C   0  0  2  0  0  0  0  0  0  0  0  0
  -21.0059  -37.2207   -7.4561 C   0  0  0  0  0  0  0  0  0  0  0  0
  -20.8564  -39.5686   -6.6199 C   0  0  0  0  0  0  0  0  0  0  0  0
  -22.1193  -40.1567   -7.1729 C   0  0  0  0  0  0  0  0  0  0  0  0
  -22.8044  -41.0765   -6.2038 C   0  0  0  0  0  0  0  0  0  0  0  0
  -21.9920  -42.2491   -5.7934 C   0  0  0  0  0  0  0  0  0  0  0  0
  -22.3895  -43.5463   -6.5194 C   0  0  0  0  0  0  0  0  0  0  0  0
  -21.2734  -44.5209   -6.2199 C   0  0  0  0  0  0  0  0  0  0  0  0
  -21.0701  -45.5854   -7.2192 C   0  0  0  0  0  0  0  0  0  0  0  0
  -20.1184  -45.2909   -8.3466 C   0  0  0  0  0  0  0  0  0  0  0  0
  -18.7691  -44.8834   -7.9186 C   0  0  0  0  0  0  0  0  0  0  0  0
  -18.3657  -45.4835   -6.8478 O   0  0  0  0  0  0  0  0  0  0  0  0
  -17.8832  -43.9587   -8.4999 N   0  0  0  0  0  0  0  0  0  0  0  0
  -16.5311  -44.4153   -8.9028 C   0  0  0  0  0  0  0  0  0  0  0  0
  -18.1254  -42.5415   -8.7487 C   0  0  1  0  0  0  0  0  0  0  0  0
  -19.5659  -42.2137   -8.8941 C   0  0  0  0  0  0  0  0  0  0  0  0
  -17.4441  -41.7396   -7.7156 C   0  0  0  0  0  0  0  0  0  0  0  0
  -16.4564  -42.3211   -7.1195 O   0  0  0  0  0  0  0  0  0  0  0  0
  -17.7147  -40.4486   -7.2926 N   0  0  0  0  0  0  0  0  0  0  0  0
  -13.2465  -37.6468  -12.2755 C   0  0  0  0  0  0  0  0  0  0  0  0
  -13.2552  -36.6824  -13.2805 C   0  0  0  0  0  0  0  0  0  0  0  0
  -14.0691  -35.5888  -13.1732 C   0  0  0  0  0  0  0  0  0  0  0  0
  -12.3562  -38.8131  -12.4262 C   0  0  0  0  0  0  0  0  0  0  0  0
  -12.3469  -39.5567  -11.2397 F   0  0  0  0  0  0  0  0  0  0  0  0
  -11.0535  -38.4865  -12.6873 F   0  0  0  0  0  0  0  0  0  0  0  0
  -12.9098  -39.6506  -13.3811 F   0  0  0  0  0  0  0  0  0  0  0  0
  1  2  1  0
  2  3  1  0
  3  4  1  0
  4  5  2  0
  5  6  1  0
  6  7  1  0
  7  8  1  0
  8  9  1  0
  9 10  1  0
 10 11  1  6
 10 12  1  0
 12 13  1  1
 13 14  1  0
 14 15  1  1
 14 16  1  0
 16 17  1  0
 17 18  1  0
 18 19  1  0
 19 20  1  0
 20 21  1  0
 21 22  1  0
 22 23  1  0
 23 24  1  0
 24 25  2  0
 24 26  1  0
 26 27  1  0
 26 28  1  0
 28 29  1  1
 28 30  1  0
 30 31  2  0
 30 32  1  0
  6 33  2  0
 33 34  1  0
 34 35  2  0
 33 36  1  0
 36 37  1  0
 36 38  1  0
 36 39  1  0
 32 12  1  0
 35  4  1  0
M  END
$$$$
