
     RDKit          3D

 39 40  0  0  0  0  0  0  0  0999 V2000
   -9.9111  -38.9140  -11.3240 C   0  0  0  0  0  0  0  0  0  0  0  0
  -10.9335  -38.7413  -12.4107 C   0  0  0  0  0  0  0  0  0  0  0  0
  -11.2172  -37.3993  -12.7214 O   0  0  0  0  0  0  0  0  0  0  0  0
  -12.3365  -36.7205  -12.2815 C   0  0  0  0  0  0  0  0  0  0  0  0
  -13.2665  -37.2331  -11.4192 C   0  0  0  0  0  0  0  0  0  0  0  0
  -14.3841  -36.5082  -11.0017 C   0  0  0  0  0  0  0  0  0  0  0  0
  -15.3893  -37.0393  -10.0812 C   0  0  0  0  0  0  0  0  0  0  0  0
  -15.1496  -38.4030   -9.6484 N   0  0  0  0  0  0  0  0  0  0  0  0
  -16.3907  -38.8572   -9.0289 C   0  0  0  0  0  0  0  0  0  0  0  0
  -17.4738  -39.1415  -10.0374 C   0  0  1  0  0  0  0  0  0  0  0  0
  -17.0459  -40.1536  -10.8536 O   0  0  0  0  0  0  0  0  0  0  0  0
  -18.7792  -39.5535   -9.3639 C   0  0  2  0  0  0  0  0  0  0  0  0
  -19.6263  -38.3479   -9.0526 C   0  0  0  0  0  0  0  0  0  0  0  0
  -21.0861  -38.6641   -8.8872 C   0  0  2  0  0  0  0  0  0  0  0  0
  -21.9195  -37.4713   -9.3694 C   0  0  0  0  0  0  0  0  0  0  0  0
  -21.4313  -38.9846   -7.4443 C   0  0  0  0  0  0  0  0  0  0  0  0
  -22.7152  -39.7513   -7.3425 C   0  0  0  0  0  0  0  0  0  0  0  0
  -23.1452  -39.9775   -5.9218 C   0  0  0  0  0  0  0  0  0  0  0  0
  -22.1783  -40.7533   -5.1053 C   0  0  0  0  0  0  0  0  0  0  0  0
  -22.5816  -42.2274   -4.9259 C   0  0  0  0  0  0  0  0  0  0  0  0
  -21.3521  -42.9047   -4.3645 C   0  0  0  0  0  0  0  0  0  0  0  0
  -21.2318  -44.3463   -4.6481 C   0  0  0  0  0  0  0  0  0  0  0  0
  -20.5138  -44.7360   -5.9115 C   0  0  0  0  0  0  0  0  0  0  0  0
  -19.1510  -44.1906   -6.0346 C   0  0  0  0  0  0  0  0  0  0  0  0
  -18.5222  -44.1175   -4.9083 O   0  0  0  0  0  0  0  0  0  0  0  0
  -18.4584  -43.7529   -7.1777 N   0  0  0  0  0  0  0  0  0  0  0  0
  -17.1604  -44.3850   -7.5168 C   0  0  0  0  0  0  0  0  0  0  0  0
  -18.8588  -42.6965   -8.1011 C   0  0  1  0  0  0  0  0  0  0  0  0
  -20.3257  -42.4698   -8.1257 C   0  0  0  0  0  0  0  0  0  0  0  0
  -18.0827  -41.4759   -7.8148 C   0  0  0  0  0  0  0  0  0  0  0  0
  -16.9623  -41.6591   -7.1981 O   0  0  0  0  0  0  0  0  0  0  0  0
  -18.3862  -40.1577   -8.1135 N   0  0  0  0  0  0  0  0  0  0  0  0
  -14.5183  -35.2342  -11.4993 C   0  0  0  0  0  0  0  0  0  0  0  0
  -13.5837  -34.6920  -12.3783 C   0  0  0  0  0  0  0  0  0  0  0  0
  -12.5001  -35.4302  -12.7668 C   0  0  0  0  0  0  0  0  0  0  0  0
  -15.6737  -34.4079  -11.1020 C   0  0  0  0  0  0  0  0  0  0  0  0
  -15.8606  -33.3785  -12.0328 F   0  0  0  0  0  0  0  0  0  0  0  0
  -15.5309  -33.8043   -9.8825 F   0  0  0  0  0  0  0  0  0  0  0  0
  -16.8105  -35.1951  -11.1905 F   0  0  0  0  0  0  0  0  0  0  0  0
  1  2  1  0
  2  3  1  0
  3  4  1  0
  4  5  2  0
  5  6  1  0
  6  7  1  0
  7  8  1  0
  8  9  1  0
  9 10  1  0
 10 11  1  6
 10 12  1  0
 12 13  1  1
 13 14  1  0
 14 15  1  1
 14 16  1  0
 16 17  1  0
 17 18  1  0
 18 19  1  0
 19 20  1  0
 20 21  1  0
 21 22  1  0
 22 23  1  0
 23 24  1  0
 24 25  2  0
 24 26  1  0
 26 27  1  0
 26 28  1  0
 28 29  1  1
 28 30  1  0
 30 31  2  0
 30 32  1  0
  6 33  2  0
 33 34  1  0
 34 35  2  0
 33 36  1  0
 36 37  1  0
 36 38  1  0
 36 39  1  0
 32 12  1  0
 35  4  1  0
M  END
$$$$
