
     RDKit          3D

 39 40  0  0  0  0  0  0  0  0999 V2000
  -15.5737  -38.4073  -16.1798 C   0  0  0  0  0  0  0  0  0  0  0  0
  -16.5077  -37.5007  -15.4304 C   0  0  0  0  0  0  0  0  0  0  0  0
  -16.4145  -37.6128  -14.0315 O   0  0  0  0  0  0  0  0  0  0  0  0
  -15.3149  -37.2221  -13.2930 C   0  0  0  0  0  0  0  0  0  0  0  0
  -14.9908  -37.7195  -12.0606 C   0  0  0  0  0  0  0  0  0  0  0  0
  -13.8671  -37.2935  -11.3502 C   0  0  0  0  0  0  0  0  0  0  0  0
  -13.5046  -37.8129  -10.0316 C   0  0  0  0  0  0  0  0  0  0  0  0
  -14.1891  -39.0357   -9.6564 N   0  0  0  0  0  0  0  0  0  0  0  0
  -15.5390  -38.6423   -9.2647 C   0  0  0  0  0  0  0  0  0  0  0  0
  -15.8995  -39.1043   -7.8764 C   0  0  1  0  0  0  0  0  0  0  0  0
  -15.5161  -38.1359   -6.9882 O   0  0  0  0  0  0  0  0  0  0  0  0
  -17.3978  -39.3545   -7.7351 C   0  0  2  0  0  0  0  0  0  0  0  0
  -18.0824  -38.1704   -7.1048 C   0  0  0  0  0  0  0  0  0  0  0  0
  -19.5549  -38.1003   -7.3970 C   0  0  2  0  0  0  0  0  0  0  0  0
  -19.9877  -36.6313   -7.4634 C   0  0  0  0  0  0  0  0  0  0  0  0
  -20.3713  -38.8314   -6.3469 C   0  0  0  0  0  0  0  0  0  0  0  0
  -21.7357  -39.1841   -6.8573 C   0  0  0  0  0  0  0  0  0  0  0  0
  -22.6090  -39.7998   -5.8024 C   0  0  0  0  0  0  0  0  0  0  0  0
  -22.0820  -41.0653   -5.2330 C   0  0  0  0  0  0  0  0  0  0  0  0
  -22.7642  -42.3192   -5.8074 C   0  0  0  0  0  0  0  0  0  0  0  0
  -21.8968  -43.4752   -5.3641 C   0  0  0  0  0  0  0  0  0  0  0  0
  -21.9419  -44.6730   -6.2223 C   0  0  0  0  0  0  0  0  0  0  0  0
  -20.9508  -44.7411   -7.3521 C   0  0  0  0  0  0  0  0  0  0  0  0
  -19.5433  -44.5978   -6.9418 C   0  0  0  0  0  0  0  0  0  0  0  0
  -19.2837  -45.1366   -5.7965 O   0  0  0  0  0  0  0  0  0  0  0  0
  -18.4725  -43.9746   -7.6073 N   0  0  0  0  0  0  0  0  0  0  0  0
  -17.2596  -44.7696   -7.9174 C   0  0  0  0  0  0  0  0  0  0  0  0
  -18.3884  -42.5810   -8.0311 C   0  0  1  0  0  0  0  0  0  0  0  0
  -19.7177  -41.9583   -8.2520 C   0  0  0  0  0  0  0  0  0  0  0  0
  -17.5411  -41.8318   -7.0851 C   0  0  0  0  0  0  0  0  0  0  0  0
  -16.7091  -42.5425   -6.3980 O   0  0  0  0  0  0  0  0  0  0  0  0
  -17.5116  -40.4710   -6.8277 N   0  0  0  0  0  0  0  0  0  0  0  0
  -13.0823  -36.3361  -11.9470 C   0  0  0  0  0  0  0  0  0  0  0  0
  -13.3932  -35.8156  -13.2010 C   0  0  0  0  0  0  0  0  0  0  0  0
  -14.5021  -36.2556  -13.8695 C   0  0  0  0  0  0  0  0  0  0  0  0
  -11.8779  -35.8379  -11.2565 C   0  0  0  0  0  0  0  0  0  0  0  0
  -11.1231  -36.9187  -10.7842 F   0  0  0  0  0  0  0  0  0  0  0  0
  -12.1470  -35.0509  -10.1702 F   0  0  0  0  0  0  0  0  0  0  0  0
  -11.0761  -35.2121  -12.1974 F   0  0  0  0  0  0  0  0  0  0  0  0
  1  2  1  0
  2  3  1  0
  3  4  1  0
  4  5  2  0
  5  6  1  0
  6  7  1  0
  7  8  1  0
  8  9  1  0
  9 10  1  0
 10 11  1  1
 10 12  1  0
 12 13  1  1
 13 14  1  0
 14 15  1  1
 14 16  1  0
 16 17  1  0
 17 18  1  0
 18 19  1  0
 19 20  1  0
 20 21  1  0
 21 22  1  0
 22 23  1  0
 23 24  1  0
 24 25  2  0
 24 26  1  0
 26 27  1  0
 26 28  1  0
 28 29  1  1
 28 30  1  0
 30 31  2  0
 30 32  1  0
  6 33  2  0
 33 34  1  0
 34 35  2  0
 33 36  1  0
 36 37  1  0
 36 38  1  0
 36 39  1  0
 32 12  1  0
 35  4  1  0
M  END
$$$$
