
     RDKit          3D

 39 40  0  0  0  0  0  0  0  0999 V2000
  -23.8421  -39.1001   -4.5403 C   0  0  0  0  0  0  0  0  0  0  0  0
  -22.6538  -39.3743   -5.4170 C   0  0  0  0  0  0  0  0  0  0  0  0
  -22.9615  -39.4639   -6.7865 O   0  0  0  0  0  0  0  0  0  0  0  0
  -22.1617  -38.9656   -7.7961 C   0  0  0  0  0  0  0  0  0  0  0  0
  -20.9786  -38.3086   -7.5967 C   0  0  0  0  0  0  0  0  0  0  0  0
  -20.2027  -37.8217   -8.6502 C   0  0  0  0  0  0  0  0  0  0  0  0
  -18.9358  -37.1164   -8.4570 C   0  0  0  0  0  0  0  0  0  0  0  0
  -18.0335  -37.7462   -7.5116 N   0  0  0  0  0  0  0  0  0  0  0  0
  -17.7135  -39.0576   -8.0666 C   0  0  0  0  0  0  0  0  0  0  0  0
  -16.8200  -39.8688   -7.1640 C   0  0  1  0  0  0  0  0  0  0  0  0
  -17.5877  -40.3961   -6.1609 O   0  0  0  0  0  0  0  0  0  0  0  0
  -16.1301  -41.0002   -7.9199 C   0  0  2  0  0  0  0  0  0  0  0  0
  -15.3310  -40.4629   -9.0778 C   0  0  0  0  0  0  0  0  0  0  0  0
  -14.2399  -41.3885   -9.5374 C   0  0  2  0  0  0  0  0  0  0  0  0
  -13.0617  -40.5598  -10.0618 C   0  0  0  0  0  0  0  0  0  0  0  0
  -14.7257  -42.3360  -10.6190 C   0  0  0  0  0  0  0  0  0  0  0  0
  -13.8403  -43.5398  -10.7349 C   0  0  0  0  0  0  0  0  0  0  0  0
  -14.2249  -44.4357  -11.8769 C   0  0  0  0  0  0  0  0  0  0  0  0
  -15.5999  -44.9876  -11.7861 C   0  0  0  0  0  0  0  0  0  0  0  0
  -15.6368  -46.4460  -11.2968 C   0  0  0  0  0  0  0  0  0  0  0  0
  -17.0881  -46.7126  -10.9684 C   0  0  0  0  0  0  0  0  0  0  0  0
  -17.3323  -47.7555   -9.9556 C   0  0  0  0  0  0  0  0  0  0  0  0
  -17.3903  -47.3120   -8.5191 C   0  0  0  0  0  0  0  0  0  0  0  0
  -18.3753  -46.2517   -8.2447 C   0  0  0  0  0  0  0  0  0  0  0  0
  -19.4512  -46.3529   -8.9530 O   0  0  0  0  0  0  0  0  0  0  0  0
  -18.3090  -45.1757   -7.3415 N   0  0  0  0  0  0  0  0  0  0  0  0
  -19.3632  -45.0403   -6.3074 C   0  0  0  0  0  0  0  0  0  0  0  0
  -17.3053  -44.1174   -7.3024 C   0  0  1  0  0  0  0  0  0  0  0  0
  -16.0075  -44.5235   -7.8977 C   0  0  0  0  0  0  0  0  0  0  0  0
  -17.8643  -42.8903   -7.8989 C   0  0  0  0  0  0  0  0  0  0  0  0
  -19.1539  -42.8118   -7.9078 O   0  0  0  0  0  0  0  0  0  0  0  0
  -17.2008  -41.8078   -8.4530 N   0  0  0  0  0  0  0  0  0  0  0  0
  -20.6815  -38.0311   -9.9213 C   0  0  0  0  0  0  0  0  0  0  0  0
  -21.8835  -38.6974  -10.1478 C   0  0  0  0  0  0  0  0  0  0  0  0
  -22.6186  -39.1615   -9.0922 C   0  0  0  0  0  0  0  0  0  0  0  0
  -19.9154  -37.5454  -11.0845 C   0  0  0  0  0  0  0  0  0  0  0  0
  -19.6557  -38.6096  -11.9568 F   0  0  0  0  0  0  0  0  0  0  0  0
  -18.7004  -37.0053  -10.7621 F   0  0  0  0  0  0  0  0  0  0  0  0
  -20.7266  -36.6761  -11.7956 F   0  0  0  0  0  0  0  0  0  0  0  0
  1  2  1  0
  2  3  1  0
  3  4  1  0
  4  5  2  0
  5  6  1  0
  6  7  1  0
  7  8  1  0
  8  9  1  0
  9 10  1  0
 10 11  1  1
 10 12  1  0
 12 13  1  6
 13 14  1  0
 14 15  1  6
 14 16  1  0
 16 17  1  0
 17 18  1  0
 18 19  1  0
 19 20  1  0
 20 21  1  0
 21 22  1  0
 22 23  1  0
 23 24  1  0
 24 25  2  0
 24 26  1  0
 26 27  1  0
 26 28  1  0
 28 29  1  6
 28 30  1  0
 30 31  2  0
 30 32  1  0
  6 33  2  0
 33 34  1  0
 34 35  2  0
 33 36  1  0
 36 37  1  0
 36 38  1  0
 36 39  1  0
 32 12  1  0
 35  4  1  0
M  END
$$$$
