
     RDKit          3D

 39 40  0  0  0  0  0  0  0  0999 V2000
   -9.8167  -36.4379  -11.1725 C   0  0  0  0  0  0  0  0  0  0  0  0
  -10.6636  -35.7313  -10.1529 C   0  0  0  0  0  0  0  0  0  0  0  0
  -11.6667  -34.9165  -10.7078 O   0  0  0  0  0  0  0  0  0  0  0  0
  -12.9111  -35.3726  -11.0958 C   0  0  0  0  0  0  0  0  0  0  0  0
  -13.4088  -36.6131  -10.8048 C   0  0  0  0  0  0  0  0  0  0  0  0
  -14.6748  -37.0309  -11.2190 C   0  0  0  0  0  0  0  0  0  0  0  0
  -15.2238  -38.3530  -10.9182 C   0  0  0  0  0  0  0  0  0  0  0  0
  -14.5474  -39.0566   -9.8450 N   0  0  0  0  0  0  0  0  0  0  0  0
  -15.5851  -39.7758   -9.1128 C   0  0  0  0  0  0  0  0  0  0  0  0
  -16.3205  -38.8978   -8.1334 C   0  0  1  0  0  0  0  0  0  0  0  0
  -16.3730  -37.6305   -8.6481 O   0  0  0  0  0  0  0  0  0  0  0  0
  -17.7389  -39.3989   -7.8794 C   0  0  2  0  0  0  0  0  0  0  0  0
  -18.4452  -38.5249   -6.8768 C   0  0  0  0  0  0  0  0  0  0  0  0
  -19.9437  -38.6086   -6.9551 C   0  0  2  0  0  0  0  0  0  0  0  0
  -20.5463  -37.2517   -6.5737 C   0  0  0  0  0  0  0  0  0  0  0  0
  -20.4941  -39.6913   -6.0449 C   0  0  0  0  0  0  0  0  0  0  0  0
  -21.8730  -40.1093   -6.4577 C   0  0  0  0  0  0  0  0  0  0  0  0
  -22.4916  -41.0914   -5.5051 C   0  0  0  0  0  0  0  0  0  0  0  0
  -21.7398  -42.3635   -5.3631 C   0  0  0  0  0  0  0  0  0  0  0  0
  -22.3571  -43.5250   -6.1617 C   0  0  0  0  0  0  0  0  0  0  0  0
  -21.3042  -44.6097   -6.1532 C   0  0  0  0  0  0  0  0  0  0  0  0
  -21.3481  -45.5508   -7.2870 C   0  0  0  0  0  0  0  0  0  0  0  0
  -20.5478  -45.1868   -8.5079 C   0  0  0  0  0  0  0  0  0  0  0  0
  -19.1187  -44.9380   -8.2518 C   0  0  0  0  0  0  0  0  0  0  0  0
  -18.6207  -45.6974   -7.3327 O   0  0  0  0  0  0  0  0  0  0  0  0
  -18.2454  -44.0151   -8.8546 N   0  0  0  0  0  0  0  0  0  0  0  0
  -17.0145  -44.5157   -9.5130 C   0  0  0  0  0  0  0  0  0  0  0  0
  -18.3892  -42.5638   -8.8990 C   0  0  1  0  0  0  0  0  0  0  0  0
  -19.7990  -42.1145   -8.7796 C   0  0  0  0  0  0  0  0  0  0  0  0
  -17.4935  -41.9522   -7.9001 C   0  0  0  0  0  0  0  0  0  0  0  0
  -16.4873  -42.6762   -7.5357 O   0  0  0  0  0  0  0  0  0  0  0  0
  -17.5790  -40.7089   -7.2954 N   0  0  0  0  0  0  0  0  0  0  0  0
  -15.4180  -36.1312  -11.9449 C   0  0  0  0  0  0  0  0  0  0  0  0
  -14.9313  -34.8629  -12.2528 C   0  0  0  0  0  0  0  0  0  0  0  0
  -13.6862  -34.4862  -11.8310 C   0  0  0  0  0  0  0  0  0  0  0  0
  -16.7657  -36.5019  -12.4160 C   0  0  0  0  0  0  0  0  0  0  0  0
  -17.3655  -35.4032  -13.0438 F   0  0  0  0  0  0  0  0  0  0  0  0
  -17.6164  -36.8869  -11.4160 F   0  0  0  0  0  0  0  0  0  0  0  0
  -16.6217  -37.4590  -13.4074 F   0  0  0  0  0  0  0  0  0  0  0  0
  1  2  1  0
  2  3  1  0
  3  4  1  0
  4  5  2  0
  5  6  1  0
  6  7  1  0
  7  8  1  0
  8  9  1  0
  9 10  1  0
 10 11  1  6
 10 12  1  0
 12 13  1  1
 13 14  1  0
 14 15  1  1
 14 16  1  0
 16 17  1  0
 17 18  1  0
 18 19  1  0
 19 20  1  0
 20 21  1  0
 21 22  1  0
 22 23  1  0
 23 24  1  0
 24 25  2  0
 24 26  1  0
 26 27  1  0
 26 28  1  0
 28 29  1  1
 28 30  1  0
 30 31  2  0
 30 32  1  0
  6 33  2  0
 33 34  1  0
 34 35  2  0
 33 36  1  0
 36 37  1  0
 36 38  1  0
 36 39  1  0
 32 12  1  0
 35  4  1  0
M  END
$$$$
