
     RDKit          3D

 39 40  0  0  0  0  0  0  0  0999 V2000
   -9.8271  -33.2530  -10.5173 C   0  0  0  0  0  0  0  0  0  0  0  0
  -11.0683  -33.7986  -11.1635 C   0  0  0  0  0  0  0  0  0  0  0  0
  -11.6398  -34.8857  -10.4781 O   0  0  0  0  0  0  0  0  0  0  0  0
  -12.7686  -35.5614  -10.8980 C   0  0  0  0  0  0  0  0  0  0  0  0
  -13.0295  -36.8776  -10.6321 C   0  0  0  0  0  0  0  0  0  0  0  0
  -14.1862  -37.5194  -11.0782 C   0  0  0  0  0  0  0  0  0  0  0  0
  -14.4823  -38.9256  -10.8046 C   0  0  0  0  0  0  0  0  0  0  0  0
  -14.6558  -39.2426   -9.3996 N   0  0  0  0  0  0  0  0  0  0  0  0
  -16.0924  -39.3951   -9.1916 C   0  0  0  0  0  0  0  0  0  0  0  0
  -16.4641  -39.4696   -7.7331 C   0  0  1  0  0  0  0  0  0  0  0  0
  -16.2423  -38.2417   -7.1701 O   0  0  0  0  0  0  0  0  0  0  0  0
  -17.9275  -39.8560   -7.5416 C   0  0  2  0  0  0  0  0  0  0  0  0
  -18.5782  -38.9913   -6.4943 C   0  0  0  0  0  0  0  0  0  0  0  0
  -20.0757  -38.9333   -6.6069 C   0  0  2  0  0  0  0  0  0  0  0  0
  -20.5644  -37.5562   -6.1436 C   0  0  0  0  0  0  0  0  0  0  0  0
  -20.7432  -40.0207   -5.7848 C   0  0  0  0  0  0  0  0  0  0  0  0
  -22.1431  -40.2830   -6.2519 C   0  0  0  0  0  0  0  0  0  0  0  0
  -22.8706  -41.2671   -5.3820 C   0  0  0  0  0  0  0  0  0  0  0  0
  -22.2391  -42.6088   -5.3144 C   0  0  0  0  0  0  0  0  0  0  0  0
  -22.9371  -43.6530   -6.2034 C   0  0  0  0  0  0  0  0  0  0  0  0
  -21.9856  -44.8267   -6.2503 C   0  0  0  0  0  0  0  0  0  0  0  0
  -22.0845  -45.6813   -7.4474 C   0  0  0  0  0  0  0  0  0  0  0  0
  -21.2244  -45.3097   -8.6246 C   0  0  0  0  0  0  0  0  0  0  0  0
  -19.7857  -45.2094   -8.3246 C   0  0  0  0  0  0  0  0  0  0  0  0
  -19.3808  -46.0711   -7.4512 O   0  0  0  0  0  0  0  0  0  0  0  0
  -18.8187  -44.3309   -8.8450 N   0  0  0  0  0  0  0  0  0  0  0  0
  -17.6210  -44.8954   -9.5129 C   0  0  0  0  0  0  0  0  0  0  0  0
  -18.8314  -42.8728   -8.7911 C   0  0  1  0  0  0  0  0  0  0  0  0
  -20.1981  -42.3066   -8.6677 C   0  0  0  0  0  0  0  0  0  0  0  0
  -17.9102  -42.4138   -7.7352 C   0  0  0  0  0  0  0  0  0  0  0  0
  -16.9821  -43.2490   -7.4028 O   0  0  0  0  0  0  0  0  0  0  0  0
  -17.8998  -41.2116   -7.0471 N   0  0  0  0  0  0  0  0  0  0  0  0
  -15.0715  -36.7643  -11.8095 C   0  0  0  0  0  0  0  0  0  0  0  0
  -14.8263  -35.4226  -12.0922 C   0  0  0  0  0  0  0  0  0  0  0  0
  -13.6826  -34.8253  -11.6395 C   0  0  0  0  0  0  0  0  0  0  0  0
  -16.3162  -37.3743  -12.3138 C   0  0  0  0  0  0  0  0  0  0  0  0
  -17.1638  -36.3765  -12.8105 F   0  0  0  0  0  0  0  0  0  0  0  0
  -17.0299  -38.0476  -11.3602 F   0  0  0  0  0  0  0  0  0  0  0  0
  -15.9922  -38.1603  -13.4078 F   0  0  0  0  0  0  0  0  0  0  0  0
  1  2  1  0
  2  3  1  0
  3  4  1  0
  4  5  2  0
  5  6  1  0
  6  7  1  0
  7  8  1  0
  8  9  1  0
  9 10  1  0
 10 11  1  6
 10 12  1  0
 12 13  1  1
 13 14  1  0
 14 15  1  1
 14 16  1  0
 16 17  1  0
 17 18  1  0
 18 19  1  0
 19 20  1  0
 20 21  1  0
 21 22  1  0
 22 23  1  0
 23 24  1  0
 24 25  2  0
 24 26  1  0
 26 27  1  0
 26 28  1  0
 28 29  1  1
 28 30  1  0
 30 31  2  0
 30 32  1  0
  6 33  2  0
 33 34  1  0
 34 35  2  0
 33 36  1  0
 36 37  1  0
 36 38  1  0
 36 39  1  0
 32 12  1  0
 35  4  1  0
M  END
$$$$
