
     RDKit          3D

 39 40  0  0  0  0  0  0  0  0999 V2000
  -24.1242  -41.7341   -3.8564 C   0  0  0  0  0  0  0  0  0  0  0  0
  -23.6452  -41.1314   -5.1461 C   0  0  0  0  0  0  0  0  0  0  0  0
  -22.4058  -40.4744   -5.0452 O   0  0  0  0  0  0  0  0  0  0  0  0
  -21.7594  -39.8692   -6.1050 C   0  0  0  0  0  0  0  0  0  0  0  0
  -20.4184  -39.6025   -6.1466 C   0  0  0  0  0  0  0  0  0  0  0  0
  -19.8081  -38.9879   -7.2415 C   0  0  0  0  0  0  0  0  0  0  0  0
  -18.3765  -38.6941   -7.3041 C   0  0  0  0  0  0  0  0  0  0  0  0
  -17.5409  -39.6027   -6.5420 N   0  0  0  0  0  0  0  0  0  0  0  0
  -16.3216  -39.7858   -7.3231 C   0  0  0  0  0  0  0  0  0  0  0  0
  -16.1704  -38.7578   -8.4146 C   0  0  1  0  0  0  0  0  0  0  0  0
  -15.8762  -37.5540   -7.8332 O   0  0  0  0  0  0  0  0  0  0  0  0
  -15.0606  -39.1309   -9.3927 C   0  0  2  0  0  0  0  0  0  0  0  0
  -14.7690  -37.9916  -10.3334 C   0  0  0  0  0  0  0  0  0  0  0  0
  -13.4009  -38.0565  -10.9518 C   0  0  2  0  0  0  0  0  0  0  0  0
  -12.8843  -36.6325  -11.1866 C   0  0  0  0  0  0  0  0  0  0  0  0
  -13.4124  -38.8234  -12.2616 C   0  0  0  0  0  0  0  0  0  0  0  0
  -12.0419  -39.3064  -12.6290 C   0  0  0  0  0  0  0  0  0  0  0  0
  -12.0001  -39.9631  -13.9786 C   0  0  0  0  0  0  0  0  0  0  0  0
  -12.8672  -41.1614  -14.1038 C   0  0  0  0  0  0  0  0  0  0  0  0
  -12.0903  -42.4856  -14.0000 C   0  0  0  0  0  0  0  0  0  0  0  0
  -13.1503  -43.5495  -13.8278 C   0  0  0  0  0  0  0  0  0  0  0  0
  -12.7199  -44.7716  -13.1247 C   0  0  0  0  0  0  0  0  0  0  0  0
  -12.8731  -44.7881  -11.6281 C   0  0  0  0  0  0  0  0  0  0  0  0
  -14.2385  -44.5128  -11.1490 C   0  0  0  0  0  0  0  0  0  0  0  0
  -15.1600  -44.9933  -11.9168 O   0  0  0  0  0  0  0  0  0  0  0  0
  -14.6656  -43.8203  -10.0019 N   0  0  0  0  0  0  0  0  0  0  0  0
  -15.5370  -44.5173   -9.0252 C   0  0  0  0  0  0  0  0  0  0  0  0
  -14.3668  -42.4377   -9.6438 C   0  0  1  0  0  0  0  0  0  0  0  0
  -13.1080  -41.9379  -10.2515 C   0  0  0  0  0  0  0  0  0  0  0  0
  -15.5368  -41.5911   -9.9414 C   0  0  0  0  0  0  0  0  0  0  0  0
  -16.6709  -42.2073   -9.9996 O   0  0  0  0  0  0  0  0  0  0  0  0
  -15.5918  -40.2258  -10.1687 N   0  0  0  0  0  0  0  0  0  0  0  0
  -20.6213  -38.6538   -8.2978 C   0  0  0  0  0  0  0  0  0  0  0  0
  -21.9891  -38.9159   -8.2771 C   0  0  0  0  0  0  0  0  0  0  0  0
  -22.5544  -39.5195   -7.1880 C   0  0  0  0  0  0  0  0  0  0  0  0
  -20.0470  -38.0022   -9.4900 C   0  0  0  0  0  0  0  0  0  0  0  0
  -19.2454  -38.9147  -10.1870 F   0  0  0  0  0  0  0  0  0  0  0  0
  -19.2499  -36.9274   -9.2048 F   0  0  0  0  0  0  0  0  0  0  0  0
  -21.0885  -37.6950  -10.3505 F   0  0  0  0  0  0  0  0  0  0  0  0
  1  2  1  0
  2  3  1  0
  3  4  1  0
  4  5  2  0
  5  6  1  0
  6  7  1  0
  7  8  1  0
  8  9  1  0
  9 10  1  0
 10 11  1  1
 10 12  1  0
 12 13  1  6
 13 14  1  0
 14 15  1  6
 14 16  1  0
 16 17  1  0
 17 18  1  0
 18 19  1  0
 19 20  1  0
 20 21  1  0
 21 22  1  0
 22 23  1  0
 23 24  1  0
 24 25  2  0
 24 26  1  0
 26 27  1  0
 26 28  1  0
 28 29  1  6
 28 30  1  0
 30 31  2  0
 30 32  1  0
  6 33  2  0
 33 34  1  0
 34 35  2  0
 33 36  1  0
 36 37  1  0
 36 38  1  0
 36 39  1  0
 32 12  1  0
 35  4  1  0
M  END
$$$$
