
     RDKit          3D

 39 40  0  0  0  0  0  0  0  0999 V2000
   -8.3125  -34.9309  -10.2408 C   0  0  0  0  0  0  0  0  0  0  0  0
   -9.7926  -34.9467  -10.4955 C   0  0  0  0  0  0  0  0  0  0  0  0
  -10.3167  -36.2278  -10.7451 O   0  0  0  0  0  0  0  0  0  0  0  0
  -11.6412  -36.4802  -11.0438 C   0  0  0  0  0  0  0  0  0  0  0  0
  -12.2526  -37.6949  -10.8962 C   0  0  0  0  0  0  0  0  0  0  0  0
  -13.5965  -37.9029  -11.2117 C   0  0  0  0  0  0  0  0  0  0  0  0
  -14.2674  -39.1940  -11.0613 C   0  0  0  0  0  0  0  0  0  0  0  0
  -14.4740  -39.6094   -9.6867 N   0  0  0  0  0  0  0  0  0  0  0  0
  -15.8429  -39.2319   -9.3492 C   0  0  0  0  0  0  0  0  0  0  0  0
  -16.2835  -39.7752   -8.0143 C   0  0  1  0  0  0  0  0  0  0  0  0
  -15.9330  -38.8729   -7.0465 O   0  0  0  0  0  0  0  0  0  0  0  0
  -17.7908  -40.0059   -7.9676 C   0  0  2  0  0  0  0  0  0  0  0  0
  -18.4631  -38.9843   -7.0888 C   0  0  0  0  0  0  0  0  0  0  0  0
  -19.9248  -38.8023   -7.3867 C   0  0  2  0  0  0  0  0  0  0  0  0
  -20.3193  -37.3468   -7.1117 C   0  0  0  0  0  0  0  0  0  0  0  0
  -20.7875  -39.7358   -6.5571 C   0  0  0  0  0  0  0  0  0  0  0  0
  -22.1457  -39.9161   -7.1649 C   0  0  0  0  0  0  0  0  0  0  0  0
  -23.0624  -40.7370   -6.3045 C   0  0  0  0  0  0  0  0  0  0  0  0
  -22.5825  -42.1167   -6.0407 C   0  0  0  0  0  0  0  0  0  0  0  0
  -23.2795  -43.1778   -6.9102 C   0  0  0  0  0  0  0  0  0  0  0  0
  -22.4533  -44.4317   -6.7359 C   0  0  0  0  0  0  0  0  0  0  0  0
  -22.5043  -45.3906   -7.8544 C   0  0  0  0  0  0  0  0  0  0  0  0
  -21.4845  -45.2196   -8.9473 C   0  0  0  0  0  0  0  0  0  0  0  0
  -20.0858  -45.2203   -8.4855 C   0  0  0  0  0  0  0  0  0  0  0  0
  -19.8710  -46.0224   -7.4956 O   0  0  0  0  0  0  0  0  0  0  0  0
  -18.9821  -44.4903   -8.9618 N   0  0  0  0  0  0  0  0  0  0  0  0
  -17.7811  -45.2258   -9.4263 C   0  0  0  0  0  0  0  0  0  0  0  0
  -18.8521  -43.0392   -9.0411 C   0  0  1  0  0  0  0  0  0  0  0  0
  -20.1591  -42.3418   -9.1355 C   0  0  0  0  0  0  0  0  0  0  0  0
  -18.0128  -42.5612   -7.9269 C   0  0  0  0  0  0  0  0  0  0  0  0
  -17.2178  -43.4392   -7.4109 O   0  0  0  0  0  0  0  0  0  0  0  0
  -17.9570  -41.3014   -7.3536 N   0  0  0  0  0  0  0  0  0  0  0  0
  -14.2970  -36.8198  -11.6858 C   0  0  0  0  0  0  0  0  0  0  0  0
  -13.6949  -35.5738  -11.8441 C   0  0  0  0  0  0  0  0  0  0  0  0
  -12.3758  -35.4051  -11.5252 C   0  0  0  0  0  0  0  0  0  0  0  0
  -15.7219  -36.9635  -12.0393 C   0  0  0  0  0  0  0  0  0  0  0  0
  -16.0437  -38.3208  -12.1610 F   0  0  0  0  0  0  0  0  0  0  0  0
  -16.0599  -36.3783  -13.2289 F   0  0  0  0  0  0  0  0  0  0  0  0
  -16.4740  -36.5011  -10.9715 F   0  0  0  0  0  0  0  0  0  0  0  0
  1  2  1  0
  2  3  1  0
  3  4  1  0
  4  5  2  0
  5  6  1  0
  6  7  1  0
  7  8  1  0
  8  9  1  0
  9 10  1  0
 10 11  1  1
 10 12  1  0
 12 13  1  1
 13 14  1  0
 14 15  1  1
 14 16  1  0
 16 17  1  0
 17 18  1  0
 18 19  1  0
 19 20  1  0
 20 21  1  0
 21 22  1  0
 22 23  1  0
 23 24  1  0
 24 25  2  0
 24 26  1  0
 26 27  1  0
 26 28  1  0
 28 29  1  1
 28 30  1  0
 30 31  2  0
 30 32  1  0
  6 33  2  0
 33 34  1  0
 34 35  2  0
 33 36  1  0
 36 37  1  0
 36 38  1  0
 36 39  1  0
 32 12  1  0
 35  4  1  0
M  END
$$$$
