
     RDKit          3D

 39 40  0  0  0  0  0  0  0  0999 V2000
  -12.5798  -42.5783  -15.3907 C   0  0  0  0  0  0  0  0  0  0  0  0
  -12.8785  -41.6989  -14.2102 C   0  0  0  0  0  0  0  0  0  0  0  0
  -12.9876  -40.3330  -14.5272 O   0  0  0  0  0  0  0  0  0  0  0  0
  -13.3576  -39.3540  -13.6262 C   0  0  0  0  0  0  0  0  0  0  0  0
  -13.6059  -39.5740  -12.2991 C   0  0  0  0  0  0  0  0  0  0  0  0
  -13.9779  -38.5513  -11.4248 C   0  0  0  0  0  0  0  0  0  0  0  0
  -14.2481  -38.7668  -10.0034 C   0  0  0  0  0  0  0  0  0  0  0  0
  -15.4013  -39.6032   -9.7292 N   0  0  0  0  0  0  0  0  0  0  0  0
  -15.6223  -39.5315   -8.2882 C   0  0  0  0  0  0  0  0  0  0  0  0
  -16.6906  -38.5372   -7.9125 C   0  0  1  0  0  0  0  0  0  0  0  0
  -16.6458  -37.5007   -8.8054 O   0  0  0  0  0  0  0  0  0  0  0  0
  -18.0808  -39.1650   -7.9368 C   0  0  2  0  0  0  0  0  0  0  0  0
  -19.0727  -38.3008   -7.2039 C   0  0  0  0  0  0  0  0  0  0  0  0
  -20.4993  -38.5465   -7.6075 C   0  0  2  0  0  0  0  0  0  0  0  0
  -21.2881  -37.2366   -7.4992 C   0  0  0  0  0  0  0  0  0  0  0  0
  -21.1508  -39.6134   -6.7466 C   0  0  0  0  0  0  0  0  0  0  0  0
  -22.3553  -40.2021   -7.4168 C   0  0  0  0  0  0  0  0  0  0  0  0
  -23.0912  -41.1733   -6.5394 C   0  0  0  0  0  0  0  0  0  0  0  0
  -22.2866  -42.3461   -6.1146 C   0  0  0  0  0  0  0  0  0  0  0  0
  -22.5999  -43.6199   -6.9190 C   0  0  0  0  0  0  0  0  0  0  0  0
  -21.4885  -44.5847   -6.5738 C   0  0  0  0  0  0  0  0  0  0  0  0
  -21.1874  -45.6037   -7.5956 C   0  0  0  0  0  0  0  0  0  0  0  0
  -20.1600  -45.2457   -8.6349 C   0  0  0  0  0  0  0  0  0  0  0  0
  -18.8561  -44.8307   -8.0897 C   0  0  0  0  0  0  0  0  0  0  0  0
  -18.5214  -45.4662   -7.0157 O   0  0  0  0  0  0  0  0  0  0  0  0
  -17.9493  -43.8666   -8.5652 N   0  0  0  0  0  0  0  0  0  0  0  0
  -16.5610  -44.2809   -8.8816 C   0  0  0  0  0  0  0  0  0  0  0  0
  -18.2030  -42.4453   -8.7760 C   0  0  1  0  0  0  0  0  0  0  0  0
  -19.6352  -42.1390   -9.0178 C   0  0  0  0  0  0  0  0  0  0  0  0
  -17.6191  -41.6735   -7.6635 C   0  0  0  0  0  0  0  0  0  0  0  0
  -16.6666  -42.2601   -7.0171 O   0  0  0  0  0  0  0  0  0  0  0  0
  -17.9489  -40.4061   -7.2121 N   0  0  0  0  0  0  0  0  0  0  0  0
  -14.0878  -37.2892  -11.9576 C   0  0  0  0  0  0  0  0  0  0  0  0
  -13.8398  -37.0422  -13.3058 C   0  0  0  0  0  0  0  0  0  0  0  0
  -13.4771  -38.0677  -14.1345 C   0  0  0  0  0  0  0  0  0  0  0  0
  -14.4760  -36.1581  -11.0941 C   0  0  0  0  0  0  0  0  0  0  0  0
  -13.3765  -35.7482  -10.3299 F   0  0  0  0  0  0  0  0  0  0  0  0
  -15.4740  -36.4549  -10.2065 F   0  0  0  0  0  0  0  0  0  0  0  0
  -14.7773  -35.0816  -11.9126 F   0  0  0  0  0  0  0  0  0  0  0  0
  1  2  1  0
  2  3  1  0
  3  4  1  0
  4  5  2  0
  5  6  1  0
  6  7  1  0
  7  8  1  0
  8  9  1  0
  9 10  1  0
 10 11  1  6
 10 12  1  0
 12 13  1  1
 13 14  1  0
 14 15  1  1
 14 16  1  0
 16 17  1  0
 17 18  1  0
 18 19  1  0
 19 20  1  0
 20 21  1  0
 21 22  1  0
 22 23  1  0
 23 24  1  0
 24 25  2  0
 24 26  1  0
 26 27  1  0
 26 28  1  0
 28 29  1  1
 28 30  1  0
 30 31  2  0
 30 32  1  0
  6 33  2  0
 33 34  1  0
 34 35  2  0
 33 36  1  0
 36 37  1  0
 36 38  1  0
 36 39  1  0
 32 12  1  0
 35  4  1  0
M  END
$$$$
