
     RDKit          3D

 39 40  0  0  0  0  0  0  0  0999 V2000
   -9.2226  -39.0453  -12.5731 C   0  0  0  0  0  0  0  0  0  0  0  0
   -9.4377  -38.0805  -11.4422 C   0  0  0  0  0  0  0  0  0  0  0  0
  -10.0983  -36.8970  -11.8176 O   0  0  0  0  0  0  0  0  0  0  0  0
  -11.4711  -36.7606  -11.8809 C   0  0  0  0  0  0  0  0  0  0  0  0
  -12.3650  -37.7366  -11.5352 C   0  0  0  0  0  0  0  0  0  0  0  0
  -13.7465  -37.5529  -11.6158 C   0  0  0  0  0  0  0  0  0  0  0  0
  -14.7177  -38.5843  -11.2515 C   0  0  0  0  0  0  0  0  0  0  0  0
  -14.7443  -38.9152   -9.8392 N   0  0  0  0  0  0  0  0  0  0  0  0
  -16.1398  -38.8129   -9.4238 C   0  0  0  0  0  0  0  0  0  0  0  0
  -16.3475  -39.2020   -7.9828 C   0  0  1  0  0  0  0  0  0  0  0  0
  -15.8502  -38.2017   -7.1918 O   0  0  0  0  0  0  0  0  0  0  0  0
  -17.8238  -39.4133   -7.6615 C   0  0  2  0  0  0  0  0  0  0  0  0
  -18.3618  -38.2740   -6.8366 C   0  0  0  0  0  0  0  0  0  0  0  0
  -19.8551  -38.1251   -6.9167 C   0  0  2  0  0  0  0  0  0  0  0  0
  -20.2230  -36.6427   -6.7870 C   0  0  0  0  0  0  0  0  0  0  0  0
  -20.5582  -38.9273   -5.8369 C   0  0  0  0  0  0  0  0  0  0  0  0
  -21.9935  -39.1812   -6.1862 C   0  0  0  0  0  0  0  0  0  0  0  0
  -22.7468  -39.8671   -5.0832 C   0  0  0  0  0  0  0  0  0  0  0  0
  -22.2091  -41.1996   -4.7108 C   0  0  0  0  0  0  0  0  0  0  0  0
  -23.0202  -42.3671   -5.3000 C   0  0  0  0  0  0  0  0  0  0  0  0
  -22.1572  -43.5901   -5.0885 C   0  0  0  0  0  0  0  0  0  0  0  0
  -22.3725  -44.6956   -6.0396 C   0  0  0  0  0  0  0  0  0  0  0  0
  -21.5448  -44.6865   -7.2959 C   0  0  0  0  0  0  0  0  0  0  0  0
  -20.0901  -44.6325   -7.0706 C   0  0  0  0  0  0  0  0  0  0  0  0
  -19.7062  -45.2896   -6.0265 O   0  0  0  0  0  0  0  0  0  0  0  0
  -19.0890  -43.9841   -7.8159 N   0  0  0  0  0  0  0  0  0  0  0  0
  -17.9671  -44.7859   -8.3613 C   0  0  0  0  0  0  0  0  0  0  0  0
  -18.9963  -42.5593   -8.1165 C   0  0  1  0  0  0  0  0  0  0  0  0
  -20.3123  -41.8728   -8.0946 C   0  0  0  0  0  0  0  0  0  0  0  0
  -17.9962  -41.9361   -7.2301 C   0  0  0  0  0  0  0  0  0  0  0  0
  -17.1148  -42.7388   -6.7321 O   0  0  0  0  0  0  0  0  0  0  0  0
  -17.8686  -40.6089   -6.8544 N   0  0  0  0  0  0  0  0  0  0  0  0
  -14.1843  -36.3298  -12.0645 C   0  0  0  0  0  0  0  0  0  0  0  0
  -13.2922  -35.3217  -12.4219 C   0  0  0  0  0  0  0  0  0  0  0  0
  -11.9446  -35.5356  -12.3307 C   0  0  0  0  0  0  0  0  0  0  0  0
  -15.6307  -36.0623  -12.1752 C   0  0  0  0  0  0  0  0  0  0  0  0
  -16.3507  -37.2228  -11.8659 F   0  0  0  0  0  0  0  0  0  0  0  0
  -16.0302  -35.6824  -13.4274 F   0  0  0  0  0  0  0  0  0  0  0  0
  -15.9703  -35.1456  -11.1935 F   0  0  0  0  0  0  0  0  0  0  0  0
  1  2  1  0
  2  3  1  0
  3  4  1  0
  4  5  2  0
  5  6  1  0
  6  7  1  0
  7  8  1  0
  8  9  1  0
  9 10  1  0
 10 11  1  1
 10 12  1  0
 12 13  1  1
 13 14  1  0
 14 15  1  1
 14 16  1  0
 16 17  1  0
 17 18  1  0
 18 19  1  0
 19 20  1  0
 20 21  1  0
 21 22  1  0
 22 23  1  0
 23 24  1  0
 24 25  2  0
 24 26  1  0
 26 27  1  0
 26 28  1  0
 28 29  1  1
 28 30  1  0
 30 31  2  0
 30 32  1  0
  6 33  2  0
 33 34  1  0
 34 35  2  0
 33 36  1  0
 36 37  1  0
 36 38  1  0
 36 39  1  0
 32 12  1  0
 35  4  1  0
M  END
$$$$
