
     RDKit          3D

 39 40  0  0  0  0  0  0  0  0999 V2000
  -20.9954  -40.2267  -12.7177 C   0  0  0  0  0  0  0  0  0  0  0  0
  -21.8050  -41.2582  -11.9852 C   0  0  0  0  0  0  0  0  0  0  0  0
  -22.7192  -40.7188  -11.0625 O   0  0  0  0  0  0  0  0  0  0  0  0
  -22.4257  -40.4641   -9.7373 C   0  0  0  0  0  0  0  0  0  0  0  0
  -21.3275  -39.7731   -9.3042 C   0  0  0  0  0  0  0  0  0  0  0  0
  -21.0719  -39.5397   -7.9517 C   0  0  0  0  0  0  0  0  0  0  0  0
  -19.9032  -38.8039   -7.4693 C   0  0  0  0  0  0  0  0  0  0  0  0
  -18.9811  -38.3885   -8.5094 N   0  0  0  0  0  0  0  0  0  0  0  0
  -17.7736  -39.1874   -8.3251 C   0  0  0  0  0  0  0  0  0  0  0  0
  -16.6523  -38.4079   -7.6878 C   0  0  1  0  0  0  0  0  0  0  0  0
  -16.5997  -38.7383   -6.3605 O   0  0  0  0  0  0  0  0  0  0  0  0
  -15.3077  -38.7170   -8.3388 C   0  0  2  0  0  0  0  0  0  0  0  0
  -14.4577  -37.4771   -8.4294 C   0  0  0  0  0  0  0  0  0  0  0  0
  -12.9877  -37.7627   -8.5561 C   0  0  2  0  0  0  0  0  0  0  0  0
  -12.1947  -36.6478   -7.8649 C   0  0  0  0  0  0  0  0  0  0  0  0
  -12.5606  -37.8751  -10.0083 C   0  0  0  0  0  0  0  0  0  0  0  0
  -11.2650  -38.6162  -10.1454 C   0  0  0  0  0  0  0  0  0  0  0  0
  -10.7554  -38.6383  -11.5576 C   0  0  0  0  0  0  0  0  0  0  0  0
  -11.6679  -39.2936  -12.5279 C   0  0  0  0  0  0  0  0  0  0  0  0
  -11.2397  -40.7264  -12.8905 C   0  0  0  0  0  0  0  0  0  0  0  0
  -12.4293  -41.3209  -13.6093 C   0  0  0  0  0  0  0  0  0  0  0  0
  -12.5497  -42.7885  -13.5389 C   0  0  0  0  0  0  0  0  0  0  0  0
  -13.3317  -43.3548  -12.3850 C   0  0  0  0  0  0  0  0  0  0  0  0
  -14.7049  -42.8361  -12.2624 C   0  0  0  0  0  0  0  0  0  0  0  0
  -15.2718  -42.6063  -13.4005 O   0  0  0  0  0  0  0  0  0  0  0  0
  -15.4636  -42.5662  -11.1094 N   0  0  0  0  0  0  0  0  0  0  0  0
  -16.7714  -43.2435  -10.9357 C   0  0  0  0  0  0  0  0  0  0  0  0
  -15.1256  -41.6498  -10.0255 C   0  0  1  0  0  0  0  0  0  0  0  0
  -13.6648  -41.4247   -9.8875 C   0  0  0  0  0  0  0  0  0  0  0  0
  -15.8978  -40.4031  -10.1797 C   0  0  0  0  0  0  0  0  0  0  0  0
  -16.9808  -40.5004  -10.8776 O   0  0  0  0  0  0  0  0  0  0  0  0
  -15.6252  -39.1395   -9.6818 N   0  0  0  0  0  0  0  0  0  0  0  0
  -21.9832  -40.0402   -7.0530 C   0  0  0  0  0  0  0  0  0  0  0  0
  -23.1083  -40.7467   -7.4715 C   0  0  0  0  0  0  0  0  0  0  0  0
  -23.3281  -40.9572   -8.8047 C   0  0  0  0  0  0  0  0  0  0  0  0
  -21.7798  -39.8321   -5.6069 C   0  0  0  0  0  0  0  0  0  0  0  0
  -20.4146  -39.9118   -5.3057 F   0  0  0  0  0  0  0  0  0  0  0  0
  -22.4037  -40.7610   -4.8197 F   0  0  0  0  0  0  0  0  0  0  0  0
  -22.1472  -38.5299   -5.3085 F   0  0  0  0  0  0  0  0  0  0  0  0
  1  2  1  0
  2  3  1  0
  3  4  1  0
  4  5  2  0
  5  6  1  0
  6  7  1  0
  7  8  1  0
  8  9  1  0
  9 10  1  0
 10 11  1  1
 10 12  1  0
 12 13  1  6
 13 14  1  0
 14 15  1  6
 14 16  1  0
 16 17  1  0
 17 18  1  0
 18 19  1  0
 19 20  1  0
 20 21  1  0
 21 22  1  0
 22 23  1  0
 23 24  1  0
 24 25  2  0
 24 26  1  0
 26 27  1  0
 26 28  1  0
 28 29  1  6
 28 30  1  0
 30 31  2  0
 30 32  1  0
  6 33  2  0
 33 34  1  0
 34 35  2  0
 33 36  1  0
 36 37  1  0
 36 38  1  0
 36 39  1  0
 32 12  1  0
 35  4  1  0
M  END
$$$$
