
     RDKit          3D

 39 40  0  0  0  0  0  0  0  0999 V2000
  -16.2048  -33.2338  -10.9577 C   0  0  0  0  0  0  0  0  0  0  0  0
  -16.4812  -34.7069  -11.0548 C   0  0  0  0  0  0  0  0  0  0  0  0
  -15.8773  -35.3308  -12.1612 O   0  0  0  0  0  0  0  0  0  0  0  0
  -14.8373  -36.2349  -12.0707 C   0  0  0  0  0  0  0  0  0  0  0  0
  -14.7432  -37.2178  -11.1241 C   0  0  0  0  0  0  0  0  0  0  0  0
  -13.6711  -38.1105  -11.0718 C   0  0  0  0  0  0  0  0  0  0  0  0
  -13.5526  -39.1672  -10.0673 C   0  0  0  0  0  0  0  0  0  0  0  0
  -14.0840  -38.8209   -8.7626 N   0  0  0  0  0  0  0  0  0  0  0  0
  -15.4275  -39.3884   -8.7070 C   0  0  0  0  0  0  0  0  0  0  0  0
  -16.4021  -38.5048   -7.9719 C   0  0  1  0  0  0  0  0  0  0  0  0
  -16.4515  -37.2952   -8.6109 O   0  0  0  0  0  0  0  0  0  0  0  0
  -17.8004  -39.1138   -7.9348 C   0  0  2  0  0  0  0  0  0  0  0  0
  -18.7555  -38.2196   -7.1890 C   0  0  0  0  0  0  0  0  0  0  0  0
  -20.1981  -38.4548   -7.5385 C   0  0  2  0  0  0  0  0  0  0  0  0
  -20.9657  -37.1321   -7.4340 C   0  0  0  0  0  0  0  0  0  0  0  0
  -20.8336  -39.4928   -6.6316 C   0  0  0  0  0  0  0  0  0  0  0  0
  -22.0678  -40.0800   -7.2469 C   0  0  0  0  0  0  0  0  0  0  0  0
  -22.7859  -41.0208   -6.3230 C   0  0  0  0  0  0  0  0  0  0  0  0
  -21.9825  -42.1946   -5.8985 C   0  0  0  0  0  0  0  0  0  0  0  0
  -22.3395  -43.4820   -6.6621 C   0  0  0  0  0  0  0  0  0  0  0  0
  -21.2296  -44.4539   -6.3324 C   0  0  0  0  0  0  0  0  0  0  0  0
  -20.9766  -45.4998   -7.3399 C   0  0  0  0  0  0  0  0  0  0  0  0
  -19.9808  -45.1797   -8.4212 C   0  0  0  0  0  0  0  0  0  0  0  0
  -18.6537  -44.7704   -7.9301 C   0  0  0  0  0  0  0  0  0  0  0  0
  -18.2910  -45.3858   -6.8536 O   0  0  0  0  0  0  0  0  0  0  0  0
  -17.7512  -43.8298   -8.4582 N   0  0  0  0  0  0  0  0  0  0  0  0
  -16.3800  -44.2703   -8.8115 C   0  0  0  0  0  0  0  0  0  0  0  0
  -17.9935  -42.4103   -8.6932 C   0  0  1  0  0  0  0  0  0  0  0  0
  -19.4291  -42.0899   -8.8935 C   0  0  0  0  0  0  0  0  0  0  0  0
  -17.3622  -41.6215   -7.6192 C   0  0  0  0  0  0  0  0  0  0  0  0
  -16.3958  -42.2063   -6.9918 O   0  0  0  0  0  0  0  0  0  0  0  0
  -17.6599  -40.3398   -7.1863 N   0  0  0  0  0  0  0  0  0  0  0  0
  -12.6935  -37.9621  -12.0263 C   0  0  0  0  0  0  0  0  0  0  0  0
  -12.7687  -36.9684  -12.9994 C   0  0  0  0  0  0  0  0  0  0  0  0
  -13.8335  -36.1106  -13.0215 C   0  0  0  0  0  0  0  0  0  0  0  0
  -11.5306  -38.8694  -12.0345 C   0  0  0  0  0  0  0  0  0  0  0  0
  -10.4885  -38.3084  -11.2859 F   0  0  0  0  0  0  0  0  0  0  0  0
  -11.0235  -39.1099  -13.2822 F   0  0  0  0  0  0  0  0  0  0  0  0
  -11.8878  -40.0254  -11.3594 F   0  0  0  0  0  0  0  0  0  0  0  0
  1  2  1  0
  2  3  1  0
  3  4  1  0
  4  5  2  0
  5  6  1  0
  6  7  1  0
  7  8  1  0
  8  9  1  0
  9 10  1  0
 10 11  1  6
 10 12  1  0
 12 13  1  1
 13 14  1  0
 14 15  1  1
 14 16  1  0
 16 17  1  0
 17 18  1  0
 18 19  1  0
 19 20  1  0
 20 21  1  0
 21 22  1  0
 22 23  1  0
 23 24  1  0
 24 25  2  0
 24 26  1  0
 26 27  1  0
 26 28  1  0
 28 29  1  1
 28 30  1  0
 30 31  2  0
 30 32  1  0
  6 33  2  0
 33 34  1  0
 34 35  2  0
 33 36  1  0
 36 37  1  0
 36 38  1  0
 36 39  1  0
 32 12  1  0
 35  4  1  0
M  END
$$$$
