
     RDKit          3D

 39 40  0  0  0  0  0  0  0  0999 V2000
  -16.9136  -34.3707  -12.6677 C   0  0  0  0  0  0  0  0  0  0  0  0
  -16.4888  -35.5992  -13.4202 C   0  0  0  0  0  0  0  0  0  0  0  0
  -15.1058  -35.6702  -13.6660 O   0  0  0  0  0  0  0  0  0  0  0  0
  -14.2488  -36.5486  -13.0326 C   0  0  0  0  0  0  0  0  0  0  0  0
  -14.6094  -37.3857  -12.0126 C   0  0  0  0  0  0  0  0  0  0  0  0
  -13.7068  -38.2580  -11.4017 C   0  0  0  0  0  0  0  0  0  0  0  0
  -14.0733  -39.1598  -10.3098 C   0  0  0  0  0  0  0  0  0  0  0  0
  -14.9112  -38.5602   -9.2886 N   0  0  0  0  0  0  0  0  0  0  0  0
  -15.3810  -39.6594   -8.4511 C   0  0  0  0  0  0  0  0  0  0  0  0
  -16.0584  -39.1828   -7.1921 C   0  0  1  0  0  0  0  0  0  0  0  0
  -15.9014  -37.8256   -7.1073 O   0  0  0  0  0  0  0  0  0  0  0  0
  -17.5462  -39.5202   -7.1883 C   0  0  2  0  0  0  0  0  0  0  0  0
  -18.3017  -38.6045   -6.2616 C   0  0  0  0  0  0  0  0  0  0  0  0
  -19.7681  -38.5063   -6.5755 C   0  0  2  0  0  0  0  0  0  0  0  0
  -20.2683  -37.1017   -6.2197 C   0  0  0  0  0  0  0  0  0  0  0  0
  -20.5748  -39.5474   -5.8212 C   0  0  0  0  0  0  0  0  0  0  0  0
  -21.9079  -39.7834   -6.4645 C   0  0  0  0  0  0  0  0  0  0  0  0
  -22.7770  -40.7181   -5.6735 C   0  0  0  0  0  0  0  0  0  0  0  0
  -22.2049  -42.0748   -5.4854 C   0  0  0  0  0  0  0  0  0  0  0  0
  -22.8124  -43.1256   -6.4313 C   0  0  0  0  0  0  0  0  0  0  0  0
  -21.9024  -44.3275   -6.3182 C   0  0  0  0  0  0  0  0  0  0  0  0
  -21.8693  -45.2159   -7.4940 C   0  0  0  0  0  0  0  0  0  0  0  0
  -20.8482  -44.9067   -8.5548 C   0  0  0  0  0  0  0  0  0  0  0  0
  -19.4598  -44.8390   -8.0674 C   0  0  0  0  0  0  0  0  0  0  0  0
  -19.2035  -45.6844   -7.1245 O   0  0  0  0  0  0  0  0  0  0  0  0
  -18.4035  -44.0058   -8.4771 N   0  0  0  0  0  0  0  0  0  0  0  0
  -17.1469  -44.6258   -8.9628 C   0  0  0  0  0  0  0  0  0  0  0  0
  -18.3750  -42.5471   -8.4651 C   0  0  1  0  0  0  0  0  0  0  0  0
  -19.7265  -41.9377   -8.5416 C   0  0  0  0  0  0  0  0  0  0  0  0
  -17.5880  -42.0822   -7.3081 C   0  0  0  0  0  0  0  0  0  0  0  0
  -16.7407  -42.9333   -6.8316 O   0  0  0  0  0  0  0  0  0  0  0  0
  -17.6296  -40.8598   -6.6578 N   0  0  0  0  0  0  0  0  0  0  0  0
  -12.4158  -38.2444  -11.8728 C   0  0  0  0  0  0  0  0  0  0  0  0
  -12.0264  -37.4005  -12.9102 C   0  0  0  0  0  0  0  0  0  0  0  0
  -12.9368  -36.5582  -13.4862 C   0  0  0  0  0  0  0  0  0  0  0  0
  -11.4064  -39.1396  -11.2766 C   0  0  0  0  0  0  0  0  0  0  0  0
  -12.0381  -40.2562  -10.7152 F   0  0  0  0  0  0  0  0  0  0  0  0
  -10.6775  -38.5630  -10.2725 F   0  0  0  0  0  0  0  0  0  0  0  0
  -10.6206  -39.6385  -12.3029 F   0  0  0  0  0  0  0  0  0  0  0  0
  1  2  1  0
  2  3  1  0
  3  4  1  0
  4  5  2  0
  5  6  1  0
  6  7  1  0
  7  8  1  0
  8  9  1  0
  9 10  1  0
 10 11  1  6
 10 12  1  0
 12 13  1  1
 13 14  1  0
 14 15  1  1
 14 16  1  0
 16 17  1  0
 17 18  1  0
 18 19  1  0
 19 20  1  0
 20 21  1  0
 21 22  1  0
 22 23  1  0
 23 24  1  0
 24 25  2  0
 24 26  1  0
 26 27  1  0
 26 28  1  0
 28 29  1  1
 28 30  1  0
 30 31  2  0
 30 32  1  0
  6 33  2  0
 33 34  1  0
 34 35  2  0
 33 36  1  0
 36 37  1  0
 36 38  1  0
 36 39  1  0
 32 12  1  0
 35  4  1  0
M  END
$$$$
