
     RDKit          3D

 39 40  0  0  0  0  0  0  0  0999 V2000
  -10.0026  -34.9205  -12.1741 C   0  0  0  0  0  0  0  0  0  0  0  0
  -11.2201  -35.7345  -11.8410 C   0  0  0  0  0  0  0  0  0  0  0  0
  -12.4357  -35.0625  -12.0616 O   0  0  0  0  0  0  0  0  0  0  0  0
  -13.6809  -35.6190  -11.8449 C   0  0  0  0  0  0  0  0  0  0  0  0
  -13.8948  -36.9005  -11.4171 C   0  0  0  0  0  0  0  0  0  0  0  0
  -15.1740  -37.4204  -11.2115 C   0  0  0  0  0  0  0  0  0  0  0  0
  -15.4228  -38.7878  -10.7552 C   0  0  0  0  0  0  0  0  0  0  0  0
  -14.9744  -39.0629   -9.4033 N   0  0  0  0  0  0  0  0  0  0  0  0
  -15.9543  -39.9791   -8.8283 C   0  0  0  0  0  0  0  0  0  0  0  0
  -16.5242  -39.4786   -7.5261 C   0  0  1  0  0  0  0  0  0  0  0  0
  -16.4650  -38.1110   -7.5287 O   0  0  0  0  0  0  0  0  0  0  0  0
  -17.9717  -39.9210   -7.3353 C   0  0  2  0  0  0  0  0  0  0  0  0
  -18.7060  -38.9752   -6.4220 C   0  0  0  0  0  0  0  0  0  0  0  0
  -20.1991  -39.0154   -6.5879 C   0  0  2  0  0  0  0  0  0  0  0  0
  -20.7761  -37.6224   -6.3113 C   0  0  0  0  0  0  0  0  0  0  0  0
  -20.8400  -40.0323   -5.6612 C   0  0  0  0  0  0  0  0  0  0  0  0
  -22.2055  -40.4271   -6.1369 C   0  0  0  0  0  0  0  0  0  0  0  0
  -22.9134  -41.3393   -5.1771 C   0  0  0  0  0  0  0  0  0  0  0  0
  -22.2160  -42.6256   -4.9270 C   0  0  0  0  0  0  0  0  0  0  0  0
  -22.8243  -43.8063   -5.7040 C   0  0  0  0  0  0  0  0  0  0  0  0
  -21.8119  -44.9218   -5.5778 C   0  0  0  0  0  0  0  0  0  0  0  0
  -21.8206  -45.9177   -6.6646 C   0  0  0  0  0  0  0  0  0  0  0  0
  -20.9367  -45.6420   -7.8505 C   0  0  0  0  0  0  0  0  0  0  0  0
  -19.5177  -45.4257   -7.5196 C   0  0  0  0  0  0  0  0  0  0  0  0
  -19.1020  -46.1525   -6.5356 O   0  0  0  0  0  0  0  0  0  0  0  0
  -18.5785  -44.5627   -8.1123 N   0  0  0  0  0  0  0  0  0  0  0  0
  -17.3286  -45.1349   -8.6685 C   0  0  0  0  0  0  0  0  0  0  0  0
  -18.6692  -43.1118   -8.2365 C   0  0  1  0  0  0  0  0  0  0  0  0
  -20.0672  -42.6127   -8.2260 C   0  0  0  0  0  0  0  0  0  0  0  0
  -17.8140  -42.4786   -7.2157 C   0  0  0  0  0  0  0  0  0  0  0  0
  -16.8571  -43.2144   -6.7551 O   0  0  0  0  0  0  0  0  0  0  0  0
  -17.8924  -41.2039   -6.6790 N   0  0  0  0  0  0  0  0  0  0  0  0
  -16.2324  -36.5796  -11.4600 C   0  0  0  0  0  0  0  0  0  0  0  0
  -16.0381  -35.2712  -11.8962 C   0  0  0  0  0  0  0  0  0  0  0  0
  -14.7708  -34.7941  -12.0873 C   0  0  0  0  0  0  0  0  0  0  0  0
  -17.6136  -37.0590  -11.2642 C   0  0  0  0  0  0  0  0  0  0  0  0
  -18.2844  -37.0815  -12.4931 F   0  0  0  0  0  0  0  0  0  0  0  0
  -18.3608  -36.2722  -10.4308 F   0  0  0  0  0  0  0  0  0  0  0  0
  -17.5512  -38.3811  -10.8544 F   0  0  0  0  0  0  0  0  0  0  0  0
  1  2  1  0
  2  3  1  0
  3  4  1  0
  4  5  2  0
  5  6  1  0
  6  7  1  0
  7  8  1  0
  8  9  1  0
  9 10  1  0
 10 11  1  6
 10 12  1  0
 12 13  1  1
 13 14  1  0
 14 15  1  1
 14 16  1  0
 16 17  1  0
 17 18  1  0
 18 19  1  0
 19 20  1  0
 20 21  1  0
 21 22  1  0
 22 23  1  0
 23 24  1  0
 24 25  2  0
 24 26  1  0
 26 27  1  0
 26 28  1  0
 28 29  1  1
 28 30  1  0
 30 31  2  0
 30 32  1  0
  6 33  2  0
 33 34  1  0
 34 35  2  0
 33 36  1  0
 36 37  1  0
 36 38  1  0
 36 39  1  0
 32 12  1  0
 35  4  1  0
M  END
$$$$
