
     RDKit          3D

 39 40  0  0  0  0  0  0  0  0999 V2000
  -11.8958  -41.0983  -13.8844 C   0  0  0  0  0  0  0  0  0  0  0  0
  -11.2367  -39.9814  -13.1267 C   0  0  0  0  0  0  0  0  0  0  0  0
  -11.5202  -38.7005  -13.6336 O   0  0  0  0  0  0  0  0  0  0  0  0
  -12.5559  -37.9018  -13.1903 C   0  0  0  0  0  0  0  0  0  0  0  0
  -13.3388  -38.1780  -12.1032 C   0  0  0  0  0  0  0  0  0  0  0  0
  -14.3763  -37.3394  -11.6919 C   0  0  0  0  0  0  0  0  0  0  0  0
  -15.2244  -37.6180  -10.5330 C   0  0  0  0  0  0  0  0  0  0  0  0
  -14.6859  -38.6040   -9.6152 N   0  0  0  0  0  0  0  0  0  0  0  0
  -15.7811  -39.5208   -9.3148 C   0  0  0  0  0  0  0  0  0  0  0  0
  -16.3793  -39.2852   -7.9519 C   0  0  1  0  0  0  0  0  0  0  0  0
  -16.2289  -37.9609   -7.6398 O   0  0  0  0  0  0  0  0  0  0  0  0
  -17.8608  -39.6477   -7.9144 C   0  0  2  0  0  0  0  0  0  0  0  0
  -18.6505  -38.6018   -7.1725 C   0  0  0  0  0  0  0  0  0  0  0  0
  -20.1119  -38.5897   -7.5229 C   0  0  2  0  0  0  0  0  0  0  0  0
  -20.6437  -37.1555   -7.4232 C   0  0  0  0  0  0  0  0  0  0  0  0
  -20.9150  -39.5018   -6.6135 C   0  0  0  0  0  0  0  0  0  0  0  0
  -22.2307  -39.8727   -7.2285 C   0  0  0  0  0  0  0  0  0  0  0  0
  -23.0988  -40.6749   -6.3025 C   0  0  0  0  0  0  0  0  0  0  0  0
  -22.5067  -41.9667   -5.8734 C   0  0  0  0  0  0  0  0  0  0  0  0
  -23.0767  -43.1772   -6.6336 C   0  0  0  0  0  0  0  0  0  0  0  0
  -22.1482  -44.3224   -6.2996 C   0  0  0  0  0  0  0  0  0  0  0  0
  -22.0761  -45.3994   -7.3036 C   0  0  0  0  0  0  0  0  0  0  0  0
  -21.0396  -45.2565   -8.3848 C   0  0  0  0  0  0  0  0  0  0  0  0
  -19.6626  -45.0770   -7.8934 C   0  0  0  0  0  0  0  0  0  0  0  0
  -19.4104  -45.7417   -6.8146 O   0  0  0  0  0  0  0  0  0  0  0  0
  -18.6132  -44.3051   -8.4233 N   0  0  0  0  0  0  0  0  0  0  0  0
  -17.3365  -44.9733   -8.7738 C   0  0  0  0  0  0  0  0  0  0  0  0
  -18.6106  -42.8658   -8.6630 C   0  0  1  0  0  0  0  0  0  0  0  0
  -19.9708  -42.3069   -8.8659 C   0  0  0  0  0  0  0  0  0  0  0  0
  -17.8551  -42.1923   -7.5907 C   0  0  0  0  0  0  0  0  0  0  0  0
  -17.0026  -42.9308   -6.9605 O   0  0  0  0  0  0  0  0  0  0  0  0
  -17.9311  -40.8773   -7.1621 N   0  0  0  0  0  0  0  0  0  0  0  0
  -14.5864  -36.2026  -12.4350 C   0  0  0  0  0  0  0  0  0  0  0  0
  -13.8016  -35.9014  -13.5456 C   0  0  0  0  0  0  0  0  0  0  0  0
  -12.7931  -36.7454  -13.9207 C   0  0  0  0  0  0  0  0  0  0  0  0
  -15.6644  -35.2682  -12.0601 C   0  0  0  0  0  0  0  0  0  0  0  0
  -15.1582  -33.9642  -11.9961 F   0  0  0  0  0  0  0  0  0  0  0  0
  -16.2220  -35.5263  -10.8376 F   0  0  0  0  0  0  0  0  0  0  0  0
  -16.5917  -35.2530  -13.0895 F   0  0  0  0  0  0  0  0  0  0  0  0
  1  2  1  0
  2  3  1  0
  3  4  1  0
  4  5  2  0
  5  6  1  0
  6  7  1  0
  7  8  1  0
  8  9  1  0
  9 10  1  0
 10 11  1  6
 10 12  1  0
 12 13  1  1
 13 14  1  0
 14 15  1  1
 14 16  1  0
 16 17  1  0
 17 18  1  0
 18 19  1  0
 19 20  1  0
 20 21  1  0
 21 22  1  0
 22 23  1  0
 23 24  1  0
 24 25  2  0
 24 26  1  0
 26 27  1  0
 26 28  1  0
 28 29  1  1
 28 30  1  0
 30 31  2  0
 30 32  1  0
  6 33  2  0
 33 34  1  0
 34 35  2  0
 33 36  1  0
 36 37  1  0
 36 38  1  0
 36 39  1  0
 32 12  1  0
 35  4  1  0
M  END
$$$$
