
     RDKit          3D

 39 40  0  0  0  0  0  0  0  0999 V2000
  -13.4160  -43.0046  -15.1444 C   0  0  0  0  0  0  0  0  0  0  0  0
  -13.4657  -41.9072  -14.1201 C   0  0  0  0  0  0  0  0  0  0  0  0
  -13.1844  -40.6295  -14.6362 O   0  0  0  0  0  0  0  0  0  0  0  0
  -13.2081  -39.4680  -13.8894 C   0  0  0  0  0  0  0  0  0  0  0  0
  -13.5037  -39.4087  -12.5552 C   0  0  0  0  0  0  0  0  0  0  0  0
  -13.5153  -38.2094  -11.8407 C   0  0  0  0  0  0  0  0  0  0  0  0
  -13.8294  -38.1258  -10.4145 C   0  0  0  0  0  0  0  0  0  0  0  0
  -14.3789  -39.3421   -9.8461 N   0  0  0  0  0  0  0  0  0  0  0  0
  -15.8153  -39.1177   -9.7169 C   0  0  0  0  0  0  0  0  0  0  0  0
  -16.2752  -39.1055   -8.2818 C   0  0  1  0  0  0  0  0  0  0  0  0
  -16.0051  -37.8714   -7.7547 O   0  0  0  0  0  0  0  0  0  0  0  0
  -17.7697  -39.3886   -8.1647 C   0  0  2  0  0  0  0  0  0  0  0  0
  -18.4846  -38.2356   -7.5108 C   0  0  0  0  0  0  0  0  0  0  0  0
  -19.9548  -38.1864   -7.8181 C   0  0  2  0  0  0  0  0  0  0  0  0
  -20.4159  -36.7249   -7.8501 C   0  0  0  0  0  0  0  0  0  0  0  0
  -20.7681  -38.9614   -6.7975 C   0  0  0  0  0  0  0  0  0  0  0  0
  -22.1196  -39.3268   -7.3330 C   0  0  0  0  0  0  0  0  0  0  0  0
  -22.9921  -39.9877   -6.3051 C   0  0  0  0  0  0  0  0  0  0  0  0
  -22.4463  -41.2576   -5.7638 C   0  0  0  0  0  0  0  0  0  0  0  0
  -23.0972  -42.5086   -6.3795 C   0  0  0  0  0  0  0  0  0  0  0  0
  -22.2120  -43.6591   -5.9573 C   0  0  0  0  0  0  0  0  0  0  0  0
  -22.2238  -44.8338   -6.8477 C   0  0  0  0  0  0  0  0  0  0  0  0
  -21.2191  -44.8520   -7.9675 C   0  0  0  0  0  0  0  0  0  0  0  0
  -19.8194  -44.6923   -7.5371 C   0  0  0  0  0  0  0  0  0  0  0  0
  -19.5618  -45.2568   -6.4038 O   0  0  0  0  0  0  0  0  0  0  0  0
  -18.7538  -44.0306   -8.1732 N   0  0  0  0  0  0  0  0  0  0  0  0
  -17.5220  -44.7930   -8.4904 C   0  0  0  0  0  0  0  0  0  0  0  0
  -18.6927  -42.6246   -8.5586 C   0  0  1  0  0  0  0  0  0  0  0  0
  -20.0316  -42.0223   -8.7780 C   0  0  0  0  0  0  0  0  0  0  0  0
  -17.8709  -41.8849   -7.5830 C   0  0  0  0  0  0  0  0  0  0  0  0
  -17.0327  -42.5975   -6.9056 O   0  0  0  0  0  0  0  0  0  0  0  0
  -17.8714  -40.5312   -7.2889 N   0  0  0  0  0  0  0  0  0  0  0  0
  -13.2125  -37.0669  -12.5420 C   0  0  0  0  0  0  0  0  0  0  0  0
  -12.9086  -37.1037  -13.9008 C   0  0  0  0  0  0  0  0  0  0  0  0
  -12.9064  -38.2963  -14.5700 C   0  0  0  0  0  0  0  0  0  0  0  0
  -13.2041  -35.7624  -11.8535 C   0  0  0  0  0  0  0  0  0  0  0  0
  -14.4642  -35.1618  -11.9642 F   0  0  0  0  0  0  0  0  0  0  0  0
  -12.3043  -34.8694  -12.3681 F   0  0  0  0  0  0  0  0  0  0  0  0
  -13.0257  -35.9968  -10.4997 F   0  0  0  0  0  0  0  0  0  0  0  0
  1  2  1  0
  2  3  1  0
  3  4  1  0
  4  5  2  0
  5  6  1  0
  6  7  1  0
  7  8  1  0
  8  9  1  0
  9 10  1  0
 10 11  1  6
 10 12  1  0
 12 13  1  1
 13 14  1  0
 14 15  1  1
 14 16  1  0
 16 17  1  0
 17 18  1  0
 18 19  1  0
 19 20  1  0
 20 21  1  0
 21 22  1  0
 22 23  1  0
 23 24  1  0
 24 25  2  0
 24 26  1  0
 26 27  1  0
 26 28  1  0
 28 29  1  1
 28 30  1  0
 30 31  2  0
 30 32  1  0
  6 33  2  0
 33 34  1  0
 34 35  2  0
 33 36  1  0
 36 37  1  0
 36 38  1  0
 36 39  1  0
 32 12  1  0
 35  4  1  0
M  END
$$$$
