
     RDKit          3D

 39 40  0  0  0  0  0  0  0  0999 V2000
  -23.7787  -44.2340   -5.5202 C   0  0  0  0  0  0  0  0  0  0  0  0
  -22.7050  -43.2763   -5.9514 C   0  0  0  0  0  0  0  0  0  0  0  0
  -23.0783  -42.4414   -7.0199 O   0  0  0  0  0  0  0  0  0  0  0  0
  -22.4119  -41.2836   -7.3699 C   0  0  0  0  0  0  0  0  0  0  0  0
  -21.1314  -40.9814   -6.9957 C   0  0  0  0  0  0  0  0  0  0  0  0
  -20.4978  -39.7964   -7.3743 C   0  0  0  0  0  0  0  0  0  0  0  0
  -19.1299  -39.4554   -6.9836 C   0  0  0  0  0  0  0  0  0  0  0  0
  -18.2009  -40.5693   -7.0076 N   0  0  0  0  0  0  0  0  0  0  0  0
  -16.8640  -39.9838   -7.0147 C   0  0  0  0  0  0  0  0  0  0  0  0
  -16.7912  -38.7103   -7.8172 C   0  0  1  0  0  0  0  0  0  0  0  0
  -16.6827  -37.6596   -6.9466 O   0  0  0  0  0  0  0  0  0  0  0  0
  -15.5955  -38.7066   -8.7647 C   0  0  2  0  0  0  0  0  0  0  0  0
  -15.3666  -37.3316   -9.3345 C   0  0  0  0  0  0  0  0  0  0  0  0
  -13.9657  -37.1116   -9.8322 C   0  0  2  0  0  0  0  0  0  0  0  0
  -13.5823  -35.6414   -9.6293 C   0  0  0  0  0  0  0  0  0  0  0  0
  -13.8252  -37.4837  -11.2970 C   0  0  0  0  0  0  0  0  0  0  0  0
  -12.3944  -37.7335  -11.6669 C   0  0  0  0  0  0  0  0  0  0  0  0
  -12.2097  -37.9848  -13.1357 C   0  0  0  0  0  0  0  0  0  0  0  0
  -12.9435  -39.1675  -13.6516 C   0  0  0  0  0  0  0  0  0  0  0  0
  -12.0446  -40.4013  -13.8464 C   0  0  0  0  0  0  0  0  0  0  0  0
  -13.0005  -41.5534  -14.0567 C   0  0  0  0  0  0  0  0  0  0  0  0
  -12.4904  -42.8834  -13.6776 C   0  0  0  0  0  0  0  0  0  0  0  0
  -12.7264  -43.3264  -12.2592 C   0  0  0  0  0  0  0  0  0  0  0  0
  -14.1378  -43.3061  -11.8380 C   0  0  0  0  0  0  0  0  0  0  0  0
  -14.9609  -43.6279  -12.7805 O   0  0  0  0  0  0  0  0  0  0  0  0
  -14.6971  -42.9955  -10.5855 N   0  0  0  0  0  0  0  0  0  0  0  0
  -15.5485  -44.0041   -9.9094 C   0  0  0  0  0  0  0  0  0  0  0  0
  -14.5597  -41.7469   -9.8432 C   0  0  1  0  0  0  0  0  0  0  0  0
  -13.3249  -40.9981  -10.1868 C   0  0  0  0  0  0  0  0  0  0  0  0
  -15.7899  -40.9485   -9.9961 C   0  0  0  0  0  0  0  0  0  0  0  0
  -16.8512  -41.6141  -10.3124 O   0  0  0  0  0  0  0  0  0  0  0  0
  -15.9687  -39.5828   -9.8491 N   0  0  0  0  0  0  0  0  0  0  0  0
  -21.2231  -38.9268   -8.1530 C   0  0  0  0  0  0  0  0  0  0  0  0
  -22.5282  -39.2139   -8.5457 C   0  0  0  0  0  0  0  0  0  0  0  0
  -23.1186  -40.3844   -8.1568 C   0  0  0  0  0  0  0  0  0  0  0  0
  -20.6190  -37.6548   -8.5923 C   0  0  0  0  0  0  0  0  0  0  0  0
  -20.4469  -36.8082   -7.4904 F   0  0  0  0  0  0  0  0  0  0  0  0
  -21.3785  -36.9630   -9.4958 F   0  0  0  0  0  0  0  0  0  0  0  0
  -19.3402  -37.9270   -9.0508 F   0  0  0  0  0  0  0  0  0  0  0  0
  1  2  1  0
  2  3  1  0
  3  4  1  0
  4  5  2  0
  5  6  1  0
  6  7  1  0
  7  8  1  0
  8  9  1  0
  9 10  1  0
 10 11  1  1
 10 12  1  0
 12 13  1  6
 13 14  1  0
 14 15  1  6
 14 16  1  0
 16 17  1  0
 17 18  1  0
 18 19  1  0
 19 20  1  0
 20 21  1  0
 21 22  1  0
 22 23  1  0
 23 24  1  0
 24 25  2  0
 24 26  1  0
 26 27  1  0
 26 28  1  0
 28 29  1  6
 28 30  1  0
 30 31  2  0
 30 32  1  0
  6 33  2  0
 33 34  1  0
 34 35  2  0
 33 36  1  0
 36 37  1  0
 36 38  1  0
 36 39  1  0
 32 12  1  0
 35  4  1  0
M  END
$$$$
