
     RDKit          3D

 39 40  0  0  0  0  0  0  0  0999 V2000
   -9.7406  -39.7882  -13.7934 C   0  0  0  0  0  0  0  0  0  0  0  0
  -10.8908  -39.2982  -12.9609 C   0  0  0  0  0  0  0  0  0  0  0  0
  -11.4457  -38.0859  -13.4087 O   0  0  0  0  0  0  0  0  0  0  0  0
  -12.5983  -37.5236  -12.8964 C   0  0  0  0  0  0  0  0  0  0  0  0
  -13.3432  -38.0652  -11.8850 C   0  0  0  0  0  0  0  0  0  0  0  0
  -14.5034  -37.4596  -11.3990 C   0  0  0  0  0  0  0  0  0  0  0  0
  -15.3133  -38.0235  -10.3191 C   0  0  0  0  0  0  0  0  0  0  0  0
  -14.6859  -39.1188   -9.6042 N   0  0  0  0  0  0  0  0  0  0  0  0
  -15.7693  -39.8665   -8.9737 C   0  0  0  0  0  0  0  0  0  0  0  0
  -16.4275  -39.1032   -7.8534 C   0  0  1  0  0  0  0  0  0  0  0  0
  -16.3613  -37.7677   -8.1466 O   0  0  0  0  0  0  0  0  0  0  0  0
  -17.8871  -39.5090   -7.6740 C   0  0  2  0  0  0  0  0  0  0  0  0
  -18.6466  -38.4570   -6.9096 C   0  0  0  0  0  0  0  0  0  0  0  0
  -20.1319  -38.5049   -7.1330 C   0  0  2  0  0  0  0  0  0  0  0  0
  -20.7022  -37.0847   -7.0459 C   0  0  0  0  0  0  0  0  0  0  0  0
  -20.8233  -39.4011   -6.1219 C   0  0  0  0  0  0  0  0  0  0  0  0
  -22.1728  -39.8385   -6.6059 C   0  0  0  0  0  0  0  0  0  0  0  0
  -22.9313  -40.6263   -5.5770 C   0  0  0  0  0  0  0  0  0  0  0  0
  -22.2611  -41.8797   -5.1488 C   0  0  0  0  0  0  0  0  0  0  0  0
  -22.8516  -43.1387   -5.8076 C   0  0  0  0  0  0  0  0  0  0  0  0
  -21.8595  -44.2394   -5.5089 C   0  0  0  0  0  0  0  0  0  0  0  0
  -21.8358  -45.3559   -6.4712 C   0  0  0  0  0  0  0  0  0  0  0  0
  -20.9002  -45.2280   -7.6425 C   0  0  0  0  0  0  0  0  0  0  0  0
  -19.4935  -44.9852   -7.2792 C   0  0  0  0  0  0  0  0  0  0  0  0
  -19.1280  -45.5947   -6.2002 O   0  0  0  0  0  0  0  0  0  0  0  0
  -18.5198  -44.2050   -7.9281 N   0  0  0  0  0  0  0  0  0  0  0  0
  -17.2552  -44.8481   -8.3600 C   0  0  0  0  0  0  0  0  0  0  0  0
  -18.5869  -42.7780   -8.2249 C   0  0  1  0  0  0  0  0  0  0  0  0
  -19.9777  -42.2704   -8.3323 C   0  0  0  0  0  0  0  0  0  0  0  0
  -17.7668  -42.0360   -7.2496 C   0  0  0  0  0  0  0  0  0  0  0  0
  -16.8391  -42.7201   -6.6659 O   0  0  0  0  0  0  0  0  0  0  0  0
  -17.8512  -40.7067   -6.8695 N   0  0  0  0  0  0  0  0  0  0  0  0
  -14.8772  -36.2747  -11.9864 C   0  0  0  0  0  0  0  0  0  0  0  0
  -14.1339  -35.7051  -13.0175 C   0  0  0  0  0  0  0  0  0  0  0  0
  -13.0021  -36.3254  -13.4695 C   0  0  0  0  0  0  0  0  0  0  0  0
  -16.0917  -35.5765  -11.5247 C   0  0  0  0  0  0  0  0  0  0  0  0
  -16.9308  -35.3171  -12.6153 F   0  0  0  0  0  0  0  0  0  0  0  0
  -15.8453  -34.3685  -10.9314 F   0  0  0  0  0  0  0  0  0  0  0  0
  -16.8009  -36.4474  -10.7134 F   0  0  0  0  0  0  0  0  0  0  0  0
  1  2  1  0
  2  3  1  0
  3  4  1  0
  4  5  2  0
  5  6  1  0
  6  7  1  0
  7  8  1  0
  8  9  1  0
  9 10  1  0
 10 11  1  6
 10 12  1  0
 12 13  1  1
 13 14  1  0
 14 15  1  1
 14 16  1  0
 16 17  1  0
 17 18  1  0
 18 19  1  0
 19 20  1  0
 20 21  1  0
 21 22  1  0
 22 23  1  0
 23 24  1  0
 24 25  2  0
 24 26  1  0
 26 27  1  0
 26 28  1  0
 28 29  1  1
 28 30  1  0
 30 31  2  0
 30 32  1  0
  6 33  2  0
 33 34  1  0
 34 35  2  0
 33 36  1  0
 36 37  1  0
 36 38  1  0
 36 39  1  0
 32 12  1  0
 35  4  1  0
M  END
$$$$
