
     RDKit          3D

 39 40  0  0  0  0  0  0  0  0999 V2000
  -17.3666  -34.1004  -13.4734 C   0  0  0  0  0  0  0  0  0  0  0  0
  -16.5681  -35.0432  -12.6195 C   0  0  0  0  0  0  0  0  0  0  0  0
  -15.3586  -35.4599  -13.2040 O   0  0  0  0  0  0  0  0  0  0  0  0
  -14.4050  -36.2207  -12.5567 C   0  0  0  0  0  0  0  0  0  0  0  0
  -14.5491  -36.7414  -11.3000 C   0  0  0  0  0  0  0  0  0  0  0  0
  -13.5560  -37.5059  -10.6850 C   0  0  0  0  0  0  0  0  0  0  0  0
  -13.6914  -38.0704   -9.3423 C   0  0  0  0  0  0  0  0  0  0  0  0
  -14.2722  -39.3991   -9.3029 N   0  0  0  0  0  0  0  0  0  0  0  0
  -15.7121  -39.2093   -9.1582 C   0  0  0  0  0  0  0  0  0  0  0  0
  -16.1279  -38.9819   -7.7277 C   0  0  1  0  0  0  0  0  0  0  0  0
  -15.9132  -37.6649   -7.4222 O   0  0  0  0  0  0  0  0  0  0  0  0
  -17.5993  -39.3183   -7.5063 C   0  0  2  0  0  0  0  0  0  0  0  0
  -18.2750  -38.2543   -6.6821 C   0  0  0  0  0  0  0  0  0  0  0  0
  -19.7678  -38.2189   -6.8511 C   0  0  2  0  0  0  0  0  0  0  0  0
  -20.2597  -36.7751   -6.6992 C   0  0  0  0  0  0  0  0  0  0  0  0
  -20.4685  -39.1112   -5.8428 C   0  0  0  0  0  0  0  0  0  0  0  0
  -21.8555  -39.4630   -6.2891 C   0  0  0  0  0  0  0  0  0  0  0  0
  -22.6168  -40.2442   -5.2572 C   0  0  0  0  0  0  0  0  0  0  0  0
  -21.9981  -41.5434   -4.8931 C   0  0  0  0  0  0  0  0  0  0  0  0
  -22.6767  -42.7485   -5.5677 C   0  0  0  0  0  0  0  0  0  0  0  0
  -21.7334  -43.9076   -5.3403 C   0  0  0  0  0  0  0  0  0  0  0  0
  -21.8025  -44.9919   -6.3366 C   0  0  0  0  0  0  0  0  0  0  0  0
  -20.9040  -44.8738   -7.5376 C   0  0  0  0  0  0  0  0  0  0  0  0
  -19.4744  -44.7152   -7.2199 C   0  0  0  0  0  0  0  0  0  0  0  0
  -19.1030  -45.3775   -6.1745 O   0  0  0  0  0  0  0  0  0  0  0  0
  -18.4852  -43.9651   -7.8805 N   0  0  0  0  0  0  0  0  0  0  0  0
  -17.2722  -44.6575   -8.3790 C   0  0  0  0  0  0  0  0  0  0  0  0
  -18.4882  -42.5276   -8.1307 C   0  0  1  0  0  0  0  0  0  0  0  0
  -19.8536  -41.9464   -8.1703 C   0  0  0  0  0  0  0  0  0  0  0  0
  -17.5961  -41.8606   -7.1645 C   0  0  0  0  0  0  0  0  0  0  0  0
  -16.6851  -42.6098   -6.6372 O   0  0  0  0  0  0  0  0  0  0  0  0
  -17.5973  -40.5418   -6.7408 N   0  0  0  0  0  0  0  0  0  0  0  0
  -12.4045  -37.7206  -11.4038 C   0  0  0  0  0  0  0  0  0  0  0  0
  -12.2362  -37.2001  -12.6847 C   0  0  0  0  0  0  0  0  0  0  0  0
  -13.2298  -36.4552  -13.2573 C   0  0  0  0  0  0  0  0  0  0  0  0
  -11.3114  -38.5199  -10.8191 C   0  0  0  0  0  0  0  0  0  0  0  0
  -10.9522  -39.5459  -11.7017 F   0  0  0  0  0  0  0  0  0  0  0  0
  -11.6381  -39.1250   -9.6363 F   0  0  0  0  0  0  0  0  0  0  0  0
  -10.1932  -37.7072  -10.7247 F   0  0  0  0  0  0  0  0  0  0  0  0
  1  2  1  0
  2  3  1  0
  3  4  1  0
  4  5  2  0
  5  6  1  0
  6  7  1  0
  7  8  1  0
  8  9  1  0
  9 10  1  0
 10 11  1  6
 10 12  1  0
 12 13  1  1
 13 14  1  0
 14 15  1  1
 14 16  1  0
 16 17  1  0
 17 18  1  0
 18 19  1  0
 19 20  1  0
 20 21  1  0
 21 22  1  0
 22 23  1  0
 23 24  1  0
 24 25  2  0
 24 26  1  0
 26 27  1  0
 26 28  1  0
 28 29  1  1
 28 30  1  0
 30 31  2  0
 30 32  1  0
  6 33  2  0
 33 34  1  0
 34 35  2  0
 33 36  1  0
 36 37  1  0
 36 38  1  0
 36 39  1  0
 32 12  1  0
 35  4  1  0
M  END
$$$$
