
     RDKit          3D

 40 43  0  0  0  0  0  0  0  0999 V2000
  -10.2548  -36.8166  -13.8096 C   0  0  0  0  0  0  0  0  0  0  0  0
  -10.5093  -37.9825  -12.8964 C   0  0  0  0  0  0  0  0  0  0  0  0
   -9.7138  -37.7588  -11.6052 C   0  0  0  0  0  0  0  0  0  0  0  0
  -11.9422  -38.1844  -12.6074 C   0  0  0  0  0  0  0  0  0  0  0  0
  -12.6330  -37.5211  -11.6166 C   0  0  0  0  0  0  0  0  0  0  0  0
  -13.9633  -37.7198  -11.3617 C   0  0  0  0  0  0  0  0  0  0  0  0
  -14.6520  -36.9623  -10.2662 C   0  0  0  0  0  0  0  0  0  0  0  0
  -14.9364  -37.8337   -9.1296 N   0  0  0  0  0  0  0  0  0  0  0  0
  -16.1671  -38.5419   -9.2989 C   0  0  0  0  0  0  0  0  0  0  0  0
  -17.2173  -38.2707   -8.2727 C   0  0  1  0  0  0  0  0  0  0  0  0
  -18.1233  -37.3527   -8.8001 O   0  0  0  0  0  0  0  0  0  0  0  0
  -17.9017  -39.4953   -7.7180 C   0  0  2  0  0  0  0  0  0  0  0  0
  -18.6552  -39.1184   -6.4694 C   0  0  0  0  0  0  0  0  0  0  0  0
  -20.1505  -39.1914   -6.7030 C   0  0  2  0  0  0  0  0  0  0  0  0
  -20.8911  -38.4348   -5.6221 C   0  0  0  0  0  0  0  0  0  0  0  0
  -22.2878  -39.0038   -5.7266 C   0  0  0  0  0  0  0  0  0  0  0  0
  -22.0409  -40.4717   -5.9396 C   0  0  2  0  0  0  0  0  0  0  0  0
  -22.2775  -41.2960   -4.6827 C   0  0  0  0  0  0  0  0  0  0  0  0
  -22.9411  -42.5827   -4.9990 C   0  0  0  0  0  0  0  0  0  0  0  0
  -22.1196  -43.6517   -5.6010 C   0  0  0  0  0  0  0  0  0  0  0  0
  -21.3860  -44.5470   -4.6382 C   0  0  0  0  0  0  0  0  0  0  0  0
  -20.6265  -45.5716   -5.4543 C   0  0  0  0  0  0  0  0  0  0  0  0
  -20.4181  -45.1487   -6.8204 N   0  0  0  0  0  0  0  0  0  0  0  0
  -19.3551  -44.4540   -7.4651 C   0  0  0  0  0  0  0  0  0  0  0  0
  -19.0950  -45.0299   -8.7411 C   0  0  0  0  0  0  0  0  0  0  0  0
  -18.1485  -44.5833   -9.6125 C   0  0  0  0  0  0  0  0  0  0  0  0
  -17.4265  -43.5048   -9.1847 C   0  0  0  0  0  0  0  0  0  0  0  0
  -17.6272  -42.8749   -7.9284 C   0  0  0  0  0  0  0  0  0  0  0  0
  -18.5950  -43.3680   -7.0872 C   0  0  0  0  0  0  0  0  0  0  0  0
  -16.6921  -41.7494   -7.8096 C   0  0  0  0  0  0  0  0  0  0  0  0
  -15.4417  -41.9196   -8.2147 O   0  0  0  0  0  0  0  0  0  0  0  0
  -16.8563  -40.4262   -7.3221 N   0  0  0  0  0  0  0  0  0  0  0  0
  -17.9347  -45.2383  -10.9269 C   0  0  0  0  0  0  0  0  0  0  0  0
  -17.9152  -46.6138  -10.6740 F   0  0  0  0  0  0  0  0  0  0  0  0
  -16.7547  -44.8381  -11.4929 F   0  0  0  0  0  0  0  0  0  0  0  0
  -19.0312  -44.9953  -11.6988 F   0  0  0  0  0  0  0  0  0  0  0  0
  -20.6137  -40.6074   -6.4188 C   0  0  0  0  0  0  0  0  0  0  0  0
  -14.6584  -38.6335  -12.1355 C   0  0  0  0  0  0  0  0  0  0  0  0
  -13.9974  -39.3128  -13.1334 C   0  0  0  0  0  0  0  0  0  0  0  0
  -12.6568  -39.0901  -13.3652 C   0  0  0  0  0  0  0  0  0  0  0  0
  1  2  1  0
  2  3  1  0
  2  4  1  0
  4  5  2  0
  5  6  1  0
  6  7  1  0
  7  8  1  0
  8  9  1  0
  9 10  1  0
 10 11  1  6
 10 12  1  0
 12 13  1  1
 14 13  1  1
 14 15  1  0
 15 16  1  0
 17 16  1  1
 17 18  1  0
 18 19  1  0
 19 20  1  0
 20 21  1  0
 21 22  1  0
 22 23  1  0
 23 24  1  0
 24 25  2  0
 25 26  1  0
 26 27  2  0
 27 28  1  0
 28 29  2  0
 28 30  1  0
 30 31  2  0
 30 32  1  0
 26 33  1  0
 33 34  1  0
 33 35  1  0
 33 36  1  0
 17 37  1  0
  6 38  2  0
 38 39  1  0
 39 40  2  0
 29 24  1  0
 32 12  1  0
 37 14  1  0
 40  4  1  0
M  END
$$$$
