
     RDKit          3D

 40 43  0  0  0  0  0  0  0  0999 V2000
  -10.7269  -37.3621   -8.9656 C   0  0  0  0  0  0  0  0  0  0  0  0
  -10.6738  -37.3703  -10.4672 C   0  0  0  0  0  0  0  0  0  0  0  0
  -10.4406  -38.8137  -10.9279 C   0  0  0  0  0  0  0  0  0  0  0  0
  -11.8874  -36.8055  -11.0886 C   0  0  0  0  0  0  0  0  0  0  0  0
  -13.1530  -37.3264  -10.9285 C   0  0  0  0  0  0  0  0  0  0  0  0
  -14.2692  -36.7898  -11.5118 C   0  0  0  0  0  0  0  0  0  0  0  0
  -15.6171  -37.4095  -11.2940 C   0  0  0  0  0  0  0  0  0  0  0  0
  -15.4982  -38.6775  -10.5800 N   0  0  0  0  0  0  0  0  0  0  0  0
  -15.6718  -38.5111   -9.1704 C   0  0  0  0  0  0  0  0  0  0  0  0
  -17.0300  -38.0718   -8.7323 C   0  0  1  0  0  0  0  0  0  0  0  0
  -17.6946  -37.5301   -9.8307 O   0  0  0  0  0  0  0  0  0  0  0  0
  -17.8493  -39.1274   -8.0321 C   0  0  2  0  0  0  0  0  0  0  0  0
  -18.7336  -38.4681   -7.0063 C   0  0  0  0  0  0  0  0  0  0  0  0
  -20.1883  -38.5468   -7.4227 C   0  0  2  0  0  0  0  0  0  0  0  0
  -21.0165  -37.5536   -6.6373 C   0  0  0  0  0  0  0  0  0  0  0  0
  -22.4187  -38.0912   -6.8109 C   0  0  0  0  0  0  0  0  0  0  0  0
  -22.2316  -39.5769   -6.6746 C   0  0  2  0  0  0  0  0  0  0  0  0
  -22.6744  -40.1030   -5.3172 C   0  0  0  0  0  0  0  0  0  0  0  0
  -23.3649  -41.4080   -5.4441 C   0  0  0  0  0  0  0  0  0  0  0  0
  -22.5361  -42.6050   -5.6893 C   0  0  0  0  0  0  0  0  0  0  0  0
  -21.9846  -43.2920   -4.4683 C   0  0  0  0  0  0  0  0  0  0  0  0
  -21.1871  -44.4902   -4.9384 C   0  0  0  0  0  0  0  0  0  0  0  0
  -20.7815  -44.3786   -6.3210 N   0  0  0  0  0  0  0  0  0  0  0  0
  -19.6064  -43.8704   -6.9448 C   0  0  0  0  0  0  0  0  0  0  0  0
  -19.2185  -44.7157   -8.0231 C   0  0  0  0  0  0  0  0  0  0  0  0
  -18.1440  -44.4954   -8.8303 C   0  0  0  0  0  0  0  0  0  0  0  0
  -17.4219  -43.3711   -8.5437 C   0  0  0  0  0  0  0  0  0  0  0  0
  -17.7453  -42.4792   -7.4876 C   0  0  0  0  0  0  0  0  0  0  0  0
  -18.8396  -42.7509   -6.7028 C   0  0  0  0  0  0  0  0  0  0  0  0
  -16.7698  -41.3820   -7.4806 C   0  0  0  0  0  0  0  0  0  0  0  0
  -15.4897  -41.6717   -7.6650 O   0  0  0  0  0  0  0  0  0  0  0  0
  -16.9186  -39.9806   -7.3095 N   0  0  0  0  0  0  0  0  0  0  0  0
  -17.8016  -45.4246   -9.9355 C   0  0  0  0  0  0  0  0  0  0  0  0
  -16.6826  -46.1435   -9.5025 F   0  0  0  0  0  0  0  0  0  0  0  0
  -17.5165  -44.7411  -11.0863 F   0  0  0  0  0  0  0  0  0  0  0  0
  -18.8211  -46.3204  -10.0600 F   0  0  0  0  0  0  0  0  0  0  0  0
  -20.7650  -39.8540   -6.9137 C   0  0  0  0  0  0  0  0  0  0  0  0
  -14.1275  -35.6645  -12.3059 C   0  0  0  0  0  0  0  0  0  0  0  0
  -12.8765  -35.1197  -12.4861 C   0  0  0  0  0  0  0  0  0  0  0  0
  -11.7718  -35.6839  -11.8847 C   0  0  0  0  0  0  0  0  0  0  0  0
  1  2  1  0
  2  3  1  0
  2  4  1  0
  4  5  2  0
  5  6  1  0
  6  7  1  0
  7  8  1  0
  8  9  1  0
  9 10  1  0
 10 11  1  6
 10 12  1  0
 12 13  1  1
 14 13  1  1
 14 15  1  0
 15 16  1  0
 17 16  1  1
 17 18  1  0
 18 19  1  0
 19 20  1  0
 20 21  1  0
 21 22  1  0
 22 23  1  0
 23 24  1  0
 24 25  2  0
 25 26  1  0
 26 27  2  0
 27 28  1  0
 28 29  2  0
 28 30  1  0
 30 31  2  0
 30 32  1  0
 26 33  1  0
 33 34  1  0
 33 35  1  0
 33 36  1  0
 17 37  1  0
  6 38  2  0
 38 39  1  0
 39 40  2  0
 29 24  1  0
 32 12  1  0
 37 14  1  0
 40  4  1  0
M  END
$$$$
