
     RDKit          3D

 40 43  0  0  0  0  0  0  0  0999 V2000
  -10.8684  -35.7708   -9.4647 C   0  0  0  0  0  0  0  0  0  0  0  0
  -10.8517  -36.0179  -10.9468 C   0  0  0  0  0  0  0  0  0  0  0  0
   -9.3976  -36.2451  -11.3757 C   0  0  0  0  0  0  0  0  0  0  0  0
  -11.7063  -37.1512  -11.3504 C   0  0  0  0  0  0  0  0  0  0  0  0
  -13.0831  -37.1408  -11.2948 C   0  0  0  0  0  0  0  0  0  0  0  0
  -13.8616  -38.2011  -11.6737 C   0  0  0  0  0  0  0  0  0  0  0  0
  -15.3563  -38.1202  -11.5867 C   0  0  0  0  0  0  0  0  0  0  0  0
  -15.9776  -39.2955  -12.1905 N   0  0  0  0  0  0  0  0  0  0  0  0
  -16.9037  -39.9229  -11.2997 C   0  0  0  0  0  0  0  0  0  0  0  0
  -17.1737  -39.1924  -10.0258 C   0  0  1  0  0  0  0  0  0  0  0  0
  -17.7139  -37.9463  -10.3373 O   0  0  0  0  0  0  0  0  0  0  0  0
  -18.0123  -39.9442   -9.0221 C   0  0  2  0  0  0  0  0  0  0  0  0
  -18.4149  -39.0079   -7.9130 C   0  0  0  0  0  0  0  0  0  0  0  0
  -19.9024  -38.7246   -7.9641 C   0  0  2  0  0  0  0  0  0  0  0  0
  -20.2346  -37.4978   -7.1432 C   0  0  0  0  0  0  0  0  0  0  0  0
  -21.7205  -37.6540   -6.9128 C   0  0  0  0  0  0  0  0  0  0  0  0
  -21.8674  -39.1238   -6.6316 C   0  0  2  0  0  0  0  0  0  0  0  0
  -22.0561  -39.4231   -5.1517 C   0  0  0  0  0  0  0  0  0  0  0  0
  -23.0488  -40.5034   -4.9426 C   0  0  0  0  0  0  0  0  0  0  0  0
  -22.6250  -41.8909   -5.2166 C   0  0  0  0  0  0  0  0  0  0  0  0
  -21.9577  -42.6179   -4.0794 C   0  0  0  0  0  0  0  0  0  0  0  0
  -21.6218  -44.0130   -4.5626 C   0  0  0  0  0  0  0  0  0  0  0  0
  -21.5741  -44.1042   -6.0042 N   0  0  0  0  0  0  0  0  0  0  0  0
  -20.5146  -43.9684   -6.9461 C   0  0  0  0  0  0  0  0  0  0  0  0
  -20.6347  -44.9552   -7.9655 C   0  0  0  0  0  0  0  0  0  0  0  0
  -19.7860  -45.0816   -9.0231 C   0  0  0  0  0  0  0  0  0  0  0  0
  -18.7658  -44.1731   -9.0621 C   0  0  0  0  0  0  0  0  0  0  0  0
  -18.5799  -43.1600   -8.0852 C   0  0  0  0  0  0  0  0  0  0  0  0
  -19.4653  -43.0792   -7.0379 C   0  0  0  0  0  0  0  0  0  0  0  0
  -17.4018  -42.3633   -8.4493 C   0  0  0  0  0  0  0  0  0  0  0  0
  -16.3219  -42.9939   -8.8883 O   0  0  0  0  0  0  0  0  0  0  0  0
  -17.1596  -40.9645   -8.4322 N   0  0  0  0  0  0  0  0  0  0  0  0
  -19.9758  -46.1389  -10.0469 C   0  0  0  0  0  0  0  0  0  0  0  0
  -21.3469  -46.4151  -10.0668 F   0  0  0  0  0  0  0  0  0  0  0  0
  -19.2645  -47.2651   -9.7330 F   0  0  0  0  0  0  0  0  0  0  0  0
  -19.6638  -45.6059  -11.2618 F   0  0  0  0  0  0  0  0  0  0  0  0
  -20.6242  -39.7955   -7.1686 C   0  0  0  0  0  0  0  0  0  0  0  0
  -13.2408  -39.3481  -12.1383 C   0  0  0  0  0  0  0  0  0  0  0  0
  -11.8668  -39.3909  -12.2060 C   0  0  0  0  0  0  0  0  0  0  0  0
  -11.1107  -38.3058  -11.8168 C   0  0  0  0  0  0  0  0  0  0  0  0
  1  2  1  0
  2  3  1  0
  2  4  1  0
  4  5  2  0
  5  6  1  0
  6  7  1  0
  7  8  1  0
  8  9  1  0
  9 10  1  0
 10 11  1  6
 10 12  1  0
 12 13  1  1
 14 13  1  1
 14 15  1  0
 15 16  1  0
 17 16  1  1
 17 18  1  0
 18 19  1  0
 19 20  1  0
 20 21  1  0
 21 22  1  0
 22 23  1  0
 23 24  1  0
 24 25  2  0
 25 26  1  0
 26 27  2  0
 27 28  1  0
 28 29  2  0
 28 30  1  0
 30 31  2  0
 30 32  1  0
 26 33  1  0
 33 34  1  0
 33 35  1  0
 33 36  1  0
 17 37  1  0
  6 38  2  0
 38 39  1  0
 39 40  2  0
 29 24  1  0
 32 12  1  0
 37 14  1  0
 40  4  1  0
M  END
$$$$
