
     RDKit          3D

 40 43  0  0  0  0  0  0  0  0999 V2000
  -21.4722  -40.3664   -3.6089 C   0  0  0  0  0  0  0  0  0  0  0  0
  -22.2300  -39.7539   -4.7528 C   0  0  0  0  0  0  0  0  0  0  0  0
  -23.3133  -38.8386   -4.1710 C   0  0  0  0  0  0  0  0  0  0  0  0
  -21.3601  -39.0164   -5.6893 C   0  0  0  0  0  0  0  0  0  0  0  0
  -20.0859  -38.5875   -5.3876 C   0  0  0  0  0  0  0  0  0  0  0  0
  -19.2913  -37.9044   -6.2685 C   0  0  0  0  0  0  0  0  0  0  0  0
  -17.9127  -37.4674   -5.8724 C   0  0  0  0  0  0  0  0  0  0  0  0
  -16.9279  -37.8864   -6.8657 N   0  0  0  0  0  0  0  0  0  0  0  0
  -16.7329  -39.3030   -6.8548 C   0  0  0  0  0  0  0  0  0  0  0  0
  -16.5123  -39.9370   -8.1885 C   0  0  1  0  0  0  0  0  0  0  0  0
  -15.2634  -40.5548   -8.1826 O   0  0  0  0  0  0  0  0  0  0  0  0
  -17.6085  -40.8680   -8.6439 C   0  0  2  0  0  0  0  0  0  0  0  0
  -18.8653  -40.0731   -8.8838 C   0  0  0  0  0  0  0  0  0  0  0  0
  -19.1925  -40.0207  -10.3622 C   0  0  2  0  0  0  0  0  0  0  0  0
  -20.1816  -38.9112  -10.6448 C   0  0  0  0  0  0  0  0  0  0  0  0
  -20.7388  -39.3088  -11.9927 C   0  0  0  0  0  0  0  0  0  0  0  0
  -20.9051  -40.7978  -11.8652 C   0  0  2  0  0  0  0  0  0  0  0  0
  -22.3524  -41.2105  -11.6409 C   0  0  0  0  0  0  0  0  0  0  0  0
  -22.6848  -42.4417  -12.3956 C   0  0  0  0  0  0  0  0  0  0  0  0
  -22.1879  -43.7282  -11.8684 C   0  0  0  0  0  0  0  0  0  0  0  0
  -23.0617  -44.4099  -10.8492 C   0  0  0  0  0  0  0  0  0  0  0  0
  -22.3822  -45.7049  -10.4569 C   0  0  0  0  0  0  0  0  0  0  0  0
  -20.9679  -45.7014  -10.7542 N   0  0  0  0  0  0  0  0  0  0  0  0
  -19.8207  -45.3474   -9.9880 C   0  0  0  0  0  0  0  0  0  0  0  0
  -18.7687  -46.2782  -10.2208 C   0  0  0  0  0  0  0  0  0  0  0  0
  -17.5342  -46.2085   -9.6500 C   0  0  0  0  0  0  0  0  0  0  0  0
  -17.3434  -45.1526   -8.8037 C   0  0  0  0  0  0  0  0  0  0  0  0
  -18.3413  -44.1830   -8.5218 C   0  0  0  0  0  0  0  0  0  0  0  0
  -19.5702  -44.3028   -9.1243 C   0  0  0  0  0  0  0  0  0  0  0  0
  -17.7883  -43.1934   -7.5890 C   0  0  0  0  0  0  0  0  0  0  0  0
  -17.0497  -43.6222   -6.5755 O   0  0  0  0  0  0  0  0  0  0  0  0
  -17.8814  -41.7776   -7.5420 N   0  0  0  0  0  0  0  0  0  0  0  0
  -16.4876  -47.2195   -9.9413 C   0  0  0  0  0  0  0  0  0  0  0  0
  -15.3723  -46.5027  -10.3872 F   0  0  0  0  0  0  0  0  0  0  0  0
  -16.9052  -48.1018  -10.9003 F   0  0  0  0  0  0  0  0  0  0  0  0
  -16.1333  -47.8063   -8.7634 F   0  0  0  0  0  0  0  0  0  0  0  0
  -20.0295  -41.2359  -10.7136 C   0  0  0  0  0  0  0  0  0  0  0  0
  -19.7866  -37.6258   -7.5310 C   0  0  0  0  0  0  0  0  0  0  0  0
  -21.0560  -38.0404   -7.8639 C   0  0  0  0  0  0  0  0  0  0  0  0
  -21.8315  -38.7267   -6.9539 C   0  0  0  0  0  0  0  0  0  0  0  0
  1  2  1  0
  2  3  1  0
  2  4  1  0
  4  5  2  0
  5  6  1  0
  6  7  1  0
  7  8  1  0
  8  9  1  0
  9 10  1  0
 10 11  1  1
 10 12  1  0
 12 13  1  1
 14 13  1  1
 14 15  1  0
 15 16  1  0
 17 16  1  1
 17 18  1  0
 18 19  1  0
 19 20  1  0
 20 21  1  0
 21 22  1  0
 22 23  1  0
 23 24  1  0
 24 25  2  0
 25 26  1  0
 26 27  2  0
 27 28  1  0
 28 29  2  0
 28 30  1  0
 30 31  2  0
 30 32  1  0
 26 33  1  0
 33 34  1  0
 33 35  1  0
 33 36  1  0
 17 37  1  0
  6 38  2  0
 38 39  1  0
 39 40  2  0
 29 24  1  0
 32 12  1  0
 37 14  1  0
 40  4  1  0
M  END
$$$$
