
     RDKit          3D

 40 43  0  0  0  0  0  0  0  0999 V2000
  -12.9974  -34.6718  -12.0237 C   0  0  0  0  0  0  0  0  0  0  0  0
  -11.8046  -35.5832  -11.9573 C   0  0  0  0  0  0  0  0  0  0  0  0
  -10.6967  -34.8623  -11.1809 C   0  0  0  0  0  0  0  0  0  0  0  0
  -12.1136  -36.8911  -11.3477 C   0  0  0  0  0  0  0  0  0  0  0  0
  -12.4424  -37.0686  -10.0214 C   0  0  0  0  0  0  0  0  0  0  0  0
  -12.7270  -38.2895   -9.4714 C   0  0  0  0  0  0  0  0  0  0  0  0
  -13.0776  -38.4091   -8.0184 C   0  0  0  0  0  0  0  0  0  0  0  0
  -13.8768  -39.6059   -7.7722 N   0  0  0  0  0  0  0  0  0  0  0  0
  -15.2408  -39.2840   -7.4884 C   0  0  0  0  0  0  0  0  0  0  0  0
  -16.1723  -39.3244   -8.6548 C   0  0  1  0  0  0  0  0  0  0  0  0
  -15.7999  -40.3831   -9.4808 O   0  0  0  0  0  0  0  0  0  0  0  0
  -17.6385  -39.3630   -8.3020 C   0  0  2  0  0  0  0  0  0  0  0  0
  -18.3827  -38.3834   -9.1712 C   0  0  0  0  0  0  0  0  0  0  0  0
  -19.2718  -39.1110  -10.1590 C   0  0  2  0  0  0  0  0  0  0  0  0
  -19.6882  -38.1817  -11.2781 C   0  0  0  0  0  0  0  0  0  0  0  0
  -20.8956  -38.8868  -11.8530 C   0  0  0  0  0  0  0  0  0  0  0  0
  -21.6182  -39.3752  -10.6282 C   0  0  2  0  0  0  0  0  0  0  0  0
  -22.8322  -38.5249  -10.2838 C   0  0  0  0  0  0  0  0  0  0  0  0
  -23.9639  -39.3630   -9.8223 C   0  0  0  0  0  0  0  0  0  0  0  0
  -23.9015  -39.9111   -8.4528 C   0  0  0  0  0  0  0  0  0  0  0  0
  -24.4311  -39.0236   -7.3578 C   0  0  0  0  0  0  0  0  0  0  0  0
  -24.2894  -39.7750   -6.0510 C   0  0  0  0  0  0  0  0  0  0  0  0
  -23.3120  -40.8370   -6.1250 N   0  0  0  0  0  0  0  0  0  0  0  0
  -21.9195  -40.8904   -5.8311 C   0  0  0  0  0  0  0  0  0  0  0  0
  -21.6045  -42.1099   -5.1669 C   0  0  0  0  0  0  0  0  0  0  0  0
  -20.3541  -42.4716   -4.7663 C   0  0  0  0  0  0  0  0  0  0  0  0
  -19.3692  -41.5664   -5.0458 C   0  0  0  0  0  0  0  0  0  0  0  0
  -19.6032  -40.3311   -5.7051 C   0  0  0  0  0  0  0  0  0  0  0  0
  -20.8850  -40.0159   -6.0859 C   0  0  0  0  0  0  0  0  0  0  0  0
  -18.3251  -39.6234   -5.8498 C   0  0  0  0  0  0  0  0  0  0  0  0
  -17.4840  -39.6193   -4.8255 O   0  0  0  0  0  0  0  0  0  0  0  0
  -17.7600  -38.8956   -6.9299 N   0  0  0  0  0  0  0  0  0  0  0  0
  -20.1042  -43.7616   -4.0768 C   0  0  0  0  0  0  0  0  0  0  0  0
  -19.8813  -43.4440   -2.7329 F   0  0  0  0  0  0  0  0  0  0  0  0
  -19.0163  -44.4023   -4.6047 F   0  0  0  0  0  0  0  0  0  0  0  0
  -21.2546  -44.4908   -4.1235 F   0  0  0  0  0  0  0  0  0  0  0  0
  -20.6127  -39.3708   -9.4995 C   0  0  0  0  0  0  0  0  0  0  0  0
  -12.6844  -39.4098  -10.2837 C   0  0  0  0  0  0  0  0  0  0  0  0
  -12.3592  -39.2666  -11.6133 C   0  0  0  0  0  0  0  0  0  0  0  0
  -12.0777  -38.0228  -12.1371 C   0  0  0  0  0  0  0  0  0  0  0  0
  1  2  1  0
  2  3  1  0
  2  4  1  0
  4  5  2  0
  5  6  1  0
  6  7  1  0
  7  8  1  0
  8  9  1  0
  9 10  1  0
 10 11  1  1
 10 12  1  0
 12 13  1  6
 14 13  1  1
 14 15  1  0
 15 16  1  0
 17 16  1  6
 17 18  1  0
 18 19  1  0
 19 20  1  0
 20 21  1  0
 21 22  1  0
 22 23  1  0
 23 24  1  0
 24 25  2  0
 25 26  1  0
 26 27  2  0
 27 28  1  0
 28 29  2  0
 28 30  1  0
 30 31  2  0
 30 32  1  0
 26 33  1  0
 33 34  1  0
 33 35  1  0
 33 36  1  0
 17 37  1  0
  6 38  2  0
 38 39  1  0
 39 40  2  0
 29 24  1  0
 32 12  1  0
 37 14  1  0
 40  4  1  0
M  END
$$$$
