
     RDKit          3D

 40 43  0  0  0  0  0  0  0  0999 V2000
   -9.5441  -37.8162  -12.9213 C   0  0  0  0  0  0  0  0  0  0  0  0
  -10.7149  -36.8749  -12.8874 C   0  0  0  0  0  0  0  0  0  0  0  0
  -10.8212  -36.1973  -14.2584 C   0  0  0  0  0  0  0  0  0  0  0  0
  -11.9801  -37.5437  -12.5276 C   0  0  0  0  0  0  0  0  0  0  0  0
  -12.8805  -37.0530  -11.6071 C   0  0  0  0  0  0  0  0  0  0  0  0
  -14.0508  -37.6860  -11.2848 C   0  0  0  0  0  0  0  0  0  0  0  0
  -14.9852  -37.0939  -10.2726 C   0  0  0  0  0  0  0  0  0  0  0  0
  -16.2189  -37.8699  -10.1860 N   0  0  0  0  0  0  0  0  0  0  0  0
  -16.0943  -38.9645   -9.2743 C   0  0  0  0  0  0  0  0  0  0  0  0
  -16.7163  -38.7638   -7.9318 C   0  0  1  0  0  0  0  0  0  0  0  0
  -17.3424  -37.5190   -7.9169 O   0  0  0  0  0  0  0  0  0  0  0  0
  -17.6355  -39.8714   -7.4801 C   0  0  2  0  0  0  0  0  0  0  0  0
  -18.0311  -39.6326   -6.0464 C   0  0  0  0  0  0  0  0  0  0  0  0
  -19.4974  -39.2637   -5.9491 C   0  0  2  0  0  0  0  0  0  0  0  0
  -19.7948  -38.6319   -4.6068 C   0  0  0  0  0  0  0  0  0  0  0  0
  -21.2952  -38.7838   -4.5020 C   0  0  0  0  0  0  0  0  0  0  0  0
  -21.5344  -40.1679   -5.0386 C   0  0  2  0  0  0  0  0  0  0  0  0
  -21.7999  -41.1865   -3.9399 C   0  0  0  0  0  0  0  0  0  0  0  0
  -22.8583  -42.1445   -4.3374 C   0  0  0  0  0  0  0  0  0  0  0  0
  -22.5008  -43.2062   -5.2990 C   0  0  0  0  0  0  0  0  0  0  0  0
  -21.9218  -44.4660   -4.7120 C   0  0  0  0  0  0  0  0  0  0  0  0
  -21.6439  -45.4182   -5.8560 C   0  0  0  0  0  0  0  0  0  0  0  0
  -21.5422  -44.7412   -7.1288 N   0  0  0  0  0  0  0  0  0  0  0  0
  -20.4390  -44.2036   -7.8515 C   0  0  0  0  0  0  0  0  0  0  0  0
  -20.5714  -44.4964   -9.2386 C   0  0  0  0  0  0  0  0  0  0  0  0
  -19.6883  -44.1060  -10.1991 C   0  0  0  0  0  0  0  0  0  0  0  0
  -18.6188  -43.3849   -9.7474 C   0  0  0  0  0  0  0  0  0  0  0  0
  -18.4176  -43.0519   -8.3822 C   0  0  0  0  0  0  0  0  0  0  0  0
  -19.3394  -43.4731   -7.4548 C   0  0  0  0  0  0  0  0  0  0  0  0
  -17.1834  -42.2656   -8.2648 C   0  0  0  0  0  0  0  0  0  0  0  0
  -16.1228  -42.6436   -8.9640 O   0  0  0  0  0  0  0  0  0  0  0  0
  -16.8654  -41.1050   -7.5116 N   0  0  0  0  0  0  0  0  0  0  0  0
  -19.8940  -44.4516  -11.6275 C   0  0  0  0  0  0  0  0  0  0  0  0
  -21.2409  -44.8091  -11.7479 F   0  0  0  0  0  0  0  0  0  0  0  0
  -19.0867  -45.4895  -12.0067 F   0  0  0  0  0  0  0  0  0  0  0  0
  -19.7207  -43.3166  -12.3618 F   0  0  0  0  0  0  0  0  0  0  0  0
  -20.3092  -40.5404   -5.8417 C   0  0  0  0  0  0  0  0  0  0  0  0
  -14.3529  -38.8827  -11.9121 C   0  0  0  0  0  0  0  0  0  0  0  0
  -13.4743  -39.3999  -12.8365 C   0  0  0  0  0  0  0  0  0  0  0  0
  -12.3036  -38.7380  -13.1393 C   0  0  0  0  0  0  0  0  0  0  0  0
  1  2  1  0
  2  3  1  0
  2  4  1  0
  4  5  2  0
  5  6  1  0
  6  7  1  0
  7  8  1  0
  8  9  1  0
  9 10  1  0
 10 11  1  6
 10 12  1  0
 12 13  1  1
 14 13  1  1
 14 15  1  0
 15 16  1  0
 17 16  1  1
 17 18  1  0
 18 19  1  0
 19 20  1  0
 20 21  1  0
 21 22  1  0
 22 23  1  0
 23 24  1  0
 24 25  2  0
 25 26  1  0
 26 27  2  0
 27 28  1  0
 28 29  2  0
 28 30  1  0
 30 31  2  0
 30 32  1  0
 26 33  1  0
 33 34  1  0
 33 35  1  0
 33 36  1  0
 17 37  1  0
  6 38  2  0
 38 39  1  0
 39 40  2  0
 29 24  1  0
 32 12  1  0
 37 14  1  0
 40  4  1  0
M  END
$$$$
