
     RDKit          3D

 40 43  0  0  0  0  0  0  0  0999 V2000
   -8.5880  -37.7399  -11.1149 C   0  0  0  0  0  0  0  0  0  0  0  0
   -9.7777  -36.9148  -10.7124 C   0  0  0  0  0  0  0  0  0  0  0  0
   -9.7551  -35.6168  -11.5277 C   0  0  0  0  0  0  0  0  0  0  0  0
  -11.0577  -37.6281  -10.8874 C   0  0  0  0  0  0  0  0  0  0  0  0
  -12.2801  -37.1341  -10.4868 C   0  0  0  0  0  0  0  0  0  0  0  0
  -13.4590  -37.8087  -10.6571 C   0  0  0  0  0  0  0  0  0  0  0  0
  -14.7543  -37.2102  -10.1962 C   0  0  0  0  0  0  0  0  0  0  0  0
  -15.2321  -37.8716   -8.9853 N   0  0  0  0  0  0  0  0  0  0  0  0
  -16.6411  -37.7031   -8.8094 C   0  0  0  0  0  0  0  0  0  0  0  0
  -17.2048  -38.2454   -7.5375 C   0  0  1  0  0  0  0  0  0  0  0  0
  -17.8182  -37.2025   -6.8463 O   0  0  0  0  0  0  0  0  0  0  0  0
  -18.1145  -39.4381   -7.6977 C   0  0  2  0  0  0  0  0  0  0  0  0
  -18.5957  -39.8796   -6.3403 C   0  0  0  0  0  0  0  0  0  0  0  0
  -20.0754  -39.5971   -6.1780 C   0  0  2  0  0  0  0  0  0  0  0  0
  -20.4650  -39.6470   -4.7169 C   0  0  0  0  0  0  0  0  0  0  0  0
  -21.9639  -39.8315   -4.7869 C   0  0  0  0  0  0  0  0  0  0  0  0
  -22.1320  -40.8190   -5.9083 C   0  0  2  0  0  0  0  0  0  0  0  0
  -22.4278  -42.2268   -5.4123 C   0  0  0  0  0  0  0  0  0  0  0  0
  -23.4339  -42.8993   -6.2675 C   0  0  0  0  0  0  0  0  0  0  0  0
  -22.9925  -43.4056   -7.5823 C   0  0  0  0  0  0  0  0  0  0  0  0
  -22.4100  -44.7939   -7.5976 C   0  0  0  0  0  0  0  0  0  0  0  0
  -22.0412  -45.1195   -9.0296 C   0  0  0  0  0  0  0  0  0  0  0  0
  -21.8892  -43.9367   -9.8459 N   0  0  0  0  0  0  0  0  0  0  0  0
  -20.7641  -43.1276  -10.1742 C   0  0  0  0  0  0  0  0  0  0  0  0
  -20.8108  -42.7561  -11.5480 C   0  0  0  0  0  0  0  0  0  0  0  0
  -19.8878  -41.9698  -12.1681 C   0  0  0  0  0  0  0  0  0  0  0  0
  -18.8667  -41.5328  -11.3719 C   0  0  0  0  0  0  0  0  0  0  0  0
  -18.7513  -41.8586   -9.9950 C   0  0  0  0  0  0  0  0  0  0  0  0
  -19.7102  -42.6572   -9.4205 C   0  0  0  0  0  0  0  0  0  0  0  0
  -17.5492  -41.2109   -9.4556 C   0  0  0  0  0  0  0  0  0  0  0  0
  -16.4409  -41.2276  -10.1822 O   0  0  0  0  0  0  0  0  0  0  0  0
  -17.3077  -40.5210   -8.2386 N   0  0  0  0  0  0  0  0  0  0  0  0
  -20.0039  -41.6264  -13.6072 C   0  0  0  0  0  0  0  0  0  0  0  0
  -20.0722  -42.8451  -14.2904 F   0  0  0  0  0  0  0  0  0  0  0  0
  -18.9249  -40.8991  -14.0309 F   0  0  0  0  0  0  0  0  0  0  0  0
  -21.2014  -41.0030  -13.7934 F   0  0  0  0  0  0  0  0  0  0  0  0
  -20.8538  -40.7833   -6.7143 C   0  0  0  0  0  0  0  0  0  0  0  0
  -13.4304  -39.0533  -11.2627 C   0  0  0  0  0  0  0  0  0  0  0  0
  -12.2252  -39.5751  -11.6745 C   0  0  0  0  0  0  0  0  0  0  0  0
  -11.0550  -38.8706  -11.4886 C   0  0  0  0  0  0  0  0  0  0  0  0
  1  2  1  0
  2  3  1  0
  2  4  1  0
  4  5  2  0
  5  6  1  0
  6  7  1  0
  7  8  1  0
  8  9  1  0
  9 10  1  0
 10 11  1  6
 10 12  1  0
 12 13  1  1
 14 13  1  1
 14 15  1  0
 15 16  1  0
 17 16  1  1
 17 18  1  0
 18 19  1  0
 19 20  1  0
 20 21  1  0
 21 22  1  0
 22 23  1  0
 23 24  1  0
 24 25  2  0
 25 26  1  0
 26 27  2  0
 27 28  1  0
 28 29  2  0
 28 30  1  0
 30 31  2  0
 30 32  1  0
 26 33  1  0
 33 34  1  0
 33 35  1  0
 33 36  1  0
 17 37  1  0
  6 38  2  0
 38 39  1  0
 39 40  2  0
 29 24  1  0
 32 12  1  0
 37 14  1  0
 40  4  1  0
M  END
$$$$
