
     RDKit          3D

 40 43  0  0  0  0  0  0  0  0999 V2000
  -21.9497  -41.7140   -5.2521 C   0  0  0  0  0  0  0  0  0  0  0  0
  -22.9748  -40.7313   -5.7435 C   0  0  0  0  0  0  0  0  0  0  0  0
  -23.5527  -39.9977   -4.5279 C   0  0  0  0  0  0  0  0  0  0  0  0
  -22.4303  -39.7768   -6.7286 C   0  0  0  0  0  0  0  0  0  0  0  0
  -21.3221  -38.9875   -6.5107 C   0  0  0  0  0  0  0  0  0  0  0  0
  -20.8293  -38.1069   -7.4358 C   0  0  0  0  0  0  0  0  0  0  0  0
  -19.6174  -37.2782   -7.1310 C   0  0  0  0  0  0  0  0  0  0  0  0
  -18.4086  -37.9130   -7.6485 N   0  0  0  0  0  0  0  0  0  0  0  0
  -17.7435  -38.6848   -6.6451 C   0  0  0  0  0  0  0  0  0  0  0  0
  -16.3345  -39.0715   -6.9531 C   0  0  1  0  0  0  0  0  0  0  0  0
  -15.6539  -39.2540   -5.7509 O   0  0  0  0  0  0  0  0  0  0  0  0
  -16.1828  -40.2515   -7.8807 C   0  0  2  0  0  0  0  0  0  0  0  0
  -15.0165  -40.0095   -8.8027 C   0  0  0  0  0  0  0  0  0  0  0  0
  -13.8734  -40.9500   -8.4793 C   0  0  2  0  0  0  0  0  0  0  0  0
  -12.5870  -40.4497   -9.0991 C   0  0  0  0  0  0  0  0  0  0  0  0
  -11.7229  -41.6902   -9.0990 C   0  0  0  0  0  0  0  0  0  0  0  0
  -12.6834  -42.7726   -9.5077 C   0  0  2  0  0  0  0  0  0  0  0  0
  -12.5125  -43.1923  -10.9603 C   0  0  0  0  0  0  0  0  0  0  0  0
  -12.6591  -44.6584  -11.1185 C   0  0  0  0  0  0  0  0  0  0  0  0
  -14.0220  -45.2239  -11.0672 C   0  0  0  0  0  0  0  0  0  0  0  0
  -14.7776  -45.2539  -12.3692 C   0  0  0  0  0  0  0  0  0  0  0  0
  -16.1298  -45.8794  -12.0991 C   0  0  0  0  0  0  0  0  0  0  0  0
  -16.4983  -45.8225  -10.7028 N   0  0  0  0  0  0  0  0  0  0  0  0
  -17.2416  -44.8789   -9.9376 C   0  0  0  0  0  0  0  0  0  0  0  0
  -18.0990  -45.5548   -9.0235 C   0  0  0  0  0  0  0  0  0  0  0  0
  -18.9280  -44.9351   -8.1384 C   0  0  0  0  0  0  0  0  0  0  0  0
  -18.8961  -43.5692   -8.1699 C   0  0  0  0  0  0  0  0  0  0  0  0
  -18.0684  -42.8240   -9.0502 C   0  0  0  0  0  0  0  0  0  0  0  0
  -17.2525  -43.5006   -9.9241 C   0  0  0  0  0  0  0  0  0  0  0  0
  -18.2812  -41.3930   -8.8005 C   0  0  0  0  0  0  0  0  0  0  0  0
  -19.5199  -40.9602   -8.6137 O   0  0  0  0  0  0  0  0  0  0  0  0
  -17.3786  -40.3012   -8.7075 N   0  0  0  0  0  0  0  0  0  0  0  0
  -19.7952  -45.7094   -7.2162 C   0  0  0  0  0  0  0  0  0  0  0  0
  -19.5033  -45.2438   -5.9299 F   0  0  0  0  0  0  0  0  0  0  0  0
  -19.5426  -47.0512   -7.3091 F   0  0  0  0  0  0  0  0  0  0  0  0
  -21.0894  -45.3690   -7.4740 F   0  0  0  0  0  0  0  0  0  0  0  0
  -14.0744  -42.2372   -9.2559 C   0  0  0  0  0  0  0  0  0  0  0  0
  -21.4724  -37.9977   -8.6570 C   0  0  0  0  0  0  0  0  0  0  0  0
  -22.5825  -38.7722   -8.9060 C   0  0  0  0  0  0  0  0  0  0  0  0
  -23.0541  -39.6499   -7.9533 C   0  0  0  0  0  0  0  0  0  0  0  0
  1  2  1  0
  2  3  1  0
  2  4  1  0
  4  5  2  0
  5  6  1  0
  6  7  1  0
  7  8  1  0
  8  9  1  0
  9 10  1  0
 10 11  1  1
 10 12  1  0
 12 13  1  6
 14 13  1  6
 14 15  1  0
 15 16  1  0
 17 16  1  6
 17 18  1  0
 18 19  1  0
 19 20  1  0
 20 21  1  0
 21 22  1  0
 22 23  1  0
 23 24  1  0
 24 25  2  0
 25 26  1  0
 26 27  2  0
 27 28  1  0
 28 29  2  0
 28 30  1  0
 30 31  2  0
 30 32  1  0
 26 33  1  0
 33 34  1  0
 33 35  1  0
 33 36  1  0
 17 37  1  0
  6 38  2  0
 38 39  1  0
 39 40  2  0
 29 24  1  0
 32 12  1  0
 37 14  1  0
 40  4  1  0
M  END
$$$$
