
     RDKit          3D

 40 43  0  0  0  0  0  0  0  0999 V2000
  -17.5031  -35.7873  -11.3853 C   0  0  0  0  0  0  0  0  0  0  0  0
  -16.2760  -35.8330  -12.2513 C   0  0  0  0  0  0  0  0  0  0  0  0
  -15.4762  -34.5472  -12.0127 C   0  0  0  0  0  0  0  0  0  0  0  0
  -15.4441  -37.0272  -12.0072 C   0  0  0  0  0  0  0  0  0  0  0  0
  -15.0724  -37.4690  -10.7560 C   0  0  0  0  0  0  0  0  0  0  0  0
  -14.3002  -38.5798  -10.5466 C   0  0  0  0  0  0  0  0  0  0  0  0
  -13.9332  -39.0032   -9.1558 C   0  0  0  0  0  0  0  0  0  0  0  0
  -14.5313  -38.1127   -8.1653 N   0  0  0  0  0  0  0  0  0  0  0  0
  -15.9589  -38.1937   -8.1725 C   0  0  0  0  0  0  0  0  0  0  0  0
  -16.5824  -38.7535   -6.9365 C   0  0  1  0  0  0  0  0  0  0  0  0
  -16.9820  -37.6939   -6.1247 O   0  0  0  0  0  0  0  0  0  0  0  0
  -17.6956  -39.7437   -7.1732 C   0  0  2  0  0  0  0  0  0  0  0  0
  -17.9549  -40.5101   -5.9026 C   0  0  0  0  0  0  0  0  0  0  0  0
  -19.2989  -40.1328   -5.3138 C   0  0  2  0  0  0  0  0  0  0  0  0
  -19.3818  -40.5671   -3.8668 C   0  0  0  0  0  0  0  0  0  0  0  0
  -20.8719  -40.5634   -3.6118 C   0  0  0  0  0  0  0  0  0  0  0  0
  -21.4336  -41.1555   -4.8747 C   0  0  2  0  0  0  0  0  0  0  0  0
  -21.8567  -42.6073   -4.7057 C   0  0  0  0  0  0  0  0  0  0  0  0
  -23.1172  -42.8894   -5.4320 C   0  0  0  0  0  0  0  0  0  0  0  0
  -23.0493  -43.0319   -6.9000 C   0  0  0  0  0  0  0  0  0  0  0  0
  -22.7282  -44.4082   -7.4192 C   0  0  0  0  0  0  0  0  0  0  0  0
  -22.7235  -44.3371   -8.9317 C   0  0  0  0  0  0  0  0  0  0  0  0
  -22.5433  -42.9899   -9.4230 N   0  0  0  0  0  0  0  0  0  0  0  0
  -21.3887  -42.2439   -9.7953 C   0  0  0  0  0  0  0  0  0  0  0  0
  -21.6534  -41.4833  -10.9696 C   0  0  0  0  0  0  0  0  0  0  0  0
  -20.7576  -40.6521  -11.5706 C   0  0  0  0  0  0  0  0  0  0  0  0
  -19.5351  -40.5781  -10.9644 C   0  0  0  0  0  0  0  0  0  0  0  0
  -19.1957  -41.3033   -9.7921 C   0  0  0  0  0  0  0  0  0  0  0  0
  -20.1377  -42.1291   -9.2281 C   0  0  0  0  0  0  0  0  0  0  0  0
  -17.8158  -40.9730   -9.4153 C   0  0  0  0  0  0  0  0  0  0  0  0
  -16.9005  -40.8931  -10.3705 O   0  0  0  0  0  0  0  0  0  0  0  0
  -17.2145  -40.6995   -8.1587 N   0  0  0  0  0  0  0  0  0  0  0  0
  -21.1073  -39.8918  -12.7962 C   0  0  0  0  0  0  0  0  0  0  0  0
  -22.4994  -39.9650  -12.9116 F   0  0  0  0  0  0  0  0  0  0  0  0
  -20.5057  -40.4304  -13.9011 F   0  0  0  0  0  0  0  0  0  0  0  0
  -20.7985  -38.5824  -12.5787 F   0  0  0  0  0  0  0  0  0  0  0  0
  -20.3620  -41.0205   -5.9322 C   0  0  0  0  0  0  0  0  0  0  0  0
  -13.8657  -39.3030  -11.6444 C   0  0  0  0  0  0  0  0  0  0  0  0
  -14.2197  -38.8881  -12.9081 C   0  0  0  0  0  0  0  0  0  0  0  0
  -14.9988  -37.7647  -13.0856 C   0  0  0  0  0  0  0  0  0  0  0  0
  1  2  1  0
  2  3  1  0
  2  4  1  0
  4  5  2  0
  5  6  1  0
  6  7  1  0
  7  8  1  0
  8  9  1  0
  9 10  1  0
 10 11  1  1
 10 12  1  0
 12 13  1  1
 14 13  1  6
 14 15  1  0
 15 16  1  0
 17 16  1  1
 17 18  1  0
 18 19  1  0
 19 20  1  0
 20 21  1  0
 21 22  1  0
 22 23  1  0
 23 24  1  0
 24 25  2  0
 25 26  1  0
 26 27  2  0
 27 28  1  0
 28 29  2  0
 28 30  1  0
 30 31  2  0
 30 32  1  0
 26 33  1  0
 33 34  1  0
 33 35  1  0
 33 36  1  0
 17 37  1  0
  6 38  2  0
 38 39  1  0
 39 40  2  0
 29 24  1  0
 32 12  1  0
 37 14  1  0
 40  4  1  0
M  END
$$$$
