
     RDKit          3D

 40 43  0  0  0  0  0  0  0  0999 V2000
  -13.7787  -34.3594  -12.3005 C   0  0  0  0  0  0  0  0  0  0  0  0
  -14.4577  -35.5966  -12.8165 C   0  0  0  0  0  0  0  0  0  0  0  0
  -14.0213  -35.8083  -14.2707 C   0  0  0  0  0  0  0  0  0  0  0  0
  -14.1736  -36.7918  -11.9989 C   0  0  0  0  0  0  0  0  0  0  0  0
  -14.4229  -36.8817  -10.6466 C   0  0  0  0  0  0  0  0  0  0  0  0
  -14.1537  -37.9987   -9.9024 C   0  0  0  0  0  0  0  0  0  0  0  0
  -14.4511  -38.0267   -8.4330 C   0  0  0  0  0  0  0  0  0  0  0  0
  -14.0035  -39.2812   -7.8348 N   0  0  0  0  0  0  0  0  0  0  0  0
  -15.0985  -40.1598   -7.5629 C   0  0  0  0  0  0  0  0  0  0  0  0
  -16.2954  -39.5276   -6.9326 C   0  0  1  0  0  0  0  0  0  0  0  0
  -16.3231  -38.1810   -7.2898 O   0  0  0  0  0  0  0  0  0  0  0  0
  -17.6064  -40.2200   -7.2112 C   0  0  2  0  0  0  0  0  0  0  0  0
  -18.1923  -40.7113   -5.9134 C   0  0  0  0  0  0  0  0  0  0  0  0
  -19.4351  -39.9228   -5.5538 C   0  0  2  0  0  0  0  0  0  0  0  0
  -19.7797  -40.1179   -4.0934 C   0  0  0  0  0  0  0  0  0  0  0  0
  -21.2302  -39.6949   -4.0430 C   0  0  0  0  0  0  0  0  0  0  0  0
  -21.8009  -40.2899   -5.3005 C   0  0  2  0  0  0  0  0  0  0  0  0
  -22.6186  -41.5460   -5.0379 C   0  0  0  0  0  0  0  0  0  0  0  0
  -23.8278  -41.5906   -5.8934 C   0  0  0  0  0  0  0  0  0  0  0  0
  -23.6527  -41.9462   -7.3156 C   0  0  0  0  0  0  0  0  0  0  0  0
  -23.6681  -43.4166   -7.6389 C   0  0  0  0  0  0  0  0  0  0  0  0
  -23.4907  -43.5578   -9.1360 C   0  0  0  0  0  0  0  0  0  0  0  0
  -22.9012  -42.3835   -9.7378 N   0  0  0  0  0  0  0  0  0  0  0  0
  -21.5554  -42.0190  -10.0280 C   0  0  0  0  0  0  0  0  0  0  0  0
  -21.4821  -41.3849  -11.3008 C   0  0  0  0  0  0  0  0  0  0  0  0
  -20.3374  -40.9037  -11.8601 C   0  0  0  0  0  0  0  0  0  0  0  0
  -19.2091  -41.0649  -11.1061 C   0  0  0  0  0  0  0  0  0  0  0  0
  -19.2011  -41.6847   -9.8290 C   0  0  0  0  0  0  0  0  0  0  0  0
  -20.3847  -42.1540   -9.3130 C   0  0  0  0  0  0  0  0  0  0  0  0
  -17.8290  -41.6729   -9.3069 C   0  0  0  0  0  0  0  0  0  0  0  0
  -16.8346  -41.9640  -10.1333 O   0  0  0  0  0  0  0  0  0  0  0  0
  -17.3067  -41.3937   -8.0167 N   0  0  0  0  0  0  0  0  0  0  0  0
  -20.3404  -40.2550  -13.1948 C   0  0  0  0  0  0  0  0  0  0  0  0
  -20.2354  -38.8808  -12.9562 F   0  0  0  0  0  0  0  0  0  0  0  0
  -21.4918  -40.5361  -13.8790 F   0  0  0  0  0  0  0  0  0  0  0  0
  -19.2028  -40.6299  -13.8448 F   0  0  0  0  0  0  0  0  0  0  0  0
  -20.6315  -40.5826   -6.2125 C   0  0  0  0  0  0  0  0  0  0  0  0
  -13.6020  -39.1003  -10.5339 C   0  0  0  0  0  0  0  0  0  0  0  0
  -13.3407  -39.0428  -11.8840 C   0  0  0  0  0  0  0  0  0  0  0  0
  -13.6234  -37.9027  -12.6058 C   0  0  0  0  0  0  0  0  0  0  0  0
  1  2  1  0
  2  3  1  0
  2  4  1  0
  4  5  2  0
  5  6  1  0
  6  7  1  0
  7  8  1  0
  8  9  1  0
  9 10  1  0
 10 11  1  6
 10 12  1  0
 12 13  1  1
 14 13  1  6
 14 15  1  0
 15 16  1  0
 17 16  1  1
 17 18  1  0
 18 19  1  0
 19 20  1  0
 20 21  1  0
 21 22  1  0
 22 23  1  0
 23 24  1  0
 24 25  2  0
 25 26  1  0
 26 27  2  0
 27 28  1  0
 28 29  2  0
 28 30  1  0
 30 31  2  0
 30 32  1  0
 26 33  1  0
 33 34  1  0
 33 35  1  0
 33 36  1  0
 17 37  1  0
  6 38  2  0
 38 39  1  0
 39 40  2  0
 29 24  1  0
 32 12  1  0
 37 14  1  0
 40  4  1  0
M  END
$$$$
