
     RDKit          3D

 40 43  0  0  0  0  0  0  0  0999 V2000
  -21.7993  -42.5495   -6.0081 C   0  0  0  0  0  0  0  0  0  0  0  0
  -22.5666  -41.2738   -6.2125 C   0  0  0  0  0  0  0  0  0  0  0  0
  -23.0469  -40.7819   -4.8423 C   0  0  0  0  0  0  0  0  0  0  0  0
  -21.7794  -40.2337   -6.9026 C   0  0  0  0  0  0  0  0  0  0  0  0
  -20.7204  -39.5598   -6.3341 C   0  0  0  0  0  0  0  0  0  0  0  0
  -19.9997  -38.5973   -6.9885 C   0  0  0  0  0  0  0  0  0  0  0  0
  -18.8579  -37.9037   -6.3077 C   0  0  0  0  0  0  0  0  0  0  0  0
  -17.7276  -37.7447   -7.2181 N   0  0  0  0  0  0  0  0  0  0  0  0
  -16.5837  -38.4811   -6.7775 C   0  0  0  0  0  0  0  0  0  0  0  0
  -15.2721  -38.0359   -7.3353 C   0  0  1  0  0  0  0  0  0  0  0  0
  -14.2552  -38.5328   -6.5226 O   0  0  0  0  0  0  0  0  0  0  0  0
  -15.0516  -38.3630   -8.7914 C   0  0  2  0  0  0  0  0  0  0  0  0
  -14.5587  -37.1321   -9.5061 C   0  0  0  0  0  0  0  0  0  0  0  0
  -13.1121  -37.2985   -9.9248 C   0  0  2  0  0  0  0  0  0  0  0  0
  -12.5011  -35.9550  -10.2576 C   0  0  0  0  0  0  0  0  0  0  0  0
  -11.2954  -36.3424  -11.0832 C   0  0  0  0  0  0  0  0  0  0  0  0
  -11.8209  -37.4524  -11.9508 C   0  0  2  0  0  0  0  0  0  0  0  0
  -12.0988  -37.0019  -13.3774 C   0  0  0  0  0  0  0  0  0  0  0  0
  -11.7000  -38.0394  -14.3576 C   0  0  0  0  0  0  0  0  0  0  0  0
  -12.5773  -39.2171  -14.5094 C   0  0  0  0  0  0  0  0  0  0  0  0
  -13.7130  -39.0771  -15.4879 C   0  0  0  0  0  0  0  0  0  0  0  0
  -14.4695  -40.3887  -15.5017 C   0  0  0  0  0  0  0  0  0  0  0  0
  -14.2326  -41.1780  -14.3145 N   0  0  0  0  0  0  0  0  0  0  0  0
  -14.9120  -41.2732  -13.0664 C   0  0  0  0  0  0  0  0  0  0  0  0
  -14.9809  -42.6324  -12.6476 C   0  0  0  0  0  0  0  0  0  0  0  0
  -15.5538  -43.0556  -11.4868 C   0  0  0  0  0  0  0  0  0  0  0  0
  -16.0837  -42.0675  -10.7055 C   0  0  0  0  0  0  0  0  0  0  0  0
  -16.0533  -40.6915  -11.0532 C   0  0  0  0  0  0  0  0  0  0  0  0
  -15.4640  -40.3204  -12.2374 C   0  0  0  0  0  0  0  0  0  0  0  0
  -16.6974  -39.9197   -9.9833 C   0  0  0  0  0  0  0  0  0  0  0  0
  -17.8150  -40.3898   -9.4481 O   0  0  0  0  0  0  0  0  0  0  0  0
  -16.3506  -38.6941   -9.3561 N   0  0  0  0  0  0  0  0  0  0  0  0
  -15.5883  -44.4929  -11.1187 C   0  0  0  0  0  0  0  0  0  0  0  0
  -14.3868  -45.0388  -11.5823 F   0  0  0  0  0  0  0  0  0  0  0  0
  -16.6562  -45.1256  -11.6948 F   0  0  0  0  0  0  0  0  0  0  0  0
  -15.5604  -44.5774   -9.7588 F   0  0  0  0  0  0  0  0  0  0  0  0
  -13.0786  -37.9646  -11.2870 C   0  0  0  0  0  0  0  0  0  0  0  0
  -20.3467  -38.2783   -8.2903 C   0  0  0  0  0  0  0  0  0  0  0  0
  -21.3999  -38.9331   -8.8871 C   0  0  0  0  0  0  0  0  0  0  0  0
  -22.1061  -39.8980   -8.2009 C   0  0  0  0  0  0  0  0  0  0  0  0
  1  2  1  0
  2  3  1  0
  2  4  1  0
  4  5  2  0
  5  6  1  0
  6  7  1  0
  7  8  1  0
  8  9  1  0
  9 10  1  0
 10 11  1  1
 10 12  1  0
 12 13  1  6
 14 13  1  6
 14 15  1  0
 15 16  1  0
 17 16  1  1
 17 18  1  0
 18 19  1  0
 19 20  1  0
 20 21  1  0
 21 22  1  0
 22 23  1  0
 23 24  1  0
 24 25  2  0
 25 26  1  0
 26 27  2  0
 27 28  1  0
 28 29  2  0
 28 30  1  0
 30 31  2  0
 30 32  1  0
 26 33  1  0
 33 34  1  0
 33 35  1  0
 33 36  1  0
 17 37  1  0
  6 38  2  0
 38 39  1  0
 39 40  2  0
 29 24  1  0
 32 12  1  0
 37 14  1  0
 40  4  1  0
M  END
$$$$
