
     RDKit          3D

 40 43  0  0  0  0  0  0  0  0999 V2000
  -13.6728  -34.5343  -13.5436 C   0  0  0  0  0  0  0  0  0  0  0  0
  -12.7629  -35.7176  -13.7159 C   0  0  0  0  0  0  0  0  0  0  0  0
  -11.3499  -35.2973  -13.2955 C   0  0  0  0  0  0  0  0  0  0  0  0
  -13.2106  -36.9023  -12.9585 C   0  0  0  0  0  0  0  0  0  0  0  0
  -13.1284  -37.0213  -11.5881 C   0  0  0  0  0  0  0  0  0  0  0  0
  -13.5490  -38.1277  -10.9003 C   0  0  0  0  0  0  0  0  0  0  0  0
  -13.4293  -38.1892   -9.4069 C   0  0  0  0  0  0  0  0  0  0  0  0
  -14.1880  -39.3150   -8.8694 N   0  0  0  0  0  0  0  0  0  0  0  0
  -15.5979  -39.1166   -9.0028 C   0  0  0  0  0  0  0  0  0  0  0  0
  -16.3251  -38.7688   -7.7459 C   0  0  1  0  0  0  0  0  0  0  0  0
  -16.7943  -37.4613   -7.8546 O   0  0  0  0  0  0  0  0  0  0  0  0
  -17.4128  -39.7352   -7.3474 C   0  0  2  0  0  0  0  0  0  0  0  0
  -18.2845  -39.0946   -6.2992 C   0  0  0  0  0  0  0  0  0  0  0  0
  -19.6605  -38.7933   -6.8573 C   0  0  2  0  0  0  0  0  0  0  0  0
  -20.3832  -37.8012   -5.9725 C   0  0  0  0  0  0  0  0  0  0  0  0
  -21.8263  -37.9949   -6.3793 C   0  0  0  0  0  0  0  0  0  0  0  0
  -21.9412  -39.4874   -6.5217 C   0  0  2  0  0  0  0  0  0  0  0  0
  -22.6494  -40.1376   -5.3423 C   0  0  0  0  0  0  0  0  0  0  0  0
  -23.5500  -41.2266   -5.7881 C   0  0  0  0  0  0  0  0  0  0  0  0
  -22.9360  -42.5090   -6.1858 C   0  0  0  0  0  0  0  0  0  0  0  0
  -22.6886  -43.4983   -5.0781 C   0  0  0  0  0  0  0  0  0  0  0  0
  -22.0757  -44.7361   -5.6984 C   0  0  0  0  0  0  0  0  0  0  0  0
  -21.4783  -44.4726   -6.9877 N   0  0  0  0  0  0  0  0  0  0  0  0
  -20.1571  -44.1207   -7.3863 C   0  0  0  0  0  0  0  0  0  0  0  0
  -19.7967  -44.8272   -8.5689 C   0  0  0  0  0  0  0  0  0  0  0  0
  -18.6034  -44.6993   -9.2126 C   0  0  0  0  0  0  0  0  0  0  0  0
  -17.7269  -43.8186   -8.6435 C   0  0  0  0  0  0  0  0  0  0  0  0
  -18.0128  -43.0769   -7.4674 C   0  0  0  0  0  0  0  0  0  0  0  0
  -19.2322  -43.2461   -6.8576 C   0  0  0  0  0  0  0  0  0  0  0  0
  -16.8581  -42.2266   -7.1529 C   0  0  0  0  0  0  0  0  0  0  0  0
  -15.6423  -42.7411   -7.2700 O   0  0  0  0  0  0  0  0  0  0  0  0
  -16.7622  -40.8768   -6.7234 N   0  0  0  0  0  0  0  0  0  0  0  0
  -18.2995  -45.4724  -10.4423 C   0  0  0  0  0  0  0  0  0  0  0  0
  -17.8149  -46.7111  -10.0095 F   0  0  0  0  0  0  0  0  0  0  0  0
  -17.3641  -44.8334  -11.2100 F   0  0  0  0  0  0  0  0  0  0  0  0
  -19.4760  -45.7132  -11.0866 F   0  0  0  0  0  0  0  0  0  0  0  0
  -20.5343  -40.0192   -6.6723 C   0  0  0  0  0  0  0  0  0  0  0  0
  -14.0864  -39.1871  -11.6114 C   0  0  0  0  0  0  0  0  0  0  0  0
  -14.1825  -39.0997  -12.9816 C   0  0  0  0  0  0  0  0  0  0  0  0
  -13.7499  -37.9714  -13.6451 C   0  0  0  0  0  0  0  0  0  0  0  0
  1  2  1  0
  2  3  1  0
  2  4  1  0
  4  5  2  0
  5  6  1  0
  6  7  1  0
  7  8  1  0
  8  9  1  0
  9 10  1  0
 10 11  1  6
 10 12  1  0
 12 13  1  1
 14 13  1  1
 14 15  1  0
 15 16  1  0
 17 16  1  1
 17 18  1  0
 18 19  1  0
 19 20  1  0
 20 21  1  0
 21 22  1  0
 22 23  1  0
 23 24  1  0
 24 25  2  0
 25 26  1  0
 26 27  2  0
 27 28  1  0
 28 29  2  0
 28 30  1  0
 30 31  2  0
 30 32  1  0
 26 33  1  0
 33 34  1  0
 33 35  1  0
 33 36  1  0
 17 37  1  0
  6 38  2  0
 38 39  1  0
 39 40  2  0
 29 24  1  0
 32 12  1  0
 37 14  1  0
 40  4  1  0
M  END
$$$$
