
     RDKit          3D

 40 43  0  0  0  0  0  0  0  0999 V2000
  -12.2474  -33.7044  -12.3466 C   0  0  0  0  0  0  0  0  0  0  0  0
  -12.1710  -34.4140  -11.0242 C   0  0  0  0  0  0  0  0  0  0  0  0
  -13.2873  -33.8690  -10.1259 C   0  0  0  0  0  0  0  0  0  0  0  0
  -12.2635  -35.8812  -11.1529 C   0  0  0  0  0  0  0  0  0  0  0  0
  -13.4475  -36.5736  -11.2847 C   0  0  0  0  0  0  0  0  0  0  0  0
  -13.5159  -37.9356  -11.4036 C   0  0  0  0  0  0  0  0  0  0  0  0
  -14.8405  -38.6241  -11.5437 C   0  0  0  0  0  0  0  0  0  0  0  0
  -15.7795  -38.1587  -10.5271 N   0  0  0  0  0  0  0  0  0  0  0  0
  -15.9259  -39.1064   -9.4664 C   0  0  0  0  0  0  0  0  0  0  0  0
  -16.8013  -38.6814   -8.3338 C   0  0  1  0  0  0  0  0  0  0  0  0
  -17.5164  -37.5524   -8.7282 O   0  0  0  0  0  0  0  0  0  0  0  0
  -17.6972  -39.7602   -7.7775 C   0  0  2  0  0  0  0  0  0  0  0  0
  -18.4904  -39.1999   -6.6261 C   0  0  0  0  0  0  0  0  0  0  0  0
  -19.9561  -39.0825   -6.9915 C   0  0  2  0  0  0  0  0  0  0  0  0
  -20.6684  -38.1601   -6.0266 C   0  0  0  0  0  0  0  0  0  0  0  0
  -22.1184  -38.5376   -6.2273 C   0  0  0  0  0  0  0  0  0  0  0  0
  -22.0667  -40.0365   -6.3353 C   0  0  2  0  0  0  0  0  0  0  0  0
  -22.5222  -40.7337   -5.0619 C   0  0  0  0  0  0  0  0  0  0  0  0
  -23.3340  -41.9355   -5.3662 C   0  0  0  0  0  0  0  0  0  0  0  0
  -22.6265  -43.1453   -5.8304 C   0  0  0  0  0  0  0  0  0  0  0  0
  -22.1107  -44.0658   -4.7564 C   0  0  0  0  0  0  0  0  0  0  0  0
  -21.4400  -45.2378   -5.4415 C   0  0  0  0  0  0  0  0  0  0  0  0
  -21.0607  -44.9408   -6.8040 N   0  0  0  0  0  0  0  0  0  0  0  0
  -19.8595  -44.4437   -7.3858 C   0  0  0  0  0  0  0  0  0  0  0  0
  -19.5791  -45.1348   -8.5987 C   0  0  0  0  0  0  0  0  0  0  0  0
  -18.5094  -44.8823   -9.4029 C   0  0  0  0  0  0  0  0  0  0  0  0
  -17.6790  -43.8867   -8.9709 C   0  0  0  0  0  0  0  0  0  0  0  0
  -17.8914  -43.1518   -7.7750 C   0  0  0  0  0  0  0  0  0  0  0  0
  -18.9862  -43.4495   -7.0003 C   0  0  0  0  0  0  0  0  0  0  0  0
  -16.8183  -42.1600   -7.6332 C   0  0  0  0  0  0  0  0  0  0  0  0
  -15.5757  -42.5273   -7.9118 O   0  0  0  0  0  0  0  0  0  0  0  0
  -16.8320  -40.7969   -7.2366 N   0  0  0  0  0  0  0  0  0  0  0  0
  -18.2828  -45.6477  -10.6540 C   0  0  0  0  0  0  0  0  0  0  0  0
  -17.7460  -46.8783  -10.2616 F   0  0  0  0  0  0  0  0  0  0  0  0
  -17.4175  -44.9907  -11.4861 F   0  0  0  0  0  0  0  0  0  0  0  0
  -19.4989  -45.9082  -11.2113 F   0  0  0  0  0  0  0  0  0  0  0  0
  -20.6387  -40.3990   -6.6733 C   0  0  0  0  0  0  0  0  0  0  0  0
  -12.3380  -38.6631  -11.3916 C   0  0  0  0  0  0  0  0  0  0  0  0
  -11.1382  -38.0015  -11.2614 C   0  0  0  0  0  0  0  0  0  0  0  0
  -11.1029  -36.6284  -11.1436 C   0  0  0  0  0  0  0  0  0  0  0  0
  1  2  1  0
  2  3  1  0
  2  4  1  0
  4  5  2  0
  5  6  1  0
  6  7  1  0
  7  8  1  0
  8  9  1  0
  9 10  1  0
 10 11  1  6
 10 12  1  0
 12 13  1  1
 14 13  1  1
 14 15  1  0
 15 16  1  0
 17 16  1  1
 17 18  1  0
 18 19  1  0
 19 20  1  0
 20 21  1  0
 21 22  1  0
 22 23  1  0
 23 24  1  0
 24 25  2  0
 25 26  1  0
 26 27  2  0
 27 28  1  0
 28 29  2  0
 28 30  1  0
 30 31  2  0
 30 32  1  0
 26 33  1  0
 33 34  1  0
 33 35  1  0
 33 36  1  0
 17 37  1  0
  6 38  2  0
 38 39  1  0
 39 40  2  0
 29 24  1  0
 32 12  1  0
 37 14  1  0
 40  4  1  0
M  END
$$$$
