
     RDKit          3D

 40 43  0  0  0  0  0  0  0  0999 V2000
  -16.5204  -32.6985  -11.6699 C   0  0  0  0  0  0  0  0  0  0  0  0
  -17.3973  -33.6661  -12.4133 C   0  0  0  0  0  0  0  0  0  0  0  0
  -16.5496  -34.3415  -13.4974 C   0  0  0  0  0  0  0  0  0  0  0  0
  -18.0248  -34.6684  -11.5305 C   0  0  0  0  0  0  0  0  0  0  0  0
  -17.3874  -35.2711  -10.4678 C   0  0  0  0  0  0  0  0  0  0  0  0
  -17.9843  -36.1993   -9.6577 C   0  0  0  0  0  0  0  0  0  0  0  0
  -17.2299  -36.8152   -8.5176 C   0  0  0  0  0  0  0  0  0  0  0  0
  -17.1540  -38.2658   -8.6665 N   0  0  0  0  0  0  0  0  0  0  0  0
  -15.8703  -38.7713   -8.2907 C   0  0  0  0  0  0  0  0  0  0  0  0
  -15.8803  -39.9240   -7.3415 C   0  0  1  0  0  0  0  0  0  0  0  0
  -16.2114  -39.4492   -6.0739 O   0  0  0  0  0  0  0  0  0  0  0  0
  -16.7427  -41.0893   -7.7586 C   0  0  2  0  0  0  0  0  0  0  0  0
  -15.9806  -41.9436   -8.7376 C   0  0  0  0  0  0  0  0  0  0  0  0
  -15.6186  -43.2774   -8.1167 C   0  0  2  0  0  0  0  0  0  0  0  0
  -14.5268  -43.9532   -8.9172 C   0  0  0  0  0  0  0  0  0  0  0  0
  -14.6438  -45.3937   -8.4739 C   0  0  0  0  0  0  0  0  0  0  0  0
  -16.1306  -45.6108   -8.4150 C   0  0  2  0  0  0  0  0  0  0  0  0
  -16.6572  -46.3983   -9.6057 C   0  0  0  0  0  0  0  0  0  0  0  0
  -17.7059  -47.3609   -9.1939 C   0  0  0  0  0  0  0  0  0  0  0  0
  -19.0497  -46.8286   -8.8928 C   0  0  0  0  0  0  0  0  0  0  0  0
  -19.9849  -46.6856  -10.0640 C   0  0  0  0  0  0  0  0  0  0  0  0
  -21.2977  -46.1447   -9.5380 C   0  0  0  0  0  0  0  0  0  0  0  0
  -21.1550  -45.4920   -8.2565 N   0  0  0  0  0  0  0  0  0  0  0  0
  -20.9208  -44.1378   -7.8830 C   0  0  0  0  0  0  0  0  0  0  0  0
  -21.7210  -43.7940   -6.7565 C   0  0  0  0  0  0  0  0  0  0  0  0
  -21.7157  -42.5761   -6.1471 C   0  0  0  0  0  0  0  0  0  0  0  0
  -20.8654  -41.6561   -6.6931 C   0  0  0  0  0  0  0  0  0  0  0  0
  -20.0356  -41.9229   -7.8137 C   0  0  0  0  0  0  0  0  0  0  0  0
  -20.0823  -43.1688   -8.3908 C   0  0  0  0  0  0  0  0  0  0  0  0
  -19.2503  -40.7202   -8.1169 C   0  0  0  0  0  0  0  0  0  0  0  0
  -19.8543  -39.5414   -8.0711 O   0  0  0  0  0  0  0  0  0  0  0  0
  -17.8869  -40.5407   -8.4699 N   0  0  0  0  0  0  0  0  0  0  0  0
  -22.5812  -42.2920   -4.9756 C   0  0  0  0  0  0  0  0  0  0  0  0
  -21.8396  -42.6629   -3.8491 F   0  0  0  0  0  0  0  0  0  0  0  0
  -23.7476  -43.0049   -5.0377 F   0  0  0  0  0  0  0  0  0  0  0  0
  -22.7584  -40.9427   -4.9036 F   0  0  0  0  0  0  0  0  0  0  0  0
  -16.7672  -44.2417   -8.3433 C   0  0  0  0  0  0  0  0  0  0  0  0
  -19.2972  -36.5569   -9.9129 C   0  0  0  0  0  0  0  0  0  0  0  0
  -19.9622  -35.9733  -10.9671 C   0  0  0  0  0  0  0  0  0  0  0  0
  -19.3329  -35.0414  -11.7647 C   0  0  0  0  0  0  0  0  0  0  0  0
  1  2  1  0
  2  3  1  0
  2  4  1  0
  4  5  2  0
  5  6  1  0
  6  7  1  0
  7  8  1  0
  8  9  1  0
  9 10  1  0
 10 11  1  1
 10 12  1  0
 12 13  1  6
 14 13  1  6
 14 15  1  0
 15 16  1  0
 17 16  1  6
 17 18  1  0
 18 19  1  0
 19 20  1  0
 20 21  1  0
 21 22  1  0
 22 23  1  0
 23 24  1  0
 24 25  2  0
 25 26  1  0
 26 27  2  0
 27 28  1  0
 28 29  2  0
 28 30  1  0
 30 31  2  0
 30 32  1  0
 26 33  1  0
 33 34  1  0
 33 35  1  0
 33 36  1  0
 17 37  1  0
  6 38  2  0
 38 39  1  0
 39 40  2  0
 29 24  1  0
 32 12  1  0
 37 14  1  0
 40  4  1  0
M  END
$$$$
