
     RDKit          3D

 40 43  0  0  0  0  0  0  0  0999 V2000
  -13.2550  -33.9874  -11.9954 C   0  0  0  0  0  0  0  0  0  0  0  0
  -14.5867  -34.5807  -11.6313 C   0  0  0  0  0  0  0  0  0  0  0  0
  -15.6675  -33.8625  -12.4474 C   0  0  0  0  0  0  0  0  0  0  0  0
  -14.6437  -36.0398  -11.8448 C   0  0  0  0  0  0  0  0  0  0  0  0
  -14.1565  -36.9719  -10.9545 C   0  0  0  0  0  0  0  0  0  0  0  0
  -14.2177  -38.3228  -11.1676 C   0  0  0  0  0  0  0  0  0  0  0  0
  -13.6669  -39.2811  -10.1544 C   0  0  0  0  0  0  0  0  0  0  0  0
  -14.7434  -39.9235   -9.4059 N   0  0  0  0  0  0  0  0  0  0  0  0
  -14.8115  -39.4466   -8.0595 C   0  0  0  0  0  0  0  0  0  0  0  0
  -16.1265  -38.8778   -7.6393 C   0  0  1  0  0  0  0  0  0  0  0  0
  -16.5284  -37.9440   -8.5922 O   0  0  0  0  0  0  0  0  0  0  0  0
  -17.2008  -39.8961   -7.3482 C   0  0  2  0  0  0  0  0  0  0  0  0
  -18.0686  -39.3927   -6.2246 C   0  0  0  0  0  0  0  0  0  0  0  0
  -19.4528  -39.0428   -6.7318 C   0  0  2  0  0  0  0  0  0  0  0  0
  -20.1767  -38.1696   -5.7304 C   0  0  0  0  0  0  0  0  0  0  0  0
  -21.6217  -38.3298   -6.1450 C   0  0  0  0  0  0  0  0  0  0  0  0
  -21.7232  -39.7963   -6.4611 C   0  0  2  0  0  0  0  0  0  0  0  0
  -22.4136  -40.5884   -5.3605 C   0  0  0  0  0  0  0  0  0  0  0  0
  -23.3078  -41.6272   -5.9238 C   0  0  0  0  0  0  0  0  0  0  0  0
  -22.6850  -42.8472   -6.4747 C   0  0  0  0  0  0  0  0  0  0  0  0
  -22.4173  -43.9571   -5.4931 C   0  0  0  0  0  0  0  0  0  0  0  0
  -21.7983  -45.1066   -6.2599 C   0  0  0  0  0  0  0  0  0  0  0  0
  -21.2159  -44.6868   -7.5142 N   0  0  0  0  0  0  0  0  0  0  0  0
  -19.9020  -44.2762   -7.8797 C   0  0  0  0  0  0  0  0  0  0  0  0
  -19.5461  -44.8348   -9.1402 C   0  0  0  0  0  0  0  0  0  0  0  0
  -18.3603  -44.6192   -9.7744 C   0  0  0  0  0  0  0  0  0  0  0  0
  -17.4871  -43.8020   -9.1130 C   0  0  0  0  0  0  0  0  0  0  0  0
  -17.7690  -43.2068   -7.8554 C   0  0  0  0  0  0  0  0  0  0  0  0
  -18.9808  -43.4599   -7.2595 C   0  0  0  0  0  0  0  0  0  0  0  0
  -16.6198  -42.3868   -7.4527 C   0  0  0  0  0  0  0  0  0  0  0  0
  -15.4002  -42.8707   -7.6398 O   0  0  0  0  0  0  0  0  0  0  0  0
  -16.5330  -41.0960   -6.8682 N   0  0  0  0  0  0  0  0  0  0  0  0
  -18.0607  -45.2390  -11.0890 C   0  0  0  0  0  0  0  0  0  0  0  0
  -18.8781  -44.5871  -12.0182 F   0  0  0  0  0  0  0  0  0  0  0  0
  -18.3266  -46.5813  -11.0752 F   0  0  0  0  0  0  0  0  0  0  0  0
  -16.7732  -44.9313  -11.4129 F   0  0  0  0  0  0  0  0  0  0  0  0
  -20.3127  -40.2914   -6.6850 C   0  0  0  0  0  0  0  0  0  0  0  0
  -14.7980  -38.7850  -12.3366 C   0  0  0  0  0  0  0  0  0  0  0  0
  -15.2942  -37.8796  -13.2467 C   0  0  0  0  0  0  0  0  0  0  0  0
  -15.2174  -36.5250  -13.0026 C   0  0  0  0  0  0  0  0  0  0  0  0
  1  2  1  0
  2  3  1  0
  2  4  1  0
  4  5  2  0
  5  6  1  0
  6  7  1  0
  7  8  1  0
  8  9  1  0
  9 10  1  0
 10 11  1  6
 10 12  1  0
 12 13  1  1
 14 13  1  1
 14 15  1  0
 15 16  1  0
 17 16  1  1
 17 18  1  0
 18 19  1  0
 19 20  1  0
 20 21  1  0
 21 22  1  0
 22 23  1  0
 23 24  1  0
 24 25  2  0
 25 26  1  0
 26 27  2  0
 27 28  1  0
 28 29  2  0
 28 30  1  0
 30 31  2  0
 30 32  1  0
 26 33  1  0
 33 34  1  0
 33 35  1  0
 33 36  1  0
 17 37  1  0
  6 38  2  0
 38 39  1  0
 39 40  2  0
 29 24  1  0
 32 12  1  0
 37 14  1  0
 40  4  1  0
M  END
$$$$
