
     RDKit          3D

 40 43  0  0  0  0  0  0  0  0999 V2000
  -19.0374  -37.2854  -13.2102 C   0  0  0  0  0  0  0  0  0  0  0  0
  -18.4690  -38.4578  -12.4617 C   0  0  0  0  0  0  0  0  0  0  0  0
  -18.9274  -39.7402  -13.1655 C   0  0  0  0  0  0  0  0  0  0  0  0
  -16.9982  -38.4111  -12.3512 C   0  0  0  0  0  0  0  0  0  0  0  0
  -16.3168  -38.1981  -11.1726 C   0  0  0  0  0  0  0  0  0  0  0  0
  -14.9511  -38.1581  -11.0871 C   0  0  0  0  0  0  0  0  0  0  0  0
  -14.2754  -37.9216   -9.7696 C   0  0  0  0  0  0  0  0  0  0  0  0
  -15.2555  -37.8229   -8.6919 N   0  0  0  0  0  0  0  0  0  0  0  0
  -15.6914  -39.1116   -8.2513 C   0  0  0  0  0  0  0  0  0  0  0  0
  -16.3315  -39.1531   -6.9030 C   0  0  1  0  0  0  0  0  0  0  0  0
  -16.7799  -37.8721   -6.5874 O   0  0  0  0  0  0  0  0  0  0  0  0
  -17.4115  -40.1935   -6.7389 C   0  0  2  0  0  0  0  0  0  0  0  0
  -18.2673  -39.8357   -5.5520 C   0  0  0  0  0  0  0  0  0  0  0  0
  -19.6523  -39.4131   -5.9977 C   0  0  2  0  0  0  0  0  0  0  0  0
  -20.3622  -38.6736   -4.8848 C   0  0  0  0  0  0  0  0  0  0  0  0
  -21.8113  -38.7683   -5.3049 C   0  0  0  0  0  0  0  0  0  0  0  0
  -21.9265  -40.1801   -5.8094 C   0  0  2  0  0  0  0  0  0  0  0  0
  -22.6151  -41.1048   -4.8164 C   0  0  0  0  0  0  0  0  0  0  0  0
  -23.5214  -42.0548   -5.5035 C   0  0  0  0  0  0  0  0  0  0  0  0
  -22.9121  -43.1963   -6.2144 C   0  0  0  0  0  0  0  0  0  0  0  0
  -22.6460  -44.4270   -5.3889 C   0  0  0  0  0  0  0  0  0  0  0  0
  -22.0415  -45.4704   -6.3046 C   0  0  0  0  0  0  0  0  0  0  0  0
  -21.4649  -44.8939   -7.4979 N   0  0  0  0  0  0  0  0  0  0  0  0
  -20.1506  -44.4479   -7.8172 C   0  0  0  0  0  0  0  0  0  0  0  0
  -19.8081  -44.8390   -9.1428 C   0  0  0  0  0  0  0  0  0  0  0  0
  -18.6253  -44.5501   -9.7530 C   0  0  0  0  0  0  0  0  0  0  0  0
  -17.7411  -43.8326   -8.9975 C   0  0  0  0  0  0  0  0  0  0  0  0
  -18.0092  -43.4054   -7.6705 C   0  0  0  0  0  0  0  0  0  0  0  0
  -19.2185  -43.7260   -7.1030 C   0  0  0  0  0  0  0  0  0  0  0  0
  -16.8507  -42.6530   -7.1734 C   0  0  0  0  0  0  0  0  0  0  0  0
  -15.6363  -43.1164   -7.4321 O   0  0  0  0  0  0  0  0  0  0  0  0
  -16.7497  -41.4504   -6.4257 N   0  0  0  0  0  0  0  0  0  0  0  0
  -18.3401  -44.9945  -11.1398 C   0  0  0  0  0  0  0  0  0  0  0  0
  -18.7648  -46.3251  -11.2138 F   0  0  0  0  0  0  0  0  0  0  0  0
  -17.0048  -44.9009  -11.4246 F   0  0  0  0  0  0  0  0  0  0  0  0
  -19.1386  -44.2789  -11.9811 F   0  0  0  0  0  0  0  0  0  0  0  0
  -20.5216  -40.6512   -6.1078 C   0  0  0  0  0  0  0  0  0  0  0  0
  -14.2081  -38.3402  -12.2410 C   0  0  0  0  0  0  0  0  0  0  0  0
  -14.8584  -38.5550  -13.4348 C   0  0  0  0  0  0  0  0  0  0  0  0
  -16.2355  -38.5898  -13.4877 C   0  0  0  0  0  0  0  0  0  0  0  0
  1  2  1  0
  2  3  1  0
  2  4  1  0
  4  5  2  0
  5  6  1  0
  6  7  1  0
  7  8  1  0
  8  9  1  0
  9 10  1  0
 10 11  1  6
 10 12  1  0
 12 13  1  1
 14 13  1  1
 14 15  1  0
 15 16  1  0
 17 16  1  1
 17 18  1  0
 18 19  1  0
 19 20  1  0
 20 21  1  0
 21 22  1  0
 22 23  1  0
 23 24  1  0
 24 25  2  0
 25 26  1  0
 26 27  2  0
 27 28  1  0
 28 29  2  0
 28 30  1  0
 30 31  2  0
 30 32  1  0
 26 33  1  0
 33 34  1  0
 33 35  1  0
 33 36  1  0
 17 37  1  0
  6 38  2  0
 38 39  1  0
 39 40  2  0
 29 24  1  0
 32 12  1  0
 37 14  1  0
 40  4  1  0
M  END
$$$$
