
     RDKit          3D

 40 43  0  0  0  0  0  0  0  0999 V2000
  -17.6478  -35.0639  -11.7801 C   0  0  0  0  0  0  0  0  0  0  0  0
  -16.1792  -35.3489  -11.9206 C   0  0  0  0  0  0  0  0  0  0  0  0
  -15.4457  -34.6484  -10.7711 C   0  0  0  0  0  0  0  0  0  0  0  0
  -15.8732  -36.7924  -11.9426 C   0  0  0  0  0  0  0  0  0  0  0  0
  -15.1414  -37.4434  -10.9733 C   0  0  0  0  0  0  0  0  0  0  0  0
  -14.8668  -38.7840  -11.0084 C   0  0  0  0  0  0  0  0  0  0  0  0
  -14.0632  -39.4273   -9.9181 C   0  0  0  0  0  0  0  0  0  0  0  0
  -14.9049  -40.2821   -9.0857 N   0  0  0  0  0  0  0  0  0  0  0  0
  -14.8764  -39.8804   -7.7137 C   0  0  0  0  0  0  0  0  0  0  0  0
  -16.1004  -39.1842   -7.2167 C   0  0  1  0  0  0  0  0  0  0  0  0
  -16.3654  -38.1040   -8.0562 O   0  0  0  0  0  0  0  0  0  0  0  0
  -17.3070  -40.0692   -7.0255 C   0  0  2  0  0  0  0  0  0  0  0  0
  -18.2374  -39.4290   -6.0288 C   0  0  0  0  0  0  0  0  0  0  0  0
  -19.5068  -38.9558   -6.7074 C   0  0  2  0  0  0  0  0  0  0  0  0
  -20.2401  -37.9688   -5.8258 C   0  0  0  0  0  0  0  0  0  0  0  0
  -21.6365  -37.9919   -6.4046 C   0  0  0  0  0  0  0  0  0  0  0  0
  -21.8625  -39.4514   -6.6867 C   0  0  2  0  0  0  0  0  0  0  0  0
  -22.7584  -40.1180   -5.6531 C   0  0  0  0  0  0  0  0  0  0  0  0
  -23.6911  -41.0788   -6.2878 C   0  0  0  0  0  0  0  0  0  0  0  0
  -23.1478  -42.3805   -6.7240 C   0  0  0  0  0  0  0  0  0  0  0  0
  -23.1194  -43.4698   -5.6850 C   0  0  0  0  0  0  0  0  0  0  0  0
  -22.5471  -44.7102   -6.3381 C   0  0  0  0  0  0  0  0  0  0  0  0
  -21.7813  -44.4085   -7.5260 N   0  0  0  0  0  0  0  0  0  0  0  0
  -20.3969  -44.1558   -7.7445 C   0  0  0  0  0  0  0  0  0  0  0  0
  -19.9621  -44.8022   -8.9364 C   0  0  0  0  0  0  0  0  0  0  0  0
  -18.6947  -44.7411   -9.4309 C   0  0  0  0  0  0  0  0  0  0  0  0
  -17.8185  -43.9940   -8.6949 C   0  0  0  0  0  0  0  0  0  0  0  0
  -18.1758  -43.3193   -7.4981 C   0  0  0  0  0  0  0  0  0  0  0  0
  -19.4685  -43.4164   -7.0435 C   0  0  0  0  0  0  0  0  0  0  0  0
  -16.9969  -42.6098   -6.9859 C   0  0  0  0  0  0  0  0  0  0  0  0
  -15.8249  -43.2281   -7.0119 O   0  0  0  0  0  0  0  0  0  0  0  0
  -16.8358  -41.3118   -6.4340 N   0  0  0  0  0  0  0  0  0  0  0  0
  -18.3161  -45.4446  -10.6815 C   0  0  0  0  0  0  0  0  0  0  0  0
  -16.9286  -45.6126  -10.6248 F   0  0  0  0  0  0  0  0  0  0  0  0
  -18.6659  -44.7149  -11.7851 F   0  0  0  0  0  0  0  0  0  0  0  0
  -18.8656  -46.6911  -10.6431 F   0  0  0  0  0  0  0  0  0  0  0  0
  -20.4991  -40.1028   -6.7263 C   0  0  0  0  0  0  0  0  0  0  0  0
  -15.3457  -39.5323  -12.0702 C   0  0  0  0  0  0  0  0  0  0  0  0
  -16.0801  -38.9121  -13.0552 C   0  0  0  0  0  0  0  0  0  0  0  0
  -16.3397  -37.5597  -12.9908 C   0  0  0  0  0  0  0  0  0  0  0  0
  1  2  1  0
  2  3  1  0
  2  4  1  0
  4  5  2  0
  5  6  1  0
  6  7  1  0
  7  8  1  0
  8  9  1  0
  9 10  1  0
 10 11  1  6
 10 12  1  0
 12 13  1  1
 14 13  1  1
 14 15  1  0
 15 16  1  0
 17 16  1  1
 17 18  1  0
 18 19  1  0
 19 20  1  0
 20 21  1  0
 21 22  1  0
 22 23  1  0
 23 24  1  0
 24 25  2  0
 25 26  1  0
 26 27  2  0
 27 28  1  0
 28 29  2  0
 28 30  1  0
 30 31  2  0
 30 32  1  0
 26 33  1  0
 33 34  1  0
 33 35  1  0
 33 36  1  0
 17 37  1  0
  6 38  2  0
 38 39  1  0
 39 40  2  0
 29 24  1  0
 32 12  1  0
 37 14  1  0
 40  4  1  0
M  END
$$$$
