
     RDKit          3D

 40 43  0  0  0  0  0  0  0  0999 V2000
  -10.6475  -35.4400  -12.4586 C   0  0  0  0  0  0  0  0  0  0  0  0
  -10.6538  -36.8560  -11.9557 C   0  0  0  0  0  0  0  0  0  0  0  0
  -10.1382  -36.8512  -10.5121 C   0  0  0  0  0  0  0  0  0  0  0  0
  -11.9833  -37.4905  -12.0413 C   0  0  0  0  0  0  0  0  0  0  0  0
  -13.0598  -37.1413  -11.2551 C   0  0  0  0  0  0  0  0  0  0  0  0
  -14.2874  -37.7399  -11.3475 C   0  0  0  0  0  0  0  0  0  0  0  0
  -15.4157  -37.3089  -10.4590 C   0  0  0  0  0  0  0  0  0  0  0  0
  -15.8985  -38.4254   -9.6515 N   0  0  0  0  0  0  0  0  0  0  0  0
  -17.2470  -38.2242   -9.2201 C   0  0  0  0  0  0  0  0  0  0  0  0
  -17.4948  -38.4107   -7.7595 C   0  0  1  0  0  0  0  0  0  0  0  0
  -18.0228  -37.2276   -7.2466 O   0  0  0  0  0  0  0  0  0  0  0  0
  -18.3321  -39.6132   -7.4008 C   0  0  2  0  0  0  0  0  0  0  0  0
  -19.2185  -39.2685   -6.2328 C   0  0  0  0  0  0  0  0  0  0  0  0
  -20.6701  -39.2035   -6.6622 C   0  0  2  0  0  0  0  0  0  0  0  0
  -21.4945  -38.4702   -5.6269 C   0  0  0  0  0  0  0  0  0  0  0  0
  -22.9009  -38.9156   -5.9571 C   0  0  0  0  0  0  0  0  0  0  0  0
  -22.7315  -40.3793   -6.2572 C   0  0  2  0  0  0  0  0  0  0  0  0
  -23.1926  -41.2709   -5.1137 C   0  0  0  0  0  0  0  0  0  0  0  0
  -23.8964  -42.4736   -5.6181 C   0  0  0  0  0  0  0  0  0  0  0  0
  -23.0786  -43.5587   -6.1957 C   0  0  0  0  0  0  0  0  0  0  0  0
  -22.5461  -44.5779   -5.2238 C   0  0  0  0  0  0  0  0  0  0  0  0
  -21.7576  -45.5984   -6.0172 C   0  0  0  0  0  0  0  0  0  0  0  0
  -21.3380  -45.0955   -7.3055 N   0  0  0  0  0  0  0  0  0  0  0  0
  -20.1516  -44.4437   -7.7482 C   0  0  0  0  0  0  0  0  0  0  0  0
  -19.7631  -44.9445   -9.0233 C   0  0  0  0  0  0  0  0  0  0  0  0
  -18.6789  -44.5136   -9.7256 C   0  0  0  0  0  0  0  0  0  0  0  0
  -17.9470  -43.5307   -9.1207 C   0  0  0  0  0  0  0  0  0  0  0  0
  -18.2703  -42.9797   -7.8529 C   0  0  0  0  0  0  0  0  0  0  0  0
  -19.3748  -43.4530   -7.1871 C   0  0  0  0  0  0  0  0  0  0  0  0
  -17.2828  -41.9449   -7.5220 C   0  0  0  0  0  0  0  0  0  0  0  0
  -16.0043  -42.1856   -7.7754 O   0  0  0  0  0  0  0  0  0  0  0  0
  -17.4177  -40.6517   -6.9520 N   0  0  0  0  0  0  0  0  0  0  0  0
  -18.3366  -45.0863  -11.0512 C   0  0  0  0  0  0  0  0  0  0  0  0
  -17.3055  -46.0030  -10.8208 F   0  0  0  0  0  0  0  0  0  0  0  0
  -17.9265  -44.1120  -11.9202 F   0  0  0  0  0  0  0  0  0  0  0  0
  -19.4106  -45.8030  -11.4873 F   0  0  0  0  0  0  0  0  0  0  0  0
  -21.2659  -40.5945   -6.5582 C   0  0  0  0  0  0  0  0  0  0  0  0
  -14.4651  -38.7504  -12.2772 C   0  0  0  0  0  0  0  0  0  0  0  0
  -13.4095  -39.1231  -13.0779 C   0  0  0  0  0  0  0  0  0  0  0  0
  -12.1852  -38.5004  -12.9604 C   0  0  0  0  0  0  0  0  0  0  0  0
  1  2  1  0
  2  3  1  0
  2  4  1  0
  4  5  2  0
  5  6  1  0
  6  7  1  0
  7  8  1  0
  8  9  1  0
  9 10  1  0
 10 11  1  6
 10 12  1  0
 12 13  1  1
 14 13  1  1
 14 15  1  0
 15 16  1  0
 17 16  1  1
 17 18  1  0
 18 19  1  0
 19 20  1  0
 20 21  1  0
 21 22  1  0
 22 23  1  0
 23 24  1  0
 24 25  2  0
 25 26  1  0
 26 27  2  0
 27 28  1  0
 28 29  2  0
 28 30  1  0
 30 31  2  0
 30 32  1  0
 26 33  1  0
 33 34  1  0
 33 35  1  0
 33 36  1  0
 17 37  1  0
  6 38  2  0
 38 39  1  0
 39 40  2  0
 29 24  1  0
 32 12  1  0
 37 14  1  0
 40  4  1  0
M  END
$$$$
