
     RDKit          3D

 40 43  0  0  0  0  0  0  0  0999 V2000
  -15.5847  -36.3050  -12.6788 C   0  0  0  0  0  0  0  0  0  0  0  0
  -14.1060  -36.5701  -12.6440 C   0  0  0  0  0  0  0  0  0  0  0  0
  -13.4641  -35.5641  -11.6818 C   0  0  0  0  0  0  0  0  0  0  0  0
  -13.7794  -37.9561  -12.2566 C   0  0  0  0  0  0  0  0  0  0  0  0
  -13.6697  -38.3902  -10.9534 C   0  0  0  0  0  0  0  0  0  0  0  0
  -13.3663  -39.6804  -10.6109 C   0  0  0  0  0  0  0  0  0  0  0  0
  -13.2628  -40.0835   -9.1703 C   0  0  0  0  0  0  0  0  0  0  0  0
  -13.6298  -38.9764   -8.2920 N   0  0  0  0  0  0  0  0  0  0  0  0
  -14.9714  -38.5385   -8.5225 C   0  0  0  0  0  0  0  0  0  0  0  0
  -15.8463  -38.4673   -7.3145 C   0  0  1  0  0  0  0  0  0  0  0  0
  -16.3520  -37.1730   -7.2114 O   0  0  0  0  0  0  0  0  0  0  0  0
  -16.9322  -39.5123   -7.2482 C   0  0  2  0  0  0  0  0  0  0  0  0
  -17.9718  -39.0830   -6.2463 C   0  0  0  0  0  0  0  0  0  0  0  0
  -19.2685  -38.7206   -6.9412 C   0  0  2  0  0  0  0  0  0  0  0  0
  -20.1545  -37.9135   -6.0177 C   0  0  0  0  0  0  0  0  0  0  0  0
  -21.5153  -38.0661   -6.6582 C   0  0  0  0  0  0  0  0  0  0  0  0
  -21.5382  -39.5135   -7.0651 C   0  0  2  0  0  0  0  0  0  0  0  0
  -22.3735  -40.3741   -6.1286 C   0  0  0  0  0  0  0  0  0  0  0  0
  -23.1500  -41.3894   -6.8785 C   0  0  0  0  0  0  0  0  0  0  0  0
  -22.4261  -42.5693   -7.3920 C   0  0  0  0  0  0  0  0  0  0  0  0
  -22.2902  -43.7298   -6.4425 C   0  0  0  0  0  0  0  0  0  0  0  0
  -21.5383  -44.8272   -7.1657 C   0  0  0  0  0  0  0  0  0  0  0  0
  -20.7788  -44.3307   -8.2906 N   0  0  0  0  0  0  0  0  0  0  0  0
  -19.4329  -43.8854   -8.4263 C   0  0  0  0  0  0  0  0  0  0  0  0
  -18.8769  -44.3678   -9.6452 C   0  0  0  0  0  0  0  0  0  0  0  0
  -17.6124  -44.1034  -10.0763 C   0  0  0  0  0  0  0  0  0  0  0  0
  -16.8673  -43.3152   -9.2449 C   0  0  0  0  0  0  0  0  0  0  0  0
  -17.3504  -42.7953   -8.0154 C   0  0  0  0  0  0  0  0  0  0  0  0
  -18.6339  -43.0951   -7.6281 C   0  0  0  0  0  0  0  0  0  0  0  0
  -16.2929  -41.9866   -7.3965 C   0  0  0  0  0  0  0  0  0  0  0  0
  -15.0497  -42.4454   -7.4192 O   0  0  0  0  0  0  0  0  0  0  0  0
  -16.3223  -40.7299   -6.7367 N   0  0  0  0  0  0  0  0  0  0  0  0
  -17.1025  -44.6445  -11.3606 C   0  0  0  0  0  0  0  0  0  0  0  0
  -17.4964  -45.9861  -11.3975 F   0  0  0  0  0  0  0  0  0  0  0  0
  -15.7398  -44.5428  -11.4342 F   0  0  0  0  0  0  0  0  0  0  0  0
  -17.7618  -44.0125  -12.3721 F   0  0  0  0  0  0  0  0  0  0  0  0
  -20.1005  -39.9793   -7.0953 C   0  0  0  0  0  0  0  0  0  0  0  0
  -13.1572  -40.6039  -11.6210 C   0  0  0  0  0  0  0  0  0  0  0  0
  -13.2593  -40.2022  -12.9334 C   0  0  0  0  0  0  0  0  0  0  0  0
  -13.5665  -38.8951  -13.2456 C   0  0  0  0  0  0  0  0  0  0  0  0
  1  2  1  0
  2  3  1  0
  2  4  1  0
  4  5  2  0
  5  6  1  0
  6  7  1  0
  7  8  1  0
  8  9  1  0
  9 10  1  0
 10 11  1  6
 10 12  1  0
 12 13  1  1
 14 13  1  1
 14 15  1  0
 15 16  1  0
 17 16  1  1
 17 18  1  0
 18 19  1  0
 19 20  1  0
 20 21  1  0
 21 22  1  0
 22 23  1  0
 23 24  1  0
 24 25  2  0
 25 26  1  0
 26 27  2  0
 27 28  1  0
 28 29  2  0
 28 30  1  0
 30 31  2  0
 30 32  1  0
 26 33  1  0
 33 34  1  0
 33 35  1  0
 33 36  1  0
 17 37  1  0
  6 38  2  0
 38 39  1  0
 39 40  2  0
 29 24  1  0
 32 12  1  0
 37 14  1  0
 40  4  1  0
M  END
$$$$
