
     RDKit          3D

 40 43  0  0  0  0  0  0  0  0999 V2000
  -11.6512  -34.8644  -12.6177 C   0  0  0  0  0  0  0  0  0  0  0  0
  -12.8467  -35.0047  -11.7183 C   0  0  0  0  0  0  0  0  0  0  0  0
  -13.8392  -33.8898  -12.0676 C   0  0  0  0  0  0  0  0  0  0  0  0
  -13.4855  -36.3316  -11.8138 C   0  0  0  0  0  0  0  0  0  0  0  0
  -14.0567  -36.9941  -10.7491 C   0  0  0  0  0  0  0  0  0  0  0  0
  -14.6460  -38.2252  -10.8548 C   0  0  0  0  0  0  0  0  0  0  0  0
  -15.2487  -38.8886   -9.6528 C   0  0  0  0  0  0  0  0  0  0  0  0
  -15.0461  -38.0790   -8.4546 N   0  0  0  0  0  0  0  0  0  0  0  0
  -16.2552  -37.9267   -7.7065 C   0  0  0  0  0  0  0  0  0  0  0  0
  -16.5426  -39.0037   -6.7131 C   0  0  1  0  0  0  0  0  0  0  0  0
  -16.6526  -38.4227   -5.4514 O   0  0  0  0  0  0  0  0  0  0  0  0
  -17.7248  -39.8807   -7.0436 C   0  0  2  0  0  0  0  0  0  0  0  0
  -18.1026  -40.6821   -5.8255 C   0  0  0  0  0  0  0  0  0  0  0  0
  -19.4337  -40.2181   -5.2702 C   0  0  2  0  0  0  0  0  0  0  0  0
  -19.6153  -40.7131   -3.8519 C   0  0  0  0  0  0  0  0  0  0  0  0
  -21.1093  -40.5920   -3.6548 C   0  0  0  0  0  0  0  0  0  0  0  0
  -21.6645  -41.0711   -4.9675 C   0  0  2  0  0  0  0  0  0  0  0  0
  -22.2164  -42.4871   -4.8905 C   0  0  0  0  0  0  0  0  0  0  0  0
  -23.4639  -42.6229   -5.6786 C   0  0  0  0  0  0  0  0  0  0  0  0
  -23.3454  -42.6995   -7.1483 C   0  0  0  0  0  0  0  0  0  0  0  0
  -23.1206  -44.0718   -7.7255 C   0  0  0  0  0  0  0  0  0  0  0  0
  -23.0449  -43.9283   -9.2309 C   0  0  0  0  0  0  0  0  0  0  0  0
  -22.7299  -42.5798   -9.6443 N   0  0  0  0  0  0  0  0  0  0  0  0
  -21.5011  -41.9199   -9.9325 C   0  0  0  0  0  0  0  0  0  0  0  0
  -21.6495  -41.0833  -11.0751 C   0  0  0  0  0  0  0  0  0  0  0  0
  -20.6613  -40.3051  -11.5972 C   0  0  0  0  0  0  0  0  0  0  0  0
  -19.4641  -40.3673  -10.9412 C   0  0  0  0  0  0  0  0  0  0  0  0
  -19.2383  -41.1751   -9.7959 C   0  0  0  0  0  0  0  0  0  0  0  0
  -20.2704  -41.9421   -9.3123 C   0  0  0  0  0  0  0  0  0  0  0  0
  -17.8527  -40.9849   -9.3495 C   0  0  0  0  0  0  0  0  0  0  0  0
  -16.8937  -40.9389  -10.2631 O   0  0  0  0  0  0  0  0  0  0  0  0
  -17.2849  -40.8259   -8.0580 N   0  0  0  0  0  0  0  0  0  0  0  0
  -20.8922  -39.4590  -12.7942 C   0  0  0  0  0  0  0  0  0  0  0  0
  -20.9651  -38.1423  -12.3278 F   0  0  0  0  0  0  0  0  0  0  0  0
  -22.0529  -39.8073  -13.4300 F   0  0  0  0  0  0  0  0  0  0  0  0
  -19.7828  -39.5368  -13.5820 F   0  0  0  0  0  0  0  0  0  0  0  0
  -20.5409  -40.9789   -5.9744 C   0  0  0  0  0  0  0  0  0  0  0  0
  -14.6737  -38.8439  -12.0930 C   0  0  0  0  0  0  0  0  0  0  0  0
  -14.1117  -38.2087  -13.1769 C   0  0  0  0  0  0  0  0  0  0  0  0
  -13.5256  -36.9687  -13.0376 C   0  0  0  0  0  0  0  0  0  0  0  0
  1  2  1  0
  2  3  1  0
  2  4  1  0
  4  5  2  0
  5  6  1  0
  6  7  1  0
  7  8  1  0
  8  9  1  0
  9 10  1  0
 10 11  1  1
 10 12  1  0
 12 13  1  1
 14 13  1  6
 14 15  1  0
 15 16  1  0
 17 16  1  1
 17 18  1  0
 18 19  1  0
 19 20  1  0
 20 21  1  0
 21 22  1  0
 22 23  1  0
 23 24  1  0
 24 25  2  0
 25 26  1  0
 26 27  2  0
 27 28  1  0
 28 29  2  0
 28 30  1  0
 30 31  2  0
 30 32  1  0
 26 33  1  0
 33 34  1  0
 33 35  1  0
 33 36  1  0
 17 37  1  0
  6 38  2  0
 38 39  1  0
 39 40  2  0
 29 24  1  0
 32 12  1  0
 37 14  1  0
 40  4  1  0
M  END
$$$$
