
     RDKit          3D

 40 43  0  0  0  0  0  0  0  0999 V2000
  -12.8721  -34.9189  -11.9709 C   0  0  0  0  0  0  0  0  0  0  0  0
  -14.2158  -35.2153  -11.3670 C   0  0  0  0  0  0  0  0  0  0  0  0
  -15.2812  -34.4877  -12.1950 C   0  0  0  0  0  0  0  0  0  0  0  0
  -14.5035  -36.6604  -11.2860 C   0  0  0  0  0  0  0  0  0  0  0  0
  -14.2484  -37.4395  -10.1784 C   0  0  0  0  0  0  0  0  0  0  0  0
  -14.5219  -38.7795  -10.1192 C   0  0  0  0  0  0  0  0  0  0  0  0
  -14.2178  -39.5667   -8.8798 C   0  0  0  0  0  0  0  0  0  0  0  0
  -15.4361  -39.8351   -8.1211 N   0  0  0  0  0  0  0  0  0  0  0  0
  -15.9458  -38.6522   -7.5000 C   0  0  0  0  0  0  0  0  0  0  0  0
  -17.0770  -38.8567   -6.5470 C   0  0  1  0  0  0  0  0  0  0  0  0
  -17.6687  -37.6211   -6.2925 O   0  0  0  0  0  0  0  0  0  0  0  0
  -18.0854  -39.8982   -6.9645 C   0  0  2  0  0  0  0  0  0  0  0  0
  -18.5641  -40.6407   -5.7445 C   0  0  0  0  0  0  0  0  0  0  0  0
  -20.0108  -40.3040   -5.4454 C   0  0  2  0  0  0  0  0  0  0  0  0
  -20.3635  -40.7030   -4.0291 C   0  0  0  0  0  0  0  0  0  0  0  0
  -21.8738  -40.7544   -4.0732 C   0  0  0  0  0  0  0  0  0  0  0  0
  -22.1525  -41.4026   -5.4010 C   0  0  2  0  0  0  0  0  0  0  0  0
  -22.5490  -42.8657   -5.2691 C   0  0  0  0  0  0  0  0  0  0  0  0
  -23.6296  -43.2191   -6.2196 C   0  0  0  0  0  0  0  0  0  0  0  0
  -23.2669  -43.3974   -7.6396 C   0  0  0  0  0  0  0  0  0  0  0  0
  -22.8006  -44.7725   -8.0380 C   0  0  0  0  0  0  0  0  0  0  0  0
  -22.4986  -44.7414   -9.5214 C   0  0  0  0  0  0  0  0  0  0  0  0
  -22.2725  -43.4014  -10.0133 N   0  0  0  0  0  0  0  0  0  0  0  0
  -21.0942  -42.6182  -10.1760 C   0  0  0  0  0  0  0  0  0  0  0  0
  -21.1475  -41.9008  -11.4048 C   0  0  0  0  0  0  0  0  0  0  0  0
  -20.1804  -41.0492  -11.8456 C   0  0  0  0  0  0  0  0  0  0  0  0
  -19.1058  -40.9085  -11.0131 C   0  0  0  0  0  0  0  0  0  0  0  0
  -18.9801  -41.5876   -9.7728 C   0  0  0  0  0  0  0  0  0  0  0  0
  -19.9853  -42.4366   -9.3777 C   0  0  0  0  0  0  0  0  0  0  0  0
  -17.7149  -41.1904   -9.1429 C   0  0  0  0  0  0  0  0  0  0  0  0
  -16.6318  -41.0980   -9.9011 O   0  0  0  0  0  0  0  0  0  0  0  0
  -17.3849  -40.8590   -7.8025 N   0  0  0  0  0  0  0  0  0  0  0  0
  -20.3069  -40.3370  -13.1413 C   0  0  0  0  0  0  0  0  0  0  0  0
  -20.2209  -38.9733  -12.8420 F   0  0  0  0  0  0  0  0  0  0  0  0
  -21.5007  -40.6204  -13.7473 F   0  0  0  0  0  0  0  0  0  0  0  0
  -19.2144  -40.6441  -13.8960 F   0  0  0  0  0  0  0  0  0  0  0  0
  -20.8979  -41.2512   -6.2305 C   0  0  0  0  0  0  0  0  0  0  0  0
  -15.0844  -39.3919  -11.2263 C   0  0  0  0  0  0  0  0  0  0  0  0
  -15.3514  -38.6416  -12.3488 C   0  0  0  0  0  0  0  0  0  0  0  0
  -15.0642  -37.2936  -12.3768 C   0  0  0  0  0  0  0  0  0  0  0  0
  1  2  1  0
  2  3  1  0
  2  4  1  0
  4  5  2  0
  5  6  1  0
  6  7  1  0
  7  8  1  0
  8  9  1  0
  9 10  1  0
 10 11  1  6
 10 12  1  0
 12 13  1  1
 14 13  1  6
 14 15  1  0
 15 16  1  0
 17 16  1  1
 17 18  1  0
 18 19  1  0
 19 20  1  0
 20 21  1  0
 21 22  1  0
 22 23  1  0
 23 24  1  0
 24 25  2  0
 25 26  1  0
 26 27  2  0
 27 28  1  0
 28 29  2  0
 28 30  1  0
 30 31  2  0
 30 32  1  0
 26 33  1  0
 33 34  1  0
 33 35  1  0
 33 36  1  0
 17 37  1  0
  6 38  2  0
 38 39  1  0
 39 40  2  0
 29 24  1  0
 32 12  1  0
 37 14  1  0
 40  4  1  0
M  END
$$$$
