
     RDKit          3D

 40 43  0  0  0  0  0  0  0  0999 V2000
   -8.4950  -38.1083  -12.6263 C   0  0  0  0  0  0  0  0  0  0  0  0
   -9.4679  -37.8795  -11.5041 C   0  0  0  0  0  0  0  0  0  0  0  0
   -9.3990  -36.4003  -11.1079 C   0  0  0  0  0  0  0  0  0  0  0  0
  -10.8478  -38.2714  -11.8507 C   0  0  0  0  0  0  0  0  0  0  0  0
  -11.9392  -38.0640  -11.0355 C   0  0  0  0  0  0  0  0  0  0  0  0
  -13.2136  -38.4333  -11.3724 C   0  0  0  0  0  0  0  0  0  0  0  0
  -14.3557  -38.1764  -10.4353 C   0  0  0  0  0  0  0  0  0  0  0  0
  -14.4105  -39.1941   -9.3897 N   0  0  0  0  0  0  0  0  0  0  0  0
  -15.7083  -39.7867   -9.2936 C   0  0  0  0  0  0  0  0  0  0  0  0
  -16.6914  -39.0585   -8.4375 C   0  0  1  0  0  0  0  0  0  0  0  0
  -17.1604  -37.9539   -9.1457 O   0  0  0  0  0  0  0  0  0  0  0  0
  -17.8135  -39.9049   -7.8897 C   0  0  2  0  0  0  0  0  0  0  0  0
  -18.6803  -39.0587   -6.9944 C   0  0  0  0  0  0  0  0  0  0  0  0
  -20.0384  -38.8280   -7.6253 C   0  0  2  0  0  0  0  0  0  0  0  0
  -20.7432  -37.6706   -6.9523 C   0  0  0  0  0  0  0  0  0  0  0  0
  -22.1855  -37.8965   -7.3447 C   0  0  0  0  0  0  0  0  0  0  0  0
  -22.3436  -39.3860   -7.2127 C   0  0  2  0  0  0  0  0  0  0  0  0
  -23.0880  -39.7882   -5.9480 C   0  0  0  0  0  0  0  0  0  0  0  0
  -24.0149  -40.9158   -6.2037 C   0  0  0  0  0  0  0  0  0  0  0  0
  -23.4344  -42.2658   -6.3467 C   0  0  0  0  0  0  0  0  0  0  0  0
  -23.2331  -43.0404   -5.0714 C   0  0  0  0  0  0  0  0  0  0  0  0
  -22.6492  -44.3875   -5.4415 C   0  0  0  0  0  0  0  0  0  0  0  0
  -22.0257  -44.3824   -6.7452 N   0  0  0  0  0  0  0  0  0  0  0  0
  -20.6888  -44.1462   -7.1757 C   0  0  0  0  0  0  0  0  0  0  0  0
  -20.3332  -45.0680   -8.2010 C   0  0  0  0  0  0  0  0  0  0  0  0
  -19.1275  -45.0935   -8.8336 C   0  0  0  0  0  0  0  0  0  0  0  0
  -18.2329  -44.1472   -8.4191 C   0  0  0  0  0  0  0  0  0  0  0  0
  -18.5130  -43.1939   -7.4051 C   0  0  0  0  0  0  0  0  0  0  0  0
  -19.7455  -43.2146   -6.7986 C   0  0  0  0  0  0  0  0  0  0  0  0
  -17.3376  -42.3319   -7.2296 C   0  0  0  0  0  0  0  0  0  0  0  0
  -16.1364  -42.8921   -7.2263 O   0  0  0  0  0  0  0  0  0  0  0  0
  -17.2069  -40.9293   -7.0538 N   0  0  0  0  0  0  0  0  0  0  0  0
  -18.8297  -46.0880   -9.8941 C   0  0  0  0  0  0  0  0  0  0  0  0
  -20.0693  -46.5417  -10.3567 F   0  0  0  0  0  0  0  0  0  0  0  0
  -18.0910  -47.1297   -9.4022 F   0  0  0  0  0  0  0  0  0  0  0  0
  -18.2393  -45.4297  -10.9312 F   0  0  0  0  0  0  0  0  0  0  0  0
  -20.9515  -39.9746   -7.2353 C   0  0  0  0  0  0  0  0  0  0  0  0
  -13.4256  -39.0480  -12.5947 C   0  0  0  0  0  0  0  0  0  0  0  0
  -12.3562  -39.2698  -13.4323 C   0  0  0  0  0  0  0  0  0  0  0  0
  -11.0845  -38.8859  -13.0638 C   0  0  0  0  0  0  0  0  0  0  0  0
  1  2  1  0
  2  3  1  0
  2  4  1  0
  4  5  2  0
  5  6  1  0
  6  7  1  0
  7  8  1  0
  8  9  1  0
  9 10  1  0
 10 11  1  6
 10 12  1  0
 12 13  1  1
 14 13  1  1
 14 15  1  0
 15 16  1  0
 17 16  1  1
 17 18  1  0
 18 19  1  0
 19 20  1  0
 20 21  1  0
 21 22  1  0
 22 23  1  0
 23 24  1  0
 24 25  2  0
 25 26  1  0
 26 27  2  0
 27 28  1  0
 28 29  2  0
 28 30  1  0
 30 31  2  0
 30 32  1  0
 26 33  1  0
 33 34  1  0
 33 35  1  0
 33 36  1  0
 17 37  1  0
  6 38  2  0
 38 39  1  0
 39 40  2  0
 29 24  1  0
 32 12  1  0
 37 14  1  0
 40  4  1  0
M  END
$$$$
