
     RDKit          3D

 39 41  0  0  0  0  0  0  0  0999 V2000
  -22.6759  -40.0459   -3.3093 C   0  0  0  0  0  0  0  0  0  0  0  0
  -22.8455  -39.8859   -4.8168 C   0  0  0  0  0  0  0  0  0  0  0  0
  -23.1531  -38.3904   -5.0217 C   0  0  0  0  0  0  0  0  0  0  0  0
  -21.7148  -40.2256   -5.5207 O   0  0  0  0  0  0  0  0  0  0  0  0
  -21.7043  -40.4976   -6.8797 C   0  0  0  0  0  0  0  0  0  0  0  0
  -22.7702  -40.3389   -7.7129 C   0  0  0  0  0  0  0  0  0  0  0  0
  -22.7030  -40.6288   -9.0742 C   0  0  0  0  0  0  0  0  0  0  0  0
  -21.5262  -41.0950   -9.6241 C   0  0  0  0  0  0  0  0  0  0  0  0
  -20.4602  -41.2533   -8.7895 C   0  0  0  0  0  0  0  0  0  0  0  0
  -20.5108  -40.9741   -7.4568 C   0  0  0  0  0  0  0  0  0  0  0  0
  -19.3201  -41.1625   -6.5608 C   0  0  0  0  0  0  0  0  0  0  0  0
  -18.5713  -39.9485   -6.4683 N   0  0  0  0  0  0  0  0  0  0  0  0
  -17.5189  -39.7963   -7.4315 C   0  0  0  0  0  0  0  0  0  0  0  0
  -17.3514  -38.3588   -7.8837 C   0  0  1  0  0  0  0  0  0  0  0  0
  -17.7456  -37.5100   -6.8616 O   0  0  0  0  0  0  0  0  0  0  0  0
  -15.9830  -38.0765   -8.4360 C   0  0  2  0  0  0  0  0  0  0  0  0
  -16.1480  -37.5143   -9.8304 C   0  0  0  0  0  0  0  0  0  0  0  0
  -14.8648  -37.1027  -10.4857 C   0  0  2  0  0  0  0  0  0  0  0  0
  -13.7047  -36.9351   -9.5603 C   0  0  0  0  0  0  0  0  0  0  0  0
  -15.0090  -35.8261  -11.2888 C   0  0  0  0  0  0  0  0  0  0  0  0
  -15.6995  -36.0230  -12.6008 C   0  0  0  0  0  0  0  0  0  0  0  0
  -14.7805  -36.5123  -13.6748 C   0  0  0  0  0  0  0  0  0  0  0  0
  -15.1993  -37.8101  -14.2925 C   0  0  0  0  0  0  0  0  0  0  0  0
  -14.0513  -38.7453  -14.5401 C   0  0  0  0  0  0  0  0  0  0  0  0
  -14.3365  -40.1465  -14.0506 C   0  0  0  0  0  0  0  0  0  0  0  0
  -14.6574  -40.1686  -12.6978 O   0  0  0  0  0  0  0  0  0  0  0  0
  -15.2429  -41.3524  -12.3050 C   0  0  0  0  0  0  0  0  0  0  0  0
  -16.4717  -41.1770  -11.4859 C   0  0  0  0  0  0  0  0  0  0  0  0
  -17.3949  -40.5038  -12.0720 O   0  0  0  0  0  0  0  0  0  0  0  0
  -16.6976  -41.6639  -10.1872 N   0  0  0  0  0  0  0  0  0  0  0  0
  -17.9358  -42.4200   -9.9792 C   0  0  0  0  0  0  0  0  0  0  0  0
  -15.8737  -41.5171   -9.0238 C   0  0  1  0  0  0  0  0  0  0  0  0
  -15.0780  -42.8478   -8.9424 C   0  0  0  0  0  0  0  0  0  0  0  0
  -14.9579  -40.3759   -9.0008 C   0  0  0  0  0  0  0  0  0  0  0  0
  -13.9031  -40.5526   -9.7267 O   0  0  0  0  0  0  0  0  0  0  0  0
  -15.0403  -39.1517   -8.3285 N   0  0  0  0  0  0  0  0  0  0  0  0
  -21.4522  -41.4040  -11.0620 C   0  0  0  0  0  0  0  0  0  0  0  0
  -22.5768  -42.1181  -11.7566 C   0  0  0  0  0  0  0  0  0  0  0  0
  -21.3297  -42.8515  -11.4909 C   0  0  0  0  0  0  0  0  0  0  0  0
  1  2  1  0
  2  3  1  0
  2  4  1  0
  4  5  1  0
  5  6  2  0
  6  7  1  0
  7  8  2  0
  8  9  1  0
  9 10  2  0
 10 11  1  0
 11 12  1  0
 12 13  1  0
 13 14  1  0
 14 15  1  1
 14 16  1  0
 16 17  1  6
 17 18  1  0
 18 19  1  1
 18 20  1  0
 20 21  1  0
 21 22  1  0
 22 23  1  0
 23 24  1  0
 24 25  1  0
 25 26  1  0
 26 27  1  0
 27 28  1  0
 28 29  2  0
 28 30  1  0
 30 31  1  0
 30 32  1  0
 32 33  1  6
 32 34  1  0
 34 35  2  0
 34 36  1  0
  8 37  1  0
 37 38  1  0
 38 39  1  0
 10  5  1  0
 36 16  1  0
 39 37  1  0
M  END
$$$$
