
     RDKit          3D

 39 41  0  0  0  0  0  0  0  0999 V2000
  -13.7748  -37.2828  -15.0544 C   0  0  0  0  0  0  0  0  0  0  0  0
  -13.2503  -38.2447  -13.9930 C   0  0  0  0  0  0  0  0  0  0  0  0
  -11.7641  -37.8747  -13.8265 C   0  0  0  0  0  0  0  0  0  0  0  0
  -13.8967  -38.1139  -12.7870 O   0  0  0  0  0  0  0  0  0  0  0  0
  -15.0883  -37.4258  -12.6207 C   0  0  0  0  0  0  0  0  0  0  0  0
  -15.8486  -36.9303  -13.6365 C   0  0  0  0  0  0  0  0  0  0  0  0
  -17.0406  -36.2448  -13.4106 C   0  0  0  0  0  0  0  0  0  0  0  0
  -17.4901  -36.0467  -12.1209 C   0  0  0  0  0  0  0  0  0  0  0  0
  -16.7284  -36.5431  -11.1052 C   0  0  0  0  0  0  0  0  0  0  0  0
  -15.5612  -37.2152  -11.3104 C   0  0  0  0  0  0  0  0  0  0  0  0
  -14.7408  -37.7473  -10.1703 C   0  0  0  0  0  0  0  0  0  0  0  0
  -15.4847  -38.7222   -9.4359 N   0  0  0  0  0  0  0  0  0  0  0  0
  -15.8596  -38.3398   -8.1048 C   0  0  0  0  0  0  0  0  0  0  0  0
  -16.6722  -39.4099   -7.4022 C   0  0  1  0  0  0  0  0  0  0  0  0
  -16.4524  -39.3265   -6.0364 O   0  0  0  0  0  0  0  0  0  0  0  0
  -18.1202  -39.4001   -7.8026 C   0  0  2  0  0  0  0  0  0  0  0  0
  -18.9527  -39.5756   -6.5520 C   0  0  0  0  0  0  0  0  0  0  0  0
  -20.4319  -39.5030   -6.7802 C   0  0  2  0  0  0  0  0  0  0  0  0
  -20.8446  -38.8919   -8.0789 C   0  0  0  0  0  0  0  0  0  0  0  0
  -21.1532  -38.7682   -5.6688 C   0  0  0  0  0  0  0  0  0  0  0  0
  -21.3125  -39.5809   -4.4235 C   0  0  0  0  0  0  0  0  0  0  0  0
  -22.4864  -40.5065   -4.4785 C   0  0  0  0  0  0  0  0  0  0  0  0
  -22.1358  -41.9493   -4.2871 C   0  0  0  0  0  0  0  0  0  0  0  0
  -22.8838  -42.8673   -5.2097 C   0  0  0  0  0  0  0  0  0  0  0  0
  -21.9749  -43.8695   -5.8834 C   0  0  0  0  0  0  0  0  0  0  0  0
  -20.9515  -43.2487   -6.5910 O   0  0  0  0  0  0  0  0  0  0  0  0
  -19.9310  -44.1118   -6.9257 C   0  0  0  0  0  0  0  0  0  0  0  0
  -18.5724  -43.5895   -6.6203 C   0  0  0  0  0  0  0  0  0  0  0  0
  -18.3950  -43.2956   -5.3829 O   0  0  0  0  0  0  0  0  0  0  0  0
  -17.5164  -43.4009   -7.5280 N   0  0  0  0  0  0  0  0  0  0  0  0
  -16.2254  -43.9889   -7.1595 C   0  0  0  0  0  0  0  0  0  0  0  0
  -17.5294  -42.7006   -8.7783 C   0  0  1  0  0  0  0  0  0  0  0  0
  -17.7034  -43.8156   -9.8448 C   0  0  0  0  0  0  0  0  0  0  0  0
  -18.5543  -41.6702   -8.9495 C   0  0  0  0  0  0  0  0  0  0  0  0
  -19.7257  -42.1523   -9.2063 O   0  0  0  0  0  0  0  0  0  0  0  0
  -18.4672  -40.2753   -8.8841 N   0  0  0  0  0  0  0  0  0  0  0  0
  -18.7484  -35.3212  -11.8785 C   0  0  0  0  0  0  0  0  0  0  0  0
  -19.1455  -34.9077  -10.4899 C   0  0  0  0  0  0  0  0  0  0  0  0
  -19.8613  -36.0229  -11.1281 C   0  0  0  0  0  0  0  0  0  0  0  0
  1  2  1  0
  2  3  1  0
  2  4  1  0
  4  5  1  0
  5  6  2  0
  6  7  1  0
  7  8  2  0
  8  9  1  0
  9 10  2  0
 10 11  1  0
 11 12  1  0
 12 13  1  0
 13 14  1  0
 14 15  1  1
 14 16  1  0
 16 17  1  1
 17 18  1  0
 18 19  1  6
 18 20  1  0
 20 21  1  0
 21 22  1  0
 22 23  1  0
 23 24  1  0
 24 25  1  0
 25 26  1  0
 26 27  1  0
 27 28  1  0
 28 29  2  0
 28 30  1  0
 30 31  1  0
 30 32  1  0
 32 33  1  6
 32 34  1  0
 34 35  2  0
 34 36  1  0
  8 37  1  0
 37 38  1  0
 38 39  1  0
 10  5  1  0
 36 16  1  0
 39 37  1  0
M  END
$$$$
