
     RDKit          3D

 39 41  0  0  0  0  0  0  0  0999 V2000
  -18.3374  -37.2299  -12.1177 C   0  0  0  0  0  0  0  0  0  0  0  0
  -17.4090  -36.5296  -11.1306 C   0  0  0  0  0  0  0  0  0  0  0  0
  -18.2610  -36.3300   -9.8627 C   0  0  0  0  0  0  0  0  0  0  0  0
  -16.2942  -37.2735  -10.8256 O   0  0  0  0  0  0  0  0  0  0  0  0
  -15.1199  -37.2415  -11.5611 C   0  0  0  0  0  0  0  0  0  0  0  0
  -14.9915  -36.6839  -12.7973 C   0  0  0  0  0  0  0  0  0  0  0  0
  -13.7838  -36.6804  -13.4926 C   0  0  0  0  0  0  0  0  0  0  0  0
  -12.6619  -37.2557  -12.9316 C   0  0  0  0  0  0  0  0  0  0  0  0
  -12.7915  -37.8133  -11.6945 C   0  0  0  0  0  0  0  0  0  0  0  0
  -13.9653  -37.8244  -11.0027 C   0  0  0  0  0  0  0  0  0  0  0  0
  -14.0786  -38.4503   -9.6421 C   0  0  0  0  0  0  0  0  0  0  0  0
  -14.9542  -39.5793   -9.6863 N   0  0  0  0  0  0  0  0  0  0  0  0
  -16.3551  -39.2736   -9.7380 C   0  0  0  0  0  0  0  0  0  0  0  0
  -17.0278  -39.4100   -8.3861 C   0  0  1  0  0  0  0  0  0  0  0  0
  -16.4874  -38.4805   -7.5117 O   0  0  0  0  0  0  0  0  0  0  0  0
  -18.5273  -39.3843   -8.4752 C   0  0  2  0  0  0  0  0  0  0  0  0
  -19.0784  -39.3100   -7.0686 C   0  0  0  0  0  0  0  0  0  0  0  0
  -20.5706  -39.1930   -6.9958 C   0  0  2  0  0  0  0  0  0  0  0  0
  -21.2373  -38.7767   -8.2657 C   0  0  0  0  0  0  0  0  0  0  0  0
  -21.0240  -38.2503   -5.9000 C   0  0  0  0  0  0  0  0  0  0  0  0
  -20.9316  -38.8421   -4.5296 C   0  0  0  0  0  0  0  0  0  0  0  0
  -22.1089  -39.6979   -4.1844 C   0  0  0  0  0  0  0  0  0  0  0  0
  -21.7552  -41.1084   -3.8286 C   0  0  0  0  0  0  0  0  0  0  0  0
  -22.7008  -42.1198   -4.4087 C   0  0  0  0  0  0  0  0  0  0  0  0
  -21.9764  -43.2662   -5.0762 C   0  0  0  0  0  0  0  0  0  0  0  0
  -21.1144  -42.8250   -6.0740 O   0  0  0  0  0  0  0  0  0  0  0  0
  -20.2061  -43.7859   -6.4613 C   0  0  0  0  0  0  0  0  0  0  0  0
  -18.8033  -43.2976   -6.5352 C   0  0  0  0  0  0  0  0  0  0  0  0
  -18.3610  -42.8189   -5.4287 O   0  0  0  0  0  0  0  0  0  0  0  0
  -17.9607  -43.3162   -7.6596 N   0  0  0  0  0  0  0  0  0  0  0  0
  -16.6331  -43.9082   -7.4713 C   0  0  0  0  0  0  0  0  0  0  0  0
  -18.2248  -42.8264   -8.9802 C   0  0  1  0  0  0  0  0  0  0  0  0
  -18.6442  -44.0869   -9.7840 C   0  0  0  0  0  0  0  0  0  0  0  0
  -19.2414  -41.7816   -9.1079 C   0  0  0  0  0  0  0  0  0  0  0  0
  -20.4503  -42.2329   -9.0325 O   0  0  0  0  0  0  0  0  0  0  0  0
  -19.1140  -40.4013   -9.2983 N   0  0  0  0  0  0  0  0  0  0  0  0
  -11.3846  -37.2554  -13.6644 C   0  0  0  0  0  0  0  0  0  0  0  0
  -10.0849  -37.0169  -12.9494 C   0  0  0  0  0  0  0  0  0  0  0  0
  -10.6267  -35.9518  -13.8071 C   0  0  0  0  0  0  0  0  0  0  0  0
  1  2  1  0
  2  3  1  0
  2  4  1  0
  4  5  1  0
  5  6  2  0
  6  7  1  0
  7  8  2  0
  8  9  1  0
  9 10  2  0
 10 11  1  0
 11 12  1  0
 12 13  1  0
 13 14  1  0
 14 15  1  1
 14 16  1  0
 16 17  1  1
 17 18  1  0
 18 19  1  6
 18 20  1  0
 20 21  1  0
 21 22  1  0
 22 23  1  0
 23 24  1  0
 24 25  1  0
 25 26  1  0
 26 27  1  0
 27 28  1  0
 28 29  2  0
 28 30  1  0
 30 31  1  0
 30 32  1  0
 32 33  1  6
 32 34  1  0
 34 35  2  0
 34 36  1  0
  8 37  1  0
 37 38  1  0
 38 39  1  0
 10  5  1  0
 36 16  1  0
 39 37  1  0
M  END
$$$$
