
     RDKit          3D

 39 41  0  0  0  0  0  0  0  0999 V2000
  -21.7604  -37.6676   -8.7530 C   0  0  0  0  0  0  0  0  0  0  0  0
  -21.3131  -38.7662   -9.7120 C   0  0  0  0  0  0  0  0  0  0  0  0
  -20.3193  -38.0757  -10.6654 C   0  0  0  0  0  0  0  0  0  0  0  0
  -20.6899  -39.8118   -9.0734 O   0  0  0  0  0  0  0  0  0  0  0  0
  -21.0975  -40.3230   -7.8513 C   0  0  0  0  0  0  0  0  0  0  0  0
  -22.3566  -40.7616   -7.5727 C   0  0  0  0  0  0  0  0  0  0  0  0
  -22.7115  -41.2669   -6.3234 C   0  0  0  0  0  0  0  0  0  0  0  0
  -21.7728  -41.3366   -5.3142 C   0  0  0  0  0  0  0  0  0  0  0  0
  -20.5131  -40.8974   -5.5942 C   0  0  0  0  0  0  0  0  0  0  0  0
  -20.1514  -40.4010   -6.8104 C   0  0  0  0  0  0  0  0  0  0  0  0
  -18.7557  -39.9205   -7.0882 C   0  0  0  0  0  0  0  0  0  0  0  0
  -18.6541  -38.5173   -6.8355 N   0  0  0  0  0  0  0  0  0  0  0  0
  -17.3872  -37.9224   -7.1510 C   0  0  0  0  0  0  0  0  0  0  0  0
  -16.8020  -38.4576   -8.4433 C   0  0  1  0  0  0  0  0  0  0  0  0
  -17.3023  -37.7256   -9.5083 O   0  0  0  0  0  0  0  0  0  0  0  0
  -15.3036  -38.5609   -8.4066 C   0  0  2  0  0  0  0  0  0  0  0  0
  -14.7700  -38.1007   -9.7449 C   0  0  0  0  0  0  0  0  0  0  0  0
  -13.2745  -38.0676   -9.8347 C   0  0  2  0  0  0  0  0  0  0  0  0
  -12.5590  -38.1018   -8.5243 C   0  0  0  0  0  0  0  0  0  0  0  0
  -12.7681  -36.8696  -10.6116 C   0  0  0  0  0  0  0  0  0  0  0  0
  -12.9257  -37.0103  -12.0922 C   0  0  0  0  0  0  0  0  0  0  0  0
  -11.8216  -37.7981  -12.7230 C   0  0  0  0  0  0  0  0  0  0  0  0
  -12.2859  -39.0071  -13.4739 C   0  0  0  0  0  0  0  0  0  0  0  0
  -11.4104  -40.2079  -13.2613 C   0  0  0  0  0  0  0  0  0  0  0  0
  -12.2088  -41.4514  -12.9437 C   0  0  0  0  0  0  0  0  0  0  0  0
  -13.0199  -41.2767  -11.8279 O   0  0  0  0  0  0  0  0  0  0  0  0
  -13.9920  -42.2466  -11.7146 C   0  0  0  0  0  0  0  0  0  0  0  0
  -15.3527  -41.7107  -11.4447 C   0  0  0  0  0  0  0  0  0  0  0  0
  -15.7745  -40.8903  -12.3382 O   0  0  0  0  0  0  0  0  0  0  0  0
  -16.1771  -42.0128  -10.3475 N   0  0  0  0  0  0  0  0  0  0  0  0
  -17.5482  -42.4292  -10.6558 C   0  0  0  0  0  0  0  0  0  0  0  0
  -15.8567  -41.9656   -8.9516 C   0  0  1  0  0  0  0  0  0  0  0  0
  -15.5212  -43.4356   -8.5812 C   0  0  0  0  0  0  0  0  0  0  0  0
  -14.7625  -41.0794   -8.5530 C   0  0  0  0  0  0  0  0  0  0  0  0
  -13.5924  -41.5667   -8.8060 O   0  0  0  0  0  0  0  0  0  0  0  0
  -14.7826  -39.8166   -7.9508 N   0  0  0  0  0  0  0  0  0  0  0  0
  -22.1448  -41.8683   -3.9924 C   0  0  0  0  0  0  0  0  0  0  0  0
  -21.9232  -43.3148   -3.6522 C   0  0  0  0  0  0  0  0  0  0  0  0
  -23.2961  -42.8480   -3.8987 C   0  0  0  0  0  0  0  0  0  0  0  0
  1  2  1  0
  2  3  1  0
  2  4  1  0
  4  5  1  0
  5  6  2  0
  6  7  1  0
  7  8  2  0
  8  9  1  0
  9 10  2  0
 10 11  1  0
 11 12  1  0
 12 13  1  0
 13 14  1  0
 14 15  1  6
 14 16  1  0
 16 17  1  6
 17 18  1  0
 18 19  1  1
 18 20  1  0
 20 21  1  0
 21 22  1  0
 22 23  1  0
 23 24  1  0
 24 25  1  0
 25 26  1  0
 26 27  1  0
 27 28  1  0
 28 29  2  0
 28 30  1  0
 30 31  1  0
 30 32  1  0
 32 33  1  6
 32 34  1  0
 34 35  2  0
 34 36  1  0
  8 37  1  0
 37 38  1  0
 38 39  1  0
 10  5  1  0
 36 16  1  0
 39 37  1  0
M  END
$$$$
