
     RDKit          3D

 39 41  0  0  0  0  0  0  0  0999 V2000
  -13.8159  -35.3757   -9.5743 C   0  0  0  0  0  0  0  0  0  0  0  0
  -13.4576  -35.5989  -11.0400 C   0  0  0  0  0  0  0  0  0  0  0  0
  -11.9507  -35.9189  -11.0325 C   0  0  0  0  0  0  0  0  0  0  0  0
  -14.1488  -36.6435  -11.6060 O   0  0  0  0  0  0  0  0  0  0  0  0
  -15.5318  -36.7330  -11.6263 C   0  0  0  0  0  0  0  0  0  0  0  0
  -16.2965  -36.7042  -12.7532 C   0  0  0  0  0  0  0  0  0  0  0  0
  -17.6863  -36.7981  -12.7146 C   0  0  0  0  0  0  0  0  0  0  0  0
  -18.3368  -36.9257  -11.5042 C   0  0  0  0  0  0  0  0  0  0  0  0
  -17.5705  -36.9546  -10.3771 C   0  0  0  0  0  0  0  0  0  0  0  0
  -16.2112  -36.8639  -10.3992 C   0  0  0  0  0  0  0  0  0  0  0  0
  -15.3933  -36.8945   -9.1398 C   0  0  0  0  0  0  0  0  0  0  0  0
  -14.7058  -38.1424   -9.0245 N   0  0  0  0  0  0  0  0  0  0  0  0
  -15.5301  -39.3132   -9.1156 C   0  0  0  0  0  0  0  0  0  0  0  0
  -16.2663  -39.6050   -7.8227 C   0  0  1  0  0  0  0  0  0  0  0  0
  -15.7315  -38.8276   -6.8077 O   0  0  0  0  0  0  0  0  0  0  0  0
  -17.7585  -39.5042   -7.9653 C   0  0  2  0  0  0  0  0  0  0  0  0
  -18.3816  -39.8782   -6.6388 C   0  0  0  0  0  0  0  0  0  0  0  0
  -19.8736  -39.7445   -6.5984 C   0  0  2  0  0  0  0  0  0  0  0  0
  -20.4663  -38.9137   -7.6887 C   0  0  0  0  0  0  0  0  0  0  0  0
  -20.3698  -39.1998   -5.2746 C   0  0  0  0  0  0  0  0  0  0  0  0
  -20.3585  -40.2111   -4.1729 C   0  0  0  0  0  0  0  0  0  0  0  0
  -21.5652  -41.0952   -4.1817 C   0  0  0  0  0  0  0  0  0  0  0  0
  -21.2521  -42.5547   -4.2949 C   0  0  0  0  0  0  0  0  0  0  0  0
  -22.1810  -43.2894   -5.2174 C   0  0  0  0  0  0  0  0  0  0  0  0
  -21.4399  -44.1755   -6.1921 C   0  0  0  0  0  0  0  0  0  0  0  0
  -20.5200  -43.4587   -6.9493 O   0  0  0  0  0  0  0  0  0  0  0  0
  -19.6072  -44.2676   -7.5904 C   0  0  0  0  0  0  0  0  0  0  0  0
  -18.1952  -43.8266   -7.4366 C   0  0  0  0  0  0  0  0  0  0  0  0
  -17.8046  -43.7517   -6.2156 O   0  0  0  0  0  0  0  0  0  0  0  0
  -17.2950  -43.5018   -8.4656 N   0  0  0  0  0  0  0  0  0  0  0  0
  -15.9883  -44.1644   -8.4235 C   0  0  0  0  0  0  0  0  0  0  0  0
  -17.4818  -42.5977   -9.5616 C   0  0  1  0  0  0  0  0  0  0  0  0
  -17.8774  -43.5107  -10.7536 C   0  0  0  0  0  0  0  0  0  0  0  0
  -18.4744  -41.5373   -9.3834 C   0  0  0  0  0  0  0  0  0  0  0  0
  -19.6923  -41.9500   -9.5150 O   0  0  0  0  0  0  0  0  0  0  0  0
  -18.3164  -40.1757   -9.1028 N   0  0  0  0  0  0  0  0  0  0  0  0
  -19.8054  -37.0234  -11.4596 C   0  0  0  0  0  0  0  0  0  0  0  0
  -20.6683  -35.9807  -12.1116 C   0  0  0  0  0  0  0  0  0  0  0  0
  -20.5788  -36.0084  -10.6437 C   0  0  0  0  0  0  0  0  0  0  0  0
  1  2  1  0
  2  3  1  0
  2  4  1  0
  4  5  1  0
  5  6  2  0
  6  7  1  0
  7  8  2  0
  8  9  1  0
  9 10  2  0
 10 11  1  0
 11 12  1  0
 12 13  1  0
 13 14  1  0
 14 15  1  1
 14 16  1  0
 16 17  1  1
 17 18  1  0
 18 19  1  6
 18 20  1  0
 20 21  1  0
 21 22  1  0
 22 23  1  0
 23 24  1  0
 24 25  1  0
 25 26  1  0
 26 27  1  0
 27 28  1  0
 28 29  2  0
 28 30  1  0
 30 31  1  0
 30 32  1  0
 32 33  1  6
 32 34  1  0
 34 35  2  0
 34 36  1  0
  8 37  1  0
 37 38  1  0
 38 39  1  0
 10  5  1  0
 36 16  1  0
 39 37  1  0
M  END
$$$$
