
     RDKit          3D

 39 41  0  0  0  0  0  0  0  0999 V2000
  -10.2135  -41.1204  -12.5810 C   0  0  0  0  0  0  0  0  0  0  0  0
  -11.7008  -41.4386  -12.6968 C   0  0  0  0  0  0  0  0  0  0  0  0
  -11.8198  -42.9184  -12.2856 C   0  0  0  0  0  0  0  0  0  0  0  0
  -12.4787  -40.6650  -11.8687 O   0  0  0  0  0  0  0  0  0  0  0  0
  -12.7158  -39.3146  -12.0718 C   0  0  0  0  0  0  0  0  0  0  0  0
  -12.5048  -38.6558  -13.2452 C   0  0  0  0  0  0  0  0  0  0  0  0
  -12.7611  -37.2940  -13.3929 C   0  0  0  0  0  0  0  0  0  0  0  0
  -13.2465  -36.5627  -12.3280 C   0  0  0  0  0  0  0  0  0  0  0  0
  -13.4574  -37.2231  -11.1543 C   0  0  0  0  0  0  0  0  0  0  0  0
  -13.2117  -38.5537  -10.9948 C   0  0  0  0  0  0  0  0  0  0  0  0
  -13.4500  -39.2536   -9.6874 C   0  0  0  0  0  0  0  0  0  0  0  0
  -14.0730  -38.3665   -8.7556 N   0  0  0  0  0  0  0  0  0  0  0  0
  -15.4722  -38.1299   -8.9679 C   0  0  0  0  0  0  0  0  0  0  0  0
  -16.3442  -38.9137   -8.0066 C   0  0  1  0  0  0  0  0  0  0  0  0
  -15.9793  -38.6066   -6.7054 O   0  0  0  0  0  0  0  0  0  0  0  0
  -17.8111  -38.7638   -8.2948 C   0  0  2  0  0  0  0  0  0  0  0  0
  -18.5779  -39.4659   -7.1962 C   0  0  0  0  0  0  0  0  0  0  0  0
  -20.0668  -39.3323   -7.3004 C   0  0  2  0  0  0  0  0  0  0  0  0
  -20.5447  -38.2389   -8.1984 C   0  0  0  0  0  0  0  0  0  0  0  0
  -20.7270  -39.1483   -5.9493 C   0  0  0  0  0  0  0  0  0  0  0  0
  -20.8237  -40.4129   -5.1568 C   0  0  0  0  0  0  0  0  0  0  0  0
  -22.0017  -41.2515   -5.5401 C   0  0  0  0  0  0  0  0  0  0  0  0
  -21.6461  -42.6336   -5.9924 C   0  0  0  0  0  0  0  0  0  0  0  0
  -22.4439  -43.0915   -7.1787 C   0  0  0  0  0  0  0  0  0  0  0  0
  -21.5744  -43.6989   -8.2555 C   0  0  0  0  0  0  0  0  0  0  0  0
  -20.5873  -42.8182   -8.6839 O   0  0  0  0  0  0  0  0  0  0  0  0
  -19.5882  -43.4401   -9.4005 C   0  0  0  0  0  0  0  0  0  0  0  0
  -18.2140  -43.0692   -8.9696 C   0  0  0  0  0  0  0  0  0  0  0  0
  -17.9716  -43.3207   -7.7338 O   0  0  0  0  0  0  0  0  0  0  0  0
  -17.2061  -42.4954   -9.7631 N   0  0  0  0  0  0  0  0  0  0  0  0
  -15.8995  -43.1591   -9.7401 C   0  0  0  0  0  0  0  0  0  0  0  0
  -17.2821  -41.3339  -10.5990 C   0  0  1  0  0  0  0  0  0  0  0  0
  -17.5148  -41.8987  -12.0265 C   0  0  0  0  0  0  0  0  0  0  0  0
  -18.3113  -40.3472  -10.2697 C   0  0  0  0  0  0  0  0  0  0  0  0
  -19.4960  -40.6986  -10.6487 O   0  0  0  0  0  0  0  0  0  0  0  0
  -18.2167  -39.1083   -9.6263 N   0  0  0  0  0  0  0  0  0  0  0  0
  -13.5167  -35.1232  -12.4802 C   0  0  0  0  0  0  0  0  0  0  0  0
  -14.3688  -34.3885  -11.4845 C   0  0  0  0  0  0  0  0  0  0  0  0
  -14.9249  -34.6775  -12.8152 C   0  0  0  0  0  0  0  0  0  0  0  0
  1  2  1  0
  2  3  1  0
  2  4  1  0
  4  5  1  0
  5  6  2  0
  6  7  1  0
  7  8  2  0
  8  9  1  0
  9 10  2  0
 10 11  1  0
 11 12  1  0
 12 13  1  0
 13 14  1  0
 14 15  1  1
 14 16  1  0
 16 17  1  1
 17 18  1  0
 18 19  1  6
 18 20  1  0
 20 21  1  0
 21 22  1  0
 22 23  1  0
 23 24  1  0
 24 25  1  0
 25 26  1  0
 26 27  1  0
 27 28  1  0
 28 29  2  0
 28 30  1  0
 30 31  1  0
 30 32  1  0
 32 33  1  6
 32 34  1  0
 34 35  2  0
 34 36  1  0
  8 37  1  0
 37 38  1  0
 38 39  1  0
 10  5  1  0
 36 16  1  0
 39 37  1  0
M  END
$$$$
