
     RDKit          3D

 39 41  0  0  0  0  0  0  0  0999 V2000
  -12.0486  -35.4024  -13.1818 C   0  0  0  0  0  0  0  0  0  0  0  0
  -12.5094  -36.8488  -13.3313 C   0  0  0  0  0  0  0  0  0  0  0  0
  -11.2089  -37.6652  -13.4565 C   0  0  0  0  0  0  0  0  0  0  0  0
  -13.2319  -37.2940  -12.2501 O   0  0  0  0  0  0  0  0  0  0  0  0
  -14.5479  -36.9372  -12.0014 C   0  0  0  0  0  0  0  0  0  0  0  0
  -15.3702  -36.3242  -12.8978 C   0  0  0  0  0  0  0  0  0  0  0  0
  -16.6876  -35.9875  -12.5931 C   0  0  0  0  0  0  0  0  0  0  0  0
  -17.2031  -36.2740  -11.3454 C   0  0  0  0  0  0  0  0  0  0  0  0
  -16.3794  -36.8875  -10.4492 C   0  0  0  0  0  0  0  0  0  0  0  0
  -15.0895  -37.2227  -10.7326 C   0  0  0  0  0  0  0  0  0  0  0  0
  -14.2040  -37.8949   -9.7226 C   0  0  0  0  0  0  0  0  0  0  0  0
  -14.9516  -38.2288   -8.5510 N   0  0  0  0  0  0  0  0  0  0  0  0
  -15.7536  -39.4147   -8.6464 C   0  0  0  0  0  0  0  0  0  0  0  0
  -16.7847  -39.5071   -7.5386 C   0  0  1  0  0  0  0  0  0  0  0  0
  -16.4488  -38.6208   -6.5276 O   0  0  0  0  0  0  0  0  0  0  0  0
  -18.1944  -39.3749   -8.0411 C   0  0  2  0  0  0  0  0  0  0  0  0
  -19.1308  -39.6539   -6.8865 C   0  0  0  0  0  0  0  0  0  0  0  0
  -20.5827  -39.4783   -7.2132 C   0  0  2  0  0  0  0  0  0  0  0  0
  -20.8640  -38.6970   -8.4544 C   0  0  0  0  0  0  0  0  0  0  0  0
  -21.3585  -38.8440   -6.0769 C   0  0  0  0  0  0  0  0  0  0  0  0
  -21.6511  -39.7892   -4.9554 C   0  0  0  0  0  0  0  0  0  0  0  0
  -22.8551  -40.6397   -5.2099 C   0  0  0  0  0  0  0  0  0  0  0  0
  -22.5826  -42.1112   -5.1708 C   0  0  0  0  0  0  0  0  0  0  0  0
  -23.2930  -42.8734   -6.2516 C   0  0  0  0  0  0  0  0  0  0  0  0
  -22.3766  -43.8344   -6.9735 C   0  0  0  0  0  0  0  0  0  0  0  0
  -21.2745  -43.1880   -7.5221 O   0  0  0  0  0  0  0  0  0  0  0  0
  -20.2681  -44.0570   -7.8831 C   0  0  0  0  0  0  0  0  0  0  0  0
  -18.9173  -43.6458   -7.4164 C   0  0  0  0  0  0  0  0  0  0  0  0
  -18.8269  -43.5102   -6.1426 O   0  0  0  0  0  0  0  0  0  0  0  0
  -17.7851  -43.4059   -8.2134 N   0  0  0  0  0  0  0  0  0  0  0  0
  -16.5538  -44.0996   -7.8248 C   0  0  0  0  0  0  0  0  0  0  0  0
  -17.6684  -42.5627   -9.3663 C   0  0  1  0  0  0  0  0  0  0  0  0
  -17.8041  -43.5328  -10.5709 C   0  0  0  0  0  0  0  0  0  0  0  0
  -18.6317  -41.4675   -9.4857 C   0  0  0  0  0  0  0  0  0  0  0  0
  -19.7983  -41.8544   -9.8856 O   0  0  0  0  0  0  0  0  0  0  0  0
  -18.4909  -40.0965   -9.2442 N   0  0  0  0  0  0  0  0  0  0  0  0
  -18.5943  -35.9179  -11.0194 C   0  0  0  0  0  0  0  0  0  0  0  0
  -18.9456  -34.5380  -10.5404 C   0  0  0  0  0  0  0  0  0  0  0  0
  -18.9577  -35.6470   -9.5742 C   0  0  0  0  0  0  0  0  0  0  0  0
  1  2  1  0
  2  3  1  0
  2  4  1  0
  4  5  1  0
  5  6  2  0
  6  7  1  0
  7  8  2  0
  8  9  1  0
  9 10  2  0
 10 11  1  0
 11 12  1  0
 12 13  1  0
 13 14  1  0
 14 15  1  1
 14 16  1  0
 16 17  1  1
 17 18  1  0
 18 19  1  6
 18 20  1  0
 20 21  1  0
 21 22  1  0
 22 23  1  0
 23 24  1  0
 24 25  1  0
 25 26  1  0
 26 27  1  0
 27 28  1  0
 28 29  2  0
 28 30  1  0
 30 31  1  0
 30 32  1  0
 32 33  1  6
 32 34  1  0
 34 35  2  0
 34 36  1  0
  8 37  1  0
 37 38  1  0
 38 39  1  0
 10  5  1  0
 36 16  1  0
 39 37  1  0
M  END
$$$$
