
     RDKit          3D

 39 41  0  0  0  0  0  0  0  0999 V2000
  -18.5577  -37.9366  -12.4952 C   0  0  0  0  0  0  0  0  0  0  0  0
  -17.6405  -36.7712  -12.8517 C   0  0  0  0  0  0  0  0  0  0  0  0
  -18.5329  -35.7954  -13.6421 C   0  0  0  0  0  0  0  0  0  0  0  0
  -17.1288  -36.1361  -11.7453 O   0  0  0  0  0  0  0  0  0  0  0  0
  -15.7772  -35.9032  -11.5451 C   0  0  0  0  0  0  0  0  0  0  0  0
  -15.1923  -34.6731  -11.5407 C   0  0  0  0  0  0  0  0  0  0  0  0
  -13.8254  -34.4975  -11.3341 C   0  0  0  0  0  0  0  0  0  0  0  0
  -13.0121  -35.5923  -11.1239 C   0  0  0  0  0  0  0  0  0  0  0  0
  -13.5986  -36.8229  -11.1284 C   0  0  0  0  0  0  0  0  0  0  0  0
  -14.9331  -37.0102  -11.3290 C   0  0  0  0  0  0  0  0  0  0  0  0
  -15.5505  -38.3794  -11.3325 C   0  0  0  0  0  0  0  0  0  0  0  0
  -15.6535  -38.8812   -9.9980 N   0  0  0  0  0  0  0  0  0  0  0  0
  -16.6726  -39.8686   -9.7857 C   0  0  0  0  0  0  0  0  0  0  0  0
  -17.2123  -39.8483   -8.3690 C   0  0  1  0  0  0  0  0  0  0  0  0
  -16.6247  -38.8047   -7.6718 O   0  0  0  0  0  0  0  0  0  0  0  0
  -18.7137  -39.8664   -8.3162 C   0  0  2  0  0  0  0  0  0  0  0  0
  -19.1281  -40.1983   -6.8999 C   0  0  0  0  0  0  0  0  0  0  0  0
  -20.6083  -40.1719   -6.6679 C   0  0  2  0  0  0  0  0  0  0  0  0
  -21.4021  -39.4591   -7.7129 C   0  0  0  0  0  0  0  0  0  0  0  0
  -20.9721  -39.5803   -5.3214 C   0  0  0  0  0  0  0  0  0  0  0  0
  -20.7368  -40.5146   -4.1775 C   0  0  0  0  0  0  0  0  0  0  0  0
  -21.8588  -41.4833   -3.9767 C   0  0  0  0  0  0  0  0  0  0  0  0
  -21.4456  -42.9203   -4.0508 C   0  0  0  0  0  0  0  0  0  0  0  0
  -22.4230  -43.7792   -4.7994 C   0  0  0  0  0  0  0  0  0  0  0  0
  -21.7445  -44.6700   -5.8146 C   0  0  0  0  0  0  0  0  0  0  0  0
  -20.9911  -43.9384   -6.7259 O   0  0  0  0  0  0  0  0  0  0  0  0
  -20.1061  -44.7180   -7.4381 C   0  0  0  0  0  0  0  0  0  0  0  0
  -18.7265  -44.1658   -7.4987 C   0  0  0  0  0  0  0  0  0  0  0  0
  -18.1890  -43.9836   -6.3467 O   0  0  0  0  0  0  0  0  0  0  0  0
  -17.9959  -43.8434   -8.6549 N   0  0  0  0  0  0  0  0  0  0  0  0
  -16.6453  -44.4044   -8.7518 C   0  0  0  0  0  0  0  0  0  0  0  0
  -18.3953  -43.0283   -9.7639 C   0  0  1  0  0  0  0  0  0  0  0  0
  -18.8660  -44.0431  -10.8407 C   0  0  0  0  0  0  0  0  0  0  0  0
  -19.4393  -42.0341   -9.5128 C   0  0  0  0  0  0  0  0  0  0  0  0
  -20.6264  -42.5425   -9.4577 O   0  0  0  0  0  0  0  0  0  0  0  0
  -19.3574  -40.6493   -9.3306 N   0  0  0  0  0  0  0  0  0  0  0  0
  -11.5670  -35.4105  -10.9070 C   0  0  0  0  0  0  0  0  0  0  0  0
  -10.8134  -34.3154  -11.6070 C   0  0  0  0  0  0  0  0  0  0  0  0
  -10.6161  -35.7045  -12.0487 C   0  0  0  0  0  0  0  0  0  0  0  0
  1  2  1  0
  2  3  1  0
  2  4  1  0
  4  5  1  0
  5  6  2  0
  6  7  1  0
  7  8  2  0
  8  9  1  0
  9 10  2  0
 10 11  1  0
 11 12  1  0
 12 13  1  0
 13 14  1  0
 14 15  1  6
 14 16  1  0
 16 17  1  1
 17 18  1  0
 18 19  1  6
 18 20  1  0
 20 21  1  0
 21 22  1  0
 22 23  1  0
 23 24  1  0
 24 25  1  0
 25 26  1  0
 26 27  1  0
 27 28  1  0
 28 29  2  0
 28 30  1  0
 30 31  1  0
 30 32  1  0
 32 33  1  6
 32 34  1  0
 34 35  2  0
 34 36  1  0
  8 37  1  0
 37 38  1  0
 38 39  1  0
 10  5  1  0
 36 16  1  0
 39 37  1  0
M  END
$$$$
