
     RDKit          3D

 39 41  0  0  0  0  0  0  0  0999 V2000
  -12.2074  -40.6506  -11.8009 C   0  0  0  0  0  0  0  0  0  0  0  0
  -12.3459  -39.2349  -12.3516 C   0  0  0  0  0  0  0  0  0  0  0  0
  -12.8850  -39.4203  -13.7828 C   0  0  0  0  0  0  0  0  0  0  0  0
  -13.2204  -38.4622  -11.6252 O   0  0  0  0  0  0  0  0  0  0  0  0
  -13.5143  -37.1411  -11.9239 C   0  0  0  0  0  0  0  0  0  0  0  0
  -12.6062  -36.2195  -12.3500 C   0  0  0  0  0  0  0  0  0  0  0  0
  -12.9583  -34.9019  -12.6362 C   0  0  0  0  0  0  0  0  0  0  0  0
  -14.2672  -34.4894  -12.4913 C   0  0  0  0  0  0  0  0  0  0  0  0
  -15.1751  -35.4125  -12.0649 C   0  0  0  0  0  0  0  0  0  0  0  0
  -14.8459  -36.7038  -11.7813 C   0  0  0  0  0  0  0  0  0  0  0  0
  -15.8680  -37.6979  -11.3091 C   0  0  0  0  0  0  0  0  0  0  0  0
  -16.5599  -37.1932  -10.1646 N   0  0  0  0  0  0  0  0  0  0  0  0
  -16.0088  -37.5678   -8.8940 C   0  0  0  0  0  0  0  0  0  0  0  0
  -16.5684  -38.8818   -8.3849 C   0  0  1  0  0  0  0  0  0  0  0  0
  -16.0986  -39.1111   -7.1015 O   0  0  0  0  0  0  0  0  0  0  0  0
  -18.0610  -38.9752   -8.5287 C   0  0  2  0  0  0  0  0  0  0  0  0
  -18.6475  -39.2368   -7.1593 C   0  0  0  0  0  0  0  0  0  0  0  0
  -20.1452  -39.2733   -7.1262 C   0  0  2  0  0  0  0  0  0  0  0  0
  -20.8212  -38.6716   -8.3141 C   0  0  0  0  0  0  0  0  0  0  0  0
  -20.7123  -38.6163   -5.8843 C   0  0  0  0  0  0  0  0  0  0  0  0
  -20.5928  -39.4616   -4.6564 C   0  0  0  0  0  0  0  0  0  0  0  0
  -21.6885  -40.4731   -4.5368 C   0  0  0  0  0  0  0  0  0  0  0  0
  -21.2070  -41.8881   -4.4543 C   0  0  0  0  0  0  0  0  0  0  0  0
  -22.0365  -42.8434   -5.2623 C   0  0  0  0  0  0  0  0  0  0  0  0
  -21.1894  -43.7607   -6.1141 C   0  0  0  0  0  0  0  0  0  0  0  0
  -20.3527  -43.0506   -6.9679 O   0  0  0  0  0  0  0  0  0  0  0  0
  -19.3468  -43.8268   -7.5008 C   0  0  0  0  0  0  0  0  0  0  0  0
  -17.9969  -43.2080   -7.4185 C   0  0  0  0  0  0  0  0  0  0  0  0
  -17.6279  -42.9243   -6.2216 O   0  0  0  0  0  0  0  0  0  0  0  0
  -17.1320  -42.9226   -8.4885 N   0  0  0  0  0  0  0  0  0  0  0  0
  -15.7576  -43.4170   -8.3672 C   0  0  0  0  0  0  0  0  0  0  0  0
  -17.4135  -42.2025   -9.6951 C   0  0  1  0  0  0  0  0  0  0  0  0
  -17.6903  -43.3076  -10.7500 C   0  0  0  0  0  0  0  0  0  0  0  0
  -18.5240  -41.2503   -9.6542 C   0  0  0  0  0  0  0  0  0  0  0  0
  -19.6845  -41.8157   -9.7198 O   0  0  0  0  0  0  0  0  0  0  0  0
  -18.5276  -39.8543   -9.5610 N   0  0  0  0  0  0  0  0  0  0  0  0
  -14.6423  -33.0973  -12.7911 C   0  0  0  0  0  0  0  0  0  0  0  0
  -15.6795  -32.3839  -11.9710 C   0  0  0  0  0  0  0  0  0  0  0  0
  -16.0287  -32.8167  -13.3327 C   0  0  0  0  0  0  0  0  0  0  0  0
  1  2  1  0
  2  3  1  0
  2  4  1  0
  4  5  1  0
  5  6  2  0
  6  7  1  0
  7  8  2  0
  8  9  1  0
  9 10  2  0
 10 11  1  0
 11 12  1  0
 12 13  1  0
 13 14  1  0
 14 15  1  1
 14 16  1  0
 16 17  1  1
 17 18  1  0
 18 19  1  6
 18 20  1  0
 20 21  1  0
 21 22  1  0
 22 23  1  0
 23 24  1  0
 24 25  1  0
 25 26  1  0
 26 27  1  0
 27 28  1  0
 28 29  2  0
 28 30  1  0
 30 31  1  0
 30 32  1  0
 32 33  1  6
 32 34  1  0
 34 35  2  0
 34 36  1  0
  8 37  1  0
 37 38  1  0
 38 39  1  0
 10  5  1  0
 36 16  1  0
 39 37  1  0
M  END
$$$$
