
     RDKit          3D

 39 41  0  0  0  0  0  0  0  0999 V2000
  -22.5361  -42.3951   -4.7971 C   0  0  0  0  0  0  0  0  0  0  0  0
  -21.5489  -41.2913   -4.4314 C   0  0  0  0  0  0  0  0  0  0  0  0
  -20.8664  -41.7852   -3.1416 C   0  0  0  0  0  0  0  0  0  0  0  0
  -20.6006  -41.0789   -5.4034 O   0  0  0  0  0  0  0  0  0  0  0  0
  -20.8336  -40.3588   -6.5646 C   0  0  0  0  0  0  0  0  0  0  0  0
  -21.9104  -39.5519   -6.7766 C   0  0  0  0  0  0  0  0  0  0  0  0
  -22.0943  -38.8502   -7.9664 C   0  0  0  0  0  0  0  0  0  0  0  0
  -21.1673  -38.9586   -8.9829 C   0  0  0  0  0  0  0  0  0  0  0  0
  -20.0901  -39.7662   -8.7697 C   0  0  0  0  0  0  0  0  0  0  0  0
  -19.8968  -40.4584   -7.6121 C   0  0  0  0  0  0  0  0  0  0  0  0
  -18.7013  -41.3444   -7.4075 C   0  0  0  0  0  0  0  0  0  0  0  0
  -17.6898  -40.6516   -6.6726 N   0  0  0  0  0  0  0  0  0  0  0  0
  -16.5571  -40.2172   -7.4387 C   0  0  0  0  0  0  0  0  0  0  0  0
  -16.5590  -38.7199   -7.6770 C   0  0  1  0  0  0  0  0  0  0  0  0
  -16.9593  -38.0740   -6.5181 O   0  0  0  0  0  0  0  0  0  0  0  0
  -15.2658  -38.2193   -8.2551 C   0  0  2  0  0  0  0  0  0  0  0  0
  -15.5495  -37.6814   -9.6400 C   0  0  0  0  0  0  0  0  0  0  0  0
  -14.3632  -37.0661  -10.3180 C   0  0  2  0  0  0  0  0  0  0  0  0
  -13.2242  -36.7217   -9.4155 C   0  0  0  0  0  0  0  0  0  0  0  0
  -14.7268  -35.8237  -11.1050 C   0  0  0  0  0  0  0  0  0  0  0  0
  -15.4064  -36.1196  -12.4040 C   0  0  0  0  0  0  0  0  0  0  0  0
  -14.4453  -36.4490  -13.5020 C   0  0  0  0  0  0  0  0  0  0  0  0
  -14.6657  -37.7929  -14.1237 C   0  0  0  0  0  0  0  0  0  0  0  0
  -13.3893  -38.5313  -14.4048 C   0  0  0  0  0  0  0  0  0  0  0  0
  -13.4365  -39.9633  -13.9234 C   0  0  0  0  0  0  0  0  0  0  0  0
  -13.7195  -40.0452  -12.5645 O   0  0  0  0  0  0  0  0  0  0  0  0
  -14.0999  -41.3097  -12.1714 C   0  0  0  0  0  0  0  0  0  0  0  0
  -15.3223  -41.3380  -11.3249 C   0  0  0  0  0  0  0  0  0  0  0  0
  -16.3539  -40.8168  -11.8847 O   0  0  0  0  0  0  0  0  0  0  0  0
  -15.4387  -41.8631  -10.0267 N   0  0  0  0  0  0  0  0  0  0  0  0
  -16.5357  -42.8084   -9.8003 C   0  0  0  0  0  0  0  0  0  0  0  0
  -14.6229  -41.5944   -8.8795 C   0  0  1  0  0  0  0  0  0  0  0  0
  -13.6237  -42.7817   -8.8281 C   0  0  0  0  0  0  0  0  0  0  0  0
  -13.9003  -40.3220   -8.8643 C   0  0  0  0  0  0  0  0  0  0  0  0
  -12.8473  -40.3234   -9.6139 O   0  0  0  0  0  0  0  0  0  0  0  0
  -14.1617  -39.1310   -8.1782 N   0  0  0  0  0  0  0  0  0  0  0  0
  -21.3595  -38.2198  -10.2421 C   0  0  0  0  0  0  0  0  0  0  0  0
  -20.3639  -38.3310  -11.3617 C   0  0  0  0  0  0  0  0  0  0  0  0
  -20.4091  -37.0886  -10.5757 C   0  0  0  0  0  0  0  0  0  0  0  0
  1  2  1  0
  2  3  1  0
  2  4  1  0
  4  5  1  0
  5  6  2  0
  6  7  1  0
  7  8  2  0
  8  9  1  0
  9 10  2  0
 10 11  1  0
 11 12  1  0
 12 13  1  0
 13 14  1  0
 14 15  1  1
 14 16  1  0
 16 17  1  6
 17 18  1  0
 18 19  1  1
 18 20  1  0
 20 21  1  0
 21 22  1  0
 22 23  1  0
 23 24  1  0
 24 25  1  0
 25 26  1  0
 26 27  1  0
 27 28  1  0
 28 29  2  0
 28 30  1  0
 30 31  1  0
 30 32  1  0
 32 33  1  6
 32 34  1  0
 34 35  2  0
 34 36  1  0
  8 37  1  0
 37 38  1  0
 38 39  1  0
 10  5  1  0
 36 16  1  0
 39 37  1  0
M  END
$$$$
