
     RDKit          3D

 39 41  0  0  0  0  0  0  0  0999 V2000
  -22.6324  -41.2211   -4.9455 C   0  0  0  0  0  0  0  0  0  0  0  0
  -22.4395  -40.7688   -6.3894 C   0  0  0  0  0  0  0  0  0  0  0  0
  -23.5998  -41.4213   -7.1646 C   0  0  0  0  0  0  0  0  0  0  0  0
  -22.4978  -39.4031   -6.5338 O   0  0  0  0  0  0  0  0  0  0  0  0
  -21.8715  -38.7077   -7.5561 C   0  0  0  0  0  0  0  0  0  0  0  0
  -22.5099  -37.9206   -8.4663 C   0  0  0  0  0  0  0  0  0  0  0  0
  -21.8283  -37.2432   -9.4755 C   0  0  0  0  0  0  0  0  0  0  0  0
  -20.4568  -37.3564   -9.5793 C   0  0  0  0  0  0  0  0  0  0  0  0
  -19.8190  -38.1442   -8.6679 C   0  0  0  0  0  0  0  0  0  0  0  0
  -20.4717  -38.8125   -7.6760 C   0  0  0  0  0  0  0  0  0  0  0  0
  -19.7419  -39.6770   -6.6882 C   0  0  0  0  0  0  0  0  0  0  0  0
  -18.3434  -39.3817   -6.7078 N   0  0  0  0  0  0  0  0  0  0  0  0
  -17.9509  -38.3054   -7.5716 C   0  0  0  0  0  0  0  0  0  0  0  0
  -17.1757  -38.7877   -8.7821 C   0  0  1  0  0  0  0  0  0  0  0  0
  -17.9050  -38.5161   -9.9289 O   0  0  0  0  0  0  0  0  0  0  0  0
  -15.7610  -38.2826   -8.8084 C   0  0  2  0  0  0  0  0  0  0  0  0
  -15.3257  -38.1853  -10.2536 C   0  0  0  0  0  0  0  0  0  0  0  0
  -13.9544  -37.6132  -10.4478 C   0  0  2  0  0  0  0  0  0  0  0  0
  -13.4005  -36.8787   -9.2713 C   0  0  0  0  0  0  0  0  0  0  0  0
  -13.8757  -36.6950  -11.6503 C   0  0  0  0  0  0  0  0  0  0  0  0
  -13.8344  -37.4248  -12.9550 C   0  0  0  0  0  0  0  0  0  0  0  0
  -12.4615  -37.8979  -13.3142 C   0  0  0  0  0  0  0  0  0  0  0  0
  -12.3602  -39.3770  -13.5221 C   0  0  0  0  0  0  0  0  0  0  0  0
  -11.1157  -39.9737  -12.9313 C   0  0  0  0  0  0  0  0  0  0  0  0
  -11.4045  -41.2138  -12.1169 C   0  0  0  0  0  0  0  0  0  0  0  0
  -12.3173  -40.9649  -11.0981 O   0  0  0  0  0  0  0  0  0  0  0  0
  -12.8519  -42.1170  -10.5640 C   0  0  0  0  0  0  0  0  0  0  0  0
  -14.3325  -42.0898  -10.4264 C   0  0  0  0  0  0  0  0  0  0  0  0
  -14.9533  -41.8922  -11.5331 O   0  0  0  0  0  0  0  0  0  0  0  0
  -15.0740  -42.2556   -9.2444 N   0  0  0  0  0  0  0  0  0  0  0  0
  -16.1490  -43.2512   -9.2819 C   0  0  0  0  0  0  0  0  0  0  0  0
  -14.9225  -41.5731   -7.9934 C   0  0  1  0  0  0  0  0  0  0  0  0
  -14.0862  -42.5470   -7.1198 C   0  0  0  0  0  0  0  0  0  0  0  0
  -14.2895  -40.2543   -8.0310 C   0  0  0  0  0  0  0  0  0  0  0  0
  -13.0043  -40.3078   -8.1586 O   0  0  0  0  0  0  0  0  0  0  0  0
  -14.8436  -38.9722   -7.9487 N   0  0  0  0  0  0  0  0  0  0  0  0
  -19.7337  -36.6434  -10.6456 C   0  0  0  0  0  0  0  0  0  0  0  0
  -20.1503  -35.2643  -11.0716 C   0  0  0  0  0  0  0  0  0  0  0  0
  -20.4367  -36.3976  -11.9645 C   0  0  0  0  0  0  0  0  0  0  0  0
  1  2  1  0
  2  3  1  0
  2  4  1  0
  4  5  1  0
  5  6  2  0
  6  7  1  0
  7  8  2  0
  8  9  1  0
  9 10  2  0
 10 11  1  0
 11 12  1  0
 12 13  1  0
 13 14  1  0
 14 15  1  6
 14 16  1  0
 16 17  1  6
 17 18  1  0
 18 19  1  1
 18 20  1  0
 20 21  1  0
 21 22  1  0
 22 23  1  0
 23 24  1  0
 24 25  1  0
 25 26  1  0
 26 27  1  0
 27 28  1  0
 28 29  2  0
 28 30  1  0
 30 31  1  0
 30 32  1  0
 32 33  1  1
 32 34  1  0
 34 35  2  0
 34 36  1  0
  8 37  1  0
 37 38  1  0
 38 39  1  0
 10  5  1  0
 36 16  1  0
 39 37  1  0
M  END
$$$$
