
     RDKit          3D

 39 41  0  0  0  0  0  0  0  0999 V2000
  -12.4289  -34.0527   -8.7823 C   0  0  0  0  0  0  0  0  0  0  0  0
  -12.9100  -34.7428  -10.0547 C   0  0  0  0  0  0  0  0  0  0  0  0
  -11.6353  -34.9553  -10.8933 C   0  0  0  0  0  0  0  0  0  0  0  0
  -13.5099  -35.9552   -9.8109 O   0  0  0  0  0  0  0  0  0  0  0  0
  -14.3105  -36.6185  -10.7275 C   0  0  0  0  0  0  0  0  0  0  0  0
  -14.8573  -36.0493  -11.8377 C   0  0  0  0  0  0  0  0  0  0  0  0
  -15.6564  -36.7654  -12.7269 C   0  0  0  0  0  0  0  0  0  0  0  0
  -15.9190  -38.1008  -12.4983 C   0  0  0  0  0  0  0  0  0  0  0  0
  -15.3711  -38.6693  -11.3871 C   0  0  0  0  0  0  0  0  0  0  0  0
  -14.5882  -37.9822  -10.5089 C   0  0  0  0  0  0  0  0  0  0  0  0
  -14.0013  -38.6350   -9.2902 C   0  0  0  0  0  0  0  0  0  0  0  0
  -14.6470  -38.1534   -8.1093 N   0  0  0  0  0  0  0  0  0  0  0  0
  -16.0643  -37.9572   -8.2160 C   0  0  0  0  0  0  0  0  0  0  0  0
  -16.8533  -39.1550   -7.7244 C   0  0  1  0  0  0  0  0  0  0  0  0
  -16.6268  -39.3250   -6.3679 O   0  0  0  0  0  0  0  0  0  0  0  0
  -18.3037  -39.0975   -8.1123 C   0  0  2  0  0  0  0  0  0  0  0  0
  -19.1186  -39.6347   -6.9569 C   0  0  0  0  0  0  0  0  0  0  0  0
  -20.6013  -39.5641   -7.1620 C   0  0  2  0  0  0  0  0  0  0  0  0
  -21.0484  -38.6454   -8.2512 C   0  0  0  0  0  0  0  0  0  0  0  0
  -21.3428  -39.1833   -5.8969 C   0  0  0  0  0  0  0  0  0  0  0  0
  -21.4596  -40.3052   -4.9148 C   0  0  0  0  0  0  0  0  0  0  0  0
  -22.5958  -41.2295   -5.2191 C   0  0  0  0  0  0  0  0  0  0  0  0
  -22.1862  -42.6553   -5.4195 C   0  0  0  0  0  0  0  0  0  0  0  0
  -22.9040  -43.3229   -6.5565 C   0  0  0  0  0  0  0  0  0  0  0  0
  -21.9609  -44.0706   -7.4709 C   0  0  0  0  0  0  0  0  0  0  0  0
  -20.9688  -43.2420   -7.9834 O   0  0  0  0  0  0  0  0  0  0  0  0
  -19.9171  -43.9418   -8.5335 C   0  0  0  0  0  0  0  0  0  0  0  0
  -18.5782  -43.4653   -8.0952 C   0  0  0  0  0  0  0  0  0  0  0  0
  -18.4031  -43.5060   -6.8237 O   0  0  0  0  0  0  0  0  0  0  0  0
  -17.5378  -42.9979   -8.9160 N   0  0  0  0  0  0  0  0  0  0  0  0
  -16.2214  -43.6100   -8.7141 C   0  0  0  0  0  0  0  0  0  0  0  0
  -17.5886  -41.9900   -9.9334 C   0  0  1  0  0  0  0  0  0  0  0  0
  -17.7262  -42.7853  -11.2598 C   0  0  0  0  0  0  0  0  0  0  0  0
  -18.6553  -40.9940   -9.8260 C   0  0  0  0  0  0  0  0  0  0  0  0
  -19.8085  -41.4372  -10.2061 O   0  0  0  0  0  0  0  0  0  0  0  0
  -18.6238  -39.6650   -9.3896 N   0  0  0  0  0  0  0  0  0  0  0  0
  -16.7645  -38.8600  -13.4349 C   0  0  0  0  0  0  0  0  0  0  0  0
  -18.2580  -38.8902  -13.2754 C   0  0  0  0  0  0  0  0  0  0  0  0
  -17.4849  -40.0932  -12.9306 C   0  0  0  0  0  0  0  0  0  0  0  0
  1  2  1  0
  2  3  1  0
  2  4  1  0
  4  5  1  0
  5  6  2  0
  6  7  1  0
  7  8  2  0
  8  9  1  0
  9 10  2  0
 10 11  1  0
 11 12  1  0
 12 13  1  0
 13 14  1  0
 14 15  1  1
 14 16  1  0
 16 17  1  1
 17 18  1  0
 18 19  1  6
 18 20  1  0
 20 21  1  0
 21 22  1  0
 22 23  1  0
 23 24  1  0
 24 25  1  0
 25 26  1  0
 26 27  1  0
 27 28  1  0
 28 29  2  0
 28 30  1  0
 30 31  1  0
 30 32  1  0
 32 33  1  6
 32 34  1  0
 34 35  2  0
 34 36  1  0
  8 37  1  0
 37 38  1  0
 38 39  1  0
 10  5  1  0
 36 16  1  0
 39 37  1  0
M  END
$$$$
