
     RDKit          3D

 39 41  0  0  0  0  0  0  0  0999 V2000
  -11.5555  -36.4695   -9.0365 C   0  0  0  0  0  0  0  0  0  0  0  0
  -12.3834  -36.0342  -10.2414 C   0  0  0  0  0  0  0  0  0  0  0  0
  -11.3479  -35.7234  -11.3389 C   0  0  0  0  0  0  0  0  0  0  0  0
  -13.2426  -37.0129  -10.6810 O   0  0  0  0  0  0  0  0  0  0  0  0
  -14.4109  -36.7565  -11.3814 C   0  0  0  0  0  0  0  0  0  0  0  0
  -14.7037  -35.5794  -12.0012 C   0  0  0  0  0  0  0  0  0  0  0  0
  -15.8965  -35.3766  -12.6926 C   0  0  0  0  0  0  0  0  0  0  0  0
  -16.8322  -36.3882  -12.7678 C   0  0  0  0  0  0  0  0  0  0  0  0
  -16.5380  -37.5658  -12.1473 C   0  0  0  0  0  0  0  0  0  0  0  0
  -15.3764  -37.7788  -11.4678 C   0  0  0  0  0  0  0  0  0  0  0  0
  -15.0818  -39.0864  -10.7902 C   0  0  0  0  0  0  0  0  0  0  0  0
  -16.1949  -39.4936   -9.9912 N   0  0  0  0  0  0  0  0  0  0  0  0
  -16.5935  -38.5688   -8.9692 C   0  0  0  0  0  0  0  0  0  0  0  0
  -17.1177  -39.2667   -7.7294 C   0  0  1  0  0  0  0  0  0  0  0  0
  -16.4178  -38.8156   -6.6216 O   0  0  0  0  0  0  0  0  0  0  0  0
  -18.6121  -39.1820   -7.6000 C   0  0  2  0  0  0  0  0  0  0  0  0
  -18.9987  -39.7578   -6.2558 C   0  0  0  0  0  0  0  0  0  0  0  0
  -20.4614  -39.6670   -5.9432 C   0  0  2  0  0  0  0  0  0  0  0  0
  -21.2315  -38.7023   -6.7839 C   0  0  0  0  0  0  0  0  0  0  0  0
  -20.7224  -39.3304   -4.4893 C   0  0  0  0  0  0  0  0  0  0  0  0
  -20.5233  -40.4892   -3.5651 C   0  0  0  0  0  0  0  0  0  0  0  0
  -21.7146  -41.3914   -3.4975 C   0  0  0  0  0  0  0  0  0  0  0  0
  -21.4273  -42.8115   -3.8739 C   0  0  0  0  0  0  0  0  0  0  0  0
  -22.5017  -43.4278   -4.7222 C   0  0  0  0  0  0  0  0  0  0  0  0
  -21.9400  -44.1464   -5.9273 C   0  0  0  0  0  0  0  0  0  0  0  0
  -21.1629  -43.3064   -6.7172 O   0  0  0  0  0  0  0  0  0  0  0  0
  -20.3747  -43.9925   -7.6152 C   0  0  0  0  0  0  0  0  0  0  0  0
  -18.9567  -43.5447   -7.6410 C   0  0  0  0  0  0  0  0  0  0  0  0
  -18.3622  -43.6370   -6.5064 O   0  0  0  0  0  0  0  0  0  0  0  0
  -18.2462  -43.0538   -8.7495 N   0  0  0  0  0  0  0  0  0  0  0  0
  -16.9524  -43.6841   -9.0273 C   0  0  0  0  0  0  0  0  0  0  0  0
  -18.6173  -42.0061   -9.6540 C   0  0  1  0  0  0  0  0  0  0  0  0
  -19.2127  -42.7472  -10.8816 C   0  0  0  0  0  0  0  0  0  0  0  0
  -19.5633  -41.0064   -9.1569 C   0  0  0  0  0  0  0  0  0  0  0  0
  -20.7861  -41.4248   -9.1383 O   0  0  0  0  0  0  0  0  0  0  0  0
  -19.3578  -39.6960   -8.7117 N   0  0  0  0  0  0  0  0  0  0  0  0
  -18.0944  -36.1767  -13.4961 C   0  0  0  0  0  0  0  0  0  0  0  0
  -19.4141  -36.2108  -12.7790 C   0  0  0  0  0  0  0  0  0  0  0  0
  -19.0516  -37.3405  -13.6484 C   0  0  0  0  0  0  0  0  0  0  0  0
  1  2  1  0
  2  3  1  0
  2  4  1  0
  4  5  1  0
  5  6  2  0
  6  7  1  0
  7  8  2  0
  8  9  1  0
  9 10  2  0
 10 11  1  0
 11 12  1  0
 12 13  1  0
 13 14  1  0
 14 15  1  1
 14 16  1  0
 16 17  1  1
 17 18  1  0
 18 19  1  6
 18 20  1  0
 20 21  1  0
 21 22  1  0
 22 23  1  0
 23 24  1  0
 24 25  1  0
 25 26  1  0
 26 27  1  0
 27 28  1  0
 28 29  2  0
 28 30  1  0
 30 31  1  0
 30 32  1  0
 32 33  1  6
 32 34  1  0
 34 35  2  0
 34 36  1  0
  8 37  1  0
 37 38  1  0
 38 39  1  0
 10  5  1  0
 36 16  1  0
 39 37  1  0
M  END
$$$$
