
     RDKit          3D

 39 41  0  0  0  0  0  0  0  0999 V2000
  -11.7448  -40.1131  -13.8398 C   0  0  0  0  0  0  0  0  0  0  0  0
  -13.1305  -40.5841  -13.4100 C   0  0  0  0  0  0  0  0  0  0  0  0
  -12.9607  -42.0859  -13.1115 C   0  0  0  0  0  0  0  0  0  0  0  0
  -13.5895  -39.9389  -12.2864 O   0  0  0  0  0  0  0  0  0  0  0  0
  -13.8804  -38.5846  -12.2387 C   0  0  0  0  0  0  0  0  0  0  0  0
  -14.2894  -37.8390  -13.3028 C   0  0  0  0  0  0  0  0  0  0  0  0
  -14.5684  -36.4778  -13.1971 C   0  0  0  0  0  0  0  0  0  0  0  0
  -14.4336  -35.8371  -11.9823 C   0  0  0  0  0  0  0  0  0  0  0  0
  -14.0243  -36.5842  -10.9181 C   0  0  0  0  0  0  0  0  0  0  0  0
  -13.7480  -37.9155  -11.0060 C   0  0  0  0  0  0  0  0  0  0  0  0
  -13.2947  -38.7121   -9.8161 C   0  0  0  0  0  0  0  0  0  0  0  0
  -14.3110  -38.7255   -8.8111 N   0  0  0  0  0  0  0  0  0  0  0  0
  -15.4429  -39.5627   -9.0875 C   0  0  0  0  0  0  0  0  0  0  0  0
  -16.4361  -39.5903   -7.9422 C   0  0  1  0  0  0  0  0  0  0  0  0
  -16.0081  -38.7269   -6.9463 O   0  0  0  0  0  0  0  0  0  0  0  0
  -17.8524  -39.3699   -8.3926 C   0  0  2  0  0  0  0  0  0  0  0  0
  -18.7504  -39.4728   -7.1799 C   0  0  0  0  0  0  0  0  0  0  0  0
  -20.1960  -39.1918   -7.4569 C   0  0  2  0  0  0  0  0  0  0  0  0
  -20.4702  -38.4865   -8.7444 C   0  0  0  0  0  0  0  0  0  0  0  0
  -20.8557  -38.4038   -6.3437 C   0  0  0  0  0  0  0  0  0  0  0  0
  -21.1729  -39.2290   -5.1374 C   0  0  0  0  0  0  0  0  0  0  0  0
  -22.4576  -39.9839   -5.2697 C   0  0  0  0  0  0  0  0  0  0  0  0
  -22.3126  -41.4666   -5.1226 C   0  0  0  0  0  0  0  0  0  0  0  0
  -23.1399  -42.2424   -6.1061 C   0  0  0  0  0  0  0  0  0  0  0  0
  -22.3480  -43.3356   -6.7861 C   0  0  0  0  0  0  0  0  0  0  0  0
  -21.2228  -42.8362   -7.4325 O   0  0  0  0  0  0  0  0  0  0  0  0
  -20.3152  -43.8183   -7.7645 C   0  0  0  0  0  0  0  0  0  0  0  0
  -18.9120  -43.4965   -7.3914 C   0  0  0  0  0  0  0  0  0  0  0  0
  -18.7464  -43.2716   -6.1380 O   0  0  0  0  0  0  0  0  0  0  0  0
  -17.8046  -43.4226   -8.2534 N   0  0  0  0  0  0  0  0  0  0  0  0
  -16.6205  -44.1931   -7.8630 C   0  0  0  0  0  0  0  0  0  0  0  0
  -17.6730  -42.6852   -9.4751 C   0  0  1  0  0  0  0  0  0  0  0  0
  -17.9528  -43.7292  -10.5897 C   0  0  0  0  0  0  0  0  0  0  0  0
  -18.5420  -41.5196   -9.6418 C   0  0  0  0  0  0  0  0  0  0  0  0
  -19.7565  -41.8288   -9.9582 O   0  0  0  0  0  0  0  0  0  0  0  0
  -18.2705  -40.1525   -9.5190 N   0  0  0  0  0  0  0  0  0  0  0  0
  -14.7259  -34.3984  -11.8675 C   0  0  0  0  0  0  0  0  0  0  0  0
  -13.6626  -33.3713  -12.1350 C   0  0  0  0  0  0  0  0  0  0  0  0
  -14.0813  -33.6112  -10.7455 C   0  0  0  0  0  0  0  0  0  0  0  0
  1  2  1  0
  2  3  1  0
  2  4  1  0
  4  5  1  0
  5  6  2  0
  6  7  1  0
  7  8  2  0
  8  9  1  0
  9 10  2  0
 10 11  1  0
 11 12  1  0
 12 13  1  0
 13 14  1  0
 14 15  1  1
 14 16  1  0
 16 17  1  1
 17 18  1  0
 18 19  1  6
 18 20  1  0
 20 21  1  0
 21 22  1  0
 22 23  1  0
 23 24  1  0
 24 25  1  0
 25 26  1  0
 26 27  1  0
 27 28  1  0
 28 29  2  0
 28 30  1  0
 30 31  1  0
 30 32  1  0
 32 33  1  6
 32 34  1  0
 34 35  2  0
 34 36  1  0
  8 37  1  0
 37 38  1  0
 38 39  1  0
 10  5  1  0
 36 16  1  0
 39 37  1  0
M  END
$$$$
