
     RDKit          3D

 39 41  0  0  0  0  0  0  0  0999 V2000
  -18.5269  -37.1921  -11.4736 C   0  0  0  0  0  0  0  0  0  0  0  0
  -17.7806  -38.4580  -11.8828 C   0  0  0  0  0  0  0  0  0  0  0  0
  -18.3247  -38.8005  -13.2828 C   0  0  0  0  0  0  0  0  0  0  0  0
  -16.4194  -38.2784  -11.9476 O   0  0  0  0  0  0  0  0  0  0  0  0
  -15.7846  -37.0798  -11.6624 C   0  0  0  0  0  0  0  0  0  0  0  0
  -16.0150  -35.9042  -12.3108 C   0  0  0  0  0  0  0  0  0  0  0  0
  -15.3461  -34.7269  -11.9816 C   0  0  0  0  0  0  0  0  0  0  0  0
  -14.4116  -34.7239  -10.9661 C   0  0  0  0  0  0  0  0  0  0  0  0
  -14.1819  -35.9008  -10.3179 C   0  0  0  0  0  0  0  0  0  0  0  0
  -14.8279  -37.0596  -10.6284 C   0  0  0  0  0  0  0  0  0  0  0  0
  -14.5506  -38.3428   -9.8988 C   0  0  0  0  0  0  0  0  0  0  0  0
  -15.3358  -38.4157   -8.7065 N   0  0  0  0  0  0  0  0  0  0  0  0
  -16.3022  -39.4754   -8.6665 C   0  0  0  0  0  0  0  0  0  0  0  0
  -17.0206  -39.5539   -7.3336 C   0  0  1  0  0  0  0  0  0  0  0  0
  -16.4187  -38.6833   -6.4390 O   0  0  0  0  0  0  0  0  0  0  0  0
  -18.5081  -39.3866   -7.4617 C   0  0  2  0  0  0  0  0  0  0  0  0
  -19.1557  -40.0115   -6.2460 C   0  0  0  0  0  0  0  0  0  0  0  0
  -20.6444  -39.8501   -6.1883 C   0  0  2  0  0  0  0  0  0  0  0  0
  -21.2038  -38.7957   -7.0858 C   0  0  0  0  0  0  0  0  0  0  0  0
  -21.1427  -39.5793   -4.7834 C   0  0  0  0  0  0  0  0  0  0  0  0
  -21.1689  -40.7974   -3.9160 C   0  0  0  0  0  0  0  0  0  0  0  0
  -22.3964  -41.6285   -4.1162 C   0  0  0  0  0  0  0  0  0  0  0  0
  -22.1175  -43.0404   -4.5283 C   0  0  0  0  0  0  0  0  0  0  0  0
  -23.0531  -43.5429   -5.5893 C   0  0  0  0  0  0  0  0  0  0  0  0
  -22.3223  -44.2263   -6.7222 C   0  0  0  0  0  0  0  0  0  0  0  0
  -21.3765  -43.3923   -7.3079 O   0  0  0  0  0  0  0  0  0  0  0  0
  -20.4761  -44.0739   -8.0973 C   0  0  0  0  0  0  0  0  0  0  0  0
  -19.0557  -43.7116   -7.8460 C   0  0  0  0  0  0  0  0  0  0  0  0
  -18.6778  -43.9022   -6.6336 O   0  0  0  0  0  0  0  0  0  0  0  0
  -18.1359  -43.2039   -8.7792 N   0  0  0  0  0  0  0  0  0  0  0  0
  -16.8463  -43.8947   -8.8674 C   0  0  0  0  0  0  0  0  0  0  0  0
  -18.2879  -42.0873   -9.6645 C   0  0  1  0  0  0  0  0  0  0  0  0
  -18.6915  -42.7222  -11.0228 C   0  0  0  0  0  0  0  0  0  0  0  0
  -19.2565  -41.0614   -9.2761 C   0  0  0  0  0  0  0  0  0  0  0  0
  -20.4824  -41.4058   -9.4984 O   0  0  0  0  0  0  0  0  0  0  0  0
  -19.0688  -39.7924   -8.7175 N   0  0  0  0  0  0  0  0  0  0  0  0
  -13.7016  -33.4819  -10.6169 C   0  0  0  0  0  0  0  0  0  0  0  0
  -14.3943  -32.1507  -10.6892 C   0  0  0  0  0  0  0  0  0  0  0  0
  -13.3943  -32.4848  -11.7148 C   0  0  0  0  0  0  0  0  0  0  0  0
  1  2  1  0
  2  3  1  0
  2  4  1  0
  4  5  1  0
  5  6  2  0
  6  7  1  0
  7  8  2  0
  8  9  1  0
  9 10  2  0
 10 11  1  0
 11 12  1  0
 12 13  1  0
 13 14  1  0
 14 15  1  1
 14 16  1  0
 16 17  1  1
 17 18  1  0
 18 19  1  6
 18 20  1  0
 20 21  1  0
 21 22  1  0
 22 23  1  0
 23 24  1  0
 24 25  1  0
 25 26  1  0
 26 27  1  0
 27 28  1  0
 28 29  2  0
 28 30  1  0
 30 31  1  0
 30 32  1  0
 32 33  1  6
 32 34  1  0
 34 35  2  0
 34 36  1  0
  8 37  1  0
 37 38  1  0
 38 39  1  0
 10  5  1  0
 36 16  1  0
 39 37  1  0
M  END
$$$$
