
     RDKit          3D

 39 41  0  0  0  0  0  0  0  0999 V2000
  -21.6615  -43.8351   -5.4296 C   0  0  0  0  0  0  0  0  0  0  0  0
  -22.2543  -42.4335   -5.3261 C   0  0  0  0  0  0  0  0  0  0  0  0
  -22.7592  -42.3260   -3.8746 C   0  0  0  0  0  0  0  0  0  0  0  0
  -21.3318  -41.4439   -5.5687 O   0  0  0  0  0  0  0  0  0  0  0  0
  -21.5339  -40.4022   -6.4603 C   0  0  0  0  0  0  0  0  0  0  0  0
  -22.6999  -40.1594   -7.1214 C   0  0  0  0  0  0  0  0  0  0  0  0
  -22.8470  -39.0950   -8.0087 C   0  0  0  0  0  0  0  0  0  0  0  0
  -21.7892  -38.2406   -8.2444 C   0  0  0  0  0  0  0  0  0  0  0  0
  -20.6228  -38.4845   -7.5823 C   0  0  0  0  0  0  0  0  0  0  0  0
  -20.4640  -39.5208   -6.7121 C   0  0  0  0  0  0  0  0  0  0  0  0
  -19.1648  -39.7669   -5.9999 C   0  0  0  0  0  0  0  0  0  0  0  0
  -18.3206  -40.6123   -6.7847 N   0  0  0  0  0  0  0  0  0  0  0  0
  -17.0048  -40.1026   -7.0444 C   0  0  0  0  0  0  0  0  0  0  0  0
  -16.8862  -39.4810   -8.4223 C   0  0  1  0  0  0  0  0  0  0  0  0
  -18.1119  -38.9487   -8.7897 O   0  0  0  0  0  0  0  0  0  0  0  0
  -15.7324  -38.5253   -8.5340 C   0  0  2  0  0  0  0  0  0  0  0  0
  -15.6248  -38.0884   -9.9780 C   0  0  0  0  0  0  0  0  0  0  0  0
  -14.5635  -37.0621  -10.2348 C   0  0  2  0  0  0  0  0  0  0  0  0
  -14.0610  -36.3513   -9.0213 C   0  0  0  0  0  0  0  0  0  0  0  0
  -15.0011  -36.0166  -11.2400 C   0  0  0  0  0  0  0  0  0  0  0  0
  -14.9746  -36.5026  -12.6542 C   0  0  0  0  0  0  0  0  0  0  0  0
  -13.6140  -36.4252  -13.2710 C   0  0  0  0  0  0  0  0  0  0  0  0
  -13.0934  -37.7378  -13.7683 C   0  0  0  0  0  0  0  0  0  0  0  0
  -11.6379  -37.9493  -13.4676 C   0  0  0  0  0  0  0  0  0  0  0  0
  -11.3666  -39.3127  -12.8742 C   0  0  0  0  0  0  0  0  0  0  0  0
  -12.1064  -39.5320  -11.7175 O   0  0  0  0  0  0  0  0  0  0  0  0
  -12.1435  -40.8590  -11.3484 C   0  0  0  0  0  0  0  0  0  0  0  0
  -13.5053  -41.3573  -11.0185 C   0  0  0  0  0  0  0  0  0  0  0  0
  -14.3501  -41.2337  -11.9777 O   0  0  0  0  0  0  0  0  0  0  0  0
  -13.9252  -41.9263   -9.8041 N   0  0  0  0  0  0  0  0  0  0  0  0
  -14.6203  -43.2136   -9.8917 C   0  0  0  0  0  0  0  0  0  0  0  0
  -13.7671  -41.4113   -8.4762 C   0  0  1  0  0  0  0  0  0  0  0  0
  -12.5209  -42.1515   -7.9195 C   0  0  0  0  0  0  0  0  0  0  0  0
  -13.5989  -39.9637   -8.3431 C   0  0  0  0  0  0  0  0  0  0  0  0
  -12.4090  -39.5578   -8.6431 O   0  0  0  0  0  0  0  0  0  0  0  0
  -14.5025  -38.9715   -7.9471 N   0  0  0  0  0  0  0  0  0  0  0  0
  -21.9406  -37.1159   -9.1827 C   0  0  0  0  0  0  0  0  0  0  0  0
  -22.3710  -35.7602   -8.6992 C   0  0  0  0  0  0  0  0  0  0  0  0
  -23.3297  -36.5782   -9.4576 C   0  0  0  0  0  0  0  0  0  0  0  0
  1  2  1  0
  2  3  1  0
  2  4  1  0
  4  5  1  0
  5  6  2  0
  6  7  1  0
  7  8  2  0
  8  9  1  0
  9 10  2  0
 10 11  1  0
 11 12  1  0
 12 13  1  0
 13 14  1  0
 14 15  1  1
 14 16  1  0
 16 17  1  6
 17 18  1  0
 18 19  1  1
 18 20  1  0
 20 21  1  0
 21 22  1  0
 22 23  1  0
 23 24  1  0
 24 25  1  0
 25 26  1  0
 26 27  1  0
 27 28  1  0
 28 29  2  0
 28 30  1  0
 30 31  1  0
 30 32  1  0
 32 33  1  6
 32 34  1  0
 34 35  2  0
 34 36  1  0
  8 37  1  0
 37 38  1  0
 38 39  1  0
 10  5  1  0
 36 16  1  0
 39 37  1  0
M  END
$$$$
