
     RDKit          3D

 39 41  0  0  0  0  0  0  0  0999 V2000
  -22.6383  -39.3088   -4.6169 C   0  0  0  0  0  0  0  0  0  0  0  0
  -21.3514  -40.0589   -4.2885 C   0  0  0  0  0  0  0  0  0  0  0  0
  -21.3716  -40.2236   -2.7569 C   0  0  0  0  0  0  0  0  0  0  0  0
  -21.2865  -41.2954   -4.8852 O   0  0  0  0  0  0  0  0  0  0  0  0
  -21.6427  -41.5362   -6.2028 C   0  0  0  0  0  0  0  0  0  0  0  0
  -22.8071  -42.1215   -6.5992 C   0  0  0  0  0  0  0  0  0  0  0  0
  -23.1136  -42.3397   -7.9410 C   0  0  0  0  0  0  0  0  0  0  0  0
  -22.2231  -41.9587   -8.9240 C   0  0  0  0  0  0  0  0  0  0  0  0
  -21.0583  -41.3730   -8.5262 C   0  0  0  0  0  0  0  0  0  0  0  0
  -20.7448  -41.1532   -7.2186 C   0  0  0  0  0  0  0  0  0  0  0  0
  -19.4509  -40.5090   -6.8102 C   0  0  0  0  0  0  0  0  0  0  0  0
  -18.7786  -39.9767   -7.9539 N   0  0  0  0  0  0  0  0  0  0  0  0
  -17.5532  -39.2814   -7.6826 C   0  0  0  0  0  0  0  0  0  0  0  0
  -17.1211  -38.3979   -8.8366 C   0  0  1  0  0  0  0  0  0  0  0  0
  -18.0349  -37.3672   -8.9891 O   0  0  0  0  0  0  0  0  0  0  0  0
  -15.6907  -37.9519   -8.7263 C   0  0  2  0  0  0  0  0  0  0  0  0
  -15.2769  -37.3727  -10.0608 C   0  0  0  0  0  0  0  0  0  0  0  0
  -13.8904  -36.8048  -10.0838 C   0  0  2  0  0  0  0  0  0  0  0  0
  -13.2919  -36.5367   -8.7421 C   0  0  0  0  0  0  0  0  0  0  0  0
  -13.8010  -35.5300  -10.8976 C   0  0  0  0  0  0  0  0  0  0  0  0
  -13.8067  -35.7650  -12.3746 C   0  0  0  0  0  0  0  0  0  0  0  0
  -12.4571  -36.1206  -12.9128 C   0  0  0  0  0  0  0  0  0  0  0  0
  -12.4098  -37.4388  -13.6207 C   0  0  0  0  0  0  0  0  0  0  0  0
  -11.1766  -38.2351  -13.3066 C   0  0  0  0  0  0  0  0  0  0  0  0
  -11.4935  -39.6722  -12.9621 C   0  0  0  0  0  0  0  0  0  0  0  0
  -12.3799  -39.7670  -11.8950 O   0  0  0  0  0  0  0  0  0  0  0  0
  -12.9442  -41.0183  -11.7762 C   0  0  0  0  0  0  0  0  0  0  0  0
  -14.4205  -41.0016  -11.5967 C   0  0  0  0  0  0  0  0  0  0  0  0
  -15.0529  -40.4177  -12.5497 O   0  0  0  0  0  0  0  0  0  0  0  0
  -15.1470  -41.5461  -10.5242 N   0  0  0  0  0  0  0  0  0  0  0  0
  -16.2558  -42.4390  -10.8728 C   0  0  0  0  0  0  0  0  0  0  0  0
  -14.9510  -41.3421   -9.1194 C   0  0  1  0  0  0  0  0  0  0  0  0
  -14.1337  -42.5792   -8.6587 C   0  0  0  0  0  0  0  0  0  0  0  0
  -14.2741  -40.1084   -8.7175 C   0  0  0  0  0  0  0  0  0  0  0  0
  -12.9939  -40.1481   -8.8913 O   0  0  0  0  0  0  0  0  0  0  0  0
  -14.7828  -38.9197   -8.1829 N   0  0  0  0  0  0  0  0  0  0  0  0
  -22.5431  -42.1894  -10.3428 C   0  0  0  0  0  0  0  0  0  0  0  0
  -22.6273  -43.5828  -10.8981 C   0  0  0  0  0  0  0  0  0  0  0  0
  -21.4677  -42.7492  -11.2506 C   0  0  0  0  0  0  0  0  0  0  0  0
  1  2  1  0
  2  3  1  0
  2  4  1  0
  4  5  1  0
  5  6  2  0
  6  7  1  0
  7  8  2  0
  8  9  1  0
  9 10  2  0
 10 11  1  0
 11 12  1  0
 12 13  1  0
 13 14  1  0
 14 15  1  1
 14 16  1  0
 16 17  1  6
 17 18  1  0
 18 19  1  1
 18 20  1  0
 20 21  1  0
 21 22  1  0
 22 23  1  0
 23 24  1  0
 24 25  1  0
 25 26  1  0
 26 27  1  0
 27 28  1  0
 28 29  2  0
 28 30  1  0
 30 31  1  0
 30 32  1  0
 32 33  1  6
 32 34  1  0
 34 35  2  0
 34 36  1  0
  8 37  1  0
 37 38  1  0
 38 39  1  0
 10  5  1  0
 36 16  1  0
 39 37  1  0
M  END
$$$$
