
     RDKit          3D

 39 41  0  0  0  0  0  0  0  0999 V2000
  -22.9058  -40.9123   -6.0790 C   0  0  0  0  0  0  0  0  0  0  0  0
  -21.5463  -40.2228   -6.1339 C   0  0  0  0  0  0  0  0  0  0  0  0
  -20.5887  -41.1818   -5.4013 C   0  0  0  0  0  0  0  0  0  0  0  0
  -21.1021  -40.0186   -7.4185 O   0  0  0  0  0  0  0  0  0  0  0  0
  -21.5432  -38.9876   -8.2330 C   0  0  0  0  0  0  0  0  0  0  0  0
  -22.5369  -38.1131   -7.9114 C   0  0  0  0  0  0  0  0  0  0  0  0
  -22.9405  -37.0932   -8.7708 C   0  0  0  0  0  0  0  0  0  0  0  0
  -22.3282  -36.9410   -9.9982 C   0  0  0  0  0  0  0  0  0  0  0  0
  -21.3338  -37.8166  -10.3189 C   0  0  0  0  0  0  0  0  0  0  0  0
  -20.9285  -38.8184   -9.4893 C   0  0  0  0  0  0  0  0  0  0  0  0
  -19.8321  -39.7710   -9.8721 C   0  0  0  0  0  0  0  0  0  0  0  0
  -18.6008  -39.0664  -10.0471 N   0  0  0  0  0  0  0  0  0  0  0  0
  -17.5896  -39.3353   -9.0653 C   0  0  0  0  0  0  0  0  0  0  0  0
  -16.1899  -39.0876   -9.5929 C   0  0  1  0  0  0  0  0  0  0  0  0
  -16.0714  -37.7580   -9.9652 O   0  0  0  0  0  0  0  0  0  0  0  0
  -15.1193  -39.5708   -8.6562 C   0  0  2  0  0  0  0  0  0  0  0  0
  -13.8483  -39.7573   -9.4548 C   0  0  0  0  0  0  0  0  0  0  0  0
  -12.6591  -40.1602   -8.6368 C   0  0  2  0  0  0  0  0  0  0  0  0
  -12.7943  -39.9353   -7.1666 C   0  0  0  0  0  0  0  0  0  0  0  0
  -11.3844  -39.4831   -9.0970 C   0  0  0  0  0  0  0  0  0  0  0  0
  -10.8147  -40.0735  -10.3474 C   0  0  0  0  0  0  0  0  0  0  0  0
   -9.9905  -41.2954  -10.0914 C   0  0  0  0  0  0  0  0  0  0  0  0
  -10.4667  -42.5160  -10.8156 C   0  0  0  0  0  0  0  0  0  0  0  0
  -10.4136  -43.7600   -9.9770 C   0  0  0  0  0  0  0  0  0  0  0  0
  -11.6960  -44.5565  -10.0497 C   0  0  0  0  0  0  0  0  0  0  0  0
  -12.7994  -43.7998   -9.6712 O   0  0  0  0  0  0  0  0  0  0  0  0
  -13.9958  -44.3732  -10.0430 C   0  0  0  0  0  0  0  0  0  0  0  0
  -14.9367  -43.4325  -10.7075 C   0  0  0  0  0  0  0  0  0  0  0  0
  -14.4621  -42.8859  -11.7682 O   0  0  0  0  0  0  0  0  0  0  0  0
  -16.2397  -43.1080  -10.2932 N   0  0  0  0  0  0  0  0  0  0  0  0
  -17.2938  -43.2197  -11.3054 C   0  0  0  0  0  0  0  0  0  0  0  0
  -16.6826  -42.6743   -9.0012 C   0  0  1  0  0  0  0  0  0  0  0  0
  -17.2294  -43.9617   -8.3270 C   0  0  0  0  0  0  0  0  0  0  0  0
  -15.6873  -42.0342   -8.1403 C   0  0  0  0  0  0  0  0  0  0  0  0
  -14.8787  -42.8741   -7.5822 O   0  0  0  0  0  0  0  0  0  0  0  0
  -15.4797  -40.6858   -7.8298 N   0  0  0  0  0  0  0  0  0  0  0  0
  -22.7535  -35.8654  -10.9096 C   0  0  0  0  0  0  0  0  0  0  0  0
  -24.2093  -35.5502  -11.1050 C   0  0  0  0  0  0  0  0  0  0  0  0
  -23.4826  -36.2362  -12.1843 C   0  0  0  0  0  0  0  0  0  0  0  0
  1  2  1  0
  2  3  1  0
  2  4  1  0
  4  5  1  0
  5  6  2  0
  6  7  1  0
  7  8  2  0
  8  9  1  0
  9 10  2  0
 10 11  1  0
 11 12  1  0
 12 13  1  0
 13 14  1  0
 14 15  1  1
 14 16  1  0
 16 17  1  6
 17 18  1  0
 18 19  1  1
 18 20  1  0
 20 21  1  0
 21 22  1  0
 22 23  1  0
 23 24  1  0
 24 25  1  0
 25 26  1  0
 26 27  1  0
 27 28  1  0
 28 29  2  0
 28 30  1  0
 30 31  1  0
 30 32  1  0
 32 33  1  1
 32 34  1  0
 34 35  2  0
 34 36  1  0
  8 37  1  0
 37 38  1  0
 38 39  1  0
 10  5  1  0
 36 16  1  0
 39 37  1  0
M  END
$$$$
