
     RDKit          3D

 39 41  0  0  0  0  0  0  0  0999 V2000
  -21.8727  -43.6797   -5.1556 C   0  0  0  0  0  0  0  0  0  0  0  0
  -21.4300  -42.2412   -4.9078 C   0  0  0  0  0  0  0  0  0  0  0  0
  -20.5689  -42.3085   -3.6322 C   0  0  0  0  0  0  0  0  0  0  0  0
  -20.6847  -41.7259   -5.9415 O   0  0  0  0  0  0  0  0  0  0  0  0
  -21.0046  -40.5583   -6.6163 C   0  0  0  0  0  0  0  0  0  0  0  0
  -22.2010  -39.9129   -6.5300 C   0  0  0  0  0  0  0  0  0  0  0  0
  -22.4684  -38.7396   -7.2326 C   0  0  0  0  0  0  0  0  0  0  0  0
  -21.5040  -38.1902   -8.0527 C   0  0  0  0  0  0  0  0  0  0  0  0
  -20.3070  -38.8369   -8.1383 C   0  0  0  0  0  0  0  0  0  0  0  0
  -20.0310  -39.9844   -7.4575 C   0  0  0  0  0  0  0  0  0  0  0  0
  -18.7035  -40.6771   -7.5751 C   0  0  0  0  0  0  0  0  0  0  0  0
  -17.8024  -40.1966   -6.5749 N   0  0  0  0  0  0  0  0  0  0  0  0
  -16.4318  -40.0793   -6.9824 C   0  0  0  0  0  0  0  0  0  0  0  0
  -16.0371  -38.6461   -7.2810 C   0  0  1  0  0  0  0  0  0  0  0  0
  -16.1777  -37.8852   -6.1313 O   0  0  0  0  0  0  0  0  0  0  0  0
  -14.6917  -38.5367   -7.9407 C   0  0  2  0  0  0  0  0  0  0  0  0
  -14.8980  -37.9922   -9.3367 C   0  0  0  0  0  0  0  0  0  0  0  0
  -13.6302  -37.7469  -10.0969 C   0  0  2  0  0  0  0  0  0  0  0  0
  -12.3913  -37.6926   -9.2647 C   0  0  0  0  0  0  0  0  0  0  0  0
  -13.6897  -36.4816  -10.9280 C   0  0  0  0  0  0  0  0  0  0  0  0
  -14.4963  -36.6283  -12.1788 C   0  0  0  0  0  0  0  0  0  0  0  0
  -13.7233  -37.2455  -13.3010 C   0  0  0  0  0  0  0  0  0  0  0  0
  -14.3324  -38.5005  -13.8443 C   0  0  0  0  0  0  0  0  0  0  0  0
  -13.3200  -39.5675  -14.1450 C   0  0  0  0  0  0  0  0  0  0  0  0
  -13.7239  -40.9145  -13.5912 C   0  0  0  0  0  0  0  0  0  0  0  0
  -13.9410  -40.8676  -12.2186 O   0  0  0  0  0  0  0  0  0  0  0  0
  -14.6251  -41.9663  -11.7461 C   0  0  0  0  0  0  0  0  0  0  0  0
  -15.7600  -41.6311  -10.8454 C   0  0  0  0  0  0  0  0  0  0  0  0
  -16.6430  -40.8698  -11.3838 O   0  0  0  0  0  0  0  0  0  0  0  0
  -15.9398  -42.0579   -9.5186 N   0  0  0  0  0  0  0  0  0  0  0  0
  -17.2362  -42.6610   -9.1965 C   0  0  0  0  0  0  0  0  0  0  0  0
  -15.0182  -41.9798   -8.4240 C   0  0  1  0  0  0  0  0  0  0  0  0
  -14.3745  -43.3912   -8.3582 C   0  0  0  0  0  0  0  0  0  0  0  0
  -13.9799  -40.9517   -8.5048 C   0  0  0  0  0  0  0  0  0  0  0  0
  -13.0104  -41.2660   -9.2998 O   0  0  0  0  0  0  0  0  0  0  0  0
  -13.8715  -39.7106   -7.8679 N   0  0  0  0  0  0  0  0  0  0  0  0
  -21.7838  -36.9515   -8.7980 C   0  0  0  0  0  0  0  0  0  0  0  0
  -21.4013  -36.8183  -10.2448 C   0  0  0  0  0  0  0  0  0  0  0  0
  -20.6206  -36.0859   -9.2360 C   0  0  0  0  0  0  0  0  0  0  0  0
  1  2  1  0
  2  3  1  0
  2  4  1  0
  4  5  1  0
  5  6  2  0
  6  7  1  0
  7  8  2  0
  8  9  1  0
  9 10  2  0
 10 11  1  0
 11 12  1  0
 12 13  1  0
 13 14  1  0
 14 15  1  1
 14 16  1  0
 16 17  1  6
 17 18  1  0
 18 19  1  1
 18 20  1  0
 20 21  1  0
 21 22  1  0
 22 23  1  0
 23 24  1  0
 24 25  1  0
 25 26  1  0
 26 27  1  0
 27 28  1  0
 28 29  2  0
 28 30  1  0
 30 31  1  0
 30 32  1  0
 32 33  1  6
 32 34  1  0
 34 35  2  0
 34 36  1  0
  8 37  1  0
 37 38  1  0
 38 39  1  0
 10  5  1  0
 36 16  1  0
 39 37  1  0
M  END
$$$$
