
     RDKit          3D

 39 41  0  0  0  0  0  0  0  0999 V2000
  -12.3046  -41.8892  -12.8295 C   0  0  0  0  0  0  0  0  0  0  0  0
  -13.0100  -41.4107  -11.5646 C   0  0  0  0  0  0  0  0  0  0  0  0
  -12.6261  -42.4414  -10.4859 C   0  0  0  0  0  0  0  0  0  0  0  0
  -12.6073  -40.1572  -11.1699 O   0  0  0  0  0  0  0  0  0  0  0  0
  -13.1567  -38.9813  -11.6560 C   0  0  0  0  0  0  0  0  0  0  0  0
  -13.2448  -38.6509  -12.9746 C   0  0  0  0  0  0  0  0  0  0  0  0
  -13.8082  -37.4521  -13.4075 C   0  0  0  0  0  0  0  0  0  0  0  0
  -14.3024  -36.5492  -12.4883 C   0  0  0  0  0  0  0  0  0  0  0  0
  -14.2139  -36.8809  -11.1691 C   0  0  0  0  0  0  0  0  0  0  0  0
  -13.6659  -38.0488  -10.7308 C   0  0  0  0  0  0  0  0  0  0  0  0
  -13.5784  -38.3852   -9.2696 C   0  0  0  0  0  0  0  0  0  0  0  0
  -14.4397  -39.4833   -8.9604 N   0  0  0  0  0  0  0  0  0  0  0  0
  -15.8299  -39.2794   -9.2508 C   0  0  0  0  0  0  0  0  0  0  0  0
  -16.7313  -39.7490   -8.1256 C   0  0  1  0  0  0  0  0  0  0  0  0
  -16.3413  -39.1392   -6.9439 O   0  0  0  0  0  0  0  0  0  0  0  0
  -18.1914  -39.6056   -8.4492 C   0  0  2  0  0  0  0  0  0  0  0  0
  -18.9825  -39.9653   -7.2113 C   0  0  0  0  0  0  0  0  0  0  0  0
  -20.4639  -39.7896   -7.3529 C   0  0  2  0  0  0  0  0  0  0  0  0
  -20.8952  -38.9396   -8.5026 C   0  0  0  0  0  0  0  0  0  0  0  0
  -21.1033  -39.2345   -6.0966 C   0  0  0  0  0  0  0  0  0  0  0  0
  -21.2551  -40.2485   -5.0079 C   0  0  0  0  0  0  0  0  0  0  0  0
  -22.4757  -41.0981   -5.1697 C   0  0  0  0  0  0  0  0  0  0  0  0
  -22.1916  -42.5657   -5.2524 C   0  0  0  0  0  0  0  0  0  0  0  0
  -23.0205  -43.2714   -6.2861 C   0  0  0  0  0  0  0  0  0  0  0  0
  -22.1905  -44.1756   -7.1681 C   0  0  0  0  0  0  0  0  0  0  0  0
  -21.1652  -43.4832   -7.8027 O   0  0  0  0  0  0  0  0  0  0  0  0
  -20.2035  -44.3158   -8.3321 C   0  0  0  0  0  0  0  0  0  0  0  0
  -18.8093  -43.9153   -8.0040 C   0  0  0  0  0  0  0  0  0  0  0  0
  -18.5693  -43.8547   -6.7439 O   0  0  0  0  0  0  0  0  0  0  0  0
  -17.7812  -43.6135   -8.9131 N   0  0  0  0  0  0  0  0  0  0  0  0
  -16.5084  -44.3128   -8.7154 C   0  0  0  0  0  0  0  0  0  0  0  0
  -17.8072  -42.7016  -10.0183 C   0  0  1  0  0  0  0  0  0  0  0  0
  -18.0789  -43.6000  -11.2552 C   0  0  0  0  0  0  0  0  0  0  0  0
  -18.7844  -41.6140   -9.9565 C   0  0  0  0  0  0  0  0  0  0  0  0
  -19.9879  -41.9918  -10.2386 O   0  0  0  0  0  0  0  0  0  0  0  0
  -18.6242  -40.2582   -9.6505 N   0  0  0  0  0  0  0  0  0  0  0  0
  -14.8968  -35.2807  -12.9422 C   0  0  0  0  0  0  0  0  0  0  0  0
  -14.1562  -33.9827  -12.7879 C   0  0  0  0  0  0  0  0  0  0  0  0
  -15.3014  -34.2533  -11.9054 C   0  0  0  0  0  0  0  0  0  0  0  0
  1  2  1  0
  2  3  1  0
  2  4  1  0
  4  5  1  0
  5  6  2  0
  6  7  1  0
  7  8  2  0
  8  9  1  0
  9 10  2  0
 10 11  1  0
 11 12  1  0
 12 13  1  0
 13 14  1  0
 14 15  1  1
 14 16  1  0
 16 17  1  1
 17 18  1  0
 18 19  1  6
 18 20  1  0
 20 21  1  0
 21 22  1  0
 22 23  1  0
 23 24  1  0
 24 25  1  0
 25 26  1  0
 26 27  1  0
 27 28  1  0
 28 29  2  0
 28 30  1  0
 30 31  1  0
 30 32  1  0
 32 33  1  6
 32 34  1  0
 34 35  2  0
 34 36  1  0
  8 37  1  0
 37 38  1  0
 38 39  1  0
 10  5  1  0
 36 16  1  0
 39 37  1  0
M  END
$$$$
