
     RDKit          3D

 39 41  0  0  0  0  0  0  0  0999 V2000
  -22.5245  -42.1006   -3.9742 C   0  0  0  0  0  0  0  0  0  0  0  0
  -21.0905  -42.0777   -4.4936 C   0  0  0  0  0  0  0  0  0  0  0  0
  -20.6037  -43.5341   -4.3699 C   0  0  0  0  0  0  0  0  0  0  0  0
  -21.0030  -41.6711   -5.8037 O   0  0  0  0  0  0  0  0  0  0  0  0
  -21.2565  -40.3764   -6.2286 C   0  0  0  0  0  0  0  0  0  0  0  0
  -22.1326  -39.5200   -5.6332 C   0  0  0  0  0  0  0  0  0  0  0  0
  -22.3484  -38.2264   -6.1043 C   0  0  0  0  0  0  0  0  0  0  0  0
  -21.6630  -37.7711   -7.2122 C   0  0  0  0  0  0  0  0  0  0  0  0
  -20.7865  -38.6290   -7.8071 C   0  0  0  0  0  0  0  0  0  0  0  0
  -20.5650  -39.8961   -7.3581 C   0  0  0  0  0  0  0  0  0  0  0  0
  -19.5953  -40.8205   -8.0372 C   0  0  0  0  0  0  0  0  0  0  0  0
  -18.4294  -40.9978   -7.2295 N   0  0  0  0  0  0  0  0  0  0  0  0
  -17.4416  -39.9625   -7.3340 C   0  0  0  0  0  0  0  0  0  0  0  0
  -17.2254  -39.5109   -8.7651 C   0  0  1  0  0  0  0  0  0  0  0  0
  -18.4547  -39.2745   -9.3596 O   0  0  0  0  0  0  0  0  0  0  0  0
  -16.2494  -38.3741   -8.8772 C   0  0  2  0  0  0  0  0  0  0  0  0
  -16.1088  -38.0208  -10.3412 C   0  0  0  0  0  0  0  0  0  0  0  0
  -15.2248  -36.8408  -10.6090 C   0  0  2  0  0  0  0  0  0  0  0  0
  -14.9474  -35.9738   -9.4251 C   0  0  0  0  0  0  0  0  0  0  0  0
  -15.7587  -35.9583  -11.7187 C   0  0  0  0  0  0  0  0  0  0  0  0
  -15.5401  -36.5234  -13.0860 C   0  0  0  0  0  0  0  0  0  0  0  0
  -14.1703  -36.2454  -13.6189 C   0  0  0  0  0  0  0  0  0  0  0  0
  -13.3938  -37.4739  -13.9780 C   0  0  0  0  0  0  0  0  0  0  0  0
  -11.9510  -37.4023  -13.5694 C   0  0  0  0  0  0  0  0  0  0  0  0
  -11.4939  -38.6535  -12.8553 C   0  0  0  0  0  0  0  0  0  0  0  0
  -12.2709  -38.9249  -11.7346 O   0  0  0  0  0  0  0  0  0  0  0  0
  -12.1057  -40.2101  -11.2662 C   0  0  0  0  0  0  0  0  0  0  0  0
  -13.3818  -40.9205  -10.9859 C   0  0  0  0  0  0  0  0  0  0  0  0
  -14.1593  -41.0127  -12.0038 O   0  0  0  0  0  0  0  0  0  0  0  0
  -13.7885  -41.4743   -9.7601 N   0  0  0  0  0  0  0  0  0  0  0  0
  -14.2415  -42.8679   -9.7911 C   0  0  0  0  0  0  0  0  0  0  0  0
  -13.8242  -40.8534   -8.4690 C   0  0  1  0  0  0  0  0  0  0  0  0
  -12.5150  -41.3215   -7.7779 C   0  0  0  0  0  0  0  0  0  0  0  0
  -13.9200  -39.3934   -8.4389 C   0  0  0  0  0  0  0  0  0  0  0  0
  -12.7990  -38.8025   -8.6932 O   0  0  0  0  0  0  0  0  0  0  0  0
  -15.0094  -38.5545   -8.1801 N   0  0  0  0  0  0  0  0  0  0  0  0
  -21.8900  -36.4053   -7.7137 C   0  0  0  0  0  0  0  0  0  0  0  0
  -21.2408  -35.9315   -8.9830 C   0  0  0  0  0  0  0  0  0  0  0  0
  -20.7378  -35.4223   -7.6980 C   0  0  0  0  0  0  0  0  0  0  0  0
  1  2  1  0
  2  3  1  0
  2  4  1  0
  4  5  1  0
  5  6  2  0
  6  7  1  0
  7  8  2  0
  8  9  1  0
  9 10  2  0
 10 11  1  0
 11 12  1  0
 12 13  1  0
 13 14  1  0
 14 15  1  1
 14 16  1  0
 16 17  1  6
 17 18  1  0
 18 19  1  1
 18 20  1  0
 20 21  1  0
 21 22  1  0
 22 23  1  0
 23 24  1  0
 24 25  1  0
 25 26  1  0
 26 27  1  0
 27 28  1  0
 28 29  2  0
 28 30  1  0
 30 31  1  0
 30 32  1  0
 32 33  1  6
 32 34  1  0
 34 35  2  0
 34 36  1  0
  8 37  1  0
 37 38  1  0
 38 39  1  0
 10  5  1  0
 36 16  1  0
 39 37  1  0
M  END
$$$$
