
     RDKit          3D

 39 41  0  0  0  0  0  0  0  0999 V2000
  -20.7242  -37.5253   -9.7653 C   0  0  0  0  0  0  0  0  0  0  0  0
  -21.6409  -38.6683  -10.1892 C   0  0  0  0  0  0  0  0  0  0  0  0
  -21.6157  -38.6426  -11.7294 C   0  0  0  0  0  0  0  0  0  0  0  0
  -21.2094  -39.8938   -9.7407 O   0  0  0  0  0  0  0  0  0  0  0  0
  -21.4684  -40.3860   -8.4711 C   0  0  0  0  0  0  0  0  0  0  0  0
  -22.5305  -41.1736   -8.1441 C   0  0  0  0  0  0  0  0  0  0  0  0
  -22.7422  -41.6407   -6.8484 C   0  0  0  0  0  0  0  0  0  0  0  0
  -21.8592  -41.3085   -5.8412 C   0  0  0  0  0  0  0  0  0  0  0  0
  -20.7966  -40.5204   -6.1696 C   0  0  0  0  0  0  0  0  0  0  0  0
  -20.5766  -40.0562   -7.4316 C   0  0  0  0  0  0  0  0  0  0  0  0
  -19.3983  -39.1856   -7.7627 C   0  0  0  0  0  0  0  0  0  0  0  0
  -18.3414  -39.4027   -6.8250 N   0  0  0  0  0  0  0  0  0  0  0  0
  -17.0767  -39.7715   -7.3935 C   0  0  0  0  0  0  0  0  0  0  0  0
  -16.4432  -38.6401   -8.1793 C   0  0  1  0  0  0  0  0  0  0  0  0
  -16.8591  -37.4285   -7.6506 O   0  0  0  0  0  0  0  0  0  0  0  0
  -14.9536  -38.7843   -8.3120 C   0  0  2  0  0  0  0  0  0  0  0  0
  -14.5638  -38.3487   -9.7070 C   0  0  0  0  0  0  0  0  0  0  0  0
  -13.0879  -38.3575   -9.9663 C   0  0  2  0  0  0  0  0  0  0  0  0
  -12.2291  -38.4017   -8.7453 C   0  0  0  0  0  0  0  0  0  0  0  0
  -12.6416  -37.1795  -10.8081 C   0  0  0  0  0  0  0  0  0  0  0  0
  -12.9704  -37.3266  -12.2596 C   0  0  0  0  0  0  0  0  0  0  0  0
  -11.9665  -38.1491  -13.0036 C   0  0  0  0  0  0  0  0  0  0  0  0
  -12.5451  -39.3503  -13.6843 C   0  0  0  0  0  0  0  0  0  0  0  0
  -11.6832  -40.5732  -13.5600 C   0  0  0  0  0  0  0  0  0  0  0  0
  -12.4730  -41.7919  -13.1410 C   0  0  0  0  0  0  0  0  0  0  0  0
  -13.1469  -41.5869  -11.9421 O   0  0  0  0  0  0  0  0  0  0  0  0
  -14.1251  -42.5287  -11.7091 C   0  0  0  0  0  0  0  0  0  0  0  0
  -15.4316  -41.9536  -11.2920 C   0  0  0  0  0  0  0  0  0  0  0  0
  -15.9304  -41.1286  -12.1403 O   0  0  0  0  0  0  0  0  0  0  0  0
  -16.1335  -42.2250  -10.1052 N   0  0  0  0  0  0  0  0  0  0  0  0
  -17.5413  -42.6057  -10.2515 C   0  0  0  0  0  0  0  0  0  0  0  0
  -15.6552  -42.1764   -8.7552 C   0  0  1  0  0  0  0  0  0  0  0  0
  -15.3188  -43.6523   -8.4102 C   0  0  0  0  0  0  0  0  0  0  0  0
  -14.4996  -41.3178   -8.4927 C   0  0  0  0  0  0  0  0  0  0  0  0
  -13.3792  -41.8389   -8.8718 O   0  0  0  0  0  0  0  0  0  0  0  0
  -14.4176  -40.0506   -7.9052 N   0  0  0  0  0  0  0  0  0  0  0  0
  -22.0809  -41.7990   -4.4705 C   0  0  0  0  0  0  0  0  0  0  0  0
  -21.9025  -40.8902   -3.2875 C   0  0  0  0  0  0  0  0  0  0  0  0
  -20.8916  -41.9281   -3.5415 C   0  0  0  0  0  0  0  0  0  0  0  0
  1  2  1  0
  2  3  1  0
  2  4  1  0
  4  5  1  0
  5  6  2  0
  6  7  1  0
  7  8  2  0
  8  9  1  0
  9 10  2  0
 10 11  1  0
 11 12  1  0
 12 13  1  0
 13 14  1  0
 14 15  1  1
 14 16  1  0
 16 17  1  6
 17 18  1  0
 18 19  1  1
 18 20  1  0
 20 21  1  0
 21 22  1  0
 22 23  1  0
 23 24  1  0
 24 25  1  0
 25 26  1  0
 26 27  1  0
 27 28  1  0
 28 29  2  0
 28 30  1  0
 30 31  1  0
 30 32  1  0
 32 33  1  6
 32 34  1  0
 34 35  2  0
 34 36  1  0
  8 37  1  0
 37 38  1  0
 38 39  1  0
 10  5  1  0
 36 16  1  0
 39 37  1  0
M  END
$$$$
