
     RDKit          3D

 39 41  0  0  0  0  0  0  0  0999 V2000
  -11.6052  -36.5840  -11.1397 C   0  0  0  0  0  0  0  0  0  0  0  0
  -12.6138  -35.4937  -10.7923 C   0  0  0  0  0  0  0  0  0  0  0  0
  -12.7685  -34.6736  -12.0873 C   0  0  0  0  0  0  0  0  0  0  0  0
  -13.8362  -35.9969  -10.4155 O   0  0  0  0  0  0  0  0  0  0  0  0
  -14.9438  -36.0378  -11.2478 C   0  0  0  0  0  0  0  0  0  0  0  0
  -15.5532  -34.9447  -11.7856 C   0  0  0  0  0  0  0  0  0  0  0  0
  -16.6665  -35.0450  -12.6177 C   0  0  0  0  0  0  0  0  0  0  0  0
  -17.1909  -36.2842  -12.9241 C   0  0  0  0  0  0  0  0  0  0  0  0
  -16.5801  -37.3773  -12.3853 C   0  0  0  0  0  0  0  0  0  0  0  0
  -15.4913  -37.2951  -11.5704 C   0  0  0  0  0  0  0  0  0  0  0  0
  -14.8419  -38.5178  -10.9880 C   0  0  0  0  0  0  0  0  0  0  0  0
  -15.7355  -39.1720  -10.0843 N   0  0  0  0  0  0  0  0  0  0  0  0
  -16.4443  -38.3095   -9.1829 C   0  0  0  0  0  0  0  0  0  0  0  0
  -16.8645  -39.0206   -7.9114 C   0  0  1  0  0  0  0  0  0  0  0  0
  -16.1838  -38.4724   -6.8359 O   0  0  0  0  0  0  0  0  0  0  0  0
  -18.3561  -39.0791   -7.7413 C   0  0  2  0  0  0  0  0  0  0  0  0
  -18.6552  -39.9252   -6.5237 C   0  0  0  0  0  0  0  0  0  0  0  0
  -20.1097  -40.0096   -6.1732 C   0  0  2  0  0  0  0  0  0  0  0  0
  -20.9757  -38.9679   -6.8019 C   0  0  0  0  0  0  0  0  0  0  0  0
  -20.3472  -39.9730   -4.6774 C   0  0  0  0  0  0  0  0  0  0  0  0
  -20.0334  -41.2653   -3.9930 C   0  0  0  0  0  0  0  0  0  0  0  0
  -21.1522  -42.2548   -4.0760 C   0  0  0  0  0  0  0  0  0  0  0  0
  -20.7736  -43.5522   -4.7197 C   0  0  0  0  0  0  0  0  0  0  0  0
  -21.8267  -44.0809   -5.6497 C   0  0  0  0  0  0  0  0  0  0  0  0
  -21.2532  -44.5146   -6.9792 C   0  0  0  0  0  0  0  0  0  0  0  0
  -20.5662  -43.4831   -7.6096 O   0  0  0  0  0  0  0  0  0  0  0  0
  -19.7593  -43.9247   -8.6354 C   0  0  0  0  0  0  0  0  0  0  0  0
  -18.3798  -43.3702   -8.6016 C   0  0  0  0  0  0  0  0  0  0  0  0
  -17.7434  -43.6266   -7.5160 O   0  0  0  0  0  0  0  0  0  0  0  0
  -17.7437  -42.6260   -9.6097 N   0  0  0  0  0  0  0  0  0  0  0  0
  -16.4169  -43.0896  -10.0252 C   0  0  0  0  0  0  0  0  0  0  0  0
  -18.2203  -41.4597  -10.2926 C   0  0  1  0  0  0  0  0  0  0  0  0
  -18.7992  -42.0020  -11.6273 C   0  0  0  0  0  0  0  0  0  0  0  0
  -19.2206  -40.6482   -9.5981 C   0  0  0  0  0  0  0  0  0  0  0  0
  -20.4081  -41.1573   -9.6369 O   0  0  0  0  0  0  0  0  0  0  0  0
  -19.0977  -39.4325   -8.9165 N   0  0  0  0  0  0  0  0  0  0  0  0
  -18.3683  -36.3936  -13.8016 C   0  0  0  0  0  0  0  0  0  0  0  0
  -19.6579  -36.9734  -13.2938 C   0  0  0  0  0  0  0  0  0  0  0  0
  -18.8397  -37.7708  -14.2202 C   0  0  0  0  0  0  0  0  0  0  0  0
  1  2  1  0
  2  3  1  0
  2  4  1  0
  4  5  1  0
  5  6  2  0
  6  7  1  0
  7  8  2  0
  8  9  1  0
  9 10  2  0
 10 11  1  0
 11 12  1  0
 12 13  1  0
 13 14  1  0
 14 15  1  1
 14 16  1  0
 16 17  1  1
 17 18  1  0
 18 19  1  6
 18 20  1  0
 20 21  1  0
 21 22  1  0
 22 23  1  0
 23 24  1  0
 24 25  1  0
 25 26  1  0
 26 27  1  0
 27 28  1  0
 28 29  2  0
 28 30  1  0
 30 31  1  0
 30 32  1  0
 32 33  1  6
 32 34  1  0
 34 35  2  0
 34 36  1  0
  8 37  1  0
 37 38  1  0
 38 39  1  0
 10  5  1  0
 36 16  1  0
 39 37  1  0
M  END
$$$$
