
     RDKit          3D

 39 41  0  0  0  0  0  0  0  0999 V2000
  -11.3457  -35.9481  -12.2386 C   0  0  0  0  0  0  0  0  0  0  0  0
  -12.5002  -36.9256  -12.0432 C   0  0  0  0  0  0  0  0  0  0  0  0
  -11.8990  -38.0872  -11.2291 C   0  0  0  0  0  0  0  0  0  0  0  0
  -13.5549  -36.3761  -11.3540 O   0  0  0  0  0  0  0  0  0  0  0  0
  -14.8705  -36.4276  -11.7869 C   0  0  0  0  0  0  0  0  0  0  0  0
  -15.2685  -36.2962  -13.0829 C   0  0  0  0  0  0  0  0  0  0  0  0
  -16.6082  -36.3564  -13.4620 C   0  0  0  0  0  0  0  0  0  0  0  0
  -17.5873  -36.5554  -12.5101 C   0  0  0  0  0  0  0  0  0  0  0  0
  -17.1879  -36.6869  -11.2134 C   0  0  0  0  0  0  0  0  0  0  0  0
  -15.8823  -36.6303  -10.8277 C   0  0  0  0  0  0  0  0  0  0  0  0
  -15.4726  -36.7746   -9.3900 C   0  0  0  0  0  0  0  0  0  0  0  0
  -15.6772  -38.1184   -8.9478 N   0  0  0  0  0  0  0  0  0  0  0  0
  -16.0152  -38.2684   -7.5615 C   0  0  0  0  0  0  0  0  0  0  0  0
  -16.8161  -39.5277   -7.2937 C   0  0  1  0  0  0  0  0  0  0  0  0
  -16.6170  -39.9246   -5.9810 O   0  0  0  0  0  0  0  0  0  0  0  0
  -18.2583  -39.3982   -7.6942 C   0  0  2  0  0  0  0  0  0  0  0  0
  -19.1012  -40.0645   -6.6296 C   0  0  0  0  0  0  0  0  0  0  0  0
  -20.5789  -39.9447   -6.8478 C   0  0  2  0  0  0  0  0  0  0  0  0
  -20.9936  -38.8881   -7.8184 C   0  0  0  0  0  0  0  0  0  0  0  0
  -21.3375  -39.7156   -5.5565 C   0  0  0  0  0  0  0  0  0  0  0  0
  -21.4874  -40.9510   -4.7271 C   0  0  0  0  0  0  0  0  0  0  0  0
  -22.6307  -41.8108   -5.1645 C   0  0  0  0  0  0  0  0  0  0  0  0
  -22.2374  -43.2061   -5.5380 C   0  0  0  0  0  0  0  0  0  0  0  0
  -22.9440  -43.7125   -6.7620 C   0  0  0  0  0  0  0  0  0  0  0  0
  -21.9952  -44.3531   -7.7488 C   0  0  0  0  0  0  0  0  0  0  0  0
  -20.9827  -43.4822   -8.1358 O   0  0  0  0  0  0  0  0  0  0  0  0
  -19.9312  -44.1234   -8.7536 C   0  0  0  0  0  0  0  0  0  0  0  0
  -18.5938  -43.7279   -8.2370 C   0  0  0  0  0  0  0  0  0  0  0  0
  -18.4420  -43.9324   -6.9783 O   0  0  0  0  0  0  0  0  0  0  0  0
  -17.5325  -43.1769   -8.9750 N   0  0  0  0  0  0  0  0  0  0  0  0
  -16.2286  -43.8307   -8.8315 C   0  0  0  0  0  0  0  0  0  0  0  0
  -17.5511  -42.0474   -9.8567 C   0  0  1  0  0  0  0  0  0  0  0  0
  -17.6760  -42.6656  -11.2755 C   0  0  0  0  0  0  0  0  0  0  0  0
  -18.6056  -41.0560   -9.6405 C   0  0  0  0  0  0  0  0  0  0  0  0
  -19.7578  -41.4289  -10.0923 O   0  0  0  0  0  0  0  0  0  0  0  0
  -18.5634  -39.7938   -9.0383 N   0  0  0  0  0  0  0  0  0  0  0  0
  -19.0040  -36.6177  -12.9069 C   0  0  0  0  0  0  0  0  0  0  0  0
  -19.4178  -37.2835  -14.1885 C   0  0  0  0  0  0  0  0  0  0  0  0
  -19.4604  -35.8154  -14.1078 C   0  0  0  0  0  0  0  0  0  0  0  0
  1  2  1  0
  2  3  1  0
  2  4  1  0
  4  5  1  0
  5  6  2  0
  6  7  1  0
  7  8  2  0
  8  9  1  0
  9 10  2  0
 10 11  1  0
 11 12  1  0
 12 13  1  0
 13 14  1  0
 14 15  1  1
 14 16  1  0
 16 17  1  1
 17 18  1  0
 18 19  1  6
 18 20  1  0
 20 21  1  0
 21 22  1  0
 22 23  1  0
 23 24  1  0
 24 25  1  0
 25 26  1  0
 26 27  1  0
 27 28  1  0
 28 29  2  0
 28 30  1  0
 30 31  1  0
 30 32  1  0
 32 33  1  6
 32 34  1  0
 34 35  2  0
 34 36  1  0
  8 37  1  0
 37 38  1  0
 38 39  1  0
 10  5  1  0
 36 16  1  0
 39 37  1  0
M  END
$$$$
