
     RDKit          3D

 39 41  0  0  0  0  0  0  0  0999 V2000
  -12.2061  -39.2813  -13.9781 C   0  0  0  0  0  0  0  0  0  0  0  0
  -13.4967  -39.9607  -13.5314 C   0  0  0  0  0  0  0  0  0  0  0  0
  -13.0987  -41.4248  -13.2644 C   0  0  0  0  0  0  0  0  0  0  0  0
  -14.0227  -39.4091  -12.3875 O   0  0  0  0  0  0  0  0  0  0  0  0
  -14.3827  -38.0760  -12.2684 C   0  0  0  0  0  0  0  0  0  0  0  0
  -15.0040  -37.3486  -13.2382 C   0  0  0  0  0  0  0  0  0  0  0  0
  -15.3433  -36.0084  -13.0637 C   0  0  0  0  0  0  0  0  0  0  0  0
  -15.0509  -35.3706  -11.8753 C   0  0  0  0  0  0  0  0  0  0  0  0
  -14.4292  -36.0995  -10.9056 C   0  0  0  0  0  0  0  0  0  0  0  0
  -14.0914  -37.4102  -11.0616 C   0  0  0  0  0  0  0  0  0  0  0  0
  -13.4029  -38.1869   -9.9759 C   0  0  0  0  0  0  0  0  0  0  0  0
  -14.3064  -38.4411   -8.8978 N   0  0  0  0  0  0  0  0  0  0  0  0
  -15.2744  -39.4738   -9.1329 C   0  0  0  0  0  0  0  0  0  0  0  0
  -16.3132  -39.5551   -8.0315 C   0  0  1  0  0  0  0  0  0  0  0  0
  -15.9835  -38.6600   -7.0262 O   0  0  0  0  0  0  0  0  0  0  0  0
  -17.7193  -39.4260   -8.5449 C   0  0  2  0  0  0  0  0  0  0  0  0
  -18.6639  -39.6917   -7.3939 C   0  0  0  0  0  0  0  0  0  0  0  0
  -20.1133  -39.5173   -7.7323 C   0  0  2  0  0  0  0  0  0  0  0  0
  -20.3850  -38.7487   -8.9835 C   0  0  0  0  0  0  0  0  0  0  0  0
  -20.8959  -38.8701   -6.6080 C   0  0  0  0  0  0  0  0  0  0  0  0
  -21.1975  -39.8031   -5.4787 C   0  0  0  0  0  0  0  0  0  0  0  0
  -22.4011  -40.6545   -5.7325 C   0  0  0  0  0  0  0  0  0  0  0  0
  -22.1311  -42.1259   -5.6762 C   0  0  0  0  0  0  0  0  0  0  0  0
  -22.8352  -42.8983   -6.7538 C   0  0  0  0  0  0  0  0  0  0  0  0
  -21.9154  -43.8682   -7.4593 C   0  0  0  0  0  0  0  0  0  0  0  0
  -20.8086  -43.2291   -8.0071 O   0  0  0  0  0  0  0  0  0  0  0  0
  -19.8011  -44.1033   -8.3522 C   0  0  0  0  0  0  0  0  0  0  0  0
  -18.4529  -43.6891   -7.8805 C   0  0  0  0  0  0  0  0  0  0  0  0
  -18.3710  -43.5404   -6.6076 O   0  0  0  0  0  0  0  0  0  0  0  0
  -17.3150  -43.4592   -8.6723 N   0  0  0  0  0  0  0  0  0  0  0  0
  -16.0874  -44.1506   -8.2681 C   0  0  0  0  0  0  0  0  0  0  0  0
  -17.1892  -42.6283   -9.8331 C   0  0  1  0  0  0  0  0  0  0  0  0
  -17.3181  -43.6108  -11.0285 C   0  0  0  0  0  0  0  0  0  0  0  0
  -18.1499  -41.5330   -9.9706 C   0  0  0  0  0  0  0  0  0  0  0  0
  -19.3144  -41.9224  -10.3744 O   0  0  0  0  0  0  0  0  0  0  0  0
  -18.0087  -40.1598   -9.7424 N   0  0  0  0  0  0  0  0  0  0  0  0
  -15.4064  -33.9539  -11.6883 C   0  0  0  0  0  0  0  0  0  0  0  0
  -14.9269  -33.1902  -10.4866 C   0  0  0  0  0  0  0  0  0  0  0  0
  -16.3432  -33.5808  -10.5581 C   0  0  0  0  0  0  0  0  0  0  0  0
  1  2  1  0
  2  3  1  0
  2  4  1  0
  4  5  1  0
  5  6  2  0
  6  7  1  0
  7  8  2  0
  8  9  1  0
  9 10  2  0
 10 11  1  0
 11 12  1  0
 12 13  1  0
 13 14  1  0
 14 15  1  1
 14 16  1  0
 16 17  1  1
 17 18  1  0
 18 19  1  6
 18 20  1  0
 20 21  1  0
 21 22  1  0
 22 23  1  0
 23 24  1  0
 24 25  1  0
 25 26  1  0
 26 27  1  0
 27 28  1  0
 28 29  2  0
 28 30  1  0
 30 31  1  0
 30 32  1  0
 32 33  1  6
 32 34  1  0
 34 35  2  0
 34 36  1  0
  8 37  1  0
 37 38  1  0
 38 39  1  0
 10  5  1  0
 36 16  1  0
 39 37  1  0
M  END
$$$$
