
     RDKit          3D

 39 41  0  0  0  0  0  0  0  0999 V2000
  -22.7676  -39.1625   -8.9215 C   0  0  0  0  0  0  0  0  0  0  0  0
  -22.1759  -37.8648   -8.3805 C   0  0  0  0  0  0  0  0  0  0  0  0
  -23.2612  -36.8014   -8.6344 C   0  0  0  0  0  0  0  0  0  0  0  0
  -21.8941  -37.9255   -7.0366 O   0  0  0  0  0  0  0  0  0  0  0  0
  -21.8477  -39.1049   -6.3101 C   0  0  0  0  0  0  0  0  0  0  0  0
  -22.6367  -39.3887   -5.2366 C   0  0  0  0  0  0  0  0  0  0  0  0
  -22.5469  -40.5934   -4.5421 C   0  0  0  0  0  0  0  0  0  0  0  0
  -21.6341  -41.5511   -4.9350 C   0  0  0  0  0  0  0  0  0  0  0  0
  -20.8451  -41.2661   -6.0094 C   0  0  0  0  0  0  0  0  0  0  0  0
  -20.9215  -40.0930   -6.6982 C   0  0  0  0  0  0  0  0  0  0  0  0
  -20.0355  -39.8055   -7.8764 C   0  0  0  0  0  0  0  0  0  0  0  0
  -18.7022  -40.2497   -7.6153 N   0  0  0  0  0  0  0  0  0  0  0  0
  -17.8430  -39.2893   -6.9843 C   0  0  0  0  0  0  0  0  0  0  0  0
  -17.0921  -38.4365   -7.9882 C   0  0  1  0  0  0  0  0  0  0  0  0
  -17.5673  -37.1361   -7.9281 O   0  0  0  0  0  0  0  0  0  0  0  0
  -15.6004  -38.5620   -7.8603 C   0  0  2  0  0  0  0  0  0  0  0  0
  -14.9717  -37.9408   -9.0877 C   0  0  0  0  0  0  0  0  0  0  0  0
  -13.4736  -37.9149   -9.0676 C   0  0  2  0  0  0  0  0  0  0  0  0
  -12.8530  -38.1253   -7.7256 C   0  0  0  0  0  0  0  0  0  0  0  0
  -12.9095  -36.6335   -9.6466 C   0  0  0  0  0  0  0  0  0  0  0  0
  -12.9620  -36.5816  -11.1404 C   0  0  0  0  0  0  0  0  0  0  0  0
  -11.8184  -37.2956  -11.7884 C   0  0  0  0  0  0  0  0  0  0  0  0
  -12.2321  -38.3927  -12.7191 C   0  0  0  0  0  0  0  0  0  0  0  0
  -11.3777  -39.6216  -12.6020 C   0  0  0  0  0  0  0  0  0  0  0  0
  -12.2006  -40.8856  -12.5036 C   0  0  0  0  0  0  0  0  0  0  0  0
  -13.0882  -40.8453  -11.4341 O   0  0  0  0  0  0  0  0  0  0  0  0
  -14.0690  -41.8097  -11.5148 C   0  0  0  0  0  0  0  0  0  0  0  0
  -15.4438  -41.2961  -11.2741 C   0  0  0  0  0  0  0  0  0  0  0  0
  -15.7984  -40.3630  -12.0820 O   0  0  0  0  0  0  0  0  0  0  0  0
  -16.3449  -41.7261  -10.2853 N   0  0  0  0  0  0  0  0  0  0  0  0
  -17.6919  -42.0827  -10.7398 C   0  0  0  0  0  0  0  0  0  0  0  0
  -16.1243  -41.8619   -8.8759 C   0  0  1  0  0  0  0  0  0  0  0  0
  -15.8206  -43.3713   -8.6751 C   0  0  0  0  0  0  0  0  0  0  0  0
  -15.0583  -41.0475   -8.2910 C   0  0  0  0  0  0  0  0  0  0  0  0
  -13.8747  -41.5128   -8.5221 O   0  0  0  0  0  0  0  0  0  0  0  0
  -15.1171  -39.8721   -7.5344 N   0  0  0  0  0  0  0  0  0  0  0  0
  -21.5353  -42.8245   -4.2022 C   0  0  0  0  0  0  0  0  0  0  0  0
  -20.3839  -43.0943   -3.2756 C   0  0  0  0  0  0  0  0  0  0  0  0
  -20.4298  -43.7926   -4.5693 C   0  0  0  0  0  0  0  0  0  0  0  0
  1  2  1  0
  2  3  1  0
  2  4  1  0
  4  5  1  0
  5  6  2  0
  6  7  1  0
  7  8  2  0
  8  9  1  0
  9 10  2  0
 10 11  1  0
 11 12  1  0
 12 13  1  0
 13 14  1  0
 14 15  1  1
 14 16  1  0
 16 17  1  6
 17 18  1  0
 18 19  1  1
 18 20  1  0
 20 21  1  0
 21 22  1  0
 22 23  1  0
 23 24  1  0
 24 25  1  0
 25 26  1  0
 26 27  1  0
 27 28  1  0
 28 29  2  0
 28 30  1  0
 30 31  1  0
 30 32  1  0
 32 33  1  6
 32 34  1  0
 34 35  2  0
 34 36  1  0
  8 37  1  0
 37 38  1  0
 38 39  1  0
 10  5  1  0
 36 16  1  0
 39 37  1  0
M  END
$$$$
