
     RDKit          3D

 39 41  0  0  0  0  0  0  0  0999 V2000
  -16.8792  -35.2280  -10.0576 C   0  0  0  0  0  0  0  0  0  0  0  0
  -16.1181  -35.5270  -11.3452 C   0  0  0  0  0  0  0  0  0  0  0  0
  -15.6647  -34.1489  -11.8634 C   0  0  0  0  0  0  0  0  0  0  0  0
  -15.0200  -36.3285  -11.1430 O   0  0  0  0  0  0  0  0  0  0  0  0
  -14.9255  -37.6361  -11.5929 C   0  0  0  0  0  0  0  0  0  0  0  0
  -15.4287  -38.0903  -12.7744 C   0  0  0  0  0  0  0  0  0  0  0  0
  -15.3045  -39.4186  -13.1770 C   0  0  0  0  0  0  0  0  0  0  0  0
  -14.6528  -40.3276  -12.3686 C   0  0  0  0  0  0  0  0  0  0  0  0
  -14.1496  -39.8719  -11.1865 C   0  0  0  0  0  0  0  0  0  0  0  0
  -14.2632  -38.5766  -10.7796 C   0  0  0  0  0  0  0  0  0  0  0  0
  -13.7017  -38.1045   -9.4690 C   0  0  0  0  0  0  0  0  0  0  0  0
  -14.6812  -38.2291   -8.4354 N   0  0  0  0  0  0  0  0  0  0  0  0
  -15.8672  -38.9537   -8.7916 C   0  0  0  0  0  0  0  0  0  0  0  0
  -16.6759  -39.3725   -7.5794 C   0  0  1  0  0  0  0  0  0  0  0  0
  -16.3184  -38.5835   -6.4976 O   0  0  0  0  0  0  0  0  0  0  0  0
  -18.1524  -39.4245   -7.8525 C   0  0  2  0  0  0  0  0  0  0  0  0
  -18.8488  -39.8524   -6.5799 C   0  0  0  0  0  0  0  0  0  0  0  0
  -20.3444  -39.8708   -6.6711 C   0  0  2  0  0  0  0  0  0  0  0  0
  -20.9196  -39.1106   -7.8207 C   0  0  0  0  0  0  0  0  0  0  0  0
  -21.0073  -39.3718   -5.4035 C   0  0  0  0  0  0  0  0  0  0  0  0
  -20.9911  -40.3705   -4.2904 C   0  0  0  0  0  0  0  0  0  0  0  0
  -22.0972  -41.3726   -4.3911 C   0  0  0  0  0  0  0  0  0  0  0  0
  -21.6300  -42.7934   -4.4555 C   0  0  0  0  0  0  0  0  0  0  0  0
  -22.3955  -43.6238   -5.4444 C   0  0  0  0  0  0  0  0  0  0  0  0
  -21.4863  -44.4355   -6.3381 C   0  0  0  0  0  0  0  0  0  0  0  0
  -20.5802  -43.6333   -7.0229 O   0  0  0  0  0  0  0  0  0  0  0  0
  -19.5379  -44.3488   -7.5705 C   0  0  0  0  0  0  0  0  0  0  0  0
  -18.1965  -43.7659   -7.3011 C   0  0  0  0  0  0  0  0  0  0  0  0
  -17.9242  -43.6449   -6.0520 O   0  0  0  0  0  0  0  0  0  0  0  0
  -17.2466  -43.3572   -8.2526 N   0  0  0  0  0  0  0  0  0  0  0  0
  -15.8886  -43.8834   -8.0877 C   0  0  0  0  0  0  0  0  0  0  0  0
  -17.4265  -42.4829   -9.3738 C   0  0  1  0  0  0  0  0  0  0  0  0
  -17.6219  -43.4380  -10.5822 C   0  0  0  0  0  0  0  0  0  0  0  0
  -18.5326  -41.5278   -9.2978 C   0  0  0  0  0  0  0  0  0  0  0  0
  -19.6864  -42.0628   -9.5286 O   0  0  0  0  0  0  0  0  0  0  0  0
  -18.5378  -40.1556   -9.0243 N   0  0  0  0  0  0  0  0  0  0  0  0
  -14.5213  -41.7324  -12.7902 C   0  0  0  0  0  0  0  0  0  0  0  0
  -13.1746  -42.3949  -12.8577 C   0  0  0  0  0  0  0  0  0  0  0  0
  -13.8506  -42.0363  -14.1138 C   0  0  0  0  0  0  0  0  0  0  0  0
  1  2  1  0
  2  3  1  0
  2  4  1  0
  4  5  1  0
  5  6  2  0
  6  7  1  0
  7  8  2  0
  8  9  1  0
  9 10  2  0
 10 11  1  0
 11 12  1  0
 12 13  1  0
 13 14  1  0
 14 15  1  1
 14 16  1  0
 16 17  1  1
 17 18  1  0
 18 19  1  6
 18 20  1  0
 20 21  1  0
 21 22  1  0
 22 23  1  0
 23 24  1  0
 24 25  1  0
 25 26  1  0
 26 27  1  0
 27 28  1  0
 28 29  2  0
 28 30  1  0
 30 31  1  0
 30 32  1  0
 32 33  1  6
 32 34  1  0
 34 35  2  0
 34 36  1  0
  8 37  1  0
 37 38  1  0
 38 39  1  0
 10  5  1  0
 36 16  1  0
 39 37  1  0
M  END
$$$$
