
     RDKit          3D

 39 41  0  0  0  0  0  0  0  0999 V2000
  -10.8273  -37.9163  -10.3469 C   0  0  0  0  0  0  0  0  0  0  0  0
  -11.7891  -37.0764  -11.1813 C   0  0  0  0  0  0  0  0  0  0  0  0
  -11.0494  -36.8356  -12.5111 C   0  0  0  0  0  0  0  0  0  0  0  0
  -12.9820  -37.7142  -11.4253 O   0  0  0  0  0  0  0  0  0  0  0  0
  -14.1650  -37.0535  -11.7165 C   0  0  0  0  0  0  0  0  0  0  0  0
  -14.6895  -36.9118  -12.9657 C   0  0  0  0  0  0  0  0  0  0  0  0
  -15.8852  -36.2358  -13.2007 C   0  0  0  0  0  0  0  0  0  0  0  0
  -16.5834  -35.6803  -12.1479 C   0  0  0  0  0  0  0  0  0  0  0  0
  -16.0577  -35.8228  -10.8983 C   0  0  0  0  0  0  0  0  0  0  0  0
  -14.8901  -36.4808  -10.6530 C   0  0  0  0  0  0  0  0  0  0  0  0
  -14.3331  -36.6182   -9.2649 C   0  0  0  0  0  0  0  0  0  0  0  0
  -14.7739  -37.8418   -8.6719 N   0  0  0  0  0  0  0  0  0  0  0  0
  -16.1109  -38.2432   -9.0036 C   0  0  0  0  0  0  0  0  0  0  0  0
  -16.9135  -38.6484   -7.7828 C   0  0  1  0  0  0  0  0  0  0  0  0
  -16.6235  -37.7845   -6.7387 O   0  0  0  0  0  0  0  0  0  0  0  0
  -18.3791  -38.8053   -8.0737 C   0  0  2  0  0  0  0  0  0  0  0  0
  -19.0538  -39.3117   -6.8183 C   0  0  0  0  0  0  0  0  0  0  0  0
  -20.5428  -39.4404   -6.9269 C   0  0  2  0  0  0  0  0  0  0  0  0
  -21.1623  -38.7009   -8.0669 C   0  0  0  0  0  0  0  0  0  0  0  0
  -21.2538  -39.0201   -5.6568 C   0  0  0  0  0  0  0  0  0  0  0  0
  -21.1733  -40.0386   -4.5646 C   0  0  0  0  0  0  0  0  0  0  0  0
  -22.1996  -41.1185   -4.6988 C   0  0  0  0  0  0  0  0  0  0  0  0
  -21.6261  -42.4985   -4.7873 C   0  0  0  0  0  0  0  0  0  0  0  0
  -22.3172  -43.3625   -5.8020 C   0  0  0  0  0  0  0  0  0  0  0  0
  -21.3406  -44.0841   -6.7020 C   0  0  0  0  0  0  0  0  0  0  0  0
  -20.4909  -43.2015   -7.3596 O   0  0  0  0  0  0  0  0  0  0  0  0
  -19.3923  -43.8247   -7.9100 C   0  0  0  0  0  0  0  0  0  0  0  0
  -18.1013  -43.1486   -7.6133 C   0  0  0  0  0  0  0  0  0  0  0  0
  -17.8512  -43.0345   -6.3589 O   0  0  0  0  0  0  0  0  0  0  0  0
  -17.1757  -42.6492   -8.5452 N   0  0  0  0  0  0  0  0  0  0  0  0
  -15.7836  -43.0753   -8.3758 C   0  0  0  0  0  0  0  0  0  0  0  0
  -17.4100  -41.7669   -9.6499 C   0  0  1  0  0  0  0  0  0  0  0  0
  -17.5210  -42.7077  -10.8801 C   0  0  0  0  0  0  0  0  0  0  0  0
  -18.5856  -40.8995   -9.5667 C   0  0  0  0  0  0  0  0  0  0  0  0
  -19.6935  -41.5145   -9.8217 O   0  0  0  0  0  0  0  0  0  0  0  0
  -18.6968  -39.5378   -9.2648 N   0  0  0  0  0  0  0  0  0  0  0  0
  -17.8463  -34.9638  -12.3929 C   0  0  0  0  0  0  0  0  0  0  0  0
  -18.6708  -35.2494  -13.6159 C   0  0  0  0  0  0  0  0  0  0  0  0
  -17.9179  -33.9876  -13.5488 C   0  0  0  0  0  0  0  0  0  0  0  0
  1  2  1  0
  2  3  1  0
  2  4  1  0
  4  5  1  0
  5  6  2  0
  6  7  1  0
  7  8  2  0
  8  9  1  0
  9 10  2  0
 10 11  1  0
 11 12  1  0
 12 13  1  0
 13 14  1  0
 14 15  1  1
 14 16  1  0
 16 17  1  1
 17 18  1  0
 18 19  1  6
 18 20  1  0
 20 21  1  0
 21 22  1  0
 22 23  1  0
 23 24  1  0
 24 25  1  0
 25 26  1  0
 26 27  1  0
 27 28  1  0
 28 29  2  0
 28 30  1  0
 30 31  1  0
 30 32  1  0
 32 33  1  6
 32 34  1  0
 34 35  2  0
 34 36  1  0
  8 37  1  0
 37 38  1  0
 38 39  1  0
 10  5  1  0
 36 16  1  0
 39 37  1  0
M  END
$$$$
