
     RDKit          3D

 39 41  0  0  0  0  0  0  0  0999 V2000
  -20.6368  -38.8710   -3.9762 C   0  0  0  0  0  0  0  0  0  0  0  0
  -21.1322  -39.8175   -5.0650 C   0  0  0  0  0  0  0  0  0  0  0  0
  -22.5974  -40.1136   -4.6923 C   0  0  0  0  0  0  0  0  0  0  0  0
  -21.0784  -39.2619   -6.3211 O   0  0  0  0  0  0  0  0  0  0  0  0
  -21.9460  -39.5940   -7.3497 C   0  0  0  0  0  0  0  0  0  0  0  0
  -22.8569  -40.6057   -7.3027 C   0  0  0  0  0  0  0  0  0  0  0  0
  -23.7058  -40.8957   -8.3691 C   0  0  0  0  0  0  0  0  0  0  0  0
  -23.6424  -40.1464   -9.5263 C   0  0  0  0  0  0  0  0  0  0  0  0
  -22.7305  -39.1342   -9.5721 C   0  0  0  0  0  0  0  0  0  0  0  0
  -21.8942  -38.8389   -8.5379 C   0  0  0  0  0  0  0  0  0  0  0  0
  -20.8963  -37.7193   -8.6191 C   0  0  0  0  0  0  0  0  0  0  0  0
  -19.7201  -38.1514   -9.3069 N   0  0  0  0  0  0  0  0  0  0  0  0
  -18.7265  -38.7894   -8.4919 C   0  0  0  0  0  0  0  0  0  0  0  0
  -17.4266  -39.0197   -9.2375 C   0  0  1  0  0  0  0  0  0  0  0  0
  -16.9840  -37.8171   -9.7651 O   0  0  0  0  0  0  0  0  0  0  0  0
  -16.4050  -39.7542   -8.4164 C   0  0  2  0  0  0  0  0  0  0  0  0
  -15.3268  -40.2563   -9.3508 C   0  0  0  0  0  0  0  0  0  0  0  0
  -14.1857  -40.9430   -8.6639 C   0  0  2  0  0  0  0  0  0  0  0  0
  -14.0819  -40.6876   -7.1962 C   0  0  0  0  0  0  0  0  0  0  0  0
  -12.8477  -40.6093   -9.2913 C   0  0  0  0  0  0  0  0  0  0  0  0
  -12.5986  -41.3273  -10.5794 C   0  0  0  0  0  0  0  0  0  0  0  0
  -12.0802  -42.7164  -10.3809 C   0  0  0  0  0  0  0  0  0  0  0  0
  -12.9295  -43.7799  -11.0043 C   0  0  0  0  0  0  0  0  0  0  0  0
  -13.0871  -44.9952  -10.1371 C   0  0  0  0  0  0  0  0  0  0  0  0
  -14.5267  -45.4440  -10.0339 C   0  0  0  0  0  0  0  0  0  0  0  0
  -15.3526  -44.4332   -9.5547 O   0  0  0  0  0  0  0  0  0  0  0  0
  -16.6900  -44.6883   -9.7658 C   0  0  0  0  0  0  0  0  0  0  0  0
  -17.4400  -43.5431  -10.3469 C   0  0  0  0  0  0  0  0  0  0  0  0
  -16.9759  -43.1361  -11.4730 O   0  0  0  0  0  0  0  0  0  0  0  0
  -18.5610  -42.9004   -9.7947 N   0  0  0  0  0  0  0  0  0  0  0  0
  -19.7241  -42.7462  -10.6732 C   0  0  0  0  0  0  0  0  0  0  0  0
  -18.7224  -42.3659   -8.4749 C   0  0  1  0  0  0  0  0  0  0  0  0
  -19.4872  -43.4727   -7.6997 C   0  0  0  0  0  0  0  0  0  0  0  0
  -17.5024  -41.9943   -7.7572 C   0  0  0  0  0  0  0  0  0  0  0  0
  -16.8673  -43.0090   -7.2696 O   0  0  0  0  0  0  0  0  0  0  0  0
  -16.9294  -40.7406   -7.5175 N   0  0  0  0  0  0  0  0  0  0  0  0
  -24.5367  -40.4512  -10.6557 C   0  0  0  0  0  0  0  0  0  0  0  0
  -25.2488  -41.7713  -10.7416 C   0  0  0  0  0  0  0  0  0  0  0  0
  -24.1195  -41.5160  -11.6488 C   0  0  0  0  0  0  0  0  0  0  0  0
  1  2  1  0
  2  3  1  0
  2  4  1  0
  4  5  1  0
  5  6  2  0
  6  7  1  0
  7  8  2  0
  8  9  1  0
  9 10  2  0
 10 11  1  0
 11 12  1  0
 12 13  1  0
 13 14  1  0
 14 15  1  1
 14 16  1  0
 16 17  1  6
 17 18  1  0
 18 19  1  1
 18 20  1  0
 20 21  1  0
 21 22  1  0
 22 23  1  0
 23 24  1  0
 24 25  1  0
 25 26  1  0
 26 27  1  0
 27 28  1  0
 28 29  2  0
 28 30  1  0
 30 31  1  0
 30 32  1  0
 32 33  1  1
 32 34  1  0
 34 35  2  0
 34 36  1  0
  8 37  1  0
 37 38  1  0
 38 39  1  0
 10  5  1  0
 36 16  1  0
 39 37  1  0
M  END
$$$$
