
     RDKit          3D

 39 41  0  0  0  0  0  0  0  0999 V2000
  -16.5762  -35.6807  -12.7120 C   0  0  0  0  0  0  0  0  0  0  0  0
  -15.2646  -35.3724  -11.9968 C   0  0  0  0  0  0  0  0  0  0  0  0
  -15.6212  -34.2743  -10.9768 C   0  0  0  0  0  0  0  0  0  0  0  0
  -14.7454  -36.4622  -11.3395 O   0  0  0  0  0  0  0  0  0  0  0  0
  -13.9268  -37.4067  -11.9384 C   0  0  0  0  0  0  0  0  0  0  0  0
  -13.6097  -37.4334  -13.2629 C   0  0  0  0  0  0  0  0  0  0  0  0
  -12.7800  -38.4090  -13.8121 C   0  0  0  0  0  0  0  0  0  0  0  0
  -12.2468  -39.3954  -13.0077 C   0  0  0  0  0  0  0  0  0  0  0  0
  -12.5647  -39.3677  -11.6824 C   0  0  0  0  0  0  0  0  0  0  0  0
  -13.3743  -38.4206  -11.1311 C   0  0  0  0  0  0  0  0  0  0  0  0
  -13.7102  -38.4182   -9.6672 C   0  0  0  0  0  0  0  0  0  0  0  0
  -14.6152  -39.4822   -9.3637 N   0  0  0  0  0  0  0  0  0  0  0  0
  -16.0058  -39.1843   -9.5538 C   0  0  0  0  0  0  0  0  0  0  0  0
  -16.6678  -38.6780   -8.2872 C   0  0  1  0  0  0  0  0  0  0  0  0
  -16.1506  -37.4324   -7.9686 O   0  0  0  0  0  0  0  0  0  0  0  0
  -18.1679  -38.7327   -8.3509 C   0  0  2  0  0  0  0  0  0  0  0  0
  -18.6792  -39.1472   -6.9891 C   0  0  0  0  0  0  0  0  0  0  0  0
  -20.1728  -39.1664   -6.8704 C   0  0  2  0  0  0  0  0  0  0  0  0
  -20.9040  -38.4181   -7.9362 C   0  0  0  0  0  0  0  0  0  0  0  0
  -20.6529  -38.6541   -5.5278 C   0  0  0  0  0  0  0  0  0  0  0  0
  -20.4801  -39.6412   -4.4177 C   0  0  0  0  0  0  0  0  0  0  0  0
  -21.5880  -40.6442   -4.3526 C   0  0  0  0  0  0  0  0  0  0  0  0
  -21.1324  -42.0656   -4.4668 C   0  0  0  0  0  0  0  0  0  0  0  0
  -22.0275  -42.9062   -5.3305 C   0  0  0  0  0  0  0  0  0  0  0  0
  -21.2508  -43.7273   -6.3341 C   0  0  0  0  0  0  0  0  0  0  0  0
  -20.4503  -42.9324   -7.1469 O   0  0  0  0  0  0  0  0  0  0  0  0
  -19.4937  -43.6537   -7.8273 C   0  0  0  0  0  0  0  0  0  0  0  0
  -18.1286  -43.0681   -7.7539 C   0  0  0  0  0  0  0  0  0  0  0  0
  -17.6847  -42.9341   -6.5563 O   0  0  0  0  0  0  0  0  0  0  0  0
  -17.3215  -42.6694   -8.8329 N   0  0  0  0  0  0  0  0  0  0  0  0
  -15.9531  -43.1939   -8.8538 C   0  0  0  0  0  0  0  0  0  0  0  0
  -17.6574  -41.8068   -9.9269 C   0  0  1  0  0  0  0  0  0  0  0  0
  -18.0183  -42.7745  -11.0863 C   0  0  0  0  0  0  0  0  0  0  0  0
  -18.7433  -40.8509   -9.7071 C   0  0  0  0  0  0  0  0  0  0  0  0
  -19.9173  -41.3881   -9.7690 O   0  0  0  0  0  0  0  0  0  0  0  0
  -18.7121  -39.4759   -9.4498 N   0  0  0  0  0  0  0  0  0  0  0  0
  -11.3711  -40.4289  -13.5851 C   0  0  0  0  0  0  0  0  0  0  0  0
  -10.8576  -41.5631  -12.7442 C   0  0  0  0  0  0  0  0  0  0  0  0
   -9.9262  -40.4940  -13.1357 C   0  0  0  0  0  0  0  0  0  0  0  0
  1  2  1  0
  2  3  1  0
  2  4  1  0
  4  5  1  0
  5  6  2  0
  6  7  1  0
  7  8  2  0
  8  9  1  0
  9 10  2  0
 10 11  1  0
 11 12  1  0
 12 13  1  0
 13 14  1  0
 14 15  1  6
 14 16  1  0
 16 17  1  1
 17 18  1  0
 18 19  1  6
 18 20  1  0
 20 21  1  0
 21 22  1  0
 22 23  1  0
 23 24  1  0
 24 25  1  0
 25 26  1  0
 26 27  1  0
 27 28  1  0
 28 29  2  0
 28 30  1  0
 30 31  1  0
 30 32  1  0
 32 33  1  6
 32 34  1  0
 34 35  2  0
 34 36  1  0
  8 37  1  0
 37 38  1  0
 38 39  1  0
 10  5  1  0
 36 16  1  0
 39 37  1  0
M  END
$$$$
