
     RDKit          3D

 39 41  0  0  0  0  0  0  0  0999 V2000
  -23.7066  -39.9465   -6.5762 C   0  0  0  0  0  0  0  0  0  0  0  0
  -22.2173  -40.2726   -6.6238 C   0  0  0  0  0  0  0  0  0  0  0  0
  -22.1200  -41.7377   -6.1576 C   0  0  0  0  0  0  0  0  0  0  0  0
  -21.6841  -40.1530   -7.8851 O   0  0  0  0  0  0  0  0  0  0  0  0
  -21.2938  -38.9475   -8.4469 C   0  0  0  0  0  0  0  0  0  0  0  0
  -21.9666  -38.2966   -9.4363 C   0  0  0  0  0  0  0  0  0  0  0  0
  -21.5272  -37.0844   -9.9650 C   0  0  0  0  0  0  0  0  0  0  0  0
  -20.3718  -36.5004   -9.4870 C   0  0  0  0  0  0  0  0  0  0  0  0
  -19.6994  -37.1527   -8.4967 C   0  0  0  0  0  0  0  0  0  0  0  0
  -20.1166  -38.3380   -7.9701 C   0  0  0  0  0  0  0  0  0  0  0  0
  -19.3520  -39.0356   -6.8817 C   0  0  0  0  0  0  0  0  0  0  0  0
  -18.2625  -39.7761   -7.4364 N   0  0  0  0  0  0  0  0  0  0  0  0
  -17.0299  -39.0543   -7.5722 C   0  0  0  0  0  0  0  0  0  0  0  0
  -16.4788  -39.1098   -8.9835 C   0  0  1  0  0  0  0  0  0  0  0  0
  -17.2854  -38.3530   -9.8185 O   0  0  0  0  0  0  0  0  0  0  0  0
  -15.0169  -38.7703   -9.0530 C   0  0  2  0  0  0  0  0  0  0  0  0
  -14.5895  -38.8362  -10.5023 C   0  0  0  0  0  0  0  0  0  0  0  0
  -13.1651  -38.4386  -10.7444 C   0  0  2  0  0  0  0  0  0  0  0  0
  -12.5197  -37.6808   -9.6311 C   0  0  0  0  0  0  0  0  0  0  0  0
  -12.9979  -37.6321  -12.0160 C   0  0  0  0  0  0  0  0  0  0  0  0
  -13.0528  -38.4622  -13.2588 C   0  0  0  0  0  0  0  0  0  0  0  0
  -11.7455  -39.1130  -13.5826 C   0  0  0  0  0  0  0  0  0  0  0  0
  -11.8123  -40.6058  -13.6729 C   0  0  0  0  0  0  0  0  0  0  0  0
  -10.6358  -41.2902  -13.0396 C   0  0  0  0  0  0  0  0  0  0  0  0
  -11.0521  -42.4223  -12.1289 C   0  0  0  0  0  0  0  0  0  0  0  0
  -11.9200  -41.9934  -11.1308 O   0  0  0  0  0  0  0  0  0  0  0  0
  -12.5740  -43.0328  -10.5059 C   0  0  0  0  0  0  0  0  0  0  0  0
  -14.0406  -42.8288  -10.3676 C   0  0  0  0  0  0  0  0  0  0  0  0
  -14.6478  -42.6503  -11.4850 O   0  0  0  0  0  0  0  0  0  0  0  0
  -14.7828  -42.8171   -9.1744 N   0  0  0  0  0  0  0  0  0  0  0  0
  -15.9626  -43.6856   -9.1304 C   0  0  0  0  0  0  0  0  0  0  0  0
  -14.5420  -42.0599   -7.9818 C   0  0  1  0  0  0  0  0  0  0  0  0
  -13.8101  -43.0499   -7.0357 C   0  0  0  0  0  0  0  0  0  0  0  0
  -13.7661  -40.8275   -8.1252 C   0  0  0  0  0  0  0  0  0  0  0  0
  -12.4965  -41.0347   -8.2511 O   0  0  0  0  0  0  0  0  0  0  0  0
  -14.1727  -39.4888   -8.1435 N   0  0  0  0  0  0  0  0  0  0  0  0
  -19.9037  -35.2205  -10.0447 C   0  0  0  0  0  0  0  0  0  0  0  0
  -20.8805  -34.1693  -10.4897 C   0  0  0  0  0  0  0  0  0  0  0  0
  -20.1473  -34.9321  -11.5115 C   0  0  0  0  0  0  0  0  0  0  0  0
  1  2  1  0
  2  3  1  0
  2  4  1  0
  4  5  1  0
  5  6  2  0
  6  7  1  0
  7  8  2  0
  8  9  1  0
  9 10  2  0
 10 11  1  0
 11 12  1  0
 12 13  1  0
 13 14  1  0
 14 15  1  6
 14 16  1  0
 16 17  1  6
 17 18  1  0
 18 19  1  1
 18 20  1  0
 20 21  1  0
 21 22  1  0
 22 23  1  0
 23 24  1  0
 24 25  1  0
 25 26  1  0
 26 27  1  0
 27 28  1  0
 28 29  2  0
 28 30  1  0
 30 31  1  0
 30 32  1  0
 32 33  1  1
 32 34  1  0
 34 35  2  0
 34 36  1  0
  8 37  1  0
 37 38  1  0
 38 39  1  0
 10  5  1  0
 36 16  1  0
 39 37  1  0
M  END
$$$$
