
     RDKit          3D

 39 41  0  0  0  0  0  0  0  0999 V2000
  -23.8214  -36.7223   -8.1726 C   0  0  0  0  0  0  0  0  0  0  0  0
  -22.6623  -37.2672   -9.0011 C   0  0  0  0  0  0  0  0  0  0  0  0
  -22.3864  -36.1786  -10.0557 C   0  0  0  0  0  0  0  0  0  0  0  0
  -21.5287  -37.4855   -8.2552 O   0  0  0  0  0  0  0  0  0  0  0  0
  -21.4361  -38.4378   -7.2524 C   0  0  0  0  0  0  0  0  0  0  0  0
  -21.3959  -38.1619   -5.9191 C   0  0  0  0  0  0  0  0  0  0  0  0
  -21.3021  -39.1614   -4.9526 C   0  0  0  0  0  0  0  0  0  0  0  0
  -21.2465  -40.4869   -5.3326 C   0  0  0  0  0  0  0  0  0  0  0  0
  -21.2869  -40.7619   -6.6671 C   0  0  0  0  0  0  0  0  0  0  0  0
  -21.3784  -39.7957   -7.6234 C   0  0  0  0  0  0  0  0  0  0  0  0
  -21.4169  -40.1292   -9.0873 C   0  0  0  0  0  0  0  0  0  0  0  0
  -20.1455  -39.8736   -9.6884 N   0  0  0  0  0  0  0  0  0  0  0  0
  -19.0137  -39.9898   -8.8142 C   0  0  0  0  0  0  0  0  0  0  0  0
  -17.7144  -39.6065   -9.4951 C   0  0  1  0  0  0  0  0  0  0  0  0
  -17.8256  -38.3205   -9.9993 O   0  0  0  0  0  0  0  0  0  0  0  0
  -16.5106  -39.8335   -8.6252 C   0  0  2  0  0  0  0  0  0  0  0  0
  -15.2751  -39.6275   -9.4730 C   0  0  0  0  0  0  0  0  0  0  0  0
  -13.9844  -39.7389   -8.7200 C   0  0  2  0  0  0  0  0  0  0  0  0
  -14.1052  -39.6384   -7.2349 C   0  0  0  0  0  0  0  0  0  0  0  0
  -12.9597  -38.7198   -9.1747 C   0  0  0  0  0  0  0  0  0  0  0  0
  -12.3127  -39.0667  -10.4777 C   0  0  0  0  0  0  0  0  0  0  0  0
  -11.1812  -40.0336  -10.3267 C   0  0  0  0  0  0  0  0  0  0  0  0
  -11.3480  -41.2964  -11.1132 C   0  0  0  0  0  0  0  0  0  0  0  0
  -10.9253  -42.5235  -10.3588 C   0  0  0  0  0  0  0  0  0  0  0  0
  -11.9506  -43.6308  -10.4431 C   0  0  0  0  0  0  0  0  0  0  0  0
  -13.1968  -43.2206   -9.9825 O   0  0  0  0  0  0  0  0  0  0  0  0
  -14.2130  -44.0740  -10.3534 C   0  0  0  0  0  0  0  0  0  0  0  0
  -15.4011  -43.3869  -10.9263 C   0  0  0  0  0  0  0  0  0  0  0  0
  -15.1401  -42.6763  -11.9636 O   0  0  0  0  0  0  0  0  0  0  0  0
  -16.7223  -43.4480  -10.4518 N   0  0  0  0  0  0  0  0  0  0  0  0
  -17.7549  -43.7847  -11.4360 C   0  0  0  0  0  0  0  0  0  0  0  0
  -17.2036  -43.2200   -9.1214 C   0  0  1  0  0  0  0  0  0  0  0  0
  -17.3545  -44.6414   -8.5152 C   0  0  0  0  0  0  0  0  0  0  0  0
  -16.3757  -42.3829   -8.2522 C   0  0  0  0  0  0  0  0  0  0  0  0
  -15.3469  -43.0029   -7.7748 O   0  0  0  0  0  0  0  0  0  0  0  0
  -16.5210  -41.0472   -7.8618 N   0  0  0  0  0  0  0  0  0  0  0  0
  -21.1456  -41.5455   -4.3140 C   0  0  0  0  0  0  0  0  0  0  0  0
  -21.0710  -42.9928   -4.7101 C   0  0  0  0  0  0  0  0  0  0  0  0
  -22.3184  -42.4840   -4.1197 C   0  0  0  0  0  0  0  0  0  0  0  0
  1  2  1  0
  2  3  1  0
  2  4  1  0
  4  5  1  0
  5  6  2  0
  6  7  1  0
  7  8  2  0
  8  9  1  0
  9 10  2  0
 10 11  1  0
 11 12  1  0
 12 13  1  0
 13 14  1  0
 14 15  1  1
 14 16  1  0
 16 17  1  6
 17 18  1  0
 18 19  1  1
 18 20  1  0
 20 21  1  0
 21 22  1  0
 22 23  1  0
 23 24  1  0
 24 25  1  0
 25 26  1  0
 26 27  1  0
 27 28  1  0
 28 29  2  0
 28 30  1  0
 30 31  1  0
 30 32  1  0
 32 33  1  1
 32 34  1  0
 34 35  2  0
 34 36  1  0
  8 37  1  0
 37 38  1  0
 38 39  1  0
 10  5  1  0
 36 16  1  0
 39 37  1  0
M  END
$$$$
