
     RDKit          3D

 40 43  0  0  0  0  0  0  0  0999 V2000
  -12.3214  -43.8906   -8.1348 C   0  0  0  0  0  0  0  0  0  0  0  0
  -12.1104  -42.4625   -8.5881 C   0  0  0  0  0  0  0  0  0  0  0  0
  -11.0368  -41.7618   -7.7905 C   0  0  0  0  0  0  0  0  0  0  0  0
  -11.7714  -42.4375  -10.0650 C   0  0  0  0  0  0  0  0  0  0  0  0
  -11.9403  -41.0922  -10.6458 C   0  0  0  0  0  0  0  0  0  0  0  0
  -13.1662  -40.4301  -10.6711 C   0  0  0  0  0  0  0  0  0  0  0  0
  -13.3200  -39.1701  -11.2158 C   0  0  0  0  0  0  0  0  0  0  0  0
  -12.2108  -38.5464  -11.7553 C   0  0  0  0  0  0  0  0  0  0  0  0
  -11.0282  -39.1869  -11.7301 N   0  0  0  0  0  0  0  0  0  0  0  0
  -10.8769  -40.4144  -11.1998 C   0  0  0  0  0  0  0  0  0  0  0  0
  -14.6648  -38.4943  -11.2192 C   0  0  0  0  0  0  0  0  0  0  0  0
  -14.4884  -37.2109  -12.0013 C   0  0  0  0  0  0  0  0  0  0  0  0
  -15.6033  -39.4084  -11.9592 C   0  0  0  0  0  0  0  0  0  0  0  0
  -15.0156  -38.2630   -9.8481 N   0  0  0  0  0  0  0  0  0  0  0  0
  -16.4377  -38.3278   -9.6021 C   0  0  0  0  0  0  0  0  0  0  0  0
  -16.6418  -38.5152   -8.1160 C   0  0  1  0  0  0  0  0  0  0  0  0
  -16.8007  -37.2419   -7.5708 O   0  0  0  0  0  0  0  0  0  0  0  0
  -17.8574  -39.3922   -7.8272 C   0  0  2  0  0  0  0  0  0  0  0  0
  -18.2676  -39.2868   -6.3882 C   0  0  0  0  0  0  0  0  0  0  0  0
  -19.5642  -39.8925   -6.0054 C   0  0  0  0  0  0  0  0  0  0  0  0
  -20.8551  -39.5011   -6.3060 C   0  0  0  0  0  0  0  0  0  0  0  0
  -21.9042  -40.2643   -5.8192 C   0  0  0  0  0  0  0  0  0  0  0  0
  -21.6381  -41.4128   -5.0330 C   0  0  0  0  0  0  0  0  0  0  0  0
  -20.3761  -41.8228   -4.7203 C   0  0  0  0  0  0  0  0  0  0  0  0
  -19.3623  -41.0473   -5.2179 C   0  0  0  0  0  0  0  0  0  0  0  0
  -23.2612  -40.0970   -5.9705 O   0  0  0  0  0  0  0  0  0  0  0  0
  -24.1855  -39.9010   -6.9736 C   0  0  0  0  0  0  0  0  0  0  0  0
  -24.1806  -41.0535   -7.9347 C   0  0  0  0  0  0  0  0  0  0  0  0
  -24.7778  -40.6271   -9.2776 C   0  0  0  0  0  0  0  0  0  0  0  0
  -23.8034  -39.7252   -9.9720 C   0  0  0  0  0  0  0  0  0  0  0  0
  -22.9527  -40.4431  -10.9032 N   0  0  0  0  0  0  0  0  0  0  0  0
  -21.5358  -40.6034  -10.9523 C   0  0  0  0  0  0  0  0  0  0  0  0
  -20.6012  -40.8724   -9.9779 C   0  0  0  0  0  0  0  0  0  0  0  0
  -19.2761  -40.9735  -10.3338 C   0  0  0  0  0  0  0  0  0  0  0  0
  -18.9106  -40.7998  -11.6969 C   0  0  0  0  0  0  0  0  0  0  0  0
  -19.8024  -40.5330  -12.6962 C   0  0  0  0  0  0  0  0  0  0  0  0
  -21.1060  -40.4403  -12.2964 C   0  0  0  0  0  0  0  0  0  0  0  0
  -18.0658  -41.2422   -9.5491 C   0  0  0  0  0  0  0  0  0  0  0  0
  -17.1529  -42.0669  -10.0314 O   0  0  0  0  0  0  0  0  0  0  0  0
  -17.6456  -40.7522   -8.2786 N   0  0  0  0  0  0  0  0  0  0  0  0
  1  2  1  0
  2  3  1  0
  2  4  1  0
  4  5  1  0
  5  6  2  0
  6  7  1  0
  7  8  2  0
  8  9  1  0
  9 10  2  0
  7 11  1  0
 11 12  1  0
 11 13  1  0
 11 14  1  0
 14 15  1  0
 15 16  1  0
 16 17  1  1
 16 18  1  0
 18 19  1  1
 19 20  1  0
 20 21  2  0
 21 22  1  0
 22 23  2  0
 23 24  1  0
 24 25  2  0
 22 26  1  0
 26 27  1  0
 27 28  1  0
 28 29  1  0
 29 30  1  0
 30 31  1  0
 31 32  1  0
 32 33  2  0
 33 34  1  0
 34 35  2  0
 35 36  1  0
 36 37  2  0
 34 38  1  0
 38 39  2  0
 38 40  1  0
 10  5  1  0
 25 20  1  0
 37 32  1  0
 40 18  1  0
M  END
$$$$
