
     RDKit          3D

 40 43  0  0  0  0  0  0  0  0999 V2000
  -25.0807  -39.4866   -4.5600 C   0  0  0  0  0  0  0  0  0  0  0  0
  -23.8230  -39.4797   -5.4014 C   0  0  0  0  0  0  0  0  0  0  0  0
  -22.8960  -38.3457   -5.0351 C   0  0  0  0  0  0  0  0  0  0  0  0
  -23.1085  -40.8095   -5.2674 C   0  0  0  0  0  0  0  0  0  0  0  0
  -22.0832  -40.9910   -6.3121 C   0  0  0  0  0  0  0  0  0  0  0  0
  -20.7704  -40.5472   -6.1656 C   0  0  0  0  0  0  0  0  0  0  0  0
  -19.8131  -40.7194   -7.1464 C   0  0  0  0  0  0  0  0  0  0  0  0
  -20.1775  -41.3580   -8.3168 C   0  0  0  0  0  0  0  0  0  0  0  0
  -21.4451  -41.7858   -8.4566 N   0  0  0  0  0  0  0  0  0  0  0  0
  -22.3787  -41.6187   -7.5019 C   0  0  0  0  0  0  0  0  0  0  0  0
  -18.4070  -40.2233   -6.9420 C   0  0  0  0  0  0  0  0  0  0  0  0
  -18.3768  -38.8105   -7.4832 C   0  0  0  0  0  0  0  0  0  0  0  0
  -18.1721  -40.1970   -5.4561 C   0  0  0  0  0  0  0  0  0  0  0  0
  -17.5450  -41.1118   -7.6662 N   0  0  0  0  0  0  0  0  0  0  0  0
  -16.1716  -40.6658   -7.7125 C   0  0  0  0  0  0  0  0  0  0  0  0
  -16.1784  -39.1572   -7.8087 C   0  0  1  0  0  0  0  0  0  0  0  0
  -15.3497  -38.6882   -6.7903 O   0  0  0  0  0  0  0  0  0  0  0  0
  -15.6907  -38.6842   -9.1756 C   0  0  2  0  0  0  0  0  0  0  0  0
  -15.5809  -37.1889   -9.2203 C   0  0  0  0  0  0  0  0  0  0  0  0
  -14.9023  -36.5924  -10.3943 C   0  0  0  0  0  0  0  0  0  0  0  0
  -13.5689  -36.6087  -10.7575 C   0  0  0  0  0  0  0  0  0  0  0  0
  -13.1984  -35.9684  -11.9291 C   0  0  0  0  0  0  0  0  0  0  0  0
  -14.1777  -35.3176  -12.7197 C   0  0  0  0  0  0  0  0  0  0  0  0
  -15.4994  -35.2849  -12.3868 C   0  0  0  0  0  0  0  0  0  0  0  0
  -15.8322  -35.9280  -11.2239 C   0  0  0  0  0  0  0  0  0  0  0  0
  -11.9576  -35.8382  -12.5088 O   0  0  0  0  0  0  0  0  0  0  0  0
  -10.8911  -36.6257  -12.8850 C   0  0  0  0  0  0  0  0  0  0  0  0
  -11.3103  -37.6331  -13.9151 C   0  0  0  0  0  0  0  0  0  0  0  0
  -10.3260  -38.8046  -13.9429 C   0  0  0  0  0  0  0  0  0  0  0  0
  -10.5207  -39.6252  -12.7045 C   0  0  0  0  0  0  0  0  0  0  0  0
  -11.4174  -40.7460  -12.9195 N   0  0  0  0  0  0  0  0  0  0  0  0
  -12.6643  -41.0837  -12.3137 C   0  0  0  0  0  0  0  0  0  0  0  0
  -13.7719  -40.3306  -11.9958 C   0  0  0  0  0  0  0  0  0  0  0  0
  -14.8509  -40.9469  -11.4054 C   0  0  0  0  0  0  0  0  0  0  0  0
  -14.7920  -42.3432  -11.1429 C   0  0  0  0  0  0  0  0  0  0  0  0
  -13.7159  -43.1292  -11.4417 C   0  0  0  0  0  0  0  0  0  0  0  0
  -12.6678  -42.4747  -12.0254 C   0  0  0  0  0  0  0  0  0  0  0  0
  -16.1490  -40.4341  -10.9530 C   0  0  0  0  0  0  0  0  0  0  0  0
  -17.2422  -41.1340  -11.2006 O   0  0  0  0  0  0  0  0  0  0  0  0
  -16.4911  -39.2459  -10.2443 N   0  0  0  0  0  0  0  0  0  0  0  0
  1  2  1  0
  2  3  1  0
  2  4  1  0
  4  5  1  0
  5  6  2  0
  6  7  1  0
  7  8  2  0
  8  9  1  0
  9 10  2  0
  7 11  1  0
 11 12  1  0
 11 13  1  0
 11 14  1  0
 14 15  1  0
 15 16  1  0
 16 17  1  1
 16 18  1  0
 18 19  1  1
 19 20  1  0
 20 21  2  0
 21 22  1  0
 22 23  2  0
 23 24  1  0
 24 25  2  0
 22 26  1  0
 26 27  1  0
 27 28  1  0
 28 29  1  0
 29 30  1  0
 30 31  1  0
 31 32  1  0
 32 33  2  0
 33 34  1  0
 34 35  2  0
 35 36  1  0
 36 37  2  0
 34 38  1  0
 38 39  2  0
 38 40  1  0
 10  5  1  0
 25 20  1  0
 37 32  1  0
 40 18  1  0
M  END
$$$$
