
     RDKit          3D

 40 43  0  0  0  0  0  0  0  0999 V2000
  -22.4327  -41.3325   -1.5581 C   0  0  0  0  0  0  0  0  0  0  0  0
  -21.8094  -41.5313   -2.9224 C   0  0  0  0  0  0  0  0  0  0  0  0
  -21.4199  -42.9690   -3.1693 C   0  0  0  0  0  0  0  0  0  0  0  0
  -22.7634  -41.0512   -3.9976 C   0  0  0  0  0  0  0  0  0  0  0  0
  -22.1618  -41.1289   -5.3420 C   0  0  0  0  0  0  0  0  0  0  0  0
  -21.1417  -40.2775   -5.7621 C   0  0  0  0  0  0  0  0  0  0  0  0
  -20.5808  -40.3538   -7.0221 C   0  0  0  0  0  0  0  0  0  0  0  0
  -21.0537  -41.3145   -7.8961 C   0  0  0  0  0  0  0  0  0  0  0  0
  -22.0384  -42.1356   -7.4890 N   0  0  0  0  0  0  0  0  0  0  0  0
  -22.5858  -42.0623   -6.2617 C   0  0  0  0  0  0  0  0  0  0  0  0
  -19.4799  -39.4123   -7.4304 C   0  0  0  0  0  0  0  0  0  0  0  0
  -19.2758  -39.6228   -8.9150 C   0  0  0  0  0  0  0  0  0  0  0  0
  -19.9931  -38.0192   -7.1865 C   0  0  0  0  0  0  0  0  0  0  0  0
  -18.3247  -39.7658   -6.6575 N   0  0  0  0  0  0  0  0  0  0  0  0
  -17.1271  -39.9125   -7.4521 C   0  0  0  0  0  0  0  0  0  0  0  0
  -16.3814  -38.5982   -7.4115 C   0  0  1  0  0  0  0  0  0  0  0  0
  -15.2130  -38.8240   -6.6850 O   0  0  0  0  0  0  0  0  0  0  0  0
  -16.0656  -38.0935   -8.8171 C   0  0  2  0  0  0  0  0  0  0  0  0
  -16.0965  -36.5947   -8.8706 C   0  0  0  0  0  0  0  0  0  0  0  0
  -15.5849  -35.9483  -10.1013 C   0  0  0  0  0  0  0  0  0  0  0  0
  -14.2943  -35.8466  -10.5853 C   0  0  0  0  0  0  0  0  0  0  0  0
  -14.0920  -35.1844  -11.7855 C   0  0  0  0  0  0  0  0  0  0  0  0
  -15.1945  -34.6308  -12.4825 C   0  0  0  0  0  0  0  0  0  0  0  0
  -16.4777  -34.7153  -12.0298 C   0  0  0  0  0  0  0  0  0  0  0  0
  -16.6432  -35.3770  -10.8418 C   0  0  0  0  0  0  0  0  0  0  0  0
  -12.9264  -34.9470  -12.4764 O   0  0  0  0  0  0  0  0  0  0  0  0
  -11.8316  -35.6377  -12.9493 C   0  0  0  0  0  0  0  0  0  0  0  0
  -12.2501  -36.6867  -13.9374 C   0  0  0  0  0  0  0  0  0  0  0  0
  -11.1702  -37.7645  -14.0562 C   0  0  0  0  0  0  0  0  0  0  0  0
  -11.1757  -38.5900  -12.8057 C   0  0  0  0  0  0  0  0  0  0  0  0
  -11.9829  -39.7888  -12.9385 N   0  0  0  0  0  0  0  0  0  0  0  0
  -13.1334  -40.2332  -12.2211 C   0  0  0  0  0  0  0  0  0  0  0  0
  -14.2711  -39.5810  -11.8025 C   0  0  0  0  0  0  0  0  0  0  0  0
  -15.2313  -40.2879  -11.1160 C   0  0  0  0  0  0  0  0  0  0  0  0
  -15.0222  -41.6710  -10.8611 C   0  0  0  0  0  0  0  0  0  0  0  0
  -13.9110  -42.3588  -11.2578 C   0  0  0  0  0  0  0  0  0  0  0  0
  -12.9844  -41.6167  -11.9348 C   0  0  0  0  0  0  0  0  0  0  0  0
  -16.5238  -39.8910  -10.5462 C   0  0  0  0  0  0  0  0  0  0  0  0
  -17.5670  -40.6888  -10.6930 O   0  0  0  0  0  0  0  0  0  0  0  0
  -16.9060  -38.7333   -9.8083 N   0  0  0  0  0  0  0  0  0  0  0  0
  1  2  1  0
  2  3  1  0
  2  4  1  0
  4  5  1  0
  5  6  2  0
  6  7  1  0
  7  8  2  0
  8  9  1  0
  9 10  2  0
  7 11  1  0
 11 12  1  0
 11 13  1  0
 11 14  1  0
 14 15  1  0
 15 16  1  0
 16 17  1  1
 16 18  1  0
 18 19  1  1
 19 20  1  0
 20 21  2  0
 21 22  1  0
 22 23  2  0
 23 24  1  0
 24 25  2  0
 22 26  1  0
 26 27  1  0
 27 28  1  0
 28 29  1  0
 29 30  1  0
 30 31  1  0
 31 32  1  0
 32 33  2  0
 33 34  1  0
 34 35  2  0
 35 36  1  0
 36 37  2  0
 34 38  1  0
 38 39  2  0
 38 40  1  0
 10  5  1  0
 25 20  1  0
 37 32  1  0
 40 18  1  0
M  END
$$$$
