
     RDKit          3D

 40 43  0  0  0  0  0  0  0  0999 V2000
  -25.5420  -42.3745   -5.8332 C   0  0  0  0  0  0  0  0  0  0  0  0
  -24.4746  -41.3687   -6.2053 C   0  0  0  0  0  0  0  0  0  0  0  0
  -25.0612  -40.0745   -6.7159 C   0  0  0  0  0  0  0  0  0  0  0  0
  -23.5776  -41.1069   -5.0122 C   0  0  0  0  0  0  0  0  0  0  0  0
  -22.1501  -41.2486   -5.3552 C   0  0  0  0  0  0  0  0  0  0  0  0
  -21.5099  -40.4210   -6.2756 C   0  0  0  0  0  0  0  0  0  0  0  0
  -20.1727  -40.5569   -6.5939 C   0  0  0  0  0  0  0  0  0  0  0  0
  -19.4461  -41.5546   -5.9716 C   0  0  0  0  0  0  0  0  0  0  0  0
  -20.0655  -42.3526   -5.0835 N   0  0  0  0  0  0  0  0  0  0  0  0
  -21.3683  -42.2213   -4.7724 C   0  0  0  0  0  0  0  0  0  0  0  0
  -19.5245  -39.6381   -7.5942 C   0  0  0  0  0  0  0  0  0  0  0  0
  -20.5707  -39.3639   -8.6527 C   0  0  0  0  0  0  0  0  0  0  0  0
  -19.2044  -38.3630   -6.8624 C   0  0  0  0  0  0  0  0  0  0  0  0
  -18.3810  -40.3309   -8.1129 N   0  0  0  0  0  0  0  0  0  0  0  0
  -17.2331  -40.2770   -7.2374 C   0  0  0  0  0  0  0  0  0  0  0  0
  -16.7069  -38.8599   -7.2517 C   0  0  1  0  0  0  0  0  0  0  0  0
  -15.7372  -38.7837   -6.2528 O   0  0  0  0  0  0  0  0  0  0  0  0
  -16.1220  -38.4968   -8.6142 C   0  0  2  0  0  0  0  0  0  0  0  0
  -16.5215  -37.1088   -9.0190 C   0  0  0  0  0  0  0  0  0  0  0  0
  -15.8466  -36.5254  -10.2017 C   0  0  0  0  0  0  0  0  0  0  0  0
  -14.5424  -36.0979  -10.3639 C   0  0  0  0  0  0  0  0  0  0  0  0
  -14.1646  -35.5921  -11.5974 C   0  0  0  0  0  0  0  0  0  0  0  0
  -15.1080  -35.5220  -12.6523 C   0  0  0  0  0  0  0  0  0  0  0  0
  -16.4004  -35.9358  -12.5215 C   0  0  0  0  0  0  0  0  0  0  0  0
  -16.7409  -36.4314  -11.2906 C   0  0  0  0  0  0  0  0  0  0  0  0
  -12.9474  -35.1071  -12.0166 O   0  0  0  0  0  0  0  0  0  0  0  0
  -11.6215  -35.4823  -12.0333 C   0  0  0  0  0  0  0  0  0  0  0  0
  -11.4352  -36.7444  -12.8234 C   0  0  0  0  0  0  0  0  0  0  0  0
  -10.1301  -37.4348  -12.4207 C   0  0  0  0  0  0  0  0  0  0  0  0
  -10.3005  -38.0245  -11.0539 C   0  0  0  0  0  0  0  0  0  0  0  0
  -10.6910  -39.4215  -11.0995 N   0  0  0  0  0  0  0  0  0  0  0  0
  -11.8488  -40.0920  -10.6037 C   0  0  0  0  0  0  0  0  0  0  0  0
  -13.1878  -39.7743  -10.6399 C   0  0  0  0  0  0  0  0  0  0  0  0
  -14.0938  -40.6359  -10.0658 C   0  0  0  0  0  0  0  0  0  0  0  0
  -13.6218  -41.8297   -9.4543 C   0  0  0  0  0  0  0  0  0  0  0  0
  -12.3046  -42.1858   -9.3959 C   0  0  0  0  0  0  0  0  0  0  0  0
  -11.4413  -41.3002   -9.9775 C   0  0  0  0  0  0  0  0  0  0  0  0
  -15.5545  -40.5838   -9.9384 C   0  0  0  0  0  0  0  0  0  0  0  0
  -16.2610  -41.6807  -10.1480 O   0  0  0  0  0  0  0  0  0  0  0  0
  -16.4277  -39.5078   -9.6055 N   0  0  0  0  0  0  0  0  0  0  0  0
  1  2  1  0
  2  3  1  0
  2  4  1  0
  4  5  1  0
  5  6  2  0
  6  7  1  0
  7  8  2  0
  8  9  1  0
  9 10  2  0
  7 11  1  0
 11 12  1  0
 11 13  1  0
 11 14  1  0
 14 15  1  0
 15 16  1  0
 16 17  1  1
 16 18  1  0
 18 19  1  6
 19 20  1  0
 20 21  2  0
 21 22  1  0
 22 23  2  0
 23 24  1  0
 24 25  2  0
 22 26  1  0
 26 27  1  0
 27 28  1  0
 28 29  1  0
 29 30  1  0
 30 31  1  0
 31 32  1  0
 32 33  2  0
 33 34  1  0
 34 35  2  0
 35 36  1  0
 36 37  2  0
 34 38  1  0
 38 39  2  0
 38 40  1  0
 10  5  1  0
 25 20  1  0
 37 32  1  0
 40 18  1  0
M  END
$$$$
