
     RDKit          3D

 40 43  0  0  0  0  0  0  0  0999 V2000
  -22.6015  -38.3701  -11.6392 C   0  0  0  0  0  0  0  0  0  0  0  0
  -21.4663  -38.6468  -12.6007 C   0  0  0  0  0  0  0  0  0  0  0  0
  -21.4374  -37.6666  -13.7488 C   0  0  0  0  0  0  0  0  0  0  0  0
  -20.1465  -38.6262  -11.8561 C   0  0  0  0  0  0  0  0  0  0  0  0
  -20.0631  -39.7052  -10.8539 C   0  0  0  0  0  0  0  0  0  0  0  0
  -20.0739  -39.4624   -9.4817 C   0  0  0  0  0  0  0  0  0  0  0  0
  -19.9958  -40.4758   -8.5464 C   0  0  0  0  0  0  0  0  0  0  0  0
  -19.9037  -41.7799   -8.9950 C   0  0  0  0  0  0  0  0  0  0  0  0
  -19.8934  -42.0125  -10.3198 N   0  0  0  0  0  0  0  0  0  0  0  0
  -19.9694  -41.0262  -11.2322 C   0  0  0  0  0  0  0  0  0  0  0  0
  -20.0120  -40.1642   -7.0740 C   0  0  0  0  0  0  0  0  0  0  0  0
  -21.3382  -39.4881   -6.8019 C   0  0  0  0  0  0  0  0  0  0  0  0
  -19.9647  -41.4848   -6.3547 C   0  0  0  0  0  0  0  0  0  0  0  0
  -18.8912  -39.3064   -6.8198 N   0  0  0  0  0  0  0  0  0  0  0  0
  -17.6163  -39.9591   -7.0082 C   0  0  0  0  0  0  0  0  0  0  0  0
  -16.5501  -38.8882   -7.0489 C   0  0  1  0  0  0  0  0  0  0  0  0
  -15.4492  -39.3940   -6.3588 O   0  0  0  0  0  0  0  0  0  0  0  0
  -16.1795  -38.5257   -8.4846 C   0  0  2  0  0  0  0  0  0  0  0  0
  -16.5735  -37.1136   -8.8023 C   0  0  0  0  0  0  0  0  0  0  0  0
  -16.0743  -36.5387  -10.0730 C   0  0  0  0  0  0  0  0  0  0  0  0
  -14.7954  -36.1670  -10.4424 C   0  0  0  0  0  0  0  0  0  0  0  0
  -14.6009  -35.6552  -11.7152 C   0  0  0  0  0  0  0  0  0  0  0  0
  -15.6998  -35.5227  -12.5999 C   0  0  0  0  0  0  0  0  0  0  0  0
  -16.9715  -35.8805  -12.2634 C   0  0  0  0  0  0  0  0  0  0  0  0
  -17.1292  -36.3837  -10.9990 C   0  0  0  0  0  0  0  0  0  0  0  0
  -13.4471  -35.2174  -12.3231 O   0  0  0  0  0  0  0  0  0  0  0  0
  -12.1610  -35.6514  -12.5617 C   0  0  0  0  0  0  0  0  0  0  0  0
  -12.1666  -36.9052  -13.3862 C   0  0  0  0  0  0  0  0  0  0  0  0
  -10.8474  -37.6610  -13.2114 C   0  0  0  0  0  0  0  0  0  0  0  0
  -10.8197  -38.2686  -11.8421 C   0  0  0  0  0  0  0  0  0  0  0  0
  -11.2782  -39.6455  -11.8390 N   0  0  0  0  0  0  0  0  0  0  0  0
  -12.3698  -40.2727  -11.1675 C   0  0  0  0  0  0  0  0  0  0  0  0
  -13.6801  -39.8946  -10.9795 C   0  0  0  0  0  0  0  0  0  0  0  0
  -14.5198  -40.7255  -10.2743 C   0  0  0  0  0  0  0  0  0  0  0  0
  -14.0112  -41.9508   -9.7626 C   0  0  0  0  0  0  0  0  0  0  0  0
  -12.7207  -42.3667   -9.9254 C   0  0  0  0  0  0  0  0  0  0  0  0
  -11.9231  -41.5098  -10.6307 C   0  0  0  0  0  0  0  0  0  0  0  0
  -15.9359  -40.6103   -9.9081 C   0  0  0  0  0  0  0  0  0  0  0  0
  -16.7183  -41.6701  -10.0115 O   0  0  0  0  0  0  0  0  0  0  0  0
  -16.6908  -39.5028   -9.4239 N   0  0  0  0  0  0  0  0  0  0  0  0
  1  2  1  0
  2  3  1  0
  2  4  1  0
  4  5  1  0
  5  6  2  0
  6  7  1  0
  7  8  2  0
  8  9  1  0
  9 10  2  0
  7 11  1  0
 11 12  1  0
 11 13  1  0
 11 14  1  0
 14 15  1  0
 15 16  1  0
 16 17  1  1
 16 18  1  0
 18 19  1  6
 19 20  1  0
 20 21  2  0
 21 22  1  0
 22 23  2  0
 23 24  1  0
 24 25  2  0
 22 26  1  0
 26 27  1  0
 27 28  1  0
 28 29  1  0
 29 30  1  0
 30 31  1  0
 31 32  1  0
 32 33  2  0
 33 34  1  0
 34 35  2  0
 35 36  1  0
 36 37  2  0
 34 38  1  0
 38 39  2  0
 38 40  1  0
 10  5  1  0
 25 20  1  0
 37 32  1  0
 40 18  1  0
M  END
$$$$
