
     RDKit          3D

 40 43  0  0  0  0  0  0  0  0999 V2000
  -11.2072  -34.0486  -12.3616 C   0  0  0  0  0  0  0  0  0  0  0  0
  -11.8790  -35.4029  -12.2984 C   0  0  0  0  0  0  0  0  0  0  0  0
  -11.2185  -36.3230  -11.3000 C   0  0  0  0  0  0  0  0  0  0  0  0
  -13.3480  -35.2322  -11.9671 C   0  0  0  0  0  0  0  0  0  0  0  0
  -14.0857  -36.5058  -12.0641 C   0  0  0  0  0  0  0  0  0  0  0  0
  -13.8413  -37.5852  -11.2173 C   0  0  0  0  0  0  0  0  0  0  0  0
  -14.5346  -38.7762  -11.3113 C   0  0  0  0  0  0  0  0  0  0  0  0
  -15.5079  -38.8961  -12.2854 C   0  0  0  0  0  0  0  0  0  0  0  0
  -15.7426  -37.8532  -13.1019 N   0  0  0  0  0  0  0  0  0  0  0  0
  -15.0679  -36.6923  -13.0114 C   0  0  0  0  0  0  0  0  0  0  0  0
  -14.2358  -39.9144  -10.3731 C   0  0  0  0  0  0  0  0  0  0  0  0
  -13.7699  -41.0633  -11.2408 C   0  0  0  0  0  0  0  0  0  0  0  0
  -13.1042  -39.4594   -9.4920 C   0  0  0  0  0  0  0  0  0  0  0  0
  -15.4542  -40.2067   -9.6753 N   0  0  0  0  0  0  0  0  0  0  0  0
  -16.3775  -39.0961   -9.6453 C   0  0  0  0  0  0  0  0  0  0  0  0
  -16.5746  -38.6976   -8.2005 C   0  0  1  0  0  0  0  0  0  0  0  0
  -16.7945  -37.3208   -8.1921 O   0  0  0  0  0  0  0  0  0  0  0  0
  -17.7476  -39.4452   -7.5717 C   0  0  2  0  0  0  0  0  0  0  0  0
  -18.2303  -38.7470   -6.3349 C   0  0  0  0  0  0  0  0  0  0  0  0
  -19.5046  -39.2166   -5.7433 C   0  0  0  0  0  0  0  0  0  0  0  0
  -20.8012  -39.0952   -6.2061 C   0  0  0  0  0  0  0  0  0  0  0  0
  -21.8242  -39.6413   -5.4477 C   0  0  0  0  0  0  0  0  0  0  0  0
  -21.5269  -40.3022   -4.2301 C   0  0  0  0  0  0  0  0  0  0  0  0
  -20.2585  -40.4371   -3.7487 C   0  0  0  0  0  0  0  0  0  0  0  0
  -19.2709  -39.8874   -4.5227 C   0  0  0  0  0  0  0  0  0  0  0  0
  -23.1803  -39.6593   -5.6783 O   0  0  0  0  0  0  0  0  0  0  0  0
  -24.0668  -39.9951   -6.6786 C   0  0  0  0  0  0  0  0  0  0  0  0
  -23.9479  -41.4493   -7.0293 C   0  0  0  0  0  0  0  0  0  0  0  0
  -24.5062  -41.7044   -8.4312 C   0  0  0  0  0  0  0  0  0  0  0  0
  -23.5562  -41.1312   -9.4382 C   0  0  0  0  0  0  0  0  0  0  0  0
  -22.6214  -42.1206   -9.9417 N   0  0  0  0  0  0  0  0  0  0  0  0
  -21.1966  -42.1801   -9.8929 C   0  0  0  0  0  0  0  0  0  0  0  0
  -20.2942  -41.9216   -8.8859 C   0  0  0  0  0  0  0  0  0  0  0  0
  -18.9503  -42.0703   -9.1398 C   0  0  0  0  0  0  0  0  0  0  0  0
  -18.5325  -42.4887  -10.4330 C   0  0  0  0  0  0  0  0  0  0  0  0
  -19.3910  -42.7570  -11.4606 C   0  0  0  0  0  0  0  0  0  0  0  0
  -20.7150  -42.5948  -11.1634 C   0  0  0  0  0  0  0  0  0  0  0  0
  -17.7640  -41.8746   -8.2988 C   0  0  0  0  0  0  0  0  0  0  0  0
  -16.7818  -42.7569   -8.3516 O   0  0  0  0  0  0  0  0  0  0  0  0
  -17.4337  -40.8449   -7.3705 N   0  0  0  0  0  0  0  0  0  0  0  0
  1  2  1  0
  2  3  1  0
  2  4  1  0
  4  5  1  0
  5  6  2  0
  6  7  1  0
  7  8  2  0
  8  9  1  0
  9 10  2  0
  7 11  1  0
 11 12  1  0
 11 13  1  0
 11 14  1  0
 14 15  1  0
 15 16  1  0
 16 17  1  6
 16 18  1  0
 18 19  1  1
 19 20  1  0
 20 21  2  0
 21 22  1  0
 22 23  2  0
 23 24  1  0
 24 25  2  0
 22 26  1  0
 26 27  1  0
 27 28  1  0
 28 29  1  0
 29 30  1  0
 30 31  1  0
 31 32  1  0
 32 33  2  0
 33 34  1  0
 34 35  2  0
 35 36  1  0
 36 37  2  0
 34 38  1  0
 38 39  2  0
 38 40  1  0
 10  5  1  0
 25 20  1  0
 37 32  1  0
 40 18  1  0
M  END
$$$$
