
     RDKit          3D

 40 43  0  0  0  0  0  0  0  0999 V2000
  -23.2360  -36.2619   -8.9471 C   0  0  0  0  0  0  0  0  0  0  0  0
  -21.9998  -37.0683   -9.2803 C   0  0  0  0  0  0  0  0  0  0  0  0
  -22.1604  -38.5298   -8.9369 C   0  0  0  0  0  0  0  0  0  0  0  0
  -21.6609  -36.9055  -10.7485 C   0  0  0  0  0  0  0  0  0  0  0  0
  -20.3572  -37.5089  -11.0826 C   0  0  0  0  0  0  0  0  0  0  0  0
  -19.1641  -37.1045  -10.4868 C   0  0  0  0  0  0  0  0  0  0  0  0
  -17.9451  -37.6723  -10.8025 C   0  0  0  0  0  0  0  0  0  0  0  0
  -17.9138  -38.6811  -11.7469 C   0  0  0  0  0  0  0  0  0  0  0  0
  -19.0663  -39.0703  -12.3210 N   0  0  0  0  0  0  0  0  0  0  0  0
  -20.2546  -38.5179  -12.0144 C   0  0  0  0  0  0  0  0  0  0  0  0
  -16.6827  -37.2024  -10.1313 C   0  0  0  0  0  0  0  0  0  0  0  0
  -15.7482  -36.7782  -11.2434 C   0  0  0  0  0  0  0  0  0  0  0  0
  -17.0566  -36.0023   -9.3044 C   0  0  0  0  0  0  0  0  0  0  0  0
  -16.1770  -38.3122   -9.3767 N   0  0  0  0  0  0  0  0  0  0  0  0
  -16.8694  -38.5169   -8.1255 C   0  0  0  0  0  0  0  0  0  0  0  0
  -16.1530  -39.6163   -7.3751 C   0  0  1  0  0  0  0  0  0  0  0  0
  -16.4954  -39.4717   -6.0313 O   0  0  0  0  0  0  0  0  0  0  0  0
  -16.5474  -40.9954   -7.8973 C   0  0  2  0  0  0  0  0  0  0  0  0
  -15.3500  -41.8924   -8.0068 C   0  0  0  0  0  0  0  0  0  0  0  0
  -15.5990  -43.3279   -8.2748 C   0  0  0  0  0  0  0  0  0  0  0  0
  -16.1419  -44.3059   -7.4632 C   0  0  0  0  0  0  0  0  0  0  0  0
  -16.2713  -45.5874   -7.9738 C   0  0  0  0  0  0  0  0  0  0  0  0
  -15.8495  -45.8675   -9.2973 C   0  0  0  0  0  0  0  0  0  0  0  0
  -15.3106  -44.9237  -10.1204 C   0  0  0  0  0  0  0  0  0  0  0  0
  -15.1978  -43.6676   -9.5856 C   0  0  0  0  0  0  0  0  0  0  0  0
  -16.7720  -46.7253   -7.3848 O   0  0  0  0  0  0  0  0  0  0  0  0
  -17.8940  -47.1429   -6.7022 C   0  0  0  0  0  0  0  0  0  0  0  0
  -19.1206  -46.9967   -7.5543 C   0  0  0  0  0  0  0  0  0  0  0  0
  -20.3732  -46.9447   -6.6766 C   0  0  0  0  0  0  0  0  0  0  0  0
  -20.4087  -45.6250   -5.9679 C   0  0  0  0  0  0  0  0  0  0  0  0
  -21.2098  -44.6409   -6.6722 N   0  0  0  0  0  0  0  0  0  0  0  0
  -20.8681  -43.3714   -7.2267 C   0  0  0  0  0  0  0  0  0  0  0  0
  -19.7919  -42.9479   -7.9735 C   0  0  0  0  0  0  0  0  0  0  0  0
  -19.7349  -41.6336   -8.3760 C   0  0  0  0  0  0  0  0  0  0  0  0
  -20.7892  -40.7518   -8.0116 C   0  0  0  0  0  0  0  0  0  0  0  0
  -21.8752  -41.1277   -7.2738 C   0  0  0  0  0  0  0  0  0  0  0  0
  -21.8890  -42.4408   -6.8954 C   0  0  0  0  0  0  0  0  0  0  0  0
  -18.7438  -40.8885   -9.1604 C   0  0  0  0  0  0  0  0  0  0  0  0
  -19.1570  -40.0391  -10.0845 O   0  0  0  0  0  0  0  0  0  0  0  0
  -17.3193  -40.8956   -9.1189 N   0  0  0  0  0  0  0  0  0  0  0  0
  1  2  1  0
  2  3  1  0
  2  4  1  0
  4  5  1  0
  5  6  2  0
  6  7  1  0
  7  8  2  0
  8  9  1  0
  9 10  2  0
  7 11  1  0
 11 12  1  0
 11 13  1  0
 11 14  1  0
 14 15  1  0
 15 16  1  0
 16 17  1  1
 16 18  1  0
 18 19  1  6
 19 20  1  0
 20 21  2  0
 21 22  1  0
 22 23  2  0
 23 24  1  0
 24 25  2  0
 22 26  1  0
 26 27  1  0
 27 28  1  0
 28 29  1  0
 29 30  1  0
 30 31  1  0
 31 32  1  0
 32 33  2  0
 33 34  1  0
 34 35  2  0
 35 36  1  0
 36 37  2  0
 34 38  1  0
 38 39  2  0
 38 40  1  0
 10  5  1  0
 25 20  1  0
 37 32  1  0
 40 18  1  0
M  END
$$$$
