
     RDKit          3D

 40 43  0  0  0  0  0  0  0  0999 V2000
  -14.3986  -35.5799  -11.7989 C   0  0  0  0  0  0  0  0  0  0  0  0
  -15.7636  -35.8546  -11.2066 C   0  0  0  0  0  0  0  0  0  0  0  0
  -16.8694  -35.1760  -11.9790 C   0  0  0  0  0  0  0  0  0  0  0  0
  -16.0046  -37.3495  -11.1436 C   0  0  0  0  0  0  0  0  0  0  0  0
  -17.2719  -37.6745  -10.4626 C   0  0  0  0  0  0  0  0  0  0  0  0
  -17.4809  -37.4380   -9.1053 C   0  0  0  0  0  0  0  0  0  0  0  0
  -18.6694  -37.7437   -8.4713 C   0  0  0  0  0  0  0  0  0  0  0  0
  -19.6879  -38.3058   -9.2178 C   0  0  0  0  0  0  0  0  0  0  0  0
  -19.4846  -38.5334  -10.5278 N   0  0  0  0  0  0  0  0  0  0  0  0
  -18.3271  -38.2361  -11.1467 C   0  0  0  0  0  0  0  0  0  0  0  0
  -18.8486  -37.4690   -7.0025 C   0  0  0  0  0  0  0  0  0  0  0  0
  -17.4578  -37.2775   -6.4378 C   0  0  0  0  0  0  0  0  0  0  0  0
  -19.6155  -36.1788   -6.8970 C   0  0  0  0  0  0  0  0  0  0  0  0
  -19.5194  -38.6083   -6.4468 N   0  0  0  0  0  0  0  0  0  0  0  0
  -18.6190  -39.5702   -5.8543 C   0  0  0  0  0  0  0  0  0  0  0  0
  -17.7069  -40.0828   -6.9454 C   0  0  1  0  0  0  0  0  0  0  0  0
  -16.5697  -40.5836   -6.3130 O   0  0  0  0  0  0  0  0  0  0  0  0
  -18.3905  -41.1614   -7.7816 C   0  0  2  0  0  0  0  0  0  0  0  0
  -17.5426  -41.5500   -8.9564 C   0  0  0  0  0  0  0  0  0  0  0  0
  -17.9585  -42.7435   -9.7291 C   0  0  0  0  0  0  0  0  0  0  0  0
  -17.9330  -44.0820   -9.3857 C   0  0  0  0  0  0  0  0  0  0  0  0
  -18.3958  -45.0068  -10.3080 C   0  0  0  0  0  0  0  0  0  0  0  0
  -18.8773  -44.5700  -11.5670 C   0  0  0  0  0  0  0  0  0  0  0  0
  -18.9143  -43.2573  -11.9334 C   0  0  0  0  0  0  0  0  0  0  0  0
  -18.4509  -42.3694  -10.9987 C   0  0  0  0  0  0  0  0  0  0  0  0
  -18.4784  -46.3770  -10.2179 O   0  0  0  0  0  0  0  0  0  0  0  0
  -18.9689  -47.3415   -9.3645 C   0  0  0  0  0  0  0  0  0  0  0  0
  -20.4539  -47.2017   -9.2003 C   0  0  0  0  0  0  0  0  0  0  0  0
  -20.9111  -47.8810   -7.9074 C   0  0  0  0  0  0  0  0  0  0  0  0
  -20.4571  -47.0536   -6.7436 C   0  0  0  0  0  0  0  0  0  0  0  0
  -21.4825  -46.1344   -6.2856 N   0  0  0  0  0  0  0  0  0  0  0  0
  -21.4998  -44.7102   -6.1999 C   0  0  0  0  0  0  0  0  0  0  0  0
  -21.0846  -43.7264   -7.0686 C   0  0  0  0  0  0  0  0  0  0  0  0
  -21.2334  -42.4081   -6.7043 C   0  0  0  0  0  0  0  0  0  0  0  0
  -21.8135  -42.0999   -5.4432 C   0  0  0  0  0  0  0  0  0  0  0  0
  -22.2402  -43.0417   -4.5510 C   0  0  0  0  0  0  0  0  0  0  0  0
  -22.0717  -44.3366   -4.9543 C   0  0  0  0  0  0  0  0  0  0  0  0
  -20.8960  -41.1553   -7.3896 C   0  0  0  0  0  0  0  0  0  0  0  0
  -21.7529  -40.1499   -7.3571 O   0  0  0  0  0  0  0  0  0  0  0  0
  -19.7417  -40.7772   -8.1350 N   0  0  0  0  0  0  0  0  0  0  0  0
  1  2  1  0
  2  3  1  0
  2  4  1  0
  4  5  1  0
  5  6  2  0
  6  7  1  0
  7  8  2  0
  8  9  1  0
  9 10  2  0
  7 11  1  0
 11 12  1  0
 11 13  1  0
 11 14  1  0
 14 15  1  0
 15 16  1  0
 16 17  1  1
 16 18  1  0
 18 19  1  6
 19 20  1  0
 20 21  2  0
 21 22  1  0
 22 23  2  0
 23 24  1  0
 24 25  2  0
 22 26  1  0
 26 27  1  0
 27 28  1  0
 28 29  1  0
 29 30  1  0
 30 31  1  0
 31 32  1  0
 32 33  2  0
 33 34  1  0
 34 35  2  0
 35 36  1  0
 36 37  2  0
 34 38  1  0
 38 39  2  0
 38 40  1  0
 10  5  1  0
 25 20  1  0
 37 32  1  0
 40 18  1  0
M  END
$$$$
