
     RDKit          3D

 40 43  0  0  0  0  0  0  0  0999 V2000
  -10.3577  -35.3830  -13.9220 C   0  0  0  0  0  0  0  0  0  0  0  0
  -10.9924  -36.3838  -12.9813 C   0  0  0  0  0  0  0  0  0  0  0  0
  -11.2079  -35.8137  -11.5999 C   0  0  0  0  0  0  0  0  0  0  0  0
  -12.3046  -36.8725  -13.5610 C   0  0  0  0  0  0  0  0  0  0  0  0
  -12.7433  -38.1369  -12.9410 C   0  0  0  0  0  0  0  0  0  0  0  0
  -13.2404  -38.2068  -11.6410 C   0  0  0  0  0  0  0  0  0  0  0  0
  -13.6504  -39.3930  -11.0642 C   0  0  0  0  0  0  0  0  0  0  0  0
  -13.5620  -40.5530  -11.8107 C   0  0  0  0  0  0  0  0  0  0  0  0
  -13.0820  -40.4838  -13.0653 N   0  0  0  0  0  0  0  0  0  0  0  0
  -12.6822  -39.3288  -13.6285 C   0  0  0  0  0  0  0  0  0  0  0  0
  -14.1815  -39.4185   -9.6563 C   0  0  0  0  0  0  0  0  0  0  0  0
  -13.8938  -40.8054   -9.1235 C   0  0  0  0  0  0  0  0  0  0  0  0
  -13.3853  -38.4064   -8.8781 C   0  0  0  0  0  0  0  0  0  0  0  0
  -15.5854  -39.1375   -9.7380 N   0  0  0  0  0  0  0  0  0  0  0  0
  -16.3694  -39.8454   -8.7524 C   0  0  0  0  0  0  0  0  0  0  0  0
  -17.3708  -38.8726   -8.1726 C   0  0  1  0  0  0  0  0  0  0  0  0
  -17.8168  -38.0807   -9.2298 O   0  0  0  0  0  0  0  0  0  0  0  0
  -18.5331  -39.6022   -7.5040 C   0  0  2  0  0  0  0  0  0  0  0  0
  -19.4676  -38.6334   -6.8421 C   0  0  0  0  0  0  0  0  0  0  0  0
  -20.7612  -39.1639   -6.3527 C   0  0  0  0  0  0  0  0  0  0  0  0
  -21.8662  -39.6077   -7.0542 C   0  0  0  0  0  0  0  0  0  0  0  0
  -22.9593  -40.0676   -6.3376 C   0  0  0  0  0  0  0  0  0  0  0  0
  -22.9252  -40.0724   -4.9210 C   0  0  0  0  0  0  0  0  0  0  0  0
  -21.8500  -39.6409   -4.2025 C   0  0  0  0  0  0  0  0  0  0  0  0
  -20.7862  -39.1941   -4.9410 C   0  0  0  0  0  0  0  0  0  0  0  0
  -24.1648  -40.5567   -6.7847 O   0  0  0  0  0  0  0  0  0  0  0  0
  -24.6492  -41.4994   -7.6655 C   0  0  0  0  0  0  0  0  0  0  0  0
  -24.1895  -42.8747   -7.2794 C   0  0  0  0  0  0  0  0  0  0  0  0
  -24.2608  -43.8157   -8.4842 C   0  0  0  0  0  0  0  0  0  0  0  0
  -23.1680  -43.4524   -9.4428 C   0  0  0  0  0  0  0  0  0  0  0  0
  -21.9740  -44.2543   -9.2493 N   0  0  0  0  0  0  0  0  0  0  0  0
  -20.6375  -43.8864   -8.9114 C   0  0  0  0  0  0  0  0  0  0  0  0
  -20.1271  -43.0039   -7.9863 C   0  0  0  0  0  0  0  0  0  0  0  0
  -18.7628  -42.8577   -7.8854 C   0  0  0  0  0  0  0  0  0  0  0  0
  -17.9200  -43.6233   -8.7370 C   0  0  0  0  0  0  0  0  0  0  0  0
  -18.3813  -44.5103   -9.6673 C   0  0  0  0  0  0  0  0  0  0  0  0
  -19.7418  -44.6218   -9.7330 C   0  0  0  0  0  0  0  0  0  0  0  0
  -17.9261  -42.0168   -7.0220 C   0  0  0  0  0  0  0  0  0  0  0  0
  -16.8375  -42.5314   -6.4776 O   0  0  0  0  0  0  0  0  0  0  0  0
  -18.0609  -40.6541   -6.6272 N   0  0  0  0  0  0  0  0  0  0  0  0
  1  2  1  0
  2  3  1  0
  2  4  1  0
  4  5  1  0
  5  6  2  0
  6  7  1  0
  7  8  2  0
  8  9  1  0
  9 10  2  0
  7 11  1  0
 11 12  1  0
 11 13  1  0
 11 14  1  0
 14 15  1  0
 15 16  1  0
 16 17  1  6
 16 18  1  0
 18 19  1  1
 19 20  1  0
 20 21  2  0
 21 22  1  0
 22 23  2  0
 23 24  1  0
 24 25  2  0
 22 26  1  0
 26 27  1  0
 27 28  1  0
 28 29  1  0
 29 30  1  0
 30 31  1  0
 31 32  1  0
 32 33  2  0
 33 34  1  0
 34 35  2  0
 35 36  1  0
 36 37  2  0
 34 38  1  0
 38 39  2  0
 38 40  1  0
 10  5  1  0
 25 20  1  0
 37 32  1  0
 40 18  1  0
M  END
$$$$
