
     RDKit          3D

 40 43  0  0  0  0  0  0  0  0999 V2000
  -22.9244  -39.5005   -4.0580 C   0  0  0  0  0  0  0  0  0  0  0  0
  -23.3399  -40.7705   -4.7680 C   0  0  0  0  0  0  0  0  0  0  0  0
  -24.3681  -41.5526   -3.9866 C   0  0  0  0  0  0  0  0  0  0  0  0
  -23.8681  -40.4373   -6.1489 C   0  0  0  0  0  0  0  0  0  0  0  0
  -22.7776  -40.1790   -7.1078 C   0  0  0  0  0  0  0  0  0  0  0  0
  -21.4783  -39.8725   -6.7078 C   0  0  0  0  0  0  0  0  0  0  0  0
  -20.4598  -39.6316   -7.6092 C   0  0  0  0  0  0  0  0  0  0  0  0
  -20.7465  -39.6987   -8.9596 C   0  0  0  0  0  0  0  0  0  0  0  0
  -22.0010  -39.9947   -9.3441 N   0  0  0  0  0  0  0  0  0  0  0  0
  -22.9943  -40.2297   -8.4670 C   0  0  0  0  0  0  0  0  0  0  0  0
  -19.0713  -39.3050   -7.1291 C   0  0  0  0  0  0  0  0  0  0  0  0
  -18.8923  -37.8173   -7.3408 C   0  0  0  0  0  0  0  0  0  0  0  0
  -19.0432  -39.6095   -5.6559 C   0  0  0  0  0  0  0  0  0  0  0  0
  -18.1654  -40.0890   -7.9173 N   0  0  0  0  0  0  0  0  0  0  0  0
  -16.8303  -40.1458   -7.3681 C   0  0  0  0  0  0  0  0  0  0  0  0
  -16.2432  -38.7544   -7.4354 C   0  0  1  0  0  0  0  0  0  0  0  0
  -15.1185  -38.7551   -6.6113 O   0  0  0  0  0  0  0  0  0  0  0  0
  -15.8751  -38.3740   -8.8671 C   0  0  2  0  0  0  0  0  0  0  0  0
  -15.9619  -36.8901   -9.0692 C   0  0  0  0  0  0  0  0  0  0  0  0
  -15.4131  -36.3433  -10.3319 C   0  0  0  0  0  0  0  0  0  0  0  0
  -14.1042  -36.2320  -10.7613 C   0  0  0  0  0  0  0  0  0  0  0  0
  -13.8662  -35.6802  -12.0099 C   0  0  0  0  0  0  0  0  0  0  0  0
  -14.9520  -35.2453  -12.8097 C   0  0  0  0  0  0  0  0  0  0  0  0
  -16.2526  -35.3423  -12.4126 C   0  0  0  0  0  0  0  0  0  0  0  0
  -16.4532  -35.8931  -11.1745 C   0  0  0  0  0  0  0  0  0  0  0  0
  -12.6765  -35.4593  -12.6644 O   0  0  0  0  0  0  0  0  0  0  0  0
  -11.5325  -36.1434  -13.0144 C   0  0  0  0  0  0  0  0  0  0  0  0
  -11.8579  -37.3001  -13.9133 C   0  0  0  0  0  0  0  0  0  0  0  0
  -10.7319  -38.3358  -13.8739 C   0  0  0  0  0  0  0  0  0  0  0  0
  -10.7698  -39.0364  -12.5500 C   0  0  0  0  0  0  0  0  0  0  0  0
  -11.5214  -40.2768  -12.6025 N   0  0  0  0  0  0  0  0  0  0  0  0
  -12.6892  -40.7003  -11.9005 C   0  0  0  0  0  0  0  0  0  0  0  0
  -13.8717  -40.0615  -11.6028 C   0  0  0  0  0  0  0  0  0  0  0  0
  -14.8376  -40.7406  -10.8967 C   0  0  0  0  0  0  0  0  0  0  0  0
  -14.5880  -42.0823  -10.4973 C   0  0  0  0  0  0  0  0  0  0  0  0
  -13.4317  -42.7554  -10.7710 C   0  0  0  0  0  0  0  0  0  0  0  0
  -12.5011  -42.0418  -11.4727 C   0  0  0  0  0  0  0  0  0  0  0  0
  -16.1724  -40.3481  -10.4309 C   0  0  0  0  0  0  0  0  0  0  0  0
  -17.1746  -41.2014  -10.5481 O   0  0  0  0  0  0  0  0  0  0  0  0
  -16.6374  -39.1426   -9.8295 N   0  0  0  0  0  0  0  0  0  0  0  0
  1  2  1  0
  2  3  1  0
  2  4  1  0
  4  5  1  0
  5  6  2  0
  6  7  1  0
  7  8  2  0
  8  9  1  0
  9 10  2  0
  7 11  1  0
 11 12  1  0
 11 13  1  0
 11 14  1  0
 14 15  1  0
 15 16  1  0
 16 17  1  1
 16 18  1  0
 18 19  1  1
 19 20  1  0
 20 21  2  0
 21 22  1  0
 22 23  2  0
 23 24  1  0
 24 25  2  0
 22 26  1  0
 26 27  1  0
 27 28  1  0
 28 29  1  0
 29 30  1  0
 30 31  1  0
 31 32  1  0
 32 33  2  0
 33 34  1  0
 34 35  2  0
 35 36  1  0
 36 37  2  0
 34 38  1  0
 38 39  2  0
 38 40  1  0
 10  5  1  0
 25 20  1  0
 37 32  1  0
 40 18  1  0
M  END
$$$$
