
     RDKit          3D

 40 43  0  0  0  0  0  0  0  0999 V2000
  -16.1209  -46.5708  -12.1590 C   0  0  0  0  0  0  0  0  0  0  0  0
  -15.0959  -45.4649  -12.0334 C   0  0  0  0  0  0  0  0  0  0  0  0
  -14.5763  -45.0113  -13.3765 C   0  0  0  0  0  0  0  0  0  0  0  0
  -15.6925  -44.2955  -11.2762 C   0  0  0  0  0  0  0  0  0  0  0  0
  -14.7007  -43.6428  -10.4011 C   0  0  0  0  0  0  0  0  0  0  0  0
  -14.4555  -42.2713  -10.4308 C   0  0  0  0  0  0  0  0  0  0  0  0
  -13.5259  -41.6639   -9.6094 C   0  0  0  0  0  0  0  0  0  0  0  0
  -12.8141  -42.4525   -8.7251 C   0  0  0  0  0  0  0  0  0  0  0  0
  -13.0520  -43.7761   -8.6976 N   0  0  0  0  0  0  0  0  0  0  0  0
  -13.9574  -44.3692   -9.4974 C   0  0  0  0  0  0  0  0  0  0  0  0
  -13.2965  -40.1780   -9.6771 C   0  0  0  0  0  0  0  0  0  0  0  0
  -11.8152  -39.9704   -9.4475 C   0  0  0  0  0  0  0  0  0  0  0  0
  -13.6526  -39.7514  -11.0753 C   0  0  0  0  0  0  0  0  0  0  0  0
  -14.1037  -39.5870   -8.6496 N   0  0  0  0  0  0  0  0  0  0  0  0
  -15.5220  -39.7508   -8.8705 C   0  0  0  0  0  0  0  0  0  0  0  0
  -16.2484  -39.0851   -7.7241 C   0  0  1  0  0  0  0  0  0  0  0  0
  -16.3445  -37.7315   -8.0441 O   0  0  0  0  0  0  0  0  0  0  0  0
  -17.6297  -39.6983   -7.5089 C   0  0  2  0  0  0  0  0  0  0  0  0
  -18.1568  -39.3720   -6.1430 C   0  0  0  0  0  0  0  0  0  0  0  0
  -19.5759  -39.6956   -5.8674 C   0  0  0  0  0  0  0  0  0  0  0  0
  -20.7333  -39.1158   -6.3514 C   0  0  0  0  0  0  0  0  0  0  0  0
  -21.9507  -39.6263   -5.9303 C   0  0  0  0  0  0  0  0  0  0  0  0
  -21.9858  -40.7150   -5.0240 C   0  0  0  0  0  0  0  0  0  0  0  0
  -20.8612  -41.3067   -4.5300 C   0  0  0  0  0  0  0  0  0  0  0  0
  -19.6749  -40.7791   -4.9670 C   0  0  0  0  0  0  0  0  0  0  0  0
  -23.2299  -39.2385   -6.2554 O   0  0  0  0  0  0  0  0  0  0  0  0
  -23.9945  -38.9883   -7.3743 C   0  0  0  0  0  0  0  0  0  0  0  0
  -24.1080  -40.2176   -8.2274 C   0  0  0  0  0  0  0  0  0  0  0  0
  -24.4753  -39.8352   -9.6629 C   0  0  0  0  0  0  0  0  0  0  0  0
  -23.2838  -39.1975  -10.3100 C   0  0  0  0  0  0  0  0  0  0  0  0
  -22.4926  -40.1479  -11.0696 N   0  0  0  0  0  0  0  0  0  0  0  0
  -21.1333  -40.5604  -10.9361 C   0  0  0  0  0  0  0  0  0  0  0  0
  -20.3695  -40.8869   -9.8383 C   0  0  0  0  0  0  0  0  0  0  0  0
  -19.0577  -41.2574  -10.0243 C   0  0  0  0  0  0  0  0  0  0  0  0
  -18.5296  -41.2946  -11.3440 C   0  0  0  0  0  0  0  0  0  0  0  0
  -19.2495  -40.9804  -12.4611 C   0  0  0  0  0  0  0  0  0  0  0  0
  -20.5464  -40.6174  -12.2285 C   0  0  0  0  0  0  0  0  0  0  0  0
  -18.0051  -41.6522   -9.0814 C   0  0  0  0  0  0  0  0  0  0  0  0
  -17.2187  -42.6711   -9.3804 O   0  0  0  0  0  0  0  0  0  0  0  0
  -17.6317  -41.1140   -7.8157 N   0  0  0  0  0  0  0  0  0  0  0  0
  1  2  1  0
  2  3  1  0
  2  4  1  0
  4  5  1  0
  5  6  2  0
  6  7  1  0
  7  8  2  0
  8  9  1  0
  9 10  2  0
  7 11  1  0
 11 12  1  0
 11 13  1  0
 11 14  1  0
 14 15  1  0
 15 16  1  0
 16 17  1  6
 16 18  1  0
 18 19  1  1
 19 20  1  0
 20 21  2  0
 21 22  1  0
 22 23  2  0
 23 24  1  0
 24 25  2  0
 22 26  1  0
 26 27  1  0
 27 28  1  0
 28 29  1  0
 29 30  1  0
 30 31  1  0
 31 32  1  0
 32 33  2  0
 33 34  1  0
 34 35  2  0
 35 36  1  0
 36 37  2  0
 34 38  1  0
 38 39  2  0
 38 40  1  0
 10  5  1  0
 25 20  1  0
 37 32  1  0
 40 18  1  0
M  END
$$$$
