
     RDKit          3D

 40 43  0  0  0  0  0  0  0  0999 V2000
  -16.9214  -33.3794  -11.4538 C   0  0  0  0  0  0  0  0  0  0  0  0
  -15.8139  -34.3956  -11.2791 C   0  0  0  0  0  0  0  0  0  0  0  0
  -15.8164  -35.0132   -9.9014 C   0  0  0  0  0  0  0  0  0  0  0  0
  -15.9324  -35.4715  -12.3398 C   0  0  0  0  0  0  0  0  0  0  0  0
  -14.8129  -36.4299  -12.2791 C   0  0  0  0  0  0  0  0  0  0  0  0
  -14.8482  -37.5821  -11.4960 C   0  0  0  0  0  0  0  0  0  0  0  0
  -13.7976  -38.4773  -11.4421 C   0  0  0  0  0  0  0  0  0  0  0  0
  -12.6698  -38.2148  -12.1969 C   0  0  0  0  0  0  0  0  0  0  0  0
  -12.6374  -37.1022  -12.9522 N   0  0  0  0  0  0  0  0  0  0  0  0
  -13.6602  -36.2292  -13.0056 C   0  0  0  0  0  0  0  0  0  0  0  0
  -13.8824  -39.7092  -10.5817 C   0  0  0  0  0  0  0  0  0  0  0  0
  -13.7036  -40.8869  -11.5150 C   0  0  0  0  0  0  0  0  0  0  0  0
  -12.7228  -39.6460   -9.6251 C   0  0  0  0  0  0  0  0  0  0  0  0
  -15.1728  -39.6897   -9.9564 N   0  0  0  0  0  0  0  0  0  0  0  0
  -15.3225  -38.6307   -8.9852 C   0  0  0  0  0  0  0  0  0  0  0  0
  -15.7787  -39.2556   -7.6864 C   0  0  1  0  0  0  0  0  0  0  0  0
  -16.2273  -38.2126   -6.8772 O   0  0  0  0  0  0  0  0  0  0  0  0
  -16.8827  -40.2834   -7.9206 C   0  0  2  0  0  0  0  0  0  0  0  0
  -16.4343  -41.6567   -7.5167 C   0  0  0  0  0  0  0  0  0  0  0  0
  -17.4648  -42.7196   -7.4639 C   0  0  0  0  0  0  0  0  0  0  0  0
  -18.5128  -42.9030   -6.5818 C   0  0  0  0  0  0  0  0  0  0  0  0
  -19.3458  -43.9946   -6.7677 C   0  0  0  0  0  0  0  0  0  0  0  0
  -19.1103  -44.8894   -7.8408 C   0  0  0  0  0  0  0  0  0  0  0  0
  -18.0851  -44.7341   -8.7260 C   0  0  0  0  0  0  0  0  0  0  0  0
  -17.2815  -43.6449   -8.5148 C   0  0  0  0  0  0  0  0  0  0  0  0
  -20.4434  -44.3999   -6.0442 O   0  0  0  0  0  0  0  0  0  0  0  0
  -21.6261  -43.8838   -5.5604 C   0  0  0  0  0  0  0  0  0  0  0  0
  -22.4956  -43.4013   -6.6842 C   0  0  0  0  0  0  0  0  0  0  0  0
  -23.5175  -42.3866   -6.1663 C   0  0  0  0  0  0  0  0  0  0  0  0
  -22.8044  -41.1092   -5.8427 C   0  0  0  0  0  0  0  0  0  0  0  0
  -22.8452  -40.1602   -6.9399 N   0  0  0  0  0  0  0  0  0  0  0  0
  -21.8007  -39.5560   -7.7013 C   0  0  0  0  0  0  0  0  0  0  0  0
  -20.6488  -40.0647   -8.2577 C   0  0  0  0  0  0  0  0  0  0  0  0
  -19.8151  -39.2208   -8.9544 C   0  0  0  0  0  0  0  0  0  0  0  0
  -20.1679  -37.8492   -9.0816 C   0  0  0  0  0  0  0  0  0  0  0  0
  -21.2994  -37.3015   -8.5480 C   0  0  0  0  0  0  0  0  0  0  0  0
  -22.0964  -38.1761   -7.8641 C   0  0  0  0  0  0  0  0  0  0  0  0
  -18.5420  -39.4489   -9.6472 C   0  0  0  0  0  0  0  0  0  0  0  0
  -18.3383  -38.8876  -10.8261 O   0  0  0  0  0  0  0  0  0  0  0  0
  -17.3952  -40.2078   -9.2733 N   0  0  0  0  0  0  0  0  0  0  0  0
  1  2  1  0
  2  3  1  0
  2  4  1  0
  4  5  1  0
  5  6  2  0
  6  7  1  0
  7  8  2  0
  8  9  1  0
  9 10  2  0
  7 11  1  0
 11 12  1  0
 11 13  1  0
 11 14  1  0
 14 15  1  0
 15 16  1  0
 16 17  1  1
 16 18  1  0
 18 19  1  6
 19 20  1  0
 20 21  2  0
 21 22  1  0
 22 23  2  0
 23 24  1  0
 24 25  2  0
 22 26  1  0
 26 27  1  0
 27 28  1  0
 28 29  1  0
 29 30  1  0
 30 31  1  0
 31 32  1  0
 32 33  2  0
 33 34  1  0
 34 35  2  0
 35 36  1  0
 36 37  2  0
 34 38  1  0
 38 39  2  0
 38 40  1  0
 10  5  1  0
 25 20  1  0
 37 32  1  0
 40 18  1  0
M  END
$$$$
