
     RDKit          3D

 40 43  0  0  0  0  0  0  0  0999 V2000
  -21.6271  -43.6220  -12.5888 C   0  0  0  0  0  0  0  0  0  0  0  0
  -20.8700  -42.5692  -11.8091 C   0  0  0  0  0  0  0  0  0  0  0  0
  -19.3788  -42.8055  -11.8278 C   0  0  0  0  0  0  0  0  0  0  0  0
  -21.1930  -41.1936  -12.3568 C   0  0  0  0  0  0  0  0  0  0  0  0
  -20.7390  -40.1205  -11.4524 C   0  0  0  0  0  0  0  0  0  0  0  0
  -19.3931  -39.8126  -11.2633 C   0  0  0  0  0  0  0  0  0  0  0  0
  -18.9721  -38.8067  -10.4155 C   0  0  0  0  0  0  0  0  0  0  0  0
  -19.9279  -38.0802   -9.7306 C   0  0  0  0  0  0  0  0  0  0  0  0
  -21.2266  -38.3786   -9.9142 N   0  0  0  0  0  0  0  0  0  0  0  0
  -21.6381  -39.3584  -10.7398 C   0  0  0  0  0  0  0  0  0  0  0  0
  -17.5065  -38.5103  -10.2445 C   0  0  0  0  0  0  0  0  0  0  0  0
  -16.8651  -38.7705  -11.5903 C   0  0  0  0  0  0  0  0  0  0  0  0
  -17.3999  -37.0468   -9.9119 C   0  0  0  0  0  0  0  0  0  0  0  0
  -17.0224  -39.3910   -9.2214 N   0  0  0  0  0  0  0  0  0  0  0  0
  -15.9398  -38.8290   -8.4473 C   0  0  0  0  0  0  0  0  0  0  0  0
  -16.1042  -39.2928   -7.0179 C   0  0  1  0  0  0  0  0  0  0  0  0
  -15.8997  -38.1755   -6.2094 O   0  0  0  0  0  0  0  0  0  0  0  0
  -17.4871  -39.8951   -6.7835 C   0  0  2  0  0  0  0  0  0  0  0  0
  -18.3987  -38.9073   -6.1176 C   0  0  0  0  0  0  0  0  0  0  0  0
  -19.8355  -39.2582   -6.0342 C   0  0  0  0  0  0  0  0  0  0  0  0
  -20.7944  -39.3341   -7.0266 C   0  0  0  0  0  0  0  0  0  0  0  0
  -22.0825  -39.6998   -6.6702 C   0  0  0  0  0  0  0  0  0  0  0  0
  -22.3884  -39.9828   -5.3159 C   0  0  0  0  0  0  0  0  0  0  0  0
  -21.4639  -39.9160   -4.3161 C   0  0  0  0  0  0  0  0  0  0  0  0
  -20.2007  -39.5530   -4.7022 C   0  0  0  0  0  0  0  0  0  0  0  0
  -23.2053  -39.8484   -7.4511 O   0  0  0  0  0  0  0  0  0  0  0  0
  -23.5995  -40.4913   -8.6045 C   0  0  0  0  0  0  0  0  0  0  0  0
  -23.4536  -41.9780   -8.4618 C   0  0  0  0  0  0  0  0  0  0  0  0
  -23.3738  -42.6380   -9.8403 C   0  0  0  0  0  0  0  0  0  0  0  0
  -22.0426  -42.3188  -10.4494 C   0  0  0  0  0  0  0  0  0  0  0  0
  -21.0612  -43.3608  -10.2102 N   0  0  0  0  0  0  0  0  0  0  0  0
  -19.8046  -43.3334   -9.5350 C   0  0  0  0  0  0  0  0  0  0  0  0
  -19.4049  -42.7620   -8.3480 C   0  0  0  0  0  0  0  0  0  0  0  0
  -18.0979  -42.9079   -7.9439 C   0  0  0  0  0  0  0  0  0  0  0  0
  -17.1990  -43.6459   -8.7619 C   0  0  0  0  0  0  0  0  0  0  0  0
  -17.5511  -44.2302   -9.9450 C   0  0  0  0  0  0  0  0  0  0  0  0
  -18.8577  -44.0585  -10.3068 C   0  0  0  0  0  0  0  0  0  0  0  0
  -17.3764  -42.4285   -6.7597 C   0  0  0  0  0  0  0  0  0  0  0  0
  -16.5375  -43.2409   -6.1413 O   0  0  0  0  0  0  0  0  0  0  0  0
  -17.3985  -41.1673   -6.0965 N   0  0  0  0  0  0  0  0  0  0  0  0
  1  2  1  0
  2  3  1  0
  2  4  1  0
  4  5  1  0
  5  6  2  0
  6  7  1  0
  7  8  2  0
  8  9  1  0
  9 10  2  0
  7 11  1  0
 11 12  1  0
 11 13  1  0
 11 14  1  0
 14 15  1  0
 15 16  1  0
 16 17  1  1
 16 18  1  0
 18 19  1  1
 19 20  1  0
 20 21  2  0
 21 22  1  0
 22 23  2  0
 23 24  1  0
 24 25  2  0
 22 26  1  0
 26 27  1  0
 27 28  1  0
 28 29  1  0
 29 30  1  0
 30 31  1  0
 31 32  1  0
 32 33  2  0
 33 34  1  0
 34 35  2  0
 35 36  1  0
 36 37  2  0
 34 38  1  0
 38 39  2  0
 38 40  1  0
 10  5  1  0
 25 20  1  0
 37 32  1  0
 40 18  1  0
M  END
$$$$
