
     RDKit          3D

 40 43  0  0  0  0  0  0  0  0999 V2000
  -19.2879  -38.9986  -14.5265 C   0  0  0  0  0  0  0  0  0  0  0  0
  -19.0375  -37.9005  -13.5160 C   0  0  0  0  0  0  0  0  0  0  0  0
  -18.2886  -36.7334  -14.1133 C   0  0  0  0  0  0  0  0  0  0  0  0
  -20.3539  -37.4362  -12.9257 C   0  0  0  0  0  0  0  0  0  0  0  0
  -20.6791  -38.1499  -11.6766 C   0  0  0  0  0  0  0  0  0  0  0  0
  -20.0084  -37.9159  -10.4777 C   0  0  0  0  0  0  0  0  0  0  0  0
  -20.3163  -38.5864   -9.3100 C   0  0  0  0  0  0  0  0  0  0  0  0
  -21.3306  -39.5249   -9.3378 C   0  0  0  0  0  0  0  0  0  0  0  0
  -21.9771  -39.7496  -10.4958 N   0  0  0  0  0  0  0  0  0  0  0  0
  -21.6781  -39.0971  -11.6342 C   0  0  0  0  0  0  0  0  0  0  0  0
  -19.5641  -38.2988   -8.0386 C   0  0  0  0  0  0  0  0  0  0  0  0
  -19.6797  -36.8073   -7.8099 C   0  0  0  0  0  0  0  0  0  0  0  0
  -20.2822  -39.0327   -6.9388 C   0  0  0  0  0  0  0  0  0  0  0  0
  -18.2108  -38.7223   -8.2532 N   0  0  0  0  0  0  0  0  0  0  0  0
  -17.6916  -39.5438   -7.1843 C   0  0  0  0  0  0  0  0  0  0  0  0
  -16.2205  -39.2305   -7.0331 C   0  0  1  0  0  0  0  0  0  0  0  0
  -15.8435  -39.6829   -5.7693 O   0  0  0  0  0  0  0  0  0  0  0  0
  -15.3930  -39.9014   -8.1263 C   0  0  2  0  0  0  0  0  0  0  0  0
  -13.9249  -39.7661   -7.8499 C   0  0  0  0  0  0  0  0  0  0  0  0
  -12.9994  -40.5610   -8.6902 C   0  0  0  0  0  0  0  0  0  0  0  0
  -12.7732  -41.9240   -8.7245 C   0  0  0  0  0  0  0  0  0  0  0  0
  -11.8427  -42.4139   -9.6267 C   0  0  0  0  0  0  0  0  0  0  0  0
  -11.1498  -41.5223  -10.4827 C   0  0  0  0  0  0  0  0  0  0  0  0
  -11.3519  -40.1740  -10.4713 C   0  0  0  0  0  0  0  0  0  0  0  0
  -12.2787  -39.7227   -9.5691 C   0  0  0  0  0  0  0  0  0  0  0  0
  -11.4365  -43.7074   -9.8601 O   0  0  0  0  0  0  0  0  0  0  0  0
  -11.9843  -44.9448  -10.1209 C   0  0  0  0  0  0  0  0  0  0  0  0
  -12.7723  -44.9198  -11.3977 C   0  0  0  0  0  0  0  0  0  0  0  0
  -13.7805  -46.0709  -11.4216 C   0  0  0  0  0  0  0  0  0  0  0  0
  -14.8796  -45.7670  -10.4496 C   0  0  0  0  0  0  0  0  0  0  0  0
  -16.0202  -45.1338  -11.0855 N   0  0  0  0  0  0  0  0  0  0  0  0
  -16.6336  -43.8638  -10.8693 C   0  0  0  0  0  0  0  0  0  0  0  0
  -16.1106  -42.6045  -10.6805 C   0  0  0  0  0  0  0  0  0  0  0  0
  -16.9696  -41.5462  -10.4940 C   0  0  0  0  0  0  0  0  0  0  0  0
  -18.3717  -41.7830  -10.5039 C   0  0  0  0  0  0  0  0  0  0  0  0
  -18.9346  -43.0135  -10.6884 C   0  0  0  0  0  0  0  0  0  0  0  0
  -18.0439  -44.0342  -10.8685 C   0  0  0  0  0  0  0  0  0  0  0  0
  -16.7322  -40.1159  -10.2692 C   0  0  0  0  0  0  0  0  0  0  0  0
  -17.4821  -39.2294  -10.8999 O   0  0  0  0  0  0  0  0  0  0  0  0
  -15.7869  -39.4421   -9.4425 N   0  0  0  0  0  0  0  0  0  0  0  0
  1  2  1  0
  2  3  1  0
  2  4  1  0
  4  5  1  0
  5  6  2  0
  6  7  1  0
  7  8  2  0
  8  9  1  0
  9 10  2  0
  7 11  1  0
 11 12  1  0
 11 13  1  0
 11 14  1  0
 14 15  1  0
 15 16  1  0
 16 17  1  1
 16 18  1  0
 18 19  1  1
 19 20  1  0
 20 21  2  0
 21 22  1  0
 22 23  2  0
 23 24  1  0
 24 25  2  0
 22 26  1  0
 26 27  1  0
 27 28  1  0
 28 29  1  0
 29 30  1  0
 30 31  1  0
 31 32  1  0
 32 33  2  0
 33 34  1  0
 34 35  2  0
 35 36  1  0
 36 37  2  0
 34 38  1  0
 38 39  2  0
 38 40  1  0
 10  5  1  0
 25 20  1  0
 37 32  1  0
 40 18  1  0
M  END
$$$$
