
     RDKit          3D

 40 43  0  0  0  0  0  0  0  0999 V2000
  -22.6207  -40.1441   -3.7386 C   0  0  0  0  0  0  0  0  0  0  0  0
  -22.8754  -41.5786   -4.1468 C   0  0  0  0  0  0  0  0  0  0  0  0
  -23.9335  -42.2368   -3.2942 C   0  0  0  0  0  0  0  0  0  0  0  0
  -23.2669  -41.6342   -5.6098 C   0  0  0  0  0  0  0  0  0  0  0  0
  -22.0989  -41.4857   -6.4982 C   0  0  0  0  0  0  0  0  0  0  0  0
  -21.3630  -40.3054   -6.5855 C   0  0  0  0  0  0  0  0  0  0  0  0
  -20.2696  -40.1705   -7.4187 C   0  0  0  0  0  0  0  0  0  0  0  0
  -19.8952  -41.2521   -8.1936 C   0  0  0  0  0  0  0  0  0  0  0  0
  -20.6065  -42.3905   -8.1082 N   0  0  0  0  0  0  0  0  0  0  0  0
  -21.6720  -42.5233   -7.2969 C   0  0  0  0  0  0  0  0  0  0  0  0
  -19.5052  -38.8755   -7.4782 C   0  0  0  0  0  0  0  0  0  0  0  0
  -20.3337  -37.9369   -8.3283 C   0  0  0  0  0  0  0  0  0  0  0  0
  -19.4385  -38.3506   -6.0697 C   0  0  0  0  0  0  0  0  0  0  0  0
  -18.2307  -39.1733   -8.0643 N   0  0  0  0  0  0  0  0  0  0  0  0
  -17.1950  -39.4202   -7.0879 C   0  0  0  0  0  0  0  0  0  0  0  0
  -16.1022  -38.3984   -7.3046 C   0  0  1  0  0  0  0  0  0  0  0  0
  -15.0049  -38.8220   -6.5561 O   0  0  0  0  0  0  0  0  0  0  0  0
  -15.7433  -38.2720   -8.7829 C   0  0  2  0  0  0  0  0  0  0  0  0
  -15.8589  -36.8497   -9.2453 C   0  0  0  0  0  0  0  0  0  0  0  0
  -15.3222  -36.5261  -10.5876 C   0  0  0  0  0  0  0  0  0  0  0  0
  -14.0163  -36.4686  -11.0361 C   0  0  0  0  0  0  0  0  0  0  0  0
  -13.7904  -36.1434  -12.3640 C   0  0  0  0  0  0  0  0  0  0  0  0
  -14.8854  -35.8783  -13.2234 C   0  0  0  0  0  0  0  0  0  0  0  0
  -16.1834  -35.9273  -12.8093 C   0  0  0  0  0  0  0  0  0  0  0  0
  -16.3719  -36.2527  -11.4920 C   0  0  0  0  0  0  0  0  0  0  0  0
  -12.6061  -36.0203  -13.0529 O   0  0  0  0  0  0  0  0  0  0  0  0
  -11.4496  -36.7343  -13.2810 C   0  0  0  0  0  0  0  0  0  0  0  0
  -11.7538  -38.0384  -13.9582 C   0  0  0  0  0  0  0  0  0  0  0  0
  -10.6080  -39.0292  -13.7404 C   0  0  0  0  0  0  0  0  0  0  0  0
  -10.6307  -39.4836  -12.3128 C   0  0  0  0  0  0  0  0  0  0  0  0
  -11.3584  -40.7274  -12.1402 N   0  0  0  0  0  0  0  0  0  0  0  0
  -12.5169  -41.0410  -11.3687 C   0  0  0  0  0  0  0  0  0  0  0  0
  -13.7112  -40.3817  -11.1839 C   0  0  0  0  0  0  0  0  0  0  0  0
  -14.6630  -40.9422  -10.3638 C   0  0  0  0  0  0  0  0  0  0  0  0
  -14.3871  -42.1865   -9.7332 C   0  0  0  0  0  0  0  0  0  0  0  0
  -13.2184  -42.8758   -9.8881 C   0  0  0  0  0  0  0  0  0  0  0  0
  -12.3025  -42.2812  -10.7099 C   0  0  0  0  0  0  0  0  0  0  0  0
  -16.0045  -40.4981   -9.9691 C   0  0  0  0  0  0  0  0  0  0  0  0
  -16.9902  -41.3773   -9.9279 O   0  0  0  0  0  0  0  0  0  0  0  0
  -16.4918  -39.2138   -9.5896 N   0  0  0  0  0  0  0  0  0  0  0  0
  1  2  1  0
  2  3  1  0
  2  4  1  0
  4  5  1  0
  5  6  2  0
  6  7  1  0
  7  8  2  0
  8  9  1  0
  9 10  2  0
  7 11  1  0
 11 12  1  0
 11 13  1  0
 11 14  1  0
 14 15  1  0
 15 16  1  0
 16 17  1  1
 16 18  1  0
 18 19  1  6
 19 20  1  0
 20 21  2  0
 21 22  1  0
 22 23  2  0
 23 24  1  0
 24 25  2  0
 22 26  1  0
 26 27  1  0
 27 28  1  0
 28 29  1  0
 29 30  1  0
 30 31  1  0
 31 32  1  0
 32 33  2  0
 33 34  1  0
 34 35  2  0
 35 36  1  0
 36 37  2  0
 34 38  1  0
 38 39  2  0
 38 40  1  0
 10  5  1  0
 25 20  1  0
 37 32  1  0
 40 18  1  0
M  END
$$$$
