
     RDKit          3D

 40 43  0  0  0  0  0  0  0  0999 V2000
  -22.3342  -40.5135   -4.0262 C   0  0  0  0  0  0  0  0  0  0  0  0
  -22.9914  -40.5512   -5.3886 C   0  0  0  0  0  0  0  0  0  0  0  0
  -24.3452  -39.8827   -5.3893 C   0  0  0  0  0  0  0  0  0  0  0  0
  -22.0830  -39.9043   -6.4148 C   0  0  0  0  0  0  0  0  0  0  0  0
  -21.2852  -40.9029   -7.1508 C   0  0  0  0  0  0  0  0  0  0  0  0
  -20.1619  -41.5214   -6.6053 C   0  0  0  0  0  0  0  0  0  0  0  0
  -19.4175  -42.4564   -7.2980 C   0  0  0  0  0  0  0  0  0  0  0  0
  -19.8070  -42.7876   -8.5821 C   0  0  0  0  0  0  0  0  0  0  0  0
  -20.8915  -42.1896   -9.1072 N   0  0  0  0  0  0  0  0  0  0  0  0
  -21.6177  -41.2786   -8.4335 C   0  0  0  0  0  0  0  0  0  0  0  0
  -18.2118  -43.0984   -6.6662 C   0  0  0  0  0  0  0  0  0  0  0  0
  -18.7419  -44.0181   -5.5877 C   0  0  0  0  0  0  0  0  0  0  0  0
  -17.5471  -43.9153   -7.7408 C   0  0  0  0  0  0  0  0  0  0  0  0
  -17.4048  -42.0361   -6.1399 N   0  0  0  0  0  0  0  0  0  0  0  0
  -16.7623  -41.2442   -7.1633 C   0  0  0  0  0  0  0  0  0  0  0  0
  -17.0867  -39.7922   -6.8960 C   0  0  1  0  0  0  0  0  0  0  0  0
  -16.0662  -39.2975   -6.0849 O   0  0  0  0  0  0  0  0  0  0  0  0
  -17.1907  -38.9967   -8.1947 C   0  0  2  0  0  0  0  0  0  0  0  0
  -17.5975  -37.5780   -7.9260 C   0  0  0  0  0  0  0  0  0  0  0  0
  -17.5157  -36.6225   -9.0550 C   0  0  0  0  0  0  0  0  0  0  0  0
  -16.4124  -36.0878   -9.6930 C   0  0  0  0  0  0  0  0  0  0  0  0
  -16.6218  -35.2085  -10.7432 C   0  0  0  0  0  0  0  0  0  0  0  0
  -17.9424  -34.8775  -11.1361 C   0  0  0  0  0  0  0  0  0  0  0  0
  -19.0490  -35.3888  -10.5258 C   0  0  0  0  0  0  0  0  0  0  0  0
  -18.8072  -36.2554   -9.4927 C   0  0  0  0  0  0  0  0  0  0  0  0
  -15.7116  -34.5462  -11.5340 O   0  0  0  0  0  0  0  0  0  0  0  0
  -14.5980  -34.8177  -12.2992 C   0  0  0  0  0  0  0  0  0  0  0  0
  -14.9354  -35.7655  -13.4127 C   0  0  0  0  0  0  0  0  0  0  0  0
  -13.6706  -36.4655  -13.9151 C   0  0  0  0  0  0  0  0  0  0  0  0
  -13.2246  -37.4527  -12.8800 C   0  0  0  0  0  0  0  0  0  0  0  0
  -13.7235  -38.7903  -13.1408 N   0  0  0  0  0  0  0  0  0  0  0  0
  -14.5634  -39.6486  -12.3703 C   0  0  0  0  0  0  0  0  0  0  0  0
  -15.7192  -39.4166  -11.6593 C   0  0  0  0  0  0  0  0  0  0  0  0
  -16.3204  -40.4652  -11.0022 C   0  0  0  0  0  0  0  0  0  0  0  0
  -15.7327  -41.7578  -11.0784 C   0  0  0  0  0  0  0  0  0  0  0  0
  -14.5891  -42.0344  -11.7718 C   0  0  0  0  0  0  0  0  0  0  0  0
  -14.0264  -40.9633  -12.4073 C   0  0  0  0  0  0  0  0  0  0  0  0
  -17.5303  -40.5427  -10.1759 C   0  0  0  0  0  0  0  0  0  0  0  0
  -18.3542  -41.5642  -10.3308 O   0  0  0  0  0  0  0  0  0  0  0  0
  -18.0292  -39.6741   -9.1622 N   0  0  0  0  0  0  0  0  0  0  0  0
  1  2  1  0
  2  3  1  0
  2  4  1  0
  4  5  1  0
  5  6  2  0
  6  7  1  0
  7  8  2  0
  8  9  1  0
  9 10  2  0
  7 11  1  0
 11 12  1  0
 11 13  1  0
 11 14  1  0
 14 15  1  0
 15 16  1  0
 16 17  1  1
 16 18  1  0
 18 19  1  1
 19 20  1  0
 20 21  2  0
 21 22  1  0
 22 23  2  0
 23 24  1  0
 24 25  2  0
 22 26  1  0
 26 27  1  0
 27 28  1  0
 28 29  1  0
 29 30  1  0
 30 31  1  0
 31 32  1  0
 32 33  2  0
 33 34  1  0
 34 35  2  0
 35 36  1  0
 36 37  2  0
 34 38  1  0
 38 39  2  0
 38 40  1  0
 10  5  1  0
 25 20  1  0
 37 32  1  0
 40 18  1  0
M  END
$$$$
