
     RDKit          3D

 40 43  0  0  0  0  0  0  0  0999 V2000
  -22.0136  -44.2785   -7.2023 C   0  0  0  0  0  0  0  0  0  0  0  0
  -22.6937  -44.0439   -5.8712 C   0  0  0  0  0  0  0  0  0  0  0  0
  -22.9501  -45.3312   -5.1250 C   0  0  0  0  0  0  0  0  0  0  0  0
  -21.8588  -43.1021   -5.0270 C   0  0  0  0  0  0  0  0  0  0  0  0
  -22.0625  -41.6924   -5.4101 C   0  0  0  0  0  0  0  0  0  0  0  0
  -21.2042  -41.0137   -6.2731 C   0  0  0  0  0  0  0  0  0  0  0  0
  -21.3988  -39.6935   -6.6296 C   0  0  0  0  0  0  0  0  0  0  0  0
  -22.4895  -39.0245   -6.1068 C   0  0  0  0  0  0  0  0  0  0  0  0
  -23.3170  -39.6809   -5.2740 N   0  0  0  0  0  0  0  0  0  0  0  0
  -23.1286  -40.9672   -4.9259 C   0  0  0  0  0  0  0  0  0  0  0  0
  -20.4445  -39.0028   -7.5662 C   0  0  0  0  0  0  0  0  0  0  0  0
  -21.2925  -38.4194   -8.6755 C   0  0  0  0  0  0  0  0  0  0  0  0
  -19.8053  -37.8880   -6.7836 C   0  0  0  0  0  0  0  0  0  0  0  0
  -19.5295  -40.0020   -8.0364 N   0  0  0  0  0  0  0  0  0  0  0  0
  -18.3310  -40.1029   -7.2361 C   0  0  0  0  0  0  0  0  0  0  0  0
  -17.6191  -38.7708   -7.2996 C   0  0  1  0  0  0  0  0  0  0  0  0
  -16.6407  -38.7929   -6.3065 O   0  0  0  0  0  0  0  0  0  0  0  0
  -17.0006  -38.5350   -8.6751 C   0  0  2  0  0  0  0  0  0  0  0  0
  -16.7218  -37.0780   -8.8975 C   0  0  0  0  0  0  0  0  0  0  0  0
  -15.9116  -36.7147  -10.0833 C   0  0  0  0  0  0  0  0  0  0  0  0
  -14.5691  -36.9163  -10.3423 C   0  0  0  0  0  0  0  0  0  0  0  0
  -14.0598  -36.4777  -11.5540 C   0  0  0  0  0  0  0  0  0  0  0  0
  -14.9111  -35.8391  -12.4896 C   0  0  0  0  0  0  0  0  0  0  0  0
  -16.2384  -35.6265  -12.2617 C   0  0  0  0  0  0  0  0  0  0  0  0
  -16.7100  -36.0729  -11.0555 C   0  0  0  0  0  0  0  0  0  0  0  0
  -12.7799  -36.5539  -12.0524 O   0  0  0  0  0  0  0  0  0  0  0  0
  -11.7876  -37.4900  -12.2479 C   0  0  0  0  0  0  0  0  0  0  0  0
  -12.2546  -38.5757  -13.1727 C   0  0  0  0  0  0  0  0  0  0  0  0
  -11.4076  -39.8360  -12.9818 C   0  0  0  0  0  0  0  0  0  0  0  0
  -11.7667  -40.4617  -11.6686 C   0  0  0  0  0  0  0  0  0  0  0  0
  -12.7687  -41.5024  -11.8079 N   0  0  0  0  0  0  0  0  0  0  0  0
  -14.0795  -41.6267  -11.2583 C   0  0  0  0  0  0  0  0  0  0  0  0
  -15.1130  -40.7279  -11.1192 C   0  0  0  0  0  0  0  0  0  0  0  0
  -16.2876  -41.1463  -10.5378 C   0  0  0  0  0  0  0  0  0  0  0  0
  -16.4011  -42.4944  -10.0999 C   0  0  0  0  0  0  0  0  0  0  0  0
  -15.4038  -43.4198  -10.2183 C   0  0  0  0  0  0  0  0  0  0  0  0
  -14.2560  -42.9597  -10.8002 C   0  0  0  0  0  0  0  0  0  0  0  0
  -17.5448  -40.4470  -10.2497 C   0  0  0  0  0  0  0  0  0  0  0  0
  -18.6927  -41.0567  -10.4881 O   0  0  0  0  0  0  0  0  0  0  0  0
  -17.7935  -39.1469   -9.7216 N   0  0  0  0  0  0  0  0  0  0  0  0
  1  2  1  0
  2  3  1  0
  2  4  1  0
  4  5  1  0
  5  6  2  0
  6  7  1  0
  7  8  2  0
  8  9  1  0
  9 10  2  0
  7 11  1  0
 11 12  1  0
 11 13  1  0
 11 14  1  0
 14 15  1  0
 15 16  1  0
 16 17  1  1
 16 18  1  0
 18 19  1  6
 19 20  1  0
 20 21  2  0
 21 22  1  0
 22 23  2  0
 23 24  1  0
 24 25  2  0
 22 26  1  0
 26 27  1  0
 27 28  1  0
 28 29  1  0
 29 30  1  0
 30 31  1  0
 31 32  1  0
 32 33  2  0
 33 34  1  0
 34 35  2  0
 35 36  1  0
 36 37  2  0
 34 38  1  0
 38 39  2  0
 38 40  1  0
 10  5  1  0
 25 20  1  0
 37 32  1  0
 40 18  1  0
M  END
$$$$
