
     RDKit          3D

 40 43  0  0  0  0  0  0  0  0999 V2000
   -8.7723  -35.4270  -10.6020 C   0  0  0  0  0  0  0  0  0  0  0  0
   -9.6984  -36.4191  -11.2710 C   0  0  0  0  0  0  0  0  0  0  0  0
   -8.9796  -37.2824  -12.2798 C   0  0  0  0  0  0  0  0  0  0  0  0
  -10.3706  -37.2819  -10.2220 C   0  0  0  0  0  0  0  0  0  0  0  0
  -11.3148  -38.2430  -10.8224 C   0  0  0  0  0  0  0  0  0  0  0  0
  -12.6978  -38.1023  -10.7255 C   0  0  0  0  0  0  0  0  0  0  0  0
  -13.5786  -39.0046  -11.2894 C   0  0  0  0  0  0  0  0  0  0  0  0
  -13.0621  -40.0874  -11.9758 C   0  0  0  0  0  0  0  0  0  0  0  0
  -11.7269  -40.2218  -12.0684 N   0  0  0  0  0  0  0  0  0  0  0  0
  -10.8676  -39.3435  -11.5195 C   0  0  0  0  0  0  0  0  0  0  0  0
  -15.0653  -38.8099  -11.1589 C   0  0  0  0  0  0  0  0  0  0  0  0
  -15.3167  -37.3337  -11.3769 C   0  0  0  0  0  0  0  0  0  0  0  0
  -15.7013  -39.5975  -12.2720 C   0  0  0  0  0  0  0  0  0  0  0  0
  -15.4256  -39.2437   -9.8402 N   0  0  0  0  0  0  0  0  0  0  0  0
  -16.4603  -38.4375   -9.2350 C   0  0  0  0  0  0  0  0  0  0  0  0
  -16.6165  -38.8867   -7.8001 C   0  0  1  0  0  0  0  0  0  0  0  0
  -16.5773  -37.7356   -7.0144 O   0  0  0  0  0  0  0  0  0  0  0  0
  -17.9234  -39.6483   -7.5942 C   0  0  2  0  0  0  0  0  0  0  0  0
  -18.7139  -39.0645   -6.4608 C   0  0  0  0  0  0  0  0  0  0  0  0
  -20.1054  -39.5418   -6.2866 C   0  0  0  0  0  0  0  0  0  0  0  0
  -21.2281  -39.3205   -7.0616 C   0  0  0  0  0  0  0  0  0  0  0  0
  -22.4233  -39.9014   -6.6692 C   0  0  0  0  0  0  0  0  0  0  0  0
  -22.4719  -40.6975   -5.4980 C   0  0  0  0  0  0  0  0  0  0  0  0
  -21.3816  -40.9329   -4.7142 C   0  0  0  0  0  0  0  0  0  0  0  0
  -20.2162  -40.3454   -5.1306 C   0  0  0  0  0  0  0  0  0  0  0  0
  -23.6673  -39.8407   -7.2535 O   0  0  0  0  0  0  0  0  0  0  0  0
  -24.2551  -40.0340   -8.4848 C   0  0  0  0  0  0  0  0  0  0  0  0
  -24.0616  -41.4472   -8.9511 C   0  0  0  0  0  0  0  0  0  0  0  0
  -24.2243  -41.5315  -10.4705 C   0  0  0  0  0  0  0  0  0  0  0  0
  -23.0322  -40.8948  -11.1174 C   0  0  0  0  0  0  0  0  0  0  0  0
  -22.0068  -41.8628  -11.4606 N   0  0  0  0  0  0  0  0  0  0  0  0
  -20.6486  -41.9844  -11.0408 C   0  0  0  0  0  0  0  0  0  0  0  0
  -20.0481  -41.8691   -9.8074 C   0  0  0  0  0  0  0  0  0  0  0  0
  -18.6871  -42.0444   -9.7089 C   0  0  0  0  0  0  0  0  0  0  0  0
  -17.9409  -42.3416  -10.8822 C   0  0  0  0  0  0  0  0  0  0  0  0
  -18.4937  -42.4662  -12.1248 C   0  0  0  0  0  0  0  0  0  0  0  0
  -19.8471  -42.2829  -12.1750 C   0  0  0  0  0  0  0  0  0  0  0  0
  -17.7692  -41.9856   -8.5657 C   0  0  0  0  0  0  0  0  0  0  0  0
  -16.8184  -42.8964   -8.4530 O   0  0  0  0  0  0  0  0  0  0  0  0
  -17.6902  -41.0728   -7.4742 N   0  0  0  0  0  0  0  0  0  0  0  0
  1  2  1  0
  2  3  1  0
  2  4  1  0
  4  5  1  0
  5  6  2  0
  6  7  1  0
  7  8  2  0
  8  9  1  0
  9 10  2  0
  7 11  1  0
 11 12  1  0
 11 13  1  0
 11 14  1  0
 14 15  1  0
 15 16  1  0
 16 17  1  1
 16 18  1  0
 18 19  1  1
 19 20  1  0
 20 21  2  0
 21 22  1  0
 22 23  2  0
 23 24  1  0
 24 25  2  0
 22 26  1  0
 26 27  1  0
 27 28  1  0
 28 29  1  0
 29 30  1  0
 30 31  1  0
 31 32  1  0
 32 33  2  0
 33 34  1  0
 34 35  2  0
 35 36  1  0
 36 37  2  0
 34 38  1  0
 38 39  2  0
 38 40  1  0
 10  5  1  0
 25 20  1  0
 37 32  1  0
 40 18  1  0
M  END
$$$$
