
     RDKit          3D

 40 43  0  0  0  0  0  0  0  0999 V2000
  -10.8036  -41.9055  -15.1132 C   0  0  0  0  0  0  0  0  0  0  0  0
  -11.4963  -41.3764  -13.8764 C   0  0  0  0  0  0  0  0  0  0  0  0
  -11.0196  -42.0597  -12.6172 C   0  0  0  0  0  0  0  0  0  0  0  0
  -11.2905  -39.8784  -13.7740 C   0  0  0  0  0  0  0  0  0  0  0  0
  -12.2465  -39.2541  -12.8402 C   0  0  0  0  0  0  0  0  0  0  0  0
  -12.2921  -39.5708  -11.4839 C   0  0  0  0  0  0  0  0  0  0  0  0
  -13.1888  -38.9836  -10.6127 C   0  0  0  0  0  0  0  0  0  0  0  0
  -14.0731  -38.0456  -11.1115 C   0  0  0  0  0  0  0  0  0  0  0  0
  -14.0277  -37.7411  -12.4208 N   0  0  0  0  0  0  0  0  0  0  0  0
  -13.1546  -38.3124  -13.2708 C   0  0  0  0  0  0  0  0  0  0  0  0
  -13.1997  -39.3576   -9.1549 C   0  0  0  0  0  0  0  0  0  0  0  0
  -13.5107  -40.8377   -9.1029 C   0  0  0  0  0  0  0  0  0  0  0  0
  -11.8065  -39.1187   -8.6394 C   0  0  0  0  0  0  0  0  0  0  0  0
  -14.2121  -38.5573   -8.5295 N   0  0  0  0  0  0  0  0  0  0  0  0
  -15.5111  -39.1893   -8.5104 C   0  0  0  0  0  0  0  0  0  0  0  0
  -16.3851  -38.4206   -7.5458 C   0  0  1  0  0  0  0  0  0  0  0  0
  -16.5527  -37.1466   -8.0869 O   0  0  0  0  0  0  0  0  0  0  0  0
  -17.7305  -39.1121   -7.3411 C   0  0  2  0  0  0  0  0  0  0  0  0
  -18.6616  -38.2517   -6.5392 C   0  0  0  0  0  0  0  0  0  0  0  0
  -20.0774  -38.6792   -6.4539 C   0  0  0  0  0  0  0  0  0  0  0  0
  -21.0661  -38.6885   -7.4195 C   0  0  0  0  0  0  0  0  0  0  0  0
  -22.3232  -39.1544   -7.0694 C   0  0  0  0  0  0  0  0  0  0  0  0
  -22.5683  -39.6038   -5.7481 C   0  0  0  0  0  0  0  0  0  0  0  0
  -21.6132  -39.6061   -4.7752 C   0  0  0  0  0  0  0  0  0  0  0  0
  -20.3819  -39.1407   -5.1544 C   0  0  0  0  0  0  0  0  0  0  0  0
  -23.4649  -39.2678   -7.8284 O   0  0  0  0  0  0  0  0  0  0  0  0
  -23.8702  -39.7940   -9.0359 C   0  0  0  0  0  0  0  0  0  0  0  0
  -23.6528  -41.2784   -9.0696 C   0  0  0  0  0  0  0  0  0  0  0  0
  -23.5920  -41.7730  -10.5165 C   0  0  0  0  0  0  0  0  0  0  0  0
  -22.2987  -41.3224  -11.1243 C   0  0  0  0  0  0  0  0  0  0  0  0
  -21.2638  -42.3359  -11.0359 N   0  0  0  0  0  0  0  0  0  0  0  0
  -19.9867  -42.3243  -10.3997 C   0  0  0  0  0  0  0  0  0  0  0  0
  -19.5716  -41.8727   -9.1672 C   0  0  0  0  0  0  0  0  0  0  0  0
  -18.2460  -41.9998   -8.8217 C   0  0  0  0  0  0  0  0  0  0  0  0
  -17.3441  -42.5956   -9.7456 C   0  0  0  0  0  0  0  0  0  0  0  0
  -17.7110  -43.0582  -10.9770 C   0  0  0  0  0  0  0  0  0  0  0  0
  -19.0359  -42.9103  -11.2776 C   0  0  0  0  0  0  0  0  0  0  0  0
  -17.5055  -41.6234   -7.6122 C   0  0  0  0  0  0  0  0  0  0  0  0
  -16.6098  -42.4591   -7.1167 O   0  0  0  0  0  0  0  0  0  0  0  0
  -17.5609  -40.4482   -6.8080 N   0  0  0  0  0  0  0  0  0  0  0  0
  1  2  1  0
  2  3  1  0
  2  4  1  0
  4  5  1  0
  5  6  2  0
  6  7  1  0
  7  8  2  0
  8  9  1  0
  9 10  2  0
  7 11  1  0
 11 12  1  0
 11 13  1  0
 11 14  1  0
 14 15  1  0
 15 16  1  0
 16 17  1  6
 16 18  1  0
 18 19  1  1
 19 20  1  0
 20 21  2  0
 21 22  1  0
 22 23  2  0
 23 24  1  0
 24 25  2  0
 22 26  1  0
 26 27  1  0
 27 28  1  0
 28 29  1  0
 29 30  1  0
 30 31  1  0
 31 32  1  0
 32 33  2  0
 33 34  1  0
 34 35  2  0
 35 36  1  0
 36 37  2  0
 34 38  1  0
 38 39  2  0
 38 40  1  0
 10  5  1  0
 25 20  1  0
 37 32  1  0
 40 18  1  0
M  END
$$$$
