
     RDKit          3D

 40 43  0  0  0  0  0  0  0  0999 V2000
  -11.6712  -34.1831  -14.1464 C   0  0  0  0  0  0  0  0  0  0  0  0
  -11.4139  -35.5054  -13.4573 C   0  0  0  0  0  0  0  0  0  0  0  0
  -10.3005  -35.4141  -12.4415 C   0  0  0  0  0  0  0  0  0  0  0  0
  -12.6878  -35.9985  -12.8008 C   0  0  0  0  0  0  0  0  0  0  0  0
  -12.6272  -37.4402  -12.4955 C   0  0  0  0  0  0  0  0  0  0  0  0
  -13.2471  -38.0019  -11.3809 C   0  0  0  0  0  0  0  0  0  0  0  0
  -13.1881  -39.3527  -11.0987 C   0  0  0  0  0  0  0  0  0  0  0  0
  -12.4853  -40.1748  -11.9594 C   0  0  0  0  0  0  0  0  0  0  0  0
  -11.8875  -39.6312  -13.0348 N   0  0  0  0  0  0  0  0  0  0  0  0
  -11.9442  -38.3152  -13.3109 C   0  0  0  0  0  0  0  0  0  0  0  0
  -13.8749  -39.9135   -9.8826 C   0  0  0  0  0  0  0  0  0  0  0  0
  -13.8084  -41.4191  -10.0190 C   0  0  0  0  0  0  0  0  0  0  0  0
  -13.0625  -39.4807   -8.6924 C   0  0  0  0  0  0  0  0  0  0  0  0
  -15.2195  -39.4152   -9.8996 N   0  0  0  0  0  0  0  0  0  0  0  0
  -16.1372  -40.2170   -9.1236 C   0  0  0  0  0  0  0  0  0  0  0  0
  -16.5335  -39.4163   -7.9042 C   0  0  1  0  0  0  0  0  0  0  0  0
  -16.7729  -38.1143   -8.3416 O   0  0  0  0  0  0  0  0  0  0  0  0
  -17.7694  -40.0051   -7.2290 C   0  0  2  0  0  0  0  0  0  0  0  0
  -18.3980  -39.0123   -6.2965 C   0  0  0  0  0  0  0  0  0  0  0  0
  -19.7313  -39.3479   -5.7452 C   0  0  0  0  0  0  0  0  0  0  0  0
  -20.9646  -39.4061   -6.3663 C   0  0  0  0  0  0  0  0  0  0  0  0
  -22.0678  -39.7602   -5.6065 C   0  0  0  0  0  0  0  0  0  0  0  0
  -21.9138  -40.0497   -4.2279 C   0  0  0  0  0  0  0  0  0  0  0  0
  -20.7107  -40.0005   -3.5886 C   0  0  0  0  0  0  0  0  0  0  0  0
  -19.6408  -39.6485   -4.3683 C   0  0  0  0  0  0  0  0  0  0  0  0
  -23.3870  -39.8907   -5.9741 O   0  0  0  0  0  0  0  0  0  0  0  0
  -24.1476  -40.5208   -6.9352 C   0  0  0  0  0  0  0  0  0  0  0  0
  -23.9818  -42.0100   -6.8535 C   0  0  0  0  0  0  0  0  0  0  0  0
  -24.3693  -42.6607   -8.1833 C   0  0  0  0  0  0  0  0  0  0  0  0
  -23.3093  -42.3516   -9.1962 C   0  0  0  0  0  0  0  0  0  0  0  0
  -22.3173  -43.4061   -9.2974 N   0  0  0  0  0  0  0  0  0  0  0  0
  -20.9081  -43.3975   -9.0740 C   0  0  0  0  0  0  0  0  0  0  0  0
  -20.1322  -42.8392   -8.0833 C   0  0  0  0  0  0  0  0  0  0  0  0
  -18.7671  -43.0024   -8.1331 C   0  0  0  0  0  0  0  0  0  0  0  0
  -18.1975  -43.7442   -9.2041 C   0  0  0  0  0  0  0  0  0  0  0  0
  -18.9272  -44.3159  -10.2070 C   0  0  0  0  0  0  0  0  0  0  0  0
  -20.2778  -44.1272  -10.1172 C   0  0  0  0  0  0  0  0  0  0  0  0
  -17.6895  -42.5397   -7.2514 C   0  0  0  0  0  0  0  0  0  0  0  0
  -16.7041  -43.3658   -6.9468 O   0  0  0  0  0  0  0  0  0  0  0  0
  -17.4757  -41.2832   -6.6138 N   0  0  0  0  0  0  0  0  0  0  0  0
  1  2  1  0
  2  3  1  0
  2  4  1  0
  4  5  1  0
  5  6  2  0
  6  7  1  0
  7  8  2  0
  8  9  1  0
  9 10  2  0
  7 11  1  0
 11 12  1  0
 11 13  1  0
 11 14  1  0
 14 15  1  0
 15 16  1  0
 16 17  1  6
 16 18  1  0
 18 19  1  1
 19 20  1  0
 20 21  2  0
 21 22  1  0
 22 23  2  0
 23 24  1  0
 24 25  2  0
 22 26  1  0
 26 27  1  0
 27 28  1  0
 28 29  1  0
 29 30  1  0
 30 31  1  0
 31 32  1  0
 32 33  2  0
 33 34  1  0
 34 35  2  0
 35 36  1  0
 36 37  2  0
 34 38  1  0
 38 39  2  0
 38 40  1  0
 10  5  1  0
 25 20  1  0
 37 32  1  0
 40 18  1  0
M  END
$$$$
