
     RDKit          3D

 40 43  0  0  0  0  0  0  0  0999 V2000
  -18.0322  -35.0635   -9.9388 C   0  0  0  0  0  0  0  0  0  0  0  0
  -17.8046  -35.3982  -11.3968 C   0  0  0  0  0  0  0  0  0  0  0  0
  -17.7034  -34.1625  -12.2584 C   0  0  0  0  0  0  0  0  0  0  0  0
  -16.5559  -36.2450  -11.5401 C   0  0  0  0  0  0  0  0  0  0  0  0
  -16.8168  -37.6654  -11.2403 C   0  0  0  0  0  0  0  0  0  0  0  0
  -15.9662  -38.4384  -10.4522 C   0  0  0  0  0  0  0  0  0  0  0  0
  -16.2143  -39.7684  -10.1737 C   0  0  0  0  0  0  0  0  0  0  0  0
  -17.3525  -40.3498  -10.6998 C   0  0  0  0  0  0  0  0  0  0  0  0
  -18.1725  -39.6023  -11.4603 N   0  0  0  0  0  0  0  0  0  0  0  0
  -17.9320  -38.3065  -11.7325 C   0  0  0  0  0  0  0  0  0  0  0  0
  -15.2663  -40.5627   -9.3162 C   0  0  0  0  0  0  0  0  0  0  0  0
  -13.9122  -40.4649   -9.9846 C   0  0  0  0  0  0  0  0  0  0  0  0
  -15.2171  -39.8749   -7.9789 C   0  0  0  0  0  0  0  0  0  0  0  0
  -15.7686  -41.9055   -9.2777 N   0  0  0  0  0  0  0  0  0  0  0  0
  -17.1589  -42.0078   -9.6567 C   0  0  0  0  0  0  0  0  0  0  0  0
  -17.8477  -40.7291   -9.2374 C   0  0  1  0  0  0  0  0  0  0  0  0
  -18.6096  -40.3098  -10.3272 O   0  0  0  0  0  0  0  0  0  0  0  0
  -18.7232  -40.9462   -8.0060 C   0  0  2  0  0  0  0  0  0  0  0  0
  -19.2844  -39.6471   -7.5085 C   0  0  0  0  0  0  0  0  0  0  0  0
  -20.3356  -39.7158   -6.4669 C   0  0  0  0  0  0  0  0  0  0  0  0
  -21.6469  -40.1441   -6.5498 C   0  0  0  0  0  0  0  0  0  0  0  0
  -22.4238  -40.1103   -5.4029 C   0  0  0  0  0  0  0  0  0  0  0  0
  -21.8685  -39.6427   -4.1860 C   0  0  0  0  0  0  0  0  0  0  0  0
  -20.5791  -39.2141   -4.0742 C   0  0  0  0  0  0  0  0  0  0  0  0
  -19.8384  -39.2616   -5.2256 C   0  0  0  0  0  0  0  0  0  0  0  0
  -23.7371  -40.4746   -5.2159 O   0  0  0  0  0  0  0  0  0  0  0  0
  -24.5705  -41.5448   -5.4596 C   0  0  0  0  0  0  0  0  0  0  0  0
  -24.0870  -42.7705   -4.7415 C   0  0  0  0  0  0  0  0  0  0  0  0
  -24.6572  -44.0297   -5.3981 C   0  0  0  0  0  0  0  0  0  0  0  0
  -23.9763  -44.2341   -6.7170 C   0  0  0  0  0  0  0  0  0  0  0  0
  -22.8477  -45.1415   -6.6215 N   0  0  0  0  0  0  0  0  0  0  0  0
  -21.4609  -44.9514   -6.8981 C   0  0  0  0  0  0  0  0  0  0  0  0
  -20.5907  -43.9268   -6.6011 C   0  0  0  0  0  0  0  0  0  0  0  0
  -19.2796  -44.0263   -7.0060 C   0  0  0  0  0  0  0  0  0  0  0  0
  -18.8609  -45.1845   -7.7167 C   0  0  0  0  0  0  0  0  0  0  0  0
  -19.6878  -46.2246   -8.0321 C   0  0  0  0  0  0  0  0  0  0  0  0
  -20.9803  -46.0820   -7.6113 C   0  0  0  0  0  0  0  0  0  0  0  0
  -18.1323  -43.1250   -6.8507 C   0  0  0  0  0  0  0  0  0  0  0  0
  -16.9539  -43.6287   -6.5286 O   0  0  0  0  0  0  0  0  0  0  0  0
  -18.0266  -41.7109   -6.9920 N   0  0  0  0  0  0  0  0  0  0  0  0
  1  2  1  0
  2  3  1  0
  2  4  1  0
  4  5  1  0
  5  6  2  0
  6  7  1  0
  7  8  2  0
  8  9  1  0
  9 10  2  0
  7 11  1  0
 11 12  1  0
 11 13  1  0
 11 14  1  0
 14 15  1  0
 15 16  1  0
 16 17  1  6
 16 18  1  0
 18 19  1  1
 19 20  1  0
 20 21  2  0
 21 22  1  0
 22 23  2  0
 23 24  1  0
 24 25  2  0
 22 26  1  0
 26 27  1  0
 27 28  1  0
 28 29  1  0
 29 30  1  0
 30 31  1  0
 31 32  1  0
 32 33  2  0
 33 34  1  0
 34 35  2  0
 35 36  1  0
 36 37  2  0
 34 38  1  0
 38 39  2  0
 38 40  1  0
 10  5  1  0
 25 20  1  0
 37 32  1  0
 40 18  1  0
M  END
$$$$
