
     RDKit          3D

 40 43  0  0  0  0  0  0  0  0999 V2000
  -23.7783  -38.3523  -13.0468 C   0  0  0  0  0  0  0  0  0  0  0  0
  -22.7107  -37.9065  -12.0716 C   0  0  0  0  0  0  0  0  0  0  0  0
  -23.1664  -38.0140  -10.6361 C   0  0  0  0  0  0  0  0  0  0  0  0
  -21.4484  -38.7170  -12.2864 C   0  0  0  0  0  0  0  0  0  0  0  0
  -20.2449  -37.9897  -11.8413 C   0  0  0  0  0  0  0  0  0  0  0  0
  -19.7928  -38.0149  -10.5234 C   0  0  0  0  0  0  0  0  0  0  0  0
  -18.6650  -37.3325  -10.1107 C   0  0  0  0  0  0  0  0  0  0  0  0
  -17.9612  -36.5977  -11.0461 C   0  0  0  0  0  0  0  0  0  0  0  0
  -18.3988  -36.5744  -12.3179 N   0  0  0  0  0  0  0  0  0  0  0  0
  -19.4974  -37.2388  -12.7213 C   0  0  0  0  0  0  0  0  0  0  0  0
  -18.2150  -37.3905   -8.6757 C   0  0  0  0  0  0  0  0  0  0  0  0
  -17.2971  -36.2044   -8.4746 C   0  0  0  0  0  0  0  0  0  0  0  0
  -19.4485  -37.2199   -7.8311 C   0  0  0  0  0  0  0  0  0  0  0  0
  -17.5431  -38.6457   -8.5028 N   0  0  0  0  0  0  0  0  0  0  0  0
  -17.2801  -38.9685   -7.1194 C   0  0  0  0  0  0  0  0  0  0  0  0
  -15.8046  -39.2700   -6.9874 C   0  0  1  0  0  0  0  0  0  0  0  0
  -15.5789  -39.5821   -5.6474 O   0  0  0  0  0  0  0  0  0  0  0  0
  -15.3882  -40.4224   -7.8977 C   0  0  2  0  0  0  0  0  0  0  0  0
  -13.9295  -40.7342   -7.7386 C   0  0  0  0  0  0  0  0  0  0  0  0
  -13.4261  -41.9726   -8.3769 C   0  0  0  0  0  0  0  0  0  0  0  0
  -13.6498  -43.2975   -8.0533 C   0  0  0  0  0  0  0  0  0  0  0  0
  -13.0535  -44.2750   -8.8336 C   0  0  0  0  0  0  0  0  0  0  0  0
  -12.2367  -43.9039   -9.9304 C   0  0  0  0  0  0  0  0  0  0  0  0
  -11.9981  -42.6061  -10.2731 C   0  0  0  0  0  0  0  0  0  0  0  0
  -12.6031  -41.6650   -9.4826 C   0  0  0  0  0  0  0  0  0  0  0  0
  -13.1132  -45.6454   -8.7289 O   0  0  0  0  0  0  0  0  0  0  0  0
  -14.0546  -46.6460   -8.6200 C   0  0  0  0  0  0  0  0  0  0  0  0
  -14.9594  -46.6584   -9.8170 C   0  0  0  0  0  0  0  0  0  0  0  0
  -16.2736  -47.3672   -9.4815 C   0  0  0  0  0  0  0  0  0  0  0  0
  -17.0776  -46.4848   -8.5760 C   0  0  0  0  0  0  0  0  0  0  0  0
  -18.0342  -45.6713   -9.3036 N   0  0  0  0  0  0  0  0  0  0  0  0
  -18.1787  -44.2557   -9.4086 C   0  0  0  0  0  0  0  0  0  0  0  0
  -17.2635  -43.2438   -9.5914 C   0  0  0  0  0  0  0  0  0  0  0  0
  -17.7097  -41.9440   -9.6561 C   0  0  0  0  0  0  0  0  0  0  0  0
  -19.1024  -41.6837   -9.5348 C   0  0  0  0  0  0  0  0  0  0  0  0
  -20.0454  -42.6547   -9.3536 C   0  0  0  0  0  0  0  0  0  0  0  0
  -19.5566  -43.9296   -9.2943 C   0  0  0  0  0  0  0  0  0  0  0  0
  -17.0036  -40.6706   -9.8368 C   0  0  0  0  0  0  0  0  0  0  0  0
  -17.5125  -39.7587  -10.6465 O   0  0  0  0  0  0  0  0  0  0  0  0
  -15.7908  -40.1835   -9.2685 N   0  0  0  0  0  0  0  0  0  0  0  0
  1  2  1  0
  2  3  1  0
  2  4  1  0
  4  5  1  0
  5  6  2  0
  6  7  1  0
  7  8  2  0
  8  9  1  0
  9 10  2  0
  7 11  1  0
 11 12  1  0
 11 13  1  0
 11 14  1  0
 14 15  1  0
 15 16  1  0
 16 17  1  1
 16 18  1  0
 18 19  1  6
 19 20  1  0
 20 21  2  0
 21 22  1  0
 22 23  2  0
 23 24  1  0
 24 25  2  0
 22 26  1  0
 26 27  1  0
 27 28  1  0
 28 29  1  0
 29 30  1  0
 30 31  1  0
 31 32  1  0
 32 33  2  0
 33 34  1  0
 34 35  2  0
 35 36  1  0
 36 37  2  0
 34 38  1  0
 38 39  2  0
 38 40  1  0
 10  5  1  0
 25 20  1  0
 37 32  1  0
 40 18  1  0
M  END
$$$$
