
     RDKit          3D

 40 43  0  0  0  0  0  0  0  0999 V2000
  -16.1592  -47.0296  -10.9202 C   0  0  0  0  0  0  0  0  0  0  0  0
  -15.6827  -45.7846  -10.2044 C   0  0  0  0  0  0  0  0  0  0  0  0
  -15.3331  -46.0535   -8.7604 C   0  0  0  0  0  0  0  0  0  0  0  0
  -14.4922  -45.1964  -10.9347 C   0  0  0  0  0  0  0  0  0  0  0  0
  -14.6750  -43.7606  -11.2184 C   0  0  0  0  0  0  0  0  0  0  0  0
  -14.4128  -42.7666  -10.2776 C   0  0  0  0  0  0  0  0  0  0  0  0
  -14.5851  -41.4229  -10.5473 C   0  0  0  0  0  0  0  0  0  0  0  0
  -15.0353  -41.0558  -11.8015 C   0  0  0  0  0  0  0  0  0  0  0  0
  -15.2880  -42.0165  -12.7086 N   0  0  0  0  0  0  0  0  0  0  0  0
  -15.1205  -43.3260  -12.4471 C   0  0  0  0  0  0  0  0  0  0  0  0
  -14.2877  -40.3852   -9.4986 C   0  0  0  0  0  0  0  0  0  0  0  0
  -13.0099  -40.8279   -8.8195 C   0  0  0  0  0  0  0  0  0  0  0  0
  -14.0461  -39.0924  -10.2295 C   0  0  0  0  0  0  0  0  0  0  0  0
  -15.4101  -40.3647   -8.6062 N   0  0  0  0  0  0  0  0  0  0  0  0
  -16.0722  -39.0820   -8.5481 C   0  0  0  0  0  0  0  0  0  0  0  0
  -16.5905  -38.8924   -7.1408 C   0  0  1  0  0  0  0  0  0  0  0  0
  -16.7968  -37.5239   -6.9719 O   0  0  0  0  0  0  0  0  0  0  0  0
  -17.8810  -39.6751   -6.9125 C   0  0  2  0  0  0  0  0  0  0  0  0
  -18.6327  -39.1407   -5.7294 C   0  0  0  0  0  0  0  0  0  0  0  0
  -20.0117  -39.6391   -5.5193 C   0  0  0  0  0  0  0  0  0  0  0  0
  -21.1656  -39.4027   -6.2423 C   0  0  0  0  0  0  0  0  0  0  0  0
  -22.3392  -40.0102   -5.8256 C   0  0  0  0  0  0  0  0  0  0  0  0
  -22.3349  -40.8480   -4.6828 C   0  0  0  0  0  0  0  0  0  0  0  0
  -21.2128  -41.0993   -3.9503 C   0  0  0  0  0  0  0  0  0  0  0  0
  -20.0700  -40.4846   -4.3896 C   0  0  0  0  0  0  0  0  0  0  0  0
  -23.6053  -39.9423   -6.3591 O   0  0  0  0  0  0  0  0  0  0  0  0
  -24.2385  -40.0981   -7.5732 C   0  0  0  0  0  0  0  0  0  0  0  0
  -24.0496  -41.4915   -8.0972 C   0  0  0  0  0  0  0  0  0  0  0  0
  -24.2702  -41.5235   -9.6112 C   0  0  0  0  0  0  0  0  0  0  0  0
  -23.1101  -40.8511  -10.2800 C   0  0  0  0  0  0  0  0  0  0  0  0
  -22.0896  -41.7950  -10.6969 N   0  0  0  0  0  0  0  0  0  0  0  0
  -20.7151  -41.9166  -10.3341 C   0  0  0  0  0  0  0  0  0  0  0  0
  -20.0684  -41.8388   -9.1213 C   0  0  0  0  0  0  0  0  0  0  0  0
  -18.7030  -42.0026   -9.0813 C   0  0  0  0  0  0  0  0  0  0  0  0
  -17.9999  -42.2496  -10.2923 C   0  0  0  0  0  0  0  0  0  0  0  0
  -18.5992  -42.3359  -11.5165 C   0  0  0  0  0  0  0  0  0  0  0  0
  -19.9552  -42.1658  -11.5082 C   0  0  0  0  0  0  0  0  0  0  0  0
  -17.7422  -41.9745   -7.9728 C   0  0  0  0  0  0  0  0  0  0  0  0
  -16.7791  -42.8782   -7.9294 O   0  0  0  0  0  0  0  0  0  0  0  0
  -17.6298  -41.1004   -6.8529 N   0  0  0  0  0  0  0  0  0  0  0  0
  1  2  1  0
  2  3  1  0
  2  4  1  0
  4  5  1  0
  5  6  2  0
  6  7  1  0
  7  8  2  0
  8  9  1  0
  9 10  2  0
  7 11  1  0
 11 12  1  0
 11 13  1  0
 11 14  1  0
 14 15  1  0
 15 16  1  0
 16 17  1  6
 16 18  1  0
 18 19  1  1
 19 20  1  0
 20 21  2  0
 21 22  1  0
 22 23  2  0
 23 24  1  0
 24 25  2  0
 22 26  1  0
 26 27  1  0
 27 28  1  0
 28 29  1  0
 29 30  1  0
 30 31  1  0
 31 32  1  0
 32 33  2  0
 33 34  1  0
 34 35  2  0
 35 36  1  0
 36 37  2  0
 34 38  1  0
 38 39  2  0
 38 40  1  0
 10  5  1  0
 25 20  1  0
 37 32  1  0
 40 18  1  0
M  END
$$$$
