
     RDKit          3D

 40 43  0  0  0  0  0  0  0  0999 V2000
  -11.0856  -35.3331  -12.4368 C   0  0  0  0  0  0  0  0  0  0  0  0
  -12.3168  -36.0517  -11.9295 C   0  0  0  0  0  0  0  0  0  0  0  0
  -13.3653  -35.0955  -11.4137 C   0  0  0  0  0  0  0  0  0  0  0  0
  -12.8919  -36.9227  -13.0282 C   0  0  0  0  0  0  0  0  0  0  0  0
  -13.5801  -38.1095  -12.4863 C   0  0  0  0  0  0  0  0  0  0  0  0
  -13.1940  -38.7285  -11.2990 C   0  0  0  0  0  0  0  0  0  0  0  0
  -13.8414  -39.8397  -10.7948 C   0  0  0  0  0  0  0  0  0  0  0  0
  -14.9137  -40.3531  -11.4999 C   0  0  0  0  0  0  0  0  0  0  0  0
  -15.2851  -39.7543  -12.6457 N   0  0  0  0  0  0  0  0  0  0  0  0
  -14.6553  -38.6717  -13.1381 C   0  0  0  0  0  0  0  0  0  0  0  0
  -13.3882  -40.4736   -9.5072 C   0  0  0  0  0  0  0  0  0  0  0  0
  -13.1022  -41.9240   -9.8305 C   0  0  0  0  0  0  0  0  0  0  0  0
  -12.1092  -39.7846   -9.1158 C   0  0  0  0  0  0  0  0  0  0  0  0
  -14.4610  -40.3172   -8.5685 N   0  0  0  0  0  0  0  0  0  0  0  0
  -15.7363  -40.0553   -9.1948 C   0  0  0  0  0  0  0  0  0  0  0  0
  -16.3824  -38.9010   -8.4630 C   0  0  1  0  0  0  0  0  0  0  0  0
  -16.6510  -37.9221   -9.4188 O   0  0  0  0  0  0  0  0  0  0  0  0
  -17.6595  -39.3384   -7.7505 C   0  0  2  0  0  0  0  0  0  0  0  0
  -18.3820  -38.1596   -7.1684 C   0  0  0  0  0  0  0  0  0  0  0  0
  -19.7505  -38.3900   -6.6501 C   0  0  0  0  0  0  0  0  0  0  0  0
  -20.9262  -38.6602   -7.3245 C   0  0  0  0  0  0  0  0  0  0  0  0
  -22.0825  -38.8437   -6.5835 C   0  0  0  0  0  0  0  0  0  0  0  0
  -22.0392  -38.7505   -5.1702 C   0  0  0  0  0  0  0  0  0  0  0  0
  -20.8949  -38.4852   -4.4781 C   0  0  0  0  0  0  0  0  0  0  0  0
  -19.7701  -38.3104   -5.2402 C   0  0  0  0  0  0  0  0  0  0  0  0
  -23.3637  -39.1199   -7.0016 O   0  0  0  0  0  0  0  0  0  0  0  0
  -24.0294  -40.0123   -7.8136 C   0  0  0  0  0  0  0  0  0  0  0  0
  -23.8438  -41.4186   -7.3237 C   0  0  0  0  0  0  0  0  0  0  0  0
  -24.1066  -42.4139   -8.4561 C   0  0  0  0  0  0  0  0  0  0  0  0
  -22.9714  -42.3427   -9.4314 C   0  0  0  0  0  0  0  0  0  0  0  0
  -21.9552  -43.3456   -9.1709 N   0  0  0  0  0  0  0  0  0  0  0  0
  -20.5701  -43.2216   -8.8519 C   0  0  0  0  0  0  0  0  0  0  0  0
  -19.8903  -42.3898   -7.9910 C   0  0  0  0  0  0  0  0  0  0  0  0
  -18.5230  -42.5056   -7.8917 C   0  0  0  0  0  0  0  0  0  0  0  0
  -17.8522  -43.4817   -8.6786 C   0  0  0  0  0  0  0  0  0  0  0  0
  -18.4849  -44.3278   -9.5440 C   0  0  0  0  0  0  0  0  0  0  0  0
  -19.8415  -44.1763   -9.6107 C   0  0  0  0  0  0  0  0  0  0  0  0
  -17.5317  -41.7827   -7.0871 C   0  0  0  0  0  0  0  0  0  0  0  0
  -16.5603  -42.4582   -6.4986 O   0  0  0  0  0  0  0  0  0  0  0  0
  -17.3950  -40.3945   -6.7951 N   0  0  0  0  0  0  0  0  0  0  0  0
  1  2  1  0
  2  3  1  0
  2  4  1  0
  4  5  1  0
  5  6  2  0
  6  7  1  0
  7  8  2  0
  8  9  1  0
  9 10  2  0
  7 11  1  0
 11 12  1  0
 11 13  1  0
 11 14  1  0
 14 15  1  0
 15 16  1  0
 16 17  1  6
 16 18  1  0
 18 19  1  1
 19 20  1  0
 20 21  2  0
 21 22  1  0
 22 23  2  0
 23 24  1  0
 24 25  2  0
 22 26  1  0
 26 27  1  0
 27 28  1  0
 28 29  1  0
 29 30  1  0
 30 31  1  0
 31 32  1  0
 32 33  2  0
 33 34  1  0
 34 35  2  0
 35 36  1  0
 36 37  2  0
 34 38  1  0
 38 39  2  0
 38 40  1  0
 10  5  1  0
 25 20  1  0
 37 32  1  0
 40 18  1  0
M  END
$$$$
