
     RDKit          3D

 40 43  0  0  0  0  0  0  0  0999 V2000
  -13.9260  -34.4898  -11.7048 C   0  0  0  0  0  0  0  0  0  0  0  0
  -13.9222  -34.6493  -13.2095 C   0  0  0  0  0  0  0  0  0  0  0  0
  -12.6989  -34.0352  -13.8468 C   0  0  0  0  0  0  0  0  0  0  0  0
  -14.0242  -36.1177  -13.5702 C   0  0  0  0  0  0  0  0  0  0  0  0
  -13.3240  -36.9740  -12.5946 C   0  0  0  0  0  0  0  0  0  0  0  0
  -13.9891  -37.8869  -11.7784 C   0  0  0  0  0  0  0  0  0  0  0  0
  -13.3294  -38.6873  -10.8661 C   0  0  0  0  0  0  0  0  0  0  0  0
  -11.9557  -38.5740  -10.7634 C   0  0  0  0  0  0  0  0  0  0  0  0
  -11.3153  -37.6924  -11.5520 N   0  0  0  0  0  0  0  0  0  0  0  0
  -11.9566  -36.9120  -12.4412 C   0  0  0  0  0  0  0  0  0  0  0  0
  -14.0912  -39.6597  -10.0063 C   0  0  0  0  0  0  0  0  0  0  0  0
  -14.0673  -40.9810  -10.7435 C   0  0  0  0  0  0  0  0  0  0  0  0
  -13.3229  -39.7888   -8.7191 C   0  0  0  0  0  0  0  0  0  0  0  0
  -15.4166  -39.1322   -9.8590 N   0  0  0  0  0  0  0  0  0  0  0  0
  -16.2551  -39.9249   -8.9896 C   0  0  0  0  0  0  0  0  0  0  0  0
  -16.9452  -38.9838   -8.0288 C   0  0  1  0  0  0  0  0  0  0  0  0
  -17.4736  -37.9463   -8.7959 O   0  0  0  0  0  0  0  0  0  0  0  0
  -18.0406  -39.6973   -7.2407 C   0  0  2  0  0  0  0  0  0  0  0  0
  -18.7887  -38.7350   -6.3663 C   0  0  0  0  0  0  0  0  0  0  0  0
  -20.0265  -39.2272   -5.7184 C   0  0  0  0  0  0  0  0  0  0  0  0
  -21.2559  -39.5415   -6.2661 C   0  0  0  0  0  0  0  0  0  0  0  0
  -22.2560  -39.9951   -5.4212 C   0  0  0  0  0  0  0  0  0  0  0  0
  -22.0043  -40.1245   -4.0327 C   0  0  0  0  0  0  0  0  0  0  0  0
  -20.8025  -39.8221   -3.4644 C   0  0  0  0  0  0  0  0  0  0  0  0
  -19.8356  -39.3778   -4.3272 C   0  0  0  0  0  0  0  0  0  0  0  0
  -23.5485  -40.3704   -5.7059 O   0  0  0  0  0  0  0  0  0  0  0  0
  -24.2304  -41.2025   -6.5671 C   0  0  0  0  0  0  0  0  0  0  0  0
  -23.8182  -42.6312   -6.3650 C   0  0  0  0  0  0  0  0  0  0  0  0
  -24.1429  -43.4585   -7.6108 C   0  0  0  0  0  0  0  0  0  0  0  0
  -23.1875  -43.0800   -8.7013 C   0  0  0  0  0  0  0  0  0  0  0  0
  -22.0396  -43.9659   -8.7624 N   0  0  0  0  0  0  0  0  0  0  0  0
  -20.6437  -43.7095   -8.6153 C   0  0  0  0  0  0  0  0  0  0  0  0
  -19.9338  -42.9426   -7.7192 C   0  0  0  0  0  0  0  0  0  0  0  0
  -18.5633  -42.8879   -7.8266 C   0  0  0  0  0  0  0  0  0  0  0  0
  -17.9200  -43.6262   -8.8576 C   0  0  0  0  0  0  0  0  0  0  0  0
  -18.5828  -44.4001   -9.7669 C   0  0  0  0  0  0  0  0  0  0  0  0
  -19.9416  -44.4236   -9.6229 C   0  0  0  0  0  0  0  0  0  0  0  0
  -17.5443  -42.1766   -7.0466 C   0  0  0  0  0  0  0  0  0  0  0  0
  -16.4253  -42.8009   -6.7236 O   0  0  0  0  0  0  0  0  0  0  0  0
  -17.5169  -40.8475   -6.5330 N   0  0  0  0  0  0  0  0  0  0  0  0
  1  2  1  0
  2  3  1  0
  2  4  1  0
  4  5  1  0
  5  6  2  0
  6  7  1  0
  7  8  2  0
  8  9  1  0
  9 10  2  0
  7 11  1  0
 11 12  1  0
 11 13  1  0
 11 14  1  0
 14 15  1  0
 15 16  1  0
 16 17  1  6
 16 18  1  0
 18 19  1  1
 19 20  1  0
 20 21  2  0
 21 22  1  0
 22 23  2  0
 23 24  1  0
 24 25  2  0
 22 26  1  0
 26 27  1  0
 27 28  1  0
 28 29  1  0
 29 30  1  0
 30 31  1  0
 31 32  1  0
 32 33  2  0
 33 34  1  0
 34 35  2  0
 35 36  1  0
 36 37  2  0
 34 38  1  0
 38 39  2  0
 38 40  1  0
 10  5  1  0
 25 20  1  0
 37 32  1  0
 40 18  1  0
M  END
$$$$
