
     RDKit          3D

 40 43  0  0  0  0  0  0  0  0999 V2000
  -21.1784  -45.2695   -8.8349 C   0  0  0  0  0  0  0  0  0  0  0  0
  -22.1189  -45.0975   -7.6621 C   0  0  0  0  0  0  0  0  0  0  0  0
  -22.3390  -46.3888   -6.9112 C   0  0  0  0  0  0  0  0  0  0  0  0
  -21.5858  -44.0288   -6.7291 C   0  0  0  0  0  0  0  0  0  0  0  0
  -21.7504  -42.6753   -7.2914 C   0  0  0  0  0  0  0  0  0  0  0  0
  -21.1275  -41.5526   -6.7495 C   0  0  0  0  0  0  0  0  0  0  0  0
  -21.2841  -40.2866   -7.2793 C   0  0  0  0  0  0  0  0  0  0  0  0
  -22.0914  -40.1335   -8.3908 C   0  0  0  0  0  0  0  0  0  0  0  0
  -22.6919  -41.2182   -8.9127 N   0  0  0  0  0  0  0  0  0  0  0  0
  -22.5402  -42.4521   -8.3975 C   0  0  0  0  0  0  0  0  0  0  0  0
  -20.5899  -39.1039   -6.6595 C   0  0  0  0  0  0  0  0  0  0  0  0
  -20.2894  -38.1501   -7.7952 C   0  0  0  0  0  0  0  0  0  0  0  0
  -21.5785  -38.4695   -5.7191 C   0  0  0  0  0  0  0  0  0  0  0  0
  -19.4033  -39.6041   -6.0284 N   0  0  0  0  0  0  0  0  0  0  0  0
  -18.3165  -39.8333   -6.9523 C   0  0  0  0  0  0  0  0  0  0  0  0
  -17.5879  -38.5226   -7.1433 C   0  0  1  0  0  0  0  0  0  0  0  0
  -16.4926  -38.5450   -6.2809 O   0  0  0  0  0  0  0  0  0  0  0  0
  -17.1430  -38.3388   -8.5919 C   0  0  2  0  0  0  0  0  0  0  0  0
  -16.9106  -36.8901   -8.9040 C   0  0  0  0  0  0  0  0  0  0  0  0
  -16.2541  -36.5698  -10.1928 C   0  0  0  0  0  0  0  0  0  0  0  0
  -14.9504  -36.7722  -10.6044 C   0  0  0  0  0  0  0  0  0  0  0  0
  -14.5966  -36.3799  -11.8854 C   0  0  0  0  0  0  0  0  0  0  0  0
  -15.5623  -35.7861  -12.7355 C   0  0  0  0  0  0  0  0  0  0  0  0
  -16.8547  -35.5739  -12.3570 C   0  0  0  0  0  0  0  0  0  0  0  0
  -17.1718  -35.9740  -11.0858 C   0  0  0  0  0  0  0  0  0  0  0  0
  -13.3854  -36.4672  -12.5318 O   0  0  0  0  0  0  0  0  0  0  0  0
  -12.4128  -37.4034  -12.8088 C   0  0  0  0  0  0  0  0  0  0  0  0
  -12.9750  -38.5292  -13.6263 C   0  0  0  0  0  0  0  0  0  0  0  0
  -12.0961  -39.7746  -13.4896 C   0  0  0  0  0  0  0  0  0  0  0  0
  -12.2863  -40.3487  -12.1188 C   0  0  0  0  0  0  0  0  0  0  0  0
  -13.2852  -41.4013  -12.0942 N   0  0  0  0  0  0  0  0  0  0  0  0
  -14.5184  -41.5124  -11.3853 C   0  0  0  0  0  0  0  0  0  0  0  0
  -15.5382  -40.6161  -11.1577 C   0  0  0  0  0  0  0  0  0  0  0  0
  -16.6289  -41.0188  -10.4221 C   0  0  0  0  0  0  0  0  0  0  0  0
  -16.6724  -42.3486   -9.9205 C   0  0  0  0  0  0  0  0  0  0  0  0
  -15.6857  -43.2710  -10.1221 C   0  0  0  0  0  0  0  0  0  0  0  0
  -14.6222  -42.8269  -10.8566 C   0  0  0  0  0  0  0  0  0  0  0  0
  -17.8504  -40.3173  -10.0118 C   0  0  0  0  0  0  0  0  0  0  0  0
  -19.0113  -40.9444  -10.0849 O   0  0  0  0  0  0  0  0  0  0  0  0
  -18.0491  -38.9985   -9.5095 N   0  0  0  0  0  0  0  0  0  0  0  0
  1  2  1  0
  2  3  1  0
  2  4  1  0
  4  5  1  0
  5  6  2  0
  6  7  1  0
  7  8  2  0
  8  9  1  0
  9 10  2  0
  7 11  1  0
 11 12  1  0
 11 13  1  0
 11 14  1  0
 14 15  1  0
 15 16  1  0
 16 17  1  1
 16 18  1  0
 18 19  1  6
 19 20  1  0
 20 21  2  0
 21 22  1  0
 22 23  2  0
 23 24  1  0
 24 25  2  0
 22 26  1  0
 26 27  1  0
 27 28  1  0
 28 29  1  0
 29 30  1  0
 30 31  1  0
 31 32  1  0
 32 33  2  0
 33 34  1  0
 34 35  2  0
 35 36  1  0
 36 37  2  0
 34 38  1  0
 38 39  2  0
 38 40  1  0
 10  5  1  0
 25 20  1  0
 37 32  1  0
 40 18  1  0
M  END
$$$$
