
     RDKit          3D

 40 43  0  0  0  0  0  0  0  0999 V2000
  -17.1910  -35.6710  -12.2633 C   0  0  0  0  0  0  0  0  0  0  0  0
  -15.7375  -35.4668  -12.6311 C   0  0  0  0  0  0  0  0  0  0  0  0
  -15.4942  -34.1239  -13.2771 C   0  0  0  0  0  0  0  0  0  0  0  0
  -14.8692  -35.6246  -11.3991 C   0  0  0  0  0  0  0  0  0  0  0  0
  -14.0995  -36.8825  -11.4257 C   0  0  0  0  0  0  0  0  0  0  0  0
  -14.3098  -37.9149  -10.5136 C   0  0  0  0  0  0  0  0  0  0  0  0
  -13.5868  -39.0915  -10.5422 C   0  0  0  0  0  0  0  0  0  0  0  0
  -12.6182  -39.2454  -11.5162 C   0  0  0  0  0  0  0  0  0  0  0  0
  -12.4165  -38.2480  -12.3958 N   0  0  0  0  0  0  0  0  0  0  0  0
  -13.1201  -37.1011  -12.3691 C   0  0  0  0  0  0  0  0  0  0  0  0
  -13.8506  -40.1791   -9.5359 C   0  0  0  0  0  0  0  0  0  0  0  0
  -14.0536  -41.4493  -10.3330 C   0  0  0  0  0  0  0  0  0  0  0  0
  -12.6050  -40.3037   -8.7011 C   0  0  0  0  0  0  0  0  0  0  0  0
  -15.0219  -39.7916   -8.8048 N   0  0  0  0  0  0  0  0  0  0  0  0
  -16.2400  -39.9037   -9.5735 C   0  0  0  0  0  0  0  0  0  0  0  0
  -17.1882  -38.8273   -9.0968 C   0  0  1  0  0  0  0  0  0  0  0  0
  -17.8798  -38.3776  -10.2209 O   0  0  0  0  0  0  0  0  0  0  0  0
  -18.1492  -39.3609   -8.0376 C   0  0  2  0  0  0  0  0  0  0  0  0
  -19.0747  -38.2822   -7.5579 C   0  0  0  0  0  0  0  0  0  0  0  0
  -20.2135  -38.6941   -6.7047 C   0  0  0  0  0  0  0  0  0  0  0  0
  -21.3556  -39.4043   -7.0231 C   0  0  0  0  0  0  0  0  0  0  0  0
  -22.2711  -39.6638   -6.0159 C   0  0  0  0  0  0  0  0  0  0  0  0
  -22.0241  -39.2020   -4.6993 C   0  0  0  0  0  0  0  0  0  0  0  0
  -20.9073  -38.4995   -4.3559 C   0  0  0  0  0  0  0  0  0  0  0  0
  -20.0224  -38.2611   -5.3742 C   0  0  0  0  0  0  0  0  0  0  0  0
  -23.4687  -40.3389   -6.0649 O   0  0  0  0  0  0  0  0  0  0  0  0
  -23.9730  -41.5438   -6.5044 C   0  0  0  0  0  0  0  0  0  0  0  0
  -23.3116  -42.6885   -5.7946 C   0  0  0  0  0  0  0  0  0  0  0  0
  -23.4590  -43.9750   -6.6102 C   0  0  0  0  0  0  0  0  0  0  0  0
  -22.5696  -43.8859   -7.8128 C   0  0  0  0  0  0  0  0  0  0  0  0
  -21.2789  -44.5121   -7.5932 N   0  0  0  0  0  0  0  0  0  0  0  0
  -19.9556  -43.9799   -7.6314 C   0  0  0  0  0  0  0  0  0  0  0  0
  -19.4125  -42.8158   -7.1363 C   0  0  0  0  0  0  0  0  0  0  0  0
  -18.0731  -42.5689   -7.3308 C   0  0  0  0  0  0  0  0  0  0  0  0
  -17.2886  -43.5232   -8.0348 C   0  0  0  0  0  0  0  0  0  0  0  0
  -17.7839  -44.6904   -8.5421 C   0  0  0  0  0  0  0  0  0  0  0  0
  -19.1181  -44.8930   -8.3263 C   0  0  0  0  0  0  0  0  0  0  0  0
  -17.2140  -41.4461   -6.9383 C   0  0  0  0  0  0  0  0  0  0  0  0
  -16.0059  -41.6922   -6.4628 O   0  0  0  0  0  0  0  0  0  0  0  0
  -17.4374  -40.0390   -6.9737 N   0  0  0  0  0  0  0  0  0  0  0  0
  1  2  1  0
  2  3  1  0
  2  4  1  0
  4  5  1  0
  5  6  2  0
  6  7  1  0
  7  8  2  0
  8  9  1  0
  9 10  2  0
  7 11  1  0
 11 12  1  0
 11 13  1  0
 11 14  1  0
 14 15  1  0
 15 16  1  0
 16 17  1  6
 16 18  1  0
 18 19  1  1
 19 20  1  0
 20 21  2  0
 21 22  1  0
 22 23  2  0
 23 24  1  0
 24 25  2  0
 22 26  1  0
 26 27  1  0
 27 28  1  0
 28 29  1  0
 29 30  1  0
 30 31  1  0
 31 32  1  0
 32 33  2  0
 33 34  1  0
 34 35  2  0
 35 36  1  0
 36 37  2  0
 34 38  1  0
 38 39  2  0
 38 40  1  0
 10  5  1  0
 25 20  1  0
 37 32  1  0
 40 18  1  0
M  END
$$$$
