
     RDKit          3D

 40 43  0  0  0  0  0  0  0  0999 V2000
  -23.2286  -42.2232   -3.1647 C   0  0  0  0  0  0  0  0  0  0  0  0
  -22.7348  -41.7376   -4.5101 C   0  0  0  0  0  0  0  0  0  0  0  0
  -23.3340  -42.5183   -5.6552 C   0  0  0  0  0  0  0  0  0  0  0  0
  -23.0352  -40.2602   -4.6645 C   0  0  0  0  0  0  0  0  0  0  0  0
  -22.3976  -39.6916   -5.8668 C   0  0  0  0  0  0  0  0  0  0  0  0
  -21.0202  -39.5108   -5.9760 C   0  0  0  0  0  0  0  0  0  0  0  0
  -20.4270  -38.9781   -7.1040 C   0  0  0  0  0  0  0  0  0  0  0  0
  -21.2365  -38.6121   -8.1629 C   0  0  0  0  0  0  0  0  0  0  0  0
  -22.5658  -38.7873   -8.0559 N   0  0  0  0  0  0  0  0  0  0  0  0
  -23.1451  -39.3062   -6.9576 C   0  0  0  0  0  0  0  0  0  0  0  0
  -18.9339  -38.8026   -7.1758 C   0  0  0  0  0  0  0  0  0  0  0  0
  -18.6175  -38.4799   -8.6200 C   0  0  0  0  0  0  0  0  0  0  0  0
  -18.5983  -37.6178   -6.3113 C   0  0  0  0  0  0  0  0  0  0  0  0
  -18.3503  -40.0396   -6.7446 N   0  0  0  0  0  0  0  0  0  0  0  0
  -16.9314  -40.1241   -7.0030 C   0  0  0  0  0  0  0  0  0  0  0  0
  -16.4148  -38.7186   -7.2105 C   0  0  1  0  0  0  0  0  0  0  0  0
  -15.2793  -38.5883   -6.4120 O   0  0  0  0  0  0  0  0  0  0  0  0
  -16.0874  -38.4567   -8.6783 C   0  0  2  0  0  0  0  0  0  0  0  0
  -16.3242  -37.0189   -9.0345 C   0  0  0  0  0  0  0  0  0  0  0  0
  -15.8339  -36.5564  -10.3536 C   0  0  0  0  0  0  0  0  0  0  0  0
  -14.5431  -36.3599  -10.8067 C   0  0  0  0  0  0  0  0  0  0  0  0
  -14.3624  -35.9222  -12.1089 C   0  0  0  0  0  0  0  0  0  0  0  0
  -15.4869  -35.6861  -12.9382 C   0  0  0  0  0  0  0  0  0  0  0  0
  -16.7709  -35.8709  -12.5189 C   0  0  0  0  0  0  0  0  0  0  0  0
  -16.9144  -36.3050  -11.2275 C   0  0  0  0  0  0  0  0  0  0  0  0
  -13.2014  -35.6531  -12.7960 O   0  0  0  0  0  0  0  0  0  0  0  0
  -11.9941  -36.2517  -13.0845 C   0  0  0  0  0  0  0  0  0  0  0  0
  -12.2007  -37.5239  -13.8530 C   0  0  0  0  0  0  0  0  0  0  0  0
  -10.9756  -38.4308  -13.7171 C   0  0  0  0  0  0  0  0  0  0  0  0
  -10.9420  -38.9876  -12.3264 C   0  0  0  0  0  0  0  0  0  0  0  0
  -11.5640  -40.2960  -12.2398 N   0  0  0  0  0  0  0  0  0  0  0  0
  -12.6828  -40.7583  -11.4845 C   0  0  0  0  0  0  0  0  0  0  0  0
  -13.9239  -40.2140  -11.2427 C   0  0  0  0  0  0  0  0  0  0  0  0
  -14.8159  -40.9083  -10.4586 C   0  0  0  0  0  0  0  0  0  0  0  0
  -14.4315  -42.1681   -9.9229 C   0  0  0  0  0  0  0  0  0  0  0  0
  -13.2130  -42.7466  -10.1368 C   0  0  0  0  0  0  0  0  0  0  0  0
  -12.3596  -42.0212  -10.9199 C   0  0  0  0  0  0  0  0  0  0  0  0
  -16.1835  -40.6052  -10.0222 C   0  0  0  0  0  0  0  0  0  0  0  0
  -17.0940  -41.5627  -10.0379 O   0  0  0  0  0  0  0  0  0  0  0  0
  -16.7681  -39.3958   -9.5460 N   0  0  0  0  0  0  0  0  0  0  0  0
  1  2  1  0
  2  3  1  0
  2  4  1  0
  4  5  1  0
  5  6  2  0
  6  7  1  0
  7  8  2  0
  8  9  1  0
  9 10  2  0
  7 11  1  0
 11 12  1  0
 11 13  1  0
 11 14  1  0
 14 15  1  0
 15 16  1  0
 16 17  1  1
 16 18  1  0
 18 19  1  6
 19 20  1  0
 20 21  2  0
 21 22  1  0
 22 23  2  0
 23 24  1  0
 24 25  2  0
 22 26  1  0
 26 27  1  0
 27 28  1  0
 28 29  1  0
 29 30  1  0
 30 31  1  0
 31 32  1  0
 32 33  2  0
 33 34  1  0
 34 35  2  0
 35 36  1  0
 36 37  2  0
 34 38  1  0
 38 39  2  0
 38 40  1  0
 10  5  1  0
 25 20  1  0
 37 32  1  0
 40 18  1  0
M  END
$$$$
