
     RDKit          3D

 36 38  0  0  0  0  0  0  0  0999 V2000
  -24.7048  -38.4327   -6.7188 C   0  0  0  0  0  0  0  0  0  0  0  0
  -23.8510  -39.4640   -7.4673 C   0  0  0  0  0  0  0  0  0  0  0  0
  -23.5520  -38.9756   -8.8671 C   0  0  0  0  0  0  0  0  0  0  0  0
  -22.6127  -39.7444   -6.7061 C   0  0  0  0  0  0  0  0  0  0  0  0
  -22.4931  -40.9152   -5.9906 C   0  0  0  0  0  0  0  0  0  0  0  0
  -21.3245  -41.1687   -5.2764 C   0  0  0  0  0  0  0  0  0  0  0  0
  -20.2972  -40.2429   -5.2930 C   0  0  0  0  0  0  0  0  0  0  0  0
  -20.4005  -39.0670   -6.0033 C   0  0  0  0  0  0  0  0  0  0  0  0
  -19.2880  -38.0832   -6.0076 C   0  0  0  0  0  0  0  0  0  0  0  0
  -18.6379  -38.0018   -7.2881 N   0  0  0  0  0  0  0  0  0  0  0  0
  -17.3405  -38.6480   -7.2588 C   0  0  0  0  0  0  0  0  0  0  0  0
  -16.6286  -38.4763   -8.6078 C   0  0  1  0  0  0  0  0  0  0  0  0
  -16.7127  -37.1022   -8.8804 O   0  0  0  0  0  0  0  0  0  0  0  0
  -15.1636  -38.8471   -8.4308 C   0  0  2  0  0  0  0  0  0  0  0  0
  -14.3591  -38.5831   -9.6909 C   0  0  0  0  0  0  0  0  0  0  0  0
  -13.9859  -37.1295   -9.8642 C   0  0  2  0  0  0  0  0  0  0  0  0
  -14.6949  -36.5622  -11.0534 C   0  0  0  0  0  0  0  0  0  0  0  0
  -12.5207  -36.9821   -9.8603 C   0  0  0  0  0  0  0  0  0  0  0  0
  -11.8339  -36.8700  -11.1749 C   0  0  0  0  0  0  0  0  0  0  0  0
  -12.1085  -37.9608  -12.1529 C   0  0  0  0  0  0  0  0  0  0  0  0
  -11.0233  -39.0242  -12.0701 C   0  0  0  0  0  0  0  0  0  0  0  0
  -10.8514  -39.6373  -13.4432 C   0  0  0  0  0  0  0  0  0  0  0  0
  -11.2866  -41.0931  -13.4890 C   0  0  0  0  0  0  0  0  0  0  0  0
  -12.7184  -41.1436  -14.0157 C   0  0  0  0  0  0  0  0  0  0  0  0
  -13.4670  -42.2060  -13.3897 N   0  0  0  0  0  0  0  0  0  0  0  0
  -13.2901  -43.4944  -14.1544 C   0  0  0  0  0  0  0  0  0  0  0  0
  -14.3276  -42.1614  -12.2350 C   0  0  0  0  0  0  0  0  0  0  0  0
  -14.1687  -41.6755  -10.9660 C   0  0  0  0  0  0  0  0  0  0  0  0
  -15.2229  -41.7889  -10.0875 C   0  0  0  0  0  0  0  0  0  0  0  0
  -16.4097  -42.4062  -10.5512 C   0  0  0  0  0  0  0  0  0  0  0  0
  -16.5766  -42.8987  -11.8259 C   0  0  0  0  0  0  0  0  0  0  0  0
  -15.5333  -42.7524  -12.6003 N   0  0  0  0  0  0  0  0  0  0  0  0
  -15.3950  -41.3763   -8.6933 C   0  0  0  0  0  0  0  0  0  0  0  0
  -16.0245  -42.1991   -7.8688 O   0  0  0  0  0  0  0  0  0  0  0  0
  -15.0170  -40.2166   -7.9825 N   0  0  0  0  0  0  0  0  0  0  0  0
  -21.5720  -38.8420   -6.7030 C   0  0  0  0  0  0  0  0  0  0  0  0
  1  2  1  0
  2  3  1  0
  2  4  1  0
  4  5  2  0
  5  6  1  0
  6  7  2  0
  7  8  1  0
  8  9  1  0
  9 10  1  0
 10 11  1  0
 11 12  1  0
 12 13  1  1
 12 14  1  0
 14 15  1  6
 15 16  1  0
 16 17  1  6
 16 18  1  0
 18 19  1  0
 19 20  1  0
 20 21  1  0
 21 22  1  0
 22 23  1  0
 23 24  1  0
 24 25  1  0
 25 26  1  0
 25 27  1  0
 27 28  2  0
 28 29  1  0
 29 30  2  0
 30 31  1  0
 31 32  2  0
 29 33  1  0
 33 34  2  0
 33 35  1  0
  8 36  2  0
 32 27  1  0
 35 14  1  0
 36  4  1  0
M  END
$$$$
