
     RDKit          3D

 36 38  0  0  0  0  0  0  0  0999 V2000
  -13.5474  -34.6288  -12.0712 C   0  0  0  0  0  0  0  0  0  0  0  0
  -12.8721  -35.8432  -11.4216 C   0  0  0  0  0  0  0  0  0  0  0  0
  -13.5257  -36.1545  -10.0938 C   0  0  0  0  0  0  0  0  0  0  0  0
  -12.9181  -37.0012  -12.3426 C   0  0  0  0  0  0  0  0  0  0  0  0
  -12.1394  -37.0104  -13.4786 C   0  0  0  0  0  0  0  0  0  0  0  0
  -12.1914  -38.1041  -14.3395 C   0  0  0  0  0  0  0  0  0  0  0  0
  -13.0238  -39.1686  -14.0450 C   0  0  0  0  0  0  0  0  0  0  0  0
  -13.8091  -39.1754  -12.9131 C   0  0  0  0  0  0  0  0  0  0  0  0
  -14.6990  -40.3263  -12.6142 C   0  0  0  0  0  0  0  0  0  0  0  0
  -15.2578  -40.2533  -11.2908 N   0  0  0  0  0  0  0  0  0  0  0  0
  -16.2278  -39.1806  -11.1904 C   0  0  0  0  0  0  0  0  0  0  0  0
  -17.0384  -39.3142   -9.8938 C   0  0  1  0  0  0  0  0  0  0  0  0
  -16.9952  -38.0362   -9.3156 O   0  0  0  0  0  0  0  0  0  0  0  0
  -18.4808  -39.6340  -10.2573 C   0  0  2  0  0  0  0  0  0  0  0  0
  -19.3945  -39.5712   -9.0466 C   0  0  0  0  0  0  0  0  0  0  0  0
  -19.7861  -38.1616   -8.6699 C   0  0  2  0  0  0  0  0  0  0  0  0
  -19.1868  -37.8056   -7.3458 C   0  0  0  0  0  0  0  0  0  0  0  0
  -21.2455  -37.9987   -8.7781 C   0  0  0  0  0  0  0  0  0  0  0  0
  -22.0463  -38.0960   -7.5284 C   0  0  0  0  0  0  0  0  0  0  0  0
  -21.8561  -39.3357   -6.7230 C   0  0  0  0  0  0  0  0  0  0  0  0
  -22.9264  -40.3585   -7.0747 C   0  0  0  0  0  0  0  0  0  0  0  0
  -23.2173  -41.1866   -5.8417 C   0  0  0  0  0  0  0  0  0  0  0  0
  -22.7835  -42.6351   -5.9980 C   0  0  0  0  0  0  0  0  0  0  0  0
  -21.4037  -42.7880   -5.3632 C   0  0  0  0  0  0  0  0  0  0  0  0
  -20.5993  -43.7418   -6.0874 N   0  0  0  0  0  0  0  0  0  0  0  0
  -20.8393  -45.1361   -5.5636 C   0  0  0  0  0  0  0  0  0  0  0  0
  -19.6401  -43.5181   -7.1388 C   0  0  0  0  0  0  0  0  0  0  0  0
  -19.6875  -42.8286   -8.3195 C   0  0  0  0  0  0  0  0  0  0  0  0
  -18.5593  -42.8084   -9.1087 C   0  0  0  0  0  0  0  0  0  0  0  0
  -17.4164  -43.5071   -8.6506 C   0  0  0  0  0  0  0  0  0  0  0  0
  -17.3614  -44.2041   -7.4646 C   0  0  0  0  0  0  0  0  0  0  0  0
  -18.4697  -44.1750   -6.7714 N   0  0  0  0  0  0  0  0  0  0  0  0
  -18.2658  -42.1745  -10.3954 C   0  0  0  0  0  0  0  0  0  0  0  0
  -17.5632  -42.8580  -11.2855 O   0  0  0  0  0  0  0  0  0  0  0  0
  -18.5829  -40.9096  -10.9360 N   0  0  0  0  0  0  0  0  0  0  0  0
  -13.7370  -38.0764  -12.0767 C   0  0  0  0  0  0  0  0  0  0  0  0
  1  2  1  0
  2  3  1  0
  2  4  1  0
  4  5  2  0
  5  6  1  0
  6  7  2  0
  7  8  1  0
  8  9  1  0
  9 10  1  0
 10 11  1  0
 11 12  1  0
 12 13  1  6
 12 14  1  0
 14 15  1  1
 15 16  1  0
 16 17  1  1
 16 18  1  0
 18 19  1  0
 19 20  1  0
 20 21  1  0
 21 22  1  0
 22 23  1  0
 23 24  1  0
 24 25  1  0
 25 26  1  0
 25 27  1  0
 27 28  2  0
 28 29  1  0
 29 30  2  0
 30 31  1  0
 31 32  2  0
 29 33  1  0
 33 34  2  0
 33 35  1  0
  8 36  2  0
 32 27  1  0
 35 14  1  0
 36  4  1  0
M  END
$$$$
