
     RDKit          3D

 36 38  0  0  0  0  0  0  0  0999 V2000
  -22.5821  -39.6597   -8.7801 C   0  0  0  0  0  0  0  0  0  0  0  0
  -22.9334  -40.2719   -7.4183 C   0  0  0  0  0  0  0  0  0  0  0  0
  -23.5376  -41.6458   -7.6048 C   0  0  0  0  0  0  0  0  0  0  0  0
  -21.7310  -40.3120   -6.5557 C   0  0  0  0  0  0  0  0  0  0  0  0
  -21.8092  -39.9002   -5.2437 C   0  0  0  0  0  0  0  0  0  0  0  0
  -20.6716  -39.9403   -4.4410 C   0  0  0  0  0  0  0  0  0  0  0  0
  -19.4763  -40.3929   -4.9693 C   0  0  0  0  0  0  0  0  0  0  0  0
  -19.3807  -40.8085   -6.2793 C   0  0  0  0  0  0  0  0  0  0  0  0
  -18.0880  -41.2891   -6.8303 C   0  0  0  0  0  0  0  0  0  0  0  0
  -16.9669  -40.8724   -6.0313 N   0  0  0  0  0  0  0  0  0  0  0  0
  -17.0822  -39.4774   -5.6542 C   0  0  0  0  0  0  0  0  0  0  0  0
  -17.0608  -38.5840   -6.9023 C   0  0  1  0  0  0  0  0  0  0  0  0
  -16.3412  -37.4448   -6.5102 O   0  0  0  0  0  0  0  0  0  0  0  0
  -16.2795  -39.2995   -7.9944 C   0  0  2  0  0  0  0  0  0  0  0  0
  -16.1024  -38.4273   -9.2243 C   0  0  0  0  0  0  0  0  0  0  0  0
  -14.9950  -37.4104   -9.0774 C   0  0  2  0  0  0  0  0  0  0  0  0
  -15.5731  -36.0304   -9.0585 C   0  0  0  0  0  0  0  0  0  0  0  0
  -13.9503  -37.6545  -10.0860 C   0  0  0  0  0  0  0  0  0  0  0  0
  -13.9694  -36.8195  -11.3168 C   0  0  0  0  0  0  0  0  0  0  0  0
  -15.2484  -36.8094  -12.0821 C   0  0  0  0  0  0  0  0  0  0  0  0
  -15.1976  -37.8388  -13.2014 C   0  0  0  0  0  0  0  0  0  0  0  0
  -16.0409  -37.3334  -14.3521 C   0  0  0  0  0  0  0  0  0  0  0  0
  -17.2791  -38.1843  -14.5837 C   0  0  0  0  0  0  0  0  0  0  0  0
  -18.4529  -37.5170  -13.8716 C   0  0  0  0  0  0  0  0  0  0  0  0
  -19.3668  -38.4987  -13.3403 N   0  0  0  0  0  0  0  0  0  0  0  0
  -20.3940  -38.8763  -14.3787 C   0  0  0  0  0  0  0  0  0  0  0  0
  -19.4243  -39.0754  -12.0212 C   0  0  0  0  0  0  0  0  0  0  0  0
  -18.4912  -39.6710  -11.2173 C   0  0  0  0  0  0  0  0  0  0  0  0
  -18.8885  -40.1164   -9.9764 C   0  0  0  0  0  0  0  0  0  0  0  0
  -20.2431  -39.9333   -9.6080 C   0  0  0  0  0  0  0  0  0  0  0  0
  -21.1880  -39.3363  -10.4118 C   0  0  0  0  0  0  0  0  0  0  0  0
  -20.7342  -38.9389  -11.5719 N   0  0  0  0  0  0  0  0  0  0  0  0
  -18.1657  -40.7721   -8.8849 C   0  0  0  0  0  0  0  0  0  0  0  0
  -18.7672  -41.7582   -8.2377 O   0  0  0  0  0  0  0  0  0  0  0  0
  -16.8843  -40.5729   -8.3271 N   0  0  0  0  0  0  0  0  0  0  0  0
  -20.5261  -40.7577   -7.0527 C   0  0  0  0  0  0  0  0  0  0  0  0
  1  2  1  0
  2  3  1  0
  2  4  1  0
  4  5  2  0
  5  6  1  0
  6  7  2  0
  7  8  1  0
  8  9  1  0
  9 10  1  0
 10 11  1  0
 11 12  1  0
 12 13  1  1
 12 14  1  0
 14 15  1  6
 15 16  1  0
 16 17  1  6
 16 18  1  0
 18 19  1  0
 19 20  1  0
 20 21  1  0
 21 22  1  0
 22 23  1  0
 23 24  1  0
 24 25  1  0
 25 26  1  0
 25 27  1  0
 27 28  2  0
 28 29  1  0
 29 30  2  0
 30 31  1  0
 31 32  2  0
 29 33  1  0
 33 34  2  0
 33 35  1  0
  8 36  2  0
 32 27  1  0
 35 14  1  0
 36  4  1  0
M  END
$$$$
