
     RDKit          3D

 36 38  0  0  0  0  0  0  0  0999 V2000
  -12.4586  -42.0493  -12.8374 C   0  0  0  0  0  0  0  0  0  0  0  0
  -13.3913  -40.8610  -13.1033 C   0  0  0  0  0  0  0  0  0  0  0  0
  -14.8066  -41.2088  -12.6990 C   0  0  0  0  0  0  0  0  0  0  0  0
  -12.8960  -39.6597  -12.3943 C   0  0  0  0  0  0  0  0  0  0  0  0
  -12.1810  -38.7012  -13.0777 C   0  0  0  0  0  0  0  0  0  0  0  0
  -11.7179  -37.5754  -12.4008 C   0  0  0  0  0  0  0  0  0  0  0  0
  -11.9805  -37.4318  -11.0506 C   0  0  0  0  0  0  0  0  0  0  0  0
  -12.6941  -38.3809  -10.3521 C   0  0  0  0  0  0  0  0  0  0  0  0
  -12.9645  -38.2111   -8.9017 C   0  0  0  0  0  0  0  0  0  0  0  0
  -13.7574  -39.2852   -8.3661 N   0  0  0  0  0  0  0  0  0  0  0  0
  -14.9661  -39.4811   -9.1420 C   0  0  0  0  0  0  0  0  0  0  0  0
  -16.2025  -39.3784   -8.2382 C   0  0  1  0  0  0  0  0  0  0  0  0
  -15.9500  -38.2688   -7.4170 O   0  0  0  0  0  0  0  0  0  0  0  0
  -17.4124  -39.0727   -9.1086 C   0  0  2  0  0  0  0  0  0  0  0  0
  -18.7079  -39.1526   -8.3213 C   0  0  0  0  0  0  0  0  0  0  0  0
  -18.9754  -37.9198   -7.4902 C   0  0  2  0  0  0  0  0  0  0  0  0
  -18.9023  -38.2631   -6.0356 C   0  0  0  0  0  0  0  0  0  0  0  0
  -20.2216  -37.2735   -7.9349 C   0  0  0  0  0  0  0  0  0  0  0  0
  -21.4576  -37.5440   -7.1528 C   0  0  0  0  0  0  0  0  0  0  0  0
  -21.8138  -38.9792   -6.9656 C   0  0  0  0  0  0  0  0  0  0  0  0
  -22.8102  -39.4149   -8.0298 C   0  0  0  0  0  0  0  0  0  0  0  0
  -23.7018  -40.4852   -7.4378 C   0  0  0  0  0  0  0  0  0  0  0  0
  -23.4904  -41.8433   -8.0871 C   0  0  0  0  0  0  0  0  0  0  0  0
  -22.5240  -42.6405   -7.2150 C   0  0  0  0  0  0  0  0  0  0  0  0
  -21.6697  -43.4814   -8.0178 N   0  0  0  0  0  0  0  0  0  0  0  0
  -22.3277  -44.8166   -8.2633 C   0  0  0  0  0  0  0  0  0  0  0  0
  -20.3486  -43.2199   -8.5296 C   0  0  0  0  0  0  0  0  0  0  0  0
  -19.8061  -42.1824   -9.2375 C   0  0  0  0  0  0  0  0  0  0  0  0
  -18.4711  -42.2461   -9.5683 C   0  0  0  0  0  0  0  0  0  0  0  0
  -17.7392  -43.3862   -9.1574 C   0  0  0  0  0  0  0  0  0  0  0  0
  -18.2782  -44.4346   -8.4461 C   0  0  0  0  0  0  0  0  0  0  0  0
  -19.5489  -44.3000   -8.1689 N   0  0  0  0  0  0  0  0  0  0  0  0
  -17.5882  -41.3287  -10.2913 C   0  0  0  0  0  0  0  0  0  0  0  0
  -16.7145  -41.8408  -11.1442 O   0  0  0  0  0  0  0  0  0  0  0  0
  -17.4477  -39.9241  -10.2799 N   0  0  0  0  0  0  0  0  0  0  0  0
  -13.1414  -39.4881  -11.0498 C   0  0  0  0  0  0  0  0  0  0  0  0
  1  2  1  0
  2  3  1  0
  2  4  1  0
  4  5  2  0
  5  6  1  0
  6  7  2  0
  7  8  1  0
  8  9  1  0
  9 10  1  0
 10 11  1  0
 11 12  1  0
 12 13  1  1
 12 14  1  0
 14 15  1  1
 15 16  1  0
 16 17  1  1
 16 18  1  0
 18 19  1  0
 19 20  1  0
 20 21  1  0
 21 22  1  0
 22 23  1  0
 23 24  1  0
 24 25  1  0
 25 26  1  0
 25 27  1  0
 27 28  2  0
 28 29  1  0
 29 30  2  0
 30 31  1  0
 31 32  2  0
 29 33  1  0
 33 34  2  0
 33 35  1  0
  8 36  2  0
 32 27  1  0
 35 14  1  0
 36  4  1  0
M  END
$$$$
