
     RDKit          3D

 36 38  0  0  0  0  0  0  0  0999 V2000
  -14.2236  -34.2763  -12.5155 C   0  0  0  0  0  0  0  0  0  0  0  0
  -13.3616  -35.2762  -11.7345 C   0  0  0  0  0  0  0  0  0  0  0  0
  -13.6444  -35.1623  -10.2531 C   0  0  0  0  0  0  0  0  0  0  0  0
  -13.5982  -36.6488  -12.2359 C   0  0  0  0  0  0  0  0  0  0  0  0
  -13.4895  -36.9197  -13.5820 C   0  0  0  0  0  0  0  0  0  0  0  0
  -13.7158  -38.2142  -14.0437 C   0  0  0  0  0  0  0  0  0  0  0  0
  -14.0470  -39.2132  -13.1465 C   0  0  0  0  0  0  0  0  0  0  0  0
  -14.1598  -38.9593  -11.7972 C   0  0  0  0  0  0  0  0  0  0  0  0
  -14.5188  -40.0442  -10.8486 C   0  0  0  0  0  0  0  0  0  0  0  0
  -14.3890  -39.6330   -9.4764 N   0  0  0  0  0  0  0  0  0  0  0  0
  -14.8539  -40.6674   -8.5734 C   0  0  0  0  0  0  0  0  0  0  0  0
  -16.0928  -40.1872   -7.8049 C   0  0  1  0  0  0  0  0  0  0  0  0
  -15.7616  -38.8943   -7.3712 O   0  0  0  0  0  0  0  0  0  0  0  0
  -17.2570  -40.0888   -8.7794 C   0  0  2  0  0  0  0  0  0  0  0  0
  -18.5634  -39.7853   -8.0681 C   0  0  0  0  0  0  0  0  0  0  0  0
  -18.7202  -38.3261   -7.7101 C   0  0  2  0  0  0  0  0  0  0  0  0
  -18.6978  -38.1636   -6.2228 C   0  0  0  0  0  0  0  0  0  0  0  0
  -19.8927  -37.7618   -8.3995 C   0  0  0  0  0  0  0  0  0  0  0  0
  -21.1582  -37.6439   -7.6267 C   0  0  0  0  0  0  0  0  0  0  0  0
  -21.6537  -38.8950   -6.9858 C   0  0  0  0  0  0  0  0  0  0  0  0
  -22.6750  -39.5755   -7.8852 C   0  0  0  0  0  0  0  0  0  0  0  0
  -23.6728  -40.3014   -7.0088 C   0  0  0  0  0  0  0  0  0  0  0  0
  -23.5862  -41.8119   -7.1563 C   0  0  0  0  0  0  0  0  0  0  0  0
  -22.7118  -42.3492   -6.0263 C   0  0  0  0  0  0  0  0  0  0  0  0
  -21.9334  -43.4826   -6.4632 N   0  0  0  0  0  0  0  0  0  0  0  0
  -22.7146  -44.7596   -6.2762 C   0  0  0  0  0  0  0  0  0  0  0  0
  -20.5873  -43.5252   -6.9748 C   0  0  0  0  0  0  0  0  0  0  0  0
  -19.9387  -42.8387   -7.9647 C   0  0  0  0  0  0  0  0  0  0  0  0
  -18.6122  -43.1263   -8.1964 C   0  0  0  0  0  0  0  0  0  0  0  0
  -17.9990  -44.1201   -7.3960 C   0  0  0  0  0  0  0  0  0  0  0  0
  -18.6452  -44.8160   -6.3992 C   0  0  0  0  0  0  0  0  0  0  0  0
  -19.9001  -44.4857   -6.2388 N   0  0  0  0  0  0  0  0  0  0  0  0
  -17.6363  -42.5871   -9.1454 C   0  0  0  0  0  0  0  0  0  0  0  0
  -16.8062  -43.4309   -9.7387 O   0  0  0  0  0  0  0  0  0  0  0  0
  -17.3607  -41.2789   -9.5986 N   0  0  0  0  0  0  0  0  0  0  0  0
  -13.9295  -37.6652  -11.3673 C   0  0  0  0  0  0  0  0  0  0  0  0
  1  2  1  0
  2  3  1  0
  2  4  1  0
  4  5  2  0
  5  6  1  0
  6  7  2  0
  7  8  1  0
  8  9  1  0
  9 10  1  0
 10 11  1  0
 11 12  1  0
 12 13  1  6
 12 14  1  0
 14 15  1  1
 15 16  1  0
 16 17  1  1
 16 18  1  0
 18 19  1  0
 19 20  1  0
 20 21  1  0
 21 22  1  0
 22 23  1  0
 23 24  1  0
 24 25  1  0
 25 26  1  0
 25 27  1  0
 27 28  2  0
 28 29  1  0
 29 30  2  0
 30 31  1  0
 31 32  2  0
 29 33  1  0
 33 34  2  0
 33 35  1  0
  8 36  2  0
 32 27  1  0
 35 14  1  0
 36  4  1  0
M  END
$$$$
