
     RDKit          3D

 36 38  0  0  0  0  0  0  0  0999 V2000
  -10.8909  -37.4174  -12.1891 C   0  0  0  0  0  0  0  0  0  0  0  0
  -12.2356  -38.0167  -12.6196 C   0  0  0  0  0  0  0  0  0  0  0  0
  -12.2505  -39.5060  -12.3564 C   0  0  0  0  0  0  0  0  0  0  0  0
  -13.3443  -37.3241  -11.9250 C   0  0  0  0  0  0  0  0  0  0  0  0
  -14.2798  -36.6200  -12.6504 C   0  0  0  0  0  0  0  0  0  0  0  0
  -15.3182  -35.9704  -11.9871 C   0  0  0  0  0  0  0  0  0  0  0  0
  -15.3989  -36.0389  -10.6082 C   0  0  0  0  0  0  0  0  0  0  0  0
  -14.4717  -36.7387   -9.8676 C   0  0  0  0  0  0  0  0  0  0  0  0
  -14.5729  -36.7993   -8.3872 C   0  0  0  0  0  0  0  0  0  0  0  0
  -14.2856  -38.1124   -7.8750 N   0  0  0  0  0  0  0  0  0  0  0  0
  -15.2084  -39.0956   -8.4072 C   0  0  0  0  0  0  0  0  0  0  0  0
  -16.4518  -39.1990   -7.5131 C   0  0  1  0  0  0  0  0  0  0  0  0
  -16.4337  -38.0253   -6.7440 O   0  0  0  0  0  0  0  0  0  0  0  0
  -17.6874  -39.1785   -8.4008 C   0  0  2  0  0  0  0  0  0  0  0  0
  -18.9546  -39.4469   -7.6091 C   0  0  0  0  0  0  0  0  0  0  0  0
  -19.4549  -38.2347   -6.8591 C   0  0  2  0  0  0  0  0  0  0  0  0
  -19.3361  -38.4656   -5.3855 C   0  0  0  0  0  0  0  0  0  0  0  0
  -20.7939  -37.8600   -7.3438 C   0  0  0  0  0  0  0  0  0  0  0  0
  -21.9674  -38.3047   -6.5452 C   0  0  0  0  0  0  0  0  0  0  0  0
  -22.0542  -39.7661   -6.2657 C   0  0  0  0  0  0  0  0  0  0  0  0
  -22.9408  -40.4455   -7.2990 C   0  0  0  0  0  0  0  0  0  0  0  0
  -23.6257  -41.6227   -6.6387 C   0  0  0  0  0  0  0  0  0  0  0  0
  -23.1595  -42.9565   -7.1994 C   0  0  0  0  0  0  0  0  0  0  0  0
  -22.0723  -43.5040   -6.2783 C   0  0  0  0  0  0  0  0  0  0  0  0
  -21.0683  -44.2213   -7.0256 N   0  0  0  0  0  0  0  0  0  0  0  0
  -21.4653  -45.6681   -7.1842 C   0  0  0  0  0  0  0  0  0  0  0  0
  -19.8125  -43.7526   -7.5540 C   0  0  0  0  0  0  0  0  0  0  0  0
  -19.4633  -42.6796   -8.3276 C   0  0  0  0  0  0  0  0  0  0  0  0
  -18.1358  -42.5157   -8.6544 C   0  0  0  0  0  0  0  0  0  0  0  0
  -17.2105  -43.4721   -8.1712 C   0  0  0  0  0  0  0  0  0  0  0  0
  -17.5543  -44.5550   -7.3936 C   0  0  0  0  0  0  0  0  0  0  0  0
  -18.8311  -44.6408   -7.1250 N   0  0  0  0  0  0  0  0  0  0  0  0
  -17.4296  -41.4984   -9.4355 C   0  0  0  0  0  0  0  0  0  0  0  0
  -16.4666  -41.8928  -10.2542 O   0  0  0  0  0  0  0  0  0  0  0  0
  -17.5513  -40.0942   -9.5148 N   0  0  0  0  0  0  0  0  0  0  0  0
  -13.4519  -37.3738  -10.5527 C   0  0  0  0  0  0  0  0  0  0  0  0
  1  2  1  0
  2  3  1  0
  2  4  1  0
  4  5  2  0
  5  6  1  0
  6  7  2  0
  7  8  1  0
  8  9  1  0
  9 10  1  0
 10 11  1  0
 11 12  1  0
 12 13  1  1
 12 14  1  0
 14 15  1  1
 15 16  1  0
 16 17  1  1
 16 18  1  0
 18 19  1  0
 19 20  1  0
 20 21  1  0
 21 22  1  0
 22 23  1  0
 23 24  1  0
 24 25  1  0
 25 26  1  0
 25 27  1  0
 27 28  2  0
 28 29  1  0
 29 30  2  0
 30 31  1  0
 31 32  2  0
 29 33  1  0
 33 34  2  0
 33 35  1  0
  8 36  2  0
 32 27  1  0
 35 14  1  0
 36  4  1  0
M  END
$$$$
