
     RDKit          3D

 36 38  0  0  0  0  0  0  0  0999 V2000
  -14.7550  -36.3116  -14.1542 C   0  0  0  0  0  0  0  0  0  0  0  0
  -14.0507  -37.6494  -13.8951 C   0  0  0  0  0  0  0  0  0  0  0  0
  -13.1543  -38.0008  -15.0615 C   0  0  0  0  0  0  0  0  0  0  0  0
  -13.2981  -37.5872  -12.6219 C   0  0  0  0  0  0  0  0  0  0  0  0
  -12.5080  -36.4947  -12.3403 C   0  0  0  0  0  0  0  0  0  0  0  0
  -11.8026  -36.4468  -11.1402 C   0  0  0  0  0  0  0  0  0  0  0  0
  -11.9027  -37.4959  -10.2446 C   0  0  0  0  0  0  0  0  0  0  0  0
  -12.6884  -38.5958  -10.5106 C   0  0  0  0  0  0  0  0  0  0  0  0
  -12.7819  -39.7143   -9.5380 C   0  0  0  0  0  0  0  0  0  0  0  0
  -14.1418  -40.1202   -9.3039 N   0  0  0  0  0  0  0  0  0  0  0  0
  -15.0286  -38.9747   -9.2513 C   0  0  0  0  0  0  0  0  0  0  0  0
  -16.1771  -39.2342   -8.2665 C   0  0  1  0  0  0  0  0  0  0  0  0
  -16.1054  -38.1730   -7.3510 O   0  0  0  0  0  0  0  0  0  0  0  0
  -17.4933  -39.1341   -9.0232 C   0  0  2  0  0  0  0  0  0  0  0  0
  -18.6880  -39.2685   -8.0962 C   0  0  0  0  0  0  0  0  0  0  0  0
  -19.0049  -37.9958   -7.3467 C   0  0  2  0  0  0  0  0  0  0  0  0
  -18.7511  -38.1915   -5.8851 C   0  0  0  0  0  0  0  0  0  0  0  0
  -20.3520  -37.5220   -7.7060 C   0  0  0  0  0  0  0  0  0  0  0  0
  -21.4675  -37.8397   -6.7748 C   0  0  0  0  0  0  0  0  0  0  0  0
  -21.6447  -39.2792   -6.4312 C   0  0  0  0  0  0  0  0  0  0  0  0
  -22.6881  -39.9106   -7.3412 C   0  0  0  0  0  0  0  0  0  0  0  0
  -23.3945  -41.0039   -6.5690 C   0  0  0  0  0  0  0  0  0  0  0  0
  -23.1015  -42.3893   -7.1220 C   0  0  0  0  0  0  0  0  0  0  0  0
  -21.9722  -43.0003   -6.2964 C   0  0  0  0  0  0  0  0  0  0  0  0
  -21.1150  -43.8235   -7.1141 N   0  0  0  0  0  0  0  0  0  0  0  0
  -21.6444  -45.2349   -7.1748 C   0  0  0  0  0  0  0  0  0  0  0  0
  -19.8875  -43.4808   -7.7861 C   0  0  0  0  0  0  0  0  0  0  0  0
  -19.5343  -42.4656   -8.6325 C   0  0  0  0  0  0  0  0  0  0  0  0
  -18.2396  -42.4266   -9.0995 C   0  0  0  0  0  0  0  0  0  0  0  0
  -17.3506  -43.4441   -8.6767 C   0  0  0  0  0  0  0  0  0  0  0  0
  -17.6989  -44.4693   -7.8264 C   0  0  0  0  0  0  0  0  0  0  0  0
  -18.9429  -44.4368   -7.4254 N   0  0  0  0  0  0  0  0  0  0  0  0
  -17.5381  -41.4978   -9.9878 C   0  0  0  0  0  0  0  0  0  0  0  0
  -16.7024  -41.9981  -10.8847 O   0  0  0  0  0  0  0  0  0  0  0  0
  -17.5512  -40.0914  -10.1088 N   0  0  0  0  0  0  0  0  0  0  0  0
  -13.3773  -38.6162  -11.7096 C   0  0  0  0  0  0  0  0  0  0  0  0
  1  2  1  0
  2  3  1  0
  2  4  1  0
  4  5  2  0
  5  6  1  0
  6  7  2  0
  7  8  1  0
  8  9  1  0
  9 10  1  0
 10 11  1  0
 11 12  1  0
 12 13  1  1
 12 14  1  0
 14 15  1  1
 15 16  1  0
 16 17  1  1
 16 18  1  0
 18 19  1  0
 19 20  1  0
 20 21  1  0
 21 22  1  0
 22 23  1  0
 23 24  1  0
 24 25  1  0
 25 26  1  0
 25 27  1  0
 27 28  2  0
 28 29  1  0
 29 30  2  0
 30 31  1  0
 31 32  2  0
 29 33  1  0
 33 34  2  0
 33 35  1  0
  8 36  2  0
 32 27  1  0
 35 14  1  0
 36  4  1  0
M  END
$$$$
