
     RDKit          3D

 36 38  0  0  0  0  0  0  0  0999 V2000
  -23.3854  -43.7599   -5.2025 C   0  0  0  0  0  0  0  0  0  0  0  0
  -22.2462  -43.0323   -5.9274 C   0  0  0  0  0  0  0  0  0  0  0  0
  -22.4161  -43.1596   -7.4249 C   0  0  0  0  0  0  0  0  0  0  0  0
  -22.1950  -41.6167   -5.4977 C   0  0  0  0  0  0  0  0  0  0  0  0
  -23.0489  -41.1622   -4.5172 C   0  0  0  0  0  0  0  0  0  0  0  0
  -22.9938  -39.8279   -4.1213 C   0  0  0  0  0  0  0  0  0  0  0  0
  -22.0831  -38.9740   -4.7164 C   0  0  0  0  0  0  0  0  0  0  0  0
  -21.2220  -39.4122   -5.6984 C   0  0  0  0  0  0  0  0  0  0  0  0
  -20.2522  -38.4802   -6.3281 C   0  0  0  0  0  0  0  0  0  0  0  0
  -19.3458  -39.1562   -7.2172 N   0  0  0  0  0  0  0  0  0  0  0  0
  -18.1913  -39.6634   -6.5020 C   0  0  0  0  0  0  0  0  0  0  0  0
  -16.9534  -38.8117   -6.8154 C   0  0  1  0  0  0  0  0  0  0  0  0
  -16.3387  -38.6084   -5.5703 O   0  0  0  0  0  0  0  0  0  0  0  0
  -16.0154  -39.6282   -7.6921 C   0  0  2  0  0  0  0  0  0  0  0  0
  -15.6636  -38.8969   -8.9751 C   0  0  0  0  0  0  0  0  0  0  0  0
  -14.5957  -37.8452   -8.7861 C   0  0  2  0  0  0  0  0  0  0  0  0
  -15.1780  -36.4853   -9.0108 C   0  0  0  0  0  0  0  0  0  0  0  0
  -13.4122  -38.1782   -9.5965 C   0  0  0  0  0  0  0  0  0  0  0  0
  -13.2541  -37.4883  -10.9048 C   0  0  0  0  0  0  0  0  0  0  0  0
  -14.4062  -37.5935  -11.8446 C   0  0  0  0  0  0  0  0  0  0  0  0
  -14.1849  -38.7415  -12.8185 C   0  0  0  0  0  0  0  0  0  0  0  0
  -14.8520  -38.3884  -14.1304 C   0  0  0  0  0  0  0  0  0  0  0  0
  -16.0376  -39.2877  -14.4408 C   0  0  0  0  0  0  0  0  0  0  0  0
  -17.3074  -38.5708  -13.9894 C   0  0  0  0  0  0  0  0  0  0  0  0
  -18.2842  -39.5064  -13.4877 N   0  0  0  0  0  0  0  0  0  0  0  0
  -19.1447  -40.0220  -14.6145 C   0  0  0  0  0  0  0  0  0  0  0  0
  -18.5325  -39.9315  -12.1337 C   0  0  0  0  0  0  0  0  0  0  0  0
  -17.7250  -40.4113  -11.1389 C   0  0  0  0  0  0  0  0  0  0  0  0
  -18.2986  -40.7225   -9.9265 C   0  0  0  0  0  0  0  0  0  0  0  0
  -19.6938  -40.5294   -9.7833 C   0  0  0  0  0  0  0  0  0  0  0  0
  -20.5130  -40.0484  -10.7797 C   0  0  0  0  0  0  0  0  0  0  0  0
  -19.8952  -39.7747  -11.8991 N   0  0  0  0  0  0  0  0  0  0  0  0
  -17.7412  -41.2341   -8.6730 C   0  0  0  0  0  0  0  0  0  0  0  0
  -18.4261  -42.1540   -8.0114 O   0  0  0  0  0  0  0  0  0  0  0  0
  -16.5573  -40.9444   -7.9607 N   0  0  0  0  0  0  0  0  0  0  0  0
  -21.2990  -40.7417   -6.0714 C   0  0  0  0  0  0  0  0  0  0  0  0
  1  2  1  0
  2  3  1  0
  2  4  1  0
  4  5  2  0
  5  6  1  0
  6  7  2  0
  7  8  1  0
  8  9  1  0
  9 10  1  0
 10 11  1  0
 11 12  1  0
 12 13  1  1
 12 14  1  0
 14 15  1  6
 15 16  1  0
 16 17  1  6
 16 18  1  0
 18 19  1  0
 19 20  1  0
 20 21  1  0
 21 22  1  0
 22 23  1  0
 23 24  1  0
 24 25  1  0
 25 26  1  0
 25 27  1  0
 27 28  2  0
 28 29  1  0
 29 30  2  0
 30 31  1  0
 31 32  2  0
 29 33  1  0
 33 34  2  0
 33 35  1  0
  8 36  2  0
 32 27  1  0
 35 14  1  0
 36  4  1  0
M  END
$$$$
