
     RDKit          3D

 36 38  0  0  0  0  0  0  0  0999 V2000
  -13.7117  -33.8846  -11.5117 C   0  0  0  0  0  0  0  0  0  0  0  0
  -14.7195  -35.0160  -11.7501 C   0  0  0  0  0  0  0  0  0  0  0  0
  -15.5423  -34.7290  -12.9863 C   0  0  0  0  0  0  0  0  0  0  0  0
  -14.0116  -36.3123  -11.8491 C   0  0  0  0  0  0  0  0  0  0  0  0
  -13.1825  -36.5655  -12.9194 C   0  0  0  0  0  0  0  0  0  0  0  0
  -12.5224  -37.7891  -13.0040 C   0  0  0  0  0  0  0  0  0  0  0  0
  -12.7061  -38.7363  -12.0131 C   0  0  0  0  0  0  0  0  0  0  0  0
  -13.5315  -38.4992  -10.9360 C   0  0  0  0  0  0  0  0  0  0  0  0
  -13.7187  -39.5292   -9.8826 C   0  0  0  0  0  0  0  0  0  0  0  0
  -14.7190  -39.1495   -8.9213 N   0  0  0  0  0  0  0  0  0  0  0  0
  -15.6147  -40.2526   -8.6340 C   0  0  0  0  0  0  0  0  0  0  0  0
  -16.6363  -39.8451   -7.5633 C   0  0  1  0  0  0  0  0  0  0  0  0
  -16.1948  -38.5922   -7.1109 O   0  0  0  0  0  0  0  0  0  0  0  0
  -17.9918  -39.6697   -8.2316 C   0  0  2  0  0  0  0  0  0  0  0  0
  -19.1334  -39.9907   -7.2837 C   0  0  0  0  0  0  0  0  0  0  0  0
  -19.4439  -38.8656   -6.3247 C   0  0  2  0  0  0  0  0  0  0  0  0
  -19.1103  -39.2839   -4.9273 C   0  0  0  0  0  0  0  0  0  0  0  0
  -20.8195  -38.3861   -6.5396 C   0  0  0  0  0  0  0  0  0  0  0  0
  -21.8771  -38.8859   -5.6208 C   0  0  0  0  0  0  0  0  0  0  0  0
  -21.9992  -40.3670   -5.5062 C   0  0  0  0  0  0  0  0  0  0  0  0
  -23.0714  -40.8795   -6.4564 C   0  0  0  0  0  0  0  0  0  0  0  0
  -23.7088  -42.1054   -5.8386 C   0  0  0  0  0  0  0  0  0  0  0  0
  -23.4092  -43.3738   -6.6210 C   0  0  0  0  0  0  0  0  0  0  0  0
  -22.2236  -44.0707   -5.9584 C   0  0  0  0  0  0  0  0  0  0  0  0
  -21.3887  -44.7232   -6.9373 N   0  0  0  0  0  0  0  0  0  0  0  0
  -21.8841  -46.1238   -7.2002 C   0  0  0  0  0  0  0  0  0  0  0  0
  -20.2066  -44.2363   -7.6017 C   0  0  0  0  0  0  0  0  0  0  0  0
  -19.9237  -43.0876   -8.2888 C   0  0  0  0  0  0  0  0  0  0  0  0
  -18.6562  -42.9308   -8.8033 C   0  0  0  0  0  0  0  0  0  0  0  0
  -17.7207  -43.9723   -8.5922 C   0  0  0  0  0  0  0  0  0  0  0  0
  -17.9983  -45.1315   -7.9032 C   0  0  0  0  0  0  0  0  0  0  0  0
  -19.2205  -45.2054   -7.4445 N   0  0  0  0  0  0  0  0  0  0  0  0
  -18.0254  -41.8489   -9.5618 C   0  0  0  0  0  0  0  0  0  0  0  0
  -17.2244  -42.1710  -10.5657 O   0  0  0  0  0  0  0  0  0  0  0  0
  -18.0809  -40.4425   -9.4535 N   0  0  0  0  0  0  0  0  0  0  0  0
  -14.1740  -37.2759  -10.8782 C   0  0  0  0  0  0  0  0  0  0  0  0
  1  2  1  0
  2  3  1  0
  2  4  1  0
  4  5  2  0
  5  6  1  0
  6  7  2  0
  7  8  1  0
  8  9  1  0
  9 10  1  0
 10 11  1  0
 11 12  1  0
 12 13  1  6
 12 14  1  0
 14 15  1  1
 15 16  1  0
 16 17  1  1
 16 18  1  0
 18 19  1  0
 19 20  1  0
 20 21  1  0
 21 22  1  0
 22 23  1  0
 23 24  1  0
 24 25  1  0
 25 26  1  0
 25 27  1  0
 27 28  2  0
 28 29  1  0
 29 30  2  0
 30 31  1  0
 31 32  2  0
 29 33  1  0
 33 34  2  0
 33 35  1  0
  8 36  2  0
 32 27  1  0
 35 14  1  0
 36  4  1  0
M  END
$$$$
