
     RDKit          3D

 36 38  0  0  0  0  0  0  0  0999 V2000
  -13.5674  -34.8129  -11.0391 C   0  0  0  0  0  0  0  0  0  0  0  0
  -12.4440  -35.6270  -11.6933 C   0  0  0  0  0  0  0  0  0  0  0  0
  -11.1082  -35.2464  -11.0949 C   0  0  0  0  0  0  0  0  0  0  0  0
  -12.7185  -37.0746  -11.5506 C   0  0  0  0  0  0  0  0  0  0  0  0
  -13.0519  -37.8258  -12.6559 C   0  0  0  0  0  0  0  0  0  0  0  0
  -13.3099  -39.1868  -12.5105 C   0  0  0  0  0  0  0  0  0  0  0  0
  -13.2288  -39.7694  -11.2588 C   0  0  0  0  0  0  0  0  0  0  0  0
  -12.8966  -39.0327  -10.1431 C   0  0  0  0  0  0  0  0  0  0  0  0
  -12.8166  -39.6748   -8.8063 C   0  0  0  0  0  0  0  0  0  0  0  0
  -14.0144  -40.4005   -8.4782 N   0  0  0  0  0  0  0  0  0  0  0  0
  -15.1440  -39.5050   -8.3250 C   0  0  0  0  0  0  0  0  0  0  0  0
  -16.3619  -40.2697   -7.7883 C   0  0  1  0  0  0  0  0  0  0  0  0
  -16.5994  -39.7139   -6.5218 O   0  0  0  0  0  0  0  0  0  0  0  0
  -17.5546  -39.9663   -8.6829 C   0  0  2  0  0  0  0  0  0  0  0  0
  -18.8482  -39.8925   -7.8918 C   0  0  0  0  0  0  0  0  0  0  0  0
  -19.0320  -38.5756   -7.1746 C   0  0  2  0  0  0  0  0  0  0  0  0
  -18.9728  -38.7914   -5.6951 C   0  0  0  0  0  0  0  0  0  0  0  0
  -20.2369  -37.8934   -7.6757 C   0  0  0  0  0  0  0  0  0  0  0  0
  -21.4833  -38.0133   -6.8727 C   0  0  0  0  0  0  0  0  0  0  0  0
  -21.9291  -39.4002   -6.5577 C   0  0  0  0  0  0  0  0  0  0  0  0
  -22.9572  -39.8648   -7.5787 C   0  0  0  0  0  0  0  0  0  0  0  0
  -23.9118  -40.8186   -6.8933 C   0  0  0  0  0  0  0  0  0  0  0  0
  -23.7910  -42.2401   -7.4183 C   0  0  0  0  0  0  0  0  0  0  0  0
  -22.8725  -43.0162   -6.4781 C   0  0  0  0  0  0  0  0  0  0  0  0
  -22.0780  -43.9784   -7.2020 N   0  0  0  0  0  0  0  0  0  0  0  0
  -22.8211  -45.2854   -7.3270 C   0  0  0  0  0  0  0  0  0  0  0  0
  -20.7458  -43.8488   -7.7350 C   0  0  0  0  0  0  0  0  0  0  0  0
  -20.1423  -42.9156   -8.5330 C   0  0  0  0  0  0  0  0  0  0  0  0
  -18.8159  -43.0939   -8.8565 C   0  0  0  0  0  0  0  0  0  0  0  0
  -18.1559  -44.2372   -8.3448 C   0  0  0  0  0  0  0  0  0  0  0  0
  -18.7565  -45.1811   -7.5426 C   0  0  0  0  0  0  0  0  0  0  0  0
  -20.0145  -44.9413   -7.2788 N   0  0  0  0  0  0  0  0  0  0  0  0
  -17.8804  -42.3032   -9.6586 C   0  0  0  0  0  0  0  0  0  0  0  0
  -17.0458  -42.9444  -10.4620 O   0  0  0  0  0  0  0  0  0  0  0  0
  -17.6506  -40.9151   -9.7732 N   0  0  0  0  0  0  0  0  0  0  0  0
  -12.6457  -37.6839  -10.3173 C   0  0  0  0  0  0  0  0  0  0  0  0
  1  2  1  0
  2  3  1  0
  2  4  1  0
  4  5  2  0
  5  6  1  0
  6  7  2  0
  7  8  1  0
  8  9  1  0
  9 10  1  0
 10 11  1  0
 11 12  1  0
 12 13  1  1
 12 14  1  0
 14 15  1  1
 15 16  1  0
 16 17  1  1
 16 18  1  0
 18 19  1  0
 19 20  1  0
 20 21  1  0
 21 22  1  0
 22 23  1  0
 23 24  1  0
 24 25  1  0
 25 26  1  0
 25 27  1  0
 27 28  2  0
 28 29  1  0
 29 30  2  0
 30 31  1  0
 31 32  2  0
 29 33  1  0
 33 34  2  0
 33 35  1  0
  8 36  2  0
 32 27  1  0
 35 14  1  0
 36  4  1  0
M  END
$$$$
