
     RDKit          3D

 36 38  0  0  0  0  0  0  0  0999 V2000
  -14.4586  -35.1616  -12.6006 C   0  0  0  0  0  0  0  0  0  0  0  0
  -13.1386  -35.9326  -12.7267 C   0  0  0  0  0  0  0  0  0  0  0  0
  -12.1096  -35.3630  -11.7759 C   0  0  0  0  0  0  0  0  0  0  0  0
  -13.3698  -37.3751  -12.4875 C   0  0  0  0  0  0  0  0  0  0  0  0
  -13.7319  -38.1979  -13.5311 C   0  0  0  0  0  0  0  0  0  0  0  0
  -13.9487  -39.5534  -13.2951 C   0  0  0  0  0  0  0  0  0  0  0  0
  -13.7984  -40.0586  -12.0164 C   0  0  0  0  0  0  0  0  0  0  0  0
  -13.4368  -39.2496  -10.9616 C   0  0  0  0  0  0  0  0  0  0  0  0
  -13.2824  -39.8092   -9.5947 C   0  0  0  0  0  0  0  0  0  0  0  0
  -14.4520  -39.5980   -8.7845 N   0  0  0  0  0  0  0  0  0  0  0  0
  -14.7787  -40.7837   -8.0171 C   0  0  0  0  0  0  0  0  0  0  0  0
  -16.1034  -40.5856   -7.2675 C   0  0  1  0  0  0  0  0  0  0  0  0
  -15.9259  -39.3974   -6.5422 O   0  0  0  0  0  0  0  0  0  0  0  0
  -17.2089  -40.3693   -8.2903 C   0  0  2  0  0  0  0  0  0  0  0  0
  -18.5513  -40.1223   -7.6257 C   0  0  0  0  0  0  0  0  0  0  0  0
  -18.7156  -38.7060   -7.1263 C   0  0  2  0  0  0  0  0  0  0  0  0
  -18.7772  -38.6995   -5.6313 C   0  0  0  0  0  0  0  0  0  0  0  0
  -19.8415  -38.0559   -7.8176 C   0  0  0  0  0  0  0  0  0  0  0  0
  -21.1483  -38.0004   -7.1092 C   0  0  0  0  0  0  0  0  0  0  0  0
  -21.6907  -39.3039   -6.6316 C   0  0  0  0  0  0  0  0  0  0  0  0
  -22.6646  -39.8722   -7.6533 C   0  0  0  0  0  0  0  0  0  0  0  0
  -23.7174  -40.6706   -6.9151 C   0  0  0  0  0  0  0  0  0  0  0  0
  -23.6356  -42.1586   -7.2147 C   0  0  0  0  0  0  0  0  0  0  0  0
  -22.8323  -42.8233   -6.0998 C   0  0  0  0  0  0  0  0  0  0  0  0
  -22.0401  -43.9164   -6.6085 N   0  0  0  0  0  0  0  0  0  0  0  0
  -22.8419  -45.1944   -6.6004 C   0  0  0  0  0  0  0  0  0  0  0  0
  -20.6672  -43.9254   -7.0453 C   0  0  0  0  0  0  0  0  0  0  0  0
  -19.9569  -43.1493   -7.9198 C   0  0  0  0  0  0  0  0  0  0  0  0
  -18.6219  -43.4307   -8.1055 C   0  0  0  0  0  0  0  0  0  0  0  0
  -18.0644  -44.5113   -7.3802 C   0  0  0  0  0  0  0  0  0  0  0  0
  -18.7728  -45.2975   -6.4997 C   0  0  0  0  0  0  0  0  0  0  0  0
  -20.0319  -44.9672   -6.3764 N   0  0  0  0  0  0  0  0  0  0  0  0
  -17.5884  -42.8102   -8.9364 C   0  0  0  0  0  0  0  0  0  0  0  0
  -16.7330  -43.5998   -9.5672 O   0  0  0  0  0  0  0  0  0  0  0  0
  -17.2757  -41.4661   -9.2341 N   0  0  0  0  0  0  0  0  0  0  0  0
  -13.2280  -37.9082  -11.2253 C   0  0  0  0  0  0  0  0  0  0  0  0
  1  2  1  0
  2  3  1  0
  2  4  1  0
  4  5  2  0
  5  6  1  0
  6  7  2  0
  7  8  1  0
  8  9  1  0
  9 10  1  0
 10 11  1  0
 11 12  1  0
 12 13  1  1
 12 14  1  0
 14 15  1  1
 15 16  1  0
 16 17  1  1
 16 18  1  0
 18 19  1  0
 19 20  1  0
 20 21  1  0
 21 22  1  0
 22 23  1  0
 23 24  1  0
 24 25  1  0
 25 26  1  0
 25 27  1  0
 27 28  2  0
 28 29  1  0
 29 30  2  0
 30 31  1  0
 31 32  2  0
 29 33  1  0
 33 34  2  0
 33 35  1  0
  8 36  2  0
 32 27  1  0
 35 14  1  0
 36  4  1  0
M  END
$$$$
