
     RDKit          3D

 36 38  0  0  0  0  0  0  0  0999 V2000
  -15.7896  -34.4223  -11.1696 C   0  0  0  0  0  0  0  0  0  0  0  0
  -15.8137  -35.3597  -12.3834 C   0  0  0  0  0  0  0  0  0  0  0  0
  -15.1332  -34.7021  -13.5632 C   0  0  0  0  0  0  0  0  0  0  0  0
  -15.1844  -36.6539  -12.0365 C   0  0  0  0  0  0  0  0  0  0  0  0
  -15.1022  -37.6554  -12.9784 C   0  0  0  0  0  0  0  0  0  0  0  0
  -14.5097  -38.8701  -12.6412 C   0  0  0  0  0  0  0  0  0  0  0  0
  -14.0104  -39.0577  -11.3652 C   0  0  0  0  0  0  0  0  0  0  0  0
  -14.0845  -38.0665  -10.4113 C   0  0  0  0  0  0  0  0  0  0  0  0
  -13.5452  -38.2868   -9.0451 C   0  0  0  0  0  0  0  0  0  0  0  0
  -14.3824  -39.1562   -8.2628 N   0  0  0  0  0  0  0  0  0  0  0  0
  -15.6652  -39.3652   -8.9048 C   0  0  0  0  0  0  0  0  0  0  0  0
  -16.7832  -39.4273   -7.8549 C   0  0  1  0  0  0  0  0  0  0  0  0
  -16.7126  -38.1942   -7.1887 O   0  0  0  0  0  0  0  0  0  0  0  0
  -18.1195  -39.5126   -8.5775 C   0  0  2  0  0  0  0  0  0  0  0  0
  -19.2526  -39.8579   -7.6281 C   0  0  0  0  0  0  0  0  0  0  0  0
  -19.7424  -38.6718   -6.8309 C   0  0  2  0  0  0  0  0  0  0  0  0
  -19.4209  -38.8667   -5.3826 C   0  0  0  0  0  0  0  0  0  0  0  0
  -21.1562  -38.4042   -7.1437 C   0  0  0  0  0  0  0  0  0  0  0  0
  -22.1826  -38.9182   -6.1979 C   0  0  0  0  0  0  0  0  0  0  0  0
  -22.1245  -40.3768   -5.8968 C   0  0  0  0  0  0  0  0  0  0  0  0
  -23.0820  -41.1374   -6.8023 C   0  0  0  0  0  0  0  0  0  0  0  0
  -23.5883  -42.3490   -6.0497 C   0  0  0  0  0  0  0  0  0  0  0  0
  -23.0992  -43.6554   -6.6536 C   0  0  0  0  0  0  0  0  0  0  0  0
  -21.8664  -44.1058   -5.8743 C   0  0  0  0  0  0  0  0  0  0  0  0
  -20.9147  -44.7617   -6.7375 N   0  0  0  0  0  0  0  0  0  0  0  0
  -21.2200  -46.2361   -6.8315 C   0  0  0  0  0  0  0  0  0  0  0  0
  -19.7744  -44.2128   -7.4262 C   0  0  0  0  0  0  0  0  0  0  0  0
  -19.6067  -43.1314   -8.2474 C   0  0  0  0  0  0  0  0  0  0  0  0
  -18.3472  -42.8777   -8.7426 C   0  0  0  0  0  0  0  0  0  0  0  0
  -17.2996  -43.7555   -8.3733 C   0  0  0  0  0  0  0  0  0  0  0  0
  -17.4607  -44.8461   -7.5487 C   0  0  0  0  0  0  0  0  0  0  0  0
  -18.6832  -45.0195   -7.1183 N   0  0  0  0  0  0  0  0  0  0  0  0
  -17.8234  -41.8262   -9.6164 C   0  0  0  0  0  0  0  0  0  0  0  0
  -16.9453  -42.1644  -10.5479 O   0  0  0  0  0  0  0  0  0  0  0  0
  -18.0581  -40.4362   -9.6917 N   0  0  0  0  0  0  0  0  0  0  0  0
  -14.6779  -36.8712  -10.7741 C   0  0  0  0  0  0  0  0  0  0  0  0
  1  2  1  0
  2  3  1  0
  2  4  1  0
  4  5  2  0
  5  6  1  0
  6  7  2  0
  7  8  1  0
  8  9  1  0
  9 10  1  0
 10 11  1  0
 11 12  1  0
 12 13  1  6
 12 14  1  0
 14 15  1  1
 15 16  1  0
 16 17  1  1
 16 18  1  0
 18 19  1  0
 19 20  1  0
 20 21  1  0
 21 22  1  0
 22 23  1  0
 23 24  1  0
 24 25  1  0
 25 26  1  0
 25 27  1  0
 27 28  2  0
 28 29  1  0
 29 30  2  0
 30 31  1  0
 31 32  2  0
 29 33  1  0
 33 34  2  0
 33 35  1  0
  8 36  2  0
 32 27  1  0
 35 14  1  0
 36  4  1  0
M  END
$$$$
