
     RDKit          3D

 36 38  0  0  0  0  0  0  0  0999 V2000
  -23.5886  -40.5932   -4.4487 C   0  0  0  0  0  0  0  0  0  0  0  0
  -22.9031  -41.4010   -5.5579 C   0  0  0  0  0  0  0  0  0  0  0  0
  -23.9331  -42.1699   -6.3550 C   0  0  0  0  0  0  0  0  0  0  0  0
  -22.1013  -40.5015   -6.4177 C   0  0  0  0  0  0  0  0  0  0  0  0
  -22.7199  -39.7351   -7.3806 C   0  0  0  0  0  0  0  0  0  0  0  0
  -21.9560  -38.8933   -8.1855 C   0  0  0  0  0  0  0  0  0  0  0  0
  -20.5855  -38.8358   -8.0098 C   0  0  0  0  0  0  0  0  0  0  0  0
  -19.9509  -39.5954   -7.0516 C   0  0  0  0  0  0  0  0  0  0  0  0
  -18.4777  -39.5225   -6.8789 C   0  0  0  0  0  0  0  0  0  0  0  0
  -18.0063  -38.1666   -6.7886 N   0  0  0  0  0  0  0  0  0  0  0  0
  -17.8841  -37.5660   -8.1024 C   0  0  0  0  0  0  0  0  0  0  0  0
  -16.9922  -38.4313   -9.0034 C   0  0  1  0  0  0  0  0  0  0  0  0
  -17.3389  -38.0561  -10.3105 O   0  0  0  0  0  0  0  0  0  0  0  0
  -15.5406  -38.0474   -8.7572 C   0  0  2  0  0  0  0  0  0  0  0  0
  -14.7648  -37.9144  -10.0553 C   0  0  0  0  0  0  0  0  0  0  0  0
  -15.0080  -36.6011  -10.7612 C   0  0  2  0  0  0  0  0  0  0  0  0
  -15.7310  -36.8438  -12.0486 C   0  0  0  0  0  0  0  0  0  0  0  0
  -13.7489  -35.8447  -10.8653 C   0  0  0  0  0  0  0  0  0  0  0  0
  -13.0093  -35.9079  -12.1543 C   0  0  0  0  0  0  0  0  0  0  0  0
  -12.6810  -37.2727  -12.6553 C   0  0  0  0  0  0  0  0  0  0  0  0
  -11.2732  -37.6627  -12.2297 C   0  0  0  0  0  0  0  0  0  0  0  0
  -10.6901  -38.5727  -13.2892 C   0  0  0  0  0  0  0  0  0  0  0  0
  -10.4739  -39.9900  -12.7841 C   0  0  0  0  0  0  0  0  0  0  0  0
  -11.6768  -40.8313  -13.2028 C   0  0  0  0  0  0  0  0  0  0  0  0
  -11.9912  -41.8245  -12.2049 N   0  0  0  0  0  0  0  0  0  0  0  0
  -11.2012  -43.0858  -12.4520 C   0  0  0  0  0  0  0  0  0  0  0  0
  -12.9320  -41.7608  -11.1155 C   0  0  0  0  0  0  0  0  0  0  0  0
  -13.1511  -40.8499  -10.1185 C   0  0  0  0  0  0  0  0  0  0  0  0
  -14.1659  -41.0966   -9.2212 C   0  0  0  0  0  0  0  0  0  0  0  0
  -14.9213  -42.2830   -9.3834 C   0  0  0  0  0  0  0  0  0  0  0  0
  -14.7060  -43.2049  -10.3830 C   0  0  0  0  0  0  0  0  0  0  0  0
  -13.7277  -42.8996  -11.1951 N   0  0  0  0  0  0  0  0  0  0  0  0
  -14.6689  -40.3465   -8.0688 C   0  0  0  0  0  0  0  0  0  0  0  0
  -15.0004  -41.0201   -6.9782 O   0  0  0  0  0  0  0  0  0  0  0  0
  -14.8985  -38.9717   -7.8452 N   0  0  0  0  0  0  0  0  0  0  0  0
  -20.7343  -40.4220   -6.2670 C   0  0  0  0  0  0  0  0  0  0  0  0
  1  2  1  0
  2  3  1  0
  2  4  1  0
  4  5  2  0
  5  6  1  0
  6  7  2  0
  7  8  1  0
  8  9  1  0
  9 10  1  0
 10 11  1  0
 11 12  1  0
 12 13  1  6
 12 14  1  0
 14 15  1  6
 15 16  1  0
 16 17  1  6
 16 18  1  0
 18 19  1  0
 19 20  1  0
 20 21  1  0
 21 22  1  0
 22 23  1  0
 23 24  1  0
 24 25  1  0
 25 26  1  0
 25 27  1  0
 27 28  2  0
 28 29  1  0
 29 30  2  0
 30 31  1  0
 31 32  2  0
 29 33  1  0
 33 34  2  0
 33 35  1  0
  8 36  2  0
 32 27  1  0
 35 14  1  0
 36  4  1  0
M  END
$$$$
