
     RDKit          3D

 36 38  0  0  0  0  0  0  0  0999 V2000
  -22.9473  -36.2605   -7.1246 C   0  0  0  0  0  0  0  0  0  0  0  0
  -21.9079  -36.0429   -8.2314 C   0  0  0  0  0  0  0  0  0  0  0  0
  -20.8633  -35.0480   -7.7770 C   0  0  0  0  0  0  0  0  0  0  0  0
  -21.3031  -37.3371   -8.6197 C   0  0  0  0  0  0  0  0  0  0  0  0
  -21.6203  -37.9109   -9.8309 C   0  0  0  0  0  0  0  0  0  0  0  0
  -21.0471  -39.1297  -10.1860 C   0  0  0  0  0  0  0  0  0  0  0  0
  -20.1661  -39.7505   -9.3194 C   0  0  0  0  0  0  0  0  0  0  0  0
  -19.8380  -39.1903   -8.1043 C   0  0  0  0  0  0  0  0  0  0  0  0
  -18.8918  -39.8726   -7.1852 C   0  0  0  0  0  0  0  0  0  0  0  0
  -17.8848  -38.9791   -6.6786 N   0  0  0  0  0  0  0  0  0  0  0  0
  -17.1745  -38.3238   -7.7592 C   0  0  0  0  0  0  0  0  0  0  0  0
  -16.6451  -39.3632   -8.7570 C   0  0  1  0  0  0  0  0  0  0  0  0
  -16.4562  -38.6462   -9.9485 O   0  0  0  0  0  0  0  0  0  0  0  0
  -15.2915  -39.8563   -8.2675 C   0  0  2  0  0  0  0  0  0  0  0  0
  -14.5202  -40.5674   -9.3647 C   0  0  0  0  0  0  0  0  0  0  0  0
  -13.8437  -39.6189  -10.3263 C   0  0  2  0  0  0  0  0  0  0  0  0
  -14.4743  -39.7323  -11.6785 C   0  0  0  0  0  0  0  0  0  0  0  0
  -12.3846  -39.8116  -10.2808 C   0  0  0  0  0  0  0  0  0  0  0  0
  -11.7645  -40.6483  -11.3429 C   0  0  0  0  0  0  0  0  0  0  0  0
  -12.3286  -42.0176  -11.5114 C   0  0  0  0  0  0  0  0  0  0  0  0
  -11.5039  -43.0248  -10.7235 C   0  0  0  0  0  0  0  0  0  0  0  0
  -11.5494  -44.3510  -11.4513 C   0  0  0  0  0  0  0  0  0  0  0  0
  -12.2989  -45.4181  -10.6699 C   0  0  0  0  0  0  0  0  0  0  0  0
  -13.7333  -45.4666  -11.1897 C   0  0  0  0  0  0  0  0  0  0  0  0
  -14.6630  -45.7636  -10.1274 N   0  0  0  0  0  0  0  0  0  0  0  0
  -14.8196  -47.2557   -9.9684 C   0  0  0  0  0  0  0  0  0  0  0  0
  -15.4263  -44.8631   -9.3014 C   0  0  0  0  0  0  0  0  0  0  0  0
  -15.0929  -43.7672   -8.5533 C   0  0  0  0  0  0  0  0  0  0  0  0
  -16.0952  -43.1123   -7.8734 C   0  0  0  0  0  0  0  0  0  0  0  0
  -17.4134  -43.6159   -7.9875 C   0  0  0  0  0  0  0  0  0  0  0  0
  -17.7565  -44.7186   -8.7371 C   0  0  0  0  0  0  0  0  0  0  0  0
  -16.7516  -45.2841   -9.3535 N   0  0  0  0  0  0  0  0  0  0  0  0
  -16.0932  -41.9293   -7.0107 C   0  0  0  0  0  0  0  0  0  0  0  0
  -16.8427  -41.9476   -5.9194 O   0  0  0  0  0  0  0  0  0  0  0  0
  -15.4280  -40.6866   -7.0884 N   0  0  0  0  0  0  0  0  0  0  0  0
  -20.4222  -37.9799   -7.7782 C   0  0  0  0  0  0  0  0  0  0  0  0
  1  2  1  0
  2  3  1  0
  2  4  1  0
  4  5  2  0
  5  6  1  0
  6  7  2  0
  7  8  1  0
  8  9  1  0
  9 10  1  0
 10 11  1  0
 11 12  1  0
 12 13  1  6
 12 14  1  0
 14 15  1  6
 15 16  1  0
 16 17  1  6
 16 18  1  0
 18 19  1  0
 19 20  1  0
 20 21  1  0
 21 22  1  0
 22 23  1  0
 23 24  1  0
 24 25  1  0
 25 26  1  0
 25 27  1  0
 27 28  2  0
 28 29  1  0
 29 30  2  0
 30 31  1  0
 31 32  2  0
 29 33  1  0
 33 34  2  0
 33 35  1  0
  8 36  2  0
 32 27  1  0
 35 14  1  0
 36  4  1  0
M  END
$$$$
