
     RDKit          3D

 36 38  0  0  0  0  0  0  0  0999 V2000
  -24.9394  -39.6629   -4.6833 C   0  0  0  0  0  0  0  0  0  0  0  0
  -24.0987  -38.7739   -5.6083 C   0  0  0  0  0  0  0  0  0  0  0  0
  -23.8216  -37.4444   -4.9428 C   0  0  0  0  0  0  0  0  0  0  0  0
  -22.8487  -39.4726   -5.9835 C   0  0  0  0  0  0  0  0  0  0  0  0
  -22.2649  -40.3603   -5.1070 C   0  0  0  0  0  0  0  0  0  0  0  0
  -21.0879  -41.0112   -5.4689 C   0  0  0  0  0  0  0  0  0  0  0  0
  -20.5179  -40.7595   -6.7037 C   0  0  0  0  0  0  0  0  0  0  0  0
  -21.0888  -39.8747   -7.5921 C   0  0  0  0  0  0  0  0  0  0  0  0
  -20.4612  -39.6150   -8.9128 C   0  0  0  0  0  0  0  0  0  0  0  0
  -19.1948  -40.2821   -9.0547 N   0  0  0  0  0  0  0  0  0  0  0  0
  -18.2375  -39.8017   -8.0778 C   0  0  0  0  0  0  0  0  0  0  0  0
  -17.0720  -39.0898   -8.7786 C   0  0  1  0  0  0  0  0  0  0  0  0
  -17.3383  -37.7225   -8.6084 O   0  0  0  0  0  0  0  0  0  0  0  0
  -15.7855  -39.4292   -8.0407 C   0  0  2  0  0  0  0  0  0  0  0  0
  -14.5768  -39.3667   -8.9570 C   0  0  0  0  0  0  0  0  0  0  0  0
  -14.0852  -37.9586   -9.1972 C   0  0  2  0  0  0  0  0  0  0  0  0
  -14.2991  -37.5843  -10.6301 C   0  0  0  0  0  0  0  0  0  0  0  0
  -12.7087  -37.8134   -8.6948 C   0  0  0  0  0  0  0  0  0  0  0  0
  -11.5993  -37.9093   -9.6811 C   0  0  0  0  0  0  0  0  0  0  0  0
  -11.5745  -39.1397  -10.5219 C   0  0  0  0  0  0  0  0  0  0  0  0
  -10.6490  -40.1778   -9.9045 C   0  0  0  0  0  0  0  0  0  0  0  0
  -10.0414  -40.9987  -11.0214 C   0  0  0  0  0  0  0  0  0  0  0  0
  -10.5141  -42.4434  -11.0052 C   0  0  0  0  0  0  0  0  0  0  0  0
  -11.6708  -42.5748  -11.9926 C   0  0  0  0  0  0  0  0  0  0  0  0
  -12.6500  -43.5255  -11.5250 N   0  0  0  0  0  0  0  0  0  0  0  0
  -12.2890  -44.9180  -11.9796 C   0  0  0  0  0  0  0  0  0  0  0  0
  -13.8568  -43.2997  -10.7710 C   0  0  0  0  0  0  0  0  0  0  0  0
  -14.1259  -42.6209   -9.6141 C   0  0  0  0  0  0  0  0  0  0  0  0
  -15.4258  -42.5945   -9.1607 C   0  0  0  0  0  0  0  0  0  0  0  0
  -16.4074  -43.2760   -9.9200 C   0  0  0  0  0  0  0  0  0  0  0  0
  -16.1442  -43.9622  -11.0842 C   0  0  0  0  0  0  0  0  0  0  0  0
  -14.8891  -43.9399  -11.4499 N   0  0  0  0  0  0  0  0  0  0  0  0
  -16.0522  -41.9682   -7.9950 C   0  0  0  0  0  0  0  0  0  0  0  0
  -16.9762  -42.6511   -7.3370 O   0  0  0  0  0  0  0  0  0  0  0  0
  -15.8828  -40.7117   -7.3743 N   0  0  0  0  0  0  0  0  0  0  0  0
  -22.2569  -39.2431   -7.2060 C   0  0  0  0  0  0  0  0  0  0  0  0
  1  2  1  0
  2  3  1  0
  2  4  1  0
  4  5  2  0
  5  6  1  0
  6  7  2  0
  7  8  1  0
  8  9  1  0
  9 10  1  0
 10 11  1  0
 11 12  1  0
 12 13  1  1
 12 14  1  0
 14 15  1  6
 15 16  1  0
 16 17  1  6
 16 18  1  0
 18 19  1  0
 19 20  1  0
 20 21  1  0
 21 22  1  0
 22 23  1  0
 23 24  1  0
 24 25  1  0
 25 26  1  0
 25 27  1  0
 27 28  2  0
 28 29  1  0
 29 30  2  0
 30 31  1  0
 31 32  2  0
 29 33  1  0
 33 34  2  0
 33 35  1  0
  8 36  2  0
 32 27  1  0
 35 14  1  0
 36  4  1  0
M  END
$$$$
