
     RDKit          3D

 36 38  0  0  0  0  0  0  0  0999 V2000
  -14.1432  -35.1736  -12.8772 C   0  0  0  0  0  0  0  0  0  0  0  0
  -12.7819  -35.8450  -12.6563 C   0  0  0  0  0  0  0  0  0  0  0  0
  -12.1536  -35.3404  -11.3765 C   0  0  0  0  0  0  0  0  0  0  0  0
  -12.9384  -37.3170  -12.6494 C   0  0  0  0  0  0  0  0  0  0  0  0
  -12.7744  -38.0336  -13.8142 C   0  0  0  0  0  0  0  0  0  0  0  0
  -12.9255  -39.4181  -13.7973 C   0  0  0  0  0  0  0  0  0  0  0  0
  -13.2384  -40.0585  -12.6121 C   0  0  0  0  0  0  0  0  0  0  0  0
  -13.4058  -39.3570  -11.4383 C   0  0  0  0  0  0  0  0  0  0  0  0
  -13.7442  -40.0613  -10.1754 C   0  0  0  0  0  0  0  0  0  0  0  0
  -15.1562  -40.3048  -10.0490 N   0  0  0  0  0  0  0  0  0  0  0  0
  -15.8855  -39.0675   -9.8522 C   0  0  0  0  0  0  0  0  0  0  0  0
  -16.8596  -39.2042   -8.6739 C   0  0  1  0  0  0  0  0  0  0  0  0
  -16.7730  -37.9772   -7.9984 O   0  0  0  0  0  0  0  0  0  0  0  0
  -18.2687  -39.3550   -9.2277 C   0  0  2  0  0  0  0  0  0  0  0  0
  -19.2808  -39.6221   -8.1282 C   0  0  0  0  0  0  0  0  0  0  0  0
  -19.6914  -38.3742   -7.3823 C   0  0  2  0  0  0  0  0  0  0  0  0
  -19.2033  -38.4443   -5.9696 C   0  0  0  0  0  0  0  0  0  0  0  0
  -21.1351  -38.1387   -7.5513 C   0  0  0  0  0  0  0  0  0  0  0  0
  -22.0395  -38.5740   -6.4535 C   0  0  0  0  0  0  0  0  0  0  0  0
  -21.9281  -40.0015   -6.0397 C   0  0  0  0  0  0  0  0  0  0  0  0
  -22.9732  -40.8394   -6.7616 C   0  0  0  0  0  0  0  0  0  0  0  0
  -23.3740  -41.9843   -5.8565 C   0  0  0  0  0  0  0  0  0  0  0  0
  -22.9403  -43.3358   -6.4009 C   0  0  0  0  0  0  0  0  0  0  0  0
  -21.6205  -43.7142   -5.7340 C   0  0  0  0  0  0  0  0  0  0  0  0
  -20.7656  -44.4380   -6.6431 N   0  0  0  0  0  0  0  0  0  0  0  0
  -21.0604  -45.9161   -6.5770 C   0  0  0  0  0  0  0  0  0  0  0  0
  -19.7191  -43.9458   -7.5024 C   0  0  0  0  0  0  0  0  0  0  0  0
  -19.6609  -42.9376   -8.4254 C   0  0  0  0  0  0  0  0  0  0  0  0
  -18.4699  -42.7227   -9.0822 C   0  0  0  0  0  0  0  0  0  0  0  0
  -17.3755  -43.5625   -8.7638 C   0  0  0  0  0  0  0  0  0  0  0  0
  -17.4267  -44.5797   -7.8374 C   0  0  0  0  0  0  0  0  0  0  0  0
  -18.5893  -44.7199   -7.2558 N   0  0  0  0  0  0  0  0  0  0  0  0
  -18.0635  -41.7474  -10.0958 C   0  0  0  0  0  0  0  0  0  0  0  0
  -17.2938  -42.1607  -11.0907 O   0  0  0  0  0  0  0  0  0  0  0  0
  -18.3234  -40.3697  -10.2600 N   0  0  0  0  0  0  0  0  0  0  0  0
  -13.2498  -37.9836  -11.4849 C   0  0  0  0  0  0  0  0  0  0  0  0
  1  2  1  0
  2  3  1  0
  2  4  1  0
  4  5  2  0
  5  6  1  0
  6  7  2  0
  7  8  1  0
  8  9  1  0
  9 10  1  0
 10 11  1  0
 11 12  1  0
 12 13  1  1
 12 14  1  0
 14 15  1  1
 15 16  1  0
 16 17  1  1
 16 18  1  0
 18 19  1  0
 19 20  1  0
 20 21  1  0
 21 22  1  0
 22 23  1  0
 23 24  1  0
 24 25  1  0
 25 26  1  0
 25 27  1  0
 27 28  2  0
 28 29  1  0
 29 30  2  0
 30 31  1  0
 31 32  2  0
 29 33  1  0
 33 34  2  0
 33 35  1  0
  8 36  2  0
 32 27  1  0
 35 14  1  0
 36  4  1  0
M  END
$$$$
