
     RDKit          3D

 36 38  0  0  0  0  0  0  0  0999 V2000
  -14.9546  -34.7896  -11.1817 C   0  0  0  0  0  0  0  0  0  0  0  0
  -13.5907  -35.3721  -11.5732 C   0  0  0  0  0  0  0  0  0  0  0  0
  -12.5095  -34.8185  -10.6720 C   0  0  0  0  0  0  0  0  0  0  0  0
  -13.6400  -36.8509  -11.5290 C   0  0  0  0  0  0  0  0  0  0  0  0
  -13.9284  -37.5659  -12.6704 C   0  0  0  0  0  0  0  0  0  0  0  0
  -13.9741  -38.9570  -12.6177 C   0  0  0  0  0  0  0  0  0  0  0  0
  -13.7297  -39.6054  -11.4208 C   0  0  0  0  0  0  0  0  0  0  0  0
  -13.4398  -38.9056  -10.2701 C   0  0  0  0  0  0  0  0  0  0  0  0
  -13.1825  -39.6188   -8.9931 C   0  0  0  0  0  0  0  0  0  0  0  0
  -14.2522  -39.4453   -8.0472 N   0  0  0  0  0  0  0  0  0  0  0  0
  -15.3181  -40.3995   -8.2811 C   0  0  0  0  0  0  0  0  0  0  0  0
  -16.6638  -39.8181   -7.8259 C   0  0  1  0  0  0  0  0  0  0  0  0
  -16.4652  -38.4289   -7.8183 O   0  0  0  0  0  0  0  0  0  0  0  0
  -17.7136  -40.1525   -8.8752 C   0  0  2  0  0  0  0  0  0  0  0  0
  -19.1182  -39.8542   -8.3824 C   0  0  0  0  0  0  0  0  0  0  0  0
  -19.4791  -38.3897   -8.4663 C   0  0  2  0  0  0  0  0  0  0  0  0
  -19.6441  -37.8285   -7.0891 C   0  0  0  0  0  0  0  0  0  0  0  0
  -20.6222  -38.2042   -9.3758 C   0  0  0  0  0  0  0  0  0  0  0  0
  -21.9723  -38.0603   -8.7684 C   0  0  0  0  0  0  0  0  0  0  0  0
  -22.3922  -39.1474   -7.8392 C   0  0  0  0  0  0  0  0  0  0  0  0
  -23.2211  -40.1831   -8.5847 C   0  0  0  0  0  0  0  0  0  0  0  0
  -24.2230  -40.7768   -7.6181 C   0  0  0  0  0  0  0  0  0  0  0  0
  -23.9494  -42.2429   -7.3239 C   0  0  0  0  0  0  0  0  0  0  0  0
  -23.1536  -42.3250   -6.0239 C   0  0  0  0  0  0  0  0  0  0  0  0
  -22.2072  -43.4132   -6.0598 N   0  0  0  0  0  0  0  0  0  0  0  0
  -22.8545  -44.6884   -5.5792 C   0  0  0  0  0  0  0  0  0  0  0  0
  -20.8155  -43.4033   -6.4328 C   0  0  0  0  0  0  0  0  0  0  0  0
  -20.1410  -42.9269   -7.5235 C   0  0  0  0  0  0  0  0  0  0  0  0
  -18.7728  -43.0771   -7.5610 C   0  0  0  0  0  0  0  0  0  0  0  0
  -18.1455  -43.7201   -6.4666 C   0  0  0  0  0  0  0  0  0  0  0  0
  -18.8175  -44.2032   -5.3664 C   0  0  0  0  0  0  0  0  0  0  0  0
  -20.1118  -44.0216   -5.4038 N   0  0  0  0  0  0  0  0  0  0  0  0
  -17.7630  -42.6839   -8.5456 C   0  0  0  0  0  0  0  0  0  0  0  0
  -16.7806  -43.5316   -8.8092 O   0  0  0  0  0  0  0  0  0  0  0  0
  -17.5879  -41.5225   -9.3286 N   0  0  0  0  0  0  0  0  0  0  0  0
  -13.4012  -37.5256  -10.3520 C   0  0  0  0  0  0  0  0  0  0  0  0
  1  2  1  0
  2  3  1  0
  2  4  1  0
  4  5  2  0
  5  6  1  0
  6  7  2  0
  7  8  1  0
  8  9  1  0
  9 10  1  0
 10 11  1  0
 11 12  1  0
 12 13  1  6
 12 14  1  0
 14 15  1  1
 15 16  1  0
 16 17  1  1
 16 18  1  0
 18 19  1  0
 19 20  1  0
 20 21  1  0
 21 22  1  0
 22 23  1  0
 23 24  1  0
 24 25  1  0
 25 26  1  0
 25 27  1  0
 27 28  2  0
 28 29  1  0
 29 30  2  0
 30 31  1  0
 31 32  2  0
 29 33  1  0
 33 34  2  0
 33 35  1  0
  8 36  2  0
 32 27  1  0
 35 14  1  0
 36  4  1  0
M  END
$$$$
