
     RDKit          3D

 36 38  0  0  0  0  0  0  0  0999 V2000
  -13.2274  -33.5282  -11.2937 C   0  0  0  0  0  0  0  0  0  0  0  0
  -12.9214  -34.7568  -12.1596 C   0  0  0  0  0  0  0  0  0  0  0  0
  -11.5074  -34.6808  -12.6908 C   0  0  0  0  0  0  0  0  0  0  0  0
  -13.1509  -35.9949  -11.3811 C   0  0  0  0  0  0  0  0  0  0  0  0
  -12.2991  -37.0677  -11.5245 C   0  0  0  0  0  0  0  0  0  0  0  0
  -12.5249  -38.2286  -10.7887 C   0  0  0  0  0  0  0  0  0  0  0  0
  -13.6011  -38.2920   -9.9225 C   0  0  0  0  0  0  0  0  0  0  0  0
  -14.4626  -37.2282   -9.7671 C   0  0  0  0  0  0  0  0  0  0  0  0
  -15.6147  -37.3151   -8.8340 C   0  0  0  0  0  0  0  0  0  0  0  0
  -15.6803  -38.5877   -8.1668 N   0  0  0  0  0  0  0  0  0  0  0  0
  -15.9808  -39.6543   -9.1016 C   0  0  0  0  0  0  0  0  0  0  0  0
  -17.4984  -39.7876   -9.2888 C   0  0  1  0  0  0  0  0  0  0  0  0
  -17.7084  -39.5559  -10.6569 O   0  0  0  0  0  0  0  0  0  0  0  0
  -17.8996  -41.2206   -8.9721 C   0  0  2  0  0  0  0  0  0  0  0  0
  -19.3996  -41.4244   -9.0865 C   0  0  0  0  0  0  0  0  0  0  0  0
  -19.8696  -41.5921  -10.5124 C   0  0  2  0  0  0  0  0  0  0  0  0
  -20.7169  -40.4238  -10.9077 C   0  0  0  0  0  0  0  0  0  0  0  0
  -20.4845  -42.9186  -10.6871 C   0  0  0  0  0  0  0  0  0  0  0  0
  -21.9688  -43.0038  -10.6416 C   0  0  0  0  0  0  0  0  0  0  0  0
  -22.6211  -42.4339   -9.4286 C   0  0  0  0  0  0  0  0  0  0  0  0
  -22.8753  -43.5314   -8.4058 C   0  0  0  0  0  0  0  0  0  0  0  0
  -24.1211  -43.1746   -7.6240 C   0  0  0  0  0  0  0  0  0  0  0  0
  -23.8238  -42.8619   -6.1664 C   0  0  0  0  0  0  0  0  0  0  0  0
  -23.7063  -41.3470   -6.0209 C   0  0  0  0  0  0  0  0  0  0  0  0
  -22.7153  -40.9932   -5.0340 N   0  0  0  0  0  0  0  0  0  0  0  0
  -23.3385  -40.9352   -3.6613 C   0  0  0  0  0  0  0  0  0  0  0  0
  -21.3216  -40.6738   -5.2109 C   0  0  0  0  0  0  0  0  0  0  0  0
  -20.2919  -41.2988   -5.8595 C   0  0  0  0  0  0  0  0  0  0  0  0
  -19.0511  -40.7021   -5.8403 C   0  0  0  0  0  0  0  0  0  0  0  0
  -18.9151  -39.4759   -5.1458 C   0  0  0  0  0  0  0  0  0  0  0  0
  -19.9460  -38.8417   -4.4897 C   0  0  0  0  0  0  0  0  0  0  0  0
  -21.0916  -39.4685   -4.5546 N   0  0  0  0  0  0  0  0  0  0  0  0
  -17.7640  -41.0814   -6.4262 C   0  0  0  0  0  0  0  0  0  0  0  0
  -16.6687  -40.8998   -5.7048 O   0  0  0  0  0  0  0  0  0  0  0  0
  -17.4036  -41.6324   -7.6749 N   0  0  0  0  0  0  0  0  0  0  0  0
  -14.2140  -36.0886  -10.5103 C   0  0  0  0  0  0  0  0  0  0  0  0
  1  2  1  0
  2  3  1  0
  2  4  1  0
  4  5  2  0
  5  6  1  0
  6  7  2  0
  7  8  1  0
  8  9  1  0
  9 10  1  0
 10 11  1  0
 11 12  1  0
 12 13  1  6
 12 14  1  0
 14 15  1  1
 15 16  1  0
 16 17  1  1
 16 18  1  0
 18 19  1  0
 19 20  1  0
 20 21  1  0
 21 22  1  0
 22 23  1  0
 23 24  1  0
 24 25  1  0
 25 26  1  0
 25 27  1  0
 27 28  2  0
 28 29  1  0
 29 30  2  0
 30 31  1  0
 31 32  2  0
 29 33  1  0
 33 34  2  0
 33 35  1  0
  8 36  2  0
 32 27  1  0
 35 14  1  0
 36  4  1  0
M  END
$$$$
