
     RDKit          3D

 36 38  0  0  0  0  0  0  0  0999 V2000
  -13.4517  -34.3675  -11.8792 C   0  0  0  0  0  0  0  0  0  0  0  0
  -12.3996  -35.3600  -12.3898 C   0  0  0  0  0  0  0  0  0  0  0  0
  -11.0957  -35.1642  -11.6490 C   0  0  0  0  0  0  0  0  0  0  0  0
  -12.9045  -36.7454  -12.2584 C   0  0  0  0  0  0  0  0  0  0  0  0
  -13.4772  -37.3764  -13.3406 C   0  0  0  0  0  0  0  0  0  0  0  0
  -13.9507  -38.6794  -13.2059 C   0  0  0  0  0  0  0  0  0  0  0  0
  -13.8410  -39.3255  -11.9881 C   0  0  0  0  0  0  0  0  0  0  0  0
  -13.2709  -38.7090  -10.8959 C   0  0  0  0  0  0  0  0  0  0  0  0
  -13.1638  -39.4176   -9.5951 C   0  0  0  0  0  0  0  0  0  0  0  0
  -14.3861  -40.0858   -9.2367 N   0  0  0  0  0  0  0  0  0  0  0  0
  -15.3510  -39.1537   -8.6875 C   0  0  0  0  0  0  0  0  0  0  0  0
  -16.5039  -39.9130   -8.0164 C   0  0  1  0  0  0  0  0  0  0  0  0
  -16.8302  -39.1398   -6.8916 O   0  0  0  0  0  0  0  0  0  0  0  0
  -17.6944  -39.9181   -8.9638 C   0  0  2  0  0  0  0  0  0  0  0  0
  -19.0077  -39.7573   -8.2195 C   0  0  0  0  0  0  0  0  0  0  0  0
  -19.3012  -38.3263   -7.8343 C   0  0  2  0  0  0  0  0  0  0  0  0
  -19.2607  -38.1835   -6.3454 C   0  0  0  0  0  0  0  0  0  0  0  0
  -20.5399  -37.8728   -8.4888 C   0  0  0  0  0  0  0  0  0  0  0  0
  -21.7926  -37.8933   -7.6870 C   0  0  0  0  0  0  0  0  0  0  0  0
  -22.1456  -39.1967   -7.0561 C   0  0  0  0  0  0  0  0  0  0  0  0
  -23.1143  -39.9636   -7.9442 C   0  0  0  0  0  0  0  0  0  0  0  0
  -24.0140  -40.7981   -7.0583 C   0  0  0  0  0  0  0  0  0  0  0  0
  -23.7803  -42.2901   -7.2324 C   0  0  0  0  0  0  0  0  0  0  0  0
  -22.8306  -42.7529   -6.1305 C   0  0  0  0  0  0  0  0  0  0  0  0
  -21.9532  -43.7962   -6.6026 N   0  0  0  0  0  0  0  0  0  0  0  0
  -22.5982  -45.1477   -6.4197 C   0  0  0  0  0  0  0  0  0  0  0  0
  -20.6217  -43.6963   -7.1439 C   0  0  0  0  0  0  0  0  0  0  0  0
  -20.0681  -42.9343   -8.1362 C   0  0  0  0  0  0  0  0  0  0  0  0
  -18.7253  -43.0842   -8.4013 C   0  0  0  0  0  0  0  0  0  0  0  0
  -17.9974  -44.0227   -7.6307 C   0  0  0  0  0  0  0  0  0  0  0  0
  -18.5475  -44.7939   -6.6317 C   0  0  0  0  0  0  0  0  0  0  0  0
  -19.8251  -44.5933   -6.4388 N   0  0  0  0  0  0  0  0  0  0  0  0
  -17.8304  -42.4365   -9.3622 C   0  0  0  0  0  0  0  0  0  0  0  0
  -16.9341  -43.1843   -9.9871 O   0  0  0  0  0  0  0  0  0  0  0  0
  -17.6975  -41.1010   -9.7999 N   0  0  0  0  0  0  0  0  0  0  0  0
  -12.8096  -37.4155  -11.0587 C   0  0  0  0  0  0  0  0  0  0  0  0
  1  2  1  0
  2  3  1  0
  2  4  1  0
  4  5  2  0
  5  6  1  0
  6  7  2  0
  7  8  1  0
  8  9  1  0
  9 10  1  0
 10 11  1  0
 11 12  1  0
 12 13  1  1
 12 14  1  0
 14 15  1  1
 15 16  1  0
 16 17  1  1
 16 18  1  0
 18 19  1  0
 19 20  1  0
 20 21  1  0
 21 22  1  0
 22 23  1  0
 23 24  1  0
 24 25  1  0
 25 26  1  0
 25 27  1  0
 27 28  2  0
 28 29  1  0
 29 30  2  0
 30 31  1  0
 31 32  2  0
 29 33  1  0
 33 34  2  0
 33 35  1  0
  8 36  2  0
 32 27  1  0
 35 14  1  0
 36  4  1  0
M  END
$$$$
