
     RDKit          3D

 36 38  0  0  0  0  0  0  0  0999 V2000
  -13.2531  -34.1735  -11.8515 C   0  0  0  0  0  0  0  0  0  0  0  0
  -12.3639  -35.4020  -12.0814 C   0  0  0  0  0  0  0  0  0  0  0  0
  -11.3176  -35.4989  -10.9935 C   0  0  0  0  0  0  0  0  0  0  0  0
  -13.1967  -36.6236  -12.1542 C   0  0  0  0  0  0  0  0  0  0  0  0
  -14.1884  -36.7267  -13.1045 C   0  0  0  0  0  0  0  0  0  0  0  0
  -14.9676  -37.8798  -13.1634 C   0  0  0  0  0  0  0  0  0  0  0  0
  -14.7377  -38.9082  -12.2679 C   0  0  0  0  0  0  0  0  0  0  0  0
  -13.7501  -38.8213  -11.3113 C   0  0  0  0  0  0  0  0  0  0  0  0
  -13.5192  -39.9349  -10.3561 C   0  0  0  0  0  0  0  0  0  0  0  0
  -14.7493  -40.4815   -9.8492 N   0  0  0  0  0  0  0  0  0  0  0  0
  -15.4055  -39.5510   -8.9520 C   0  0  0  0  0  0  0  0  0  0  0  0
  -16.4852  -40.2715   -8.1327 C   0  0  1  0  0  0  0  0  0  0  0  0
  -16.5528  -39.5551   -6.9279 O   0  0  0  0  0  0  0  0  0  0  0  0
  -17.8156  -40.1293   -8.8571 C   0  0  2  0  0  0  0  0  0  0  0  0
  -18.9746  -39.9943   -7.8859 C   0  0  0  0  0  0  0  0  0  0  0  0
  -19.1166  -38.6008   -7.3201 C   0  0  2  0  0  0  0  0  0  0  0  0
  -18.8196  -38.6162   -5.8536 C   0  0  0  0  0  0  0  0  0  0  0  0
  -20.4190  -38.0315   -7.7049 C   0  0  0  0  0  0  0  0  0  0  0  0
  -21.5192  -38.0852   -6.7052 C   0  0  0  0  0  0  0  0  0  0  0  0
  -21.8363  -39.4321   -6.1513 C   0  0  0  0  0  0  0  0  0  0  0  0
  -22.9824  -40.0620   -6.9290 C   0  0  0  0  0  0  0  0  0  0  0  0
  -23.7680  -40.9476   -5.9860 C   0  0  0  0  0  0  0  0  0  0  0  0
  -23.6530  -42.4214   -6.3404 C   0  0  0  0  0  0  0  0  0  0  0  0
  -22.5608  -43.0349   -5.4682 C   0  0  0  0  0  0  0  0  0  0  0  0
  -21.8363  -44.0577   -6.1824 N   0  0  0  0  0  0  0  0  0  0  0  0
  -22.5185  -45.3937   -6.0221 C   0  0  0  0  0  0  0  0  0  0  0  0
  -20.6105  -43.9557   -6.9326 C   0  0  0  0  0  0  0  0  0  0  0  0
  -20.1875  -43.1171   -7.9274 C   0  0  0  0  0  0  0  0  0  0  0  0
  -18.9188  -43.2925   -8.4328 C   0  0  0  0  0  0  0  0  0  0  0  0
  -18.1277  -44.3352   -7.8929 C   0  0  0  0  0  0  0  0  0  0  0  0
  -18.5466  -45.1838   -6.8930 C   0  0  0  0  0  0  0  0  0  0  0  0
  -19.7603  -44.9531   -6.4648 N   0  0  0  0  0  0  0  0  0  0  0  0
  -18.1613  -42.5847   -9.4666 C   0  0  0  0  0  0  0  0  0  0  0  0
  -17.4266  -43.2986  -10.3054 O   0  0  0  0  0  0  0  0  0  0  0  0
  -18.0266  -41.2171   -9.7900 N   0  0  0  0  0  0  0  0  0  0  0  0
  -12.9921  -37.6651  -11.2762 C   0  0  0  0  0  0  0  0  0  0  0  0
  1  2  1  0
  2  3  1  0
  2  4  1  0
  4  5  2  0
  5  6  1  0
  6  7  2  0
  7  8  1  0
  8  9  1  0
  9 10  1  0
 10 11  1  0
 11 12  1  0
 12 13  1  1
 12 14  1  0
 14 15  1  1
 15 16  1  0
 16 17  1  1
 16 18  1  0
 18 19  1  0
 19 20  1  0
 20 21  1  0
 21 22  1  0
 22 23  1  0
 23 24  1  0
 24 25  1  0
 25 26  1  0
 25 27  1  0
 27 28  2  0
 28 29  1  0
 29 30  2  0
 30 31  1  0
 31 32  2  0
 29 33  1  0
 33 34  2  0
 33 35  1  0
  8 36  2  0
 32 27  1  0
 35 14  1  0
 36  4  1  0
M  END
$$$$
