
     RDKit          3D

 36 38  0  0  0  0  0  0  0  0999 V2000
  -13.6382  -33.6597  -11.2051 C   0  0  0  0  0  0  0  0  0  0  0  0
  -12.4485  -34.5584  -11.5653 C   0  0  0  0  0  0  0  0  0  0  0  0
  -11.5051  -34.6706  -10.3884 C   0  0  0  0  0  0  0  0  0  0  0  0
  -12.9322  -35.8845  -12.0111 C   0  0  0  0  0  0  0  0  0  0  0  0
  -13.3185  -36.0737  -13.3196 C   0  0  0  0  0  0  0  0  0  0  0  0
  -13.7737  -37.3250  -13.7284 C   0  0  0  0  0  0  0  0  0  0  0  0
  -13.8333  -38.3635  -12.8171 C   0  0  0  0  0  0  0  0  0  0  0  0
  -13.4508  -38.1913  -11.5049 C   0  0  0  0  0  0  0  0  0  0  0  0
  -13.5238  -39.3176  -10.5395 C   0  0  0  0  0  0  0  0  0  0  0  0
  -14.8801  -39.6656  -10.2103 N   0  0  0  0  0  0  0  0  0  0  0  0
  -15.3313  -38.9553   -9.0299 C   0  0  0  0  0  0  0  0  0  0  0  0
  -16.4092  -39.7672   -8.2984 C   0  0  1  0  0  0  0  0  0  0  0  0
  -16.5927  -39.0957   -7.0798 O   0  0  0  0  0  0  0  0  0  0  0  0
  -17.7012  -39.6842   -9.0976 C   0  0  2  0  0  0  0  0  0  0  0  0
  -18.9228  -39.6877   -8.1962 C   0  0  0  0  0  0  0  0  0  0  0  0
  -19.2047  -38.3412   -7.5720 C   0  0  2  0  0  0  0  0  0  0  0  0
  -18.9951  -38.4144   -6.0923 C   0  0  0  0  0  0  0  0  0  0  0  0
  -20.5218  -37.8493   -8.0097 C   0  0  0  0  0  0  0  0  0  0  0  0
  -21.6720  -38.0379   -7.0857 C   0  0  0  0  0  0  0  0  0  0  0  0
  -21.9172  -39.4326   -6.6206 C   0  0  0  0  0  0  0  0  0  0  0  0
  -22.9633  -40.1019   -7.4997 C   0  0  0  0  0  0  0  0  0  0  0  0
  -23.7332  -41.0929   -6.6535 C   0  0  0  0  0  0  0  0  0  0  0  0
  -23.4846  -42.5327   -7.0727 C   0  0  0  0  0  0  0  0  0  0  0  0
  -22.4022  -43.1108   -6.1646 C   0  0  0  0  0  0  0  0  0  0  0  0
  -21.5602  -44.0372   -6.8815 N   0  0  0  0  0  0  0  0  0  0  0  0
  -22.1461  -45.4265   -6.8313 C   0  0  0  0  0  0  0  0  0  0  0  0
  -20.3034  -43.8047   -7.5466 C   0  0  0  0  0  0  0  0  0  0  0  0
  -19.8878  -42.8844   -8.4697 C   0  0  0  0  0  0  0  0  0  0  0  0
  -18.5815  -42.9383   -8.9018 C   0  0  0  0  0  0  0  0  0  0  0  0
  -17.7462  -43.9477   -8.3654 C   0  0  0  0  0  0  0  0  0  0  0  0
  -18.1574  -44.8779   -7.4374 C   0  0  0  0  0  0  0  0  0  0  0  0
  -19.4085  -44.7607   -7.0759 N   0  0  0  0  0  0  0  0  0  0  0  0
  -17.8205  -42.1215   -9.8491 C   0  0  0  0  0  0  0  0  0  0  0  0
  -16.9847  -42.7328  -10.6741 O   0  0  0  0  0  0  0  0  0  0  0  0
  -17.7723  -40.7322  -10.0949 N   0  0  0  0  0  0  0  0  0  0  0  0
  -13.0030  -36.9386  -11.1271 C   0  0  0  0  0  0  0  0  0  0  0  0
  1  2  1  0
  2  3  1  0
  2  4  1  0
  4  5  2  0
  5  6  1  0
  6  7  2  0
  7  8  1  0
  8  9  1  0
  9 10  1  0
 10 11  1  0
 11 12  1  0
 12 13  1  1
 12 14  1  0
 14 15  1  1
 15 16  1  0
 16 17  1  1
 16 18  1  0
 18 19  1  0
 19 20  1  0
 20 21  1  0
 21 22  1  0
 22 23  1  0
 23 24  1  0
 24 25  1  0
 25 26  1  0
 25 27  1  0
 27 28  2  0
 28 29  1  0
 29 30  2  0
 30 31  1  0
 31 32  2  0
 29 33  1  0
 33 34  2  0
 33 35  1  0
  8 36  2  0
 32 27  1  0
 35 14  1  0
 36  4  1  0
M  END
$$$$
