
     RDKit          3D

 36 38  0  0  0  0  0  0  0  0999 V2000
  -11.4819  -35.9741   -9.1395 C   0  0  0  0  0  0  0  0  0  0  0  0
  -11.4072  -36.2674  -10.6432 C   0  0  0  0  0  0  0  0  0  0  0  0
  -10.9522  -37.6911  -10.8745 C   0  0  0  0  0  0  0  0  0  0  0  0
  -12.7176  -35.9987  -11.2773 C   0  0  0  0  0  0  0  0  0  0  0  0
  -12.9801  -34.7604  -11.8203 C   0  0  0  0  0  0  0  0  0  0  0  0
  -14.2169  -34.5173  -12.4131 C   0  0  0  0  0  0  0  0  0  0  0  0
  -15.1677  -35.5210  -12.4503 C   0  0  0  0  0  0  0  0  0  0  0  0
  -14.9214  -36.7649  -11.9119 C   0  0  0  0  0  0  0  0  0  0  0  0
  -15.9554  -37.8299  -11.9587 C   0  0  0  0  0  0  0  0  0  0  0  0
  -15.7549  -38.8287  -10.9432 N   0  0  0  0  0  0  0  0  0  0  0  0
  -15.8731  -38.2573   -9.6161 C   0  0  0  0  0  0  0  0  0  0  0  0
  -16.7590  -39.1444   -8.7305 C   0  0  1  0  0  0  0  0  0  0  0  0
  -16.8682  -38.4410   -7.5211 O   0  0  0  0  0  0  0  0  0  0  0  0
  -18.1387  -39.2353   -9.3654 C   0  0  2  0  0  0  0  0  0  0  0  0
  -19.2107  -39.5583   -8.3402 C   0  0  0  0  0  0  0  0  0  0  0  0
  -19.6442  -38.3563   -7.5344 C   0  0  2  0  0  0  0  0  0  0  0  0
  -19.2322  -38.5279   -6.1062 C   0  0  0  0  0  0  0  0  0  0  0  0
  -21.0739  -38.0868   -7.7617 C   0  0  0  0  0  0  0  0  0  0  0  0
  -22.0403  -38.5792   -6.7438 C   0  0  0  0  0  0  0  0  0  0  0  0
  -21.9691  -40.0327   -6.4216 C   0  0  0  0  0  0  0  0  0  0  0  0
  -22.9851  -40.8038   -7.2513 C   0  0  0  0  0  0  0  0  0  0  0  0
  -23.4476  -41.9996   -6.4470 C   0  0  0  0  0  0  0  0  0  0  0  0
  -23.0030  -43.3187   -7.0578 C   0  0  0  0  0  0  0  0  0  0  0  0
  -21.7251  -43.7620   -6.3504 C   0  0  0  0  0  0  0  0  0  0  0  0
  -20.8327  -44.4375   -7.2606 N   0  0  0  0  0  0  0  0  0  0  0  0
  -21.1493  -45.9118   -7.3092 C   0  0  0  0  0  0  0  0  0  0  0  0
  -19.7362  -43.9064   -8.0296 C   0  0  0  0  0  0  0  0  0  0  0  0
  -19.6166  -42.8402   -8.8785 C   0  0  0  0  0  0  0  0  0  0  0  0
  -18.3901  -42.6015   -9.4569 C   0  0  0  0  0  0  0  0  0  0  0  0
  -17.3247  -43.4782   -9.1394 C   0  0  0  0  0  0  0  0  0  0  0  0
  -17.4376  -44.5536   -8.2873 C   0  0  0  0  0  0  0  0  0  0  0  0
  -18.6309  -44.7133   -7.7774 N   0  0  0  0  0  0  0  0  0  0  0  0
  -17.9184  -41.5678  -10.3804 C   0  0  0  0  0  0  0  0  0  0  0  0
  -17.1026  -41.9265  -11.3596 O   0  0  0  0  0  0  0  0  0  0  0  0
  -18.1518  -40.1781  -10.4649 N   0  0  0  0  0  0  0  0  0  0  0  0
  -13.6851  -36.9778  -11.3299 C   0  0  0  0  0  0  0  0  0  0  0  0
  1  2  1  0
  2  3  1  0
  2  4  1  0
  4  5  2  0
  5  6  1  0
  6  7  2  0
  7  8  1  0
  8  9  1  0
  9 10  1  0
 10 11  1  0
 11 12  1  0
 12 13  1  1
 12 14  1  0
 14 15  1  1
 15 16  1  0
 16 17  1  1
 16 18  1  0
 18 19  1  0
 19 20  1  0
 20 21  1  0
 21 22  1  0
 22 23  1  0
 23 24  1  0
 24 25  1  0
 25 26  1  0
 25 27  1  0
 27 28  2  0
 28 29  1  0
 29 30  2  0
 30 31  1  0
 31 32  2  0
 29 33  1  0
 33 34  2  0
 33 35  1  0
  8 36  2  0
 32 27  1  0
 35 14  1  0
 36  4  1  0
M  END
$$$$
