
     RDKit          3D

 36 38  0  0  0  0  0  0  0  0999 V2000
  -10.9441  -34.3842  -11.6601 C   0  0  0  0  0  0  0  0  0  0  0  0
  -12.3923  -34.7778  -11.3428 C   0  0  0  0  0  0  0  0  0  0  0  0
  -13.3422  -33.7068  -11.8308 C   0  0  0  0  0  0  0  0  0  0  0  0
  -12.7000  -36.0983  -11.9368 C   0  0  0  0  0  0  0  0  0  0  0  0
  -12.6386  -36.2719  -13.3018 C   0  0  0  0  0  0  0  0  0  0  0  0
  -12.9316  -37.5181  -13.8507 C   0  0  0  0  0  0  0  0  0  0  0  0
  -13.2810  -38.5673  -13.0202 C   0  0  0  0  0  0  0  0  0  0  0  0
  -13.3471  -38.4108  -11.6530 C   0  0  0  0  0  0  0  0  0  0  0  0
  -13.7265  -39.5483  -10.7768 C   0  0  0  0  0  0  0  0  0  0  0  0
  -15.1482  -39.7647  -10.7503 N   0  0  0  0  0  0  0  0  0  0  0  0
  -15.8317  -38.6741  -10.0831 C   0  0  0  0  0  0  0  0  0  0  0  0
  -16.7273  -39.2138   -8.9595 C   0  0  1  0  0  0  0  0  0  0  0  0
  -16.8132  -38.1593   -8.0375 O   0  0  0  0  0  0  0  0  0  0  0  0
  -18.1136  -39.4736   -9.5301 C   0  0  2  0  0  0  0  0  0  0  0  0
  -19.1660  -39.5556   -8.4391 C   0  0  0  0  0  0  0  0  0  0  0  0
  -19.6096  -38.2012   -7.9382 C   0  0  2  0  0  0  0  0  0  0  0  0
  -19.1756  -38.0187   -6.5179 C   0  0  0  0  0  0  0  0  0  0  0  0
  -21.0467  -38.0140   -8.1990 C   0  0  0  0  0  0  0  0  0  0  0  0
  -21.9907  -38.2606   -7.0762 C   0  0  0  0  0  0  0  0  0  0  0  0
  -21.8897  -39.5929   -6.4156 C   0  0  0  0  0  0  0  0  0  0  0  0
  -22.9030  -40.5548   -7.0182 C   0  0  0  0  0  0  0  0  0  0  0  0
  -23.3337  -41.5285   -5.9425 C   0  0  0  0  0  0  0  0  0  0  0  0
  -22.8743  -42.9495   -6.2261 C   0  0  0  0  0  0  0  0  0  0  0  0
  -21.5794  -43.1919   -5.4551 C   0  0  0  0  0  0  0  0  0  0  0  0
  -20.6876  -44.0541   -6.1916 N   0  0  0  0  0  0  0  0  0  0  0  0
  -20.9789  -45.5010   -5.8793 C   0  0  0  0  0  0  0  0  0  0  0  0
  -19.6109  -43.7083   -7.0844 C   0  0  0  0  0  0  0  0  0  0  0  0
  -19.5214  -42.8759   -8.1665 C   0  0  0  0  0  0  0  0  0  0  0  0
  -18.3071  -42.7663   -8.8062 C   0  0  0  0  0  0  0  0  0  0  0  0
  -17.2224  -43.5261   -8.3059 C   0  0  0  0  0  0  0  0  0  0  0  0
  -17.3049  -44.3667   -7.2186 C   0  0  0  0  0  0  0  0  0  0  0  0
  -18.4884  -44.4156   -6.6649 N   0  0  0  0  0  0  0  0  0  0  0  0
  -17.8660  -41.9785   -9.9589 C   0  0  0  0  0  0  0  0  0  0  0  0
  -17.0572  -42.5508  -10.8372 O   0  0  0  0  0  0  0  0  0  0  0  0
  -18.1249  -40.6533  -10.3707 N   0  0  0  0  0  0  0  0  0  0  0  0
  -13.0510  -37.1627  -11.1360 C   0  0  0  0  0  0  0  0  0  0  0  0
  1  2  1  0
  2  3  1  0
  2  4  1  0
  4  5  2  0
  5  6  1  0
  6  7  2  0
  7  8  1  0
  8  9  1  0
  9 10  1  0
 10 11  1  0
 11 12  1  0
 12 13  1  1
 12 14  1  0
 14 15  1  1
 15 16  1  0
 16 17  1  1
 16 18  1  0
 18 19  1  0
 19 20  1  0
 20 21  1  0
 21 22  1  0
 22 23  1  0
 23 24  1  0
 24 25  1  0
 25 26  1  0
 25 27  1  0
 27 28  2  0
 28 29  1  0
 29 30  2  0
 30 31  1  0
 31 32  2  0
 29 33  1  0
 33 34  2  0
 33 35  1  0
  8 36  2  0
 32 27  1  0
 35 14  1  0
 36  4  1  0
M  END
$$$$
