
     RDKit          3D

 36 38  0  0  0  0  0  0  0  0999 V2000
  -12.3827  -33.9396  -10.9584 C   0  0  0  0  0  0  0  0  0  0  0  0
  -12.2027  -34.8033  -12.2132 C   0  0  0  0  0  0  0  0  0  0  0  0
  -10.7547  -35.2150  -12.3590 C   0  0  0  0  0  0  0  0  0  0  0  0
  -13.1049  -35.9754  -12.1550 C   0  0  0  0  0  0  0  0  0  0  0  0
  -14.0051  -36.2041  -13.1720 C   0  0  0  0  0  0  0  0  0  0  0  0
  -14.8508  -37.3090  -13.1067 C   0  0  0  0  0  0  0  0  0  0  0  0
  -14.7778  -38.1642  -12.0223 C   0  0  0  0  0  0  0  0  0  0  0  0
  -13.8832  -37.9501  -10.9967 C   0  0  0  0  0  0  0  0  0  0  0  0
  -13.8206  -38.8779   -9.8387 C   0  0  0  0  0  0  0  0  0  0  0  0
  -14.9613  -39.7520   -9.7789 N   0  0  0  0  0  0  0  0  0  0  0  0
  -16.1993  -39.0060   -9.8901 C   0  0  0  0  0  0  0  0  0  0  0  0
  -17.0639  -39.2181   -8.6397 C   0  0  1  0  0  0  0  0  0  0  0  0
  -16.9028  -38.0404   -7.8936 O   0  0  0  0  0  0  0  0  0  0  0  0
  -18.5190  -39.3238   -9.0715 C   0  0  2  0  0  0  0  0  0  0  0  0
  -19.4392  -39.5852   -7.8926 C   0  0  0  0  0  0  0  0  0  0  0  0
  -19.7508  -38.3410   -7.0945 C   0  0  2  0  0  0  0  0  0  0  0  0
  -19.1446  -38.4484   -5.7307 C   0  0  0  0  0  0  0  0  0  0  0  0
  -21.1970  -38.0667   -7.1339 C   0  0  0  0  0  0  0  0  0  0  0  0
  -22.0144  -38.4988   -5.9687 C   0  0  0  0  0  0  0  0  0  0  0  0
  -21.9054  -39.9358   -5.5885 C   0  0  0  0  0  0  0  0  0  0  0  0
  -23.0305  -40.7345   -6.2300 C   0  0  0  0  0  0  0  0  0  0  0  0
  -23.3817  -41.8850   -5.3115 C   0  0  0  0  0  0  0  0  0  0  0  0
  -23.0324  -43.2369   -5.9126 C   0  0  0  0  0  0  0  0  0  0  0  0
  -21.6703  -43.6599   -5.3686 C   0  0  0  0  0  0  0  0  0  0  0  0
  -20.9164  -44.3884   -6.3597 N   0  0  0  0  0  0  0  0  0  0  0  0
  -21.2432  -45.8596   -6.2913 C   0  0  0  0  0  0  0  0  0  0  0  0
  -19.9354  -43.9071   -7.2987 C   0  0  0  0  0  0  0  0  0  0  0  0
  -19.9306  -42.8844   -8.2074 C   0  0  0  0  0  0  0  0  0  0  0  0
  -18.7955  -42.6875   -8.9616 C   0  0  0  0  0  0  0  0  0  0  0  0
  -17.7002  -43.5598   -8.7525 C   0  0  0  0  0  0  0  0  0  0  0  0
  -17.6980  -44.5918   -7.8412 C   0  0  0  0  0  0  0  0  0  0  0  0
  -18.8094  -44.7133   -7.1632 N   0  0  0  0  0  0  0  0  0  0  0  0
  -18.4526  -41.7048   -9.9913 C   0  0  0  0  0  0  0  0  0  0  0  0
  -17.7827  -42.1193  -11.0556 O   0  0  0  0  0  0  0  0  0  0  0  0
  -18.6893  -40.3182  -10.1108 N   0  0  0  0  0  0  0  0  0  0  0  0
  -13.0561  -36.8455  -11.0881 C   0  0  0  0  0  0  0  0  0  0  0  0
  1  2  1  0
  2  3  1  0
  2  4  1  0
  4  5  2  0
  5  6  1  0
  6  7  2  0
  7  8  1  0
  8  9  1  0
  9 10  1  0
 10 11  1  0
 11 12  1  0
 12 13  1  1
 12 14  1  0
 14 15  1  1
 15 16  1  0
 16 17  1  1
 16 18  1  0
 18 19  1  0
 19 20  1  0
 20 21  1  0
 21 22  1  0
 22 23  1  0
 23 24  1  0
 24 25  1  0
 25 26  1  0
 25 27  1  0
 27 28  2  0
 28 29  1  0
 29 30  2  0
 30 31  1  0
 31 32  2  0
 29 33  1  0
 33 34  2  0
 33 35  1  0
  8 36  2  0
 32 27  1  0
 35 14  1  0
 36  4  1  0
M  END
$$$$
