
     RDKit          3D

 36 38  0  0  0  0  0  0  0  0999 V2000
  -10.5277  -43.6168  -10.8213 C   0  0  0  0  0  0  0  0  0  0  0  0
  -11.5140  -42.9927   -9.8262 C   0  0  0  0  0  0  0  0  0  0  0  0
  -11.0693  -43.2709   -8.4077 C   0  0  0  0  0  0  0  0  0  0  0  0
  -11.6462  -41.5415  -10.0868 C   0  0  0  0  0  0  0  0  0  0  0  0
  -11.0991  -40.9925  -11.2254 C   0  0  0  0  0  0  0  0  0  0  0  0
  -11.2276  -39.6256  -11.4603 C   0  0  0  0  0  0  0  0  0  0  0  0
  -11.9026  -38.8345  -10.5487 C   0  0  0  0  0  0  0  0  0  0  0  0
  -12.4558  -39.3675   -9.4051 C   0  0  0  0  0  0  0  0  0  0  0  0
  -13.1752  -38.5020   -8.4360 C   0  0  0  0  0  0  0  0  0  0  0  0
  -13.9821  -39.2634   -7.5205 N   0  0  0  0  0  0  0  0  0  0  0  0
  -15.1578  -39.7982   -8.1786 C   0  0  0  0  0  0  0  0  0  0  0  0
  -16.4181  -39.4765   -7.3636 C   0  0  1  0  0  0  0  0  0  0  0  0
  -16.2354  -38.1522   -6.9367 O   0  0  0  0  0  0  0  0  0  0  0  0
  -17.6203  -39.5247   -8.2948 C   0  0  2  0  0  0  0  0  0  0  0  0
  -18.9295  -39.4618   -7.5288 C   0  0  0  0  0  0  0  0  0  0  0  0
  -19.2999  -38.0619   -7.0987 C   0  0  2  0  0  0  0  0  0  0  0  0
  -19.2455  -37.9586   -5.6070 C   0  0  0  0  0  0  0  0  0  0  0  0
  -20.5724  -37.6634   -7.7233 C   0  0  0  0  0  0  0  0  0  0  0  0
  -21.8097  -37.7797   -6.9060 C   0  0  0  0  0  0  0  0  0  0  0  0
  -22.0770  -39.1186   -6.3082 C   0  0  0  0  0  0  0  0  0  0  0  0
  -23.0126  -39.9156   -7.2052 C   0  0  0  0  0  0  0  0  0  0  0  0
  -23.8490  -40.8259   -6.3319 C   0  0  0  0  0  0  0  0  0  0  0  0
  -23.5316  -42.2962   -6.5520 C   0  0  0  0  0  0  0  0  0  0  0  0
  -22.5403  -42.7333   -5.4767 C   0  0  0  0  0  0  0  0  0  0  0  0
  -21.6109  -43.7098   -5.9903 N   0  0  0  0  0  0  0  0  0  0  0  0
  -22.1735  -45.1013   -5.8379 C   0  0  0  0  0  0  0  0  0  0  0  0
  -20.2957  -43.5172   -6.5460 C   0  0  0  0  0  0  0  0  0  0  0  0
  -19.8022  -42.6966   -7.5232 C   0  0  0  0  0  0  0  0  0  0  0  0
  -18.4570  -42.7601   -7.8103 C   0  0  0  0  0  0  0  0  0  0  0  0
  -17.6644  -43.6756   -7.0768 C   0  0  0  0  0  0  0  0  0  0  0  0
  -18.1538  -44.5054   -6.0932 C   0  0  0  0  0  0  0  0  0  0  0  0
  -19.4379  -44.3854   -5.8777 N   0  0  0  0  0  0  0  0  0  0  0  0
  -17.6157  -42.0345   -8.7639 C   0  0  0  0  0  0  0  0  0  0  0  0
  -16.6869  -42.7108   -9.4219 O   0  0  0  0  0  0  0  0  0  0  0  0
  -17.5671  -40.6818   -9.1646 N   0  0  0  0  0  0  0  0  0  0  0  0
  -12.3128  -40.7273   -9.1979 C   0  0  0  0  0  0  0  0  0  0  0  0
  1  2  1  0
  2  3  1  0
  2  4  1  0
  4  5  2  0
  5  6  1  0
  6  7  2  0
  7  8  1  0
  8  9  1  0
  9 10  1  0
 10 11  1  0
 11 12  1  0
 12 13  1  6
 12 14  1  0
 14 15  1  1
 15 16  1  0
 16 17  1  1
 16 18  1  0
 18 19  1  0
 19 20  1  0
 20 21  1  0
 21 22  1  0
 22 23  1  0
 23 24  1  0
 24 25  1  0
 25 26  1  0
 25 27  1  0
 27 28  2  0
 28 29  1  0
 29 30  2  0
 30 31  1  0
 31 32  2  0
 29 33  1  0
 33 34  2  0
 33 35  1  0
  8 36  2  0
 32 27  1  0
 35 14  1  0
 36  4  1  0
M  END
$$$$
