
     RDKit          3D

 36 38  0  0  0  0  0  0  0  0999 V2000
  -12.4343  -44.3315  -10.4774 C   0  0  0  0  0  0  0  0  0  0  0  0
  -12.2986  -43.4826  -11.7477 C   0  0  0  0  0  0  0  0  0  0  0  0
  -13.1628  -44.0527  -12.8502 C   0  0  0  0  0  0  0  0  0  0  0  0
  -12.6409  -42.0727  -11.4536 C   0  0  0  0  0  0  0  0  0  0  0  0
  -12.8958  -41.1954  -12.4843 C   0  0  0  0  0  0  0  0  0  0  0  0
  -13.2153  -39.8705  -12.1969 C   0  0  0  0  0  0  0  0  0  0  0  0
  -13.2732  -39.4499  -10.8807 C   0  0  0  0  0  0  0  0  0  0  0  0
  -13.0211  -40.3144   -9.8380 C   0  0  0  0  0  0  0  0  0  0  0  0
  -13.0855  -39.8445   -8.4306 C   0  0  0  0  0  0  0  0  0  0  0  0
  -14.3050  -40.2413   -7.7792 N   0  0  0  0  0  0  0  0  0  0  0  0
  -15.4581  -39.9653   -8.6132 C   0  0  0  0  0  0  0  0  0  0  0  0
  -16.6987  -39.7192   -7.7435 C   0  0  1  0  0  0  0  0  0  0  0  0
  -16.5332  -38.4155   -7.2511 O   0  0  0  0  0  0  0  0  0  0  0  0
  -17.9288  -39.7473   -8.6386 C   0  0  2  0  0  0  0  0  0  0  0  0
  -19.2110  -39.6010   -7.8392 C   0  0  0  0  0  0  0  0  0  0  0  0
  -19.5088  -38.1722   -7.4495 C   0  0  2  0  0  0  0  0  0  0  0  0
  -19.4063  -38.0197   -5.9645 C   0  0  0  0  0  0  0  0  0  0  0  0
  -20.7811  -37.7407   -8.0523 C   0  0  0  0  0  0  0  0  0  0  0  0
  -21.9976  -37.7746   -7.1971 C   0  0  0  0  0  0  0  0  0  0  0  0
  -22.3039  -39.0791   -6.5445 C   0  0  0  0  0  0  0  0  0  0  0  0
  -23.2985  -39.8653   -7.3858 C   0  0  0  0  0  0  0  0  0  0  0  0
  -24.1467  -40.7075   -6.4574 C   0  0  0  0  0  0  0  0  0  0  0  0
  -23.8987  -42.1969   -6.6332 C   0  0  0  0  0  0  0  0  0  0  0  0
  -22.8957  -42.6392   -5.5709 C   0  0  0  0  0  0  0  0  0  0  0  0
  -22.0241  -43.6724   -6.0748 N   0  0  0  0  0  0  0  0  0  0  0  0
  -22.6406  -45.0320   -5.8569 C   0  0  0  0  0  0  0  0  0  0  0  0
  -20.7188  -43.5565   -6.6736 C   0  0  0  0  0  0  0  0  0  0  0  0
  -20.2198  -42.7926   -7.6930 C   0  0  0  0  0  0  0  0  0  0  0  0
  -18.8876  -42.9245   -8.0150 C   0  0  0  0  0  0  0  0  0  0  0  0
  -18.1134  -43.8477   -7.2714 C   0  0  0  0  0  0  0  0  0  0  0  0
  -18.6085  -44.6207   -6.2454 C   0  0  0  0  0  0  0  0  0  0  0  0
  -19.8794  -44.4376   -5.9987 N   0  0  0  0  0  0  0  0  0  0  0  0
  -18.0446  -42.2698   -9.0171 C   0  0  0  0  0  0  0  0  0  0  0  0
  -17.1651  -43.0082   -9.6760 O   0  0  0  0  0  0  0  0  0  0  0  0
  -17.9504  -40.9351   -9.4673 N   0  0  0  0  0  0  0  0  0  0  0  0
  -12.7065  -41.6237  -10.1530 C   0  0  0  0  0  0  0  0  0  0  0  0
  1  2  1  0
  2  3  1  0
  2  4  1  0
  4  5  2  0
  5  6  1  0
  6  7  2  0
  7  8  1  0
  8  9  1  0
  9 10  1  0
 10 11  1  0
 11 12  1  0
 12 13  1  6
 12 14  1  0
 14 15  1  1
 15 16  1  0
 16 17  1  1
 16 18  1  0
 18 19  1  0
 19 20  1  0
 20 21  1  0
 21 22  1  0
 22 23  1  0
 23 24  1  0
 24 25  1  0
 25 26  1  0
 25 27  1  0
 27 28  2  0
 28 29  1  0
 29 30  2  0
 30 31  1  0
 31 32  2  0
 29 33  1  0
 33 34  2  0
 33 35  1  0
  8 36  2  0
 32 27  1  0
 35 14  1  0
 36  4  1  0
M  END
$$$$
