
     RDKit          3D

 35 37  0  0  0  0  0  0  0  0999 V2000
  -11.3003  -36.7967  -14.5277 C   0  0  0  0  0  0  0  0  0  0  0  0
  -12.0975  -36.3621  -13.3356 C   0  0  0  0  0  0  0  0  0  0  0  0
  -13.1537  -37.3909  -12.9363 C   0  0  0  0  0  0  0  0  0  0  0  0
  -13.8939  -36.9602  -11.7052 C   0  0  0  0  0  0  0  0  0  0  0  0
  -14.9802  -37.8779  -11.3760 N   0  0  0  0  0  0  0  0  0  0  0  0
  -14.7610  -39.1917  -10.9460 C   0  0  0  0  0  0  0  0  0  0  0  0
  -15.0361  -40.1233  -11.7652 O   0  0  0  0  0  0  0  0  0  0  0  0
  -14.2370  -39.5350   -9.6283 C   0  0  2  0  0  0  0  0  0  0  0  0
  -13.1230  -40.5907   -9.8232 C   0  0  0  0  0  0  0  0  0  0  0  0
  -15.2846  -40.1743   -8.7004 C   0  0  0  0  0  0  0  0  0  0  0  0
  -16.3253  -39.1732   -8.3797 C   0  0  2  0  0  0  0  0  0  0  0  0
  -15.8117  -38.4458   -7.2608 O   0  0  0  0  0  0  0  0  0  0  0  0
  -17.5955  -39.8231   -7.7687 C   0  0  2  0  0  0  0  0  0  0  0  0
  -18.4546  -38.6662   -7.3606 C   0  0  0  0  0  0  0  0  0  0  0  0
  -19.8593  -38.9111   -6.9430 C   0  0  0  0  0  0  0  0  0  0  0  0
  -20.0942  -38.3909   -5.6617 C   0  0  0  0  0  0  0  0  0  0  0  0
  -21.3038  -38.4718   -4.9995 C   0  0  0  0  0  0  0  0  0  0  0  0
  -22.2755  -39.1109   -5.6997 C   0  0  0  0  0  0  0  0  0  0  0  0
  -22.1030  -39.6609   -6.9988 C   0  0  0  0  0  0  0  0  0  0  0  0
  -23.3870  -40.3101   -7.4045 C   0  0  0  0  0  0  0  0  0  0  0  0
  -24.1556  -40.9313   -6.2662 C   0  0  0  0  0  0  0  0  0  0  0  0
  -23.4752  -41.7508   -5.2788 C   0  0  0  0  0  0  0  0  0  0  0  0
  -23.3686  -43.2487   -5.5886 C   0  0  0  0  0  0  0  0  0  0  0  0
  -22.4321  -43.5052   -6.6495 N   0  0  0  0  0  0  0  0  0  0  0  0
  -21.0013  -43.4422   -6.7062 C   0  0  0  0  0  0  0  0  0  0  0  0
  -20.0749  -42.5091   -6.3119 C   0  0  0  0  0  0  0  0  0  0  0  0
  -18.7266  -42.7666   -6.6061 C   0  0  0  0  0  0  0  0  0  0  0  0
  -18.4192  -43.9714   -7.2801 C   0  0  0  0  0  0  0  0  0  0  0  0
  -19.3443  -44.8998   -7.6679 C   0  0  0  0  0  0  0  0  0  0  0  0
  -18.9363  -46.1488   -8.3758 C   0  0  0  0  0  0  0  0  0  0  0  0
  -20.5840  -44.6014   -7.3698 N   0  0  0  0  0  0  0  0  0  0  0  0
  -17.5025  -41.9910   -6.4130 C   0  0  0  0  0  0  0  0  0  0  0  0
  -16.4703  -42.6640   -5.9806 O   0  0  0  0  0  0  0  0  0  0  0  0
  -17.2024  -40.6218   -6.6086 N   0  0  0  0  0  0  0  0  0  0  0  0
  -20.8894  -39.5515   -7.6110 C   0  0  0  0  0  0  0  0  0  0  0  0
  1  2  1  0
  2  3  1  0
  3  4  1  0
  4  5  1  0
  5  6  1  0
  6  7  2  0
  6  8  1  0
  8  9  1  6
  8 10  1  0
 10 11  1  0
 11 12  1  1
 11 13  1  0
 13 14  1  1
 14 15  1  0
 15 16  2  0
 16 17  1  0
 17 18  2  0
 18 19  1  0
 19 20  1  0
 20 21  1  0
 21 22  1  0
 22 23  1  0
 23 24  1  0
 24 25  1  0
 25 26  2  0
 26 27  1  0
 27 28  2  0
 28 29  1  0
 29 30  1  0
 29 31  2  0
 27 32  1  0
 32 33  2  0
 32 34  1  0
 19 35  2  0
 31 25  1  0
 34 13  1  0
 35 15  1  0
M  END
$$$$
