
     RDKit          3D

 35 37  0  0  0  0  0  0  0  0999 V2000
  -11.3293  -35.2509  -13.7388 C   0  0  0  0  0  0  0  0  0  0  0  0
  -11.2783  -35.7671  -12.3330 C   0  0  0  0  0  0  0  0  0  0  0  0
  -12.6395  -35.7077  -11.6422 C   0  0  0  0  0  0  0  0  0  0  0  0
  -13.3267  -37.0402  -11.6797 C   0  0  0  0  0  0  0  0  0  0  0  0
  -13.3358  -37.6833  -10.3695 N   0  0  0  0  0  0  0  0  0  0  0  0
  -14.0689  -38.8443  -10.0980 C   0  0  0  0  0  0  0  0  0  0  0  0
  -14.7737  -39.3191  -11.0428 O   0  0  0  0  0  0  0  0  0  0  0  0
  -14.0582  -39.5248   -8.8075 C   0  0  2  0  0  0  0  0  0  0  0  0
  -12.8879  -40.5366   -8.8165 C   0  0  0  0  0  0  0  0  0  0  0  0
  -15.3348  -40.3388   -8.5339 C   0  0  0  0  0  0  0  0  0  0  0  0
  -16.5176  -39.4873   -8.7865 C   0  0  2  0  0  0  0  0  0  0  0  0
  -16.2997  -38.3057   -8.0109 O   0  0  0  0  0  0  0  0  0  0  0  0
  -17.8019  -40.0570   -8.1267 C   0  0  2  0  0  0  0  0  0  0  0  0
  -18.6869  -38.8653   -7.9278 C   0  0  0  0  0  0  0  0  0  0  0  0
  -20.1028  -39.0660   -7.5250 C   0  0  0  0  0  0  0  0  0  0  0  0
  -20.3883  -38.3618   -6.3460 C   0  0  0  0  0  0  0  0  0  0  0  0
  -21.6196  -38.3605   -5.7200 C   0  0  0  0  0  0  0  0  0  0  0  0
  -22.5592  -39.1132   -6.3472 C   0  0  0  0  0  0  0  0  0  0  0  0
  -22.3352  -39.8505   -7.5414 C   0  0  0  0  0  0  0  0  0  0  0  0
  -23.5972  -40.5737   -7.8866 C   0  0  0  0  0  0  0  0  0  0  0  0
  -24.3992  -41.0275   -6.6936 C   0  0  0  0  0  0  0  0  0  0  0  0
  -23.7457  -41.6775   -5.5711 C   0  0  0  0  0  0  0  0  0  0  0  0
  -23.6128  -43.2032   -5.6464 C   0  0  0  0  0  0  0  0  0  0  0  0
  -22.6366  -43.6025   -6.6243 N   0  0  0  0  0  0  0  0  0  0  0  0
  -21.2055  -43.5265   -6.6420 C   0  0  0  0  0  0  0  0  0  0  0  0
  -20.3033  -42.5302   -6.3631 C   0  0  0  0  0  0  0  0  0  0  0  0
  -18.9428  -42.8082   -6.5695 C   0  0  0  0  0  0  0  0  0  0  0  0
  -18.5994  -44.0960   -7.0424 C   0  0  0  0  0  0  0  0  0  0  0  0
  -19.5004  -45.0867   -7.3156 C   0  0  0  0  0  0  0  0  0  0  0  0
  -19.0547  -46.4218   -7.8119 C   0  0  0  0  0  0  0  0  0  0  0  0
  -20.7529  -44.7661   -7.1078 N   0  0  0  0  0  0  0  0  0  0  0  0
  -17.7345  -41.9933   -6.4556 C   0  0  0  0  0  0  0  0  0  0  0  0
  -16.7113  -42.5769   -5.8918 O   0  0  0  0  0  0  0  0  0  0  0  0
  -17.4418  -40.6648   -6.8465 N   0  0  0  0  0  0  0  0  0  0  0  0
  -21.1019  -39.8161   -8.1222 C   0  0  0  0  0  0  0  0  0  0  0  0
  1  2  1  0
  2  3  1  0
  3  4  1  0
  4  5  1  0
  5  6  1  0
  6  7  2  0
  6  8  1  0
  8  9  1  6
  8 10  1  0
 10 11  1  0
 11 12  1  1
 11 13  1  0
 13 14  1  1
 14 15  1  0
 15 16  2  0
 16 17  1  0
 17 18  2  0
 18 19  1  0
 19 20  1  0
 20 21  1  0
 21 22  1  0
 22 23  1  0
 23 24  1  0
 24 25  1  0
 25 26  2  0
 26 27  1  0
 27 28  2  0
 28 29  1  0
 29 30  1  0
 29 31  2  0
 27 32  1  0
 32 33  2  0
 32 34  1  0
 19 35  2  0
 31 25  1  0
 34 13  1  0
 35 15  1  0
M  END
$$$$
