
     RDKit          3D

 35 37  0  0  0  0  0  0  0  0999 V2000
  -13.2092  -34.4214  -14.0346 C   0  0  0  0  0  0  0  0  0  0  0  0
  -13.7648  -35.7716  -13.6972 C   0  0  0  0  0  0  0  0  0  0  0  0
  -14.0095  -35.9415  -12.1989 C   0  0  0  0  0  0  0  0  0  0  0  0
  -13.2604  -37.1219  -11.6562 C   0  0  0  0  0  0  0  0  0  0  0  0
  -14.0426  -38.3507  -11.7490 N   0  0  0  0  0  0  0  0  0  0  0  0
  -14.7933  -38.8561  -10.6812 C   0  0  0  0  0  0  0  0  0  0  0  0
  -16.0569  -38.8684  -10.8154 O   0  0  0  0  0  0  0  0  0  0  0  0
  -14.2043  -39.3642   -9.4469 C   0  0  2  0  0  0  0  0  0  0  0  0
  -13.2163  -40.4931   -9.8246 C   0  0  0  0  0  0  0  0  0  0  0  0
  -15.2336  -39.9893   -8.4893 C   0  0  0  0  0  0  0  0  0  0  0  0
  -16.3554  -39.0444   -8.2975 C   0  0  2  0  0  0  0  0  0  0  0  0
  -15.9935  -38.2617   -7.1567 O   0  0  0  0  0  0  0  0  0  0  0  0
  -17.6393  -39.7540   -7.7903 C   0  0  2  0  0  0  0  0  0  0  0  0
  -18.6015  -38.6414   -7.5086 C   0  0  0  0  0  0  0  0  0  0  0  0
  -20.0238  -38.9609   -7.2211 C   0  0  0  0  0  0  0  0  0  0  0  0
  -20.4148  -38.4191   -5.9877 C   0  0  0  0  0  0  0  0  0  0  0  0
  -21.6771  -38.5557   -5.4438 C   0  0  0  0  0  0  0  0  0  0  0  0
  -22.5352  -39.2743   -6.2122 C   0  0  0  0  0  0  0  0  0  0  0  0
  -22.2026  -39.8501   -7.4682 C   0  0  0  0  0  0  0  0  0  0  0  0
  -23.3994  -40.5896   -7.9737 C   0  0  0  0  0  0  0  0  0  0  0  0
  -24.2391  -41.2240   -6.8943 C   0  0  0  0  0  0  0  0  0  0  0  0
  -23.6127  -41.9703   -5.8172 C   0  0  0  0  0  0  0  0  0  0  0  0
  -23.3877  -43.4671   -6.0623 C   0  0  0  0  0  0  0  0  0  0  0  0
  -22.3370  -43.6957   -7.0175 N   0  0  0  0  0  0  0  0  0  0  0  0
  -20.9139  -43.5454   -6.9371 C   0  0  0  0  0  0  0  0  0  0  0  0
  -20.0880  -42.5454   -6.4877 C   0  0  0  0  0  0  0  0  0  0  0  0
  -18.7042  -42.7270   -6.6402 C   0  0  0  0  0  0  0  0  0  0  0  0
  -18.2610  -43.9295   -7.2384 C   0  0  0  0  0  0  0  0  0  0  0  0
  -19.0866  -44.9245   -7.6813 C   0  0  0  0  0  0  0  0  0  0  0  0
  -18.5373  -46.1658   -8.3019 C   0  0  0  0  0  0  0  0  0  0  0  0
  -20.3652  -44.6953   -7.5158 N   0  0  0  0  0  0  0  0  0  0  0  0
  -17.5533  -41.8714   -6.3565 C   0  0  0  0  0  0  0  0  0  0  0  0
  -16.5311  -42.4658   -5.8024 O   0  0  0  0  0  0  0  0  0  0  0  0
  -17.3166  -40.4924   -6.5701 N   0  0  0  0  0  0  0  0  0  0  0  0
  -20.9429  -39.6834   -7.9631 C   0  0  0  0  0  0  0  0  0  0  0  0
  1  2  1  0
  2  3  1  0
  3  4  1  0
  4  5  1  0
  5  6  1  0
  6  7  2  0
  6  8  1  0
  8  9  1  6
  8 10  1  0
 10 11  1  0
 11 12  1  1
 11 13  1  0
 13 14  1  1
 14 15  1  0
 15 16  2  0
 16 17  1  0
 17 18  2  0
 18 19  1  0
 19 20  1  0
 20 21  1  0
 21 22  1  0
 22 23  1  0
 23 24  1  0
 24 25  1  0
 25 26  2  0
 26 27  1  0
 27 28  2  0
 28 29  1  0
 29 30  1  0
 29 31  2  0
 27 32  1  0
 32 33  2  0
 32 34  1  0
 19 35  2  0
 31 25  1  0
 34 13  1  0
 35 15  1  0
M  END
$$$$
