
     RDKit          3D

 35 37  0  0  0  0  0  0  0  0999 V2000
  -11.2752  -38.4074  -15.3990 C   0  0  0  0  0  0  0  0  0  0  0  0
  -11.6455  -37.5426  -14.2326 C   0  0  0  0  0  0  0  0  0  0  0  0
  -12.1501  -38.3568  -13.0426 C   0  0  0  0  0  0  0  0  0  0  0  0
  -12.4472  -37.4742  -11.8670 C   0  0  0  0  0  0  0  0  0  0  0  0
  -13.8629  -37.4998  -11.5131 N   0  0  0  0  0  0  0  0  0  0  0  0
  -14.5435  -38.6786  -11.1869 C   0  0  0  0  0  0  0  0  0  0  0  0
  -14.8585  -39.4505  -12.1459 O   0  0  0  0  0  0  0  0  0  0  0  0
  -14.8972  -39.0578   -9.8231 C   0  0  2  0  0  0  0  0  0  0  0  0
  -13.9702  -40.2221   -9.4009 C   0  0  0  0  0  0  0  0  0  0  0  0
  -16.3387  -39.5780   -9.6866 C   0  0  0  0  0  0  0  0  0  0  0  0
  -17.0415  -38.7952   -8.6467 C   0  0  2  0  0  0  0  0  0  0  0  0
  -16.0795  -38.6096   -7.6051 O   0  0  0  0  0  0  0  0  0  0  0  0
  -18.1280  -39.6306   -7.9182 C   0  0  2  0  0  0  0  0  0  0  0  0
  -19.0417  -38.6137   -7.3066 C   0  0  0  0  0  0  0  0  0  0  0  0
  -20.3339  -39.0524   -6.7189 C   0  0  0  0  0  0  0  0  0  0  0  0
  -20.4351  -38.6437   -5.3810 C   0  0  0  0  0  0  0  0  0  0  0  0
  -21.5180  -38.9111   -4.5662 C   0  0  0  0  0  0  0  0  0  0  0  0
  -22.5043  -39.6198   -5.1727 C   0  0  0  0  0  0  0  0  0  0  0  0
  -22.4637  -40.0645   -6.5219 C   0  0  0  0  0  0  0  0  0  0  0  0
  -23.7127  -40.8391   -6.7953 C   0  0  0  0  0  0  0  0  0  0  0  0
  -24.2322  -41.6173   -5.6133 C   0  0  0  0  0  0  0  0  0  0  0  0
  -23.3273  -42.4065   -4.7961 C   0  0  0  0  0  0  0  0  0  0  0  0
  -23.1009  -43.8587   -5.2330 C   0  0  0  0  0  0  0  0  0  0  0  0
  -22.3071  -43.9344   -6.4300 N   0  0  0  0  0  0  0  0  0  0  0  0
  -20.9161  -43.6947   -6.6790 C   0  0  0  0  0  0  0  0  0  0  0  0
  -20.0520  -42.6817   -6.3454 C   0  0  0  0  0  0  0  0  0  0  0  0
  -18.7410  -42.7551   -6.8423 C   0  0  0  0  0  0  0  0  0  0  0  0
  -18.4033  -43.8703   -7.6439 C   0  0  0  0  0  0  0  0  0  0  0  0
  -19.2657  -44.8788   -7.9709 C   0  0  0  0  0  0  0  0  0  0  0  0
  -18.8290  -46.0235   -8.8233 C   0  0  0  0  0  0  0  0  0  0  0  0
  -20.4738  -44.7521   -7.4819 N   0  0  0  0  0  0  0  0  0  0  0  0
  -17.5961  -41.8497   -6.7608 C   0  0  0  0  0  0  0  0  0  0  0  0
  -16.4431  -42.4172   -6.5289 O   0  0  0  0  0  0  0  0  0  0  0  0
  -17.4825  -40.4447   -6.8892 N   0  0  0  0  0  0  0  0  0  0  0  0
  -21.3728  -39.7714   -7.2857 C   0  0  0  0  0  0  0  0  0  0  0  0
  1  2  1  0
  2  3  1  0
  3  4  1  0
  4  5  1  0
  5  6  1  0
  6  7  2  0
  6  8  1  0
  8  9  1  6
  8 10  1  0
 10 11  1  0
 11 12  1  1
 11 13  1  0
 13 14  1  1
 14 15  1  0
 15 16  2  0
 16 17  1  0
 17 18  2  0
 18 19  1  0
 19 20  1  0
 20 21  1  0
 21 22  1  0
 22 23  1  0
 23 24  1  0
 24 25  1  0
 25 26  2  0
 26 27  1  0
 27 28  2  0
 28 29  1  0
 29 30  1  0
 29 31  2  0
 27 32  1  0
 32 33  2  0
 32 34  1  0
 19 35  2  0
 31 25  1  0
 34 13  1  0
 35 15  1  0
M  END
$$$$
