
     RDKit          3D

 35 37  0  0  0  0  0  0  0  0999 V2000
  -10.5727  -36.4329  -13.8480 C   0  0  0  0  0  0  0  0  0  0  0  0
  -12.0564  -36.6242  -13.9333 C   0  0  0  0  0  0  0  0  0  0  0  0
  -12.4864  -38.0290  -13.5145 C   0  0  0  0  0  0  0  0  0  0  0  0
  -13.9575  -38.2322  -13.7237 C   0  0  0  0  0  0  0  0  0  0  0  0
  -14.7433  -37.6817  -12.6238 N   0  0  0  0  0  0  0  0  0  0  0  0
  -14.7356  -38.2295  -11.3358 C   0  0  0  0  0  0  0  0  0  0  0  0
  -14.1230  -39.3316  -11.1781 O   0  0  0  0  0  0  0  0  0  0  0  0
  -15.3814  -37.6040  -10.1867 C   0  0  2  0  0  0  0  0  0  0  0  0
  -14.4141  -36.5355   -9.6247 C   0  0  0  0  0  0  0  0  0  0  0  0
  -15.6639  -38.5840   -9.0347 C   0  0  0  0  0  0  0  0  0  0  0  0
  -16.7949  -38.0741   -8.2291 C   0  0  2  0  0  0  0  0  0  0  0  0
  -16.2390  -37.7906   -6.9424 O   0  0  0  0  0  0  0  0  0  0  0  0
  -17.8187  -39.1886   -7.8844 C   0  0  2  0  0  0  0  0  0  0  0  0
  -18.9960  -38.4591   -7.3145 C   0  0  0  0  0  0  0  0  0  0  0  0
  -20.2674  -39.1923   -7.0830 C   0  0  0  0  0  0  0  0  0  0  0  0
  -20.6727  -39.0730   -5.7455 C   0  0  0  0  0  0  0  0  0  0  0  0
  -21.8126  -39.6534   -5.2239 C   0  0  0  0  0  0  0  0  0  0  0  0
  -22.5311  -40.3688   -6.1266 C   0  0  0  0  0  0  0  0  0  0  0  0
  -22.1758  -40.5298   -7.4932 C   0  0  0  0  0  0  0  0  0  0  0  0
  -23.1941  -41.4135   -8.1389 C   0  0  0  0  0  0  0  0  0  0  0  0
  -23.7586  -42.4766   -7.2313 C   0  0  0  0  0  0  0  0  0  0  0  0
  -22.8797  -43.2665   -6.3867 C   0  0  0  0  0  0  0  0  0  0  0  0
  -22.3175  -44.5546   -6.9996 C   0  0  0  0  0  0  0  0  0  0  0  0
  -21.3278  -44.2752   -8.0051 N   0  0  0  0  0  0  0  0  0  0  0  0
  -19.9830  -43.7864   -7.9222 C   0  0  0  0  0  0  0  0  0  0  0  0
  -19.3914  -42.7408   -7.2581 C   0  0  0  0  0  0  0  0  0  0  0  0
  -18.0233  -42.5190   -7.4819 C   0  0  0  0  0  0  0  0  0  0  0  0
  -17.3521  -43.3925   -8.3689 C   0  0  0  0  0  0  0  0  0  0  0  0
  -17.9441  -44.4348   -9.0255 C   0  0  0  0  0  0  0  0  0  0  0  0
  -17.1630  -45.3123   -9.9461 C   0  0  0  0  0  0  0  0  0  0  0  0
  -19.2211  -44.5880   -8.7796 N   0  0  0  0  0  0  0  0  0  0  0  0
  -17.0965  -41.4865   -7.0214 C   0  0  0  0  0  0  0  0  0  0  0  0
  -15.9168  -41.9098   -6.6549 O   0  0  0  0  0  0  0  0  0  0  0  0
  -17.2229  -40.0827   -6.8925 N   0  0  0  0  0  0  0  0  0  0  0  0
  -21.0417  -39.9333   -7.9597 C   0  0  0  0  0  0  0  0  0  0  0  0
  1  2  1  0
  2  3  1  0
  3  4  1  0
  4  5  1  0
  5  6  1  0
  6  7  2  0
  6  8  1  0
  8  9  1  1
  8 10  1  0
 10 11  1  0
 11 12  1  1
 11 13  1  0
 13 14  1  1
 14 15  1  0
 15 16  2  0
 16 17  1  0
 17 18  2  0
 18 19  1  0
 19 20  1  0
 20 21  1  0
 21 22  1  0
 22 23  1  0
 23 24  1  0
 24 25  1  0
 25 26  2  0
 26 27  1  0
 27 28  2  0
 28 29  1  0
 29 30  1  0
 29 31  2  0
 27 32  1  0
 32 33  2  0
 32 34  1  0
 19 35  2  0
 31 25  1  0
 34 13  1  0
 35 15  1  0
M  END
$$$$
