
     RDKit          3D

 35 37  0  0  0  0  0  0  0  0999 V2000
  -11.6079  -35.3472  -14.9227 C   0  0  0  0  0  0  0  0  0  0  0  0
  -12.6847  -35.4268  -13.8837 C   0  0  0  0  0  0  0  0  0  0  0  0
  -12.5116  -36.6297  -12.9582 C   0  0  0  0  0  0  0  0  0  0  0  0
  -13.6436  -37.6014  -13.1123 C   0  0  0  0  0  0  0  0  0  0  0  0
  -14.5302  -37.5901  -11.9528 N   0  0  0  0  0  0  0  0  0  0  0  0
  -14.8082  -38.7353  -11.1977 C   0  0  0  0  0  0  0  0  0  0  0  0
  -15.4952  -39.6462  -11.7573 O   0  0  0  0  0  0  0  0  0  0  0  0
  -14.3508  -38.9308   -9.8261 C   0  0  2  0  0  0  0  0  0  0  0  0
  -13.0462  -39.7608   -9.8767 C   0  0  0  0  0  0  0  0  0  0  0  0
  -15.3402  -39.7281   -8.9585 C   0  0  0  0  0  0  0  0  0  0  0  0
  -16.5282  -38.8912   -8.6822 C   0  0  2  0  0  0  0  0  0  0  0  0
  -16.1649  -38.0872   -7.5567 O   0  0  0  0  0  0  0  0  0  0  0  0
  -17.7065  -39.7188   -8.1028 C   0  0  2  0  0  0  0  0  0  0  0  0
  -18.7103  -38.6962   -7.6674 C   0  0  0  0  0  0  0  0  0  0  0  0
  -20.0735  -39.1337   -7.2702 C   0  0  0  0  0  0  0  0  0  0  0  0
  -20.3802  -38.6889   -5.9757 C   0  0  0  0  0  0  0  0  0  0  0  0
  -21.5725  -38.9464   -5.3273 C   0  0  0  0  0  0  0  0  0  0  0  0
  -22.4496  -39.6835   -6.0555 C   0  0  0  0  0  0  0  0  0  0  0  0
  -22.2008  -40.1653   -7.3692 C   0  0  0  0  0  0  0  0  0  0  0  0
  -23.3878  -40.9621   -7.8062 C   0  0  0  0  0  0  0  0  0  0  0  0
  -24.0752  -41.7130   -6.6944 C   0  0  0  0  0  0  0  0  0  0  0  0
  -23.2993  -42.4683   -5.7264 C   0  0  0  0  0  0  0  0  0  0  0  0
  -22.9980  -43.9293   -6.0809 C   0  0  0  0  0  0  0  0  0  0  0  0
  -22.0308  -44.0290   -7.1406 N   0  0  0  0  0  0  0  0  0  0  0  0
  -20.6200  -43.7796   -7.1824 C   0  0  0  0  0  0  0  0  0  0  0  0
  -19.8243  -42.7475   -6.7514 C   0  0  0  0  0  0  0  0  0  0  0  0
  -18.4525  -42.8191   -7.0410 C   0  0  0  0  0  0  0  0  0  0  0  0
  -17.9883  -43.9521   -7.7488 C   0  0  0  0  0  0  0  0  0  0  0  0
  -18.7833  -44.9797   -8.1731 C   0  0  0  0  0  0  0  0  0  0  0  0
  -18.2133  -46.1425   -8.9152 C   0  0  0  0  0  0  0  0  0  0  0  0
  -20.0527  -44.8537   -7.8773 N   0  0  0  0  0  0  0  0  0  0  0  0
  -17.3402  -41.8981   -6.8133 C   0  0  0  0  0  0  0  0  0  0  0  0
  -16.2317  -42.4451   -6.3923 O   0  0  0  0  0  0  0  0  0  0  0  0
  -17.2190  -40.4961   -6.9642 N   0  0  0  0  0  0  0  0  0  0  0  0
  -21.0086  -39.8806   -7.9668 C   0  0  0  0  0  0  0  0  0  0  0  0
  1  2  1  0
  2  3  1  0
  3  4  1  0
  4  5  1  0
  5  6  1  0
  6  7  2  0
  6  8  1  0
  8  9  1  6
  8 10  1  0
 10 11  1  0
 11 12  1  1
 11 13  1  0
 13 14  1  1
 14 15  1  0
 15 16  2  0
 16 17  1  0
 17 18  2  0
 18 19  1  0
 19 20  1  0
 20 21  1  0
 21 22  1  0
 22 23  1  0
 23 24  1  0
 24 25  1  0
 25 26  2  0
 26 27  1  0
 27 28  2  0
 28 29  1  0
 29 30  1  0
 29 31  2  0
 27 32  1  0
 32 33  2  0
 32 34  1  0
 19 35  2  0
 31 25  1  0
 34 13  1  0
 35 15  1  0
M  END
$$$$
