
     RDKit          3D

 35 37  0  0  0  0  0  0  0  0999 V2000
  -13.7993  -33.5232  -12.0249 C   0  0  0  0  0  0  0  0  0  0  0  0
  -13.1421  -34.5206  -11.1200 C   0  0  0  0  0  0  0  0  0  0  0  0
  -13.2273  -35.9449  -11.6655 C   0  0  0  0  0  0  0  0  0  0  0  0
  -13.8926  -36.8638  -10.6847 C   0  0  0  0  0  0  0  0  0  0  0  0
  -13.9838  -38.2283  -11.1948 N   0  0  0  0  0  0  0  0  0  0  0  0
  -14.7489  -39.2223  -10.5737 C   0  0  0  0  0  0  0  0  0  0  0  0
  -15.9569  -39.3431  -10.9488 O   0  0  0  0  0  0  0  0  0  0  0  0
  -14.2330  -40.1123   -9.5391 C   0  0  2  0  0  0  0  0  0  0  0  0
  -14.6810  -41.5515   -9.8875 C   0  0  0  0  0  0  0  0  0  0  0  0
  -14.7911  -39.8103   -8.1375 C   0  0  0  0  0  0  0  0  0  0  0  0
  -15.9549  -38.9058   -8.2624 C   0  0  2  0  0  0  0  0  0  0  0  0
  -15.8949  -38.0589   -7.1117 O   0  0  0  0  0  0  0  0  0  0  0  0
  -17.2998  -39.6455   -8.0315 C   0  0  2  0  0  0  0  0  0  0  0  0
  -18.3435  -38.5766   -8.1368 C   0  0  0  0  0  0  0  0  0  0  0  0
  -19.7779  -38.9596   -8.1962 C   0  0  0  0  0  0  0  0  0  0  0  0
  -20.5034  -38.3267   -7.1762 C   0  0  0  0  0  0  0  0  0  0  0  0
  -21.8590  -38.4924   -6.9686 C   0  0  0  0  0  0  0  0  0  0  0  0
  -22.4536  -39.3379   -7.8487 C   0  0  0  0  0  0  0  0  0  0  0  0
  -21.7770  -40.0108   -8.9019 C   0  0  0  0  0  0  0  0  0  0  0  0
  -22.7671  -40.8736   -9.6160 C   0  0  0  0  0  0  0  0  0  0  0  0
  -23.8394  -41.4532   -8.7289 C   0  0  0  0  0  0  0  0  0  0  0  0
  -23.4947  -42.0475   -7.4492 C   0  0  0  0  0  0  0  0  0  0  0  0
  -23.1562  -43.5429   -7.4581 C   0  0  0  0  0  0  0  0  0  0  0  0
  -21.8812  -43.7941   -8.0744 N   0  0  0  0  0  0  0  0  0  0  0  0
  -20.5377  -43.5430   -7.6430 C   0  0  0  0  0  0  0  0  0  0  0  0
  -19.8996  -42.4514   -7.1086 C   0  0  0  0  0  0  0  0  0  0  0  0
  -18.5194  -42.5553   -6.8737 C   0  0  0  0  0  0  0  0  0  0  0  0
  -17.8877  -43.7787   -7.1971 C   0  0  0  0  0  0  0  0  0  0  0  0
  -18.5273  -44.8647   -7.7258 C   0  0  0  0  0  0  0  0  0  0  0  0
  -17.7862  -46.1218   -8.0386 C   0  0  0  0  0  0  0  0  0  0  0  0
  -19.8115  -44.7053   -7.9261 N   0  0  0  0  0  0  0  0  0  0  0  0
  -17.5188  -41.6020   -6.3973 C   0  0  0  0  0  0  0  0  0  0  0  0
  -16.6594  -42.0705   -5.5328 O   0  0  0  0  0  0  0  0  0  0  0  0
  -17.2861  -40.2379   -6.6947 N   0  0  0  0  0  0  0  0  0  0  0  0
  -20.4382  -39.8104   -9.0666 C   0  0  0  0  0  0  0  0  0  0  0  0
  1  2  1  0
  2  3  1  0
  3  4  1  0
  4  5  1  0
  5  6  1  0
  6  7  2  0
  6  8  1  0
  8  9  1  6
  8 10  1  0
 10 11  1  0
 11 12  1  1
 11 13  1  0
 13 14  1  1
 14 15  1  0
 15 16  2  0
 16 17  1  0
 17 18  2  0
 18 19  1  0
 19 20  1  0
 20 21  1  0
 21 22  1  0
 22 23  1  0
 23 24  1  0
 24 25  1  0
 25 26  2  0
 26 27  1  0
 27 28  2  0
 28 29  1  0
 29 30  1  0
 29 31  2  0
 27 32  1  0
 32 33  2  0
 32 34  1  0
 19 35  2  0
 31 25  1  0
 34 13  1  0
 35 15  1  0
M  END
$$$$
