
     RDKit          3D

 35 37  0  0  0  0  0  0  0  0999 V2000
  -17.0542  -34.4928  -11.4575 C   0  0  0  0  0  0  0  0  0  0  0  0
  -16.5678  -35.8021  -12.0001 C   0  0  0  0  0  0  0  0  0  0  0  0
  -15.0673  -35.9968  -11.7903 C   0  0  0  0  0  0  0  0  0  0  0  0
  -14.6018  -37.2992  -12.3700 C   0  0  0  0  0  0  0  0  0  0  0  0
  -13.9121  -38.1190  -11.3788 N   0  0  0  0  0  0  0  0  0  0  0  0
  -14.5700  -39.0653  -10.5847 C   0  0  0  0  0  0  0  0  0  0  0  0
  -15.5907  -39.6332  -11.0851 O   0  0  0  0  0  0  0  0  0  0  0  0
  -14.1443  -39.4270   -9.2368 C   0  0  2  0  0  0  0  0  0  0  0  0
  -12.9695  -40.4254   -9.3643 C   0  0  0  0  0  0  0  0  0  0  0  0
  -15.2357  -40.1415   -8.4211 C   0  0  0  0  0  0  0  0  0  0  0  0
  -16.3717  -39.2169   -8.2144 C   0  0  2  0  0  0  0  0  0  0  0  0
  -16.0462  -38.4840   -7.0304 O   0  0  0  0  0  0  0  0  0  0  0  0
  -17.6603  -39.9608   -7.7725 C   0  0  2  0  0  0  0  0  0  0  0  0
  -18.6020  -38.8735   -7.3555 C   0  0  0  0  0  0  0  0  0  0  0  0
  -20.0255  -39.2033   -7.0865 C   0  0  0  0  0  0  0  0  0  0  0  0
  -20.3936  -38.7975   -5.7953 C   0  0  0  0  0  0  0  0  0  0  0  0
  -21.6515  -38.9765   -5.2532 C   0  0  0  0  0  0  0  0  0  0  0  0
  -22.5294  -39.5927   -6.0854 C   0  0  0  0  0  0  0  0  0  0  0  0
  -22.2204  -40.0291   -7.4021 C   0  0  0  0  0  0  0  0  0  0  0  0
  -23.4342  -40.6908   -7.9710 C   0  0  0  0  0  0  0  0  0  0  0  0
  -24.2708  -41.4301   -6.9580 C   0  0  0  0  0  0  0  0  0  0  0  0
  -23.6433  -42.3008   -5.9794 C   0  0  0  0  0  0  0  0  0  0  0  0
  -23.4440  -43.7637   -6.3930 C   0  0  0  0  0  0  0  0  0  0  0  0
  -22.4082  -43.8987   -7.3817 N   0  0  0  0  0  0  0  0  0  0  0  0
  -20.9822  -43.7781   -7.3041 C   0  0  0  0  0  0  0  0  0  0  0  0
  -20.1358  -42.8461   -6.7570 C   0  0  0  0  0  0  0  0  0  0  0  0
  -18.7569  -43.0287   -6.9472 C   0  0  0  0  0  0  0  0  0  0  0  0
  -18.3391  -44.1628   -7.6818 C   0  0  0  0  0  0  0  0  0  0  0  0
  -19.1849  -45.0906   -8.2219 C   0  0  0  0  0  0  0  0  0  0  0  0
  -18.6621  -46.2622   -8.9844 C   0  0  0  0  0  0  0  0  0  0  0  0
  -20.4579  -44.8636   -8.0147 N   0  0  0  0  0  0  0  0  0  0  0  0
  -17.5898  -42.2262   -6.5853 C   0  0  0  0  0  0  0  0  0  0  0  0
  -16.5704  -42.8930   -6.1147 O   0  0  0  0  0  0  0  0  0  0  0  0
  -17.3346  -40.8354   -6.6468 N   0  0  0  0  0  0  0  0  0  0  0  0
  -20.9642  -39.8255   -7.8921 C   0  0  0  0  0  0  0  0  0  0  0  0
  1  2  1  0
  2  3  1  0
  3  4  1  0
  4  5  1  0
  5  6  1  0
  6  7  2  0
  6  8  1  0
  8  9  1  6
  8 10  1  0
 10 11  1  0
 11 12  1  1
 11 13  1  0
 13 14  1  1
 14 15  1  0
 15 16  2  0
 16 17  1  0
 17 18  2  0
 18 19  1  0
 19 20  1  0
 20 21  1  0
 21 22  1  0
 22 23  1  0
 23 24  1  0
 24 25  1  0
 25 26  2  0
 26 27  1  0
 27 28  2  0
 28 29  1  0
 29 30  1  0
 29 31  2  0
 27 32  1  0
 32 33  2  0
 32 34  1  0
 19 35  2  0
 31 25  1  0
 34 13  1  0
 35 15  1  0
M  END
$$$$
