
     RDKit          3D

 35 37  0  0  0  0  0  0  0  0999 V2000
  -13.2331  -34.6151  -13.1261 C   0  0  0  0  0  0  0  0  0  0  0  0
  -14.0753  -35.8526  -13.0585 C   0  0  0  0  0  0  0  0  0  0  0  0
  -14.3933  -36.2614  -11.6213 C   0  0  0  0  0  0  0  0  0  0  0  0
  -13.2201  -36.9371  -10.9762 C   0  0  0  0  0  0  0  0  0  0  0  0
  -13.3090  -38.3906  -11.0749 N   0  0  0  0  0  0  0  0  0  0  0  0
  -14.3084  -39.1358  -10.4385 C   0  0  0  0  0  0  0  0  0  0  0  0
  -15.3554  -39.3946  -11.1105 O   0  0  0  0  0  0  0  0  0  0  0  0
  -14.2045  -39.6241   -9.0676 C   0  0  2  0  0  0  0  0  0  0  0  0
  -13.0444  -40.6464   -9.0167 C   0  0  0  0  0  0  0  0  0  0  0  0
  -15.4618  -40.3688   -8.5859 C   0  0  0  0  0  0  0  0  0  0  0  0
  -16.6613  -39.5842   -8.9515 C   0  0  2  0  0  0  0  0  0  0  0  0
  -16.4483  -38.2895   -8.3829 O   0  0  0  0  0  0  0  0  0  0  0  0
  -17.9258  -40.0542   -8.1839 C   0  0  2  0  0  0  0  0  0  0  0  0
  -18.6755  -38.7938   -7.8801 C   0  0  0  0  0  0  0  0  0  0  0  0
  -20.0606  -38.8778   -7.3489 C   0  0  0  0  0  0  0  0  0  0  0  0
  -20.1698  -38.1830   -6.1353 C   0  0  0  0  0  0  0  0  0  0  0  0
  -21.3326  -38.0883   -5.3957 C   0  0  0  0  0  0  0  0  0  0  0  0
  -22.3913  -38.7366   -5.9450 C   0  0  0  0  0  0  0  0  0  0  0  0
  -22.3474  -39.4585   -7.1684 C   0  0  0  0  0  0  0  0  0  0  0  0
  -23.6969  -40.0560   -7.4061 C   0  0  0  0  0  0  0  0  0  0  0  0
  -24.4233  -40.4683   -6.1511 C   0  0  0  0  0  0  0  0  0  0  0  0
  -23.7310  -41.2044   -5.1077 C   0  0  0  0  0  0  0  0  0  0  0  0
  -23.7461  -42.7332   -5.2235 C   0  0  0  0  0  0  0  0  0  0  0  0
  -22.9054  -43.1918   -6.2966 N   0  0  0  0  0  0  0  0  0  0  0  0
  -21.4811  -43.2438   -6.4483 C   0  0  0  0  0  0  0  0  0  0  0  0
  -20.4695  -42.3402   -6.2376 C   0  0  0  0  0  0  0  0  0  0  0  0
  -19.1652  -42.7332   -6.5770 C   0  0  0  0  0  0  0  0  0  0  0  0
  -18.9865  -44.0335   -7.1040 C   0  0  0  0  0  0  0  0  0  0  0  0
  -19.9961  -44.9317   -7.3090 C   0  0  0  0  0  0  0  0  0  0  0  0
  -19.7225  -46.2875   -7.8699 C   0  0  0  0  0  0  0  0  0  0  0  0
  -21.1892  -44.5059   -6.9777 N   0  0  0  0  0  0  0  0  0  0  0  0
  -17.8819  -42.0333   -6.5628 C   0  0  0  0  0  0  0  0  0  0  0  0
  -16.8687  -42.7212   -6.1093 O   0  0  0  0  0  0  0  0  0  0  0  0
  -17.5060  -40.7263   -6.9549 N   0  0  0  0  0  0  0  0  0  0  0  0
  -21.1752  -39.5189   -7.8626 C   0  0  0  0  0  0  0  0  0  0  0  0
  1  2  1  0
  2  3  1  0
  3  4  1  0
  4  5  1  0
  5  6  1  0
  6  7  2  0
  6  8  1  0
  8  9  1  6
  8 10  1  0
 10 11  1  0
 11 12  1  1
 11 13  1  0
 13 14  1  1
 14 15  1  0
 15 16  2  0
 16 17  1  0
 17 18  2  0
 18 19  1  0
 19 20  1  0
 20 21  1  0
 21 22  1  0
 22 23  1  0
 23 24  1  0
 24 25  1  0
 25 26  2  0
 26 27  1  0
 27 28  2  0
 28 29  1  0
 29 30  1  0
 29 31  2  0
 27 32  1  0
 32 33  2  0
 32 34  1  0
 19 35  2  0
 31 25  1  0
 34 13  1  0
 35 15  1  0
M  END
$$$$
