
     RDKit          3D

 35 37  0  0  0  0  0  0  0  0999 V2000
  -12.2087  -34.3831  -12.8816 C   0  0  0  0  0  0  0  0  0  0  0  0
  -12.5388  -35.7149  -13.4840 C   0  0  0  0  0  0  0  0  0  0  0  0
  -13.2821  -36.6258  -12.5086 C   0  0  0  0  0  0  0  0  0  0  0  0
  -12.3293  -37.3326  -11.5912 C   0  0  0  0  0  0  0  0  0  0  0  0
  -13.0292  -38.0559  -10.5342 N   0  0  0  0  0  0  0  0  0  0  0  0
  -13.6975  -39.2657  -10.7553 C   0  0  0  0  0  0  0  0  0  0  0  0
  -13.5965  -39.7807  -11.9125 O   0  0  0  0  0  0  0  0  0  0  0  0
  -14.4855  -39.9526   -9.7375 C   0  0  2  0  0  0  0  0  0  0  0  0
  -13.6031  -41.0688   -9.1302 C   0  0  0  0  0  0  0  0  0  0  0  0
  -15.7392  -40.6460  -10.2984 C   0  0  0  0  0  0  0  0  0  0  0  0
  -16.8795  -39.7052  -10.2458 C   0  0  2  0  0  0  0  0  0  0  0  0
  -16.3495  -38.5077   -9.6714 O   0  0  0  0  0  0  0  0  0  0  0  0
  -17.9318  -40.1182   -9.1822 C   0  0  2  0  0  0  0  0  0  0  0  0
  -18.6278  -38.8421   -8.8218 C   0  0  0  0  0  0  0  0  0  0  0  0
  -19.8595  -38.8910   -7.9922 C   0  0  0  0  0  0  0  0  0  0  0  0
  -19.7166  -38.0980   -6.8441 C   0  0  0  0  0  0  0  0  0  0  0  0
  -20.6902  -37.9499   -5.8754 C   0  0  0  0  0  0  0  0  0  0  0  0
  -21.8271  -38.6492   -6.1231 C   0  0  0  0  0  0  0  0  0  0  0  0
  -22.0352  -39.4704   -7.2642 C   0  0  0  0  0  0  0  0  0  0  0  0
  -23.3884  -40.0951   -7.1486 C   0  0  0  0  0  0  0  0  0  0  0  0
  -23.8101  -40.4061   -5.7351 C   0  0  0  0  0  0  0  0  0  0  0  0
  -22.8869  -41.0476   -4.8154 C   0  0  0  0  0  0  0  0  0  0  0  0
  -22.8885  -42.5808   -4.8024 C   0  0  0  0  0  0  0  0  0  0  0  0
  -22.2932  -43.1216   -5.9948 N   0  0  0  0  0  0  0  0  0  0  0  0
  -20.9364  -43.1762   -6.4533 C   0  0  0  0  0  0  0  0  0  0  0  0
  -19.9263  -42.2512   -6.5447 C   0  0  0  0  0  0  0  0  0  0  0  0
  -18.7192  -42.6621   -7.1318 C   0  0  0  0  0  0  0  0  0  0  0  0
  -18.6281  -44.0006   -7.5797 C   0  0  0  0  0  0  0  0  0  0  0  0
  -19.6349  -44.9198   -7.4836 C   0  0  0  0  0  0  0  0  0  0  0  0
  -19.4573  -46.3157   -7.9808 C   0  0  0  0  0  0  0  0  0  0  0  0
  -20.7363  -44.4761   -6.9315 N   0  0  0  0  0  0  0  0  0  0  0  0
  -17.4823  -41.9545   -7.4581 C   0  0  0  0  0  0  0  0  0  0  0  0
  -16.3771  -42.5950   -7.1866 O   0  0  0  0  0  0  0  0  0  0  0  0
  -17.2350  -40.6823   -8.0270 N   0  0  0  0  0  0  0  0  0  0  0  0
  -21.0433  -39.5805   -8.1935 C   0  0  0  0  0  0  0  0  0  0  0  0
  1  2  1  0
  2  3  1  0
  3  4  1  0
  4  5  1  0
  5  6  1  0
  6  7  2  0
  6  8  1  0
  8  9  1  6
  8 10  1  0
 10 11  1  0
 11 12  1  1
 11 13  1  0
 13 14  1  1
 14 15  1  0
 15 16  2  0
 16 17  1  0
 17 18  2  0
 18 19  1  0
 19 20  1  0
 20 21  1  0
 21 22  1  0
 22 23  1  0
 23 24  1  0
 24 25  1  0
 25 26  2  0
 26 27  1  0
 27 28  2  0
 28 29  1  0
 29 30  1  0
 29 31  2  0
 27 32  1  0
 32 33  2  0
 32 34  1  0
 19 35  2  0
 31 25  1  0
 34 13  1  0
 35 15  1  0
M  END
$$$$
