
     RDKit          3D

 35 37  0  0  0  0  0  0  0  0999 V2000
  -11.2263  -35.4448  -13.2325 C   0  0  0  0  0  0  0  0  0  0  0  0
  -12.6818  -35.1652  -13.0117 C   0  0  0  0  0  0  0  0  0  0  0  0
  -13.5684  -36.3374  -13.4282 C   0  0  0  0  0  0  0  0  0  0  0  0
  -14.1426  -37.0365  -12.2321 C   0  0  0  0  0  0  0  0  0  0  0  0
  -13.5962  -38.3808  -12.0748 N   0  0  0  0  0  0  0  0  0  0  0  0
  -14.1049  -39.3050  -11.1549 C   0  0  0  0  0  0  0  0  0  0  0  0
  -14.4762  -40.4317  -11.6102 O   0  0  0  0  0  0  0  0  0  0  0  0
  -14.2221  -39.0422   -9.7246 C   0  0  2  0  0  0  0  0  0  0  0  0
  -12.9358  -39.5638   -9.0414 C   0  0  0  0  0  0  0  0  0  0  0  0
  -15.3974  -39.7807   -9.0607 C   0  0  0  0  0  0  0  0  0  0  0  0
  -16.4829  -38.8152   -8.7820 C   0  0  2  0  0  0  0  0  0  0  0  0
  -16.0162  -38.0373   -7.6766 O   0  0  0  0  0  0  0  0  0  0  0  0
  -17.7343  -39.5004   -8.1708 C   0  0  2  0  0  0  0  0  0  0  0  0
  -18.6335  -38.3684   -7.7796 C   0  0  0  0  0  0  0  0  0  0  0  0
  -20.0316  -38.6553   -7.3667 C   0  0  0  0  0  0  0  0  0  0  0  0
  -20.2907  -38.1299   -6.0923 C   0  0  0  0  0  0  0  0  0  0  0  0
  -21.5007  -38.2439   -5.4357 C   0  0  0  0  0  0  0  0  0  0  0  0
  -22.4468  -38.9221   -6.1341 C   0  0  0  0  0  0  0  0  0  0  0  0
  -22.2490  -39.4796   -7.4263 C   0  0  0  0  0  0  0  0  0  0  0  0
  -23.5084  -40.1752   -7.8320 C   0  0  0  0  0  0  0  0  0  0  0  0
  -24.2625  -40.8096   -6.6911 C   0  0  0  0  0  0  0  0  0  0  0  0
  -23.5609  -41.5957   -5.6915 C   0  0  0  0  0  0  0  0  0  0  0  0
  -23.4031  -43.0924   -5.9849 C   0  0  0  0  0  0  0  0  0  0  0  0
  -22.4526  -43.3288   -7.0381 N   0  0  0  0  0  0  0  0  0  0  0  0
  -21.0244  -43.2190   -7.0879 C   0  0  0  0  0  0  0  0  0  0  0  0
  -20.1317  -42.2517   -6.6987 C   0  0  0  0  0  0  0  0  0  0  0  0
  -18.7739  -42.4675   -6.9830 C   0  0  0  0  0  0  0  0  0  0  0  0
  -18.4231  -43.6684   -7.6426 C   0  0  0  0  0  0  0  0  0  0  0  0
  -19.3148  -44.6309   -8.0254 C   0  0  0  0  0  0  0  0  0  0  0  0
  -18.8617  -45.8730   -8.7179 C   0  0  0  0  0  0  0  0  0  0  0  0
  -20.5653  -44.3707   -7.7370 N   0  0  0  0  0  0  0  0  0  0  0  0
  -17.5773  -41.6498   -6.7918 C   0  0  0  0  0  0  0  0  0  0  0  0
  -16.5258  -42.2836   -6.3468 O   0  0  0  0  0  0  0  0  0  0  0  0
  -17.3215  -40.2735   -7.0003 N   0  0  0  0  0  0  0  0  0  0  0  0
  -21.0362  -39.3364   -8.0333 C   0  0  0  0  0  0  0  0  0  0  0  0
  1  2  1  0
  2  3  1  0
  3  4  1  0
  4  5  1  0
  5  6  1  0
  6  7  2  0
  6  8  1  0
  8  9  1  1
  8 10  1  0
 10 11  1  0
 11 12  1  1
 11 13  1  0
 13 14  1  1
 14 15  1  0
 15 16  2  0
 16 17  1  0
 17 18  2  0
 18 19  1  0
 19 20  1  0
 20 21  1  0
 21 22  1  0
 22 23  1  0
 23 24  1  0
 24 25  1  0
 25 26  2  0
 26 27  1  0
 27 28  2  0
 28 29  1  0
 29 30  1  0
 29 31  2  0
 27 32  1  0
 32 33  2  0
 32 34  1  0
 19 35  2  0
 31 25  1  0
 34 13  1  0
 35 15  1  0
M  END
$$$$
