
     RDKit          3D

 35 37  0  0  0  0  0  0  0  0999 V2000
  -15.3940  -34.6362  -12.3920 C   0  0  0  0  0  0  0  0  0  0  0  0
  -14.7337  -35.9313  -12.0287 C   0  0  0  0  0  0  0  0  0  0  0  0
  -13.7526  -36.4040  -13.1000 C   0  0  0  0  0  0  0  0  0  0  0  0
  -13.1202  -37.7096  -12.7198 C   0  0  0  0  0  0  0  0  0  0  0  0
  -13.2313  -37.9701  -11.2880 N   0  0  0  0  0  0  0  0  0  0  0  0
  -13.9422  -39.0570  -10.7662 C   0  0  0  0  0  0  0  0  0  0  0  0
  -14.6561  -39.7259  -11.5772 O   0  0  0  0  0  0  0  0  0  0  0  0
  -13.8991  -39.4535   -9.3628 C   0  0  2  0  0  0  0  0  0  0  0  0
  -12.7207  -40.4402   -9.1865 C   0  0  0  0  0  0  0  0  0  0  0  0
  -15.1628  -40.1977   -8.8977 C   0  0  0  0  0  0  0  0  0  0  0  0
  -16.2674  -39.2269   -8.7380 C   0  0  2  0  0  0  0  0  0  0  0  0
  -15.8251  -38.3214   -7.7234 O   0  0  0  0  0  0  0  0  0  0  0  0
  -17.5129  -39.8617   -8.0635 C   0  0  2  0  0  0  0  0  0  0  0  0
  -18.3194  -38.6952   -7.5819 C   0  0  0  0  0  0  0  0  0  0  0  0
  -19.7016  -38.9183   -7.0845 C   0  0  0  0  0  0  0  0  0  0  0  0
  -19.8469  -38.4195   -5.7816 C   0  0  0  0  0  0  0  0  0  0  0  0
  -21.0158  -38.4879   -5.0489 C   0  0  0  0  0  0  0  0  0  0  0  0
  -22.0422  -39.0916   -5.7008 C   0  0  0  0  0  0  0  0  0  0  0  0
  -21.9610  -39.6184   -7.0183 C   0  0  0  0  0  0  0  0  0  0  0  0
  -23.2814  -40.2315   -7.3577 C   0  0  0  0  0  0  0  0  0  0  0  0
  -23.9940  -40.8592   -6.1868 C   0  0  0  0  0  0  0  0  0  0  0  0
  -23.2740  -41.7131   -5.2584 C   0  0  0  0  0  0  0  0  0  0  0  0
  -23.2203  -43.2063   -5.6027 C   0  0  0  0  0  0  0  0  0  0  0  0
  -22.3555  -43.4611   -6.7233 N   0  0  0  0  0  0  0  0  0  0  0  0
  -20.9297  -43.4277   -6.8655 C   0  0  0  0  0  0  0  0  0  0  0  0
  -19.9603  -42.5230   -6.5105 C   0  0  0  0  0  0  0  0  0  0  0  0
  -18.6383  -42.8034   -6.8908 C   0  0  0  0  0  0  0  0  0  0  0  0
  -18.3996  -44.0005   -7.6052 C   0  0  0  0  0  0  0  0  0  0  0  0
  -19.3672  -44.9006   -7.9538 C   0  0  0  0  0  0  0  0  0  0  0  0
  -19.0310  -46.1433   -8.7089 C   0  0  0  0  0  0  0  0  0  0  0  0
  -20.5796  -44.5819   -7.5753 N   0  0  0  0  0  0  0  0  0  0  0  0
  -17.3876  -42.0584   -6.7576 C   0  0  0  0  0  0  0  0  0  0  0  0
  -16.3467  -42.7621   -6.4016 O   0  0  0  0  0  0  0  0  0  0  0  0
  -17.0688  -40.6922   -6.9449 N   0  0  0  0  0  0  0  0  0  0  0  0
  -20.7843  -39.5226   -7.7009 C   0  0  0  0  0  0  0  0  0  0  0  0
  1  2  1  0
  2  3  1  0
  3  4  1  0
  4  5  1  0
  5  6  1  0
  6  7  2  0
  6  8  1  0
  8  9  1  6
  8 10  1  0
 10 11  1  0
 11 12  1  1
 11 13  1  0
 13 14  1  1
 14 15  1  0
 15 16  2  0
 16 17  1  0
 17 18  2  0
 18 19  1  0
 19 20  1  0
 20 21  1  0
 21 22  1  0
 22 23  1  0
 23 24  1  0
 24 25  1  0
 25 26  2  0
 26 27  1  0
 27 28  2  0
 28 29  1  0
 29 30  1  0
 29 31  2  0
 27 32  1  0
 32 33  2  0
 32 34  1  0
 19 35  2  0
 31 25  1  0
 34 13  1  0
 35 15  1  0
M  END
$$$$
