
     RDKit          3D

 35 37  0  0  0  0  0  0  0  0999 V2000
  -10.7572  -36.3410  -14.9894 C   0  0  0  0  0  0  0  0  0  0  0  0
  -11.1829  -37.5968  -14.2914 C   0  0  0  0  0  0  0  0  0  0  0  0
  -12.6239  -37.5230  -13.7898 C   0  0  0  0  0  0  0  0  0  0  0  0
  -13.0378  -38.8069  -13.1346 C   0  0  0  0  0  0  0  0  0  0  0  0
  -12.8733  -38.7545  -11.6852 N   0  0  0  0  0  0  0  0  0  0  0  0
  -13.7120  -39.4414  -10.7999 C   0  0  0  0  0  0  0  0  0  0  0  0
  -13.6695  -40.7111  -10.8282 O   0  0  0  0  0  0  0  0  0  0  0  0
  -14.6119  -38.7806   -9.8606 C   0  0  2  0  0  0  0  0  0  0  0  0
  -13.7525  -38.1950   -8.7153 C   0  0  0  0  0  0  0  0  0  0  0  0
  -15.6201  -39.7382   -9.2019 C   0  0  0  0  0  0  0  0  0  0  0  0
  -16.5363  -38.9609   -8.3391 C   0  0  2  0  0  0  0  0  0  0  0  0
  -15.8044  -38.7259   -7.1333 O   0  0  0  0  0  0  0  0  0  0  0  0
  -17.7208  -39.8187   -7.8190 C   0  0  2  0  0  0  0  0  0  0  0  0
  -18.7169  -38.8220   -7.3118 C   0  0  0  0  0  0  0  0  0  0  0  0
  -20.0834  -39.2763   -6.9457 C   0  0  0  0  0  0  0  0  0  0  0  0
  -20.3867  -38.9219   -5.6229 C   0  0  0  0  0  0  0  0  0  0  0  0
  -21.5807  -39.2157   -4.9937 C   0  0  0  0  0  0  0  0  0  0  0  0
  -22.4634  -39.8929   -5.7716 C   0  0  0  0  0  0  0  0  0  0  0  0
  -22.2183  -40.2825   -7.1162 C   0  0  0  0  0  0  0  0  0  0  0  0
  -23.4112  -41.0375   -7.6078 C   0  0  0  0  0  0  0  0  0  0  0  0
  -24.1041  -41.8601   -6.5515 C   0  0  0  0  0  0  0  0  0  0  0  0
  -23.3338  -42.6876   -5.6397 C   0  0  0  0  0  0  0  0  0  0  0  0
  -23.0434  -44.1221   -6.0968 C   0  0  0  0  0  0  0  0  0  0  0  0
  -22.0770  -44.1538   -7.1615 N   0  0  0  0  0  0  0  0  0  0  0  0
  -20.6644  -43.9126   -7.1863 C   0  0  0  0  0  0  0  0  0  0  0  0
  -19.8610  -42.9195   -6.6839 C   0  0  0  0  0  0  0  0  0  0  0  0
  -18.4898  -42.9806   -6.9787 C   0  0  0  0  0  0  0  0  0  0  0  0
  -18.0340  -44.0642   -7.7650 C   0  0  0  0  0  0  0  0  0  0  0  0
  -18.8367  -45.0532   -8.2605 C   0  0  0  0  0  0  0  0  0  0  0  0
  -18.2755  -46.1649   -9.0832 C   0  0  0  0  0  0  0  0  0  0  0  0
  -20.1051  -44.9391   -7.9558 N   0  0  0  0  0  0  0  0  0  0  0  0
  -17.3707  -42.0863   -6.6870 C   0  0  0  0  0  0  0  0  0  0  0  0
  -16.2663  -42.6700   -6.3064 O   0  0  0  0  0  0  0  0  0  0  0  0
  -17.2391  -40.6781   -6.7385 N   0  0  0  0  0  0  0  0  0  0  0  0
  -21.0240  -39.9651   -7.6929 C   0  0  0  0  0  0  0  0  0  0  0  0
  1  2  1  0
  2  3  1  0
  3  4  1  0
  4  5  1  0
  5  6  1  0
  6  7  2  0
  6  8  1  0
  8  9  1  1
  8 10  1  0
 10 11  1  0
 11 12  1  1
 11 13  1  0
 13 14  1  1
 14 15  1  0
 15 16  2  0
 16 17  1  0
 17 18  2  0
 18 19  1  0
 19 20  1  0
 20 21  1  0
 21 22  1  0
 22 23  1  0
 23 24  1  0
 24 25  1  0
 25 26  2  0
 26 27  1  0
 27 28  2  0
 28 29  1  0
 29 30  1  0
 29 31  2  0
 27 32  1  0
 32 33  2  0
 32 34  1  0
 19 35  2  0
 31 25  1  0
 34 13  1  0
 35 15  1  0
M  END
$$$$
