
     RDKit          3D

 35 37  0  0  0  0  0  0  0  0999 V2000
  -17.4534  -35.1529  -12.3583 C   0  0  0  0  0  0  0  0  0  0  0  0
  -16.6826  -36.4378  -12.3763 C   0  0  0  0  0  0  0  0  0  0  0  0
  -15.2898  -36.2715  -12.9812 C   0  0  0  0  0  0  0  0  0  0  0  0
  -14.5578  -37.5796  -13.0280 C   0  0  0  0  0  0  0  0  0  0  0  0
  -14.0346  -37.9561  -11.7184 N   0  0  0  0  0  0  0  0  0  0  0  0
  -14.4954  -39.0704  -11.0077 C   0  0  0  0  0  0  0  0  0  0  0  0
  -15.4178  -39.7598  -11.5449 O   0  0  0  0  0  0  0  0  0  0  0  0
  -13.9731  -39.4726   -9.7061 C   0  0  2  0  0  0  0  0  0  0  0  0
  -12.8723  -40.5329   -9.9459 C   0  0  0  0  0  0  0  0  0  0  0  0
  -15.0265  -40.1361   -8.8021 C   0  0  0  0  0  0  0  0  0  0  0  0
  -16.0807  -39.1498   -8.4795 C   0  0  2  0  0  0  0  0  0  0  0  0
  -15.5849  -38.4300   -7.3476 O   0  0  0  0  0  0  0  0  0  0  0  0
  -17.3494  -39.8201   -7.8876 C   0  0  2  0  0  0  0  0  0  0  0  0
  -18.2456  -38.6777   -7.5205 C   0  0  0  0  0  0  0  0  0  0  0  0
  -19.6538  -38.9497   -7.1322 C   0  0  0  0  0  0  0  0  0  0  0  0
  -19.9320  -38.4138   -5.8661 C   0  0  0  0  0  0  0  0  0  0  0  0
  -21.1550  -38.5129   -5.2317 C   0  0  0  0  0  0  0  0  0  0  0  0
  -22.0938  -39.1874   -5.9435 C   0  0  0  0  0  0  0  0  0  0  0  0
  -21.8768  -39.7549   -7.2282 C   0  0  0  0  0  0  0  0  0  0  0  0
  -23.1346  -40.4421   -7.6530 C   0  0  0  0  0  0  0  0  0  0  0  0
  -23.9155  -41.0625   -6.5226 C   0  0  0  0  0  0  0  0  0  0  0  0
  -23.2397  -41.8483   -5.5050 C   0  0  0  0  0  0  0  0  0  0  0  0
  -23.0897  -43.3481   -5.7859 C   0  0  0  0  0  0  0  0  0  0  0  0
  -22.1218  -43.5997   -6.8196 N   0  0  0  0  0  0  0  0  0  0  0  0
  -20.6920  -43.5027   -6.8432 C   0  0  0  0  0  0  0  0  0  0  0  0
  -19.7982  -42.5407   -6.4434 C   0  0  0  0  0  0  0  0  0  0  0  0
  -18.4373  -42.7702   -6.7008 C   0  0  0  0  0  0  0  0  0  0  0  0
  -18.0849  -43.9784   -7.3461 C   0  0  0  0  0  0  0  0  0  0  0  0
  -18.9777  -44.9355   -7.7395 C   0  0  0  0  0  0  0  0  0  0  0  0
  -18.5228  -46.1859   -8.4154 C   0  0  0  0  0  0  0  0  0  0  0  0
  -20.2310  -44.6625   -7.4763 N   0  0  0  0  0  0  0  0  0  0  0  0
  -17.2372  -41.9618   -6.4923 C   0  0  0  0  0  0  0  0  0  0  0  0
  -16.1999  -42.6018   -6.0236 O   0  0  0  0  0  0  0  0  0  0  0  0
  -16.9654  -40.5891   -6.7047 N   0  0  0  0  0  0  0  0  0  0  0  0
  -20.6517  -39.6263   -7.8132 C   0  0  0  0  0  0  0  0  0  0  0  0
  1  2  1  0
  2  3  1  0
  3  4  1  0
  4  5  1  0
  5  6  1  0
  6  7  2  0
  6  8  1  0
  8  9  1  6
  8 10  1  0
 10 11  1  0
 11 12  1  1
 11 13  1  0
 13 14  1  1
 14 15  1  0
 15 16  2  0
 16 17  1  0
 17 18  2  0
 18 19  1  0
 19 20  1  0
 20 21  1  0
 21 22  1  0
 22 23  1  0
 23 24  1  0
 24 25  1  0
 25 26  2  0
 26 27  1  0
 27 28  2  0
 28 29  1  0
 29 30  1  0
 29 31  2  0
 27 32  1  0
 32 33  2  0
 32 34  1  0
 19 35  2  0
 31 25  1  0
 34 13  1  0
 35 15  1  0
M  END
$$$$
