
     RDKit          3D

 35 37  0  0  0  0  0  0  0  0999 V2000
  -14.8486  -35.2627  -13.4168 C   0  0  0  0  0  0  0  0  0  0  0  0
  -13.3742  -35.3795  -13.1762 C   0  0  0  0  0  0  0  0  0  0  0  0
  -13.0532  -36.1537  -11.8991 C   0  0  0  0  0  0  0  0  0  0  0  0
  -13.7299  -37.4920  -11.8901 C   0  0  0  0  0  0  0  0  0  0  0  0
  -13.6639  -38.1249  -10.5766 N   0  0  0  0  0  0  0  0  0  0  0  0
  -14.1892  -39.3963  -10.3184 C   0  0  0  0  0  0  0  0  0  0  0  0
  -14.6404  -40.0496  -11.3106 O   0  0  0  0  0  0  0  0  0  0  0  0
  -14.2378  -39.9972   -8.9898 C   0  0  2  0  0  0  0  0  0  0  0  0
  -13.1370  -41.0821   -8.9213 C   0  0  0  0  0  0  0  0  0  0  0  0
  -15.5684  -40.7081   -8.6875 C   0  0  0  0  0  0  0  0  0  0  0  0
  -16.5865  -39.6990   -8.3224 C   0  0  2  0  0  0  0  0  0  0  0  0
  -16.0875  -39.0777   -7.1351 O   0  0  0  0  0  0  0  0  0  0  0  0
  -17.8967  -40.3494   -7.8032 C   0  0  2  0  0  0  0  0  0  0  0  0
  -18.8492  -39.2053   -7.6397 C   0  0  0  0  0  0  0  0  0  0  0  0
  -20.2846  -39.4820   -7.3741 C   0  0  0  0  0  0  0  0  0  0  0  0
  -20.7049  -38.8405   -6.1997 C   0  0  0  0  0  0  0  0  0  0  0  0
  -21.9855  -38.9171   -5.6876 C   0  0  0  0  0  0  0  0  0  0  0  0
  -22.8308  -39.6817   -6.4251 C   0  0  0  0  0  0  0  0  0  0  0  0
  -22.4687  -40.3583   -7.6213 C   0  0  0  0  0  0  0  0  0  0  0  0
  -23.6610  -41.1187   -8.1061 C   0  0  0  0  0  0  0  0  0  0  0  0
  -24.5438  -41.6554   -7.0083 C   0  0  0  0  0  0  0  0  0  0  0  0
  -23.9630  -42.3239   -5.8570 C   0  0  0  0  0  0  0  0  0  0  0  0
  -23.7545  -43.8381   -5.9779 C   0  0  0  0  0  0  0  0  0  0  0  0
  -22.6785  -44.1548   -6.8783 N   0  0  0  0  0  0  0  0  0  0  0  0
  -21.2564  -44.0179   -6.7641 C   0  0  0  0  0  0  0  0  0  0  0  0
  -20.4288  -42.9972   -6.3674 C   0  0  0  0  0  0  0  0  0  0  0  0
  -19.0442  -43.2089   -6.4608 C   0  0  0  0  0  0  0  0  0  0  0  0
  -18.6019  -44.4602   -6.9494 C   0  0  0  0  0  0  0  0  0  0  0  0
  -19.4292  -45.4756   -7.3401 C   0  0  0  0  0  0  0  0  0  0  0  0
  -18.8809  -46.7688   -7.8445 C   0  0  0  0  0  0  0  0  0  0  0  0
  -20.7084  -45.2169   -7.2339 N   0  0  0  0  0  0  0  0  0  0  0  0
  -17.8890  -42.3494   -6.2075 C   0  0  0  0  0  0  0  0  0  0  0  0
  -16.8941  -42.9126   -5.5765 O   0  0  0  0  0  0  0  0  0  0  0  0
  -17.6238  -40.9946   -6.5197 N   0  0  0  0  0  0  0  0  0  0  0  0
  -21.1918  -40.2477   -8.0869 C   0  0  0  0  0  0  0  0  0  0  0  0
  1  2  1  0
  2  3  1  0
  3  4  1  0
  4  5  1  0
  5  6  1  0
  6  7  2  0
  6  8  1  0
  8  9  1  6
  8 10  1  0
 10 11  1  0
 11 12  1  1
 11 13  1  0
 13 14  1  1
 14 15  1  0
 15 16  2  0
 16 17  1  0
 17 18  2  0
 18 19  1  0
 19 20  1  0
 20 21  1  0
 21 22  1  0
 22 23  1  0
 23 24  1  0
 24 25  1  0
 25 26  2  0
 26 27  1  0
 27 28  2  0
 28 29  1  0
 29 30  1  0
 29 31  2  0
 27 32  1  0
 32 33  2  0
 32 34  1  0
 19 35  2  0
 31 25  1  0
 34 13  1  0
 35 15  1  0
M  END
$$$$
