
     RDKit          3D

 35 37  0  0  0  0  0  0  0  0999 V2000
  -12.8510  -36.9290  -15.3719 C   0  0  0  0  0  0  0  0  0  0  0  0
  -13.7934  -37.1773  -14.2337 C   0  0  0  0  0  0  0  0  0  0  0  0
  -13.1176  -37.8921  -13.0649 C   0  0  0  0  0  0  0  0  0  0  0  0
  -13.7721  -37.5418  -11.7618 C   0  0  0  0  0  0  0  0  0  0  0  0
  -13.1956  -38.2871  -10.6472 N   0  0  0  0  0  0  0  0  0  0  0  0
  -13.7039  -39.5161  -10.2109 C   0  0  0  0  0  0  0  0  0  0  0  0
  -14.0760  -40.3396  -11.1043 O   0  0  0  0  0  0  0  0  0  0  0  0
  -13.8197  -39.8909   -8.8057 C   0  0  2  0  0  0  0  0  0  0  0  0
  -12.7619  -40.9828   -8.5191 C   0  0  0  0  0  0  0  0  0  0  0  0
  -15.1848  -40.5026   -8.4457 C   0  0  0  0  0  0  0  0  0  0  0  0
  -16.2090  -39.4353   -8.4386 C   0  0  2  0  0  0  0  0  0  0  0  0
  -15.7855  -38.5181   -7.4265 O   0  0  0  0  0  0  0  0  0  0  0  0
  -17.5639  -39.9268   -7.8625 C   0  0  2  0  0  0  0  0  0  0  0  0
  -18.4234  -38.7012   -7.8167 C   0  0  0  0  0  0  0  0  0  0  0  0
  -19.8750  -38.8373   -7.5304 C   0  0  0  0  0  0  0  0  0  0  0  0
  -20.2392  -38.0518   -6.4269 C   0  0  0  0  0  0  0  0  0  0  0  0
  -21.5199  -37.9771   -5.9146 C   0  0  0  0  0  0  0  0  0  0  0  0
  -22.4252  -38.7427   -6.5759 C   0  0  0  0  0  0  0  0  0  0  0  0
  -22.1219  -39.5605   -7.6979 C   0  0  0  0  0  0  0  0  0  0  0  0
  -23.3718  -40.2697   -8.1096 C   0  0  0  0  0  0  0  0  0  0  0  0
  -24.2894  -40.6245   -6.9674 C   0  0  0  0  0  0  0  0  0  0  0  0
  -23.7581  -41.2190   -5.7534 C   0  0  0  0  0  0  0  0  0  0  0  0
  -23.6689  -42.7494   -5.7230 C   0  0  0  0  0  0  0  0  0  0  0  0
  -22.6246  -43.2367   -6.5835 N   0  0  0  0  0  0  0  0  0  0  0  0
  -21.1957  -43.2008   -6.4781 C   0  0  0  0  0  0  0  0  0  0  0  0
  -20.2893  -42.2135   -6.1812 C   0  0  0  0  0  0  0  0  0  0  0  0
  -18.9258  -42.5409   -6.2479 C   0  0  0  0  0  0  0  0  0  0  0  0
  -18.5845  -43.8652   -6.6086 C   0  0  0  0  0  0  0  0  0  0  0  0
  -19.4901  -44.8465   -6.8999 C   0  0  0  0  0  0  0  0  0  0  0  0
  -19.0466  -46.2222   -7.2718 C   0  0  0  0  0  0  0  0  0  0  0  0
  -20.7449  -44.4794   -6.8248 N   0  0  0  0  0  0  0  0  0  0  0  0
  -17.7061  -41.7535   -6.0766 C   0  0  0  0  0  0  0  0  0  0  0  0
  -16.7557  -42.3274   -5.3891 O   0  0  0  0  0  0  0  0  0  0  0  0
  -17.3371  -40.4611   -6.5204 N   0  0  0  0  0  0  0  0  0  0  0  0
  -20.8420  -39.5966   -8.1674 C   0  0  0  0  0  0  0  0  0  0  0  0
  1  2  1  0
  2  3  1  0
  3  4  1  0
  4  5  1  0
  5  6  1  0
  6  7  2  0
  6  8  1  0
  8  9  1  6
  8 10  1  0
 10 11  1  0
 11 12  1  1
 11 13  1  0
 13 14  1  1
 14 15  1  0
 15 16  2  0
 16 17  1  0
 17 18  2  0
 18 19  1  0
 19 20  1  0
 20 21  1  0
 21 22  1  0
 22 23  1  0
 23 24  1  0
 24 25  1  0
 25 26  2  0
 26 27  1  0
 27 28  2  0
 28 29  1  0
 29 30  1  0
 29 31  2  0
 27 32  1  0
 32 33  2  0
 32 34  1  0
 19 35  2  0
 31 25  1  0
 34 13  1  0
 35 15  1  0
M  END
$$$$
