
     RDKit          3D

 35 37  0  0  0  0  0  0  0  0999 V2000
  -14.7631  -34.9077  -14.0680 C   0  0  0  0  0  0  0  0  0  0  0  0
  -15.7383  -35.9903  -13.7181 C   0  0  0  0  0  0  0  0  0  0  0  0
  -15.5403  -36.5137  -12.2966 C   0  0  0  0  0  0  0  0  0  0  0  0
  -14.2499  -37.2674  -12.1697 C   0  0  0  0  0  0  0  0  0  0  0  0
  -14.0156  -37.7158  -10.8006 N   0  0  0  0  0  0  0  0  0  0  0  0
  -14.4826  -38.9415  -10.3121 C   0  0  0  0  0  0  0  0  0  0  0  0
  -15.3080  -39.5786  -11.0384 O   0  0  0  0  0  0  0  0  0  0  0  0
  -14.0703  -39.5134   -9.0347 C   0  0  2  0  0  0  0  0  0  0  0  0
  -12.9892  -40.5821   -9.3224 C   0  0  0  0  0  0  0  0  0  0  0  0
  -15.2079  -40.2347   -8.2911 C   0  0  0  0  0  0  0  0  0  0  0  0
  -16.2981  -39.2725   -8.0200 C   0  0  2  0  0  0  0  0  0  0  0  0
  -15.9618  -38.6703   -6.7673 O   0  0  0  0  0  0  0  0  0  0  0  0
  -17.6339  -39.9825   -7.6725 C   0  0  2  0  0  0  0  0  0  0  0  0
  -18.5475  -38.8791   -7.2358 C   0  0  0  0  0  0  0  0  0  0  0  0
  -19.9936  -39.1611   -7.0437 C   0  0  0  0  0  0  0  0  0  0  0  0
  -20.4004  -38.8086   -5.7484 C   0  0  0  0  0  0  0  0  0  0  0  0
  -21.6868  -38.9617   -5.2689 C   0  0  0  0  0  0  0  0  0  0  0  0
  -22.5522  -39.4947   -6.1688 C   0  0  0  0  0  0  0  0  0  0  0  0
  -22.2047  -39.8738   -7.4937 C   0  0  0  0  0  0  0  0  0  0  0  0
  -23.4188  -40.4516   -8.1471 C   0  0  0  0  0  0  0  0  0  0  0  0
  -24.3278  -41.2067   -7.2111 C   0  0  0  0  0  0  0  0  0  0  0  0
  -23.7792  -42.1540   -6.2566 C   0  0  0  0  0  0  0  0  0  0  0  0
  -23.6221  -43.6003   -6.7409 C   0  0  0  0  0  0  0  0  0  0  0  0
  -22.5510  -43.7273   -7.6923 N   0  0  0  0  0  0  0  0  0  0  0  0
  -21.1259  -43.6725   -7.5497 C   0  0  0  0  0  0  0  0  0  0  0  0
  -20.2666  -42.8081   -6.9184 C   0  0  0  0  0  0  0  0  0  0  0  0
  -18.8894  -43.0396   -7.0616 C   0  0  0  0  0  0  0  0  0  0  0  0
  -18.4868  -44.1502   -7.8393 C   0  0  0  0  0  0  0  0  0  0  0  0
  -19.3457  -45.0109   -8.4635 C   0  0  0  0  0  0  0  0  0  0  0  0
  -18.8386  -46.1621   -9.2667 C   0  0  0  0  0  0  0  0  0  0  0  0
  -20.6160  -44.7406   -8.2966 N   0  0  0  0  0  0  0  0  0  0  0  0
  -17.7073  -42.3084   -6.6089 C   0  0  0  0  0  0  0  0  0  0  0  0
  -16.7372  -43.0424   -6.1340 O   0  0  0  0  0  0  0  0  0  0  0  0
  -17.3931  -40.9286   -6.5838 N   0  0  0  0  0  0  0  0  0  0  0  0
  -20.9212  -39.6989   -7.9199 C   0  0  0  0  0  0  0  0  0  0  0  0
  1  2  1  0
  2  3  1  0
  3  4  1  0
  4  5  1  0
  5  6  1  0
  6  7  2  0
  6  8  1  0
  8  9  1  6
  8 10  1  0
 10 11  1  0
 11 12  1  1
 11 13  1  0
 13 14  1  1
 14 15  1  0
 15 16  2  0
 16 17  1  0
 17 18  2  0
 18 19  1  0
 19 20  1  0
 20 21  1  0
 21 22  1  0
 22 23  1  0
 23 24  1  0
 24 25  1  0
 25 26  2  0
 26 27  1  0
 27 28  2  0
 28 29  1  0
 29 30  1  0
 29 31  2  0
 27 32  1  0
 32 33  2  0
 32 34  1  0
 19 35  2  0
 31 25  1  0
 34 13  1  0
 35 15  1  0
M  END
$$$$
