
     RDKit          3D

 35 37  0  0  0  0  0  0  0  0999 V2000
  -11.3577  -37.9261  -12.2999 C   0  0  0  0  0  0  0  0  0  0  0  0
  -12.1154  -36.8740  -11.5486 C   0  0  0  0  0  0  0  0  0  0  0  0
  -13.3883  -37.4220  -10.9059 C   0  0  0  0  0  0  0  0  0  0  0  0
  -14.1043  -36.3596  -10.1262 C   0  0  0  0  0  0  0  0  0  0  0  0
  -15.4571  -36.7708   -9.7640 N   0  0  0  0  0  0  0  0  0  0  0  0
  -15.7306  -37.6153   -8.6818 C   0  0  0  0  0  0  0  0  0  0  0  0
  -14.9543  -38.6064   -8.5092 O   0  0  0  0  0  0  0  0  0  0  0  0
  -16.8409  -37.4121   -7.7573 C   0  0  2  0  0  0  0  0  0  0  0  0
  -16.2577  -37.3445   -6.3260 C   0  0  0  0  0  0  0  0  0  0  0  0
  -17.8577  -38.5668   -7.7586 C   0  0  0  0  0  0  0  0  0  0  0  0
  -17.2246  -39.7713   -8.3387 C   0  0  2  0  0  0  0  0  0  0  0  0
  -17.1804  -39.5283   -9.7472 O   0  0  0  0  0  0  0  0  0  0  0  0
  -18.1532  -41.0131   -8.2687 C   0  0  2  0  0  0  0  0  0  0  0  0
  -17.4812  -42.0382   -9.1292 C   0  0  0  0  0  0  0  0  0  0  0  0
  -17.9729  -43.4402   -9.1143 C   0  0  0  0  0  0  0  0  0  0  0  0
  -18.3043  -43.8639  -10.4097 C   0  0  0  0  0  0  0  0  0  0  0  0
  -18.7981  -45.1173  -10.7152 C   0  0  0  0  0  0  0  0  0  0  0  0
  -18.9443  -45.9311   -9.6385 C   0  0  0  0  0  0  0  0  0  0  0  0
  -18.6290  -45.5638   -8.3023 C   0  0  0  0  0  0  0  0  0  0  0  0
  -18.9658  -46.7151   -7.4103 C   0  0  0  0  0  0  0  0  0  0  0  0
  -20.1602  -47.5188   -7.8578 C   0  0  0  0  0  0  0  0  0  0  0  0
  -21.3765  -46.8523   -8.2889 C   0  0  0  0  0  0  0  0  0  0  0  0
  -22.4094  -46.5410   -7.1992 C   0  0  0  0  0  0  0  0  0  0  0  0
  -21.9672  -45.4772   -6.3381 N   0  0  0  0  0  0  0  0  0  0  0  0
  -21.8323  -44.0653   -6.5443 C   0  0  0  0  0  0  0  0  0  0  0  0
  -21.2709  -43.2991   -7.5352 C   0  0  0  0  0  0  0  0  0  0  0  0
  -21.2613  -41.9070   -7.3543 C   0  0  0  0  0  0  0  0  0  0  0  0
  -21.8369  -41.3941   -6.1686 C   0  0  0  0  0  0  0  0  0  0  0  0
  -22.3982  -42.1602   -5.1858 C   0  0  0  0  0  0  0  0  0  0  0  0
  -22.9865  -41.5393   -3.9627 C   0  0  0  0  0  0  0  0  0  0  0  0
  -22.3732  -43.4502   -5.4096 N   0  0  0  0  0  0  0  0  0  0  0  0
  -20.7002  -40.8077   -8.1379 C   0  0  0  0  0  0  0  0  0  0  0  0
  -21.4620  -39.7539   -8.2580 O   0  0  0  0  0  0  0  0  0  0  0  0
  -19.4633  -40.6505   -8.8076 N   0  0  0  0  0  0  0  0  0  0  0  0
  -18.1409  -44.3149   -8.0540 C   0  0  0  0  0  0  0  0  0  0  0  0
  1  2  1  0
  2  3  1  0
  3  4  1  0
  4  5  1  0
  5  6  1  0
  6  7  2  0
  6  8  1  0
  8  9  1  1
  8 10  1  0
 10 11  1  0
 11 12  1  6
 11 13  1  0
 13 14  1  6
 14 15  1  0
 15 16  2  0
 16 17  1  0
 17 18  2  0
 18 19  1  0
 19 20  1  0
 20 21  1  0
 21 22  1  0
 22 23  1  0
 23 24  1  0
 24 25  1  0
 25 26  2  0
 26 27  1  0
 27 28  2  0
 28 29  1  0
 29 30  1  0
 29 31  2  0
 27 32  1  0
 32 33  2  0
 32 34  1  0
 19 35  2  0
 31 25  1  0
 34 13  1  0
 35 15  1  0
M  END
$$$$
