
     RDKit          3D

 35 37  0  0  0  0  0  0  0  0999 V2000
  -12.9571  -37.2901  -14.1733 C   0  0  0  0  0  0  0  0  0  0  0  0
  -13.7732  -36.3032  -13.3952 C   0  0  0  0  0  0  0  0  0  0  0  0
  -13.6255  -36.4885  -11.8860 C   0  0  0  0  0  0  0  0  0  0  0  0
  -13.6019  -37.9418  -11.5166 C   0  0  0  0  0  0  0  0  0  0  0  0
  -14.7854  -38.3276  -10.7546 N   0  0  0  0  0  0  0  0  0  0  0  0
  -14.9786  -37.9664   -9.4162 C   0  0  0  0  0  0  0  0  0  0  0  0
  -13.9408  -37.8446   -8.6930 O   0  0  0  0  0  0  0  0  0  0  0  0
  -16.2900  -37.7229   -8.8249 C   0  0  2  0  0  0  0  0  0  0  0  0
  -16.6599  -36.2440   -9.0883 C   0  0  0  0  0  0  0  0  0  0  0  0
  -16.3183  -37.9132   -7.2984 C   0  0  0  0  0  0  0  0  0  0  0  0
  -16.0199  -39.3264   -6.9792 C   0  0  2  0  0  0  0  0  0  0  0  0
  -14.9709  -39.6986   -7.8770 O   0  0  0  0  0  0  0  0  0  0  0  0
  -17.1600  -40.2813   -7.4238 C   0  0  2  0  0  0  0  0  0  0  0  0
  -16.6219  -41.6565   -7.1743 C   0  0  0  0  0  0  0  0  0  0  0  0
  -17.5331  -42.8260   -7.2709 C   0  0  0  0  0  0  0  0  0  0  0  0
  -17.0407  -43.7645   -8.1897 C   0  0  0  0  0  0  0  0  0  0  0  0
  -17.6726  -44.9525   -8.5017 C   0  0  0  0  0  0  0  0  0  0  0  0
  -18.8390  -45.1496   -7.8356 C   0  0  0  0  0  0  0  0  0  0  0  0
  -19.3930  -44.2398   -6.8948 C   0  0  0  0  0  0  0  0  0  0  0  0
  -20.6949  -44.7981   -6.4171 C   0  0  0  0  0  0  0  0  0  0  0  0
  -21.4548  -45.5797   -7.4583 C   0  0  0  0  0  0  0  0  0  0  0  0
  -21.6021  -45.0605   -8.8067 C   0  0  0  0  0  0  0  0  0  0  0  0
  -22.8196  -44.1654   -9.0663 C   0  0  0  0  0  0  0  0  0  0  0  0
  -22.6756  -42.8794   -8.4385 N   0  0  0  0  0  0  0  0  0  0  0  0
  -21.8442  -41.7507   -8.7368 C   0  0  0  0  0  0  0  0  0  0  0  0
  -20.5082  -41.6015   -9.0144 C   0  0  0  0  0  0  0  0  0  0  0  0
  -20.0215  -40.2960   -9.1864 C   0  0  0  0  0  0  0  0  0  0  0  0
  -20.9433  -39.2298   -9.0689 C   0  0  0  0  0  0  0  0  0  0  0  0
  -22.2737  -39.3827   -8.7959 C   0  0  0  0  0  0  0  0  0  0  0  0
  -23.1815  -38.2029   -8.6890 C   0  0  0  0  0  0  0  0  0  0  0  0
  -22.6665  -40.6223   -8.6417 N   0  0  0  0  0  0  0  0  0  0  0  0
  -18.6813  -39.7579   -9.4133 C   0  0  0  0  0  0  0  0  0  0  0  0
  -18.5989  -38.8042  -10.3015 O   0  0  0  0  0  0  0  0  0  0  0  0
  -17.4221  -40.0687   -8.8466 N   0  0  0  0  0  0  0  0  0  0  0  0
  -18.7278  -43.0818   -6.6191 C   0  0  0  0  0  0  0  0  0  0  0  0
  1  2  1  0
  2  3  1  0
  3  4  1  0
  4  5  1  0
  5  6  1  0
  6  7  2  0
  6  8  1  0
  8  9  1  1
  8 10  1  0
 10 11  1  0
 11 12  1  6
 11 13  1  0
 13 14  1  6
 14 15  1  0
 15 16  2  0
 16 17  1  0
 17 18  2  0
 18 19  1  0
 19 20  1  0
 20 21  1  0
 21 22  1  0
 22 23  1  0
 23 24  1  0
 24 25  1  0
 25 26  2  0
 26 27  1  0
 27 28  2  0
 28 29  1  0
 29 30  1  0
 29 31  2  0
 27 32  1  0
 32 33  2  0
 32 34  1  0
 19 35  2  0
 31 25  1  0
 34 13  1  0
 35 15  1  0
M  END
$$$$
