
     RDKit          3D

 35 37  0  0  0  0  0  0  0  0999 V2000
  -14.9176  -34.6233  -12.6506 C   0  0  0  0  0  0  0  0  0  0  0  0
  -14.7169  -35.7879  -11.7293 C   0  0  0  0  0  0  0  0  0  0  0  0
  -15.1148  -37.1143  -12.3741 C   0  0  0  0  0  0  0  0  0  0  0  0
  -13.9153  -37.9797  -12.6219 C   0  0  0  0  0  0  0  0  0  0  0  0
  -13.3417  -38.4817  -11.3771 N   0  0  0  0  0  0  0  0  0  0  0  0
  -14.0382  -39.3273  -10.5061 C   0  0  0  0  0  0  0  0  0  0  0  0
  -14.9644  -40.0392  -11.0062 O   0  0  0  0  0  0  0  0  0  0  0  0
  -13.7531  -39.4315   -9.0790 C   0  0  2  0  0  0  0  0  0  0  0  0
  -12.5669  -40.4091   -8.9043 C   0  0  0  0  0  0  0  0  0  0  0  0
  -14.9201  -40.0132   -8.2623 C   0  0  0  0  0  0  0  0  0  0  0  0
  -16.0197  -39.0250   -8.2140 C   0  0  2  0  0  0  0  0  0  0  0  0
  -15.7818  -38.2591   -7.0301 O   0  0  0  0  0  0  0  0  0  0  0  0
  -17.3862  -39.6839   -7.8860 C   0  0  2  0  0  0  0  0  0  0  0  0
  -18.3450  -38.5380   -7.7836 C   0  0  0  0  0  0  0  0  0  0  0  0
  -19.8034  -38.8108   -7.7044 C   0  0  0  0  0  0  0  0  0  0  0  0
  -20.3577  -38.2193   -6.5596 C   0  0  0  0  0  0  0  0  0  0  0  0
  -21.6908  -38.3052   -6.2082 C   0  0  0  0  0  0  0  0  0  0  0  0
  -22.4459  -39.0256   -7.0763 C   0  0  0  0  0  0  0  0  0  0  0  0
  -21.9471  -39.6504   -8.2514 C   0  0  0  0  0  0  0  0  0  0  0  0
  -23.0770  -40.3743   -8.9102 C   0  0  0  0  0  0  0  0  0  0  0  0
  -24.0877  -40.9512   -7.9519 C   0  0  0  0  0  0  0  0  0  0  0  0
  -23.6526  -41.6784   -6.7724 C   0  0  0  0  0  0  0  0  0  0  0  0
  -23.4395  -43.1876   -6.9387 C   0  0  0  0  0  0  0  0  0  0  0  0
  -22.2653  -43.4744   -7.7182 N   0  0  0  0  0  0  0  0  0  0  0  0
  -20.8663  -43.3589   -7.4289 C   0  0  0  0  0  0  0  0  0  0  0  0
  -20.0866  -42.3667   -6.8887 C   0  0  0  0  0  0  0  0  0  0  0  0
  -18.7019  -42.5893   -6.8261 C   0  0  0  0  0  0  0  0  0  0  0  0
  -18.2112  -43.8217   -7.3169 C   0  0  0  0  0  0  0  0  0  0  0  0
  -18.9914  -44.8087   -7.8508 C   0  0  0  0  0  0  0  0  0  0  0  0
  -18.3940  -46.0833   -8.3465 C   0  0  0  0  0  0  0  0  0  0  0  0
  -20.2728  -44.5409   -7.8859 N   0  0  0  0  0  0  0  0  0  0  0  0
  -17.5806  -41.7553   -6.3967 C   0  0  0  0  0  0  0  0  0  0  0  0
  -16.6715  -42.3580   -5.6787 O   0  0  0  0  0  0  0  0  0  0  0  0
  -17.2724  -40.3907   -6.6109 N   0  0  0  0  0  0  0  0  0  0  0  0
  -20.6230  -39.5327   -8.5556 C   0  0  0  0  0  0  0  0  0  0  0  0
  1  2  1  0
  2  3  1  0
  3  4  1  0
  4  5  1  0
  5  6  1  0
  6  7  2  0
  6  8  1  0
  8  9  1  6
  8 10  1  0
 10 11  1  0
 11 12  1  1
 11 13  1  0
 13 14  1  1
 14 15  1  0
 15 16  2  0
 16 17  1  0
 17 18  2  0
 18 19  1  0
 19 20  1  0
 20 21  1  0
 21 22  1  0
 22 23  1  0
 23 24  1  0
 24 25  1  0
 25 26  2  0
 26 27  1  0
 27 28  2  0
 28 29  1  0
 29 30  1  0
 29 31  2  0
 27 32  1  0
 32 33  2  0
 32 34  1  0
 19 35  2  0
 31 25  1  0
 34 13  1  0
 35 15  1  0
M  END
$$$$
