
     RDKit          3D

 35 37  0  0  0  0  0  0  0  0999 V2000
  -12.4857  -34.5378  -13.0462 C   0  0  0  0  0  0  0  0  0  0  0  0
  -12.3926  -35.3770  -11.8083 C   0  0  0  0  0  0  0  0  0  0  0  0
  -12.9677  -36.7776  -12.0111 C   0  0  0  0  0  0  0  0  0  0  0  0
  -14.2247  -36.9695  -11.2158 C   0  0  0  0  0  0  0  0  0  0  0  0
  -14.7814  -38.3068  -11.3946 N   0  0  0  0  0  0  0  0  0  0  0  0
  -14.6972  -39.3023  -10.4143 C   0  0  0  0  0  0  0  0  0  0  0  0
  -15.1749  -40.4435  -10.7043 O   0  0  0  0  0  0  0  0  0  0  0  0
  -14.0938  -39.0965   -9.1019 C   0  0  2  0  0  0  0  0  0  0  0  0
  -12.7879  -39.9241   -9.0472 C   0  0  0  0  0  0  0  0  0  0  0  0
  -14.9720  -39.5922   -7.9398 C   0  0  0  0  0  0  0  0  0  0  0  0
  -16.1977  -38.7670   -7.8705 C   0  0  2  0  0  0  0  0  0  0  0  0
  -16.0611  -37.9952   -6.6744 O   0  0  0  0  0  0  0  0  0  0  0  0
  -17.4576  -39.6145   -7.5489 C   0  0  2  0  0  0  0  0  0  0  0  0
  -18.5305  -38.6079   -7.2686 C   0  0  0  0  0  0  0  0  0  0  0  0
  -19.9409  -39.0586   -7.1456 C   0  0  0  0  0  0  0  0  0  0  0  0
  -20.4833  -38.6618   -5.9144 C   0  0  0  0  0  0  0  0  0  0  0  0
  -21.7730  -38.9421   -5.5066 C   0  0  0  0  0  0  0  0  0  0  0  0
  -22.4967  -39.6509   -6.4104 C   0  0  0  0  0  0  0  0  0  0  0  0
  -22.0074  -40.0838   -7.6725 C   0  0  0  0  0  0  0  0  0  0  0  0
  -23.0889  -40.8628   -8.3496 C   0  0  0  0  0  0  0  0  0  0  0  0
  -23.9648  -41.6539   -7.4117 C   0  0  0  0  0  0  0  0  0  0  0  0
  -23.3759  -42.4452   -6.3457 C   0  0  0  0  0  0  0  0  0  0  0  0
  -23.0058  -43.8924   -6.6920 C   0  0  0  0  0  0  0  0  0  0  0  0
  -21.8594  -43.9535   -7.5583 N   0  0  0  0  0  0  0  0  0  0  0  0
  -20.4665  -43.7041   -7.3304 C   0  0  0  0  0  0  0  0  0  0  0  0
  -19.7699  -42.6893   -6.7226 C   0  0  0  0  0  0  0  0  0  0  0  0
  -18.3679  -42.7514   -6.7570 C   0  0  0  0  0  0  0  0  0  0  0  0
  -17.7745  -43.8578   -7.4083 C   0  0  0  0  0  0  0  0  0  0  0  0
  -18.4717  -44.8682   -8.0092 C   0  0  0  0  0  0  0  0  0  0  0  0
  -17.7680  -46.0031   -8.6756 C   0  0  0  0  0  0  0  0  0  0  0  0
  -19.7746  -44.7521   -7.9478 N   0  0  0  0  0  0  0  0  0  0  0  0
  -17.3220  -41.8405   -6.2947 C   0  0  0  0  0  0  0  0  0  0  0  0
  -16.3067  -42.4038   -5.6971 O   0  0  0  0  0  0  0  0  0  0  0  0
  -17.1835  -40.4339   -6.3692 N   0  0  0  0  0  0  0  0  0  0  0  0
  -20.7273  -39.7783   -8.0294 C   0  0  0  0  0  0  0  0  0  0  0  0
  1  2  1  0
  2  3  1  0
  3  4  1  0
  4  5  1  0
  5  6  1  0
  6  7  2  0
  6  8  1  0
  8  9  1  6
  8 10  1  0
 10 11  1  0
 11 12  1  1
 11 13  1  0
 13 14  1  1
 14 15  1  0
 15 16  2  0
 16 17  1  0
 17 18  2  0
 18 19  1  0
 19 20  1  0
 20 21  1  0
 21 22  1  0
 22 23  1  0
 23 24  1  0
 24 25  1  0
 25 26  2  0
 26 27  1  0
 27 28  2  0
 28 29  1  0
 29 30  1  0
 29 31  2  0
 27 32  1  0
 32 33  2  0
 32 34  1  0
 19 35  2  0
 31 25  1  0
 34 13  1  0
 35 15  1  0
M  END
$$$$
