
     RDKit          3D

 35 37  0  0  0  0  0  0  0  0999 V2000
  -16.7487  -43.9759  -12.0435 C   0  0  0  0  0  0  0  0  0  0  0  0
  -16.0558  -42.7500  -12.5557 C   0  0  0  0  0  0  0  0  0  0  0  0
  -16.1740  -41.5704  -11.5924 C   0  0  0  0  0  0  0  0  0  0  0  0
  -15.5414  -40.3365  -12.1637 C   0  0  0  0  0  0  0  0  0  0  0  0
  -14.2536  -40.0481  -11.5402 N   0  0  0  0  0  0  0  0  0  0  0  0
  -14.1138  -39.7822  -10.1732 C   0  0  0  0  0  0  0  0  0  0  0  0
  -13.3403  -40.5422   -9.5108 O   0  0  0  0  0  0  0  0  0  0  0  0
  -14.7976  -38.6911   -9.4870 C   0  0  2  0  0  0  0  0  0  0  0  0
  -13.9086  -37.4302   -9.6012 C   0  0  0  0  0  0  0  0  0  0  0  0
  -15.0008  -38.9454   -7.9833 C   0  0  0  0  0  0  0  0  0  0  0  0
  -16.2830  -38.3431   -7.5574 C   0  0  2  0  0  0  0  0  0  0  0  0
  -16.1764  -38.2023   -6.1384 O   0  0  0  0  0  0  0  0  0  0  0  0
  -17.4678  -39.3383   -7.6806 C   0  0  2  0  0  0  0  0  0  0  0  0
  -18.6697  -38.5514   -7.2572 C   0  0  0  0  0  0  0  0  0  0  0  0
  -20.0262  -39.1196   -7.4683 C   0  0  0  0  0  0  0  0  0  0  0  0
  -20.7370  -39.1698   -6.2600 C   0  0  0  0  0  0  0  0  0  0  0  0
  -22.0234  -39.6571   -6.1346 C   0  0  0  0  0  0  0  0  0  0  0  0
  -22.5637  -40.0974   -7.2995 C   0  0  0  0  0  0  0  0  0  0  0  0
  -21.8982  -40.0756   -8.5551 C   0  0  0  0  0  0  0  0  0  0  0  0
  -22.8082  -40.6795   -9.5758 C   0  0  0  0  0  0  0  0  0  0  0  0
  -23.6852  -41.7865   -9.0485 C   0  0  0  0  0  0  0  0  0  0  0  0
  -23.1283  -42.8272   -8.2021 C   0  0  0  0  0  0  0  0  0  0  0  0
  -22.5648  -44.0616   -8.9161 C   0  0  0  0  0  0  0  0  0  0  0  0
  -21.3333  -43.7641   -9.5969 N   0  0  0  0  0  0  0  0  0  0  0  0
  -20.0090  -43.4979   -9.1178 C   0  0  0  0  0  0  0  0  0  0  0  0
  -19.4981  -42.6771   -8.1434 C   0  0  0  0  0  0  0  0  0  0  0  0
  -18.1022  -42.6228   -8.0048 C   0  0  0  0  0  0  0  0  0  0  0  0
  -17.3236  -43.4226   -8.8734 C   0  0  0  0  0  0  0  0  0  0  0  0
  -17.8363  -44.2415   -9.8401 C   0  0  0  0  0  0  0  0  0  0  0  0
  -16.9439  -45.0556  -10.7167 C   0  0  0  0  0  0  0  0  0  0  0  0
  -19.1431  -44.2459   -9.9235 N   0  0  0  0  0  0  0  0  0  0  0  0
  -17.2192  -41.8292   -7.1517 C   0  0  0  0  0  0  0  0  0  0  0  0
  -16.2167  -42.4759   -6.6206 O   0  0  0  0  0  0  0  0  0  0  0  0
  -17.2309  -40.4641   -6.7781 N   0  0  0  0  0  0  0  0  0  0  0  0
  -20.6293  -39.5810   -8.6262 C   0  0  0  0  0  0  0  0  0  0  0  0
  1  2  1  0
  2  3  1  0
  3  4  1  0
  4  5  1  0
  5  6  1  0
  6  7  2  0
  6  8  1  0
  8  9  1  1
  8 10  1  0
 10 11  1  0
 11 12  1  1
 11 13  1  0
 13 14  1  1
 14 15  1  0
 15 16  2  0
 16 17  1  0
 17 18  2  0
 18 19  1  0
 19 20  1  0
 20 21  1  0
 21 22  1  0
 22 23  1  0
 23 24  1  0
 24 25  1  0
 25 26  2  0
 26 27  1  0
 27 28  2  0
 28 29  1  0
 29 30  1  0
 29 31  2  0
 27 32  1  0
 32 33  2  0
 32 34  1  0
 19 35  2  0
 31 25  1  0
 34 13  1  0
 35 15  1  0
M  END
$$$$
