
     RDKit          3D

 35 37  0  0  0  0  0  0  0  0999 V2000
  -14.7666  -35.5872  -11.1076 C   0  0  0  0  0  0  0  0  0  0  0  0
  -14.1400  -35.9688  -12.4142 C   0  0  0  0  0  0  0  0  0  0  0  0
  -13.5121  -37.3608  -12.3731 C   0  0  0  0  0  0  0  0  0  0  0  0
  -14.5600  -38.4263  -12.2476 C   0  0  0  0  0  0  0  0  0  0  0  0
  -14.0936  -39.5549  -11.4481 N   0  0  0  0  0  0  0  0  0  0  0  0
  -14.5387  -39.7974  -10.1435 C   0  0  0  0  0  0  0  0  0  0  0  0
  -15.3917  -40.7258   -9.9851 O   0  0  0  0  0  0  0  0  0  0  0  0
  -14.0745  -39.0518   -8.9784 C   0  0  2  0  0  0  0  0  0  0  0  0
  -12.7740  -39.7222   -8.4758 C   0  0  0  0  0  0  0  0  0  0  0  0
  -15.0626  -39.0808   -7.7994 C   0  0  0  0  0  0  0  0  0  0  0  0
  -16.1794  -38.1519   -8.0782 C   0  0  2  0  0  0  0  0  0  0  0  0
  -16.2365  -37.2849   -6.9424 O   0  0  0  0  0  0  0  0  0  0  0  0
  -17.5608  -38.8553   -7.9993 C   0  0  2  0  0  0  0  0  0  0  0  0
  -18.5577  -37.7587   -8.2147 C   0  0  0  0  0  0  0  0  0  0  0  0
  -19.9865  -38.1029   -8.4329 C   0  0  0  0  0  0  0  0  0  0  0  0
  -20.8028  -37.4516   -7.4964 C   0  0  0  0  0  0  0  0  0  0  0  0
  -22.1769  -37.5810   -7.4397 C   0  0  0  0  0  0  0  0  0  0  0  0
  -22.6934  -38.4095   -8.3830 C   0  0  0  0  0  0  0  0  0  0  0  0
  -21.9232  -39.0994   -9.3580 C   0  0  0  0  0  0  0  0  0  0  0  0
  -22.8514  -39.9347  -10.1799 C   0  0  0  0  0  0  0  0  0  0  0  0
  -24.0298  -40.4860   -9.4183 C   0  0  0  0  0  0  0  0  0  0  0  0
  -23.8439  -41.0904   -8.1107 C   0  0  0  0  0  0  0  0  0  0  0  0
  -23.5464  -42.5944   -8.0879 C   0  0  0  0  0  0  0  0  0  0  0  0
  -22.2185  -42.8792   -8.5614 N   0  0  0  0  0  0  0  0  0  0  0  0
  -20.9243  -42.6647   -7.9839 C   0  0  0  0  0  0  0  0  0  0  0  0
  -20.3201  -41.5911   -7.3785 C   0  0  0  0  0  0  0  0  0  0  0  0
  -18.9774  -41.7323   -6.9936 C   0  0  0  0  0  0  0  0  0  0  0  0
  -18.3467  -42.9720   -7.2503 C   0  0  0  0  0  0  0  0  0  0  0  0
  -18.9530  -44.0399   -7.8502 C   0  0  0  0  0  0  0  0  0  0  0  0
  -18.2157  -45.3163   -8.0844 C   0  0  0  0  0  0  0  0  0  0  0  0
  -20.2027  -43.8459   -8.1899 N   0  0  0  0  0  0  0  0  0  0  0  0
  -18.0102  -40.8066   -6.4065 C   0  0  0  0  0  0  0  0  0  0  0  0
  -17.2639  -41.2987   -5.4547 O   0  0  0  0  0  0  0  0  0  0  0  0
  -17.7099  -39.4490   -6.6714 N   0  0  0  0  0  0  0  0  0  0  0  0
  -20.5695  -38.9350   -9.3738 C   0  0  0  0  0  0  0  0  0  0  0  0
  1  2  1  0
  2  3  1  0
  3  4  1  0
  4  5  1  0
  5  6  1  0
  6  7  2  0
  6  8  1  0
  8  9  1  1
  8 10  1  0
 10 11  1  0
 11 12  1  1
 11 13  1  0
 13 14  1  1
 14 15  1  0
 15 16  2  0
 16 17  1  0
 17 18  2  0
 18 19  1  0
 19 20  1  0
 20 21  1  0
 21 22  1  0
 22 23  1  0
 23 24  1  0
 24 25  1  0
 25 26  2  0
 26 27  1  0
 27 28  2  0
 28 29  1  0
 29 30  1  0
 29 31  2  0
 27 32  1  0
 32 33  2  0
 32 34  1  0
 19 35  2  0
 31 25  1  0
 34 13  1  0
 35 15  1  0
M  END
$$$$
