
     RDKit          3D

 35 37  0  0  0  0  0  0  0  0999 V2000
  -12.2031  -34.0588  -12.3095 C   0  0  0  0  0  0  0  0  0  0  0  0
  -13.4206  -34.6898  -11.7055 C   0  0  0  0  0  0  0  0  0  0  0  0
  -13.5675  -36.1596  -12.0952 C   0  0  0  0  0  0  0  0  0  0  0  0
  -14.8274  -36.7477  -11.5331 C   0  0  0  0  0  0  0  0  0  0  0  0
  -14.9953  -38.1443  -11.9225 N   0  0  0  0  0  0  0  0  0  0  0  0
  -15.1265  -39.1820  -10.9923 C   0  0  0  0  0  0  0  0  0  0  0  0
  -15.7628  -40.2171  -11.3644 O   0  0  0  0  0  0  0  0  0  0  0  0
  -14.5733  -39.1339   -9.6431 C   0  0  2  0  0  0  0  0  0  0  0  0
  -13.2970  -40.0079   -9.6243 C   0  0  0  0  0  0  0  0  0  0  0  0
  -15.5148  -39.7159   -8.5743 C   0  0  0  0  0  0  0  0  0  0  0  0
  -16.8164  -39.0161   -8.6402 C   0  0  2  0  0  0  0  0  0  0  0  0
  -16.7232  -37.9627   -7.6775 O   0  0  0  0  0  0  0  0  0  0  0  0
  -17.9716  -39.8700   -8.0524 C   0  0  2  0  0  0  0  0  0  0  0  0
  -19.0041  -38.8713   -7.6290 C   0  0  0  0  0  0  0  0  0  0  0  0
  -20.3549  -39.3425   -7.2278 C   0  0  0  0  0  0  0  0  0  0  0  0
  -20.6752  -38.8921   -5.9386 C   0  0  0  0  0  0  0  0  0  0  0  0
  -21.8603  -39.1757   -5.2882 C   0  0  0  0  0  0  0  0  0  0  0  0
  -22.7157  -39.9453   -6.0086 C   0  0  0  0  0  0  0  0  0  0  0  0
  -22.4523  -40.4345   -7.3167 C   0  0  0  0  0  0  0  0  0  0  0  0
  -23.6159  -41.2691   -7.7456 C   0  0  0  0  0  0  0  0  0  0  0  0
  -24.2830  -42.0267   -6.6259 C   0  0  0  0  0  0  0  0  0  0  0  0
  -23.4871  -42.7490   -5.6490 C   0  0  0  0  0  0  0  0  0  0  0  0
  -23.1446  -44.2049   -5.9871 C   0  0  0  0  0  0  0  0  0  0  0  0
  -22.1739  -44.2891   -7.0450 N   0  0  0  0  0  0  0  0  0  0  0  0
  -20.7706  -44.0007   -7.0887 C   0  0  0  0  0  0  0  0  0  0  0  0
  -20.0047  -42.9418   -6.6687 C   0  0  0  0  0  0  0  0  0  0  0  0
  -18.6311  -42.9780   -6.9566 C   0  0  0  0  0  0  0  0  0  0  0  0
  -18.1345  -44.1054   -7.6514 C   0  0  0  0  0  0  0  0  0  0  0  0
  -18.8999  -45.1595   -8.0648 C   0  0  0  0  0  0  0  0  0  0  0  0
  -18.2968  -46.3140   -8.7935 C   0  0  0  0  0  0  0  0  0  0  0  0
  -20.1726  -45.0660   -7.7712 N   0  0  0  0  0  0  0  0  0  0  0  0
  -17.5454  -42.0237   -6.7384 C   0  0  0  0  0  0  0  0  0  0  0  0
  -16.4223  -42.5346   -6.3106 O   0  0  0  0  0  0  0  0  0  0  0  0
  -17.4635  -40.6205   -6.9049 N   0  0  0  0  0  0  0  0  0  0  0  0
  -21.2679  -40.1231   -7.9166 C   0  0  0  0  0  0  0  0  0  0  0  0
  1  2  1  0
  2  3  1  0
  3  4  1  0
  4  5  1  0
  5  6  1  0
  6  7  2  0
  6  8  1  0
  8  9  1  6
  8 10  1  0
 10 11  1  0
 11 12  1  1
 11 13  1  0
 13 14  1  1
 14 15  1  0
 15 16  2  0
 16 17  1  0
 17 18  2  0
 18 19  1  0
 19 20  1  0
 20 21  1  0
 21 22  1  0
 22 23  1  0
 23 24  1  0
 24 25  1  0
 25 26  2  0
 26 27  1  0
 27 28  2  0
 28 29  1  0
 29 30  1  0
 29 31  2  0
 27 32  1  0
 32 33  2  0
 32 34  1  0
 19 35  2  0
 31 25  1  0
 34 13  1  0
 35 15  1  0
M  END
$$$$
