
     RDKit          3D

 35 37  0  0  0  0  0  0  0  0999 V2000
  -12.0058  -34.7344  -12.9234 C   0  0  0  0  0  0  0  0  0  0  0  0
  -12.5814  -36.1167  -12.9790 C   0  0  0  0  0  0  0  0  0  0  0  0
  -13.8500  -36.2523  -12.1388 C   0  0  0  0  0  0  0  0  0  0  0  0
  -14.4328  -37.6294  -12.2527 C   0  0  0  0  0  0  0  0  0  0  0  0
  -13.6805  -38.6038  -11.4684 N   0  0  0  0  0  0  0  0  0  0  0  0
  -14.2796  -39.4427  -10.5216 C   0  0  0  0  0  0  0  0  0  0  0  0
  -14.3572  -40.6782  -10.8084 O   0  0  0  0  0  0  0  0  0  0  0  0
  -14.8047  -38.9749   -9.2433 C   0  0  2  0  0  0  0  0  0  0  0  0
  -13.6011  -38.6853   -8.3155 C   0  0  0  0  0  0  0  0  0  0  0  0
  -15.6713  -40.0192   -8.5184 C   0  0  0  0  0  0  0  0  0  0  0  0
  -16.8337  -40.3601   -9.3674 C   0  0  2  0  0  0  0  0  0  0  0  0
  -17.1300  -39.1638  -10.0927 O   0  0  0  0  0  0  0  0  0  0  0  0
  -18.1316  -40.5471   -8.5370 C   0  0  2  0  0  0  0  0  0  0  0  0
  -18.8544  -39.2415   -8.6637 C   0  0  0  0  0  0  0  0  0  0  0  0
  -20.2555  -39.1324   -8.1815 C   0  0  0  0  0  0  0  0  0  0  0  0
  -20.3793  -38.0943   -7.2464 C   0  0  0  0  0  0  0  0  0  0  0  0
  -21.5593  -37.7548   -6.6134 C   0  0  0  0  0  0  0  0  0  0  0  0
  -22.6197  -38.5226   -6.9724 C   0  0  0  0  0  0  0  0  0  0  0  0
  -22.5616  -39.5883   -7.9109 C   0  0  0  0  0  0  0  0  0  0  0  0
  -23.9200  -40.2062   -7.9995 C   0  0  0  0  0  0  0  0  0  0  0  0
  -24.6922  -40.1968   -6.7048 C   0  0  0  0  0  0  0  0  0  0  0  0
  -24.0499  -40.5859   -5.4616 C   0  0  0  0  0  0  0  0  0  0  0  0
  -24.1040  -42.0750   -5.1001 C   0  0  0  0  0  0  0  0  0  0  0  0
  -23.2467  -42.8580   -5.9490 N   0  0  0  0  0  0  0  0  0  0  0  0
  -21.8207  -42.9795   -6.0271 C   0  0  0  0  0  0  0  0  0  0  0  0
  -20.7908  -42.0730   -6.0704 C   0  0  0  0  0  0  0  0  0  0  0  0
  -19.4889  -42.5748   -6.2258 C   0  0  0  0  0  0  0  0  0  0  0  0
  -19.3316  -43.9772   -6.3190 C   0  0  0  0  0  0  0  0  0  0  0  0
  -20.3594  -44.8768   -6.2719 C   0  0  0  0  0  0  0  0  0  0  0  0
  -20.1079  -46.3442   -6.3767 C   0  0  0  0  0  0  0  0  0  0  0  0
  -21.5492  -44.3484   -6.1303 N   0  0  0  0  0  0  0  0  0  0  0  0
  -18.1876  -41.9275   -6.3835 C   0  0  0  0  0  0  0  0  0  0  0  0
  -17.2069  -42.4591   -5.7045 O   0  0  0  0  0  0  0  0  0  0  0  0
  -17.7650  -40.8130   -7.1466 N   0  0  0  0  0  0  0  0  0  0  0  0
  -21.3727  -39.8813   -8.5109 C   0  0  0  0  0  0  0  0  0  0  0  0
  1  2  1  0
  2  3  1  0
  3  4  1  0
  4  5  1  0
  5  6  1  0
  6  7  2  0
  6  8  1  0
  8  9  1  1
  8 10  1  0
 10 11  1  0
 11 12  1  6
 11 13  1  0
 13 14  1  1
 14 15  1  0
 15 16  2  0
 16 17  1  0
 17 18  2  0
 18 19  1  0
 19 20  1  0
 20 21  1  0
 21 22  1  0
 22 23  1  0
 23 24  1  0
 24 25  1  0
 25 26  2  0
 26 27  1  0
 27 28  2  0
 28 29  1  0
 29 30  1  0
 29 31  2  0
 27 32  1  0
 32 33  2  0
 32 34  1  0
 19 35  2  0
 31 25  1  0
 34 13  1  0
 35 15  1  0
M  END
$$$$
