
     RDKit          3D

 35 37  0  0  0  0  0  0  0  0999 V2000
  -14.8092  -34.1451  -12.3097 C   0  0  0  0  0  0  0  0  0  0  0  0
  -14.6681  -35.5986  -11.9737 C   0  0  0  0  0  0  0  0  0  0  0  0
  -13.4203  -36.2208  -12.5978 C   0  0  0  0  0  0  0  0  0  0  0  0
  -13.4141  -37.7111  -12.4301 C   0  0  0  0  0  0  0  0  0  0  0  0
  -13.3925  -38.0990  -11.0232 N   0  0  0  0  0  0  0  0  0  0  0  0
  -14.1006  -39.2000  -10.5276 C   0  0  0  0  0  0  0  0  0  0  0  0
  -14.9193  -39.7661  -11.3175 O   0  0  0  0  0  0  0  0  0  0  0  0
  -13.9423  -39.7211   -9.1740 C   0  0  2  0  0  0  0  0  0  0  0  0
  -12.8548  -40.8206   -9.2152 C   0  0  0  0  0  0  0  0  0  0  0  0
  -15.2144  -40.3879   -8.6220 C   0  0  0  0  0  0  0  0  0  0  0  0
  -16.3501  -39.4488   -8.7502 C   0  0  2  0  0  0  0  0  0  0  0  0
  -16.0424  -38.3678   -7.8660 O   0  0  0  0  0  0  0  0  0  0  0  0
  -17.6492  -40.0094   -8.1120 C   0  0  2  0  0  0  0  0  0  0  0  0
  -18.5599  -38.8254   -8.0033 C   0  0  0  0  0  0  0  0  0  0  0  0
  -19.9868  -39.0319   -7.6442 C   0  0  0  0  0  0  0  0  0  0  0  0
  -20.3278  -38.2779   -6.5117 C   0  0  0  0  0  0  0  0  0  0  0  0
  -21.5819  -38.2688   -5.9326 C   0  0  0  0  0  0  0  0  0  0  0  0
  -22.4850  -39.0669   -6.5575 C   0  0  0  0  0  0  0  0  0  0  0  0
  -22.2042  -39.8557   -7.7058 C   0  0  0  0  0  0  0  0  0  0  0  0
  -23.4405  -40.6166   -8.0626 C   0  0  0  0  0  0  0  0  0  0  0  0
  -24.2798  -41.0276   -6.8797 C   0  0  0  0  0  0  0  0  0  0  0  0
  -23.6591  -41.6122   -5.7039 C   0  0  0  0  0  0  0  0  0  0  0  0
  -23.4991  -43.1371   -5.7011 C   0  0  0  0  0  0  0  0  0  0  0  0
  -22.4803  -43.5649   -6.6218 N   0  0  0  0  0  0  0  0  0  0  0  0
  -21.0509  -43.4644   -6.5901 C   0  0  0  0  0  0  0  0  0  0  0  0
  -20.1760  -42.4403   -6.3259 C   0  0  0  0  0  0  0  0  0  0  0  0
  -18.8044  -42.7036   -6.4682 C   0  0  0  0  0  0  0  0  0  0  0  0
  -18.4228  -44.0061   -6.8658 C   0  0  0  0  0  0  0  0  0  0  0  0
  -19.2970  -45.0244   -7.1244 C   0  0  0  0  0  0  0  0  0  0  0  0
  -18.8116  -46.3734   -7.5392 C   0  0  0  0  0  0  0  0  0  0  0  0
  -20.5614  -44.7165   -6.9788 N   0  0  0  0  0  0  0  0  0  0  0  0
  -17.6144  -41.8630   -6.3486 C   0  0  0  0  0  0  0  0  0  0  0  0
  -16.6041  -42.4011   -5.7200 O   0  0  0  0  0  0  0  0  0  0  0  0
  -17.3282  -40.5495   -6.7916 N   0  0  0  0  0  0  0  0  0  0  0  0
  -20.9504  -39.8269   -8.2414 C   0  0  0  0  0  0  0  0  0  0  0  0
  1  2  1  0
  2  3  1  0
  3  4  1  0
  4  5  1  0
  5  6  1  0
  6  7  2  0
  6  8  1  0
  8  9  1  6
  8 10  1  0
 10 11  1  0
 11 12  1  1
 11 13  1  0
 13 14  1  1
 14 15  1  0
 15 16  2  0
 16 17  1  0
 17 18  2  0
 18 19  1  0
 19 20  1  0
 20 21  1  0
 21 22  1  0
 22 23  1  0
 23 24  1  0
 24 25  1  0
 25 26  2  0
 26 27  1  0
 27 28  2  0
 28 29  1  0
 29 30  1  0
 29 31  2  0
 27 32  1  0
 32 33  2  0
 32 34  1  0
 19 35  2  0
 31 25  1  0
 34 13  1  0
 35 15  1  0
M  END
$$$$
