
     RDKit          3D

 34 35  0  0  0  0  0  0  0  0999 V2000
  -10.1918  -40.2902   -7.6724 C   0  0  0  0  0  0  0  0  0  0  0  0
  -10.6721  -39.1913   -8.5664 C   0  0  0  0  0  0  0  0  0  0  0  0
   -9.5562  -38.3961   -9.2102 C   0  0  0  0  0  0  0  0  0  0  0  0
  -11.5253  -39.7146   -9.6694 C   0  0  0  0  0  0  0  0  0  0  0  0
  -11.4744  -41.0271  -10.0798 C   0  0  0  0  0  0  0  0  0  0  0  0
  -12.2795  -41.4823  -11.1082 C   0  0  0  0  0  0  0  0  0  0  0  0
  -13.1585  -40.6634  -11.7649 C   0  0  0  0  0  0  0  0  0  0  0  0
  -13.2276  -39.3238  -11.3646 C   0  0  0  0  0  0  0  0  0  0  0  0
  -14.1678  -38.3869  -12.0626 C   0  0  0  0  0  0  0  0  0  0  0  0
  -15.0347  -37.8035  -11.1035 N   0  0  0  0  0  0  0  0  0  0  0  0
  -15.8766  -38.7110  -10.4339 C   0  0  0  0  0  0  0  0  0  0  0  0
  -17.3456  -38.5146  -10.5174 C   0  0  1  0  0  0  0  0  0  0  0  0
  -17.8467  -38.2929  -11.7824 O   0  0  0  0  0  0  0  0  0  0  0  0
  -18.1537  -39.6175   -9.8158 C   0  0  2  0  0  0  0  0  0  0  0  0
  -18.4784  -39.1409   -8.4527 C   0  0  0  0  0  0  0  0  0  0  0  0
  -19.9829  -38.9259   -8.2226 C   0  0  2  0  0  0  0  0  0  0  0  0
  -20.2902  -37.5063   -7.8227 C   0  0  0  0  0  0  0  0  0  0  0  0
  -20.4360  -39.9575   -7.2498 C   0  0  0  0  0  0  0  0  0  0  0  0
  -21.7869  -39.7649   -6.6601 C   0  0  0  0  0  0  0  0  0  0  0  0
  -21.7116  -39.5536   -5.1566 C   0  0  0  0  0  0  0  0  0  0  0  0
  -21.1068  -40.7192   -4.4256 C   0  0  0  0  0  0  0  0  0  0  0  0
  -22.0419  -41.9073   -4.3662 C   0  0  0  0  0  0  0  0  0  0  0  0
  -21.3204  -43.2106   -4.2999 C   0  0  0  0  0  0  0  0  0  0  0  0
  -21.2269  -43.9227   -5.6301 C   0  0  0  0  0  0  0  0  0  0  0  0
  -19.8117  -43.9301   -6.1735 C   0  0  0  0  0  0  0  0  0  0  0  0
  -19.8570  -43.9923   -7.6567 C   0  0  0  0  0  0  0  0  0  0  0  0
  -20.8526  -44.5685   -8.1779 O   0  0  0  0  0  0  0  0  0  0  0  0
  -18.8618  -43.4504   -8.5122 N   0  0  0  0  0  0  0  0  0  0  0  0
  -18.8706  -43.8069   -9.9278 C   0  0  0  0  0  0  0  0  0  0  0  0
  -17.8442  -42.5491   -7.9895 C   0  0  0  0  0  0  0  0  0  0  0  0
  -17.1126  -41.8468   -9.0620 C   0  0  0  0  0  0  0  0  0  0  0  0
  -15.8669  -42.1846   -9.1182 O   0  0  0  0  0  0  0  0  0  0  0  0
  -17.5913  -40.9019   -9.9842 N   0  0  0  0  0  0  0  0  0  0  0  0
  -12.4278  -38.8825  -10.3470 C   0  0  0  0  0  0  0  0  0  0  0  0
  1  2  1  0
  2  3  1  0
  2  4  1  0
  4  5  2  0
  5  6  1  0
  6  7  2  0
  7  8  1  0
  8  9  1  0
  9 10  1  0
 10 11  1  0
 11 12  1  0
 12 13  1  6
 12 14  1  0
 14 15  1  1
 15 16  1  0
 16 17  1  1
 16 18  1  0
 18 19  1  0
 19 20  1  0
 20 21  1  0
 21 22  1  0
 22 23  1  0
 23 24  1  0
 24 25  1  0
 25 26  1  0
 26 27  2  0
 26 28  1  0
 28 29  1  0
 28 30  1  0
 30 31  1  0
 31 32  2  0
 31 33  1  0
  8 34  2  0
 33 14  1  0
 34  4  1  0
M  END
$$$$
