
     RDKit          3D

 34 35  0  0  0  0  0  0  0  0999 V2000
  -14.7043  -33.5251  -12.0038 C   0  0  0  0  0  0  0  0  0  0  0  0
  -13.3837  -34.1245  -12.3705 C   0  0  0  0  0  0  0  0  0  0  0  0
  -12.2721  -33.7948  -11.3971 C   0  0  0  0  0  0  0  0  0  0  0  0
  -13.4600  -35.6095  -12.4565 C   0  0  0  0  0  0  0  0  0  0  0  0
  -13.7012  -36.2666  -13.6413 C   0  0  0  0  0  0  0  0  0  0  0  0
  -13.7670  -37.6473  -13.6881 C   0  0  0  0  0  0  0  0  0  0  0  0
  -13.5982  -38.4247  -12.5738 C   0  0  0  0  0  0  0  0  0  0  0  0
  -13.3517  -37.7782  -11.3569 C   0  0  0  0  0  0  0  0  0  0  0  0
  -13.1715  -38.5883  -10.1079 C   0  0  0  0  0  0  0  0  0  0  0  0
  -14.1720  -39.5926  -10.0607 N   0  0  0  0  0  0  0  0  0  0  0  0
  -15.4729  -39.1233   -9.8001 C   0  0  0  0  0  0  0  0  0  0  0  0
  -15.9821  -39.1723   -8.4066 C   0  0  1  0  0  0  0  0  0  0  0  0
  -16.2615  -37.9515   -7.8304 O   0  0  0  0  0  0  0  0  0  0  0  0
  -17.1712  -40.1279   -8.2203 C   0  0  2  0  0  0  0  0  0  0  0  0
  -17.9809  -39.6250   -7.0881 C   0  0  0  0  0  0  0  0  0  0  0  0
  -19.3840  -39.1530   -7.5021 C   0  0  2  0  0  0  0  0  0  0  0  0
  -19.6166  -37.7085   -7.1430 C   0  0  0  0  0  0  0  0  0  0  0  0
  -20.3652  -40.1054   -6.9140 C   0  0  0  0  0  0  0  0  0  0  0  0
  -21.7919  -39.6885   -6.9410 C   0  0  0  0  0  0  0  0  0  0  0  0
  -22.3477  -39.5194   -5.5363 C   0  0  0  0  0  0  0  0  0  0  0  0
  -22.3051  -40.7854   -4.7275 C   0  0  0  0  0  0  0  0  0  0  0  0
  -23.3401  -41.7916   -5.1812 C   0  0  0  0  0  0  0  0  0  0  0  0
  -22.9252  -43.2022   -4.9336 C   0  0  0  0  0  0  0  0  0  0  0  0
  -22.3705  -43.8969   -6.1563 C   0  0  0  0  0  0  0  0  0  0  0  0
  -20.8790  -44.1436   -6.0433 C   0  0  0  0  0  0  0  0  0  0  0  0
  -20.2829  -44.1716   -7.4032 C   0  0  0  0  0  0  0  0  0  0  0  0
  -21.0265  -44.5550   -8.3493 O   0  0  0  0  0  0  0  0  0  0  0  0
  -18.9454  -43.7985   -7.6997 N   0  0  0  0  0  0  0  0  0  0  0  0
  -18.3907  -44.1237   -9.0103 C   0  0  0  0  0  0  0  0  0  0  0  0
  -18.1338  -43.0990   -6.7132 C   0  0  0  0  0  0  0  0  0  0  0  0
  -16.9117  -42.5180   -7.3026 C   0  0  0  0  0  0  0  0  0  0  0  0
  -15.8326  -43.0683   -6.8535 O   0  0  0  0  0  0  0  0  0  0  0  0
  -16.7925  -41.4881   -8.2500 N   0  0  0  0  0  0  0  0  0  0  0  0
  -13.2885  -36.4127  -11.3201 C   0  0  0  0  0  0  0  0  0  0  0  0
  1  2  1  0
  2  3  1  0
  2  4  1  0
  4  5  2  0
  5  6  1  0
  6  7  2  0
  7  8  1  0
  8  9  1  0
  9 10  1  0
 10 11  1  0
 11 12  1  0
 12 13  1  6
 12 14  1  0
 14 15  1  1
 15 16  1  0
 16 17  1  1
 16 18  1  0
 18 19  1  0
 19 20  1  0
 20 21  1  0
 21 22  1  0
 22 23  1  0
 23 24  1  0
 24 25  1  0
 25 26  1  0
 26 27  2  0
 26 28  1  0
 28 29  1  0
 28 30  1  0
 30 31  1  0
 31 32  2  0
 31 33  1  0
  8 34  2  0
 33 14  1  0
 34  4  1  0
M  END
$$$$
