
     RDKit          3D

 34 35  0  0  0  0  0  0  0  0999 V2000
  -11.2590  -34.7627  -13.1074 C   0  0  0  0  0  0  0  0  0  0  0  0
  -10.8126  -36.1879  -13.0214 C   0  0  0  0  0  0  0  0  0  0  0  0
   -9.7128  -36.4232  -12.0079 C   0  0  0  0  0  0  0  0  0  0  0  0
  -11.9378  -37.0945  -12.6602 C   0  0  0  0  0  0  0  0  0  0  0  0
  -12.2054  -38.2496  -13.3586 C   0  0  0  0  0  0  0  0  0  0  0  0
  -13.2587  -39.0705  -12.9986 C   0  0  0  0  0  0  0  0  0  0  0  0
  -14.0812  -38.7825  -11.9426 C   0  0  0  0  0  0  0  0  0  0  0  0
  -13.8282  -37.6123  -11.2172 C   0  0  0  0  0  0  0  0  0  0  0  0
  -14.7098  -37.2502  -10.0594 C   0  0  0  0  0  0  0  0  0  0  0  0
  -16.0073  -37.7770  -10.2847 N   0  0  0  0  0  0  0  0  0  0  0  0
  -16.9063  -37.6205   -9.2133 C   0  0  0  0  0  0  0  0  0  0  0  0
  -16.7819  -38.5231   -8.0414 C   0  0  1  0  0  0  0  0  0  0  0  0
  -16.6822  -37.8993   -6.8161 O   0  0  0  0  0  0  0  0  0  0  0  0
  -17.8610  -39.6161   -7.9905 C   0  0  2  0  0  0  0  0  0  0  0  0
  -18.7265  -39.3414   -6.8218 C   0  0  0  0  0  0  0  0  0  0  0  0
  -20.1704  -38.9767   -7.2027 C   0  0  2  0  0  0  0  0  0  0  0  0
  -20.5605  -37.6186   -6.6801 C   0  0  0  0  0  0  0  0  0  0  0  0
  -21.0454  -40.0920   -6.7488 C   0  0  0  0  0  0  0  0  0  0  0  0
  -22.5087  -39.8304   -6.7522 C   0  0  0  0  0  0  0  0  0  0  0  0
  -23.0871  -39.8903   -5.3476 C   0  0  0  0  0  0  0  0  0  0  0  0
  -22.9113  -41.2317   -4.6931 C   0  0  0  0  0  0  0  0  0  0  0  0
  -23.8285  -42.2819   -5.2808 C   0  0  0  0  0  0  0  0  0  0  0  0
  -23.2641  -43.6593   -5.1937 C   0  0  0  0  0  0  0  0  0  0  0  0
  -22.6308  -44.1399   -6.4795 C   0  0  0  0  0  0  0  0  0  0  0  0
  -21.1219  -44.2368   -6.3693 C   0  0  0  0  0  0  0  0  0  0  0  0
  -20.5192  -44.0385   -7.7121 C   0  0  0  0  0  0  0  0  0  0  0  0
  -21.2118  -44.3841   -8.7100 O   0  0  0  0  0  0  0  0  0  0  0  0
  -19.2287  -43.4915   -7.9383 N   0  0  0  0  0  0  0  0  0  0  0  0
  -18.6350  -43.5969   -9.2678 C   0  0  0  0  0  0  0  0  0  0  0  0
  -18.5030  -42.8315   -6.8617 C   0  0  0  0  0  0  0  0  0  0  0  0
  -17.3482  -42.0567   -7.3563 C   0  0  0  0  0  0  0  0  0  0  0  0
  -16.2181  -42.5377   -6.9557 O   0  0  0  0  0  0  0  0  0  0  0  0
  -17.3366  -40.9145   -8.1734 N   0  0  0  0  0  0  0  0  0  0  0  0
  -12.7847  -36.8067  -11.5804 C   0  0  0  0  0  0  0  0  0  0  0  0
  1  2  1  0
  2  3  1  0
  2  4  1  0
  4  5  2  0
  5  6  1  0
  6  7  2  0
  7  8  1  0
  8  9  1  0
  9 10  1  0
 10 11  1  0
 11 12  1  0
 12 13  1  1
 12 14  1  0
 14 15  1  1
 15 16  1  0
 16 17  1  1
 16 18  1  0
 18 19  1  0
 19 20  1  0
 20 21  1  0
 21 22  1  0
 22 23  1  0
 23 24  1  0
 24 25  1  0
 25 26  1  0
 26 27  2  0
 26 28  1  0
 28 29  1  0
 28 30  1  0
 30 31  1  0
 31 32  2  0
 31 33  1  0
  8 34  2  0
 33 14  1  0
 34  4  1  0
M  END
$$$$
