
     RDKit          3D

 34 35  0  0  0  0  0  0  0  0999 V2000
  -13.7246  -35.2290  -13.0053 C   0  0  0  0  0  0  0  0  0  0  0  0
  -12.4121  -35.8575  -12.6589 C   0  0  0  0  0  0  0  0  0  0  0  0
  -11.7269  -35.2233  -11.4671 C   0  0  0  0  0  0  0  0  0  0  0  0
  -12.5617  -37.3076  -12.3533 C   0  0  0  0  0  0  0  0  0  0  0  0
  -12.7862  -38.2469  -13.3336 C   0  0  0  0  0  0  0  0  0  0  0  0
  -12.9216  -39.5865  -13.0172 C   0  0  0  0  0  0  0  0  0  0  0  0
  -12.8409  -40.0446  -11.7296 C   0  0  0  0  0  0  0  0  0  0  0  0
  -12.6129  -39.1071  -10.7153 C   0  0  0  0  0  0  0  0  0  0  0  0
  -12.5283  -39.5613   -9.2886 C   0  0  0  0  0  0  0  0  0  0  0  0
  -13.8225  -39.9367   -8.8461 N   0  0  0  0  0  0  0  0  0  0  0  0
  -14.7351  -38.8742   -8.7097 C   0  0  0  0  0  0  0  0  0  0  0  0
  -15.8861  -39.0378   -7.7866 C   0  0  1  0  0  0  0  0  0  0  0  0
  -16.1692  -37.9505   -6.9878 O   0  0  0  0  0  0  0  0  0  0  0  0
  -17.1657  -39.5292   -8.4814 C   0  0  2  0  0  0  0  0  0  0  0  0
  -18.1477  -39.8715   -7.4284 C   0  0  0  0  0  0  0  0  0  0  0  0
  -19.3872  -38.9624   -7.4296 C   0  0  2  0  0  0  0  0  0  0  0  0
  -19.5643  -38.2567   -6.1104 C   0  0  0  0  0  0  0  0  0  0  0  0
  -20.5481  -39.7937   -7.8504 C   0  0  0  0  0  0  0  0  0  0  0  0
  -21.8962  -39.2010   -7.6477 C   0  0  0  0  0  0  0  0  0  0  0  0
  -22.7167  -40.0123   -6.6581 C   0  0  0  0  0  0  0  0  0  0  0  0
  -22.9533  -41.4271   -7.1066 C   0  0  0  0  0  0  0  0  0  0  0  0
  -23.9535  -41.5107   -8.2389 C   0  0  0  0  0  0  0  0  0  0  0  0
  -23.7229  -42.6828   -9.1313 C   0  0  0  0  0  0  0  0  0  0  0  0
  -22.9869  -42.3409  -10.4068 C   0  0  0  0  0  0  0  0  0  0  0  0
  -21.5789  -42.9027  -10.4196 C   0  0  0  0  0  0  0  0  0  0  0  0
  -20.7164  -42.0431  -11.2697 C   0  0  0  0  0  0  0  0  0  0  0  0
  -21.2761  -41.4280  -12.2202 O   0  0  0  0  0  0  0  0  0  0  0  0
  -19.3194  -41.8736  -11.0809 N   0  0  0  0  0  0  0  0  0  0  0  0
  -18.5332  -41.2311  -12.1298 C   0  0  0  0  0  0  0  0  0  0  0  0
  -18.6747  -42.3316   -9.8580 C   0  0  0  0  0  0  0  0  0  0  0  0
  -17.3109  -41.7881   -9.7054 C   0  0  0  0  0  0  0  0  0  0  0  0
  -16.4011  -42.7034   -9.7643 O   0  0  0  0  0  0  0  0  0  0  0  0
  -16.9079  -40.4562   -9.5151 N   0  0  0  0  0  0  0  0  0  0  0  0
  -12.4805  -37.7848  -11.0373 C   0  0  0  0  0  0  0  0  0  0  0  0
  1  2  1  0
  2  3  1  0
  2  4  1  0
  4  5  2  0
  5  6  1  0
  6  7  2  0
  7  8  1  0
  8  9  1  0
  9 10  1  0
 10 11  1  0
 11 12  1  0
 12 13  1  6
 12 14  1  0
 14 15  1  1
 15 16  1  0
 16 17  1  1
 16 18  1  0
 18 19  1  0
 19 20  1  0
 20 21  1  0
 21 22  1  0
 22 23  1  0
 23 24  1  0
 24 25  1  0
 25 26  1  0
 26 27  2  0
 26 28  1  0
 28 29  1  0
 28 30  1  0
 30 31  1  0
 31 32  2  0
 31 33  1  0
  8 34  2  0
 33 14  1  0
 34  4  1  0
M  END
$$$$
