
     RDKit          3D

 34 35  0  0  0  0  0  0  0  0999 V2000
  -12.5335  -35.5845  -14.1586 C   0  0  0  0  0  0  0  0  0  0  0  0
  -12.2887  -35.9625  -12.7321 C   0  0  0  0  0  0  0  0  0  0  0  0
  -12.9541  -35.0399  -11.7331 C   0  0  0  0  0  0  0  0  0  0  0  0
  -12.7710  -37.3409  -12.4391 C   0  0  0  0  0  0  0  0  0  0  0  0
  -13.4148  -38.1109  -13.3805 C   0  0  0  0  0  0  0  0  0  0  0  0
  -13.8516  -39.3876  -13.0769 C   0  0  0  0  0  0  0  0  0  0  0  0
  -13.6699  -39.9470  -11.8406 C   0  0  0  0  0  0  0  0  0  0  0  0
  -13.0172  -39.1822  -10.8666 C   0  0  0  0  0  0  0  0  0  0  0  0
  -12.8057  -39.7494   -9.4946 C   0  0  0  0  0  0  0  0  0  0  0  0
  -13.7276  -39.1485   -8.5996 N   0  0  0  0  0  0  0  0  0  0  0  0
  -14.9301  -39.8574   -8.4209 C   0  0  0  0  0  0  0  0  0  0  0  0
  -16.0860  -39.1563   -7.8076 C   0  0  1  0  0  0  0  0  0  0  0  0
  -16.3587  -37.9024   -8.3114 O   0  0  0  0  0  0  0  0  0  0  0  0
  -17.3691  -40.0013   -7.7729 C   0  0  2  0  0  0  0  0  0  0  0  0
  -18.1616  -39.5701   -6.5997 C   0  0  0  0  0  0  0  0  0  0  0  0
  -19.4969  -38.9071   -6.9742 C   0  0  2  0  0  0  0  0  0  0  0  0
  -19.5971  -37.5056   -6.4307 C   0  0  0  0  0  0  0  0  0  0  0  0
  -20.5861  -39.8226   -6.5369 C   0  0  0  0  0  0  0  0  0  0  0  0
  -21.9629  -39.2620   -6.5356 C   0  0  0  0  0  0  0  0  0  0  0  0
  -22.5448  -39.2215   -5.1318 C   0  0  0  0  0  0  0  0  0  0  0  0
  -22.6538  -40.5798   -4.4980 C   0  0  0  0  0  0  0  0  0  0  0  0
  -23.7679  -41.4071   -5.1012 C   0  0  0  0  0  0  0  0  0  0  0  0
  -23.5029  -42.8729   -5.0355 C   0  0  0  0  0  0  0  0  0  0  0  0
  -22.9801  -43.4553   -6.3289 C   0  0  0  0  0  0  0  0  0  0  0  0
  -21.5247  -43.8659   -6.2210 C   0  0  0  0  0  0  0  0  0  0  0  0
  -20.8904  -43.7772   -7.5608 C   0  0  0  0  0  0  0  0  0  0  0  0
  -21.6370  -43.9559   -8.5636 O   0  0  0  0  0  0  0  0  0  0  0  0
  -19.5136  -43.5074   -7.7793 N   0  0  0  0  0  0  0  0  0  0  0  0
  -18.9513  -43.7140   -9.1106 C   0  0  0  0  0  0  0  0  0  0  0  0
  -18.6694  -43.0293   -6.6932 C   0  0  0  0  0  0  0  0  0  0  0  0
  -17.3772  -42.5045   -7.1765 C   0  0  0  0  0  0  0  0  0  0  0  0
  -16.3730  -43.2162   -6.7839 O   0  0  0  0  0  0  0  0  0  0  0  0
  -17.1260  -41.3775   -7.9760 N   0  0  0  0  0  0  0  0  0  0  0  0
  -12.5889  -37.9209  -11.1756 C   0  0  0  0  0  0  0  0  0  0  0  0
  1  2  1  0
  2  3  1  0
  2  4  1  0
  4  5  2  0
  5  6  1  0
  6  7  2  0
  7  8  1  0
  8  9  1  0
  9 10  1  0
 10 11  1  0
 11 12  1  0
 12 13  1  6
 12 14  1  0
 14 15  1  1
 15 16  1  0
 16 17  1  1
 16 18  1  0
 18 19  1  0
 19 20  1  0
 20 21  1  0
 21 22  1  0
 22 23  1  0
 23 24  1  0
 24 25  1  0
 25 26  1  0
 26 27  2  0
 26 28  1  0
 28 29  1  0
 28 30  1  0
 30 31  1  0
 31 32  2  0
 31 33  1  0
  8 34  2  0
 33 14  1  0
 34  4  1  0
M  END
$$$$
