
     RDKit          3D

 34 35  0  0  0  0  0  0  0  0999 V2000
  -14.0162  -34.9697  -12.9739 C   0  0  0  0  0  0  0  0  0  0  0  0
  -12.6952  -35.6584  -12.8380 C   0  0  0  0  0  0  0  0  0  0  0  0
  -11.8268  -35.1004  -11.7306 C   0  0  0  0  0  0  0  0  0  0  0  0
  -12.8602  -37.1141  -12.5695 C   0  0  0  0  0  0  0  0  0  0  0  0
  -12.9059  -38.0481  -13.5791 C   0  0  0  0  0  0  0  0  0  0  0  0
  -13.0610  -39.3932  -13.2970 C   0  0  0  0  0  0  0  0  0  0  0  0
  -13.1759  -39.8622  -12.0159 C   0  0  0  0  0  0  0  0  0  0  0  0
  -13.1322  -38.9303  -10.9722 C   0  0  0  0  0  0  0  0  0  0  0  0
  -13.2654  -39.3966   -9.5532 C   0  0  0  0  0  0  0  0  0  0  0  0
  -14.5577  -39.9515   -9.3690 N   0  0  0  0  0  0  0  0  0  0  0  0
  -15.5723  -39.0159   -9.0940 C   0  0  0  0  0  0  0  0  0  0  0  0
  -16.2979  -39.1109   -7.8025 C   0  0  1  0  0  0  0  0  0  0  0  0
  -16.6558  -37.9091   -7.2297 O   0  0  0  0  0  0  0  0  0  0  0  0
  -17.5091  -40.0558   -7.8463 C   0  0  2  0  0  0  0  0  0  0  0  0
  -18.5190  -39.5389   -6.8959 C   0  0  0  0  0  0  0  0  0  0  0  0
  -19.8104  -39.0585   -7.5774 C   0  0  2  0  0  0  0  0  0  0  0  0
  -20.0953  -37.6099   -7.2777 C   0  0  0  0  0  0  0  0  0  0  0  0
  -20.8958  -39.9991   -7.1867 C   0  0  0  0  0  0  0  0  0  0  0  0
  -22.2862  -39.5712   -7.4929 C   0  0  0  0  0  0  0  0  0  0  0  0
  -23.1031  -39.3882   -6.2241 C   0  0  0  0  0  0  0  0  0  0  0  0
  -23.2301  -40.6492   -5.4161 C   0  0  0  0  0  0  0  0  0  0  0  0
  -24.1662  -41.6502   -6.0575 C   0  0  0  0  0  0  0  0  0  0  0  0
  -23.8203  -43.0623   -5.7268 C   0  0  0  0  0  0  0  0  0  0  0  0
  -23.0446  -43.7696   -6.8147 C   0  0  0  0  0  0  0  0  0  0  0  0
  -21.6059  -44.0272   -6.4124 C   0  0  0  0  0  0  0  0  0  0  0  0
  -20.7569  -44.0690   -7.6301 C   0  0  0  0  0  0  0  0  0  0  0  0
  -21.3056  -44.4529   -8.7009 O   0  0  0  0  0  0  0  0  0  0  0  0
  -19.3839  -43.7086   -7.6625 N   0  0  0  0  0  0  0  0  0  0  0  0
  -18.5878  -44.0469   -8.8385 C   0  0  0  0  0  0  0  0  0  0  0  0
  -18.7734  -43.0089   -6.5405 C   0  0  0  0  0  0  0  0  0  0  0  0
  -17.4548  -42.4416   -6.8837 C   0  0  0  0  0  0  0  0  0  0  0  0
  -16.4887  -42.9974   -6.2304 O   0  0  0  0  0  0  0  0  0  0  0  0
  -17.1442  -41.4190   -7.7949 N   0  0  0  0  0  0  0  0  0  0  0  0
  -12.9788  -37.6024  -11.2606 C   0  0  0  0  0  0  0  0  0  0  0  0
  1  2  1  0
  2  3  1  0
  2  4  1  0
  4  5  2  0
  5  6  1  0
  6  7  2  0
  7  8  1  0
  8  9  1  0
  9 10  1  0
 10 11  1  0
 11 12  1  0
 12 13  1  6
 12 14  1  0
 14 15  1  1
 15 16  1  0
 16 17  1  1
 16 18  1  0
 18 19  1  0
 19 20  1  0
 20 21  1  0
 21 22  1  0
 22 23  1  0
 23 24  1  0
 24 25  1  0
 25 26  1  0
 26 27  2  0
 26 28  1  0
 28 29  1  0
 28 30  1  0
 30 31  1  0
 31 32  2  0
 31 33  1  0
  8 34  2  0
 33 14  1  0
 34  4  1  0
M  END
$$$$
