
     RDKit          3D

 34 35  0  0  0  0  0  0  0  0999 V2000
  -14.0587  -33.9192  -13.5345 C   0  0  0  0  0  0  0  0  0  0  0  0
  -13.3136  -35.2115  -13.6463 C   0  0  0  0  0  0  0  0  0  0  0  0
  -11.8470  -35.0437  -13.9820 C   0  0  0  0  0  0  0  0  0  0  0  0
  -13.3832  -35.9962  -12.3823 C   0  0  0  0  0  0  0  0  0  0  0  0
  -12.5116  -35.7881  -11.3380 C   0  0  0  0  0  0  0  0  0  0  0  0
  -12.6017  -36.5343  -10.1769 C   0  0  0  0  0  0  0  0  0  0  0  0
  -13.5496  -37.5072  -10.0058 C   0  0  0  0  0  0  0  0  0  0  0  0
  -14.4475  -37.7368  -11.0550 C   0  0  0  0  0  0  0  0  0  0  0  0
  -15.4958  -38.8002  -10.9170 C   0  0  0  0  0  0  0  0  0  0  0  0
  -15.0154  -39.8118  -10.0465 N   0  0  0  0  0  0  0  0  0  0  0  0
  -14.7674  -39.3911   -8.7266 C   0  0  0  0  0  0  0  0  0  0  0  0
  -15.9208  -39.1929   -7.8134 C   0  0  1  0  0  0  0  0  0  0  0  0
  -16.4437  -37.9178   -7.7811 O   0  0  0  0  0  0  0  0  0  0  0  0
  -17.0465  -40.2197   -8.0139 C   0  0  2  0  0  0  0  0  0  0  0  0
  -17.9370  -40.1489   -6.8339 C   0  0  0  0  0  0  0  0  0  0  0  0
  -19.3510  -39.6445   -7.1645 C   0  0  2  0  0  0  0  0  0  0  0  0
  -19.6997  -38.4051   -6.3823 C   0  0  0  0  0  0  0  0  0  0  0  0
  -20.2869  -40.7856   -6.9707 C   0  0  0  0  0  0  0  0  0  0  0  0
  -21.7369  -40.4584   -6.9538 C   0  0  0  0  0  0  0  0  0  0  0  0
  -22.3625  -40.7770   -5.6055 C   0  0  0  0  0  0  0  0  0  0  0  0
  -22.2653  -42.2310   -5.2378 C   0  0  0  0  0  0  0  0  0  0  0  0
  -23.2068  -43.0928   -6.0504 C   0  0  0  0  0  0  0  0  0  0  0  0
  -22.7047  -44.4845   -6.2362 C   0  0  0  0  0  0  0  0  0  0  0  0
  -22.0510  -44.7213   -7.5786 C   0  0  0  0  0  0  0  0  0  0  0  0
  -20.5520  -44.9115   -7.4561 C   0  0  0  0  0  0  0  0  0  0  0  0
  -19.8981  -44.4716   -8.7148 C   0  0  0  0  0  0  0  0  0  0  0  0
  -20.5719  -44.5714   -9.7783 O   0  0  0  0  0  0  0  0  0  0  0  0
  -18.5787  -43.9528   -8.7936 N   0  0  0  0  0  0  0  0  0  0  0  0
  -17.9473  -43.8120  -10.1022 C   0  0  0  0  0  0  0  0  0  0  0  0
  -17.8610  -43.5633   -7.5876 C   0  0  0  0  0  0  0  0  0  0  0  0
  -16.6589  -42.7603   -7.8851 C   0  0  0  0  0  0  0  0  0  0  0  0
  -15.5638  -43.3672   -7.5664 O   0  0  0  0  0  0  0  0  0  0  0  0
  -16.5722  -41.4768   -8.4486 N   0  0  0  0  0  0  0  0  0  0  0  0
  -14.3508  -36.9943  -12.1992 C   0  0  0  0  0  0  0  0  0  0  0  0
  1  2  1  0
  2  3  1  0
  2  4  1  0
  4  5  2  0
  5  6  1  0
  6  7  2  0
  7  8  1  0
  8  9  1  0
  9 10  1  0
 10 11  1  0
 11 12  1  0
 12 13  1  6
 12 14  1  0
 14 15  1  1
 15 16  1  0
 16 17  1  1
 16 18  1  0
 18 19  1  0
 19 20  1  0
 20 21  1  0
 21 22  1  0
 22 23  1  0
 23 24  1  0
 24 25  1  0
 25 26  1  0
 26 27  2  0
 26 28  1  0
 28 29  1  0
 28 30  1  0
 30 31  1  0
 31 32  2  0
 31 33  1  0
  8 34  2  0
 33 14  1  0
 34  4  1  0
M  END
$$$$
