
     RDKit          3D

 34 35  0  0  0  0  0  0  0  0999 V2000
  -12.4903  -34.1961  -13.1508 C   0  0  0  0  0  0  0  0  0  0  0  0
  -13.5214  -34.4506  -12.0974 C   0  0  0  0  0  0  0  0  0  0  0  0
  -14.7833  -35.1015  -12.6227 C   0  0  0  0  0  0  0  0  0  0  0  0
  -12.9961  -35.3304  -11.0164 C   0  0  0  0  0  0  0  0  0  0  0  0
  -12.0905  -34.8857  -10.0806 C   0  0  0  0  0  0  0  0  0  0  0  0
  -11.6207  -35.7280   -9.0892 C   0  0  0  0  0  0  0  0  0  0  0  0
  -12.0253  -37.0318   -8.9864 C   0  0  0  0  0  0  0  0  0  0  0  0
  -12.9464  -37.5066   -9.9276 C   0  0  0  0  0  0  0  0  0  0  0  0
  -13.4096  -38.9313   -9.8612 C   0  0  0  0  0  0  0  0  0  0  0  0
  -14.3246  -39.1690  -10.9187 N   0  0  0  0  0  0  0  0  0  0  0  0
  -15.5029  -39.8415  -10.5449 C   0  0  0  0  0  0  0  0  0  0  0  0
  -16.6107  -39.0572   -9.9438 C   0  0  1  0  0  0  0  0  0  0  0  0
  -17.2160  -38.1430  -10.7795 O   0  0  0  0  0  0  0  0  0  0  0  0
  -17.6741  -39.9255   -9.2534 C   0  0  2  0  0  0  0  0  0  0  0  0
  -18.4997  -39.0378   -8.4044 C   0  0  0  0  0  0  0  0  0  0  0  0
  -19.9607  -38.9318   -8.8702 C   0  0  2  0  0  0  0  0  0  0  0  0
  -20.3477  -37.5088   -9.1781 C   0  0  0  0  0  0  0  0  0  0  0  0
  -20.8052  -39.5965   -7.8403 C   0  0  0  0  0  0  0  0  0  0  0  0
  -22.2707  -39.3660   -7.9348 C   0  0  0  0  0  0  0  0  0  0  0  0
  -22.7967  -38.6279   -6.7144 C   0  0  0  0  0  0  0  0  0  0  0  0
  -22.5812  -39.3796   -5.4310 C   0  0  0  0  0  0  0  0  0  0  0  0
  -23.5066  -40.5696   -5.3003 C   0  0  0  0  0  0  0  0  0  0  0  0
  -22.9230  -41.6710   -4.4821 C   0  0  0  0  0  0  0  0  0  0  0  0
  -22.3313  -42.7926   -5.3051 C   0  0  0  0  0  0  0  0  0  0  0  0
  -20.8184  -42.8275   -5.2154 C   0  0  0  0  0  0  0  0  0  0  0  0
  -20.2674  -43.4165   -6.4624 C   0  0  0  0  0  0  0  0  0  0  0  0
  -20.9917  -44.2519   -7.0727 O   0  0  0  0  0  0  0  0  0  0  0  0
  -18.9926  -43.1014   -7.0023 N   0  0  0  0  0  0  0  0  0  0  0  0
  -18.4465  -43.9352   -8.0689 C   0  0  0  0  0  0  0  0  0  0  0  0
  -18.2361  -41.9614   -6.5030 C   0  0  0  0  0  0  0  0  0  0  0  0
  -17.1094  -41.6051   -7.3874 C   0  0  0  0  0  0  0  0  0  0  0  0
  -15.9598  -41.7933   -6.8289 O   0  0  0  0  0  0  0  0  0  0  0  0
  -17.1413  -41.1113   -8.7018 N   0  0  0  0  0  0  0  0  0  0  0  0
  -13.4052  -36.6668  -10.9044 C   0  0  0  0  0  0  0  0  0  0  0  0
  1  2  1  0
  2  3  1  0
  2  4  1  0
  4  5  2  0
  5  6  1  0
  6  7  2  0
  7  8  1  0
  8  9  1  0
  9 10  1  0
 10 11  1  0
 11 12  1  0
 12 13  1  6
 12 14  1  0
 14 15  1  1
 15 16  1  0
 16 17  1  1
 16 18  1  0
 18 19  1  0
 19 20  1  0
 20 21  1  0
 21 22  1  0
 22 23  1  0
 23 24  1  0
 24 25  1  0
 25 26  1  0
 26 27  2  0
 26 28  1  0
 28 29  1  0
 28 30  1  0
 30 31  1  0
 31 32  2  0
 31 33  1  0
  8 34  2  0
 33 14  1  0
 34  4  1  0
M  END
$$$$
