
     RDKit          3D

 34 35  0  0  0  0  0  0  0  0999 V2000
  -13.9576  -34.8534  -14.4827 C   0  0  0  0  0  0  0  0  0  0  0  0
  -13.5069  -35.0208  -13.0662 C   0  0  0  0  0  0  0  0  0  0  0  0
  -13.4487  -33.7243  -12.2867 C   0  0  0  0  0  0  0  0  0  0  0  0
  -14.4009  -35.9422  -12.3111 C   0  0  0  0  0  0  0  0  0  0  0  0
  -15.7634  -35.7594  -12.2496 C   0  0  0  0  0  0  0  0  0  0  0  0
  -16.5667  -36.6327  -11.5389 C   0  0  0  0  0  0  0  0  0  0  0  0
  -16.0572  -37.7114  -10.8672 C   0  0  0  0  0  0  0  0  0  0  0  0
  -14.6734  -37.9175  -10.9155 C   0  0  0  0  0  0  0  0  0  0  0  0
  -14.0691  -39.0797  -10.1855 C   0  0  0  0  0  0  0  0  0  0  0  0
  -15.0618  -39.6780   -9.3679 N   0  0  0  0  0  0  0  0  0  0  0  0
  -14.9168  -39.4414   -7.9882 C   0  0  0  0  0  0  0  0  0  0  0  0
  -16.1138  -39.0483   -7.2032 C   0  0  1  0  0  0  0  0  0  0  0  0
  -16.5231  -37.7406   -7.3544 O   0  0  0  0  0  0  0  0  0  0  0  0
  -17.3074  -39.9990   -7.3856 C   0  0  2  0  0  0  0  0  0  0  0  0
  -18.2952  -39.6910   -6.3273 C   0  0  0  0  0  0  0  0  0  0  0  0
  -19.6173  -39.1260   -6.8709 C   0  0  2  0  0  0  0  0  0  0  0  0
  -19.9200  -37.7647   -6.3010 C   0  0  0  0  0  0  0  0  0  0  0  0
  -20.6710  -40.1492   -6.6292 C   0  0  0  0  0  0  0  0  0  0  0  0
  -22.0787  -39.7071   -6.8108 C   0  0  0  0  0  0  0  0  0  0  0  0
  -22.8567  -39.7809   -5.5069 C   0  0  0  0  0  0  0  0  0  0  0  0
  -22.9326  -41.1716   -4.9421 C   0  0  0  0  0  0  0  0  0  0  0  0
  -23.8699  -42.0608   -5.7297 C   0  0  0  0  0  0  0  0  0  0  0  0
  -23.4862  -43.5006   -5.6754 C   0  0  0  0  0  0  0  0  0  0  0  0
  -22.7334  -43.9762   -6.8971 C   0  0  0  0  0  0  0  0  0  0  0  0
  -21.2775  -44.2674   -6.5909 C   0  0  0  0  0  0  0  0  0  0  0  0
  -20.4685  -44.0635   -7.8195 C   0  0  0  0  0  0  0  0  0  0  0  0
  -21.0449  -44.2577   -8.9264 O   0  0  0  0  0  0  0  0  0  0  0  0
  -19.1046  -43.6690   -7.8246 N   0  0  0  0  0  0  0  0  0  0  0  0
  -18.3414  -43.7655   -9.0653 C   0  0  0  0  0  0  0  0  0  0  0  0
  -18.4710  -43.1725   -6.6109 C   0  0  0  0  0  0  0  0  0  0  0  0
  -17.1755  -42.5190   -6.8816 C   0  0  0  0  0  0  0  0  0  0  0  0
  -16.1779  -43.1611   -6.3703 O   0  0  0  0  0  0  0  0  0  0  0  0
  -16.9149  -41.3389   -7.5971 N   0  0  0  0  0  0  0  0  0  0  0  0
  -13.8871  -37.0489  -11.6205 C   0  0  0  0  0  0  0  0  0  0  0  0
  1  2  1  0
  2  3  1  0
  2  4  1  0
  4  5  2  0
  5  6  1  0
  6  7  2  0
  7  8  1  0
  8  9  1  0
  9 10  1  0
 10 11  1  0
 11 12  1  0
 12 13  1  6
 12 14  1  0
 14 15  1  1
 15 16  1  0
 16 17  1  1
 16 18  1  0
 18 19  1  0
 19 20  1  0
 20 21  1  0
 21 22  1  0
 22 23  1  0
 23 24  1  0
 24 25  1  0
 25 26  1  0
 26 27  2  0
 26 28  1  0
 28 29  1  0
 28 30  1  0
 30 31  1  0
 31 32  2  0
 31 33  1  0
  8 34  2  0
 33 14  1  0
 34  4  1  0
M  END
$$$$
