
     RDKit          3D

 34 35  0  0  0  0  0  0  0  0999 V2000
  -13.0105  -35.4474  -13.0687 C   0  0  0  0  0  0  0  0  0  0  0  0
  -12.0508  -36.5541  -13.3716 C   0  0  0  0  0  0  0  0  0  0  0  0
  -10.6756  -36.3510  -12.7720 C   0  0  0  0  0  0  0  0  0  0  0  0
  -12.5518  -37.8661  -12.8754 C   0  0  0  0  0  0  0  0  0  0  0  0
  -12.8263  -38.9165  -13.7210 C   0  0  0  0  0  0  0  0  0  0  0  0
  -13.2914  -40.1226  -13.2290 C   0  0  0  0  0  0  0  0  0  0  0  0
  -13.5012  -40.3342  -11.8928 C   0  0  0  0  0  0  0  0  0  0  0  0
  -13.2288  -39.2796  -11.0133 C   0  0  0  0  0  0  0  0  0  0  0  0
  -13.4545  -39.4616   -9.5420 C   0  0  0  0  0  0  0  0  0  0  0  0
  -14.6239  -38.7540   -9.1633 N   0  0  0  0  0  0  0  0  0  0  0  0
  -15.4821  -39.4485   -8.2906 C   0  0  0  0  0  0  0  0  0  0  0  0
  -16.7658  -38.8140   -7.8991 C   0  0  1  0  0  0  0  0  0  0  0  0
  -17.1113  -37.6818   -8.6056 O   0  0  0  0  0  0  0  0  0  0  0  0
  -17.9491  -39.7938   -7.8616 C   0  0  2  0  0  0  0  0  0  0  0  0
  -18.7693  -39.4652   -6.6742 C   0  0  0  0  0  0  0  0  0  0  0  0
  -20.1731  -38.9469   -7.0254 C   0  0  2  0  0  0  0  0  0  0  0  0
  -20.4183  -37.5711   -6.4626 C   0  0  0  0  0  0  0  0  0  0  0  0
  -21.1511  -39.9804   -6.5884 C   0  0  0  0  0  0  0  0  0  0  0  0
  -22.5805  -39.5729   -6.5648 C   0  0  0  0  0  0  0  0  0  0  0  0
  -23.1461  -39.6125   -5.1543 C   0  0  0  0  0  0  0  0  0  0  0  0
  -23.0993  -40.9820   -4.5372 C   0  0  0  0  0  0  0  0  0  0  0  0
  -24.1244  -41.9183   -5.1391 C   0  0  0  0  0  0  0  0  0  0  0  0
  -23.7010  -43.3473   -5.0954 C   0  0  0  0  0  0  0  0  0  0  0  0
  -23.1339  -43.8541   -6.4019 C   0  0  0  0  0  0  0  0  0  0  0  0
  -21.6414  -44.1053   -6.3153 C   0  0  0  0  0  0  0  0  0  0  0  0
  -21.0368  -43.9323   -7.6607 C   0  0  0  0  0  0  0  0  0  0  0  0
  -21.7719  -44.1793   -8.6575 O   0  0  0  0  0  0  0  0  0  0  0  0
  -19.7002  -43.5120   -7.8906 N   0  0  0  0  0  0  0  0  0  0  0  0
  -19.1352  -43.6404   -9.2305 C   0  0  0  0  0  0  0  0  0  0  0  0
  -18.8997  -42.9577   -6.8075 C   0  0  0  0  0  0  0  0  0  0  0  0
  -17.6782  -42.2900   -7.2979 C   0  0  0  0  0  0  0  0  0  0  0  0
  -16.5979  -42.8929   -6.9256 O   0  0  0  0  0  0  0  0  0  0  0  0
  -17.5605  -41.1330   -8.0853 N   0  0  0  0  0  0  0  0  0  0  0  0
  -12.7695  -38.0908  -11.5086 C   0  0  0  0  0  0  0  0  0  0  0  0
  1  2  1  0
  2  3  1  0
  2  4  1  0
  4  5  2  0
  5  6  1  0
  6  7  2  0
  7  8  1  0
  8  9  1  0
  9 10  1  0
 10 11  1  0
 11 12  1  0
 12 13  1  6
 12 14  1  0
 14 15  1  1
 15 16  1  0
 16 17  1  1
 16 18  1  0
 18 19  1  0
 19 20  1  0
 20 21  1  0
 21 22  1  0
 22 23  1  0
 23 24  1  0
 24 25  1  0
 25 26  1  0
 26 27  2  0
 26 28  1  0
 28 29  1  0
 28 30  1  0
 30 31  1  0
 31 32  2  0
 31 33  1  0
  8 34  2  0
 33 14  1  0
 34  4  1  0
M  END
$$$$
