
     RDKit          3D

 34 35  0  0  0  0  0  0  0  0999 V2000
  -10.8946  -36.3831  -14.2971 C   0  0  0  0  0  0  0  0  0  0  0  0
  -10.5876  -37.7642  -13.8112 C   0  0  0  0  0  0  0  0  0  0  0  0
   -9.5619  -37.8062  -12.6985 C   0  0  0  0  0  0  0  0  0  0  0  0
  -11.8078  -38.4514  -13.3038 C   0  0  0  0  0  0  0  0  0  0  0  0
  -12.2502  -39.6457  -13.8249 C   0  0  0  0  0  0  0  0  0  0  0  0
  -13.3880  -40.2585  -13.3322 C   0  0  0  0  0  0  0  0  0  0  0  0
  -14.1259  -39.7179  -12.3135 C   0  0  0  0  0  0  0  0  0  0  0  0
  -13.6949  -38.5030  -11.7676 C   0  0  0  0  0  0  0  0  0  0  0  0
  -14.4779  -37.8675  -10.6577 C   0  0  0  0  0  0  0  0  0  0  0  0
  -15.8308  -38.2830  -10.7505 N   0  0  0  0  0  0  0  0  0  0  0  0
  -16.6112  -38.0248   -9.6082 C   0  0  0  0  0  0  0  0  0  0  0  0
  -16.4831  -38.9298   -8.4385 C   0  0  1  0  0  0  0  0  0  0  0  0
  -16.1030  -38.3282   -7.2578 O   0  0  0  0  0  0  0  0  0  0  0  0
  -17.7195  -39.8126   -8.2065 C   0  0  2  0  0  0  0  0  0  0  0  0
  -18.3528  -39.3784   -6.9413 C   0  0  0  0  0  0  0  0  0  0  0  0
  -19.7490  -38.7655   -7.1354 C   0  0  2  0  0  0  0  0  0  0  0  0
  -19.8187  -37.3554   -6.6099 C   0  0  0  0  0  0  0  0  0  0  0  0
  -20.7344  -39.7033   -6.5311 C   0  0  0  0  0  0  0  0  0  0  0  0
  -22.1153  -39.1852   -6.3455 C   0  0  0  0  0  0  0  0  0  0  0  0
  -22.4946  -39.1295   -4.8745 C   0  0  0  0  0  0  0  0  0  0  0  0
  -22.4676  -40.4753   -4.2060 C   0  0  0  0  0  0  0  0  0  0  0  0
  -23.6272  -41.3502   -4.6296 C   0  0  0  0  0  0  0  0  0  0  0  0
  -23.3065  -42.8052   -4.5743 C   0  0  0  0  0  0  0  0  0  0  0  0
  -22.9519  -43.4017   -5.9174 C   0  0  0  0  0  0  0  0  0  0  0  0
  -21.4829  -43.7649   -6.0089 C   0  0  0  0  0  0  0  0  0  0  0  0
  -21.0469  -43.6883   -7.4265 C   0  0  0  0  0  0  0  0  0  0  0  0
  -21.9210  -43.9133   -8.3099 O   0  0  0  0  0  0  0  0  0  0  0  0
  -19.7245  -43.3819   -7.8428 N   0  0  0  0  0  0  0  0  0  0  0  0
  -19.3488  -43.6024   -9.2361 C   0  0  0  0  0  0  0  0  0  0  0  0
  -18.7522  -42.8527   -6.8964 C   0  0  0  0  0  0  0  0  0  0  0  0
  -17.5594  -42.3002   -7.5676 C   0  0  0  0  0  0  0  0  0  0  0  0
  -16.4866  -42.9714   -7.3077 O   0  0  0  0  0  0  0  0  0  0  0  0
  -17.4613  -41.1852   -8.4158 N   0  0  0  0  0  0  0  0  0  0  0  0
  -12.5690  -37.9043  -12.2611 C   0  0  0  0  0  0  0  0  0  0  0  0
  1  2  1  0
  2  3  1  0
  2  4  1  0
  4  5  2  0
  5  6  1  0
  6  7  2  0
  7  8  1  0
  8  9  1  0
  9 10  1  0
 10 11  1  0
 11 12  1  0
 12 13  1  1
 12 14  1  0
 14 15  1  1
 15 16  1  0
 16 17  1  1
 16 18  1  0
 18 19  1  0
 19 20  1  0
 20 21  1  0
 21 22  1  0
 22 23  1  0
 23 24  1  0
 24 25  1  0
 25 26  1  0
 26 27  2  0
 26 28  1  0
 28 29  1  0
 28 30  1  0
 30 31  1  0
 31 32  2  0
 31 33  1  0
  8 34  2  0
 33 14  1  0
 34  4  1  0
M  END
$$$$
