
     RDKit          3D

 34 35  0  0  0  0  0  0  0  0999 V2000
  -10.7732  -43.2303   -9.5406 C   0  0  0  0  0  0  0  0  0  0  0  0
  -10.6200  -42.0137  -10.3973 C   0  0  0  0  0  0  0  0  0  0  0  0
   -9.5766  -42.1598  -11.4844 C   0  0  0  0  0  0  0  0  0  0  0  0
  -11.8991  -41.6505  -11.0684 C   0  0  0  0  0  0  0  0  0  0  0  0
  -12.5643  -42.5185  -11.9037 C   0  0  0  0  0  0  0  0  0  0  0  0
  -13.7503  -42.1509  -12.5129 C   0  0  0  0  0  0  0  0  0  0  0  0
  -14.3192  -40.9205  -12.3209 C   0  0  0  0  0  0  0  0  0  0  0  0
  -13.6603  -40.0204  -11.4751 C   0  0  0  0  0  0  0  0  0  0  0  0
  -14.2402  -38.6570  -11.2438 C   0  0  0  0  0  0  0  0  0  0  0  0
  -14.3338  -38.4259   -9.8475 N   0  0  0  0  0  0  0  0  0  0  0  0
  -15.1358  -39.3450   -9.1457 C   0  0  0  0  0  0  0  0  0  0  0  0
  -16.2026  -38.8243   -8.2544 C   0  0  1  0  0  0  0  0  0  0  0  0
  -16.6835  -37.5712   -8.5688 O   0  0  0  0  0  0  0  0  0  0  0  0
  -17.3707  -39.8034   -8.0574 C   0  0  2  0  0  0  0  0  0  0  0  0
  -18.0710  -39.4248   -6.8098 C   0  0  0  0  0  0  0  0  0  0  0  0
  -19.5057  -38.9243   -7.0418 C   0  0  2  0  0  0  0  0  0  0  0  0
  -19.7018  -37.5258   -6.5171 C   0  0  0  0  0  0  0  0  0  0  0  0
  -20.4295  -39.9394   -6.4658 C   0  0  0  0  0  0  0  0  0  0  0  0
  -21.8519  -39.5334   -6.3178 C   0  0  0  0  0  0  0  0  0  0  0  0
  -22.2747  -39.5125   -4.8578 C   0  0  0  0  0  0  0  0  0  0  0  0
  -22.1590  -40.8540   -4.1900 C   0  0  0  0  0  0  0  0  0  0  0  0
  -23.2332  -41.8170   -4.6463 C   0  0  0  0  0  0  0  0  0  0  0  0
  -22.7993  -43.2421   -4.5835 C   0  0  0  0  0  0  0  0  0  0  0  0
  -22.3616  -43.8043   -5.9168 C   0  0  0  0  0  0  0  0  0  0  0  0
  -20.8664  -44.0492   -5.9680 C   0  0  0  0  0  0  0  0  0  0  0  0
  -20.3992  -43.9339   -7.3730 C   0  0  0  0  0  0  0  0  0  0  0  0
  -21.2280  -44.2250   -8.2804 O   0  0  0  0  0  0  0  0  0  0  0  0
  -19.0945  -43.5219   -7.7524 N   0  0  0  0  0  0  0  0  0  0  0  0
  -18.6643  -43.7075   -9.1350 C   0  0  0  0  0  0  0  0  0  0  0  0
  -18.1937  -42.9200   -6.7790 C   0  0  0  0  0  0  0  0  0  0  0  0
  -17.0307  -42.2723   -7.4166 C   0  0  0  0  0  0  0  0  0  0  0  0
  -15.9154  -42.8568   -7.1278 O   0  0  0  0  0  0  0  0  0  0  0  0
  -16.9984  -41.1504   -8.2608 N   0  0  0  0  0  0  0  0  0  0  0  0
  -12.4881  -40.3925  -10.8772 C   0  0  0  0  0  0  0  0  0  0  0  0
  1  2  1  0
  2  3  1  0
  2  4  1  0
  4  5  2  0
  5  6  1  0
  6  7  2  0
  7  8  1  0
  8  9  1  0
  9 10  1  0
 10 11  1  0
 11 12  1  0
 12 13  1  6
 12 14  1  0
 14 15  1  1
 15 16  1  0
 16 17  1  1
 16 18  1  0
 18 19  1  0
 19 20  1  0
 20 21  1  0
 21 22  1  0
 22 23  1  0
 23 24  1  0
 24 25  1  0
 25 26  1  0
 26 27  2  0
 26 28  1  0
 28 29  1  0
 28 30  1  0
 30 31  1  0
 31 32  2  0
 31 33  1  0
  8 34  2  0
 33 14  1  0
 34  4  1  0
M  END
$$$$
