
     RDKit          3D

 34 35  0  0  0  0  0  0  0  0999 V2000
  -16.6775  -35.8691  -13.1224 C   0  0  0  0  0  0  0  0  0  0  0  0
  -15.3761  -35.3017  -12.6513 C   0  0  0  0  0  0  0  0  0  0  0  0
  -15.5042  -34.4052  -11.4381 C   0  0  0  0  0  0  0  0  0  0  0  0
  -14.4052  -36.3746  -12.2983 C   0  0  0  0  0  0  0  0  0  0  0  0
  -13.2606  -36.6006  -13.0280 C   0  0  0  0  0  0  0  0  0  0  0  0
  -12.3789  -37.6060  -12.6747 C   0  0  0  0  0  0  0  0  0  0  0  0
  -12.5939  -38.4199  -11.5951 C   0  0  0  0  0  0  0  0  0  0  0  0
  -13.7521  -38.2087  -10.8376 C   0  0  0  0  0  0  0  0  0  0  0  0
  -14.0351  -39.0832   -9.6527 C   0  0  0  0  0  0  0  0  0  0  0  0
  -14.9416  -38.4140   -8.7911 N   0  0  0  0  0  0  0  0  0  0  0  0
  -15.0570  -38.9695   -7.5032 C   0  0  0  0  0  0  0  0  0  0  0  0
  -16.3428  -38.8216   -6.7763 C   0  0  1  0  0  0  0  0  0  0  0  0
  -16.8792  -37.5517   -6.7655 O   0  0  0  0  0  0  0  0  0  0  0  0
  -17.4104  -39.8415   -7.2026 C   0  0  2  0  0  0  0  0  0  0  0  0
  -18.5320  -39.7489   -6.2414 C   0  0  0  0  0  0  0  0  0  0  0  0
  -19.8370  -39.2371   -6.8722 C   0  0  2  0  0  0  0  0  0  0  0  0
  -20.3319  -37.9854   -6.1955 C   0  0  0  0  0  0  0  0  0  0  0  0
  -20.8048  -40.3680   -6.8716 C   0  0  0  0  0  0  0  0  0  0  0  0
  -22.2213  -40.0288   -7.1689 C   0  0  0  0  0  0  0  0  0  0  0  0
  -23.1243  -40.3257   -5.9826 C   0  0  0  0  0  0  0  0  0  0  0  0
  -23.1235  -41.7758   -5.5878 C   0  0  0  0  0  0  0  0  0  0  0  0
  -23.8783  -42.6399   -6.5742 C   0  0  0  0  0  0  0  0  0  0  0  0
  -23.3628  -44.0377   -6.6340 C   0  0  0  0  0  0  0  0  0  0  0  0
  -22.4396  -44.2964   -7.8028 C   0  0  0  0  0  0  0  0  0  0  0  0
  -21.0036  -44.4973   -7.3602 C   0  0  0  0  0  0  0  0  0  0  0  0
  -20.0909  -44.0782   -8.4542 C   0  0  0  0  0  0  0  0  0  0  0  0
  -20.5226  -44.1856   -9.6362 O   0  0  0  0  0  0  0  0  0  0  0  0
  -18.7798  -43.5713   -8.2540 N   0  0  0  0  0  0  0  0  0  0  0  0
  -17.8815  -43.4517   -9.3984 C   0  0  0  0  0  0  0  0  0  0  0  0
  -18.3327  -43.1729   -6.9264 C   0  0  0  0  0  0  0  0  0  0  0  0
  -17.0863  -42.3834   -6.9678 C   0  0  0  0  0  0  0  0  0  0  0  0
  -16.0913  -42.9953   -6.4158 O   0  0  0  0  0  0  0  0  0  0  0  0
  -16.8674  -41.1077   -7.5127 N   0  0  0  0  0  0  0  0  0  0  0  0
  -14.6182  -37.2125  -11.1944 C   0  0  0  0  0  0  0  0  0  0  0  0
  1  2  1  0
  2  3  1  0
  2  4  1  0
  4  5  2  0
  5  6  1  0
  6  7  2  0
  7  8  1  0
  8  9  1  0
  9 10  1  0
 10 11  1  0
 11 12  1  0
 12 13  1  6
 12 14  1  0
 14 15  1  1
 15 16  1  0
 16 17  1  1
 16 18  1  0
 18 19  1  0
 19 20  1  0
 20 21  1  0
 21 22  1  0
 22 23  1  0
 23 24  1  0
 24 25  1  0
 25 26  1  0
 26 27  2  0
 26 28  1  0
 28 29  1  0
 28 30  1  0
 30 31  1  0
 31 32  2  0
 31 33  1  0
  8 34  2  0
 33 14  1  0
 34  4  1  0
M  END
$$$$
