
     RDKit          3D

 34 35  0  0  0  0  0  0  0  0999 V2000
  -24.4694  -41.1354   -6.0437 C   0  0  0  0  0  0  0  0  0  0  0  0
  -23.0513  -41.5278   -6.3135 C   0  0  0  0  0  0  0  0  0  0  0  0
  -22.9130  -42.8042   -7.1158 C   0  0  0  0  0  0  0  0  0  0  0  0
  -22.3199  -40.4651   -7.0578 C   0  0  0  0  0  0  0  0  0  0  0  0
  -22.6376  -40.1213   -8.3519 C   0  0  0  0  0  0  0  0  0  0  0  0
  -21.9385  -39.1302   -9.0165 C   0  0  0  0  0  0  0  0  0  0  0  0
  -20.9066  -38.4466   -8.4314 C   0  0  0  0  0  0  0  0  0  0  0  0
  -20.5653  -38.7792   -7.1151 C   0  0  0  0  0  0  0  0  0  0  0  0
  -19.4344  -38.0648   -6.4373 C   0  0  0  0  0  0  0  0  0  0  0  0
  -18.4843  -37.6725   -7.4147 N   0  0  0  0  0  0  0  0  0  0  0  0
  -17.4975  -38.6334   -7.7033 C   0  0  0  0  0  0  0  0  0  0  0  0
  -16.0699  -38.2340   -7.6257 C   0  0  1  0  0  0  0  0  0  0  0  0
  -15.4953  -38.3144   -6.3751 O   0  0  0  0  0  0  0  0  0  0  0  0
  -15.1783  -38.9361   -8.6619 C   0  0  2  0  0  0  0  0  0  0  0  0
  -15.0957  -38.0609   -9.8526 C   0  0  0  0  0  0  0  0  0  0  0  0
  -13.6836  -37.5111  -10.1104 C   0  0  2  0  0  0  0  0  0  0  0  0
  -13.6615  -36.0048  -10.1114 C   0  0  0  0  0  0  0  0  0  0  0  0
  -13.1828  -38.1408  -11.3627 C   0  0  0  0  0  0  0  0  0  0  0  0
  -11.9590  -37.5455  -11.9608 C   0  0  0  0  0  0  0  0  0  0  0  0
  -12.2410  -36.9594  -13.3348 C   0  0  0  0  0  0  0  0  0  0  0  0
  -12.7266  -37.9809  -14.3245 C   0  0  0  0  0  0  0  0  0  0  0  0
  -11.6225  -38.9105  -14.7787 C   0  0  0  0  0  0  0  0  0  0  0  0
  -12.1232  -40.2612  -15.1637 C   0  0  0  0  0  0  0  0  0  0  0  0
  -11.9444  -41.3064  -14.0862 C   0  0  0  0  0  0  0  0  0  0  0  0
  -13.2670  -41.7265  -13.4758 C   0  0  0  0  0  0  0  0  0  0  0  0
  -13.0412  -42.1719  -12.0771 C   0  0  0  0  0  0  0  0  0  0  0  0
  -11.9112  -42.6666  -11.8065 O   0  0  0  0  0  0  0  0  0  0  0  0
  -14.0063  -42.0765  -11.0401 N   0  0  0  0  0  0  0  0  0  0  0  0
  -13.7759  -42.7889   -9.7869 C   0  0  0  0  0  0  0  0  0  0  0  0
  -15.2114  -41.2785  -11.2187 C   0  0  0  0  0  0  0  0  0  0  0  0
  -15.9195  -41.0393   -9.9459 C   0  0  0  0  0  0  0  0  0  0  0  0
  -17.0781  -41.6097   -9.9063 O   0  0  0  0  0  0  0  0  0  0  0  0
  -15.4992  -40.3013   -8.8274 N   0  0  0  0  0  0  0  0  0  0  0  0
  -21.2619  -39.7605   -6.4659 C   0  0  0  0  0  0  0  0  0  0  0  0
  1  2  1  0
  2  3  1  0
  2  4  1  0
  4  5  2  0
  5  6  1  0
  6  7  2  0
  7  8  1  0
  8  9  1  0
  9 10  1  0
 10 11  1  0
 11 12  1  0
 12 13  1  1
 12 14  1  0
 14 15  1  6
 15 16  1  0
 16 17  1  6
 16 18  1  0
 18 19  1  0
 19 20  1  0
 20 21  1  0
 21 22  1  0
 22 23  1  0
 23 24  1  0
 24 25  1  0
 25 26  1  0
 26 27  2  0
 26 28  1  0
 28 29  1  0
 28 30  1  0
 30 31  1  0
 31 32  2  0
 31 33  1  0
  8 34  2  0
 33 14  1  0
 34  4  1  0
M  END
$$$$
