
     RDKit          3D

 34 35  0  0  0  0  0  0  0  0999 V2000
  -13.7893  -34.6486  -11.6553 C   0  0  0  0  0  0  0  0  0  0  0  0
  -12.8125  -35.6096  -12.2555 C   0  0  0  0  0  0  0  0  0  0  0  0
  -11.4312  -35.5405  -11.6398 C   0  0  0  0  0  0  0  0  0  0  0  0
  -13.2772  -37.0185  -12.1238 C   0  0  0  0  0  0  0  0  0  0  0  0
  -13.9530  -37.6677  -13.1316 C   0  0  0  0  0  0  0  0  0  0  0  0
  -14.3723  -38.9768  -12.9781 C   0  0  0  0  0  0  0  0  0  0  0  0
  -14.1412  -39.6880  -11.8314 C   0  0  0  0  0  0  0  0  0  0  0  0
  -13.4553  -39.0481  -10.7923 C   0  0  0  0  0  0  0  0  0  0  0  0
  -13.1893  -39.7841   -9.5131 C   0  0  0  0  0  0  0  0  0  0  0  0
  -13.6494  -38.9994   -8.4248 N   0  0  0  0  0  0  0  0  0  0  0  0
  -14.7054  -39.5670   -7.6878 C   0  0  0  0  0  0  0  0  0  0  0  0
  -16.0011  -38.8449   -7.6280 C   0  0  1  0  0  0  0  0  0  0  0  0
  -16.1347  -37.7863   -8.5008 O   0  0  0  0  0  0  0  0  0  0  0  0
  -17.2247  -39.7693   -7.7286 C   0  0  2  0  0  0  0  0  0  0  0  0
  -18.2031  -39.3353   -6.7064 C   0  0  0  0  0  0  0  0  0  0  0  0
  -19.5056  -38.7794   -7.3040 C   0  0  2  0  0  0  0  0  0  0  0  0
  -19.7646  -37.3632   -6.8605 C   0  0  0  0  0  0  0  0  0  0  0  0
  -20.5922  -39.7421   -6.9753 C   0  0  0  0  0  0  0  0  0  0  0  0
  -21.9846  -39.2732   -7.2017 C   0  0  0  0  0  0  0  0  0  0  0  0
  -22.7660  -39.2039   -5.8996 C   0  0  0  0  0  0  0  0  0  0  0  0
  -22.8876  -40.5348   -5.2120 C   0  0  0  0  0  0  0  0  0  0  0  0
  -23.8524  -41.4607   -5.9200 C   0  0  0  0  0  0  0  0  0  0  0  0
  -23.5157  -42.9013   -5.7344 C   0  0  0  0  0  0  0  0  0  0  0  0
  -22.7774  -43.5093   -6.9052 C   0  0  0  0  0  0  0  0  0  0  0  0
  -21.3320  -43.8185   -6.5682 C   0  0  0  0  0  0  0  0  0  0  0  0
  -20.5155  -43.7524   -7.8070 C   0  0  0  0  0  0  0  0  0  0  0  0
  -21.0966  -44.0271   -8.8941 O   0  0  0  0  0  0  0  0  0  0  0  0
  -19.1395  -43.4042   -7.8421 N   0  0  0  0  0  0  0  0  0  0  0  0
  -18.3784  -43.6368   -9.0659 C   0  0  0  0  0  0  0  0  0  0  0  0
  -18.4914  -42.8208   -6.6756 C   0  0  0  0  0  0  0  0  0  0  0  0
  -17.1751  -42.2364   -6.9989 C   0  0  0  0  0  0  0  0  0  0  0  0
  -16.1994  -42.8615   -6.4277 O   0  0  0  0  0  0  0  0  0  0  0  0
  -16.8756  -41.1348   -7.8169 N   0  0  0  0  0  0  0  0  0  0  0  0
  -13.0447  -37.7537  -10.9528 C   0  0  0  0  0  0  0  0  0  0  0  0
  1  2  1  0
  2  3  1  0
  2  4  1  0
  4  5  2  0
  5  6  1  0
  6  7  2  0
  7  8  1  0
  8  9  1  0
  9 10  1  0
 10 11  1  0
 11 12  1  0
 12 13  1  6
 12 14  1  0
 14 15  1  1
 15 16  1  0
 16 17  1  1
 16 18  1  0
 18 19  1  0
 19 20  1  0
 20 21  1  0
 21 22  1  0
 22 23  1  0
 23 24  1  0
 24 25  1  0
 25 26  1  0
 26 27  2  0
 26 28  1  0
 28 29  1  0
 28 30  1  0
 30 31  1  0
 31 32  2  0
 31 33  1  0
  8 34  2  0
 33 14  1  0
 34  4  1  0
M  END
$$$$
