
     RDKit          3D

 34 35  0  0  0  0  0  0  0  0999 V2000
  -11.6246  -38.5851  -14.7405 C   0  0  0  0  0  0  0  0  0  0  0  0
  -12.7033  -38.7867  -13.7239 C   0  0  0  0  0  0  0  0  0  0  0  0
  -12.6623  -40.1421  -13.0507 C   0  0  0  0  0  0  0  0  0  0  0  0
  -12.6379  -37.7629  -12.6440 C   0  0  0  0  0  0  0  0  0  0  0  0
  -12.4039  -36.4322  -12.9048 C   0  0  0  0  0  0  0  0  0  0  0  0
  -12.3482  -35.5057  -11.8794 C   0  0  0  0  0  0  0  0  0  0  0  0
  -12.5204  -35.8571  -10.5675 C   0  0  0  0  0  0  0  0  0  0  0  0
  -12.7598  -37.2056  -10.2779 C   0  0  0  0  0  0  0  0  0  0  0  0
  -12.9433  -37.6390   -8.8541 C   0  0  0  0  0  0  0  0  0  0  0  0
  -13.5501  -38.9210   -8.8363 N   0  0  0  0  0  0  0  0  0  0  0  0
  -14.8883  -38.9508   -9.2709 C   0  0  0  0  0  0  0  0  0  0  0  0
  -15.9526  -38.5200   -8.3301 C   0  0  1  0  0  0  0  0  0  0  0  0
  -16.4327  -37.2414   -8.5177 O   0  0  0  0  0  0  0  0  0  0  0  0
  -17.1214  -39.5126   -8.2284 C   0  0  2  0  0  0  0  0  0  0  0  0
  -17.9855  -39.0786   -7.1080 C   0  0  0  0  0  0  0  0  0  0  0  0
  -19.3847  -38.6256   -7.5551 C   0  0  2  0  0  0  0  0  0  0  0  0
  -19.6694  -37.2039   -7.1460 C   0  0  0  0  0  0  0  0  0  0  0  0
  -20.3607  -39.6266   -7.0443 C   0  0  0  0  0  0  0  0  0  0  0  0
  -21.7962  -39.2456   -7.1081 C   0  0  0  0  0  0  0  0  0  0  0  0
  -22.4078  -39.1499   -5.7197 C   0  0  0  0  0  0  0  0  0  0  0  0
  -22.3606  -40.4474   -4.9626 C   0  0  0  0  0  0  0  0  0  0  0  0
  -23.3506  -41.4597   -5.4961 C   0  0  0  0  0  0  0  0  0  0  0  0
  -22.9071  -42.8684   -5.2912 C   0  0  0  0  0  0  0  0  0  0  0  0
  -22.2892  -43.4967   -6.5196 C   0  0  0  0  0  0  0  0  0  0  0  0
  -20.7967  -43.7097   -6.3603 C   0  0  0  0  0  0  0  0  0  0  0  0
  -20.1504  -43.6652   -7.6967 C   0  0  0  0  0  0  0  0  0  0  0  0
  -20.8480  -44.0273   -8.6852 O   0  0  0  0  0  0  0  0  0  0  0  0
  -18.8135  -43.2459   -7.9267 N   0  0  0  0  0  0  0  0  0  0  0  0
  -18.2023  -43.5014   -9.2276 C   0  0  0  0  0  0  0  0  0  0  0  0
  -18.0580  -42.5681   -6.8823 C   0  0  0  0  0  0  0  0  0  0  0  0
  -16.8312  -41.9318   -7.4006 C   0  0  0  0  0  0  0  0  0  0  0  0
  -15.7548  -42.4728   -6.9339 O   0  0  0  0  0  0  0  0  0  0  0  0
  -16.7051  -40.8602   -8.2996 N   0  0  0  0  0  0  0  0  0  0  0  0
  -12.8130  -38.1146  -11.2981 C   0  0  0  0  0  0  0  0  0  0  0  0
  1  2  1  0
  2  3  1  0
  2  4  1  0
  4  5  2  0
  5  6  1  0
  6  7  2  0
  7  8  1  0
  8  9  1  0
  9 10  1  0
 10 11  1  0
 11 12  1  0
 12 13  1  6
 12 14  1  0
 14 15  1  1
 15 16  1  0
 16 17  1  1
 16 18  1  0
 18 19  1  0
 19 20  1  0
 20 21  1  0
 21 22  1  0
 22 23  1  0
 23 24  1  0
 24 25  1  0
 25 26  1  0
 26 27  2  0
 26 28  1  0
 28 29  1  0
 28 30  1  0
 30 31  1  0
 31 32  2  0
 31 33  1  0
  8 34  2  0
 33 14  1  0
 34  4  1  0
M  END
$$$$
