
     RDKit          3D

 34 35  0  0  0  0  0  0  0  0999 V2000
  -11.1012  -41.0161  -13.7123 C   0  0  0  0  0  0  0  0  0  0  0  0
  -12.4492  -40.4217  -13.9717 C   0  0  0  0  0  0  0  0  0  0  0  0
  -13.6000  -41.3289  -13.5913 C   0  0  0  0  0  0  0  0  0  0  0  0
  -12.6382  -39.1449  -13.2285 C   0  0  0  0  0  0  0  0  0  0  0  0
  -12.7817  -37.9351  -13.8686 C   0  0  0  0  0  0  0  0  0  0  0  0
  -12.9548  -36.7663  -13.1496 C   0  0  0  0  0  0  0  0  0  0  0  0
  -12.9923  -36.7494  -11.7812 C   0  0  0  0  0  0  0  0  0  0  0  0
  -12.8484  -37.9684  -11.1082 C   0  0  0  0  0  0  0  0  0  0  0  0
  -12.8716  -37.9972   -9.6090 C   0  0  0  0  0  0  0  0  0  0  0  0
  -14.1910  -37.7294   -9.1626 N   0  0  0  0  0  0  0  0  0  0  0  0
  -14.8107  -38.7876   -8.4720 C   0  0  0  0  0  0  0  0  0  0  0  0
  -15.9791  -38.4864   -7.6073 C   0  0  1  0  0  0  0  0  0  0  0  0
  -16.4826  -37.2071   -7.7093 O   0  0  0  0  0  0  0  0  0  0  0  0
  -17.1165  -39.5123   -7.7322 C   0  0  2  0  0  0  0  0  0  0  0  0
  -18.1082  -39.2174   -6.6740 C   0  0  0  0  0  0  0  0  0  0  0  0
  -19.4678  -38.7547   -7.2221 C   0  0  2  0  0  0  0  0  0  0  0  0
  -19.8437  -37.3902   -6.7061 C   0  0  0  0  0  0  0  0  0  0  0  0
  -20.4562  -39.8265   -6.9223 C   0  0  0  0  0  0  0  0  0  0  0  0
  -21.8896  -39.4759   -7.1025 C   0  0  0  0  0  0  0  0  0  0  0  0
  -22.6465  -39.5389   -5.7857 C   0  0  0  0  0  0  0  0  0  0  0  0
  -22.6335  -40.9060   -5.1615 C   0  0  0  0  0  0  0  0  0  0  0  0
  -23.5257  -41.8816   -5.8973 C   0  0  0  0  0  0  0  0  0  0  0  0
  -23.0569  -43.2928   -5.7875 C   0  0  0  0  0  0  0  0  0  0  0  0
  -22.2917  -43.7758   -6.9985 C   0  0  0  0  0  0  0  0  0  0  0  0
  -20.8177  -43.9677   -6.7011 C   0  0  0  0  0  0  0  0  0  0  0  0
  -20.0366  -43.7699   -7.9486 C   0  0  0  0  0  0  0  0  0  0  0  0
  -20.6134  -44.0451   -9.0379 O   0  0  0  0  0  0  0  0  0  0  0  0
  -18.6985  -43.2968   -7.9898 N   0  0  0  0  0  0  0  0  0  0  0  0
  -17.9455  -43.4018   -9.2360 C   0  0  0  0  0  0  0  0  0  0  0  0
  -18.0812  -42.7122   -6.8074 C   0  0  0  0  0  0  0  0  0  0  0  0
  -16.8299  -41.9962   -7.1239 C   0  0  0  0  0  0  0  0  0  0  0  0
  -15.7901  -42.5561   -6.6001 O   0  0  0  0  0  0  0  0  0  0  0  0
  -16.6479  -40.8349   -7.8924 N   0  0  0  0  0  0  0  0  0  0  0  0
  -12.6775  -39.1189  -11.8272 C   0  0  0  0  0  0  0  0  0  0  0  0
  1  2  1  0
  2  3  1  0
  2  4  1  0
  4  5  2  0
  5  6  1  0
  6  7  2  0
  7  8  1  0
  8  9  1  0
  9 10  1  0
 10 11  1  0
 11 12  1  0
 12 13  1  6
 12 14  1  0
 14 15  1  1
 15 16  1  0
 16 17  1  1
 16 18  1  0
 18 19  1  0
 19 20  1  0
 20 21  1  0
 21 22  1  0
 22 23  1  0
 23 24  1  0
 24 25  1  0
 25 26  1  0
 26 27  2  0
 26 28  1  0
 28 29  1  0
 28 30  1  0
 30 31  1  0
 31 32  2  0
 31 33  1  0
  8 34  2  0
 33 14  1  0
 34  4  1  0
M  END
$$$$
