
     RDKit          3D

 34 35  0  0  0  0  0  0  0  0999 V2000
  -12.0838  -35.9658  -14.1197 C   0  0  0  0  0  0  0  0  0  0  0  0
  -11.4596  -36.9449  -13.1766 C   0  0  0  0  0  0  0  0  0  0  0  0
  -10.4320  -36.3303  -12.2502 C   0  0  0  0  0  0  0  0  0  0  0  0
  -12.4804  -37.6056  -12.3165 C   0  0  0  0  0  0  0  0  0  0  0  0
  -12.6664  -38.9691  -12.3102 C   0  0  0  0  0  0  0  0  0  0  0  0
  -13.6238  -39.5524  -11.5002 C   0  0  0  0  0  0  0  0  0  0  0  0
  -14.4274  -38.8156  -10.6723 C   0  0  0  0  0  0  0  0  0  0  0  0
  -14.2563  -37.4262  -10.6618 C   0  0  0  0  0  0  0  0  0  0  0  0
  -15.1216  -36.5773   -9.7790 C   0  0  0  0  0  0  0  0  0  0  0  0
  -14.9576  -36.9941   -8.4332 N   0  0  0  0  0  0  0  0  0  0  0  0
  -15.4247  -38.2915   -8.1521 C   0  0  0  0  0  0  0  0  0  0  0  0
  -16.5388  -38.4535   -7.1844 C   0  0  1  0  0  0  0  0  0  0  0  0
  -17.2084  -37.2967   -6.8468 O   0  0  0  0  0  0  0  0  0  0  0  0
  -17.5426  -39.5475   -7.5809 C   0  0  2  0  0  0  0  0  0  0  0  0
  -18.4726  -39.7392   -6.4457 C   0  0  0  0  0  0  0  0  0  0  0  0
  -19.9208  -39.3360   -6.7669 C   0  0  2  0  0  0  0  0  0  0  0  0
  -20.4233  -38.2653   -5.8338 C   0  0  0  0  0  0  0  0  0  0  0  0
  -20.7364  -40.5811   -6.7808 C   0  0  0  0  0  0  0  0  0  0  0  0
  -22.2127  -40.4067   -6.7853 C   0  0  0  0  0  0  0  0  0  0  0  0
  -22.8436  -40.9796   -5.5265 C   0  0  0  0  0  0  0  0  0  0  0  0
  -22.6048  -42.4546   -5.3648 C   0  0  0  0  0  0  0  0  0  0  0  0
  -23.4236  -43.2785   -6.3345 C   0  0  0  0  0  0  0  0  0  0  0  0
  -22.7714  -44.5708   -6.6923 C   0  0  0  0  0  0  0  0  0  0  0  0
  -22.0541  -44.5425   -8.0228 C   0  0  0  0  0  0  0  0  0  0  0  0
  -20.5480  -44.5976   -7.8587 C   0  0  0  0  0  0  0  0  0  0  0  0
  -19.9048  -43.9154   -9.0104 C   0  0  0  0  0  0  0  0  0  0  0  0
  -20.5303  -43.9259  -10.1075 O   0  0  0  0  0  0  0  0  0  0  0  0
  -18.6459  -43.2612   -8.9531 N   0  0  0  0  0  0  0  0  0  0  0  0
  -17.9917  -42.8684  -10.1976 C   0  0  0  0  0  0  0  0  0  0  0  0
  -18.0120  -42.9821   -7.6719 C   0  0  0  0  0  0  0  0  0  0  0  0
  -16.8927  -42.0280   -7.7960 C   0  0  0  0  0  0  0  0  0  0  0  0
  -15.7502  -42.5622   -7.5159 O   0  0  0  0  0  0  0  0  0  0  0  0
  -16.9244  -40.6738   -8.1670 N   0  0  0  0  0  0  0  0  0  0  0  0
  -13.3074  -36.8582  -11.4660 C   0  0  0  0  0  0  0  0  0  0  0  0
  1  2  1  0
  2  3  1  0
  2  4  1  0
  4  5  2  0
  5  6  1  0
  6  7  2  0
  7  8  1  0
  8  9  1  0
  9 10  1  0
 10 11  1  0
 11 12  1  0
 12 13  1  6
 12 14  1  0
 14 15  1  1
 15 16  1  0
 16 17  1  1
 16 18  1  0
 18 19  1  0
 19 20  1  0
 20 21  1  0
 21 22  1  0
 22 23  1  0
 23 24  1  0
 24 25  1  0
 25 26  1  0
 26 27  2  0
 26 28  1  0
 28 29  1  0
 28 30  1  0
 30 31  1  0
 31 32  2  0
 31 33  1  0
  8 34  2  0
 33 14  1  0
 34  4  1  0
M  END
$$$$
