
     RDKit          3D

 34 35  0  0  0  0  0  0  0  0999 V2000
  -14.4538  -34.9029  -12.6765 C   0  0  0  0  0  0  0  0  0  0  0  0
  -13.1795  -35.6251  -12.9803 C   0  0  0  0  0  0  0  0  0  0  0  0
  -11.9565  -34.9995  -12.3440 C   0  0  0  0  0  0  0  0  0  0  0  0
  -13.2298  -37.0422  -12.5246 C   0  0  0  0  0  0  0  0  0  0  0  0
  -13.3361  -38.0948  -13.4046 C   0  0  0  0  0  0  0  0  0  0  0  0
  -13.3813  -39.4002  -12.9497 C   0  0  0  0  0  0  0  0  0  0  0  0
  -13.3237  -39.7119  -11.6179 C   0  0  0  0  0  0  0  0  0  0  0  0
  -13.2154  -38.6572  -10.7038 C   0  0  0  0  0  0  0  0  0  0  0  0
  -13.1605  -38.9500   -9.2340 C   0  0  0  0  0  0  0  0  0  0  0  0
  -14.2222  -39.8285   -8.8984 N   0  0  0  0  0  0  0  0  0  0  0  0
  -15.4913  -39.4291   -9.3571 C   0  0  0  0  0  0  0  0  0  0  0  0
  -16.4803  -38.9278   -8.3700 C   0  0  1  0  0  0  0  0  0  0  0  0
  -16.9992  -37.6770   -8.6283 O   0  0  0  0  0  0  0  0  0  0  0  0
  -17.6168  -39.9208   -8.0804 C   0  0  2  0  0  0  0  0  0  0  0  0
  -18.3598  -39.4245   -6.9006 C   0  0  0  0  0  0  0  0  0  0  0  0
  -19.8056  -39.0105   -7.2184 C   0  0  2  0  0  0  0  0  0  0  0  0
  -20.0642  -37.5683   -6.8681 C   0  0  0  0  0  0  0  0  0  0  0  0
  -20.7058  -39.9850   -6.5436 C   0  0  0  0  0  0  0  0  0  0  0  0
  -22.1450  -39.6194   -6.4727 C   0  0  0  0  0  0  0  0  0  0  0  0
  -22.6029  -39.4422   -5.0341 C   0  0  0  0  0  0  0  0  0  0  0  0
  -22.4551  -40.6897   -4.2090 C   0  0  0  0  0  0  0  0  0  0  0  0
  -23.4829  -41.7405   -4.5681 C   0  0  0  0  0  0  0  0  0  0  0  0
  -22.9998  -43.1304   -4.3274 C   0  0  0  0  0  0  0  0  0  0  0  0
  -22.5105  -43.8292   -5.5756 C   0  0  0  0  0  0  0  0  0  0  0  0
  -21.0067  -44.0208   -5.5682 C   0  0  0  0  0  0  0  0  0  0  0  0
  -20.5106  -44.0547   -6.9676 C   0  0  0  0  0  0  0  0  0  0  0  0
  -21.3066  -44.4828   -7.8497 O   0  0  0  0  0  0  0  0  0  0  0  0
  -19.2128  -43.6406   -7.3680 N   0  0  0  0  0  0  0  0  0  0  0  0
  -18.7434  -43.9719   -8.7100 C   0  0  0  0  0  0  0  0  0  0  0  0
  -18.3577  -42.8936   -6.4560 C   0  0  0  0  0  0  0  0  0  0  0  0
  -17.2038  -42.2816   -7.1435 C   0  0  0  0  0  0  0  0  0  0  0  0
  -16.0754  -42.7845   -6.7655 O   0  0  0  0  0  0  0  0  0  0  0  0
  -17.1917  -41.2671   -8.1146 N   0  0  0  0  0  0  0  0  0  0  0  0
  -13.1716  -37.3698  -11.1626 C   0  0  0  0  0  0  0  0  0  0  0  0
  1  2  1  0
  2  3  1  0
  2  4  1  0
  4  5  2  0
  5  6  1  0
  6  7  2  0
  7  8  1  0
  8  9  1  0
  9 10  1  0
 10 11  1  0
 11 12  1  0
 12 13  1  6
 12 14  1  0
 14 15  1  1
 15 16  1  0
 16 17  1  1
 16 18  1  0
 18 19  1  0
 19 20  1  0
 20 21  1  0
 21 22  1  0
 22 23  1  0
 23 24  1  0
 24 25  1  0
 25 26  1  0
 26 27  2  0
 26 28  1  0
 28 29  1  0
 28 30  1  0
 30 31  1  0
 31 32  2  0
 31 33  1  0
  8 34  2  0
 33 14  1  0
 34  4  1  0
M  END
$$$$
