
     RDKit          3D

 34 35  0  0  0  0  0  0  0  0999 V2000
  -14.6591  -37.9112  -14.8698 C   0  0  0  0  0  0  0  0  0  0  0  0
  -13.5716  -37.2546  -14.0800 C   0  0  0  0  0  0  0  0  0  0  0  0
  -13.1087  -35.9343  -14.6584 C   0  0  0  0  0  0  0  0  0  0  0  0
  -13.9957  -36.9896  -12.6770 C   0  0  0  0  0  0  0  0  0  0  0  0
  -14.9907  -36.0913  -12.3661 C   0  0  0  0  0  0  0  0  0  0  0  0
  -15.3612  -35.8668  -11.0526 C   0  0  0  0  0  0  0  0  0  0  0  0
  -14.7664  -36.5169  -10.0048 C   0  0  0  0  0  0  0  0  0  0  0  0
  -13.7514  -37.4356  -10.2968 C   0  0  0  0  0  0  0  0  0  0  0  0
  -13.0635  -38.1631   -9.1804 C   0  0  0  0  0  0  0  0  0  0  0  0
  -13.9408  -38.2376   -8.0683 N   0  0  0  0  0  0  0  0  0  0  0  0
  -15.1606  -38.8941   -8.3169 C   0  0  0  0  0  0  0  0  0  0  0  0
  -16.0587  -39.1860   -7.1716 C   0  0  1  0  0  0  0  0  0  0  0  0
  -16.5355  -38.0854   -6.4920 O   0  0  0  0  0  0  0  0  0  0  0  0
  -17.2182  -40.1305   -7.5255 C   0  0  2  0  0  0  0  0  0  0  0  0
  -18.2858  -39.9303   -6.5202 C   0  0  0  0  0  0  0  0  0  0  0  0
  -19.5751  -39.3345   -7.1080 C   0  0  2  0  0  0  0  0  0  0  0  0
  -19.9434  -38.0335   -6.4437 C   0  0  0  0  0  0  0  0  0  0  0  0
  -20.6246  -40.3875   -7.0368 C   0  0  0  0  0  0  0  0  0  0  0  0
  -22.0232  -39.9476   -7.2823 C   0  0  0  0  0  0  0  0  0  0  0  0
  -22.8925  -40.1473   -6.0513 C   0  0  0  0  0  0  0  0  0  0  0  0
  -22.9838  -41.5839   -5.6193 C   0  0  0  0  0  0  0  0  0  0  0  0
  -23.8449  -42.4097   -6.5499 C   0  0  0  0  0  0  0  0  0  0  0  0
  -23.4398  -43.8439   -6.5951 C   0  0  0  0  0  0  0  0  0  0  0  0
  -22.5915  -44.1991   -7.7950 C   0  0  0  0  0  0  0  0  0  0  0  0
  -21.1566  -44.4995   -7.4088 C   0  0  0  0  0  0  0  0  0  0  0  0
  -20.2643  -44.1765   -8.5512 C   0  0  0  0  0  0  0  0  0  0  0  0
  -20.7550  -44.2773   -9.7106 O   0  0  0  0  0  0  0  0  0  0  0  0
  -18.9111  -43.7672   -8.4202 N   0  0  0  0  0  0  0  0  0  0  0  0
  -18.0579  -43.7429   -9.6045 C   0  0  0  0  0  0  0  0  0  0  0  0
  -18.3766  -43.3742   -7.1237 C   0  0  0  0  0  0  0  0  0  0  0  0
  -17.0771  -42.6838   -7.2385 C   0  0  0  0  0  0  0  0  0  0  0  0
  -16.1077  -43.3574   -6.7136 O   0  0  0  0  0  0  0  0  0  0  0  0
  -16.7868  -41.4413   -7.8253 N   0  0  0  0  0  0  0  0  0  0  0  0
  -13.3916  -37.6510  -11.5983 C   0  0  0  0  0  0  0  0  0  0  0  0
  1  2  1  0
  2  3  1  0
  2  4  1  0
  4  5  2  0
  5  6  1  0
  6  7  2  0
  7  8  1  0
  8  9  1  0
  9 10  1  0
 10 11  1  0
 11 12  1  0
 12 13  1  6
 12 14  1  0
 14 15  1  1
 15 16  1  0
 16 17  1  1
 16 18  1  0
 18 19  1  0
 19 20  1  0
 20 21  1  0
 21 22  1  0
 22 23  1  0
 23 24  1  0
 24 25  1  0
 25 26  1  0
 26 27  2  0
 26 28  1  0
 28 29  1  0
 28 30  1  0
 30 31  1  0
 31 32  2  0
 31 33  1  0
  8 34  2  0
 33 14  1  0
 34  4  1  0
M  END
$$$$
