
     RDKit          3D

 34 35  0  0  0  0  0  0  0  0999 V2000
  -10.6080  -35.1660  -11.6266 C   0  0  0  0  0  0  0  0  0  0  0  0
  -11.3168  -35.6368  -12.8569 C   0  0  0  0  0  0  0  0  0  0  0  0
  -10.4437  -36.4451  -13.7931 C   0  0  0  0  0  0  0  0  0  0  0  0
  -12.4949  -36.4840  -12.5212 C   0  0  0  0  0  0  0  0  0  0  0  0
  -13.7116  -36.3336  -13.1464 C   0  0  0  0  0  0  0  0  0  0  0  0
  -14.7873  -37.1359  -12.8114 C   0  0  0  0  0  0  0  0  0  0  0  0
  -14.7015  -38.1097  -11.8529 C   0  0  0  0  0  0  0  0  0  0  0  0
  -13.4733  -38.2811  -11.2032 C   0  0  0  0  0  0  0  0  0  0  0  0
  -13.3354  -39.3280  -10.1384 C   0  0  0  0  0  0  0  0  0  0  0  0
  -14.6113  -39.8885   -9.8741 N   0  0  0  0  0  0  0  0  0  0  0  0
  -15.5947  -38.9647   -9.4741 C   0  0  0  0  0  0  0  0  0  0  0  0
  -16.1175  -39.0368   -8.0866 C   0  0  1  0  0  0  0  0  0  0  0  0
  -16.3247  -37.8246   -7.4636 O   0  0  0  0  0  0  0  0  0  0  0  0
  -17.3656  -39.9224   -7.9458 C   0  0  2  0  0  0  0  0  0  0  0  0
  -18.1716  -39.3907   -6.8242 C   0  0  0  0  0  0  0  0  0  0  0  0
  -19.5335  -38.8286   -7.2626 C   0  0  2  0  0  0  0  0  0  0  0  0
  -19.6885  -37.3789   -6.8831 C   0  0  0  0  0  0  0  0  0  0  0  0
  -20.5839  -39.7300   -6.7152 C   0  0  0  0  0  0  0  0  0  0  0  0
  -21.9821  -39.2280   -6.7683 C   0  0  0  0  0  0  0  0  0  0  0  0
  -22.5614  -39.0491   -5.3743 C   0  0  0  0  0  0  0  0  0  0  0  0
  -22.6141  -40.3288   -4.5878 C   0  0  0  0  0  0  0  0  0  0  0  0
  -23.6957  -41.2634   -5.0839 C   0  0  0  0  0  0  0  0  0  0  0  0
  -23.3719  -42.7003   -4.8521 C   0  0  0  0  0  0  0  0  0  0  0  0
  -22.8295  -43.4066   -6.0737 C   0  0  0  0  0  0  0  0  0  0  0  0
  -21.3586  -43.7440   -5.9299 C   0  0  0  0  0  0  0  0  0  0  0  0
  -20.7318  -43.7851   -7.2757 C   0  0  0  0  0  0  0  0  0  0  0  0
  -21.4734  -44.1075   -8.2458 O   0  0  0  0  0  0  0  0  0  0  0  0
  -19.3676  -43.4880   -7.5337 N   0  0  0  0  0  0  0  0  0  0  0  0
  -18.8010  -43.8241   -8.8365 C   0  0  0  0  0  0  0  0  0  0  0  0
  -18.5404  -42.8550   -6.5158 C   0  0  0  0  0  0  0  0  0  0  0  0
  -17.2717  -42.3386   -7.0656 C   0  0  0  0  0  0  0  0  0  0  0  0
  -16.2386  -42.9600   -6.6011 O   0  0  0  0  0  0  0  0  0  0  0  0
  -17.0680  -41.3021   -7.9911 N   0  0  0  0  0  0  0  0  0  0  0  0
  -12.4154  -37.4832  -11.5408 C   0  0  0  0  0  0  0  0  0  0  0  0
  1  2  1  0
  2  3  1  0
  2  4  1  0
  4  5  2  0
  5  6  1  0
  6  7  2  0
  7  8  1  0
  8  9  1  0
  9 10  1  0
 10 11  1  0
 11 12  1  0
 12 13  1  6
 12 14  1  0
 14 15  1  1
 15 16  1  0
 16 17  1  1
 16 18  1  0
 18 19  1  0
 19 20  1  0
 20 21  1  0
 21 22  1  0
 22 23  1  0
 23 24  1  0
 24 25  1  0
 25 26  1  0
 26 27  2  0
 26 28  1  0
 28 29  1  0
 28 30  1  0
 30 31  1  0
 31 32  2  0
 31 33  1  0
  8 34  2  0
 33 14  1  0
 34  4  1  0
M  END
$$$$
