
     RDKit          3D

 34 35  0  0  0  0  0  0  0  0999 V2000
  -10.1146  -37.6565  -10.9686 C   0  0  0  0  0  0  0  0  0  0  0  0
  -10.6708  -39.0368  -11.1207 C   0  0  0  0  0  0  0  0  0  0  0  0
  -10.9221  -39.7423   -9.8050 C   0  0  0  0  0  0  0  0  0  0  0  0
  -11.9617  -39.0295  -11.8636 C   0  0  0  0  0  0  0  0  0  0  0  0
  -12.2570  -39.9583  -12.8351 C   0  0  0  0  0  0  0  0  0  0  0  0
  -13.4649  -39.9242  -13.5079 C   0  0  0  0  0  0  0  0  0  0  0  0
  -14.4193  -38.9777  -13.2477 C   0  0  0  0  0  0  0  0  0  0  0  0
  -14.1411  -38.0222  -12.2632 C   0  0  0  0  0  0  0  0  0  0  0  0
  -15.1521  -36.9592  -11.9521 C   0  0  0  0  0  0  0  0  0  0  0  0
  -15.4119  -36.9632  -10.5577 N   0  0  0  0  0  0  0  0  0  0  0  0
  -16.2130  -38.0284  -10.1058 C   0  0  0  0  0  0  0  0  0  0  0  0
  -17.0325  -37.8345   -8.8832 C   0  0  1  0  0  0  0  0  0  0  0  0
  -17.7197  -36.6418   -8.8088 O   0  0  0  0  0  0  0  0  0  0  0  0
  -17.9790  -39.0081   -8.5857 C   0  0  2  0  0  0  0  0  0  0  0  0
  -18.7099  -38.6929   -7.3380 C   0  0  0  0  0  0  0  0  0  0  0  0
  -20.2204  -38.4991   -7.5467 C   0  0  2  0  0  0  0  0  0  0  0  0
  -20.6762  -37.1346   -7.0994 C   0  0  0  0  0  0  0  0  0  0  0  0
  -20.9113  -39.6353   -6.8778 C   0  0  0  0  0  0  0  0  0  0  0  0
  -22.3818  -39.5065   -6.7024 C   0  0  0  0  0  0  0  0  0  0  0  0
  -22.7649  -39.4732   -5.2317 C   0  0  0  0  0  0  0  0  0  0  0  0
  -22.3704  -40.7193   -4.4899 C   0  0  0  0  0  0  0  0  0  0  0  0
  -23.2439  -41.9017   -4.8484 C   0  0  0  0  0  0  0  0  0  0  0  0
  -22.5357  -43.2071   -4.7169 C   0  0  0  0  0  0  0  0  0  0  0  0
  -22.0279  -43.7590   -6.0295 C   0  0  0  0  0  0  0  0  0  0  0  0
  -20.5155  -43.7095   -6.1208 C   0  0  0  0  0  0  0  0  0  0  0  0
  -20.1144  -43.5973   -7.5463 C   0  0  0  0  0  0  0  0  0  0  0  0
  -20.8911  -44.1038   -8.4038 O   0  0  0  0  0  0  0  0  0  0  0  0
  -18.9263  -42.9639   -7.9970 N   0  0  0  0  0  0  0  0  0  0  0  0
  -18.5016  -43.1520   -9.3810 C   0  0  0  0  0  0  0  0  0  0  0  0
  -18.1390  -42.1349   -7.0949 C   0  0  0  0  0  0  0  0  0  0  0  0
  -17.1426  -41.3154   -7.8119 C   0  0  0  0  0  0  0  0  0  0  0  0
  -15.9271  -41.6503   -7.5299 O   0  0  0  0  0  0  0  0  0  0  0  0
  -17.3530  -40.2666   -8.7220 N   0  0  0  0  0  0  0  0  0  0  0  0
  -12.9442  -38.0636  -11.6033 C   0  0  0  0  0  0  0  0  0  0  0  0
  1  2  1  0
  2  3  1  0
  2  4  1  0
  4  5  2  0
  5  6  1  0
  6  7  2  0
  7  8  1  0
  8  9  1  0
  9 10  1  0
 10 11  1  0
 11 12  1  0
 12 13  1  6
 12 14  1  0
 14 15  1  1
 15 16  1  0
 16 17  1  1
 16 18  1  0
 18 19  1  0
 19 20  1  0
 20 21  1  0
 21 22  1  0
 22 23  1  0
 23 24  1  0
 24 25  1  0
 25 26  1  0
 26 27  2  0
 26 28  1  0
 28 29  1  0
 28 30  1  0
 30 31  1  0
 31 32  2  0
 31 33  1  0
  8 34  2  0
 33 14  1  0
 34  4  1  0
M  END
$$$$
