
     RDKit          3D

 34 35  0  0  0  0  0  0  0  0999 V2000
  -10.6411  -35.2531  -11.9091 C   0  0  0  0  0  0  0  0  0  0  0  0
  -11.9761  -35.4251  -12.5617 C   0  0  0  0  0  0  0  0  0  0  0  0
  -11.9068  -35.5573  -14.0682 C   0  0  0  0  0  0  0  0  0  0  0  0
  -12.6849  -36.6317  -12.0516 C   0  0  0  0  0  0  0  0  0  0  0  0
  -13.3778  -37.4837  -12.8810 C   0  0  0  0  0  0  0  0  0  0  0  0
  -14.0266  -38.5960  -12.3762 C   0  0  0  0  0  0  0  0  0  0  0  0
  -14.0152  -38.9056  -11.0427 C   0  0  0  0  0  0  0  0  0  0  0  0
  -13.3166  -38.0532  -10.1796 C   0  0  0  0  0  0  0  0  0  0  0  0
  -13.2860  -38.3462   -8.7092 C   0  0  0  0  0  0  0  0  0  0  0  0
  -14.0369  -39.5228   -8.4573 N   0  0  0  0  0  0  0  0  0  0  0  0
  -15.3316  -39.5307   -9.0089 C   0  0  0  0  0  0  0  0  0  0  0  0
  -16.4359  -38.8996   -8.2435 C   0  0  1  0  0  0  0  0  0  0  0  0
  -16.8662  -37.6777   -8.7150 O   0  0  0  0  0  0  0  0  0  0  0  0
  -17.6375  -39.8308   -8.0180 C   0  0  2  0  0  0  0  0  0  0  0  0
  -18.5140  -39.1992   -7.0064 C   0  0  0  0  0  0  0  0  0  0  0  0
  -19.8871  -38.7857   -7.5599 C   0  0  2  0  0  0  0  0  0  0  0  0
  -20.1366  -37.3096   -7.3915 C   0  0  0  0  0  0  0  0  0  0  0  0
  -20.9061  -39.6647   -6.9239 C   0  0  0  0  0  0  0  0  0  0  0  0
  -22.3270  -39.2598   -7.0887 C   0  0  0  0  0  0  0  0  0  0  0  0
  -22.9681  -38.9259   -5.7515 C   0  0  0  0  0  0  0  0  0  0  0  0
  -22.9799  -40.0858   -4.7958 C   0  0  0  0  0  0  0  0  0  0  0  0
  -23.9883  -41.1433   -5.1888 C   0  0  0  0  0  0  0  0  0  0  0  0
  -23.5945  -42.5124   -4.7489 C   0  0  0  0  0  0  0  0  0  0  0  0
  -22.9676  -43.3463   -5.8430 C   0  0  0  0  0  0  0  0  0  0  0  0
  -21.4867  -43.5716   -5.6092 C   0  0  0  0  0  0  0  0  0  0  0  0
  -20.8077  -43.7599   -6.9165 C   0  0  0  0  0  0  0  0  0  0  0  0
  -21.4927  -44.2568   -7.8540 O   0  0  0  0  0  0  0  0  0  0  0  0
  -19.4532  -43.4197   -7.1723 N   0  0  0  0  0  0  0  0  0  0  0  0
  -18.8195  -43.8972   -8.3976 C   0  0  0  0  0  0  0  0  0  0  0  0
  -18.7018  -42.6038   -6.2284 C   0  0  0  0  0  0  0  0  0  0  0  0
  -17.4435  -42.0927   -6.8064 C   0  0  0  0  0  0  0  0  0  0  0  0
  -16.3962  -42.5810   -6.2287 O   0  0  0  0  0  0  0  0  0  0  0  0
  -17.2624  -41.1832   -7.8611 N   0  0  0  0  0  0  0  0  0  0  0  0
  -12.6782  -36.9557  -10.6875 C   0  0  0  0  0  0  0  0  0  0  0  0
  1  2  1  0
  2  3  1  0
  2  4  1  0
  4  5  2  0
  5  6  1  0
  6  7  2  0
  7  8  1  0
  8  9  1  0
  9 10  1  0
 10 11  1  0
 11 12  1  0
 12 13  1  6
 12 14  1  0
 14 15  1  1
 15 16  1  0
 16 17  1  1
 16 18  1  0
 18 19  1  0
 19 20  1  0
 20 21  1  0
 21 22  1  0
 22 23  1  0
 23 24  1  0
 24 25  1  0
 25 26  1  0
 26 27  2  0
 26 28  1  0
 28 29  1  0
 28 30  1  0
 30 31  1  0
 31 32  2  0
 31 33  1  0
  8 34  2  0
 33 14  1  0
 34  4  1  0
M  END
$$$$
