
     RDKit          3D

 34 35  0  0  0  0  0  0  0  0999 V2000
  -11.5815  -35.1912  -12.9979 C   0  0  0  0  0  0  0  0  0  0  0  0
  -12.8793  -35.4552  -12.3025 C   0  0  0  0  0  0  0  0  0  0  0  0
  -14.0871  -34.9145  -13.0378 C   0  0  0  0  0  0  0  0  0  0  0  0
  -13.1085  -36.9133  -12.1033 C   0  0  0  0  0  0  0  0  0  0  0  0
  -13.5855  -37.7270  -13.1055 C   0  0  0  0  0  0  0  0  0  0  0  0
  -13.7886  -39.0778  -12.8886 C   0  0  0  0  0  0  0  0  0  0  0  0
  -13.5300  -39.6707  -11.6820 C   0  0  0  0  0  0  0  0  0  0  0  0
  -13.0440  -38.8627  -10.6473 C   0  0  0  0  0  0  0  0  0  0  0  0
  -12.7572  -39.4664   -9.3049 C   0  0  0  0  0  0  0  0  0  0  0  0
  -13.6503  -38.9154   -8.3506 N   0  0  0  0  0  0  0  0  0  0  0  0
  -14.8187  -39.6673   -8.1271 C   0  0  0  0  0  0  0  0  0  0  0  0
  -16.0262  -38.9719   -7.6151 C   0  0  1  0  0  0  0  0  0  0  0  0
  -16.3403  -37.7840   -8.2400 O   0  0  0  0  0  0  0  0  0  0  0  0
  -17.2687  -39.8732   -7.5404 C   0  0  2  0  0  0  0  0  0  0  0  0
  -18.1202  -39.3769   -6.4363 C   0  0  0  0  0  0  0  0  0  0  0  0
  -19.4715  -38.8182   -6.9101 C   0  0  2  0  0  0  0  0  0  0  0  0
  -19.6559  -37.3798   -6.5021 C   0  0  0  0  0  0  0  0  0  0  0  0
  -20.5309  -39.7432   -6.4225 C   0  0  0  0  0  0  0  0  0  0  0  0
  -21.9317  -39.2542   -6.5141 C   0  0  0  0  0  0  0  0  0  0  0  0
  -22.5625  -39.1150   -5.1380 C   0  0  0  0  0  0  0  0  0  0  0  0
  -22.6293  -40.4136   -4.3845 C   0  0  0  0  0  0  0  0  0  0  0  0
  -23.6821  -41.3470   -4.9413 C   0  0  0  0  0  0  0  0  0  0  0  0
  -23.3510  -42.7856   -4.7322 C   0  0  0  0  0  0  0  0  0  0  0  0
  -22.7575  -43.4567   -5.9499 C   0  0  0  0  0  0  0  0  0  0  0  0
  -21.2890  -43.7827   -5.7612 C   0  0  0  0  0  0  0  0  0  0  0  0
  -20.6141  -43.7849   -7.0841 C   0  0  0  0  0  0  0  0  0  0  0  0
  -21.3168  -44.0913   -8.0877 O   0  0  0  0  0  0  0  0  0  0  0  0
  -19.2448  -43.4679   -7.2856 N   0  0  0  0  0  0  0  0  0  0  0  0
  -18.6283  -43.7666   -8.5747 C   0  0  0  0  0  0  0  0  0  0  0  0
  -18.4616  -42.8512   -6.2238 C   0  0  0  0  0  0  0  0  0  0  0  0
  -17.1798  -42.3089   -6.7150 C   0  0  0  0  0  0  0  0  0  0  0  0
  -16.1573  -42.9309   -6.2284 O   0  0  0  0  0  0  0  0  0  0  0  0
  -16.9545  -41.2484   -7.6077 N   0  0  0  0  0  0  0  0  0  0  0  0
  -12.8464  -37.5282  -10.8708 C   0  0  0  0  0  0  0  0  0  0  0  0
  1  2  1  0
  2  3  1  0
  2  4  1  0
  4  5  2  0
  5  6  1  0
  6  7  2  0
  7  8  1  0
  8  9  1  0
  9 10  1  0
 10 11  1  0
 11 12  1  0
 12 13  1  6
 12 14  1  0
 14 15  1  1
 15 16  1  0
 16 17  1  1
 16 18  1  0
 18 19  1  0
 19 20  1  0
 20 21  1  0
 21 22  1  0
 22 23  1  0
 23 24  1  0
 24 25  1  0
 25 26  1  0
 26 27  2  0
 26 28  1  0
 28 29  1  0
 28 30  1  0
 30 31  1  0
 31 32  2  0
 31 33  1  0
  8 34  2  0
 33 14  1  0
 34  4  1  0
M  END
$$$$
