
     RDKit          3D

 34 35  0  0  0  0  0  0  0  0999 V2000
  -13.3278  -35.2563  -13.3558 C   0  0  0  0  0  0  0  0  0  0  0  0
  -12.1629  -36.1943  -13.3878 C   0  0  0  0  0  0  0  0  0  0  0  0
  -11.0561  -35.8264  -12.4225 C   0  0  0  0  0  0  0  0  0  0  0  0
  -12.5731  -37.5898  -13.0673 C   0  0  0  0  0  0  0  0  0  0  0  0
  -12.9095  -38.5003  -14.0428 C   0  0  0  0  0  0  0  0  0  0  0  0
  -13.2872  -39.7892  -13.7126 C   0  0  0  0  0  0  0  0  0  0  0  0
  -13.3464  -40.2233  -12.4156 C   0  0  0  0  0  0  0  0  0  0  0  0
  -13.0085  -39.3144  -11.4060 C   0  0  0  0  0  0  0  0  0  0  0  0
  -13.0695  -39.7419   -9.9699 C   0  0  0  0  0  0  0  0  0  0  0  0
  -14.0771  -38.9945   -9.3082 N   0  0  0  0  0  0  0  0  0  0  0  0
  -14.7051  -39.6603   -8.2391 C   0  0  0  0  0  0  0  0  0  0  0  0
  -15.8865  -39.0271   -7.6010 C   0  0  1  0  0  0  0  0  0  0  0  0
  -16.1777  -37.7473   -8.0226 O   0  0  0  0  0  0  0  0  0  0  0  0
  -17.1512  -39.8988   -7.6484 C   0  0  2  0  0  0  0  0  0  0  0  0
  -18.0695  -39.4192   -6.5915 C   0  0  0  0  0  0  0  0  0  0  0  0
  -19.3697  -38.8107   -7.1412 C   0  0  2  0  0  0  0  0  0  0  0  0
  -19.5507  -37.3829   -6.6962 C   0  0  0  0  0  0  0  0  0  0  0  0
  -20.4825  -39.7248   -6.7647 C   0  0  0  0  0  0  0  0  0  0  0  0
  -21.8615  -39.1978   -6.9395 C   0  0  0  0  0  0  0  0  0  0  0  0
  -22.5876  -39.0897   -5.6084 C   0  0  0  0  0  0  0  0  0  0  0  0
  -22.7387  -40.4113   -4.9088 C   0  0  0  0  0  0  0  0  0  0  0  0
  -23.7689  -41.2982   -5.5732 C   0  0  0  0  0  0  0  0  0  0  0  0
  -23.4867  -42.7511   -5.3924 C   0  0  0  0  0  0  0  0  0  0  0  0
  -22.8213  -43.3950   -6.5874 C   0  0  0  0  0  0  0  0  0  0  0  0
  -21.3783  -43.7641   -6.3051 C   0  0  0  0  0  0  0  0  0  0  0  0
  -20.6088  -43.7382   -7.5751 C   0  0  0  0  0  0  0  0  0  0  0  0
  -21.2432  -43.9923   -8.6371 O   0  0  0  0  0  0  0  0  0  0  0  0
  -19.2217  -43.4491   -7.6659 N   0  0  0  0  0  0  0  0  0  0  0  0
  -18.5197  -43.7191   -8.9170 C   0  0  0  0  0  0  0  0  0  0  0  0
  -18.5042  -42.8890   -6.5289 C   0  0  0  0  0  0  0  0  0  0  0  0
  -17.1780  -42.3627   -6.9067 C   0  0  0  0  0  0  0  0  0  0  0  0
  -16.2081  -43.0265   -6.3703 O   0  0  0  0  0  0  0  0  0  0  0  0
  -16.8642  -41.2783   -7.7422 N   0  0  0  0  0  0  0  0  0  0  0  0
  -12.6364  -38.0421  -11.7417 C   0  0  0  0  0  0  0  0  0  0  0  0
  1  2  1  0
  2  3  1  0
  2  4  1  0
  4  5  2  0
  5  6  1  0
  6  7  2  0
  7  8  1  0
  8  9  1  0
  9 10  1  0
 10 11  1  0
 11 12  1  0
 12 13  1  6
 12 14  1  0
 14 15  1  1
 15 16  1  0
 16 17  1  1
 16 18  1  0
 18 19  1  0
 19 20  1  0
 20 21  1  0
 21 22  1  0
 22 23  1  0
 23 24  1  0
 24 25  1  0
 25 26  1  0
 26 27  2  0
 26 28  1  0
 28 29  1  0
 28 30  1  0
 30 31  1  0
 31 32  2  0
 31 33  1  0
  8 34  2  0
 33 14  1  0
 34  4  1  0
M  END
$$$$
