
     RDKit          3D

 34 35  0  0  0  0  0  0  0  0999 V2000
  -11.6577  -35.8955  -14.9288 C   0  0  0  0  0  0  0  0  0  0  0  0
  -12.8120  -36.8099  -14.6660 C   0  0  0  0  0  0  0  0  0  0  0  0
  -12.5753  -38.2364  -15.1143 C   0  0  0  0  0  0  0  0  0  0  0  0
  -13.1532  -36.8606  -13.2170 C   0  0  0  0  0  0  0  0  0  0  0  0
  -13.8019  -35.8293  -12.5773 C   0  0  0  0  0  0  0  0  0  0  0  0
  -14.1041  -35.9064  -11.2298 C   0  0  0  0  0  0  0  0  0  0  0  0
  -13.7787  -36.9975  -10.4696 C   0  0  0  0  0  0  0  0  0  0  0  0
  -13.1181  -38.0592  -11.0990 C   0  0  0  0  0  0  0  0  0  0  0  0
  -12.7317  -39.2705  -10.3037 C   0  0  0  0  0  0  0  0  0  0  0  0
  -13.5081  -39.3107   -9.1173 N   0  0  0  0  0  0  0  0  0  0  0  0
  -14.8957  -39.1784   -9.3107 C   0  0  0  0  0  0  0  0  0  0  0  0
  -15.7616  -38.9519   -8.1264 C   0  0  1  0  0  0  0  0  0  0  0  0
  -16.0905  -37.6378   -7.8706 O   0  0  0  0  0  0  0  0  0  0  0  0
  -17.0268  -39.8241   -8.1147 C   0  0  2  0  0  0  0  0  0  0  0  0
  -17.8541  -39.4034   -6.9619 C   0  0  0  0  0  0  0  0  0  0  0  0
  -19.1947  -38.7714   -7.3696 C   0  0  2  0  0  0  0  0  0  0  0  0
  -19.3369  -37.3693   -6.8372 C   0  0  0  0  0  0  0  0  0  0  0  0
  -20.2734  -39.7076   -6.9508 C   0  0  0  0  0  0  0  0  0  0  0  0
  -21.6616  -39.1768   -6.9832 C   0  0  0  0  0  0  0  0  0  0  0  0
  -22.2751  -39.1407   -5.5928 C   0  0  0  0  0  0  0  0  0  0  0  0
  -22.3690  -40.4975   -4.9531 C   0  0  0  0  0  0  0  0  0  0  0  0
  -23.4516  -41.3520   -5.5755 C   0  0  0  0  0  0  0  0  0  0  0  0
  -23.1568  -42.8113   -5.4949 C   0  0  0  0  0  0  0  0  0  0  0  0
  -22.5932  -43.3898   -6.7728 C   0  0  0  0  0  0  0  0  0  0  0  0
  -21.1321  -43.7683   -6.6305 C   0  0  0  0  0  0  0  0  0  0  0  0
  -20.4703  -43.6736   -7.9566 C   0  0  0  0  0  0  0  0  0  0  0  0
  -21.1907  -43.8741   -8.9744 O   0  0  0  0  0  0  0  0  0  0  0  0
  -19.0952  -43.3756   -8.1465 N   0  0  0  0  0  0  0  0  0  0  0  0
  -18.4994  -43.5776   -9.4638 C   0  0  0  0  0  0  0  0  0  0  0  0
  -18.2856  -42.8731   -7.0450 C   0  0  0  0  0  0  0  0  0  0  0  0
  -16.9946  -42.3235   -7.5030 C   0  0  0  0  0  0  0  0  0  0  0  0
  -15.9843  -43.0111   -7.0841 O   0  0  0  0  0  0  0  0  0  0  0  0
  -16.7499  -41.1959   -8.3038 N   0  0  0  0  0  0  0  0  0  0  0  0
  -12.8233  -37.9742  -12.4315 C   0  0  0  0  0  0  0  0  0  0  0  0
  1  2  1  0
  2  3  1  0
  2  4  1  0
  4  5  2  0
  5  6  1  0
  6  7  2  0
  7  8  1  0
  8  9  1  0
  9 10  1  0
 10 11  1  0
 11 12  1  0
 12 13  1  6
 12 14  1  0
 14 15  1  1
 15 16  1  0
 16 17  1  1
 16 18  1  0
 18 19  1  0
 19 20  1  0
 20 21  1  0
 21 22  1  0
 22 23  1  0
 23 24  1  0
 24 25  1  0
 25 26  1  0
 26 27  2  0
 26 28  1  0
 28 29  1  0
 28 30  1  0
 30 31  1  0
 31 32  2  0
 31 33  1  0
  8 34  2  0
 33 14  1  0
 34  4  1  0
M  END
$$$$
