
     RDKit          3D

 34 35  0  0  0  0  0  0  0  0999 V2000
  -12.6464  -36.7546  -15.0355 C   0  0  0  0  0  0  0  0  0  0  0  0
  -11.9981  -37.0876  -13.7292 C   0  0  0  0  0  0  0  0  0  0  0  0
  -10.7976  -36.2238  -13.4056 C   0  0  0  0  0  0  0  0  0  0  0  0
  -12.9512  -36.9506  -12.5929 C   0  0  0  0  0  0  0  0  0  0  0  0
  -14.1787  -36.3441  -12.7310 C   0  0  0  0  0  0  0  0  0  0  0  0
  -15.0414  -36.2316  -11.6557 C   0  0  0  0  0  0  0  0  0  0  0  0
  -14.7254  -36.7107  -10.4128 C   0  0  0  0  0  0  0  0  0  0  0  0
  -13.4817  -37.3318  -10.2483 C   0  0  0  0  0  0  0  0  0  0  0  0
  -13.0877  -37.8618   -8.9019 C   0  0  0  0  0  0  0  0  0  0  0  0
  -13.7628  -39.0880   -8.6729 N   0  0  0  0  0  0  0  0  0  0  0  0
  -15.1640  -39.0252   -8.7878 C   0  0  0  0  0  0  0  0  0  0  0  0
  -15.9809  -39.0198   -7.5483 C   0  0  1  0  0  0  0  0  0  0  0  0
  -16.3601  -37.7764   -7.0894 O   0  0  0  0  0  0  0  0  0  0  0  0
  -17.2003  -39.9529   -7.6122 C   0  0  2  0  0  0  0  0  0  0  0  0
  -18.1246  -39.5622   -6.5244 C   0  0  0  0  0  0  0  0  0  0  0  0
  -19.4627  -39.0006   -7.0313 C   0  0  2  0  0  0  0  0  0  0  0  0
  -19.7089  -37.6022   -6.5281 C   0  0  0  0  0  0  0  0  0  0  0  0
  -20.5214  -39.9845   -6.6754 C   0  0  0  0  0  0  0  0  0  0  0  0
  -21.9281  -39.5228   -6.8099 C   0  0  0  0  0  0  0  0  0  0  0  0
  -22.6373  -39.5036   -5.4654 C   0  0  0  0  0  0  0  0  0  0  0  0
  -22.7097  -40.8571   -4.8162 C   0  0  0  0  0  0  0  0  0  0  0  0
  -23.7041  -41.7696   -5.5004 C   0  0  0  0  0  0  0  0  0  0  0  0
  -23.3454  -43.2119   -5.3808 C   0  0  0  0  0  0  0  0  0  0  0  0
  -22.6675  -43.7742   -6.6095 C   0  0  0  0  0  0  0  0  0  0  0  0
  -21.2033  -44.0792   -6.3623 C   0  0  0  0  0  0  0  0  0  0  0  0
  -20.4567  -43.9649   -7.6410 C   0  0  0  0  0  0  0  0  0  0  0  0
  -21.0944  -44.2102   -8.7032 O   0  0  0  0  0  0  0  0  0  0  0  0
  -19.0877  -43.6016   -7.7399 N   0  0  0  0  0  0  0  0  0  0  0  0
  -18.3931  -43.7868   -9.0105 C   0  0  0  0  0  0  0  0  0  0  0  0
  -18.3814  -43.0496   -6.5921 C   0  0  0  0  0  0  0  0  0  0  0  0
  -17.0899  -42.4416   -6.9675 C   0  0  0  0  0  0  0  0  0  0  0  0
  -16.0790  -43.0748   -6.4714 O   0  0  0  0  0  0  0  0  0  0  0  0
  -16.8451  -41.3112   -7.7641 N   0  0  0  0  0  0  0  0  0  0  0  0
  -12.6352  -37.4383  -11.3169 C   0  0  0  0  0  0  0  0  0  0  0  0
  1  2  1  0
  2  3  1  0
  2  4  1  0
  4  5  2  0
  5  6  1  0
  6  7  2  0
  7  8  1  0
  8  9  1  0
  9 10  1  0
 10 11  1  0
 11 12  1  0
 12 13  1  6
 12 14  1  0
 14 15  1  1
 15 16  1  0
 16 17  1  1
 16 18  1  0
 18 19  1  0
 19 20  1  0
 20 21  1  0
 21 22  1  0
 22 23  1  0
 23 24  1  0
 24 25  1  0
 25 26  1  0
 26 27  2  0
 26 28  1  0
 28 29  1  0
 28 30  1  0
 30 31  1  0
 31 32  2  0
 31 33  1  0
  8 34  2  0
 33 14  1  0
 34  4  1  0
M  END
$$$$
