
     RDKit          3D

 34 35  0  0  0  0  0  0  0  0999 V2000
  -14.7290  -35.2217  -12.8783 C   0  0  0  0  0  0  0  0  0  0  0  0
  -13.6347  -35.9495  -13.5928 C   0  0  0  0  0  0  0  0  0  0  0  0
  -12.2666  -35.3279  -13.4092 C   0  0  0  0  0  0  0  0  0  0  0  0
  -13.5327  -37.3657  -13.1429 C   0  0  0  0  0  0  0  0  0  0  0  0
  -13.6247  -38.4242  -14.0175 C   0  0  0  0  0  0  0  0  0  0  0  0
  -13.5267  -39.7285  -13.5681 C   0  0  0  0  0  0  0  0  0  0  0  0
  -13.3356  -40.0335  -12.2472 C   0  0  0  0  0  0  0  0  0  0  0  0
  -13.2390  -38.9728  -11.3388 C   0  0  0  0  0  0  0  0  0  0  0  0
  -13.0409  -39.2590   -9.8801 C   0  0  0  0  0  0  0  0  0  0  0  0
  -13.9797  -38.5053   -9.1301 N   0  0  0  0  0  0  0  0  0  0  0  0
  -15.3066  -38.9686   -9.2021 C   0  0  0  0  0  0  0  0  0  0  0  0
  -16.2458  -38.6123   -8.1091 C   0  0  1  0  0  0  0  0  0  0  0  0
  -16.7404  -37.3259   -8.1434 O   0  0  0  0  0  0  0  0  0  0  0  0
  -17.3971  -39.6156   -7.9370 C   0  0  2  0  0  0  0  0  0  0  0  0
  -18.1178  -39.2660   -6.6925 C   0  0  0  0  0  0  0  0  0  0  0  0
  -19.5592  -38.7898   -6.9340 C   0  0  2  0  0  0  0  0  0  0  0  0
  -19.7874  -37.4019   -6.3942 C   0  0  0  0  0  0  0  0  0  0  0  0
  -20.4696  -39.8292   -6.3807 C   0  0  0  0  0  0  0  0  0  0  0  0
  -21.9010  -39.4520   -6.2433 C   0  0  0  0  0  0  0  0  0  0  0  0
  -22.3397  -39.4575   -4.7879 C   0  0  0  0  0  0  0  0  0  0  0  0
  -22.2057  -40.8048   -4.1355 C   0  0  0  0  0  0  0  0  0  0  0  0
  -23.2564  -41.7821   -4.6153 C   0  0  0  0  0  0  0  0  0  0  0  0
  -22.7963  -43.1994   -4.5654 C   0  0  0  0  0  0  0  0  0  0  0  0
  -22.3337  -43.7365   -5.9007 C   0  0  0  0  0  0  0  0  0  0  0  0
  -20.8337  -43.9525   -5.9386 C   0  0  0  0  0  0  0  0  0  0  0  0
  -20.3538  -43.8107   -7.3369 C   0  0  0  0  0  0  0  0  0  0  0  0
  -21.1672  -44.1060   -8.2568 O   0  0  0  0  0  0  0  0  0  0  0  0
  -19.0531  -43.3695   -7.6968 N   0  0  0  0  0  0  0  0  0  0  0  0
  -18.6048  -43.5296   -9.0768 C   0  0  0  0  0  0  0  0  0  0  0  0
  -18.1744  -42.7630   -6.7063 C   0  0  0  0  0  0  0  0  0  0  0  0
  -17.0172  -42.0855   -7.3230 C   0  0  0  0  0  0  0  0  0  0  0  0
  -15.8941  -42.6525   -7.0293 O   0  0  0  0  0  0  0  0  0  0  0  0
  -16.9972  -40.9527   -8.1529 N   0  0  0  0  0  0  0  0  0  0  0  0
  -13.3372  -37.6864  -11.7920 C   0  0  0  0  0  0  0  0  0  0  0  0
  1  2  1  0
  2  3  1  0
  2  4  1  0
  4  5  2  0
  5  6  1  0
  6  7  2  0
  7  8  1  0
  8  9  1  0
  9 10  1  0
 10 11  1  0
 11 12  1  0
 12 13  1  6
 12 14  1  0
 14 15  1  1
 15 16  1  0
 16 17  1  1
 16 18  1  0
 18 19  1  0
 19 20  1  0
 20 21  1  0
 21 22  1  0
 22 23  1  0
 23 24  1  0
 24 25  1  0
 25 26  1  0
 26 27  2  0
 26 28  1  0
 28 29  1  0
 28 30  1  0
 30 31  1  0
 31 32  2  0
 31 33  1  0
  8 34  2  0
 33 14  1  0
 34  4  1  0
M  END
$$$$
