
     RDKit          3D

 39 43  0  0  0  0  0  0  0  0999 V2000
  -10.9153  -36.2257  -13.8355 C   0  0  0  0  0  0  0  0  0  0  0  0
  -12.4041  -36.3770  -13.5218 C   0  0  0  0  0  0  0  0  0  0  0  0
  -13.1751  -36.2069  -14.8170 C   0  0  0  0  0  0  0  0  0  0  0  0
  -12.6106  -37.7113  -12.9540 C   0  0  0  0  0  0  0  0  0  0  0  0
  -12.4447  -38.8213  -13.7422 C   0  0  0  0  0  0  0  0  0  0  0  0
  -12.6373  -40.0691  -13.2152 C   0  0  0  0  0  0  0  0  0  0  0  0
  -12.9859  -40.1726  -11.9313 N   0  0  0  0  0  0  0  0  0  0  0  0
  -13.1594  -39.0885  -11.1188 C   0  0  0  0  0  0  0  0  0  0  0  0
  -12.9709  -37.8346  -11.6298 C   0  0  0  0  0  0  0  0  0  0  0  0
  -13.5475  -39.3828   -9.7127 C   0  0  0  0  0  0  0  0  0  0  0  0
  -12.6581  -40.1623   -8.8142 C   0  0  0  0  0  0  0  0  0  0  0  0
  -13.8497  -40.8126   -9.4472 C   0  0  0  0  0  0  0  0  0  0  0  0
  -14.3446  -38.3218   -9.1229 N   0  0  0  0  0  0  0  0  0  0  0  0
  -15.7402  -38.4021   -9.4870 C   0  0  0  0  0  0  0  0  0  0  0  0
  -16.5563  -38.4184   -8.2020 C   0  0  1  0  0  0  0  0  0  0  0  0
  -17.4637  -37.3855   -8.2361 O   0  0  0  0  0  0  0  0  0  0  0  0
  -17.2506  -39.7500   -8.0066 C   0  0  2  0  0  0  0  0  0  0  0  0
  -17.8479  -39.7865   -6.6319 C   0  0  0  0  0  0  0  0  0  0  0  0
  -19.2725  -39.3279   -6.5755 C   0  0  0  0  0  0  0  0  0  0  0  0
  -19.3881  -38.2388   -5.6660 C   0  0  0  0  0  0  0  0  0  0  0  0
  -20.5680  -37.6391   -5.3481 C   0  0  0  0  0  0  0  0  0  0  0  0
  -21.6701  -38.1630   -5.9742 C   0  0  0  0  0  0  0  0  0  0  0  0
  -21.6156  -39.2424   -6.8863 C   0  0  0  0  0  0  0  0  0  0  0  0
  -22.9767  -39.6009   -7.3608 C   0  0  0  0  0  0  0  0  0  0  0  0
  -23.4999  -40.9301   -6.8415 C   0  0  0  0  0  0  0  0  0  0  0  0
  -23.0200  -42.0333   -7.7658 C   0  0  0  0  0  0  0  0  0  0  0  0
  -22.2201  -43.0024   -6.9704 C   0  0  0  0  0  0  0  0  0  0  0  0
  -21.3574  -43.8806   -7.7331 N   0  0  0  0  0  0  0  0  0  0  0  0
  -20.1172  -43.5700   -8.3980 C   0  0  0  0  0  0  0  0  0  0  0  0
  -18.9635  -42.9670   -7.9755 C   0  0  0  0  0  0  0  0  0  0  0  0
  -17.9832  -42.7760   -8.9294 C   0  0  0  0  0  0  0  0  0  0  0  0
  -18.2097  -43.2099  -10.2622 C   0  0  0  0  0  0  0  0  0  0  0  0
  -19.3750  -43.8189  -10.6701 C   0  0  0  0  0  0  0  0  0  0  0  0
  -19.5948  -44.3336  -12.3280 Cl  0  0  0  0  0  0  0  0  0  0  0  0
  -20.2732  -43.9705   -9.7248 N   0  0  0  0  0  0  0  0  0  0  0  0
  -16.6705  -42.1004   -8.8540 C   0  0  0  0  0  0  0  0  0  0  0  0
  -15.7023  -42.7808   -9.4211 O   0  0  0  0  0  0  0  0  0  0  0  0
  -16.3338  -40.8363   -8.2636 N   0  0  0  0  0  0  0  0  0  0  0  0
  -20.3962  -39.8271   -7.1886 C   0  0  0  0  0  0  0  0  0  0  0  0
  1  2  1  0
  2  3  1  0
  2  4  1  0
  4  5  2  0
  5  6  1  0
  6  7  2  0
  7  8  1  0
  8  9  2  0
  8 10  1  0
 10 11  1  0
 11 12  1  0
 10 13  1  0
 13 14  1  0
 14 15  1  0
 15 16  1  6
 15 17  1  0
 17 18  1  1
 18 19  1  0
 19 20  1  0
 20 21  2  0
 21 22  1  0
 22 23  2  0
 23 24  1  0
 24 25  1  0
 25 26  1  0
 26 27  1  0
 27 28  1  0
 28 29  1  0
 29 30  1  0
 30 31  2  0
 31 32  1  0
 32 33  2  0
 33 34  1  0
 33 35  1  0
 31 36  1  0
 36 37  2  0
 36 38  1  0
 23 39  1  0
  9  4  1  0
 12 10  1  0
 35 29  2  0
 38 17  1  0
 39 19  2  0
M  END
$$$$
