
     RDKit          3D

 39 43  0  0  0  0  0  0  0  0999 V2000
  -22.2728  -42.0192  -10.0066 C   0  0  0  0  0  0  0  0  0  0  0  0
  -20.9947  -41.1994  -10.1863 C   0  0  0  0  0  0  0  0  0  0  0  0
  -20.9716  -40.6741  -11.6091 C   0  0  0  0  0  0  0  0  0  0  0  0
  -21.0246  -40.1017   -9.2170 C   0  0  0  0  0  0  0  0  0  0  0  0
  -21.6337  -38.9177   -9.5457 C   0  0  0  0  0  0  0  0  0  0  0  0
  -21.6631  -37.8902   -8.6429 C   0  0  0  0  0  0  0  0  0  0  0  0
  -21.0903  -38.0712   -7.4513 N   0  0  0  0  0  0  0  0  0  0  0  0
  -20.4756  -39.2367   -7.0919 C   0  0  0  0  0  0  0  0  0  0  0  0
  -20.4375  -40.2733   -7.9824 C   0  0  0  0  0  0  0  0  0  0  0  0
  -19.8891  -39.2699   -5.7247 C   0  0  0  0  0  0  0  0  0  0  0  0
  -19.9575  -40.4937   -4.8857 C   0  0  0  0  0  0  0  0  0  0  0  0
  -20.8902  -39.3499   -4.6305 C   0  0  0  0  0  0  0  0  0  0  0  0
  -18.7084  -38.4326   -5.6064 N   0  0  0  0  0  0  0  0  0  0  0  0
  -17.4897  -39.1340   -5.9368 C   0  0  0  0  0  0  0  0  0  0  0  0
  -16.7167  -38.2805   -6.9326 C   0  0  1  0  0  0  0  0  0  0  0  0
  -15.3715  -38.3983   -6.6719 O   0  0  0  0  0  0  0  0  0  0  0  0
  -17.0337  -38.6749   -8.3599 C   0  0  2  0  0  0  0  0  0  0  0  0
  -16.9510  -37.4554   -9.2281 C   0  0  0  0  0  0  0  0  0  0  0  0
  -15.6079  -37.2467   -9.8570 C   0  0  0  0  0  0  0  0  0  0  0  0
  -15.1008  -35.9688   -9.4875 C   0  0  0  0  0  0  0  0  0  0  0  0
  -13.9260  -35.4579   -9.9476 C   0  0  0  0  0  0  0  0  0  0  0  0
  -13.2415  -36.2715  -10.8140 C   0  0  0  0  0  0  0  0  0  0  0  0
  -13.6957  -37.5490  -11.2157 C   0  0  0  0  0  0  0  0  0  0  0  0
  -12.7540  -38.1620  -12.1871 C   0  0  0  0  0  0  0  0  0  0  0  0
  -13.2822  -38.2572  -13.6091 C   0  0  0  0  0  0  0  0  0  0  0  0
  -14.0710  -39.5456  -13.7470 C   0  0  0  0  0  0  0  0  0  0  0  0
  -15.4606  -39.2083  -14.1555 C   0  0  0  0  0  0  0  0  0  0  0  0
  -16.4473  -40.2471  -13.9444 N   0  0  0  0  0  0  0  0  0  0  0  0
  -17.0359  -40.6921  -12.7066 C   0  0  0  0  0  0  0  0  0  0  0  0
  -17.6606  -40.0293  -11.6851 C   0  0  0  0  0  0  0  0  0  0  0  0
  -18.0495  -40.7930  -10.6020 C   0  0  0  0  0  0  0  0  0  0  0  0
  -17.7974  -42.1902  -10.6043 C   0  0  0  0  0  0  0  0  0  0  0  0
  -17.1711  -42.8425  -11.6424 C   0  0  0  0  0  0  0  0  0  0  0  0
  -16.8897  -44.5687  -11.5881 Cl  0  0  0  0  0  0  0  0  0  0  0  0
  -16.8190  -42.0683  -12.6424 N   0  0  0  0  0  0  0  0  0  0  0  0
  -18.6635  -40.4115   -9.3125 C   0  0  0  0  0  0  0  0  0  0  0  0
  -19.6620  -41.1874   -8.9624 O   0  0  0  0  0  0  0  0  0  0  0  0
  -18.3146  -39.3397   -8.4239 N   0  0  0  0  0  0  0  0  0  0  0  0
  -14.8955  -38.0386  -10.7248 C   0  0  0  0  0  0  0  0  0  0  0  0
  1  2  1  0
  2  3  1  0
  2  4  1  0
  4  5  2  0
  5  6  1  0
  6  7  2  0
  7  8  1  0
  8  9  2  0
  8 10  1  0
 10 11  1  0
 11 12  1  0
 10 13  1  0
 13 14  1  0
 14 15  1  0
 15 16  1  1
 15 17  1  0
 17 18  1  6
 18 19  1  0
 19 20  1  0
 20 21  2  0
 21 22  1  0
 22 23  2  0
 23 24  1  0
 24 25  1  0
 25 26  1  0
 26 27  1  0
 27 28  1  0
 28 29  1  0
 29 30  1  0
 30 31  2  0
 31 32  1  0
 32 33  2  0
 33 34  1  0
 33 35  1  0
 31 36  1  0
 36 37  2  0
 36 38  1  0
 23 39  1  0
  9  4  1  0
 12 10  1  0
 35 29  2  0
 38 17  1  0
 39 19  2  0
M  END
$$$$
