
     RDKit          3D

 39 43  0  0  0  0  0  0  0  0999 V2000
  -11.3871  -41.2007  -10.2016 C   0  0  0  0  0  0  0  0  0  0  0  0
  -11.9524  -40.2404   -9.1546 C   0  0  0  0  0  0  0  0  0  0  0  0
  -10.7934  -39.7085   -8.3331 C   0  0  0  0  0  0  0  0  0  0  0  0
  -12.6405  -39.1582   -9.8622 C   0  0  0  0  0  0  0  0  0  0  0  0
  -12.0094  -37.9548  -10.0478 C   0  0  0  0  0  0  0  0  0  0  0  0
  -12.6494  -36.9416  -10.7078 C   0  0  0  0  0  0  0  0  0  0  0  0
  -13.8870  -37.1556  -11.1587 N   0  0  0  0  0  0  0  0  0  0  0  0
  -14.5442  -38.3411  -10.9911 C   0  0  0  0  0  0  0  0  0  0  0  0
  -13.9187  -39.3638  -10.3337 C   0  0  0  0  0  0  0  0  0  0  0  0
  -15.9187  -38.4105  -11.5569 C   0  0  0  0  0  0  0  0  0  0  0  0
  -16.1494  -38.4135  -13.0242 C   0  0  0  0  0  0  0  0  0  0  0  0
  -16.3684  -37.1641  -12.2279 C   0  0  0  0  0  0  0  0  0  0  0  0
  -16.8221  -39.1883  -10.7276 N   0  0  0  0  0  0  0  0  0  0  0  0
  -18.1425  -38.6086  -10.6425 C   0  0  0  0  0  0  0  0  0  0  0  0
  -18.4487  -38.3619   -9.1719 C   0  0  1  0  0  0  0  0  0  0  0  0
  -19.6115  -37.6341   -9.0739 O   0  0  0  0  0  0  0  0  0  0  0  0
  -18.5519  -39.6632   -8.4043 C   0  0  2  0  0  0  0  0  0  0  0  0
  -18.6263  -39.3554   -6.9388 C   0  0  0  0  0  0  0  0  0  0  0  0
  -20.0235  -39.2339   -6.4131 C   0  0  0  0  0  0  0  0  0  0  0  0
  -20.2002  -37.9527   -5.8182 C   0  0  0  0  0  0  0  0  0  0  0  0
  -21.3443  -37.5580   -5.1950 C   0  0  0  0  0  0  0  0  0  0  0  0
  -22.3444  -38.4963   -5.1738 C   0  0  0  0  0  0  0  0  0  0  0  0
  -22.2258  -39.7831   -5.7483 C   0  0  0  0  0  0  0  0  0  0  0  0
  -23.4621  -40.5758   -5.5260 C   0  0  0  0  0  0  0  0  0  0  0  0
  -23.3105  -41.7253   -4.5433 C   0  0  0  0  0  0  0  0  0  0  0  0
  -22.8113  -42.9435   -5.2970 C   0  0  0  0  0  0  0  0  0  0  0  0
  -21.5213  -43.3758   -4.6964 C   0  0  0  0  0  0  0  0  0  0  0  0
  -20.7071  -44.2482   -5.5170 N   0  0  0  0  0  0  0  0  0  0  0  0
  -19.9279  -43.9188   -6.6836 C   0  0  0  0  0  0  0  0  0  0  0  0
  -18.9742  -42.9671   -6.9240 C   0  0  0  0  0  0  0  0  0  0  0  0
  -18.4776  -42.9040   -8.2112 C   0  0  0  0  0  0  0  0  0  0  0  0
  -18.9602  -43.8093   -9.1926 C   0  0  0  0  0  0  0  0  0  0  0  0
  -19.9175  -44.7641   -8.9332 C   0  0  0  0  0  0  0  0  0  0  0  0
  -20.4715  -45.8538  -10.1851 Cl  0  0  0  0  0  0  0  0  0  0  0  0
  -20.3575  -44.7760   -7.6964 N   0  0  0  0  0  0  0  0  0  0  0  0
  -17.5191  -41.9703   -8.8399 C   0  0  0  0  0  0  0  0  0  0  0  0
  -16.6153  -42.5715   -9.5772 O   0  0  0  0  0  0  0  0  0  0  0  0
  -17.4572  -40.5391   -8.7522 N   0  0  0  0  0  0  0  0  0  0  0  0
  -21.0468  -40.1499   -6.3773 C   0  0  0  0  0  0  0  0  0  0  0  0
  1  2  1  0
  2  3  1  0
  2  4  1  0
  4  5  2  0
  5  6  1  0
  6  7  2  0
  7  8  1  0
  8  9  2  0
  8 10  1  0
 10 11  1  0
 11 12  1  0
 10 13  1  0
 13 14  1  0
 14 15  1  0
 15 16  1  6
 15 17  1  0
 17 18  1  1
 18 19  1  0
 19 20  1  0
 20 21  2  0
 21 22  1  0
 22 23  2  0
 23 24  1  0
 24 25  1  0
 25 26  1  0
 26 27  1  0
 27 28  1  0
 28 29  1  0
 29 30  1  0
 30 31  2  0
 31 32  1  0
 32 33  2  0
 33 34  1  0
 33 35  1  0
 31 36  1  0
 36 37  2  0
 36 38  1  0
 23 39  1  0
  9  4  1  0
 12 10  1  0
 35 29  2  0
 38 17  1  0
 39 19  2  0
M  END
$$$$
