
     RDKit          3D

 39 43  0  0  0  0  0  0  0  0999 V2000
  -23.0698  -37.7315   -7.9719 C   0  0  0  0  0  0  0  0  0  0  0  0
  -24.0266  -38.6057   -7.1605 C   0  0  0  0  0  0  0  0  0  0  0  0
  -24.9566  -39.3079   -8.1315 C   0  0  0  0  0  0  0  0  0  0  0  0
  -23.2235  -39.5700   -6.4052 C   0  0  0  0  0  0  0  0  0  0  0  0
  -23.7737  -40.2244   -5.3328 C   0  0  0  0  0  0  0  0  0  0  0  0
  -23.0263  -41.1254   -4.6247 C   0  0  0  0  0  0  0  0  0  0  0  0
  -21.7655  -41.3453   -5.0025 N   0  0  0  0  0  0  0  0  0  0  0  0
  -21.1869  -40.7112   -6.0649 C   0  0  0  0  0  0  0  0  0  0  0  0
  -21.9201  -39.8079   -6.7830 C   0  0  0  0  0  0  0  0  0  0  0  0
  -19.7722  -41.0744   -6.3497 C   0  0  0  0  0  0  0  0  0  0  0  0
  -19.4023  -42.4411   -6.7985 C   0  0  0  0  0  0  0  0  0  0  0  0
  -19.1766  -42.0260   -5.3773 C   0  0  0  0  0  0  0  0  0  0  0  0
  -19.0076  -39.9581   -6.8770 N   0  0  0  0  0  0  0  0  0  0  0  0
  -17.7501  -39.7680   -6.1921 C   0  0  0  0  0  0  0  0  0  0  0  0
  -16.8871  -38.8523   -7.0489 C   0  0  1  0  0  0  0  0  0  0  0  0
  -15.7161  -38.5862   -6.3785 O   0  0  0  0  0  0  0  0  0  0  0  0
  -16.6128  -39.4644   -8.4066 C   0  0  2  0  0  0  0  0  0  0  0  0
  -17.3798  -38.7013   -9.4447 C   0  0  0  0  0  0  0  0  0  0  0  0
  -16.6040  -37.5873  -10.0771 C   0  0  0  0  0  0  0  0  0  0  0  0
  -17.2978  -36.3578   -9.8934 C   0  0  0  0  0  0  0  0  0  0  0  0
  -16.8800  -35.1681  -10.4064 C   0  0  0  0  0  0  0  0  0  0  0  0
  -15.7177  -35.2275  -11.1321 C   0  0  0  0  0  0  0  0  0  0  0  0
  -14.9865  -36.4188  -11.3469 C   0  0  0  0  0  0  0  0  0  0  0  0
  -13.7997  -36.1619  -12.2023 C   0  0  0  0  0  0  0  0  0  0  0  0
  -13.8884  -36.7469  -13.6024 C   0  0  0  0  0  0  0  0  0  0  0  0
  -13.3949  -38.1808  -13.5597 C   0  0  0  0  0  0  0  0  0  0  0  0
  -14.4871  -39.0714  -14.0347 C   0  0  0  0  0  0  0  0  0  0  0  0
  -14.3529  -40.4708  -13.6870 N   0  0  0  0  0  0  0  0  0  0  0  0
  -14.5431  -41.1029  -12.4060 C   0  0  0  0  0  0  0  0  0  0  0  0
  -15.5717  -41.0799  -11.5035 C   0  0  0  0  0  0  0  0  0  0  0  0
  -15.3731  -41.7725  -10.3252 C   0  0  0  0  0  0  0  0  0  0  0  0
  -14.1499  -42.4623  -10.1167 C   0  0  0  0  0  0  0  0  0  0  0  0
  -13.1261  -42.4789  -11.0370 C   0  0  0  0  0  0  0  0  0  0  0  0
  -11.6411  -43.3495  -10.7232 Cl  0  0  0  0  0  0  0  0  0  0  0  0
  -13.3665  -41.8010  -12.1352 N   0  0  0  0  0  0  0  0  0  0  0  0
  -16.2143  -41.8969   -9.1159 C   0  0  0  0  0  0  0  0  0  0  0  0
  -16.3046  -43.1277   -8.6699 O   0  0  0  0  0  0  0  0  0  0  0  0
  -16.9164  -40.8766   -8.3908 N   0  0  0  0  0  0  0  0  0  0  0  0
  -15.4403  -37.6116  -10.8070 C   0  0  0  0  0  0  0  0  0  0  0  0
  1  2  1  0
  2  3  1  0
  2  4  1  0
  4  5  2  0
  5  6  1  0
  6  7  2  0
  7  8  1  0
  8  9  2  0
  8 10  1  0
 10 11  1  0
 11 12  1  0
 10 13  1  0
 13 14  1  0
 14 15  1  0
 15 16  1  1
 15 17  1  0
 17 18  1  6
 18 19  1  0
 19 20  1  0
 20 21  2  0
 21 22  1  0
 22 23  2  0
 23 24  1  0
 24 25  1  0
 25 26  1  0
 26 27  1  0
 27 28  1  0
 28 29  1  0
 29 30  1  0
 30 31  2  0
 31 32  1  0
 32 33  2  0
 33 34  1  0
 33 35  1  0
 31 36  1  0
 36 37  2  0
 36 38  1  0
 23 39  1  0
  9  4  1  0
 12 10  1  0
 35 29  2  0
 38 17  1  0
 39 19  2  0
M  END
$$$$
