
     RDKit          3D

 39 43  0  0  0  0  0  0  0  0999 V2000
  -23.1671  -41.3609   -4.4252 C   0  0  0  0  0  0  0  0  0  0  0  0
  -23.4557  -40.8618   -5.8414 C   0  0  0  0  0  0  0  0  0  0  0  0
  -24.9351  -40.5391   -5.9315 C   0  0  0  0  0  0  0  0  0  0  0  0
  -22.6384  -39.6686   -6.0729 C   0  0  0  0  0  0  0  0  0  0  0  0
  -22.8732  -38.5293   -5.3463 C   0  0  0  0  0  0  0  0  0  0  0  0
  -22.1120  -37.4129   -5.5603 C   0  0  0  0  0  0  0  0  0  0  0  0
  -21.1491  -37.4643   -6.4827 N   0  0  0  0  0  0  0  0  0  0  0  0
  -20.8888  -38.5819   -7.2235 C   0  0  0  0  0  0  0  0  0  0  0  0
  -21.6403  -39.7061   -7.0220 C   0  0  0  0  0  0  0  0  0  0  0  0
  -19.7789  -38.4678   -8.2081 C   0  0  0  0  0  0  0  0  0  0  0  0
  -20.0492  -38.3061   -9.6596 C   0  0  0  0  0  0  0  0  0  0  0  0
  -19.6390  -39.6383   -9.1116 C   0  0  0  0  0  0  0  0  0  0  0  0
  -18.6144  -37.7975   -7.6571 N   0  0  0  0  0  0  0  0  0  0  0  0
  -17.6562  -38.7170   -7.0887 C   0  0  0  0  0  0  0  0  0  0  0  0
  -16.4983  -38.8472   -8.0684 C   0  0  1  0  0  0  0  0  0  0  0  0
  -15.3170  -38.8605   -7.3643 O   0  0  0  0  0  0  0  0  0  0  0  0
  -16.6380  -40.0878   -8.9255 C   0  0  2  0  0  0  0  0  0  0  0  0
  -16.0543  -39.8091  -10.2781 C   0  0  0  0  0  0  0  0  0  0  0  0
  -14.6131  -40.1945  -10.4096 C   0  0  0  0  0  0  0  0  0  0  0  0
  -13.8472  -39.0565  -10.7906 C   0  0  0  0  0  0  0  0  0  0  0  0
  -12.5114  -39.0945  -11.0499 C   0  0  0  0  0  0  0  0  0  0  0  0
  -11.9319  -40.3307  -10.9190 C   0  0  0  0  0  0  0  0  0  0  0  0
  -12.6418  -41.4946  -10.5434 C   0  0  0  0  0  0  0  0  0  0  0  0
  -11.7442  -42.6779  -10.5283 C   0  0  0  0  0  0  0  0  0  0  0  0
  -11.9997  -43.6822  -11.6402 C   0  0  0  0  0  0  0  0  0  0  0  0
  -13.0774  -44.6468  -11.1826 C   0  0  0  0  0  0  0  0  0  0  0  0
  -14.2135  -44.5756  -12.1396 C   0  0  0  0  0  0  0  0  0  0  0  0
  -15.4733  -45.1047  -11.6599 N   0  0  0  0  0  0  0  0  0  0  0  0
  -16.3856  -44.5306  -10.7035 C   0  0  0  0  0  0  0  0  0  0  0  0
  -16.9804  -43.3015  -10.6105 C   0  0  0  0  0  0  0  0  0  0  0  0
  -17.7649  -43.0795   -9.4957 C   0  0  0  0  0  0  0  0  0  0  0  0
  -17.9191  -44.1105   -8.5319 C   0  0  0  0  0  0  0  0  0  0  0  0
  -17.3167  -45.3435   -8.6425 C   0  0  0  0  0  0  0  0  0  0  0  0
  -17.5462  -46.5756   -7.4215 Cl  0  0  0  0  0  0  0  0  0  0  0  0
  -16.5795  -45.4980   -9.7177 N   0  0  0  0  0  0  0  0  0  0  0  0
  -18.4791  -41.8705   -9.0335 C   0  0  0  0  0  0  0  0  0  0  0  0
  -19.7025  -42.1133   -8.6260 O   0  0  0  0  0  0  0  0  0  0  0  0
  -18.0178  -40.5128   -8.9719 N   0  0  0  0  0  0  0  0  0  0  0  0
  -14.0009  -41.4181  -10.2842 C   0  0  0  0  0  0  0  0  0  0  0  0
  1  2  1  0
  2  3  1  0
  2  4  1  0
  4  5  2  0
  5  6  1  0
  6  7  2  0
  7  8  1  0
  8  9  2  0
  8 10  1  0
 10 11  1  0
 11 12  1  0
 10 13  1  0
 13 14  1  0
 14 15  1  0
 15 16  1  1
 15 17  1  0
 17 18  1  6
 18 19  1  0
 19 20  1  0
 20 21  2  0
 21 22  1  0
 22 23  2  0
 23 24  1  0
 24 25  1  0
 25 26  1  0
 26 27  1  0
 27 28  1  0
 28 29  1  0
 29 30  1  0
 30 31  2  0
 31 32  1  0
 32 33  2  0
 33 34  1  0
 33 35  1  0
 31 36  1  0
 36 37  2  0
 36 38  1  0
 23 39  1  0
  9  4  1  0
 12 10  1  0
 35 29  2  0
 38 17  1  0
 39 19  2  0
M  END
$$$$
