
     RDKit          3D

 39 43  0  0  0  0  0  0  0  0999 V2000
  -21.2010  -40.5901   -9.5704 C   0  0  0  0  0  0  0  0  0  0  0  0
  -22.3108  -39.5858   -9.2582 C   0  0  0  0  0  0  0  0  0  0  0  0
  -23.6426  -40.2911   -9.4305 C   0  0  0  0  0  0  0  0  0  0  0  0
  -22.1284  -39.1286   -7.8787 C   0  0  0  0  0  0  0  0  0  0  0  0
  -22.2025  -37.7903   -7.5880 C   0  0  0  0  0  0  0  0  0  0  0  0
  -22.0321  -37.3597   -6.3007 C   0  0  0  0  0  0  0  0  0  0  0  0
  -21.7953  -38.2664   -5.3507 N   0  0  0  0  0  0  0  0  0  0  0  0
  -21.7152  -39.6059   -5.6055 C   0  0  0  0  0  0  0  0  0  0  0  0
  -21.8831  -40.0527   -6.8866 C   0  0  0  0  0  0  0  0  0  0  0  0
  -21.4459  -40.4783   -4.4304 C   0  0  0  0  0  0  0  0  0  0  0  0
  -22.5429  -41.2067   -3.7433 C   0  0  0  0  0  0  0  0  0  0  0  0
  -21.9765  -39.9558   -3.1453 C   0  0  0  0  0  0  0  0  0  0  0  0
  -20.1465  -41.1225   -4.5032 N   0  0  0  0  0  0  0  0  0  0  0  0
  -19.1078  -40.2354   -4.9732 C   0  0  0  0  0  0  0  0  0  0  0  0
  -19.5573  -39.6583   -6.3083 C   0  0  1  0  0  0  0  0  0  0  0  0
  -18.8584  -38.4991   -6.5516 O   0  0  0  0  0  0  0  0  0  0  0  0
  -19.3694  -40.6562   -7.4317 C   0  0  2  0  0  0  0  0  0  0  0  0
  -19.6348  -39.9694   -8.7378 C   0  0  0  0  0  0  0  0  0  0  0  0
  -18.4103  -39.4001   -9.3853 C   0  0  0  0  0  0  0  0  0  0  0  0
  -18.5863  -38.0029   -9.5945 C   0  0  0  0  0  0  0  0  0  0  0  0
  -17.6740  -37.2097  -10.2202 C   0  0  0  0  0  0  0  0  0  0  0  0
  -16.5434  -37.8565  -10.6498 C   0  0  0  0  0  0  0  0  0  0  0  0
  -16.3143  -39.2402  -10.4694 C   0  0  0  0  0  0  0  0  0  0  0  0
  -15.0209  -39.6442  -11.0777 C   0  0  0  0  0  0  0  0  0  0  0  0
  -15.1476  -40.5020  -12.3262 C   0  0  0  0  0  0  0  0  0  0  0  0
  -15.2635  -41.9548  -11.9052 C   0  0  0  0  0  0  0  0  0  0  0  0
  -16.5447  -42.4985  -12.4293 C   0  0  0  0  0  0  0  0  0  0  0  0
  -17.0143  -43.7160  -11.8013 N   0  0  0  0  0  0  0  0  0  0  0  0
  -17.6015  -43.8880  -10.4967 C   0  0  0  0  0  0  0  0  0  0  0  0
  -18.6477  -43.2750   -9.8619 C   0  0  0  0  0  0  0  0  0  0  0  0
  -18.8909  -43.6637   -8.5591 C   0  0  0  0  0  0  0  0  0  0  0  0
  -18.0728  -44.6583   -7.9613 C   0  0  0  0  0  0  0  0  0  0  0  0
  -17.0263  -45.2683   -8.6154 C   0  0  0  0  0  0  0  0  0  0  0  0
  -16.0540  -46.4899   -7.8254 Cl  0  0  0  0  0  0  0  0  0  0  0  0
  -16.8373  -44.8576   -9.8479 N   0  0  0  0  0  0  0  0  0  0  0  0
  -19.8638  -43.1698   -7.5616 C   0  0  0  0  0  0  0  0  0  0  0  0
  -20.4849  -44.1316   -6.9206 O   0  0  0  0  0  0  0  0  0  0  0  0
  -20.1997  -41.8182   -7.2147 N   0  0  0  0  0  0  0  0  0  0  0  0
  -17.2641  -40.0168   -9.8252 C   0  0  0  0  0  0  0  0  0  0  0  0
  1  2  1  0
  2  3  1  0
  2  4  1  0
  4  5  2  0
  5  6  1  0
  6  7  2  0
  7  8  1  0
  8  9  2  0
  8 10  1  0
 10 11  1  0
 11 12  1  0
 10 13  1  0
 13 14  1  0
 14 15  1  0
 15 16  1  6
 15 17  1  0
 17 18  1  6
 18 19  1  0
 19 20  1  0
 20 21  2  0
 21 22  1  0
 22 23  2  0
 23 24  1  0
 24 25  1  0
 25 26  1  0
 26 27  1  0
 27 28  1  0
 28 29  1  0
 29 30  1  0
 30 31  2  0
 31 32  1  0
 32 33  2  0
 33 34  1  0
 33 35  1  0
 31 36  1  0
 36 37  2  0
 36 38  1  0
 23 39  1  0
  9  4  1  0
 12 10  1  0
 35 29  2  0
 38 17  1  0
 39 19  2  0
M  END
$$$$
