
     RDKit          3D

 39 43  0  0  0  0  0  0  0  0999 V2000
  -24.6876  -37.4031   -5.6627 C   0  0  0  0  0  0  0  0  0  0  0  0
  -23.3342  -37.5508   -6.3587 C   0  0  0  0  0  0  0  0  0  0  0  0
  -22.4200  -36.4562   -5.8419 C   0  0  0  0  0  0  0  0  0  0  0  0
  -22.8055  -38.8782   -6.0366 C   0  0  0  0  0  0  0  0  0  0  0  0
  -23.3962  -39.6272   -5.0512 C   0  0  0  0  0  0  0  0  0  0  0  0
  -22.9047  -40.8673   -4.7474 C   0  0  0  0  0  0  0  0  0  0  0  0
  -21.8497  -41.3197   -5.4278 N   0  0  0  0  0  0  0  0  0  0  0  0
  -21.2378  -40.6003   -6.4145 C   0  0  0  0  0  0  0  0  0  0  0  0
  -21.7166  -39.3593   -6.7303 C   0  0  0  0  0  0  0  0  0  0  0  0
  -20.0745  -41.2544   -7.0727 C   0  0  0  0  0  0  0  0  0  0  0  0
  -20.1831  -42.6166   -7.6545 C   0  0  0  0  0  0  0  0  0  0  0  0
  -19.5205  -42.4131   -6.3268 C   0  0  0  0  0  0  0  0  0  0  0  0
  -19.2046  -40.3008   -7.7383 N   0  0  0  0  0  0  0  0  0  0  0  0
  -18.4217  -39.5162   -6.8120 C   0  0  0  0  0  0  0  0  0  0  0  0
  -17.4494  -38.6713   -7.6234 C   0  0  1  0  0  0  0  0  0  0  0  0
  -16.5265  -38.1109   -6.7717 O   0  0  0  0  0  0  0  0  0  0  0  0
  -16.7718  -39.4921   -8.7006 C   0  0  2  0  0  0  0  0  0  0  0  0
  -17.1352  -38.9257  -10.0404 C   0  0  0  0  0  0  0  0  0  0  0  0
  -16.1591  -37.9147  -10.5582 C   0  0  0  0  0  0  0  0  0  0  0  0
  -16.8328  -36.6863  -10.8112 C   0  0  0  0  0  0  0  0  0  0  0  0
  -16.2313  -35.5886  -11.3461 C   0  0  0  0  0  0  0  0  0  0  0  0
  -14.8995  -35.7423  -11.6356 C   0  0  0  0  0  0  0  0  0  0  0  0
  -14.1791  -36.9373  -11.4056 C   0  0  0  0  0  0  0  0  0  0  0  0
  -12.7714  -36.7999  -11.8590 C   0  0  0  0  0  0  0  0  0  0  0  0
  -12.4222  -37.6084  -13.0979 C   0  0  0  0  0  0  0  0  0  0  0  0
  -12.0182  -39.0053  -12.6659 C   0  0  0  0  0  0  0  0  0  0  0  0
  -12.9277  -39.9841  -13.3190 C   0  0  0  0  0  0  0  0  0  0  0  0
  -12.9608  -41.3044  -12.7249 N   0  0  0  0  0  0  0  0  0  0  0  0
  -13.5766  -41.7215  -11.4906 C   0  0  0  0  0  0  0  0  0  0  0  0
  -14.8405  -41.5720  -10.9873 C   0  0  0  0  0  0  0  0  0  0  0  0
  -15.0574  -42.0576   -9.7126 C   0  0  0  0  0  0  0  0  0  0  0  0
  -13.9916  -42.6786   -9.0095 C   0  0  0  0  0  0  0  0  0  0  0  0
  -12.7264  -42.8248   -9.5322 C   0  0  0  0  0  0  0  0  0  0  0  0
  -11.4533  -43.6013   -8.6168 Cl  0  0  0  0  0  0  0  0  0  0  0  0
  -12.5753  -42.3414  -10.7434 N   0  0  0  0  0  0  0  0  0  0  0  0
  -16.2483  -41.9993   -8.8386 C   0  0  0  0  0  0  0  0  0  0  0  0
  -16.5198  -43.1418   -8.2531 O   0  0  0  0  0  0  0  0  0  0  0  0
  -17.1120  -40.8885   -8.5559 N   0  0  0  0  0  0  0  0  0  0  0  0
  -14.8234  -38.0345  -10.8568 C   0  0  0  0  0  0  0  0  0  0  0  0
  1  2  1  0
  2  3  1  0
  2  4  1  0
  4  5  2  0
  5  6  1  0
  6  7  2  0
  7  8  1  0
  8  9  2  0
  8 10  1  0
 10 11  1  0
 11 12  1  0
 10 13  1  0
 13 14  1  0
 14 15  1  0
 15 16  1  1
 15 17  1  0
 17 18  1  6
 18 19  1  0
 19 20  1  0
 20 21  2  0
 21 22  1  0
 22 23  2  0
 23 24  1  0
 24 25  1  0
 25 26  1  0
 26 27  1  0
 27 28  1  0
 28 29  1  0
 29 30  1  0
 30 31  2  0
 31 32  1  0
 32 33  2  0
 33 34  1  0
 33 35  1  0
 31 36  1  0
 36 37  2  0
 36 38  1  0
 23 39  1  0
  9  4  1  0
 12 10  1  0
 35 29  2  0
 38 17  1  0
 39 19  2  0
M  END
$$$$
