
     RDKit          3D

 39 43  0  0  0  0  0  0  0  0999 V2000
  -25.3441  -40.9882   -9.1589 C   0  0  0  0  0  0  0  0  0  0  0  0
  -24.2418  -41.8420   -8.5313 C   0  0  0  0  0  0  0  0  0  0  0  0
  -23.8760  -42.9338   -9.5187 C   0  0  0  0  0  0  0  0  0  0  0  0
  -23.0974  -40.9695   -8.2587 C   0  0  0  0  0  0  0  0  0  0  0  0
  -22.5909  -40.1768   -9.2567 C   0  0  0  0  0  0  0  0  0  0  0  0
  -21.5217  -39.3609   -9.0057 C   0  0  0  0  0  0  0  0  0  0  0  0
  -20.9944  -39.3592   -7.7798 N   0  0  0  0  0  0  0  0  0  0  0  0
  -21.4740  -40.1356   -6.7636 C   0  0  0  0  0  0  0  0  0  0  0  0
  -22.5419  -40.9565   -6.9979 C   0  0  0  0  0  0  0  0  0  0  0  0
  -20.7692  -40.0106   -5.4590 C   0  0  0  0  0  0  0  0  0  0  0  0
  -20.4625  -41.2047   -4.6307 C   0  0  0  0  0  0  0  0  0  0  0  0
  -21.6134  -40.3145   -4.2754 C   0  0  0  0  0  0  0  0  0  0  0  0
  -19.8177  -38.9137   -5.4447 N   0  0  0  0  0  0  0  0  0  0  0  0
  -18.5015  -39.3088   -5.8897 C   0  0  0  0  0  0  0  0  0  0  0  0
  -18.1391  -38.4487   -7.0924 C   0  0  1  0  0  0  0  0  0  0  0  0
  -17.1249  -37.5901   -6.7379 O   0  0  0  0  0  0  0  0  0  0  0  0
  -17.7441  -39.3005   -8.2805 C   0  0  2  0  0  0  0  0  0  0  0  0
  -18.3461  -38.7099   -9.5202 C   0  0  0  0  0  0  0  0  0  0  0  0
  -17.4455  -37.7511  -10.2361 C   0  0  0  0  0  0  0  0  0  0  0  0
  -18.0900  -36.4870  -10.3530 C   0  0  0  0  0  0  0  0  0  0  0  0
  -17.5542  -35.4212  -11.0088 C   0  0  0  0  0  0  0  0  0  0  0  0
  -16.3214  -35.6455  -11.5664 C   0  0  0  0  0  0  0  0  0  0  0  0
  -15.6342  -36.8786  -11.4818 C   0  0  0  0  0  0  0  0  0  0  0  0
  -14.3456  -36.8156  -12.2177 C   0  0  0  0  0  0  0  0  0  0  0  0
  -14.3044  -37.6367  -13.4962 C   0  0  0  0  0  0  0  0  0  0  0  0
  -13.8953  -39.0552  -13.1471 C   0  0  0  0  0  0  0  0  0  0  0  0
  -14.9715  -39.9808  -13.5907 C   0  0  0  0  0  0  0  0  0  0  0  0
  -14.9518  -41.2998  -12.9931 N   0  0  0  0  0  0  0  0  0  0  0  0
  -15.3201  -41.6880  -11.6551 C   0  0  0  0  0  0  0  0  0  0  0  0
  -16.4426  -41.4725  -10.9022 C   0  0  0  0  0  0  0  0  0  0  0  0
  -16.4167  -41.9508   -9.6068 C   0  0  0  0  0  0  0  0  0  0  0  0
  -15.2634  -42.6313   -9.1350 C   0  0  0  0  0  0  0  0  0  0  0  0
  -14.1435  -42.8435   -9.9071 C   0  0  0  0  0  0  0  0  0  0  0  0
  -12.7520  -43.6914   -9.2694 Cl  0  0  0  0  0  0  0  0  0  0  0  0
  -14.2207  -42.3640  -11.1268 N   0  0  0  0  0  0  0  0  0  0  0  0
  -17.3959  -41.8318   -8.5057 C   0  0  0  0  0  0  0  0  0  0  0  0
  -17.6013  -42.9603   -7.8685 O   0  0  0  0  0  0  0  0  0  0  0  0
  -18.1215  -40.6771   -8.0585 N   0  0  0  0  0  0  0  0  0  0  0  0
  -16.2090  -37.9416  -10.8037 C   0  0  0  0  0  0  0  0  0  0  0  0
  1  2  1  0
  2  3  1  0
  2  4  1  0
  4  5  2  0
  5  6  1  0
  6  7  2  0
  7  8  1  0
  8  9  2  0
  8 10  1  0
 10 11  1  0
 11 12  1  0
 10 13  1  0
 13 14  1  0
 14 15  1  0
 15 16  1  1
 15 17  1  0
 17 18  1  6
 18 19  1  0
 19 20  1  0
 20 21  2  0
 21 22  1  0
 22 23  2  0
 23 24  1  0
 24 25  1  0
 25 26  1  0
 26 27  1  0
 27 28  1  0
 28 29  1  0
 29 30  1  0
 30 31  2  0
 31 32  1  0
 32 33  2  0
 33 34  1  0
 33 35  1  0
 31 36  1  0
 36 37  2  0
 36 38  1  0
 23 39  1  0
  9  4  1  0
 12 10  1  0
 35 29  2  0
 38 17  1  0
 39 19  2  0
M  END
$$$$
