
     RDKit          3D

 39 43  0  0  0  0  0  0  0  0999 V2000
  -15.8475  -38.8119  -13.8353 C   0  0  0  0  0  0  0  0  0  0  0  0
  -14.4751  -39.4006  -13.5068 C   0  0  0  0  0  0  0  0  0  0  0  0
  -13.5450  -39.0947  -14.6653 C   0  0  0  0  0  0  0  0  0  0  0  0
  -14.0026  -38.7759  -12.2691 C   0  0  0  0  0  0  0  0  0  0  0  0
  -13.2481  -37.6320  -12.3271 C   0  0  0  0  0  0  0  0  0  0  0  0
  -12.8046  -37.0461  -11.1731 C   0  0  0  0  0  0  0  0  0  0  0  0
  -13.1230  -37.6118  -10.0072 N   0  0  0  0  0  0  0  0  0  0  0  0
  -13.8720  -38.7501   -9.9136 C   0  0  0  0  0  0  0  0  0  0  0  0
  -14.3230  -39.3481  -11.0574 C   0  0  0  0  0  0  0  0  0  0  0  0
  -14.1353  -39.2462   -8.5356 C   0  0  0  0  0  0  0  0  0  0  0  0
  -13.1465  -40.0907   -7.8179 C   0  0  0  0  0  0  0  0  0  0  0  0
  -14.3569  -40.7119   -8.4442 C   0  0  0  0  0  0  0  0  0  0  0  0
  -14.9258  -38.3140   -7.7514 N   0  0  0  0  0  0  0  0  0  0  0  0
  -15.6880  -38.9641   -6.7107 C   0  0  0  0  0  0  0  0  0  0  0  0
  -17.1621  -38.6877   -6.9715 C   0  0  1  0  0  0  0  0  0  0  0  0
  -17.2701  -37.7270   -7.9497 O   0  0  0  0  0  0  0  0  0  0  0  0
  -17.8993  -39.9514   -7.3624 C   0  0  2  0  0  0  0  0  0  0  0  0
  -19.0823  -40.1206   -6.4570 C   0  0  0  0  0  0  0  0  0  0  0  0
  -20.3479  -39.5249   -6.9922 C   0  0  0  0  0  0  0  0  0  0  0  0
  -20.8564  -38.5715   -6.0653 C   0  0  0  0  0  0  0  0  0  0  0  0
  -22.0287  -37.9007   -6.2347 C   0  0  0  0  0  0  0  0  0  0  0  0
  -22.7100  -38.2083   -7.3847 C   0  0  0  0  0  0  0  0  0  0  0  0
  -22.2536  -39.1453   -8.3406 C   0  0  0  0  0  0  0  0  0  0  0  0
  -23.2304  -39.2841   -9.4509 C   0  0  0  0  0  0  0  0  0  0  0  0
  -23.9723  -40.6103   -9.4809 C   0  0  0  0  0  0  0  0  0  0  0  0
  -23.1373  -41.6144  -10.2529 C   0  0  0  0  0  0  0  0  0  0  0  0
  -22.8408  -42.7677   -9.3620 C   0  0  0  0  0  0  0  0  0  0  0  0
  -21.7413  -43.6147   -9.7754 N   0  0  0  0  0  0  0  0  0  0  0  0
  -20.3266  -43.3466   -9.7171 C   0  0  0  0  0  0  0  0  0  0  0  0
  -19.5006  -42.9375   -8.7054 C   0  0  0  0  0  0  0  0  0  0  0  0
  -18.1788  -42.7177   -9.0401 C   0  0  0  0  0  0  0  0  0  0  0  0
  -17.7510  -42.9291  -10.3773 C   0  0  0  0  0  0  0  0  0  0  0  0
  -18.5944  -43.3449  -11.3828 C   0  0  0  0  0  0  0  0  0  0  0  0
  -18.0073  -43.5900  -13.0129 Cl  0  0  0  0  0  0  0  0  0  0  0  0
  -19.8390  -43.5335  -11.0103 N   0  0  0  0  0  0  0  0  0  0  0  0
  -17.0452  -42.2044   -8.2420 C   0  0  0  0  0  0  0  0  0  0  0  0
  -15.9417  -42.8961   -8.4015 O   0  0  0  0  0  0  0  0  0  0  0  0
  -16.9997  -41.0815   -7.3493 N   0  0  0  0  0  0  0  0  0  0  0  0
  -21.0537  -39.8077   -8.1366 C   0  0  0  0  0  0  0  0  0  0  0  0
  1  2  1  0
  2  3  1  0
  2  4  1  0
  4  5  2  0
  5  6  1  0
  6  7  2  0
  7  8  1  0
  8  9  2  0
  8 10  1  0
 10 11  1  0
 11 12  1  0
 10 13  1  0
 13 14  1  0
 14 15  1  0
 15 16  1  6
 15 17  1  0
 17 18  1  1
 18 19  1  0
 19 20  1  0
 20 21  2  0
 21 22  1  0
 22 23  2  0
 23 24  1  0
 24 25  1  0
 25 26  1  0
 26 27  1  0
 27 28  1  0
 28 29  1  0
 29 30  1  0
 30 31  2  0
 31 32  1  0
 32 33  2  0
 33 34  1  0
 33 35  1  0
 31 36  1  0
 36 37  2  0
 36 38  1  0
 23 39  1  0
  9  4  1  0
 12 10  1  0
 35 29  2  0
 38 17  1  0
 39 19  2  0
M  END
$$$$
