
     RDKit          3D

 39 43  0  0  0  0  0  0  0  0999 V2000
  -23.5624  -35.5693   -8.8180 C   0  0  0  0  0  0  0  0  0  0  0  0
  -23.2464  -35.5033   -7.3234 C   0  0  0  0  0  0  0  0  0  0  0  0
  -24.4607  -36.0052   -6.5656 C   0  0  0  0  0  0  0  0  0  0  0  0
  -22.0783  -36.3507   -7.0729 C   0  0  0  0  0  0  0  0  0  0  0  0
  -21.0261  -35.8632   -6.3407 C   0  0  0  0  0  0  0  0  0  0  0  0
  -19.9333  -36.6519   -6.1052 C   0  0  0  0  0  0  0  0  0  0  0  0
  -19.9216  -37.8905   -6.6015 N   0  0  0  0  0  0  0  0  0  0  0  0
  -20.9519  -38.4071   -7.3344 C   0  0  0  0  0  0  0  0  0  0  0  0
  -22.0513  -37.6320   -7.5787 C   0  0  0  0  0  0  0  0  0  0  0  0
  -20.7761  -39.8058   -7.8109 C   0  0  0  0  0  0  0  0  0  0  0  0
  -21.3692  -40.2638   -9.0933 C   0  0  0  0  0  0  0  0  0  0  0  0
  -22.0181  -40.6201   -7.7913 C   0  0  0  0  0  0  0  0  0  0  0  0
  -19.4981  -40.3707   -7.4157 N   0  0  0  0  0  0  0  0  0  0  0  0
  -18.4142  -39.4201   -7.5058 C   0  0  0  0  0  0  0  0  0  0  0  0
  -17.5577  -39.8029   -8.7046 C   0  0  1  0  0  0  0  0  0  0  0  0
  -16.2385  -39.5491   -8.4102 O   0  0  0  0  0  0  0  0  0  0  0  0
  -17.7630  -41.2534   -9.0884 C   0  0  2  0  0  0  0  0  0  0  0  0
  -17.7290  -41.3674  -10.5830 C   0  0  0  0  0  0  0  0  0  0  0  0
  -16.3739  -41.6809  -11.1382 C   0  0  0  0  0  0  0  0  0  0  0  0
  -15.9907  -40.6685  -12.0629 C   0  0  0  0  0  0  0  0  0  0  0  0
  -14.8363  -40.6983  -12.7836 C   0  0  0  0  0  0  0  0  0  0  0  0
  -14.0427  -41.7942  -12.5593 C   0  0  0  0  0  0  0  0  0  0  0  0
  -14.3715  -42.8293  -11.6536 C   0  0  0  0  0  0  0  0  0  0  0  0
  -13.3319  -43.8901  -11.6652 C   0  0  0  0  0  0  0  0  0  0  0  0
  -13.7714  -45.2021  -12.2943 C   0  0  0  0  0  0  0  0  0  0  0  0
  -14.4471  -46.0464  -11.2304 C   0  0  0  0  0  0  0  0  0  0  0  0
  -15.8343  -46.3464  -11.6747 C   0  0  0  0  0  0  0  0  0  0  0  0
  -16.7459  -46.7823  -10.6373 N   0  0  0  0  0  0  0  0  0  0  0  0
  -17.3651  -46.0018   -9.5962 C   0  0  0  0  0  0  0  0  0  0  0  0
  -18.0959  -44.8447   -9.6139 C   0  0  0  0  0  0  0  0  0  0  0  0
  -18.4824  -44.3414   -8.3872 C   0  0  0  0  0  0  0  0  0  0  0  0
  -18.1210  -45.0335   -7.2014 C   0  0  0  0  0  0  0  0  0  0  0  0
  -17.3886  -46.1992   -7.2013 C   0  0  0  0  0  0  0  0  0  0  0  0
  -16.9750  -47.0079   -5.7057 Cl  0  0  0  0  0  0  0  0  0  0  0  0
  -17.0440  -46.6292   -8.3928 N   0  0  0  0  0  0  0  0  0  0  0  0
  -19.1951  -43.0974   -8.0265 C   0  0  0  0  0  0  0  0  0  0  0  0
  -20.1471  -43.2814   -7.1423 O   0  0  0  0  0  0  0  0  0  0  0  0
  -18.9818  -41.7599   -8.5013 N   0  0  0  0  0  0  0  0  0  0  0  0
  -15.5542  -42.7644  -10.9343 C   0  0  0  0  0  0  0  0  0  0  0  0
  1  2  1  0
  2  3  1  0
  2  4  1  0
  4  5  2  0
  5  6  1  0
  6  7  2  0
  7  8  1  0
  8  9  2  0
  8 10  1  0
 10 11  1  0
 11 12  1  0
 10 13  1  0
 13 14  1  0
 14 15  1  0
 15 16  1  1
 15 17  1  0
 17 18  1  6
 18 19  1  0
 19 20  1  0
 20 21  2  0
 21 22  1  0
 22 23  2  0
 23 24  1  0
 24 25  1  0
 25 26  1  0
 26 27  1  0
 27 28  1  0
 28 29  1  0
 29 30  1  0
 30 31  2  0
 31 32  1  0
 32 33  2  0
 33 34  1  0
 33 35  1  0
 31 36  1  0
 36 37  2  0
 36 38  1  0
 23 39  1  0
  9  4  1  0
 12 10  1  0
 35 29  2  0
 38 17  1  0
 39 19  2  0
M  END
$$$$
