
     RDKit          3D

 39 43  0  0  0  0  0  0  0  0999 V2000
  -21.1788  -44.7933   -8.3331 C   0  0  0  0  0  0  0  0  0  0  0  0
  -20.4854  -45.4871   -7.1602 C   0  0  0  0  0  0  0  0  0  0  0  0
  -19.4269  -46.4153   -7.7247 C   0  0  0  0  0  0  0  0  0  0  0  0
  -19.8855  -44.4513   -6.3160 C   0  0  0  0  0  0  0  0  0  0  0  0
  -20.5272  -44.0460   -5.1736 C   0  0  0  0  0  0  0  0  0  0  0  0
  -19.9700  -43.0784   -4.3830 C   0  0  0  0  0  0  0  0  0  0  0  0
  -18.8017  -42.5487   -4.7505 N   0  0  0  0  0  0  0  0  0  0  0  0
  -18.1364  -42.9290   -5.8811 C   0  0  0  0  0  0  0  0  0  0  0  0
  -18.6795  -43.8947   -6.6821 C   0  0  0  0  0  0  0  0  0  0  0  0
  -16.8450  -42.2372   -6.1417 C   0  0  0  0  0  0  0  0  0  0  0  0
  -15.9130  -42.7149   -7.1949 C   0  0  0  0  0  0  0  0  0  0  0  0
  -15.6426  -43.0178   -5.7532 C   0  0  0  0  0  0  0  0  0  0  0  0
  -16.9237  -40.8065   -5.9050 N   0  0  0  0  0  0  0  0  0  0  0  0
  -15.9831  -40.0547   -6.7030 C   0  0  0  0  0  0  0  0  0  0  0  0
  -16.7251  -38.8683   -7.3025 C   0  0  1  0  0  0  0  0  0  0  0  0
  -15.8619  -38.1623   -8.1074 O   0  0  0  0  0  0  0  0  0  0  0  0
  -17.9492  -39.3159   -8.0735 C   0  0  2  0  0  0  0  0  0  0  0  0
  -18.9387  -38.1899   -8.1055 C   0  0  0  0  0  0  0  0  0  0  0  0
  -18.8194  -37.3095   -9.3111 C   0  0  0  0  0  0  0  0  0  0  0  0
  -18.5957  -35.9649   -8.9005 C   0  0  0  0  0  0  0  0  0  0  0  0
  -18.5047  -34.9148   -9.7619 C   0  0  0  0  0  0  0  0  0  0  0  0
  -18.6465  -35.2397  -11.0868 C   0  0  0  0  0  0  0  0  0  0  0  0
  -18.8694  -36.5563  -11.5526 C   0  0  0  0  0  0  0  0  0  0  0  0
  -19.0181  -36.5746  -13.0303 C   0  0  0  0  0  0  0  0  0  0  0  0
  -20.4254  -36.8706  -13.5226 C   0  0  0  0  0  0  0  0  0  0  0  0
  -20.6015  -38.3749  -13.6086 C   0  0  0  0  0  0  0  0  0  0  0  0
  -21.7366  -38.7694  -12.7325 C   0  0  0  0  0  0  0  0  0  0  0  0
  -21.7950  -40.1709  -12.3725 N   0  0  0  0  0  0  0  0  0  0  0  0
  -20.9677  -40.8972  -11.4427 C   0  0  0  0  0  0  0  0  0  0  0  0
  -20.6287  -40.6780  -10.1350 C   0  0  0  0  0  0  0  0  0  0  0  0
  -19.7411  -41.5728   -9.5703 C   0  0  0  0  0  0  0  0  0  0  0  0
  -19.2442  -42.6512  -10.3487 C   0  0  0  0  0  0  0  0  0  0  0  0
  -19.5987  -42.8601  -11.6625 C   0  0  0  0  0  0  0  0  0  0  0  0
  -18.9535  -44.2096  -12.5704 Cl  0  0  0  0  0  0  0  0  0  0  0  0
  -20.4400  -41.9777  -12.1493 N   0  0  0  0  0  0  0  0  0  0  0  0
  -19.1032  -41.6007   -8.2369 C   0  0  0  0  0  0  0  0  0  0  0  0
  -19.1237  -42.7866   -7.6756 O   0  0  0  0  0  0  0  0  0  0  0  0
  -18.4821  -40.5329   -7.5064 N   0  0  0  0  0  0  0  0  0  0  0  0
  -18.9537  -37.6016  -10.6469 C   0  0  0  0  0  0  0  0  0  0  0  0
  1  2  1  0
  2  3  1  0
  2  4  1  0
  4  5  2  0
  5  6  1  0
  6  7  2  0
  7  8  1  0
  8  9  2  0
  8 10  1  0
 10 11  1  0
 11 12  1  0
 10 13  1  0
 13 14  1  0
 14 15  1  0
 15 16  1  6
 15 17  1  0
 17 18  1  1
 18 19  1  0
 19 20  1  0
 20 21  2  0
 21 22  1  0
 22 23  2  0
 23 24  1  0
 24 25  1  0
 25 26  1  0
 26 27  1  0
 27 28  1  0
 28 29  1  0
 29 30  1  0
 30 31  2  0
 31 32  1  0
 32 33  2  0
 33 34  1  0
 33 35  1  0
 31 36  1  0
 36 37  2  0
 36 38  1  0
 23 39  1  0
  9  4  1  0
 12 10  1  0
 35 29  2  0
 38 17  1  0
 39 19  2  0
M  END
$$$$
