
     RDKit          3D

 39 43  0  0  0  0  0  0  0  0999 V2000
  -13.8756  -35.7388  -12.1698 C   0  0  0  0  0  0  0  0  0  0  0  0
  -12.6609  -36.6524  -12.3369 C   0  0  0  0  0  0  0  0  0  0  0  0
  -11.5602  -36.1386  -11.4284 C   0  0  0  0  0  0  0  0  0  0  0  0
  -13.0647  -38.0100  -11.9639 C   0  0  0  0  0  0  0  0  0  0  0  0
  -13.3210  -38.9381  -12.9406 C   0  0  0  0  0  0  0  0  0  0  0  0
  -13.6989  -40.2070  -12.5958 C   0  0  0  0  0  0  0  0  0  0  0  0
  -13.8090  -40.5103  -11.3010 N   0  0  0  0  0  0  0  0  0  0  0  0
  -13.5614  -39.6108  -10.3035 C   0  0  0  0  0  0  0  0  0  0  0  0
  -13.1828  -38.3385  -10.6311 C   0  0  0  0  0  0  0  0  0  0  0  0
  -13.7308  -40.1149   -8.9138 C   0  0  0  0  0  0  0  0  0  0  0  0
  -12.5628  -40.5340   -8.0977 C   0  0  0  0  0  0  0  0  0  0  0  0
  -13.4380  -41.5614   -8.7471 C   0  0  0  0  0  0  0  0  0  0  0  0
  -14.8466  -39.4878   -8.2277 N   0  0  0  0  0  0  0  0  0  0  0  0
  -15.8907  -39.0620   -9.1306 C   0  0  0  0  0  0  0  0  0  0  0  0
  -17.1103  -38.7003   -8.2944 C   0  0  1  0  0  0  0  0  0  0  0  0
  -18.0310  -38.0686   -9.0974 O   0  0  0  0  0  0  0  0  0  0  0  0
  -17.7092  -39.9246   -7.6343 C   0  0  2  0  0  0  0  0  0  0  0  0
  -18.3258  -39.5175   -6.3297 C   0  0  0  0  0  0  0  0  0  0  0  0
  -19.7807  -39.1754   -6.4252 C   0  0  0  0  0  0  0  0  0  0  0  0
  -19.9907  -37.8470   -5.9582 C   0  0  0  0  0  0  0  0  0  0  0  0
  -21.2164  -37.2629   -5.8614 C   0  0  0  0  0  0  0  0  0  0  0  0
  -22.2666  -38.0543   -6.2512 C   0  0  0  0  0  0  0  0  0  0  0  0
  -22.1181  -39.3790   -6.7234 C   0  0  0  0  0  0  0  0  0  0  0  0
  -23.4412  -39.9817   -7.0274 C   0  0  0  0  0  0  0  0  0  0  0  0
  -23.8752  -41.0768   -6.0668 C   0  0  0  0  0  0  0  0  0  0  0  0
  -23.3006  -42.3965   -6.5462 C   0  0  0  0  0  0  0  0  0  0  0  0
  -22.4461  -42.9602   -5.4674 C   0  0  0  0  0  0  0  0  0  0  0  0
  -21.5088  -43.9846   -5.8789 N   0  0  0  0  0  0  0  0  0  0  0  0
  -20.2833  -43.8379   -6.6226 C   0  0  0  0  0  0  0  0  0  0  0  0
  -19.1839  -43.0408   -6.4516 C   0  0  0  0  0  0  0  0  0  0  0  0
  -18.2038  -43.1269   -7.4210 C   0  0  0  0  0  0  0  0  0  0  0  0
  -18.3752  -44.0190   -8.5121 C   0  0  0  0  0  0  0  0  0  0  0  0
  -19.4860  -44.8173   -8.6672 C   0  0  0  0  0  0  0  0  0  0  0  0
  -19.6393  -45.8991  -10.0339 Cl  0  0  0  0  0  0  0  0  0  0  0  0
  -20.3869  -44.6915   -7.7206 N   0  0  0  0  0  0  0  0  0  0  0  0
  -16.9452  -42.3729   -7.6019 C   0  0  0  0  0  0  0  0  0  0  0  0
  -15.9205  -43.1360   -7.9012 O   0  0  0  0  0  0  0  0  0  0  0  0
  -16.7116  -40.9605   -7.4996 N   0  0  0  0  0  0  0  0  0  0  0  0
  -20.8544  -39.9406   -6.8114 C   0  0  0  0  0  0  0  0  0  0  0  0
  1  2  1  0
  2  3  1  0
  2  4  1  0
  4  5  2  0
  5  6  1  0
  6  7  2  0
  7  8  1  0
  8  9  2  0
  8 10  1  0
 10 11  1  0
 11 12  1  0
 10 13  1  0
 13 14  1  0
 14 15  1  0
 15 16  1  6
 15 17  1  0
 17 18  1  1
 18 19  1  0
 19 20  1  0
 20 21  2  0
 21 22  1  0
 22 23  2  0
 23 24  1  0
 24 25  1  0
 25 26  1  0
 26 27  1  0
 27 28  1  0
 28 29  1  0
 29 30  1  0
 30 31  2  0
 31 32  1  0
 32 33  2  0
 33 34  1  0
 33 35  1  0
 31 36  1  0
 36 37  2  0
 36 38  1  0
 23 39  1  0
  9  4  1  0
 12 10  1  0
 35 29  2  0
 38 17  1  0
 39 19  2  0
M  END
$$$$
