
     RDKit          3D

 39 43  0  0  0  0  0  0  0  0999 V2000
  -20.6390  -37.6496   -4.2396 C   0  0  0  0  0  0  0  0  0  0  0  0
  -22.0166  -38.0053   -4.7995 C   0  0  0  0  0  0  0  0  0  0  0  0
  -22.2140  -37.2273   -6.0866 C   0  0  0  0  0  0  0  0  0  0  0  0
  -22.0435  -39.4492   -5.0441 C   0  0  0  0  0  0  0  0  0  0  0  0
  -22.9616  -40.2342   -4.3948 C   0  0  0  0  0  0  0  0  0  0  0  0
  -22.9892  -41.5833   -4.6206 C   0  0  0  0  0  0  0  0  0  0  0  0
  -22.1098  -42.1048   -5.4781 N   0  0  0  0  0  0  0  0  0  0  0  0
  -21.1827  -41.3522   -6.1412 C   0  0  0  0  0  0  0  0  0  0  0  0
  -21.1419  -40.0025   -5.9269 C   0  0  0  0  0  0  0  0  0  0  0  0
  -20.2789  -42.0934   -7.0621 C   0  0  0  0  0  0  0  0  0  0  0  0
  -20.7756  -43.2265   -7.8838 C   0  0  0  0  0  0  0  0  0  0  0  0
  -19.9827  -43.4862   -6.6399 C   0  0  0  0  0  0  0  0  0  0  0  0
  -19.2487  -41.2434   -7.6324 N   0  0  0  0  0  0  0  0  0  0  0  0
  -18.9657  -40.0842   -6.8184 C   0  0  0  0  0  0  0  0  0  0  0  0
  -18.5654  -38.9481   -7.7493 C   0  0  1  0  0  0  0  0  0  0  0  0
  -18.1214  -37.8877   -6.9945 O   0  0  0  0  0  0  0  0  0  0  0  0
  -17.5107  -39.3932   -8.7407 C   0  0  2  0  0  0  0  0  0  0  0  0
  -17.9291  -38.9661  -10.1157 C   0  0  0  0  0  0  0  0  0  0  0  0
  -17.3865  -37.6331  -10.5298 C   0  0  0  0  0  0  0  0  0  0  0  0
  -18.4622  -36.7620  -10.8625 C   0  0  0  0  0  0  0  0  0  0  0  0
  -18.2940  -35.4965  -11.3352 C   0  0  0  0  0  0  0  0  0  0  0  0
  -16.9884  -35.1007  -11.4761 C   0  0  0  0  0  0  0  0  0  0  0  0
  -15.8809  -35.9218  -11.1612 C   0  0  0  0  0  0  0  0  0  0  0  0
  -14.6047  -35.2225  -11.4586 C   0  0  0  0  0  0  0  0  0  0  0  0
  -13.8379  -35.7799  -12.6468 C   0  0  0  0  0  0  0  0  0  0  0  0
  -12.9597  -36.9190  -12.1646 C   0  0  0  0  0  0  0  0  0  0  0  0
  -13.3337  -38.1519  -12.9073 C   0  0  0  0  0  0  0  0  0  0  0  0
  -12.9014  -39.3994  -12.3123 N   0  0  0  0  0  0  0  0  0  0  0  0
  -13.4246  -40.0721  -11.1503 C   0  0  0  0  0  0  0  0  0  0  0  0
  -14.6886  -40.4531  -10.7893 C   0  0  0  0  0  0  0  0  0  0  0  0
  -14.8250  -41.0327   -9.5431 C   0  0  0  0  0  0  0  0  0  0  0  0
  -13.6789  -41.2084   -8.7238 C   0  0  0  0  0  0  0  0  0  0  0  0
  -12.4131  -40.8231   -9.1038 C   0  0  0  0  0  0  0  0  0  0  0  0
  -11.0380  -41.0677   -8.0498 Cl  0  0  0  0  0  0  0  0  0  0  0  0
  -12.3424  -40.2739  -10.2941 N   0  0  0  0  0  0  0  0  0  0  0  0
  -16.0244  -41.4826   -8.8051 C   0  0  0  0  0  0  0  0  0  0  0  0
  -15.8791  -42.6607   -8.2458 O   0  0  0  0  0  0  0  0  0  0  0  0
  -17.2820  -40.8148   -8.6256 N   0  0  0  0  0  0  0  0  0  0  0  0
  -16.0898  -37.2042  -10.6795 C   0  0  0  0  0  0  0  0  0  0  0  0
  1  2  1  0
  2  3  1  0
  2  4  1  0
  4  5  2  0
  5  6  1  0
  6  7  2  0
  7  8  1  0
  8  9  2  0
  8 10  1  0
 10 11  1  0
 11 12  1  0
 10 13  1  0
 13 14  1  0
 14 15  1  0
 15 16  1  1
 15 17  1  0
 17 18  1  6
 18 19  1  0
 19 20  1  0
 20 21  2  0
 21 22  1  0
 22 23  2  0
 23 24  1  0
 24 25  1  0
 25 26  1  0
 26 27  1  0
 27 28  1  0
 28 29  1  0
 29 30  1  0
 30 31  2  0
 31 32  1  0
 32 33  2  0
 33 34  1  0
 33 35  1  0
 31 36  1  0
 36 37  2  0
 36 38  1  0
 23 39  1  0
  9  4  1  0
 12 10  1  0
 35 29  2  0
 38 17  1  0
 39 19  2  0
M  END
$$$$
