
     RDKit          3D

 39 43  0  0  0  0  0  0  0  0999 V2000
  -23.5454  -39.4551   -4.0450 C   0  0  0  0  0  0  0  0  0  0  0  0
  -22.1840  -40.1094   -4.2823 C   0  0  0  0  0  0  0  0  0  0  0  0
  -22.0142  -41.2197   -3.2629 C   0  0  0  0  0  0  0  0  0  0  0  0
  -22.1712  -40.6381   -5.6482 C   0  0  0  0  0  0  0  0  0  0  0  0
  -23.2224  -40.3787   -6.4900 C   0  0  0  0  0  0  0  0  0  0  0  0
  -23.2139  -40.8714   -7.7663 C   0  0  0  0  0  0  0  0  0  0  0  0
  -22.1686  -41.6005   -8.1619 N   0  0  0  0  0  0  0  0  0  0  0  0
  -21.1060  -41.8775   -7.3497 C   0  0  0  0  0  0  0  0  0  0  0  0
  -21.0989  -41.3927   -6.0714 C   0  0  0  0  0  0  0  0  0  0  0  0
  -20.0242  -42.7041   -7.9503 C   0  0  0  0  0  0  0  0  0  0  0  0
  -20.3304  -43.7975   -8.9078 C   0  0  0  0  0  0  0  0  0  0  0  0
  -19.9983  -44.1132   -7.4818 C   0  0  0  0  0  0  0  0  0  0  0  0
  -18.7972  -41.9532   -8.1493 N   0  0  0  0  0  0  0  0  0  0  0  0
  -18.5744  -40.9627   -7.1218 C   0  0  0  0  0  0  0  0  0  0  0  0
  -18.2697  -39.6391   -7.8093 C   0  0  1  0  0  0  0  0  0  0  0  0
  -17.7683  -38.7582   -6.8798 O   0  0  0  0  0  0  0  0  0  0  0  0
  -17.3053  -39.8256   -8.9618 C   0  0  2  0  0  0  0  0  0  0  0  0
  -17.8007  -39.0397  -10.1387 C   0  0  0  0  0  0  0  0  0  0  0  0
  -17.2351  -37.6557  -10.2273 C   0  0  0  0  0  0  0  0  0  0  0  0
  -18.2956  -36.7059  -10.2338 C   0  0  0  0  0  0  0  0  0  0  0  0
  -18.1099  -35.3640  -10.3674 C   0  0  0  0  0  0  0  0  0  0  0  0
  -16.8025  -34.9715  -10.4999 C   0  0  0  0  0  0  0  0  0  0  0  0
  -15.7096  -35.8690  -10.4999 C   0  0  0  0  0  0  0  0  0  0  0  0
  -14.4301  -35.1418  -10.7006 C   0  0  0  0  0  0  0  0  0  0  0  0
  -13.7709  -35.3784  -12.0495 C   0  0  0  0  0  0  0  0  0  0  0  0
  -12.9077  -36.6222  -11.9547 C   0  0  0  0  0  0  0  0  0  0  0  0
  -13.3817  -37.6053  -12.9649 C   0  0  0  0  0  0  0  0  0  0  0  0
  -12.9594  -38.9747  -12.7556 N   0  0  0  0  0  0  0  0  0  0  0  0
  -13.4272  -39.9216  -11.7752 C   0  0  0  0  0  0  0  0  0  0  0  0
  -14.6773  -40.3591  -11.4304 C   0  0  0  0  0  0  0  0  0  0  0  0
  -14.7499  -41.2466  -10.3746 C   0  0  0  0  0  0  0  0  0  0  0  0
  -13.5575  -41.6571   -9.7222 C   0  0  0  0  0  0  0  0  0  0  0  0
  -12.3067  -41.2103  -10.0843 C   0  0  0  0  0  0  0  0  0  0  0  0
  -10.8726  -41.7544   -9.2424 Cl  0  0  0  0  0  0  0  0  0  0  0  0
  -12.2970  -40.3657  -11.0893 N   0  0  0  0  0  0  0  0  0  0  0  0
  -15.9121  -41.8522   -9.6905 C   0  0  0  0  0  0  0  0  0  0  0  0
  -15.7757  -43.1393   -9.4748 O   0  0  0  0  0  0  0  0  0  0  0  0
  -17.1264  -41.2309   -9.2440 N   0  0  0  0  0  0  0  0  0  0  0  0
  -15.9359  -37.2288  -10.3588 C   0  0  0  0  0  0  0  0  0  0  0  0
  1  2  1  0
  2  3  1  0
  2  4  1  0
  4  5  2  0
  5  6  1  0
  6  7  2  0
  7  8  1  0
  8  9  2  0
  8 10  1  0
 10 11  1  0
 11 12  1  0
 10 13  1  0
 13 14  1  0
 14 15  1  0
 15 16  1  1
 15 17  1  0
 17 18  1  6
 18 19  1  0
 19 20  1  0
 20 21  2  0
 21 22  1  0
 22 23  2  0
 23 24  1  0
 24 25  1  0
 25 26  1  0
 26 27  1  0
 27 28  1  0
 28 29  1  0
 29 30  1  0
 30 31  2  0
 31 32  1  0
 32 33  2  0
 33 34  1  0
 33 35  1  0
 31 36  1  0
 36 37  2  0
 36 38  1  0
 23 39  1  0
  9  4  1  0
 12 10  1  0
 35 29  2  0
 38 17  1  0
 39 19  2  0
M  END
$$$$
