
     RDKit          3D

 39 43  0  0  0  0  0  0  0  0999 V2000
  -13.2624  -39.4060  -14.1068 C   0  0  0  0  0  0  0  0  0  0  0  0
  -14.7090  -39.6825  -13.6959 C   0  0  0  0  0  0  0  0  0  0  0  0
  -15.2822  -40.7042  -14.6595 C   0  0  0  0  0  0  0  0  0  0  0  0
  -14.6964  -40.1967  -12.3245 C   0  0  0  0  0  0  0  0  0  0  0  0
  -15.1027  -41.4825  -12.0742 C   0  0  0  0  0  0  0  0  0  0  0  0
  -15.0927  -41.9659  -10.7944 C   0  0  0  0  0  0  0  0  0  0  0  0
  -14.6822  -41.1617   -9.8118 N   0  0  0  0  0  0  0  0  0  0  0  0
  -14.2713  -39.8768  -10.0261 C   0  0  0  0  0  0  0  0  0  0  0  0
  -14.2752  -39.3784  -11.2991 C   0  0  0  0  0  0  0  0  0  0  0  0
  -13.8446  -39.1187   -8.8188 C   0  0  0  0  0  0  0  0  0  0  0  0
  -12.5252  -38.4391   -8.7614 C   0  0  0  0  0  0  0  0  0  0  0  0
  -12.7318  -39.7475   -8.0623 C   0  0  0  0  0  0  0  0  0  0  0  0
  -14.9607  -38.4902   -8.1345 N   0  0  0  0  0  0  0  0  0  0  0  0
  -16.1405  -38.3912   -8.9622 C   0  0  0  0  0  0  0  0  0  0  0  0
  -17.3436  -38.2399   -8.0418 C   0  0  1  0  0  0  0  0  0  0  0  0
  -18.3544  -37.6088   -8.7283 O   0  0  0  0  0  0  0  0  0  0  0  0
  -17.8004  -39.5808   -7.5064 C   0  0  2  0  0  0  0  0  0  0  0  0
  -18.4560  -39.3716   -6.1744 C   0  0  0  0  0  0  0  0  0  0  0  0
  -19.9403  -39.1865   -6.2497 C   0  0  0  0  0  0  0  0  0  0  0  0
  -20.2968  -37.9406   -5.6603 C   0  0  0  0  0  0  0  0  0  0  0  0
  -21.5800  -37.5088   -5.5191 C   0  0  0  0  0  0  0  0  0  0  0  0
  -22.5357  -38.3716   -5.9916 C   0  0  0  0  0  0  0  0  0  0  0  0
  -22.2408  -39.6202   -6.5864 C   0  0  0  0  0  0  0  0  0  0  0  0
  -23.4887  -40.3351   -6.9579 C   0  0  0  0  0  0  0  0  0  0  0  0
  -23.7955  -41.5585   -6.1097 C   0  0  0  0  0  0  0  0  0  0  0  0
  -23.0777  -42.7539   -6.7073 C   0  0  0  0  0  0  0  0  0  0  0  0
  -22.1634  -43.3192   -5.6796 C   0  0  0  0  0  0  0  0  0  0  0  0
  -21.1181  -44.1886   -6.1785 N   0  0  0  0  0  0  0  0  0  0  0  0
  -19.9182  -43.8356   -6.8941 C   0  0  0  0  0  0  0  0  0  0  0  0
  -18.9146  -42.9409   -6.6385 C   0  0  0  0  0  0  0  0  0  0  0  0
  -17.9330  -42.8240   -7.6030 C   0  0  0  0  0  0  0  0  0  0  0  0
  -18.0056  -43.6213   -8.7755 C   0  0  0  0  0  0  0  0  0  0  0  0
  -19.0203  -44.5202   -9.0155 C   0  0  0  0  0  0  0  0  0  0  0  0
  -19.0543  -45.4768  -10.4802 Cl  0  0  0  0  0  0  0  0  0  0  0  0
  -19.9278  -44.5867   -8.0692 N   0  0  0  0  0  0  0  0  0  0  0  0
  -16.7670  -41.9204   -7.7004 C   0  0  0  0  0  0  0  0  0  0  0  0
  -15.6639  -42.5323   -8.0619 O   0  0  0  0  0  0  0  0  0  0  0  0
  -16.6928  -40.5071   -7.4622 N   0  0  0  0  0  0  0  0  0  0  0  0
  -20.9224  -40.0264   -6.7163 C   0  0  0  0  0  0  0  0  0  0  0  0
  1  2  1  0
  2  3  1  0
  2  4  1  0
  4  5  2  0
  5  6  1  0
  6  7  2  0
  7  8  1  0
  8  9  2  0
  8 10  1  0
 10 11  1  0
 11 12  1  0
 10 13  1  0
 13 14  1  0
 14 15  1  0
 15 16  1  6
 15 17  1  0
 17 18  1  1
 18 19  1  0
 19 20  1  0
 20 21  2  0
 21 22  1  0
 22 23  2  0
 23 24  1  0
 24 25  1  0
 25 26  1  0
 26 27  1  0
 27 28  1  0
 28 29  1  0
 29 30  1  0
 30 31  2  0
 31 32  1  0
 32 33  2  0
 33 34  1  0
 33 35  1  0
 31 36  1  0
 36 37  2  0
 36 38  1  0
 23 39  1  0
  9  4  1  0
 12 10  1  0
 35 29  2  0
 38 17  1  0
 39 19  2  0
M  END
$$$$
