
     RDKit          3D

 39 43  0  0  0  0  0  0  0  0999 V2000
  -17.0206  -36.5429   -5.5646 C   0  0  0  0  0  0  0  0  0  0  0  0
  -17.1937  -38.0484   -5.3611 C   0  0  0  0  0  0  0  0  0  0  0  0
  -18.6287  -38.4046   -5.6998 C   0  0  0  0  0  0  0  0  0  0  0  0
  -16.2538  -38.7335   -6.2513 C   0  0  0  0  0  0  0  0  0  0  0  0
  -15.0086  -39.0797   -5.7926 C   0  0  0  0  0  0  0  0  0  0  0  0
  -14.1280  -39.7193   -6.6216 C   0  0  0  0  0  0  0  0  0  0  0  0
  -14.5106  -39.9921   -7.8706 N   0  0  0  0  0  0  0  0  0  0  0  0
  -15.7424  -39.6615   -8.3592 C   0  0  0  0  0  0  0  0  0  0  0  0
  -16.6342  -39.0221   -7.5438 C   0  0  0  0  0  0  0  0  0  0  0  0
  -16.0060  -40.0403   -9.7739 C   0  0  0  0  0  0  0  0  0  0  0  0
  -15.9046  -41.4514  -10.2261 C   0  0  0  0  0  0  0  0  0  0  0  0
  -14.8026  -40.4818  -10.5241 C   0  0  0  0  0  0  0  0  0  0  0  0
  -17.0154  -39.2009  -10.3947 N   0  0  0  0  0  0  0  0  0  0  0  0
  -17.9834  -39.9582  -11.1537 C   0  0  0  0  0  0  0  0  0  0  0  0
  -19.3583  -39.6834  -10.5606 C   0  0  1  0  0  0  0  0  0  0  0  0
  -20.3075  -39.8363  -11.5439 O   0  0  0  0  0  0  0  0  0  0  0  0
  -19.6414  -40.5903   -9.3814 C   0  0  2  0  0  0  0  0  0  0  0  0
  -20.4900  -39.8476   -8.3933 C   0  0  0  0  0  0  0  0  0  0  0  0
  -21.9615  -40.0567   -8.5771 C   0  0  0  0  0  0  0  0  0  0  0  0
  -22.6013  -38.8005   -8.7757 C   0  0  0  0  0  0  0  0  0  0  0  0
  -23.9471  -38.6488   -8.9121 C   0  0  0  0  0  0  0  0  0  0  0  0
  -24.6700  -39.8124   -8.8438 C   0  0  0  0  0  0  0  0  0  0  0  0
  -24.0892  -41.0870   -8.6490 C   0  0  0  0  0  0  0  0  0  0  0  0
  -25.1360  -42.1387   -8.5816 C   0  0  0  0  0  0  0  0  0  0  0  0
  -25.3335  -42.7498   -7.2040 C   0  0  0  0  0  0  0  0  0  0  0  0
  -24.3486  -43.8913   -7.0354 C   0  0  0  0  0  0  0  0  0  0  0  0
  -23.4908  -43.6057   -5.8546 C   0  0  0  0  0  0  0  0  0  0  0  0
  -22.2554  -44.3575   -5.7788 N   0  0  0  0  0  0  0  0  0  0  0  0
  -21.0523  -44.1937   -6.5550 C   0  0  0  0  0  0  0  0  0  0  0  0
  -20.2603  -43.1098   -6.8214 C   0  0  0  0  0  0  0  0  0  0  0  0
  -19.1974  -43.3192   -7.6781 C   0  0  0  0  0  0  0  0  0  0  0  0
  -18.9789  -44.6137   -8.2188 C   0  0  0  0  0  0  0  0  0  0  0  0
  -19.7831  -45.6949   -7.9373 C   0  0  0  0  0  0  0  0  0  0  0  0
  -19.4615  -47.2677   -8.6336 Cl  0  0  0  0  0  0  0  0  0  0  0  0
  -20.7800  -45.4382   -7.1225 N   0  0  0  0  0  0  0  0  0  0  0  0
  -18.2026  -42.3821   -8.2419 C   0  0  0  0  0  0  0  0  0  0  0  0
  -16.9730  -42.8376   -8.1926 O   0  0  0  0  0  0  0  0  0  0  0  0
  -18.4055  -41.0843   -8.8202 N   0  0  0  0  0  0  0  0  0  0  0  0
  -22.7148  -41.2041   -8.5168 C   0  0  0  0  0  0  0  0  0  0  0  0
  1  2  1  0
  2  3  1  0
  2  4  1  0
  4  5  2  0
  5  6  1  0
  6  7  2  0
  7  8  1  0
  8  9  2  0
  8 10  1  0
 10 11  1  0
 11 12  1  0
 10 13  1  0
 13 14  1  0
 14 15  1  0
 15 16  1  6
 15 17  1  0
 17 18  1  1
 18 19  1  0
 19 20  1  0
 20 21  2  0
 21 22  1  0
 22 23  2  0
 23 24  1  0
 24 25  1  0
 25 26  1  0
 26 27  1  0
 27 28  1  0
 28 29  1  0
 29 30  1  0
 30 31  2  0
 31 32  1  0
 32 33  2  0
 33 34  1  0
 33 35  1  0
 31 36  1  0
 36 37  2  0
 36 38  1  0
 23 39  1  0
  9  4  1  0
 12 10  1  0
 35 29  2  0
 38 17  1  0
 39 19  2  0
M  END
$$$$
