
     RDKit          3D

 39 43  0  0  0  0  0  0  0  0999 V2000
  -11.6654  -35.6668  -12.7877 C   0  0  0  0  0  0  0  0  0  0  0  0
  -12.7656  -36.4093  -13.5468 C   0  0  0  0  0  0  0  0  0  0  0  0
  -12.1711  -37.6918  -14.0970 C   0  0  0  0  0  0  0  0  0  0  0  0
  -13.8510  -36.6904  -12.6044 C   0  0  0  0  0  0  0  0  0  0  0  0
  -15.0174  -35.9724  -12.6733 C   0  0  0  0  0  0  0  0  0  0  0  0
  -16.0332  -36.2320  -11.7943 C   0  0  0  0  0  0  0  0  0  0  0  0
  -15.8581  -37.1899  -10.8818 N   0  0  0  0  0  0  0  0  0  0  0  0
  -14.7100  -37.9234  -10.7856 C   0  0  0  0  0  0  0  0  0  0  0  0
  -13.6854  -37.6765  -11.6565 C   0  0  0  0  0  0  0  0  0  0  0  0
  -14.6819  -38.9529   -9.7116 C   0  0  0  0  0  0  0  0  0  0  0  0
  -13.4196  -39.6376   -9.3324 C   0  0  0  0  0  0  0  0  0  0  0  0
  -14.4274  -40.3344  -10.1939 C   0  0  0  0  0  0  0  0  0  0  0  0
  -15.6500  -38.6872   -8.6622 N   0  0  0  0  0  0  0  0  0  0  0  0
  -16.9713  -38.4115   -9.1766 C   0  0  0  0  0  0  0  0  0  0  0  0
  -17.9326  -38.3779   -7.9967 C   0  0  1  0  0  0  0  0  0  0  0  0
  -19.1093  -37.7885   -8.3960 O   0  0  0  0  0  0  0  0  0  0  0  0
  -18.1767  -39.7667   -7.4446 C   0  0  2  0  0  0  0  0  0  0  0  0
  -18.6269  -39.6481   -6.0194 C   0  0  0  0  0  0  0  0  0  0  0  0
  -20.1146  -39.6012   -5.8535 C   0  0  0  0  0  0  0  0  0  0  0  0
  -20.4818  -38.4069   -5.1712 C   0  0  0  0  0  0  0  0  0  0  0  0
  -21.7591  -38.1002   -4.8145 C   0  0  0  0  0  0  0  0  0  0  0  0
  -22.6975  -39.0385   -5.1614 C   0  0  0  0  0  0  0  0  0  0  0  0
  -22.3915  -40.2412   -5.8395 C   0  0  0  0  0  0  0  0  0  0  0  0
  -23.6140  -41.0616   -6.0354 C   0  0  0  0  0  0  0  0  0  0  0  0
  -23.6710  -42.3261   -5.1939 C   0  0  0  0  0  0  0  0  0  0  0  0
  -22.9545  -43.4361   -5.9394 C   0  0  0  0  0  0  0  0  0  0  0  0
  -21.8409  -43.9350   -5.0892 C   0  0  0  0  0  0  0  0  0  0  0  0
  -20.8157  -44.6920   -5.7771 N   0  0  0  0  0  0  0  0  0  0  0  0
  -19.7819  -44.2131   -6.6594 C   0  0  0  0  0  0  0  0  0  0  0  0
  -18.8341  -43.2340   -6.5330 C   0  0  0  0  0  0  0  0  0  0  0  0
  -18.0337  -43.0053   -7.6351 C   0  0  0  0  0  0  0  0  0  0  0  0
  -18.2216  -43.7809   -8.8094 C   0  0  0  0  0  0  0  0  0  0  0  0
  -19.1775  -44.7655   -8.9188 C   0  0  0  0  0  0  0  0  0  0  0  0
  -19.3599  -45.6899  -10.3933 Cl  0  0  0  0  0  0  0  0  0  0  0  0
  -19.9124  -44.9367   -7.8446 N   0  0  0  0  0  0  0  0  0  0  0  0
  -16.9835  -41.9947   -7.8823 C   0  0  0  0  0  0  0  0  0  0  0  0
  -15.9024  -42.4928   -8.4345 O   0  0  0  0  0  0  0  0  0  0  0  0
  -16.9982  -40.5860   -7.6083 N   0  0  0  0  0  0  0  0  0  0  0  0
  -21.0799  -40.5192   -6.1896 C   0  0  0  0  0  0  0  0  0  0  0  0
  1  2  1  0
  2  3  1  0
  2  4  1  0
  4  5  2  0
  5  6  1  0
  6  7  2  0
  7  8  1  0
  8  9  2  0
  8 10  1  0
 10 11  1  0
 11 12  1  0
 10 13  1  0
 13 14  1  0
 14 15  1  0
 15 16  1  6
 15 17  1  0
 17 18  1  1
 18 19  1  0
 19 20  1  0
 20 21  2  0
 21 22  1  0
 22 23  2  0
 23 24  1  0
 24 25  1  0
 25 26  1  0
 26 27  1  0
 27 28  1  0
 28 29  1  0
 29 30  1  0
 30 31  2  0
 31 32  1  0
 32 33  2  0
 33 34  1  0
 33 35  1  0
 31 36  1  0
 36 37  2  0
 36 38  1  0
 23 39  1  0
  9  4  1  0
 12 10  1  0
 35 29  2  0
 38 17  1  0
 39 19  2  0
M  END
$$$$
