
     RDKit          3D

 39 43  0  0  0  0  0  0  0  0999 V2000
  -24.8158  -42.7676   -3.1945 C   0  0  0  0  0  0  0  0  0  0  0  0
  -24.3298  -41.3469   -2.9061 C   0  0  0  0  0  0  0  0  0  0  0  0
  -23.6875  -41.3417   -1.5319 C   0  0  0  0  0  0  0  0  0  0  0  0
  -23.3624  -40.9832   -3.9441 C   0  0  0  0  0  0  0  0  0  0  0  0
  -23.8042  -40.6083   -5.1871 C   0  0  0  0  0  0  0  0  0  0  0  0
  -22.9034  -40.2685   -6.1592 C   0  0  0  0  0  0  0  0  0  0  0  0
  -21.6022  -40.3119   -5.8665 N   0  0  0  0  0  0  0  0  0  0  0  0
  -21.1285  -40.6805   -4.6396 C   0  0  0  0  0  0  0  0  0  0  0  0
  -22.0154  -41.0231   -3.6572 C   0  0  0  0  0  0  0  0  0  0  0  0
  -19.6487  -40.6734   -4.4828 C   0  0  0  0  0  0  0  0  0  0  0  0
  -18.8210  -41.8253   -4.9233 C   0  0  0  0  0  0  0  0  0  0  0  0
  -19.1354  -41.6326   -3.4717 C   0  0  0  0  0  0  0  0  0  0  0  0
  -19.0827  -39.3426   -4.6150 N   0  0  0  0  0  0  0  0  0  0  0  0
  -18.0739  -39.2635   -5.6459 C   0  0  0  0  0  0  0  0  0  0  0  0
  -18.7165  -38.6450   -6.8796 C   0  0  1  0  0  0  0  0  0  0  0  0
  -18.0279  -37.5033   -7.2168 O   0  0  0  0  0  0  0  0  0  0  0  0
  -18.7497  -39.6247   -8.0339 C   0  0  2  0  0  0  0  0  0  0  0  0
  -19.8678  -39.2452   -8.9579 C   0  0  0  0  0  0  0  0  0  0  0  0
  -19.4520  -38.3396  -10.0759 C   0  0  0  0  0  0  0  0  0  0  0  0
  -20.2246  -37.1445  -10.0350 C   0  0  0  0  0  0  0  0  0  0  0  0
  -20.1265  -36.1471  -10.9561 C   0  0  0  0  0  0  0  0  0  0  0  0
  -19.2129  -36.3698  -11.9546 C   0  0  0  0  0  0  0  0  0  0  0  0
  -18.4184  -37.5361  -12.0456 C   0  0  0  0  0  0  0  0  0  0  0  0
  -17.5593  -37.4956  -13.2566 C   0  0  0  0  0  0  0  0  0  0  0  0
  -17.9532  -38.4786  -14.3470 C   0  0  0  0  0  0  0  0  0  0  0  0
  -17.2816  -39.8092  -14.0644 C   0  0  0  0  0  0  0  0  0  0  0  0
  -18.3344  -40.8499  -13.9224 C   0  0  0  0  0  0  0  0  0  0  0  0
  -17.9250  -42.0719  -13.2620 N   0  0  0  0  0  0  0  0  0  0  0  0
  -17.6681  -42.2966  -11.8619 C   0  0  0  0  0  0  0  0  0  0  0  0
  -18.4007  -42.0493  -10.7327 C   0  0  0  0  0  0  0  0  0  0  0  0
  -17.7941  -42.3450   -9.5277 C   0  0  0  0  0  0  0  0  0  0  0  0
  -16.4807  -42.8841   -9.5191 C   0  0  0  0  0  0  0  0  0  0  0  0
  -15.7585  -43.1308  -10.6649 C   0  0  0  0  0  0  0  0  0  0  0  0
  -14.1428  -43.7985  -10.5901 Cl  0  0  0  0  0  0  0  0  0  0  0  0
  -16.3807  -42.8269  -11.7802 N   0  0  0  0  0  0  0  0  0  0  0  0
  -18.2439  -42.1373   -8.1349 C   0  0  0  0  0  0  0  0  0  0  0  0
  -18.0434  -43.1792   -7.3629 O   0  0  0  0  0  0  0  0  0  0  0  0
  -18.8471  -40.9787   -7.5401 N   0  0  0  0  0  0  0  0  0  0  0  0
  -18.5429  -38.5301  -11.0882 C   0  0  0  0  0  0  0  0  0  0  0  0
  1  2  1  0
  2  3  1  0
  2  4  1  0
  4  5  2  0
  5  6  1  0
  6  7  2  0
  7  8  1  0
  8  9  2  0
  8 10  1  0
 10 11  1  0
 11 12  1  0
 10 13  1  0
 13 14  1  0
 14 15  1  0
 15 16  1  6
 15 17  1  0
 17 18  1  6
 18 19  1  0
 19 20  1  0
 20 21  2  0
 21 22  1  0
 22 23  2  0
 23 24  1  0
 24 25  1  0
 25 26  1  0
 26 27  1  0
 27 28  1  0
 28 29  1  0
 29 30  1  0
 30 31  2  0
 31 32  1  0
 32 33  2  0
 33 34  1  0
 33 35  1  0
 31 36  1  0
 36 37  2  0
 36 38  1  0
 23 39  1  0
  9  4  1  0
 12 10  1  0
 35 29  2  0
 38 17  1  0
 39 19  2  0
M  END
$$$$
