
     RDKit          3D

 39 43  0  0  0  0  0  0  0  0999 V2000
  -20.1465  -37.2730  -11.4850 C   0  0  0  0  0  0  0  0  0  0  0  0
  -21.3426  -38.2173  -11.6105 C   0  0  0  0  0  0  0  0  0  0  0  0
  -21.0043  -39.2651  -12.6538 C   0  0  0  0  0  0  0  0  0  0  0  0
  -21.5714  -38.8297  -10.2998 C   0  0  0  0  0  0  0  0  0  0  0  0
  -22.6882  -39.5979  -10.0914 C   0  0  0  0  0  0  0  0  0  0  0  0
  -22.9054  -40.1710   -8.8682 C   0  0  0  0  0  0  0  0  0  0  0  0
  -22.0121  -39.9637   -7.8988 N   0  0  0  0  0  0  0  0  0  0  0  0
  -20.8900  -39.2046   -8.0725 C   0  0  0  0  0  0  0  0  0  0  0  0
  -20.6581  -38.6248   -9.2887 C   0  0  0  0  0  0  0  0  0  0  0  0
  -19.9990  -39.0772   -6.8875 C   0  0  0  0  0  0  0  0  0  0  0  0
  -19.7640  -40.2234   -5.9726 C   0  0  0  0  0  0  0  0  0  0  0  0
  -20.7055  -39.1259   -5.5820 C   0  0  0  0  0  0  0  0  0  0  0  0
  -18.8997  -38.1561   -7.1158 N   0  0  0  0  0  0  0  0  0  0  0  0
  -17.6299  -38.6781   -6.6664 C   0  0  0  0  0  0  0  0  0  0  0  0
  -16.6317  -38.5176   -7.8045 C   0  0  1  0  0  0  0  0  0  0  0  0
  -15.3597  -38.4899   -7.2822 O   0  0  0  0  0  0  0  0  0  0  0  0
  -16.7788  -39.6246   -8.8273 C   0  0  2  0  0  0  0  0  0  0  0  0
  -16.4352  -39.0804  -10.1814 C   0  0  0  0  0  0  0  0  0  0  0  0
  -15.0000  -39.2678  -10.5659 C   0  0  0  0  0  0  0  0  0  0  0  0
  -14.4135  -38.0029  -10.8536 C   0  0  0  0  0  0  0  0  0  0  0  0
  -13.1347  -37.8428  -11.2919 C   0  0  0  0  0  0  0  0  0  0  0  0
  -12.4257  -39.0069  -11.4445 C   0  0  0  0  0  0  0  0  0  0  0  0
  -12.9555  -40.2898  -11.1737 C   0  0  0  0  0  0  0  0  0  0  0  0
  -11.9560  -41.3470  -11.4733 C   0  0  0  0  0  0  0  0  0  0  0  0
  -12.2783  -42.1979  -12.6909 C   0  0  0  0  0  0  0  0  0  0  0  0
  -13.1767  -43.3411  -12.2581 C   0  0  0  0  0  0  0  0  0  0  0  0
  -14.4457  -43.2638  -13.0298 C   0  0  0  0  0  0  0  0  0  0  0  0
  -15.5618  -44.0045  -12.4795 N   0  0  0  0  0  0  0  0  0  0  0  0
  -16.3706  -43.6917  -11.3285 C   0  0  0  0  0  0  0  0  0  0  0  0
  -17.0601  -42.5696  -10.9563 C   0  0  0  0  0  0  0  0  0  0  0  0
  -17.6853  -42.6107   -9.7254 C   0  0  0  0  0  0  0  0  0  0  0  0
  -17.5924  -43.7846   -8.9322 C   0  0  0  0  0  0  0  0  0  0  0  0
  -16.8977  -44.9070   -9.3234 C   0  0  0  0  0  0  0  0  0  0  0  0
  -16.8207  -46.3255   -8.3018 Cl  0  0  0  0  0  0  0  0  0  0  0  0
  -16.3196  -44.8110  -10.4982 N   0  0  0  0  0  0  0  0  0  0  0  0
  -18.4347  -41.5775   -8.9796 C   0  0  0  0  0  0  0  0  0  0  0  0
  -19.5537  -42.0220   -8.4577 O   0  0  0  0  0  0  0  0  0  0  0  0
  -18.1024  -40.1990   -8.7580 N   0  0  0  0  0  0  0  0  0  0  0  0
  -14.2610  -40.4149  -10.7262 C   0  0  0  0  0  0  0  0  0  0  0  0
  1  2  1  0
  2  3  1  0
  2  4  1  0
  4  5  2  0
  5  6  1  0
  6  7  2  0
  7  8  1  0
  8  9  2  0
  8 10  1  0
 10 11  1  0
 11 12  1  0
 10 13  1  0
 13 14  1  0
 14 15  1  0
 15 16  1  1
 15 17  1  0
 17 18  1  6
 18 19  1  0
 19 20  1  0
 20 21  2  0
 21 22  1  0
 22 23  2  0
 23 24  1  0
 24 25  1  0
 25 26  1  0
 26 27  1  0
 27 28  1  0
 28 29  1  0
 29 30  1  0
 30 31  2  0
 31 32  1  0
 32 33  2  0
 33 34  1  0
 33 35  1  0
 31 36  1  0
 36 37  2  0
 36 38  1  0
 23 39  1  0
  9  4  1  0
 12 10  1  0
 35 29  2  0
 38 17  1  0
 39 19  2  0
M  END
$$$$
