
     RDKit          3D

 39 43  0  0  0  0  0  0  0  0999 V2000
  -12.0434  -41.4685  -13.9491 C   0  0  0  0  0  0  0  0  0  0  0  0
  -11.4180  -40.4845  -12.9599 C   0  0  0  0  0  0  0  0  0  0  0  0
  -11.4308  -39.1081  -13.5973 C   0  0  0  0  0  0  0  0  0  0  0  0
  -12.2199  -40.5081  -11.7344 C   0  0  0  0  0  0  0  0  0  0  0  0
  -12.2508  -41.6402  -10.9609 C   0  0  0  0  0  0  0  0  0  0  0  0
  -12.9992  -41.6658   -9.8159 C   0  0  0  0  0  0  0  0  0  0  0  0
  -13.6876  -40.5735   -9.4791 N   0  0  0  0  0  0  0  0  0  0  0  0
  -13.6791  -39.4301  -10.2262 C   0  0  0  0  0  0  0  0  0  0  0  0
  -12.9364  -39.3880  -11.3733 C   0  0  0  0  0  0  0  0  0  0  0  0
  -14.5021  -38.3048   -9.7058 C   0  0  0  0  0  0  0  0  0  0  0  0
  -15.2703  -37.4233  -10.6216 C   0  0  0  0  0  0  0  0  0  0  0  0
  -13.9737  -36.9563  -10.0350 C   0  0  0  0  0  0  0  0  0  0  0  0
  -15.0754  -38.5924   -8.4029 N   0  0  0  0  0  0  0  0  0  0  0  0
  -16.2583  -37.8104   -8.1272 C   0  0  0  0  0  0  0  0  0  0  0  0
  -17.4010  -38.3889   -8.9500 C   0  0  1  0  0  0  0  0  0  0  0  0
  -16.9886  -38.5222  -10.2552 O   0  0  0  0  0  0  0  0  0  0  0  0
  -17.8703  -39.7140   -8.3869 C   0  0  2  0  0  0  0  0  0  0  0  0
  -18.2522  -39.5204   -6.9499 C   0  0  0  0  0  0  0  0  0  0  0  0
  -19.7030  -39.2124   -6.7425 C   0  0  0  0  0  0  0  0  0  0  0  0
  -19.8345  -37.9733   -6.0539 C   0  0  0  0  0  0  0  0  0  0  0  0
  -21.0273  -37.4470   -5.6624 C   0  0  0  0  0  0  0  0  0  0  0  0
  -22.1257  -38.2045   -5.9798 C   0  0  0  0  0  0  0  0  0  0  0  0
  -22.0557  -39.4410   -6.6624 C   0  0  0  0  0  0  0  0  0  0  0  0
  -23.4088  -40.0328   -6.8213 C   0  0  0  0  0  0  0  0  0  0  0  0
  -23.6639  -41.2690   -5.9745 C   0  0  0  0  0  0  0  0  0  0  0  0
  -23.1756  -42.4865   -6.7364 C   0  0  0  0  0  0  0  0  0  0  0  0
  -22.1438  -43.1755   -5.9163 C   0  0  0  0  0  0  0  0  0  0  0  0
  -21.2879  -44.1000   -6.6303 N   0  0  0  0  0  0  0  0  0  0  0  0
  -20.2112  -43.8093   -7.5429 C   0  0  0  0  0  0  0  0  0  0  0  0
  -19.1025  -43.0127   -7.4463 C   0  0  0  0  0  0  0  0  0  0  0  0
  -18.3058  -42.9267   -8.5712 C   0  0  0  0  0  0  0  0  0  0  0  0
  -18.6605  -43.6548   -9.7373 C   0  0  0  0  0  0  0  0  0  0  0  0
  -19.7777  -44.4553   -9.8167 C   0  0  0  0  0  0  0  0  0  0  0  0
  -20.1617  -45.3303  -11.2825 Cl  0  0  0  0  0  0  0  0  0  0  0  0
  -20.5006  -44.4963   -8.7216 N   0  0  0  0  0  0  0  0  0  0  0  0
  -17.1013  -42.1165   -8.8510 C   0  0  0  0  0  0  0  0  0  0  0  0
  -16.1409  -42.7964   -9.4318 O   0  0  0  0  0  0  0  0  0  0  0  0
  -16.8598  -40.7278   -8.5810 N   0  0  0  0  0  0  0  0  0  0  0  0
  -20.8241  -39.9453   -7.0484 C   0  0  0  0  0  0  0  0  0  0  0  0
  1  2  1  0
  2  3  1  0
  2  4  1  0
  4  5  2  0
  5  6  1  0
  6  7  2  0
  7  8  1  0
  8  9  2  0
  8 10  1  0
 10 11  1  0
 11 12  1  0
 10 13  1  0
 13 14  1  0
 14 15  1  0
 15 16  1  6
 15 17  1  0
 17 18  1  1
 18 19  1  0
 19 20  1  0
 20 21  2  0
 21 22  1  0
 22 23  2  0
 23 24  1  0
 24 25  1  0
 25 26  1  0
 26 27  1  0
 27 28  1  0
 28 29  1  0
 29 30  1  0
 30 31  2  0
 31 32  1  0
 32 33  2  0
 33 34  1  0
 33 35  1  0
 31 36  1  0
 36 37  2  0
 36 38  1  0
 23 39  1  0
  9  4  1  0
 12 10  1  0
 35 29  2  0
 38 17  1  0
 39 19  2  0
M  END
$$$$
