
     RDKit          3D

 39 43  0  0  0  0  0  0  0  0999 V2000
  -14.8775  -36.6845  -13.9678 C   0  0  0  0  0  0  0  0  0  0  0  0
  -14.2520  -38.0221  -13.5709 C   0  0  0  0  0  0  0  0  0  0  0  0
  -13.1836  -38.3609  -14.5929 C   0  0  0  0  0  0  0  0  0  0  0  0
  -13.6756  -37.8695  -12.2330 C   0  0  0  0  0  0  0  0  0  0  0  0
  -12.9360  -36.7545  -11.9319 C   0  0  0  0  0  0  0  0  0  0  0  0
  -12.3958  -36.6089  -10.6834 C   0  0  0  0  0  0  0  0  0  0  0  0
  -12.6065  -37.5692   -9.7811 N   0  0  0  0  0  0  0  0  0  0  0  0
  -13.3375  -38.6917  -10.0477 C   0  0  0  0  0  0  0  0  0  0  0  0
  -13.8843  -38.8525  -11.2904 C   0  0  0  0  0  0  0  0  0  0  0  0
  -13.4750  -39.6617   -8.9276 C   0  0  0  0  0  0  0  0  0  0  0  0
  -12.4418  -40.6981   -8.6737 C   0  0  0  0  0  0  0  0  0  0  0  0
  -13.7241  -41.0616   -9.3569 C   0  0  0  0  0  0  0  0  0  0  0  0
  -14.1592  -39.0920   -7.7804 N   0  0  0  0  0  0  0  0  0  0  0  0
  -15.3002  -38.2878   -8.1520 C   0  0  0  0  0  0  0  0  0  0  0  0
  -16.4589  -38.6761   -7.2442 C   0  0  1  0  0  0  0  0  0  0  0  0
  -17.0805  -37.5327   -6.7997 O   0  0  0  0  0  0  0  0  0  0  0  0
  -17.4359  -39.5879   -7.9566 C   0  0  2  0  0  0  0  0  0  0  0  0
  -18.2036  -40.3684   -6.9322 C   0  0  0  0  0  0  0  0  0  0  0  0
  -19.4955  -39.7302   -6.5242 C   0  0  0  0  0  0  0  0  0  0  0  0
  -19.4997  -39.5179   -5.1165 C   0  0  0  0  0  0  0  0  0  0  0  0
  -20.5596  -39.0094   -4.4301 C   0  0  0  0  0  0  0  0  0  0  0  0
  -21.6545  -38.7061   -5.1986 C   0  0  0  0  0  0  0  0  0  0  0  0
  -21.7070  -38.8950   -6.5991 C   0  0  0  0  0  0  0  0  0  0  0  0
  -23.0382  -38.5095   -7.1335 C   0  0  0  0  0  0  0  0  0  0  0  0
  -23.8916  -39.6734   -7.6104 C   0  0  0  0  0  0  0  0  0  0  0  0
  -23.5353  -39.9749   -9.0539 C   0  0  0  0  0  0  0  0  0  0  0  0
  -23.0678  -41.3839   -9.1415 C   0  0  0  0  0  0  0  0  0  0  0  0
  -22.3149  -41.7233  -10.3311 N   0  0  0  0  0  0  0  0  0  0  0  0
  -20.9605  -41.3679  -10.6717 C   0  0  0  0  0  0  0  0  0  0  0  0
  -19.7723  -41.4938  -10.0044 C   0  0  0  0  0  0  0  0  0  0  0  0
  -18.6566  -40.9714  -10.6288 C   0  0  0  0  0  0  0  0  0  0  0  0
  -18.7910  -40.3544  -11.9005 C   0  0  0  0  0  0  0  0  0  0  0  0
  -19.9937  -40.2396  -12.5605 C   0  0  0  0  0  0  0  0  0  0  0  0
  -20.0956  -39.4693  -14.1283 Cl  0  0  0  0  0  0  0  0  0  0  0  0
  -21.0204  -40.7481  -11.9197 N   0  0  0  0  0  0  0  0  0  0  0  0
  -17.2533  -40.8569  -10.1782 C   0  0  0  0  0  0  0  0  0  0  0  0
  -16.3827  -41.2085  -11.0948 O   0  0  0  0  0  0  0  0  0  0  0  0
  -16.7408  -40.4205   -8.9106 N   0  0  0  0  0  0  0  0  0  0  0  0
  -20.6078  -39.4125   -7.2655 C   0  0  0  0  0  0  0  0  0  0  0  0
  1  2  1  0
  2  3  1  0
  2  4  1  0
  4  5  2  0
  5  6  1  0
  6  7  2  0
  7  8  1  0
  8  9  2  0
  8 10  1  0
 10 11  1  0
 11 12  1  0
 10 13  1  0
 13 14  1  0
 14 15  1  0
 15 16  1  6
 15 17  1  0
 17 18  1  1
 18 19  1  0
 19 20  1  0
 20 21  2  0
 21 22  1  0
 22 23  2  0
 23 24  1  0
 24 25  1  0
 25 26  1  0
 26 27  1  0
 27 28  1  0
 28 29  1  0
 29 30  1  0
 30 31  2  0
 31 32  1  0
 32 33  2  0
 33 34  1  0
 33 35  1  0
 31 36  1  0
 36 37  2  0
 36 38  1  0
 23 39  1  0
  9  4  1  0
 12 10  1  0
 35 29  2  0
 38 17  1  0
 39 19  2  0
M  END
$$$$
