
     RDKit          3D

 39 43  0  0  0  0  0  0  0  0999 V2000
  -17.0102  -37.2794  -13.1860 C   0  0  0  0  0  0  0  0  0  0  0  0
  -15.8002  -36.3702  -13.4034 C   0  0  0  0  0  0  0  0  0  0  0  0
  -16.1915  -34.9638  -12.9914 C   0  0  0  0  0  0  0  0  0  0  0  0
  -14.7022  -36.8778  -12.5776 C   0  0  0  0  0  0  0  0  0  0  0  0
  -13.4046  -36.5915  -12.9169 C   0  0  0  0  0  0  0  0  0  0  0  0
  -12.3765  -37.0645  -12.1480 C   0  0  0  0  0  0  0  0  0  0  0  0
  -12.6691  -37.8012  -11.0746 N   0  0  0  0  0  0  0  0  0  0  0  0
  -13.9495  -38.1048  -10.7084 C   0  0  0  0  0  0  0  0  0  0  0  0
  -14.9883  -37.6400  -11.4660 C   0  0  0  0  0  0  0  0  0  0  0  0
  -14.0976  -38.9362   -9.4832 C   0  0  0  0  0  0  0  0  0  0  0  0
  -12.9474  -39.1868   -8.5775 C   0  0  0  0  0  0  0  0  0  0  0  0
  -13.3940  -40.2430   -9.5410 C   0  0  0  0  0  0  0  0  0  0  0  0
  -15.4160  -38.8158   -8.8864 N   0  0  0  0  0  0  0  0  0  0  0  0
  -15.3669  -38.4452   -7.4911 C   0  0  0  0  0  0  0  0  0  0  0  0
  -16.7962  -38.4095   -6.9683 C   0  0  1  0  0  0  0  0  0  0  0  0
  -17.5652  -37.6537   -7.8219 O   0  0  0  0  0  0  0  0  0  0  0  0
  -17.3619  -39.8057   -6.8141 C   0  0  2  0  0  0  0  0  0  0  0  0
  -17.8557  -39.9746   -5.4085 C   0  0  0  0  0  0  0  0  0  0  0  0
  -19.3060  -39.6463   -5.2299 C   0  0  0  0  0  0  0  0  0  0  0  0
  -19.4473  -38.6265   -4.2466 C   0  0  0  0  0  0  0  0  0  0  0  0
  -20.6476  -38.1517   -3.8145 C   0  0  0  0  0  0  0  0  0  0  0  0
  -21.7437  -38.7324   -4.3998 C   0  0  0  0  0  0  0  0  0  0  0  0
  -21.6641  -39.7477   -5.3810 C   0  0  0  0  0  0  0  0  0  0  0  0
  -23.0207  -40.1953   -5.7877 C   0  0  0  0  0  0  0  0  0  0  0  0
  -23.3936  -41.5933   -5.3219 C   0  0  0  0  0  0  0  0  0  0  0  0
  -22.8901  -42.5944   -6.3445 C   0  0  0  0  0  0  0  0  0  0  0  0
  -21.9583  -43.5348   -5.6669 C   0  0  0  0  0  0  0  0  0  0  0  0
  -21.0815  -44.2882   -6.5392 N   0  0  0  0  0  0  0  0  0  0  0  0
  -19.9214  -43.8322   -7.2622 C   0  0  0  0  0  0  0  0  0  0  0  0
  -18.7949  -43.1564   -6.8780 C   0  0  0  0  0  0  0  0  0  0  0  0
  -17.9036  -42.8251   -7.8797 C   0  0  0  0  0  0  0  0  0  0  0  0
  -18.1865  -43.1984   -9.2199 C   0  0  0  0  0  0  0  0  0  0  0  0
  -19.3230  -43.8819   -9.5892 C   0  0  0  0  0  0  0  0  0  0  0  0
  -19.6156  -44.3161  -11.2588 Cl  0  0  0  0  0  0  0  0  0  0  0  0
  -20.1367  -44.1665   -8.5990 N   0  0  0  0  0  0  0  0  0  0  0  0
  -16.6495  -42.0429   -7.8468 C   0  0  0  0  0  0  0  0  0  0  0  0
  -15.6705  -42.6019   -8.5183 O   0  0  0  0  0  0  0  0  0  0  0  0
  -16.3784  -40.7910   -7.1995 N   0  0  0  0  0  0  0  0  0  0  0  0
  -20.4247  -40.2050   -5.7991 C   0  0  0  0  0  0  0  0  0  0  0  0
  1  2  1  0
  2  3  1  0
  2  4  1  0
  4  5  2  0
  5  6  1  0
  6  7  2  0
  7  8  1  0
  8  9  2  0
  8 10  1  0
 10 11  1  0
 11 12  1  0
 10 13  1  0
 13 14  1  0
 14 15  1  0
 15 16  1  6
 15 17  1  0
 17 18  1  1
 18 19  1  0
 19 20  1  0
 20 21  2  0
 21 22  1  0
 22 23  2  0
 23 24  1  0
 24 25  1  0
 25 26  1  0
 26 27  1  0
 27 28  1  0
 28 29  1  0
 29 30  1  0
 30 31  2  0
 31 32  1  0
 32 33  2  0
 33 34  1  0
 33 35  1  0
 31 36  1  0
 36 37  2  0
 36 38  1  0
 23 39  1  0
  9  4  1  0
 12 10  1  0
 35 29  2  0
 38 17  1  0
 39 19  2  0
M  END
$$$$
