
     RDKit          3D

 39 42  0  0  0  0  0  0  0  0999 V2000
  -18.3538  -43.8399   -7.1119 C   0  0  0  0  0  0  0  0  0  0  0  0
  -19.0250  -42.5091   -7.3660 C   0  0  2  0  0  0  0  0  0  0  0  0
  -20.2926  -42.7157   -8.1849 C   0  0  0  0  0  0  0  0  0  0  0  0
  -21.1587  -43.8012   -7.6907 C   0  0  0  0  0  0  0  0  0  0  0  0
  -21.7490  -43.6413   -6.3312 C   0  0  0  0  0  0  0  0  0  0  0  0
  -23.2134  -43.3785   -6.3084 C   0  0  0  0  0  0  0  0  0  0  0  0
  -23.8428  -42.6441   -5.2323 C   0  0  0  0  0  0  0  0  0  0  0  0
  -23.0864  -41.7320   -4.3484 C   0  0  0  0  0  0  0  0  0  0  0  0
  -23.2655  -40.2573   -4.7719 C   0  0  0  0  0  0  0  0  0  0  0  0
  -22.9239  -40.1177   -6.1791 N   0  0  0  0  0  0  0  0  0  0  0  0
  -21.8114  -39.5154   -6.8452 C   0  0  0  0  0  0  0  0  0  0  0  0
  -20.4688  -39.4930   -6.5478 C   0  0  0  0  0  0  0  0  0  0  0  0
  -19.6133  -38.8410   -7.4182 C   0  0  0  0  0  0  0  0  0  0  0  0
  -20.1442  -38.2218   -8.5762 C   0  0  0  0  0  0  0  0  0  0  0  0
  -21.4743  -38.2228   -8.9053 C   0  0  0  0  0  0  0  0  0  0  0  0
  -22.2867  -38.8771   -8.0222 C   0  0  0  0  0  0  0  0  0  0  0  0
  -18.1478  -38.6667   -7.3749 C   0  0  0  0  0  0  0  0  0  0  0  0
  -17.7938  -37.4197   -7.6776 O   0  0  0  0  0  0  0  0  0  0  0  0
  -17.0894  -39.5434   -7.0839 N   0  0  0  0  0  0  0  0  0  0  0  0
  -17.0029  -40.9832   -7.2202 C   0  0  1  0  0  0  0  0  0  0  0  0
  -18.0705  -41.5761   -8.0639 C   0  0  0  0  0  0  0  0  0  0  0  0
  -15.5942  -41.1977   -7.8388 C   0  0  2  0  0  0  0  0  0  0  0  0
  -14.7195  -40.8122   -6.8326 O   0  0  0  0  0  0  0  0  0  0  0  0
  -15.3371  -40.4879   -9.0814 C   0  0  0  0  0  0  0  0  0  0  0  0
  -14.1056  -39.8659   -9.1842 N   0  0  0  0  0  0  0  0  0  0  0  0
  -13.2944  -39.7617  -10.3049 C   0  0  0  0  0  0  0  0  0  0  0  0
  -11.8648  -39.4901  -10.0556 C   0  0  0  0  0  0  0  0  0  0  0  0
  -11.4705  -40.7698  -10.4228 O   0  0  0  0  0  0  0  0  0  0  0  0
  -12.7198  -41.0223  -10.8914 C   0  0  0  0  0  0  0  0  0  0  0  0
  -13.8840  -38.8489  -11.3321 C   0  0  0  0  0  0  0  0  0  0  0  0
  -14.0252  -37.4995  -11.2213 C   0  0  0  0  0  0  0  0  0  0  0  0
  -14.5651  -36.7196  -12.2444 C   0  0  0  0  0  0  0  0  0  0  0  0
  -14.9592  -37.3564  -13.3901 C   0  0  0  0  0  0  0  0  0  0  0  0
  -14.8240  -38.7232  -13.5185 C   0  0  0  0  0  0  0  0  0  0  0  0
  -14.2936  -39.4804  -12.5099 C   0  0  0  0  0  0  0  0  0  0  0  0
  -14.7155  -35.2551  -12.1107 C   0  0  0  0  0  0  0  0  0  0  0  0
  -15.9696  -34.8825  -11.3694 C   0  0  0  0  0  0  0  0  0  0  0  0
  -14.6191  -34.5344  -13.4256 C   0  0  0  0  0  0  0  0  0  0  0  0
  -13.5538  -34.7478  -11.2500 C   0  0  0  0  0  0  0  0  0  0  0  0
  2  1  1  6
  2  3  1  0
  3  4  1  0
  4  5  1  0
  5  6  1  0
  6  7  1  0
  7  8  1  0
  8  9  1  0
  9 10  1  0
 10 11  1  0
 11 12  1  0
 12 13  2  0
 13 14  1  0
 14 15  2  0
 15 16  1  0
 13 17  1  0
 17 18  2  0
 17 19  1  0
 19 20  1  0
 20 21  1  6
 20 22  1  0
 22 23  1  1
 22 24  1  0
 24 25  1  0
 25 26  1  0
 26 27  1  0
 27 28  1  0
 28 29  1  0
 26 30  1  0
 30 31  2  0
 31 32  1  0
 32 33  2  0
 33 34  1  0
 34 35  2  0
 32 36  1  0
 36 37  1  0
 36 38  1  0
 36 39  1  0
 16 11  2  0
 21  2  1  0
 29 26  1  0
 35 30  1  0
M  END
$$$$
