
     RDKit          3D

 39 42  0  0  0  0  0  0  0  0999 V2000
  -19.7498  -38.5264   -6.0049 C   0  0  0  0  0  0  0  0  0  0  0  0
  -19.6620  -39.9010   -6.6286 C   0  0  2  0  0  0  0  0  0  0  0  0
  -20.2766  -40.9347   -5.6937 C   0  0  0  0  0  0  0  0  0  0  0  0
  -21.5895  -40.5472   -5.1470 C   0  0  0  0  0  0  0  0  0  0  0  0
  -22.7096  -40.3714   -6.1147 C   0  0  0  0  0  0  0  0  0  0  0  0
  -23.7569  -41.4271   -6.0629 C   0  0  0  0  0  0  0  0  0  0  0  0
  -24.5539  -41.7724   -7.2201 C   0  0  0  0  0  0  0  0  0  0  0  0
  -24.1185  -41.4690   -8.5999 C   0  0  0  0  0  0  0  0  0  0  0  0
  -23.5109  -42.7120   -9.2869 C   0  0  0  0  0  0  0  0  0  0  0  0
  -22.4512  -43.2526   -8.4495 N   0  0  0  0  0  0  0  0  0  0  0  0
  -21.0280  -43.2636   -8.5842 C   0  0  0  0  0  0  0  0  0  0  0  0
  -20.1438  -42.3127   -9.0375 C   0  0  0  0  0  0  0  0  0  0  0  0
  -18.7924  -42.6093   -9.0187 C   0  0  0  0  0  0  0  0  0  0  0  0
  -18.3678  -43.8726   -8.5389 C   0  0  0  0  0  0  0  0  0  0  0  0
  -19.2180  -44.8443   -8.0802 C   0  0  0  0  0  0  0  0  0  0  0  0
  -20.5436  -44.5138   -8.1137 C   0  0  0  0  0  0  0  0  0  0  0  0
  -17.6249  -41.7986   -9.4183 C   0  0  0  0  0  0  0  0  0  0  0  0
  -16.7511  -42.5129  -10.1243 O   0  0  0  0  0  0  0  0  0  0  0  0
  -17.2737  -40.4560   -9.1994 N   0  0  0  0  0  0  0  0  0  0  0  0
  -17.6430  -39.5556   -8.1263 C   0  0  1  0  0  0  0  0  0  0  0  0
  -18.2268  -40.2334   -6.9418 C   0  0  0  0  0  0  0  0  0  0  0  0
  -16.3052  -38.8451   -7.7820 C   0  0  2  0  0  0  0  0  0  0  0  0
  -16.6928  -37.5887   -7.3377 O   0  0  0  0  0  0  0  0  0  0  0  0
  -15.3389  -38.7623   -8.8653 C   0  0  0  0  0  0  0  0  0  0  0  0
  -14.4192  -39.7929   -8.9414 N   0  0  0  0  0  0  0  0  0  0  0  0
  -13.2493  -39.8377   -9.6860 C   0  0  0  0  0  0  0  0  0  0  0  0
  -11.9874  -39.7000   -8.9320 C   0  0  0  0  0  0  0  0  0  0  0  0
  -11.6387  -41.0326   -9.1069 O   0  0  0  0  0  0  0  0  0  0  0  0
  -12.6519  -41.1826   -9.9986 C   0  0  0  0  0  0  0  0  0  0  0  0
  -13.3134  -38.9308  -10.8731 C   0  0  0  0  0  0  0  0  0  0  0  0
  -13.3001  -37.5698  -10.8457 C   0  0  0  0  0  0  0  0  0  0  0  0
  -13.3375  -36.8001  -12.0088 C   0  0  0  0  0  0  0  0  0  0  0  0
  -13.3892  -37.4593  -13.2072 C   0  0  0  0  0  0  0  0  0  0  0  0
  -13.4042  -38.8380  -13.2528 C   0  0  0  0  0  0  0  0  0  0  0  0
  -13.3674  -39.5850  -12.1071 C   0  0  0  0  0  0  0  0  0  0  0  0
  -13.3252  -35.3225  -11.9656 C   0  0  0  0  0  0  0  0  0  0  0  0
  -14.5854  -34.7654  -11.3633 C   0  0  0  0  0  0  0  0  0  0  0  0
  -13.0324  -34.7004  -13.3016 C   0  0  0  0  0  0  0  0  0  0  0  0
  -12.1897  -34.8970  -11.0289 C   0  0  0  0  0  0  0  0  0  0  0  0
  2  1  1  1
  2  3  1  0
  3  4  1  0
  4  5  1  0
  5  6  1  0
  6  7  1  0
  7  8  1  0
  8  9  1  0
  9 10  1  0
 10 11  1  0
 11 12  1  0
 12 13  2  0
 13 14  1  0
 14 15  2  0
 15 16  1  0
 13 17  1  0
 17 18  2  0
 17 19  1  0
 19 20  1  0
 20 21  1  1
 20 22  1  0
 22 23  1  6
 22 24  1  0
 24 25  1  0
 25 26  1  0
 26 27  1  0
 27 28  1  0
 28 29  1  0
 26 30  1  0
 30 31  2  0
 31 32  1  0
 32 33  2  0
 33 34  1  0
 34 35  2  0
 32 36  1  0
 36 37  1  0
 36 38  1  0
 36 39  1  0
 16 11  2  0
 21  2  1  0
 29 26  1  0
 35 30  1  0
M  END
$$$$
