
     RDKit          3D

 39 42  0  0  0  0  0  0  0  0999 V2000
  -17.5971  -43.2474   -7.1158 C   0  0  0  0  0  0  0  0  0  0  0  0
  -18.4055  -42.0265   -7.4928 C   0  0  2  0  0  0  0  0  0  0  0  0
  -19.4793  -42.4076   -8.5037 C   0  0  0  0  0  0  0  0  0  0  0  0
  -20.2460  -43.6136   -8.1422 C   0  0  0  0  0  0  0  0  0  0  0  0
  -21.0661  -43.5567   -6.8986 C   0  0  0  0  0  0  0  0  0  0  0  0
  -22.5372  -43.5114   -7.1171 C   0  0  0  0  0  0  0  0  0  0  0  0
  -23.4335  -42.8888   -6.1670 C   0  0  0  0  0  0  0  0  0  0  0  0
  -22.9723  -41.8855   -5.1843 C   0  0  0  0  0  0  0  0  0  0  0  0
  -23.2940  -40.4484   -5.6506 C   0  0  0  0  0  0  0  0  0  0  0  0
  -22.7526  -40.2449   -6.9855 N   0  0  0  0  0  0  0  0  0  0  0  0
  -21.6470  -39.4790   -7.4702 C   0  0  0  0  0  0  0  0  0  0  0  0
  -20.3885  -39.2634   -6.9593 C   0  0  0  0  0  0  0  0  0  0  0  0
  -19.5077  -38.4838   -7.6880 C   0  0  0  0  0  0  0  0  0  0  0  0
  -19.9284  -37.9365   -8.9248 C   0  0  0  0  0  0  0  0  0  0  0  0
  -21.1728  -38.1287   -9.4653 C   0  0  0  0  0  0  0  0  0  0  0  0
  -22.0131  -38.9045   -8.7171 C   0  0  0  0  0  0  0  0  0  0  0  0
  -18.1101  -38.0972   -7.4100 C   0  0  0  0  0  0  0  0  0  0  0  0
  -17.8979  -36.8085   -7.6677 O   0  0  0  0  0  0  0  0  0  0  0  0
  -16.9963  -38.8126   -6.9396 N   0  0  0  0  0  0  0  0  0  0  0  0
  -16.6791  -40.2225   -7.0411 C   0  0  1  0  0  0  0  0  0  0  0  0
  -17.4973  -40.9563   -8.0389 C   0  0  0  0  0  0  0  0  0  0  0  0
  -15.1727  -40.2217   -7.4202 C   0  0  2  0  0  0  0  0  0  0  0  0
  -14.6501  -39.1358   -6.7318 O   0  0  0  0  0  0  0  0  0  0  0  0
  -14.8811  -40.1523   -8.8430 C   0  0  0  0  0  0  0  0  0  0  0  0
  -13.7279  -39.4747   -9.1962 N   0  0  0  0  0  0  0  0  0  0  0  0
  -13.2889  -39.1464  -10.4707 C   0  0  0  0  0  0  0  0  0  0  0  0
  -11.8410  -39.2897  -10.7218 C   0  0  0  0  0  0  0  0  0  0  0  0
  -12.0061  -40.4032  -11.5347 O   0  0  0  0  0  0  0  0  0  0  0  0
  -13.3490  -40.2013  -11.5415 C   0  0  0  0  0  0  0  0  0  0  0  0
  -13.8230  -37.8228  -10.9165 C   0  0  0  0  0  0  0  0  0  0  0  0
  -15.1298  -37.5214  -11.1501 C   0  0  0  0  0  0  0  0  0  0  0  0
  -15.5431  -36.2472  -11.5403 C   0  0  0  0  0  0  0  0  0  0  0  0
  -14.5825  -35.2833  -11.6865 C   0  0  0  0  0  0  0  0  0  0  0  0
  -13.2537  -35.5720  -11.4546 C   0  0  0  0  0  0  0  0  0  0  0  0
  -12.8572  -36.8245  -11.0723 C   0  0  0  0  0  0  0  0  0  0  0  0
  -16.9653  -35.9333  -11.7936 C   0  0  0  0  0  0  0  0  0  0  0  0
  -17.8598  -37.1111  -11.5216 C   0  0  0  0  0  0  0  0  0  0  0  0
  -17.2043  -35.3660  -13.1642 C   0  0  0  0  0  0  0  0  0  0  0  0
  -17.3844  -34.8496  -10.7946 C   0  0  0  0  0  0  0  0  0  0  0  0
  2  1  1  6
  2  3  1  0
  3  4  1  0
  4  5  1  0
  5  6  1  0
  6  7  1  0
  7  8  1  0
  8  9  1  0
  9 10  1  0
 10 11  1  0
 11 12  1  0
 12 13  2  0
 13 14  1  0
 14 15  2  0
 15 16  1  0
 13 17  1  0
 17 18  2  0
 17 19  1  0
 19 20  1  0
 20 21  1  6
 20 22  1  0
 22 23  1  1
 22 24  1  0
 24 25  1  0
 25 26  1  0
 26 27  1  0
 27 28  1  0
 28 29  1  0
 26 30  1  0
 30 31  2  0
 31 32  1  0
 32 33  2  0
 33 34  1  0
 34 35  2  0
 32 36  1  0
 36 37  1  0
 36 38  1  0
 36 39  1  0
 16 11  2  0
 21  2  1  0
 29 26  1  0
 35 30  1  0
M  END
$$$$
