
     RDKit          3D

 39 42  0  0  0  0  0  0  0  0999 V2000
  -14.9891  -36.8641   -9.3633 C   0  0  0  0  0  0  0  0  0  0  0  0
  -16.4497  -37.0569   -9.7034 C   0  0  2  0  0  0  0  0  0  0  0  0
  -17.1302  -35.7025   -9.8540 C   0  0  0  0  0  0  0  0  0  0  0  0
  -16.3851  -34.7438  -10.6898 C   0  0  0  0  0  0  0  0  0  0  0  0
  -16.1850  -35.0967  -12.1242 C   0  0  0  0  0  0  0  0  0  0  0  0
  -16.9763  -34.2847  -13.0879 C   0  0  0  0  0  0  0  0  0  0  0  0
  -17.3787  -34.8040  -14.3770 C   0  0  0  0  0  0  0  0  0  0  0  0
  -17.4515  -36.2533  -14.6587 C   0  0  0  0  0  0  0  0  0  0  0  0
  -18.9031  -36.7740  -14.5698 C   0  0  0  0  0  0  0  0  0  0  0  0
  -19.4671  -36.4042  -13.2808 N   0  0  0  0  0  0  0  0  0  0  0  0
  -19.7909  -37.1676  -12.1162 C   0  0  0  0  0  0  0  0  0  0  0  0
  -19.1476  -38.2157  -11.5005 C   0  0  0  0  0  0  0  0  0  0  0  0
  -19.7001  -38.7386  -10.3447 C   0  0  0  0  0  0  0  0  0  0  0  0
  -20.9008  -38.1829   -9.8388 C   0  0  0  0  0  0  0  0  0  0  0  0
  -21.5698  -37.1401  -10.4241 C   0  0  0  0  0  0  0  0  0  0  0  0
  -20.9928  -36.6507  -11.5623 C   0  0  0  0  0  0  0  0  0  0  0  0
  -19.2375  -39.8330   -9.4681 C   0  0  0  0  0  0  0  0  0  0  0  0
  -20.2395  -40.6359   -9.1168 O   0  0  0  0  0  0  0  0  0  0  0  0
  -17.9769  -40.1750   -8.9507 N   0  0  0  0  0  0  0  0  0  0  0  0
  -16.8244  -39.3436   -8.6692 C   0  0  1  0  0  0  0  0  0  0  0  0
  -17.1198  -37.8892   -8.6419 C   0  0  0  0  0  0  0  0  0  0  0  0
  -16.3433  -39.8596   -7.2852 C   0  0  2  0  0  0  0  0  0  0  0  0
  -15.0600  -39.3462   -7.1591 O   0  0  0  0  0  0  0  0  0  0  0  0
  -16.3695  -41.3024   -7.1069 C   0  0  0  0  0  0  0  0  0  0  0  0
  -17.6026  -41.8580   -6.8160 N   0  0  0  0  0  0  0  0  0  0  0  0
  -17.9108  -43.1978   -6.6291 C   0  0  0  0  0  0  0  0  0  0  0  0
  -17.7769  -44.0717   -7.8115 C   0  0  0  0  0  0  0  0  0  0  0  0
  -16.6465  -44.7092   -7.3177 O   0  0  0  0  0  0  0  0  0  0  0  0
  -16.8352  -44.1135   -6.1120 C   0  0  0  0  0  0  0  0  0  0  0  0
  -19.2205  -43.3721   -5.9288 C   0  0  0  0  0  0  0  0  0  0  0  0
  -19.5850  -42.7938   -4.7516 C   0  0  0  0  0  0  0  0  0  0  0  0
  -20.8426  -42.9925   -4.1810 C   0  0  0  0  0  0  0  0  0  0  0  0
  -21.7234  -43.8013   -4.8470 C   0  0  0  0  0  0  0  0  0  0  0  0
  -21.3697  -44.3957   -6.0406 C   0  0  0  0  0  0  0  0  0  0  0  0
  -20.1341  -44.1954   -6.5929 C   0  0  0  0  0  0  0  0  0  0  0  0
  -21.2255  -42.3608   -2.9006 C   0  0  0  0  0  0  0  0  0  0  0  0
  -22.5626  -42.8443   -2.4109 C   0  0  0  0  0  0  0  0  0  0  0  0
  -21.1668  -40.8602   -2.9476 C   0  0  0  0  0  0  0  0  0  0  0  0
  -20.2077  -42.8035   -1.8442 C   0  0  0  0  0  0  0  0  0  0  0  0
  2  1  1  1
  2  3  1  0
  3  4  1  0
  4  5  1  0
  5  6  1  0
  6  7  1  0
  7  8  1  0
  8  9  1  0
  9 10  1  0
 10 11  1  0
 11 12  1  0
 12 13  2  0
 13 14  1  0
 14 15  2  0
 15 16  1  0
 13 17  1  0
 17 18  2  0
 17 19  1  0
 19 20  1  0
 20 21  1  1
 20 22  1  0
 22 23  1  6
 22 24  1  0
 24 25  1  0
 25 26  1  0
 26 27  1  0
 27 28  1  0
 28 29  1  0
 26 30  1  0
 30 31  2  0
 31 32  1  0
 32 33  2  0
 33 34  1  0
 34 35  2  0
 32 36  1  0
 36 37  1  0
 36 38  1  0
 36 39  1  0
 16 11  2  0
 21  2  1  0
 29 26  1  0
 35 30  1  0
M  END
$$$$
