
     RDKit          3D

 39 42  0  0  0  0  0  0  0  0999 V2000
  -19.5652  -39.1370   -5.3983 C   0  0  0  0  0  0  0  0  0  0  0  0
  -19.7287  -40.1941   -6.4670 C   0  0  2  0  0  0  0  0  0  0  0  0
  -20.2823  -41.4726   -5.8512 C   0  0  0  0  0  0  0  0  0  0  0  0
  -21.4363  -41.2607   -4.9589 C   0  0  0  0  0  0  0  0  0  0  0  0
  -22.6786  -40.7039   -5.5662 C   0  0  0  0  0  0  0  0  0  0  0  0
  -23.8073  -41.6664   -5.6832 C   0  0  0  0  0  0  0  0  0  0  0  0
  -24.8195  -41.5382   -6.7091 C   0  0  0  0  0  0  0  0  0  0  0  0
  -24.5933  -40.7716   -7.9527 C   0  0  0  0  0  0  0  0  0  0  0  0
  -24.2440  -41.7027   -9.1348 C   0  0  0  0  0  0  0  0  0  0  0  0
  -23.1213  -42.5497   -8.7626 N   0  0  0  0  0  0  0  0  0  0  0  0
  -21.7502  -42.5646   -9.1672 C   0  0  0  0  0  0  0  0  0  0  0  0
  -20.8600  -41.5480   -9.4230 C   0  0  0  0  0  0  0  0  0  0  0  0
  -19.5635  -41.8818   -9.7727 C   0  0  0  0  0  0  0  0  0  0  0  0
  -19.1994  -43.2481   -9.8568 C   0  0  0  0  0  0  0  0  0  0  0  0
  -20.0576  -44.2873   -9.6099 C   0  0  0  0  0  0  0  0  0  0  0  0
  -21.3278  -43.9175   -9.2668 C   0  0  0  0  0  0  0  0  0  0  0  0
  -18.4013  -41.0259  -10.0835 C   0  0  0  0  0  0  0  0  0  0  0  0
  -17.7388  -41.4678  -11.1503 O   0  0  0  0  0  0  0  0  0  0  0  0
  -17.8790  -39.8684   -9.4826 N   0  0  0  0  0  0  0  0  0  0  0  0
  -17.9657  -39.4052   -8.1126 C   0  0  1  0  0  0  0  0  0  0  0  0
  -18.4097  -40.4440   -7.1498 C   0  0  0  0  0  0  0  0  0  0  0  0
  -16.5218  -38.9188   -7.8097 C   0  0  2  0  0  0  0  0  0  0  0  0
  -16.6863  -37.6040   -7.3968 O   0  0  0  0  0  0  0  0  0  0  0  0
  -15.5769  -39.0270   -8.9096 C   0  0  0  0  0  0  0  0  0  0  0  0
  -14.5211  -39.9010   -8.7219 N   0  0  0  0  0  0  0  0  0  0  0  0
  -13.4870  -40.1893   -9.6008 C   0  0  0  0  0  0  0  0  0  0  0  0
  -12.1431  -40.3325   -9.0064 C   0  0  0  0  0  0  0  0  0  0  0  0
  -12.1117  -41.7072   -9.1989 O   0  0  0  0  0  0  0  0  0  0  0  0
  -13.2338  -41.6281   -9.9596 C   0  0  0  0  0  0  0  0  0  0  0  0
  -13.4987  -39.2791  -10.7871 C   0  0  0  0  0  0  0  0  0  0  0  0
  -13.3539  -37.9257  -10.7626 C   0  0  0  0  0  0  0  0  0  0  0  0
  -13.3515  -37.1547  -11.9254 C   0  0  0  0  0  0  0  0  0  0  0  0
  -13.5015  -37.8047  -13.1206 C   0  0  0  0  0  0  0  0  0  0  0  0
  -13.6502  -39.1755  -13.1633 C   0  0  0  0  0  0  0  0  0  0  0  0
  -13.6515  -39.9238  -12.0178 C   0  0  0  0  0  0  0  0  0  0  0  0
  -13.1960  -35.6852  -11.8853 C   0  0  0  0  0  0  0  0  0  0  0  0
  -11.9979  -35.2668  -11.0785 C   0  0  0  0  0  0  0  0  0  0  0  0
  -14.4405  -34.9773  -11.4296 C   0  0  0  0  0  0  0  0  0  0  0  0
  -12.9239  -35.2100  -13.3164 C   0  0  0  0  0  0  0  0  0  0  0  0
  2  1  1  1
  2  3  1  0
  3  4  1  0
  4  5  1  0
  5  6  1  0
  6  7  1  0
  7  8  1  0
  8  9  1  0
  9 10  1  0
 10 11  1  0
 11 12  1  0
 12 13  2  0
 13 14  1  0
 14 15  2  0
 15 16  1  0
 13 17  1  0
 17 18  2  0
 17 19  1  0
 19 20  1  0
 20 21  1  1
 20 22  1  0
 22 23  1  6
 22 24  1  0
 24 25  1  0
 25 26  1  0
 26 27  1  0
 27 28  1  0
 28 29  1  0
 26 30  1  0
 30 31  2  0
 31 32  1  0
 32 33  2  0
 33 34  1  0
 34 35  2  0
 32 36  1  0
 36 37  1  0
 36 38  1  0
 36 39  1  0
 16 11  2  0
 21  2  1  0
 29 26  1  0
 35 30  1  0
M  END
$$$$
