
     RDKit          3D

 39 42  0  0  0  0  0  0  0  0999 V2000
  -19.2301  -38.1786   -6.4884 C   0  0  0  0  0  0  0  0  0  0  0  0
  -19.3417  -39.6855   -6.5447 C   0  0  2  0  0  0  0  0  0  0  0  0
  -20.0601  -40.1988   -5.3035 C   0  0  0  0  0  0  0  0  0  0  0  0
  -21.2945  -39.4635   -4.9746 C   0  0  0  0  0  0  0  0  0  0  0  0
  -22.4088  -39.5189   -5.9633 C   0  0  0  0  0  0  0  0  0  0  0  0
  -23.5840  -40.3282   -5.5414 C   0  0  0  0  0  0  0  0  0  0  0  0
  -24.4520  -40.9756   -6.5011 C   0  0  0  0  0  0  0  0  0  0  0  0
  -24.0200  -41.2756   -7.8826 C   0  0  0  0  0  0  0  0  0  0  0  0
  -23.6009  -42.7546   -8.0350 C   0  0  0  0  0  0  0  0  0  0  0  0
  -22.5982  -43.0748   -7.0308 N   0  0  0  0  0  0  0  0  0  0  0  0
  -21.1932  -43.3243   -7.1177 C   0  0  0  0  0  0  0  0  0  0  0  0
  -20.2048  -42.7408   -7.8755 C   0  0  0  0  0  0  0  0  0  0  0  0
  -18.9042  -43.1847   -7.7142 C   0  0  0  0  0  0  0  0  0  0  0  0
  -18.6361  -44.2179   -6.7832 C   0  0  0  0  0  0  0  0  0  0  0  0
  -19.5933  -44.8229   -6.0118 C   0  0  0  0  0  0  0  0  0  0  0  0
  -20.8644  -44.3569   -6.1988 C   0  0  0  0  0  0  0  0  0  0  0  0
  -17.6520  -42.7470   -8.3627 C   0  0  0  0  0  0  0  0  0  0  0  0
  -16.9003  -43.7839   -8.7260 O   0  0  0  0  0  0  0  0  0  0  0  0
  -17.1212  -41.4804   -8.6586 N   0  0  0  0  0  0  0  0  0  0  0  0
  -17.3382  -40.2013   -8.0139 C   0  0  1  0  0  0  0  0  0  0  0  0
  -17.9722  -40.2985   -6.6753 C   0  0  0  0  0  0  0  0  0  0  0  0
  -15.9093  -39.5976   -7.9319 C   0  0  2  0  0  0  0  0  0  0  0  0
  -16.0916  -38.2532   -8.2247 O   0  0  0  0  0  0  0  0  0  0  0  0
  -14.9156  -40.2107   -8.7984 C   0  0  0  0  0  0  0  0  0  0  0  0
  -13.6999  -39.5567   -8.8893 N   0  0  0  0  0  0  0  0  0  0  0  0
  -12.6826  -39.7728   -9.8077 C   0  0  0  0  0  0  0  0  0  0  0  0
  -11.3641  -40.1358   -9.2511 C   0  0  0  0  0  0  0  0  0  0  0  0
  -11.4484  -41.4518   -9.6859 O   0  0  0  0  0  0  0  0  0  0  0  0
  -12.5492  -41.1413  -10.4181 C   0  0  0  0  0  0  0  0  0  0  0  0
  -12.5999  -38.6685  -10.8124 C   0  0  0  0  0  0  0  0  0  0  0  0
  -13.4927  -37.6521  -10.9640 C   0  0  0  0  0  0  0  0  0  0  0  0
  -13.3224  -36.6455  -11.9150 C   0  0  0  0  0  0  0  0  0  0  0  0
  -12.2110  -36.7037  -12.7117 C   0  0  0  0  0  0  0  0  0  0  0  0
  -11.2967  -37.7273  -12.5718 C   0  0  0  0  0  0  0  0  0  0  0  0
  -11.4718  -38.7104  -11.6365 C   0  0  0  0  0  0  0  0  0  0  0  0
  -14.3007  -35.5484  -12.0716 C   0  0  0  0  0  0  0  0  0  0  0  0
  -15.7176  -36.0320  -11.9313 C   0  0  0  0  0  0  0  0  0  0  0  0
  -14.1085  -34.7698  -13.3422 C   0  0  0  0  0  0  0  0  0  0  0  0
  -14.0784  -34.5630  -10.9194 C   0  0  0  0  0  0  0  0  0  0  0  0
  2  1  1  1
  2  3  1  0
  3  4  1  0
  4  5  1  0
  5  6  1  0
  6  7  1  0
  7  8  1  0
  8  9  1  0
  9 10  1  0
 10 11  1  0
 11 12  1  0
 12 13  2  0
 13 14  1  0
 14 15  2  0
 15 16  1  0
 13 17  1  0
 17 18  2  0
 17 19  1  0
 19 20  1  0
 20 21  1  1
 20 22  1  0
 22 23  1  6
 22 24  1  0
 24 25  1  0
 25 26  1  0
 26 27  1  0
 27 28  1  0
 28 29  1  0
 26 30  1  0
 30 31  2  0
 31 32  1  0
 32 33  2  0
 33 34  1  0
 34 35  2  0
 32 36  1  0
 36 37  1  0
 36 38  1  0
 36 39  1  0
 16 11  2  0
 21  2  1  0
 29 26  1  0
 35 30  1  0
M  END
$$$$
