
     RDKit          3D

 39 42  0  0  0  0  0  0  0  0999 V2000
  -20.7578  -38.2427   -6.6386 C   0  0  0  0  0  0  0  0  0  0  0  0
  -20.3880  -39.7088   -6.6331 C   0  0  2  0  0  0  0  0  0  0  0  0
  -20.4522  -40.2544   -5.2124 C   0  0  0  0  0  0  0  0  0  0  0  0
  -21.6776  -39.8863   -4.4806 C   0  0  0  0  0  0  0  0  0  0  0  0
  -22.9731  -40.3948   -5.0146 C   0  0  0  0  0  0  0  0  0  0  0  0
  -23.6159  -41.4590   -4.1970 C   0  0  0  0  0  0  0  0  0  0  0  0
  -24.4920  -42.4504   -4.7829 C   0  0  0  0  0  0  0  0  0  0  0  0
  -24.4650  -42.7774   -6.2243 C   0  0  0  0  0  0  0  0  0  0  0  0
  -23.6648  -44.0707   -6.4953 C   0  0  0  0  0  0  0  0  0  0  0  0
  -22.3417  -43.9490   -5.9029 N   0  0  0  0  0  0  0  0  0  0  0  0
  -21.0426  -43.7762   -6.4742 C   0  0  0  0  0  0  0  0  0  0  0  0
  -20.6029  -43.0234   -7.5378 C   0  0  0  0  0  0  0  0  0  0  0  0
  -19.2521  -43.0349   -7.8377 C   0  0  0  0  0  0  0  0  0  0  0  0
  -18.3744  -43.8164   -7.0470 C   0  0  0  0  0  0  0  0  0  0  0  0
  -18.7751  -44.5786   -5.9812 C   0  0  0  0  0  0  0  0  0  0  0  0
  -20.1152  -44.5405   -5.7161 C   0  0  0  0  0  0  0  0  0  0  0  0
  -18.4952  -42.3276   -8.8898 C   0  0  0  0  0  0  0  0  0  0  0  0
  -17.6120  -43.1294   -9.4807 O   0  0  0  0  0  0  0  0  0  0  0  0
  -18.5308  -41.0075   -9.3691 N   0  0  0  0  0  0  0  0  0  0  0  0
  -18.9254  -39.7817   -8.7053 C   0  0  1  0  0  0  0  0  0  0  0  0
  -19.0172  -39.8961   -7.2283 C   0  0  0  0  0  0  0  0  0  0  0  0
  -17.8256  -38.7735   -9.1376 C   0  0  2  0  0  0  0  0  0  0  0  0
  -18.2679  -37.5553   -8.6409 O   0  0  0  0  0  0  0  0  0  0  0  0
  -17.5546  -38.7103  -10.5647 C   0  0  0  0  0  0  0  0  0  0  0  0
  -16.2467  -38.4390  -10.9250 N   0  0  0  0  0  0  0  0  0  0  0  0
  -15.2936  -39.3257  -11.4050 C   0  0  0  0  0  0  0  0  0  0  0  0
  -15.1038  -40.5668  -10.6282 C   0  0  0  0  0  0  0  0  0  0  0  0
  -15.7041  -41.3636  -11.5941 O   0  0  0  0  0  0  0  0  0  0  0  0
  -15.7057  -40.3168  -12.4591 C   0  0  0  0  0  0  0  0  0  0  0  0
  -14.0033  -38.6369  -11.7156 C   0  0  0  0  0  0  0  0  0  0  0  0
  -13.8290  -37.2981  -11.8894 C   0  0  0  0  0  0  0  0  0  0  0  0
  -12.5791  -36.7366  -12.1520 C   0  0  0  0  0  0  0  0  0  0  0  0
  -11.5057  -37.5819  -12.2331 C   0  0  0  0  0  0  0  0  0  0  0  0
  -11.6649  -38.9413  -12.0604 C   0  0  0  0  0  0  0  0  0  0  0  0
  -12.8945  -39.4834  -11.8032 C   0  0  0  0  0  0  0  0  0  0  0  0
  -12.4034  -35.2811  -12.3414 C   0  0  0  0  0  0  0  0  0  0  0  0
  -13.7133  -34.5808  -12.5762 C   0  0  0  0  0  0  0  0  0  0  0  0
  -11.4016  -34.9466  -13.4102 C   0  0  0  0  0  0  0  0  0  0  0  0
  -11.8509  -34.7080  -11.0321 C   0  0  0  0  0  0  0  0  0  0  0  0
  2  1  1  1
  2  3  1  0
  3  4  1  0
  4  5  1  0
  5  6  1  0
  6  7  1  0
  7  8  1  0
  8  9  1  0
  9 10  1  0
 10 11  1  0
 11 12  1  0
 12 13  2  0
 13 14  1  0
 14 15  2  0
 15 16  1  0
 13 17  1  0
 17 18  2  0
 17 19  1  0
 19 20  1  0
 20 21  1  1
 20 22  1  0
 22 23  1  6
 22 24  1  0
 24 25  1  0
 25 26  1  0
 26 27  1  0
 27 28  1  0
 28 29  1  0
 26 30  1  0
 30 31  2  0
 31 32  1  0
 32 33  2  0
 33 34  1  0
 34 35  2  0
 32 36  1  0
 36 37  1  0
 36 38  1  0
 36 39  1  0
 16 11  2  0
 21  2  1  0
 29 26  1  0
 35 30  1  0
M  END
$$$$
