
     RDKit          3D

 39 42  0  0  0  0  0  0  0  0999 V2000
  -16.0484  -36.6877   -9.8287 C   0  0  0  0  0  0  0  0  0  0  0  0
  -15.6280  -38.0701  -10.2743 C   0  0  2  0  0  0  0  0  0  0  0  0
  -15.9051  -38.2418  -11.7622 C   0  0  0  0  0  0  0  0  0  0  0  0
  -15.4418  -37.1172  -12.5949 C   0  0  0  0  0  0  0  0  0  0  0  0
  -13.9756  -36.8504  -12.6312 C   0  0  0  0  0  0  0  0  0  0  0  0
  -13.3058  -37.1928  -13.9150 C   0  0  0  0  0  0  0  0  0  0  0  0
  -11.9084  -37.5637  -13.9743 C   0  0  0  0  0  0  0  0  0  0  0  0
  -11.1729  -38.0684  -12.7955 C   0  0  0  0  0  0  0  0  0  0  0  0
  -11.0531  -39.6083  -12.8210 C   0  0  0  0  0  0  0  0  0  0  0  0
  -12.3781  -40.1899  -12.9712 N   0  0  0  0  0  0  0  0  0  0  0  0
  -13.2260  -40.9014  -12.0664 C   0  0  0  0  0  0  0  0  0  0  0  0
  -13.4868  -40.7274  -10.7273 C   0  0  0  0  0  0  0  0  0  0  0  0
  -14.3983  -41.5726  -10.1197 C   0  0  0  0  0  0  0  0  0  0  0  0
  -15.0262  -42.5820  -10.8899 C   0  0  0  0  0  0  0  0  0  0  0  0
  -14.7919  -42.7859  -12.2244 C   0  0  0  0  0  0  0  0  0  0  0  0
  -13.8869  -41.9312  -12.7885 C   0  0  0  0  0  0  0  0  0  0  0  0
  -14.8865  -41.6182   -8.7270 C   0  0  0  0  0  0  0  0  0  0  0  0
  -14.9352  -42.8660   -8.2657 O   0  0  0  0  0  0  0  0  0  0  0  0
  -15.2973  -40.6223   -7.8252 N   0  0  0  0  0  0  0  0  0  0  0  0
  -15.8603  -39.3107   -8.0730 C   0  0  1  0  0  0  0  0  0  0  0  0
  -16.3476  -39.1139   -9.4612 C   0  0  0  0  0  0  0  0  0  0  0  0
  -17.0156  -39.2185   -7.0387 C   0  0  2  0  0  0  0  0  0  0  0  0
  -17.6039  -40.4750   -7.0742 O   0  0  0  0  0  0  0  0  0  0  0  0
  -17.9850  -38.1597   -7.2696 C   0  0  0  0  0  0  0  0  0  0  0  0
  -19.1191  -38.1887   -6.4779 N   0  0  0  0  0  0  0  0  0  0  0  0
  -20.4101  -38.5343   -6.8506 C   0  0  0  0  0  0  0  0  0  0  0  0
  -21.4969  -37.7051   -6.2928 C   0  0  0  0  0  0  0  0  0  0  0  0
  -21.7716  -37.0961   -7.5100 O   0  0  0  0  0  0  0  0  0  0  0  0
  -20.9548  -37.9802   -8.1388 C   0  0  0  0  0  0  0  0  0  0  0  0
  -20.6603  -39.9993   -6.6864 C   0  0  0  0  0  0  0  0  0  0  0  0
  -20.9904  -40.6328   -5.5276 C   0  0  0  0  0  0  0  0  0  0  0  0
  -21.2323  -42.0058   -5.4710 C   0  0  0  0  0  0  0  0  0  0  0  0
  -21.1280  -42.7192   -6.6344 C   0  0  0  0  0  0  0  0  0  0  0  0
  -20.7936  -42.0929   -7.8172 C   0  0  0  0  0  0  0  0  0  0  0  0
  -20.5579  -40.7460   -7.8636 C   0  0  0  0  0  0  0  0  0  0  0  0
  -21.5875  -42.6825   -4.2056 C   0  0  0  0  0  0  0  0  0  0  0  0
  -23.0061  -42.4004   -3.7943 C   0  0  0  0  0  0  0  0  0  0  0  0
  -20.6228  -42.3860   -3.0925 C   0  0  0  0  0  0  0  0  0  0  0  0
  -21.5157  -44.1929   -4.4533 C   0  0  0  0  0  0  0  0  0  0  0  0
  2  1  1  1
  2  3  1  0
  3  4  1  0
  4  5  1  0
  5  6  1  0
  6  7  1  0
  7  8  1  0
  8  9  1  0
  9 10  1  0
 10 11  1  0
 11 12  1  0
 12 13  2  0
 13 14  1  0
 14 15  2  0
 15 16  1  0
 13 17  1  0
 17 18  2  0
 17 19  1  0
 19 20  1  0
 20 21  1  6
 20 22  1  0
 22 23  1  6
 22 24  1  0
 24 25  1  0
 25 26  1  0
 26 27  1  0
 27 28  1  0
 28 29  1  0
 26 30  1  0
 30 31  2  0
 31 32  1  0
 32 33  2  0
 33 34  1  0
 34 35  2  0
 32 36  1  0
 36 37  1  0
 36 38  1  0
 36 39  1  0
 16 11  2  0
 21  2  1  0
 29 26  1  0
 35 30  1  0
M  END
$$$$
