
     RDKit          3D

 39 42  0  0  0  0  0  0  0  0999 V2000
  -13.9530  -36.8376  -10.2228 C   0  0  0  0  0  0  0  0  0  0  0  0
  -14.1173  -38.3056  -10.5461 C   0  0  2  0  0  0  0  0  0  0  0  0
  -13.8531  -38.5429  -12.0273 C   0  0  0  0  0  0  0  0  0  0  0  0
  -12.6292  -37.8950  -12.5322 C   0  0  0  0  0  0  0  0  0  0  0  0
  -11.3291  -38.3462  -11.9593 C   0  0  0  0  0  0  0  0  0  0  0  0
  -10.4769  -39.1419  -12.8838 C   0  0  0  0  0  0  0  0  0  0  0  0
   -9.5294  -40.1221  -12.3989 C   0  0  0  0  0  0  0  0  0  0  0  0
   -9.6396  -40.7333  -11.0574 C   0  0  0  0  0  0  0  0  0  0  0  0
  -10.2767  -42.1388  -11.1275 C   0  0  0  0  0  0  0  0  0  0  0  0
  -11.5460  -42.0552  -11.8334 N   0  0  0  0  0  0  0  0  0  0  0  0
  -12.9022  -42.1534  -11.3918 C   0  0  0  0  0  0  0  0  0  0  0  0
  -13.5335  -41.6864  -10.2627 C   0  0  0  0  0  0  0  0  0  0  0  0
  -14.8913  -41.9151  -10.1263 C   0  0  0  0  0  0  0  0  0  0  0  0
  -15.5802  -42.6182  -11.1447 C   0  0  0  0  0  0  0  0  0  0  0  0
  -14.9861  -43.0985  -12.2821 C   0  0  0  0  0  0  0  0  0  0  0  0
  -13.6454  -42.8521  -12.3808 C   0  0  0  0  0  0  0  0  0  0  0  0
  -15.8282  -41.5270   -9.0532 C   0  0  0  0  0  0  0  0  0  0  0  0
  -16.6428  -42.5285   -8.7284 O   0  0  0  0  0  0  0  0  0  0  0  0
  -16.0159  -40.3353   -8.3333 N   0  0  0  0  0  0  0  0  0  0  0  0
  -15.7349  -38.9636   -8.7051 C   0  0  1  0  0  0  0  0  0  0  0  0
  -15.4972  -38.7670  -10.1571 C   0  0  0  0  0  0  0  0  0  0  0  0
  -16.9960  -38.1979   -8.2192 C   0  0  2  0  0  0  0  0  0  0  0  0
  -16.6567  -37.7576   -6.9475 O   0  0  0  0  0  0  0  0  0  0  0  0
  -18.2339  -38.9608   -8.2159 C   0  0  0  0  0  0  0  0  0  0  0  0
  -19.3312  -38.3389   -7.6475 N   0  0  0  0  0  0  0  0  0  0  0  0
  -20.6667  -38.6983   -7.7586 C   0  0  0  0  0  0  0  0  0  0  0  0
  -21.6554  -37.6348   -7.4915 C   0  0  0  0  0  0  0  0  0  0  0  0
  -22.0221  -37.5234   -8.8261 O   0  0  0  0  0  0  0  0  0  0  0  0
  -21.3113  -38.6434   -9.1168 C   0  0  0  0  0  0  0  0  0  0  0  0
  -20.9638  -39.9614   -7.0156 C   0  0  0  0  0  0  0  0  0  0  0  0
  -21.4494  -40.0518   -5.7471 C   0  0  0  0  0  0  0  0  0  0  0  0
  -21.7229  -41.2773   -5.1388 C   0  0  0  0  0  0  0  0  0  0  0  0
  -21.4865  -42.4144   -5.8630 C   0  0  0  0  0  0  0  0  0  0  0  0
  -20.9937  -42.3407   -7.1494 C   0  0  0  0  0  0  0  0  0  0  0  0
  -20.7282  -41.1345   -7.7381 C   0  0  0  0  0  0  0  0  0  0  0  0
  -22.2477  -41.3623   -3.7595 C   0  0  0  0  0  0  0  0  0  0  0  0
  -22.7550  -42.7397   -3.4330 C   0  0  0  0  0  0  0  0  0  0  0  0
  -23.2786  -40.3111   -3.4597 C   0  0  0  0  0  0  0  0  0  0  0  0
  -21.0773  -41.1096   -2.8033 C   0  0  0  0  0  0  0  0  0  0  0  0
  2  1  1  6
  2  3  1  0
  3  4  1  0
  4  5  1  0
  5  6  1  0
  6  7  1  0
  7  8  1  0
  8  9  1  0
  9 10  1  0
 10 11  1  0
 11 12  1  0
 12 13  2  0
 13 14  1  0
 14 15  2  0
 15 16  1  0
 13 17  1  0
 17 18  2  0
 17 19  1  0
 19 20  1  0
 20 21  1  6
 20 22  1  0
 22 23  1  1
 22 24  1  0
 24 25  1  0
 25 26  1  0
 26 27  1  0
 27 28  1  0
 28 29  1  0
 26 30  1  0
 30 31  2  0
 31 32  1  0
 32 33  2  0
 33 34  1  0
 34 35  2  0
 32 36  1  0
 36 37  1  0
 36 38  1  0
 36 39  1  0
 16 11  2  0
 21  2  1  0
 29 26  1  0
 35 30  1  0
M  END
$$$$
