
     RDKit          3D

 39 42  0  0  0  0  0  0  0  0999 V2000
  -19.4732  -38.1477   -6.6409 C   0  0  0  0  0  0  0  0  0  0  0  0
  -19.6457  -39.6482   -6.7116 C   0  0  2  0  0  0  0  0  0  0  0  0
  -20.3480  -40.1490   -5.4562 C   0  0  0  0  0  0  0  0  0  0  0  0
  -21.5426  -39.3703   -5.0830 C   0  0  0  0  0  0  0  0  0  0  0  0
  -22.6860  -39.3694   -6.0394 C   0  0  0  0  0  0  0  0  0  0  0  0
  -23.8797  -40.1376   -5.5931 C   0  0  0  0  0  0  0  0  0  0  0  0
  -24.7996  -40.7381   -6.5347 C   0  0  0  0  0  0  0  0  0  0  0  0
  -24.4194  -41.0370   -7.9317 C   0  0  0  0  0  0  0  0  0  0  0  0
  -24.0634  -42.5291   -8.1135 C   0  0  0  0  0  0  0  0  0  0  0  0
  -23.0459  -42.9011   -7.1427 N   0  0  0  0  0  0  0  0  0  0  0  0
  -21.6548  -43.2042   -7.2733 C   0  0  0  0  0  0  0  0  0  0  0  0
  -20.6663  -42.6501   -8.0525 C   0  0  0  0  0  0  0  0  0  0  0  0
  -19.3801  -43.1465   -7.9344 C   0  0  0  0  0  0  0  0  0  0  0  0
  -19.1264  -44.2013   -7.0238 C   0  0  0  0  0  0  0  0  0  0  0  0
  -20.0844  -44.7783   -6.2320 C   0  0  0  0  0  0  0  0  0  0  0  0
  -21.3409  -44.2606   -6.3765 C   0  0  0  0  0  0  0  0  0  0  0  0
  -18.1307  -42.7498   -8.6138 C   0  0  0  0  0  0  0  0  0  0  0  0
  -17.4311  -43.8104   -9.0109 O   0  0  0  0  0  0  0  0  0  0  0  0
  -17.5590  -41.5011   -8.9102 N   0  0  0  0  0  0  0  0  0  0  0  0
  -17.7069  -40.2230   -8.2444 C   0  0  1  0  0  0  0  0  0  0  0  0
  -18.3057  -40.3125   -6.8891 C   0  0  0  0  0  0  0  0  0  0  0  0
  -16.2536  -39.6766   -8.1969 C   0  0  2  0  0  0  0  0  0  0  0  0
  -16.3325  -38.5751   -7.3563 O   0  0  0  0  0  0  0  0  0  0  0  0
  -15.6663  -39.3358   -9.4826 C   0  0  0  0  0  0  0  0  0  0  0  0
  -14.6519  -40.1644   -9.9279 N   0  0  0  0  0  0  0  0  0  0  0  0
  -13.3422  -39.8210  -10.2310 C   0  0  0  0  0  0  0  0  0  0  0  0
  -12.3496  -40.0108   -9.1545 C   0  0  0  0  0  0  0  0  0  0  0  0
  -11.7531  -41.0972   -9.7804 O   0  0  0  0  0  0  0  0  0  0  0  0
  -12.4719  -40.8464  -10.9049 C   0  0  0  0  0  0  0  0  0  0  0  0
  -13.2565  -38.4683  -10.8623 C   0  0  0  0  0  0  0  0  0  0  0  0
  -13.3550  -38.1949  -12.1922 C   0  0  0  0  0  0  0  0  0  0  0  0
  -13.2890  -36.8944  -12.6931 C   0  0  0  0  0  0  0  0  0  0  0  0
  -13.1190  -35.8745  -11.7963 C   0  0  0  0  0  0  0  0  0  0  0  0
  -13.0166  -36.1341  -10.4453 C   0  0  0  0  0  0  0  0  0  0  0  0
  -13.0822  -37.4127   -9.9628 C   0  0  0  0  0  0  0  0  0  0  0  0
  -13.3947  -36.6108  -14.1401 C   0  0  0  0  0  0  0  0  0  0  0  0
  -14.2419  -35.3996  -14.4169 C   0  0  0  0  0  0  0  0  0  0  0  0
  -13.8555  -37.7982  -14.9371 C   0  0  0  0  0  0  0  0  0  0  0  0
  -11.9907  -36.2645  -14.6469 C   0  0  0  0  0  0  0  0  0  0  0  0
  2  1  1  1
  2  3  1  0
  3  4  1  0
  4  5  1  0
  5  6  1  0
  6  7  1  0
  7  8  1  0
  8  9  1  0
  9 10  1  0
 10 11  1  0
 11 12  1  0
 12 13  2  0
 13 14  1  0
 14 15  2  0
 15 16  1  0
 13 17  1  0
 17 18  2  0
 17 19  1  0
 19 20  1  0
 20 21  1  1
 20 22  1  0
 22 23  1  1
 22 24  1  0
 24 25  1  0
 25 26  1  0
 26 27  1  0
 27 28  1  0
 28 29  1  0
 26 30  1  0
 30 31  2  0
 31 32  1  0
 32 33  2  0
 33 34  1  0
 34 35  2  0
 32 36  1  0
 36 37  1  0
 36 38  1  0
 36 39  1  0
 16 11  2  0
 21  2  1  0
 29 26  1  0
 35 30  1  0
M  END
$$$$
