
     RDKit          3D

 39 42  0  0  0  0  0  0  0  0999 V2000
  -20.0856  -41.6770  -10.3716 C   0  0  0  0  0  0  0  0  0  0  0  0
  -20.1161  -40.8379   -9.1141 C   0  0  2  0  0  0  0  0  0  0  0  0
  -21.3869  -39.9987   -9.0816 C   0  0  0  0  0  0  0  0  0  0  0  0
  -22.6144  -40.7521   -9.3950 C   0  0  0  0  0  0  0  0  0  0  0  0
  -23.0017  -41.8490   -8.4628 C   0  0  0  0  0  0  0  0  0  0  0  0
  -24.1982  -41.5682   -7.6239 C   0  0  0  0  0  0  0  0  0  0  0  0
  -24.3829  -42.1787   -6.3252 C   0  0  0  0  0  0  0  0  0  0  0  0
  -23.2572  -42.7339   -5.5443 C   0  0  0  0  0  0  0  0  0  0  0  0
  -22.7921  -41.7516   -4.4466 C   0  0  0  0  0  0  0  0  0  0  0  0
  -22.4988  -40.4612   -5.0509 N   0  0  0  0  0  0  0  0  0  0  0  0
  -21.2717  -39.7721   -5.3028 C   0  0  0  0  0  0  0  0  0  0  0  0
  -20.0422  -40.2176   -5.7287 C   0  0  0  0  0  0  0  0  0  0  0  0
  -19.0346  -39.2879   -5.9155 C   0  0  0  0  0  0  0  0  0  0  0  0
  -19.2997  -37.9197   -5.6622 C   0  0  0  0  0  0  0  0  0  0  0  0
  -20.5103  -37.4388   -5.2371 C   0  0  0  0  0  0  0  0  0  0  0  0
  -21.4796  -38.3868   -5.0653 C   0  0  0  0  0  0  0  0  0  0  0  0
  -17.6415  -39.4595   -6.3737 C   0  0  0  0  0  0  0  0  0  0  0  0
  -16.7921  -38.7483   -5.6357 O   0  0  0  0  0  0  0  0  0  0  0  0
  -17.0623  -40.2091   -7.4112 N   0  0  0  0  0  0  0  0  0  0  0  0
  -17.6246  -40.6548   -8.6698 C   0  0  1  0  0  0  0  0  0  0  0  0
  -18.8871  -39.9701   -9.0446 C   0  0  0  0  0  0  0  0  0  0  0  0
  -16.4884  -40.3661   -9.6889 C   0  0  2  0  0  0  0  0  0  0  0  0
  -16.1620  -41.6160  -10.1963 O   0  0  0  0  0  0  0  0  0  0  0  0
  -15.3242  -39.6769   -9.1560 C   0  0  0  0  0  0  0  0  0  0  0  0
  -14.1183  -39.9483   -9.7772 N   0  0  0  0  0  0  0  0  0  0  0  0
  -13.1627  -39.0429  -10.2156 C   0  0  0  0  0  0  0  0  0  0  0  0
  -12.1904  -38.5772   -9.2068 C   0  0  0  0  0  0  0  0  0  0  0  0
  -11.1404  -39.2948   -9.7641 O   0  0  0  0  0  0  0  0  0  0  0  0
  -11.9073  -39.5786  -10.8482 C   0  0  0  0  0  0  0  0  0  0  0  0
  -13.7776  -37.9184  -10.9858 C   0  0  0  0  0  0  0  0  0  0  0  0
  -13.2819  -36.6555  -11.0970 C   0  0  0  0  0  0  0  0  0  0  0  0
  -13.9109  -35.6720  -11.8611 C   0  0  0  0  0  0  0  0  0  0  0  0
  -15.0654  -36.0131  -12.5123 C   0  0  0  0  0  0  0  0  0  0  0  0
  -15.5819  -37.2882  -12.4096 C   0  0  0  0  0  0  0  0  0  0  0  0
  -14.9585  -38.2465  -11.6579 C   0  0  0  0  0  0  0  0  0  0  0  0
  -13.3637  -34.3032  -11.9718 C   0  0  0  0  0  0  0  0  0  0  0  0
  -12.1165  -34.2607  -12.8108 C   0  0  0  0  0  0  0  0  0  0  0  0
  -13.1510  -33.6482  -10.6364 C   0  0  0  0  0  0  0  0  0  0  0  0
  -14.3977  -33.4510  -12.7151 C   0  0  0  0  0  0  0  0  0  0  0  0
  2  1  1  6
  2  3  1  0
  3  4  1  0
  4  5  1  0
  5  6  1  0
  6  7  1  0
  7  8  1  0
  8  9  1  0
  9 10  1  0
 10 11  1  0
 11 12  1  0
 12 13  2  0
 13 14  1  0
 14 15  2  0
 15 16  1  0
 13 17  1  0
 17 18  2  0
 17 19  1  0
 19 20  1  0
 20 21  1  6
 20 22  1  0
 22 23  1  1
 22 24  1  0
 24 25  1  0
 25 26  1  0
 26 27  1  0
 27 28  1  0
 28 29  1  0
 26 30  1  0
 30 31  2  0
 31 32  1  0
 32 33  2  0
 33 34  1  0
 34 35  2  0
 32 36  1  0
 36 37  1  0
 36 38  1  0
 36 39  1  0
 16 11  2  0
 21  2  1  0
 29 26  1  0
 35 30  1  0
M  END
$$$$
