
     RDKit          3D

 39 42  0  0  0  0  0  0  0  0999 V2000
  -13.4076  -36.8756  -10.0457 C   0  0  0  0  0  0  0  0  0  0  0  0
  -13.6756  -38.2392  -10.6418 C   0  0  2  0  0  0  0  0  0  0  0  0
  -13.9012  -38.1135  -12.1429 C   0  0  0  0  0  0  0  0  0  0  0  0
  -12.8996  -37.2825  -12.8351 C   0  0  0  0  0  0  0  0  0  0  0  0
  -11.4873  -37.7591  -12.8221 C   0  0  0  0  0  0  0  0  0  0  0  0
  -10.9809  -38.2608  -14.1282 C   0  0  0  0  0  0  0  0  0  0  0  0
   -9.9339  -39.2560  -14.2122 C   0  0  0  0  0  0  0  0  0  0  0  0
   -9.6123  -40.1630  -13.0900 C   0  0  0  0  0  0  0  0  0  0  0  0
  -10.2468  -41.5570  -13.2907 C   0  0  0  0  0  0  0  0  0  0  0  0
  -11.6748  -41.4050  -13.5232 N   0  0  0  0  0  0  0  0  0  0  0  0
  -12.8186  -41.6971  -12.7168 C   0  0  0  0  0  0  0  0  0  0  0  0
  -13.0521  -41.5455  -11.3700 C   0  0  0  0  0  0  0  0  0  0  0  0
  -14.2960  -41.8949  -10.8749 C   0  0  0  0  0  0  0  0  0  0  0  0
  -15.2791  -42.3946  -11.7638 C   0  0  0  0  0  0  0  0  0  0  0  0
  -15.0835  -42.5597  -13.1099 C   0  0  0  0  0  0  0  0  0  0  0  0
  -13.8436  -42.2030  -13.5607 C   0  0  0  0  0  0  0  0  0  0  0  0
  -14.8375  -41.8289   -9.5029 C   0  0  0  0  0  0  0  0  0  0  0  0
  -15.5112  -42.9332   -9.1886 O   0  0  0  0  0  0  0  0  0  0  0  0
  -14.7775  -40.8489   -8.4980 N   0  0  0  0  0  0  0  0  0  0  0  0
  -14.6222  -39.4122   -8.6006 C   0  0  1  0  0  0  0  0  0  0  0  0
  -14.8609  -38.8737   -9.9630 C   0  0  0  0  0  0  0  0  0  0  0  0
  -15.6566  -38.8687   -7.5771 C   0  0  2  0  0  0  0  0  0  0  0  0
  -14.8875  -38.4916   -6.4850 O   0  0  0  0  0  0  0  0  0  0  0  0
  -16.7155  -39.7915   -7.2011 C   0  0  0  0  0  0  0  0  0  0  0  0
  -18.0083  -39.3097   -7.3034 N   0  0  0  0  0  0  0  0  0  0  0  0
  -19.1343  -39.9808   -7.7580 C   0  0  0  0  0  0  0  0  0  0  0  0
  -18.9161  -40.9786   -8.8242 C   0  0  0  0  0  0  0  0  0  0  0  0
  -19.1460  -42.0563   -7.9794 O   0  0  0  0  0  0  0  0  0  0  0  0
  -19.5843  -41.2082   -7.0137 C   0  0  0  0  0  0  0  0  0  0  0  0
  -20.2520  -39.0380   -8.0707 C   0  0  0  0  0  0  0  0  0  0  0  0
  -20.1938  -37.9776   -8.9223 C   0  0  0  0  0  0  0  0  0  0  0  0
  -21.2978  -37.1627   -9.1752 C   0  0  0  0  0  0  0  0  0  0  0  0
  -22.4691  -37.4600   -8.5327 C   0  0  0  0  0  0  0  0  0  0  0  0
  -22.5451  -38.5305   -7.6659 C   0  0  0  0  0  0  0  0  0  0  0  0
  -21.4574  -39.3244   -7.4236 C   0  0  0  0  0  0  0  0  0  0  0  0
  -21.2210  -36.0123  -10.1003 C   0  0  0  0  0  0  0  0  0  0  0  0
  -22.4992  -35.2205  -10.1227 C   0  0  0  0  0  0  0  0  0  0  0  0
  -20.7918  -36.4033  -11.4862 C   0  0  0  0  0  0  0  0  0  0  0  0
  -20.1473  -35.0593   -9.5647 C   0  0  0  0  0  0  0  0  0  0  0  0
  2  1  1  1
  2  3  1  0
  3  4  1  0
  4  5  1  0
  5  6  1  0
  6  7  1  0
  7  8  1  0
  8  9  1  0
  9 10  1  0
 10 11  1  0
 11 12  1  0
 12 13  2  0
 13 14  1  0
 14 15  2  0
 15 16  1  0
 13 17  1  0
 17 18  2  0
 17 19  1  0
 19 20  1  0
 20 21  1  6
 20 22  1  0
 22 23  1  1
 22 24  1  0
 24 25  1  0
 25 26  1  0
 26 27  1  0
 27 28  1  0
 28 29  1  0
 26 30  1  0
 30 31  2  0
 31 32  1  0
 32 33  2  0
 33 34  1  0
 34 35  2  0
 32 36  1  0
 36 37  1  0
 36 38  1  0
 36 39  1  0
 16 11  2  0
 21  2  1  0
 29 26  1  0
 35 30  1  0
M  END
$$$$
