
     RDKit          3D

 39 42  0  0  0  0  0  0  0  0999 V2000
  -18.8514  -39.0597   -4.9729 C   0  0  0  0  0  0  0  0  0  0  0  0
  -19.2907  -40.0442   -6.0331 C   0  0  2  0  0  0  0  0  0  0  0  0
  -20.1648  -41.1237   -5.4079 C   0  0  0  0  0  0  0  0  0  0  0  0
  -21.2205  -40.6045   -4.5199 C   0  0  0  0  0  0  0  0  0  0  0  0
  -22.2697  -39.7422   -5.1344 C   0  0  0  0  0  0  0  0  0  0  0  0
  -23.6140  -40.3703   -5.2458 C   0  0  0  0  0  0  0  0  0  0  0  0
  -24.5557  -39.9860   -6.2749 C   0  0  0  0  0  0  0  0  0  0  0  0
  -24.1337  -39.3180   -7.5243 C   0  0  0  0  0  0  0  0  0  0  0  0
  -24.0452  -40.3186   -8.6979 C   0  0  0  0  0  0  0  0  0  0  0  0
  -23.1886  -41.4307   -8.3163 N   0  0  0  0  0  0  0  0  0  0  0  0
  -21.8710  -41.8137   -8.7179 C   0  0  0  0  0  0  0  0  0  0  0  0
  -20.7422  -41.0732   -8.9802 C   0  0  0  0  0  0  0  0  0  0  0  0
  -19.5815  -41.7432   -9.3244 C   0  0  0  0  0  0  0  0  0  0  0  0
  -19.5945  -43.1577   -9.3964 C   0  0  0  0  0  0  0  0  0  0  0  0
  -20.6984  -43.9287   -9.1428 C   0  0  0  0  0  0  0  0  0  0  0  0
  -21.8242  -43.2311   -8.8054 C   0  0  0  0  0  0  0  0  0  0  0  0
  -18.2334  -41.2303   -9.6398 C   0  0  0  0  0  0  0  0  0  0  0  0
  -17.7128  -41.8419  -10.7015 O   0  0  0  0  0  0  0  0  0  0  0  0
  -17.4216  -40.2486   -9.0474 N   0  0  0  0  0  0  0  0  0  0  0  0
  -17.3816  -39.7674   -7.6815 C   0  0  1  0  0  0  0  0  0  0  0  0
  -18.0861  -40.6422   -6.7110 C   0  0  0  0  0  0  0  0  0  0  0  0
  -15.8603  -39.6805   -7.3797 C   0  0  2  0  0  0  0  0  0  0  0  0
  -15.7851  -38.8943   -6.2384 O   0  0  0  0  0  0  0  0  0  0  0  0
  -15.0337  -39.1556   -8.4545 C   0  0  0  0  0  0  0  0  0  0  0  0
  -14.5807  -40.0779   -9.3808 N   0  0  0  0  0  0  0  0  0  0  0  0
  -13.5671  -39.9201  -10.3150 C   0  0  0  0  0  0  0  0  0  0  0  0
  -12.2065  -39.7208   -9.7776 C   0  0  0  0  0  0  0  0  0  0  0  0
  -11.7770  -40.9831  -10.1649 O   0  0  0  0  0  0  0  0  0  0  0  0
  -12.9182  -41.1536  -10.8811 C   0  0  0  0  0  0  0  0  0  0  0  0
  -13.9282  -38.9120  -11.3587 C   0  0  0  0  0  0  0  0  0  0  0  0
  -13.2798  -37.7399  -11.6016 C   0  0  0  0  0  0  0  0  0  0  0  0
  -13.6717  -36.8674  -12.6174 C   0  0  0  0  0  0  0  0  0  0  0  0
  -14.7486  -37.2244  -13.3830 C   0  0  0  0  0  0  0  0  0  0  0  0
  -15.4174  -38.4082  -13.1498 C   0  0  0  0  0  0  0  0  0  0  0  0
  -15.0263  -39.2579  -12.1513 C   0  0  0  0  0  0  0  0  0  0  0  0
  -12.9608  -35.5961  -12.8694 C   0  0  0  0  0  0  0  0  0  0  0  0
  -12.9332  -34.7144  -11.6515 C   0  0  0  0  0  0  0  0  0  0  0  0
  -13.4858  -34.8600  -14.0695 C   0  0  0  0  0  0  0  0  0  0  0  0
  -11.4981  -35.9368  -13.1730 C   0  0  0  0  0  0  0  0  0  0  0  0
  2  1  1  1
  2  3  1  0
  3  4  1  0
  4  5  1  0
  5  6  1  0
  6  7  1  0
  7  8  1  0
  8  9  1  0
  9 10  1  0
 10 11  1  0
 11 12  1  0
 12 13  2  0
 13 14  1  0
 14 15  2  0
 15 16  1  0
 13 17  1  0
 17 18  2  0
 17 19  1  0
 19 20  1  0
 20 21  1  1
 20 22  1  0
 22 23  1  1
 22 24  1  0
 24 25  1  0
 25 26  1  0
 26 27  1  0
 27 28  1  0
 28 29  1  0
 26 30  1  0
 30 31  2  0
 31 32  1  0
 32 33  2  0
 33 34  1  0
 34 35  2  0
 32 36  1  0
 36 37  1  0
 36 38  1  0
 36 39  1  0
 16 11  2  0
 21  2  1  0
 29 26  1  0
 35 30  1  0
M  END
$$$$
