
     RDKit          3D

 39 42  0  0  0  0  0  0  0  0999 V2000
  -13.8850  -36.2523  -10.0258 C   0  0  0  0  0  0  0  0  0  0  0  0
  -13.9535  -37.6233  -10.6598 C   0  0  2  0  0  0  0  0  0  0  0  0
  -14.0056  -37.4912  -12.1763 C   0  0  0  0  0  0  0  0  0  0  0  0
  -13.0071  -36.5616  -12.7346 C   0  0  0  0  0  0  0  0  0  0  0  0
  -11.5693  -36.9101  -12.5519 C   0  0  0  0  0  0  0  0  0  0  0  0
  -10.8645  -37.3409  -13.7896 C   0  0  0  0  0  0  0  0  0  0  0  0
   -9.7289  -38.2368  -13.7515 C   0  0  0  0  0  0  0  0  0  0  0  0
   -9.4649  -39.1315  -12.6047 C   0  0  0  0  0  0  0  0  0  0  0  0
   -9.9408  -40.5729  -12.8914 C   0  0  0  0  0  0  0  0  0  0  0  0
  -11.3379  -40.5450  -13.2963 N   0  0  0  0  0  0  0  0  0  0  0  0
  -12.5398  -40.9527  -12.6382 C   0  0  0  0  0  0  0  0  0  0  0  0
  -12.9480  -40.8470  -11.3292 C   0  0  0  0  0  0  0  0  0  0  0  0
  -14.2059  -41.3151  -10.9928 C   0  0  0  0  0  0  0  0  0  0  0  0
  -15.0242  -41.8845  -11.9990 C   0  0  0  0  0  0  0  0  0  0  0  0
  -14.6523  -42.0071  -13.3120 C   0  0  0  0  0  0  0  0  0  0  0  0
  -13.4045  -41.5329  -13.6049 C   0  0  0  0  0  0  0  0  0  0  0  0
  -14.9138  -41.3225   -9.6971 C   0  0  0  0  0  0  0  0  0  0  0  0
  -15.5174  -42.4881   -9.4755 O   0  0  0  0  0  0  0  0  0  0  0  0
  -15.0657  -40.3595   -8.6856 N   0  0  0  0  0  0  0  0  0  0  0  0
  -15.0304  -38.9130   -8.7583 C   0  0  1  0  0  0  0  0  0  0  0  0
  -15.1498  -38.3734  -10.1359 C   0  0  0  0  0  0  0  0  0  0  0  0
  -16.2266  -38.4828   -7.8656 C   0  0  2  0  0  0  0  0  0  0  0  0
  -15.6314  -38.0240   -6.6987 O   0  0  0  0  0  0  0  0  0  0  0  0
  -17.2168  -39.5137   -7.5994 C   0  0  0  0  0  0  0  0  0  0  0  0
  -18.2698  -39.5923   -8.4932 N   0  0  0  0  0  0  0  0  0  0  0  0
  -19.2804  -40.5418   -8.5381 C   0  0  0  0  0  0  0  0  0  0  0  0
  -19.5657  -41.1325   -9.8609 C   0  0  0  0  0  0  0  0  0  0  0  0
  -19.0166  -42.3625   -9.5242 O   0  0  0  0  0  0  0  0  0  0  0  0
  -18.9323  -41.9718   -8.2264 C   0  0  0  0  0  0  0  0  0  0  0  0
  -20.5151  -40.0698   -7.8392 C   0  0  0  0  0  0  0  0  0  0  0  0
  -20.9178  -40.4293   -6.5895 C   0  0  0  0  0  0  0  0  0  0  0  0
  -22.0757  -39.9175   -6.0030 C   0  0  0  0  0  0  0  0  0  0  0  0
  -22.8160  -39.0243   -6.7292 C   0  0  0  0  0  0  0  0  0  0  0  0
  -22.4226  -38.6499   -7.9974 C   0  0  0  0  0  0  0  0  0  0  0  0
  -21.2856  -39.1569   -8.5649 C   0  0  0  0  0  0  0  0  0  0  0  0
  -22.5038  -40.3179   -4.6459 C   0  0  0  0  0  0  0  0  0  0  0  0
  -22.2628  -41.7795   -4.3869 C   0  0  0  0  0  0  0  0  0  0  0  0
  -23.9240  -39.9324   -4.3425 C   0  0  0  0  0  0  0  0  0  0  0  0
  -21.6243  -39.5643   -3.6427 C   0  0  0  0  0  0  0  0  0  0  0  0
  2  1  1  1
  2  3  1  0
  3  4  1  0
  4  5  1  0
  5  6  1  0
  6  7  1  0
  7  8  1  0
  8  9  1  0
  9 10  1  0
 10 11  1  0
 11 12  1  0
 12 13  2  0
 13 14  1  0
 14 15  2  0
 15 16  1  0
 13 17  1  0
 17 18  2  0
 17 19  1  0
 19 20  1  0
 20 21  1  6
 20 22  1  0
 22 23  1  1
 22 24  1  0
 24 25  1  0
 25 26  1  0
 26 27  1  0
 27 28  1  0
 28 29  1  0
 26 30  1  0
 30 31  2  0
 31 32  1  0
 32 33  2  0
 33 34  1  0
 34 35  2  0
 32 36  1  0
 36 37  1  0
 36 38  1  0
 36 39  1  0
 16 11  2  0
 21  2  1  0
 29 26  1  0
 35 30  1  0
M  END
$$$$
