
     RDKit          3D

 39 42  0  0  0  0  0  0  0  0999 V2000
  -13.9972  -37.0540  -10.1981 C   0  0  0  0  0  0  0  0  0  0  0  0
  -14.6319  -38.3425  -10.6708 C   0  0  2  0  0  0  0  0  0  0  0  0
  -14.7765  -38.3233  -12.1871 C   0  0  0  0  0  0  0  0  0  0  0  0
  -13.5623  -37.8914  -12.9025 C   0  0  0  0  0  0  0  0  0  0  0  0
  -12.3473  -38.7443  -12.7666 C   0  0  0  0  0  0  0  0  0  0  0  0
  -11.9760  -39.5090  -13.9879 C   0  0  0  0  0  0  0  0  0  0  0  0
  -11.2577  -40.7630  -13.9170 C   0  0  0  0  0  0  0  0  0  0  0  0
  -11.2370  -41.5952  -12.6955 C   0  0  0  0  0  0  0  0  0  0  0  0
  -12.2406  -42.7656  -12.7920 C   0  0  0  0  0  0  0  0  0  0  0  0
  -13.5587  -42.2415  -13.1151 N   0  0  0  0  0  0  0  0  0  0  0  0
  -14.7568  -42.1072  -12.3467 C   0  0  0  0  0  0  0  0  0  0  0  0
  -14.9685  -41.7490  -11.0359 C   0  0  0  0  0  0  0  0  0  0  0  0
  -16.2717  -41.6750  -10.5767 C   0  0  0  0  0  0  0  0  0  0  0  0
  -17.3357  -41.9699  -11.4638 C   0  0  0  0  0  0  0  0  0  0  0  0
  -17.1642  -42.3302  -12.7747 C   0  0  0  0  0  0  0  0  0  0  0  0
  -15.8639  -42.3912  -13.1908 C   0  0  0  0  0  0  0  0  0  0  0  0
  -16.8034  -41.3083   -9.2490 C   0  0  0  0  0  0  0  0  0  0  0  0
  -17.7734  -42.1350   -8.8645 O   0  0  0  0  0  0  0  0  0  0  0  0
  -16.4879  -40.2815   -8.3435 N   0  0  0  0  0  0  0  0  0  0  0  0
  -15.9235  -38.9680   -8.5783 C   0  0  1  0  0  0  0  0  0  0  0  0
  -15.9652  -38.5366   -9.9979 C   0  0  0  0  0  0  0  0  0  0  0  0
  -16.7818  -38.0449   -7.6704 C   0  0  2  0  0  0  0  0  0  0  0  0
  -15.8541  -37.2148   -7.0568 O   0  0  0  0  0  0  0  0  0  0  0  0
  -17.6262  -38.7236   -6.7006 C   0  0  0  0  0  0  0  0  0  0  0  0
  -18.4823  -39.6857   -7.2060 N   0  0  0  0  0  0  0  0  0  0  0  0
  -19.5934  -39.4973   -8.0153 C   0  0  0  0  0  0  0  0  0  0  0  0
  -19.5481  -38.3398   -8.9307 C   0  0  0  0  0  0  0  0  0  0  0  0
  -19.3972  -39.1320  -10.0610 O   0  0  0  0  0  0  0  0  0  0  0  0
  -19.6606  -40.2402   -9.3217 C   0  0  0  0  0  0  0  0  0  0  0  0
  -20.8659  -39.5642   -7.2329 C   0  0  0  0  0  0  0  0  0  0  0  0
  -21.0398  -40.1843   -6.0336 C   0  0  0  0  0  0  0  0  0  0  0  0
  -22.2611  -40.1745   -5.3591 C   0  0  0  0  0  0  0  0  0  0  0  0
  -23.3061  -39.5116   -5.9438 C   0  0  0  0  0  0  0  0  0  0  0  0
  -23.1472  -38.8786   -7.1592 C   0  0  0  0  0  0  0  0  0  0  0  0
  -21.9459  -38.8934   -7.8138 C   0  0  0  0  0  0  0  0  0  0  0  0
  -22.4379  -40.8541   -4.0583 C   0  0  0  0  0  0  0  0  0  0  0  0
  -21.8990  -42.2579   -4.0777 C   0  0  0  0  0  0  0  0  0  0  0  0
  -23.8571  -40.8164   -3.5664 C   0  0  0  0  0  0  0  0  0  0  0  0
  -21.5982  -40.0974   -3.0237 C   0  0  0  0  0  0  0  0  0  0  0  0
  2  1  1  1
  2  3  1  0
  3  4  1  0
  4  5  1  0
  5  6  1  0
  6  7  1  0
  7  8  1  0
  8  9  1  0
  9 10  1  0
 10 11  1  0
 11 12  1  0
 12 13  2  0
 13 14  1  0
 14 15  2  0
 15 16  1  0
 13 17  1  0
 17 18  2  0
 17 19  1  0
 19 20  1  0
 20 21  1  6
 20 22  1  0
 22 23  1  1
 22 24  1  0
 24 25  1  0
 25 26  1  0
 26 27  1  0
 27 28  1  0
 28 29  1  0
 26 30  1  0
 30 31  2  0
 31 32  1  0
 32 33  2  0
 33 34  1  0
 34 35  2  0
 32 36  1  0
 36 37  1  0
 36 38  1  0
 36 39  1  0
 16 11  2  0
 21  2  1  0
 29 26  1  0
 35 30  1  0
M  END
$$$$
