
     RDKit          3D

 39 42  0  0  0  0  0  0  0  0999 V2000
  -19.6947  -37.7894   -6.9007 C   0  0  0  0  0  0  0  0  0  0  0  0
  -19.4796  -39.2801   -6.7674 C   0  0  2  0  0  0  0  0  0  0  0  0
  -20.1727  -39.7937   -5.5120 C   0  0  0  0  0  0  0  0  0  0  0  0
  -21.5577  -39.3158   -5.3504 C   0  0  0  0  0  0  0  0  0  0  0  0
  -22.5496  -39.7283   -6.3839 C   0  0  0  0  0  0  0  0  0  0  0  0
  -23.5574  -40.7230   -5.9267 C   0  0  0  0  0  0  0  0  0  0  0  0
  -24.1864  -41.6512   -6.8412 C   0  0  0  0  0  0  0  0  0  0  0  0
  -23.5883  -42.0047   -8.1460 C   0  0  0  0  0  0  0  0  0  0  0  0
  -22.8543  -43.3624   -8.0818 C   0  0  0  0  0  0  0  0  0  0  0  0
  -21.8928  -43.3367   -6.9904 N   0  0  0  0  0  0  0  0  0  0  0  0
  -20.4645  -43.2786   -6.9660 C   0  0  0  0  0  0  0  0  0  0  0  0
  -19.5632  -42.5823   -7.7368 C   0  0  0  0  0  0  0  0  0  0  0  0
  -18.2159  -42.7072   -7.4474 C   0  0  0  0  0  0  0  0  0  0  0  0
  -17.8126  -43.5424   -6.3769 C   0  0  0  0  0  0  0  0  0  0  0  0
  -18.6802  -44.2512   -5.5880 C   0  0  0  0  0  0  0  0  0  0  0  0
  -20.0013  -44.1012   -5.9041 C   0  0  0  0  0  0  0  0  0  0  0  0
  -17.0358  -42.0814   -8.0765 C   0  0  0  0  0  0  0  0  0  0  0  0
  -16.0541  -42.9617   -8.2599 O   0  0  0  0  0  0  0  0  0  0  0  0
  -16.7627  -40.7714   -8.5041 N   0  0  0  0  0  0  0  0  0  0  0  0
  -17.2982  -39.5064   -8.0436 C   0  0  1  0  0  0  0  0  0  0  0  0
  -18.0053  -39.5870   -6.7411 C   0  0  0  0  0  0  0  0  0  0  0  0
  -16.0413  -38.5972   -7.9613 C   0  0  2  0  0  0  0  0  0  0  0  0
  -16.2943  -37.5849   -8.8764 O   0  0  0  0  0  0  0  0  0  0  0  0
  -14.7702  -39.2547   -8.2185 C   0  0  0  0  0  0  0  0  0  0  0  0
  -14.8176  -40.3786   -9.0236 N   0  0  0  0  0  0  0  0  0  0  0  0
  -14.3111  -40.5299  -10.3064 C   0  0  0  0  0  0  0  0  0  0  0  0
  -12.9163  -41.0033  -10.4082 C   0  0  0  0  0  0  0  0  0  0  0  0
  -13.2868  -42.2583  -10.8726 O   0  0  0  0  0  0  0  0  0  0  0  0
  -14.5648  -41.8259  -11.0271 C   0  0  0  0  0  0  0  0  0  0  0  0
  -14.5738  -39.3244  -11.1511 C   0  0  0  0  0  0  0  0  0  0  0  0
  -13.7880  -38.2160  -11.2356 C   0  0  0  0  0  0  0  0  0  0  0  0
  -14.0980  -37.1441  -12.0731 C   0  0  0  0  0  0  0  0  0  0  0  0
  -15.2372  -37.2333  -12.8264 C   0  0  0  0  0  0  0  0  0  0  0  0
  -16.0452  -38.3490  -12.7523 C   0  0  0  0  0  0  0  0  0  0  0  0
  -15.7336  -39.3957  -11.9280 C   0  0  0  0  0  0  0  0  0  0  0  0
  -13.2376  -35.9447  -12.1539 C   0  0  0  0  0  0  0  0  0  0  0  0
  -13.9723  -34.7608  -12.7194 C   0  0  0  0  0  0  0  0  0  0  0  0
  -11.9510  -36.1957  -12.8883 C   0  0  0  0  0  0  0  0  0  0  0  0
  -12.8531  -35.5545  -10.7228 C   0  0  0  0  0  0  0  0  0  0  0  0
  2  1  1  1
  2  3  1  0
  3  4  1  0
  4  5  1  0
  5  6  1  0
  6  7  1  0
  7  8  1  0
  8  9  1  0
  9 10  1  0
 10 11  1  0
 11 12  1  0
 12 13  2  0
 13 14  1  0
 14 15  2  0
 15 16  1  0
 13 17  1  0
 17 18  2  0
 17 19  1  0
 19 20  1  0
 20 21  1  1
 20 22  1  0
 22 23  1  6
 22 24  1  0
 24 25  1  0
 25 26  1  0
 26 27  1  0
 27 28  1  0
 28 29  1  0
 26 30  1  0
 30 31  2  0
 31 32  1  0
 32 33  2  0
 33 34  1  0
 34 35  2  0
 32 36  1  0
 36 37  1  0
 36 38  1  0
 36 39  1  0
 16 11  2  0
 21  2  1  0
 29 26  1  0
 35 30  1  0
M  END
$$$$
