
     RDKit          3D

 39 42  0  0  0  0  0  0  0  0999 V2000
  -19.1904  -39.0840   -5.8872 C   0  0  0  0  0  0  0  0  0  0  0  0
  -19.3184  -40.0207   -7.0672 C   0  0  2  0  0  0  0  0  0  0  0  0
  -20.3190  -41.1238   -6.7472 C   0  0  0  0  0  0  0  0  0  0  0  0
  -21.5798  -40.6405   -6.1561 C   0  0  0  0  0  0  0  0  0  0  0  0
  -22.4320  -39.7498   -6.9941 C   0  0  0  0  0  0  0  0  0  0  0  0
  -23.6907  -40.3688   -7.4906 C   0  0  0  0  0  0  0  0  0  0  0  0
  -24.3232  -39.9380   -8.7186 C   0  0  0  0  0  0  0  0  0  0  0  0
  -23.5858  -39.2181   -9.7784 C   0  0  0  0  0  0  0  0  0  0  0  0
  -23.1749  -40.1674  -10.9256 C   0  0  0  0  0  0  0  0  0  0  0  0
  -22.4430  -41.2973  -10.3742 N   0  0  0  0  0  0  0  0  0  0  0  0
  -21.0626  -41.6662  -10.4210 C   0  0  0  0  0  0  0  0  0  0  0  0
  -19.9116  -40.9180  -10.3374 C   0  0  0  0  0  0  0  0  0  0  0  0
  -18.6951  -41.5757  -10.3834 C   0  0  0  0  0  0  0  0  0  0  0  0
  -18.6754  -42.9858  -10.5157 C   0  0  0  0  0  0  0  0  0  0  0  0
  -19.7998  -43.7640  -10.6023 C   0  0  0  0  0  0  0  0  0  0  0  0
  -20.9810  -43.0786  -10.5522 C   0  0  0  0  0  0  0  0  0  0  0  0
  -17.3165  -41.0534  -10.3012 C   0  0  0  0  0  0  0  0  0  0  0  0
  -16.5233  -41.6201  -11.2077 O   0  0  0  0  0  0  0  0  0  0  0  0
  -16.7036  -40.1003   -9.4708 N   0  0  0  0  0  0  0  0  0  0  0  0
  -17.0379  -39.6784   -8.1258 C   0  0  1  0  0  0  0  0  0  0  0  0
  -17.9702  -40.5922   -7.4193 C   0  0  0  0  0  0  0  0  0  0  0  0
  -15.6554  -39.6087   -7.4211 C   0  0  2  0  0  0  0  0  0  0  0  0
  -15.7690  -38.5284   -6.5571 O   0  0  0  0  0  0  0  0  0  0  0  0
  -14.5053  -39.4796   -8.3014 C   0  0  0  0  0  0  0  0  0  0  0  0
  -13.9622  -40.6620   -8.7714 N   0  0  0  0  0  0  0  0  0  0  0  0
  -12.9005  -40.8220   -9.6501 C   0  0  0  0  0  0  0  0  0  0  0  0
  -11.5483  -40.6595   -9.0799 C   0  0  0  0  0  0  0  0  0  0  0  0
  -11.2582  -42.0148   -9.1629 O   0  0  0  0  0  0  0  0  0  0  0  0
  -12.3820  -42.2121   -9.8993 C   0  0  0  0  0  0  0  0  0  0  0  0
  -13.0960  -40.0320  -10.9044 C   0  0  0  0  0  0  0  0  0  0  0  0
  -12.9554  -38.6843  -11.0349 C   0  0  0  0  0  0  0  0  0  0  0  0
  -13.1328  -38.0306  -12.2547 C   0  0  0  0  0  0  0  0  0  0  0  0
  -13.4592  -38.7925  -13.3439 C   0  0  0  0  0  0  0  0  0  0  0  0
  -13.6063  -40.1594  -13.2289 C   0  0  0  0  0  0  0  0  0  0  0  0
  -13.4306  -40.7922  -12.0286 C   0  0  0  0  0  0  0  0  0  0  0  0
  -12.9798  -36.5659  -12.3829 C   0  0  0  0  0  0  0  0  0  0  0  0
  -14.2976  -35.8794  -12.6141 C   0  0  0  0  0  0  0  0  0  0  0  0
  -11.9651  -36.1718  -13.4186 C   0  0  0  0  0  0  0  0  0  0  0  0
  -12.4613  -36.0362  -11.0418 C   0  0  0  0  0  0  0  0  0  0  0  0
  2  1  1  1
  2  3  1  0
  3  4  1  0
  4  5  1  0
  5  6  1  0
  6  7  1  0
  7  8  1  0
  8  9  1  0
  9 10  1  0
 10 11  1  0
 11 12  1  0
 12 13  2  0
 13 14  1  0
 14 15  2  0
 15 16  1  0
 13 17  1  0
 17 18  2  0
 17 19  1  0
 19 20  1  0
 20 21  1  1
 20 22  1  0
 22 23  1  1
 22 24  1  0
 24 25  1  0
 25 26  1  0
 26 27  1  0
 27 28  1  0
 28 29  1  0
 26 30  1  0
 30 31  2  0
 31 32  1  0
 32 33  2  0
 33 34  1  0
 34 35  2  0
 32 36  1  0
 36 37  1  0
 36 38  1  0
 36 39  1  0
 16 11  2  0
 21  2  1  0
 29 26  1  0
 35 30  1  0
M  END
$$$$
