
     RDKit          3D

 39 42  0  0  0  0  0  0  0  0999 V2000
  -18.4771  -42.0765   -5.5801 C   0  0  0  0  0  0  0  0  0  0  0  0
  -18.9535  -41.3907   -6.8406 C   0  0  2  0  0  0  0  0  0  0  0  0
  -20.0758  -42.1994   -7.4783 C   0  0  0  0  0  0  0  0  0  0  0  0
  -21.1215  -42.6287   -6.5322 C   0  0  0  0  0  0  0  0  0  0  0  0
  -21.9170  -41.5621   -5.8603 C   0  0  0  0  0  0  0  0  0  0  0  0
  -23.3284  -41.4481   -6.3175 C   0  0  0  0  0  0  0  0  0  0  0  0
  -24.0543  -40.1978   -6.2566 C   0  0  0  0  0  0  0  0  0  0  0  0
  -23.3711  -38.8888   -6.1847 C   0  0  0  0  0  0  0  0  0  0  0  0
  -23.3214  -38.2008   -7.5668 C   0  0  0  0  0  0  0  0  0  0  0  0
  -22.7303  -39.1117   -8.5350 N   0  0  0  0  0  0  0  0  0  0  0  0
  -21.4637  -39.1236   -9.1979 C   0  0  0  0  0  0  0  0  0  0  0  0
  -20.1972  -38.8164   -8.7583 C   0  0  0  0  0  0  0  0  0  0  0  0
  -19.1421  -38.9577   -9.6421 C   0  0  0  0  0  0  0  0  0  0  0  0
  -19.3991  -39.4085  -10.9601 C   0  0  0  0  0  0  0  0  0  0  0  0
  -20.6456  -39.7234  -11.4338 C   0  0  0  0  0  0  0  0  0  0  0  0
  -21.6609  -39.5721  -10.5316 C   0  0  0  0  0  0  0  0  0  0  0  0
  -17.6958  -38.7252   -9.4572 C   0  0  0  0  0  0  0  0  0  0  0  0
  -17.1681  -38.0747  -10.4918 O   0  0  0  0  0  0  0  0  0  0  0  0
  -16.7995  -39.0524   -8.4261 N   0  0  0  0  0  0  0  0  0  0  0  0
  -16.8400  -40.1297   -7.4582 C   0  0  1  0  0  0  0  0  0  0  0  0
  -17.8020  -41.2089   -7.7943 C   0  0  0  0  0  0  0  0  0  0  0  0
  -15.3757  -40.6480   -7.4417 C   0  0  2  0  0  0  0  0  0  0  0  0
  -14.6417  -39.5758   -6.9540 O   0  0  0  0  0  0  0  0  0  0  0  0
  -14.8607  -41.1219   -8.7162 C   0  0  0  0  0  0  0  0  0  0  0  0
  -13.9595  -40.2902   -9.3564 N   0  0  0  0  0  0  0  0  0  0  0  0
  -13.1968  -40.5657  -10.4822 C   0  0  0  0  0  0  0  0  0  0  0  0
  -11.9762  -41.3678  -10.2661 C   0  0  0  0  0  0  0  0  0  0  0  0
  -12.5059  -42.4947  -10.8803 O   0  0  0  0  0  0  0  0  0  0  0  0
  -13.5621  -41.7619  -11.3180 C   0  0  0  0  0  0  0  0  0  0  0  0
  -12.9421  -39.3354  -11.2930 C   0  0  0  0  0  0  0  0  0  0  0  0
  -13.4319  -38.0908  -11.0396 C   0  0  0  0  0  0  0  0  0  0  0  0
  -13.1204  -36.9899  -11.8382 C   0  0  0  0  0  0  0  0  0  0  0  0
  -12.2913  -37.1936  -12.9080 C   0  0  0  0  0  0  0  0  0  0  0  0
  -11.7869  -38.4486  -13.1795 C   0  0  0  0  0  0  0  0  0  0  0  0
  -12.0978  -39.5227  -12.3910 C   0  0  0  0  0  0  0  0  0  0  0  0
  -13.6609  -35.6437  -11.5539 C   0  0  0  0  0  0  0  0  0  0  0  0
  -12.5718  -34.6153  -11.4215 C   0  0  0  0  0  0  0  0  0  0  0  0
  -14.5848  -35.6221  -10.3692 C   0  0  0  0  0  0  0  0  0  0  0  0
  -14.4960  -35.2158  -12.7653 C   0  0  0  0  0  0  0  0  0  0  0  0
  2  1  1  1
  2  3  1  0
  3  4  1  0
  4  5  1  0
  5  6  1  0
  6  7  1  0
  7  8  1  0
  8  9  1  0
  9 10  1  0
 10 11  1  0
 11 12  1  0
 12 13  2  0
 13 14  1  0
 14 15  2  0
 15 16  1  0
 13 17  1  0
 17 18  2  0
 17 19  1  0
 19 20  1  0
 20 21  1  6
 20 22  1  0
 22 23  1  6
 22 24  1  0
 24 25  1  0
 25 26  1  0
 26 27  1  0
 27 28  1  0
 28 29  1  0
 26 30  1  0
 30 31  2  0
 31 32  1  0
 32 33  2  0
 33 34  1  0
 34 35  2  0
 32 36  1  0
 36 37  1  0
 36 38  1  0
 36 39  1  0
 16 11  2  0
 21  2  1  0
 29 26  1  0
 35 30  1  0
M  END
$$$$
