
     RDKit          3D

 39 42  0  0  0  0  0  0  0  0999 V2000
  -19.1095  -37.7898   -5.6355 C   0  0  0  0  0  0  0  0  0  0  0  0
  -19.3049  -39.2486   -5.9819 C   0  0  2  0  0  0  0  0  0  0  0  0
  -19.8215  -40.0057   -4.7653 C   0  0  0  0  0  0  0  0  0  0  0  0
  -20.9413  -39.3420   -4.0737 C   0  0  0  0  0  0  0  0  0  0  0  0
  -22.2119  -39.1719   -4.8345 C   0  0  0  0  0  0  0  0  0  0  0  0
  -23.3350  -40.0380   -4.3844 C   0  0  0  0  0  0  0  0  0  0  0  0
  -24.3882  -40.4553   -5.2847 C   0  0  0  0  0  0  0  0  0  0  0  0
  -24.2186  -40.4594   -6.7532 C   0  0  0  0  0  0  0  0  0  0  0  0
  -23.9073  -41.8771   -7.2820 C   0  0  0  0  0  0  0  0  0  0  0  0
  -22.7627  -42.4162   -6.5640 N   0  0  0  0  0  0  0  0  0  0  0  0
  -21.4085  -42.6587   -6.9530 C   0  0  0  0  0  0  0  0  0  0  0  0
  -20.5389  -41.9394   -7.7390 C   0  0  0  0  0  0  0  0  0  0  0  0
  -19.2541  -42.4234   -7.9110 C   0  0  0  0  0  0  0  0  0  0  0  0
  -18.8805  -43.6345   -7.2785 C   0  0  0  0  0  0  0  0  0  0  0  0
  -19.7182  -44.3781   -6.4894 C   0  0  0  0  0  0  0  0  0  0  0  0
  -20.9774  -43.8673   -6.3430 C   0  0  0  0  0  0  0  0  0  0  0  0
  -18.1134  -41.8732   -8.6699 C   0  0  0  0  0  0  0  0  0  0  0  0
  -17.4893  -42.8180   -9.3698 O   0  0  0  0  0  0  0  0  0  0  0  0
  -17.5790  -40.5792   -8.7876 N   0  0  0  0  0  0  0  0  0  0  0  0
  -17.6159  -39.4643   -7.8632 C   0  0  1  0  0  0  0  0  0  0  0  0
  -18.0116  -39.8365   -6.4819 C   0  0  0  0  0  0  0  0  0  0  0  0
  -16.1660  -38.9095   -7.9173 C   0  0  2  0  0  0  0  0  0  0  0  0
  -16.2877  -37.5986   -7.4781 O   0  0  0  0  0  0  0  0  0  0  0  0
  -15.5092  -38.9882   -9.2121 C   0  0  0  0  0  0  0  0  0  0  0  0
  -14.5132  -39.9407   -9.3331 N   0  0  0  0  0  0  0  0  0  0  0  0
  -13.2549  -39.7909   -9.8981 C   0  0  0  0  0  0  0  0  0  0  0  0
  -12.1634  -39.4181   -8.9764 C   0  0  0  0  0  0  0  0  0  0  0  0
  -11.5677  -40.6707   -9.0401 O   0  0  0  0  0  0  0  0  0  0  0  0
  -12.3943  -41.0139  -10.0614 C   0  0  0  0  0  0  0  0  0  0  0  0
  -13.2958  -38.9312  -11.1209 C   0  0  0  0  0  0  0  0  0  0  0  0
  -13.4914  -37.5843  -11.1496 C   0  0  0  0  0  0  0  0  0  0  0  0
  -13.4887  -36.8555  -12.3393 C   0  0  0  0  0  0  0  0  0  0  0  0
  -13.2799  -37.5411  -13.5054 C   0  0  0  0  0  0  0  0  0  0  0  0
  -13.0809  -38.9061  -13.4942 C   0  0  0  0  0  0  0  0  0  0  0  0
  -13.0853  -39.6130  -12.3228 C   0  0  0  0  0  0  0  0  0  0  0  0
  -13.7049  -35.3933  -12.3574 C   0  0  0  0  0  0  0  0  0  0  0  0
  -12.5129  -34.6537  -12.8991 C   0  0  0  0  0  0  0  0  0  0  0  0
  -14.1310  -34.8481  -11.0237 C   0  0  0  0  0  0  0  0  0  0  0  0
  -14.8529  -35.1079  -13.3314 C   0  0  0  0  0  0  0  0  0  0  0  0
  2  1  1  1
  2  3  1  0
  3  4  1  0
  4  5  1  0
  5  6  1  0
  6  7  1  0
  7  8  1  0
  8  9  1  0
  9 10  1  0
 10 11  1  0
 11 12  1  0
 12 13  2  0
 13 14  1  0
 14 15  2  0
 15 16  1  0
 13 17  1  0
 17 18  2  0
 17 19  1  0
 19 20  1  0
 20 21  1  1
 20 22  1  0
 22 23  1  6
 22 24  1  0
 24 25  1  0
 25 26  1  0
 26 27  1  0
 27 28  1  0
 28 29  1  0
 26 30  1  0
 30 31  2  0
 31 32  1  0
 32 33  2  0
 33 34  1  0
 34 35  2  0
 32 36  1  0
 36 37  1  0
 36 38  1  0
 36 39  1  0
 16 11  2  0
 21  2  1  0
 29 26  1  0
 35 30  1  0
M  END
$$$$
