
     RDKit          3D

 39 42  0  0  0  0  0  0  0  0999 V2000
  -19.7327  -38.3702   -5.8443 C   0  0  0  0  0  0  0  0  0  0  0  0
  -19.7950  -39.8078   -6.3089 C   0  0  2  0  0  0  0  0  0  0  0  0
  -20.4810  -40.6647   -5.2528 C   0  0  0  0  0  0  0  0  0  0  0  0
  -21.7350  -40.0905   -4.7328 C   0  0  0  0  0  0  0  0  0  0  0  0
  -22.8587  -39.9138   -5.6962 C   0  0  0  0  0  0  0  0  0  0  0  0
  -24.0013  -40.8482   -5.5079 C   0  0  0  0  0  0  0  0  0  0  0  0
  -24.8589  -41.2398   -6.6055 C   0  0  0  0  0  0  0  0  0  0  0  0
  -24.4339  -41.1369   -8.0176 C   0  0  0  0  0  0  0  0  0  0  0  0
  -23.9679  -42.5028   -8.5684 C   0  0  0  0  0  0  0  0  0  0  0  0
  -22.9431  -43.0489   -7.6921 N   0  0  0  0  0  0  0  0  0  0  0  0
  -21.5317  -43.2157   -7.8474 C   0  0  0  0  0  0  0  0  0  0  0  0
  -20.5724  -42.4136   -8.4199 C   0  0  0  0  0  0  0  0  0  0  0  0
  -19.2560  -42.8386   -8.3892 C   0  0  0  0  0  0  0  0  0  0  0  0
  -18.9426  -44.0762   -7.7758 C   0  0  0  0  0  0  0  0  0  0  0  0
  -19.8699  -44.9017   -7.1960 C   0  0  0  0  0  0  0  0  0  0  0  0
  -21.1578  -44.4473   -7.2456 C   0  0  0  0  0  0  0  0  0  0  0  0
  -18.0269  -42.1971   -8.8970 C   0  0  0  0  0  0  0  0  0  0  0  0
  -17.2457  -43.0687   -9.5311 O   0  0  0  0  0  0  0  0  0  0  0  0
  -17.5419  -40.8799   -8.8378 N   0  0  0  0  0  0  0  0  0  0  0  0
  -17.7934  -39.8332   -7.8682 C   0  0  1  0  0  0  0  0  0  0  0  0
  -18.4076  -40.3135   -6.6052 C   0  0  0  0  0  0  0  0  0  0  0  0
  -16.3844  -39.2248   -7.6285 C   0  0  2  0  0  0  0  0  0  0  0  0
  -16.6407  -37.9145   -7.2493 O   0  0  0  0  0  0  0  0  0  0  0  0
  -15.4684  -39.2932   -8.7556 C   0  0  0  0  0  0  0  0  0  0  0  0
  -14.1943  -39.7551   -8.4781 N   0  0  0  0  0  0  0  0  0  0  0  0
  -13.1930  -40.0869   -9.3793 C   0  0  0  0  0  0  0  0  0  0  0  0
  -11.8389  -40.2638   -8.8180 C   0  0  0  0  0  0  0  0  0  0  0  0
  -11.8548  -41.6413   -8.9920 O   0  0  0  0  0  0  0  0  0  0  0  0
  -12.9936  -41.5375   -9.7245 C   0  0  0  0  0  0  0  0  0  0  0  0
  -13.2080  -39.1924  -10.5775 C   0  0  0  0  0  0  0  0  0  0  0  0
  -13.1525  -37.8323  -10.5652 C   0  0  0  0  0  0  0  0  0  0  0  0
  -13.1455  -37.0756  -11.7374 C   0  0  0  0  0  0  0  0  0  0  0  0
  -13.1969  -37.7469  -12.9290 C   0  0  0  0  0  0  0  0  0  0  0  0
  -13.2544  -39.1250  -12.9593 C   0  0  0  0  0  0  0  0  0  0  0  0
  -13.2610  -39.8592  -11.8048 C   0  0  0  0  0  0  0  0  0  0  0  0
  -13.0875  -35.5987  -11.7106 C   0  0  0  0  0  0  0  0  0  0  0  0
  -14.2212  -35.0041  -10.9216 C   0  0  0  0  0  0  0  0  0  0  0  0
  -12.9941  -34.9917  -13.0819 C   0  0  0  0  0  0  0  0  0  0  0  0
  -11.8070  -35.1998  -10.9697 C   0  0  0  0  0  0  0  0  0  0  0  0
  2  1  1  1
  2  3  1  0
  3  4  1  0
  4  5  1  0
  5  6  1  0
  6  7  1  0
  7  8  1  0
  8  9  1  0
  9 10  1  0
 10 11  1  0
 11 12  1  0
 12 13  2  0
 13 14  1  0
 14 15  2  0
 15 16  1  0
 13 17  1  0
 17 18  2  0
 17 19  1  0
 19 20  1  0
 20 21  1  1
 20 22  1  0
 22 23  1  6
 22 24  1  0
 24 25  1  0
 25 26  1  0
 26 27  1  0
 27 28  1  0
 28 29  1  0
 26 30  1  0
 30 31  2  0
 31 32  1  0
 32 33  2  0
 33 34  1  0
 34 35  2  0
 32 36  1  0
 36 37  1  0
 36 38  1  0
 36 39  1  0
 16 11  2  0
 21  2  1  0
 29 26  1  0
 35 30  1  0
M  END
$$$$
