
     RDKit          3D

 39 42  0  0  0  0  0  0  0  0999 V2000
  -19.2271  -38.8492   -5.2290 C   0  0  0  0  0  0  0  0  0  0  0  0
  -19.4064  -40.0965   -6.0646 C   0  0  2  0  0  0  0  0  0  0  0  0
  -20.0529  -41.1927   -5.2276 C   0  0  0  0  0  0  0  0  0  0  0  0
  -21.2275  -40.7479   -4.4561 C   0  0  0  0  0  0  0  0  0  0  0  0
  -22.4127  -40.2733   -5.2255 C   0  0  0  0  0  0  0  0  0  0  0  0
  -23.5871  -41.1867   -5.1981 C   0  0  0  0  0  0  0  0  0  0  0  0
  -24.5500  -41.2283   -6.2773 C   0  0  0  0  0  0  0  0  0  0  0  0
  -24.2337  -40.7476   -7.6390 C   0  0  0  0  0  0  0  0  0  0  0  0
  -23.8902  -41.9188   -8.5860 C   0  0  0  0  0  0  0  0  0  0  0  0
  -22.8309  -42.7203   -7.9927 N   0  0  0  0  0  0  0  0  0  0  0  0
  -21.4480  -42.8813   -8.3173 C   0  0  0  0  0  0  0  0  0  0  0  0
  -20.4940  -41.9816   -8.7320 C   0  0  0  0  0  0  0  0  0  0  0  0
  -19.2052  -42.4394   -8.9411 C   0  0  0  0  0  0  0  0  0  0  0  0
  -18.9135  -43.8084   -8.7248 C   0  0  0  0  0  0  0  0  0  0  0  0
  -19.8363  -44.7336   -8.3126 C   0  0  0  0  0  0  0  0  0  0  0  0
  -21.0967  -44.2432   -8.1159 C   0  0  0  0  0  0  0  0  0  0  0  0
  -17.9865  -41.7204   -9.3631 C   0  0  0  0  0  0  0  0  0  0  0  0
  -17.3082  -42.4039  -10.2823 O   0  0  0  0  0  0  0  0  0  0  0  0
  -17.4255  -40.4884   -8.9876 N   0  0  0  0  0  0  0  0  0  0  0  0
  -17.5400  -39.7475   -7.7479 C   0  0  1  0  0  0  0  0  0  0  0  0
  -18.0775  -40.5425   -6.6155 C   0  0  0  0  0  0  0  0  0  0  0  0
  -16.0846  -39.2751   -7.4803 C   0  0  2  0  0  0  0  0  0  0  0  0
  -16.2365  -38.1088   -6.7434 O   0  0  0  0  0  0  0  0  0  0  0  0
  -15.2628  -39.0664   -8.6614 C   0  0  0  0  0  0  0  0  0  0  0  0
  -14.4153  -40.1044   -9.0052 N   0  0  0  0  0  0  0  0  0  0  0  0
  -13.4682  -40.1312  -10.0187 C   0  0  0  0  0  0  0  0  0  0  0  0
  -12.0543  -40.0970   -9.5947 C   0  0  0  0  0  0  0  0  0  0  0  0
  -11.8304  -41.4230   -9.9404 O   0  0  0  0  0  0  0  0  0  0  0  0
  -13.0380  -41.4673  -10.5601 C   0  0  0  0  0  0  0  0  0  0  0  0
  -13.7736  -39.1322  -11.0885 C   0  0  0  0  0  0  0  0  0  0  0  0
  -13.4475  -37.8107  -11.0701 C   0  0  0  0  0  0  0  0  0  0  0  0
  -13.7505  -36.9530  -12.1280 C   0  0  0  0  0  0  0  0  0  0  0  0
  -14.3985  -37.4822  -13.2112 C   0  0  0  0  0  0  0  0  0  0  0  0
  -14.7370  -38.8191  -13.2457 C   0  0  0  0  0  0  0  0  0  0  0  0
  -14.4361  -39.6531  -12.2036 C   0  0  0  0  0  0  0  0  0  0  0  0
  -13.3932  -35.5189  -12.0949 C   0  0  0  0  0  0  0  0  0  0  0  0
  -11.9151  -35.3101  -11.9140 C   0  0  0  0  0  0  0  0  0  0  0  0
  -14.1865  -34.7414  -11.0830 C   0  0  0  0  0  0  0  0  0  0  0  0
  -13.7354  -34.9256  -13.4656 C   0  0  0  0  0  0  0  0  0  0  0  0
  2  1  1  1
  2  3  1  0
  3  4  1  0
  4  5  1  0
  5  6  1  0
  6  7  1  0
  7  8  1  0
  8  9  1  0
  9 10  1  0
 10 11  1  0
 11 12  1  0
 12 13  2  0
 13 14  1  0
 14 15  2  0
 15 16  1  0
 13 17  1  0
 17 18  2  0
 17 19  1  0
 19 20  1  0
 20 21  1  1
 20 22  1  0
 22 23  1  6
 22 24  1  0
 24 25  1  0
 25 26  1  0
 26 27  1  0
 27 28  1  0
 28 29  1  0
 26 30  1  0
 30 31  2  0
 31 32  1  0
 32 33  2  0
 33 34  1  0
 34 35  2  0
 32 36  1  0
 36 37  1  0
 36 38  1  0
 36 39  1  0
 16 11  2  0
 21  2  1  0
 29 26  1  0
 35 30  1  0
M  END
$$$$
