
     RDKit          3D

 39 42  0  0  0  0  0  0  0  0999 V2000
  -19.4849  -37.2931   -7.4615 C   0  0  0  0  0  0  0  0  0  0  0  0
  -19.7385  -38.7648   -7.2247 C   0  0  2  0  0  0  0  0  0  0  0  0
  -20.9577  -38.9432   -6.3291 C   0  0  0  0  0  0  0  0  0  0  0  0
  -22.1233  -38.1349   -6.7304 C   0  0  0  0  0  0  0  0  0  0  0  0
  -22.7315  -38.4233   -8.0605 C   0  0  0  0  0  0  0  0  0  0  0  0
  -24.0619  -39.0879   -8.0127 C   0  0  0  0  0  0  0  0  0  0  0  0
  -24.5284  -39.9449   -9.0811 C   0  0  0  0  0  0  0  0  0  0  0  0
  -23.6055  -40.5858  -10.0417 C   0  0  0  0  0  0  0  0  0  0  0  0
  -23.3365  -42.0606   -9.6688 C   0  0  0  0  0  0  0  0  0  0  0  0
  -22.8794  -42.1308   -8.2895 N   0  0  0  0  0  0  0  0  0  0  0  0
  -21.6022  -42.4100   -7.7109 C   0  0  0  0  0  0  0  0  0  0  0  0
  -20.3292  -42.0459   -8.0829 C   0  0  0  0  0  0  0  0  0  0  0  0
  -19.2711  -42.4500   -7.2883 C   0  0  0  0  0  0  0  0  0  0  0  0
  -19.5314  -43.2205   -6.1286 C   0  0  0  0  0  0  0  0  0  0  0  0
  -20.7844  -43.6024   -5.7265 C   0  0  0  0  0  0  0  0  0  0  0  0
  -21.8027  -43.1835   -6.5361 C   0  0  0  0  0  0  0  0  0  0  0  0
  -17.8214  -42.2028   -7.4196 C   0  0  0  0  0  0  0  0  0  0  0  0
  -17.1134  -43.3060   -7.1876 O   0  0  0  0  0  0  0  0  0  0  0  0
  -17.0720  -41.0565   -7.7331 N   0  0  0  0  0  0  0  0  0  0  0  0
  -17.3837  -39.6545   -7.5438 C   0  0  1  0  0  0  0  0  0  0  0  0
  -18.5180  -39.4065   -6.6190 C   0  0  0  0  0  0  0  0  0  0  0  0
  -16.0547  -39.0656   -6.9960 C   0  0  2  0  0  0  0  0  0  0  0  0
  -16.0416  -37.7607   -7.4683 O   0  0  0  0  0  0  0  0  0  0  0  0
  -14.8471  -39.7871   -7.3638 C   0  0  0  0  0  0  0  0  0  0  0  0
  -14.3446  -39.5298   -8.6269 N   0  0  0  0  0  0  0  0  0  0  0  0
  -13.5025  -40.3278   -9.3877 C   0  0  0  0  0  0  0  0  0  0  0  0
  -12.4859  -39.6241  -10.1948 C   0  0  0  0  0  0  0  0  0  0  0  0
  -11.4356  -40.0364   -9.3857 O   0  0  0  0  0  0  0  0  0  0  0  0
  -12.2685  -40.8899   -8.7362 C   0  0  0  0  0  0  0  0  0  0  0  0
  -14.2656  -41.3418  -10.1785 C   0  0  0  0  0  0  0  0  0  0  0  0
  -14.1901  -42.6936  -10.0368 C   0  0  0  0  0  0  0  0  0  0  0  0
  -14.9612  -43.5681  -10.8032 C   0  0  0  0  0  0  0  0  0  0  0  0
  -15.8161  -43.0239  -11.7231 C   0  0  0  0  0  0  0  0  0  0  0  0
  -15.9044  -41.6561  -11.8800 C   0  0  0  0  0  0  0  0  0  0  0  0
  -15.1443  -40.8059  -11.1242 C   0  0  0  0  0  0  0  0  0  0  0  0
  -14.8680  -45.0345  -10.6416 C   0  0  0  0  0  0  0  0  0  0  0  0
  -13.4412  -45.5066  -10.5897 C   0  0  0  0  0  0  0  0  0  0  0  0
  -15.6596  -45.7884  -11.6724 C   0  0  0  0  0  0  0  0  0  0  0  0
  -15.4761  -45.3891   -9.2806 C   0  0  0  0  0  0  0  0  0  0  0  0
  2  1  1  1
  2  3  1  0
  3  4  1  0
  4  5  1  0
  5  6  1  0
  6  7  1  0
  7  8  1  0
  8  9  1  0
  9 10  1  0
 10 11  1  0
 11 12  1  0
 12 13  2  0
 13 14  1  0
 14 15  2  0
 15 16  1  0
 13 17  1  0
 17 18  2  0
 17 19  1  0
 19 20  1  0
 20 21  1  1
 20 22  1  0
 22 23  1  6
 22 24  1  0
 24 25  1  0
 25 26  1  0
 26 27  1  0
 27 28  1  0
 28 29  1  0
 26 30  1  0
 30 31  2  0
 31 32  1  0
 32 33  2  0
 33 34  1  0
 34 35  2  0
 32 36  1  0
 36 37  1  0
 36 38  1  0
 36 39  1  0
 16 11  2  0
 21  2  1  0
 29 26  1  0
 35 30  1  0
M  END
$$$$
