
     RDKit          3D

 39 42  0  0  0  0  0  0  0  0999 V2000
  -19.3218  -38.7282   -5.7165 C   0  0  0  0  0  0  0  0  0  0  0  0
  -19.5336  -39.8684   -6.6868 C   0  0  2  0  0  0  0  0  0  0  0  0
  -20.5145  -40.8743   -6.0985 C   0  0  0  0  0  0  0  0  0  0  0  0
  -21.7302  -40.2671   -5.5275 C   0  0  0  0  0  0  0  0  0  0  0  0
  -22.6339  -39.5360   -6.4609 C   0  0  0  0  0  0  0  0  0  0  0  0
  -23.9260  -40.2163   -6.7470 C   0  0  0  0  0  0  0  0  0  0  0  0
  -24.6388  -40.0141   -7.9898 C   0  0  0  0  0  0  0  0  0  0  0  0
  -23.9723  -39.5194   -9.2130 C   0  0  0  0  0  0  0  0  0  0  0  0
  -23.6443  -40.6748  -10.1845 C   0  0  0  0  0  0  0  0  0  0  0  0
  -22.8812  -41.6926   -9.4788 N   0  0  0  0  0  0  0  0  0  0  0  0
  -21.5086  -42.0869   -9.5460 C   0  0  0  0  0  0  0  0  0  0  0  0
  -20.3516  -41.3559   -9.6817 C   0  0  0  0  0  0  0  0  0  0  0  0
  -19.1437  -42.0309   -9.6827 C   0  0  0  0  0  0  0  0  0  0  0  0
  -19.1387  -43.4408   -9.5468 C   0  0  0  0  0  0  0  0  0  0  0  0
  -20.2696  -44.2023   -9.4101 C   0  0  0  0  0  0  0  0  0  0  0  0
  -21.4419  -43.4999   -9.4127 C   0  0  0  0  0  0  0  0  0  0  0  0
  -17.7606  -41.5257   -9.7921 C   0  0  0  0  0  0  0  0  0  0  0  0
  -17.0332  -42.2664  -10.6253 O   0  0  0  0  0  0  0  0  0  0  0  0
  -17.0888  -40.4436   -9.1994 N   0  0  0  0  0  0  0  0  0  0  0  0
  -17.3291  -39.7702   -7.9393 C   0  0  1  0  0  0  0  0  0  0  0  0
  -18.2148  -40.5186   -7.0127 C   0  0  0  0  0  0  0  0  0  0  0  0
  -15.9015  -39.5921   -7.3535 C   0  0  2  0  0  0  0  0  0  0  0  0
  -16.0357  -38.5540   -6.4421 O   0  0  0  0  0  0  0  0  0  0  0  0
  -14.8507  -39.3289   -8.3234 C   0  0  0  0  0  0  0  0  0  0  0  0
  -14.3303  -40.4341   -8.9727 N   0  0  0  0  0  0  0  0  0  0  0  0
  -13.7090  -40.4798  -10.2125 C   0  0  0  0  0  0  0  0  0  0  0  0
  -12.8176  -41.6314  -10.4562 C   0  0  0  0  0  0  0  0  0  0  0  0
  -13.6927  -42.2266  -11.3551 O   0  0  0  0  0  0  0  0  0  0  0  0
  -14.4531  -41.1015  -11.3626 C   0  0  0  0  0  0  0  0  0  0  0  0
  -13.0708  -39.1731  -10.5605 C   0  0  0  0  0  0  0  0  0  0  0  0
  -13.5762  -38.2319  -11.4042 C   0  0  0  0  0  0  0  0  0  0  0  0
  -12.9226  -37.0244  -11.6520 C   0  0  0  0  0  0  0  0  0  0  0  0
  -11.7331  -36.8014  -11.0127 C   0  0  0  0  0  0  0  0  0  0  0  0
  -11.2064  -37.7450  -10.1551 C   0  0  0  0  0  0  0  0  0  0  0  0
  -11.8542  -38.9266   -9.9180 C   0  0  0  0  0  0  0  0  0  0  0  0
  -13.4806  -36.0114  -12.5727 C   0  0  0  0  0  0  0  0  0  0  0  0
  -12.4118  -35.1260  -13.1517 C   0  0  0  0  0  0  0  0  0  0  0  0
  -14.5874  -35.2051  -11.9543 C   0  0  0  0  0  0  0  0  0  0  0  0
  -14.0966  -36.7566  -13.7614 C   0  0  0  0  0  0  0  0  0  0  0  0
  2  1  1  1
  2  3  1  0
  3  4  1  0
  4  5  1  0
  5  6  1  0
  6  7  1  0
  7  8  1  0
  8  9  1  0
  9 10  1  0
 10 11  1  0
 11 12  1  0
 12 13  2  0
 13 14  1  0
 14 15  2  0
 15 16  1  0
 13 17  1  0
 17 18  2  0
 17 19  1  0
 19 20  1  0
 20 21  1  1
 20 22  1  0
 22 23  1  1
 22 24  1  0
 24 25  1  0
 25 26  1  0
 26 27  1  0
 27 28  1  0
 28 29  1  0
 26 30  1  0
 30 31  2  0
 31 32  1  0
 32 33  2  0
 33 34  1  0
 34 35  2  0
 32 36  1  0
 36 37  1  0
 36 38  1  0
 36 39  1  0
 16 11  2  0
 21  2  1  0
 29 26  1  0
 35 30  1  0
M  END
$$$$
