
     RDKit          3D

 39 42  0  0  0  0  0  0  0  0999 V2000
  -15.7336  -35.8524   -9.8900 C   0  0  0  0  0  0  0  0  0  0  0  0
  -15.0530  -37.0692  -10.4751 C   0  0  2  0  0  0  0  0  0  0  0  0
  -15.0369  -36.9735  -11.9953 C   0  0  0  0  0  0  0  0  0  0  0  0
  -14.5954  -35.6655  -12.5118 C   0  0  0  0  0  0  0  0  0  0  0  0
  -13.1975  -35.2458  -12.2088 C   0  0  0  0  0  0  0  0  0  0  0  0
  -12.2709  -35.2582  -13.3730 C   0  0  0  0  0  0  0  0  0  0  0  0
  -10.8471  -35.4629  -13.2161 C   0  0  0  0  0  0  0  0  0  0  0  0
  -10.2677  -36.1098  -12.0198 C   0  0  0  0  0  0  0  0  0  0  0  0
   -9.9319  -37.5938  -12.2867 C   0  0  0  0  0  0  0  0  0  0  0  0
  -11.1156  -38.2691  -12.7959 N   0  0  0  0  0  0  0  0  0  0  0  0
  -12.0021  -39.2285  -12.2149 C   0  0  0  0  0  0  0  0  0  0  0  0
  -12.5164  -39.3487  -10.9451 C   0  0  0  0  0  0  0  0  0  0  0  0
  -13.3939  -40.3868  -10.6866 C   0  0  0  0  0  0  0  0  0  0  0  0
  -13.7294  -41.2851  -11.7290 C   0  0  0  0  0  0  0  0  0  0  0  0
  -13.2375  -41.1978  -13.0050 C   0  0  0  0  0  0  0  0  0  0  0  0
  -12.3754  -40.1596  -13.2211 C   0  0  0  0  0  0  0  0  0  0  0  0
  -14.1086  -40.7553   -9.4482 C   0  0  0  0  0  0  0  0  0  0  0  0
  -14.0634  -42.0675   -9.2287 O   0  0  0  0  0  0  0  0  0  0  0  0
  -14.8064  -40.0038   -8.4880 N   0  0  0  0  0  0  0  0  0  0  0  0
  -15.4942  -38.7348   -8.6124 C   0  0  1  0  0  0  0  0  0  0  0  0
  -15.7519  -38.3213  -10.0145 C   0  0  0  0  0  0  0  0  0  0  0  0
  -16.8150  -38.9680   -7.8288 C   0  0  2  0  0  0  0  0  0  0  0  0
  -16.5283  -38.5313   -6.5429 O   0  0  0  0  0  0  0  0  0  0  0  0
  -17.3206  -40.3312   -7.8377 C   0  0  0  0  0  0  0  0  0  0  0  0
  -18.4177  -40.5688   -8.6464 N   0  0  0  0  0  0  0  0  0  0  0  0
  -19.3680  -41.5718   -8.5203 C   0  0  0  0  0  0  0  0  0  0  0  0
  -19.4707  -42.5218   -9.6459 C   0  0  0  0  0  0  0  0  0  0  0  0
  -18.9030  -43.5656   -8.9274 O   0  0  0  0  0  0  0  0  0  0  0  0
  -18.9869  -42.8300   -7.7890 C   0  0  0  0  0  0  0  0  0  0  0  0
  -20.6963  -41.0266   -8.1030 C   0  0  0  0  0  0  0  0  0  0  0  0
  -21.0453  -40.6357   -6.8466 C   0  0  0  0  0  0  0  0  0  0  0  0
  -22.3044  -40.1120   -6.5512 C   0  0  0  0  0  0  0  0  0  0  0  0
  -23.2029  -39.9972   -7.5773 C   0  0  0  0  0  0  0  0  0  0  0  0
  -22.8658  -40.3894   -8.8562 C   0  0  0  0  0  0  0  0  0  0  0  0
  -21.6286  -40.9020   -9.1369 C   0  0  0  0  0  0  0  0  0  0  0  0
  -22.6721  -39.6935   -5.1820 C   0  0  0  0  0  0  0  0  0  0  0  0
  -23.3696  -38.3613   -5.1678 C   0  0  0  0  0  0  0  0  0  0  0  0
  -21.5090  -39.7156   -4.2310 C   0  0  0  0  0  0  0  0  0  0  0  0
  -23.6910  -40.7054   -4.6474 C   0  0  0  0  0  0  0  0  0  0  0  0
  2  1  1  1
  2  3  1  0
  3  4  1  0
  4  5  1  0
  5  6  1  0
  6  7  1  0
  7  8  1  0
  8  9  1  0
  9 10  1  0
 10 11  1  0
 11 12  1  0
 12 13  2  0
 13 14  1  0
 14 15  2  0
 15 16  1  0
 13 17  1  0
 17 18  2  0
 17 19  1  0
 19 20  1  0
 20 21  1  6
 20 22  1  0
 22 23  1  1
 22 24  1  0
 24 25  1  0
 25 26  1  0
 26 27  1  0
 27 28  1  0
 28 29  1  0
 26 30  1  0
 30 31  2  0
 31 32  1  0
 32 33  2  0
 33 34  1  0
 34 35  2  0
 32 36  1  0
 36 37  1  0
 36 38  1  0
 36 39  1  0
 16 11  2  0
 21  2  1  0
 29 26  1  0
 35 30  1  0
M  END
$$$$
