
     RDKit          3D

 39 42  0  0  0  0  0  0  0  0999 V2000
  -19.7866  -38.6083   -5.7553 C   0  0  0  0  0  0  0  0  0  0  0  0
  -19.7248  -39.9232   -6.4992 C   0  0  2  0  0  0  0  0  0  0  0  0
  -20.4633  -40.9988   -5.7132 C   0  0  0  0  0  0  0  0  0  0  0  0
  -21.7916  -40.5843   -5.2268 C   0  0  0  0  0  0  0  0  0  0  0  0
  -22.8235  -40.2540   -6.2507 C   0  0  0  0  0  0  0  0  0  0  0  0
  -23.9265  -41.2450   -6.3743 C   0  0  0  0  0  0  0  0  0  0  0  0
  -24.6499  -41.4348   -7.6130 C   0  0  0  0  0  0  0  0  0  0  0  0
  -24.0948  -41.0338   -8.9231 C   0  0  0  0  0  0  0  0  0  0  0  0
  -23.5035  -42.2434   -9.6804 C   0  0  0  0  0  0  0  0  0  0  0  0
  -22.5414  -42.9209   -8.8251 N   0  0  0  0  0  0  0  0  0  0  0  0
  -21.1146  -43.0053   -8.8586 C   0  0  0  0  0  0  0  0  0  0  0  0
  -20.1489  -42.0721   -9.1551 C   0  0  0  0  0  0  0  0  0  0  0  0
  -18.8207  -42.4501   -9.0686 C   0  0  0  0  0  0  0  0  0  0  0  0
  -18.5020  -43.7750   -8.6824 C   0  0  0  0  0  0  0  0  0  0  0  0
  -19.4353  -44.7315   -8.3800 C   0  0  0  0  0  0  0  0  0  0  0  0
  -20.7351  -44.3200   -8.4760 C   0  0  0  0  0  0  0  0  0  0  0  0
  -17.5844  -41.6781   -9.3050 C   0  0  0  0  0  0  0  0  0  0  0  0
  -16.6986  -42.3765  -10.0119 O   0  0  0  0  0  0  0  0  0  0  0  0
  -17.1799  -40.3847   -8.9348 N   0  0  0  0  0  0  0  0  0  0  0  0
  -17.5817  -39.5651   -7.8097 C   0  0  1  0  0  0  0  0  0  0  0  0
  -18.2896  -40.3116   -6.7397 C   0  0  0  0  0  0  0  0  0  0  0  0
  -16.2381  -38.9708   -7.3050 C   0  0  2  0  0  0  0  0  0  0  0  0
  -16.6174  -37.8806   -6.5345 O   0  0  0  0  0  0  0  0  0  0  0  0
  -15.2860  -38.5984   -8.3390 C   0  0  0  0  0  0  0  0  0  0  0  0
  -14.2040  -39.4445   -8.5041 N   0  0  0  0  0  0  0  0  0  0  0  0
  -13.5539  -39.7762   -9.6840 C   0  0  0  0  0  0  0  0  0  0  0  0
  -12.1139  -40.0832   -9.5744 C   0  0  0  0  0  0  0  0  0  0  0  0
  -12.2994  -41.4403   -9.8018 O   0  0  0  0  0  0  0  0  0  0  0  0
  -13.5930  -41.2081  -10.1438 C   0  0  0  0  0  0  0  0  0  0  0  0
  -13.8534  -38.7983  -10.7749 C   0  0  0  0  0  0  0  0  0  0  0  0
  -13.4778  -37.4902  -10.8064 C   0  0  0  0  0  0  0  0  0  0  0  0
  -13.7798  -36.6533  -11.8812 C   0  0  0  0  0  0  0  0  0  0  0  0
  -14.4789  -37.1893  -12.9287 C   0  0  0  0  0  0  0  0  0  0  0  0
  -14.8679  -38.5128  -12.9124 C   0  0  0  0  0  0  0  0  0  0  0  0
  -14.5675  -39.3264  -11.8542 C   0  0  0  0  0  0  0  0  0  0  0  0
  -13.3685  -35.2336  -11.9022 C   0  0  0  0  0  0  0  0  0  0  0  0
  -14.4824  -34.3175  -11.4765 C   0  0  0  0  0  0  0  0  0  0  0  0
  -12.7843  -34.8130  -13.2211 C   0  0  0  0  0  0  0  0  0  0  0  0
  -12.2600  -35.0580  -10.8591 C   0  0  0  0  0  0  0  0  0  0  0  0
  2  1  1  1
  2  3  1  0
  3  4  1  0
  4  5  1  0
  5  6  1  0
  6  7  1  0
  7  8  1  0
  8  9  1  0
  9 10  1  0
 10 11  1  0
 11 12  1  0
 12 13  2  0
 13 14  1  0
 14 15  2  0
 15 16  1  0
 13 17  1  0
 17 18  2  0
 17 19  1  0
 19 20  1  0
 20 21  1  1
 20 22  1  0
 22 23  1  6
 22 24  1  0
 24 25  1  0
 25 26  1  0
 26 27  1  0
 27 28  1  0
 28 29  1  0
 26 30  1  0
 30 31  2  0
 31 32  1  0
 32 33  2  0
 33 34  1  0
 34 35  2  0
 32 36  1  0
 36 37  1  0
 36 38  1  0
 36 39  1  0
 16 11  2  0
 21  2  1  0
 29 26  1  0
 35 30  1  0
M  END
$$$$
