
     RDKit          3D

 39 42  0  0  0  0  0  0  0  0999 V2000
  -21.1692  -40.3608  -10.2318 C   0  0  0  0  0  0  0  0  0  0  0  0
  -20.9161  -40.3268   -8.7415 C   0  0  2  0  0  0  0  0  0  0  0  0
  -21.8503  -39.3220   -8.0798 C   0  0  0  0  0  0  0  0  0  0  0  0
  -23.2578  -39.4397   -8.5016 C   0  0  0  0  0  0  0  0  0  0  0  0
  -23.9667  -40.7098   -8.1753 C   0  0  0  0  0  0  0  0  0  0  0  0
  -25.0012  -40.5972   -7.1118 C   0  0  0  0  0  0  0  0  0  0  0  0
  -25.3586  -41.7183   -6.2697 C   0  0  0  0  0  0  0  0  0  0  0  0
  -24.4624  -42.8772   -6.0723 C   0  0  0  0  0  0  0  0  0  0  0  0
  -23.6956  -42.7771   -4.7350 C   0  0  0  0  0  0  0  0  0  0  0  0
  -23.0103  -41.4955   -4.6699 N   0  0  0  0  0  0  0  0  0  0  0  0
  -21.6297  -41.1356   -4.7623 C   0  0  0  0  0  0  0  0  0  0  0  0
  -20.6124  -41.6054   -5.5597 C   0  0  0  0  0  0  0  0  0  0  0  0
  -19.3619  -41.0255   -5.4400 C   0  0  0  0  0  0  0  0  0  0  0  0
  -19.1718  -39.9771   -4.5068 C   0  0  0  0  0  0  0  0  0  0  0  0
  -20.1597  -39.4832   -3.6960 C   0  0  0  0  0  0  0  0  0  0  0  0
  -21.3800  -40.0805   -3.8441 C   0  0  0  0  0  0  0  0  0  0  0  0
  -18.1022  -41.3005   -6.1595 C   0  0  0  0  0  0  0  0  0  0  0  0
  -17.0620  -41.3363   -5.3295 O   0  0  0  0  0  0  0  0  0  0  0  0
  -17.8046  -41.5239   -7.5141 N   0  0  0  0  0  0  0  0  0  0  0  0
  -18.4930  -41.0792   -8.7088 C   0  0  1  0  0  0  0  0  0  0  0  0
  -19.4731  -39.9898   -8.4721 C   0  0  0  0  0  0  0  0  0  0  0  0
  -17.3348  -40.6201   -9.6365 C   0  0  2  0  0  0  0  0  0  0  0  0
  -16.9856  -41.7668  -10.3361 O   0  0  0  0  0  0  0  0  0  0  0  0
  -16.1898  -40.0243   -8.9672 C   0  0  0  0  0  0  0  0  0  0  0  0
  -14.9503  -40.3059   -9.5132 N   0  0  0  0  0  0  0  0  0  0  0  0
  -13.8893  -39.4346   -9.7132 C   0  0  0  0  0  0  0  0  0  0  0  0
  -13.2961  -38.8359   -8.5010 C   0  0  0  0  0  0  0  0  0  0  0  0
  -12.1328  -39.5880   -8.5960 O   0  0  0  0  0  0  0  0  0  0  0  0
  -12.5043  -40.0099   -9.8321 C   0  0  0  0  0  0  0  0  0  0  0  0
  -14.1981  -38.4187  -10.7660 C   0  0  0  0  0  0  0  0  0  0  0  0
  -13.6066  -37.2005  -10.9048 C   0  0  0  0  0  0  0  0  0  0  0  0
  -13.9401  -36.3227  -11.9367 C   0  0  0  0  0  0  0  0  0  0  0  0
  -14.8984  -36.7228  -12.8283 C   0  0  0  0  0  0  0  0  0  0  0  0
  -15.5083  -37.9537  -12.7017 C   0  0  0  0  0  0  0  0  0  0  0  0
  -15.1752  -38.8083  -11.6864 C   0  0  0  0  0  0  0  0  0  0  0  0
  -13.2922  -35.0012  -12.0750 C   0  0  0  0  0  0  0  0  0  0  0  0
  -12.8602  -34.7303  -13.4897 C   0  0  0  0  0  0  0  0  0  0  0  0
  -12.1613  -34.7996  -11.1065 C   0  0  0  0  0  0  0  0  0  0  0  0
  -14.3423  -33.9349  -11.7463 C   0  0  0  0  0  0  0  0  0  0  0  0
  2  1  1  6
  2  3  1  0
  3  4  1  0
  4  5  1  0
  5  6  1  0
  6  7  1  0
  7  8  1  0
  8  9  1  0
  9 10  1  0
 10 11  1  0
 11 12  1  0
 12 13  2  0
 13 14  1  0
 14 15  2  0
 15 16  1  0
 13 17  1  0
 17 18  2  0
 17 19  1  0
 19 20  1  0
 20 21  1  1
 20 22  1  0
 22 23  1  1
 22 24  1  0
 24 25  1  0
 25 26  1  0
 26 27  1  0
 27 28  1  0
 28 29  1  0
 26 30  1  0
 30 31  2  0
 31 32  1  0
 32 33  2  0
 33 34  1  0
 34 35  2  0
 32 36  1  0
 36 37  1  0
 36 38  1  0
 36 39  1  0
 16 11  2  0
 21  2  1  0
 29 26  1  0
 35 30  1  0
M  END
$$$$
