
     RDKit          3D

 40 43  0  0  0  0  0  0  0  0999 V2000
  -13.1878  -44.4379   -8.9455 C   0  0  0  0  0  0  0  0  0  0  0  0
  -13.9562  -44.7053  -10.0515 O   0  0  0  0  0  0  0  0  0  0  0  0
  -15.0349  -43.8509  -10.2203 C   0  0  0  0  0  0  0  0  0  0  0  0
  -14.5155  -42.4898  -10.5091 C   0  0  0  0  0  0  0  0  0  0  0  0
  -13.7632  -42.1987  -11.6089 C   0  0  0  0  0  0  0  0  0  0  0  0
  -13.2570  -40.9020  -11.9054 C   0  0  0  0  0  0  0  0  0  0  0  0
  -13.5294  -39.8605  -11.0425 C   0  0  0  0  0  0  0  0  0  0  0  0
  -14.2881  -40.1144   -9.9196 C   0  0  0  0  0  0  0  0  0  0  0  0
  -14.7655  -41.4303   -9.6775 C   0  0  0  0  0  0  0  0  0  0  0  0
  -14.7496  -39.2284   -8.8265 C   0  0  0  0  0  0  0  0  0  0  0  0
  -14.7126  -39.7136   -7.5904 O   0  0  0  0  0  0  0  0  0  0  0  0
  -15.2460  -37.9230   -8.7971 N   0  0  0  0  0  0  0  0  0  0  0  0
  -16.2994  -37.3319   -9.5937 C   0  0  1  0  0  0  0  0  0  0  0  0
  -15.7994  -36.7430  -10.8739 C   0  0  0  0  0  0  0  0  0  0  0  0
  -15.0227  -35.4594  -10.6595 C   0  0  2  0  0  0  0  0  0  0  0  0
  -15.9112  -34.3255  -11.0731 C   0  0  0  0  0  0  0  0  0  0  0  0
  -13.7033  -35.4669  -11.3806 C   0  0  0  0  0  0  0  0  0  0  0  0
  -13.8958  -35.4388  -12.8945 C   0  0  0  0  0  0  0  0  0  0  0  0
  -12.5848  -35.7160  -13.5992 C   0  0  0  0  0  0  0  0  0  0  0  0
  -12.2697  -37.1622  -13.4667 C   0  0  0  0  0  0  0  0  0  0  0  0
  -11.5902  -37.7712  -14.6750 C   0  0  0  0  0  0  0  0  0  0  0  0
  -11.2753  -39.2183  -14.2725 C   0  0  0  0  0  0  0  0  0  0  0  0
  -12.4930  -40.0878  -14.2827 C   0  0  0  0  0  0  0  0  0  0  0  0
  -12.5208  -40.9641  -13.1257 N   0  0  0  0  0  0  0  0  0  0  0  0
  -17.4490  -38.2460   -9.8433 C   0  0  2  0  0  0  0  0  0  0  0  0
  -18.0548  -38.1124  -11.0838 O   0  0  0  0  0  0  0  0  0  0  0  0
  -18.5410  -38.1478   -8.8019 C   0  0  0  0  0  0  0  0  0  0  0  0
  -19.6015  -39.0908   -8.9649 N   0  0  0  0  0  0  0  0  0  0  0  0
  -19.4863  -40.2691   -8.1621 C   0  0  0  0  0  0  0  0  0  0  0  0
  -20.4052  -40.2768   -7.0109 C   0  0  0  0  0  0  0  0  0  0  0  0
  -21.3474  -41.2716   -6.9077 C   0  0  0  0  0  0  0  0  0  0  0  0
  -22.2389  -41.3353   -5.8569 C   0  0  0  0  0  0  0  0  0  0  0  0
  -23.1023  -42.4095   -5.9389 O   0  0  0  0  0  0  0  0  0  0  0  0
  -23.9293  -42.9011   -4.8919 C   0  0  0  0  0  0  0  0  0  0  0  0
  -23.2509  -42.6690   -3.5647 C   0  0  0  0  0  0  0  0  0  0  0  0
  -23.5704  -41.3236   -2.9898 C   0  0  0  0  0  0  0  0  0  0  0  0
  -22.9985  -40.2785   -3.7545 O   0  0  0  0  0  0  0  0  0  0  0  0
  -22.1694  -40.3503   -4.8742 C   0  0  0  0  0  0  0  0  0  0  0  0
  -21.2431  -39.3563   -4.9582 C   0  0  0  0  0  0  0  0  0  0  0  0
  -20.3680  -39.3224   -6.0207 C   0  0  0  0  0  0  0  0  0  0  0  0
  1  2  1  0
  2  3  1  0
  3  4  1  0
  4  5  2  0
  5  6  1  0
  6  7  2  0
  7  8  1  0
  8  9  2  0
  8 10  1  0
 10 11  2  0
 10 12  1  0
 12 13  1  0
 13 14  1  6
 14 15  1  0
 15 16  1  6
 15 17  1  0
 17 18  1  0
 18 19  1  0
 19 20  1  0
 20 21  1  0
 21 22  1  0
 22 23  1  0
 23 24  1  0
 13 25  1  0
 25 26  1  6
 25 27  1  0
 27 28  1  0
 28 29  1  0
 29 30  1  0
 30 31  2  0
 31 32  1  0
 32 33  1  0
 33 34  1  0
 34 35  1  0
 35 36  1  0
 36 37  1  0
 37 38  1  0
 38 39  1  0
 39 40  2  0
  9  4  1  0
 24  6  1  0
 38 32  2  0
 40 30  1  0
M  END
$$$$
