
     RDKit          3D

 40 43  0  0  0  0  0  0  0  0999 V2000
  -15.4373  -46.2451  -10.3970 C   0  0  0  0  0  0  0  0  0  0  0  0
  -15.6235  -45.4633   -9.2838 O   0  0  0  0  0  0  0  0  0  0  0  0
  -16.6017  -45.9248   -8.4164 C   0  0  0  0  0  0  0  0  0  0  0  0
  -17.6434  -44.8750   -8.2814 C   0  0  0  0  0  0  0  0  0  0  0  0
  -18.7551  -45.0258   -7.5057 C   0  0  0  0  0  0  0  0  0  0  0  0
  -19.7644  -44.0328   -7.3611 C   0  0  0  0  0  0  0  0  0  0  0  0
  -19.6332  -42.8375   -8.0376 C   0  0  0  0  0  0  0  0  0  0  0  0
  -18.5222  -42.6462   -8.8313 C   0  0  0  0  0  0  0  0  0  0  0  0
  -17.5483  -43.6752   -8.9358 C   0  0  0  0  0  0  0  0  0  0  0  0
  -18.0962  -41.4970   -9.6622 C   0  0  0  0  0  0  0  0  0  0  0  0
  -17.5626  -41.7658  -10.8488 O   0  0  0  0  0  0  0  0  0  0  0  0
  -18.1271  -40.1135   -9.4709 N   0  0  0  0  0  0  0  0  0  0  0  0
  -17.6700  -39.3414   -8.3358 C   0  0  1  0  0  0  0  0  0  0  0  0
  -18.7258  -39.1603   -7.2927 C   0  0  0  0  0  0  0  0  0  0  0  0
  -19.8064  -38.1881   -7.7215 C   0  0  2  0  0  0  0  0  0  0  0  0
  -19.5709  -36.9048   -6.9840 C   0  0  0  0  0  0  0  0  0  0  0  0
  -21.1872  -38.7443   -7.5094 C   0  0  0  0  0  0  0  0  0  0  0  0
  -21.5055  -38.8934   -6.0240 C   0  0  0  0  0  0  0  0  0  0  0  0
  -22.7755  -39.6952   -5.8335 C   0  0  0  0  0  0  0  0  0  0  0  0
  -22.4833  -41.1242   -6.1176 C   0  0  0  0  0  0  0  0  0  0  0  0
  -23.2376  -42.1059   -5.2458 C   0  0  0  0  0  0  0  0  0  0  0  0
  -22.8599  -43.4931   -5.7825 C   0  0  0  0  0  0  0  0  0  0  0  0
  -21.4792  -43.9021   -5.3761 C   0  0  0  0  0  0  0  0  0  0  0  0
  -20.7714  -44.5260   -6.4793 N   0  0  0  0  0  0  0  0  0  0  0  0
  -16.4081  -39.8522   -7.7307 C   0  0  2  0  0  0  0  0  0  0  0  0
  -16.1380  -39.3966   -6.4487 O   0  0  0  0  0  0  0  0  0  0  0  0
  -15.1786  -39.5798   -8.5679 C   0  0  0  0  0  0  0  0  0  0  0  0
  -13.9615  -40.0822   -8.0140 N   0  0  0  0  0  0  0  0  0  0  0  0
  -12.7895  -39.7996   -8.7837 C   0  0  0  0  0  0  0  0  0  0  0  0
  -13.0695  -39.0088   -9.9945 C   0  0  0  0  0  0  0  0  0  0  0  0
  -12.9818  -39.6100  -11.2270 C   0  0  0  0  0  0  0  0  0  0  0  0
  -13.2288  -38.9259  -12.3991 C   0  0  0  0  0  0  0  0  0  0  0  0
  -13.0874  -39.7089  -13.5274 O   0  0  0  0  0  0  0  0  0  0  0  0
  -13.5377  -39.3816  -14.8358 C   0  0  0  0  0  0  0  0  0  0  0  0
  -14.7841  -38.5370  -14.7415 C   0  0  0  0  0  0  0  0  0  0  0  0
  -14.4747  -37.0754  -14.6389 C   0  0  0  0  0  0  0  0  0  0  0  0
  -13.8569  -36.7565  -13.4058 O   0  0  0  0  0  0  0  0  0  0  0  0
  -13.5779  -37.5799  -12.3146 C   0  0  0  0  0  0  0  0  0  0  0  0
  -13.6702  -36.9660  -11.1031 C   0  0  0  0  0  0  0  0  0  0  0  0
  -13.4171  -37.6784   -9.9524 C   0  0  0  0  0  0  0  0  0  0  0  0
  1  2  1  0
  2  3  1  0
  3  4  1  0
  4  5  2  0
  5  6  1  0
  6  7  2  0
  7  8  1  0
  8  9  2  0
  8 10  1  0
 10 11  2  0
 10 12  1  0
 12 13  1  0
 13 14  1  1
 14 15  1  0
 15 16  1  1
 15 17  1  0
 17 18  1  0
 18 19  1  0
 19 20  1  0
 20 21  1  0
 21 22  1  0
 22 23  1  0
 23 24  1  0
 13 25  1  0
 25 26  1  1
 25 27  1  0
 27 28  1  0
 28 29  1  0
 29 30  1  0
 30 31  2  0
 31 32  1  0
 32 33  1  0
 33 34  1  0
 34 35  1  0
 35 36  1  0
 36 37  1  0
 37 38  1  0
 38 39  1  0
 39 40  2  0
  9  4  1  0
 24  6  1  0
 38 32  2  0
 40 30  1  0
M  END
$$$$
