
     RDKit          3D

 40 43  0  0  0  0  0  0  0  0999 V2000
  -19.0748  -47.5040   -8.2440 C   0  0  0  0  0  0  0  0  0  0  0  0
  -18.9031  -47.4454   -6.8830 O   0  0  0  0  0  0  0  0  0  0  0  0
  -18.0973  -46.4032   -6.4512 C   0  0  0  0  0  0  0  0  0  0  0  0
  -18.8055  -45.1236   -6.7092 C   0  0  0  0  0  0  0  0  0  0  0  0
  -19.8969  -44.7209   -5.9972 C   0  0  0  0  0  0  0  0  0  0  0  0
  -20.5894  -43.4988   -6.2267 C   0  0  0  0  0  0  0  0  0  0  0  0
  -20.1497  -42.6543   -7.2251 C   0  0  0  0  0  0  0  0  0  0  0  0
  -19.0482  -43.0256   -7.9668 C   0  0  0  0  0  0  0  0  0  0  0  0
  -18.3987  -44.2584   -7.6904 C   0  0  0  0  0  0  0  0  0  0  0  0
  -18.3416  -42.3504   -9.0791 C   0  0  0  0  0  0  0  0  0  0  0  0
  -17.9313  -43.1073  -10.0909 O   0  0  0  0  0  0  0  0  0  0  0  0
  -17.9851  -41.0214   -9.3207 N   0  0  0  0  0  0  0  0  0  0  0  0
  -17.3059  -40.0885   -8.4479 C   0  0  1  0  0  0  0  0  0  0  0  0
  -18.2456  -39.3153   -7.5791 C   0  0  0  0  0  0  0  0  0  0  0  0
  -19.0261  -38.2709   -8.3518 C   0  0  2  0  0  0  0  0  0  0  0  0
  -18.4281  -36.9355   -8.0267 C   0  0  0  0  0  0  0  0  0  0  0  0
  -20.5013  -38.3401   -8.0691 C   0  0  0  0  0  0  0  0  0  0  0  0
  -20.8129  -37.9295   -6.6323 C   0  0  0  0  0  0  0  0  0  0  0  0
  -22.2498  -38.2592   -6.2883 C   0  0  0  0  0  0  0  0  0  0  0  0
  -22.3701  -39.7289   -6.1043 C   0  0  0  0  0  0  0  0  0  0  0  0
  -23.3449  -40.1501   -5.0251 C   0  0  0  0  0  0  0  0  0  0  0  0
  -23.3774  -41.6831   -5.0886 C   0  0  0  0  0  0  0  0  0  0  0  0
  -22.1538  -42.3018   -4.4895 C   0  0  0  0  0  0  0  0  0  0  0  0
  -21.6720  -43.4036   -5.3027 N   0  0  0  0  0  0  0  0  0  0  0  0
  -16.2198  -40.7063   -7.6366 C   0  0  2  0  0  0  0  0  0  0  0  0
  -16.2685  -40.4371   -6.2768 O   0  0  0  0  0  0  0  0  0  0  0  0
  -14.8288  -40.3503   -8.1111 C   0  0  0  0  0  0  0  0  0  0  0  0
  -14.4549  -40.9498   -9.3525 N   0  0  0  0  0  0  0  0  0  0  0  0
  -13.0830  -40.7719   -9.7164 C   0  0  0  0  0  0  0  0  0  0  0  0
  -12.8987  -39.8330  -10.8363 C   0  0  0  0  0  0  0  0  0  0  0  0
  -13.6809  -38.7054  -10.9057 C   0  0  0  0  0  0  0  0  0  0  0  0
  -13.5607  -37.7878  -11.9286 C   0  0  0  0  0  0  0  0  0  0  0  0
  -14.4367  -36.7268  -11.8149 O   0  0  0  0  0  0  0  0  0  0  0  0
  -14.3685  -35.5033  -12.5361 C   0  0  0  0  0  0  0  0  0  0  0  0
  -12.9260  -35.1707  -12.8260 C   0  0  0  0  0  0  0  0  0  0  0  0
  -12.4464  -35.7842  -14.1052 C   0  0  0  0  0  0  0  0  0  0  0  0
  -12.3691  -37.1946  -14.0125 O   0  0  0  0  0  0  0  0  0  0  0  0
  -12.6094  -38.0259  -12.9181 C   0  0  0  0  0  0  0  0  0  0  0  0
  -11.8247  -39.1371  -12.8673 C   0  0  0  0  0  0  0  0  0  0  0  0
  -11.9706  -40.0330  -11.8320 C   0  0  0  0  0  0  0  0  0  0  0  0
  1  2  1  0
  2  3  1  0
  3  4  1  0
  4  5  2  0
  5  6  1  0
  6  7  2  0
  7  8  1  0
  8  9  2  0
  8 10  1  0
 10 11  2  0
 10 12  1  0
 12 13  1  0
 13 14  1  1
 14 15  1  0
 15 16  1  1
 15 17  1  0
 17 18  1  0
 18 19  1  0
 19 20  1  0
 20 21  1  0
 21 22  1  0
 22 23  1  0
 23 24  1  0
 13 25  1  0
 25 26  1  1
 25 27  1  0
 27 28  1  0
 28 29  1  0
 29 30  1  0
 30 31  2  0
 31 32  1  0
 32 33  1  0
 33 34  1  0
 34 35  1  0
 35 36  1  0
 36 37  1  0
 37 38  1  0
 38 39  1  0
 39 40  2  0
  9  4  1  0
 24  6  1  0
 38 32  2  0
 40 30  1  0
M  END
$$$$
