
     RDKit          3D

 40 43  0  0  0  0  0  0  0  0999 V2000
  -23.4275  -38.1544   -5.6513 C   0  0  0  0  0  0  0  0  0  0  0  0
  -22.1997  -38.1416   -6.2658 O   0  0  0  0  0  0  0  0  0  0  0  0
  -22.0672  -39.0544   -7.3009 C   0  0  0  0  0  0  0  0  0  0  0  0
  -21.0255  -38.5573   -8.2354 C   0  0  0  0  0  0  0  0  0  0  0  0
  -21.0129  -37.2848   -8.7263 C   0  0  0  0  0  0  0  0  0  0  0  0
  -20.0241  -36.7876   -9.6211 C   0  0  0  0  0  0  0  0  0  0  0  0
  -19.0074  -37.6248  -10.0321 C   0  0  0  0  0  0  0  0  0  0  0  0
  -18.9847  -38.9189   -9.5568 C   0  0  0  0  0  0  0  0  0  0  0  0
  -20.0001  -39.3574   -8.6652 C   0  0  0  0  0  0  0  0  0  0  0  0
  -18.0438  -40.0364   -9.7987 C   0  0  0  0  0  0  0  0  0  0  0  0
  -18.5634  -41.2491   -9.9549 O   0  0  0  0  0  0  0  0  0  0  0  0
  -16.6529  -40.1114   -9.9044 N   0  0  0  0  0  0  0  0  0  0  0  0
  -15.6429  -39.5777   -9.0163 C   0  0  1  0  0  0  0  0  0  0  0  0
  -15.2466  -38.1778   -9.3609 C   0  0  0  0  0  0  0  0  0  0  0  0
  -14.4062  -38.1043  -10.6199 C   0  0  2  0  0  0  0  0  0  0  0  0
  -12.9886  -37.8637  -10.1972 C   0  0  0  0  0  0  0  0  0  0  0  0
  -14.9170  -37.0696  -11.5840 C   0  0  0  0  0  0  0  0  0  0  0  0
  -14.7362  -35.6576  -11.0330 C   0  0  0  0  0  0  0  0  0  0  0  0
  -15.4899  -34.6577  -11.8839 C   0  0  0  0  0  0  0  0  0  0  0  0
  -16.9430  -34.7944  -11.6042 C   0  0  0  0  0  0  0  0  0  0  0  0
  -17.7150  -33.4923  -11.6361 C   0  0  0  0  0  0  0  0  0  0  0  0
  -19.1824  -33.8895  -11.4262 C   0  0  0  0  0  0  0  0  0  0  0  0
  -19.4753  -34.2477  -10.0032 C   0  0  0  0  0  0  0  0  0  0  0  0
  -20.3205  -35.4251   -9.9226 N   0  0  0  0  0  0  0  0  0  0  0  0
  -15.9922  -39.6903   -7.5724 C   0  0  2  0  0  0  0  0  0  0  0  0
  -15.2218  -38.9201   -6.7138 O   0  0  0  0  0  0  0  0  0  0  0  0
  -15.9602  -41.1082   -7.0479 C   0  0  0  0  0  0  0  0  0  0  0  0
  -16.9714  -41.9618   -7.5857 N   0  0  0  0  0  0  0  0  0  0  0  0
  -17.7945  -42.6068   -6.6098 C   0  0  0  0  0  0  0  0  0  0  0  0
  -18.0339  -44.0300   -6.9046 C   0  0  0  0  0  0  0  0  0  0  0  0
  -16.9815  -44.8240   -7.2921 C   0  0  0  0  0  0  0  0  0  0  0  0
  -17.1380  -46.1629   -7.5848 C   0  0  0  0  0  0  0  0  0  0  0  0
  -15.9602  -46.7816   -7.9535 O   0  0  0  0  0  0  0  0  0  0  0  0
  -15.7421  -48.1841   -8.0393 C   0  0  0  0  0  0  0  0  0  0  0  0
  -16.5916  -48.8885   -7.0109 C   0  0  0  0  0  0  0  0  0  0  0  0
  -17.9582  -49.2154   -7.5288 C   0  0  0  0  0  0  0  0  0  0  0  0
  -18.7304  -48.0481   -7.7409 O   0  0  0  0  0  0  0  0  0  0  0  0
  -18.4127  -46.7150   -7.4797 C   0  0  0  0  0  0  0  0  0  0  0  0
  -19.4684  -45.9452   -7.0974 C   0  0  0  0  0  0  0  0  0  0  0  0
  -19.2772  -44.6118   -6.8124 C   0  0  0  0  0  0  0  0  0  0  0  0
  1  2  1  0
  2  3  1  0
  3  4  1  0
  4  5  2  0
  5  6  1  0
  6  7  2  0
  7  8  1  0
  8  9  2  0
  8 10  1  0
 10 11  2  0
 10 12  1  0
 12 13  1  0
 13 14  1  6
 14 15  1  0
 15 16  1  1
 15 17  1  0
 17 18  1  0
 18 19  1  0
 19 20  1  0
 20 21  1  0
 21 22  1  0
 22 23  1  0
 23 24  1  0
 13 25  1  0
 25 26  1  1
 25 27  1  0
 27 28  1  0
 28 29  1  0
 29 30  1  0
 30 31  2  0
 31 32  1  0
 32 33  1  0
 33 34  1  0
 34 35  1  0
 35 36  1  0
 36 37  1  0
 37 38  1  0
 38 39  1  0
 39 40  2  0
  9  4  1  0
 24  6  1  0
 38 32  2  0
 40 30  1  0
M  END
$$$$
