
     RDKit          3D

 40 43  0  0  0  0  0  0  0  0999 V2000
  -22.8236  -44.6535   -5.6971 C   0  0  0  0  0  0  0  0  0  0  0  0
  -21.4975  -44.8803   -5.4232 O   0  0  0  0  0  0  0  0  0  0  0  0
  -20.8567  -43.8308   -4.7829 C   0  0  0  0  0  0  0  0  0  0  0  0
  -20.8433  -42.6605   -5.6971 C   0  0  0  0  0  0  0  0  0  0  0  0
  -21.6768  -41.5911   -5.5484 C   0  0  0  0  0  0  0  0  0  0  0  0
  -21.6797  -40.4593   -6.4115 C   0  0  0  0  0  0  0  0  0  0  0  0
  -20.7960  -40.4191   -7.4703 C   0  0  0  0  0  0  0  0  0  0  0  0
  -19.9359  -41.4810   -7.6535 C   0  0  0  0  0  0  0  0  0  0  0  0
  -19.9803  -42.5831   -6.7582 C   0  0  0  0  0  0  0  0  0  0  0  0
  -18.8880  -41.7307   -8.6694 C   0  0  0  0  0  0  0  0  0  0  0  0
  -18.7890  -42.9635   -9.1544 O   0  0  0  0  0  0  0  0  0  0  0  0
  -17.9216  -40.9185   -9.2678 N   0  0  0  0  0  0  0  0  0  0  0  0
  -16.9705  -40.0249   -8.6431 C   0  0  1  0  0  0  0  0  0  0  0  0
  -17.5108  -38.6443   -8.4488 C   0  0  0  0  0  0  0  0  0  0  0  0
  -17.6216  -37.8746   -9.7496 C   0  0  2  0  0  0  0  0  0  0  0  0
  -16.4968  -36.8846   -9.7799 C   0  0  0  0  0  0  0  0  0  0  0  0
  -18.9726  -37.2363   -9.9183 C   0  0  0  0  0  0  0  0  0  0  0  0
  -19.1915  -36.1189   -8.9017 C   0  0  0  0  0  0  0  0  0  0  0  0
  -20.6386  -35.6743   -8.9085 C   0  0  0  0  0  0  0  0  0  0  0  0
  -21.4596  -36.7156   -8.2375 C   0  0  0  0  0  0  0  0  0  0  0  0
  -22.6183  -36.1767   -7.4255 C   0  0  0  0  0  0  0  0  0  0  0  0
  -23.3682  -37.4174   -6.9222 C   0  0  0  0  0  0  0  0  0  0  0  0
  -22.6506  -38.0972   -5.7989 C   0  0  0  0  0  0  0  0  0  0  0  0
  -22.6723  -39.5397   -5.9599 N   0  0  0  0  0  0  0  0  0  0  0  0
  -16.3937  -40.5524   -7.3749 C   0  0  2  0  0  0  0  0  0  0  0  0
  -15.3774  -39.7874   -6.8219 O   0  0  0  0  0  0  0  0  0  0  0  0
  -15.8746  -41.9684   -7.4858 C   0  0  0  0  0  0  0  0  0  0  0  0
  -14.4642  -42.0986   -7.3003 N   0  0  0  0  0  0  0  0  0  0  0  0
  -13.7884  -42.8309   -8.3264 C   0  0  0  0  0  0  0  0  0  0  0  0
  -14.5499  -43.9994   -8.8002 C   0  0  0  0  0  0  0  0  0  0  0  0
  -14.8452  -45.0129   -7.9205 C   0  0  0  0  0  0  0  0  0  0  0  0
  -15.5522  -46.1348   -8.3003 C   0  0  0  0  0  0  0  0  0  0  0  0
  -15.7437  -47.0332   -7.2697 O   0  0  0  0  0  0  0  0  0  0  0  0
  -16.6544  -48.1252   -7.2688 C   0  0  0  0  0  0  0  0  0  0  0  0
  -17.8617  -47.7732   -8.1020 C   0  0  0  0  0  0  0  0  0  0  0  0
  -17.6754  -48.1172   -9.5476 C   0  0  0  0  0  0  0  0  0  0  0  0
  -16.6963  -47.2975  -10.1586 O   0  0  0  0  0  0  0  0  0  0  0  0
  -15.9747  -46.2296   -9.6244 C   0  0  0  0  0  0  0  0  0  0  0  0
  -15.6923  -45.2363  -10.5113 C   0  0  0  0  0  0  0  0  0  0  0  0
  -14.9844  -44.1297  -10.0990 C   0  0  0  0  0  0  0  0  0  0  0  0
  1  2  1  0
  2  3  1  0
  3  4  1  0
  4  5  2  0
  5  6  1  0
  6  7  2  0
  7  8  1  0
  8  9  2  0
  8 10  1  0
 10 11  2  0
 10 12  1  0
 12 13  1  0
 13 14  1  1
 14 15  1  0
 15 16  1  1
 15 17  1  0
 17 18  1  0
 18 19  1  0
 19 20  1  0
 20 21  1  0
 21 22  1  0
 22 23  1  0
 23 24  1  0
 13 25  1  0
 25 26  1  6
 25 27  1  0
 27 28  1  0
 28 29  1  0
 29 30  1  0
 30 31  2  0
 31 32  1  0
 32 33  1  0
 33 34  1  0
 34 35  1  0
 35 36  1  0
 36 37  1  0
 37 38  1  0
 38 39  1  0
 39 40  2  0
  9  4  1  0
 24  6  1  0
 38 32  2  0
 40 30  1  0
M  END
$$$$
