
     RDKit          3D

 40 43  0  0  0  0  0  0  0  0999 V2000
  -22.2092  -41.8865   -4.1425 C   0  0  0  0  0  0  0  0  0  0  0  0
  -21.7680  -41.0798   -5.1621 O   0  0  0  0  0  0  0  0  0  0  0  0
  -22.4082  -41.2864   -6.3744 C   0  0  0  0  0  0  0  0  0  0  0  0
  -21.7375  -40.4567   -7.4075 C   0  0  0  0  0  0  0  0  0  0  0  0
  -22.2001  -39.2334   -7.7945 C   0  0  0  0  0  0  0  0  0  0  0  0
  -21.5725  -38.4216   -8.7808 C   0  0  0  0  0  0  0  0  0  0  0  0
  -20.4262  -38.8788   -9.3977 C   0  0  0  0  0  0  0  0  0  0  0  0
  -19.9262  -40.1108   -9.0328 C   0  0  0  0  0  0  0  0  0  0  0  0
  -20.5975  -40.8754   -8.0414 C   0  0  0  0  0  0  0  0  0  0  0  0
  -18.7367  -40.8625   -9.4939 C   0  0  0  0  0  0  0  0  0  0  0  0
  -18.8718  -42.1726   -9.6677 O   0  0  0  0  0  0  0  0  0  0  0  0
  -17.4275  -40.4867   -9.8041 N   0  0  0  0  0  0  0  0  0  0  0  0
  -16.5041  -39.6840   -9.0318 C   0  0  1  0  0  0  0  0  0  0  0  0
  -16.6233  -38.2216   -9.3198 C   0  0  0  0  0  0  0  0  0  0  0  0
  -16.0618  -37.8484  -10.6771 C   0  0  2  0  0  0  0  0  0  0  0  0
  -14.7405  -37.1800  -10.4453 C   0  0  0  0  0  0  0  0  0  0  0  0
  -17.0171  -37.0039  -11.4740 C   0  0  0  0  0  0  0  0  0  0  0  0
  -17.1976  -35.6242  -10.8466 C   0  0  0  0  0  0  0  0  0  0  0  0
  -18.3515  -34.8934  -11.4997 C   0  0  0  0  0  0  0  0  0  0  0  0
  -19.6251  -35.4944  -11.0254 C   0  0  0  0  0  0  0  0  0  0  0  0
  -20.7580  -34.5063  -10.8443 C   0  0  0  0  0  0  0  0  0  0  0  0
  -21.9753  -35.3567  -10.4570 C   0  0  0  0  0  0  0  0  0  0  0  0
  -21.9091  -35.8297   -9.0390 C   0  0  0  0  0  0  0  0  0  0  0  0
  -22.3220  -37.2170   -8.9295 N   0  0  0  0  0  0  0  0  0  0  0  0
  -16.5636  -39.9428   -7.5659 C   0  0  2  0  0  0  0  0  0  0  0  0
  -15.3916  -39.6860   -6.8700 O   0  0  0  0  0  0  0  0  0  0  0  0
  -16.9908  -41.3500   -7.2138 C   0  0  0  0  0  0  0  0  0  0  0  0
  -16.3337  -42.3735   -7.9628 N   0  0  0  0  0  0  0  0  0  0  0  0
  -16.1303  -43.5996   -7.2547 C   0  0  0  0  0  0  0  0  0  0  0  0
  -17.2182  -44.5719   -7.4573 C   0  0  0  0  0  0  0  0  0  0  0  0
  -18.1025  -44.8161   -6.4343 C   0  0  0  0  0  0  0  0  0  0  0  0
  -19.1410  -45.7156   -6.5579 C   0  0  0  0  0  0  0  0  0  0  0  0
  -19.9140  -45.8156   -5.4184 O   0  0  0  0  0  0  0  0  0  0  0  0
  -21.1938  -46.4283   -5.3256 C   0  0  0  0  0  0  0  0  0  0  0  0
  -21.9245  -46.2663   -6.6353 C   0  0  0  0  0  0  0  0  0  0  0  0
  -21.6234  -47.3750   -7.5959 C   0  0  0  0  0  0  0  0  0  0  0  0
  -20.2818  -47.3283   -8.0451 O   0  0  0  0  0  0  0  0  0  0  0  0
  -19.2856  -46.3919   -7.7671 C   0  0  0  0  0  0  0  0  0  0  0  0
  -18.4200  -46.1640   -8.7928 C   0  0  0  0  0  0  0  0  0  0  0  0
  -17.3940  -45.2593   -8.6359 C   0  0  0  0  0  0  0  0  0  0  0  0
  1  2  1  0
  2  3  1  0
  3  4  1  0
  4  5  2  0
  5  6  1  0
  6  7  2  0
  7  8  1  0
  8  9  2  0
  8 10  1  0
 10 11  2  0
 10 12  1  0
 12 13  1  0
 13 14  1  1
 14 15  1  0
 15 16  1  1
 15 17  1  0
 17 18  1  0
 18 19  1  0
 19 20  1  0
 20 21  1  0
 21 22  1  0
 22 23  1  0
 23 24  1  0
 13 25  1  0
 25 26  1  6
 25 27  1  0
 27 28  1  0
 28 29  1  0
 29 30  1  0
 30 31  2  0
 31 32  1  0
 32 33  1  0
 33 34  1  0
 34 35  1  0
 35 36  1  0
 36 37  1  0
 37 38  1  0
 38 39  1  0
 39 40  2  0
  9  4  1  0
 24  6  1  0
 38 32  2  0
 40 30  1  0
M  END
$$$$
