
     RDKit          3D

 40 43  0  0  0  0  0  0  0  0999 V2000
  -18.5072  -48.2340   -6.7316 C   0  0  0  0  0  0  0  0  0  0  0  0
  -18.0658  -46.9977   -6.3293 O   0  0  0  0  0  0  0  0  0  0  0  0
  -17.6946  -46.1561   -7.3666 C   0  0  0  0  0  0  0  0  0  0  0  0
  -18.5849  -44.9675   -7.3490 C   0  0  0  0  0  0  0  0  0  0  0  0
  -19.6453  -44.8452   -6.5000 C   0  0  0  0  0  0  0  0  0  0  0  0
  -20.5098  -43.7151   -6.4653 C   0  0  0  0  0  0  0  0  0  0  0  0
  -20.2824  -42.6679   -7.3342 C   0  0  0  0  0  0  0  0  0  0  0  0
  -19.2190  -42.7534   -8.2077 C   0  0  0  0  0  0  0  0  0  0  0  0
  -18.3910  -43.9077   -8.1950 C   0  0  0  0  0  0  0  0  0  0  0  0
  -18.7172  -41.8148   -9.2372 C   0  0  0  0  0  0  0  0  0  0  0  0
  -18.3118  -42.3338  -10.3910 O   0  0  0  0  0  0  0  0  0  0  0  0
  -18.5617  -40.4270   -9.2735 N   0  0  0  0  0  0  0  0  0  0  0  0
  -17.9284  -39.5568   -8.3065 C   0  0  1  0  0  0  0  0  0  0  0  0
  -18.8722  -39.0756   -7.2514 C   0  0  0  0  0  0  0  0  0  0  0  0
  -19.8529  -38.0453   -7.7742 C   0  0  2  0  0  0  0  0  0  0  0  0
  -19.4052  -36.7066   -7.2705 C   0  0  0  0  0  0  0  0  0  0  0  0
  -21.2722  -38.3709   -7.3994 C   0  0  0  0  0  0  0  0  0  0  0  0
  -21.4941  -38.2435   -5.8946 C   0  0  0  0  0  0  0  0  0  0  0  0
  -22.8359  -38.8278   -5.5069 C   0  0  0  0  0  0  0  0  0  0  0  0
  -22.7455  -40.3098   -5.5687 C   0  0  0  0  0  0  0  0  0  0  0  0
  -23.5482  -41.0337   -4.5085 C   0  0  0  0  0  0  0  0  0  0  0  0
  -23.3870  -42.5255   -4.8307 C   0  0  0  0  0  0  0  0  0  0  0  0
  -22.0411  -43.0485   -4.4383 C   0  0  0  0  0  0  0  0  0  0  0  0
  -21.5011  -43.9255   -5.4613 N   0  0  0  0  0  0  0  0  0  0  0  0
  -16.6978  -40.1325   -7.6953 C   0  0  2  0  0  0  0  0  0  0  0  0
  -16.3528  -39.6145   -6.4557 O   0  0  0  0  0  0  0  0  0  0  0  0
  -15.4742  -40.0273   -8.5777 C   0  0  0  0  0  0  0  0  0  0  0  0
  -15.2751  -41.1410   -9.4496 N   0  0  0  0  0  0  0  0  0  0  0  0
  -14.0772  -41.8851   -9.2098 C   0  0  0  0  0  0  0  0  0  0  0  0
  -13.0643  -41.7060  -10.2642 C   0  0  0  0  0  0  0  0  0  0  0  0
  -11.9245  -42.4732  -10.2405 C   0  0  0  0  0  0  0  0  0  0  0  0
  -10.9365  -42.3535  -11.1958 C   0  0  0  0  0  0  0  0  0  0  0  0
   -9.8754  -43.2131  -10.9931 O   0  0  0  0  0  0  0  0  0  0  0  0
   -8.8583  -43.5251  -11.9365 C   0  0  0  0  0  0  0  0  0  0  0  0
   -9.4298  -43.4614  -13.3310 C   0  0  0  0  0  0  0  0  0  0  0  0
   -9.3498  -42.0855  -13.9167 C   0  0  0  0  0  0  0  0  0  0  0  0
  -10.2090  -41.1811  -13.2477 O   0  0  0  0  0  0  0  0  0  0  0  0
  -11.1144  -41.4186  -12.2131 C   0  0  0  0  0  0  0  0  0  0  0  0
  -12.2365  -40.6490  -12.2543 C   0  0  0  0  0  0  0  0  0  0  0  0
  -13.2034  -40.7940  -11.2848 C   0  0  0  0  0  0  0  0  0  0  0  0
  1  2  1  0
  2  3  1  0
  3  4  1  0
  4  5  2  0
  5  6  1  0
  6  7  2  0
  7  8  1  0
  8  9  2  0
  8 10  1  0
 10 11  2  0
 10 12  1  0
 12 13  1  0
 13 14  1  1
 14 15  1  0
 15 16  1  1
 15 17  1  0
 17 18  1  0
 18 19  1  0
 19 20  1  0
 20 21  1  0
 21 22  1  0
 22 23  1  0
 23 24  1  0
 13 25  1  0
 25 26  1  1
 25 27  1  0
 27 28  1  0
 28 29  1  0
 29 30  1  0
 30 31  2  0
 31 32  1  0
 32 33  1  0
 33 34  1  0
 34 35  1  0
 35 36  1  0
 36 37  1  0
 37 38  1  0
 38 39  1  0
 39 40  2  0
  9  4  1  0
 24  6  1  0
 38 32  2  0
 40 30  1  0
M  END
$$$$
