
     RDKit          3D

 40 43  0  0  0  0  0  0  0  0999 V2000
  -16.2168  -45.9124   -6.0371 C   0  0  0  0  0  0  0  0  0  0  0  0
  -16.1839  -45.7941   -7.4046 O   0  0  0  0  0  0  0  0  0  0  0  0
  -17.3586  -46.1657   -8.0405 C   0  0  0  0  0  0  0  0  0  0  0  0
  -18.2795  -45.0006   -8.0446 C   0  0  0  0  0  0  0  0  0  0  0  0
  -19.4420  -44.9691   -7.3318 C   0  0  0  0  0  0  0  0  0  0  0  0
  -20.3378  -43.8631   -7.3204 C   0  0  0  0  0  0  0  0  0  0  0  0
  -20.0342  -42.7443   -8.0686 C   0  0  0  0  0  0  0  0  0  0  0  0
  -18.8668  -42.7372   -8.8022 C   0  0  0  0  0  0  0  0  0  0  0  0
  -18.0125  -43.8718   -8.7734 C   0  0  0  0  0  0  0  0  0  0  0  0
  -18.2676  -41.7082   -9.6823 C   0  0  0  0  0  0  0  0  0  0  0  0
  -17.7040  -42.1234  -10.8114 O   0  0  0  0  0  0  0  0  0  0  0  0
  -18.1509  -40.3191   -9.5899 N   0  0  0  0  0  0  0  0  0  0  0  0
  -17.6715  -39.5179   -8.4847 C   0  0  1  0  0  0  0  0  0  0  0  0
  -18.7553  -39.1431   -7.5252 C   0  0  0  0  0  0  0  0  0  0  0  0
  -19.6929  -38.0936   -8.0876 C   0  0  2  0  0  0  0  0  0  0  0  0
  -19.3532  -36.7915   -7.4277 C   0  0  0  0  0  0  0  0  0  0  0  0
  -21.1376  -38.4770   -7.9247 C   0  0  0  0  0  0  0  0  0  0  0  0
  -21.5517  -38.4769   -6.4556 C   0  0  0  0  0  0  0  0  0  0  0  0
  -22.9134  -39.1175   -6.2902 C   0  0  0  0  0  0  0  0  0  0  0  0
  -22.7711  -40.5875   -6.4554 C   0  0  0  0  0  0  0  0  0  0  0  0
  -23.6790  -41.4112   -5.5668 C   0  0  0  0  0  0  0  0  0  0  0  0
  -23.4333  -42.8683   -5.9811 C   0  0  0  0  0  0  0  0  0  0  0  0
  -22.1326  -43.3943   -5.4611 C   0  0  0  0  0  0  0  0  0  0  0  0
  -21.4412  -44.1743   -6.4715 N   0  0  0  0  0  0  0  0  0  0  0  0
  -16.5112  -40.1165   -7.7673 C   0  0  2  0  0  0  0  0  0  0  0  0
  -15.6006  -39.2075   -7.2493 O   0  0  0  0  0  0  0  0  0  0  0  0
  -15.7273  -41.1068   -8.5989 C   0  0  0  0  0  0  0  0  0  0  0  0
  -15.0015  -40.5260   -9.6835 N   0  0  0  0  0  0  0  0  0  0  0  0
  -13.8003  -39.8468   -9.3071 C   0  0  0  0  0  0  0  0  0  0  0  0
  -13.3529  -38.8644  -10.3094 C   0  0  0  0  0  0  0  0  0  0  0  0
  -12.0854  -38.9635  -10.8307 C   0  0  0  0  0  0  0  0  0  0  0  0
  -11.6041  -38.0753  -11.7700 C   0  0  0  0  0  0  0  0  0  0  0  0
  -10.3096  -38.3479  -12.1651 O   0  0  0  0  0  0  0  0  0  0  0  0
   -9.6472  -37.8015  -13.2985 C   0  0  0  0  0  0  0  0  0  0  0  0
  -10.6541  -37.5380  -14.3904 C   0  0  0  0  0  0  0  0  0  0  0  0
  -11.2733  -36.1791  -14.2777 C   0  0  0  0  0  0  0  0  0  0  0  0
  -12.1029  -36.0750  -13.1355 O   0  0  0  0  0  0  0  0  0  0  0  0
  -12.4433  -37.0478  -12.1951 C   0  0  0  0  0  0  0  0  0  0  0  0
  -13.7025  -36.9325  -11.6908 C   0  0  0  0  0  0  0  0  0  0  0  0
  -14.1516  -37.8364  -10.7543 C   0  0  0  0  0  0  0  0  0  0  0  0
  1  2  1  0
  2  3  1  0
  3  4  1  0
  4  5  2  0
  5  6  1  0
  6  7  2  0
  7  8  1  0
  8  9  2  0
  8 10  1  0
 10 11  2  0
 10 12  1  0
 12 13  1  0
 13 14  1  1
 14 15  1  0
 15 16  1  1
 15 17  1  0
 17 18  1  0
 18 19  1  0
 19 20  1  0
 20 21  1  0
 21 22  1  0
 22 23  1  0
 23 24  1  0
 13 25  1  0
 25 26  1  6
 25 27  1  0
 27 28  1  0
 28 29  1  0
 29 30  1  0
 30 31  2  0
 31 32  1  0
 32 33  1  0
 33 34  1  0
 34 35  1  0
 35 36  1  0
 36 37  1  0
 37 38  1  0
 38 39  1  0
 39 40  2  0
  9  4  1  0
 24  6  1  0
 38 32  2  0
 40 30  1  0
M  END
$$$$
