
     RDKit          3D

 40 43  0  0  0  0  0  0  0  0999 V2000
  -14.6027  -45.3570  -11.6364 C   0  0  0  0  0  0  0  0  0  0  0  0
  -15.8803  -44.8640  -11.5381 O   0  0  0  0  0  0  0  0  0  0  0  0
  -16.5913  -45.3283  -10.4421 C   0  0  0  0  0  0  0  0  0  0  0  0
  -17.6308  -44.3254  -10.0970 C   0  0  0  0  0  0  0  0  0  0  0  0
  -18.7928  -44.6479   -9.4598 C   0  0  0  0  0  0  0  0  0  0  0  0
  -19.8011  -43.7031   -9.1185 C   0  0  0  0  0  0  0  0  0  0  0  0
  -19.6151  -42.3749   -9.4425 C   0  0  0  0  0  0  0  0  0  0  0  0
  -18.4521  -42.0087  -10.0863 C   0  0  0  0  0  0  0  0  0  0  0  0
  -17.4822  -42.9979  -10.4007 C   0  0  0  0  0  0  0  0  0  0  0  0
  -17.9622  -40.6916  -10.5528 C   0  0  0  0  0  0  0  0  0  0  0  0
  -17.3532  -40.6495  -11.7327 O   0  0  0  0  0  0  0  0  0  0  0  0
  -17.9941  -39.4081  -10.0020 N   0  0  0  0  0  0  0  0  0  0  0  0
  -17.6069  -38.9771   -8.6762 C   0  0  1  0  0  0  0  0  0  0  0  0
  -18.7282  -39.0520   -7.6899 C   0  0  0  0  0  0  0  0  0  0  0  0
  -19.7697  -37.9733   -7.9101 C   0  0  2  0  0  0  0  0  0  0  0  0
  -19.5728  -36.9383   -6.8441 C   0  0  0  0  0  0  0  0  0  0  0  0
  -21.1662  -38.5300   -7.9397 C   0  0  0  0  0  0  0  0  0  0  0  0
  -21.5838  -39.0597   -6.5704 C   0  0  0  0  0  0  0  0  0  0  0  0
  -22.8703  -39.8501   -6.6794 C   0  0  0  0  0  0  0  0  0  0  0  0
  -22.5720  -41.1596   -7.3154 C   0  0  0  0  0  0  0  0  0  0  0  0
  -23.3908  -42.3176   -6.7851 C   0  0  0  0  0  0  0  0  0  0  0  0
  -22.9900  -43.5219   -7.6478 C   0  0  0  0  0  0  0  0  0  0  0  0
  -21.6429  -44.0596   -7.2804 C   0  0  0  0  0  0  0  0  0  0  0  0
  -20.8686  -44.3865   -8.4640 N   0  0  0  0  0  0  0  0  0  0  0  0
  -16.3924  -39.6625   -8.1522 C   0  0  2  0  0  0  0  0  0  0  0  0
  -15.5626  -38.8791   -7.3637 O   0  0  0  0  0  0  0  0  0  0  0  0
  -15.5296  -40.2792   -9.2301 C   0  0  0  0  0  0  0  0  0  0  0  0
  -16.2397  -41.0964  -10.1621 N   0  0  0  0  0  0  0  0  0  0  0  0
  -15.6463  -42.3729  -10.4157 C   0  0  0  0  0  0  0  0  0  0  0  0
  -15.4903  -43.1900   -9.2000 C   0  0  0  0  0  0  0  0  0  0  0  0
  -16.5562  -43.9263   -8.7418 C   0  0  0  0  0  0  0  0  0  0  0  0
  -16.4773  -44.7097   -7.6092 C   0  0  0  0  0  0  0  0  0  0  0  0
  -17.6554  -45.3684   -7.3188 O   0  0  0  0  0  0  0  0  0  0  0  0
  -17.8091  -46.4453   -6.4031 C   0  0  0  0  0  0  0  0  0  0  0  0
  -16.5427  -47.2644   -6.3736 C   0  0  0  0  0  0  0  0  0  0  0  0
  -15.5534  -46.7470   -5.3754 C   0  0  0  0  0  0  0  0  0  0  0  0
  -15.0333  -45.4874   -5.7587 O   0  0  0  0  0  0  0  0  0  0  0  0
  -15.2691  -44.7457   -6.9165 C   0  0  0  0  0  0  0  0  0  0  0  0
  -14.2014  -44.0234   -7.3542 C   0  0  0  0  0  0  0  0  0  0  0  0
  -14.3142  -43.2516   -8.4888 C   0  0  0  0  0  0  0  0  0  0  0  0
  1  2  1  0
  2  3  1  0
  3  4  1  0
  4  5  2  0
  5  6  1  0
  6  7  2  0
  7  8  1  0
  8  9  2  0
  8 10  1  0
 10 11  2  0
 10 12  1  0
 12 13  1  0
 13 14  1  1
 14 15  1  0
 15 16  1  1
 15 17  1  0
 17 18  1  0
 18 19  1  0
 19 20  1  0
 20 21  1  0
 21 22  1  0
 22 23  1  0
 23 24  1  0
 13 25  1  0
 25 26  1  6
 25 27  1  0
 27 28  1  0
 28 29  1  0
 29 30  1  0
 30 31  2  0
 31 32  1  0
 32 33  1  0
 33 34  1  0
 34 35  1  0
 35 36  1  0
 36 37  1  0
 37 38  1  0
 38 39  1  0
 39 40  2  0
  9  4  1  0
 24  6  1  0
 38 32  2  0
 40 30  1  0
M  END
$$$$
