
     RDKit          3D

 40 43  0  0  0  0  0  0  0  0999 V2000
  -17.7623  -44.3199  -11.5128 C   0  0  0  0  0  0  0  0  0  0  0  0
  -16.4582  -44.1579  -11.1153 O   0  0  0  0  0  0  0  0  0  0  0  0
  -15.5549  -44.0145  -12.1572 C   0  0  0  0  0  0  0  0  0  0  0  0
  -14.8131  -42.7425  -11.9644 C   0  0  0  0  0  0  0  0  0  0  0  0
  -14.2380  -42.0538  -12.9917 C   0  0  0  0  0  0  0  0  0  0  0  0
  -13.5244  -40.8331  -12.8294 C   0  0  0  0  0  0  0  0  0  0  0  0
  -13.3918  -40.2947  -11.5661 C   0  0  0  0  0  0  0  0  0  0  0  0
  -13.9604  -40.9609  -10.5012 C   0  0  0  0  0  0  0  0  0  0  0  0
  -14.6610  -42.1760  -10.7263 C   0  0  0  0  0  0  0  0  0  0  0  0
  -13.9992  -40.6460   -9.0549 C   0  0  0  0  0  0  0  0  0  0  0  0
  -13.8360  -41.6547   -8.2058 O   0  0  0  0  0  0  0  0  0  0  0  0
  -14.1812  -39.4613   -8.3373 N   0  0  0  0  0  0  0  0  0  0  0  0
  -15.2100  -38.4552   -8.4879 C   0  0  1  0  0  0  0  0  0  0  0  0
  -14.8450  -37.3935   -9.4754 C   0  0  0  0  0  0  0  0  0  0  0  0
  -13.7785  -36.4532   -8.9509 C   0  0  2  0  0  0  0  0  0  0  0  0
  -14.4574  -35.1685   -8.5833 C   0  0  0  0  0  0  0  0  0  0  0  0
  -12.6546  -36.2655   -9.9320 C   0  0  0  0  0  0  0  0  0  0  0  0
  -13.1200  -35.5106  -11.1743 C   0  0  0  0  0  0  0  0  0  0  0  0
  -12.0606  -35.5661  -12.2543 C   0  0  0  0  0  0  0  0  0  0  0  0
  -12.0524  -36.9303  -12.8435 C   0  0  0  0  0  0  0  0  0  0  0  0
  -11.7658  -36.9721  -14.3296 C   0  0  0  0  0  0  0  0  0  0  0  0
  -11.7068  -38.4636  -14.6861 C   0  0  0  0  0  0  0  0  0  0  0  0
  -13.0653  -39.0886  -14.7383 C   0  0  0  0  0  0  0  0  0  0  0  0
  -13.0653  -40.3959  -14.1074 N   0  0  0  0  0  0  0  0  0  0  0  0
  -16.5587  -39.0146   -8.7841 C   0  0  2  0  0  0  0  0  0  0  0  0
  -17.4769  -38.1098   -9.2962 O   0  0  0  0  0  0  0  0  0  0  0  0
  -17.2116  -39.6879   -7.5979 C   0  0  0  0  0  0  0  0  0  0  0  0
  -17.7763  -40.9691   -7.8808 N   0  0  0  0  0  0  0  0  0  0  0  0
  -18.5543  -41.5302   -6.8197 C   0  0  0  0  0  0  0  0  0  0  0  0
  -19.9418  -41.0363   -6.7961 C   0  0  0  0  0  0  0  0  0  0  0  0
  -20.7105  -41.2405   -5.6756 C   0  0  0  0  0  0  0  0  0  0  0  0
  -22.0169  -40.8057   -5.5896 C   0  0  0  0  0  0  0  0  0  0  0  0
  -22.6140  -41.1092   -4.3825 O   0  0  0  0  0  0  0  0  0  0  0  0
  -23.8299  -40.5619   -3.8885 C   0  0  0  0  0  0  0  0  0  0  0  0
  -23.9860  -39.1486   -4.3924 C   0  0  0  0  0  0  0  0  0  0  0  0
  -24.6694  -39.0912   -5.7237 C   0  0  0  0  0  0  0  0  0  0  0  0
  -23.8633  -39.6400   -6.7498 O   0  0  0  0  0  0  0  0  0  0  0  0
  -22.5618  -40.1382   -6.6843 C   0  0  0  0  0  0  0  0  0  0  0  0
  -21.8166  -39.9259   -7.8036 C   0  0  0  0  0  0  0  0  0  0  0  0
  -20.5154  -40.3731   -7.8562 C   0  0  0  0  0  0  0  0  0  0  0  0
  1  2  1  0
  2  3  1  0
  3  4  1  0
  4  5  2  0
  5  6  1  0
  6  7  2  0
  7  8  1  0
  8  9  2  0
  8 10  1  0
 10 11  2  0
 10 12  1  0
 12 13  1  0
 13 14  1  6
 14 15  1  0
 15 16  1  6
 15 17  1  0
 17 18  1  0
 18 19  1  0
 19 20  1  0
 20 21  1  0
 21 22  1  0
 22 23  1  0
 23 24  1  0
 13 25  1  0
 25 26  1  1
 25 27  1  0
 27 28  1  0
 28 29  1  0
 29 30  1  0
 30 31  2  0
 31 32  1  0
 32 33  1  0
 33 34  1  0
 34 35  1  0
 35 36  1  0
 36 37  1  0
 37 38  1  0
 38 39  1  0
 39 40  2  0
  9  4  1  0
 24  6  1  0
 38 32  2  0
 40 30  1  0
M  END
$$$$
