
     RDKit          3D

 40 43  0  0  0  0  0  0  0  0999 V2000
  -23.5565  -38.4394  -10.4713 C   0  0  0  0  0  0  0  0  0  0  0  0
  -22.5170  -38.4598   -9.5747 O   0  0  0  0  0  0  0  0  0  0  0  0
  -21.9563  -37.2179   -9.3188 C   0  0  0  0  0  0  0  0  0  0  0  0
  -20.5651  -37.2143   -9.8386 C   0  0  0  0  0  0  0  0  0  0  0  0
  -20.0024  -36.1325  -10.4498 C   0  0  0  0  0  0  0  0  0  0  0  0
  -18.6715  -36.1071  -10.9536 C   0  0  0  0  0  0  0  0  0  0  0  0
  -17.8839  -37.2329  -10.8291 C   0  0  0  0  0  0  0  0  0  0  0  0
  -18.4165  -38.3470  -10.2157 C   0  0  0  0  0  0  0  0  0  0  0  0
  -19.7520  -38.3117   -9.7328 C   0  0  0  0  0  0  0  0  0  0  0  0
  -17.8382  -39.6796   -9.9289 C   0  0  0  0  0  0  0  0  0  0  0  0
  -18.6211  -40.7373  -10.1115 O   0  0  0  0  0  0  0  0  0  0  0  0
  -16.5842  -40.1033   -9.4819 N   0  0  0  0  0  0  0  0  0  0  0  0
  -15.8132  -39.6299   -8.3528 C   0  0  1  0  0  0  0  0  0  0  0  0
  -14.9173  -38.4842   -8.6998 C   0  0  0  0  0  0  0  0  0  0  0  0
  -13.7281  -38.9088   -9.5378 C   0  0  2  0  0  0  0  0  0  0  0  0
  -12.5287  -38.9171   -8.6392 C   0  0  0  0  0  0  0  0  0  0  0  0
  -13.5488  -38.0388  -10.7511 C   0  0  0  0  0  0  0  0  0  0  0  0
  -13.1379  -36.6207  -10.3638 C   0  0  0  0  0  0  0  0  0  0  0  0
  -13.2237  -35.6996  -11.5622 C   0  0  0  0  0  0  0  0  0  0  0  0
  -14.6553  -35.4201  -11.8462 C   0  0  0  0  0  0  0  0  0  0  0  0
  -14.9359  -34.0175  -12.3428 C   0  0  0  0  0  0  0  0  0  0  0  0
  -16.4369  -33.9965  -12.6618 C   0  0  0  0  0  0  0  0  0  0  0  0
  -17.2786  -33.9312  -11.4263 C   0  0  0  0  0  0  0  0  0  0  0  0
  -18.4199  -34.8231  -11.5221 N   0  0  0  0  0  0  0  0  0  0  0  0
  -16.6370  -39.3147   -7.1523 C   0  0  2  0  0  0  0  0  0  0  0  0
  -15.9211  -38.9763   -6.0135 O   0  0  0  0  0  0  0  0  0  0  0  0
  -17.5938  -40.4197   -6.7643 C   0  0  0  0  0  0  0  0  0  0  0  0
  -18.9660  -40.0256   -6.7168 N   0  0  0  0  0  0  0  0  0  0  0  0
  -19.9030  -41.1053   -6.7639 C   0  0  0  0  0  0  0  0  0  0  0  0
  -20.6307  -41.2953   -5.4974 C   0  0  0  0  0  0  0  0  0  0  0  0
  -20.2607  -42.3153   -4.6544 C   0  0  0  0  0  0  0  0  0  0  0  0
  -20.9019  -42.5490   -3.4556 C   0  0  0  0  0  0  0  0  0  0  0  0
  -20.3792  -43.6192   -2.7574 O   0  0  0  0  0  0  0  0  0  0  0  0
  -20.6283  -43.9309   -1.3926 C   0  0  0  0  0  0  0  0  0  0  0  0
  -20.8562  -42.6558   -0.6194 C   0  0  0  0  0  0  0  0  0  0  0  0
  -22.2918  -42.2300   -0.6343 C   0  0  0  0  0  0  0  0  0  0  0  0
  -22.7033  -41.8219   -1.9258 O   0  0  0  0  0  0  0  0  0  0  0  0
  -21.9590  -41.7139   -3.1008 C   0  0  0  0  0  0  0  0  0  0  0  0
  -22.3408  -40.6977   -3.9222 C   0  0  0  0  0  0  0  0  0  0  0  0
  -21.6791  -40.4921   -5.1120 C   0  0  0  0  0  0  0  0  0  0  0  0
  1  2  1  0
  2  3  1  0
  3  4  1  0
  4  5  2  0
  5  6  1  0
  6  7  2  0
  7  8  1  0
  8  9  2  0
  8 10  1  0
 10 11  2  0
 10 12  1  0
 12 13  1  0
 13 14  1  6
 14 15  1  0
 15 16  1  1
 15 17  1  0
 17 18  1  0
 18 19  1  0
 19 20  1  0
 20 21  1  0
 21 22  1  0
 22 23  1  0
 23 24  1  0
 13 25  1  0
 25 26  1  1
 25 27  1  0
 27 28  1  0
 28 29  1  0
 29 30  1  0
 30 31  2  0
 31 32  1  0
 32 33  1  0
 33 34  1  0
 34 35  1  0
 35 36  1  0
 36 37  1  0
 37 38  1  0
 38 39  1  0
 39 40  2  0
  9  4  1  0
 24  6  1  0
 38 32  2  0
 40 30  1  0
M  END
$$$$
