
     RDKit          3D

 40 43  0  0  0  0  0  0  0  0999 V2000
  -14.9038  -45.6486   -6.8751 C   0  0  0  0  0  0  0  0  0  0  0  0
  -16.2253  -45.7772   -6.5257 O   0  0  0  0  0  0  0  0  0  0  0  0
  -17.0730  -46.0633   -7.5848 C   0  0  0  0  0  0  0  0  0  0  0  0
  -18.1004  -44.9940   -7.6665 C   0  0  0  0  0  0  0  0  0  0  0  0
  -19.2789  -45.0410   -6.9814 C   0  0  0  0  0  0  0  0  0  0  0  0
  -20.2759  -44.0273   -7.0441 C   0  0  0  0  0  0  0  0  0  0  0  0
  -20.0608  -42.9211   -7.8401 C   0  0  0  0  0  0  0  0  0  0  0  0
  -18.8806  -42.8361   -8.5479 C   0  0  0  0  0  0  0  0  0  0  0  0
  -17.9231  -43.8804   -8.4444 C   0  0  0  0  0  0  0  0  0  0  0  0
  -18.3593  -41.7969   -9.4648 C   0  0  0  0  0  0  0  0  0  0  0  0
  -17.7293  -42.2088  -10.5596 O   0  0  0  0  0  0  0  0  0  0  0  0
  -18.3779  -40.4003   -9.4389 N   0  0  0  0  0  0  0  0  0  0  0  0
  -18.0062  -39.5051   -8.3646 C   0  0  1  0  0  0  0  0  0  0  0  0
  -19.1455  -39.1917   -7.4485 C   0  0  0  0  0  0  0  0  0  0  0  0
  -20.1637  -38.2653   -8.0824 C   0  0  2  0  0  0  0  0  0  0  0  0
  -19.9670  -36.9068   -7.4806 C   0  0  0  0  0  0  0  0  0  0  0  0
  -21.5692  -38.7781   -7.9319 C   0  0  0  0  0  0  0  0  0  0  0  0
  -22.0197  -38.7484   -6.4738 C   0  0  0  0  0  0  0  0  0  0  0  0
  -23.3181  -39.5089   -6.3063 C   0  0  0  0  0  0  0  0  0  0  0  0
  -23.0321  -40.9644   -6.3953 C   0  0  0  0  0  0  0  0  0  0  0  0
  -23.8804  -41.8289   -5.4867 C   0  0  0  0  0  0  0  0  0  0  0  0
  -23.4862  -43.2735   -5.8228 C   0  0  0  0  0  0  0  0  0  0  0  0
  -22.1553  -43.6464   -5.2495 C   0  0  0  0  0  0  0  0  0  0  0  0
  -21.3666  -44.4029   -6.2049 N   0  0  0  0  0  0  0  0  0  0  0  0
  -16.8133  -39.9545   -7.5936 C   0  0  2  0  0  0  0  0  0  0  0  0
  -16.2085  -38.9793   -6.8144 O   0  0  0  0  0  0  0  0  0  0  0  0
  -15.7321  -40.5723   -8.4516 C   0  0  0  0  0  0  0  0  0  0  0  0
  -15.2204  -39.7118   -9.4705 N   0  0  0  0  0  0  0  0  0  0  0  0
  -14.9737  -40.3491  -10.7270 C   0  0  0  0  0  0  0  0  0  0  0  0
  -13.5425  -40.5818  -10.9864 C   0  0  0  0  0  0  0  0  0  0  0  0
  -12.9344  -41.6948  -10.4576 C   0  0  0  0  0  0  0  0  0  0  0  0
  -11.5979  -41.9699  -10.6604 C   0  0  0  0  0  0  0  0  0  0  0  0
  -11.1816  -43.1338  -10.0456 O   0  0  0  0  0  0  0  0  0  0  0  0
   -9.9629  -43.8228  -10.2945 C   0  0  0  0  0  0  0  0  0  0  0  0
   -9.5620  -43.6298  -11.7359 C   0  0  0  0  0  0  0  0  0  0  0  0
   -8.7375  -42.3960  -11.9370 C   0  0  0  0  0  0  0  0  0  0  0  0
   -9.4954  -41.2195  -11.7237 O   0  0  0  0  0  0  0  0  0  0  0  0
  -10.8521  -41.0798  -11.4299 C   0  0  0  0  0  0  0  0  0  0  0  0
  -11.4361  -39.9715  -11.9627 C   0  0  0  0  0  0  0  0  0  0  0  0
  -12.7727  -39.7268  -11.7407 C   0  0  0  0  0  0  0  0  0  0  0  0
  1  2  1  0
  2  3  1  0
  3  4  1  0
  4  5  2  0
  5  6  1  0
  6  7  2  0
  7  8  1  0
  8  9  2  0
  8 10  1  0
 10 11  2  0
 10 12  1  0
 12 13  1  0
 13 14  1  1
 14 15  1  0
 15 16  1  1
 15 17  1  0
 17 18  1  0
 18 19  1  0
 19 20  1  0
 20 21  1  0
 21 22  1  0
 22 23  1  0
 23 24  1  0
 13 25  1  0
 25 26  1  6
 25 27  1  0
 27 28  1  0
 28 29  1  0
 29 30  1  0
 30 31  2  0
 31 32  1  0
 32 33  1  0
 33 34  1  0
 34 35  1  0
 35 36  1  0
 36 37  1  0
 37 38  1  0
 38 39  1  0
 39 40  2  0
  9  4  1  0
 24  6  1  0
 38 32  2  0
 40 30  1  0
M  END
$$$$
