
     RDKit          3D

 40 43  0  0  0  0  0  0  0  0999 V2000
  -13.8910  -40.3697  -12.9513 C   0  0  0  0  0  0  0  0  0  0  0  0
  -15.1086  -39.8973  -12.5277 O   0  0  0  0  0  0  0  0  0  0  0  0
  -16.1900  -40.6764  -12.9092 C   0  0  0  0  0  0  0  0  0  0  0  0
  -17.3561  -40.3065  -12.0671 C   0  0  0  0  0  0  0  0  0  0  0  0
  -18.5731  -40.9128  -12.1746 C   0  0  0  0  0  0  0  0  0  0  0  0
  -19.7027  -40.5751  -11.3772 C   0  0  0  0  0  0  0  0  0  0  0  0
  -19.5844  -39.5766  -10.4324 C   0  0  0  0  0  0  0  0  0  0  0  0
  -18.3692  -38.9404  -10.2925 C   0  0  0  0  0  0  0  0  0  0  0  0
  -17.2777  -39.3218  -11.1180 C   0  0  0  0  0  0  0  0  0  0  0  0
  -17.9280  -37.8568   -9.3849 C   0  0  0  0  0  0  0  0  0  0  0  0
  -17.1416  -36.9153   -9.8949 O   0  0  0  0  0  0  0  0  0  0  0  0
  -18.1618  -37.5838   -8.0349 N   0  0  0  0  0  0  0  0  0  0  0  0
  -18.0346  -38.4637   -6.8934 C   0  0  1  0  0  0  0  0  0  0  0  0
  -19.2900  -39.2209   -6.6001 C   0  0  0  0  0  0  0  0  0  0  0  0
  -20.3729  -38.3435   -6.0048 C   0  0  2  0  0  0  0  0  0  0  0  0
  -20.4437  -38.6534   -4.5401 C   0  0  0  0  0  0  0  0  0  0  0  0
  -21.6915  -38.5137   -6.7071 C   0  0  0  0  0  0  0  0  0  0  0  0
  -22.2775  -39.9018   -6.4630 C   0  0  0  0  0  0  0  0  0  0  0  0
  -23.4546  -40.1478   -7.3827 C   0  0  0  0  0  0  0  0  0  0  0  0
  -22.9428  -40.3882   -8.7570 C   0  0  0  0  0  0  0  0  0  0  0  0
  -23.7316  -41.4064   -9.5530 C   0  0  0  0  0  0  0  0  0  0  0  0
  -23.0915  -41.4100  -10.9477 C   0  0  0  0  0  0  0  0  0  0  0  0
  -21.7798  -42.1296  -10.9682 C   0  0  0  0  0  0  0  0  0  0  0  0
  -20.7979  -41.4070  -11.7561 N   0  0  0  0  0  0  0  0  0  0  0  0
  -16.8656  -39.3839   -6.9714 C   0  0  2  0  0  0  0  0  0  0  0  0
  -16.1367  -39.5179   -5.7989 O   0  0  0  0  0  0  0  0  0  0  0  0
  -15.8851  -39.0299   -8.0669 C   0  0  0  0  0  0  0  0  0  0  0  0
  -14.6128  -39.6691   -7.9524 N   0  0  0  0  0  0  0  0  0  0  0  0
  -13.6643  -39.3036   -8.9588 C   0  0  0  0  0  0  0  0  0  0  0  0
  -13.4203  -40.3749   -9.9399 C   0  0  0  0  0  0  0  0  0  0  0  0
  -12.8122  -41.5372   -9.5309 C   0  0  0  0  0  0  0  0  0  0  0  0
  -12.5528  -42.5774  -10.3990 C   0  0  0  0  0  0  0  0  0  0  0  0
  -11.9371  -43.6536   -9.7917 O   0  0  0  0  0  0  0  0  0  0  0  0
  -11.7993  -44.9584  -10.3397 C   0  0  0  0  0  0  0  0  0  0  0  0
  -12.9822  -45.2585  -11.2263 C   0  0  0  0  0  0  0  0  0  0  0  0
  -12.7676  -44.8008  -12.6360 C   0  0  0  0  0  0  0  0  0  0  0  0
  -12.7320  -43.3886  -12.7280 O   0  0  0  0  0  0  0  0  0  0  0  0
  -12.9259  -42.4300  -11.7331 C   0  0  0  0  0  0  0  0  0  0  0  0
  -13.5296  -41.2862  -12.1581 C   0  0  0  0  0  0  0  0  0  0  0  0
  -13.7739  -40.2671  -11.2650 C   0  0  0  0  0  0  0  0  0  0  0  0
  1  2  1  0
  2  3  1  0
  3  4  1  0
  4  5  2  0
  5  6  1  0
  6  7  2  0
  7  8  1  0
  8  9  2  0
  8 10  1  0
 10 11  2  0
 10 12  1  0
 12 13  1  0
 13 14  1  6
 14 15  1  0
 15 16  1  1
 15 17  1  0
 17 18  1  0
 18 19  1  0
 19 20  1  0
 20 21  1  0
 21 22  1  0
 22 23  1  0
 23 24  1  0
 13 25  1  0
 25 26  1  1
 25 27  1  0
 27 28  1  0
 28 29  1  0
 29 30  1  0
 30 31  2  0
 31 32  1  0
 32 33  1  0
 33 34  1  0
 34 35  1  0
 35 36  1  0
 36 37  1  0
 37 38  1  0
 38 39  1  0
 39 40  2  0
  9  4  1  0
 24  6  1  0
 38 32  2  0
 40 30  1  0
M  END
$$$$
