
     RDKit          3D

 40 43  0  0  0  0  0  0  0  0999 V2000
  -16.1117  -46.4401   -5.8178 C   0  0  0  0  0  0  0  0  0  0  0  0
  -16.0038  -45.5800   -6.8825 O   0  0  0  0  0  0  0  0  0  0  0  0
  -16.9040  -45.8222   -7.9086 C   0  0  0  0  0  0  0  0  0  0  0  0
  -17.9490  -44.7674   -7.8758 C   0  0  0  0  0  0  0  0  0  0  0  0
  -19.0783  -44.8627   -7.1168 C   0  0  0  0  0  0  0  0  0  0  0  0
  -20.0910  -43.8638   -7.0694 C   0  0  0  0  0  0  0  0  0  0  0  0
  -19.9447  -42.7216   -7.8292 C   0  0  0  0  0  0  0  0  0  0  0  0
  -18.8157  -42.5873   -8.6093 C   0  0  0  0  0  0  0  0  0  0  0  0
  -17.8393  -43.6192   -8.6148 C   0  0  0  0  0  0  0  0  0  0  0  0
  -18.3711  -41.5018   -9.5129 C   0  0  0  0  0  0  0  0  0  0  0  0
  -17.8102  -41.8566  -10.6638 O   0  0  0  0  0  0  0  0  0  0  0  0
  -18.4070  -40.1080   -9.4254 N   0  0  0  0  0  0  0  0  0  0  0  0
  -17.9764  -39.2531   -8.3404 C   0  0  1  0  0  0  0  0  0  0  0  0
  -19.0561  -38.9975   -7.3380 C   0  0  0  0  0  0  0  0  0  0  0  0
  -20.1269  -38.0620   -7.8624 C   0  0  2  0  0  0  0  0  0  0  0  0
  -19.9089  -36.7271   -7.2167 C   0  0  0  0  0  0  0  0  0  0  0  0
  -21.5120  -38.6038   -7.6414 C   0  0  0  0  0  0  0  0  0  0  0  0
  -21.8644  -38.6432   -6.1568 C   0  0  0  0  0  0  0  0  0  0  0  0
  -23.1381  -39.4313   -5.9367 C   0  0  0  0  0  0  0  0  0  0  0  0
  -22.8389  -40.8769   -6.1073 C   0  0  0  0  0  0  0  0  0  0  0  0
  -23.6127  -41.7929   -5.1828 C   0  0  0  0  0  0  0  0  0  0  0  0
  -23.2223  -43.2152   -5.6065 C   0  0  0  0  0  0  0  0  0  0  0  0
  -21.8511  -43.5901   -5.1393 C   0  0  0  0  0  0  0  0  0  0  0  0
  -21.1178  -44.2925   -6.1767 N   0  0  0  0  0  0  0  0  0  0  0  0
  -16.7286  -39.7150   -7.6702 C   0  0  2  0  0  0  0  0  0  0  0  0
  -16.3664  -39.0042   -6.5356 O   0  0  0  0  0  0  0  0  0  0  0  0
  -15.5227  -39.7416   -8.5823 C   0  0  0  0  0  0  0  0  0  0  0  0
  -14.8196  -40.9849   -8.5985 N   0  0  0  0  0  0  0  0  0  0  0  0
  -13.4172  -40.8785   -8.8598 C   0  0  0  0  0  0  0  0  0  0  0  0
  -13.0946  -40.8827  -10.2970 C   0  0  0  0  0  0  0  0  0  0  0  0
  -11.8143  -41.1780  -10.6991 C   0  0  0  0  0  0  0  0  0  0  0  0
  -11.4459  -41.1967  -12.0283 C   0  0  0  0  0  0  0  0  0  0  0  0
  -10.1166  -41.5156  -12.2211 O   0  0  0  0  0  0  0  0  0  0  0  0
   -9.5145  -41.8858  -13.4549 C   0  0  0  0  0  0  0  0  0  0  0  0
  -10.5231  -42.6150  -14.3073 C   0  0  0  0  0  0  0  0  0  0  0  0
  -11.3366  -41.6820  -15.1502 C   0  0  0  0  0  0  0  0  0  0  0  0
  -12.1992  -40.8825  -14.3624 O   0  0  0  0  0  0  0  0  0  0  0  0
  -12.4160  -40.9040  -12.9844 C   0  0  0  0  0  0  0  0  0  0  0  0
  -13.6900  -40.6090  -12.6064 C   0  0  0  0  0  0  0  0  0  0  0  0
  -14.0242  -40.5992  -11.2707 C   0  0  0  0  0  0  0  0  0  0  0  0
  1  2  1  0
  2  3  1  0
  3  4  1  0
  4  5  2  0
  5  6  1  0
  6  7  2  0
  7  8  1  0
  8  9  2  0
  8 10  1  0
 10 11  2  0
 10 12  1  0
 12 13  1  0
 13 14  1  1
 14 15  1  0
 15 16  1  1
 15 17  1  0
 17 18  1  0
 18 19  1  0
 19 20  1  0
 20 21  1  0
 21 22  1  0
 22 23  1  0
 23 24  1  0
 13 25  1  0
 25 26  1  1
 25 27  1  0
 27 28  1  0
 28 29  1  0
 29 30  1  0
 30 31  2  0
 31 32  1  0
 32 33  1  0
 33 34  1  0
 34 35  1  0
 35 36  1  0
 36 37  1  0
 37 38  1  0
 38 39  1  0
 39 40  2  0
  9  4  1  0
 24  6  1  0
 38 32  2  0
 40 30  1  0
M  END
$$$$
