
     RDKit          3D

 40 43  0  0  0  0  0  0  0  0999 V2000
  -13.8911  -45.8016  -10.1726 C   0  0  0  0  0  0  0  0  0  0  0  0
  -14.8595  -45.0080   -9.6091 O   0  0  0  0  0  0  0  0  0  0  0  0
  -15.6221  -45.6370   -8.6370 C   0  0  0  0  0  0  0  0  0  0  0  0
  -16.8200  -44.8020   -8.3662 C   0  0  0  0  0  0  0  0  0  0  0  0
  -17.8008  -45.1698   -7.4926 C   0  0  0  0  0  0  0  0  0  0  0  0
  -18.9556  -44.3847   -7.2173 C   0  0  0  0  0  0  0  0  0  0  0  0
  -19.1155  -43.1752   -7.8616 C   0  0  0  0  0  0  0  0  0  0  0  0
  -18.1446  -42.7676   -8.7518 C   0  0  0  0  0  0  0  0  0  0  0  0
  -17.0138  -43.5953   -8.9850 C   0  0  0  0  0  0  0  0  0  0  0  0
  -18.0234  -41.5460   -9.5797 C   0  0  0  0  0  0  0  0  0  0  0  0
  -17.5723  -41.6918  -10.8208 O   0  0  0  0  0  0  0  0  0  0  0  0
  -18.2887  -40.1958   -9.3389 N   0  0  0  0  0  0  0  0  0  0  0  0
  -17.8689  -39.3703   -8.2272 C   0  0  1  0  0  0  0  0  0  0  0  0
  -18.8290  -39.4057   -7.0815 C   0  0  0  0  0  0  0  0  0  0  0  0
  -20.1077  -38.6453   -7.3704 C   0  0  2  0  0  0  0  0  0  0  0  0
  -20.0388  -37.3524   -6.6154 C   0  0  0  0  0  0  0  0  0  0  0  0
  -21.3341  -39.4523   -7.0454 C   0  0  0  0  0  0  0  0  0  0  0  0
  -21.4676  -39.6818   -5.5423 C   0  0  0  0  0  0  0  0  0  0  0  0
  -22.5426  -40.7092   -5.2580 C   0  0  0  0  0  0  0  0  0  0  0  0
  -22.0230  -42.0541   -5.6179 C   0  0  0  0  0  0  0  0  0  0  0  0
  -22.4918  -43.1728   -4.7118 C   0  0  0  0  0  0  0  0  0  0  0  0
  -21.9217  -44.4566   -5.3299 C   0  0  0  0  0  0  0  0  0  0  0  0
  -20.4554  -44.6075   -5.0728 C   0  0  0  0  0  0  0  0  0  0  0  0
  -19.7602  -45.0709   -6.2599 N   0  0  0  0  0  0  0  0  0  0  0  0
  -16.4800  -39.6464   -7.7645 C   0  0  2  0  0  0  0  0  0  0  0  0
  -16.1781  -39.1920   -6.4892 O   0  0  0  0  0  0  0  0  0  0  0  0
  -15.4124  -39.1109   -8.6920 C   0  0  0  0  0  0  0  0  0  0  0  0
  -14.2750  -39.9622   -8.8401 N   0  0  0  0  0  0  0  0  0  0  0  0
  -13.1105  -39.3221   -9.3696 C   0  0  0  0  0  0  0  0  0  0  0  0
  -13.1311  -39.2065  -10.8379 C   0  0  0  0  0  0  0  0  0  0  0  0
  -13.0541  -40.3444  -11.6043 C   0  0  0  0  0  0  0  0  0  0  0  0
  -13.0659  -40.3056  -12.9832 C   0  0  0  0  0  0  0  0  0  0  0  0
  -12.9797  -41.5549  -13.5644 O   0  0  0  0  0  0  0  0  0  0  0  0
  -13.2465  -41.8653  -14.9261 C   0  0  0  0  0  0  0  0  0  0  0  0
  -14.3136  -40.9383  -15.4530 C   0  0  0  0  0  0  0  0  0  0  0  0
  -13.7427  -39.6685  -16.0047 C   0  0  0  0  0  0  0  0  0  0  0  0
  -13.1833  -38.8602  -14.9860 O   0  0  0  0  0  0  0  0  0  0  0  0
  -13.1596  -39.0630  -13.6059 C   0  0  0  0  0  0  0  0  0  0  0  0
  -13.2369  -37.9239  -12.8644 C   0  0  0  0  0  0  0  0  0  0  0  0
  -13.2226  -37.9984  -11.4896 C   0  0  0  0  0  0  0  0  0  0  0  0
  1  2  1  0
  2  3  1  0
  3  4  1  0
  4  5  2  0
  5  6  1  0
  6  7  2  0
  7  8  1  0
  8  9  2  0
  8 10  1  0
 10 11  2  0
 10 12  1  0
 12 13  1  0
 13 14  1  1
 14 15  1  0
 15 16  1  1
 15 17  1  0
 17 18  1  0
 18 19  1  0
 19 20  1  0
 20 21  1  0
 21 22  1  0
 22 23  1  0
 23 24  1  0
 13 25  1  0
 25 26  1  1
 25 27  1  0
 27 28  1  0
 28 29  1  0
 29 30  1  0
 30 31  2  0
 31 32  1  0
 32 33  1  0
 33 34  1  0
 34 35  1  0
 35 36  1  0
 36 37  1  0
 37 38  1  0
 38 39  1  0
 39 40  2  0
  9  4  1  0
 24  6  1  0
 38 32  2  0
 40 30  1  0
M  END
$$$$
