
     RDKit          3D

 40 43  0  0  0  0  0  0  0  0999 V2000
  -16.5841  -47.6155   -6.6887 C   0  0  0  0  0  0  0  0  0  0  0  0
  -17.3001  -46.8373   -5.8130 O   0  0  0  0  0  0  0  0  0  0  0  0
  -16.7967  -45.5571   -5.6404 C   0  0  0  0  0  0  0  0  0  0  0  0
  -17.8634  -44.5824   -5.9834 C   0  0  0  0  0  0  0  0  0  0  0  0
  -18.9120  -44.3059   -5.1562 C   0  0  0  0  0  0  0  0  0  0  0  0
  -19.9438  -43.3751   -5.4643 C   0  0  0  0  0  0  0  0  0  0  0  0
  -19.9031  -42.7003   -6.6671 C   0  0  0  0  0  0  0  0  0  0  0  0
  -18.8579  -42.9516   -7.5304 C   0  0  0  0  0  0  0  0  0  0  0  0
  -17.8574  -43.8923   -7.1668 C   0  0  0  0  0  0  0  0  0  0  0  0
  -18.5326  -42.3974   -8.8645 C   0  0  0  0  0  0  0  0  0  0  0  0
  -18.0740  -43.2424   -9.7814 O   0  0  0  0  0  0  0  0  0  0  0  0
  -18.5997  -41.1132   -9.4103 N   0  0  0  0  0  0  0  0  0  0  0  0
  -18.0923  -39.8690   -8.8738 C   0  0  1  0  0  0  0  0  0  0  0  0
  -19.0784  -39.1703   -7.9934 C   0  0  0  0  0  0  0  0  0  0  0  0
  -20.2206  -38.5527   -8.7748 C   0  0  2  0  0  0  0  0  0  0  0  0
  -19.9803  -37.0741   -8.8235 C   0  0  0  0  0  0  0  0  0  0  0  0
  -21.5623  -38.9125   -8.1994 C   0  0  0  0  0  0  0  0  0  0  0  0
  -21.7704  -38.2728   -6.8292 C   0  0  0  0  0  0  0  0  0  0  0  0
  -22.9944  -38.8549   -6.1546 C   0  0  0  0  0  0  0  0  0  0  0  0
  -22.6717  -40.2274   -5.6850 C   0  0  0  0  0  0  0  0  0  0  0  0
  -23.3274  -40.6150   -4.3765 C   0  0  0  0  0  0  0  0  0  0  0  0
  -22.9387  -42.0824   -4.1510 C   0  0  0  0  0  0  0  0  0  0  0  0
  -21.5191  -42.2306   -3.7018 C   0  0  0  0  0  0  0  0  0  0  0  0
  -20.8682  -43.3377   -4.3786 N   0  0  0  0  0  0  0  0  0  0  0  0
  -16.7737  -40.0013   -8.1933 C   0  0  2  0  0  0  0  0  0  0  0  0
  -16.6930  -39.4181   -6.9374 O   0  0  0  0  0  0  0  0  0  0  0  0
  -15.6142  -39.4702   -9.0058 C   0  0  0  0  0  0  0  0  0  0  0  0
  -15.3099  -40.2345  -10.1737 N   0  0  0  0  0  0  0  0  0  0  0  0
  -13.9360  -40.6103  -10.3045 C   0  0  0  0  0  0  0  0  0  0  0  0
  -13.1202  -39.5916  -10.9876 C   0  0  0  0  0  0  0  0  0  0  0  0
  -13.7138  -38.4280  -11.4138 C   0  0  0  0  0  0  0  0  0  0  0  0
  -13.0078  -37.4355  -12.0614 C   0  0  0  0  0  0  0  0  0  0  0  0
  -13.7865  -36.3491  -12.4067 O   0  0  0  0  0  0  0  0  0  0  0  0
  -13.3102  -35.0747  -12.8199 C   0  0  0  0  0  0  0  0  0  0  0  0
  -11.9955  -34.7848  -12.1393 C   0  0  0  0  0  0  0  0  0  0  0  0
  -10.8261  -35.3119  -12.9122 C   0  0  0  0  0  0  0  0  0  0  0  0
  -10.8009  -36.7272  -12.9229 O   0  0  0  0  0  0  0  0  0  0  0  0
  -11.6470  -37.6341  -12.2840 C   0  0  0  0  0  0  0  0  0  0  0  0
  -11.0402  -38.7800  -11.8695 C   0  0  0  0  0  0  0  0  0  0  0  0
  -11.7746  -39.7506  -11.2257 C   0  0  0  0  0  0  0  0  0  0  0  0
  1  2  1  0
  2  3  1  0
  3  4  1  0
  4  5  2  0
  5  6  1  0
  6  7  2  0
  7  8  1  0
  8  9  2  0
  8 10  1  0
 10 11  2  0
 10 12  1  0
 12 13  1  0
 13 14  1  1
 14 15  1  0
 15 16  1  1
 15 17  1  0
 17 18  1  0
 18 19  1  0
 19 20  1  0
 20 21  1  0
 21 22  1  0
 22 23  1  0
 23 24  1  0
 13 25  1  0
 25 26  1  1
 25 27  1  0
 27 28  1  0
 28 29  1  0
 29 30  1  0
 30 31  2  0
 31 32  1  0
 32 33  1  0
 33 34  1  0
 34 35  1  0
 35 36  1  0
 36 37  1  0
 37 38  1  0
 38 39  1  0
 39 40  2  0
  9  4  1  0
 24  6  1  0
 38 32  2  0
 40 30  1  0
M  END
$$$$
