
     RDKit          3D

 40 43  0  0  0  0  0  0  0  0999 V2000
  -17.5174  -48.4518   -8.1408 C   0  0  0  0  0  0  0  0  0  0  0  0
  -17.9220  -47.2901   -8.7508 O   0  0  0  0  0  0  0  0  0  0  0  0
  -17.2124  -46.1631   -8.3654 C   0  0  0  0  0  0  0  0  0  0  0  0
  -18.1817  -45.0867   -8.0378 C   0  0  0  0  0  0  0  0  0  0  0  0
  -19.0648  -45.1712   -7.0018 C   0  0  0  0  0  0  0  0  0  0  0  0
  -20.0006  -44.1516   -6.6696 C   0  0  0  0  0  0  0  0  0  0  0  0
  -20.0365  -42.9993   -7.4275 C   0  0  0  0  0  0  0  0  0  0  0  0
  -19.1584  -42.8755   -8.4832 C   0  0  0  0  0  0  0  0  0  0  0  0
  -18.2470  -43.9280   -8.7656 C   0  0  0  0  0  0  0  0  0  0  0  0
  -18.9478  -41.7838   -9.4612 C   0  0  0  0  0  0  0  0  0  0  0  0
  -18.7295  -42.1298  -10.7251 O   0  0  0  0  0  0  0  0  0  0  0  0
  -18.9226  -40.3913   -9.3512 N   0  0  0  0  0  0  0  0  0  0  0  0
  -18.1920  -39.5657   -8.4142 C   0  0  1  0  0  0  0  0  0  0  0  0
  -18.9523  -39.3048   -7.1534 C   0  0  0  0  0  0  0  0  0  0  0  0
  -20.1008  -38.3370   -7.3564 C   0  0  2  0  0  0  0  0  0  0  0  0
  -19.6815  -37.0190   -6.7790 C   0  0  0  0  0  0  0  0  0  0  0  0
  -21.3875  -38.8525   -6.7738 C   0  0  0  0  0  0  0  0  0  0  0  0
  -21.3248  -38.9111   -5.2498 C   0  0  0  0  0  0  0  0  0  0  0  0
  -22.5110  -39.6752   -4.7010 C   0  0  0  0  0  0  0  0  0  0  0  0
  -22.3067  -41.1236   -4.9631 C   0  0  0  0  0  0  0  0  0  0  0  0
  -22.8240  -42.0391   -3.8738 C   0  0  0  0  0  0  0  0  0  0  0  0
  -22.5999  -43.4617   -4.4039 C   0  0  0  0  0  0  0  0  0  0  0  0
  -21.1635  -43.8746   -4.3310 C   0  0  0  0  0  0  0  0  0  0  0  0
  -20.7575  -44.5739   -5.5366 N   0  0  0  0  0  0  0  0  0  0  0  0
  -16.8216  -40.0665   -8.1135 C   0  0  2  0  0  0  0  0  0  0  0  0
  -16.0383  -39.2234   -7.3393 O   0  0  0  0  0  0  0  0  0  0  0  0
  -16.0172  -40.4139   -9.3461 C   0  0  0  0  0  0  0  0  0  0  0  0
  -14.9542  -41.3404   -9.1180 N   0  0  0  0  0  0  0  0  0  0  0  0
  -13.6424  -40.8175   -9.3457 C   0  0  0  0  0  0  0  0  0  0  0  0
  -13.5310  -40.0637  -10.6063 C   0  0  0  0  0  0  0  0  0  0  0  0
  -13.3154  -38.7073  -10.5633 C   0  0  0  0  0  0  0  0  0  0  0  0
  -13.2040  -37.9430  -11.7062 C   0  0  0  0  0  0  0  0  0  0  0  0
  -12.9892  -36.6039  -11.4476 O   0  0  0  0  0  0  0  0  0  0  0  0
  -12.5594  -35.6278  -12.3879 C   0  0  0  0  0  0  0  0  0  0  0  0
  -11.6648  -36.2780  -13.4138 C   0  0  0  0  0  0  0  0  0  0  0  0
  -12.4366  -36.8399  -14.5676 C   0  0  0  0  0  0  0  0  0  0  0  0
  -13.2262  -37.9486  -14.1788 O   0  0  0  0  0  0  0  0  0  0  0  0
  -13.3160  -38.5820  -12.9390 C   0  0  0  0  0  0  0  0  0  0  0  0
  -13.5296  -39.9249  -13.0029 C   0  0  0  0  0  0  0  0  0  0  0  0
  -13.6359  -40.6583  -11.8425 C   0  0  0  0  0  0  0  0  0  0  0  0
  1  2  1  0
  2  3  1  0
  3  4  1  0
  4  5  2  0
  5  6  1  0
  6  7  2  0
  7  8  1  0
  8  9  2  0
  8 10  1  0
 10 11  2  0
 10 12  1  0
 12 13  1  0
 13 14  1  1
 14 15  1  0
 15 16  1  1
 15 17  1  0
 17 18  1  0
 18 19  1  0
 19 20  1  0
 20 21  1  0
 21 22  1  0
 22 23  1  0
 23 24  1  0
 13 25  1  0
 25 26  1  6
 25 27  1  0
 27 28  1  0
 28 29  1  0
 29 30  1  0
 30 31  2  0
 31 32  1  0
 32 33  1  0
 33 34  1  0
 34 35  1  0
 35 36  1  0
 36 37  1  0
 37 38  1  0
 38 39  1  0
 39 40  2  0
  9  4  1  0
 24  6  1  0
 38 32  2  0
 40 30  1  0
M  END
$$$$
