
     RDKit          3D

 40 43  0  0  0  0  0  0  0  0999 V2000
  -14.9694  -45.1934   -7.8937 C   0  0  0  0  0  0  0  0  0  0  0  0
  -15.2238  -44.9537   -9.2214 O   0  0  0  0  0  0  0  0  0  0  0  0
  -16.4090  -45.5027   -9.6862 C   0  0  0  0  0  0  0  0  0  0  0  0
  -17.5378  -44.6806   -9.1808 C   0  0  0  0  0  0  0  0  0  0  0  0
  -18.3997  -45.1135   -8.2164 C   0  0  0  0  0  0  0  0  0  0  0  0
  -19.4864  -44.3419   -7.7169 C   0  0  0  0  0  0  0  0  0  0  0  0
  -19.7021  -43.0772   -8.2242 C   0  0  0  0  0  0  0  0  0  0  0  0
  -18.8512  -42.6029   -9.2000 C   0  0  0  0  0  0  0  0  0  0  0  0
  -17.7836  -43.4203   -9.6584 C   0  0  0  0  0  0  0  0  0  0  0  0
  -18.8131  -41.3130   -9.9260 C   0  0  0  0  0  0  0  0  0  0  0  0
  -18.5386  -41.3513  -11.2252 O   0  0  0  0  0  0  0  0  0  0  0  0
  -19.0095  -39.9868   -9.5330 N   0  0  0  0  0  0  0  0  0  0  0  0
  -18.4221  -39.2708   -8.4213 C   0  0  1  0  0  0  0  0  0  0  0  0
  -19.2183  -39.3978   -7.1621 C   0  0  0  0  0  0  0  0  0  0  0  0
  -20.5050  -38.5981   -7.2044 C   0  0  2  0  0  0  0  0  0  0  0  0
  -20.3018  -37.3800   -6.3551 C   0  0  0  0  0  0  0  0  0  0  0  0
  -21.6956  -39.4157   -6.7862 C   0  0  0  0  0  0  0  0  0  0  0  0
  -21.6294  -39.7787   -5.3050 C   0  0  0  0  0  0  0  0  0  0  0  0
  -22.6812  -40.8139   -4.9671 C   0  0  0  0  0  0  0  0  0  0  0  0
  -22.2490  -42.1271   -5.5121 C   0  0  0  0  0  0  0  0  0  0  0  0
  -22.6182  -43.3174   -4.6521 C   0  0  0  0  0  0  0  0  0  0  0  0
  -22.1697  -44.5470   -5.4533 C   0  0  0  0  0  0  0  0  0  0  0  0
  -20.6863  -44.7391   -5.4146 C   0  0  0  0  0  0  0  0  0  0  0  0
  -20.1705  -45.1019   -6.7222 N   0  0  0  0  0  0  0  0  0  0  0  0
  -16.9905  -39.6054   -8.1801 C   0  0  2  0  0  0  0  0  0  0  0  0
  -16.5616  -39.4663   -6.8684 O   0  0  0  0  0  0  0  0  0  0  0  0
  -16.0291  -38.8246   -9.0477 C   0  0  0  0  0  0  0  0  0  0  0  0
  -14.7165  -39.3822   -9.1276 N   0  0  0  0  0  0  0  0  0  0  0  0
  -14.3444  -39.8594  -10.4237 C   0  0  0  0  0  0  0  0  0  0  0  0
  -13.7602  -38.8126  -11.2797 C   0  0  0  0  0  0  0  0  0  0  0  0
  -12.4845  -38.3694  -11.0263 C   0  0  0  0  0  0  0  0  0  0  0  0
  -11.8802  -37.3907  -11.7878 C   0  0  0  0  0  0  0  0  0  0  0  0
  -10.5996  -37.0881  -11.3701 O   0  0  0  0  0  0  0  0  0  0  0  0
   -9.6335  -36.3450  -12.1023 C   0  0  0  0  0  0  0  0  0  0  0  0
   -9.8336  -36.5785  -13.5791 C   0  0  0  0  0  0  0  0  0  0  0  0
  -10.8145  -35.6191  -14.1793 C   0  0  0  0  0  0  0  0  0  0  0  0
  -12.1283  -35.8485  -13.7046 O   0  0  0  0  0  0  0  0  0  0  0  0
  -12.6004  -36.8423  -12.8467 C   0  0  0  0  0  0  0  0  0  0  0  0
  -13.8655  -37.2679  -13.1142 C   0  0  0  0  0  0  0  0  0  0  0  0
  -14.4390  -38.2468  -12.3341 C   0  0  0  0  0  0  0  0  0  0  0  0
  1  2  1  0
  2  3  1  0
  3  4  1  0
  4  5  2  0
  5  6  1  0
  6  7  2  0
  7  8  1  0
  8  9  2  0
  8 10  1  0
 10 11  2  0
 10 12  1  0
 12 13  1  0
 13 14  1  1
 14 15  1  0
 15 16  1  1
 15 17  1  0
 17 18  1  0
 18 19  1  0
 19 20  1  0
 20 21  1  0
 21 22  1  0
 22 23  1  0
 23 24  1  0
 13 25  1  0
 25 26  1  1
 25 27  1  0
 27 28  1  0
 28 29  1  0
 29 30  1  0
 30 31  2  0
 31 32  1  0
 32 33  1  0
 33 34  1  0
 34 35  1  0
 35 36  1  0
 36 37  1  0
 37 38  1  0
 38 39  1  0
 39 40  2  0
  9  4  1  0
 24  6  1  0
 38 32  2  0
 40 30  1  0
M  END
$$$$
