
     RDKit          3D

 40 43  0  0  0  0  0  0  0  0999 V2000
  -18.3519  -47.6539   -7.1375 C   0  0  0  0  0  0  0  0  0  0  0  0
  -17.2763  -47.4605   -7.9687 O   0  0  0  0  0  0  0  0  0  0  0  0
  -16.6606  -46.2258   -7.8317 C   0  0  0  0  0  0  0  0  0  0  0  0
  -17.7121  -45.1776   -7.7971 C   0  0  0  0  0  0  0  0  0  0  0  0
  -18.8133  -45.2549   -6.9960 C   0  0  0  0  0  0  0  0  0  0  0  0
  -19.8316  -44.2618   -6.9462 C   0  0  0  0  0  0  0  0  0  0  0  0
  -19.7210  -43.1448   -7.7485 C   0  0  0  0  0  0  0  0  0  0  0  0
  -18.6211  -43.0293   -8.5719 C   0  0  0  0  0  0  0  0  0  0  0  0
  -17.6374  -44.0542   -8.5775 C   0  0  0  0  0  0  0  0  0  0  0  0
  -18.2171  -41.9719   -9.5264 C   0  0  0  0  0  0  0  0  0  0  0  0
  -17.6941  -42.3614  -10.6839 O   0  0  0  0  0  0  0  0  0  0  0  0
  -18.2609  -40.5762   -9.4843 N   0  0  0  0  0  0  0  0  0  0  0  0
  -17.7993  -39.6824   -8.4443 C   0  0  1  0  0  0  0  0  0  0  0  0
  -18.8451  -39.4004   -7.4136 C   0  0  0  0  0  0  0  0  0  0  0  0
  -19.9410  -38.4903   -7.9307 C   0  0  2  0  0  0  0  0  0  0  0  0
  -19.7111  -37.1330   -7.3380 C   0  0  0  0  0  0  0  0  0  0  0  0
  -21.3133  -39.0336   -7.6430 C   0  0  0  0  0  0  0  0  0  0  0  0
  -21.6130  -39.0255   -6.1463 C   0  0  0  0  0  0  0  0  0  0  0  0
  -22.8720  -39.8143   -5.8552 C   0  0  0  0  0  0  0  0  0  0  0  0
  -22.5676  -41.2627   -5.9880 C   0  0  0  0  0  0  0  0  0  0  0  0
  -23.3012  -42.1523   -5.0066 C   0  0  0  0  0  0  0  0  0  0  0  0
  -22.9146  -43.5854   -5.3962 C   0  0  0  0  0  0  0  0  0  0  0  0
  -21.5250  -43.9352   -4.9654 C   0  0  0  0  0  0  0  0  0  0  0  0
  -20.8230  -44.6671   -6.0041 N   0  0  0  0  0  0  0  0  0  0  0  0
  -16.5252  -40.1131   -7.8036 C   0  0  2  0  0  0  0  0  0  0  0  0
  -16.0345  -39.2600   -6.8262 O   0  0  0  0  0  0  0  0  0  0  0  0
  -15.4021  -40.3561   -8.7867 C   0  0  0  0  0  0  0  0  0  0  0  0
  -14.0946  -40.3236   -8.2122 N   0  0  0  0  0  0  0  0  0  0  0  0
  -13.2156  -39.3452   -8.7744 C   0  0  0  0  0  0  0  0  0  0  0  0
  -13.0108  -39.5159  -10.2231 C   0  0  0  0  0  0  0  0  0  0  0  0
  -11.9702  -40.2947  -10.6690 C   0  0  0  0  0  0  0  0  0  0  0  0
  -11.7219  -40.4934  -12.0113 C   0  0  0  0  0  0  0  0  0  0  0  0
  -10.6321  -41.3067  -12.2496 O   0  0  0  0  0  0  0  0  0  0  0  0
  -10.2975  -41.9169  -13.4896 C   0  0  0  0  0  0  0  0  0  0  0  0
  -11.5604  -42.2245  -14.2551 C   0  0  0  0  0  0  0  0  0  0  0  0
  -12.0046  -41.0748  -15.1058 C   0  0  0  0  0  0  0  0  0  0  0  0
  -12.4425  -39.9813  -14.3206 O   0  0  0  0  0  0  0  0  0  0  0  0
  -12.5634  -39.8769  -12.9347 C   0  0  0  0  0  0  0  0  0  0  0  0
  -13.5999  -39.1015  -12.5130 C   0  0  0  0  0  0  0  0  0  0  0  0
  -13.8196  -38.9241  -11.1654 C   0  0  0  0  0  0  0  0  0  0  0  0
  1  2  1  0
  2  3  1  0
  3  4  1  0
  4  5  2  0
  5  6  1  0
  6  7  2  0
  7  8  1  0
  8  9  2  0
  8 10  1  0
 10 11  2  0
 10 12  1  0
 12 13  1  0
 13 14  1  1
 14 15  1  0
 15 16  1  1
 15 17  1  0
 17 18  1  0
 18 19  1  0
 19 20  1  0
 20 21  1  0
 21 22  1  0
 22 23  1  0
 23 24  1  0
 13 25  1  0
 25 26  1  1
 25 27  1  0
 27 28  1  0
 28 29  1  0
 29 30  1  0
 30 31  2  0
 31 32  1  0
 32 33  1  0
 33 34  1  0
 34 35  1  0
 35 36  1  0
 36 37  1  0
 37 38  1  0
 38 39  1  0
 39 40  2  0
  9  4  1  0
 24  6  1  0
 38 32  2  0
 40 30  1  0
M  END
$$$$
