
     RDKit          3D

 40 43  0  0  0  0  0  0  0  0999 V2000
  -22.6807  -36.8138  -10.7699 C   0  0  0  0  0  0  0  0  0  0  0  0
  -22.4785  -37.5580   -9.6339 O   0  0  0  0  0  0  0  0  0  0  0  0
  -21.5297  -37.0362   -8.7681 C   0  0  0  0  0  0  0  0  0  0  0  0
  -20.1977  -37.1314   -9.4180 C   0  0  0  0  0  0  0  0  0  0  0  0
  -19.5314  -36.0479   -9.9106 C   0  0  0  0  0  0  0  0  0  0  0  0
  -18.2544  -36.1164  -10.5353 C   0  0  0  0  0  0  0  0  0  0  0  0
  -17.6334  -37.3417  -10.6633 C   0  0  0  0  0  0  0  0  0  0  0  0
  -18.2746  -38.4612  -10.1766 C   0  0  0  0  0  0  0  0  0  0  0  0
  -19.5489  -38.3292   -9.5626 C   0  0  0  0  0  0  0  0  0  0  0  0
  -17.8778  -39.8876  -10.1555 C   0  0  0  0  0  0  0  0  0  0  0  0
  -18.8194  -40.7873  -10.4177 O   0  0  0  0  0  0  0  0  0  0  0  0
  -16.6688  -40.5416   -9.9061 N   0  0  0  0  0  0  0  0  0  0  0  0
  -15.7512  -40.3674   -8.8010 C   0  0  1  0  0  0  0  0  0  0  0  0
  -14.7265  -39.3092   -9.0574 C   0  0  0  0  0  0  0  0  0  0  0  0
  -13.6813  -39.7436  -10.0652 C   0  0  2  0  0  0  0  0  0  0  0  0
  -12.4299  -40.0590   -9.3030 C   0  0  0  0  0  0  0  0  0  0  0  0
  -13.4710  -38.7170  -11.1435 C   0  0  0  0  0  0  0  0  0  0  0  0
  -12.8274  -37.4494  -10.5878 C   0  0  0  0  0  0  0  0  0  0  0  0
  -12.8698  -36.3402  -11.6173 C   0  0  0  0  0  0  0  0  0  0  0  0
  -14.2625  -35.8303  -11.7105 C   0  0  0  0  0  0  0  0  0  0  0  0
  -14.3717  -34.3404  -11.9570 C   0  0  0  0  0  0  0  0  0  0  0  0
  -15.8736  -34.0682  -12.1171 C   0  0  0  0  0  0  0  0  0  0  0  0
  -16.5980  -34.0966  -10.8082 C   0  0  0  0  0  0  0  0  0  0  0  0
  -17.8619  -34.8011  -10.9239 N   0  0  0  0  0  0  0  0  0  0  0  0
  -16.4241  -40.1482   -7.4901 C   0  0  2  0  0  0  0  0  0  0  0  0
  -15.6049  -39.6788   -6.4739 O   0  0  0  0  0  0  0  0  0  0  0  0
  -17.1346  -41.3729   -6.9590 C   0  0  0  0  0  0  0  0  0  0  0  0
  -18.0773  -41.9498   -7.8639 N   0  0  0  0  0  0  0  0  0  0  0  0
  -19.3830  -41.3673   -7.8234 C   0  0  0  0  0  0  0  0  0  0  0  0
  -20.3020  -42.0702   -6.9117 C   0  0  0  0  0  0  0  0  0  0  0  0
  -20.1210  -43.4116   -6.6752 C   0  0  0  0  0  0  0  0  0  0  0  0
  -20.9468  -44.1291   -5.8349 C   0  0  0  0  0  0  0  0  0  0  0  0
  -20.5963  -45.4605   -5.7324 O   0  0  0  0  0  0  0  0  0  0  0  0
  -21.0645  -46.3767   -4.7510 C   0  0  0  0  0  0  0  0  0  0  0  0
  -21.3330  -45.6392   -3.4627 C   0  0  0  0  0  0  0  0  0  0  0  0
  -22.7237  -45.0870   -3.4021 C   0  0  0  0  0  0  0  0  0  0  0  0
  -22.9131  -44.0421   -4.3382 O   0  0  0  0  0  0  0  0  0  0  0  0
  -21.9961  -43.4571   -5.2118 C   0  0  0  0  0  0  0  0  0  0  0  0
  -22.1922  -42.1283   -5.4330 C   0  0  0  0  0  0  0  0  0  0  0  0
  -21.3490  -41.4420   -6.2779 C   0  0  0  0  0  0  0  0  0  0  0  0
  1  2  1  0
  2  3  1  0
  3  4  1  0
  4  5  2  0
  5  6  1  0
  6  7  2  0
  7  8  1  0
  8  9  2  0
  8 10  1  0
 10 11  2  0
 10 12  1  0
 12 13  1  0
 13 14  1  6
 14 15  1  0
 15 16  1  1
 15 17  1  0
 17 18  1  0
 18 19  1  0
 19 20  1  0
 20 21  1  0
 21 22  1  0
 22 23  1  0
 23 24  1  0
 13 25  1  0
 25 26  1  1
 25 27  1  0
 27 28  1  0
 28 29  1  0
 29 30  1  0
 30 31  2  0
 31 32  1  0
 32 33  1  0
 33 34  1  0
 34 35  1  0
 35 36  1  0
 36 37  1  0
 37 38  1  0
 38 39  1  0
 39 40  2  0
  9  4  1  0
 24  6  1  0
 38 32  2  0
 40 30  1  0
M  END
$$$$
