
     RDKit          3D

 40 43  0  0  0  0  0  0  0  0999 V2000
  -17.6344  -48.0333   -7.6755 C   0  0  0  0  0  0  0  0  0  0  0  0
  -17.6681  -46.6993   -7.9986 O   0  0  0  0  0  0  0  0  0  0  0  0
  -17.5164  -45.8438   -6.9182 C   0  0  0  0  0  0  0  0  0  0  0  0
  -18.4225  -44.6825   -7.1075 C   0  0  0  0  0  0  0  0  0  0  0  0
  -19.6075  -44.5482   -6.4455 C   0  0  0  0  0  0  0  0  0  0  0  0
  -20.4897  -43.4435   -6.6107 C   0  0  0  0  0  0  0  0  0  0  0  0
  -20.1479  -42.4358   -7.4889 C   0  0  0  0  0  0  0  0  0  0  0  0
  -18.9569  -42.5345   -8.1764 C   0  0  0  0  0  0  0  0  0  0  0  0
  -18.1178  -43.6619   -7.9690 C   0  0  0  0  0  0  0  0  0  0  0  0
  -18.3164  -41.6354   -9.1633 C   0  0  0  0  0  0  0  0  0  0  0  0
  -17.7208  -42.2004  -10.2078 O   0  0  0  0  0  0  0  0  0  0  0  0
  -18.1860  -40.2473   -9.2508 N   0  0  0  0  0  0  0  0  0  0  0  0
  -17.7338  -39.3107   -8.2448 C   0  0  1  0  0  0  0  0  0  0  0  0
  -18.8442  -38.8042   -7.3809 C   0  0  0  0  0  0  0  0  0  0  0  0
  -19.7498  -37.8311   -8.1087 C   0  0  2  0  0  0  0  0  0  0  0  0
  -19.4163  -36.4559   -7.6147 C   0  0  0  0  0  0  0  0  0  0  0  0
  -21.2037  -38.1785   -7.9466 C   0  0  0  0  0  0  0  0  0  0  0  0
  -21.6661  -37.9812   -6.5054 C   0  0  0  0  0  0  0  0  0  0  0  0
  -23.0402  -38.5840   -6.3040 C   0  0  0  0  0  0  0  0  0  0  0  0
  -22.9104  -40.0639   -6.2691 C   0  0  0  0  0  0  0  0  0  0  0  0
  -23.8572  -40.7561   -5.3115 C   0  0  0  0  0  0  0  0  0  0  0  0
  -23.6155  -42.2570   -5.5215 C   0  0  0  0  0  0  0  0  0  0  0  0
  -22.3392  -42.7196   -4.8923 C   0  0  0  0  0  0  0  0  0  0  0  0
  -21.6243  -43.6314   -5.7668 N   0  0  0  0  0  0  0  0  0  0  0  0
  -16.6052  -39.8182   -7.4153 C   0  0  2  0  0  0  0  0  0  0  0  0
  -15.8588  -38.8440   -6.7691 O   0  0  0  0  0  0  0  0  0  0  0  0
  -15.6334  -40.6898   -8.1787 C   0  0  0  0  0  0  0  0  0  0  0  0
  -14.3554  -40.0936   -8.4058 N   0  0  0  0  0  0  0  0  0  0  0  0
  -13.9478  -40.0500   -9.7762 C   0  0  0  0  0  0  0  0  0  0  0  0
  -13.3672  -41.3191  -10.2476 C   0  0  0  0  0  0  0  0  0  0  0  0
  -14.1293  -42.1629  -11.0192 C   0  0  0  0  0  0  0  0  0  0  0  0
  -13.6471  -43.3663  -11.4906 C   0  0  0  0  0  0  0  0  0  0  0  0
  -14.5682  -44.0645  -12.2456 O   0  0  0  0  0  0  0  0  0  0  0  0
  -14.2908  -45.1766  -13.0871 C   0  0  0  0  0  0  0  0  0  0  0  0
  -12.9014  -45.0401  -13.6584 C   0  0  0  0  0  0  0  0  0  0  0  0
  -11.8579  -45.6388  -12.7665 C   0  0  0  0  0  0  0  0  0  0  0  0
  -11.7126  -44.9047  -11.5649 O   0  0  0  0  0  0  0  0  0  0  0  0
  -12.3409  -43.7249  -11.1650 C   0  0  0  0  0  0  0  0  0  0  0  0
  -11.5697  -42.9027  -10.4018 C   0  0  0  0  0  0  0  0  0  0  0  0
  -12.0822  -41.7083   -9.9476 C   0  0  0  0  0  0  0  0  0  0  0  0
  1  2  1  0
  2  3  1  0
  3  4  1  0
  4  5  2  0
  5  6  1  0
  6  7  2  0
  7  8  1  0
  8  9  2  0
  8 10  1  0
 10 11  2  0
 10 12  1  0
 12 13  1  0
 13 14  1  1
 14 15  1  0
 15 16  1  1
 15 17  1  0
 17 18  1  0
 18 19  1  0
 19 20  1  0
 20 21  1  0
 21 22  1  0
 22 23  1  0
 23 24  1  0
 13 25  1  0
 25 26  1  6
 25 27  1  0
 27 28  1  0
 28 29  1  0
 29 30  1  0
 30 31  2  0
 31 32  1  0
 32 33  1  0
 33 34  1  0
 34 35  1  0
 35 36  1  0
 36 37  1  0
 37 38  1  0
 38 39  1  0
 39 40  2  0
  9  4  1  0
 24  6  1  0
 38 32  2  0
 40 30  1  0
M  END
$$$$
