
     RDKit          3D

 40 43  0  0  0  0  0  0  0  0999 V2000
  -14.1884  -45.4195   -7.4521 C   0  0  0  0  0  0  0  0  0  0  0  0
  -15.3688  -46.0936   -7.2586 O   0  0  0  0  0  0  0  0  0  0  0  0
  -16.2136  -46.0974   -8.3578 C   0  0  0  0  0  0  0  0  0  0  0  0
  -17.2924  -45.1037   -8.1248 C   0  0  0  0  0  0  0  0  0  0  0  0
  -18.2933  -45.2916   -7.2174 C   0  0  0  0  0  0  0  0  0  0  0  0
  -19.3354  -44.3524   -6.9774 C   0  0  0  0  0  0  0  0  0  0  0  0
  -19.3566  -43.1739   -7.6944 C   0  0  0  0  0  0  0  0  0  0  0  0
  -18.3610  -42.9464   -8.6207 C   0  0  0  0  0  0  0  0  0  0  0  0
  -17.3471  -43.9221   -8.8158 C   0  0  0  0  0  0  0  0  0  0  0  0
  -18.1056  -41.8023   -9.5254 C   0  0  0  0  0  0  0  0  0  0  0  0
  -17.7017  -42.0786  -10.7604 O   0  0  0  0  0  0  0  0  0  0  0  0
  -18.1957  -40.4172   -9.3665 N   0  0  0  0  0  0  0  0  0  0  0  0
  -17.6537  -39.5849   -8.3144 C   0  0  1  0  0  0  0  0  0  0  0  0
  -18.5871  -39.4298   -7.1567 C   0  0  0  0  0  0  0  0  0  0  0  0
  -19.7668  -38.5338   -7.4766 C   0  0  2  0  0  0  0  0  0  0  0  0
  -19.5220  -37.2164   -6.8052 C   0  0  0  0  0  0  0  0  0  0  0  0
  -21.0772  -39.1593   -7.0859 C   0  0  0  0  0  0  0  0  0  0  0  0
  -21.2075  -39.2784   -5.5698 C   0  0  0  0  0  0  0  0  0  0  0  0
  -22.3960  -40.1434   -5.2077 C   0  0  0  0  0  0  0  0  0  0  0  0
  -22.0553  -41.5623   -5.4889 C   0  0  0  0  0  0  0  0  0  0  0  0
  -22.6412  -42.5562   -4.5084 C   0  0  0  0  0  0  0  0  0  0  0  0
  -22.2482  -43.9365   -5.0517 C   0  0  0  0  0  0  0  0  0  0  0  0
  -20.8071  -44.2544   -4.8043 C   0  0  0  0  0  0  0  0  0  0  0  0
  -20.1995  -44.8728   -5.9686 N   0  0  0  0  0  0  0  0  0  0  0  0
  -16.3009  -40.0046   -7.8529 C   0  0  2  0  0  0  0  0  0  0  0  0
  -15.7689  -39.2543   -6.8147 O   0  0  0  0  0  0  0  0  0  0  0  0
  -15.2655  -40.0366   -8.9546 C   0  0  0  0  0  0  0  0  0  0  0  0
  -14.0127  -39.4446   -8.6077 N   0  0  0  0  0  0  0  0  0  0  0  0
  -13.0561  -39.3968   -9.6701 C   0  0  0  0  0  0  0  0  0  0  0  0
  -13.3058  -38.3029  -10.6244 C   0  0  0  0  0  0  0  0  0  0  0  0
  -12.4494  -38.1250  -11.6842 C   0  0  0  0  0  0  0  0  0  0  0  0
  -12.6250  -37.1192  -12.6118 C   0  0  0  0  0  0  0  0  0  0  0  0
  -11.6577  -37.1112  -13.5968 O   0  0  0  0  0  0  0  0  0  0  0  0
  -11.7179  -36.3956  -14.8241 C   0  0  0  0  0  0  0  0  0  0  0  0
  -13.1537  -36.2915  -15.2750 C   0  0  0  0  0  0  0  0  0  0  0  0
  -13.8428  -35.0893  -14.7070 C   0  0  0  0  0  0  0  0  0  0  0  0
  -14.0228  -35.2018  -13.3074 O   0  0  0  0  0  0  0  0  0  0  0  0
  -13.7122  -36.2623  -12.4558 C   0  0  0  0  0  0  0  0  0  0  0  0
  -14.5721  -36.4220  -11.4126 C   0  0  0  0  0  0  0  0  0  0  0  0
  -14.3677  -37.4365  -10.5045 C   0  0  0  0  0  0  0  0  0  0  0  0
  1  2  1  0
  2  3  1  0
  3  4  1  0
  4  5  2  0
  5  6  1  0
  6  7  2  0
  7  8  1  0
  8  9  2  0
  8 10  1  0
 10 11  2  0
 10 12  1  0
 12 13  1  0
 13 14  1  1
 14 15  1  0
 15 16  1  1
 15 17  1  0
 17 18  1  0
 18 19  1  0
 19 20  1  0
 20 21  1  0
 21 22  1  0
 22 23  1  0
 23 24  1  0
 13 25  1  0
 25 26  1  1
 25 27  1  0
 27 28  1  0
 28 29  1  0
 29 30  1  0
 30 31  2  0
 31 32  1  0
 32 33  1  0
 33 34  1  0
 34 35  1  0
 35 36  1  0
 36 37  1  0
 37 38  1  0
 38 39  1  0
 39 40  2  0
  9  4  1  0
 24  6  1  0
 38 32  2  0
 40 30  1  0
M  END
$$$$
