
     RDKit          3D

 40 43  0  0  0  0  0  0  0  0999 V2000
  -14.7087  -45.1469   -6.8500 C   0  0  0  0  0  0  0  0  0  0  0  0
  -15.3262  -45.0423   -8.0718 O   0  0  0  0  0  0  0  0  0  0  0  0
  -16.5503  -45.6881   -8.1526 C   0  0  0  0  0  0  0  0  0  0  0  0
  -17.6255  -44.6646   -8.1090 C   0  0  0  0  0  0  0  0  0  0  0  0
  -18.7012  -44.7510   -7.2748 C   0  0  0  0  0  0  0  0  0  0  0  0
  -19.7415  -43.7814   -7.2159 C   0  0  0  0  0  0  0  0  0  0  0  0
  -19.6810  -42.6793   -8.0437 C   0  0  0  0  0  0  0  0  0  0  0  0
  -18.6082  -42.5553   -8.9009 C   0  0  0  0  0  0  0  0  0  0  0  0
  -17.6004  -43.5565   -8.9141 C   0  0  0  0  0  0  0  0  0  0  0  0
  -18.2572  -41.5090   -9.8882 C   0  0  0  0  0  0  0  0  0  0  0  0
  -17.7582  -41.9104  -11.0521 O   0  0  0  0  0  0  0  0  0  0  0  0
  -18.3337  -40.1142   -9.8734 N   0  0  0  0  0  0  0  0  0  0  0  0
  -17.8645  -39.1879   -8.8657 C   0  0  1  0  0  0  0  0  0  0  0  0
  -18.8870  -38.9090   -7.8111 C   0  0  0  0  0  0  0  0  0  0  0  0
  -20.0190  -38.0362   -8.3147 C   0  0  2  0  0  0  0  0  0  0  0  0
  -19.8052  -36.6616   -7.7569 C   0  0  0  0  0  0  0  0  0  0  0  0
  -21.3689  -38.6057   -7.9763 C   0  0  0  0  0  0  0  0  0  0  0  0
  -21.6259  -38.5730   -6.4721 C   0  0  0  0  0  0  0  0  0  0  0  0
  -22.8566  -39.3850   -6.1284 C   0  0  0  0  0  0  0  0  0  0  0  0
  -22.5210  -40.8283   -6.2403 C   0  0  0  0  0  0  0  0  0  0  0  0
  -23.2046  -41.7140   -5.2201 C   0  0  0  0  0  0  0  0  0  0  0  0
  -22.7946  -43.1455   -5.5913 C   0  0  0  0  0  0  0  0  0  0  0  0
  -21.3852  -43.4531   -5.1939 C   0  0  0  0  0  0  0  0  0  0  0  0
  -20.6956  -44.1900   -6.2373 N   0  0  0  0  0  0  0  0  0  0  0  0
  -16.5625  -39.5747   -8.2536 C   0  0  2  0  0  0  0  0  0  0  0  0
  -16.0535  -38.6781   -7.3257 O   0  0  0  0  0  0  0  0  0  0  0  0
  -15.4693  -39.8370   -9.2649 C   0  0  0  0  0  0  0  0  0  0  0  0
  -14.1786  -40.0641   -8.6965 N   0  0  0  0  0  0  0  0  0  0  0  0
  -13.1209  -40.2123   -9.6480 C   0  0  0  0  0  0  0  0  0  0  0  0
  -12.8969  -39.0018  -10.4570 C   0  0  0  0  0  0  0  0  0  0  0  0
  -11.9878  -39.0386  -11.4867 C   0  0  0  0  0  0  0  0  0  0  0  0
  -11.7295  -37.9402  -12.2803 C   0  0  0  0  0  0  0  0  0  0  0  0
  -10.7850  -38.1837  -13.2574 O   0  0  0  0  0  0  0  0  0  0  0  0
  -10.5148  -37.3605  -14.3848 C   0  0  0  0  0  0  0  0  0  0  0  0
  -11.7838  -36.6692  -14.8177 C   0  0  0  0  0  0  0  0  0  0  0  0
  -11.9971  -35.3709  -14.1025 C   0  0  0  0  0  0  0  0  0  0  0  0
  -12.2713  -35.5695  -12.7280 O   0  0  0  0  0  0  0  0  0  0  0  0
  -12.4216  -36.7603  -12.0168 C   0  0  0  0  0  0  0  0  0  0  0  0
  -13.3264  -36.7036  -11.0012 C   0  0  0  0  0  0  0  0  0  0  0  0
  -13.5604  -37.8186  -10.2281 C   0  0  0  0  0  0  0  0  0  0  0  0
  1  2  1  0
  2  3  1  0
  3  4  1  0
  4  5  2  0
  5  6  1  0
  6  7  2  0
  7  8  1  0
  8  9  2  0
  8 10  1  0
 10 11  2  0
 10 12  1  0
 12 13  1  0
 13 14  1  1
 14 15  1  0
 15 16  1  1
 15 17  1  0
 17 18  1  0
 18 19  1  0
 19 20  1  0
 20 21  1  0
 21 22  1  0
 22 23  1  0
 23 24  1  0
 13 25  1  0
 25 26  1  1
 25 27  1  0
 27 28  1  0
 28 29  1  0
 29 30  1  0
 30 31  2  0
 31 32  1  0
 32 33  1  0
 33 34  1  0
 34 35  1  0
 35 36  1  0
 36 37  1  0
 37 38  1  0
 38 39  1  0
 39 40  2  0
  9  4  1  0
 24  6  1  0
 38 32  2  0
 40 30  1  0
M  END
$$$$
