
     RDKit          3D

 40 43  0  0  0  0  0  0  0  0999 V2000
  -17.4770  -47.8006   -9.1764 C   0  0  0  0  0  0  0  0  0  0  0  0
  -17.1930  -46.4793   -9.4185 O   0  0  0  0  0  0  0  0  0  0  0  0
  -17.0231  -45.7110   -8.2770 C   0  0  0  0  0  0  0  0  0  0  0  0
  -18.1107  -44.7011   -8.2241 C   0  0  0  0  0  0  0  0  0  0  0  0
  -19.3053  -44.9264   -7.6058 C   0  0  0  0  0  0  0  0  0  0  0  0
  -20.3599  -43.9726   -7.5420 C   0  0  0  0  0  0  0  0  0  0  0  0
  -20.1874  -42.7390   -8.1353 C   0  0  0  0  0  0  0  0  0  0  0  0
  -18.9925  -42.4724   -8.7696 C   0  0  0  0  0  0  0  0  0  0  0  0
  -17.9769  -43.4653   -8.7999 C   0  0  0  0  0  0  0  0  0  0  0  0
  -18.5066  -41.2677   -9.4803 C   0  0  0  0  0  0  0  0  0  0  0  0
  -17.8180  -41.4559  -10.6007 O   0  0  0  0  0  0  0  0  0  0  0  0
  -18.6112  -39.8982   -9.2254 N   0  0  0  0  0  0  0  0  0  0  0  0
  -18.3293  -39.1759   -8.0038 C   0  0  1  0  0  0  0  0  0  0  0  0
  -19.5143  -39.0827   -7.0968 C   0  0  0  0  0  0  0  0  0  0  0  0
  -20.5664  -38.1208   -7.6112 C   0  0  2  0  0  0  0  0  0  0  0  0
  -20.4723  -36.8731   -6.7862 C   0  0  0  0  0  0  0  0  0  0  0  0
  -21.9420  -38.7279   -7.6059 C   0  0  0  0  0  0  0  0  0  0  0  0
  -22.4399  -38.9668   -6.1829 C   0  0  0  0  0  0  0  0  0  0  0  0
  -23.6941  -39.8146   -6.1971 C   0  0  0  0  0  0  0  0  0  0  0  0
  -23.3171  -41.2169   -6.5127 C   0  0  0  0  0  0  0  0  0  0  0  0
  -24.1397  -42.2662   -5.7951 C   0  0  0  0  0  0  0  0  0  0  0  0
  -23.6475  -43.6105   -6.3479 C   0  0  0  0  0  0  0  0  0  0  0  0
  -22.3154  -44.0003   -5.7890 C   0  0  0  0  0  0  0  0  0  0  0  0
  -21.4518  -44.5424   -6.8223 N   0  0  0  0  0  0  0  0  0  0  0  0
  -17.1365  -39.6815   -7.2684 C   0  0  2  0  0  0  0  0  0  0  0  0
  -16.1987  -38.7187   -6.9254 O   0  0  0  0  0  0  0  0  0  0  0  0
  -16.3975  -40.7839   -7.9932 C   0  0  0  0  0  0  0  0  0  0  0  0
  -15.9986  -40.4538   -9.3245 N   0  0  0  0  0  0  0  0  0  0  0  0
  -15.4981  -41.5526  -10.0915 C   0  0  0  0  0  0  0  0  0  0  0  0
  -14.0708  -41.4190  -10.4302 C   0  0  0  0  0  0  0  0  0  0  0  0
  -13.1236  -41.8941   -9.5554 C   0  0  0  0  0  0  0  0  0  0  0  0
  -11.7714  -41.7983   -9.8110 C   0  0  0  0  0  0  0  0  0  0  0  0
  -10.9879  -42.3347   -8.8088 O   0  0  0  0  0  0  0  0  0  0  0  0
   -9.6018  -42.6383   -8.9011 C   0  0  0  0  0  0  0  0  0  0  0  0
   -9.2680  -43.0368  -10.3172 C   0  0  0  0  0  0  0  0  0  0  0  0
   -8.9192  -41.8584  -11.1729 C   0  0  0  0  0  0  0  0  0  0  0  0
  -10.0416  -41.0262  -11.4003 O   0  0  0  0  0  0  0  0  0  0  0  0
  -11.3674  -41.1967  -11.0008 C   0  0  0  0  0  0  0  0  0  0  0  0
  -12.2902  -40.7197  -11.8805 C   0  0  0  0  0  0  0  0  0  0  0  0
  -13.6324  -40.8316  -11.5944 C   0  0  0  0  0  0  0  0  0  0  0  0
  1  2  1  0
  2  3  1  0
  3  4  1  0
  4  5  2  0
  5  6  1  0
  6  7  2  0
  7  8  1  0
  8  9  2  0
  8 10  1  0
 10 11  2  0
 10 12  1  0
 12 13  1  0
 13 14  1  1
 14 15  1  0
 15 16  1  1
 15 17  1  0
 17 18  1  0
 18 19  1  0
 19 20  1  0
 20 21  1  0
 21 22  1  0
 22 23  1  0
 23 24  1  0
 13 25  1  0
 25 26  1  6
 25 27  1  0
 27 28  1  0
 28 29  1  0
 29 30  1  0
 30 31  2  0
 31 32  1  0
 32 33  1  0
 33 34  1  0
 34 35  1  0
 35 36  1  0
 36 37  1  0
 37 38  1  0
 38 39  1  0
 39 40  2  0
  9  4  1  0
 24  6  1  0
 38 32  2  0
 40 30  1  0
M  END
$$$$
