
     RDKit          3D

 40 43  0  0  0  0  0  0  0  0999 V2000
  -13.8870  -44.2012   -8.0880 C   0  0  0  0  0  0  0  0  0  0  0  0
  -14.6649  -44.7163   -9.0953 O   0  0  0  0  0  0  0  0  0  0  0  0
  -15.7363  -45.4801   -8.6586 C   0  0  0  0  0  0  0  0  0  0  0  0
  -16.9283  -44.6006   -8.5527 C   0  0  0  0  0  0  0  0  0  0  0  0
  -18.0582  -44.9576   -7.8772 C   0  0  0  0  0  0  0  0  0  0  0  0
  -19.2104  -44.1301   -7.7620 C   0  0  0  0  0  0  0  0  0  0  0  0
  -19.2088  -42.8879   -8.3625 C   0  0  0  0  0  0  0  0  0  0  0  0
  -18.0842  -42.4901   -9.0540 C   0  0  0  0  0  0  0  0  0  0  0  0
  -16.9644  -43.3606   -9.1339 C   0  0  0  0  0  0  0  0  0  0  0  0
  -17.7739  -41.2415   -9.7870 C   0  0  0  0  0  0  0  0  0  0  0  0
  -17.1232  -41.3557  -10.9396 O   0  0  0  0  0  0  0  0  0  0  0  0
  -18.0219  -39.8915   -9.5269 N   0  0  0  0  0  0  0  0  0  0  0  0
  -17.7657  -39.1354   -8.3202 C   0  0  1  0  0  0  0  0  0  0  0  0
  -18.9085  -39.1734   -7.3567 C   0  0  0  0  0  0  0  0  0  0  0  0
  -20.0871  -38.3405   -7.8191 C   0  0  2  0  0  0  0  0  0  0  0  0
  -20.0965  -37.0859   -6.9992 C   0  0  0  0  0  0  0  0  0  0  0  0
  -21.3825  -39.1005   -7.7472 C   0  0  0  0  0  0  0  0  0  0  0  0
  -21.7806  -39.3873   -6.3018 C   0  0  0  0  0  0  0  0  0  0  0  0
  -22.9290  -40.3727   -6.2555 C   0  0  0  0  0  0  0  0  0  0  0  0
  -22.4099  -41.7245   -6.5895 C   0  0  0  0  0  0  0  0  0  0  0  0
  -23.0717  -42.8570   -5.8331 C   0  0  0  0  0  0  0  0  0  0  0  0
  -22.4564  -44.1393   -6.4097 C   0  0  0  0  0  0  0  0  0  0  0  0
  -21.0631  -44.3716   -5.9161 C   0  0  0  0  0  0  0  0  0  0  0  0
  -20.1941  -44.8169   -6.9903 N   0  0  0  0  0  0  0  0  0  0  0  0
  -16.4889  -39.4978   -7.6437 C   0  0  2  0  0  0  0  0  0  0  0  0
  -16.4511  -39.2555   -6.2785 O   0  0  0  0  0  0  0  0  0  0  0  0
  -15.2714  -38.8341   -8.2472 C   0  0  0  0  0  0  0  0  0  0  0  0
  -14.3533  -39.7343   -8.8693 N   0  0  0  0  0  0  0  0  0  0  0  0
  -13.1247  -39.1392   -9.2966 C   0  0  0  0  0  0  0  0  0  0  0  0
  -12.6809  -39.6142  -10.6184 C   0  0  0  0  0  0  0  0  0  0  0  0
  -13.4779  -40.4826  -11.3246 C   0  0  0  0  0  0  0  0  0  0  0  0
  -13.1200  -40.9668  -12.5657 C   0  0  0  0  0  0  0  0  0  0  0  0
  -14.0563  -41.8251  -13.1067 O   0  0  0  0  0  0  0  0  0  0  0  0
  -14.1131  -42.2572  -14.4602 C   0  0  0  0  0  0  0  0  0  0  0  0
  -13.5862  -41.1659  -15.3586 C   0  0  0  0  0  0  0  0  0  0  0  0
  -12.1027  -41.2492  -15.5454 C   0  0  0  0  0  0  0  0  0  0  0  0
  -11.4070  -40.9522  -14.3488 O   0  0  0  0  0  0  0  0  0  0  0  0
  -11.9060  -40.5523  -13.1089 C   0  0  0  0  0  0  0  0  0  0  0  0
  -11.1022  -39.6924  -12.4251 C   0  0  0  0  0  0  0  0  0  0  0  0
  -11.4897  -39.2281  -11.1882 C   0  0  0  0  0  0  0  0  0  0  0  0
  1  2  1  0
  2  3  1  0
  3  4  1  0
  4  5  2  0
  5  6  1  0
  6  7  2  0
  7  8  1  0
  8  9  2  0
  8 10  1  0
 10 11  2  0
 10 12  1  0
 12 13  1  0
 13 14  1  1
 14 15  1  0
 15 16  1  1
 15 17  1  0
 17 18  1  0
 18 19  1  0
 19 20  1  0
 20 21  1  0
 21 22  1  0
 22 23  1  0
 23 24  1  0
 13 25  1  0
 25 26  1  1
 25 27  1  0
 27 28  1  0
 28 29  1  0
 29 30  1  0
 30 31  2  0
 31 32  1  0
 32 33  1  0
 33 34  1  0
 34 35  1  0
 35 36  1  0
 36 37  1  0
 37 38  1  0
 38 39  1  0
 39 40  2  0
  9  4  1  0
 24  6  1  0
 38 32  2  0
 40 30  1  0
M  END
$$$$
