
     RDKit          3D

 40 43  0  0  0  0  0  0  0  0999 V2000
  -19.8635  -38.2223  -14.5945 C   0  0  0  0  0  0  0  0  0  0  0  0
  -18.6124  -38.5184  -14.1126 O   0  0  0  0  0  0  0  0  0  0  0  0
  -18.5250  -39.7352  -13.4540 C   0  0  0  0  0  0  0  0  0  0  0  0
  -19.2529  -39.6248  -12.1642 C   0  0  0  0  0  0  0  0  0  0  0  0
  -20.4286  -40.2701  -11.9161 C   0  0  0  0  0  0  0  0  0  0  0  0
  -21.1415  -40.1795  -10.6876 C   0  0  0  0  0  0  0  0  0  0  0  0
  -20.6332  -39.3966   -9.6716 C   0  0  0  0  0  0  0  0  0  0  0  0
  -19.4456  -38.7289   -9.8834 C   0  0  0  0  0  0  0  0  0  0  0  0
  -18.7799  -38.8588  -11.1316 C   0  0  0  0  0  0  0  0  0  0  0  0
  -18.6532  -37.8350   -9.0083 C   0  0  0  0  0  0  0  0  0  0  0  0
  -18.1084  -36.7597   -9.5668 O   0  0  0  0  0  0  0  0  0  0  0  0
  -18.3270  -37.8673   -7.6504 N   0  0  0  0  0  0  0  0  0  0  0  0
  -17.7816  -38.9578   -6.8713 C   0  0  1  0  0  0  0  0  0  0  0  0
  -18.8381  -39.8371   -6.2829 C   0  0  0  0  0  0  0  0  0  0  0  0
  -19.5739  -39.1744   -5.1356 C   0  0  2  0  0  0  0  0  0  0  0  0
  -19.0678  -39.7892   -3.8659 C   0  0  0  0  0  0  0  0  0  0  0  0
  -21.0668  -39.2756   -5.2846 C   0  0  0  0  0  0  0  0  0  0  0  0
  -21.5445  -40.7180   -5.1396 C   0  0  0  0  0  0  0  0  0  0  0  0
  -22.9953  -40.8386   -5.5550 C   0  0  0  0  0  0  0  0  0  0  0  0
  -23.0752  -40.7518   -7.0363 C   0  0  0  0  0  0  0  0  0  0  0  0
  -24.1407  -41.6274   -7.6613 C   0  0  0  0  0  0  0  0  0  0  0  0
  -24.1048  -41.2972   -9.1595 C   0  0  0  0  0  0  0  0  0  0  0  0
  -22.9273  -41.9126   -9.8479 C   0  0  0  0  0  0  0  0  0  0  0  0
  -22.3186  -40.9801  -10.7792 N   0  0  0  0  0  0  0  0  0  0  0  0
  -16.7633  -39.7657   -7.5991 C   0  0  2  0  0  0  0  0  0  0  0  0
  -16.3230  -40.9018   -6.9363 O   0  0  0  0  0  0  0  0  0  0  0  0
  -15.5349  -38.9792   -7.9980 C   0  0  0  0  0  0  0  0  0  0  0  0
  -15.4652  -38.6536   -9.3871 N   0  0  0  0  0  0  0  0  0  0  0  0
  -14.1434  -38.4295   -9.8859 C   0  0  0  0  0  0  0  0  0  0  0  0
  -13.6008  -39.5826  -10.6247 C   0  0  0  0  0  0  0  0  0  0  0  0
  -12.3415  -40.0429  -10.3242 C   0  0  0  0  0  0  0  0  0  0  0  0
  -11.7740  -41.1160  -10.9796 C   0  0  0  0  0  0  0  0  0  0  0  0
  -10.5045  -41.4198  -10.5302 O   0  0  0  0  0  0  0  0  0  0  0  0
   -9.7846  -42.6160  -10.7998 C   0  0  0  0  0  0  0  0  0  0  0  0
  -10.7528  -43.7641  -10.9411 C   0  0  0  0  0  0  0  0  0  0  0  0
  -11.2512  -43.9189  -12.3448 C   0  0  0  0  0  0  0  0  0  0  0  0
  -12.0805  -42.8375  -12.7279 O   0  0  0  0  0  0  0  0  0  0  0  0
  -12.5151  -41.7442  -11.9780 C   0  0  0  0  0  0  0  0  0  0  0  0
  -13.7645  -41.3033  -12.2905 C   0  0  0  0  0  0  0  0  0  0  0  0
  -14.3012  -40.2293  -11.6165 C   0  0  0  0  0  0  0  0  0  0  0  0
  1  2  1  0
  2  3  1  0
  3  4  1  0
  4  5  2  0
  5  6  1  0
  6  7  2  0
  7  8  1  0
  8  9  2  0
  8 10  1  0
 10 11  2  0
 10 12  1  0
 12 13  1  0
 13 14  1  6
 14 15  1  0
 15 16  1  1
 15 17  1  0
 17 18  1  0
 18 19  1  0
 19 20  1  0
 20 21  1  0
 21 22  1  0
 22 23  1  0
 23 24  1  0
 13 25  1  0
 25 26  1  1
 25 27  1  0
 27 28  1  0
 28 29  1  0
 29 30  1  0
 30 31  2  0
 31 32  1  0
 32 33  1  0
 33 34  1  0
 34 35  1  0
 35 36  1  0
 36 37  1  0
 37 38  1  0
 38 39  1  0
 39 40  2  0
  9  4  1  0
 24  6  1  0
 38 32  2  0
 40 30  1  0
M  END
$$$$
