
     RDKit          3D

 40 43  0  0  0  0  0  0  0  0999 V2000
  -13.8423  -45.4608   -8.3216 C   0  0  0  0  0  0  0  0  0  0  0  0
  -15.0614  -44.8989   -8.0334 O   0  0  0  0  0  0  0  0  0  0  0  0
  -16.1221  -45.4324   -8.7492 C   0  0  0  0  0  0  0  0  0  0  0  0
  -17.2307  -44.4441   -8.7531 C   0  0  0  0  0  0  0  0  0  0  0  0
  -18.4762  -44.7218   -8.2713 C   0  0  0  0  0  0  0  0  0  0  0  0
  -19.5518  -43.7897   -8.2641 C   0  0  0  0  0  0  0  0  0  0  0  0
  -19.3471  -42.5230   -8.7710 C   0  0  0  0  0  0  0  0  0  0  0  0
  -18.1008  -42.2033   -9.2664 C   0  0  0  0  0  0  0  0  0  0  0  0
  -17.0663  -43.1768   -9.2464 C   0  0  0  0  0  0  0  0  0  0  0  0
  -17.5719  -40.9540   -9.8599 C   0  0  0  0  0  0  0  0  0  0  0  0
  -16.7710  -41.0698  -10.9135 O   0  0  0  0  0  0  0  0  0  0  0  0
  -17.7306  -39.6023   -9.5450 N   0  0  0  0  0  0  0  0  0  0  0  0
  -17.5876  -38.9434   -8.2648 C   0  0  1  0  0  0  0  0  0  0  0  0
  -18.8590  -38.9187   -7.4783 C   0  0  0  0  0  0  0  0  0  0  0  0
  -19.8746  -37.9469   -8.0448 C   0  0  2  0  0  0  0  0  0  0  0  0
  -19.8899  -36.7448   -7.1498 C   0  0  0  0  0  0  0  0  0  0  0  0
  -21.2307  -38.5751   -8.2105 C   0  0  0  0  0  0  0  0  0  0  0  0
  -21.8631  -38.8992   -6.8596 C   0  0  0  0  0  0  0  0  0  0  0  0
  -23.0913  -39.7647   -7.0451 C   0  0  0  0  0  0  0  0  0  0  0  0
  -22.6550  -41.1416   -7.3946 C   0  0  0  0  0  0  0  0  0  0  0  0
  -23.5227  -42.2413   -6.8200 C   0  0  0  0  0  0  0  0  0  0  0  0
  -22.9493  -43.5455   -7.3906 C   0  0  0  0  0  0  0  0  0  0  0  0
  -21.6717  -43.9441   -6.7213 C   0  0  0  0  0  0  0  0  0  0  0  0
  -20.6979  -44.4152   -7.6894 N   0  0  0  0  0  0  0  0  0  0  0  0
  -16.4638  -39.4696   -7.4404 C   0  0  2  0  0  0  0  0  0  0  0  0
  -16.0965  -38.6770   -6.3629 O   0  0  0  0  0  0  0  0  0  0  0  0
  -15.2077  -39.7515   -8.2339 C   0  0  0  0  0  0  0  0  0  0  0  0
  -14.6409  -38.6063   -8.8725 N   0  0  0  0  0  0  0  0  0  0  0  0
  -13.3369  -38.8101   -9.4241 C   0  0  0  0  0  0  0  0  0  0  0  0
  -13.2059  -38.3038  -10.8011 C   0  0  0  0  0  0  0  0  0  0  0  0
  -12.6446  -39.1077  -11.7638 C   0  0  0  0  0  0  0  0  0  0  0  0
  -12.4906  -38.6937  -13.0706 C   0  0  0  0  0  0  0  0  0  0  0  0
  -11.9065  -39.6479  -13.8795 O   0  0  0  0  0  0  0  0  0  0  0  0
  -11.8721  -39.6337  -15.3010 C   0  0  0  0  0  0  0  0  0  0  0  0
  -13.1148  -38.9595  -15.8269 C   0  0  0  0  0  0  0  0  0  0  0  0
  -12.9481  -37.4765  -15.9521 C   0  0  0  0  0  0  0  0  0  0  0  0
  -12.8368  -36.8536  -14.6858 O   0  0  0  0  0  0  0  0  0  0  0  0
  -12.9237  -37.4141  -13.4111 C   0  0  0  0  0  0  0  0  0  0  0  0
  -13.4824  -36.6024  -12.4719 C   0  0  0  0  0  0  0  0  0  0  0  0
  -13.6213  -37.0470  -11.1763 C   0  0  0  0  0  0  0  0  0  0  0  0
  1  2  1  0
  2  3  1  0
  3  4  1  0
  4  5  2  0
  5  6  1  0
  6  7  2  0
  7  8  1  0
  8  9  2  0
  8 10  1  0
 10 11  2  0
 10 12  1  0
 12 13  1  0
 13 14  1  1
 14 15  1  0
 15 16  1  1
 15 17  1  0
 17 18  1  0
 18 19  1  0
 19 20  1  0
 20 21  1  0
 21 22  1  0
 22 23  1  0
 23 24  1  0
 13 25  1  0
 25 26  1  1
 25 27  1  0
 27 28  1  0
 28 29  1  0
 29 30  1  0
 30 31  2  0
 31 32  1  0
 32 33  1  0
 33 34  1  0
 34 35  1  0
 35 36  1  0
 36 37  1  0
 37 38  1  0
 38 39  1  0
 39 40  2  0
  9  4  1  0
 24  6  1  0
 38 32  2  0
 40 30  1  0
M  END
$$$$
