
     RDKit          3D

 40 43  0  0  0  0  0  0  0  0999 V2000
  -16.8459  -45.7296  -12.0599 C   0  0  0  0  0  0  0  0  0  0  0  0
  -17.3634  -44.4586  -12.0172 O   0  0  0  0  0  0  0  0  0  0  0  0
  -17.0948  -43.7695  -10.8445 C   0  0  0  0  0  0  0  0  0  0  0  0
  -16.0806  -42.7243  -11.1354 C   0  0  0  0  0  0  0  0  0  0  0  0
  -15.8796  -42.2097  -12.3824 C   0  0  0  0  0  0  0  0  0  0  0  0
  -14.9148  -41.2073  -12.6828 C   0  0  0  0  0  0  0  0  0  0  0  0
  -14.1223  -40.7115  -11.6681 C   0  0  0  0  0  0  0  0  0  0  0  0
  -14.2962  -41.2057  -10.3927 C   0  0  0  0  0  0  0  0  0  0  0  0
  -15.2761  -42.2064  -10.1550 C   0  0  0  0  0  0  0  0  0  0  0  0
  -13.6220  -40.8818   -9.1148 C   0  0  0  0  0  0  0  0  0  0  0  0
  -13.3313  -41.8934   -8.3042 O   0  0  0  0  0  0  0  0  0  0  0  0
  -13.1990  -39.6848   -8.5318 N   0  0  0  0  0  0  0  0  0  0  0  0
  -13.9350  -38.4528   -8.3472 C   0  0  1  0  0  0  0  0  0  0  0  0
  -13.8156  -37.5240   -9.5128 C   0  0  0  0  0  0  0  0  0  0  0  0
  -12.4471  -36.8795   -9.6053 C   0  0  2  0  0  0  0  0  0  0  0  0
  -12.5881  -35.4628   -9.1369 C   0  0  0  0  0  0  0  0  0  0  0  0
  -11.8606  -36.9877  -10.9856 C   0  0  0  0  0  0  0  0  0  0  0  0
  -12.6441  -36.1480  -11.9910 C   0  0  0  0  0  0  0  0  0  0  0  0
  -12.2116  -36.4759  -13.4043 C   0  0  0  0  0  0  0  0  0  0  0  0
  -12.7691  -37.8020  -13.7772 C   0  0  0  0  0  0  0  0  0  0  0  0
  -13.1844  -37.9244  -15.2280 C   0  0  0  0  0  0  0  0  0  0  0  0
  -13.6236  -39.3849  -15.3988 C   0  0  0  0  0  0  0  0  0  0  0  0
  -14.9673  -39.6475  -14.7952 C   0  0  0  0  0  0  0  0  0  0  0  0
  -14.9813  -40.9084  -14.0761 N   0  0  0  0  0  0  0  0  0  0  0  0
  -15.3630  -38.6560   -7.9745 C   0  0  2  0  0  0  0  0  0  0  0  0
  -15.8159  -37.8820   -6.9163 O   0  0  0  0  0  0  0  0  0  0  0  0
  -15.7094  -40.0928   -7.6550 C   0  0  0  0  0  0  0  0  0  0  0  0
  -17.1066  -40.3440   -7.4959 N   0  0  0  0  0  0  0  0  0  0  0  0
  -17.9481  -39.6784   -8.4419 C   0  0  0  0  0  0  0  0  0  0  0  0
  -19.3657  -39.6593   -8.0420 C   0  0  0  0  0  0  0  0  0  0  0  0
  -20.2361  -40.5623   -8.6035 C   0  0  0  0  0  0  0  0  0  0  0  0
  -21.5754  -40.5960   -8.2747 C   0  0  0  0  0  0  0  0  0  0  0  0
  -22.2775  -41.5754   -8.9484 O   0  0  0  0  0  0  0  0  0  0  0  0
  -23.5826  -42.0405   -8.6286 C   0  0  0  0  0  0  0  0  0  0  0  0
  -23.7979  -41.9476   -7.1384 C   0  0  0  0  0  0  0  0  0  0  0  0
  -24.3292  -40.6106   -6.7224 C   0  0  0  0  0  0  0  0  0  0  0  0
  -23.3698  -39.5861   -6.9057 O   0  0  0  0  0  0  0  0  0  0  0  0
  -22.0471  -39.6771   -7.3399 C   0  0  0  0  0  0  0  0  0  0  0  0
  -21.2008  -38.7745   -6.7722 C   0  0  0  0  0  0  0  0  0  0  0  0
  -19.8693  -38.7681   -7.1230 C   0  0  0  0  0  0  0  0  0  0  0  0
  1  2  1  0
  2  3  1  0
  3  4  1  0
  4  5  2  0
  5  6  1  0
  6  7  2  0
  7  8  1  0
  8  9  2  0
  8 10  1  0
 10 11  2  0
 10 12  1  0
 12 13  1  0
 13 14  1  6
 14 15  1  0
 15 16  1  6
 15 17  1  0
 17 18  1  0
 18 19  1  0
 19 20  1  0
 20 21  1  0
 21 22  1  0
 22 23  1  0
 23 24  1  0
 13 25  1  0
 25 26  1  1
 25 27  1  0
 27 28  1  0
 28 29  1  0
 29 30  1  0
 30 31  2  0
 31 32  1  0
 32 33  1  0
 33 34  1  0
 34 35  1  0
 35 36  1  0
 36 37  1  0
 37 38  1  0
 38 39  1  0
 39 40  2  0
  9  4  1  0
 24  6  1  0
 38 32  2  0
 40 30  1  0
M  END
$$$$
