
     RDKit          3D

 38 40  0  0  0  0  0  0  0  0999 V2000
  -12.9972  -34.3380  -12.6341 C   0  0  0  0  0  0  0  0  0  0  0  0
  -13.1411  -35.6336  -11.8529 C   0  0  0  0  0  0  0  0  0  0  0  0
  -11.8875  -36.4456  -12.1657 C   0  0  0  0  0  0  0  0  0  0  0  0
  -12.2332  -37.9110  -12.3389 C   0  0  0  0  0  0  0  0  0  0  0  0
  -12.5744  -38.4935  -11.0810 N   0  0  0  0  0  0  0  0  0  0  0  0
  -13.8420  -39.1625  -10.8984 C   0  0  0  0  0  0  0  0  0  0  0  0
  -14.6699  -38.9864  -11.8051 O   0  0  0  0  0  0  0  0  0  0  0  0
  -13.9676  -39.9514   -9.6717 C   0  0  2  0  0  0  0  0  0  0  0  0
  -13.0252  -41.1598   -9.6928 C   0  0  0  0  0  0  0  0  0  0  0  0
  -15.3335  -40.3346   -9.2431 C   0  0  0  0  0  0  0  0  0  0  0  0
  -16.4114  -39.3304   -9.3938 C   0  0  2  0  0  0  0  0  0  0  0  0
  -16.0455  -38.0226   -9.4252 O   0  0  0  0  0  0  0  0  0  0  0  0
  -17.4956  -39.6067   -8.3405 C   0  0  2  0  0  0  0  0  0  0  0  0
  -18.1363  -38.2795   -7.9231 C   0  0  0  0  0  0  0  0  0  0  0  0
  -19.6393  -38.4273   -7.8710 C   0  0  0  0  0  0  0  0  0  0  0  0
  -20.4327  -38.9300   -6.8756 C   0  0  0  0  0  0  0  0  0  0  0  0
  -21.7914  -39.0780   -7.1271 C   0  0  0  0  0  0  0  0  0  0  0  0
  -22.8918  -39.6607   -6.3371 C   0  0  0  0  0  0  0  0  0  0  0  0
  -22.6493  -40.5573   -5.2019 C   0  0  0  0  0  0  0  0  0  0  0  0
  -22.5772  -39.9748   -3.9508 C   0  0  0  0  0  0  0  0  0  0  0  0
  -22.3722  -40.6396   -2.7703 C   0  0  0  0  0  0  0  0  0  0  0  0
  -22.2242  -42.0010   -2.8158 C   0  0  0  0  0  0  0  0  0  0  0  0
  -22.2910  -42.6119   -4.0479 C   0  0  0  0  0  0  0  0  0  0  0  0
  -22.4982  -41.9546   -5.2688 C   0  0  0  0  0  0  0  0  0  0  0  0
  -22.5455  -42.6537   -6.4173 O   0  0  0  0  0  0  0  0  0  0  0  0
  -21.7533  -42.9983   -7.5028 C   0  0  0  0  0  0  0  0  0  0  0  0
  -20.5410  -42.1905   -7.7581 C   0  0  0  0  0  0  0  0  0  0  0  0
  -20.7044  -41.4519   -8.8213 O   0  0  0  0  0  0  0  0  0  0  0  0
  -19.3402  -42.0973   -7.0948 N   0  0  0  0  0  0  0  0  0  0  0  0
  -18.0708  -42.7840   -7.1638 C   0  0  1  0  0  0  0  0  0  0  0  0
  -17.9055  -43.8403   -8.1770 C   0  0  0  0  0  0  0  0  0  0  0  0
  -16.9375  -41.7874   -7.1186 C   0  0  0  0  0  0  0  0  0  0  0  0
  -15.7675  -42.2806   -6.9104 O   0  0  0  0  0  0  0  0  0  0  0  0
  -17.0083  -40.4100   -7.2728 N   0  0  0  0  0  0  0  0  0  0  0  0
  -22.2959  -38.6890   -8.4055 C   0  0  0  0  0  0  0  0  0  0  0  0
  -23.6729  -38.8187   -8.6959 O   0  0  0  0  0  0  0  0  0  0  0  0
  -21.5220  -38.1822   -9.4033 C   0  0  0  0  0  0  0  0  0  0  0  0
  -20.1928  -38.0571   -9.1240 C   0  0  0  0  0  0  0  0  0  0  0  0
  1  2  1  0
  2  3  1  0
  3  4  1  0
  4  5  1  0
  5  6  1  0
  6  7  2  0
  6  8  1  0
  8  9  1  6
  8 10  1  0
 10 11  1  0
 11 12  1  1
 11 13  1  0
 13 14  1  1
 14 15  1  0
 15 16  2  0
 16 17  1  0
 17 18  1  0
 18 19  1  0
 19 20  2  0
 20 21  1  0
 21 22  2  0
 22 23  1  0
 23 24  2  0
 24 25  1  0
 25 26  1  0
 26 27  1  0
 27 28  2  0
 27 29  1  0
 29 30  1  0
 30 31  1  6
 30 32  1  0
 32 33  2  0
 32 34  1  0
 17 35  2  0
 35 36  1  0
 35 37  1  0
 37 38  2  0
 24 19  1  0
 34 13  1  0
 38 15  1  0
M  END
$$$$
