
     RDKit          3D

 38 40  0  0  0  0  0  0  0  0999 V2000
  -11.5703  -34.3492  -11.7669 C   0  0  0  0  0  0  0  0  0  0  0  0
  -12.1887  -35.6209  -12.3239 C   0  0  0  0  0  0  0  0  0  0  0  0
  -12.6934  -36.3994  -11.1124 C   0  0  0  0  0  0  0  0  0  0  0  0
  -11.6537  -37.4028  -10.6549 C   0  0  0  0  0  0  0  0  0  0  0  0
  -12.1438  -38.1561   -9.5458 N   0  0  0  0  0  0  0  0  0  0  0  0
  -13.1245  -39.1995   -9.7395 C   0  0  0  0  0  0  0  0  0  0  0  0
  -13.2519  -39.5971  -10.9074 O   0  0  0  0  0  0  0  0  0  0  0  0
  -13.8260  -39.6374   -8.5316 C   0  0  2  0  0  0  0  0  0  0  0  0
  -13.0324  -40.7212   -7.7939 C   0  0  0  0  0  0  0  0  0  0  0  0
  -15.2546  -40.0074   -8.6678 C   0  0  0  0  0  0  0  0  0  0  0  0
  -16.2607  -38.9261   -8.5616 C   0  0  2  0  0  0  0  0  0  0  0  0
  -15.8189  -37.6976   -8.1862 O   0  0  0  0  0  0  0  0  0  0  0  0
  -17.4253  -39.4180   -7.6881 C   0  0  2  0  0  0  0  0  0  0  0  0
  -18.2494  -38.2116   -7.2284 C   0  0  0  0  0  0  0  0  0  0  0  0
  -19.7234  -38.5056   -7.3842 C   0  0  0  0  0  0  0  0  0  0  0  0
  -20.5698  -39.1877   -6.5526 C   0  0  0  0  0  0  0  0  0  0  0  0
  -21.8658  -39.4347   -6.9895 C   0  0  0  0  0  0  0  0  0  0  0  0
  -22.9824  -40.2024   -6.4080 C   0  0  0  0  0  0  0  0  0  0  0  0
  -22.7802  -41.1919   -5.3444 C   0  0  0  0  0  0  0  0  0  0  0  0
  -22.9187  -40.7469   -4.0433 C   0  0  0  0  0  0  0  0  0  0  0  0
  -22.7837  -41.5155   -2.9170 C   0  0  0  0  0  0  0  0  0  0  0  0
  -22.4861  -42.8435   -3.0762 C   0  0  0  0  0  0  0  0  0  0  0  0
  -22.3416  -43.3182   -4.3606 C   0  0  0  0  0  0  0  0  0  0  0  0
  -22.4731  -42.5527   -5.5278 C   0  0  0  0  0  0  0  0  0  0  0  0
  -22.3098  -43.1221   -6.7357 O   0  0  0  0  0  0  0  0  0  0  0  0
  -21.3630  -43.2683   -7.7391 C   0  0  0  0  0  0  0  0  0  0  0  0
  -20.2229  -42.3264   -7.7566 C   0  0  0  0  0  0  0  0  0  0  0  0
  -20.3385  -41.4938   -8.7545 O   0  0  0  0  0  0  0  0  0  0  0  0
  -19.1254  -42.1940   -6.9390 N   0  0  0  0  0  0  0  0  0  0  0  0
  -17.7904  -42.7459   -6.9116 C   0  0  1  0  0  0  0  0  0  0  0  0
  -17.3946  -43.6636   -7.9937 C   0  0  0  0  0  0  0  0  0  0  0  0
  -16.7838  -41.6578   -6.6241 C   0  0  0  0  0  0  0  0  0  0  0  0
  -15.6003  -42.0582   -6.3169 O   0  0  0  0  0  0  0  0  0  0  0  0
  -16.9835  -40.2847   -6.6505 N   0  0  0  0  0  0  0  0  0  0  0  0
  -22.2552  -38.9564   -8.2778 C   0  0  0  0  0  0  0  0  0  0  0  0
  -23.5665  -39.1828   -8.7537 O   0  0  0  0  0  0  0  0  0  0  0  0
  -21.4283  -38.2717   -9.1137 C   0  0  0  0  0  0  0  0  0  0  0  0
  -20.1624  -38.0532   -8.6554 C   0  0  0  0  0  0  0  0  0  0  0  0
  1  2  1  0
  2  3  1  0
  3  4  1  0
  4  5  1  0
  5  6  1  0
  6  7  2  0
  6  8  1  0
  8  9  1  6
  8 10  1  0
 10 11  1  0
 11 12  1  1
 11 13  1  0
 13 14  1  1
 14 15  1  0
 15 16  2  0
 16 17  1  0
 17 18  1  0
 18 19  1  0
 19 20  2  0
 20 21  1  0
 21 22  2  0
 22 23  1  0
 23 24  2  0
 24 25  1  0
 25 26  1  0
 26 27  1  0
 27 28  2  0
 27 29  1  0
 29 30  1  0
 30 31  1  6
 30 32  1  0
 32 33  2  0
 32 34  1  0
 17 35  2  0
 35 36  1  0
 35 37  1  0
 37 38  2  0
 24 19  1  0
 34 13  1  0
 38 15  1  0
M  END
$$$$
