
     RDKit          3D

 38 40  0  0  0  0  0  0  0  0999 V2000
  -13.4387  -34.2045  -13.0768 C   0  0  0  0  0  0  0  0  0  0  0  0
  -13.4317  -35.6524  -13.5386 C   0  0  0  0  0  0  0  0  0  0  0  0
  -13.4110  -36.4919  -12.2645 C   0  0  0  0  0  0  0  0  0  0  0  0
  -13.3777  -37.9690  -12.6020 C   0  0  0  0  0  0  0  0  0  0  0  0
  -13.3242  -38.7508  -11.4087 N   0  0  0  0  0  0  0  0  0  0  0  0
  -14.4854  -39.4800  -10.9528 C   0  0  0  0  0  0  0  0  0  0  0  0
  -15.4811  -39.4050  -11.6887 O   0  0  0  0  0  0  0  0  0  0  0  0
  -14.3207  -40.2019   -9.6901 C   0  0  2  0  0  0  0  0  0  0  0  0
  -13.5040  -41.4834   -9.8885 C   0  0  0  0  0  0  0  0  0  0  0  0
  -15.5382  -40.4526   -8.8830 C   0  0  0  0  0  0  0  0  0  0  0  0
  -16.4238  -39.3014   -8.5940 C   0  0  2  0  0  0  0  0  0  0  0  0
  -15.8375  -38.1596   -8.1491 O   0  0  0  0  0  0  0  0  0  0  0  0
  -17.5595  -39.7705   -7.6714 C   0  0  2  0  0  0  0  0  0  0  0  0
  -18.2710  -38.5442   -7.0917 C   0  0  0  0  0  0  0  0  0  0  0  0
  -19.7682  -38.7363   -7.1626 C   0  0  0  0  0  0  0  0  0  0  0  0
  -20.6023  -39.4122   -6.3137 C   0  0  0  0  0  0  0  0  0  0  0  0
  -21.9372  -39.5520   -6.6742 C   0  0  0  0  0  0  0  0  0  0  0  0
  -23.0622  -40.2816   -6.0608 C   0  0  0  0  0  0  0  0  0  0  0  0
  -22.8577  -41.3425   -5.0688 C   0  0  0  0  0  0  0  0  0  0  0  0
  -22.8824  -40.9670   -3.7391 C   0  0  0  0  0  0  0  0  0  0  0  0
  -22.7261  -41.8073   -2.6681 C   0  0  0  0  0  0  0  0  0  0  0  0
  -22.5276  -43.1396   -2.9193 C   0  0  0  0  0  0  0  0  0  0  0  0
  -22.4977  -43.5461   -4.2344 C   0  0  0  0  0  0  0  0  0  0  0  0
  -22.6534  -42.7067   -5.3465 C   0  0  0  0  0  0  0  0  0  0  0  0
  -22.6061  -43.2132   -6.5920 O   0  0  0  0  0  0  0  0  0  0  0  0
  -21.7376  -43.3589   -7.6640 C   0  0  0  0  0  0  0  0  0  0  0  0
  -20.5414  -42.4903   -7.7077 C   0  0  0  0  0  0  0  0  0  0  0  0
  -20.6659  -41.5949   -8.6486 O   0  0  0  0  0  0  0  0  0  0  0  0
  -19.3872  -42.4746   -6.9607 N   0  0  0  0  0  0  0  0  0  0  0  0
  -18.0924  -43.1091   -7.0542 C   0  0  1  0  0  0  0  0  0  0  0  0
  -17.8286  -43.9844   -8.2091 C   0  0  0  0  0  0  0  0  0  0  0  0
  -16.9999  -42.1044   -6.7771 C   0  0  0  0  0  0  0  0  0  0  0  0
  -15.8280  -42.5949   -6.5734 O   0  0  0  0  0  0  0  0  0  0  0  0
  -17.1099  -40.7224   -6.7150 N   0  0  0  0  0  0  0  0  0  0  0  0
  -22.3765  -38.9756   -7.9050 C   0  0  0  0  0  0  0  0  0  0  0  0
  -23.7278  -39.0917   -8.3022 O   0  0  0  0  0  0  0  0  0  0  0  0
  -21.5618  -38.2958   -8.7568 C   0  0  0  0  0  0  0  0  0  0  0  0
  -20.2573  -38.1837   -8.3744 C   0  0  0  0  0  0  0  0  0  0  0  0
  1  2  1  0
  2  3  1  0
  3  4  1  0
  4  5  1  0
  5  6  1  0
  6  7  2  0
  6  8  1  0
  8  9  1  6
  8 10  1  0
 10 11  1  0
 11 12  1  1
 11 13  1  0
 13 14  1  1
 14 15  1  0
 15 16  2  0
 16 17  1  0
 17 18  1  0
 18 19  1  0
 19 20  2  0
 20 21  1  0
 21 22  2  0
 22 23  1  0
 23 24  2  0
 24 25  1  0
 25 26  1  0
 26 27  1  0
 27 28  2  0
 27 29  1  0
 29 30  1  0
 30 31  1  6
 30 32  1  0
 32 33  2  0
 32 34  1  0
 17 35  2  0
 35 36  1  0
 35 37  1  0
 37 38  2  0
 24 19  1  0
 34 13  1  0
 38 15  1  0
M  END
$$$$
