
     RDKit          3D

 38 40  0  0  0  0  0  0  0  0999 V2000
  -11.7207  -41.0394  -15.6343 C   0  0  0  0  0  0  0  0  0  0  0  0
  -12.6618  -40.6344  -14.5117 C   0  0  0  0  0  0  0  0  0  0  0  0
  -12.3565  -41.5820  -13.3552 C   0  0  0  0  0  0  0  0  0  0  0  0
  -13.5778  -41.7566  -12.4749 C   0  0  0  0  0  0  0  0  0  0  0  0
  -13.4787  -40.9275  -11.3169 N   0  0  0  0  0  0  0  0  0  0  0  0
  -14.3893  -39.8227  -11.1217 C   0  0  0  0  0  0  0  0  0  0  0  0
  -15.2669  -39.6993  -11.9895 O   0  0  0  0  0  0  0  0  0  0  0  0
  -14.1464  -39.0087   -9.9295 C   0  0  2  0  0  0  0  0  0  0  0  0
  -12.6498  -38.9310   -9.6088 C   0  0  0  0  0  0  0  0  0  0  0  0
  -14.9466  -39.3135   -8.7199 C   0  0  0  0  0  0  0  0  0  0  0  0
  -15.8480  -38.2576   -8.2046 C   0  0  2  0  0  0  0  0  0  0  0  0
  -15.3192  -37.3535   -7.3395 O   0  0  0  0  0  0  0  0  0  0  0  0
  -17.1190  -38.9196   -7.6502 C   0  0  2  0  0  0  0  0  0  0  0  0
  -18.1299  -37.8295   -7.2814 C   0  0  0  0  0  0  0  0  0  0  0  0
  -19.5045  -38.2127   -7.7786 C   0  0  0  0  0  0  0  0  0  0  0  0
  -20.4394  -39.0359   -7.2116 C   0  0  0  0  0  0  0  0  0  0  0  0
  -21.5860  -39.3309   -7.9394 C   0  0  0  0  0  0  0  0  0  0  0  0
  -22.7234  -40.2331   -7.6816 C   0  0  0  0  0  0  0  0  0  0  0  0
  -22.6579  -41.3085   -6.6863 C   0  0  0  0  0  0  0  0  0  0  0  0
  -23.1073  -41.0098   -5.4140 C   0  0  0  0  0  0  0  0  0  0  0  0
  -23.1409  -41.8773   -4.3539 C   0  0  0  0  0  0  0  0  0  0  0  0
  -22.6942  -43.1570   -4.5554 C   0  0  0  0  0  0  0  0  0  0  0  0
  -22.2397  -43.4864   -5.8126 C   0  0  0  0  0  0  0  0  0  0  0  0
  -22.1939  -42.6176   -6.9120 C   0  0  0  0  0  0  0  0  0  0  0  0
  -21.7283  -43.0474   -8.0987 O   0  0  0  0  0  0  0  0  0  0  0  0
  -20.5825  -43.0212   -8.8805 C   0  0  0  0  0  0  0  0  0  0  0  0
  -19.5569  -42.0019   -8.5702 C   0  0  0  0  0  0  0  0  0  0  0  0
  -19.5373  -41.0825   -9.4958 O   0  0  0  0  0  0  0  0  0  0  0  0
  -18.6728  -41.8739   -7.5250 N   0  0  0  0  0  0  0  0  0  0  0  0
  -17.3278  -42.3270   -7.2538 C   0  0  1  0  0  0  0  0  0  0  0  0
  -16.6300  -43.0983   -8.2969 C   0  0  0  0  0  0  0  0  0  0  0  0
  -16.5097  -41.2034   -6.6638 C   0  0  0  0  0  0  0  0  0  0  0  0
  -15.3851  -41.5458   -6.1409 O   0  0  0  0  0  0  0  0  0  0  0  0
  -16.8263  -39.8530   -6.6177 N   0  0  0  0  0  0  0  0  0  0  0  0
  -21.7390  -38.7534   -9.2367 C   0  0  0  0  0  0  0  0  0  0  0  0
  -22.8943  -39.0250  -10.0041 O   0  0  0  0  0  0  0  0  0  0  0  0
  -20.8224  -37.9286   -9.8120 C   0  0  0  0  0  0  0  0  0  0  0  0
  -19.7068  -37.6664   -9.0723 C   0  0  0  0  0  0  0  0  0  0  0  0
  1  2  1  0
  2  3  1  0
  3  4  1  0
  4  5  1  0
  5  6  1  0
  6  7  2  0
  6  8  1  0
  8  9  1  1
  8 10  1  0
 10 11  1  0
 11 12  1  1
 11 13  1  0
 13 14  1  1
 14 15  1  0
 15 16  2  0
 16 17  1  0
 17 18  1  0
 18 19  1  0
 19 20  2  0
 20 21  1  0
 21 22  2  0
 22 23  1  0
 23 24  2  0
 24 25  1  0
 25 26  1  0
 26 27  1  0
 27 28  2  0
 27 29  1  0
 29 30  1  0
 30 31  1  6
 30 32  1  0
 32 33  2  0
 32 34  1  0
 17 35  2  0
 35 36  1  0
 35 37  1  0
 37 38  2  0
 24 19  1  0
 34 13  1  0
 38 15  1  0
M  END
$$$$
