
     RDKit          3D

 38 40  0  0  0  0  0  0  0  0999 V2000
  -11.5119  -34.9822  -12.3428 C   0  0  0  0  0  0  0  0  0  0  0  0
  -12.9654  -34.7048  -12.6896 C   0  0  0  0  0  0  0  0  0  0  0  0
  -13.7554  -35.8849  -12.1312 C   0  0  0  0  0  0  0  0  0  0  0  0
  -12.9377  -37.1583  -12.2136 C   0  0  0  0  0  0  0  0  0  0  0  0
  -13.1110  -37.9380  -11.0304 N   0  0  0  0  0  0  0  0  0  0  0  0
  -14.3167  -38.7074  -10.8251 C   0  0  0  0  0  0  0  0  0  0  0  0
  -15.1808  -38.5843  -11.7064 O   0  0  0  0  0  0  0  0  0  0  0  0
  -14.3459  -39.5210   -9.6085 C   0  0  2  0  0  0  0  0  0  0  0  0
  -13.2616  -40.6035   -9.6414 C   0  0  0  0  0  0  0  0  0  0  0  0
  -15.6547  -40.0749   -9.1886 C   0  0  0  0  0  0  0  0  0  0  0  0
  -16.8454  -39.2034   -9.3143 C   0  0  2  0  0  0  0  0  0  0  0  0
  -16.6319  -37.8649   -9.4046 O   0  0  0  0  0  0  0  0  0  0  0  0
  -17.8397  -39.5606   -8.1986 C   0  0  2  0  0  0  0  0  0  0  0  0
  -18.4686  -38.2725   -7.6586 C   0  0  0  0  0  0  0  0  0  0  0  0
  -19.9603  -38.4550   -7.5002 C   0  0  0  0  0  0  0  0  0  0  0  0
  -20.6654  -39.0287   -6.4771 C   0  0  0  0  0  0  0  0  0  0  0  0
  -22.0369  -39.1915   -6.6320 C   0  0  0  0  0  0  0  0  0  0  0  0
  -23.0626  -39.8403   -5.7946 C   0  0  0  0  0  0  0  0  0  0  0  0
  -22.7176  -40.7930   -4.7340 C   0  0  0  0  0  0  0  0  0  0  0  0
  -22.5585  -40.2793   -3.4610 C   0  0  0  0  0  0  0  0  0  0  0  0
  -22.2513  -41.0038   -2.3393 C   0  0  0  0  0  0  0  0  0  0  0  0
  -22.0842  -42.3572   -2.4733 C   0  0  0  0  0  0  0  0  0  0  0  0
  -22.2360  -42.9002   -3.7294 C   0  0  0  0  0  0  0  0  0  0  0  0
  -22.5484  -42.1810   -4.8916 C   0  0  0  0  0  0  0  0  0  0  0  0
  -22.6729  -42.8162   -6.0709 O   0  0  0  0  0  0  0  0  0  0  0  0
  -21.9615  -43.0833   -7.2317 C   0  0  0  0  0  0  0  0  0  0  0  0
  -20.7866  -42.2370   -7.5327 C   0  0  0  0  0  0  0  0  0  0  0  0
  -21.0444  -41.4443   -8.5365 O   0  0  0  0  0  0  0  0  0  0  0  0
  -19.5397  -42.1551   -6.9590 N   0  0  0  0  0  0  0  0  0  0  0  0
  -18.2680  -42.8097   -7.1638 C   0  0  1  0  0  0  0  0  0  0  0  0
  -18.1639  -43.8046   -8.2450 C   0  0  0  0  0  0  0  0  0  0  0  0
  -17.1516  -41.7932   -7.1489 C   0  0  0  0  0  0  0  0  0  0  0  0
  -15.9608  -42.2721   -7.0591 O   0  0  0  0  0  0  0  0  0  0  0  0
  -17.2575  -40.4112   -7.2186 N   0  0  0  0  0  0  0  0  0  0  0  0
  -22.6455  -38.7432   -7.8439 C   0  0  0  0  0  0  0  0  0  0  0  0
  -24.0385  -38.8859   -8.0350 O   0  0  0  0  0  0  0  0  0  0  0  0
  -21.9601  -38.1656   -8.8675 C   0  0  0  0  0  0  0  0  0  0  0  0
  -20.6155  -38.0278   -8.6840 C   0  0  0  0  0  0  0  0  0  0  0  0
  1  2  1  0
  2  3  1  0
  3  4  1  0
  4  5  1  0
  5  6  1  0
  6  7  2  0
  6  8  1  0
  8  9  1  6
  8 10  1  0
 10 11  1  0
 11 12  1  1
 11 13  1  0
 13 14  1  1
 14 15  1  0
 15 16  2  0
 16 17  1  0
 17 18  1  0
 18 19  1  0
 19 20  2  0
 20 21  1  0
 21 22  2  0
 22 23  1  0
 23 24  2  0
 24 25  1  0
 25 26  1  0
 26 27  1  0
 27 28  2  0
 27 29  1  0
 29 30  1  0
 30 31  1  6
 30 32  1  0
 32 33  2  0
 32 34  1  0
 17 35  2  0
 35 36  1  0
 35 37  1  0
 37 38  2  0
 24 19  1  0
 34 13  1  0
 38 15  1  0
M  END
$$$$
