
     RDKit          3D

 38 40  0  0  0  0  0  0  0  0999 V2000
  -12.0537  -34.1699  -12.7090 C   0  0  0  0  0  0  0  0  0  0  0  0
  -11.7677  -35.6308  -13.0152 C   0  0  0  0  0  0  0  0  0  0  0  0
  -12.1901  -36.4040  -11.7693 C   0  0  0  0  0  0  0  0  0  0  0  0
  -12.1207  -37.8968  -12.0215 C   0  0  0  0  0  0  0  0  0  0  0  0
  -13.4170  -38.4102  -12.3280 N   0  0  0  0  0  0  0  0  0  0  0  0
  -14.4045  -38.5865  -11.2880 C   0  0  0  0  0  0  0  0  0  0  0  0
  -15.3239  -37.7538  -11.2832 O   0  0  0  0  0  0  0  0  0  0  0  0
  -14.1793  -39.7208  -10.3905 C   0  0  2  0  0  0  0  0  0  0  0  0
  -13.9152  -41.0069  -11.1809 C   0  0  0  0  0  0  0  0  0  0  0  0
  -15.1666  -39.9412   -9.3075 C   0  0  0  0  0  0  0  0  0  0  0  0
  -16.0808  -38.8263   -8.9695 C   0  0  2  0  0  0  0  0  0  0  0  0
  -15.5246  -37.6953   -8.4629 O   0  0  0  0  0  0  0  0  0  0  0  0
  -17.2128  -39.3666   -8.0819 C   0  0  2  0  0  0  0  0  0  0  0  0
  -17.9471  -38.1878   -7.4359 C   0  0  0  0  0  0  0  0  0  0  0  0
  -19.4406  -38.3998   -7.5260 C   0  0  0  0  0  0  0  0  0  0  0  0
  -20.2673  -39.1373   -6.7225 C   0  0  0  0  0  0  0  0  0  0  0  0
  -21.5980  -39.2776   -7.0978 C   0  0  0  0  0  0  0  0  0  0  0  0
  -22.7136  -40.0598   -6.5339 C   0  0  0  0  0  0  0  0  0  0  0  0
  -22.4960  -41.1731   -5.6040 C   0  0  0  0  0  0  0  0  0  0  0  0
  -22.5330  -40.8759   -4.2549 C   0  0  0  0  0  0  0  0  0  0  0  0
  -22.3677  -41.7745   -3.2337 C   0  0  0  0  0  0  0  0  0  0  0  0
  -22.1460  -43.0865   -3.5607 C   0  0  0  0  0  0  0  0  0  0  0  0
  -22.1034  -43.4153   -4.8970 C   0  0  0  0  0  0  0  0  0  0  0  0
  -22.2680  -42.5153   -5.9594 C   0  0  0  0  0  0  0  0  0  0  0  0
  -22.2066  -42.9477   -7.2318 O   0  0  0  0  0  0  0  0  0  0  0  0
  -21.3310  -43.0167   -8.3057 C   0  0  0  0  0  0  0  0  0  0  0  0
  -20.1492  -42.1278   -8.2924 C   0  0  0  0  0  0  0  0  0  0  0  0
  -20.2842  -41.1813   -9.1804 O   0  0  0  0  0  0  0  0  0  0  0  0
  -18.9988  -42.1368   -7.5394 N   0  0  0  0  0  0  0  0  0  0  0  0
  -17.6933  -42.7436   -7.6625 C   0  0  1  0  0  0  0  0  0  0  0  0
  -17.4098  -43.5460   -8.8648 C   0  0  0  0  0  0  0  0  0  0  0  0
  -16.6188  -41.7392   -7.3216 C   0  0  0  0  0  0  0  0  0  0  0  0
  -15.4399  -42.2216   -7.1403 O   0  0  0  0  0  0  0  0  0  0  0  0
  -16.7519  -40.3650   -7.1800 N   0  0  0  0  0  0  0  0  0  0  0  0
  -22.0411  -38.6378   -8.2954 C   0  0  0  0  0  0  0  0  0  0  0  0
  -23.3885  -38.7526   -8.7061 O   0  0  0  0  0  0  0  0  0  0  0  0
  -21.2340  -37.8965   -9.1018 C   0  0  0  0  0  0  0  0  0  0  0  0
  -19.9332  -37.7857   -8.7065 C   0  0  0  0  0  0  0  0  0  0  0  0
  1  2  1  0
  2  3  1  0
  3  4  1  0
  4  5  1  0
  5  6  1  0
  6  7  2  0
  6  8  1  0
  8  9  1  6
  8 10  1  0
 10 11  1  0
 11 12  1  1
 11 13  1  0
 13 14  1  1
 14 15  1  0
 15 16  2  0
 16 17  1  0
 17 18  1  0
 18 19  1  0
 19 20  2  0
 20 21  1  0
 21 22  2  0
 22 23  1  0
 23 24  2  0
 24 25  1  0
 25 26  1  0
 26 27  1  0
 27 28  2  0
 27 29  1  0
 29 30  1  0
 30 31  1  6
 30 32  1  0
 32 33  2  0
 32 34  1  0
 17 35  2  0
 35 36  1  0
 35 37  1  0
 37 38  2  0
 24 19  1  0
 34 13  1  0
 38 15  1  0
M  END
$$$$
