
     RDKit          3D

 38 40  0  0  0  0  0  0  0  0999 V2000
  -13.2259  -34.7341  -13.5440 C   0  0  0  0  0  0  0  0  0  0  0  0
  -13.2201  -34.6102  -12.0293 C   0  0  0  0  0  0  0  0  0  0  0  0
  -12.5786  -35.8947  -11.5125 C   0  0  0  0  0  0  0  0  0  0  0  0
  -13.5473  -37.0549  -11.6247 C   0  0  0  0  0  0  0  0  0  0  0  0
  -13.8319  -37.5918  -10.3330 N   0  0  0  0  0  0  0  0  0  0  0  0
  -12.8610  -38.4123   -9.6458 C   0  0  0  0  0  0  0  0  0  0  0  0
  -11.6921  -37.9998   -9.6902 O   0  0  0  0  0  0  0  0  0  0  0  0
  -13.3950  -39.6106   -8.9965 C   0  0  2  0  0  0  0  0  0  0  0  0
  -12.7055  -40.8759   -9.5185 C   0  0  0  0  0  0  0  0  0  0  0  0
  -14.8680  -39.7693   -8.9612 C   0  0  0  0  0  0  0  0  0  0  0  0
  -15.6677  -38.6636   -8.3858 C   0  0  2  0  0  0  0  0  0  0  0  0
  -15.0122  -37.7522   -7.6209 O   0  0  0  0  0  0  0  0  0  0  0  0
  -16.8878  -39.2584   -7.6656 C   0  0  2  0  0  0  0  0  0  0  0  0
  -17.7521  -38.1170   -7.1212 C   0  0  0  0  0  0  0  0  0  0  0  0
  -19.2089  -38.3880   -7.4176 C   0  0  0  0  0  0  0  0  0  0  0  0
  -20.1072  -39.1667   -6.7394 C   0  0  0  0  0  0  0  0  0  0  0  0
  -21.3666  -39.3564   -7.2955 C   0  0  0  0  0  0  0  0  0  0  0  0
  -22.5159  -40.1888   -6.8948 C   0  0  0  0  0  0  0  0  0  0  0  0
  -22.3826  -41.3023   -5.9494 C   0  0  0  0  0  0  0  0  0  0  0  0
  -22.6172  -41.0211   -4.6168 C   0  0  0  0  0  0  0  0  0  0  0  0
  -22.5571  -41.9231   -3.5870 C   0  0  0  0  0  0  0  0  0  0  0  0
  -22.2385  -43.2216   -3.8868 C   0  0  0  0  0  0  0  0  0  0  0  0
  -21.9988  -43.5342   -5.2061 C   0  0  0  0  0  0  0  0  0  0  0  0
  -22.0526  -42.6304   -6.2765 C   0  0  0  0  0  0  0  0  0  0  0  0
  -21.7988  -43.0464   -7.5304 O   0  0  0  0  0  0  0  0  0  0  0  0
  -20.7816  -43.0688   -8.4735 C   0  0  0  0  0  0  0  0  0  0  0  0
  -19.6506  -42.1331   -8.2929 C   0  0  0  0  0  0  0  0  0  0  0  0
  -19.7010  -41.1835   -9.1863 O   0  0  0  0  0  0  0  0  0  0  0  0
  -18.6154  -42.1038   -7.3884 N   0  0  0  0  0  0  0  0  0  0  0  0
  -17.2815  -42.6563   -7.3332 C   0  0  1  0  0  0  0  0  0  0  0  0
  -16.8022  -43.4338   -8.4888 C   0  0  0  0  0  0  0  0  0  0  0  0
  -16.3066  -41.6131   -6.8423 C   0  0  0  0  0  0  0  0  0  0  0  0
  -15.1449  -42.0496   -6.5024 O   0  0  0  0  0  0  0  0  0  0  0  0
  -16.5146  -40.2470   -6.7136 N   0  0  0  0  0  0  0  0  0  0  0  0
  -21.6667  -38.7223   -8.5396 C   0  0  0  0  0  0  0  0  0  0  0  0
  -22.9389  -38.8868   -9.1328 O   0  0  0  0  0  0  0  0  0  0  0  0
  -20.7875  -37.9406   -9.2232 C   0  0  0  0  0  0  0  0  0  0  0  0
  -19.5593  -37.7817   -8.6516 C   0  0  0  0  0  0  0  0  0  0  0  0
  1  2  1  0
  2  3  1  0
  3  4  1  0
  4  5  1  0
  5  6  1  0
  6  7  2  0
  6  8  1  0
  8  9  1  6
  8 10  1  0
 10 11  1  0
 11 12  1  1
 11 13  1  0
 13 14  1  1
 14 15  1  0
 15 16  2  0
 16 17  1  0
 17 18  1  0
 18 19  1  0
 19 20  2  0
 20 21  1  0
 21 22  2  0
 22 23  1  0
 23 24  2  0
 24 25  1  0
 25 26  1  0
 26 27  1  0
 27 28  2  0
 27 29  1  0
 29 30  1  0
 30 31  1  6
 30 32  1  0
 32 33  2  0
 32 34  1  0
 17 35  2  0
 35 36  1  0
 35 37  1  0
 37 38  2  0
 24 19  1  0
 34 13  1  0
 38 15  1  0
M  END
$$$$
