
     RDKit          3D

 38 40  0  0  0  0  0  0  0  0999 V2000
  -13.6523  -34.2941  -12.6240 C   0  0  0  0  0  0  0  0  0  0  0  0
  -13.5022  -35.1906  -11.4061 C   0  0  0  0  0  0  0  0  0  0  0  0
  -12.4853  -36.2574  -11.8016 C   0  0  0  0  0  0  0  0  0  0  0  0
  -11.9969  -37.0058  -10.5775 C   0  0  0  0  0  0  0  0  0  0  0  0
  -12.3821  -38.3787  -10.6475 N   0  0  0  0  0  0  0  0  0  0  0  0
  -13.7318  -38.7825  -10.3269 C   0  0  0  0  0  0  0  0  0  0  0  0
  -14.5047  -38.8639  -11.2936 O   0  0  0  0  0  0  0  0  0  0  0  0
  -13.9935  -39.0378   -8.9094 C   0  0  2  0  0  0  0  0  0  0  0  0
  -12.8671  -39.8644   -8.2795 C   0  0  0  0  0  0  0  0  0  0  0  0
  -15.3277  -39.5714   -8.5466 C   0  0  0  0  0  0  0  0  0  0  0  0
  -16.4906  -38.6624   -8.6670 C   0  0  2  0  0  0  0  0  0  0  0  0
  -16.2883  -37.3497   -8.3823 O   0  0  0  0  0  0  0  0  0  0  0  0
  -17.6661  -39.2556   -7.8750 C   0  0  2  0  0  0  0  0  0  0  0  0
  -18.5570  -38.1150   -7.3736 C   0  0  0  0  0  0  0  0  0  0  0  0
  -20.0104  -38.4558   -7.6080 C   0  0  0  0  0  0  0  0  0  0  0  0
  -20.8588  -39.2234   -6.8568 C   0  0  0  0  0  0  0  0  0  0  0  0
  -22.1256  -39.4921   -7.3612 C   0  0  0  0  0  0  0  0  0  0  0  0
  -23.2306  -40.3393   -6.8758 C   0  0  0  0  0  0  0  0  0  0  0  0
  -23.0281  -41.3873   -5.8698 C   0  0  0  0  0  0  0  0  0  0  0  0
  -23.2348  -41.0338   -4.5499 C   0  0  0  0  0  0  0  0  0  0  0  0
  -23.1111  -41.8683   -3.4701 C   0  0  0  0  0  0  0  0  0  0  0  0
  -22.7523  -43.1704   -3.7011 C   0  0  0  0  0  0  0  0  0  0  0  0
  -22.5390  -43.5543   -5.0060 C   0  0  0  0  0  0  0  0  0  0  0  0
  -22.6576  -42.7202   -6.1266 C   0  0  0  0  0  0  0  0  0  0  0  0
  -22.4244  -43.2027   -7.3606 O   0  0  0  0  0  0  0  0  0  0  0  0
  -21.4346  -43.2460   -8.3317 C   0  0  0  0  0  0  0  0  0  0  0  0
  -20.3351  -42.2610   -8.2426 C   0  0  0  0  0  0  0  0  0  0  0  0
  -20.4470  -41.3702   -9.1895 O   0  0  0  0  0  0  0  0  0  0  0  0
  -19.2762  -42.1391   -7.3740 N   0  0  0  0  0  0  0  0  0  0  0  0
  -17.9212  -42.6388   -7.3271 C   0  0  1  0  0  0  0  0  0  0  0  0
  -17.4463  -43.4677   -8.4482 C   0  0  0  0  0  0  0  0  0  0  0  0
  -16.9728  -41.5330   -6.9301 C   0  0  0  0  0  0  0  0  0  0  0  0
  -15.7862  -41.9058   -6.6008 O   0  0  0  0  0  0  0  0  0  0  0  0
  -17.2286  -40.1700   -6.8773 N   0  0  0  0  0  0  0  0  0  0  0  0
  -22.4850  -38.9465   -8.6313 C   0  0  0  0  0  0  0  0  0  0  0  0
  -23.7666  -39.1927   -9.1739 O   0  0  0  0  0  0  0  0  0  0  0  0
  -21.6561  -38.1769   -9.3875 C   0  0  0  0  0  0  0  0  0  0  0  0
  -20.4188  -37.9392   -8.8648 C   0  0  0  0  0  0  0  0  0  0  0  0
  1  2  1  0
  2  3  1  0
  3  4  1  0
  4  5  1  0
  5  6  1  0
  6  7  2  0
  6  8  1  0
  8  9  1  6
  8 10  1  0
 10 11  1  0
 11 12  1  1
 11 13  1  0
 13 14  1  1
 14 15  1  0
 15 16  2  0
 16 17  1  0
 17 18  1  0
 18 19  1  0
 19 20  2  0
 20 21  1  0
 21 22  2  0
 22 23  1  0
 23 24  2  0
 24 25  1  0
 25 26  1  0
 26 27  1  0
 27 28  2  0
 27 29  1  0
 29 30  1  0
 30 31  1  6
 30 32  1  0
 32 33  2  0
 32 34  1  0
 17 35  2  0
 35 36  1  0
 35 37  1  0
 37 38  2  0
 24 19  1  0
 34 13  1  0
 38 15  1  0
M  END
$$$$
