
     RDKit          3D

 38 40  0  0  0  0  0  0  0  0999 V2000
  -11.3886  -35.5151  -12.8531 C   0  0  0  0  0  0  0  0  0  0  0  0
  -10.5086  -35.5302  -11.6141 C   0  0  0  0  0  0  0  0  0  0  0  0
  -10.8860  -36.7991  -10.8551 C   0  0  0  0  0  0  0  0  0  0  0  0
  -12.3827  -36.8539  -10.6228 C   0  0  0  0  0  0  0  0  0  0  0  0
  -12.8959  -38.1353  -10.9869 N   0  0  0  0  0  0  0  0  0  0  0  0
  -14.2145  -38.5481  -10.5642 C   0  0  0  0  0  0  0  0  0  0  0  0
  -15.1257  -38.3240  -11.3754 O   0  0  0  0  0  0  0  0  0  0  0  0
  -14.2863  -39.1710   -9.2414 C   0  0  2  0  0  0  0  0  0  0  0  0
  -14.4853  -40.6864   -9.3542 C   0  0  0  0  0  0  0  0  0  0  0  0
  -15.2158  -38.5725   -8.2543 C   0  0  0  0  0  0  0  0  0  0  0  0
  -16.5499  -38.1446   -8.7338 C   0  0  2  0  0  0  0  0  0  0  0  0
  -16.7544  -36.8122   -8.9023 O   0  0  0  0  0  0  0  0  0  0  0  0
  -17.6251  -38.7911   -7.8467 C   0  0  2  0  0  0  0  0  0  0  0  0
  -18.5535  -37.6976   -7.3095 C   0  0  0  0  0  0  0  0  0  0  0  0
  -19.9935  -38.1389   -7.4319 C   0  0  0  0  0  0  0  0  0  0  0  0
  -20.7342  -38.9392   -6.6048 C   0  0  0  0  0  0  0  0  0  0  0  0
  -22.0122  -39.3038   -7.0114 C   0  0  0  0  0  0  0  0  0  0  0  0
  -23.0215  -40.2076   -6.4294 C   0  0  0  0  0  0  0  0  0  0  0  0
  -22.6797  -41.2120   -5.4166 C   0  0  0  0  0  0  0  0  0  0  0  0
  -22.8174  -40.8365   -4.0937 C   0  0  0  0  0  0  0  0  0  0  0  0
  -22.5633  -41.6310   -3.0067 C   0  0  0  0  0  0  0  0  0  0  0  0
  -22.1350  -42.9128   -3.2328 C   0  0  0  0  0  0  0  0  0  0  0  0
  -21.9876  -43.3178   -4.5404 C   0  0  0  0  0  0  0  0  0  0  0  0
  -22.2395  -42.5244   -5.6685 C   0  0  0  0  0  0  0  0  0  0  0  0
  -22.0609  -43.0246   -6.9045 O   0  0  0  0  0  0  0  0  0  0  0  0
  -21.1403  -43.0300   -7.9424 C   0  0  0  0  0  0  0  0  0  0  0  0
  -20.1057  -41.9732   -7.9545 C   0  0  0  0  0  0  0  0  0  0  0  0
  -20.3427  -41.1181   -8.9111 O   0  0  0  0  0  0  0  0  0  0  0  0
  -18.9996  -41.7586   -7.1665 N   0  0  0  0  0  0  0  0  0  0  0  0
  -17.6142  -42.1673   -7.2047 C   0  0  1  0  0  0  0  0  0  0  0  0
  -17.1639  -42.9941   -8.3375 C   0  0  0  0  0  0  0  0  0  0  0  0
  -16.7167  -40.9915   -6.9017 C   0  0  0  0  0  0  0  0  0  0  0  0
  -15.4878  -41.2769   -6.6492 O   0  0  0  0  0  0  0  0  0  0  0  0
  -17.0590  -39.6472   -6.8621 N   0  0  0  0  0  0  0  0  0  0  0  0
  -22.4948  -38.8180   -8.2649 C   0  0  0  0  0  0  0  0  0  0  0  0
  -23.7916  -39.1622   -8.7091 O   0  0  0  0  0  0  0  0  0  0  0  0
  -21.7739  -38.0171   -9.0956 C   0  0  0  0  0  0  0  0  0  0  0  0
  -20.5220  -37.6849   -8.6679 C   0  0  0  0  0  0  0  0  0  0  0  0
  1  2  1  0
  2  3  1  0
  3  4  1  0
  4  5  1  0
  5  6  1  0
  6  7  2  0
  6  8  1  0
  8  9  1  6
  8 10  1  0
 10 11  1  0
 11 12  1  1
 11 13  1  0
 13 14  1  1
 14 15  1  0
 15 16  2  0
 16 17  1  0
 17 18  1  0
 18 19  1  0
 19 20  2  0
 20 21  1  0
 21 22  2  0
 22 23  1  0
 23 24  2  0
 24 25  1  0
 25 26  1  0
 26 27  1  0
 27 28  2  0
 27 29  1  0
 29 30  1  0
 30 31  1  6
 30 32  1  0
 32 33  2  0
 32 34  1  0
 17 35  2  0
 35 36  1  0
 35 37  1  0
 37 38  2  0
 24 19  1  0
 34 13  1  0
 38 15  1  0
M  END
$$$$
