
     RDKit          3D

 38 40  0  0  0  0  0  0  0  0999 V2000
  -10.6180  -34.4041  -11.6105 C   0  0  0  0  0  0  0  0  0  0  0  0
  -11.4923  -35.6218  -11.8605 C   0  0  0  0  0  0  0  0  0  0  0  0
  -12.8246  -35.3199  -11.1804 C   0  0  0  0  0  0  0  0  0  0  0  0
  -13.8068  -36.4510  -11.4104 C   0  0  0  0  0  0  0  0  0  0  0  0
  -13.4127  -37.6092  -10.6748 N   0  0  0  0  0  0  0  0  0  0  0  0
  -14.2526  -38.7846  -10.6455 C   0  0  0  0  0  0  0  0  0  0  0  0
  -14.9783  -38.9425  -11.6390 O   0  0  0  0  0  0  0  0  0  0  0  0
  -14.1270  -39.6196   -9.4498 C   0  0  2  0  0  0  0  0  0  0  0  0
  -13.1386  -40.7682   -9.6792 C   0  0  0  0  0  0  0  0  0  0  0  0
  -15.3785  -40.0976   -8.8160 C   0  0  0  0  0  0  0  0  0  0  0  0
  -16.5505  -39.1926   -8.8342 C   0  0  2  0  0  0  0  0  0  0  0  0
  -16.3183  -37.8673   -8.6469 O   0  0  0  0  0  0  0  0  0  0  0  0
  -17.6129  -39.7398   -7.8682 C   0  0  2  0  0  0  0  0  0  0  0  0
  -18.4406  -38.5723   -7.3224 C   0  0  0  0  0  0  0  0  0  0  0  0
  -19.9098  -38.9248   -7.3519 C   0  0  0  0  0  0  0  0  0  0  0  0
  -20.6516  -39.6486   -6.4581 C   0  0  0  0  0  0  0  0  0  0  0  0
  -21.9702  -39.9442   -6.7827 C   0  0  0  0  0  0  0  0  0  0  0  0
  -22.9997  -40.7622   -6.1153 C   0  0  0  0  0  0  0  0  0  0  0  0
  -22.6652  -41.7525   -5.0864 C   0  0  0  0  0  0  0  0  0  0  0  0
  -22.7059  -41.3257   -3.7726 C   0  0  0  0  0  0  0  0  0  0  0  0
  -22.4416  -42.0987   -2.6725 C   0  0  0  0  0  0  0  0  0  0  0  0
  -22.1065  -43.4119   -2.8743 C   0  0  0  0  0  0  0  0  0  0  0  0
  -22.0571  -43.8682   -4.1724 C   0  0  0  0  0  0  0  0  0  0  0  0
  -22.3216  -43.0979   -5.3136 C   0  0  0  0  0  0  0  0  0  0  0  0
  -22.2429  -43.6488   -6.5384 O   0  0  0  0  0  0  0  0  0  0  0  0
  -21.3833  -43.7469   -7.6229 C   0  0  0  0  0  0  0  0  0  0  0  0
  -20.2876  -42.7592   -7.7283 C   0  0  0  0  0  0  0  0  0  0  0  0
  -20.5239  -41.9227   -8.7014 O   0  0  0  0  0  0  0  0  0  0  0  0
  -19.1284  -42.5897   -7.0086 N   0  0  0  0  0  0  0  0  0  0  0  0
  -17.7752  -43.0869   -7.1056 C   0  0  1  0  0  0  0  0  0  0  0  0
  -17.4403  -43.9775   -8.2300 C   0  0  0  0  0  0  0  0  0  0  0  0
  -16.7914  -41.9614   -6.8936 C   0  0  0  0  0  0  0  0  0  0  0  0
  -15.5703  -42.3160   -6.6967 O   0  0  0  0  0  0  0  0  0  0  0  0
  -17.0471  -40.5974   -6.8847 N   0  0  0  0  0  0  0  0  0  0  0  0
  -22.4906  -39.4701   -8.0255 C   0  0  0  0  0  0  0  0  0  0  0  0
  -23.8287  -39.7454   -8.3873 O   0  0  0  0  0  0  0  0  0  0  0  0
  -21.7686  -38.7445   -8.9219 C   0  0  0  0  0  0  0  0  0  0  0  0
  -20.4769  -38.4789   -8.5738 C   0  0  0  0  0  0  0  0  0  0  0  0
  1  2  1  0
  2  3  1  0
  3  4  1  0
  4  5  1  0
  5  6  1  0
  6  7  2  0
  6  8  1  0
  8  9  1  6
  8 10  1  0
 10 11  1  0
 11 12  1  1
 11 13  1  0
 13 14  1  1
 14 15  1  0
 15 16  2  0
 16 17  1  0
 17 18  1  0
 18 19  1  0
 19 20  2  0
 20 21  1  0
 21 22  2  0
 22 23  1  0
 23 24  2  0
 24 25  1  0
 25 26  1  0
 26 27  1  0
 27 28  2  0
 27 29  1  0
 29 30  1  0
 30 31  1  6
 30 32  1  0
 32 33  2  0
 32 34  1  0
 17 35  2  0
 35 36  1  0
 35 37  1  0
 37 38  2  0
 24 19  1  0
 34 13  1  0
 38 15  1  0
M  END
$$$$
