
     RDKit          3D

 38 40  0  0  0  0  0  0  0  0999 V2000
   -9.2860  -36.2510  -12.7558 C   0  0  0  0  0  0  0  0  0  0  0  0
  -10.7413  -36.5872  -13.0364 C   0  0  0  0  0  0  0  0  0  0  0  0
  -11.2605  -37.2622  -11.7701 C   0  0  0  0  0  0  0  0  0  0  0  0
  -12.7245  -37.6235  -11.9228 C   0  0  0  0  0  0  0  0  0  0  0  0
  -13.2096  -38.2462  -10.7333 N   0  0  0  0  0  0  0  0  0  0  0  0
  -14.2466  -39.2505  -10.7977 C   0  0  0  0  0  0  0  0  0  0  0  0
  -14.9831  -39.1889  -11.7938 O   0  0  0  0  0  0  0  0  0  0  0  0
  -14.2792  -40.1955   -9.6802 C   0  0  2  0  0  0  0  0  0  0  0  0
  -13.6967  -41.5532  -10.0874 C   0  0  0  0  0  0  0  0  0  0  0  0
  -15.5617  -40.3499   -8.9537 C   0  0  0  0  0  0  0  0  0  0  0  0
  -16.4512  -39.1693   -8.8652 C   0  0  2  0  0  0  0  0  0  0  0  0
  -15.8735  -37.9727   -8.5828 O   0  0  0  0  0  0  0  0  0  0  0  0
  -17.6119  -39.4948   -7.9124 C   0  0  2  0  0  0  0  0  0  0  0  0
  -18.2866  -38.1887   -7.4822 C   0  0  0  0  0  0  0  0  0  0  0  0
  -19.7887  -38.3377   -7.5524 C   0  0  0  0  0  0  0  0  0  0  0  0
  -20.6544  -38.8869   -6.6457 C   0  0  0  0  0  0  0  0  0  0  0  0
  -21.9895  -39.0216   -7.0072 C   0  0  0  0  0  0  0  0  0  0  0  0
  -23.1453  -39.6407   -6.3325 C   0  0  0  0  0  0  0  0  0  0  0  0
  -22.9877  -40.5908   -5.2263 C   0  0  0  0  0  0  0  0  0  0  0  0
  -23.0131  -40.0690   -3.9468 C   0  0  0  0  0  0  0  0  0  0  0  0
  -22.8970  -40.7897   -2.7872 C   0  0  0  0  0  0  0  0  0  0  0  0
  -22.7420  -42.1476   -2.8864 C   0  0  0  0  0  0  0  0  0  0  0  0
  -22.7127  -42.6986   -4.1478 C   0  0  0  0  0  0  0  0  0  0  0  0
  -22.8279  -41.9835   -5.3482 C   0  0  0  0  0  0  0  0  0  0  0  0
  -22.7853  -42.6266   -6.5290 O   0  0  0  0  0  0  0  0  0  0  0  0
  -21.9114  -42.9194   -7.5659 C   0  0  0  0  0  0  0  0  0  0  0  0
  -20.6855  -42.1013   -7.6889 C   0  0  0  0  0  0  0  0  0  0  0  0
  -20.7693  -41.3125   -8.7249 O   0  0  0  0  0  0  0  0  0  0  0  0
  -19.5392  -42.0409   -6.9320 N   0  0  0  0  0  0  0  0  0  0  0  0
  -18.2662  -42.7245   -6.9365 C   0  0  1  0  0  0  0  0  0  0  0  0
  -18.0209  -43.7311   -7.9834 C   0  0  0  0  0  0  0  0  0  0  0  0
  -17.1425  -41.7320   -6.7571 C   0  0  0  0  0  0  0  0  0  0  0  0
  -15.9905  -42.2355   -6.4838 O   0  0  0  0  0  0  0  0  0  0  0  0
  -17.2053  -40.3488   -6.8502 N   0  0  0  0  0  0  0  0  0  0  0  0
  -22.3959  -38.5714   -8.3003 C   0  0  0  0  0  0  0  0  0  0  0  0
  -23.7463  -38.6861   -8.7011 O   0  0  0  0  0  0  0  0  0  0  0  0
  -21.5495  -38.0180   -9.2106 C   0  0  0  0  0  0  0  0  0  0  0  0
  -20.2459  -37.9075   -8.8248 C   0  0  0  0  0  0  0  0  0  0  0  0
  1  2  1  0
  2  3  1  0
  3  4  1  0
  4  5  1  0
  5  6  1  0
  6  7  2  0
  6  8  1  0
  8  9  1  6
  8 10  1  0
 10 11  1  0
 11 12  1  1
 11 13  1  0
 13 14  1  1
 14 15  1  0
 15 16  2  0
 16 17  1  0
 17 18  1  0
 18 19  1  0
 19 20  2  0
 20 21  1  0
 21 22  2  0
 22 23  1  0
 23 24  2  0
 24 25  1  0
 25 26  1  0
 26 27  1  0
 27 28  2  0
 27 29  1  0
 29 30  1  0
 30 31  1  6
 30 32  1  0
 32 33  2  0
 32 34  1  0
 17 35  2  0
 35 36  1  0
 35 37  1  0
 37 38  2  0
 24 19  1  0
 34 13  1  0
 38 15  1  0
M  END
$$$$
