
     RDKit          3D

 38 40  0  0  0  0  0  0  0  0999 V2000
  -12.0889  -34.6703  -12.5162 C   0  0  0  0  0  0  0  0  0  0  0  0
  -13.3975  -35.3971  -12.2537 C   0  0  0  0  0  0  0  0  0  0  0  0
  -13.0097  -36.7286  -11.6171 C   0  0  0  0  0  0  0  0  0  0  0  0
  -12.9404  -37.8193  -12.6670 C   0  0  0  0  0  0  0  0  0  0  0  0
  -13.2924  -39.0804  -12.0981 N   0  0  0  0  0  0  0  0  0  0  0  0
  -14.5965  -39.2855  -11.5107 C   0  0  0  0  0  0  0  0  0  0  0  0
  -15.5512  -38.8574  -12.1769 O   0  0  0  0  0  0  0  0  0  0  0  0
  -14.6045  -39.9684  -10.2160 C   0  0  2  0  0  0  0  0  0  0  0  0
  -13.9079  -41.3306  -10.3052 C   0  0  0  0  0  0  0  0  0  0  0  0
  -15.9003  -40.0660   -9.5034 C   0  0  0  0  0  0  0  0  0  0  0  0
  -16.4565  -38.8285   -8.9099 C   0  0  2  0  0  0  0  0  0  0  0  0
  -15.5732  -37.9198   -8.4205 O   0  0  0  0  0  0  0  0  0  0  0  0
  -17.5282  -39.2131   -7.8781 C   0  0  2  0  0  0  0  0  0  0  0  0
  -18.2945  -37.9542   -7.4607 C   0  0  0  0  0  0  0  0  0  0  0  0
  -19.7783  -38.2392   -7.4362 C   0  0  0  0  0  0  0  0  0  0  0  0
  -20.5388  -38.8222   -6.4589 C   0  0  0  0  0  0  0  0  0  0  0  0
  -21.8739  -39.0911   -6.7354 C   0  0  0  0  0  0  0  0  0  0  0  0
  -22.9293  -39.7797   -5.9697 C   0  0  0  0  0  0  0  0  0  0  0  0
  -22.6247  -40.6617   -4.8380 C   0  0  0  0  0  0  0  0  0  0  0  0
  -22.6270  -40.0876   -3.5809 C   0  0  0  0  0  0  0  0  0  0  0  0
  -22.3816  -40.7426   -2.4026 C   0  0  0  0  0  0  0  0  0  0  0  0
  -22.1090  -42.0844   -2.4571 C   0  0  0  0  0  0  0  0  0  0  0  0
  -22.0992  -42.6864   -3.6953 C   0  0  0  0  0  0  0  0  0  0  0  0
  -22.3453  -42.0387   -4.9140 C   0  0  0  0  0  0  0  0  0  0  0  0
  -22.3094  -42.7276   -6.0690 O   0  0  0  0  0  0  0  0  0  0  0  0
  -21.4711  -42.9876   -7.1434 C   0  0  0  0  0  0  0  0  0  0  0  0
  -20.3337  -42.0700   -7.3707 C   0  0  0  0  0  0  0  0  0  0  0  0
  -20.5463  -41.3388   -8.4303 O   0  0  0  0  0  0  0  0  0  0  0  0
  -19.1577  -41.8741   -6.6858 N   0  0  0  0  0  0  0  0  0  0  0  0
  -17.8298  -42.4413   -6.7384 C   0  0  1  0  0  0  0  0  0  0  0  0
  -17.5518  -43.4679   -7.7575 C   0  0  0  0  0  0  0  0  0  0  0  0
  -16.7933  -41.3458   -6.6651 C   0  0  0  0  0  0  0  0  0  0  0  0
  -15.5867  -41.7322   -6.4407 O   0  0  0  0  0  0  0  0  0  0  0  0
  -16.9872  -39.9792   -6.8088 N   0  0  0  0  0  0  0  0  0  0  0  0
  -22.3905  -38.7371   -8.0190 C   0  0  0  0  0  0  0  0  0  0  0  0
  -23.7449  -38.9891   -8.3346 O   0  0  0  0  0  0  0  0  0  0  0  0
  -21.6498  -38.1518   -8.9989 C   0  0  0  0  0  0  0  0  0  0  0  0
  -20.3425  -37.9086   -8.6954 C   0  0  0  0  0  0  0  0  0  0  0  0
  1  2  1  0
  2  3  1  0
  3  4  1  0
  4  5  1  0
  5  6  1  0
  6  7  2  0
  6  8  1  0
  8  9  1  6
  8 10  1  0
 10 11  1  0
 11 12  1  1
 11 13  1  0
 13 14  1  1
 14 15  1  0
 15 16  2  0
 16 17  1  0
 17 18  1  0
 18 19  1  0
 19 20  2  0
 20 21  1  0
 21 22  2  0
 22 23  1  0
 23 24  2  0
 24 25  1  0
 25 26  1  0
 26 27  1  0
 27 28  2  0
 27 29  1  0
 29 30  1  0
 30 31  1  6
 30 32  1  0
 32 33  2  0
 32 34  1  0
 17 35  2  0
 35 36  1  0
 35 37  1  0
 37 38  2  0
 24 19  1  0
 34 13  1  0
 38 15  1  0
M  END
$$$$
