
     RDKit          3D

 38 40  0  0  0  0  0  0  0  0999 V2000
   -9.9187  -35.5882  -12.4764 C   0  0  0  0  0  0  0  0  0  0  0  0
  -11.4373  -35.6142  -12.4231 C   0  0  0  0  0  0  0  0  0  0  0  0
  -11.8421  -37.0157  -12.8707 C   0  0  0  0  0  0  0  0  0  0  0  0
  -11.8425  -37.9701  -11.6934 C   0  0  0  0  0  0  0  0  0  0  0  0
  -12.7530  -37.5212  -10.6897 N   0  0  0  0  0  0  0  0  0  0  0  0
  -14.0608  -38.1218  -10.5595 C   0  0  0  0  0  0  0  0  0  0  0  0
  -14.9222  -37.6911  -11.3412 O   0  0  0  0  0  0  0  0  0  0  0  0
  -14.1818  -39.1511   -9.5257 C   0  0  2  0  0  0  0  0  0  0  0  0
  -13.2158  -40.3121   -9.7860 C   0  0  0  0  0  0  0  0  0  0  0  0
  -15.5437  -39.6387   -9.2036 C   0  0  0  0  0  0  0  0  0  0  0  0
  -16.6052  -38.6289   -8.9879 C   0  0  2  0  0  0  0  0  0  0  0  0
  -16.2164  -37.3920   -8.5827 O   0  0  0  0  0  0  0  0  0  0  0  0
  -17.6813  -39.2306   -8.0708 C   0  0  2  0  0  0  0  0  0  0  0  0
  -18.5771  -38.1045   -7.5460 C   0  0  0  0  0  0  0  0  0  0  0  0
  -20.0283  -38.5160   -7.6376 C   0  0  0  0  0  0  0  0  0  0  0  0
  -20.7742  -39.2802   -6.7817 C   0  0  0  0  0  0  0  0  0  0  0  0
  -22.0658  -39.6252   -7.1616 C   0  0  0  0  0  0  0  0  0  0  0  0
  -23.0862  -40.4924   -6.5444 C   0  0  0  0  0  0  0  0  0  0  0  0
  -22.7520  -41.4808   -5.5135 C   0  0  0  0  0  0  0  0  0  0  0  0
  -22.8618  -41.0722   -4.1979 C   0  0  0  0  0  0  0  0  0  0  0  0
  -22.6093  -41.8471   -3.0964 C   0  0  0  0  0  0  0  0  0  0  0  0
  -22.2129  -43.1431   -3.2987 C   0  0  0  0  0  0  0  0  0  0  0  0
  -22.0938  -43.5812   -4.5986 C   0  0  0  0  0  0  0  0  0  0  0  0
  -22.3447  -42.8083   -5.7411 C   0  0  0  0  0  0  0  0  0  0  0  0
  -22.1954  -43.3405   -6.9676 O   0  0  0  0  0  0  0  0  0  0  0  0
  -21.2905  -43.3904   -8.0181 C   0  0  0  0  0  0  0  0  0  0  0  0
  -20.2331  -42.3577   -8.0694 C   0  0  0  0  0  0  0  0  0  0  0  0
  -20.4652  -41.5196   -9.0421 O   0  0  0  0  0  0  0  0  0  0  0  0
  -19.1110  -42.1501   -7.3024 N   0  0  0  0  0  0  0  0  0  0  0  0
  -17.7357  -42.5906   -7.3508 C   0  0  1  0  0  0  0  0  0  0  0  0
  -17.3206  -43.4530   -8.4704 C   0  0  0  0  0  0  0  0  0  0  0  0
  -16.8081  -41.4287   -7.0880 C   0  0  0  0  0  0  0  0  0  0  0  0
  -15.5822  -41.7358   -6.8465 O   0  0  0  0  0  0  0  0  0  0  0  0
  -17.1198  -40.0764   -7.0747 N   0  0  0  0  0  0  0  0  0  0  0  0
  -22.5560  -39.1575   -8.4190 C   0  0  0  0  0  0  0  0  0  0  0  0
  -23.8665  -39.4825   -8.8365 O   0  0  0  0  0  0  0  0  0  0  0  0
  -21.8298  -38.3923   -9.2782 C   0  0  0  0  0  0  0  0  0  0  0  0
  -20.5647  -38.0786   -8.8762 C   0  0  0  0  0  0  0  0  0  0  0  0
  1  2  1  0
  2  3  1  0
  3  4  1  0
  4  5  1  0
  5  6  1  0
  6  7  2  0
  6  8  1  0
  8  9  1  6
  8 10  1  0
 10 11  1  0
 11 12  1  1
 11 13  1  0
 13 14  1  1
 14 15  1  0
 15 16  2  0
 16 17  1  0
 17 18  1  0
 18 19  1  0
 19 20  2  0
 20 21  1  0
 21 22  2  0
 22 23  1  0
 23 24  2  0
 24 25  1  0
 25 26  1  0
 26 27  1  0
 27 28  2  0
 27 29  1  0
 29 30  1  0
 30 31  1  6
 30 32  1  0
 32 33  2  0
 32 34  1  0
 17 35  2  0
 35 36  1  0
 35 37  1  0
 37 38  2  0
 24 19  1  0
 34 13  1  0
 38 15  1  0
M  END
$$$$
