
     RDKit          3D

 38 40  0  0  0  0  0  0  0  0999 V2000
  -13.8979  -33.6487  -11.9420 C   0  0  0  0  0  0  0  0  0  0  0  0
  -14.3108  -35.0566  -12.3386 C   0  0  0  0  0  0  0  0  0  0  0  0
  -13.0171  -35.8632  -12.4036 C   0  0  0  0  0  0  0  0  0  0  0  0
  -12.8794  -36.7462  -11.1796 C   0  0  0  0  0  0  0  0  0  0  0  0
  -13.2557  -38.0880  -11.4894 N   0  0  0  0  0  0  0  0  0  0  0  0
  -14.4991  -38.6366  -10.9986 C   0  0  0  0  0  0  0  0  0  0  0  0
  -15.5198  -38.2421  -11.5826 O   0  0  0  0  0  0  0  0  0  0  0  0
  -14.3764  -39.5781   -9.8844 C   0  0  2  0  0  0  0  0  0  0  0  0
  -13.7983  -40.9175  -10.3538 C   0  0  0  0  0  0  0  0  0  0  0  0
  -15.5646  -39.7718   -9.0201 C   0  0  0  0  0  0  0  0  0  0  0  0
  -16.0964  -38.5902   -8.3030 C   0  0  2  0  0  0  0  0  0  0  0  0
  -15.2369  -37.9069   -7.5033 O   0  0  0  0  0  0  0  0  0  0  0  0
  -17.3809  -38.9968   -7.5642 C   0  0  2  0  0  0  0  0  0  0  0  0
  -18.2624  -37.7584   -7.3762 C   0  0  0  0  0  0  0  0  0  0  0  0
  -19.6965  -38.0907   -7.7174 C   0  0  0  0  0  0  0  0  0  0  0  0
  -20.6606  -38.6861   -6.9499 C   0  0  0  0  0  0  0  0  0  0  0  0
  -21.8760  -39.0012   -7.5457 C   0  0  0  0  0  0  0  0  0  0  0  0
  -23.0696  -39.7142   -7.0545 C   0  0  0  0  0  0  0  0  0  0  0  0
  -23.0331  -40.5724   -5.8656 C   0  0  0  0  0  0  0  0  0  0  0  0
  -23.3661  -39.9838   -4.6604 C   0  0  0  0  0  0  0  0  0  0  0  0
  -23.4050  -40.6165   -3.4456 C   0  0  0  0  0  0  0  0  0  0  0  0
  -23.0897  -41.9493   -3.4039 C   0  0  0  0  0  0  0  0  0  0  0  0
  -22.7534  -42.5654   -4.5884 C   0  0  0  0  0  0  0  0  0  0  0  0
  -22.7049  -41.9405   -5.8425 C   0  0  0  0  0  0  0  0  0  0  0  0
  -22.3617  -42.6416   -6.9381 O   0  0  0  0  0  0  0  0  0  0  0  0
  -21.2742  -42.8872   -7.7638 C   0  0  0  0  0  0  0  0  0  0  0  0
  -20.1425  -41.9363   -7.7178 C   0  0  0  0  0  0  0  0  0  0  0  0
  -20.1037  -41.2250   -8.8110 O   0  0  0  0  0  0  0  0  0  0  0  0
  -19.1812  -41.6945   -6.7649 N   0  0  0  0  0  0  0  0  0  0  0  0
  -17.8670  -42.2192   -6.4730 C   0  0  1  0  0  0  0  0  0  0  0  0
  -17.3140  -43.2484   -7.3700 C   0  0  0  0  0  0  0  0  0  0  0  0
  -16.9131  -41.0902   -6.1646 C   0  0  0  0  0  0  0  0  0  0  0  0
  -15.7907  -41.4347   -5.6384 O   0  0  0  0  0  0  0  0  0  0  0  0
  -17.1034  -39.7323   -6.3790 N   0  0  0  0  0  0  0  0  0  0  0  0
  -22.0648  -38.6792   -8.9244 C   0  0  0  0  0  0  0  0  0  0  0  0
  -23.2894  -38.9785   -9.5632 O   0  0  0  0  0  0  0  0  0  0  0  0
  -21.1192  -38.0821   -9.6995 C   0  0  0  0  0  0  0  0  0  0  0  0
  -19.9368  -37.7934   -9.0839 C   0  0  0  0  0  0  0  0  0  0  0  0
  1  2  1  0
  2  3  1  0
  3  4  1  0
  4  5  1  0
  5  6  1  0
  6  7  2  0
  6  8  1  0
  8  9  1  6
  8 10  1  0
 10 11  1  0
 11 12  1  1
 11 13  1  0
 13 14  1  1
 14 15  1  0
 15 16  2  0
 16 17  1  0
 17 18  1  0
 18 19  1  0
 19 20  2  0
 20 21  1  0
 21 22  2  0
 22 23  1  0
 23 24  2  0
 24 25  1  0
 25 26  1  0
 26 27  1  0
 27 28  2  0
 27 29  1  0
 29 30  1  0
 30 31  1  6
 30 32  1  0
 32 33  2  0
 32 34  1  0
 17 35  2  0
 35 36  1  0
 35 37  1  0
 37 38  2  0
 24 19  1  0
 34 13  1  0
 38 15  1  0
M  END
$$$$
