
     RDKit          3D

 38 40  0  0  0  0  0  0  0  0999 V2000
   -9.1896  -39.1585  -13.1456 C   0  0  0  0  0  0  0  0  0  0  0  0
  -10.0858  -38.2717  -12.2971 C   0  0  0  0  0  0  0  0  0  0  0  0
  -10.5399  -39.1415  -11.1284 C   0  0  0  0  0  0  0  0  0  0  0  0
  -11.4122  -38.3438  -10.1798 C   0  0  0  0  0  0  0  0  0  0  0  0
  -12.5553  -37.8332  -10.8659 N   0  0  0  0  0  0  0  0  0  0  0  0
  -13.8389  -38.4859  -10.7461 C   0  0  0  0  0  0  0  0  0  0  0  0
  -14.6789  -38.1642  -11.6001 O   0  0  0  0  0  0  0  0  0  0  0  0
  -13.9638  -39.4320   -9.6361 C   0  0  2  0  0  0  0  0  0  0  0  0
  -13.8798  -40.8797  -10.1318 C   0  0  0  0  0  0  0  0  0  0  0  0
  -15.0982  -39.2423   -8.7015 C   0  0  0  0  0  0  0  0  0  0  0  0
  -16.4228  -38.9205   -9.2802 C   0  0  2  0  0  0  0  0  0  0  0  0
  -16.6208  -37.6493   -9.7164 O   0  0  0  0  0  0  0  0  0  0  0  0
  -17.5148  -39.3765   -8.3001 C   0  0  2  0  0  0  0  0  0  0  0  0
  -18.3198  -38.1553   -7.8455 C   0  0  0  0  0  0  0  0  0  0  0  0
  -19.7972  -38.4713   -7.8784 C   0  0  0  0  0  0  0  0  0  0  0  0
  -20.5724  -39.1164   -6.9532 C   0  0  0  0  0  0  0  0  0  0  0  0
  -21.8930  -39.3986   -7.2814 C   0  0  0  0  0  0  0  0  0  0  0  0
  -22.9545  -40.1450   -6.5812 C   0  0  0  0  0  0  0  0  0  0  0  0
  -22.6631  -41.0748   -5.4848 C   0  0  0  0  0  0  0  0  0  0  0  0
  -22.7136  -40.5628   -4.2022 C   0  0  0  0  0  0  0  0  0  0  0  0
  -22.4877  -41.2693   -3.0501 C   0  0  0  0  0  0  0  0  0  0  0  0
  -22.1846  -42.6010   -3.1609 C   0  0  0  0  0  0  0  0  0  0  0  0
  -22.1265  -43.1416   -4.4258 C   0  0  0  0  0  0  0  0  0  0  0  0
  -22.3519  -42.4404   -5.6188 C   0  0  0  0  0  0  0  0  0  0  0  0
  -22.2682  -43.0714   -6.8039 O   0  0  0  0  0  0  0  0  0  0  0  0
  -21.3942  -43.2616   -7.8644 C   0  0  0  0  0  0  0  0  0  0  0  0
  -20.2710  -42.3111   -8.0137 C   0  0  0  0  0  0  0  0  0  0  0  0
  -20.4692  -41.5337   -9.0427 O   0  0  0  0  0  0  0  0  0  0  0  0
  -19.1195  -42.1250   -7.2858 N   0  0  0  0  0  0  0  0  0  0  0  0
  -17.7786  -42.6619   -7.3265 C   0  0  1  0  0  0  0  0  0  0  0  0
  -17.4495  -43.6318   -8.3851 C   0  0  0  0  0  0  0  0  0  0  0  0
  -16.7686  -41.5505   -7.1700 C   0  0  0  0  0  0  0  0  0  0  0  0
  -15.5608  -41.9227   -6.9290 O   0  0  0  0  0  0  0  0  0  0  0  0
  -16.9880  -40.1827   -7.2535 N   0  0  0  0  0  0  0  0  0  0  0  0
  -22.3804  -38.9930   -8.5613 C   0  0  0  0  0  0  0  0  0  0  0  0
  -23.7194  -39.2569   -8.9283 O   0  0  0  0  0  0  0  0  0  0  0  0
  -21.6250  -38.3458   -9.4895 C   0  0  0  0  0  0  0  0  0  0  0  0
  -20.3324  -38.0912   -9.1363 C   0  0  0  0  0  0  0  0  0  0  0  0
  1  2  1  0
  2  3  1  0
  3  4  1  0
  4  5  1  0
  5  6  1  0
  6  7  2  0
  6  8  1  0
  8  9  1  6
  8 10  1  0
 10 11  1  0
 11 12  1  1
 11 13  1  0
 13 14  1  1
 14 15  1  0
 15 16  2  0
 16 17  1  0
 17 18  1  0
 18 19  1  0
 19 20  2  0
 20 21  1  0
 21 22  2  0
 22 23  1  0
 23 24  2  0
 24 25  1  0
 25 26  1  0
 26 27  1  0
 27 28  2  0
 27 29  1  0
 29 30  1  0
 30 31  1  6
 30 32  1  0
 32 33  2  0
 32 34  1  0
 17 35  2  0
 35 36  1  0
 35 37  1  0
 37 38  2  0
 24 19  1  0
 34 13  1  0
 38 15  1  0
M  END
$$$$
