
     RDKit          3D

 38 40  0  0  0  0  0  0  0  0999 V2000
  -10.6839  -42.4063  -13.6000 C   0  0  0  0  0  0  0  0  0  0  0  0
  -11.9904  -41.7018  -13.9264 C   0  0  0  0  0  0  0  0  0  0  0  0
  -12.0883  -40.5379  -12.9444 C   0  0  0  0  0  0  0  0  0  0  0  0
  -13.3110  -40.6887  -12.0618 C   0  0  0  0  0  0  0  0  0  0  0  0
  -12.9846  -41.4212  -10.8808 N   0  0  0  0  0  0  0  0  0  0  0  0
  -13.6347  -41.1227   -9.6254 C   0  0  0  0  0  0  0  0  0  0  0  0
  -13.9489  -42.1098   -8.9432 O   0  0  0  0  0  0  0  0  0  0  0  0
  -13.8290  -39.7004   -9.3385 C   0  0  2  0  0  0  0  0  0  0  0  0
  -12.6110  -39.1103   -8.6195 C   0  0  0  0  0  0  0  0  0  0  0  0
  -15.0951  -39.3036   -8.6784 C   0  0  0  0  0  0  0  0  0  0  0  0
  -16.3363  -39.3444   -9.4851 C   0  0  2  0  0  0  0  0  0  0  0  0
  -16.5868  -38.2854  -10.2982 O   0  0  0  0  0  0  0  0  0  0  0  0
  -17.5196  -39.6584   -8.5565 C   0  0  2  0  0  0  0  0  0  0  0  0
  -18.2344  -38.3518   -8.1987 C   0  0  0  0  0  0  0  0  0  0  0  0
  -19.7301  -38.5363   -8.3093 C   0  0  0  0  0  0  0  0  0  0  0  0
  -20.6125  -39.0690   -7.4090 C   0  0  0  0  0  0  0  0  0  0  0  0
  -21.9325  -39.2467   -7.8060 C   0  0  0  0  0  0  0  0  0  0  0  0
  -23.0960  -39.8645   -7.1436 C   0  0  0  0  0  0  0  0  0  0  0  0
  -22.9540  -40.7678   -5.9967 C   0  0  0  0  0  0  0  0  0  0  0  0
  -23.0307  -40.1979   -4.7401 C   0  0  0  0  0  0  0  0  0  0  0  0
  -22.9365  -40.8708   -3.5502 C   0  0  0  0  0  0  0  0  0  0  0  0
  -22.7504  -42.2277   -3.5914 C   0  0  0  0  0  0  0  0  0  0  0  0
  -22.6698  -42.8261   -4.8288 C   0  0  0  0  0  0  0  0  0  0  0  0
  -22.7616  -42.1602   -6.0592 C   0  0  0  0  0  0  0  0  0  0  0  0
  -22.6684  -42.8472   -7.2121 O   0  0  0  0  0  0  0  0  0  0  0  0
  -21.7562  -43.1604   -8.2093 C   0  0  0  0  0  0  0  0  0  0  0  0
  -20.5442  -42.3210   -8.3263 C   0  0  0  0  0  0  0  0  0  0  0  0
  -20.6114  -41.5746   -9.3944 O   0  0  0  0  0  0  0  0  0  0  0  0
  -19.4239  -42.2065   -7.5374 N   0  0  0  0  0  0  0  0  0  0  0  0
  -18.1376  -42.8618   -7.4758 C   0  0  1  0  0  0  0  0  0  0  0  0
  -17.8385  -43.9023   -8.4746 C   0  0  0  0  0  0  0  0  0  0  0  0
  -17.0409  -41.8388   -7.3008 C   0  0  0  0  0  0  0  0  0  0  0  0
  -15.8879  -42.3061   -6.9727 O   0  0  0  0  0  0  0  0  0  0  0  0
  -17.1293  -40.4619   -7.4497 N   0  0  0  0  0  0  0  0  0  0  0  0
  -22.3069  -38.8555   -9.1276 C   0  0  0  0  0  0  0  0  0  0  0  0
  -23.6413  -39.0149   -9.5651 O   0  0  0  0  0  0  0  0  0  0  0  0
  -21.4437  -38.3190  -10.0323 C   0  0  0  0  0  0  0  0  0  0  0  0
  -20.1556  -38.1653   -9.6111 C   0  0  0  0  0  0  0  0  0  0  0  0
  1  2  1  0
  2  3  1  0
  3  4  1  0
  4  5  1  0
  5  6  1  0
  6  7  2  0
  6  8  1  0
  8  9  1  1
  8 10  1  0
 10 11  1  0
 11 12  1  1
 11 13  1  0
 13 14  1  1
 14 15  1  0
 15 16  2  0
 16 17  1  0
 17 18  1  0
 18 19  1  0
 19 20  2  0
 20 21  1  0
 21 22  2  0
 22 23  1  0
 23 24  2  0
 24 25  1  0
 25 26  1  0
 26 27  1  0
 27 28  2  0
 27 29  1  0
 29 30  1  0
 30 31  1  6
 30 32  1  0
 32 33  2  0
 32 34  1  0
 17 35  2  0
 35 36  1  0
 35 37  1  0
 37 38  2  0
 24 19  1  0
 34 13  1  0
 38 15  1  0
M  END
$$$$
