
     RDKit          3D

 38 40  0  0  0  0  0  0  0  0999 V2000
  -11.8788  -34.5880  -10.4854 C   0  0  0  0  0  0  0  0  0  0  0  0
  -12.6715  -35.4302  -11.4714 C   0  0  0  0  0  0  0  0  0  0  0  0
  -12.1216  -36.8474  -11.3391 C   0  0  0  0  0  0  0  0  0  0  0  0
  -12.6289  -37.4977  -10.0676 C   0  0  0  0  0  0  0  0  0  0  0  0
  -14.0206  -37.7945  -10.1819 N   0  0  0  0  0  0  0  0  0  0  0  0
  -14.7677  -38.2740   -9.0419 C   0  0  0  0  0  0  0  0  0  0  0  0
  -15.0862  -37.4070   -8.2139 O   0  0  0  0  0  0  0  0  0  0  0  0
  -15.0419  -39.7119   -9.0273 C   0  0  2  0  0  0  0  0  0  0  0  0
  -13.8847  -40.4887   -8.3900 C   0  0  0  0  0  0  0  0  0  0  0  0
  -15.4815  -40.3362  -10.2974 C   0  0  0  0  0  0  0  0  0  0  0  0
  -16.8906  -40.1429  -10.7099 C   0  0  2  0  0  0  0  0  0  0  0  0
  -17.1682  -39.0735  -11.5002 O   0  0  0  0  0  0  0  0  0  0  0  0
  -17.7829  -40.1905   -9.4598 C   0  0  2  0  0  0  0  0  0  0  0  0
  -18.3926  -38.8046   -9.2282 C   0  0  0  0  0  0  0  0  0  0  0  0
  -19.8622  -38.9366   -8.9022 C   0  0  0  0  0  0  0  0  0  0  0  0
  -20.4693  -39.2180   -7.7083 C   0  0  0  0  0  0  0  0  0  0  0  0
  -21.8451  -39.4141   -7.6985 C   0  0  0  0  0  0  0  0  0  0  0  0
  -22.7852  -39.8166   -6.6362 C   0  0  0  0  0  0  0  0  0  0  0  0
  -22.3348  -40.4548   -5.3947 C   0  0  0  0  0  0  0  0  0  0  0  0
  -22.0833  -39.6225   -4.3206 C   0  0  0  0  0  0  0  0  0  0  0  0
  -21.6704  -40.0244   -3.0774 C   0  0  0  0  0  0  0  0  0  0  0  0
  -21.4864  -41.3652   -2.8629 C   0  0  0  0  0  0  0  0  0  0  0  0
  -21.7287  -42.2213   -3.9136 C   0  0  0  0  0  0  0  0  0  0  0  0
  -22.1499  -41.8352   -5.1939 C   0  0  0  0  0  0  0  0  0  0  0  0
  -22.3568  -42.7600   -6.1488 O   0  0  0  0  0  0  0  0  0  0  0  0
  -21.7369  -43.3258   -7.2535 C   0  0  0  0  0  0  0  0  0  0  0  0
  -20.6086  -42.5910   -7.8651 C   0  0  0  0  0  0  0  0  0  0  0  0
  -20.9641  -42.0923   -9.0172 O   0  0  0  0  0  0  0  0  0  0  0  0
  -19.3211  -42.3617   -7.4406 N   0  0  0  0  0  0  0  0  0  0  0  0
  -18.0568  -43.0489   -7.5716 C   0  0  1  0  0  0  0  0  0  0  0  0
  -18.0204  -44.2948   -8.3566 C   0  0  0  0  0  0  0  0  0  0  0  0
  -16.9646  -42.0662   -7.9197 C   0  0  0  0  0  0  0  0  0  0  0  0
  -15.7606  -42.5058   -7.8074 O   0  0  0  0  0  0  0  0  0  0  0  0
  -17.1049  -40.7520   -8.3427 N   0  0  0  0  0  0  0  0  0  0  0  0
  -22.5598  -39.3020   -8.9300 C   0  0  0  0  0  0  0  0  0  0  0  0
  -23.9604  -39.4885   -8.9587 O   0  0  0  0  0  0  0  0  0  0  0  0
  -21.9725  -39.0171  -10.1239 C   0  0  0  0  0  0  0  0  0  0  0  0
  -20.6207  -38.8374  -10.0972 C   0  0  0  0  0  0  0  0  0  0  0  0
  1  2  1  0
  2  3  1  0
  3  4  1  0
  4  5  1  0
  5  6  1  0
  6  7  2  0
  6  8  1  0
  8  9  1  6
  8 10  1  0
 10 11  1  0
 11 12  1  1
 11 13  1  0
 13 14  1  1
 14 15  1  0
 15 16  2  0
 16 17  1  0
 17 18  1  0
 18 19  1  0
 19 20  2  0
 20 21  1  0
 21 22  2  0
 22 23  1  0
 23 24  2  0
 24 25  1  0
 25 26  1  0
 26 27  1  0
 27 28  2  0
 27 29  1  0
 29 30  1  0
 30 31  1  6
 30 32  1  0
 32 33  2  0
 32 34  1  0
 17 35  2  0
 35 36  1  0
 35 37  1  0
 37 38  2  0
 24 19  1  0
 34 13  1  0
 38 15  1  0
M  END
$$$$
