
     RDKit          3D

 38 40  0  0  0  0  0  0  0  0999 V2000
  -14.2819  -44.8893  -12.1897 C   0  0  0  0  0  0  0  0  0  0  0  0
  -13.9462  -43.4528  -12.5551 C   0  0  0  0  0  0  0  0  0  0  0  0
  -12.5524  -43.1978  -11.9886 C   0  0  0  0  0  0  0  0  0  0  0  0
  -12.1370  -41.7598  -12.2267 C   0  0  0  0  0  0  0  0  0  0  0  0
  -13.1503  -40.8665  -11.7649 N   0  0  0  0  0  0  0  0  0  0  0  0
  -13.2241  -40.4934  -10.3709 C   0  0  0  0  0  0  0  0  0  0  0  0
  -12.5371  -41.1814   -9.6008 O   0  0  0  0  0  0  0  0  0  0  0  0
  -14.0974  -39.3584  -10.0676 C   0  0  2  0  0  0  0  0  0  0  0  0
  -13.2801  -38.1128   -9.7080 C   0  0  0  0  0  0  0  0  0  0  0  0
  -15.1990  -39.5833   -9.1020 C   0  0  0  0  0  0  0  0  0  0  0  0
  -16.3782  -38.6909   -9.1802 C   0  0  2  0  0  0  0  0  0  0  0  0
  -16.1590  -37.3556   -9.0602 O   0  0  0  0  0  0  0  0  0  0  0  0
  -17.4468  -39.1962   -8.1984 C   0  0  2  0  0  0  0  0  0  0  0  0
  -18.2098  -37.9961   -7.6293 C   0  0  0  0  0  0  0  0  0  0  0  0
  -19.6939  -38.2805   -7.6339 C   0  0  0  0  0  0  0  0  0  0  0  0
  -20.4518  -38.9764   -6.7314 C   0  0  0  0  0  0  0  0  0  0  0  0
  -21.7883  -39.2086   -7.0333 C   0  0  0  0  0  0  0  0  0  0  0  0
  -22.8420  -39.9836   -6.3525 C   0  0  0  0  0  0  0  0  0  0  0  0
  -22.5346  -40.9961   -5.3367 C   0  0  0  0  0  0  0  0  0  0  0  0
  -22.5317  -40.5780   -4.0195 C   0  0  0  0  0  0  0  0  0  0  0  0
  -22.2831  -41.3707   -2.9298 C   0  0  0  0  0  0  0  0  0  0  0  0
  -22.0126  -42.6963   -3.1468 C   0  0  0  0  0  0  0  0  0  0  0  0
  -22.0080  -43.1445   -4.4487 C   0  0  0  0  0  0  0  0  0  0  0  0
  -22.2575  -42.3541   -5.5794 C   0  0  0  0  0  0  0  0  0  0  0  0
  -22.2267  -42.8986   -6.8092 O   0  0  0  0  0  0  0  0  0  0  0  0
  -21.3925  -43.0278   -7.9102 C   0  0  0  0  0  0  0  0  0  0  0  0
  -20.2547  -42.0906   -8.0293 C   0  0  0  0  0  0  0  0  0  0  0  0
  -20.4699  -41.2366   -8.9921 O   0  0  0  0  0  0  0  0  0  0  0  0
  -19.0759  -41.9800   -7.3301 N   0  0  0  0  0  0  0  0  0  0  0  0
  -17.7490  -42.5380   -7.4557 C   0  0  1  0  0  0  0  0  0  0  0  0
  -17.4761  -43.4344   -8.5922 C   0  0  0  0  0  0  0  0  0  0  0  0
  -16.7107  -41.4605   -7.2544 C   0  0  0  0  0  0  0  0  0  0  0  0
  -15.5039  -41.8723   -7.0827 O   0  0  0  0  0  0  0  0  0  0  0  0
  -16.9032  -40.0863   -7.2314 N   0  0  0  0  0  0  0  0  0  0  0  0
  -22.3089  -38.7017   -8.2629 C   0  0  0  0  0  0  0  0  0  0  0  0
  -23.6648  -38.9125   -8.6016 O   0  0  0  0  0  0  0  0  0  0  0  0
  -21.5709  -38.0031   -9.1677 C   0  0  0  0  0  0  0  0  0  0  0  0
  -20.2621  -37.7997   -8.8419 C   0  0  0  0  0  0  0  0  0  0  0  0
  1  2  1  0
  2  3  1  0
  3  4  1  0
  4  5  1  0
  5  6  1  0
  6  7  2  0
  6  8  1  0
  8  9  1  1
  8 10  1  0
 10 11  1  0
 11 12  1  1
 11 13  1  0
 13 14  1  1
 14 15  1  0
 15 16  2  0
 16 17  1  0
 17 18  1  0
 18 19  1  0
 19 20  2  0
 20 21  1  0
 21 22  2  0
 22 23  1  0
 23 24  2  0
 24 25  1  0
 25 26  1  0
 26 27  1  0
 27 28  2  0
 27 29  1  0
 29 30  1  0
 30 31  1  6
 30 32  1  0
 32 33  2  0
 32 34  1  0
 17 35  2  0
 35 36  1  0
 35 37  1  0
 37 38  2  0
 24 19  1  0
 34 13  1  0
 38 15  1  0
M  END
$$$$
