
     RDKit          3D

 38 40  0  0  0  0  0  0  0  0999 V2000
  -10.6333  -35.5591  -13.9079 C   0  0  0  0  0  0  0  0  0  0  0  0
  -11.9904  -35.9910  -13.3773 C   0  0  0  0  0  0  0  0  0  0  0  0
  -11.7134  -37.1643  -12.4418 C   0  0  0  0  0  0  0  0  0  0  0  0
  -12.3731  -36.9381  -11.0962 C   0  0  0  0  0  0  0  0  0  0  0  0
  -13.6827  -37.5063  -11.0826 N   0  0  0  0  0  0  0  0  0  0  0  0
  -13.8658  -38.9320  -10.9348 C   0  0  0  0  0  0  0  0  0  0  0  0
  -13.9768  -39.5651  -11.9956 O   0  0  0  0  0  0  0  0  0  0  0  0
  -13.8938  -39.4244   -9.5565 C   0  0  2  0  0  0  0  0  0  0  0  0
  -12.8360  -40.5112   -9.3363 C   0  0  0  0  0  0  0  0  0  0  0  0
  -15.2081  -39.8244   -9.0008 C   0  0  0  0  0  0  0  0  0  0  0  0
  -16.2623  -38.7885   -8.9079 C   0  0  2  0  0  0  0  0  0  0  0  0
  -15.8714  -37.5278   -8.5869 O   0  0  0  0  0  0  0  0  0  0  0  0
  -17.3816  -39.3028   -7.9893 C   0  0  2  0  0  0  0  0  0  0  0  0
  -18.1534  -38.1066   -7.4242 C   0  0  0  0  0  0  0  0  0  0  0  0
  -19.6395  -38.3687   -7.5036 C   0  0  0  0  0  0  0  0  0  0  0  0
  -20.4474  -39.0761   -6.6551 C   0  0  0  0  0  0  0  0  0  0  0  0
  -21.7717  -39.2806   -7.0235 C   0  0  0  0  0  0  0  0  0  0  0  0
  -22.8660  -40.0570   -6.4119 C   0  0  0  0  0  0  0  0  0  0  0  0
  -22.6194  -41.0997   -5.4102 C   0  0  0  0  0  0  0  0  0  0  0  0
  -22.6710  -40.7155   -4.0837 C   0  0  0  0  0  0  0  0  0  0  0  0
  -22.4835  -41.5395   -3.0050 C   0  0  0  0  0  0  0  0  0  0  0  0
  -22.2215  -42.8630   -3.2443 C   0  0  0  0  0  0  0  0  0  0  0  0
  -22.1634  -43.2777   -4.5559 C   0  0  0  0  0  0  0  0  0  0  0  0
  -22.3501  -42.4550   -5.6757 C   0  0  0  0  0  0  0  0  0  0  0  0
  -22.2704  -42.9682   -6.9167 O   0  0  0  0  0  0  0  0  0  0  0  0
  -21.3884  -43.0815   -7.9816 C   0  0  0  0  0  0  0  0  0  0  0  0
  -20.2336  -42.1586   -8.0242 C   0  0  0  0  0  0  0  0  0  0  0  0
  -20.3928  -41.2771   -8.9729 O   0  0  0  0  0  0  0  0  0  0  0  0
  -19.0867  -42.0835   -7.2695 N   0  0  0  0  0  0  0  0  0  0  0  0
  -17.7632  -42.6578   -7.3492 C   0  0  1  0  0  0  0  0  0  0  0  0
  -17.4508  -43.5287   -8.4953 C   0  0  0  0  0  0  0  0  0  0  0  0
  -16.7206  -41.6013   -7.0727 C   0  0  0  0  0  0  0  0  0  0  0  0
  -15.5287  -42.0353   -6.8572 O   0  0  0  0  0  0  0  0  0  0  0  0
  -16.8951  -40.2255   -7.0224 N   0  0  0  0  0  0  0  0  0  0  0  0
  -22.2285  -38.7346   -8.2618 C   0  0  0  0  0  0  0  0  0  0  0  0
  -23.5701  -38.9165   -8.6671 O   0  0  0  0  0  0  0  0  0  0  0  0
  -21.4402  -38.0242   -9.1134 C   0  0  0  0  0  0  0  0  0  0  0  0
  -20.1451  -37.8487   -8.7231 C   0  0  0  0  0  0  0  0  0  0  0  0
  1  2  1  0
  2  3  1  0
  3  4  1  0
  4  5  1  0
  5  6  1  0
  6  7  2  0
  6  8  1  0
  8  9  1  6
  8 10  1  0
 10 11  1  0
 11 12  1  1
 11 13  1  0
 13 14  1  1
 14 15  1  0
 15 16  2  0
 16 17  1  0
 17 18  1  0
 18 19  1  0
 19 20  2  0
 20 21  1  0
 21 22  2  0
 22 23  1  0
 23 24  2  0
 24 25  1  0
 25 26  1  0
 26 27  1  0
 27 28  2  0
 27 29  1  0
 29 30  1  0
 30 31  1  6
 30 32  1  0
 32 33  2  0
 32 34  1  0
 17 35  2  0
 35 36  1  0
 35 37  1  0
 37 38  2  0
 24 19  1  0
 34 13  1  0
 38 15  1  0
M  END
$$$$
