
     RDKit          3D

 38 40  0  0  0  0  0  0  0  0999 V2000
  -12.5908  -35.5693  -13.0357 C   0  0  0  0  0  0  0  0  0  0  0  0
  -13.1732  -36.9280  -12.6830 C   0  0  0  0  0  0  0  0  0  0  0  0
  -12.5446  -37.9138  -13.6637 C   0  0  0  0  0  0  0  0  0  0  0  0
  -13.0185  -39.3244  -13.3764 C   0  0  0  0  0  0  0  0  0  0  0  0
  -12.8190  -39.6452  -11.9997 N   0  0  0  0  0  0  0  0  0  0  0  0
  -13.8472  -40.3243  -11.2450 C   0  0  0  0  0  0  0  0  0  0  0  0
  -14.2538  -41.3866  -11.7396 O   0  0  0  0  0  0  0  0  0  0  0  0
  -14.2610  -39.6626  -10.0065 C   0  0  2  0  0  0  0  0  0  0  0  0
  -13.5191  -40.2406   -8.7965 C   0  0  0  0  0  0  0  0  0  0  0  0
  -15.7156  -39.5461   -9.7476 C   0  0  0  0  0  0  0  0  0  0  0  0
  -16.1715  -38.4645   -8.8448 C   0  0  2  0  0  0  0  0  0  0  0  0
  -15.2281  -37.8418   -8.0913 O   0  0  0  0  0  0  0  0  0  0  0  0
  -17.3415  -38.9878   -7.9973 C   0  0  2  0  0  0  0  0  0  0  0  0
  -18.1558  -37.7977   -7.4807 C   0  0  0  0  0  0  0  0  0  0  0  0
  -19.6321  -38.0709   -7.6521 C   0  0  0  0  0  0  0  0  0  0  0  0
  -20.4856  -38.7849   -6.8553 C   0  0  0  0  0  0  0  0  0  0  0  0
  -21.7830  -38.9991   -7.3049 C   0  0  0  0  0  0  0  0  0  0  0  0
  -22.9071  -39.7841   -6.7623 C   0  0  0  0  0  0  0  0  0  0  0  0
  -22.7152  -40.8255   -5.7474 C   0  0  0  0  0  0  0  0  0  0  0  0
  -22.8517  -40.4427   -4.4266 C   0  0  0  0  0  0  0  0  0  0  0  0
  -22.7251  -41.2659   -3.3386 C   0  0  0  0  0  0  0  0  0  0  0  0
  -22.4388  -42.5872   -3.5614 C   0  0  0  0  0  0  0  0  0  0  0  0
  -22.2965  -43.0006   -4.8670 C   0  0  0  0  0  0  0  0  0  0  0  0
  -22.4197  -42.1786   -5.9960 C   0  0  0  0  0  0  0  0  0  0  0  0
  -22.2595  -42.6904   -7.2298 O   0  0  0  0  0  0  0  0  0  0  0  0
  -21.3126  -42.7964   -8.2381 C   0  0  0  0  0  0  0  0  0  0  0  0
  -20.1643  -41.8648   -8.2090 C   0  0  0  0  0  0  0  0  0  0  0  0
  -20.2712  -40.9840   -9.1657 O   0  0  0  0  0  0  0  0  0  0  0  0
  -19.0669  -41.7816   -7.3848 N   0  0  0  0  0  0  0  0  0  0  0  0
  -17.7368  -42.3459   -7.3826 C   0  0  1  0  0  0  0  0  0  0  0  0
  -17.3475  -43.2137   -8.5073 C   0  0  0  0  0  0  0  0  0  0  0  0
  -16.7212  -41.2818   -7.0419 C   0  0  0  0  0  0  0  0  0  0  0  0
  -15.5417  -41.7069   -6.7532 O   0  0  0  0  0  0  0  0  0  0  0  0
  -16.9088  -39.9073   -7.0023 N   0  0  0  0  0  0  0  0  0  0  0  0
  -22.1664  -38.4558   -8.5690 C   0  0  0  0  0  0  0  0  0  0  0  0
  -23.4790  -38.6475   -9.0566 O   0  0  0  0  0  0  0  0  0  0  0  0
  -21.3323  -37.7389   -9.3701 C   0  0  0  0  0  0  0  0  0  0  0  0
  -20.0652  -37.5539   -8.9004 C   0  0  0  0  0  0  0  0  0  0  0  0
  1  2  1  0
  2  3  1  0
  3  4  1  0
  4  5  1  0
  5  6  1  0
  6  7  2  0
  6  8  1  0
  8  9  1  1
  8 10  1  0
 10 11  1  0
 11 12  1  1
 11 13  1  0
 13 14  1  1
 14 15  1  0
 15 16  2  0
 16 17  1  0
 17 18  1  0
 18 19  1  0
 19 20  2  0
 20 21  1  0
 21 22  2  0
 22 23  1  0
 23 24  2  0
 24 25  1  0
 25 26  1  0
 26 27  1  0
 27 28  2  0
 27 29  1  0
 29 30  1  0
 30 31  1  6
 30 32  1  0
 32 33  2  0
 32 34  1  0
 17 35  2  0
 35 36  1  0
 35 37  1  0
 37 38  2  0
 24 19  1  0
 34 13  1  0
 38 15  1  0
M  END
$$$$
