
     RDKit          3D

 38 40  0  0  0  0  0  0  0  0999 V2000
  -10.5550  -35.8639  -12.6278 C   0  0  0  0  0  0  0  0  0  0  0  0
  -11.3615  -35.5503  -11.3784 C   0  0  0  0  0  0  0  0  0  0  0  0
  -12.7631  -36.0914  -11.6452 C   0  0  0  0  0  0  0  0  0  0  0  0
  -12.7657  -37.6063  -11.5975 C   0  0  0  0  0  0  0  0  0  0  0  0
  -14.0011  -38.1174  -12.0981 N   0  0  0  0  0  0  0  0  0  0  0  0
  -15.0550  -38.5146  -11.1929 C   0  0  0  0  0  0  0  0  0  0  0  0
  -16.0588  -37.7860  -11.1957 O   0  0  0  0  0  0  0  0  0  0  0  0
  -14.7879  -39.7183  -10.4038 C   0  0  2  0  0  0  0  0  0  0  0  0
  -14.4067  -40.8972  -11.3058 C   0  0  0  0  0  0  0  0  0  0  0  0
  -15.7990  -40.1110   -9.3939 C   0  0  0  0  0  0  0  0  0  0  0  0
  -16.4163  -39.0377   -8.5817 C   0  0  2  0  0  0  0  0  0  0  0  0
  -15.5848  -38.2590   -7.8416 O   0  0  0  0  0  0  0  0  0  0  0  0
  -17.5493  -39.6442   -7.7394 C   0  0  2  0  0  0  0  0  0  0  0  0
  -18.3811  -38.5111   -7.1308 C   0  0  0  0  0  0  0  0  0  0  0  0
  -19.8536  -38.8148   -7.2822 C   0  0  0  0  0  0  0  0  0  0  0  0
  -20.6666  -39.5996   -6.5101 C   0  0  0  0  0  0  0  0  0  0  0  0
  -21.9692  -39.8225   -6.9400 C   0  0  0  0  0  0  0  0  0  0  0  0
  -23.0575  -40.6704   -6.4192 C   0  0  0  0  0  0  0  0  0  0  0  0
  -22.8113  -41.7657   -5.4753 C   0  0  0  0  0  0  0  0  0  0  0  0
  -22.9232  -41.4678   -4.1305 C   0  0  0  0  0  0  0  0  0  0  0  0
  -22.7462  -42.3518   -3.0986 C   0  0  0  0  0  0  0  0  0  0  0  0
  -22.4309  -43.6486   -3.4092 C   0  0  0  0  0  0  0  0  0  0  0  0
  -22.3121  -43.9777   -4.7409 C   0  0  0  0  0  0  0  0  0  0  0  0
  -22.4867  -43.0923   -5.8138 C   0  0  0  0  0  0  0  0  0  0  0  0
  -22.3454  -43.5235   -7.0803 O   0  0  0  0  0  0  0  0  0  0  0  0
  -21.4228  -43.5413   -8.1163 C   0  0  0  0  0  0  0  0  0  0  0  0
  -20.2993  -42.5813   -8.0582 C   0  0  0  0  0  0  0  0  0  0  0  0
  -20.4546  -41.6473   -8.9559 O   0  0  0  0  0  0  0  0  0  0  0  0
  -19.1832  -42.5175   -7.2576 N   0  0  0  0  0  0  0  0  0  0  0  0
  -17.8390  -43.0433   -7.3229 C   0  0  1  0  0  0  0  0  0  0  0  0
  -17.4565  -43.8298   -8.5081 C   0  0  0  0  0  0  0  0  0  0  0  0
  -16.8434  -41.9737   -6.9425 C   0  0  0  0  0  0  0  0  0  0  0  0
  -15.6458  -42.3823   -6.7096 O   0  0  0  0  0  0  0  0  0  0  0  0
  -17.0664  -40.6100   -6.8138 N   0  0  0  0  0  0  0  0  0  0  0  0
  -22.4000  -39.2143   -8.1585 C   0  0  0  0  0  0  0  0  0  0  0  0
  -23.7194  -39.4128   -8.6245 O   0  0  0  0  0  0  0  0  0  0  0  0
  -21.6066  -38.4269   -8.9342 C   0  0  0  0  0  0  0  0  0  0  0  0
  -20.3329  -38.2352   -8.4854 C   0  0  0  0  0  0  0  0  0  0  0  0
  1  2  1  0
  2  3  1  0
  3  4  1  0
  4  5  1  0
  5  6  1  0
  6  7  2  0
  6  8  1  0
  8  9  1  6
  8 10  1  0
 10 11  1  0
 11 12  1  1
 11 13  1  0
 13 14  1  1
 14 15  1  0
 15 16  2  0
 16 17  1  0
 17 18  1  0
 18 19  1  0
 19 20  2  0
 20 21  1  0
 21 22  2  0
 22 23  1  0
 23 24  2  0
 24 25  1  0
 25 26  1  0
 26 27  1  0
 27 28  2  0
 27 29  1  0
 29 30  1  0
 30 31  1  6
 30 32  1  0
 32 33  2  0
 32 34  1  0
 17 35  2  0
 35 36  1  0
 35 37  1  0
 37 38  2  0
 24 19  1  0
 34 13  1  0
 38 15  1  0
M  END
$$$$
