
     RDKit          3D

 38 40  0  0  0  0  0  0  0  0999 V2000
  -12.1967  -34.8140  -13.3526 C   0  0  0  0  0  0  0  0  0  0  0  0
  -11.4291  -35.1910  -12.0963 C   0  0  0  0  0  0  0  0  0  0  0  0
  -12.3884  -36.0380  -11.2650 C   0  0  0  0  0  0  0  0  0  0  0  0
  -12.2147  -37.5086  -11.5877 C   0  0  0  0  0  0  0  0  0  0  0  0
  -13.4867  -38.1337  -11.7592 N   0  0  0  0  0  0  0  0  0  0  0  0
  -13.8043  -39.3605  -11.0650 C   0  0  0  0  0  0  0  0  0  0  0  0
  -13.8929  -40.3682  -11.7828 O   0  0  0  0  0  0  0  0  0  0  0  0
  -13.9755  -39.2389   -9.6163 C   0  0  2  0  0  0  0  0  0  0  0  0
  -12.7587  -39.7934   -8.8675 C   0  0  0  0  0  0  0  0  0  0  0  0
  -15.2447  -39.7358   -9.0345 C   0  0  0  0  0  0  0  0  0  0  0  0
  -16.3575  -38.7710   -8.8801 C   0  0  2  0  0  0  0  0  0  0  0  0
  -16.0379  -37.5048   -8.5062 O   0  0  0  0  0  0  0  0  0  0  0  0
  -17.4293  -39.3934   -7.9719 C   0  0  2  0  0  0  0  0  0  0  0  0
  -18.1474  -38.2763   -7.2085 C   0  0  0  0  0  0  0  0  0  0  0  0
  -19.6396  -38.5133   -7.2324 C   0  0  0  0  0  0  0  0  0  0  0  0
  -20.4078  -39.3204   -6.4377 C   0  0  0  0  0  0  0  0  0  0  0  0
  -21.7546  -39.4633   -6.7496 C   0  0  0  0  0  0  0  0  0  0  0  0
  -22.8236  -40.3050   -6.1812 C   0  0  0  0  0  0  0  0  0  0  0  0
  -22.5357  -41.4733   -5.3424 C   0  0  0  0  0  0  0  0  0  0  0  0
  -22.5036  -41.2681   -3.9761 C   0  0  0  0  0  0  0  0  0  0  0  0
  -22.2666  -42.2294   -3.0288 C   0  0  0  0  0  0  0  0  0  0  0  0
  -22.0404  -43.5116   -3.4559 C   0  0  0  0  0  0  0  0  0  0  0  0
  -22.0658  -43.7491   -4.8119 C   0  0  0  0  0  0  0  0  0  0  0  0
  -22.3042  -42.7835   -5.8001 C   0  0  0  0  0  0  0  0  0  0  0  0
  -22.3055  -43.1282   -7.1005 O   0  0  0  0  0  0  0  0  0  0  0  0
  -21.4893  -43.1065   -8.2221 C   0  0  0  0  0  0  0  0  0  0  0  0
  -20.3242  -42.1957   -8.2118 C   0  0  0  0  0  0  0  0  0  0  0  0
  -20.5243  -41.1949   -9.0247 O   0  0  0  0  0  0  0  0  0  0  0  0
  -19.1341  -42.2308   -7.5240 N   0  0  0  0  0  0  0  0  0  0  0  0
  -17.8269  -42.8003   -7.7582 C   0  0  1  0  0  0  0  0  0  0  0  0
  -17.5961  -43.5140   -9.0259 C   0  0  0  0  0  0  0  0  0  0  0  0
  -16.7530  -41.7985   -7.4079 C   0  0  0  0  0  0  0  0  0  0  0  0
  -15.5577  -42.2670   -7.3235 O   0  0  0  0  0  0  0  0  0  0  0  0
  -16.9021  -40.4401   -7.1661 N   0  0  0  0  0  0  0  0  0  0  0  0
  -22.2740  -38.7542   -7.8754 C   0  0  0  0  0  0  0  0  0  0  0  0
  -23.6398  -38.8696   -8.2199 O   0  0  0  0  0  0  0  0  0  0  0  0
  -21.5256  -37.9435   -8.6716 C   0  0  0  0  0  0  0  0  0  0  0  0
  -20.2072  -37.8320   -8.3401 C   0  0  0  0  0  0  0  0  0  0  0  0
  1  2  1  0
  2  3  1  0
  3  4  1  0
  4  5  1  0
  5  6  1  0
  6  7  2  0
  6  8  1  0
  8  9  1  1
  8 10  1  0
 10 11  1  0
 11 12  1  1
 11 13  1  0
 13 14  1  1
 14 15  1  0
 15 16  2  0
 16 17  1  0
 17 18  1  0
 18 19  1  0
 19 20  2  0
 20 21  1  0
 21 22  2  0
 22 23  1  0
 23 24  2  0
 24 25  1  0
 25 26  1  0
 26 27  1  0
 27 28  2  0
 27 29  1  0
 29 30  1  0
 30 31  1  6
 30 32  1  0
 32 33  2  0
 32 34  1  0
 17 35  2  0
 35 36  1  0
 35 37  1  0
 37 38  2  0
 24 19  1  0
 34 13  1  0
 38 15  1  0
M  END
$$$$
