
     RDKit          3D

 38 40  0  0  0  0  0  0  0  0999 V2000
  -12.0408  -37.8533  -15.0627 C   0  0  0  0  0  0  0  0  0  0  0  0
  -12.5739  -36.9272  -13.9820 C   0  0  0  0  0  0  0  0  0  0  0  0
  -12.2238  -37.5959  -12.6558 C   0  0  0  0  0  0  0  0  0  0  0  0
  -12.6682  -36.7329  -11.4920 C   0  0  0  0  0  0  0  0  0  0  0  0
  -12.7767  -37.5172  -10.3041 N   0  0  0  0  0  0  0  0  0  0  0  0
  -13.7262  -38.6034  -10.2226 C   0  0  0  0  0  0  0  0  0  0  0  0
  -14.3640  -38.8292  -11.2622 O   0  0  0  0  0  0  0  0  0  0  0  0
  -13.7991  -39.2811   -8.9271 C   0  0  2  0  0  0  0  0  0  0  0  0
  -12.7690  -40.4122   -8.8363 C   0  0  0  0  0  0  0  0  0  0  0  0
  -15.1348  -39.7235   -8.4621 C   0  0  0  0  0  0  0  0  0  0  0  0
  -16.3163  -38.9675   -8.9369 C   0  0  2  0  0  0  0  0  0  0  0  0
  -16.1927  -37.6188   -9.0423 O   0  0  0  0  0  0  0  0  0  0  0  0
  -17.5359  -39.3766   -8.0965 C   0  0  2  0  0  0  0  0  0  0  0  0
  -18.3531  -38.1256   -7.7599 C   0  0  0  0  0  0  0  0  0  0  0  0
  -19.8238  -38.3983   -7.9742 C   0  0  0  0  0  0  0  0  0  0  0  0
  -20.7282  -39.0066   -7.1465 C   0  0  0  0  0  0  0  0  0  0  0  0
  -22.0056  -39.2546   -7.6346 C   0  0  0  0  0  0  0  0  0  0  0  0
  -23.1690  -39.9589   -7.0648 C   0  0  0  0  0  0  0  0  0  0  0  0
  -23.0460  -40.8805   -5.9303 C   0  0  0  0  0  0  0  0  0  0  0  0
  -23.2405  -40.3483   -4.6699 C   0  0  0  0  0  0  0  0  0  0  0  0
  -23.1824  -41.0440   -3.4908 C   0  0  0  0  0  0  0  0  0  0  0  0
  -22.9094  -42.3855   -3.5481 C   0  0  0  0  0  0  0  0  0  0  0  0
  -22.7104  -42.9463   -4.7897 C   0  0  0  0  0  0  0  0  0  0  0  0
  -22.7631  -42.2565   -6.0091 C   0  0  0  0  0  0  0  0  0  0  0  0
  -22.5516  -42.9072   -7.1675 O   0  0  0  0  0  0  0  0  0  0  0  0
  -21.5582  -43.1388   -8.1078 C   0  0  0  0  0  0  0  0  0  0  0  0
  -20.3962  -42.2241   -8.1256 C   0  0  0  0  0  0  0  0  0  0  0  0
  -20.4399  -41.4565   -9.1798 O   0  0  0  0  0  0  0  0  0  0  0  0
  -19.3394  -42.0613   -7.2612 N   0  0  0  0  0  0  0  0  0  0  0  0
  -18.0213  -42.6380   -7.1275 C   0  0  1  0  0  0  0  0  0  0  0  0
  -17.5928  -43.6327   -8.1257 C   0  0  0  0  0  0  0  0  0  0  0  0
  -17.0047  -41.5546   -6.8579 C   0  0  0  0  0  0  0  0  0  0  0  0
  -15.8487  -41.9586   -6.4632 O   0  0  0  0  0  0  0  0  0  0  0  0
  -17.1693  -40.1823   -6.9833 N   0  0  0  0  0  0  0  0  0  0  0  0
  -22.3164  -38.8538   -8.9698 C   0  0  0  0  0  0  0  0  0  0  0  0
  -23.6066  -39.0835   -9.4989 O   0  0  0  0  0  0  0  0  0  0  0  0
  -21.4311  -38.2429   -9.8032 C   0  0  0  0  0  0  0  0  0  0  0  0
  -20.1855  -38.0213   -9.2934 C   0  0  0  0  0  0  0  0  0  0  0  0
  1  2  1  0
  2  3  1  0
  3  4  1  0
  4  5  1  0
  5  6  1  0
  6  7  2  0
  6  8  1  0
  8  9  1  6
  8 10  1  0
 10 11  1  0
 11 12  1  1
 11 13  1  0
 13 14  1  1
 14 15  1  0
 15 16  2  0
 16 17  1  0
 17 18  1  0
 18 19  1  0
 19 20  2  0
 20 21  1  0
 21 22  2  0
 22 23  1  0
 23 24  2  0
 24 25  1  0
 25 26  1  0
 26 27  1  0
 27 28  2  0
 27 29  1  0
 29 30  1  0
 30 31  1  6
 30 32  1  0
 32 33  2  0
 32 34  1  0
 17 35  2  0
 35 36  1  0
 35 37  1  0
 37 38  2  0
 24 19  1  0
 34 13  1  0
 38 15  1  0
M  END
$$$$
