
     RDKit          3D

 38 40  0  0  0  0  0  0  0  0999 V2000
  -10.8131  -34.7031  -12.4597 C   0  0  0  0  0  0  0  0  0  0  0  0
  -11.3895  -36.0535  -12.0675 C   0  0  0  0  0  0  0  0  0  0  0  0
  -12.4078  -36.3979  -13.1506 C   0  0  0  0  0  0  0  0  0  0  0  0
  -13.0504  -37.7411  -12.8679 C   0  0  0  0  0  0  0  0  0  0  0  0
  -13.6418  -37.7459  -11.5686 N   0  0  0  0  0  0  0  0  0  0  0  0
  -14.4589  -38.8559  -11.1350 C   0  0  0  0  0  0  0  0  0  0  0  0
  -15.1886  -39.3499  -12.0080 O   0  0  0  0  0  0  0  0  0  0  0  0
  -14.3087  -39.2383   -9.7300 C   0  0  2  0  0  0  0  0  0  0  0  0
  -13.1600  -40.2366   -9.5487 C   0  0  0  0  0  0  0  0  0  0  0  0
  -15.5267  -39.6738   -9.0068 C   0  0  0  0  0  0  0  0  0  0  0  0
  -16.7007  -38.7714   -9.0264 C   0  0  2  0  0  0  0  0  0  0  0  0
  -16.4669  -37.4405   -8.8869 O   0  0  0  0  0  0  0  0  0  0  0  0
  -17.7393  -39.2889   -8.0191 C   0  0  2  0  0  0  0  0  0  0  0  0
  -18.5721  -38.1088   -7.5093 C   0  0  0  0  0  0  0  0  0  0  0  0
  -20.0370  -38.4796   -7.4975 C   0  0  0  0  0  0  0  0  0  0  0  0
  -20.7541  -39.1729   -6.5604 C   0  0  0  0  0  0  0  0  0  0  0  0
  -22.0743  -39.4978   -6.8484 C   0  0  0  0  0  0  0  0  0  0  0  0
  -23.0816  -40.2983   -6.1283 C   0  0  0  0  0  0  0  0  0  0  0  0
  -22.7170  -41.2392   -5.0638 C   0  0  0  0  0  0  0  0  0  0  0  0
  -22.7404  -40.7566   -3.7691 C   0  0  0  0  0  0  0  0  0  0  0  0
  -22.4473  -41.4782   -2.6417 C   0  0  0  0  0  0  0  0  0  0  0  0
  -22.0993  -42.7948   -2.7928 C   0  0  0  0  0  0  0  0  0  0  0  0
  -22.0666  -43.3062   -4.0707 C   0  0  0  0  0  0  0  0  0  0  0  0
  -22.3604  -42.5890   -5.2391 C   0  0  0  0  0  0  0  0  0  0  0  0
  -22.2960  -43.1914   -6.4403 O   0  0  0  0  0  0  0  0  0  0  0  0
  -21.4541  -43.3261   -7.5347 C   0  0  0  0  0  0  0  0  0  0  0  0
  -20.3729  -42.3309   -7.7020 C   0  0  0  0  0  0  0  0  0  0  0  0
  -20.6365  -41.5400   -8.7058 O   0  0  0  0  0  0  0  0  0  0  0  0
  -19.2037  -42.1168   -7.0109 N   0  0  0  0  0  0  0  0  0  0  0  0
  -17.8462  -42.6017   -7.1106 C   0  0  1  0  0  0  0  0  0  0  0  0
  -17.5196  -43.5359   -8.2015 C   0  0  0  0  0  0  0  0  0  0  0  0
  -16.8731  -41.4564   -6.9647 C   0  0  0  0  0  0  0  0  0  0  0  0
  -15.6445  -41.7877   -6.7745 O   0  0  0  0  0  0  0  0  0  0  0  0
  -17.1458  -40.0964   -7.0099 N   0  0  0  0  0  0  0  0  0  0  0  0
  -22.6219  -39.0841   -8.1010 C   0  0  0  0  0  0  0  0  0  0  0  0
  -23.9626  -39.3905   -8.4267 O   0  0  0  0  0  0  0  0  0  0  0  0
  -21.9248  -38.3894   -9.0405 C   0  0  0  0  0  0  0  0  0  0  0  0
  -20.6306  -38.0936   -8.7271 C   0  0  0  0  0  0  0  0  0  0  0  0
  1  2  1  0
  2  3  1  0
  3  4  1  0
  4  5  1  0
  5  6  1  0
  6  7  2  0
  6  8  1  0
  8  9  1  6
  8 10  1  0
 10 11  1  0
 11 12  1  1
 11 13  1  0
 13 14  1  1
 14 15  1  0
 15 16  2  0
 16 17  1  0
 17 18  1  0
 18 19  1  0
 19 20  2  0
 20 21  1  0
 21 22  2  0
 22 23  1  0
 23 24  2  0
 24 25  1  0
 25 26  1  0
 26 27  1  0
 27 28  2  0
 27 29  1  0
 29 30  1  0
 30 31  1  6
 30 32  1  0
 32 33  2  0
 32 34  1  0
 17 35  2  0
 35 36  1  0
 35 37  1  0
 37 38  2  0
 24 19  1  0
 34 13  1  0
 38 15  1  0
M  END
$$$$
