
     RDKit          3D

 39 42  0  0  0  0  0  0  0  0999 V2000
  -11.2179  -36.7788  -10.3618 C   0  0  0  0  0  0  0  0  0  0  0  0
  -11.2470  -38.1042  -11.1251 C   0  0  0  0  0  0  0  0  0  0  0  0
  -12.0110  -37.9103  -12.3937 C   0  0  0  0  0  0  0  0  0  0  0  0
  -11.8884  -39.0984  -10.2148 C   0  0  0  0  0  0  0  0  0  0  0  0
  -11.0889  -39.8669   -9.4025 C   0  0  0  0  0  0  0  0  0  0  0  0
  -11.6119  -40.8084   -8.5356 C   0  0  0  0  0  0  0  0  0  0  0  0
  -12.9901  -40.9679   -8.4988 C   0  0  0  0  0  0  0  0  0  0  0  0
  -13.7875  -40.1996   -9.3108 C   0  0  0  0  0  0  0  0  0  0  0  0
  -15.2821  -40.3622   -9.2835 C   0  0  0  0  0  0  0  0  0  0  0  0
  -15.5953  -40.8465   -7.9432 N   0  0  0  0  0  0  0  0  0  0  0  0
  -16.3473  -39.8971   -7.1872 C   0  0  0  0  0  0  0  0  0  0  0  0
  -17.5228  -39.3502   -7.9137 C   0  0  1  0  0  0  0  0  0  0  0  0
  -17.5422  -37.9622   -7.9638 O   0  0  0  0  0  0  0  0  0  0  0  0
  -17.8480  -39.9889   -9.2317 C   0  0  2  0  0  0  0  0  0  0  0  0
  -18.5982  -39.1417  -10.2007 C   0  0  0  0  0  0  0  0  0  0  0  0
  -19.9790  -38.7317   -9.8743 C   0  0  0  0  0  0  0  0  0  0  0  0
  -20.0459  -37.3444   -9.6093 C   0  0  0  0  0  0  0  0  0  0  0  0
  -21.1908  -36.6679   -9.2844 C   0  0  0  0  0  0  0  0  0  0  0  0
  -21.1981  -35.2011   -9.0156 C   0  0  0  0  0  0  0  0  0  0  0  0
  -22.3262  -37.4236   -9.2227 C   0  0  0  0  0  0  0  0  0  0  0  0
  -22.3281  -38.8158   -9.4753 C   0  0  0  0  0  0  0  0  0  0  0  0
  -21.1497  -39.4664   -9.8019 C   0  0  0  0  0  0  0  0  0  0  0  0
  -23.6070  -39.3198   -9.3427 O   0  0  0  0  0  0  0  0  0  0  0  0
  -24.2929  -40.2852   -8.6545 C   0  0  0  0  0  0  0  0  0  0  0  0
  -24.9162  -39.6990   -7.4059 C   0  0  0  0  0  0  0  0  0  0  0  0
  -24.6630  -40.6019   -6.2255 C   0  0  0  0  0  0  0  0  0  0  0  0
  -23.5540  -40.0524   -5.3145 C   0  0  0  0  0  0  0  0  0  0  0  0
  -22.6883  -41.1669   -5.0191 N   0  0  0  0  0  0  0  0  0  0  0  0
  -21.3675  -41.4717   -5.4712 C   0  0  0  0  0  0  0  0  0  0  0  0
  -20.7999  -41.5727   -6.7131 C   0  0  0  0  0  0  0  0  0  0  0  0
  -19.4629  -41.9046   -6.7976 C   0  0  0  0  0  0  0  0  0  0  0  0
  -18.7476  -42.1246   -5.5951 C   0  0  0  0  0  0  0  0  0  0  0  0
  -19.3135  -42.0242   -4.3451 C   0  0  0  0  0  0  0  0  0  0  0  0
  -18.3743  -42.3092   -2.8859 Cl  0  0  0  0  0  0  0  0  0  0  0  0
  -20.5822  -41.7058   -4.3481 N   0  0  0  0  0  0  0  0  0  0  0  0
  -18.5642  -42.1010   -7.9371 C   0  0  0  0  0  0  0  0  0  0  0  0
  -17.7820  -43.1817   -7.9108 O   0  0  0  0  0  0  0  0  0  0  0  0
  -18.3486  -41.3387   -9.1124 N   0  0  0  0  0  0  0  0  0  0  0  0
  -13.2497  -39.2622  -10.1725 C   0  0  0  0  0  0  0  0  0  0  0  0
  1  2  1  0
  2  3  1  0
  2  4  1  0
  4  5  2  0
  5  6  1  0
  6  7  2  0
  7  8  1  0
  8  9  1  0
  9 10  1  0
 10 11  1  0
 11 12  1  0
 12 13  1  6
 12 14  1  0
 14 15  1  1
 15 16  1  0
 16 17  2  0
 17 18  1  0
 18 19  1  0
 18 20  2  0
 20 21  1  0
 21 22  2  0
 21 23  1  0
 23 24  1  0
 24 25  1  0
 25 26  1  0
 26 27  1  0
 27 28  1  0
 28 29  1  0
 29 30  2  0
 30 31  1  0
 31 32  2  0
 32 33  1  0
 33 34  1  0
 33 35  2  0
 31 36  1  0
 36 37  2  0
 36 38  1  0
  8 39  2  0
 22 16  1  0
 35 29  1  0
 38 14  1  0
 39  4  1  0
M  END
$$$$
