
     RDKit          3D

 39 42  0  0  0  0  0  0  0  0999 V2000
  -24.3689  -39.9580   -6.4802 C   0  0  0  0  0  0  0  0  0  0  0  0
  -23.3077  -38.8854   -6.7324 C   0  0  0  0  0  0  0  0  0  0  0  0
  -23.8479  -37.8977   -7.7138 C   0  0  0  0  0  0  0  0  0  0  0  0
  -22.1012  -39.6010   -7.2429 C   0  0  0  0  0  0  0  0  0  0  0  0
  -22.2288  -40.4161   -8.3424 C   0  0  0  0  0  0  0  0  0  0  0  0
  -21.1564  -41.1111   -8.8699 C   0  0  0  0  0  0  0  0  0  0  0  0
  -19.9200  -40.9685   -8.2558 C   0  0  0  0  0  0  0  0  0  0  0  0
  -19.7939  -40.1540   -7.1575 C   0  0  0  0  0  0  0  0  0  0  0  0
  -18.4614  -39.9907   -6.4803 C   0  0  0  0  0  0  0  0  0  0  0  0
  -17.5226  -39.6576   -7.5465 N   0  0  0  0  0  0  0  0  0  0  0  0
  -16.1895  -39.4949   -7.0620 C   0  0  0  0  0  0  0  0  0  0  0  0
  -15.1535  -39.5705   -8.1248 C   0  0  1  0  0  0  0  0  0  0  0  0
  -13.9741  -38.9167   -7.7915 O   0  0  0  0  0  0  0  0  0  0  0  0
  -14.9225  -40.9212   -8.7355 C   0  0  2  0  0  0  0  0  0  0  0  0
  -13.5013  -41.2885   -8.9903 C   0  0  0  0  0  0  0  0  0  0  0  0
  -12.7327  -40.5237   -9.9930 C   0  0  0  0  0  0  0  0  0  0  0  0
  -11.7361  -39.7351   -9.3732 C   0  0  0  0  0  0  0  0  0  0  0  0
  -10.8594  -38.9223  -10.0403 C   0  0  0  0  0  0  0  0  0  0  0  0
   -9.8279  -38.1131   -9.3296 C   0  0  0  0  0  0  0  0  0  0  0  0
  -10.9907  -38.9008  -11.3990 C   0  0  0  0  0  0  0  0  0  0  0  0
  -11.9671  -39.6646  -12.0812 C   0  0  0  0  0  0  0  0  0  0  0  0
  -12.8370  -40.4766  -11.3723 C   0  0  0  0  0  0  0  0  0  0  0  0
  -11.8713  -39.4498  -13.4420 O   0  0  0  0  0  0  0  0  0  0  0  0
  -12.6413  -39.0520  -14.5026 C   0  0  0  0  0  0  0  0  0  0  0  0
  -12.4743  -37.5676  -14.7468 C   0  0  0  0  0  0  0  0  0  0  0  0
  -13.8201  -36.9197  -14.9508 C   0  0  0  0  0  0  0  0  0  0  0  0
  -14.2755  -36.1457  -13.7037 C   0  0  0  0  0  0  0  0  0  0  0  0
  -15.6534  -36.5101  -13.4863 N   0  0  0  0  0  0  0  0  0  0  0  0
  -16.2574  -37.3327  -12.4862 C   0  0  0  0  0  0  0  0  0  0  0  0
  -16.0235  -38.6108  -12.0545 C   0  0  0  0  0  0  0  0  0  0  0  0
  -16.8206  -39.1193  -11.0490 C   0  0  0  0  0  0  0  0  0  0  0  0
  -17.8403  -38.2927  -10.5167 C   0  0  0  0  0  0  0  0  0  0  0  0
  -18.0791  -37.0080  -10.9472 C   0  0  0  0  0  0  0  0  0  0  0  0
  -19.3612  -36.0283  -10.2479 Cl  0  0  0  0  0  0  0  0  0  0  0  0
  -17.2827  -36.5986  -11.9006 N   0  0  0  0  0  0  0  0  0  0  0  0
  -16.8497  -40.4182  -10.3733 C   0  0  0  0  0  0  0  0  0  0  0  0
  -18.0446  -40.9909  -10.2155 O   0  0  0  0  0  0  0  0  0  0  0  0
  -15.8180  -41.2227   -9.8281 N   0  0  0  0  0  0  0  0  0  0  0  0
  -20.8757  -39.4653   -6.6417 C   0  0  0  0  0  0  0  0  0  0  0  0
  1  2  1  0
  2  3  1  0
  2  4  1  0
  4  5  2  0
  5  6  1  0
  6  7  2  0
  7  8  1  0
  8  9  1  0
  9 10  1  0
 10 11  1  0
 11 12  1  0
 12 13  1  1
 12 14  1  0
 14 15  1  6
 15 16  1  0
 16 17  2  0
 17 18  1  0
 18 19  1  0
 18 20  2  0
 20 21  1  0
 21 22  2  0
 21 23  1  0
 23 24  1  0
 24 25  1  0
 25 26  1  0
 26 27  1  0
 27 28  1  0
 28 29  1  0
 29 30  2  0
 30 31  1  0
 31 32  2  0
 32 33  1  0
 33 34  1  0
 33 35  2  0
 31 36  1  0
 36 37  2  0
 36 38  1  0
  8 39  2  0
 22 16  1  0
 35 29  1  0
 38 14  1  0
 39  4  1  0
M  END
$$$$
