
     RDKit          3D

 39 42  0  0  0  0  0  0  0  0999 V2000
  -22.2601  -39.1735   -2.8459 C   0  0  0  0  0  0  0  0  0  0  0  0
  -21.6072  -40.5538   -2.7518 C   0  0  0  0  0  0  0  0  0  0  0  0
  -20.1710  -40.3807   -2.3804 C   0  0  0  0  0  0  0  0  0  0  0  0
  -21.7813  -41.1921   -4.0900 C   0  0  0  0  0  0  0  0  0  0  0  0
  -21.9256  -42.5573   -4.1603 C   0  0  0  0  0  0  0  0  0  0  0  0
  -22.0893  -43.2175   -5.3640 C   0  0  0  0  0  0  0  0  0  0  0  0
  -22.1057  -42.4605   -6.5271 C   0  0  0  0  0  0  0  0  0  0  0  0
  -21.9614  -41.0969   -6.4554 C   0  0  0  0  0  0  0  0  0  0  0  0
  -21.9754  -40.2634   -7.7069 C   0  0  0  0  0  0  0  0  0  0  0  0
  -20.6703  -40.4706   -8.3255 N   0  0  0  0  0  0  0  0  0  0  0  0
  -19.6332  -39.7568   -7.6521 C   0  0  0  0  0  0  0  0  0  0  0  0
  -18.2823  -39.9768   -8.2313 C   0  0  1  0  0  0  0  0  0  0  0  0
  -17.3742  -38.9775   -7.9056 O   0  0  0  0  0  0  0  0  0  0  0  0
  -17.7120  -41.3569   -8.0869 C   0  0  2  0  0  0  0  0  0  0  0  0
  -16.4421  -41.4614   -7.3149 C   0  0  0  0  0  0  0  0  0  0  0  0
  -15.2195  -40.8370   -7.8595 C   0  0  0  0  0  0  0  0  0  0  0  0
  -14.8349  -39.7178   -7.0857 C   0  0  0  0  0  0  0  0  0  0  0  0
  -13.7384  -38.9373   -7.3364 C   0  0  0  0  0  0  0  0  0  0  0  0
  -13.3836  -37.7675   -6.4823 C   0  0  0  0  0  0  0  0  0  0  0  0
  -12.9904  -39.2998   -8.4194 C   0  0  0  0  0  0  0  0  0  0  0  0
  -13.3204  -40.4076   -9.2355 C   0  0  0  0  0  0  0  0  0  0  0  0
  -14.4378  -41.1749   -8.9505 C   0  0  0  0  0  0  0  0  0  0  0  0
  -12.3951  -40.5396  -10.2522 O   0  0  0  0  0  0  0  0  0  0  0  0
  -12.3340  -40.6085  -11.6188 C   0  0  0  0  0  0  0  0  0  0  0  0
  -12.0596  -39.2394  -12.2031 C   0  0  0  0  0  0  0  0  0  0  0  0
  -12.9853  -38.9743  -13.3630 C   0  0  0  0  0  0  0  0  0  0  0  0
  -14.1256  -38.0194  -12.9762 C   0  0  0  0  0  0  0  0  0  0  0  0
  -15.3341  -38.6037  -13.5023 N   0  0  0  0  0  0  0  0  0  0  0  0
  -16.4263  -39.2476  -12.8434 C   0  0  0  0  0  0  0  0  0  0  0  0
  -16.5066  -40.2869  -11.9557 C   0  0  0  0  0  0  0  0  0  0  0  0
  -17.7547  -40.6756  -11.5126 C   0  0  0  0  0  0  0  0  0  0  0  0
  -18.8879  -39.9798  -12.0004 C   0  0  0  0  0  0  0  0  0  0  0  0
  -18.8122  -38.9350  -12.8923 C   0  0  0  0  0  0  0  0  0  0  0  0
  -20.2555  -38.1083  -13.4634 Cl  0  0  0  0  0  0  0  0  0  0  0  0
  -17.5967  -38.6260  -13.2639 N   0  0  0  0  0  0  0  0  0  0  0  0
  -18.1927  -41.7278  -10.5930 C   0  0  0  0  0  0  0  0  0  0  0  0
  -19.2199  -42.4840  -10.9849 O   0  0  0  0  0  0  0  0  0  0  0  0
  -17.7246  -42.1193   -9.3137 N   0  0  0  0  0  0  0  0  0  0  0  0
  -21.7987  -40.4510   -5.2442 C   0  0  0  0  0  0  0  0  0  0  0  0
  1  2  1  0
  2  3  1  0
  2  4  1  0
  4  5  2  0
  5  6  1  0
  6  7  2  0
  7  8  1  0
  8  9  1  0
  9 10  1  0
 10 11  1  0
 11 12  1  0
 12 13  1  1
 12 14  1  0
 14 15  1  6
 15 16  1  0
 16 17  2  0
 17 18  1  0
 18 19  1  0
 18 20  2  0
 20 21  1  0
 21 22  2  0
 21 23  1  0
 23 24  1  0
 24 25  1  0
 25 26  1  0
 26 27  1  0
 27 28  1  0
 28 29  1  0
 29 30  2  0
 30 31  1  0
 31 32  2  0
 32 33  1  0
 33 34  1  0
 33 35  2  0
 31 36  1  0
 36 37  2  0
 36 38  1  0
  8 39  2  0
 22 16  1  0
 35 29  1  0
 38 14  1  0
 39  4  1  0
M  END
$$$$
