
     RDKit          3D

 39 42  0  0  0  0  0  0  0  0999 V2000
  -25.0804  -39.1081   -7.5096 C   0  0  0  0  0  0  0  0  0  0  0  0
  -24.3407  -40.3161   -8.0874 C   0  0  0  0  0  0  0  0  0  0  0  0
  -25.3044  -41.1320   -8.8851 C   0  0  0  0  0  0  0  0  0  0  0  0
  -23.7832  -41.0633   -6.9216 C   0  0  0  0  0  0  0  0  0  0  0  0
  -24.6419  -41.7722   -6.1156 C   0  0  0  0  0  0  0  0  0  0  0  0
  -24.1981  -42.4863   -5.0180 C   0  0  0  0  0  0  0  0  0  0  0  0
  -22.8389  -42.4746   -4.7375 C   0  0  0  0  0  0  0  0  0  0  0  0
  -21.9822  -41.7660   -5.5434 C   0  0  0  0  0  0  0  0  0  0  0  0
  -20.5074  -41.7423   -5.2513 C   0  0  0  0  0  0  0  0  0  0  0  0
  -20.0293  -40.4657   -5.7716 N   0  0  0  0  0  0  0  0  0  0  0  0
  -18.6410  -40.5025   -6.1028 C   0  0  0  0  0  0  0  0  0  0  0  0
  -18.3467  -41.2266   -7.3669 C   0  0  1  0  0  0  0  0  0  0  0  0
  -18.0613  -42.5726   -7.1767 O   0  0  0  0  0  0  0  0  0  0  0  0
  -19.2879  -40.9826   -8.5094 C   0  0  2  0  0  0  0  0  0  0  0  0
  -19.3210  -42.0340   -9.5644 C   0  0  0  0  0  0  0  0  0  0  0  0
  -18.1175  -42.2573  -10.3908 C   0  0  0  0  0  0  0  0  0  0  0  0
  -17.5189  -43.5019  -10.0875 C   0  0  0  0  0  0  0  0  0  0  0  0
  -16.3933  -43.9929  -10.6926 C   0  0  0  0  0  0  0  0  0  0  0  0
  -15.8081  -45.3155  -10.3290 C   0  0  0  0  0  0  0  0  0  0  0  0
  -15.8410  -43.1927  -11.6510 C   0  0  0  0  0  0  0  0  0  0  0  0
  -16.3892  -41.9361  -12.0014 C   0  0  0  0  0  0  0  0  0  0  0  0
  -17.5301  -41.4723  -11.3676 C   0  0  0  0  0  0  0  0  0  0  0  0
  -15.6301  -41.3481  -12.9941 O   0  0  0  0  0  0  0  0  0  0  0  0
  -14.9466  -40.1893  -13.2507 C   0  0  0  0  0  0  0  0  0  0  0  0
  -13.4831  -40.3528  -12.9007 C   0  0  0  0  0  0  0  0  0  0  0  0
  -13.0002  -39.1604  -12.1149 C   0  0  0  0  0  0  0  0  0  0  0  0
  -12.8690  -39.4791  -10.6173 C   0  0  0  0  0  0  0  0  0  0  0  0
  -13.4761  -38.3745   -9.9172 N   0  0  0  0  0  0  0  0  0  0  0  0
  -14.7081  -38.2851   -9.1990 C   0  0  0  0  0  0  0  0  0  0  0  0
  -16.0060  -38.5801   -9.5203 C   0  0  0  0  0  0  0  0  0  0  0  0
  -16.9829  -38.3587   -8.5708 C   0  0  0  0  0  0  0  0  0  0  0  0
  -16.5921  -37.8367   -7.3134 C   0  0  0  0  0  0  0  0  0  0  0  0
  -15.2895  -37.5388   -6.9860 C   0  0  0  0  0  0  0  0  0  0  0  0
  -14.8640  -36.8919   -5.4070 Cl  0  0  0  0  0  0  0  0  0  0  0  0
  -14.4233  -37.7764   -7.9369 N   0  0  0  0  0  0  0  0  0  0  0  0
  -18.4347  -38.5504   -8.5842 C   0  0  0  0  0  0  0  0  0  0  0  0
  -19.1806  -37.5520   -8.1076 O   0  0  0  0  0  0  0  0  0  0  0  0
  -19.2407  -39.6320   -9.0194 N   0  0  0  0  0  0  0  0  0  0  0  0
  -22.4411  -41.0569   -6.6375 C   0  0  0  0  0  0  0  0  0  0  0  0
  1  2  1  0
  2  3  1  0
  2  4  1  0
  4  5  2  0
  5  6  1  0
  6  7  2  0
  7  8  1  0
  8  9  1  0
  9 10  1  0
 10 11  1  0
 11 12  1  0
 12 13  1  1
 12 14  1  0
 14 15  1  6
 15 16  1  0
 16 17  2  0
 17 18  1  0
 18 19  1  0
 18 20  2  0
 20 21  1  0
 21 22  2  0
 21 23  1  0
 23 24  1  0
 24 25  1  0
 25 26  1  0
 26 27  1  0
 27 28  1  0
 28 29  1  0
 29 30  2  0
 30 31  1  0
 31 32  2  0
 32 33  1  0
 33 34  1  0
 33 35  2  0
 31 36  1  0
 36 37  2  0
 36 38  1  0
  8 39  2  0
 22 16  1  0
 35 29  1  0
 38 14  1  0
 39  4  1  0
M  END
$$$$
