
     RDKit          3D

 39 42  0  0  0  0  0  0  0  0999 V2000
  -16.0197  -41.4698  -11.3940 C   0  0  0  0  0  0  0  0  0  0  0  0
  -15.7009  -40.5137  -12.5449 C   0  0  0  0  0  0  0  0  0  0  0  0
  -14.3045  -40.7701  -13.0085 C   0  0  0  0  0  0  0  0  0  0  0  0
  -15.8827  -39.1335  -12.0060 C   0  0  0  0  0  0  0  0  0  0  0  0
  -16.4897  -38.1870  -12.7968 C   0  0  0  0  0  0  0  0  0  0  0  0
  -16.6903  -36.8888  -12.3657 C   0  0  0  0  0  0  0  0  0  0  0  0
  -16.2582  -36.5498  -11.0912 C   0  0  0  0  0  0  0  0  0  0  0  0
  -15.6520  -37.4962  -10.3023 C   0  0  0  0  0  0  0  0  0  0  0  0
  -15.1769  -37.1437   -8.9199 C   0  0  0  0  0  0  0  0  0  0  0  0
  -15.2363  -38.3880   -8.1602 N   0  0  0  0  0  0  0  0  0  0  0  0
  -16.1536  -38.3120   -7.0688 C   0  0  0  0  0  0  0  0  0  0  0  0
  -17.4931  -38.8796   -7.3726 C   0  0  1  0  0  0  0  0  0  0  0  0
  -18.4642  -38.5259   -6.4446 O   0  0  0  0  0  0  0  0  0  0  0  0
  -17.9642  -38.7533   -8.7913 C   0  0  2  0  0  0  0  0  0  0  0  0
  -19.2820  -38.0859   -8.9850 C   0  0  0  0  0  0  0  0  0  0  0  0
  -20.4999  -38.7420   -8.4676 C   0  0  0  0  0  0  0  0  0  0  0  0
  -21.0336  -38.0261   -7.3712 C   0  0  0  0  0  0  0  0  0  0  0  0
  -22.1628  -38.3823   -6.6840 C   0  0  0  0  0  0  0  0  0  0  0  0
  -22.6776  -37.5851   -5.5337 C   0  0  0  0  0  0  0  0  0  0  0  0
  -22.7874  -39.5151   -7.1205 C   0  0  0  0  0  0  0  0  0  0  0  0
  -22.3053  -40.2778   -8.2104 C   0  0  0  0  0  0  0  0  0  0  0  0
  -21.1592  -39.8860   -8.8824 C   0  0  0  0  0  0  0  0  0  0  0  0
  -23.1295  -41.3639   -8.4302 O   0  0  0  0  0  0  0  0  0  0  0  0
  -23.0709  -42.7291   -8.5238 C   0  0  0  0  0  0  0  0  0  0  0  0
  -23.4014  -43.3628   -7.1894 C   0  0  0  0  0  0  0  0  0  0  0  0
  -22.4057  -44.4482   -6.8686 C   0  0  0  0  0  0  0  0  0  0  0  0
  -21.3795  -43.9895   -5.8208 C   0  0  0  0  0  0  0  0  0  0  0  0
  -20.0895  -44.4024   -6.3149 N   0  0  0  0  0  0  0  0  0  0  0  0
  -19.0092  -43.6427   -6.8604 C   0  0  0  0  0  0  0  0  0  0  0  0
  -18.9225  -42.7296   -7.8770 C   0  0  0  0  0  0  0  0  0  0  0  0
  -17.6893  -42.1776   -8.1589 C   0  0  0  0  0  0  0  0  0  0  0  0
  -16.5770  -42.5855   -7.3825 C   0  0  0  0  0  0  0  0  0  0  0  0
  -16.6591  -43.5025   -6.3602 C   0  0  0  0  0  0  0  0  0  0  0  0
  -15.2421  -43.9706   -5.4299 Cl  0  0  0  0  0  0  0  0  0  0  0  0
  -17.8598  -43.9789   -6.1541 N   0  0  0  0  0  0  0  0  0  0  0  0
  -17.2488  -41.2032   -9.1594 C   0  0  0  0  0  0  0  0  0  0  0  0
  -16.1368  -41.4935   -9.8373 O   0  0  0  0  0  0  0  0  0  0  0  0
  -17.7900  -39.9586   -9.5681 N   0  0  0  0  0  0  0  0  0  0  0  0
  -15.4585  -38.7904  -10.7474 C   0  0  0  0  0  0  0  0  0  0  0  0
  1  2  1  0
  2  3  1  0
  2  4  1  0
  4  5  2  0
  5  6  1  0
  6  7  2  0
  7  8  1  0
  8  9  1  0
  9 10  1  0
 10 11  1  0
 11 12  1  0
 12 13  1  1
 12 14  1  0
 14 15  1  1
 15 16  1  0
 16 17  2  0
 17 18  1  0
 18 19  1  0
 18 20  2  0
 20 21  1  0
 21 22  2  0
 21 23  1  0
 23 24  1  0
 24 25  1  0
 25 26  1  0
 26 27  1  0
 27 28  1  0
 28 29  1  0
 29 30  2  0
 30 31  1  0
 31 32  2  0
 32 33  1  0
 33 34  1  0
 33 35  2  0
 31 36  1  0
 36 37  2  0
 36 38  1  0
  8 39  2  0
 22 16  1  0
 35 29  1  0
 38 14  1  0
 39  4  1  0
M  END
$$$$
