
     RDKit          3D

 39 42  0  0  0  0  0  0  0  0999 V2000
  -20.7732  -36.8219  -12.3298 C   0  0  0  0  0  0  0  0  0  0  0  0
  -19.4738  -37.6227  -12.4319 C   0  0  0  0  0  0  0  0  0  0  0  0
  -19.6699  -38.9426  -11.7611 C   0  0  0  0  0  0  0  0  0  0  0  0
  -18.4189  -36.7958  -11.7747 C   0  0  0  0  0  0  0  0  0  0  0  0
  -18.2478  -35.4936  -12.1805 C   0  0  0  0  0  0  0  0  0  0  0  0
  -17.2905  -34.6691  -11.6190 C   0  0  0  0  0  0  0  0  0  0  0  0
  -16.4866  -35.1910  -10.6152 C   0  0  0  0  0  0  0  0  0  0  0  0
  -16.6586  -36.4919  -10.2108 C   0  0  0  0  0  0  0  0  0  0  0  0
  -15.7943  -37.0721   -9.1258 C   0  0  0  0  0  0  0  0  0  0  0  0
  -15.5863  -38.4670   -9.4998 N   0  0  0  0  0  0  0  0  0  0  0  0
  -15.7252  -39.3516   -8.3877 C   0  0  0  0  0  0  0  0  0  0  0  0
  -17.1281  -39.5151   -7.9252 C   0  0  1  0  0  0  0  0  0  0  0  0
  -17.3432  -39.0360   -6.6393 O   0  0  0  0  0  0  0  0  0  0  0  0
  -18.2003  -39.1045   -8.8907 C   0  0  2  0  0  0  0  0  0  0  0  0
  -19.3978  -38.4470   -8.2963 C   0  0  0  0  0  0  0  0  0  0  0  0
  -20.2753  -39.2302   -7.4030 C   0  0  0  0  0  0  0  0  0  0  0  0
  -20.1725  -38.7769   -6.0676 C   0  0  0  0  0  0  0  0  0  0  0  0
  -20.8689  -39.3005   -5.0117 C   0  0  0  0  0  0  0  0  0  0  0  0
  -20.7177  -38.7787   -3.6229 C   0  0  0  0  0  0  0  0  0  0  0  0
  -21.7113  -40.3319   -5.3127 C   0  0  0  0  0  0  0  0  0  0  0  0
  -21.8600  -40.8337   -6.6273 C   0  0  0  0  0  0  0  0  0  0  0  0
  -21.1389  -40.2780   -7.6712 C   0  0  0  0  0  0  0  0  0  0  0  0
  -22.7721  -41.8706   -6.6384 O   0  0  0  0  0  0  0  0  0  0  0  0
  -22.8707  -43.1831   -7.0173 C   0  0  0  0  0  0  0  0  0  0  0  0
  -22.5820  -44.0932   -5.8427 C   0  0  0  0  0  0  0  0  0  0  0  0
  -21.6403  -45.1947   -6.2578 C   0  0  0  0  0  0  0  0  0  0  0  0
  -20.2095  -44.9404   -5.7583 C   0  0  0  0  0  0  0  0  0  0  0  0
  -19.3405  -45.2046   -6.8781 N   0  0  0  0  0  0  0  0  0  0  0  0
  -18.5891  -44.3179   -7.7093 C   0  0  0  0  0  0  0  0  0  0  0  0
  -18.9207  -43.2086   -8.4401 C   0  0  0  0  0  0  0  0  0  0  0  0
  -17.9268  -42.5765   -9.1596 C   0  0  0  0  0  0  0  0  0  0  0  0
  -16.6155  -43.1091   -9.1056 C   0  0  0  0  0  0  0  0  0  0  0  0
  -16.2775  -44.2234   -8.3728 C   0  0  0  0  0  0  0  0  0  0  0  0
  -14.6305  -44.8393   -8.3442 Cl  0  0  0  0  0  0  0  0  0  0  0  0
  -17.2726  -44.7647   -7.7187 N   0  0  0  0  0  0  0  0  0  0  0  0
  -17.9353  -41.4011  -10.0331 C   0  0  0  0  0  0  0  0  0  0  0  0
  -17.2998  -41.5114  -11.2012 O   0  0  0  0  0  0  0  0  0  0  0  0
  -18.5066  -40.1132   -9.8783 N   0  0  0  0  0  0  0  0  0  0  0  0
  -17.6203  -37.3041  -10.7819 C   0  0  0  0  0  0  0  0  0  0  0  0
  1  2  1  0
  2  3  1  0
  2  4  1  0
  4  5  2  0
  5  6  1  0
  6  7  2  0
  7  8  1  0
  8  9  1  0
  9 10  1  0
 10 11  1  0
 11 12  1  0
 12 13  1  1
 12 14  1  0
 14 15  1  1
 15 16  1  0
 16 17  2  0
 17 18  1  0
 18 19  1  0
 18 20  2  0
 20 21  1  0
 21 22  2  0
 21 23  1  0
 23 24  1  0
 24 25  1  0
 25 26  1  0
 26 27  1  0
 27 28  1  0
 28 29  1  0
 29 30  2  0
 30 31  1  0
 31 32  2  0
 32 33  1  0
 33 34  1  0
 33 35  2  0
 31 36  1  0
 36 37  2  0
 36 38  1  0
  8 39  2  0
 22 16  1  0
 35 29  1  0
 38 14  1  0
 39  4  1  0
M  END
$$$$
