
     RDKit          3D

 39 42  0  0  0  0  0  0  0  0999 V2000
  -24.4841  -42.4752   -4.7734 C   0  0  0  0  0  0  0  0  0  0  0  0
  -23.1156  -42.0208   -4.2625 C   0  0  0  0  0  0  0  0  0  0  0  0
  -23.2798  -41.4547   -2.8902 C   0  0  0  0  0  0  0  0  0  0  0  0
  -22.6154  -41.0128   -5.2434 C   0  0  0  0  0  0  0  0  0  0  0  0
  -23.5228  -40.3513   -6.0363 C   0  0  0  0  0  0  0  0  0  0  0  0
  -23.1331  -39.4066   -6.9675 C   0  0  0  0  0  0  0  0  0  0  0  0
  -21.7784  -39.1313   -7.0908 C   0  0  0  0  0  0  0  0  0  0  0  0
  -20.8731  -39.7928   -6.2982 C   0  0  0  0  0  0  0  0  0  0  0  0
  -19.4020  -39.5067   -6.4214 C   0  0  0  0  0  0  0  0  0  0  0  0
  -19.1995  -39.1071   -7.8100 N   0  0  0  0  0  0  0  0  0  0  0  0
  -18.1112  -38.1947   -7.9570 C   0  0  0  0  0  0  0  0  0  0  0  0
  -16.8177  -38.8531   -8.2764 C   0  0  1  0  0  0  0  0  0  0  0  0
  -15.7574  -37.9619   -8.3808 O   0  0  0  0  0  0  0  0  0  0  0  0
  -16.4781  -40.0773   -7.4785 C   0  0  2  0  0  0  0  0  0  0  0  0
  -15.0560  -40.2065   -7.0537 C   0  0  0  0  0  0  0  0  0  0  0  0
  -14.0146  -40.3908   -8.0845 C   0  0  0  0  0  0  0  0  0  0  0  0
  -13.1975  -39.2416   -8.1899 C   0  0  0  0  0  0  0  0  0  0  0  0
  -12.1424  -39.1126   -9.0526 C   0  0  0  0  0  0  0  0  0  0  0  0
  -11.3160  -37.8730   -9.1176 C   0  0  0  0  0  0  0  0  0  0  0  0
  -11.8957  -40.1931   -9.8499 C   0  0  0  0  0  0  0  0  0  0  0  0
  -12.6754  -41.3726   -9.7954 C   0  0  0  0  0  0  0  0  0  0  0  0
  -13.7354  -41.4670   -8.9088 C   0  0  0  0  0  0  0  0  0  0  0  0
  -12.2027  -42.2957  -10.7074 O   0  0  0  0  0  0  0  0  0  0  0  0
  -12.6376  -43.0502  -11.7645 C   0  0  0  0  0  0  0  0  0  0  0  0
  -12.3557  -42.3386  -13.0704 C   0  0  0  0  0  0  0  0  0  0  0  0
  -13.5694  -42.3901  -13.9629 C   0  0  0  0  0  0  0  0  0  0  0  0
  -14.3202  -41.0493  -13.9828 C   0  0  0  0  0  0  0  0  0  0  0  0
  -15.7174  -41.3694  -13.8278 N   0  0  0  0  0  0  0  0  0  0  0  0
  -16.6021  -41.1879  -12.7205 C   0  0  0  0  0  0  0  0  0  0  0  0
  -16.5424  -41.5508  -11.4016 C   0  0  0  0  0  0  0  0  0  0  0  0
  -17.6026  -41.2198  -10.5821 C   0  0  0  0  0  0  0  0  0  0  0  0
  -18.6979  -40.5230  -11.1485 C   0  0  0  0  0  0  0  0  0  0  0  0
  -18.7624  -40.1563  -12.4730 C   0  0  0  0  0  0  0  0  0  0  0  0
  -20.1500  -39.2914  -13.1203 Cl  0  0  0  0  0  0  0  0  0  0  0  0
  -17.7208  -40.5045  -13.1834 N   0  0  0  0  0  0  0  0  0  0  0  0
  -17.8633  -41.4563   -9.1606 C   0  0  0  0  0  0  0  0  0  0  0  0
  -19.0759  -41.9084   -8.8355 O   0  0  0  0  0  0  0  0  0  0  0  0
  -17.0506  -41.2919   -8.0110 N   0  0  0  0  0  0  0  0  0  0  0  0
  -21.2782  -40.7350   -5.3714 C   0  0  0  0  0  0  0  0  0  0  0  0
  1  2  1  0
  2  3  1  0
  2  4  1  0
  4  5  2  0
  5  6  1  0
  6  7  2  0
  7  8  1  0
  8  9  1  0
  9 10  1  0
 10 11  1  0
 11 12  1  0
 12 13  1  1
 12 14  1  0
 14 15  1  6
 15 16  1  0
 16 17  2  0
 17 18  1  0
 18 19  1  0
 18 20  2  0
 20 21  1  0
 21 22  2  0
 21 23  1  0
 23 24  1  0
 24 25  1  0
 25 26  1  0
 26 27  1  0
 27 28  1  0
 28 29  1  0
 29 30  2  0
 30 31  1  0
 31 32  2  0
 32 33  1  0
 33 34  1  0
 33 35  2  0
 31 36  1  0
 36 37  2  0
 36 38  1  0
  8 39  2  0
 22 16  1  0
 35 29  1  0
 38 14  1  0
 39  4  1  0
M  END
$$$$
