
     RDKit          3D

 39 42  0  0  0  0  0  0  0  0999 V2000
  -23.9822  -41.6052  -10.0603 C   0  0  0  0  0  0  0  0  0  0  0  0
  -22.8928  -40.5494  -10.2574 C   0  0  0  0  0  0  0  0  0  0  0  0
  -22.1008  -40.8989  -11.4744 C   0  0  0  0  0  0  0  0  0  0  0  0
  -22.0683  -40.5603   -9.0130 C   0  0  0  0  0  0  0  0  0  0  0  0
  -21.6987  -41.7690   -8.4724 C   0  0  0  0  0  0  0  0  0  0  0  0
  -20.9374  -41.8569   -7.3217 C   0  0  0  0  0  0  0  0  0  0  0  0
  -20.5436  -40.6763   -6.7074 C   0  0  0  0  0  0  0  0  0  0  0  0
  -20.9135  -39.4697   -7.2485 C   0  0  0  0  0  0  0  0  0  0  0  0
  -20.4960  -38.1821   -6.5936 C   0  0  0  0  0  0  0  0  0  0  0  0
  -19.1047  -37.9814   -6.9844 N   0  0  0  0  0  0  0  0  0  0  0  0
  -18.4606  -39.2053   -7.3390 C   0  0  0  0  0  0  0  0  0  0  0  0
  -17.0167  -39.0515   -7.6554 C   0  0  1  0  0  0  0  0  0  0  0  0
  -16.6032  -37.7265   -7.7100 O   0  0  0  0  0  0  0  0  0  0  0  0
  -16.0699  -39.9300   -6.8923 C   0  0  2  0  0  0  0  0  0  0  0  0
  -14.6352  -39.5303   -6.9278 C   0  0  0  0  0  0  0  0  0  0  0  0
  -13.9080  -39.5856   -8.2121 C   0  0  0  0  0  0  0  0  0  0  0  0
  -13.6066  -38.2856   -8.6796 C   0  0  0  0  0  0  0  0  0  0  0  0
  -12.9329  -38.0118   -9.8395 C   0  0  0  0  0  0  0  0  0  0  0  0
  -12.6442  -36.6167  -10.2804 C   0  0  0  0  0  0  0  0  0  0  0  0
  -12.5422  -39.0993  -10.5666 C   0  0  0  0  0  0  0  0  0  0  0  0
  -12.8129  -40.4260  -10.1560 C   0  0  0  0  0  0  0  0  0  0  0  0
  -13.4969  -40.6644   -8.9754 C   0  0  0  0  0  0  0  0  0  0  0  0
  -12.3050  -41.3202  -11.0778 O   0  0  0  0  0  0  0  0  0  0  0  0
  -12.7098  -42.3646  -11.8662 C   0  0  0  0  0  0  0  0  0  0  0  0
  -13.0526  -41.8728  -13.2561 C   0  0  0  0  0  0  0  0  0  0  0  0
  -14.3605  -42.4689  -13.7105 C   0  0  0  0  0  0  0  0  0  0  0  0
  -15.5116  -41.4548  -13.6206 C   0  0  0  0  0  0  0  0  0  0  0  0
  -16.6125  -42.1510  -13.0025 N   0  0  0  0  0  0  0  0  0  0  0  0
  -17.1776  -42.0351  -11.6952 C   0  0  0  0  0  0  0  0  0  0  0  0
  -16.6474  -42.0948  -10.4342 C   0  0  0  0  0  0  0  0  0  0  0  0
  -17.4989  -41.9504   -9.3576 C   0  0  0  0  0  0  0  0  0  0  0  0
  -18.8774  -41.7492   -9.6132 C   0  0  0  0  0  0  0  0  0  0  0  0
  -19.4148  -41.6885  -10.8782 C   0  0  0  0  0  0  0  0  0  0  0  0
  -21.1363  -41.4364  -11.1340 Cl  0  0  0  0  0  0  0  0  0  0  0  0
  -18.5450  -41.8332  -11.8445 N   0  0  0  0  0  0  0  0  0  0  0  0
  -17.2736  -41.9704   -7.9107 C   0  0  0  0  0  0  0  0  0  0  0  0
  -18.1173  -42.6994   -7.1777 O   0  0  0  0  0  0  0  0  0  0  0  0
  -16.2975  -41.3416   -7.0979 N   0  0  0  0  0  0  0  0  0  0  0  0
  -21.6750  -39.3980   -8.3999 C   0  0  0  0  0  0  0  0  0  0  0  0
  1  2  1  0
  2  3  1  0
  2  4  1  0
  4  5  2  0
  5  6  1  0
  6  7  2  0
  7  8  1  0
  8  9  1  0
  9 10  1  0
 10 11  1  0
 11 12  1  0
 12 13  1  1
 12 14  1  0
 14 15  1  6
 15 16  1  0
 16 17  2  0
 17 18  1  0
 18 19  1  0
 18 20  2  0
 20 21  1  0
 21 22  2  0
 21 23  1  0
 23 24  1  0
 24 25  1  0
 25 26  1  0
 26 27  1  0
 27 28  1  0
 28 29  1  0
 29 30  2  0
 30 31  1  0
 31 32  2  0
 32 33  1  0
 33 34  1  0
 33 35  2  0
 31 36  1  0
 36 37  2  0
 36 38  1  0
  8 39  2  0
 22 16  1  0
 35 29  1  0
 38 14  1  0
 39  4  1  0
M  END
$$$$
