
     RDKit          3D

 39 42  0  0  0  0  0  0  0  0999 V2000
  -22.8770  -42.9496   -5.8103 C   0  0  0  0  0  0  0  0  0  0  0  0
  -23.4907  -41.5972   -6.1770 C   0  0  0  0  0  0  0  0  0  0  0  0
  -24.2518  -41.7462   -7.4534 C   0  0  0  0  0  0  0  0  0  0  0  0
  -22.3526  -40.6386   -6.2957 C   0  0  0  0  0  0  0  0  0  0  0  0
  -22.4408  -39.4220   -5.6619 C   0  0  0  0  0  0  0  0  0  0  0  0
  -21.4275  -38.4838   -5.7286 C   0  0  0  0  0  0  0  0  0  0  0  0
  -20.2932  -38.7989   -6.4637 C   0  0  0  0  0  0  0  0  0  0  0  0
  -20.2064  -40.0146   -7.0964 C   0  0  0  0  0  0  0  0  0  0  0  0
  -18.9848  -40.3697   -7.8979 C   0  0  0  0  0  0  0  0  0  0  0  0
  -17.8720  -40.3101   -6.9560 N   0  0  0  0  0  0  0  0  0  0  0  0
  -17.1320  -39.0944   -7.0695 C   0  0  0  0  0  0  0  0  0  0  0  0
  -16.0748  -39.1329   -8.1134 C   0  0  1  0  0  0  0  0  0  0  0  0
  -14.9600  -38.3674   -7.7964 O   0  0  0  0  0  0  0  0  0  0  0  0
  -15.7217  -40.4868   -8.6547 C   0  0  2  0  0  0  0  0  0  0  0  0
  -14.2686  -40.8115   -8.7049 C   0  0  0  0  0  0  0  0  0  0  0  0
  -13.3937  -40.0412   -9.6118 C   0  0  0  0  0  0  0  0  0  0  0  0
  -12.5155  -39.2079   -8.8812 C   0  0  0  0  0  0  0  0  0  0  0  0
  -11.5809  -38.3795   -9.4421 C   0  0  0  0  0  0  0  0  0  0  0  0
  -10.6813  -37.5227   -8.6172 C   0  0  0  0  0  0  0  0  0  0  0  0
  -11.5259  -38.3889  -10.8062 C   0  0  0  0  0  0  0  0  0  0  0  0
  -12.3763  -39.1979  -11.5963 C   0  0  0  0  0  0  0  0  0  0  0  0
  -13.3099  -40.0244  -10.9932 C   0  0  0  0  0  0  0  0  0  0  0  0
  -12.1020  -39.0065  -12.9362 O   0  0  0  0  0  0  0  0  0  0  0  0
  -12.7315  -38.6553  -14.1009 C   0  0  0  0  0  0  0  0  0  0  0  0
  -12.5778  -37.1712  -14.3554 C   0  0  0  0  0  0  0  0  0  0  0  0
  -13.9021  -36.5726  -14.7559 C   0  0  0  0  0  0  0  0  0  0  0  0
  -14.5470  -35.7901  -13.6011 C   0  0  0  0  0  0  0  0  0  0  0  0
  -15.9300  -36.1958  -13.5644 N   0  0  0  0  0  0  0  0  0  0  0  0
  -16.6398  -37.0185  -12.6364 C   0  0  0  0  0  0  0  0  0  0  0  0
  -16.4284  -38.2795  -12.1466 C   0  0  0  0  0  0  0  0  0  0  0  0
  -17.3397  -38.7945  -11.2470 C   0  0  0  0  0  0  0  0  0  0  0  0
  -18.4471  -37.9922  -10.8782 C   0  0  0  0  0  0  0  0  0  0  0  0
  -18.6637  -36.7248  -11.3676 C   0  0  0  0  0  0  0  0  0  0  0  0
  -20.0585  -35.7748  -10.8726 Cl  0  0  0  0  0  0  0  0  0  0  0  0
  -17.7572  -36.3077  -12.2133 N   0  0  0  0  0  0  0  0  0  0  0  0
  -17.4214  -40.0803  -10.5508 C   0  0  0  0  0  0  0  0  0  0  0  0
  -18.6087  -40.6892  -10.5433 O   0  0  0  0  0  0  0  0  0  0  0  0
  -16.4499  -40.8392   -9.8513 N   0  0  0  0  0  0  0  0  0  0  0  0
  -21.2281  -40.9424   -7.0203 C   0  0  0  0  0  0  0  0  0  0  0  0
  1  2  1  0
  2  3  1  0
  2  4  1  0
  4  5  2  0
  5  6  1  0
  6  7  2  0
  7  8  1  0
  8  9  1  0
  9 10  1  0
 10 11  1  0
 11 12  1  0
 12 13  1  1
 12 14  1  0
 14 15  1  6
 15 16  1  0
 16 17  2  0
 17 18  1  0
 18 19  1  0
 18 20  2  0
 20 21  1  0
 21 22  2  0
 21 23  1  0
 23 24  1  0
 24 25  1  0
 25 26  1  0
 26 27  1  0
 27 28  1  0
 28 29  1  0
 29 30  2  0
 30 31  1  0
 31 32  2  0
 32 33  1  0
 33 34  1  0
 33 35  2  0
 31 36  1  0
 36 37  2  0
 36 38  1  0
  8 39  2  0
 22 16  1  0
 35 29  1  0
 38 14  1  0
 39  4  1  0
M  END
$$$$
