
     RDKit          3D

 39 42  0  0  0  0  0  0  0  0999 V2000
  -13.8646  -33.3370  -11.6527 C   0  0  0  0  0  0  0  0  0  0  0  0
  -13.2443  -34.5275  -10.9191 C   0  0  0  0  0  0  0  0  0  0  0  0
  -11.8690  -34.7570  -11.4543 C   0  0  0  0  0  0  0  0  0  0  0  0
  -14.1539  -35.6870  -11.1570 C   0  0  0  0  0  0  0  0  0  0  0  0
  -14.3915  -36.0896  -12.4497 C   0  0  0  0  0  0  0  0  0  0  0  0
  -15.2231  -37.1535  -12.7465 C   0  0  0  0  0  0  0  0  0  0  0  0
  -15.8280  -37.8234  -11.6923 C   0  0  0  0  0  0  0  0  0  0  0  0
  -15.5899  -37.4201  -10.4015 C   0  0  0  0  0  0  0  0  0  0  0  0
  -16.2393  -38.1347   -9.2489 C   0  0  0  0  0  0  0  0  0  0  0  0
  -15.3411  -39.2365   -8.9198 N   0  0  0  0  0  0  0  0  0  0  0  0
  -15.7087  -39.8894   -7.7045 C   0  0  0  0  0  0  0  0  0  0  0  0
  -17.1734  -39.9045   -7.4530 C   0  0  1  0  0  0  0  0  0  0  0  0
  -17.5206  -39.4329   -6.1935 O   0  0  0  0  0  0  0  0  0  0  0  0
  -18.0428  -39.3545   -8.5450 C   0  0  2  0  0  0  0  0  0  0  0  0
  -19.3134  -38.7116   -8.1070 C   0  0  0  0  0  0  0  0  0  0  0  0
  -20.3560  -39.5440   -7.4735 C   0  0  0  0  0  0  0  0  0  0  0  0
  -20.4875  -39.2326   -6.1006 C   0  0  0  0  0  0  0  0  0  0  0  0
  -21.3758  -39.8310   -5.2479 C   0  0  0  0  0  0  0  0  0  0  0  0
  -21.4680  -39.4587   -3.8068 C   0  0  0  0  0  0  0  0  0  0  0  0
  -22.1723  -40.7910   -5.8028 C   0  0  0  0  0  0  0  0  0  0  0  0
  -22.0907  -41.1510   -7.1688 C   0  0  0  0  0  0  0  0  0  0  0  0
  -21.1796  -40.5229   -8.0018 C   0  0  0  0  0  0  0  0  0  0  0  0
  -23.0086  -42.1429   -7.4531 O   0  0  0  0  0  0  0  0  0  0  0  0
  -23.0659  -43.4052   -7.9816 C   0  0  0  0  0  0  0  0  0  0  0  0
  -23.0160  -44.4404   -6.8783 C   0  0  0  0  0  0  0  0  0  0  0  0
  -22.0394  -45.5323   -7.2339 C   0  0  0  0  0  0  0  0  0  0  0  0
  -20.7179  -45.3890   -6.4627 C   0  0  0  0  0  0  0  0  0  0  0  0
  -19.6660  -45.5744   -7.4312 N   0  0  0  0  0  0  0  0  0  0  0  0
  -18.7563  -44.6401   -8.0154 C   0  0  0  0  0  0  0  0  0  0  0  0
  -18.9246  -43.4499   -8.6710 C   0  0  0  0  0  0  0  0  0  0  0  0
  -17.8027  -42.7900   -9.1299 C   0  0  0  0  0  0  0  0  0  0  0  0
  -16.5353  -43.3790   -8.8999 C   0  0  0  0  0  0  0  0  0  0  0  0
  -16.3611  -44.5745   -8.2418 C   0  0  0  0  0  0  0  0  0  0  0  0
  -14.7610  -45.2576   -7.9856 Cl  0  0  0  0  0  0  0  0  0  0  0  0
  -17.4704  -45.1376   -7.8374 N   0  0  0  0  0  0  0  0  0  0  0  0
  -17.6259  -41.5330   -9.8603 C   0  0  0  0  0  0  0  0  0  0  0  0
  -16.7912  -41.5510  -10.9012 O   0  0  0  0  0  0  0  0  0  0  0  0
  -18.1869  -40.2449   -9.6733 N   0  0  0  0  0  0  0  0  0  0  0  0
  -14.7557  -36.3544  -10.1206 C   0  0  0  0  0  0  0  0  0  0  0  0
  1  2  1  0
  2  3  1  0
  2  4  1  0
  4  5  2  0
  5  6  1  0
  6  7  2  0
  7  8  1  0
  8  9  1  0
  9 10  1  0
 10 11  1  0
 11 12  1  0
 12 13  1  1
 12 14  1  0
 14 15  1  1
 15 16  1  0
 16 17  2  0
 17 18  1  0
 18 19  1  0
 18 20  2  0
 20 21  1  0
 21 22  2  0
 21 23  1  0
 23 24  1  0
 24 25  1  0
 25 26  1  0
 26 27  1  0
 27 28  1  0
 28 29  1  0
 29 30  2  0
 30 31  1  0
 31 32  2  0
 32 33  1  0
 33 34  1  0
 33 35  2  0
 31 36  1  0
 36 37  2  0
 36 38  1  0
  8 39  2  0
 22 16  1  0
 35 29  1  0
 38 14  1  0
 39  4  1  0
M  END
$$$$
