
     RDKit          3D

 39 42  0  0  0  0  0  0  0  0999 V2000
  -14.4493  -34.6599  -11.4075 C   0  0  0  0  0  0  0  0  0  0  0  0
  -15.5482  -35.4457  -12.1252 C   0  0  0  0  0  0  0  0  0  0  0  0
  -16.8700  -35.0579  -11.5481 C   0  0  0  0  0  0  0  0  0  0  0  0
  -15.2333  -36.8903  -11.9194 C   0  0  0  0  0  0  0  0  0  0  0  0
  -15.4955  -37.7780  -12.9357 C   0  0  0  0  0  0  0  0  0  0  0  0
  -15.2318  -39.1299  -12.8164 C   0  0  0  0  0  0  0  0  0  0  0  0
  -14.6852  -39.5859  -11.6249 C   0  0  0  0  0  0  0  0  0  0  0  0
  -14.4239  -38.6981  -10.6105 C   0  0  0  0  0  0  0  0  0  0  0  0
  -13.8335  -39.1773   -9.3133 C   0  0  0  0  0  0  0  0  0  0  0  0
  -14.6500  -38.5699   -8.2677 N   0  0  0  0  0  0  0  0  0  0  0  0
  -15.3264  -39.5455   -7.4745 C   0  0  0  0  0  0  0  0  0  0  0  0
  -16.8051  -39.5145   -7.6207 C   0  0  1  0  0  0  0  0  0  0  0  0
  -17.4449  -38.8228   -6.6001 O   0  0  0  0  0  0  0  0  0  0  0  0
  -17.3331  -39.1711   -8.9823 C   0  0  2  0  0  0  0  0  0  0  0  0
  -18.4396  -38.1743   -9.0215 C   0  0  0  0  0  0  0  0  0  0  0  0
  -19.7441  -38.5286   -8.4265 C   0  0  0  0  0  0  0  0  0  0  0  0
  -19.9854  -37.7785   -7.2524 C   0  0  0  0  0  0  0  0  0  0  0  0
  -21.1128  -37.8788   -6.4823 C   0  0  0  0  0  0  0  0  0  0  0  0
  -21.3104  -37.0590   -5.2523 C   0  0  0  0  0  0  0  0  0  0  0  0
  -22.0449  -38.7783   -6.9135 C   0  0  0  0  0  0  0  0  0  0  0  0
  -21.8650  -39.5607   -8.0787 C   0  0  0  0  0  0  0  0  0  0  0  0
  -20.7109  -39.4315   -8.8336 C   0  0  0  0  0  0  0  0  0  0  0  0
  -22.9602  -40.3790   -8.2738 O   0  0  0  0  0  0  0  0  0  0  0  0
  -23.2703  -41.7029   -8.4381 C   0  0  0  0  0  0  0  0  0  0  0  0
  -23.6532  -42.3224   -7.1111 C   0  0  0  0  0  0  0  0  0  0  0  0
  -22.9569  -43.6479   -6.9360 C   0  0  0  0  0  0  0  0  0  0  0  0
  -21.7694  -43.5447   -5.9661 C   0  0  0  0  0  0  0  0  0  0  0  0
  -20.6750  -44.2405   -6.5961 N   0  0  0  0  0  0  0  0  0  0  0  0
  -19.4777  -43.7488   -7.2014 C   0  0  0  0  0  0  0  0  0  0  0  0
  -19.2315  -42.8197   -8.1765 C   0  0  0  0  0  0  0  0  0  0  0  0
  -17.9216  -42.5862   -8.5437 C   0  0  0  0  0  0  0  0  0  0  0  0
  -16.9001  -43.3210   -7.8935 C   0  0  0  0  0  0  0  0  0  0  0  0
  -17.1425  -44.2555   -6.9134 C   0  0  0  0  0  0  0  0  0  0  0  0
  -15.8320  -45.1380   -6.1411 Cl  0  0  0  0  0  0  0  0  0  0  0  0
  -18.4069  -44.4192   -6.6209 N   0  0  0  0  0  0  0  0  0  0  0  0
  -17.3179  -41.6903   -9.5324 C   0  0  0  0  0  0  0  0  0  0  0  0
  -16.3764  -42.2092  -10.3229 O   0  0  0  0  0  0  0  0  0  0  0  0
  -17.5419  -40.3226   -9.8290 N   0  0  0  0  0  0  0  0  0  0  0  0
  -14.6930  -37.3490  -10.7449 C   0  0  0  0  0  0  0  0  0  0  0  0
  1  2  1  0
  2  3  1  0
  2  4  1  0
  4  5  2  0
  5  6  1  0
  6  7  2  0
  7  8  1  0
  8  9  1  0
  9 10  1  0
 10 11  1  0
 11 12  1  0
 12 13  1  1
 12 14  1  0
 14 15  1  1
 15 16  1  0
 16 17  2  0
 17 18  1  0
 18 19  1  0
 18 20  2  0
 20 21  1  0
 21 22  2  0
 21 23  1  0
 23 24  1  0
 24 25  1  0
 25 26  1  0
 26 27  1  0
 27 28  1  0
 28 29  1  0
 29 30  2  0
 30 31  1  0
 31 32  2  0
 32 33  1  0
 33 34  1  0
 33 35  2  0
 31 36  1  0
 36 37  2  0
 36 38  1  0
  8 39  2  0
 22 16  1  0
 35 29  1  0
 38 14  1  0
 39  4  1  0
M  END
$$$$
