
     RDKit          3D

 39 42  0  0  0  0  0  0  0  0999 V2000
  -23.4593  -40.5457   -9.9617 C   0  0  0  0  0  0  0  0  0  0  0  0
  -23.3473  -40.6426   -8.4392 C   0  0  0  0  0  0  0  0  0  0  0  0
  -24.6522  -40.2382   -7.8356 C   0  0  0  0  0  0  0  0  0  0  0  0
  -22.2268  -39.7392   -8.0428 C   0  0  0  0  0  0  0  0  0  0  0  0
  -22.1771  -38.4718   -8.5728 C   0  0  0  0  0  0  0  0  0  0  0  0
  -21.1691  -37.5811   -8.2531 C   0  0  0  0  0  0  0  0  0  0  0  0
  -20.1855  -37.9984   -7.3674 C   0  0  0  0  0  0  0  0  0  0  0  0
  -20.2364  -39.2648   -6.8388 C   0  0  0  0  0  0  0  0  0  0  0  0
  -19.1770  -39.7319   -5.8794 C   0  0  0  0  0  0  0  0  0  0  0  0
  -17.9712  -38.9960   -6.2444 N   0  0  0  0  0  0  0  0  0  0  0  0
  -17.9762  -38.5954   -7.6149 C   0  0  0  0  0  0  0  0  0  0  0  0
  -16.6841  -38.8292   -8.3110 C   0  0  1  0  0  0  0  0  0  0  0  0
  -16.0426  -37.6568   -8.6894 O   0  0  0  0  0  0  0  0  0  0  0  0
  -15.7580  -39.8267   -7.6800 C   0  0  2  0  0  0  0  0  0  0  0  0
  -14.3377  -39.4002   -7.5371 C   0  0  0  0  0  0  0  0  0  0  0  0
  -13.5311  -39.1774   -8.7541 C   0  0  0  0  0  0  0  0  0  0  0  0
  -13.2442  -37.8037   -8.9268 C   0  0  0  0  0  0  0  0  0  0  0  0
  -12.5093  -37.2853   -9.9590 C   0  0  0  0  0  0  0  0  0  0  0  0
  -12.2398  -35.8243  -10.0874 C   0  0  0  0  0  0  0  0  0  0  0  0
  -12.0389  -38.1933  -10.8636 C   0  0  0  0  0  0  0  0  0  0  0  0
  -12.2908  -39.5810  -10.7499 C   0  0  0  0  0  0  0  0  0  0  0  0
  -13.0383  -40.0691   -9.6909 C   0  0  0  0  0  0  0  0  0  0  0  0
  -11.6978  -40.2577  -11.7976 O   0  0  0  0  0  0  0  0  0  0  0  0
  -12.0185  -41.1264  -12.8068 C   0  0  0  0  0  0  0  0  0  0  0  0
  -12.2906  -40.3675  -14.0879 C   0  0  0  0  0  0  0  0  0  0  0  0
  -13.5476  -40.8835  -14.7407 C   0  0  0  0  0  0  0  0  0  0  0  0
  -14.7347  -39.9318  -14.5246 C   0  0  0  0  0  0  0  0  0  0  0  0
  -15.8483  -40.7610  -14.1360 N   0  0  0  0  0  0  0  0  0  0  0  0
  -16.4967  -40.9261  -12.8734 C   0  0  0  0  0  0  0  0  0  0  0  0
  -16.0439  -41.2321  -11.6181 C   0  0  0  0  0  0  0  0  0  0  0  0
  -16.9646  -41.3276  -10.5943 C   0  0  0  0  0  0  0  0  0  0  0  0
  -18.3306  -41.1053  -10.8959 C   0  0  0  0  0  0  0  0  0  0  0  0
  -18.7903  -40.7976  -12.1556 C   0  0  0  0  0  0  0  0  0  0  0  0
  -20.5001  -40.5321  -12.4700 Cl  0  0  0  0  0  0  0  0  0  0  0  0
  -17.8582  -40.7246  -13.0703 N   0  0  0  0  0  0  0  0  0  0  0  0
  -16.8288  -41.6387   -9.1698 C   0  0  0  0  0  0  0  0  0  0  0  0
  -17.6918  -42.5185   -8.6582 O   0  0  0  0  0  0  0  0  0  0  0  0
  -15.9260  -41.1705   -8.1825 N   0  0  0  0  0  0  0  0  0  0  0  0
  -21.2508  -40.1441   -7.1681 C   0  0  0  0  0  0  0  0  0  0  0  0
  1  2  1  0
  2  3  1  0
  2  4  1  0
  4  5  2  0
  5  6  1  0
  6  7  2  0
  7  8  1  0
  8  9  1  0
  9 10  1  0
 10 11  1  0
 11 12  1  0
 12 13  1  1
 12 14  1  0
 14 15  1  6
 15 16  1  0
 16 17  2  0
 17 18  1  0
 18 19  1  0
 18 20  2  0
 20 21  1  0
 21 22  2  0
 21 23  1  0
 23 24  1  0
 24 25  1  0
 25 26  1  0
 26 27  1  0
 27 28  1  0
 28 29  1  0
 29 30  2  0
 30 31  1  0
 31 32  2  0
 32 33  1  0
 33 34  1  0
 33 35  2  0
 31 36  1  0
 36 37  2  0
 36 38  1  0
  8 39  2  0
 22 16  1  0
 35 29  1  0
 38 14  1  0
 39  4  1  0
M  END
$$$$
