
     RDKit          3D

 39 42  0  0  0  0  0  0  0  0999 V2000
  -13.0663  -34.1613  -11.2316 C   0  0  0  0  0  0  0  0  0  0  0  0
  -13.9541  -34.2800  -12.4718 C   0  0  0  0  0  0  0  0  0  0  0  0
  -15.2495  -33.5873  -12.2022 C   0  0  0  0  0  0  0  0  0  0  0  0
  -14.1261  -35.7408  -12.7261 C   0  0  0  0  0  0  0  0  0  0  0  0
  -14.2816  -36.1752  -14.0210 C   0  0  0  0  0  0  0  0  0  0  0  0
  -14.4475  -37.5120  -14.3324 C   0  0  0  0  0  0  0  0  0  0  0  0
  -14.4544  -38.4291  -13.2907 C   0  0  0  0  0  0  0  0  0  0  0  0
  -14.2991  -37.9939  -11.9977 C   0  0  0  0  0  0  0  0  0  0  0  0
  -14.3062  -38.9752  -10.8584 C   0  0  0  0  0  0  0  0  0  0  0  0
  -14.5098  -38.1730   -9.6568 N   0  0  0  0  0  0  0  0  0  0  0  0
  -15.7695  -37.5010   -9.6621 C   0  0  0  0  0  0  0  0  0  0  0  0
  -16.9191  -38.3826   -9.3305 C   0  0  1  0  0  0  0  0  0  0  0  0
  -17.9013  -37.7479   -8.5809 O   0  0  0  0  0  0  0  0  0  0  0  0
  -17.4783  -39.2006  -10.4569 C   0  0  2  0  0  0  0  0  0  0  0  0
  -18.8713  -38.8742  -10.8723 C   0  0  0  0  0  0  0  0  0  0  0  0
  -19.9778  -39.1234   -9.9262 C   0  0  0  0  0  0  0  0  0  0  0  0
  -20.5277  -37.9075   -9.4588 C   0  0  0  0  0  0  0  0  0  0  0  0
  -21.5705  -37.8124   -8.5770 C   0  0  0  0  0  0  0  0  0  0  0  0
  -22.1078  -36.4984   -8.1203 C   0  0  0  0  0  0  0  0  0  0  0  0
  -22.0870  -38.9992   -8.1427 C   0  0  0  0  0  0  0  0  0  0  0  0
  -21.5826  -40.2503   -8.5701 C   0  0  0  0  0  0  0  0  0  0  0  0
  -20.5262  -40.3071   -9.4642 C   0  0  0  0  0  0  0  0  0  0  0  0
  -22.2905  -41.2753   -7.9740 O   0  0  0  0  0  0  0  0  0  0  0  0
  -22.0843  -42.3909   -7.2065 C   0  0  0  0  0  0  0  0  0  0  0  0
  -22.2681  -42.0624   -5.7404 C   0  0  0  0  0  0  0  0  0  0  0  0
  -21.1409  -42.6507   -4.9306 C   0  0  0  0  0  0  0  0  0  0  0  0
  -20.1168  -41.5819   -4.5176 C   0  0  0  0  0  0  0  0  0  0  0  0
  -18.8176  -42.1441   -4.7908 N   0  0  0  0  0  0  0  0  0  0  0  0
  -17.8608  -41.8394   -5.8075 C   0  0  0  0  0  0  0  0  0  0  0  0
  -17.9329  -41.7644   -7.1727 C   0  0  0  0  0  0  0  0  0  0  0  0
  -16.7867  -41.4473   -7.8731 C   0  0  0  0  0  0  0  0  0  0  0  0
  -15.5949  -41.2172   -7.1432 C   0  0  0  0  0  0  0  0  0  0  0  0
  -15.5176  -41.2914   -5.7716 C   0  0  0  0  0  0  0  0  0  0  0  0
  -14.0081  -40.9953   -4.9191 Cl  0  0  0  0  0  0  0  0  0  0  0  0
  -16.6441  -41.5957   -5.1805 N   0  0  0  0  0  0  0  0  0  0  0  0
  -16.5137  -41.2958   -9.3040 C   0  0  0  0  0  0  0  0  0  0  0  0
  -15.4149  -41.8877   -9.7757 O   0  0  0  0  0  0  0  0  0  0  0  0
  -17.2127  -40.6149  -10.3320 N   0  0  0  0  0  0  0  0  0  0  0  0
  -14.1342  -36.6537  -11.7022 C   0  0  0  0  0  0  0  0  0  0  0  0
  1  2  1  0
  2  3  1  0
  2  4  1  0
  4  5  2  0
  5  6  1  0
  6  7  2  0
  7  8  1  0
  8  9  1  0
  9 10  1  0
 10 11  1  0
 11 12  1  0
 12 13  1  6
 12 14  1  0
 14 15  1  1
 15 16  1  0
 16 17  2  0
 17 18  1  0
 18 19  1  0
 18 20  2  0
 20 21  1  0
 21 22  2  0
 21 23  1  0
 23 24  1  0
 24 25  1  0
 25 26  1  0
 26 27  1  0
 27 28  1  0
 28 29  1  0
 29 30  2  0
 30 31  1  0
 31 32  2  0
 32 33  1  0
 33 34  1  0
 33 35  2  0
 31 36  1  0
 36 37  2  0
 36 38  1  0
  8 39  2  0
 22 16  1  0
 35 29  1  0
 38 14  1  0
 39  4  1  0
M  END
$$$$
