
     RDKit          3D

 39 42  0  0  0  0  0  0  0  0999 V2000
  -23.6525  -40.4591   -8.0247 C   0  0  0  0  0  0  0  0  0  0  0  0
  -22.9075  -41.4980   -7.1844 C   0  0  0  0  0  0  0  0  0  0  0  0
  -23.9027  -42.2640   -6.3761 C   0  0  0  0  0  0  0  0  0  0  0  0
  -21.9424  -40.7376   -6.3366 C   0  0  0  0  0  0  0  0  0  0  0  0
  -21.8110  -41.0791   -5.0115 C   0  0  0  0  0  0  0  0  0  0  0  0
  -20.9390  -40.4189   -4.1659 C   0  0  0  0  0  0  0  0  0  0  0  0
  -20.1809  -39.3812   -4.6901 C   0  0  0  0  0  0  0  0  0  0  0  0
  -20.3132  -39.0411   -6.0138 C   0  0  0  0  0  0  0  0  0  0  0  0
  -19.5001  -37.9181   -6.5958 C   0  0  0  0  0  0  0  0  0  0  0  0
  -18.5592  -38.5545   -7.5116 N   0  0  0  0  0  0  0  0  0  0  0  0
  -17.2358  -38.6052   -6.9782 C   0  0  0  0  0  0  0  0  0  0  0  0
  -16.3444  -39.5650   -7.6802 C   0  0  1  0  0  0  0  0  0  0  0  0
  -15.0241  -39.1393   -7.7514 O   0  0  0  0  0  0  0  0  0  0  0  0
  -16.4750  -41.0066   -7.2860 C   0  0  2  0  0  0  0  0  0  0  0  0
  -15.2053  -41.7094   -6.9492 C   0  0  0  0  0  0  0  0  0  0  0  0
  -14.2011  -41.9221   -8.0111 C   0  0  0  0  0  0  0  0  0  0  0  0
  -13.0548  -41.1240   -7.7912 C   0  0  0  0  0  0  0  0  0  0  0  0
  -11.9508  -41.1070   -8.6004 C   0  0  0  0  0  0  0  0  0  0  0  0
  -10.7699  -40.2420   -8.3154 C   0  0  0  0  0  0  0  0  0  0  0  0
  -12.0010  -41.9337   -9.6858 C   0  0  0  0  0  0  0  0  0  0  0  0
  -13.1177  -42.7568   -9.9641 C   0  0  0  0  0  0  0  0  0  0  0  0
  -14.2172  -42.7478   -9.1217 C   0  0  0  0  0  0  0  0  0  0  0  0
  -12.8955  -43.4829  -11.1176 O   0  0  0  0  0  0  0  0  0  0  0  0
  -13.4659  -43.7189  -12.3403 C   0  0  0  0  0  0  0  0  0  0  0  0
  -12.8726  -42.7975  -13.3845 C   0  0  0  0  0  0  0  0  0  0  0  0
  -13.9672  -42.1922  -14.2259 C   0  0  0  0  0  0  0  0  0  0  0  0
  -14.2475  -40.7331  -13.8335 C   0  0  0  0  0  0  0  0  0  0  0  0
  -15.6814  -40.6086  -13.7493 N   0  0  0  0  0  0  0  0  0  0  0  0
  -16.5442  -40.4715  -12.6185 C   0  0  0  0  0  0  0  0  0  0  0  0
  -16.7047  -41.1941  -11.4666 C   0  0  0  0  0  0  0  0  0  0  0  0
  -17.6635  -40.7828  -10.5631 C   0  0  0  0  0  0  0  0  0  0  0  0
  -18.4328  -39.6351  -10.8751 C   0  0  0  0  0  0  0  0  0  0  0  0
  -18.2752  -38.9059  -12.0310 C   0  0  0  0  0  0  0  0  0  0  0  0
  -19.2608  -37.4881  -12.3644 Cl  0  0  0  0  0  0  0  0  0  0  0  0
  -17.3477  -39.3577  -12.8351 N   0  0  0  0  0  0  0  0  0  0  0  0
  -18.0943  -41.3160   -9.2689 C   0  0  0  0  0  0  0  0  0  0  0  0
  -19.4089  -41.4193   -9.0650 O   0  0  0  0  0  0  0  0  0  0  0  0
  -17.3622  -41.7617   -8.1400 N   0  0  0  0  0  0  0  0  0  0  0  0
  -21.1895  -39.7108   -6.8470 C   0  0  0  0  0  0  0  0  0  0  0  0
  1  2  1  0
  2  3  1  0
  2  4  1  0
  4  5  2  0
  5  6  1  0
  6  7  2  0
  7  8  1  0
  8  9  1  0
  9 10  1  0
 10 11  1  0
 11 12  1  0
 12 13  1  1
 12 14  1  0
 14 15  1  6
 15 16  1  0
 16 17  2  0
 17 18  1  0
 18 19  1  0
 18 20  2  0
 20 21  1  0
 21 22  2  0
 21 23  1  0
 23 24  1  0
 24 25  1  0
 25 26  1  0
 26 27  1  0
 27 28  1  0
 28 29  1  0
 29 30  2  0
 30 31  1  0
 31 32  2  0
 32 33  1  0
 33 34  1  0
 33 35  2  0
 31 36  1  0
 36 37  2  0
 36 38  1  0
  8 39  2  0
 22 16  1  0
 35 29  1  0
 38 14  1  0
 39  4  1  0
M  END
$$$$
