
     RDKit          3D

 39 42  0  0  0  0  0  0  0  0999 V2000
  -23.8451  -38.8202   -5.8944 C   0  0  0  0  0  0  0  0  0  0  0  0
  -23.6243  -40.3339   -5.8813 C   0  0  0  0  0  0  0  0  0  0  0  0
  -23.6191  -40.8055   -4.4641 C   0  0  0  0  0  0  0  0  0  0  0  0
  -22.3223  -40.5737   -6.5710 C   0  0  0  0  0  0  0  0  0  0  0  0
  -22.2253  -41.6165   -7.4614 C   0  0  0  0  0  0  0  0  0  0  0  0
  -21.0520  -41.8998   -8.1357 C   0  0  0  0  0  0  0  0  0  0  0  0
  -19.9482  -41.0944   -7.8924 C   0  0  0  0  0  0  0  0  0  0  0  0
  -20.0466  -40.0530   -7.0028 C   0  0  0  0  0  0  0  0  0  0  0  0
  -18.8590  -39.1728   -6.7274 C   0  0  0  0  0  0  0  0  0  0  0  0
  -17.6921  -40.0331   -6.8915 N   0  0  0  0  0  0  0  0  0  0  0  0
  -17.3343  -40.2034   -8.2632 C   0  0  0  0  0  0  0  0  0  0  0  0
  -16.3097  -39.2374   -8.7384 C   0  0  1  0  0  0  0  0  0  0  0  0
  -16.8405  -38.0065   -9.1024 O   0  0  0  0  0  0  0  0  0  0  0  0
  -15.0692  -39.1171   -7.9035 C   0  0  2  0  0  0  0  0  0  0  0  0
  -14.2706  -37.8741   -8.0954 C   0  0  0  0  0  0  0  0  0  0  0  0
  -13.6133  -37.6391   -9.3970 C   0  0  0  0  0  0  0  0  0  0  0  0
  -14.2290  -36.5711  -10.0895 C   0  0  0  0  0  0  0  0  0  0  0  0
  -13.8391  -36.1126  -11.3191 C   0  0  0  0  0  0  0  0  0  0  0  0
  -14.5294  -34.9797  -12.0003 C   0  0  0  0  0  0  0  0  0  0  0  0
  -12.7768  -36.7600  -11.8814 C   0  0  0  0  0  0  0  0  0  0  0  0
  -12.1168  -37.8362  -11.2425 C   0  0  0  0  0  0  0  0  0  0  0  0
  -12.5393  -38.2725   -9.9976 C   0  0  0  0  0  0  0  0  0  0  0  0
  -11.0844  -38.2970  -12.0356 O   0  0  0  0  0  0  0  0  0  0  0  0
  -10.6366  -39.4547  -12.6147 C   0  0  0  0  0  0  0  0  0  0  0  0
  -11.1314  -39.5550  -14.0417 C   0  0  0  0  0  0  0  0  0  0  0  0
  -11.6737  -40.9362  -14.3080 C   0  0  0  0  0  0  0  0  0  0  0  0
  -13.2103  -40.9546  -14.3124 C   0  0  0  0  0  0  0  0  0  0  0  0
  -13.6002  -42.0940  -13.5197 N   0  0  0  0  0  0  0  0  0  0  0  0
  -14.1793  -42.1730  -12.2157 C   0  0  0  0  0  0  0  0  0  0  0  0
  -13.8263  -41.6551  -10.9985 C   0  0  0  0  0  0  0  0  0  0  0  0
  -14.6221  -41.9426   -9.9081 C   0  0  0  0  0  0  0  0  0  0  0  0
  -15.7622  -42.7597  -10.1048 C   0  0  0  0  0  0  0  0  0  0  0  0
  -16.1210  -43.2823  -11.3259 C   0  0  0  0  0  0  0  0  0  0  0  0
  -17.5493  -44.2917  -11.5093 Cl  0  0  0  0  0  0  0  0  0  0  0  0
  -15.3184  -42.9647  -12.3087 N   0  0  0  0  0  0  0  0  0  0  0  0
  -14.5334  -41.5692   -8.4948 C   0  0  0  0  0  0  0  0  0  0  0  0
  -14.7181  -42.5416   -7.5999 O   0  0  0  0  0  0  0  0  0  0  0  0
  -14.2816  -40.3272   -7.8600 N   0  0  0  0  0  0  0  0  0  0  0  0
  -21.2268  -39.7823   -6.3362 C   0  0  0  0  0  0  0  0  0  0  0  0
  1  2  1  0
  2  3  1  0
  2  4  1  0
  4  5  2  0
  5  6  1  0
  6  7  2  0
  7  8  1  0
  8  9  1  0
  9 10  1  0
 10 11  1  0
 11 12  1  0
 12 13  1  1
 12 14  1  0
 14 15  1  6
 15 16  1  0
 16 17  2  0
 17 18  1  0
 18 19  1  0
 18 20  2  0
 20 21  1  0
 21 22  2  0
 21 23  1  0
 23 24  1  0
 24 25  1  0
 25 26  1  0
 26 27  1  0
 27 28  1  0
 28 29  1  0
 29 30  2  0
 30 31  1  0
 31 32  2  0
 32 33  1  0
 33 34  1  0
 33 35  2  0
 31 36  1  0
 36 37  2  0
 36 38  1  0
  8 39  2  0
 22 16  1  0
 35 29  1  0
 38 14  1  0
 39  4  1  0
M  END
$$$$
