
     RDKit          3D

 39 42  0  0  0  0  0  0  0  0999 V2000
  -18.0247  -34.9445   -9.0374 C   0  0  0  0  0  0  0  0  0  0  0  0
  -17.4561  -35.3626  -10.3946 C   0  0  0  0  0  0  0  0  0  0  0  0
  -16.8977  -34.1550  -11.0732 C   0  0  0  0  0  0  0  0  0  0  0  0
  -18.5870  -35.9755  -11.1522 C   0  0  0  0  0  0  0  0  0  0  0  0
  -19.6499  -35.1827  -11.5146 C   0  0  0  0  0  0  0  0  0  0  0  0
  -20.7325  -35.6810  -12.2153 C   0  0  0  0  0  0  0  0  0  0  0  0
  -20.7275  -37.0268  -12.5545 C   0  0  0  0  0  0  0  0  0  0  0  0
  -19.6652  -37.8176  -12.1919 C   0  0  0  0  0  0  0  0  0  0  0  0
  -19.6461  -39.2777  -12.5505 C   0  0  0  0  0  0  0  0  0  0  0  0
  -18.3776  -39.7862  -12.0394 N   0  0  0  0  0  0  0  0  0  0  0  0
  -18.1507  -39.4071  -10.6817 C   0  0  0  0  0  0  0  0  0  0  0  0
  -19.1683  -39.9343   -9.7354 C   0  0  1  0  0  0  0  0  0  0  0  0
  -19.4613  -39.0585   -8.6979 O   0  0  0  0  0  0  0  0  0  0  0  0
  -20.3926  -40.5485  -10.3475 C   0  0  2  0  0  0  0  0  0  0  0  0
  -21.6244  -40.5235   -9.5098 C   0  0  0  0  0  0  0  0  0  0  0  0
  -21.6563  -41.3095   -8.2598 C   0  0  0  0  0  0  0  0  0  0  0  0
  -21.6561  -40.4615   -7.1284 C   0  0  0  0  0  0  0  0  0  0  0  0
  -21.6891  -40.8949   -5.8302 C   0  0  0  0  0  0  0  0  0  0  0  0
  -21.6872  -39.9499   -4.6766 C   0  0  0  0  0  0  0  0  0  0  0  0
  -21.7241  -42.2491   -5.6602 C   0  0  0  0  0  0  0  0  0  0  0  0
  -21.7252  -43.1527   -6.7490 C   0  0  0  0  0  0  0  0  0  0  0  0
  -21.6918  -42.6770   -8.0495 C   0  0  0  0  0  0  0  0  0  0  0  0
  -21.7644  -44.4531   -6.2856 O   0  0  0  0  0  0  0  0  0  0  0  0
  -21.0691  -45.6289   -6.3865 C   0  0  0  0  0  0  0  0  0  0  0  0
  -20.0916  -45.7624   -5.2385 C   0  0  0  0  0  0  0  0  0  0  0  0
  -18.7454  -46.2069   -5.7512 C   0  0  0  0  0  0  0  0  0  0  0  0
  -17.7418  -45.0443   -5.8013 C   0  0  0  0  0  0  0  0  0  0  0  0
  -17.0900  -45.1318   -7.0844 N   0  0  0  0  0  0  0  0  0  0  0  0
  -17.2094  -44.3174   -8.2524 C   0  0  0  0  0  0  0  0  0  0  0  0
  -18.2762  -43.9085   -9.0070 C   0  0  0  0  0  0  0  0  0  0  0  0
  -18.0333  -43.1134  -10.1088 C   0  0  0  0  0  0  0  0  0  0  0  0
  -16.6927  -42.7627  -10.4023 C   0  0  0  0  0  0  0  0  0  0  0  0
  -15.6177  -43.1711   -9.6471 C   0  0  0  0  0  0  0  0  0  0  0  0
  -13.9737  -42.7037  -10.0610 Cl  0  0  0  0  0  0  0  0  0  0  0  0
  -15.9291  -43.9201   -8.6209 N   0  0  0  0  0  0  0  0  0  0  0  0
  -18.9187  -42.5209  -11.1136 C   0  0  0  0  0  0  0  0  0  0  0  0
  -18.5489  -42.6391  -12.3902 O   0  0  0  0  0  0  0  0  0  0  0  0
  -20.1420  -41.8147  -10.9959 N   0  0  0  0  0  0  0  0  0  0  0  0
  -18.5897  -37.3048  -11.4912 C   0  0  0  0  0  0  0  0  0  0  0  0
  1  2  1  0
  2  3  1  0
  2  4  1  0
  4  5  2  0
  5  6  1  0
  6  7  2  0
  7  8  1  0
  8  9  1  0
  9 10  1  0
 10 11  1  0
 11 12  1  0
 12 13  1  1
 12 14  1  0
 14 15  1  1
 15 16  1  0
 16 17  2  0
 17 18  1  0
 18 19  1  0
 18 20  2  0
 20 21  1  0
 21 22  2  0
 21 23  1  0
 23 24  1  0
 24 25  1  0
 25 26  1  0
 26 27  1  0
 27 28  1  0
 28 29  1  0
 29 30  2  0
 30 31  1  0
 31 32  2  0
 32 33  1  0
 33 34  1  0
 33 35  2  0
 31 36  1  0
 36 37  2  0
 36 38  1  0
  8 39  2  0
 22 16  1  0
 35 29  1  0
 38 14  1  0
 39  4  1  0
M  END
$$$$
