
     RDKit          3D

 39 42  0  0  0  0  0  0  0  0999 V2000
  -21.2484  -40.5462   -2.7409 C   0  0  0  0  0  0  0  0  0  0  0  0
  -22.2180  -41.4746   -3.4745 C   0  0  0  0  0  0  0  0  0  0  0  0
  -21.6125  -42.8379   -3.5494 C   0  0  0  0  0  0  0  0  0  0  0  0
  -22.4395  -40.8700   -4.8212 C   0  0  0  0  0  0  0  0  0  0  0  0
  -23.7076  -40.4681   -5.1677 C   0  0  0  0  0  0  0  0  0  0  0  0
  -23.9883  -39.9018   -6.3974 C   0  0  0  0  0  0  0  0  0  0  0  0
  -22.9435  -39.7426   -7.2968 C   0  0  0  0  0  0  0  0  0  0  0  0
  -21.6773  -40.1446   -6.9495 C   0  0  0  0  0  0  0  0  0  0  0  0
  -20.5353  -39.9803   -7.9138 C   0  0  0  0  0  0  0  0  0  0  0  0
  -20.0204  -38.6353   -7.6797 N   0  0  0  0  0  0  0  0  0  0  0  0
  -18.8534  -38.6386   -6.8571 C   0  0  0  0  0  0  0  0  0  0  0  0
  -17.6467  -39.1824   -7.5331 C   0  0  1  0  0  0  0  0  0  0  0  0
  -16.4862  -38.4784   -7.2380 O   0  0  0  0  0  0  0  0  0  0  0  0
  -17.4616  -40.6699   -7.4715 C   0  0  2  0  0  0  0  0  0  0  0  0
  -16.1304  -41.1435   -6.9992 C   0  0  0  0  0  0  0  0  0  0  0  0
  -14.9374  -40.8658   -7.8244 C   0  0  0  0  0  0  0  0  0  0  0  0
  -14.0961  -39.9192   -7.1956 C   0  0  0  0  0  0  0  0  0  0  0  0
  -12.9121  -39.4653   -7.7118 C   0  0  0  0  0  0  0  0  0  0  0  0
  -12.0666  -38.4642   -6.9998 C   0  0  0  0  0  0  0  0  0  0  0  0
  -12.5555  -39.9890   -8.9211 C   0  0  0  0  0  0  0  0  0  0  0  0
  -13.3522  -40.9384   -9.6038 C   0  0  0  0  0  0  0  0  0  0  0  0
  -14.5443  -41.3749   -9.0499 C   0  0  0  0  0  0  0  0  0  0  0  0
  -12.7514  -41.2915  -10.7961 O   0  0  0  0  0  0  0  0  0  0  0  0
  -13.0195  -41.3351  -12.1386 C   0  0  0  0  0  0  0  0  0  0  0  0
  -12.5165  -40.0789  -12.8168 C   0  0  0  0  0  0  0  0  0  0  0  0
  -13.5686  -39.5349  -13.7494 C   0  0  0  0  0  0  0  0  0  0  0  0
  -14.2847  -38.3137  -13.1515 C   0  0  0  0  0  0  0  0  0  0  0  0
  -15.6933  -38.5258  -13.3738 N   0  0  0  0  0  0  0  0  0  0  0  0
  -16.7442  -38.8616  -12.4656 C   0  0  0  0  0  0  0  0  0  0  0  0
  -16.9068  -39.8634  -11.5467 C   0  0  0  0  0  0  0  0  0  0  0  0
  -18.0813  -39.9047  -10.8229 C   0  0  0  0  0  0  0  0  0  0  0  0
  -19.0581  -38.9090  -11.0695 C   0  0  0  0  0  0  0  0  0  0  0  0
  -18.8992  -37.9006  -11.9917 C   0  0  0  0  0  0  0  0  0  0  0  0
  -20.1485  -36.6910  -12.2547 Cl  0  0  0  0  0  0  0  0  0  0  0  0
  -17.7611  -37.9289  -12.6358 N   0  0  0  0  0  0  0  0  0  0  0  0
  -18.5748  -40.8209   -9.7926 C   0  0  0  0  0  0  0  0  0  0  0  0
  -19.8312  -41.2522   -9.9186 O   0  0  0  0  0  0  0  0  0  0  0  0
  -17.9585  -41.3633   -8.6372 N   0  0  0  0  0  0  0  0  0  0  0  0
  -21.4122  -40.7092   -5.7159 C   0  0  0  0  0  0  0  0  0  0  0  0
  1  2  1  0
  2  3  1  0
  2  4  1  0
  4  5  2  0
  5  6  1  0
  6  7  2  0
  7  8  1  0
  8  9  1  0
  9 10  1  0
 10 11  1  0
 11 12  1  0
 12 13  1  1
 12 14  1  0
 14 15  1  6
 15 16  1  0
 16 17  2  0
 17 18  1  0
 18 19  1  0
 18 20  2  0
 20 21  1  0
 21 22  2  0
 21 23  1  0
 23 24  1  0
 24 25  1  0
 25 26  1  0
 26 27  1  0
 27 28  1  0
 28 29  1  0
 29 30  2  0
 30 31  1  0
 31 32  2  0
 32 33  1  0
 33 34  1  0
 33 35  2  0
 31 36  1  0
 36 37  2  0
 36 38  1  0
  8 39  2  0
 22 16  1  0
 35 29  1  0
 38 14  1  0
 39  4  1  0
M  END
$$$$
