
     RDKit          3D

 39 42  0  0  0  0  0  0  0  0999 V2000
  -24.9906  -40.5104   -6.1703 C   0  0  0  0  0  0  0  0  0  0  0  0
  -24.7872  -41.0937   -4.7709 C   0  0  0  0  0  0  0  0  0  0  0  0
  -26.0306  -40.8723   -3.9736 C   0  0  0  0  0  0  0  0  0  0  0  0
  -23.6022  -40.3936   -4.1929 C   0  0  0  0  0  0  0  0  0  0  0  0
  -23.8066  -39.3065   -3.3768 C   0  0  0  0  0  0  0  0  0  0  0  0
  -22.7580  -38.6080   -2.8075 C   0  0  0  0  0  0  0  0  0  0  0  0
  -21.4655  -39.0332   -3.0806 C   0  0  0  0  0  0  0  0  0  0  0  0
  -21.2627  -40.1193   -3.8960 C   0  0  0  0  0  0  0  0  0  0  0  0
  -19.8682  -40.5909   -4.2025 C   0  0  0  0  0  0  0  0  0  0  0  0
  -20.0314  -41.8839   -4.8586 N   0  0  0  0  0  0  0  0  0  0  0  0
  -20.5254  -41.7552   -6.1920 C   0  0  0  0  0  0  0  0  0  0  0  0
  -19.4653  -41.4921   -7.1998 C   0  0  1  0  0  0  0  0  0  0  0  0
  -19.9663  -41.1737   -8.4556 O   0  0  0  0  0  0  0  0  0  0  0  0
  -18.3457  -40.5909   -6.7696 C   0  0  2  0  0  0  0  0  0  0  0  0
  -18.1841  -39.3319   -7.5495 C   0  0  0  0  0  0  0  0  0  0  0  0
  -17.7882  -39.4153   -8.9700 C   0  0  0  0  0  0  0  0  0  0  0  0
  -18.8548  -39.0331   -9.8160 C   0  0  0  0  0  0  0  0  0  0  0  0
  -18.7913  -39.0008  -11.1831 C   0  0  0  0  0  0  0  0  0  0  0  0
  -19.9521  -38.5877  -12.0231 C   0  0  0  0  0  0  0  0  0  0  0  0
  -17.5955  -39.3713  -11.7279 C   0  0  0  0  0  0  0  0  0  0  0  0
  -16.4894  -39.7655  -10.9384 C   0  0  0  0  0  0  0  0  0  0  0  0
  -16.5908  -39.7853   -9.5572 C   0  0  0  0  0  0  0  0  0  0  0  0
  -15.4181  -40.0846  -11.7494 O   0  0  0  0  0  0  0  0  0  0  0  0
  -14.5527  -41.1178  -11.9938 C   0  0  0  0  0  0  0  0  0  0  0  0
  -15.0534  -41.9624  -13.1458 C   0  0  0  0  0  0  0  0  0  0  0  0
  -14.9571  -43.4260  -12.7975 C   0  0  0  0  0  0  0  0  0  0  0  0
  -16.3283  -44.0175  -12.4349 C   0  0  0  0  0  0  0  0  0  0  0  0
  -16.1261  -44.7948  -11.2375 N   0  0  0  0  0  0  0  0  0  0  0  0
  -16.5195  -44.5509   -9.8856 C   0  0  0  0  0  0  0  0  0  0  0  0
  -16.3426  -43.4951   -9.0320 C   0  0  0  0  0  0  0  0  0  0  0  0
  -16.8548  -43.5925   -7.7540 C   0  0  0  0  0  0  0  0  0  0  0  0
  -17.5357  -44.7804   -7.3916 C   0  0  0  0  0  0  0  0  0  0  0  0
  -17.7160  -45.8438   -8.2457 C   0  0  0  0  0  0  0  0  0  0  0  0
  -18.5709  -47.2946   -7.7388 Cl  0  0  0  0  0  0  0  0  0  0  0  0
  -17.2033  -45.6753   -9.4372 N   0  0  0  0  0  0  0  0  0  0  0  0
  -16.8383  -42.6771   -6.6111 C   0  0  0  0  0  0  0  0  0  0  0  0
  -16.5174  -43.1970   -5.4248 O   0  0  0  0  0  0  0  0  0  0  0  0
  -17.1087  -41.2895   -6.5082 N   0  0  0  0  0  0  0  0  0  0  0  0
  -22.3215  -40.8076   -4.4579 C   0  0  0  0  0  0  0  0  0  0  0  0
  1  2  1  0
  2  3  1  0
  2  4  1  0
  4  5  2  0
  5  6  1  0
  6  7  2  0
  7  8  1  0
  8  9  1  0
  9 10  1  0
 10 11  1  0
 11 12  1  0
 12 13  1  6
 12 14  1  0
 14 15  1  6
 15 16  1  0
 16 17  2  0
 17 18  1  0
 18 19  1  0
 18 20  2  0
 20 21  1  0
 21 22  2  0
 21 23  1  0
 23 24  1  0
 24 25  1  0
 25 26  1  0
 26 27  1  0
 27 28  1  0
 28 29  1  0
 29 30  2  0
 30 31  1  0
 31 32  2  0
 32 33  1  0
 33 34  1  0
 33 35  2  0
 31 36  1  0
 36 37  2  0
 36 38  1  0
  8 39  2  0
 22 16  1  0
 35 29  1  0
 38 14  1  0
 39  4  1  0
M  END
$$$$
