
     RDKit          3D

 39 42  0  0  0  0  0  0  0  0999 V2000
  -24.0997  -40.0089   -5.6089 C   0  0  0  0  0  0  0  0  0  0  0  0
  -23.0109  -39.3983   -4.7248 C   0  0  0  0  0  0  0  0  0  0  0  0
  -22.6934  -38.0296   -5.2313 C   0  0  0  0  0  0  0  0  0  0  0  0
  -21.8419  -40.3237   -4.7996 C   0  0  0  0  0  0  0  0  0  0  0  0
  -21.4014  -40.9308   -3.6477 C   0  0  0  0  0  0  0  0  0  0  0  0
  -20.3245  -41.7979   -3.6401 C   0  0  0  0  0  0  0  0  0  0  0  0
  -19.6811  -42.0506   -4.8435 C   0  0  0  0  0  0  0  0  0  0  0  0
  -20.1222  -41.4434   -5.9934 C   0  0  0  0  0  0  0  0  0  0  0  0
  -19.4343  -41.7058   -7.3045 C   0  0  0  0  0  0  0  0  0  0  0  0
  -19.2311  -40.3920   -7.9057 N   0  0  0  0  0  0  0  0  0  0  0  0
  -18.1233  -39.6993   -7.3300 C   0  0  0  0  0  0  0  0  0  0  0  0
  -16.8232  -40.0030   -7.9830 C   0  0  1  0  0  0  0  0  0  0  0  0
  -15.7609  -40.0688   -7.0905 O   0  0  0  0  0  0  0  0  0  0  0  0
  -16.8233  -41.1258   -8.9780 C   0  0  2  0  0  0  0  0  0  0  0  0
  -15.5988  -41.9739   -9.0060 C   0  0  0  0  0  0  0  0  0  0  0  0
  -14.3213  -41.3730   -9.4400 C   0  0  0  0  0  0  0  0  0  0  0  0
  -13.4231  -41.2542   -8.3544 C   0  0  0  0  0  0  0  0  0  0  0  0
  -12.1572  -40.7408   -8.4436 C   0  0  0  0  0  0  0  0  0  0  0  0
  -11.2548  -40.6414   -7.2605 C   0  0  0  0  0  0  0  0  0  0  0  0
  -11.7743  -40.3256   -9.6866 C   0  0  0  0  0  0  0  0  0  0  0  0
  -12.6245  -40.4154  -10.8141 C   0  0  0  0  0  0  0  0  0  0  0  0
  -13.8993  -40.9415  -10.6854 C   0  0  0  0  0  0  0  0  0  0  0  0
  -11.9807  -39.9252  -11.9332 O   0  0  0  0  0  0  0  0  0  0  0  0
  -12.1483  -38.9906  -12.9203 C   0  0  0  0  0  0  0  0  0  0  0  0
  -11.4477  -37.7013  -12.5488 C   0  0  0  0  0  0  0  0  0  0  0  0
  -12.3522  -36.5240  -12.8106 C   0  0  0  0  0  0  0  0  0  0  0  0
  -12.9602  -35.9719  -11.5117 C   0  0  0  0  0  0  0  0  0  0  0  0
  -14.3629  -35.7719  -11.7785 N   0  0  0  0  0  0  0  0  0  0  0  0
  -15.5130  -36.4911  -11.3294 C   0  0  0  0  0  0  0  0  0  0  0  0
  -15.8647  -37.8140  -11.3609 C   0  0  0  0  0  0  0  0  0  0  0  0
  -17.0877  -38.1797  -10.8360 C   0  0  0  0  0  0  0  0  0  0  0  0
  -17.9161  -37.1671  -10.2932 C   0  0  0  0  0  0  0  0  0  0  0  0
  -17.5670  -35.8368  -10.2593 C   0  0  0  0  0  0  0  0  0  0  0  0
  -18.6381  -34.6232   -9.5718 Cl  0  0  0  0  0  0  0  0  0  0  0  0
  -16.3945  -35.5705  -10.7743 N   0  0  0  0  0  0  0  0  0  0  0  0
  -17.7652  -39.4727  -10.7186 C   0  0  0  0  0  0  0  0  0  0  0  0
  -19.0509  -39.5159  -11.0729 O   0  0  0  0  0  0  0  0  0  0  0  0
  -17.3089  -40.7421  -10.2831 N   0  0  0  0  0  0  0  0  0  0  0  0
  -21.2005  -40.5787   -5.9851 C   0  0  0  0  0  0  0  0  0  0  0  0
  1  2  1  0
  2  3  1  0
  2  4  1  0
  4  5  2  0
  5  6  1  0
  6  7  2  0
  7  8  1  0
  8  9  1  0
  9 10  1  0
 10 11  1  0
 11 12  1  0
 12 13  1  1
 12 14  1  0
 14 15  1  6
 15 16  1  0
 16 17  2  0
 17 18  1  0
 18 19  1  0
 18 20  2  0
 20 21  1  0
 21 22  2  0
 21 23  1  0
 23 24  1  0
 24 25  1  0
 25 26  1  0
 26 27  1  0
 27 28  1  0
 28 29  1  0
 29 30  2  0
 30 31  1  0
 31 32  2  0
 32 33  1  0
 33 34  1  0
 33 35  2  0
 31 36  1  0
 36 37  2  0
 36 38  1  0
  8 39  2  0
 22 16  1  0
 35 29  1  0
 38 14  1  0
 39  4  1  0
M  END
$$$$
