
     RDKit          3D

 39 42  0  0  0  0  0  0  0  0999 V2000
  -21.8859  -40.2833   -7.5905 C   0  0  0  0  0  0  0  0  0  0  0  0
  -22.3747  -38.8399   -7.7232 C   0  0  0  0  0  0  0  0  0  0  0  0
  -23.8657  -38.8446   -7.8104 C   0  0  0  0  0  0  0  0  0  0  0  0
  -21.7294  -38.2898   -8.9518 C   0  0  0  0  0  0  0  0  0  0  0  0
  -22.3285  -38.5066  -10.1698 C   0  0  0  0  0  0  0  0  0  0  0  0
  -21.7882  -38.0291  -11.3495 C   0  0  0  0  0  0  0  0  0  0  0  0
  -20.6028  -37.3105  -11.2810 C   0  0  0  0  0  0  0  0  0  0  0  0
  -20.0054  -37.0947  -10.0636 C   0  0  0  0  0  0  0  0  0  0  0  0
  -18.7201  -36.3196   -9.9735 C   0  0  0  0  0  0  0  0  0  0  0  0
  -17.6864  -37.2238  -10.4665 N   0  0  0  0  0  0  0  0  0  0  0  0
  -16.7265  -37.5476   -9.4604 C   0  0  0  0  0  0  0  0  0  0  0  0
  -16.5361  -39.0083   -9.2634 C   0  0  1  0  0  0  0  0  0  0  0  0
  -16.1548  -39.3443   -7.9706 O   0  0  0  0  0  0  0  0  0  0  0  0
  -17.6127  -39.9001   -9.8075 C   0  0  2  0  0  0  0  0  0  0  0  0
  -18.0972  -40.9720   -8.8931 C   0  0  0  0  0  0  0  0  0  0  0  0
  -17.1708  -42.0547   -8.5048 C   0  0  0  0  0  0  0  0  0  0  0  0
  -16.8177  -41.9533   -7.1393 C   0  0  0  0  0  0  0  0  0  0  0  0
  -15.9801  -42.8164   -6.4854 C   0  0  0  0  0  0  0  0  0  0  0  0
  -15.6449  -42.6572   -5.0410 C   0  0  0  0  0  0  0  0  0  0  0  0
  -15.4715  -43.8329   -7.2417 C   0  0  0  0  0  0  0  0  0  0  0  0
  -15.7835  -43.9907   -8.6127 C   0  0  0  0  0  0  0  0  0  0  0  0
  -16.6358  -43.0976   -9.2407 C   0  0  0  0  0  0  0  0  0  0  0  0
  -15.1325  -45.0968   -9.1227 O   0  0  0  0  0  0  0  0  0  0  0  0
  -14.2741  -45.4413  -10.1328 C   0  0  0  0  0  0  0  0  0  0  0  0
  -12.8448  -45.4330   -9.6347 C   0  0  0  0  0  0  0  0  0  0  0  0
  -11.9555  -44.7162  -10.6185 C   0  0  0  0  0  0  0  0  0  0  0  0
  -11.5942  -43.3026  -10.1362 C   0  0  0  0  0  0  0  0  0  0  0  0
  -11.7806  -42.4318  -11.2701 N   0  0  0  0  0  0  0  0  0  0  0  0
  -12.7865  -41.4547  -11.5445 C   0  0  0  0  0  0  0  0  0  0  0  0
  -14.1550  -41.4943  -11.5592 C   0  0  0  0  0  0  0  0  0  0  0  0
  -14.8406  -40.3420  -11.8865 C   0  0  0  0  0  0  0  0  0  0  0  0
  -14.0927  -39.1785  -12.1915 C   0  0  0  0  0  0  0  0  0  0  0  0
  -12.7177  -39.1338  -12.1781 C   0  0  0  0  0  0  0  0  0  0  0  0
  -11.8426  -37.6586  -12.5664 Cl  0  0  0  0  0  0  0  0  0  0  0  0
  -12.1414  -40.2637  -11.8582 N   0  0  0  0  0  0  0  0  0  0  0  0
  -16.2693  -40.0425  -12.0040 C   0  0  0  0  0  0  0  0  0  0  0  0
  -16.6577  -39.3637  -13.0851 O   0  0  0  0  0  0  0  0  0  0  0  0
  -17.3694  -40.3408  -11.1614 N   0  0  0  0  0  0  0  0  0  0  0  0
  -20.5579  -37.5785   -8.8926 C   0  0  0  0  0  0  0  0  0  0  0  0
  1  2  1  0
  2  3  1  0
  2  4  1  0
  4  5  2  0
  5  6  1  0
  6  7  2  0
  7  8  1  0
  8  9  1  0
  9 10  1  0
 10 11  1  0
 11 12  1  0
 12 13  1  1
 12 14  1  0
 14 15  1  1
 15 16  1  0
 16 17  2  0
 17 18  1  0
 18 19  1  0
 18 20  2  0
 20 21  1  0
 21 22  2  0
 21 23  1  0
 23 24  1  0
 24 25  1  0
 25 26  1  0
 26 27  1  0
 27 28  1  0
 28 29  1  0
 29 30  2  0
 30 31  1  0
 31 32  2  0
 32 33  1  0
 33 34  1  0
 33 35  2  0
 31 36  1  0
 36 37  2  0
 36 38  1  0
  8 39  2  0
 22 16  1  0
 35 29  1  0
 38 14  1  0
 39  4  1  0
M  END
$$$$
