
     RDKit          3D

 39 42  0  0  0  0  0  0  0  0999 V2000
  -21.2873  -38.6083  -10.1764 C   0  0  0  0  0  0  0  0  0  0  0  0
  -21.7174  -37.9634   -8.8576 C   0  0  0  0  0  0  0  0  0  0  0  0
  -20.8779  -36.7511   -8.6203 C   0  0  0  0  0  0  0  0  0  0  0  0
  -21.5347  -39.0037   -7.8028 C   0  0  0  0  0  0  0  0  0  0  0  0
  -22.4929  -39.1335   -6.8257 C   0  0  0  0  0  0  0  0  0  0  0  0
  -22.3903  -40.0730   -5.8166 C   0  0  0  0  0  0  0  0  0  0  0  0
  -21.2773  -40.9020   -5.8069 C   0  0  0  0  0  0  0  0  0  0  0  0
  -20.3209  -40.7713   -6.7835 C   0  0  0  0  0  0  0  0  0  0  0  0
  -19.1087  -41.6609   -6.7854 C   0  0  0  0  0  0  0  0  0  0  0  0
  -17.9725  -40.7689   -6.5797 N   0  0  0  0  0  0  0  0  0  0  0  0
  -17.9719  -39.6739   -7.4959 C   0  0  0  0  0  0  0  0  0  0  0  0
  -16.6303  -39.3618   -8.0540 C   0  0  1  0  0  0  0  0  0  0  0  0
  -16.3875  -37.9995   -8.1746 O   0  0  0  0  0  0  0  0  0  0  0  0
  -15.4727  -40.1137   -7.4665 C   0  0  2  0  0  0  0  0  0  0  0  0
  -14.1586  -39.4122   -7.4900 C   0  0  0  0  0  0  0  0  0  0  0  0
  -13.5224  -39.1267   -8.7919 C   0  0  0  0  0  0  0  0  0  0  0  0
  -13.5306  -37.7396   -9.0660 C   0  0  0  0  0  0  0  0  0  0  0  0
  -13.0070  -37.1653  -10.1931 C   0  0  0  0  0  0  0  0  0  0  0  0
  -13.0457  -35.6929  -10.4260 C   0  0  0  0  0  0  0  0  0  0  0  0
  -12.4469  -38.0285  -11.0903 C   0  0  0  0  0  0  0  0  0  0  0  0
  -12.4069  -39.4269  -10.8776 C   0  0  0  0  0  0  0  0  0  0  0  0
  -12.9465  -39.9720   -9.7243 C   0  0  0  0  0  0  0  0  0  0  0  0
  -11.7856  -40.0505  -11.9417 O   0  0  0  0  0  0  0  0  0  0  0  0
  -12.0147  -41.0354  -12.8656 C   0  0  0  0  0  0  0  0  0  0  0  0
  -12.5437  -40.4378  -14.1517 C   0  0  0  0  0  0  0  0  0  0  0  0
  -13.7254  -41.2323  -14.6465 C   0  0  0  0  0  0  0  0  0  0  0  0
  -15.0543  -40.5141  -14.3637 C   0  0  0  0  0  0  0  0  0  0  0  0
  -15.9423  -41.5122  -13.8214 N   0  0  0  0  0  0  0  0  0  0  0  0
  -16.4315  -41.7075  -12.4931 C   0  0  0  0  0  0  0  0  0  0  0  0
  -15.8184  -41.8288  -11.2750 C   0  0  0  0  0  0  0  0  0  0  0  0
  -16.6082  -42.0257  -10.1603 C   0  0  0  0  0  0  0  0  0  0  0  0
  -18.0122  -42.0933  -10.3348 C   0  0  0  0  0  0  0  0  0  0  0  0
  -18.6328  -41.9720  -11.5566 C   0  0  0  0  0  0  0  0  0  0  0  0
  -20.3821  -42.0645  -11.7117 Cl  0  0  0  0  0  0  0  0  0  0  0  0
  -17.8178  -41.7869  -12.5629 N   0  0  0  0  0  0  0  0  0  0  0  0
  -16.2886  -42.2011   -8.7420 C   0  0  0  0  0  0  0  0  0  0  0  0
  -16.9111  -43.1914   -8.1000 O   0  0  0  0  0  0  0  0  0  0  0  0
  -15.4137  -41.4974   -7.8768 N   0  0  0  0  0  0  0  0  0  0  0  0
  -20.4376  -39.8271   -7.7862 C   0  0  0  0  0  0  0  0  0  0  0  0
  1  2  1  0
  2  3  1  0
  2  4  1  0
  4  5  2  0
  5  6  1  0
  6  7  2  0
  7  8  1  0
  8  9  1  0
  9 10  1  0
 10 11  1  0
 11 12  1  0
 12 13  1  1
 12 14  1  0
 14 15  1  6
 15 16  1  0
 16 17  2  0
 17 18  1  0
 18 19  1  0
 18 20  2  0
 20 21  1  0
 21 22  2  0
 21 23  1  0
 23 24  1  0
 24 25  1  0
 25 26  1  0
 26 27  1  0
 27 28  1  0
 28 29  1  0
 29 30  2  0
 30 31  1  0
 31 32  2  0
 32 33  1  0
 33 34  1  0
 33 35  2  0
 31 36  1  0
 36 37  2  0
 36 38  1  0
  8 39  2  0
 22 16  1  0
 35 29  1  0
 38 14  1  0
 39  4  1  0
M  END
$$$$
