
     RDKit          3D

 36 37  0  0  0  0  0  0  0  0999 V2000
  -10.2380  -33.9963  -13.7285 C   0  0  0  0  0  0  0  0  0  0  0  0
  -11.1485  -35.0430  -13.0947 C   0  0  0  0  0  0  0  0  0  0  0  0
  -11.7256  -34.4512  -11.8331 C   0  0  0  0  0  0  0  0  0  0  0  0
  -10.3522  -36.2770  -12.7636 C   0  0  0  0  0  0  0  0  0  0  0  0
  -11.2447  -37.4337  -12.6010 C   0  0  0  0  0  0  0  0  0  0  0  0
  -11.9172  -37.7299  -11.4216 C   0  0  0  0  0  0  0  0  0  0  0  0
  -12.7326  -38.8088  -11.3104 C   0  0  0  0  0  0  0  0  0  0  0  0
  -13.4540  -39.1367  -10.0575 C   0  0  0  0  0  0  0  0  0  0  0  0
  -14.6307  -39.9175  -10.2369 N   0  0  0  0  0  0  0  0  0  0  0  0
  -15.2714  -40.3879   -9.0600 C   0  0  0  0  0  0  0  0  0  0  0  0
  -16.0801  -39.4101   -8.2909 C   0  0  1  0  0  0  0  0  0  0  0  0
  -16.1299  -38.1276   -8.7859 O   0  0  0  0  0  0  0  0  0  0  0  0
  -17.4636  -39.9479   -7.8884 C   0  0  2  0  0  0  0  0  0  0  0  0
  -18.0569  -38.9005   -6.9525 C   0  0  0  0  0  0  0  0  0  0  0  0
  -19.4870  -39.2601   -6.6976 C   0  0  2  0  0  0  0  0  0  0  0  0
  -20.3253  -38.5632   -7.7628 C   0  0  0  0  0  0  0  0  0  0  0  0
  -19.9556  -38.9839   -5.3183 C   0  0  0  0  0  0  0  0  0  0  0  0
  -21.5125  -38.9548   -5.3062 C   0  0  0  0  0  0  0  0  0  0  0  0
  -22.0416  -40.3683   -5.3771 C   0  0  0  0  0  0  0  0  0  0  0  0
  -23.2128  -40.8923   -5.3325 C   0  0  0  0  0  0  0  0  0  0  0  0
  -23.7322  -42.3086   -5.4017 C   0  0  0  0  0  0  0  0  0  0  0  0
  -23.9247  -42.6239   -6.8695 C   0  0  0  0  0  0  0  0  0  0  0  0
  -23.2459  -43.9059   -7.2910 C   0  0  0  0  0  0  0  0  0  0  0  0
  -21.9189  -43.6482   -7.9666 C   0  0  0  0  0  0  0  0  0  0  0  0
  -20.8354  -44.0207   -7.0461 C   0  0  0  0  0  0  0  0  0  0  0  0
  -21.1231  -44.9856   -6.2436 O   0  0  0  0  0  0  0  0  0  0  0  0
  -19.5489  -43.4718   -6.9290 N   0  0  0  0  0  0  0  0  0  0  0  0
  -19.0428  -43.1567   -5.5826 C   0  0  0  0  0  0  0  0  0  0  0  0
  -18.6288  -43.1814   -8.0217 C   0  0  1  0  0  0  0  0  0  0  0  0
  -19.2844  -42.4659   -9.1803 C   0  0  0  0  0  0  0  0  0  0  0  0
  -17.4059  -42.5006   -7.5442 C   0  0  0  0  0  0  0  0  0  0  0  0
  -16.3500  -43.2316   -7.4908 O   0  0  0  0  0  0  0  0  0  0  0  0
  -17.2385  -41.1724   -7.1412 N   0  0  0  0  0  0  0  0  0  0  0  0
  -12.8977  -39.6442  -12.4188 C   0  0  0  0  0  0  0  0  0  0  0  0
  -12.2476  -39.3433  -13.5328 N   0  0  0  0  0  0  0  0  0  0  0  0
  -11.4281  -38.2790  -13.6811 C   0  0  0  0  0  0  0  0  0  0  0  0
  1  2  1  0
  2  3  1  0
  2  4  1  0
  4  5  1  0
  5  6  2  0
  6  7  1  0
  7  8  1  0
  8  9  1  0
  9 10  1  0
 10 11  1  0
 11 12  1  6
 11 13  1  0
 13 14  1  1
 14 15  1  0
 15 16  1  6
 15 17  1  0
 17 18  1  0
 18 19  1  0
 19 20  2  0
 20 21  1  0
 21 22  1  0
 22 23  1  0
 23 24  1  0
 24 25  1  0
 25 26  2  0
 25 27  1  0
 27 28  1  0
 27 29  1  0
 29 30  1  6
 29 31  1  0
 31 32  2  0
 31 33  1  0
  7 34  2  0
 34 35  1  0
 35 36  2  0
 33 13  1  0
 36  5  1  0
M  END
$$$$
