
     RDKit          3D

 36 37  0  0  0  0  0  0  0  0999 V2000
  -13.9588  -34.8728  -13.5570 C   0  0  0  0  0  0  0  0  0  0  0  0
  -12.8425  -34.8656  -12.5178 C   0  0  0  0  0  0  0  0  0  0  0  0
  -12.2796  -33.4677  -12.4533 C   0  0  0  0  0  0  0  0  0  0  0  0
  -11.7634  -35.8339  -12.9230 C   0  0  0  0  0  0  0  0  0  0  0  0
  -12.2136  -37.2179  -12.7161 C   0  0  0  0  0  0  0  0  0  0  0  0
  -12.3596  -37.8032  -11.4643 C   0  0  0  0  0  0  0  0  0  0  0  0
  -12.7773  -39.0855  -11.3144 C   0  0  0  0  0  0  0  0  0  0  0  0
  -12.9352  -39.7219   -9.9849 C   0  0  0  0  0  0  0  0  0  0  0  0
  -13.9067  -39.1083   -9.1446 N   0  0  0  0  0  0  0  0  0  0  0  0
  -15.2058  -39.6821   -9.1444 C   0  0  0  0  0  0  0  0  0  0  0  0
  -16.3492  -38.7720   -8.8878 C   0  0  1  0  0  0  0  0  0  0  0  0
  -16.5626  -37.7755   -9.8117 O   0  0  0  0  0  0  0  0  0  0  0  0
  -17.6405  -39.5121   -8.5002 C   0  0  2  0  0  0  0  0  0  0  0  0
  -18.5688  -38.4480   -7.9247 C   0  0  0  0  0  0  0  0  0  0  0  0
  -19.9186  -39.0638   -7.7290 C   0  0  2  0  0  0  0  0  0  0  0  0
  -20.7078  -38.8408   -9.0138 C   0  0  0  0  0  0  0  0  0  0  0  0
  -20.6381  -38.5998   -6.5186 C   0  0  0  0  0  0  0  0  0  0  0  0
  -22.1521  -38.9324   -6.6678 C   0  0  0  0  0  0  0  0  0  0  0  0
  -22.3678  -40.4086   -6.4287 C   0  0  0  0  0  0  0  0  0  0  0  0
  -23.4018  -41.1671   -6.3680 C   0  0  0  0  0  0  0  0  0  0  0  0
  -23.6079  -42.6433   -6.1257 C   0  0  0  0  0  0  0  0  0  0  0  0
  -23.5065  -43.3183   -7.4766 C   0  0  0  0  0  0  0  0  0  0  0  0
  -22.5266  -44.4680   -7.4891 C   0  0  0  0  0  0  0  0  0  0  0  0
  -21.1918  -44.0678   -8.0738 C   0  0  0  0  0  0  0  0  0  0  0  0
  -20.2088  -43.9595   -6.9866 C   0  0  0  0  0  0  0  0  0  0  0  0
  -20.4147  -44.7576   -5.9975 O   0  0  0  0  0  0  0  0  0  0  0  0
  -19.0929  -43.1140   -6.8866 N   0  0  0  0  0  0  0  0  0  0  0  0
  -18.8723  -42.3936   -5.6215 C   0  0  0  0  0  0  0  0  0  0  0  0
  -18.0947  -42.8720   -7.9210 C   0  0  1  0  0  0  0  0  0  0  0  0
  -18.6966  -42.6100   -9.2823 C   0  0  0  0  0  0  0  0  0  0  0  0
  -17.1219  -41.8352   -7.5142 C   0  0  0  0  0  0  0  0  0  0  0  0
  -15.9609  -42.2684   -7.1727 O   0  0  0  0  0  0  0  0  0  0  0  0
  -17.2895  -40.4488   -7.4476 N   0  0  0  0  0  0  0  0  0  0  0  0
  -13.0684  -39.8359  -12.4572 C   0  0  0  0  0  0  0  0  0  0  0  0
  -12.9226  -39.2585  -13.6402 N   0  0  0  0  0  0  0  0  0  0  0  0
  -12.5094  -37.9858  -13.8287 C   0  0  0  0  0  0  0  0  0  0  0  0
  1  2  1  0
  2  3  1  0
  2  4  1  0
  4  5  1  0
  5  6  2  0
  6  7  1  0
  7  8  1  0
  8  9  1  0
  9 10  1  0
 10 11  1  0
 11 12  1  6
 11 13  1  0
 13 14  1  1
 14 15  1  0
 15 16  1  6
 15 17  1  0
 17 18  1  0
 18 19  1  0
 19 20  2  0
 20 21  1  0
 21 22  1  0
 22 23  1  0
 23 24  1  0
 24 25  1  0
 25 26  2  0
 25 27  1  0
 27 28  1  0
 27 29  1  0
 29 30  1  6
 29 31  1  0
 31 32  2  0
 31 33  1  0
  7 34  2  0
 34 35  1  0
 35 36  2  0
 33 13  1  0
 36  5  1  0
M  END
$$$$
