
     RDKit          3D

 36 37  0  0  0  0  0  0  0  0999 V2000
  -22.0906  -37.1515   -5.6184 C   0  0  0  0  0  0  0  0  0  0  0  0
  -23.0592  -37.6588   -6.6817 C   0  0  0  0  0  0  0  0  0  0  0  0
  -24.3374  -38.0605   -5.9892 C   0  0  0  0  0  0  0  0  0  0  0  0
  -22.4635  -38.8479   -7.3872 C   0  0  0  0  0  0  0  0  0  0  0  0
  -21.3606  -38.4245   -8.2619 C   0  0  0  0  0  0  0  0  0  0  0  0
  -20.1285  -37.9852   -7.7930 C   0  0  0  0  0  0  0  0  0  0  0  0
  -19.1346  -37.6014   -8.6333 C   0  0  0  0  0  0  0  0  0  0  0  0
  -17.8167  -37.1292   -8.1457 C   0  0  0  0  0  0  0  0  0  0  0  0
  -16.7510  -38.0561   -8.3234 N   0  0  0  0  0  0  0  0  0  0  0  0
  -16.7521  -39.2004   -7.4822 C   0  0  0  0  0  0  0  0  0  0  0  0
  -15.7589  -40.2618   -7.7799 C   0  0  1  0  0  0  0  0  0  0  0  0
  -14.9388  -40.6457   -6.7443 O   0  0  0  0  0  0  0  0  0  0  0  0
  -16.3559  -41.4569   -8.5420 C   0  0  2  0  0  0  0  0  0  0  0  0
  -17.1224  -40.8563   -9.7155 C   0  0  0  0  0  0  0  0  0  0  0  0
  -17.5451  -41.9737  -10.6167 C   0  0  2  0  0  0  0  0  0  0  0  0
  -16.4341  -42.1736  -11.6409 C   0  0  0  0  0  0  0  0  0  0  0  0
  -18.8799  -41.7943  -11.2366 C   0  0  0  0  0  0  0  0  0  0  0  0
  -19.0019  -42.7432  -12.4653 C   0  0  0  0  0  0  0  0  0  0  0  0
  -19.2344  -44.1573  -11.9865 C   0  0  0  0  0  0  0  0  0  0  0  0
  -19.4623  -45.2774  -12.5708 C   0  0  0  0  0  0  0  0  0  0  0  0
  -19.6962  -46.6873  -12.0829 C   0  0  0  0  0  0  0  0  0  0  0  0
  -18.3310  -47.3264  -11.9468 C   0  0  0  0  0  0  0  0  0  0  0  0
  -18.1058  -47.9529  -10.5908 C   0  0  0  0  0  0  0  0  0  0  0  0
  -17.2975  -47.0573   -9.6807 C   0  0  0  0  0  0  0  0  0  0  0  0
  -18.1882  -46.4863   -8.6605 C   0  0  0  0  0  0  0  0  0  0  0  0
  -19.1751  -47.2432   -8.3276 O   0  0  0  0  0  0  0  0  0  0  0  0
  -18.1055  -45.2443   -8.0119 N   0  0  0  0  0  0  0  0  0  0  0  0
  -19.3285  -44.4325   -7.8968 C   0  0  0  0  0  0  0  0  0  0  0  0
  -16.9127  -44.6580   -7.4134 C   0  0  1  0  0  0  0  0  0  0  0  0
  -15.6932  -44.7473   -8.3016 C   0  0  0  0  0  0  0  0  0  0  0  0
  -17.1632  -43.2872   -6.9183 C   0  0  0  0  0  0  0  0  0  0  0  0
  -17.2730  -43.1702   -5.6430 O   0  0  0  0  0  0  0  0  0  0  0  0
  -17.2989  -42.1003   -7.6446 N   0  0  0  0  0  0  0  0  0  0  0  0
  -19.3623  -37.6515  -10.0115 C   0  0  0  0  0  0  0  0  0  0  0  0
  -20.5436  -38.0734  -10.4367 N   0  0  0  0  0  0  0  0  0  0  0  0
  -21.5562  -38.4632   -9.6313 C   0  0  0  0  0  0  0  0  0  0  0  0
  1  2  1  0
  2  3  1  0
  2  4  1  0
  4  5  1  0
  5  6  2  0
  6  7  1  0
  7  8  1  0
  8  9  1  0
  9 10  1  0
 10 11  1  0
 11 12  1  1
 11 13  1  0
 13 14  1  6
 14 15  1  0
 15 16  1  6
 15 17  1  0
 17 18  1  0
 18 19  1  0
 19 20  2  0
 20 21  1  0
 21 22  1  0
 22 23  1  0
 23 24  1  0
 24 25  1  0
 25 26  2  0
 25 27  1  0
 27 28  1  0
 27 29  1  0
 29 30  1  6
 29 31  1  0
 31 32  2  0
 31 33  1  0
  7 34  2  0
 34 35  1  0
 35 36  2  0
 33 13  1  0
 36  5  1  0
M  END
$$$$
