
     RDKit          3D

 36 37  0  0  0  0  0  0  0  0999 V2000
  -11.2334  -33.6176  -12.4122 C   0  0  0  0  0  0  0  0  0  0  0  0
  -11.6225  -35.0857  -12.5519 C   0  0  0  0  0  0  0  0  0  0  0  0
  -11.1318  -35.5686  -13.8939 C   0  0  0  0  0  0  0  0  0  0  0  0
  -13.1195  -35.2253  -12.4736 C   0  0  0  0  0  0  0  0  0  0  0  0
  -13.4965  -36.6421  -12.3660 C   0  0  0  0  0  0  0  0  0  0  0  0
  -13.3591  -37.3912  -11.2037 C   0  0  0  0  0  0  0  0  0  0  0  0
  -13.7180  -38.6985  -11.1442 C   0  0  0  0  0  0  0  0  0  0  0  0
  -13.5746  -39.5089   -9.9112 C   0  0  0  0  0  0  0  0  0  0  0  0
  -14.7570  -40.1922   -9.5091 N   0  0  0  0  0  0  0  0  0  0  0  0
  -15.9341  -39.4088   -9.3759 C   0  0  0  0  0  0  0  0  0  0  0  0
  -16.4004  -39.1143   -7.9984 C   0  0  1  0  0  0  0  0  0  0  0  0
  -16.3016  -37.8073   -7.5810 O   0  0  0  0  0  0  0  0  0  0  0  0
  -17.7653  -39.7431   -7.6710 C   0  0  2  0  0  0  0  0  0  0  0  0
  -18.4505  -38.7687   -6.7191 C   0  0  0  0  0  0  0  0  0  0  0  0
  -19.8665  -39.2162   -6.5339 C   0  0  2  0  0  0  0  0  0  0  0  0
  -20.7031  -38.5235   -7.6033 C   0  0  0  0  0  0  0  0  0  0  0  0
  -20.4001  -39.0224   -5.1643 C   0  0  0  0  0  0  0  0  0  0  0  0
  -21.9556  -39.0792   -5.2115 C   0  0  0  0  0  0  0  0  0  0  0  0
  -22.4013  -40.5155   -5.3574 C   0  0  0  0  0  0  0  0  0  0  0  0
  -23.5419  -41.1043   -5.3785 C   0  0  0  0  0  0  0  0  0  0  0  0
  -23.9779  -42.5429   -5.5225 C   0  0  0  0  0  0  0  0  0  0  0  0
  -24.0984  -42.8084   -7.0077 C   0  0  0  0  0  0  0  0  0  0  0  0
  -23.3336  -44.0331   -7.4516 C   0  0  0  0  0  0  0  0  0  0  0  0
  -21.9994  -43.6758   -8.0648 C   0  0  0  0  0  0  0  0  0  0  0  0
  -20.9310  -44.0255   -7.1179 C   0  0  0  0  0  0  0  0  0  0  0  0
  -21.1931  -45.0365   -6.3650 O   0  0  0  0  0  0  0  0  0  0  0  0
  -19.6826  -43.4120   -6.9298 N   0  0  0  0  0  0  0  0  0  0  0  0
  -19.2448  -43.1247   -5.5537 C   0  0  0  0  0  0  0  0  0  0  0  0
  -18.7410  -43.0275   -7.9740 C   0  0  1  0  0  0  0  0  0  0  0  0
  -19.3929  -42.3024   -9.1287 C   0  0  0  0  0  0  0  0  0  0  0  0
  -17.5767  -42.3007   -7.4235 C   0  0  0  0  0  0  0  0  0  0  0  0
  -16.4839  -42.9743   -7.3573 O   0  0  0  0  0  0  0  0  0  0  0  0
  -17.4991  -40.9828   -6.9633 N   0  0  0  0  0  0  0  0  0  0  0  0
  -14.2415  -39.3050  -12.2896 C   0  0  0  0  0  0  0  0  0  0  0  0
  -14.3640  -38.5726  -13.3864 N   0  0  0  0  0  0  0  0  0  0  0  0
  -14.0178  -37.2699  -13.4835 C   0  0  0  0  0  0  0  0  0  0  0  0
  1  2  1  0
  2  3  1  0
  2  4  1  0
  4  5  1  0
  5  6  2  0
  6  7  1  0
  7  8  1  0
  8  9  1  0
  9 10  1  0
 10 11  1  0
 11 12  1  6
 11 13  1  0
 13 14  1  1
 14 15  1  0
 15 16  1  6
 15 17  1  0
 17 18  1  0
 18 19  1  0
 19 20  2  0
 20 21  1  0
 21 22  1  0
 22 23  1  0
 23 24  1  0
 24 25  1  0
 25 26  2  0
 25 27  1  0
 27 28  1  0
 27 29  1  0
 29 30  1  6
 29 31  1  0
 31 32  2  0
 31 33  1  0
  7 34  2  0
 34 35  1  0
 35 36  2  0
 33 13  1  0
 36  5  1  0
M  END
$$$$
