
     RDKit          3D

 36 37  0  0  0  0  0  0  0  0999 V2000
  -18.0035  -41.9636  -11.4630 C   0  0  0  0  0  0  0  0  0  0  0  0
  -17.6196  -43.0668  -12.4436 C   0  0  0  0  0  0  0  0  0  0  0  0
  -17.2683  -44.2958  -11.6429 C   0  0  0  0  0  0  0  0  0  0  0  0
  -16.4324  -42.6314  -13.2606 C   0  0  0  0  0  0  0  0  0  0  0  0
  -15.3411  -42.1875  -12.3813 C   0  0  0  0  0  0  0  0  0  0  0  0
  -15.2512  -40.9072  -11.8486 C   0  0  0  0  0  0  0  0  0  0  0  0
  -14.2265  -40.5349  -11.0407 C   0  0  0  0  0  0  0  0  0  0  0  0
  -14.1182  -39.1719  -10.4679 C   0  0  0  0  0  0  0  0  0  0  0  0
  -14.2724  -39.1082   -9.0541 N   0  0  0  0  0  0  0  0  0  0  0  0
  -15.5278  -38.6563   -8.5676 C   0  0  0  0  0  0  0  0  0  0  0  0
  -15.8981  -39.0434   -7.1839 C   0  0  1  0  0  0  0  0  0  0  0  0
  -15.8122  -38.0603   -6.2255 O   0  0  0  0  0  0  0  0  0  0  0  0
  -17.2121  -39.8388   -7.1060 C   0  0  2  0  0  0  0  0  0  0  0  0
  -18.1545  -38.9959   -6.2535 C   0  0  0  0  0  0  0  0  0  0  0  0
  -19.5174  -39.6104   -6.3192 C   0  0  2  0  0  0  0  0  0  0  0  0
  -20.2475  -38.9670   -7.4923 C   0  0  0  0  0  0  0  0  0  0  0  0
  -20.2847  -39.5449   -5.0522 C   0  0  0  0  0  0  0  0  0  0  0  0
  -21.7938  -39.7765   -5.3588 C   0  0  0  0  0  0  0  0  0  0  0  0
  -22.0338  -41.2455   -5.6178 C   0  0  0  0  0  0  0  0  0  0  0  0
  -23.0767  -41.9589   -5.8451 C   0  0  0  0  0  0  0  0  0  0  0  0
  -23.3072  -43.4293   -6.1007 C   0  0  0  0  0  0  0  0  0  0  0  0
  -23.1533  -43.6350   -7.5923 C   0  0  0  0  0  0  0  0  0  0  0  0
  -22.1848  -44.7416   -7.9380 C   0  0  0  0  0  0  0  0  0  0  0  0
  -20.8220  -44.2053   -8.3105 C   0  0  0  0  0  0  0  0  0  0  0  0
  -19.8864  -44.4760   -7.2097 C   0  0  0  0  0  0  0  0  0  0  0  0
  -20.1430  -45.5454   -6.5401 O   0  0  0  0  0  0  0  0  0  0  0  0
  -18.7679  -43.7339   -6.7993 N   0  0  0  0  0  0  0  0  0  0  0  0
  -18.5960  -43.4651   -5.3619 C   0  0  0  0  0  0  0  0  0  0  0  0
  -17.7232  -43.1946   -7.6610 C   0  0  1  0  0  0  0  0  0  0  0  0
  -18.2625  -42.4940   -8.8867 C   0  0  0  0  0  0  0  0  0  0  0  0
  -16.7593  -42.3671   -6.9041 C   0  0  0  0  0  0  0  0  0  0  0  0
  -15.6185  -42.9140   -6.6767 O   0  0  0  0  0  0  0  0  0  0  0  0
  -16.9164  -41.0726   -6.3998 N   0  0  0  0  0  0  0  0  0  0  0  0
  -13.2342  -41.4716  -10.7381 C   0  0  0  0  0  0  0  0  0  0  0  0
  -13.3395  -42.6860  -11.2562 N   0  0  0  0  0  0  0  0  0  0  0  0
  -14.3438  -43.0928  -12.0637 C   0  0  0  0  0  0  0  0  0  0  0  0
  1  2  1  0
  2  3  1  0
  2  4  1  0
  4  5  1  0
  5  6  2  0
  6  7  1  0
  7  8  1  0
  8  9  1  0
  9 10  1  0
 10 11  1  0
 11 12  1  1
 11 13  1  0
 13 14  1  1
 14 15  1  0
 15 16  1  6
 15 17  1  0
 17 18  1  0
 18 19  1  0
 19 20  2  0
 20 21  1  0
 21 22  1  0
 22 23  1  0
 23 24  1  0
 24 25  1  0
 25 26  2  0
 25 27  1  0
 27 28  1  0
 27 29  1  0
 29 30  1  6
 29 31  1  0
 31 32  2  0
 31 33  1  0
  7 34  2  0
 34 35  1  0
 35 36  2  0
 33 13  1  0
 36  5  1  0
M  END
$$$$
