
     RDKit          3D

 36 37  0  0  0  0  0  0  0  0999 V2000
  -10.1192  -38.1210  -13.9762 C   0  0  0  0  0  0  0  0  0  0  0  0
  -10.4241  -39.2690  -13.0194 C   0  0  0  0  0  0  0  0  0  0  0  0
   -9.6250  -40.4678  -13.4657 C   0  0  0  0  0  0  0  0  0  0  0  0
  -11.8945  -39.5895  -13.0610 C   0  0  0  0  0  0  0  0  0  0  0  0
  -12.6848  -38.4224  -12.6437 C   0  0  0  0  0  0  0  0  0  0  0  0
  -13.0825  -38.1882  -11.3329 C   0  0  0  0  0  0  0  0  0  0  0  0
  -13.8131  -37.0983  -10.9871 C   0  0  0  0  0  0  0  0  0  0  0  0
  -14.2452  -36.8382   -9.5931 C   0  0  0  0  0  0  0  0  0  0  0  0
  -14.2119  -37.9766   -8.7391 N   0  0  0  0  0  0  0  0  0  0  0  0
  -15.3524  -38.8228   -8.7569 C   0  0  0  0  0  0  0  0  0  0  0  0
  -16.6832  -38.1671   -8.7760 C   0  0  1  0  0  0  0  0  0  0  0  0
  -17.0574  -37.5672   -9.9561 O   0  0  0  0  0  0  0  0  0  0  0  0
  -17.7979  -39.0357   -8.1691 C   0  0  2  0  0  0  0  0  0  0  0  0
  -18.6132  -38.1003   -7.2828 C   0  0  0  0  0  0  0  0  0  0  0  0
  -19.8384  -38.8334   -6.8345 C   0  0  2  0  0  0  0  0  0  0  0  0
  -20.9294  -38.5627   -7.8640 C   0  0  0  0  0  0  0  0  0  0  0  0
  -20.2634  -38.5326   -5.4464 C   0  0  0  0  0  0  0  0  0  0  0  0
  -21.7474  -38.9675   -5.2630 C   0  0  0  0  0  0  0  0  0  0  0  0
  -21.8173  -40.4711   -5.1316 C   0  0  0  0  0  0  0  0  0  0  0  0
  -22.7622  -41.3099   -4.9038 C   0  0  0  0  0  0  0  0  0  0  0  0
  -22.8220  -42.8130   -4.7716 C   0  0  0  0  0  0  0  0  0  0  0  0
  -23.0183  -43.3594   -6.1693 C   0  0  0  0  0  0  0  0  0  0  0  0
  -22.0104  -44.4242   -6.5330 C   0  0  0  0  0  0  0  0  0  0  0  0
  -20.8834  -43.8729   -7.3754 C   0  0  0  0  0  0  0  0  0  0  0  0
  -19.6713  -43.7826   -6.5492 C   0  0  0  0  0  0  0  0  0  0  0  0
  -19.5848  -44.6765   -5.6265 O   0  0  0  0  0  0  0  0  0  0  0  0
  -18.6125  -42.8648   -6.6326 N   0  0  0  0  0  0  0  0  0  0  0  0
  -18.1281  -42.2411   -5.3899 C   0  0  0  0  0  0  0  0  0  0  0  0
  -17.9130  -42.4581   -7.8450 C   0  0  1  0  0  0  0  0  0  0  0  0
  -18.8435  -42.1274   -8.9891 C   0  0  0  0  0  0  0  0  0  0  0  0
  -16.9280  -41.3878   -7.5784 C   0  0  0  0  0  0  0  0  0  0  0  0
  -15.6969  -41.7575   -7.5702 O   0  0  0  0  0  0  0  0  0  0  0  0
  -17.1493  -40.0294   -7.3323 N   0  0  0  0  0  0  0  0  0  0  0  0
  -14.1736  -36.1865  -11.9833 C   0  0  0  0  0  0  0  0  0  0  0  0
  -13.7839  -36.4290  -13.2257 N   0  0  0  0  0  0  0  0  0  0  0  0
  -13.0567  -37.5020  -13.6078 C   0  0  0  0  0  0  0  0  0  0  0  0
  1  2  1  0
  2  3  1  0
  2  4  1  0
  4  5  1  0
  5  6  2  0
  6  7  1  0
  7  8  1  0
  8  9  1  0
  9 10  1  0
 10 11  1  0
 11 12  1  6
 11 13  1  0
 13 14  1  1
 14 15  1  0
 15 16  1  6
 15 17  1  0
 17 18  1  0
 18 19  1  0
 19 20  2  0
 20 21  1  0
 21 22  1  0
 22 23  1  0
 23 24  1  0
 24 25  1  0
 25 26  2  0
 25 27  1  0
 27 28  1  0
 27 29  1  0
 29 30  1  6
 29 31  1  0
 31 32  2  0
 31 33  1  0
  7 34  2  0
 34 35  1  0
 35 36  2  0
 33 13  1  0
 36  5  1  0
M  END
$$$$
