
     RDKit          3D

 36 37  0  0  0  0  0  0  0  0999 V2000
  -10.5641  -37.1346  -13.8131 C   0  0  0  0  0  0  0  0  0  0  0  0
  -11.7540  -36.8089  -14.7099 C   0  0  0  0  0  0  0  0  0  0  0  0
  -11.2180  -36.3977  -16.0584 C   0  0  0  0  0  0  0  0  0  0  0  0
  -12.5501  -35.6809  -14.1098 C   0  0  0  0  0  0  0  0  0  0  0  0
  -13.5837  -36.2076  -13.2068 C   0  0  0  0  0  0  0  0  0  0  0  0
  -13.3286  -36.6426  -11.9119 C   0  0  0  0  0  0  0  0  0  0  0  0
  -14.3106  -37.1238  -11.1086 C   0  0  0  0  0  0  0  0  0  0  0  0
  -14.0512  -37.5926   -9.7264 C   0  0  0  0  0  0  0  0  0  0  0  0
  -14.4113  -38.9480   -9.4818 N   0  0  0  0  0  0  0  0  0  0  0  0
  -15.6509  -39.1718   -8.8258 C   0  0  0  0  0  0  0  0  0  0  0  0
  -15.9977  -40.5753   -8.4920 C   0  0  1  0  0  0  0  0  0  0  0  0
  -15.0903  -41.2682   -7.7246 O   0  0  0  0  0  0  0  0  0  0  0  0
  -17.4454  -40.7436   -8.0007 C   0  0  2  0  0  0  0  0  0  0  0  0
  -17.9676  -39.3306   -7.7644 C   0  0  0  0  0  0  0  0  0  0  0  0
  -19.4368  -39.4161   -7.4932 C   0  0  2  0  0  0  0  0  0  0  0  0
  -20.1520  -39.2932   -8.8336 C   0  0  0  0  0  0  0  0  0  0  0  0
  -19.9337  -38.4540   -6.4805 C   0  0  0  0  0  0  0  0  0  0  0  0
  -21.4784  -38.3177   -6.6230 C   0  0  0  0  0  0  0  0  0  0  0  0
  -22.1468  -39.5363   -6.0304 C   0  0  0  0  0  0  0  0  0  0  0  0
  -23.3665  -39.8867   -5.8364 C   0  0  0  0  0  0  0  0  0  0  0  0
  -24.0256  -41.1076   -5.2402 C   0  0  0  0  0  0  0  0  0  0  0  0
  -24.1859  -42.1031   -6.3688 C   0  0  0  0  0  0  0  0  0  0  0  0
  -23.6252  -43.4660   -6.0368 C   0  0  0  0  0  0  0  0  0  0  0  0
  -22.2507  -43.6725   -6.6302 C   0  0  0  0  0  0  0  0  0  0  0  0
  -21.2522  -43.6049   -5.5538 C   0  0  0  0  0  0  0  0  0  0  0  0
  -21.6722  -44.0147   -4.4078 O   0  0  0  0  0  0  0  0  0  0  0  0
  -19.9223  -43.1597   -5.6103 N   0  0  0  0  0  0  0  0  0  0  0  0
  -19.4452  -42.2465   -4.5584 C   0  0  0  0  0  0  0  0  0  0  0  0
  -18.9308  -43.5199   -6.6163 C   0  0  1  0  0  0  0  0  0  0  0  0
  -19.4583  -43.4402   -8.0303 C   0  0  0  0  0  0  0  0  0  0  0  0
  -17.6660  -42.7759   -6.4325 C   0  0  0  0  0  0  0  0  0  0  0  0
  -16.6944  -43.4507   -5.9299 O   0  0  0  0  0  0  0  0  0  0  0  0
  -17.3802  -41.4396   -6.7280 N   0  0  0  0  0  0  0  0  0  0  0  0
  -15.6166  -37.1814  -11.6035 C   0  0  0  0  0  0  0  0  0  0  0  0
  -15.8374  -36.7616  -12.8401 N   0  0  0  0  0  0  0  0  0  0  0  0
  -14.8863  -36.2768  -13.6687 C   0  0  0  0  0  0  0  0  0  0  0  0
  1  2  1  0
  2  3  1  0
  2  4  1  0
  4  5  1  0
  5  6  2  0
  6  7  1  0
  7  8  1  0
  8  9  1  0
  9 10  1  0
 10 11  1  0
 11 12  1  1
 11 13  1  0
 13 14  1  1
 14 15  1  0
 15 16  1  6
 15 17  1  0
 17 18  1  0
 18 19  1  0
 19 20  2  0
 20 21  1  0
 21 22  1  0
 22 23  1  0
 23 24  1  0
 24 25  1  0
 25 26  2  0
 25 27  1  0
 27 28  1  0
 27 29  1  0
 29 30  1  6
 29 31  1  0
 31 32  2  0
 31 33  1  0
  7 34  2  0
 34 35  1  0
 35 36  2  0
 33 13  1  0
 36  5  1  0
M  END
$$$$
