
     RDKit          3D

 36 37  0  0  0  0  0  0  0  0999 V2000
  -10.6851  -36.3770  -13.7104 C   0  0  0  0  0  0  0  0  0  0  0  0
   -9.6997  -37.2189  -12.9064 C   0  0  0  0  0  0  0  0  0  0  0  0
   -8.3235  -36.9957  -13.4820 C   0  0  0  0  0  0  0  0  0  0  0  0
  -10.0690  -38.6745  -13.0122 C   0  0  0  0  0  0  0  0  0  0  0  0
  -11.4558  -38.8839  -12.5718 C   0  0  0  0  0  0  0  0  0  0  0  0
  -11.9057  -38.6162  -11.2846 C   0  0  0  0  0  0  0  0  0  0  0  0
  -13.1950  -38.8239  -10.9158 C   0  0  0  0  0  0  0  0  0  0  0  0
  -13.6868  -38.5443   -9.5455 C   0  0  0  0  0  0  0  0  0  0  0  0
  -15.0073  -38.0160   -9.4851 N   0  0  0  0  0  0  0  0  0  0  0  0
  -16.0527  -38.9377   -9.2118 C   0  0  0  0  0  0  0  0  0  0  0  0
  -16.5226  -39.0335   -7.8077 C   0  0  1  0  0  0  0  0  0  0  0  0
  -16.5271  -37.8669   -7.0788 O   0  0  0  0  0  0  0  0  0  0  0  0
  -17.8256  -39.8363   -7.6559 C   0  0  2  0  0  0  0  0  0  0  0  0
  -18.6862  -39.0445   -6.6773 C   0  0  0  0  0  0  0  0  0  0  0  0
  -20.0505  -39.6590   -6.6539 C   0  0  2  0  0  0  0  0  0  0  0  0
  -20.8820  -38.9547   -7.7197 C   0  0  0  0  0  0  0  0  0  0  0  0
  -20.7008  -39.6655   -5.3216 C   0  0  0  0  0  0  0  0  0  0  0  0
  -22.2317  -39.8849   -5.5037 C   0  0  0  0  0  0  0  0  0  0  0  0
  -22.4964  -41.3384   -5.8203 C   0  0  0  0  0  0  0  0  0  0  0  0
  -23.5567  -42.0417   -5.9918 C   0  0  0  0  0  0  0  0  0  0  0  0
  -23.8116  -43.4966   -6.3060 C   0  0  0  0  0  0  0  0  0  0  0  0
  -23.7926  -43.6198   -7.8144 C   0  0  0  0  0  0  0  0  0  0  0  0
  -22.8609  -44.7026   -8.3058 C   0  0  0  0  0  0  0  0  0  0  0  0
  -21.5362  -44.1422   -8.7691 C   0  0  0  0  0  0  0  0  0  0  0  0
  -20.5060  -44.4697   -7.7733 C   0  0  0  0  0  0  0  0  0  0  0  0
  -20.7031  -45.5750   -7.1431 O   0  0  0  0  0  0  0  0  0  0  0  0
  -19.3539  -43.7475   -7.4249 N   0  0  0  0  0  0  0  0  0  0  0  0
  -19.0532  -43.5573   -5.9961 C   0  0  0  0  0  0  0  0  0  0  0  0
  -18.3899  -43.1584   -8.3460 C   0  0  1  0  0  0  0  0  0  0  0  0
  -19.0360  -42.3934   -9.4781 C   0  0  0  0  0  0  0  0  0  0  0  0
  -17.3606  -42.3703   -7.6345 C   0  0  0  0  0  0  0  0  0  0  0  0
  -16.2049  -42.9252   -7.5407 O   0  0  0  0  0  0  0  0  0  0  0  0
  -17.4697  -41.1060   -7.0478 N   0  0  0  0  0  0  0  0  0  0  0  0
  -14.0936  -39.3221  -11.8634 C   0  0  0  0  0  0  0  0  0  0  0  0
  -13.6438  -39.5701  -13.0842 N   0  0  0  0  0  0  0  0  0  0  0  0
  -12.3688  -39.3762  -13.4878 C   0  0  0  0  0  0  0  0  0  0  0  0
  1  2  1  0
  2  3  1  0
  2  4  1  0
  4  5  1  0
  5  6  2  0
  6  7  1  0
  7  8  1  0
  8  9  1  0
  9 10  1  0
 10 11  1  0
 11 12  1  6
 11 13  1  0
 13 14  1  1
 14 15  1  0
 15 16  1  6
 15 17  1  0
 17 18  1  0
 18 19  1  0
 19 20  2  0
 20 21  1  0
 21 22  1  0
 22 23  1  0
 23 24  1  0
 24 25  1  0
 25 26  2  0
 25 27  1  0
 27 28  1  0
 27 29  1  0
 29 30  1  6
 29 31  1  0
 31 32  2  0
 31 33  1  0
  7 34  2  0
 34 35  1  0
 35 36  2  0
 33 13  1  0
 36  5  1  0
M  END
$$$$
