
     RDKit          3D

 36 37  0  0  0  0  0  0  0  0999 V2000
   -9.0558  -37.1659  -14.1290 C   0  0  0  0  0  0  0  0  0  0  0  0
  -10.2228  -36.4744  -13.4317 C   0  0  0  0  0  0  0  0  0  0  0  0
  -10.0486  -36.6595  -11.9449 C   0  0  0  0  0  0  0  0  0  0  0  0
  -11.5208  -37.0939  -13.8762 C   0  0  0  0  0  0  0  0  0  0  0  0
  -12.4898  -37.1005  -12.7708 C   0  0  0  0  0  0  0  0  0  0  0  0
  -12.8263  -38.2374  -12.0461 C   0  0  0  0  0  0  0  0  0  0  0  0
  -13.7273  -38.2031  -11.0320 C   0  0  0  0  0  0  0  0  0  0  0  0
  -14.0962  -39.4091  -10.2527 C   0  0  0  0  0  0  0  0  0  0  0  0
  -14.6462  -39.1401   -8.9676 N   0  0  0  0  0  0  0  0  0  0  0  0
  -15.8434  -39.8248   -8.6285 C   0  0  0  0  0  0  0  0  0  0  0  0
  -16.6085  -39.3166   -7.4632 C   0  0  1  0  0  0  0  0  0  0  0  0
  -16.6787  -37.9502   -7.3210 O   0  0  0  0  0  0  0  0  0  0  0  0
  -17.9718  -40.0055   -7.2835 C   0  0  2  0  0  0  0  0  0  0  0  0
  -18.7964  -39.0664   -6.4099 C   0  0  0  0  0  0  0  0  0  0  0  0
  -20.2032  -39.5756   -6.3771 C   0  0  2  0  0  0  0  0  0  0  0  0
  -20.9504  -38.9145   -7.5295 C   0  0  0  0  0  0  0  0  0  0  0  0
  -20.8877  -39.4119   -5.0723 C   0  0  0  0  0  0  0  0  0  0  0  0
  -22.4254  -39.5358   -5.2853 C   0  0  0  0  0  0  0  0  0  0  0  0
  -22.7900  -40.9893   -5.4783 C   0  0  0  0  0  0  0  0  0  0  0  0
  -23.8952  -41.6268   -5.6213 C   0  0  0  0  0  0  0  0  0  0  0  0
  -24.2502  -43.0822   -5.8114 C   0  0  0  0  0  0  0  0  0  0  0  0
  -24.2000  -43.3452   -7.3010 C   0  0  0  0  0  0  0  0  0  0  0  0
  -23.3395  -44.5335   -7.6612 C   0  0  0  0  0  0  0  0  0  0  0  0
  -21.9644  -44.1157   -8.1283 C   0  0  0  0  0  0  0  0  0  0  0  0
  -20.9889  -44.4235   -7.0729 C   0  0  0  0  0  0  0  0  0  0  0  0
  -21.2855  -45.4487   -6.3526 O   0  0  0  0  0  0  0  0  0  0  0  0
  -19.7956  -43.7576   -6.7525 N   0  0  0  0  0  0  0  0  0  0  0  0
  -19.5199  -43.4584   -5.3374 C   0  0  0  0  0  0  0  0  0  0  0  0
  -18.7656  -43.3275   -7.6900 C   0  0  1  0  0  0  0  0  0  0  0  0
  -19.3216  -42.6256   -8.9075 C   0  0  0  0  0  0  0  0  0  0  0  0
  -17.6994  -42.5537   -7.0181 C   0  0  0  0  0  0  0  0  0  0  0  0
  -16.5916  -43.1797   -6.8359 O   0  0  0  0  0  0  0  0  0  0  0  0
  -17.7288  -41.2360   -6.5519 N   0  0  0  0  0  0  0  0  0  0  0  0
  -14.3321  -36.9847  -10.7106 C   0  0  0  0  0  0  0  0  0  0  0  0
  -13.9967  -35.9136  -11.4139 N   0  0  0  0  0  0  0  0  0  0  0  0
  -13.1051  -35.9089  -12.4293 C   0  0  0  0  0  0  0  0  0  0  0  0
  1  2  1  0
  2  3  1  0
  2  4  1  0
  4  5  1  0
  5  6  2  0
  6  7  1  0
  7  8  1  0
  8  9  1  0
  9 10  1  0
 10 11  1  0
 11 12  1  6
 11 13  1  0
 13 14  1  1
 14 15  1  0
 15 16  1  6
 15 17  1  0
 17 18  1  0
 18 19  1  0
 19 20  2  0
 20 21  1  0
 21 22  1  0
 22 23  1  0
 23 24  1  0
 24 25  1  0
 25 26  2  0
 25 27  1  0
 27 28  1  0
 27 29  1  0
 29 30  1  6
 29 31  1  0
 31 32  2  0
 31 33  1  0
  7 34  2  0
 34 35  1  0
 35 36  2  0
 33 13  1  0
 36  5  1  0
M  END
$$$$
