
     RDKit          3D

 36 37  0  0  0  0  0  0  0  0999 V2000
  -10.0614  -37.4799  -12.4605 C   0  0  0  0  0  0  0  0  0  0  0  0
  -10.1404  -38.6012  -13.4913 C   0  0  0  0  0  0  0  0  0  0  0  0
   -9.0663  -38.3585  -14.5221 C   0  0  0  0  0  0  0  0  0  0  0  0
  -11.4939  -38.5923  -14.1505 C   0  0  0  0  0  0  0  0  0  0  0  0
  -12.5201  -39.0820  -13.2188 C   0  0  0  0  0  0  0  0  0  0  0  0
  -12.7853  -38.4979  -11.9861 C   0  0  0  0  0  0  0  0  0  0  0  0
  -13.7413  -38.9804  -11.1526 C   0  0  0  0  0  0  0  0  0  0  0  0
  -14.0324  -38.3677   -9.8345 C   0  0  0  0  0  0  0  0  0  0  0  0
  -15.3786  -37.9373   -9.6643 N   0  0  0  0  0  0  0  0  0  0  0  0
  -16.2554  -38.8307   -8.9933 C   0  0  0  0  0  0  0  0  0  0  0  0
  -17.3481  -38.2315   -8.1880 C   0  0  1  0  0  0  0  0  0  0  0  0
  -17.7717  -36.9771   -8.5613 O   0  0  0  0  0  0  0  0  0  0  0  0
  -18.5132  -39.2010   -7.9270 C   0  0  2  0  0  0  0  0  0  0  0  0
  -19.5405  -38.4058   -7.1286 C   0  0  0  0  0  0  0  0  0  0  0  0
  -20.7889  -39.2249   -7.0293 C   0  0  2  0  0  0  0  0  0  0  0  0
  -21.6629  -38.8640   -8.2248 C   0  0  0  0  0  0  0  0  0  0  0  0
  -21.5011  -39.1084   -5.7341 C   0  0  0  0  0  0  0  0  0  0  0  0
  -22.9655  -39.6073   -5.9121 C   0  0  0  0  0  0  0  0  0  0  0  0
  -22.9782  -41.1171   -5.9688 C   0  0  0  0  0  0  0  0  0  0  0  0
  -23.9022  -42.0057   -6.0376 C   0  0  0  0  0  0  0  0  0  0  0  0
  -23.9052  -43.5148   -6.0914 C   0  0  0  0  0  0  0  0  0  0  0  0
  -23.7852  -43.8926   -7.5521 C   0  0  0  0  0  0  0  0  0  0  0  0
  -22.6679  -44.8741   -7.8174 C   0  0  0  0  0  0  0  0  0  0  0  0
  -21.4260  -44.1903   -8.3406 C   0  0  0  0  0  0  0  0  0  0  0  0
  -20.4123  -44.1645   -7.2766 C   0  0  0  0  0  0  0  0  0  0  0  0
  -20.4650  -45.1611   -6.4631 O   0  0  0  0  0  0  0  0  0  0  0  0
  -19.4104  -43.2118   -7.0350 N   0  0  0  0  0  0  0  0  0  0  0  0
  -19.2215  -42.7296   -5.6566 C   0  0  0  0  0  0  0  0  0  0  0  0
  -18.5039  -42.6393   -8.0226 C   0  0  1  0  0  0  0  0  0  0  0  0
  -19.2010  -42.2001   -9.2895 C   0  0  0  0  0  0  0  0  0  0  0  0
  -17.6530  -41.5800   -7.4387 C   0  0  0  0  0  0  0  0  0  0  0  0
  -16.4305  -41.9104   -7.2179 O   0  0  0  0  0  0  0  0  0  0  0  0
  -17.9933  -40.2691   -7.0919 N   0  0  0  0  0  0  0  0  0  0  0  0
  -14.4789  -40.0989  -11.5511 C   0  0  0  0  0  0  0  0  0  0  0  0
  -14.2098  -40.6396  -12.7299 N   0  0  0  0  0  0  0  0  0  0  0  0
  -13.2667  -40.1878  -13.5857 C   0  0  0  0  0  0  0  0  0  0  0  0
  1  2  1  0
  2  3  1  0
  2  4  1  0
  4  5  1  0
  5  6  2  0
  6  7  1  0
  7  8  1  0
  8  9  1  0
  9 10  1  0
 10 11  1  0
 11 12  1  6
 11 13  1  0
 13 14  1  1
 14 15  1  0
 15 16  1  6
 15 17  1  0
 17 18  1  0
 18 19  1  0
 19 20  2  0
 20 21  1  0
 21 22  1  0
 22 23  1  0
 23 24  1  0
 24 25  1  0
 25 26  2  0
 25 27  1  0
 27 28  1  0
 27 29  1  0
 29 30  1  6
 29 31  1  0
 31 32  2  0
 31 33  1  0
  7 34  2  0
 34 35  1  0
 35 36  2  0
 33 13  1  0
 36  5  1  0
M  END
$$$$
