
     RDKit          3D

 36 37  0  0  0  0  0  0  0  0999 V2000
  -14.3484  -33.5538  -12.6377 C   0  0  0  0  0  0  0  0  0  0  0  0
  -13.4729  -34.3911  -11.7111 C   0  0  0  0  0  0  0  0  0  0  0  0
  -12.8444  -33.4613  -10.7034 C   0  0  0  0  0  0  0  0  0  0  0  0
  -12.3997  -35.0808  -12.5104 C   0  0  0  0  0  0  0  0  0  0  0  0
  -12.3833  -36.5198  -12.2106 C   0  0  0  0  0  0  0  0  0  0  0  0
  -13.5291  -37.2975  -12.0958 C   0  0  0  0  0  0  0  0  0  0  0  0
  -13.4726  -38.6243  -11.8167 C   0  0  0  0  0  0  0  0  0  0  0  0
  -14.6875  -39.4643  -11.6898 C   0  0  0  0  0  0  0  0  0  0  0  0
  -14.6808  -40.3537  -10.5783 N   0  0  0  0  0  0  0  0  0  0  0  0
  -15.7036  -40.1741   -9.6096 C   0  0  0  0  0  0  0  0  0  0  0  0
  -17.0302  -39.7248  -10.0993 C   0  0  1  0  0  0  0  0  0  0  0  0
  -17.3198  -39.9843  -11.4188 O   0  0  0  0  0  0  0  0  0  0  0  0
  -18.1847  -40.0928   -9.1521 C   0  0  2  0  0  0  0  0  0  0  0  0
  -18.7420  -38.7665   -8.6465 C   0  0  0  0  0  0  0  0  0  0  0  0
  -20.0030  -39.0484   -7.8916 C   0  0  2  0  0  0  0  0  0  0  0  0
  -21.1529  -38.9775   -8.8895 C   0  0  0  0  0  0  0  0  0  0  0  0
  -20.2140  -38.1896   -6.7016 C   0  0  0  0  0  0  0  0  0  0  0  0
  -21.7151  -38.2486   -6.2913 C   0  0  0  0  0  0  0  0  0  0  0  0
  -21.9943  -39.5606   -5.5959 C   0  0  0  0  0  0  0  0  0  0  0  0
  -23.0214  -40.0706   -5.0188 C   0  0  0  0  0  0  0  0  0  0  0  0
  -23.2904  -41.3838   -4.3233 C   0  0  0  0  0  0  0  0  0  0  0  0
  -23.7273  -42.3567   -5.3972 C   0  0  0  0  0  0  0  0  0  0  0  0
  -22.9398  -43.6457   -5.3806 C   0  0  0  0  0  0  0  0  0  0  0  0
  -21.8482  -43.6556   -6.4257 C   0  0  0  0  0  0  0  0  0  0  0  0
  -20.5487  -43.4932   -5.7587 C   0  0  0  0  0  0  0  0  0  0  0  0
  -20.4909  -43.9884   -4.5716 O   0  0  0  0  0  0  0  0  0  0  0  0
  -19.3811  -42.8792   -6.2381 N   0  0  0  0  0  0  0  0  0  0  0  0
  -18.6676  -41.9448   -5.3515 C   0  0  0  0  0  0  0  0  0  0  0  0
  -18.7738  -43.0780   -7.5482 C   0  0  1  0  0  0  0  0  0  0  0  0
  -19.7705  -43.0235   -8.6830 C   0  0  0  0  0  0  0  0  0  0  0  0
  -17.6151  -42.1835   -7.7584 C   0  0  0  0  0  0  0  0  0  0  0  0
  -16.4609  -42.7429   -7.6735 O   0  0  0  0  0  0  0  0  0  0  0  0
  -17.5999  -40.8132   -8.0352 N   0  0  0  0  0  0  0  0  0  0  0  0
  -12.2214  -39.2218  -11.6405 C   0  0  0  0  0  0  0  0  0  0  0  0
  -11.1424  -38.4622  -11.7545 N   0  0  0  0  0  0  0  0  0  0  0  0
  -11.1591  -37.1395  -12.0310 C   0  0  0  0  0  0  0  0  0  0  0  0
  1  2  1  0
  2  3  1  0
  2  4  1  0
  4  5  1  0
  5  6  2  0
  6  7  1  0
  7  8  1  0
  8  9  1  0
  9 10  1  0
 10 11  1  0
 11 12  1  6
 11 13  1  0
 13 14  1  1
 14 15  1  0
 15 16  1  6
 15 17  1  0
 17 18  1  0
 18 19  1  0
 19 20  2  0
 20 21  1  0
 21 22  1  0
 22 23  1  0
 23 24  1  0
 24 25  1  0
 25 26  2  0
 25 27  1  0
 27 28  1  0
 27 29  1  0
 29 30  1  6
 29 31  1  0
 31 32  2  0
 31 33  1  0
  7 34  2  0
 34 35  1  0
 35 36  2  0
 33 13  1  0
 36  5  1  0
M  END
$$$$
