
     RDKit          3D

 36 37  0  0  0  0  0  0  0  0999 V2000
  -11.5335  -36.0165  -14.1688 C   0  0  0  0  0  0  0  0  0  0  0  0
  -12.2478  -35.0851  -13.1949 C   0  0  0  0  0  0  0  0  0  0  0  0
  -11.4869  -35.1058  -11.8927 C   0  0  0  0  0  0  0  0  0  0  0  0
  -13.6571  -35.5652  -12.9721 C   0  0  0  0  0  0  0  0  0  0  0  0
  -13.6760  -37.0213  -12.7714 C   0  0  0  0  0  0  0  0  0  0  0  0
  -13.4792  -37.6333  -11.5394 C   0  0  0  0  0  0  0  0  0  0  0  0
  -13.5030  -38.9823  -11.3948 C   0  0  0  0  0  0  0  0  0  0  0  0
  -13.2925  -39.6473  -10.0867 C   0  0  0  0  0  0  0  0  0  0  0  0
  -14.0795  -39.1249   -9.0217 N   0  0  0  0  0  0  0  0  0  0  0  0
  -15.4249  -39.5727   -8.9416 C   0  0  0  0  0  0  0  0  0  0  0  0
  -16.4418  -38.5887   -8.4951 C   0  0  1  0  0  0  0  0  0  0  0  0
  -16.6698  -37.5178   -9.3279 O   0  0  0  0  0  0  0  0  0  0  0  0
  -17.7410  -39.2417   -7.9942 C   0  0  2  0  0  0  0  0  0  0  0  0
  -18.4170  -38.1943   -7.1160 C   0  0  0  0  0  0  0  0  0  0  0  0
  -19.7877  -38.6876   -6.7736 C   0  0  2  0  0  0  0  0  0  0  0  0
  -20.7352  -38.1750   -7.8519 C   0  0  0  0  0  0  0  0  0  0  0  0
  -20.2374  -38.3550   -5.4006 C   0  0  0  0  0  0  0  0  0  0  0  0
  -21.7863  -38.4967   -5.3242 C   0  0  0  0  0  0  0  0  0  0  0  0
  -22.1541  -39.9610   -5.2649 C   0  0  0  0  0  0  0  0  0  0  0  0
  -23.2563  -40.6055   -5.1306 C   0  0  0  0  0  0  0  0  0  0  0  0
  -23.6141  -42.0714   -5.0699 C   0  0  0  0  0  0  0  0  0  0  0  0
  -23.8194  -42.5227   -6.4999 C   0  0  0  0  0  0  0  0  0  0  0  0
  -23.0146  -43.7518   -6.8515 C   0  0  0  0  0  0  0  0  0  0  0  0
  -21.7491  -43.4045   -7.6009 C   0  0  0  0  0  0  0  0  0  0  0  0
  -20.5997  -43.5803   -6.7019 C   0  0  0  0  0  0  0  0  0  0  0  0
  -20.7489  -44.5036   -5.8169 O   0  0  0  0  0  0  0  0  0  0  0  0
  -19.3804  -42.8854   -6.6818 N   0  0  0  0  0  0  0  0  0  0  0  0
  -18.8678  -42.4096   -5.3861 C   0  0  0  0  0  0  0  0  0  0  0  0
  -18.5368  -42.5840   -7.8317 C   0  0  1  0  0  0  0  0  0  0  0  0
  -19.3080  -42.0403   -9.0122 C   0  0  0  0  0  0  0  0  0  0  0  0
  -17.3832  -41.7366   -7.4600 C   0  0  0  0  0  0  0  0  0  0  0  0
  -16.2502  -42.3402   -7.3964 O   0  0  0  0  0  0  0  0  0  0  0  0
  -17.3535  -40.3700   -7.1665 N   0  0  0  0  0  0  0  0  0  0  0  0
  -13.7333  -39.7757  -12.5223 C   0  0  0  0  0  0  0  0  0  0  0  0
  -13.9186  -39.1718  -13.6864 N   0  0  0  0  0  0  0  0  0  0  0  0
  -13.9018  -37.8330  -13.8692 C   0  0  0  0  0  0  0  0  0  0  0  0
  1  2  1  0
  2  3  1  0
  2  4  1  0
  4  5  1  0
  5  6  2  0
  6  7  1  0
  7  8  1  0
  8  9  1  0
  9 10  1  0
 10 11  1  0
 11 12  1  6
 11 13  1  0
 13 14  1  1
 14 15  1  0
 15 16  1  6
 15 17  1  0
 17 18  1  0
 18 19  1  0
 19 20  2  0
 20 21  1  0
 21 22  1  0
 22 23  1  0
 23 24  1  0
 24 25  1  0
 25 26  2  0
 25 27  1  0
 27 28  1  0
 27 29  1  0
 29 30  1  6
 29 31  1  0
 31 32  2  0
 31 33  1  0
  7 34  2  0
 34 35  1  0
 35 36  2  0
 33 13  1  0
 36  5  1  0
M  END
$$$$
