
     RDKit          3D

 36 37  0  0  0  0  0  0  0  0999 V2000
  -14.6510  -33.6924  -12.4643 C   0  0  0  0  0  0  0  0  0  0  0  0
  -13.1880  -33.9011  -12.0872 C   0  0  0  0  0  0  0  0  0  0  0  0
  -12.4652  -32.5941  -12.2974 C   0  0  0  0  0  0  0  0  0  0  0  0
  -12.5838  -34.9668  -12.9622 C   0  0  0  0  0  0  0  0  0  0  0  0
  -13.0742  -36.2943  -12.5645 C   0  0  0  0  0  0  0  0  0  0  0  0
  -13.3003  -36.6706  -11.2461 C   0  0  0  0  0  0  0  0  0  0  0  0
  -13.7530  -37.9073  -10.9189 C   0  0  0  0  0  0  0  0  0  0  0  0
  -13.9962  -38.3216   -9.5165 C   0  0  0  0  0  0  0  0  0  0  0  0
  -15.3616  -38.2860   -9.1152 N   0  0  0  0  0  0  0  0  0  0  0  0
  -15.6711  -38.8516   -7.8498 C   0  0  0  0  0  0  0  0  0  0  0  0
  -15.8918  -40.3179   -7.7981 C   0  0  1  0  0  0  0  0  0  0  0  0
  -15.0683  -41.0356   -6.9621 O   0  0  0  0  0  0  0  0  0  0  0  0
  -17.3731  -40.7052   -7.6523 C   0  0  2  0  0  0  0  0  0  0  0  0
  -18.0922  -39.4307   -7.2235 C   0  0  0  0  0  0  0  0  0  0  0  0
  -19.5656  -39.6875   -7.2743 C   0  0  2  0  0  0  0  0  0  0  0  0
  -20.0432  -39.3065   -8.6707 C   0  0  0  0  0  0  0  0  0  0  0  0
  -20.3432  -39.0310   -6.1961 C   0  0  0  0  0  0  0  0  0  0  0  0
  -21.8439  -38.9811   -6.6092 C   0  0  0  0  0  0  0  0  0  0  0  0
  -22.4571  -40.3515   -6.4397 C   0  0  0  0  0  0  0  0  0  0  0  0
  -23.6418  -40.8281   -6.5722 C   0  0  0  0  0  0  0  0  0  0  0  0
  -24.2463  -42.2009   -6.3979 C   0  0  0  0  0  0  0  0  0  0  0  0
  -24.0865  -42.9119   -7.7244 C   0  0  0  0  0  0  0  0  0  0  0  0
  -23.4357  -44.2687   -7.5914 C   0  0  0  0  0  0  0  0  0  0  0  0
  -21.9637  -44.2261   -7.9307 C   0  0  0  0  0  0  0  0  0  0  0  0
  -21.1853  -44.3392   -6.6892 C   0  0  0  0  0  0  0  0  0  0  0  0
  -21.7489  -45.0375   -5.7659 O   0  0  0  0  0  0  0  0  0  0  0  0
  -19.9283  -43.7948   -6.3828 N   0  0  0  0  0  0  0  0  0  0  0  0
  -19.7552  -43.1217   -5.0847 C   0  0  0  0  0  0  0  0  0  0  0  0
  -18.7398  -43.8326   -7.2258 C   0  0  1  0  0  0  0  0  0  0  0  0
  -19.0159  -43.4620   -8.6647 C   0  0  0  0  0  0  0  0  0  0  0  0
  -17.6242  -43.0601   -6.6379 C   0  0  0  0  0  0  0  0  0  0  0  0
  -16.6832  -43.7596   -6.1111 O   0  0  0  0  0  0  0  0  0  0  0  0
  -17.4510  -41.6743   -6.5738 N   0  0  0  0  0  0  0  0  0  0  0  0
  -13.9980  -38.8266  -11.9430 C   0  0  0  0  0  0  0  0  0  0  0  0
  -13.7760  -38.4470  -13.1923 N   0  0  0  0  0  0  0  0  0  0  0  0
  -13.3259  -37.2259  -13.5564 C   0  0  0  0  0  0  0  0  0  0  0  0
  1  2  1  0
  2  3  1  0
  2  4  1  0
  4  5  1  0
  5  6  2  0
  6  7  1  0
  7  8  1  0
  8  9  1  0
  9 10  1  0
 10 11  1  0
 11 12  1  1
 11 13  1  0
 13 14  1  1
 14 15  1  0
 15 16  1  6
 15 17  1  0
 17 18  1  0
 18 19  1  0
 19 20  2  0
 20 21  1  0
 21 22  1  0
 22 23  1  0
 23 24  1  0
 24 25  1  0
 25 26  2  0
 25 27  1  0
 27 28  1  0
 27 29  1  0
 29 30  1  6
 29 31  1  0
 31 32  2  0
 31 33  1  0
  7 34  2  0
 34 35  1  0
 35 36  2  0
 33 13  1  0
 36  5  1  0
M  END
$$$$
