
     RDKit          3D

 36 37  0  0  0  0  0  0  0  0999 V2000
   -9.6525  -36.9772  -13.9418 C   0  0  0  0  0  0  0  0  0  0  0  0
  -10.8612  -36.9137  -13.0137 C   0  0  0  0  0  0  0  0  0  0  0  0
  -10.8472  -38.1507  -12.1508 C   0  0  0  0  0  0  0  0  0  0  0  0
  -12.1267  -36.8718  -13.8281 C   0  0  0  0  0  0  0  0  0  0  0  0
  -13.2787  -36.5648  -12.9681 C   0  0  0  0  0  0  0  0  0  0  0  0
  -13.4049  -37.0113  -11.6583 C   0  0  0  0  0  0  0  0  0  0  0  0
  -14.4855  -36.7072  -10.8959 C   0  0  0  0  0  0  0  0  0  0  0  0
  -14.6329  -37.1789   -9.4983 C   0  0  0  0  0  0  0  0  0  0  0  0
  -14.3927  -38.5697   -9.3127 N   0  0  0  0  0  0  0  0  0  0  0  0
  -15.4889  -39.3536   -8.8645 C   0  0  0  0  0  0  0  0  0  0  0  0
  -16.3623  -38.7637   -7.8200 C   0  0  1  0  0  0  0  0  0  0  0  0
  -16.6689  -37.4295   -7.9549 O   0  0  0  0  0  0  0  0  0  0  0  0
  -17.5923  -39.6284   -7.4964 C   0  0  2  0  0  0  0  0  0  0  0  0
  -18.3213  -38.9033   -6.3703 C   0  0  0  0  0  0  0  0  0  0  0  0
  -19.6395  -39.5791   -6.1576 C   0  0  2  0  0  0  0  0  0  0  0  0
  -20.6544  -38.8840   -7.0576 C   0  0  0  0  0  0  0  0  0  0  0  0
  -20.0736  -39.6515   -4.7418 C   0  0  0  0  0  0  0  0  0  0  0  0
  -21.6041  -39.9346   -4.6928 C   0  0  0  0  0  0  0  0  0  0  0  0
  -21.8562  -41.3893   -5.0142 C   0  0  0  0  0  0  0  0  0  0  0  0
  -22.9010  -42.1347   -5.0439 C   0  0  0  0  0  0  0  0  0  0  0  0
  -23.1429  -43.5904   -5.3645 C   0  0  0  0  0  0  0  0  0  0  0  0
  -23.3540  -43.6712   -6.8610 C   0  0  0  0  0  0  0  0  0  0  0  0
  -22.4674  -44.6970   -7.5270 C   0  0  0  0  0  0  0  0  0  0  0  0
  -21.2545  -44.0649   -8.1699 C   0  0  0  0  0  0  0  0  0  0  0  0
  -20.0696  -44.3729   -7.3568 C   0  0  0  0  0  0  0  0  0  0  0  0
  -20.1215  -45.5028   -6.7418 O   0  0  0  0  0  0  0  0  0  0  0  0
  -18.9074  -43.6094   -7.1659 N   0  0  0  0  0  0  0  0  0  0  0  0
  -18.3957  -43.4451   -5.7950 C   0  0  0  0  0  0  0  0  0  0  0  0
  -18.1230  -42.9523   -8.2041 C   0  0  1  0  0  0  0  0  0  0  0  0
  -18.9677  -42.1864   -9.1961 C   0  0  0  0  0  0  0  0  0  0  0  0
  -17.0280  -42.1385   -7.6335 C   0  0  0  0  0  0  0  0  0  0  0  0
  -15.8504  -42.6430   -7.7383 O   0  0  0  0  0  0  0  0  0  0  0  0
  -17.0953  -40.8969   -6.9943 N   0  0  0  0  0  0  0  0  0  0  0  0
  -15.4993  -35.9203  -11.4497 C   0  0  0  0  0  0  0  0  0  0  0  0
  -15.3586  -35.5053  -12.6996 N   0  0  0  0  0  0  0  0  0  0  0  0
  -14.2985  -35.7876  -13.4887 C   0  0  0  0  0  0  0  0  0  0  0  0
  1  2  1  0
  2  3  1  0
  2  4  1  0
  4  5  1  0
  5  6  2  0
  6  7  1  0
  7  8  1  0
  8  9  1  0
  9 10  1  0
 10 11  1  0
 11 12  1  6
 11 13  1  0
 13 14  1  1
 14 15  1  0
 15 16  1  6
 15 17  1  0
 17 18  1  0
 18 19  1  0
 19 20  2  0
 20 21  1  0
 21 22  1  0
 22 23  1  0
 23 24  1  0
 24 25  1  0
 25 26  2  0
 25 27  1  0
 27 28  1  0
 27 29  1  0
 29 30  1  1
 29 31  1  0
 31 32  2  0
 31 33  1  0
  7 34  2  0
 34 35  1  0
 35 36  2  0
 33 13  1  0
 36  5  1  0
M  END
$$$$
