
     RDKit          3D

 36 37  0  0  0  0  0  0  0  0999 V2000
  -13.3873  -33.9185  -13.3282 C   0  0  0  0  0  0  0  0  0  0  0  0
  -13.1969  -35.3071  -12.7268 C   0  0  0  0  0  0  0  0  0  0  0  0
  -11.7410  -35.4579  -12.3627 C   0  0  0  0  0  0  0  0  0  0  0  0
  -13.5837  -36.3559  -13.7351 C   0  0  0  0  0  0  0  0  0  0  0  0
  -13.5839  -37.6881  -13.1135 C   0  0  0  0  0  0  0  0  0  0  0  0
  -13.4029  -37.9050  -11.7529 C   0  0  0  0  0  0  0  0  0  0  0  0
  -13.4085  -39.1515  -11.2166 C   0  0  0  0  0  0  0  0  0  0  0  0
  -13.2146  -39.3963   -9.7674 C   0  0  0  0  0  0  0  0  0  0  0  0
  -14.1640  -38.7526   -8.9244 N   0  0  0  0  0  0  0  0  0  0  0  0
  -15.4556  -39.3386   -8.8519 C   0  0  0  0  0  0  0  0  0  0  0  0
  -16.4003  -38.7769   -7.8551 C   0  0  1  0  0  0  0  0  0  0  0  0
  -16.6310  -37.4223   -7.9203 O   0  0  0  0  0  0  0  0  0  0  0  0
  -17.6944  -39.5960   -7.7146 C   0  0  2  0  0  0  0  0  0  0  0  0
  -18.6610  -38.7098   -6.9365 C   0  0  0  0  0  0  0  0  0  0  0  0
  -20.0079  -39.3617   -6.9541 C   0  0  2  0  0  0  0  0  0  0  0  0
  -20.7489  -38.8356   -8.1778 C   0  0  0  0  0  0  0  0  0  0  0  0
  -20.7818  -39.2115   -5.6985 C   0  0  0  0  0  0  0  0  0  0  0  0
  -22.2834  -39.5054   -5.9881 C   0  0  0  0  0  0  0  0  0  0  0  0
  -22.4857  -40.9964   -6.1258 C   0  0  0  0  0  0  0  0  0  0  0  0
  -23.5096  -41.7520   -6.2957 C   0  0  0  0  0  0  0  0  0  0  0  0
  -23.7024  -43.2437   -6.4299 C   0  0  0  0  0  0  0  0  0  0  0  0
  -23.5372  -43.5675   -7.8991 C   0  0  0  0  0  0  0  0  0  0  0  0
  -22.5401  -44.6741   -8.1505 C   0  0  0  0  0  0  0  0  0  0  0  0
  -21.1894  -44.1362   -8.5630 C   0  0  0  0  0  0  0  0  0  0  0  0
  -20.2521  -44.2918   -7.4418 C   0  0  0  0  0  0  0  0  0  0  0  0
  -20.4847  -45.3086   -6.6869 O   0  0  0  0  0  0  0  0  0  0  0  0
  -19.1541  -43.4906   -7.0915 N   0  0  0  0  0  0  0  0  0  0  0  0
  -18.9949  -43.1002   -5.6808 C   0  0  0  0  0  0  0  0  0  0  0  0
  -18.1195  -42.9979   -7.9925 C   0  0  1  0  0  0  0  0  0  0  0  0
  -18.6709  -42.4142   -9.2729 C   0  0  0  0  0  0  0  0  0  0  0  0
  -17.1796  -42.0869   -7.3043 C   0  0  0  0  0  0  0  0  0  0  0  0
  -16.0265  -42.5844   -7.0302 O   0  0  0  0  0  0  0  0  0  0  0  0
  -17.3710  -40.7597   -6.9086 N   0  0  0  0  0  0  0  0  0  0  0  0
  -13.6030  -40.2469  -12.0628 C   0  0  0  0  0  0  0  0  0  0  0  0
  -13.7737  -40.0174  -13.3560 N   0  0  0  0  0  0  0  0  0  0  0  0
  -13.7742  -38.7921  -13.9259 C   0  0  0  0  0  0  0  0  0  0  0  0
  1  2  1  0
  2  3  1  0
  2  4  1  0
  4  5  1  0
  5  6  2  0
  6  7  1  0
  7  8  1  0
  8  9  1  0
  9 10  1  0
 10 11  1  0
 11 12  1  6
 11 13  1  0
 13 14  1  1
 14 15  1  0
 15 16  1  6
 15 17  1  0
 17 18  1  0
 18 19  1  0
 19 20  2  0
 20 21  1  0
 21 22  1  0
 22 23  1  0
 23 24  1  0
 24 25  1  0
 25 26  2  0
 25 27  1  0
 27 28  1  0
 27 29  1  0
 29 30  1  6
 29 31  1  0
 31 32  2  0
 31 33  1  0
  7 34  2  0
 34 35  1  0
 35 36  2  0
 33 13  1  0
 36  5  1  0
M  END
$$$$
