
     RDKit          3D

 36 37  0  0  0  0  0  0  0  0999 V2000
  -12.2923  -33.7440  -13.0848 C   0  0  0  0  0  0  0  0  0  0  0  0
  -12.2657  -35.2605  -12.9242 C   0  0  0  0  0  0  0  0  0  0  0  0
  -11.5710  -35.8413  -14.1304 C   0  0  0  0  0  0  0  0  0  0  0  0
  -13.6731  -35.7883  -12.8404 C   0  0  0  0  0  0  0  0  0  0  0  0
  -13.6625  -37.2371  -12.5917 C   0  0  0  0  0  0  0  0  0  0  0  0
  -13.3737  -37.8063  -11.3574 C   0  0  0  0  0  0  0  0  0  0  0  0
  -13.3730  -39.1500  -11.1678 C   0  0  0  0  0  0  0  0  0  0  0  0
  -13.0647  -39.7695   -9.8568 C   0  0  0  0  0  0  0  0  0  0  0  0
  -14.1173  -40.5567   -9.3100 N   0  0  0  0  0  0  0  0  0  0  0  0
  -15.4341  -40.0400   -9.4365 C   0  0  0  0  0  0  0  0  0  0  0  0
  -16.0413  -39.4276   -8.2290 C   0  0  1  0  0  0  0  0  0  0  0  0
  -15.9646  -38.0578   -8.1284 O   0  0  0  0  0  0  0  0  0  0  0  0
  -17.4446  -39.9711   -7.9118 C   0  0  2  0  0  0  0  0  0  0  0  0
  -18.1759  -38.8361   -7.2032 C   0  0  0  0  0  0  0  0  0  0  0  0
  -19.6139  -39.2254   -7.0612 C   0  0  2  0  0  0  0  0  0  0  0  0
  -20.3438  -38.7194   -8.2999 C   0  0  0  0  0  0  0  0  0  0  0  0
  -20.2487  -38.7878   -5.7948 C   0  0  0  0  0  0  0  0  0  0  0  0
  -21.7966  -38.8313   -5.9601 C   0  0  0  0  0  0  0  0  0  0  0  0
  -22.2688  -40.2648   -5.8912 C   0  0  0  0  0  0  0  0  0  0  0  0
  -23.4200  -40.8329   -5.9044 C   0  0  0  0  0  0  0  0  0  0  0  0
  -23.8828  -42.2686   -5.8324 C   0  0  0  0  0  0  0  0  0  0  0  0
  -23.8926  -42.7882   -7.2539 C   0  0  0  0  0  0  0  0  0  0  0  0
  -23.1290  -44.0818   -7.4141 C   0  0  0  0  0  0  0  0  0  0  0  0
  -21.7411  -43.8551   -7.9673 C   0  0  0  0  0  0  0  0  0  0  0  0
  -20.7612  -44.0480   -6.8890 C   0  0  0  0  0  0  0  0  0  0  0  0
  -21.1098  -44.9081   -5.9966 O   0  0  0  0  0  0  0  0  0  0  0  0
  -19.5151  -43.4279   -6.7073 N   0  0  0  0  0  0  0  0  0  0  0  0
  -19.1799  -42.9101   -5.3704 C   0  0  0  0  0  0  0  0  0  0  0  0
  -18.4835  -43.2445   -7.7207 C   0  0  1  0  0  0  0  0  0  0  0  0
  -19.0216  -42.7241   -9.0336 C   0  0  0  0  0  0  0  0  0  0  0  0
  -17.3468  -42.4482   -7.2100 C   0  0  0  0  0  0  0  0  0  0  0  0
  -16.2817  -43.1144   -6.9379 O   0  0  0  0  0  0  0  0  0  0  0  0
  -17.2696  -41.0713   -6.9804 N   0  0  0  0  0  0  0  0  0  0  0  0
  -13.6729  -39.9821  -12.2501 C   0  0  0  0  0  0  0  0  0  0  0  0
  -13.9453  -39.4186  -13.4174 N   0  0  0  0  0  0  0  0  0  0  0  0
  -13.9555  -38.0864  -13.6442 C   0  0  0  0  0  0  0  0  0  0  0  0
  1  2  1  0
  2  3  1  0
  2  4  1  0
  4  5  1  0
  5  6  2  0
  6  7  1  0
  7  8  1  0
  8  9  1  0
  9 10  1  0
 10 11  1  0
 11 12  1  6
 11 13  1  0
 13 14  1  1
 14 15  1  0
 15 16  1  6
 15 17  1  0
 17 18  1  0
 18 19  1  0
 19 20  2  0
 20 21  1  0
 21 22  1  0
 22 23  1  0
 23 24  1  0
 24 25  1  0
 25 26  2  0
 25 27  1  0
 27 28  1  0
 27 29  1  0
 29 30  1  6
 29 31  1  0
 31 32  2  0
 31 33  1  0
  7 34  2  0
 34 35  1  0
 35 36  2  0
 33 13  1  0
 36  5  1  0
M  END
$$$$
