
     RDKit          3D

 36 37  0  0  0  0  0  0  0  0999 V2000
  -10.8118  -35.5383  -13.1178 C   0  0  0  0  0  0  0  0  0  0  0  0
  -11.0269  -36.8751  -13.8200 C   0  0  0  0  0  0  0  0  0  0  0  0
  -10.3687  -36.7971  -15.1748 C   0  0  0  0  0  0  0  0  0  0  0  0
  -12.5011  -37.1341  -13.9810 C   0  0  0  0  0  0  0  0  0  0  0  0
  -13.1757  -37.0809  -12.6760 C   0  0  0  0  0  0  0  0  0  0  0  0
  -13.0391  -38.0565  -11.6961 C   0  0  0  0  0  0  0  0  0  0  0  0
  -13.6799  -37.9719  -10.5029 C   0  0  0  0  0  0  0  0  0  0  0  0
  -13.5440  -39.0069   -9.4503 C   0  0  0  0  0  0  0  0  0  0  0  0
  -14.4164  -40.1220   -9.5981 N   0  0  0  0  0  0  0  0  0  0  0  0
  -15.8077  -39.8667   -9.4709 C   0  0  0  0  0  0  0  0  0  0  0  0
  -16.3085  -39.4939   -8.1249 C   0  0  1  0  0  0  0  0  0  0  0  0
  -16.2836  -38.1556   -7.8074 O   0  0  0  0  0  0  0  0  0  0  0  0
  -17.6435  -40.1673   -7.7648 C   0  0  2  0  0  0  0  0  0  0  0  0
  -18.3708  -39.1816   -6.8566 C   0  0  0  0  0  0  0  0  0  0  0  0
  -19.7651  -39.6829   -6.6468 C   0  0  2  0  0  0  0  0  0  0  0  0
  -20.6329  -39.0784   -7.7444 C   0  0  0  0  0  0  0  0  0  0  0  0
  -20.3055  -39.4502   -5.2860 C   0  0  0  0  0  0  0  0  0  0  0  0
  -21.8569  -39.5786   -5.3258 C   0  0  0  0  0  0  0  0  0  0  0  0
  -22.2380  -41.0386   -5.4040 C   0  0  0  0  0  0  0  0  0  0  0  0
  -23.3512  -41.6781   -5.3945 C   0  0  0  0  0  0  0  0  0  0  0  0
  -23.7224  -43.1399   -5.4708 C   0  0  0  0  0  0  0  0  0  0  0  0
  -23.8324  -43.4787   -6.9418 C   0  0  0  0  0  0  0  0  0  0  0  0
  -23.0138  -44.6871   -7.3312 C   0  0  0  0  0  0  0  0  0  0  0  0
  -21.6975  -44.2992   -7.9642 C   0  0  0  0  0  0  0  0  0  0  0  0
  -20.6137  -44.5567   -7.0055 C   0  0  0  0  0  0  0  0  0  0  0  0
  -20.8295  -45.5427   -6.2060 O   0  0  0  0  0  0  0  0  0  0  0  0
  -19.3939  -43.8801   -6.8496 N   0  0  0  0  0  0  0  0  0  0  0  0
  -18.9680  -43.5104   -5.4895 C   0  0  0  0  0  0  0  0  0  0  0  0
  -18.4714  -43.5024   -7.9132 C   0  0  1  0  0  0  0  0  0  0  0  0
  -19.1562  -42.8613   -9.0981 C   0  0  0  0  0  0  0  0  0  0  0  0
  -17.3403  -42.6997   -7.4003 C   0  0  0  0  0  0  0  0  0  0  0  0
  -16.2184  -43.3200   -7.3065 O   0  0  0  0  0  0  0  0  0  0  0  0
  -17.3214  -41.3598   -7.0016 N   0  0  0  0  0  0  0  0  0  0  0  0
  -14.5009  -36.8676  -10.2573 C   0  0  0  0  0  0  0  0  0  0  0  0
  -14.6166  -35.9495  -11.2048 N   0  0  0  0  0  0  0  0  0  0  0  0
  -13.9951  -35.9995  -12.4037 C   0  0  0  0  0  0  0  0  0  0  0  0
  1  2  1  0
  2  3  1  0
  2  4  1  0
  4  5  1  0
  5  6  2  0
  6  7  1  0
  7  8  1  0
  8  9  1  0
  9 10  1  0
 10 11  1  0
 11 12  1  6
 11 13  1  0
 13 14  1  1
 14 15  1  0
 15 16  1  6
 15 17  1  0
 17 18  1  0
 18 19  1  0
 19 20  2  0
 20 21  1  0
 21 22  1  0
 22 23  1  0
 23 24  1  0
 24 25  1  0
 25 26  2  0
 25 27  1  0
 27 28  1  0
 27 29  1  0
 29 30  1  6
 29 31  1  0
 31 32  2  0
 31 33  1  0
  7 34  2  0
 34 35  1  0
 35 36  2  0
 33 13  1  0
 36  5  1  0
M  END
$$$$
