
     RDKit          3D

 36 37  0  0  0  0  0  0  0  0999 V2000
  -11.0515  -38.6777  -15.2821 C   0  0  0  0  0  0  0  0  0  0  0  0
  -11.3254  -39.9529  -14.4914 C   0  0  0  0  0  0  0  0  0  0  0  0
  -10.9451  -41.1262  -15.3596 C   0  0  0  0  0  0  0  0  0  0  0  0
  -12.7870  -40.0293  -14.1389 C   0  0  0  0  0  0  0  0  0  0  0  0
  -13.1693  -38.8905  -13.2917 C   0  0  0  0  0  0  0  0  0  0  0  0
  -13.1026  -38.9042  -11.9038 C   0  0  0  0  0  0  0  0  0  0  0  0
  -13.4659  -37.8318  -11.1558 C   0  0  0  0  0  0  0  0  0  0  0  0
  -13.4012  -37.8346   -9.6748 C   0  0  0  0  0  0  0  0  0  0  0  0
  -14.5768  -37.3587   -9.0284 N   0  0  0  0  0  0  0  0  0  0  0  0
  -15.6034  -38.3099   -8.7870 C   0  0  0  0  0  0  0  0  0  0  0  0
  -16.7385  -37.8809   -7.9333 C   0  0  1  0  0  0  0  0  0  0  0  0
  -17.2197  -36.6091   -8.1417 O   0  0  0  0  0  0  0  0  0  0  0  0
  -17.8565  -38.9325   -7.8343 C   0  0  2  0  0  0  0  0  0  0  0  0
  -18.8772  -38.3586   -6.8576 C   0  0  0  0  0  0  0  0  0  0  0  0
  -20.0905  -39.2341   -6.8837 C   0  0  2  0  0  0  0  0  0  0  0  0
  -21.0258  -38.6790   -7.9515 C   0  0  0  0  0  0  0  0  0  0  0  0
  -20.7517  -39.4105   -5.5684 C   0  0  0  0  0  0  0  0  0  0  0  0
  -22.2036  -39.9264   -5.7940 C   0  0  0  0  0  0  0  0  0  0  0  0
  -22.1650  -41.3933   -6.1540 C   0  0  0  0  0  0  0  0  0  0  0  0
  -23.0589  -42.2891   -6.3696 C   0  0  0  0  0  0  0  0  0  0  0  0
  -23.0105  -43.7555   -6.7270 C   0  0  0  0  0  0  0  0  0  0  0  0
  -22.9382  -43.8272   -8.2371 C   0  0  0  0  0  0  0  0  0  0  0  0
  -21.7989  -44.6865   -8.7327 C   0  0  0  0  0  0  0  0  0  0  0  0
  -20.6049  -43.8586   -9.1486 C   0  0  0  0  0  0  0  0  0  0  0  0
  -19.5493  -44.0029   -8.1362 C   0  0  0  0  0  0  0  0  0  0  0  0
  -19.5326  -45.1437   -7.5394 O   0  0  0  0  0  0  0  0  0  0  0  0
  -18.5726  -43.0756   -7.7410 N   0  0  0  0  0  0  0  0  0  0  0  0
  -18.3436  -42.8718   -6.3008 C   0  0  0  0  0  0  0  0  0  0  0  0
  -17.7290  -42.2781   -8.6226 C   0  0  1  0  0  0  0  0  0  0  0  0
  -18.4936  -41.6244   -9.7505 C   0  0  0  0  0  0  0  0  0  0  0  0
  -16.8927  -41.3216   -7.8659 C   0  0  0  0  0  0  0  0  0  0  0  0
  -15.6511  -41.6365   -7.7577 O   0  0  0  0  0  0  0  0  0  0  0  0
  -17.2646  -40.1228   -7.2501 N   0  0  0  0  0  0  0  0  0  0  0  0
  -13.9201  -36.6810  -11.8062 C   0  0  0  0  0  0  0  0  0  0  0  0
  -13.9755  -36.6895  -13.1295 N   0  0  0  0  0  0  0  0  0  0  0  0
  -13.6228  -37.7369  -13.9071 C   0  0  0  0  0  0  0  0  0  0  0  0
  1  2  1  0
  2  3  1  0
  2  4  1  0
  4  5  1  0
  5  6  2  0
  6  7  1  0
  7  8  1  0
  8  9  1  0
  9 10  1  0
 10 11  1  0
 11 12  1  6
 11 13  1  0
 13 14  1  1
 14 15  1  0
 15 16  1  6
 15 17  1  0
 17 18  1  0
 18 19  1  0
 19 20  2  0
 20 21  1  0
 21 22  1  0
 22 23  1  0
 23 24  1  0
 24 25  1  0
 25 26  2  0
 25 27  1  0
 27 28  1  0
 27 29  1  0
 29 30  1  6
 29 31  1  0
 31 32  2  0
 31 33  1  0
  7 34  2  0
 34 35  1  0
 35 36  2  0
 33 13  1  0
 36  5  1  0
M  END
$$$$
