
     RDKit          3D

 36 37  0  0  0  0  0  0  0  0999 V2000
  -10.3316  -34.9891  -13.1170 C   0  0  0  0  0  0  0  0  0  0  0  0
  -11.1981  -36.2436  -13.1566 C   0  0  0  0  0  0  0  0  0  0  0  0
  -11.0444  -36.8692  -14.5204 C   0  0  0  0  0  0  0  0  0  0  0  0
  -12.6387  -35.8749  -12.9218 C   0  0  0  0  0  0  0  0  0  0  0  0
  -13.3965  -37.0442  -12.4536 C   0  0  0  0  0  0  0  0  0  0  0  0
  -13.0971  -37.7429  -11.2903 C   0  0  0  0  0  0  0  0  0  0  0  0
  -13.8207  -38.8194  -10.8916 C   0  0  0  0  0  0  0  0  0  0  0  0
  -13.5103  -39.5742   -9.6541 C   0  0  0  0  0  0  0  0  0  0  0  0
  -14.3156  -39.2309   -8.5316 N   0  0  0  0  0  0  0  0  0  0  0  0
  -15.6203  -39.7902   -8.4858 C   0  0  0  0  0  0  0  0  0  0  0  0
  -16.6982  -38.9505   -7.9074 C   0  0  1  0  0  0  0  0  0  0  0  0
  -16.9830  -37.7757   -8.5640 O   0  0  0  0  0  0  0  0  0  0  0  0
  -17.9602  -39.7490   -7.5399 C   0  0  2  0  0  0  0  0  0  0  0  0
  -18.7375  -38.8676   -6.5682 C   0  0  0  0  0  0  0  0  0  0  0  0
  -20.0777  -39.4936   -6.3413 C   0  0  2  0  0  0  0  0  0  0  0  0
  -21.0278  -38.9189   -7.3856 C   0  0  0  0  0  0  0  0  0  0  0  0
  -20.5915  -39.3651   -4.9566 C   0  0  0  0  0  0  0  0  0  0  0  0
  -22.1274  -39.6226   -4.9579 C   0  0  0  0  0  0  0  0  0  0  0  0
  -22.3878  -41.1050   -5.0904 C   0  0  0  0  0  0  0  0  0  0  0  0
  -23.4429  -41.8362   -5.0779 C   0  0  0  0  0  0  0  0  0  0  0  0
  -23.6933  -43.3197   -5.2089 C   0  0  0  0  0  0  0  0  0  0  0  0
  -23.8219  -43.6042   -6.6898 C   0  0  0  0  0  0  0  0  0  0  0  0
  -22.9185  -44.7215   -7.1561 C   0  0  0  0  0  0  0  0  0  0  0  0
  -21.6602  -44.1972   -7.8084 C   0  0  0  0  0  0  0  0  0  0  0  0
  -20.5284  -44.4023   -6.8935 C   0  0  0  0  0  0  0  0  0  0  0  0
  -20.6355  -45.4358   -6.1331 O   0  0  0  0  0  0  0  0  0  0  0  0
  -19.3648  -43.6320   -6.7423 N   0  0  0  0  0  0  0  0  0  0  0  0
  -18.9277  -43.2853   -5.3797 C   0  0  0  0  0  0  0  0  0  0  0  0
  -18.5117  -43.1331   -7.8138 C   0  0  1  0  0  0  0  0  0  0  0  0
  -19.2853  -42.5028   -8.9488 C   0  0  0  0  0  0  0  0  0  0  0  0
  -17.4354  -42.2598   -7.2979 C   0  0  0  0  0  0  0  0  0  0  0  0
  -16.2633  -42.7864   -7.2640 O   0  0  0  0  0  0  0  0  0  0  0  0
  -17.5154  -40.9412   -6.8403 N   0  0  0  0  0  0  0  0  0  0  0  0
  -14.8991  -39.2337  -11.6785 C   0  0  0  0  0  0  0  0  0  0  0  0
  -15.1670  -38.5534  -12.7829 N   0  0  0  0  0  0  0  0  0  0  0  0
  -14.4699  -37.4781  -13.2116 C   0  0  0  0  0  0  0  0  0  0  0  0
  1  2  1  0
  2  3  1  0
  2  4  1  0
  4  5  1  0
  5  6  2  0
  6  7  1  0
  7  8  1  0
  8  9  1  0
  9 10  1  0
 10 11  1  0
 11 12  1  6
 11 13  1  0
 13 14  1  1
 14 15  1  0
 15 16  1  6
 15 17  1  0
 17 18  1  0
 18 19  1  0
 19 20  2  0
 20 21  1  0
 21 22  1  0
 22 23  1  0
 23 24  1  0
 24 25  1  0
 25 26  2  0
 25 27  1  0
 27 28  1  0
 27 29  1  0
 29 30  1  6
 29 31  1  0
 31 32  2  0
 31 33  1  0
  7 34  2  0
 34 35  1  0
 35 36  2  0
 33 13  1  0
 36  5  1  0
M  END
$$$$
