
     RDKit          3D

 36 37  0  0  0  0  0  0  0  0999 V2000
  -22.4322  -40.0224   -4.1721 C   0  0  0  0  0  0  0  0  0  0  0  0
  -23.6034  -40.1978   -5.1332 C   0  0  0  0  0  0  0  0  0  0  0  0
  -24.6018  -41.1220   -4.4819 C   0  0  0  0  0  0  0  0  0  0  0  0
  -23.1165  -40.7984   -6.4249 C   0  0  0  0  0  0  0  0  0  0  0  0
  -22.3078  -39.8229   -7.1701 C   0  0  0  0  0  0  0  0  0  0  0  0
  -20.9634  -39.5801   -6.9160 C   0  0  0  0  0  0  0  0  0  0  0  0
  -20.2505  -38.6697   -7.6260 C   0  0  0  0  0  0  0  0  0  0  0  0
  -18.8166  -38.4000   -7.3634 C   0  0  0  0  0  0  0  0  0  0  0  0
  -18.0659  -39.5351   -6.9457 N   0  0  0  0  0  0  0  0  0  0  0  0
  -16.7738  -39.2858   -6.4114 C   0  0  0  0  0  0  0  0  0  0  0  0
  -15.8319  -38.5052   -7.2510 C   0  0  1  0  0  0  0  0  0  0  0  0
  -14.9257  -37.7125   -6.5856 O   0  0  0  0  0  0  0  0  0  0  0  0
  -15.1865  -39.3352   -8.3735 C   0  0  2  0  0  0  0  0  0  0  0  0
  -14.7337  -38.3268   -9.4239 C   0  0  0  0  0  0  0  0  0  0  0  0
  -13.9066  -39.0511  -10.4391 C   0  0  2  0  0  0  0  0  0  0  0  0
  -12.4574  -38.9862   -9.9713 C   0  0  0  0  0  0  0  0  0  0  0  0
  -14.0879  -38.5785  -11.8326 C   0  0  0  0  0  0  0  0  0  0  0  0
  -12.8827  -39.0591  -12.6937 C   0  0  0  0  0  0  0  0  0  0  0  0
  -13.0395  -40.5303  -13.0000 C   0  0  0  0  0  0  0  0  0  0  0  0
  -12.3808  -41.3759  -13.7066 C   0  0  0  0  0  0  0  0  0  0  0  0
  -12.5470  -42.8460  -14.0090 C   0  0  0  0  0  0  0  0  0  0  0  0
  -11.8310  -43.5949  -12.9057 C   0  0  0  0  0  0  0  0  0  0  0  0
  -12.6946  -44.6471  -12.2507 C   0  0  0  0  0  0  0  0  0  0  0  0
  -13.2844  -44.1635  -10.9460 C   0  0  0  0  0  0  0  0  0  0  0  0
  -14.7160  -43.8942  -11.1414 C   0  0  0  0  0  0  0  0  0  0  0  0
  -15.2862  -44.6422  -12.0207 O   0  0  0  0  0  0  0  0  0  0  0  0
  -15.5303  -42.9441  -10.5053 N   0  0  0  0  0  0  0  0  0  0  0  0
  -16.4298  -42.1259  -11.3355 C   0  0  0  0  0  0  0  0  0  0  0  0
  -15.5937  -42.6781   -9.0735 C   0  0  1  0  0  0  0  0  0  0  0  0
  -14.2328  -42.5620   -8.4267 C   0  0  0  0  0  0  0  0  0  0  0  0
  -16.4753  -41.5313   -8.7661 C   0  0  0  0  0  0  0  0  0  0  0  0
  -17.6231  -41.8319   -8.2716 O   0  0  0  0  0  0  0  0  0  0  0  0
  -16.2349  -40.1651   -8.9398 N   0  0  0  0  0  0  0  0  0  0  0  0
  -20.8926  -37.9575   -8.6430 C   0  0  0  0  0  0  0  0  0  0  0  0
  -22.1741  -38.2048   -8.8684 N   0  0  0  0  0  0  0  0  0  0  0  0
  -22.9160  -39.1025   -8.1830 C   0  0  0  0  0  0  0  0  0  0  0  0
  1  2  1  0
  2  3  1  0
  2  4  1  0
  4  5  1  0
  5  6  2  0
  6  7  1  0
  7  8  1  0
  8  9  1  0
  9 10  1  0
 10 11  1  0
 11 12  1  1
 11 13  1  0
 13 14  1  6
 14 15  1  0
 15 16  1  1
 15 17  1  0
 17 18  1  0
 18 19  1  0
 19 20  2  0
 20 21  1  0
 21 22  1  0
 22 23  1  0
 23 24  1  0
 24 25  1  0
 25 26  2  0
 25 27  1  0
 27 28  1  0
 27 29  1  0
 29 30  1  6
 29 31  1  0
 31 32  2  0
 31 33  1  0
  7 34  2  0
 34 35  1  0
 35 36  2  0
 33 13  1  0
 36  5  1  0
M  END
$$$$
