
     RDKit          3D

 36 37  0  0  0  0  0  0  0  0999 V2000
  -16.1740  -37.2587   -6.5482 C   0  0  0  0  0  0  0  0  0  0  0  0
  -15.0138  -37.9851   -5.8756 C   0  0  0  0  0  0  0  0  0  0  0  0
  -15.0351  -37.6324   -4.4092 C   0  0  0  0  0  0  0  0  0  0  0  0
  -13.7121  -37.5435   -6.4896 C   0  0  0  0  0  0  0  0  0  0  0  0
  -13.5711  -38.0975   -7.8439 C   0  0  0  0  0  0  0  0  0  0  0  0
  -14.4497  -37.8240   -8.8851 C   0  0  0  0  0  0  0  0  0  0  0  0
  -14.2860  -38.3562  -10.1226 C   0  0  0  0  0  0  0  0  0  0  0  0
  -15.2172  -38.0738  -11.2410 C   0  0  0  0  0  0  0  0  0  0  0  0
  -15.9850  -39.1927  -11.6711 N   0  0  0  0  0  0  0  0  0  0  0  0
  -16.8779  -39.7580  -10.7224 C   0  0  0  0  0  0  0  0  0  0  0  0
  -18.3109  -39.8320  -11.1000 C   0  0  1  0  0  0  0  0  0  0  0  0
  -18.5871  -40.1474  -12.4101 O   0  0  0  0  0  0  0  0  0  0  0  0
  -19.1624  -40.6341  -10.1014 C   0  0  2  0  0  0  0  0  0  0  0  0
  -19.8280  -39.5983   -9.2018 C   0  0  0  0  0  0  0  0  0  0  0  0
  -20.8367  -40.3014   -8.3488 C   0  0  2  0  0  0  0  0  0  0  0  0
  -22.1617  -40.2765   -9.1018 C   0  0  0  0  0  0  0  0  0  0  0  0
  -20.9458  -39.7788   -6.9657 C   0  0  0  0  0  0  0  0  0  0  0  0
  -22.2958  -40.2499   -6.3488 C   0  0  0  0  0  0  0  0  0  0  0  0
  -22.1904  -41.7071   -5.9636 C   0  0  0  0  0  0  0  0  0  0  0  0
  -22.9705  -42.5391   -5.3742 C   0  0  0  0  0  0  0  0  0  0  0  0
  -22.8552  -43.9952   -4.9908 C   0  0  0  0  0  0  0  0  0  0  0  0
  -23.3258  -44.7928   -6.1879 C   0  0  0  0  0  0  0  0  0  0  0  0
  -22.3375  -45.8521   -6.6160 C   0  0  0  0  0  0  0  0  0  0  0  0
  -21.5003  -45.4033   -7.7914 C   0  0  0  0  0  0  0  0  0  0  0  0
  -20.1406  -45.1037   -7.3208 C   0  0  0  0  0  0  0  0  0  0  0  0
  -19.7533  -45.8119   -6.3177 O   0  0  0  0  0  0  0  0  0  0  0  0
  -19.2234  -44.1623   -7.8136 N   0  0  0  0  0  0  0  0  0  0  0  0
  -18.5184  -43.3016   -6.8492 C   0  0  0  0  0  0  0  0  0  0  0  0
  -18.8738  -43.9441   -9.2118 C   0  0  1  0  0  0  0  0  0  0  0  0
  -20.0766  -43.8726  -10.1240 C   0  0  0  0  0  0  0  0  0  0  0  0
  -17.9591  -42.7938   -9.3765 C   0  0  0  0  0  0  0  0  0  0  0  0
  -16.7322  -43.0919   -9.6175 O   0  0  0  0  0  0  0  0  0  0  0  0
  -18.2426  -41.4267   -9.3050 N   0  0  0  0  0  0  0  0  0  0  0  0
  -13.1988  -39.2043  -10.3515 C   0  0  0  0  0  0  0  0  0  0  0  0
  -12.3738  -39.4514   -9.3453 N   0  0  0  0  0  0  0  0  0  0  0  0
  -12.5043  -38.9406   -8.1010 C   0  0  0  0  0  0  0  0  0  0  0  0
  1  2  1  0
  2  3  1  0
  2  4  1  0
  4  5  1  0
  5  6  2  0
  6  7  1  0
  7  8  1  0
  8  9  1  0
  9 10  1  0
 10 11  1  0
 11 12  1  6
 11 13  1  0
 13 14  1  1
 14 15  1  0
 15 16  1  6
 15 17  1  0
 17 18  1  0
 18 19  1  0
 19 20  2  0
 20 21  1  0
 21 22  1  0
 22 23  1  0
 23 24  1  0
 24 25  1  0
 25 26  2  0
 25 27  1  0
 27 28  1  0
 27 29  1  0
 29 30  1  6
 29 31  1  0
 31 32  2  0
 31 33  1  0
  7 34  2  0
 34 35  1  0
 35 36  2  0
 33 13  1  0
 36  5  1  0
M  END
$$$$
