
     RDKit          3D

 36 37  0  0  0  0  0  0  0  0999 V2000
  -12.9729  -33.1296  -13.3989 C   0  0  0  0  0  0  0  0  0  0  0  0
  -12.9828  -34.2151  -12.3275 C   0  0  0  0  0  0  0  0  0  0  0  0
  -13.0256  -33.5361  -10.9814 C   0  0  0  0  0  0  0  0  0  0  0  0
  -11.7364  -35.0521  -12.4394 C   0  0  0  0  0  0  0  0  0  0  0  0
  -12.0542  -36.4730  -12.2364 C   0  0  0  0  0  0  0  0  0  0  0  0
  -12.3902  -37.0204  -11.0041 C   0  0  0  0  0  0  0  0  0  0  0  0
  -12.6763  -38.3386  -10.8570 C   0  0  0  0  0  0  0  0  0  0  0  0
  -13.0342  -38.9351   -9.5478 C   0  0  0  0  0  0  0  0  0  0  0  0
  -14.0530  -39.9276   -9.6063 N   0  0  0  0  0  0  0  0  0  0  0  0
  -15.2718  -39.6328   -8.9396 C   0  0  0  0  0  0  0  0  0  0  0  0
  -16.5269  -39.8101   -9.7110 C   0  0  1  0  0  0  0  0  0  0  0  0
  -16.4365  -40.5363  -10.8758 O   0  0  0  0  0  0  0  0  0  0  0  0
  -17.7227  -40.2284   -8.8390 C   0  0  2  0  0  0  0  0  0  0  0  0
  -18.1559  -38.9666   -8.1004 C   0  0  0  0  0  0  0  0  0  0  0  0
  -19.4471  -39.2558   -7.4015 C   0  0  2  0  0  0  0  0  0  0  0  0
  -20.5728  -38.8962   -8.3643 C   0  0  0  0  0  0  0  0  0  0  0  0
  -19.5889  -38.6079   -6.0756 C   0  0  0  0  0  0  0  0  0  0  0  0
  -21.0936  -38.5940   -5.6744 C   0  0  0  0  0  0  0  0  0  0  0  0
  -21.5060  -39.9761   -5.2244 C   0  0  0  0  0  0  0  0  0  0  0  0
  -22.5843  -40.4795   -4.7426 C   0  0  0  0  0  0  0  0  0  0  0  0
  -22.9868  -41.8637   -4.2928 C   0  0  0  0  0  0  0  0  0  0  0  0
  -23.5022  -42.5815   -5.5216 C   0  0  0  0  0  0  0  0  0  0  0  0
  -22.8426  -43.9226   -5.7410 C   0  0  0  0  0  0  0  0  0  0  0  0
  -21.7445  -43.8506   -6.7768 C   0  0  0  0  0  0  0  0  0  0  0  0
  -20.4435  -43.9369   -6.0985 C   0  0  0  0  0  0  0  0  0  0  0  0
  -20.4480  -44.6401   -5.0200 O   0  0  0  0  0  0  0  0  0  0  0  0
  -19.2166  -43.3629   -6.4662 N   0  0  0  0  0  0  0  0  0  0  0  0
  -18.4273  -42.6761   -5.4302 C   0  0  0  0  0  0  0  0  0  0  0  0
  -18.6155  -43.3815   -7.7941 C   0  0  1  0  0  0  0  0  0  0  0  0
  -19.5886  -43.0283   -8.8952 C   0  0  0  0  0  0  0  0  0  0  0  0
  -17.3737  -42.5802   -7.8465 C   0  0  0  0  0  0  0  0  0  0  0  0
  -16.2798  -43.2548   -7.8697 O   0  0  0  0  0  0  0  0  0  0  0  0
  -17.2234  -41.1905   -7.8728 N   0  0  0  0  0  0  0  0  0  0  0  0
  -12.6305  -39.1665  -11.9823 C   0  0  0  0  0  0  0  0  0  0  0  0
  -12.3082  -38.6241  -13.1468 N   0  0  0  0  0  0  0  0  0  0  0  0
  -12.0172  -37.3175  -13.3320 C   0  0  0  0  0  0  0  0  0  0  0  0
  1  2  1  0
  2  3  1  0
  2  4  1  0
  4  5  1  0
  5  6  2  0
  6  7  1  0
  7  8  1  0
  8  9  1  0
  9 10  1  0
 10 11  1  0
 11 12  1  6
 11 13  1  0
 13 14  1  1
 14 15  1  0
 15 16  1  6
 15 17  1  0
 17 18  1  0
 18 19  1  0
 19 20  2  0
 20 21  1  0
 21 22  1  0
 22 23  1  0
 23 24  1  0
 24 25  1  0
 25 26  2  0
 25 27  1  0
 27 28  1  0
 27 29  1  0
 29 30  1  6
 29 31  1  0
 31 32  2  0
 31 33  1  0
  7 34  2  0
 34 35  1  0
 35 36  2  0
 33 13  1  0
 36  5  1  0
M  END
$$$$
