
     RDKit          3D

 36 37  0  0  0  0  0  0  0  0999 V2000
  -24.0703  -39.8824   -3.5369 C   0  0  0  0  0  0  0  0  0  0  0  0
  -23.1735  -39.4725   -4.7003 C   0  0  0  0  0  0  0  0  0  0  0  0
  -23.2971  -37.9795   -4.8760 C   0  0  0  0  0  0  0  0  0  0  0  0
  -23.6164  -40.1742   -5.9564 C   0  0  0  0  0  0  0  0  0  0  0  0
  -22.4983  -40.2804   -6.9048 C   0  0  0  0  0  0  0  0  0  0  0  0
  -21.3202  -40.9664   -6.6356 C   0  0  0  0  0  0  0  0  0  0  0  0
  -20.3093  -41.0409   -7.5378 C   0  0  0  0  0  0  0  0  0  0  0  0
  -19.0471  -41.7678   -7.2619 C   0  0  0  0  0  0  0  0  0  0  0  0
  -18.0051  -41.5254   -8.2010 N   0  0  0  0  0  0  0  0  0  0  0  0
  -16.8291  -40.9027   -7.7046 C   0  0  0  0  0  0  0  0  0  0  0  0
  -16.6240  -39.4729   -8.0437 C   0  0  1  0  0  0  0  0  0  0  0  0
  -16.4396  -38.6100   -6.9884 O   0  0  0  0  0  0  0  0  0  0  0  0
  -15.6058  -39.2563   -9.1758 C   0  0  2  0  0  0  0  0  0  0  0  0
  -15.6874  -37.7744   -9.5260 C   0  0  0  0  0  0  0  0  0  0  0  0
  -14.5701  -37.4564  -10.4694 C   0  0  2  0  0  0  0  0  0  0  0  0
  -13.3721  -37.0358   -9.6261 C   0  0  0  0  0  0  0  0  0  0  0  0
  -14.9138  -36.4699  -11.5214 C   0  0  0  0  0  0  0  0  0  0  0  0
  -13.6000  -35.8878  -12.1217 C   0  0  0  0  0  0  0  0  0  0  0  0
  -12.9784  -36.9050  -13.0501 C   0  0  0  0  0  0  0  0  0  0  0  0
  -11.9564  -36.9056  -13.8270 C   0  0  0  0  0  0  0  0  0  0  0  0
  -11.3436  -37.9277  -14.7544 C   0  0  0  0  0  0  0  0  0  0  0  0
  -10.3886  -38.7500  -13.9161 C   0  0  0  0  0  0  0  0  0  0  0  0
  -10.6241  -40.2368  -14.0419 C   0  0  0  0  0  0  0  0  0  0  0  0
  -11.4257  -40.7831  -12.8831 C   0  0  0  0  0  0  0  0  0  0  0  0
  -12.7881  -41.0831  -13.3459 C   0  0  0  0  0  0  0  0  0  0  0  0
  -12.8675  -41.4392  -14.5807 O   0  0  0  0  0  0  0  0  0  0  0  0
  -13.9944  -41.0335  -12.6301 N   0  0  0  0  0  0  0  0  0  0  0  0
  -15.1528  -40.3748  -13.2564 C   0  0  0  0  0  0  0  0  0  0  0  0
  -14.2372  -41.5867  -11.3035 C   0  0  1  0  0  0  0  0  0  0  0  0
  -13.1479  -41.2556  -10.3096 C   0  0  0  0  0  0  0  0  0  0  0  0
  -15.5890  -41.2507  -10.8068 C   0  0  0  0  0  0  0  0  0  0  0  0
  -16.4439  -42.2102  -10.8351 O   0  0  0  0  0  0  0  0  0  0  0  0
  -16.0674  -40.0338  -10.3120 N   0  0  0  0  0  0  0  0  0  0  0  0
  -20.4630  -40.4070   -8.7740 C   0  0  0  0  0  0  0  0  0  0  0  0
  -21.5939  -39.7590   -9.0098 N   0  0  0  0  0  0  0  0  0  0  0  0
  -22.6212  -39.6630   -8.1372 C   0  0  0  0  0  0  0  0  0  0  0  0
  1  2  1  0
  2  3  1  0
  2  4  1  0
  4  5  1  0
  5  6  2  0
  6  7  1  0
  7  8  1  0
  8  9  1  0
  9 10  1  0
 10 11  1  0
 11 12  1  1
 11 13  1  0
 13 14  1  6
 14 15  1  0
 15 16  1  1
 15 17  1  0
 17 18  1  0
 18 19  1  0
 19 20  2  0
 20 21  1  0
 21 22  1  0
 22 23  1  0
 23 24  1  0
 24 25  1  0
 25 26  2  0
 25 27  1  0
 27 28  1  0
 27 29  1  0
 29 30  1  1
 29 31  1  0
 31 32  2  0
 31 33  1  0
  7 34  2  0
 34 35  1  0
 35 36  2  0
 33 13  1  0
 36  5  1  0
M  END
$$$$
