
     RDKit          3D

 36 37  0  0  0  0  0  0  0  0999 V2000
   -9.0063  -35.0252  -12.7932 C   0  0  0  0  0  0  0  0  0  0  0  0
  -10.2540  -35.8983  -12.8779 C   0  0  0  0  0  0  0  0  0  0  0  0
  -10.4142  -36.3382  -14.3117 C   0  0  0  0  0  0  0  0  0  0  0  0
  -11.4598  -35.1063  -12.4476 C   0  0  0  0  0  0  0  0  0  0  0  0
  -12.6267  -35.9885  -12.3029 C   0  0  0  0  0  0  0  0  0  0  0  0
  -12.9359  -36.6740  -11.1343 C   0  0  0  0  0  0  0  0  0  0  0  0
  -14.0228  -37.4808  -11.0402 C   0  0  0  0  0  0  0  0  0  0  0  0
  -14.3624  -38.2188   -9.8001 C   0  0  0  0  0  0  0  0  0  0  0  0
  -15.1421  -39.3925  -10.0025 N   0  0  0  0  0  0  0  0  0  0  0  0
  -15.7238  -39.9806   -8.8480 C   0  0  0  0  0  0  0  0  0  0  0  0
  -16.6023  -39.1198   -8.0180 C   0  0  1  0  0  0  0  0  0  0  0  0
  -16.8002  -37.8327   -8.4613 O   0  0  0  0  0  0  0  0  0  0  0  0
  -17.9089  -39.8124   -7.5956 C   0  0  2  0  0  0  0  0  0  0  0  0
  -18.6916  -38.7694   -6.8051 C   0  0  0  0  0  0  0  0  0  0  0  0
  -20.0637  -39.3103   -6.5513 C   0  0  2  0  0  0  0  0  0  0  0  0
  -20.9455  -38.8700   -7.7139 C   0  0  0  0  0  0  0  0  0  0  0  0
  -20.6302  -38.9570   -5.2275 C   0  0  0  0  0  0  0  0  0  0  0  0
  -22.1735  -39.1621   -5.2635 C   0  0  0  0  0  0  0  0  0  0  0  0
  -22.4858  -40.6383   -5.1847 C   0  0  0  0  0  0  0  0  0  0  0  0
  -23.5683  -41.3248   -5.1131 C   0  0  0  0  0  0  0  0  0  0  0  0
  -23.8707  -42.8021   -5.0322 C   0  0  0  0  0  0  0  0  0  0  0  0
  -23.9475  -43.3034   -6.4582 C   0  0  0  0  0  0  0  0  0  0  0  0
  -23.0695  -44.5069   -6.7082 C   0  0  0  0  0  0  0  0  0  0  0  0
  -21.7652  -44.1283   -7.3709 C   0  0  0  0  0  0  0  0  0  0  0  0
  -20.6820  -44.2289   -6.3826 C   0  0  0  0  0  0  0  0  0  0  0  0
  -20.8614  -45.1313   -5.4819 O   0  0  0  0  0  0  0  0  0  0  0  0
  -19.4966  -43.4825   -6.2932 N   0  0  0  0  0  0  0  0  0  0  0  0
  -19.1043  -42.9477   -4.9787 C   0  0  0  0  0  0  0  0  0  0  0  0
  -18.5801  -43.1793   -7.3854 C   0  0  1  0  0  0  0  0  0  0  0  0
  -19.2798  -42.7036   -8.6376 C   0  0  0  0  0  0  0  0  0  0  0  0
  -17.4934  -42.2732   -6.9555 C   0  0  0  0  0  0  0  0  0  0  0  0
  -16.3452  -42.8260   -6.7871 O   0  0  0  0  0  0  0  0  0  0  0  0
  -17.5411  -40.8986   -6.7049 N   0  0  0  0  0  0  0  0  0  0  0  0
  -14.8534  -37.6231  -12.1554 C   0  0  0  0  0  0  0  0  0  0  0  0
  -14.5403  -36.9607  -13.2587 N   0  0  0  0  0  0  0  0  0  0  0  0
  -13.4677  -36.1492  -13.3900 C   0  0  0  0  0  0  0  0  0  0  0  0
  1  2  1  0
  2  3  1  0
  2  4  1  0
  4  5  1  0
  5  6  2  0
  6  7  1  0
  7  8  1  0
  8  9  1  0
  9 10  1  0
 10 11  1  0
 11 12  1  6
 11 13  1  0
 13 14  1  1
 14 15  1  0
 15 16  1  6
 15 17  1  0
 17 18  1  0
 18 19  1  0
 19 20  2  0
 20 21  1  0
 21 22  1  0
 22 23  1  0
 23 24  1  0
 24 25  1  0
 25 26  2  0
 25 27  1  0
 27 28  1  0
 27 29  1  0
 29 30  1  6
 29 31  1  0
 31 32  2  0
 31 33  1  0
  7 34  2  0
 34 35  1  0
 35 36  2  0
 33 13  1  0
 36  5  1  0
M  END
$$$$
