
     RDKit          3D

 36 37  0  0  0  0  0  0  0  0999 V2000
  -13.4160  -33.1168  -12.3672 C   0  0  0  0  0  0  0  0  0  0  0  0
  -13.7099  -34.3272  -11.4869 C   0  0  0  0  0  0  0  0  0  0  0  0
  -14.3260  -33.8275  -10.2041 C   0  0  0  0  0  0  0  0  0  0  0  0
  -12.4303  -35.0620  -11.1882 C   0  0  0  0  0  0  0  0  0  0  0  0
  -12.5180  -36.4531  -11.6552 C   0  0  0  0  0  0  0  0  0  0  0  0
  -13.0815  -37.4829  -10.9116 C   0  0  0  0  0  0  0  0  0  0  0  0
  -13.1430  -38.7559  -11.3775 C   0  0  0  0  0  0  0  0  0  0  0  0
  -13.7396  -39.8635  -10.5934 C   0  0  0  0  0  0  0  0  0  0  0  0
  -14.9439  -40.3939  -11.1366 N   0  0  0  0  0  0  0  0  0  0  0  0
  -15.9591  -40.7530  -10.2107 C   0  0  0  0  0  0  0  0  0  0  0  0
  -16.6282  -39.6508   -9.4765 C   0  0  1  0  0  0  0  0  0  0  0  0
  -16.8043  -38.4716  -10.1626 O   0  0  0  0  0  0  0  0  0  0  0  0
  -17.8943  -40.0996   -8.7276 C   0  0  2  0  0  0  0  0  0  0  0  0
  -18.3663  -38.8779   -7.9466 C   0  0  0  0  0  0  0  0  0  0  0  0
  -19.7123  -39.1855   -7.3693 C   0  0  2  0  0  0  0  0  0  0  0  0
  -20.7540  -38.7460   -8.3915 C   0  0  0  0  0  0  0  0  0  0  0  0
  -19.9484  -38.6182   -6.0200 C   0  0  0  0  0  0  0  0  0  0  0  0
  -21.4795  -38.6008   -5.7362 C   0  0  0  0  0  0  0  0  0  0  0  0
  -21.9451  -40.0001   -5.4074 C   0  0  0  0  0  0  0  0  0  0  0  0
  -23.0647  -40.5118   -5.0432 C   0  0  0  0  0  0  0  0  0  0  0  0
  -23.5205  -41.9134   -4.7140 C   0  0  0  0  0  0  0  0  0  0  0  0
  -23.9481  -42.5440   -6.0218 C   0  0  0  0  0  0  0  0  0  0  0  0
  -23.2921  -43.8812   -6.2738 C   0  0  0  0  0  0  0  0  0  0  0  0
  -22.1154  -43.7660   -7.2151 C   0  0  0  0  0  0  0  0  0  0  0  0
  -20.8729  -43.9186   -6.4450 C   0  0  0  0  0  0  0  0  0  0  0  0
  -20.9715  -44.6869   -5.4166 O   0  0  0  0  0  0  0  0  0  0  0  0
  -19.6130  -43.3461   -6.6799 N   0  0  0  0  0  0  0  0  0  0  0  0
  -18.8977  -42.7396   -5.5448 C   0  0  0  0  0  0  0  0  0  0  0  0
  -18.9101  -43.2939   -7.9559 C   0  0  1  0  0  0  0  0  0  0  0  0
  -19.7890  -42.8550   -9.1044 C   0  0  0  0  0  0  0  0  0  0  0  0
  -17.6569  -42.5145   -7.8615 C   0  0  0  0  0  0  0  0  0  0  0  0
  -16.5741  -43.2068   -7.8427 O   0  0  0  0  0  0  0  0  0  0  0  0
  -17.4857  -41.1288   -7.7884 N   0  0  0  0  0  0  0  0  0  0  0  0
  -12.6225  -39.0342  -12.6446 C   0  0  0  0  0  0  0  0  0  0  0  0
  -12.0903  -38.0379  -13.3363 N   0  0  0  0  0  0  0  0  0  0  0  0
  -12.0112  -36.7594  -12.9059 C   0  0  0  0  0  0  0  0  0  0  0  0
  1  2  1  0
  2  3  1  0
  2  4  1  0
  4  5  1  0
  5  6  2  0
  6  7  1  0
  7  8  1  0
  8  9  1  0
  9 10  1  0
 10 11  1  0
 11 12  1  6
 11 13  1  0
 13 14  1  1
 14 15  1  0
 15 16  1  6
 15 17  1  0
 17 18  1  0
 18 19  1  0
 19 20  2  0
 20 21  1  0
 21 22  1  0
 22 23  1  0
 23 24  1  0
 24 25  1  0
 25 26  2  0
 25 27  1  0
 27 28  1  0
 27 29  1  0
 29 30  1  6
 29 31  1  0
 31 32  2  0
 31 33  1  0
  7 34  2  0
 34 35  1  0
 35 36  2  0
 33 13  1  0
 36  5  1  0
M  END
$$$$
