
     RDKit          3D

 36 37  0  0  0  0  0  0  0  0999 V2000
  -14.1340  -34.6133  -11.4050 C   0  0  0  0  0  0  0  0  0  0  0  0
  -13.5691  -34.0511  -12.7055 C   0  0  0  0  0  0  0  0  0  0  0  0
  -14.5758  -33.0767  -13.2640 C   0  0  0  0  0  0  0  0  0  0  0  0
  -13.3403  -35.1697  -13.6867 C   0  0  0  0  0  0  0  0  0  0  0  0
  -12.8396  -36.3649  -12.9926 C   0  0  0  0  0  0  0  0  0  0  0  0
  -13.6590  -37.2819  -12.3455 C   0  0  0  0  0  0  0  0  0  0  0  0
  -13.1582  -38.3737  -11.7144 C   0  0  0  0  0  0  0  0  0  0  0  0
  -14.0214  -39.3580  -11.0190 C   0  0  0  0  0  0  0  0  0  0  0  0
  -14.6284  -38.8761   -9.8250 N   0  0  0  0  0  0  0  0  0  0  0  0
  -15.7254  -39.6229   -9.3190 C   0  0  0  0  0  0  0  0  0  0  0  0
  -16.4806  -39.0351   -8.1851 C   0  0  1  0  0  0  0  0  0  0  0  0
  -16.6867  -37.6755   -8.2213 O   0  0  0  0  0  0  0  0  0  0  0  0
  -17.7534  -39.8218   -7.8293 C   0  0  2  0  0  0  0  0  0  0  0  0
  -18.4990  -38.9624   -6.8140 C   0  0  0  0  0  0  0  0  0  0  0  0
  -19.8484  -39.5697   -6.5912 C   0  0  2  0  0  0  0  0  0  0  0  0
  -20.8010  -38.9374   -7.5992 C   0  0  0  0  0  0  0  0  0  0  0  0
  -20.3403  -39.4833   -5.1953 C   0  0  0  0  0  0  0  0  0  0  0  0
  -21.8810  -39.7101   -5.1837 C   0  0  0  0  0  0  0  0  0  0  0  0
  -22.1733  -41.1810   -5.3678 C   0  0  0  0  0  0  0  0  0  0  0  0
  -23.2429  -41.8911   -5.3673 C   0  0  0  0  0  0  0  0  0  0  0  0
  -23.5253  -43.3633   -5.5500 C   0  0  0  0  0  0  0  0  0  0  0  0
  -23.6801  -43.5892   -7.0385 C   0  0  0  0  0  0  0  0  0  0  0  0
  -22.8062  -44.7058   -7.5594 C   0  0  0  0  0  0  0  0  0  0  0  0
  -21.5466  -44.1823   -8.2100 C   0  0  0  0  0  0  0  0  0  0  0  0
  -20.4067  -44.4442   -7.3200 C   0  0  0  0  0  0  0  0  0  0  0  0
  -20.5243  -45.5033   -6.5973 O   0  0  0  0  0  0  0  0  0  0  0  0
  -19.2256  -43.7035   -7.1571 N   0  0  0  0  0  0  0  0  0  0  0  0
  -18.7627  -43.4170   -5.7890 C   0  0  0  0  0  0  0  0  0  0  0  0
  -18.3775  -43.1815   -8.2215 C   0  0  1  0  0  0  0  0  0  0  0  0
  -19.1537  -42.4936   -9.3208 C   0  0  0  0  0  0  0  0  0  0  0  0
  -17.2766  -42.3498   -7.6892 C   0  0  0  0  0  0  0  0  0  0  0  0
  -16.1151  -42.9005   -7.6921 O   0  0  0  0  0  0  0  0  0  0  0  0
  -17.3234  -41.0481   -7.1814 N   0  0  0  0  0  0  0  0  0  0  0  0
  -11.7754  -38.5777  -11.7186 C   0  0  0  0  0  0  0  0  0  0  0  0
  -11.0130  -37.6916  -12.3414 N   0  0  0  0  0  0  0  0  0  0  0  0
  -11.4748  -36.5938  -12.9798 C   0  0  0  0  0  0  0  0  0  0  0  0
  1  2  1  0
  2  3  1  0
  2  4  1  0
  4  5  1  0
  5  6  2  0
  6  7  1  0
  7  8  1  0
  8  9  1  0
  9 10  1  0
 10 11  1  0
 11 12  1  6
 11 13  1  0
 13 14  1  1
 14 15  1  0
 15 16  1  6
 15 17  1  0
 17 18  1  0
 18 19  1  0
 19 20  2  0
 20 21  1  0
 21 22  1  0
 22 23  1  0
 23 24  1  0
 24 25  1  0
 25 26  2  0
 25 27  1  0
 27 28  1  0
 27 29  1  0
 29 30  1  6
 29 31  1  0
 31 32  2  0
 31 33  1  0
  7 34  2  0
 34 35  1  0
 35 36  2  0
 33 13  1  0
 36  5  1  0
M  END
$$$$
