
     RDKit          3D

 36 37  0  0  0  0  0  0  0  0999 V2000
  -10.8926  -35.2240  -14.7221 C   0  0  0  0  0  0  0  0  0  0  0  0
  -11.7607  -35.4902  -13.4966 C   0  0  0  0  0  0  0  0  0  0  0  0
  -10.8734  -36.0533  -12.4147 C   0  0  0  0  0  0  0  0  0  0  0  0
  -12.8390  -36.4822  -13.8424 C   0  0  0  0  0  0  0  0  0  0  0  0
  -13.7695  -36.6403  -12.7154 C   0  0  0  0  0  0  0  0  0  0  0  0
  -13.5285  -37.4683  -11.6257 C   0  0  0  0  0  0  0  0  0  0  0  0
  -14.4136  -37.5883  -10.6042 C   0  0  0  0  0  0  0  0  0  0  0  0
  -14.1692  -38.4694   -9.4374 C   0  0  0  0  0  0  0  0  0  0  0  0
  -14.7797  -39.7525   -9.5242 N   0  0  0  0  0  0  0  0  0  0  0  0
  -16.0590  -39.8937   -8.9239 C   0  0  0  0  0  0  0  0  0  0  0  0
  -16.8640  -41.0777   -9.3134 C   0  0  1  0  0  0  0  0  0  0  0  0
  -16.2229  -42.2945   -9.2856 O   0  0  0  0  0  0  0  0  0  0  0  0
  -18.2488  -41.1181   -8.6455 C   0  0  2  0  0  0  0  0  0  0  0  0
  -18.6316  -39.6624   -8.4016 C   0  0  0  0  0  0  0  0  0  0  0  0
  -20.0586  -39.6248   -7.9526 C   0  0  2  0  0  0  0  0  0  0  0  0
  -20.9220  -39.4845   -9.2008 C   0  0  0  0  0  0  0  0  0  0  0  0
  -20.3544  -38.5984   -6.9245 C   0  0  0  0  0  0  0  0  0  0  0  0
  -21.8906  -38.3456   -6.8851 C   0  0  0  0  0  0  0  0  0  0  0  0
  -22.5696  -39.4908   -6.1708 C   0  0  0  0  0  0  0  0  0  0  0  0
  -23.7789  -39.7389   -5.8182 C   0  0  0  0  0  0  0  0  0  0  0  0
  -24.4486  -40.8870   -5.1013 C   0  0  0  0  0  0  0  0  0  0  0  0
  -24.8198  -41.8987   -6.1640 C   0  0  0  0  0  0  0  0  0  0  0  0
  -24.3253  -43.2912   -5.8506 C   0  0  0  0  0  0  0  0  0  0  0  0
  -23.0533  -43.6216   -6.5968 C   0  0  0  0  0  0  0  0  0  0  0  0
  -21.9279  -43.6017   -5.6518 C   0  0  0  0  0  0  0  0  0  0  0  0
  -22.2331  -43.9445   -4.4489 O   0  0  0  0  0  0  0  0  0  0  0  0
  -20.5856  -43.2638   -5.8847 N   0  0  0  0  0  0  0  0  0  0  0  0
  -19.9164  -42.3611   -4.9332 C   0  0  0  0  0  0  0  0  0  0  0  0
  -19.7548  -43.7290   -6.9884 C   0  0  1  0  0  0  0  0  0  0  0  0
  -20.4447  -43.6485   -8.3306 C   0  0  0  0  0  0  0  0  0  0  0  0
  -18.4253  -43.0814   -6.9865 C   0  0  0  0  0  0  0  0  0  0  0  0
  -17.4520  -43.8156   -6.5793 O   0  0  0  0  0  0  0  0  0  0  0  0
  -18.0795  -41.7805   -7.3645 N   0  0  0  0  0  0  0  0  0  0  0  0
  -15.6021  -36.8543  -10.6544 C   0  0  0  0  0  0  0  0  0  0  0  0
  -15.8115  -36.0713  -11.7019 N   0  0  0  0  0  0  0  0  0  0  0  0
  -14.9547  -35.9263  -12.7368 C   0  0  0  0  0  0  0  0  0  0  0  0
  1  2  1  0
  2  3  1  0
  2  4  1  0
  4  5  1  0
  5  6  2  0
  6  7  1  0
  7  8  1  0
  8  9  1  0
  9 10  1  0
 10 11  1  0
 11 12  1  1
 11 13  1  0
 13 14  1  1
 14 15  1  0
 15 16  1  6
 15 17  1  0
 17 18  1  0
 18 19  1  0
 19 20  2  0
 20 21  1  0
 21 22  1  0
 22 23  1  0
 23 24  1  0
 24 25  1  0
 25 26  2  0
 25 27  1  0
 27 28  1  0
 27 29  1  0
 29 30  1  6
 29 31  1  0
 31 32  2  0
 31 33  1  0
  7 34  2  0
 34 35  1  0
 35 36  2  0
 33 13  1  0
 36  5  1  0
M  END
$$$$
