
     RDKit          3D

 25 25  0  0  0  0  0  0  0  0999 V2000
  -20.2046  -38.1242   -9.5982 C   0  0  0  0  0  0  0  0  0  0  0  0
  -20.0183  -38.8563   -8.2508 C   0  0  2  0  0  0  0  0  0  0  0  0
  -21.1878  -38.5643   -7.4239 C   0  0  0  0  0  0  0  0  0  0  0  0
  -21.1173  -38.6145   -5.9606 C   0  0  0  0  0  0  0  0  0  0  0  0
  -21.4121  -39.9130   -5.2851 C   0  0  0  0  0  0  0  0  0  0  0  0
  -22.5748  -40.6801   -5.7956 C   0  0  0  0  0  0  0  0  0  0  0  0
  -22.1064  -41.8594   -6.6152 C   0  0  0  0  0  0  0  0  0  0  0  0
  -21.4874  -42.9062   -5.7149 C   0  0  0  0  0  0  0  0  0  0  0  0
  -20.9318  -44.0736   -6.5127 C   0  0  0  0  0  0  0  0  0  0  0  0
  -19.4197  -44.0979   -6.4523 C   0  0  0  0  0  0  0  0  0  0  0  0
  -18.8239  -44.7808   -7.6252 C   0  0  0  0  0  0  0  0  0  0  0  0
  -19.4662  -45.8021   -8.0525 O   0  0  0  0  0  0  0  0  0  0  0  0
  -17.6545  -44.4424   -8.3105 N   0  0  0  0  0  0  0  0  0  0  0  0
  -16.7000  -45.4712   -8.6942 C   0  0  0  0  0  0  0  0  0  0  0  0
  -17.2701  -43.0787   -8.7069 C   0  0  1  0  0  0  0  0  0  0  0  0
  -16.8677  -43.0462  -10.1749 C   0  0  0  0  0  0  0  0  0  0  0  0
  -18.4181  -42.1478   -8.5470 C   0  0  0  0  0  0  0  0  0  0  0  0
  -19.4907  -42.5559   -9.1306 O   0  0  0  0  0  0  0  0  0  0  0  0
  -18.4543  -40.9427   -7.8660 N   0  0  0  0  0  0  0  0  0  0  0  0
  -17.7211  -39.7170   -8.0706 C   0  0  1  0  0  0  0  0  0  0  0  0
  -18.6643  -38.5347   -7.7496 C   0  0  0  0  0  0  0  0  0  0  0  0
  -16.5009  -39.6476   -7.1570 C   0  0  2  0  0  0  0  0  0  0  0  0
  -16.4534  -38.4598   -6.4537 O   0  0  0  0  0  0  0  0  0  0  0  0
  -15.2252  -39.8090   -7.9134 C   0  0  0  0  0  0  0  0  0  0  0  0
  -14.8305  -41.1386   -8.0420 O   0  0  0  0  0  0  0  0  0  0  0  0
  2  1  1  6
  2  3  1  0
  3  4  1  0
  4  5  1  0
  5  6  1  0
  6  7  1  0
  7  8  1  0
  8  9  1  0
  9 10  1  0
 10 11  1  0
 11 12  2  0
 11 13  1  0
 13 14  1  0
 13 15  1  0
 15 16  1  6
 15 17  1  0
 17 18  2  0
 17 19  1  0
 19 20  1  0
 20 21  1  1
 20 22  1  0
 22 23  1  6
 22 24  1  0
 24 25  1  0
 21  2  1  0
M  END
$$$$
