
     RDKit          3D

 25 25  0  0  0  0  0  0  0  0999 V2000
  -20.2338  -38.1591  -10.0868 C   0  0  0  0  0  0  0  0  0  0  0  0
  -20.0919  -38.5444   -8.5976 C   0  0  2  0  0  0  0  0  0  0  0  0
  -21.1500  -37.8560   -7.8604 C   0  0  0  0  0  0  0  0  0  0  0  0
  -21.0055  -37.5429   -6.4357 C   0  0  0  0  0  0  0  0  0  0  0  0
  -21.4673  -38.5563   -5.4411 C   0  0  0  0  0  0  0  0  0  0  0  0
  -22.7657  -39.2179   -5.7188 C   0  0  0  0  0  0  0  0  0  0  0  0
  -22.5414  -40.6292   -6.2085 C   0  0  0  0  0  0  0  0  0  0  0  0
  -22.0495  -41.5018   -5.0744 C   0  0  0  0  0  0  0  0  0  0  0  0
  -21.7360  -42.9111   -5.5473 C   0  0  0  0  0  0  0  0  0  0  0  0
  -20.2468  -43.1771   -5.5022 C   0  0  0  0  0  0  0  0  0  0  0  0
  -19.8369  -44.2278   -6.4641 C   0  0  0  0  0  0  0  0  0  0  0  0
  -20.6590  -45.1990   -6.6020 O   0  0  0  0  0  0  0  0  0  0  0  0
  -18.6690  -44.2800   -7.2291 N   0  0  0  0  0  0  0  0  0  0  0  0
  -17.9167  -45.5200   -7.3435 C   0  0  0  0  0  0  0  0  0  0  0  0
  -18.0925  -43.1487   -7.9723 C   0  0  1  0  0  0  0  0  0  0  0  0
  -17.7743  -43.5606   -9.4030 C   0  0  0  0  0  0  0  0  0  0  0  0
  -19.0641  -42.0260   -8.0459 C   0  0  0  0  0  0  0  0  0  0  0  0
  -20.2200  -42.3799   -8.4889 O   0  0  0  0  0  0  0  0  0  0  0  0
  -18.8663  -40.6992   -7.7023 N   0  0  0  0  0  0  0  0  0  0  0  0
  -17.9575  -39.7100   -8.2289 C   0  0  1  0  0  0  0  0  0  0  0  0
  -18.6775  -38.3417   -8.2151 C   0  0  0  0  0  0  0  0  0  0  0  0
  -16.6922  -39.6195   -7.3810 C   0  0  2  0  0  0  0  0  0  0  0  0
  -16.2780  -38.3123   -7.2152 O   0  0  0  0  0  0  0  0  0  0  0  0
  -15.5690  -40.4086   -7.9652 C   0  0  0  0  0  0  0  0  0  0  0  0
  -14.4196  -40.3881   -7.1788 O   0  0  0  0  0  0  0  0  0  0  0  0
  2  1  1  6
  2  3  1  0
  3  4  1  0
  4  5  1  0
  5  6  1  0
  6  7  1  0
  7  8  1  0
  8  9  1  0
  9 10  1  0
 10 11  1  0
 11 12  2  0
 11 13  1  0
 13 14  1  0
 13 15  1  0
 15 16  1  6
 15 17  1  0
 17 18  2  0
 17 19  1  0
 19 20  1  0
 20 21  1  1
 20 22  1  0
 22 23  1  6
 22 24  1  0
 24 25  1  0
 21  2  1  0
M  END
$$$$
