
     RDKit          3D

 25 25  0  0  0  0  0  0  0  0999 V2000
  -18.3494  -37.5965  -10.5307 C   0  0  0  0  0  0  0  0  0  0  0  0
  -18.6011  -38.1795   -9.1224 C   0  0  2  0  0  0  0  0  0  0  0  0
  -19.6450  -37.3742   -8.4910 C   0  0  0  0  0  0  0  0  0  0  0  0
  -19.7508  -37.2729   -7.0325 C   0  0  0  0  0  0  0  0  0  0  0  0
  -20.5933  -38.2760   -6.3158 C   0  0  0  0  0  0  0  0  0  0  0  0
  -21.9029  -38.6058   -6.9299 C   0  0  0  0  0  0  0  0  0  0  0  0
  -21.8456  -39.9630   -7.5906 C   0  0  0  0  0  0  0  0  0  0  0  0
  -21.7765  -41.0506   -6.5409 C   0  0  0  0  0  0  0  0  0  0  0  0
  -21.6370  -42.4270   -7.1686 C   0  0  0  0  0  0  0  0  0  0  0  0
  -20.2672  -43.0093   -6.8943 C   0  0  0  0  0  0  0  0  0  0  0  0
  -19.8647  -43.9999   -7.9208 C   0  0  0  0  0  0  0  0  0  0  0  0
  -20.8044  -44.7487   -8.3617 O   0  0  0  0  0  0  0  0  0  0  0  0
  -18.5914  -44.2087   -8.4566 N   0  0  0  0  0  0  0  0  0  0  0  0
  -18.0756  -45.5581   -8.6289 C   0  0  0  0  0  0  0  0  0  0  0  0
  -17.6705  -43.1462   -8.8896 C   0  0  1  0  0  0  0  0  0  0  0  0
  -17.1378  -43.4416  -10.2849 C   0  0  0  0  0  0  0  0  0  0  0  0
  -18.3785  -41.8409   -8.9587 C   0  0  0  0  0  0  0  0  0  0  0  0
  -19.4591  -41.8831   -9.6575 O   0  0  0  0  0  0  0  0  0  0  0  0
  -18.0155  -40.6385   -8.3758 N   0  0  0  0  0  0  0  0  0  0  0  0
  -16.8481  -39.8109   -8.5605 C   0  0  1  0  0  0  0  0  0  0  0  0
  -17.2877  -38.3320   -8.4593 C   0  0  0  0  0  0  0  0  0  0  0  0
  -15.7975  -40.0961   -7.4914 C   0  0  2  0  0  0  0  0  0  0  0  0
  -14.9278  -39.0352   -7.3305 O   0  0  0  0  0  0  0  0  0  0  0  0
  -15.0063  -41.3234   -7.7971 C   0  0  0  0  0  0  0  0  0  0  0  0
  -13.6303  -41.1166   -7.7335 O   0  0  0  0  0  0  0  0  0  0  0  0
  2  1  1  6
  2  3  1  0
  3  4  1  0
  4  5  1  0
  5  6  1  0
  6  7  1  0
  7  8  1  0
  8  9  1  0
  9 10  1  0
 10 11  1  0
 11 12  2  0
 11 13  1  0
 13 14  1  0
 13 15  1  0
 15 16  1  6
 15 17  1  0
 17 18  2  0
 17 19  1  0
 19 20  1  0
 20 21  1  1
 20 22  1  0
 22 23  1  6
 22 24  1  0
 24 25  1  0
 21  2  1  0
M  END
$$$$
