
     RDKit          3D

 25 25  0  0  0  0  0  0  0  0999 V2000
  -19.6133  -37.9953  -10.0065 C   0  0  0  0  0  0  0  0  0  0  0  0
  -19.5845  -38.5802   -8.5771 C   0  0  2  0  0  0  0  0  0  0  0  0
  -20.6536  -37.9373   -7.8151 C   0  0  0  0  0  0  0  0  0  0  0  0
  -20.5852  -37.8226   -6.3554 C   0  0  0  0  0  0  0  0  0  0  0  0
  -21.1565  -38.9309   -5.5339 C   0  0  0  0  0  0  0  0  0  0  0  0
  -22.4645  -39.4776   -5.9712 C   0  0  0  0  0  0  0  0  0  0  0  0
  -22.2764  -40.8225   -6.6328 C   0  0  0  0  0  0  0  0  0  0  0  0
  -21.8991  -41.8623   -5.6003 C   0  0  0  0  0  0  0  0  0  0  0  0
  -21.6231  -43.2124   -6.2399 C   0  0  0  0  0  0  0  0  0  0  0  0
  -20.1539  -43.5639   -6.1467 C   0  0  0  0  0  0  0  0  0  0  0  0
  -19.7338  -44.5000   -7.2164 C   0  0  0  0  0  0  0  0  0  0  0  0
  -20.5903  -45.3979   -7.5300 O   0  0  0  0  0  0  0  0  0  0  0  0
  -18.5234  -44.5156   -7.9140 N   0  0  0  0  0  0  0  0  0  0  0  0
  -17.8247  -45.7695   -8.1514 C   0  0  0  0  0  0  0  0  0  0  0  0
  -17.8482  -43.3301   -8.4645 C   0  0  1  0  0  0  0  0  0  0  0  0
  -17.4596  -43.5673   -9.9173 C   0  0  0  0  0  0  0  0  0  0  0  0
  -18.7591  -42.1555   -8.4413 C   0  0  0  0  0  0  0  0  0  0  0  0
  -19.8999  -42.3838   -8.9927 O   0  0  0  0  0  0  0  0  0  0  0  0
  -18.5212  -40.8983   -7.9118 N   0  0  0  0  0  0  0  0  0  0  0  0
  -17.5352  -39.9002   -8.2482 C   0  0  1  0  0  0  0  0  0  0  0  0
  -18.1892  -38.5080   -8.0913 C   0  0  0  0  0  0  0  0  0  0  0  0
  -16.3234  -39.9918   -7.3254 C   0  0  2  0  0  0  0  0  0  0  0  0
  -15.5009  -38.8889   -7.4473 O   0  0  0  0  0  0  0  0  0  0  0  0
  -15.5181  -41.2217   -7.5793 C   0  0  0  0  0  0  0  0  0  0  0  0
  -14.4002  -40.9881   -8.3768 O   0  0  0  0  0  0  0  0  0  0  0  0
  2  1  1  6
  2  3  1  0
  3  4  1  0
  4  5  1  0
  5  6  1  0
  6  7  1  0
  7  8  1  0
  8  9  1  0
  9 10  1  0
 10 11  1  0
 11 12  2  0
 11 13  1  0
 13 14  1  0
 13 15  1  0
 15 16  1  6
 15 17  1  0
 17 18  2  0
 17 19  1  0
 19 20  1  0
 20 21  1  1
 20 22  1  0
 22 23  1  6
 22 24  1  0
 24 25  1  0
 21  2  1  0
M  END
$$$$
