
     RDKit          3D

 25 25  0  0  0  0  0  0  0  0999 V2000
  -20.1906  -38.1466   -9.6310 C   0  0  0  0  0  0  0  0  0  0  0  0
  -19.9573  -38.6911   -8.2043 C   0  0  2  0  0  0  0  0  0  0  0  0
  -20.9805  -38.1101   -7.3369 C   0  0  0  0  0  0  0  0  0  0  0  0
  -20.7582  -37.9535   -5.8965 C   0  0  0  0  0  0  0  0  0  0  0  0
  -21.1473  -39.0798   -4.9968 C   0  0  0  0  0  0  0  0  0  0  0  0
  -22.4503  -39.7331   -5.2734 C   0  0  0  0  0  0  0  0  0  0  0  0
  -22.2349  -41.0767   -5.9292 C   0  0  0  0  0  0  0  0  0  0  0  0
  -21.6659  -42.0590   -4.9288 C   0  0  0  0  0  0  0  0  0  0  0  0
  -21.3606  -43.4008   -5.5727 C   0  0  0  0  0  0  0  0  0  0  0  0
  -19.8676  -43.6397   -5.6410 C   0  0  0  0  0  0  0  0  0  0  0  0
  -19.4994  -44.5691   -6.7353 C   0  0  0  0  0  0  0  0  0  0  0  0
  -20.3143  -45.5357   -6.9344 O   0  0  0  0  0  0  0  0  0  0  0  0
  -18.3771  -44.5126   -7.5655 N   0  0  0  0  0  0  0  0  0  0  0  0
  -17.6153  -45.7168   -7.8594 C   0  0  0  0  0  0  0  0  0  0  0  0
  -17.8606  -43.2946   -8.2091 C   0  0  1  0  0  0  0  0  0  0  0  0
  -17.6200  -43.5393   -9.6924 C   0  0  0  0  0  0  0  0  0  0  0  0
  -18.8504  -42.1907   -8.1025 C   0  0  0  0  0  0  0  0  0  0  0  0
  -20.0250  -42.5170   -8.5169 O   0  0  0  0  0  0  0  0  0  0  0  0
  -18.6518  -40.9062   -7.6248 N   0  0  0  0  0  0  0  0  0  0  0  0
  -17.7890  -39.8466   -8.0879 C   0  0  1  0  0  0  0  0  0  0  0  0
  -18.5261  -38.5032   -7.8814 C   0  0  0  0  0  0  0  0  0  0  0  0
  -16.4781  -39.8245   -7.3073 C   0  0  2  0  0  0  0  0  0  0  0  0
  -16.0962  -38.5377   -6.9818 O   0  0  0  0  0  0  0  0  0  0  0  0
  -15.3679  -40.4792   -8.0586 C   0  0  0  0  0  0  0  0  0  0  0  0
  -14.1116  -40.2137   -7.5189 O   0  0  0  0  0  0  0  0  0  0  0  0
  2  1  1  6
  2  3  1  0
  3  4  1  0
  4  5  1  0
  5  6  1  0
  6  7  1  0
  7  8  1  0
  8  9  1  0
  9 10  1  0
 10 11  1  0
 11 12  2  0
 11 13  1  0
 13 14  1  0
 13 15  1  0
 15 16  1  6
 15 17  1  0
 17 18  2  0
 17 19  1  0
 19 20  1  0
 20 21  1  1
 20 22  1  0
 22 23  1  6
 22 24  1  0
 24 25  1  0
 21  2  1  0
M  END
$$$$
