
     RDKit          3D

 25 25  0  0  0  0  0  0  0  0999 V2000
  -20.6906  -38.1794   -9.9196 C   0  0  0  0  0  0  0  0  0  0  0  0
  -20.4526  -38.5961   -8.4513 C   0  0  2  0  0  0  0  0  0  0  0  0
  -21.5168  -38.0008   -7.6451 C   0  0  0  0  0  0  0  0  0  0  0  0
  -21.3249  -37.7189   -6.2195 C   0  0  0  0  0  0  0  0  0  0  0  0
  -21.6713  -38.7885   -5.2368 C   0  0  0  0  0  0  0  0  0  0  0  0
  -22.9357  -39.5272   -5.4751 C   0  0  0  0  0  0  0  0  0  0  0  0
  -22.6434  -40.9060   -6.0184 C   0  0  0  0  0  0  0  0  0  0  0  0
  -22.0417  -41.7754   -4.9359 C   0  0  0  0  0  0  0  0  0  0  0  0
  -21.6599  -43.1468   -5.4665 C   0  0  0  0  0  0  0  0  0  0  0  0
  -20.1560  -43.3141   -5.4983 C   0  0  0  0  0  0  0  0  0  0  0  0
  -19.7250  -44.3076   -6.5103 C   0  0  0  0  0  0  0  0  0  0  0  0
  -20.4876  -45.3272   -6.6405 O   0  0  0  0  0  0  0  0  0  0  0  0
  -18.5942  -44.2603   -7.3294 N   0  0  0  0  0  0  0  0  0  0  0  0
  -17.7689  -45.4436   -7.5169 C   0  0  0  0  0  0  0  0  0  0  0  0
  -18.1291  -43.0726   -8.0627 C   0  0  1  0  0  0  0  0  0  0  0  0
  -17.8537  -43.4220   -9.5187 C   0  0  0  0  0  0  0  0  0  0  0  0
  -19.1743  -42.0155   -8.0564 C   0  0  0  0  0  0  0  0  0  0  0  0
  -20.3246  -42.4332   -8.4566 O   0  0  0  0  0  0  0  0  0  0  0  0
  -19.0474  -40.6887   -7.6810 N   0  0  0  0  0  0  0  0  0  0  0  0
  -18.2314  -39.6267   -8.2177 C   0  0  1  0  0  0  0  0  0  0  0  0
  -19.0377  -38.3104   -8.1281 C   0  0  0  0  0  0  0  0  0  0  0  0
  -16.9355  -39.4758   -7.4264 C   0  0  2  0  0  0  0  0  0  0  0  0
  -16.3380  -38.2506   -7.6489 O   0  0  0  0  0  0  0  0  0  0  0  0
  -15.9550  -40.5535   -7.7470 C   0  0  0  0  0  0  0  0  0  0  0  0
  -14.8563  -40.0954   -8.4702 O   0  0  0  0  0  0  0  0  0  0  0  0
  2  1  1  6
  2  3  1  0
  3  4  1  0
  4  5  1  0
  5  6  1  0
  6  7  1  0
  7  8  1  0
  8  9  1  0
  9 10  1  0
 10 11  1  0
 11 12  2  0
 11 13  1  0
 13 14  1  0
 13 15  1  0
 15 16  1  6
 15 17  1  0
 17 18  2  0
 17 19  1  0
 19 20  1  0
 20 21  1  1
 20 22  1  0
 22 23  1  6
 22 24  1  0
 24 25  1  0
 21  2  1  0
M  END
$$$$
