
     RDKit          3D

 25 25  0  0  0  0  0  0  0  0999 V2000
  -19.0500  -37.8248  -10.0125 C   0  0  0  0  0  0  0  0  0  0  0  0
  -19.2638  -38.5320   -8.6559 C   0  0  2  0  0  0  0  0  0  0  0  0
  -20.5533  -38.0919   -8.1265 C   0  0  0  0  0  0  0  0  0  0  0  0
  -20.8301  -38.1055   -6.6871 C   0  0  0  0  0  0  0  0  0  0  0  0
  -21.4158  -39.3442   -6.0938 C   0  0  0  0  0  0  0  0  0  0  0  0
  -22.5062  -39.9974   -6.8589 C   0  0  0  0  0  0  0  0  0  0  0  0
  -21.9945  -41.2440   -7.5414 C   0  0  0  0  0  0  0  0  0  0  0  0
  -21.7213  -42.3236   -6.5170 C   0  0  0  0  0  0  0  0  0  0  0  0
  -21.1290  -43.5672   -7.1580 C   0  0  0  0  0  0  0  0  0  0  0  0
  -19.6844  -43.7514   -6.7457 C   0  0  0  0  0  0  0  0  0  0  0  0
  -18.9126  -44.5289   -7.7440 C   0  0  0  0  0  0  0  0  0  0  0  0
  -19.5476  -45.4879   -8.3055 O   0  0  0  0  0  0  0  0  0  0  0  0
  -17.5859  -44.3382   -8.1383 N   0  0  0  0  0  0  0  0  0  0  0  0
  -16.6889  -45.4744   -8.2840 C   0  0  0  0  0  0  0  0  0  0  0  0
  -16.9711  -43.0360   -8.4395 C   0  0  1  0  0  0  0  0  0  0  0  0
  -16.2383  -43.0907   -9.7729 C   0  0  0  0  0  0  0  0  0  0  0  0
  -18.0143  -41.9833   -8.5563 C   0  0  0  0  0  0  0  0  0  0  0  0
  -18.9608  -42.2915   -9.3728 O   0  0  0  0  0  0  0  0  0  0  0  0
  -18.0733  -40.7613   -7.9076 N   0  0  0  0  0  0  0  0  0  0  0  0
  -17.1812  -39.6279   -7.9400 C   0  0  1  0  0  0  0  0  0  0  0  0
  -18.0358  -38.3423   -7.8533 C   0  0  0  0  0  0  0  0  0  0  0  0
  -16.2062  -39.6621   -6.7669 C   0  0  2  0  0  0  0  0  0  0  0  0
  -15.7735  -38.3965   -6.4221 O   0  0  0  0  0  0  0  0  0  0  0  0
  -15.0160  -40.5151   -7.0526 C   0  0  0  0  0  0  0  0  0  0  0  0
  -14.7248  -40.6096   -8.4114 O   0  0  0  0  0  0  0  0  0  0  0  0
  2  1  1  6
  2  3  1  0
  3  4  1  0
  4  5  1  0
  5  6  1  0
  6  7  1  0
  7  8  1  0
  8  9  1  0
  9 10  1  0
 10 11  1  0
 11 12  2  0
 11 13  1  0
 13 14  1  0
 13 15  1  0
 15 16  1  6
 15 17  1  0
 17 18  2  0
 17 19  1  0
 19 20  1  0
 20 21  1  1
 20 22  1  0
 22 23  1  6
 22 24  1  0
 24 25  1  0
 21  2  1  0
M  END
$$$$
