
     RDKit          3D

 25 25  0  0  0  0  0  0  0  0999 V2000
  -19.7178  -37.7724  -10.2024 C   0  0  0  0  0  0  0  0  0  0  0  0
  -19.6417  -38.2397   -8.7320 C   0  0  2  0  0  0  0  0  0  0  0  0
  -20.6587  -37.5051   -7.9817 C   0  0  0  0  0  0  0  0  0  0  0  0
  -20.5231  -37.2742   -6.5405 C   0  0  0  0  0  0  0  0  0  0  0  0
  -21.0869  -38.2943   -5.6073 C   0  0  0  0  0  0  0  0  0  0  0  0
  -22.4270  -38.8351   -5.9430 C   0  0  0  0  0  0  0  0  0  0  0  0
  -22.3040  -40.2344   -6.4986 C   0  0  0  0  0  0  0  0  0  0  0  0
  -21.9095  -41.1977   -5.4005 C   0  0  0  0  0  0  0  0  0  0  0  0
  -21.6979  -42.6031   -5.9375 C   0  0  0  0  0  0  0  0  0  0  0  0
  -20.2359  -42.9899   -5.8770 C   0  0  0  0  0  0  0  0  0  0  0  0
  -19.8884  -44.0221   -6.8823 C   0  0  0  0  0  0  0  0  0  0  0  0
  -20.7816  -44.9163   -7.0848 O   0  0  0  0  0  0  0  0  0  0  0  0
  -18.7108  -44.1309   -7.6262 N   0  0  0  0  0  0  0  0  0  0  0  0
  -18.0568  -45.4204   -7.7882 C   0  0  0  0  0  0  0  0  0  0  0  0
  -18.0292  -43.0149   -8.3003 C   0  0  1  0  0  0  0  0  0  0  0  0
  -17.7114  -43.3811   -9.7435 C   0  0  0  0  0  0  0  0  0  0  0  0
  -18.9066  -41.8154   -8.3361 C   0  0  0  0  0  0  0  0  0  0  0  0
  -20.0763  -42.0533   -8.8187 O   0  0  0  0  0  0  0  0  0  0  0  0
  -18.6122  -40.5271   -7.9225 N   0  0  0  0  0  0  0  0  0  0  0  0
  -17.6157  -39.5898   -8.3810 C   0  0  1  0  0  0  0  0  0  0  0  0
  -18.2250  -38.1704   -8.3125 C   0  0  0  0  0  0  0  0  0  0  0  0
  -16.3674  -39.6426   -7.5053 C   0  0  2  0  0  0  0  0  0  0  0  0
  -15.3873  -38.7801   -7.9561 O   0  0  0  0  0  0  0  0  0  0  0  0
  -15.7966  -41.0187   -7.4263 C   0  0  0  0  0  0  0  0  0  0  0  0
  -15.0672  -41.3737   -8.5586 O   0  0  0  0  0  0  0  0  0  0  0  0
  2  1  1  6
  2  3  1  0
  3  4  1  0
  4  5  1  0
  5  6  1  0
  6  7  1  0
  7  8  1  0
  8  9  1  0
  9 10  1  0
 10 11  1  0
 11 12  2  0
 11 13  1  0
 13 14  1  0
 13 15  1  0
 15 16  1  6
 15 17  1  0
 17 18  2  0
 17 19  1  0
 19 20  1  0
 20 21  1  1
 20 22  1  0
 22 23  1  6
 22 24  1  0
 24 25  1  0
 21  2  1  0
M  END
$$$$
