
     RDKit          3D

 25 25  0  0  0  0  0  0  0  0999 V2000
  -20.9148  -38.4462   -9.3005 C   0  0  0  0  0  0  0  0  0  0  0  0
  -20.5878  -39.1276   -7.9532 C   0  0  2  0  0  0  0  0  0  0  0  0
  -21.6962  -38.8555   -7.0400 C   0  0  0  0  0  0  0  0  0  0  0  0
  -21.5034  -38.8566   -5.5869 C   0  0  0  0  0  0  0  0  0  0  0  0
  -21.6873  -40.1437   -4.8526 C   0  0  0  0  0  0  0  0  0  0  0  0
  -22.8553  -40.9713   -5.2422 C   0  0  0  0  0  0  0  0  0  0  0  0
  -22.4076  -42.1567   -6.0645 C   0  0  0  0  0  0  0  0  0  0  0  0
  -21.6736  -43.1495   -5.1899 C   0  0  0  0  0  0  0  0  0  0  0  0
  -21.1376  -44.3190   -5.9981 C   0  0  0  0  0  0  0  0  0  0  0  0
  -19.6260  -44.2825   -6.0638 C   0  0  0  0  0  0  0  0  0  0  0  0
  -19.1012  -44.9784   -7.2626 C   0  0  0  0  0  0  0  0  0  0  0  0
  -19.7336  -46.0369   -7.6057 O   0  0  0  0  0  0  0  0  0  0  0  0
  -18.0072  -44.6163   -8.0527 N   0  0  0  0  0  0  0  0  0  0  0  0
  -17.0458  -45.6188   -8.4856 C   0  0  0  0  0  0  0  0  0  0  0  0
  -17.7138  -43.2519   -8.5182 C   0  0  1  0  0  0  0  0  0  0  0  0
  -17.4355  -43.2501  -10.0150 C   0  0  0  0  0  0  0  0  0  0  0  0
  -18.8823  -42.3620   -8.2892 C   0  0  0  0  0  0  0  0  0  0  0  0
  -19.9816  -42.8298   -8.7692 O   0  0  0  0  0  0  0  0  0  0  0  0
  -18.9122  -41.1382   -7.6418 N   0  0  0  0  0  0  0  0  0  0  0  0
  -18.2498  -39.8920   -7.9415 C   0  0  1  0  0  0  0  0  0  0  0  0
  -19.2116  -38.7377   -7.5763 C   0  0  0  0  0  0  0  0  0  0  0  0
  -16.9624  -39.7462   -7.1356 C   0  0  2  0  0  0  0  0  0  0  0  0
  -16.4060  -38.4903   -7.2800 O   0  0  0  0  0  0  0  0  0  0  0  0
  -15.9449  -40.7688   -7.5158 C   0  0  0  0  0  0  0  0  0  0  0  0
  -15.0110  -41.0105   -6.5111 O   0  0  0  0  0  0  0  0  0  0  0  0
  2  1  1  6
  2  3  1  0
  3  4  1  0
  4  5  1  0
  5  6  1  0
  6  7  1  0
  7  8  1  0
  8  9  1  0
  9 10  1  0
 10 11  1  0
 11 12  2  0
 11 13  1  0
 13 14  1  0
 13 15  1  0
 15 16  1  6
 15 17  1  0
 17 18  2  0
 17 19  1  0
 19 20  1  0
 20 21  1  1
 20 22  1  0
 22 23  1  6
 22 24  1  0
 24 25  1  0
 21  2  1  0
M  END
$$$$
