
     RDKit          3D

 25 25  0  0  0  0  0  0  0  0999 V2000
  -18.7638  -37.8726  -10.4399 C   0  0  0  0  0  0  0  0  0  0  0  0
  -19.0475  -38.3632   -9.0028 C   0  0  2  0  0  0  0  0  0  0  0  0
  -20.2374  -37.6624   -8.5235 C   0  0  0  0  0  0  0  0  0  0  0  0
  -20.4729  -37.4533   -7.0919 C   0  0  0  0  0  0  0  0  0  0  0  0
  -21.2279  -38.5005   -6.3417 C   0  0  0  0  0  0  0  0  0  0  0  0
  -22.4277  -39.0627   -7.0090 C   0  0  0  0  0  0  0  0  0  0  0  0
  -22.1358  -40.4495   -7.5319 C   0  0  0  0  0  0  0  0  0  0  0  0
  -22.0060  -41.4232   -6.3809 C   0  0  0  0  0  0  0  0  0  0  0  0
  -21.6328  -42.8146   -6.8635 C   0  0  0  0  0  0  0  0  0  0  0  0
  -20.2238  -43.1724   -6.4425 C   0  0  0  0  0  0  0  0  0  0  0  0
  -19.6107  -44.1801   -7.3401 C   0  0  0  0  0  0  0  0  0  0  0  0
  -20.4028  -45.0887   -7.7703 O   0  0  0  0  0  0  0  0  0  0  0  0
  -18.2819  -44.2521   -7.7658 N   0  0  0  0  0  0  0  0  0  0  0  0
  -17.5774  -45.5250   -7.7731 C   0  0  0  0  0  0  0  0  0  0  0  0
  -17.4802  -43.1111   -8.2346 C   0  0  1  0  0  0  0  0  0  0  0  0
  -16.8021  -43.4460   -9.5559 C   0  0  0  0  0  0  0  0  0  0  0  0
  -18.3492  -41.9293   -8.4758 C   0  0  0  0  0  0  0  0  0  0  0  0
  -19.3545  -42.1828   -9.2392 O   0  0  0  0  0  0  0  0  0  0  0  0
  -18.1990  -40.6425   -7.9870 N   0  0  0  0  0  0  0  0  0  0  0  0
  -17.1422  -39.6773   -8.1700 C   0  0  1  0  0  0  0  0  0  0  0  0
  -17.7831  -38.2720   -8.2405 C   0  0  0  0  0  0  0  0  0  0  0  0
  -16.1523  -39.7195   -7.0097 C   0  0  2  0  0  0  0  0  0  0  0  0
  -15.5305  -38.5007   -6.8210 O   0  0  0  0  0  0  0  0  0  0  0  0
  -15.1075  -40.7668   -7.2028 C   0  0  0  0  0  0  0  0  0  0  0  0
  -14.1189  -40.3919   -8.1096 O   0  0  0  0  0  0  0  0  0  0  0  0
  2  1  1  6
  2  3  1  0
  3  4  1  0
  4  5  1  0
  5  6  1  0
  6  7  1  0
  7  8  1  0
  8  9  1  0
  9 10  1  0
 10 11  1  0
 11 12  2  0
 11 13  1  0
 13 14  1  0
 13 15  1  0
 15 16  1  6
 15 17  1  0
 17 18  2  0
 17 19  1  0
 19 20  1  0
 20 21  1  1
 20 22  1  0
 22 23  1  6
 22 24  1  0
 24 25  1  0
 21  2  1  0
M  END
$$$$
