
     RDKit          3D

 25 25  0  0  0  0  0  0  0  0999 V2000
  -19.5729  -38.1843  -10.9360 C   0  0  0  0  0  0  0  0  0  0  0  0
  -19.5451  -38.5215   -9.4288 C   0  0  2  0  0  0  0  0  0  0  0  0
  -20.6449  -37.7976   -8.7937 C   0  0  0  0  0  0  0  0  0  0  0  0
  -20.6005  -37.4390   -7.3731 C   0  0  0  0  0  0  0  0  0  0  0  0
  -21.1470  -38.4138   -6.3829 C   0  0  0  0  0  0  0  0  0  0  0  0
  -22.4304  -39.0701   -6.7335 C   0  0  0  0  0  0  0  0  0  0  0  0
  -22.1897  -40.4992   -7.1597 C   0  0  0  0  0  0  0  0  0  0  0  0
  -21.7934  -41.3390   -5.9650 C   0  0  0  0  0  0  0  0  0  0  0  0
  -21.4650  -42.7666   -6.3679 C   0  0  0  0  0  0  0  0  0  0  0  0
  -19.9866  -43.0471   -6.2052 C   0  0  0  0  0  0  0  0  0  0  0  0
  -19.5216  -44.1334   -7.0999 C   0  0  0  0  0  0  0  0  0  0  0  0
  -20.3443  -45.0998   -7.2663 O   0  0  0  0  0  0  0  0  0  0  0  0
  -18.3018  -44.2237   -7.7751 N   0  0  0  0  0  0  0  0  0  0  0  0
  -17.5597  -45.4749   -7.7940 C   0  0  0  0  0  0  0  0  0  0  0  0
  -17.6578  -43.1240   -8.5103 C   0  0  1  0  0  0  0  0  0  0  0  0
  -17.2416  -43.5866   -9.8997 C   0  0  0  0  0  0  0  0  0  0  0  0
  -18.6064  -41.9938   -8.6910 C   0  0  0  0  0  0  0  0  0  0  0  0
  -19.7315  -42.3497   -9.2060 O   0  0  0  0  0  0  0  0  0  0  0  0
  -18.4167  -40.6586   -8.3769 N   0  0  0  0  0  0  0  0  0  0  0  0
  -17.4589  -39.6974   -8.8671 C   0  0  1  0  0  0  0  0  0  0  0  0
  -18.1597  -38.3217   -8.9504 C   0  0  0  0  0  0  0  0  0  0  0  0
  -16.2577  -39.5925   -7.9320 C   0  0  2  0  0  0  0  0  0  0  0  0
  -15.3618  -38.6293   -8.3534 O   0  0  0  0  0  0  0  0  0  0  0  0
  -15.5375  -40.8921   -7.7977 C   0  0  0  0  0  0  0  0  0  0  0  0
  -14.4918  -41.0340   -8.7068 O   0  0  0  0  0  0  0  0  0  0  0  0
  2  1  1  6
  2  3  1  0
  3  4  1  0
  4  5  1  0
  5  6  1  0
  6  7  1  0
  7  8  1  0
  8  9  1  0
  9 10  1  0
 10 11  1  0
 11 12  2  0
 11 13  1  0
 13 14  1  0
 13 15  1  0
 15 16  1  6
 15 17  1  0
 17 18  2  0
 17 19  1  0
 19 20  1  0
 20 21  1  1
 20 22  1  0
 22 23  1  6
 22 24  1  0
 24 25  1  0
 21  2  1  0
M  END
$$$$
