
     RDKit          3D

 25 25  0  0  0  0  0  0  0  0999 V2000
  -20.0320  -38.0022  -10.0946 C   0  0  0  0  0  0  0  0  0  0  0  0
  -19.9830  -38.6405   -8.6887 C   0  0  2  0  0  0  0  0  0  0  0  0
  -21.1620  -38.1840   -7.9549 C   0  0  0  0  0  0  0  0  0  0  0  0
  -21.1720  -38.1259   -6.4903 C   0  0  0  0  0  0  0  0  0  0  0  0
  -21.6185  -39.3371   -5.7399 C   0  0  0  0  0  0  0  0  0  0  0  0
  -22.8185  -40.0375   -6.2600 C   0  0  0  0  0  0  0  0  0  0  0  0
  -22.4181  -41.3134   -6.9625 C   0  0  0  0  0  0  0  0  0  0  0  0
  -21.9445  -42.3367   -5.9535 C   0  0  0  0  0  0  0  0  0  0  0  0
  -21.4574  -43.6067   -6.6301 C   0  0  0  0  0  0  0  0  0  0  0  0
  -19.9590  -43.7580   -6.4800 C   0  0  0  0  0  0  0  0  0  0  0  0
  -19.3684  -44.5796   -7.5631 C   0  0  0  0  0  0  0  0  0  0  0  0
  -20.0784  -45.5713   -7.9514 O   0  0  0  0  0  0  0  0  0  0  0  0
  -18.1392  -44.3988   -8.2020 N   0  0  0  0  0  0  0  0  0  0  0  0
  -17.2642  -45.5337   -8.4532 C   0  0  0  0  0  0  0  0  0  0  0  0
  -17.6120  -43.1089   -8.6740 C   0  0  1  0  0  0  0  0  0  0  0  0
  -17.1333  -43.2262  -10.1144 C   0  0  0  0  0  0  0  0  0  0  0  0
  -18.6770  -42.0720   -8.6497 C   0  0  0  0  0  0  0  0  0  0  0  0
  -19.7508  -42.4293   -9.2635 O   0  0  0  0  0  0  0  0  0  0  0  0
  -18.6380  -40.8188   -8.0619 N   0  0  0  0  0  0  0  0  0  0  0  0
  -17.7864  -39.6814   -8.3124 C   0  0  1  0  0  0  0  0  0  0  0  0
  -18.6329  -38.3999   -8.1342 C   0  0  0  0  0  0  0  0  0  0  0  0
  -16.6137  -39.6475   -7.3368 C   0  0  2  0  0  0  0  0  0  0  0  0
  -16.0850  -38.3774   -7.2138 O   0  0  0  0  0  0  0  0  0  0  0  0
  -15.5241  -40.5842   -7.7381 C   0  0  0  0  0  0  0  0  0  0  0  0
  -14.5601  -40.7577   -6.7478 O   0  0  0  0  0  0  0  0  0  0  0  0
  2  1  1  6
  2  3  1  0
  3  4  1  0
  4  5  1  0
  5  6  1  0
  6  7  1  0
  7  8  1  0
  8  9  1  0
  9 10  1  0
 10 11  1  0
 11 12  2  0
 11 13  1  0
 13 14  1  0
 13 15  1  0
 15 16  1  6
 15 17  1  0
 17 18  2  0
 17 19  1  0
 19 20  1  0
 20 21  1  1
 20 22  1  0
 22 23  1  6
 22 24  1  0
 24 25  1  0
 21  2  1  0
M  END
$$$$
