
     RDKit          3D

 25 25  0  0  0  0  0  0  0  0999 V2000
  -20.5346  -38.6365  -10.1581 C   0  0  0  0  0  0  0  0  0  0  0  0
  -20.2388  -38.9791   -8.6811 C   0  0  2  0  0  0  0  0  0  0  0  0
  -21.1957  -38.2431   -7.8568 C   0  0  0  0  0  0  0  0  0  0  0  0
  -20.8902  -37.8898   -6.4674 C   0  0  0  0  0  0  0  0  0  0  0  0
  -21.2613  -38.8607   -5.3954 C   0  0  0  0  0  0  0  0  0  0  0  0
  -22.5956  -39.4992   -5.5085 C   0  0  0  0  0  0  0  0  0  0  0  0
  -22.4551  -40.9299   -5.9725 C   0  0  0  0  0  0  0  0  0  0  0  0
  -21.8603  -41.7787   -4.8701 C   0  0  0  0  0  0  0  0  0  0  0  0
  -21.6293  -43.2090   -5.3271 C   0  0  0  0  0  0  0  0  0  0  0  0
  -20.1498  -43.5092   -5.4350 C   0  0  0  0  0  0  0  0  0  0  0  0
  -19.8690  -44.5985   -6.4001 C   0  0  0  0  0  0  0  0  0  0  0  0
  -20.7210  -45.5535   -6.4157 O   0  0  0  0  0  0  0  0  0  0  0  0
  -18.7929  -44.7023   -7.2851 N   0  0  0  0  0  0  0  0  0  0  0  0
  -18.0832  -45.9630   -7.4392 C   0  0  0  0  0  0  0  0  0  0  0  0
  -18.2779  -43.6087   -8.1237 C   0  0  1  0  0  0  0  0  0  0  0  0
  -18.1264  -44.0719   -9.5660 C   0  0  0  0  0  0  0  0  0  0  0  0
  -19.2285  -42.4657   -8.1287 C   0  0  0  0  0  0  0  0  0  0  0  0
  -20.4329  -42.8052   -8.4318 O   0  0  0  0  0  0  0  0  0  0  0  0
  -18.9673  -41.1341   -7.8529 N   0  0  0  0  0  0  0  0  0  0  0  0
  -18.1013  -40.1837   -8.5075 C   0  0  1  0  0  0  0  0  0  0  0  0
  -18.7872  -38.7988   -8.4613 C   0  0  0  0  0  0  0  0  0  0  0  0
  -16.7494  -40.0974   -7.8053 C   0  0  2  0  0  0  0  0  0  0  0  0
  -16.3111  -38.7924   -7.6941 O   0  0  0  0  0  0  0  0  0  0  0  0
  -15.7027  -40.8973   -8.5055 C   0  0  0  0  0  0  0  0  0  0  0  0
  -14.4813  -40.9046   -7.8360 O   0  0  0  0  0  0  0  0  0  0  0  0
  2  1  1  6
  2  3  1  0
  3  4  1  0
  4  5  1  0
  5  6  1  0
  6  7  1  0
  7  8  1  0
  8  9  1  0
  9 10  1  0
 10 11  1  0
 11 12  2  0
 11 13  1  0
 13 14  1  0
 13 15  1  0
 15 16  1  6
 15 17  1  0
 17 18  2  0
 17 19  1  0
 19 20  1  0
 20 21  1  1
 20 22  1  0
 22 23  1  6
 22 24  1  0
 24 25  1  0
 21  2  1  0
M  END
$$$$
