
     RDKit          3D

 25 25  0  0  0  0  0  0  0  0999 V2000
  -18.7564  -35.9375   -8.2457 C   0  0  0  0  0  0  0  0  0  0  0  0
  -18.9522  -37.4652   -8.1269 C   0  0  2  0  0  0  0  0  0  0  0  0
  -20.3873  -37.7192   -8.0134 C   0  0  0  0  0  0  0  0  0  0  0  0
  -20.8972  -38.9259   -7.3559 C   0  0  0  0  0  0  0  0  0  0  0  0
  -21.1127  -40.1454   -8.1901 C   0  0  0  0  0  0  0  0  0  0  0  0
  -21.7507  -39.9421   -9.5140 C   0  0  0  0  0  0  0  0  0  0  0  0
  -20.7232  -40.0587  -10.6151 C   0  0  0  0  0  0  0  0  0  0  0  0
  -20.2816  -41.4982  -10.7647 C   0  0  0  0  0  0  0  0  0  0  0  0
  -19.1885  -41.6432  -11.8099 C   0  0  0  0  0  0  0  0  0  0  0  0
  -17.8699  -42.0114  -11.1647 C   0  0  0  0  0  0  0  0  0  0  0  0
  -16.7091  -41.5893  -11.9841 C   0  0  0  0  0  0  0  0  0  0  0  0
  -16.8586  -41.7028  -13.2502 O   0  0  0  0  0  0  0  0  0  0  0  0
  -15.4835  -41.0877  -11.5388 N   0  0  0  0  0  0  0  0  0  0  0  0
  -14.2369  -41.5637  -12.1185 C   0  0  0  0  0  0  0  0  0  0  0  0
  -15.3162  -40.0712  -10.4884 C   0  0  1  0  0  0  0  0  0  0  0  0
  -14.3821  -38.9666  -10.9628 C   0  0  0  0  0  0  0  0  0  0  0  0
  -16.6208  -39.4341  -10.1691 C   0  0  0  0  0  0  0  0  0  0  0  0
  -17.2371  -38.9858  -11.2068 O   0  0  0  0  0  0  0  0  0  0  0  0
  -17.2171  -39.2799   -8.9289 N   0  0  0  0  0  0  0  0  0  0  0  0
  -16.7844  -38.5656   -7.7523 C   0  0  1  0  0  0  0  0  0  0  0  0
  -18.0333  -37.9543   -7.0760 C   0  0  0  0  0  0  0  0  0  0  0  0
  -16.0873  -39.4996   -6.7675 C   0  0  2  0  0  0  0  0  0  0  0  0
  -16.4000  -39.1907   -5.4581 O   0  0  0  0  0  0  0  0  0  0  0  0
  -14.6041  -39.4742   -6.9258 C   0  0  0  0  0  0  0  0  0  0  0  0
  -13.9427  -40.2889   -6.0099 O   0  0  0  0  0  0  0  0  0  0  0  0
  2  1  1  1
  2  3  1  0
  3  4  1  0
  4  5  1  0
  5  6  1  0
  6  7  1  0
  7  8  1  0
  8  9  1  0
  9 10  1  0
 10 11  1  0
 11 12  2  0
 11 13  1  0
 13 14  1  0
 13 15  1  0
 15 16  1  6
 15 17  1  0
 17 18  2  0
 17 19  1  0
 19 20  1  0
 20 21  1  1
 20 22  1  0
 22 23  1  1
 22 24  1  0
 24 25  1  0
 21  2  1  0
M  END
$$$$
