
     RDKit          3D

 25 25  0  0  0  0  0  0  0  0999 V2000
  -20.6443  -38.2846   -9.7870 C   0  0  0  0  0  0  0  0  0  0  0  0
  -20.3431  -38.7772   -8.3542 C   0  0  2  0  0  0  0  0  0  0  0  0
  -21.3744  -38.2316   -7.4735 C   0  0  0  0  0  0  0  0  0  0  0  0
  -21.1235  -38.0247   -6.0442 C   0  0  0  0  0  0  0  0  0  0  0  0
  -21.4244  -39.1468   -5.1062 C   0  0  0  0  0  0  0  0  0  0  0  0
  -22.6951  -39.8791   -5.3302 C   0  0  0  0  0  0  0  0  0  0  0  0
  -22.4212  -41.2254   -5.9579 C   0  0  0  0  0  0  0  0  0  0  0  0
  -21.7713  -42.1475   -4.9495 C   0  0  0  0  0  0  0  0  0  0  0  0
  -21.4075  -43.4867   -5.5679 C   0  0  0  0  0  0  0  0  0  0  0  0
  -19.9057  -43.6434   -5.6716 C   0  0  0  0  0  0  0  0  0  0  0  0
  -19.5142  -44.5793   -6.7522 C   0  0  0  0  0  0  0  0  0  0  0  0
  -20.2781  -45.5950   -6.9044 O   0  0  0  0  0  0  0  0  0  0  0  0
  -18.4192  -44.4821   -7.6144 N   0  0  0  0  0  0  0  0  0  0  0  0
  -17.5984  -45.6492   -7.8991 C   0  0  0  0  0  0  0  0  0  0  0  0
  -17.9896  -43.2546   -8.3023 C   0  0  1  0  0  0  0  0  0  0  0  0
  -17.7746  -43.5246   -9.7850 C   0  0  0  0  0  0  0  0  0  0  0  0
  -19.0373  -42.2054   -8.1958 C   0  0  0  0  0  0  0  0  0  0  0  0
  -20.2019  -42.6078   -8.5692 O   0  0  0  0  0  0  0  0  0  0  0  0
  -18.8993  -40.8996   -7.7560 N   0  0  0  0  0  0  0  0  0  0  0  0
  -18.1104  -39.8060   -8.2691 C   0  0  1  0  0  0  0  0  0  0  0  0
  -18.9168  -38.5009   -8.0759 C   0  0  0  0  0  0  0  0  0  0  0  0
  -16.7828  -39.6899   -7.5260 C   0  0  2  0  0  0  0  0  0  0  0  0
  -16.2173  -38.4390   -7.6780 O   0  0  0  0  0  0  0  0  0  0  0  0
  -15.7993  -40.7189   -7.9725 C   0  0  0  0  0  0  0  0  0  0  0  0
  -14.5745  -40.6257   -7.3159 O   0  0  0  0  0  0  0  0  0  0  0  0
  2  1  1  6
  2  3  1  0
  3  4  1  0
  4  5  1  0
  5  6  1  0
  6  7  1  0
  7  8  1  0
  8  9  1  0
  9 10  1  0
 10 11  1  0
 11 12  2  0
 11 13  1  0
 13 14  1  0
 13 15  1  0
 15 16  1  6
 15 17  1  0
 17 18  2  0
 17 19  1  0
 19 20  1  0
 20 21  1  1
 20 22  1  0
 22 23  1  6
 22 24  1  0
 24 25  1  0
 21  2  1  0
M  END
$$$$
