
     RDKit          3D

 25 25  0  0  0  0  0  0  0  0999 V2000
  -20.3063  -38.2666  -10.3355 C   0  0  0  0  0  0  0  0  0  0  0  0
  -20.1886  -38.5517   -8.8218 C   0  0  2  0  0  0  0  0  0  0  0  0
  -21.2144  -37.7623   -8.1425 C   0  0  0  0  0  0  0  0  0  0  0  0
  -21.0598  -37.3563   -6.7425 C   0  0  0  0  0  0  0  0  0  0  0  0
  -21.5739  -38.2731   -5.6820 C   0  0  0  0  0  0  0  0  0  0  0  0
  -22.9021  -38.8891   -5.9212 C   0  0  0  0  0  0  0  0  0  0  0  0
  -22.7451  -40.3408   -6.3084 C   0  0  0  0  0  0  0  0  0  0  0  0
  -22.3003  -41.1535   -5.1121 C   0  0  0  0  0  0  0  0  0  0  0  0
  -22.0542  -42.6063   -5.4819 C   0  0  0  0  0  0  0  0  0  0  0  0
  -20.5799  -42.9402   -5.4078 C   0  0  0  0  0  0  0  0  0  0  0  0
  -20.2183  -44.0750   -6.2901 C   0  0  0  0  0  0  0  0  0  0  0  0
  -21.0863  -45.0127   -6.3647 O   0  0  0  0  0  0  0  0  0  0  0  0
  -19.0517  -44.2378   -7.0413 N   0  0  0  0  0  0  0  0  0  0  0  0
  -18.3603  -45.5178   -7.0626 C   0  0  0  0  0  0  0  0  0  0  0  0
  -18.4182  -43.1914   -7.8587 C   0  0  1  0  0  0  0  0  0  0  0  0
  -18.1154  -43.7186   -9.2545 C   0  0  0  0  0  0  0  0  0  0  0  0
  -19.3336  -42.0310   -8.0182 C   0  0  0  0  0  0  0  0  0  0  0  0
  -20.5038  -42.3591   -8.4431 O   0  0  0  0  0  0  0  0  0  0  0  0
  -19.0726  -40.6943   -7.7679 N   0  0  0  0  0  0  0  0  0  0  0  0
  -18.1148  -39.7901   -8.3568 C   0  0  1  0  0  0  0  0  0  0  0  0
  -18.7673  -38.3911   -8.4448 C   0  0  0  0  0  0  0  0  0  0  0  0
  -16.8496  -39.7009   -7.5086 C   0  0  2  0  0  0  0  0  0  0  0  0
  -16.1591  -38.5270   -7.7387 O   0  0  0  0  0  0  0  0  0  0  0  0
  -15.9321  -40.8525   -7.7488 C   0  0  0  0  0  0  0  0  0  0  0  0
  -15.0745  -41.1004   -6.6797 O   0  0  0  0  0  0  0  0  0  0  0  0
  2  1  1  6
  2  3  1  0
  3  4  1  0
  4  5  1  0
  5  6  1  0
  6  7  1  0
  7  8  1  0
  8  9  1  0
  9 10  1  0
 10 11  1  0
 11 12  2  0
 11 13  1  0
 13 14  1  0
 13 15  1  0
 15 16  1  6
 15 17  1  0
 17 18  2  0
 17 19  1  0
 19 20  1  0
 20 21  1  1
 20 22  1  0
 22 23  1  6
 22 24  1  0
 24 25  1  0
 21  2  1  0
M  END
$$$$
