
     RDKit          3D

 25 25  0  0  0  0  0  0  0  0999 V2000
  -20.3971  -38.4284  -10.0432 C   0  0  0  0  0  0  0  0  0  0  0  0
  -20.1803  -38.8719   -8.5794 C   0  0  2  0  0  0  0  0  0  0  0  0
  -21.2230  -38.2452   -7.7688 C   0  0  0  0  0  0  0  0  0  0  0  0
  -21.0248  -37.9884   -6.3393 C   0  0  0  0  0  0  0  0  0  0  0  0
  -21.4159  -39.0555   -5.3708 C   0  0  0  0  0  0  0  0  0  0  0  0
  -22.7073  -39.7412   -5.6215 C   0  0  0  0  0  0  0  0  0  0  0  0
  -22.4675  -41.1237   -6.1810 C   0  0  0  0  0  0  0  0  0  0  0  0
  -21.9037  -42.0290   -5.1076 C   0  0  0  0  0  0  0  0  0  0  0  0
  -21.5741  -43.4078   -5.6539 C   0  0  0  0  0  0  0  0  0  0  0  0
  -20.0778  -43.6334   -5.6837 C   0  0  0  0  0  0  0  0  0  0  0  0
  -19.6827  -44.6306   -6.7066 C   0  0  0  0  0  0  0  0  0  0  0  0
  -20.4842  -45.6180   -6.8514 O   0  0  0  0  0  0  0  0  0  0  0  0
  -18.5483  -44.6176   -7.5220 N   0  0  0  0  0  0  0  0  0  0  0  0
  -17.7693  -45.8300   -7.7218 C   0  0  0  0  0  0  0  0  0  0  0  0
  -18.0348  -43.4403   -8.2394 C   0  0  1  0  0  0  0  0  0  0  0  0
  -17.7686  -43.7824   -9.6988 C   0  0  0  0  0  0  0  0  0  0  0  0
  -19.0380  -42.3432   -8.2230 C   0  0  0  0  0  0  0  0  0  0  0  0
  -20.2023  -42.7107   -8.6315 O   0  0  0  0  0  0  0  0  0  0  0  0
  -18.8604  -41.0271   -7.8310 N   0  0  0  0  0  0  0  0  0  0  0  0
  -18.0019  -39.9913   -8.3524 C   0  0  1  0  0  0  0  0  0  0  0  0
  -18.7564  -38.6457   -8.2489 C   0  0  0  0  0  0  0  0  0  0  0  0
  -16.7036  -39.9009   -7.5558 C   0  0  2  0  0  0  0  0  0  0  0  0
  -16.1376  -38.6437   -7.6380 O   0  0  0  0  0  0  0  0  0  0  0  0
  -15.7001  -40.9095   -8.0044 C   0  0  0  0  0  0  0  0  0  0  0  0
  -14.4667  -40.7721   -7.3720 O   0  0  0  0  0  0  0  0  0  0  0  0
  2  1  1  6
  2  3  1  0
  3  4  1  0
  4  5  1  0
  5  6  1  0
  6  7  1  0
  7  8  1  0
  8  9  1  0
  9 10  1  0
 10 11  1  0
 11 12  2  0
 11 13  1  0
 13 14  1  0
 13 15  1  0
 15 16  1  6
 15 17  1  0
 17 18  2  0
 17 19  1  0
 19 20  1  0
 20 21  1  1
 20 22  1  0
 22 23  1  6
 22 24  1  0
 24 25  1  0
 21  2  1  0
M  END
$$$$
