
     RDKit          3D

 25 25  0  0  0  0  0  0  0  0999 V2000
  -20.5459  -37.8520   -9.9517 C   0  0  0  0  0  0  0  0  0  0  0  0
  -20.3339  -38.4125   -8.5279 C   0  0  2  0  0  0  0  0  0  0  0  0
  -21.4172  -37.9052   -7.6877 C   0  0  0  0  0  0  0  0  0  0  0  0
  -21.2547  -37.7665   -6.2375 C   0  0  0  0  0  0  0  0  0  0  0  0
  -21.6137  -38.9304   -5.3737 C   0  0  0  0  0  0  0  0  0  0  0  0
  -22.8686  -39.6468   -5.7097 C   0  0  0  0  0  0  0  0  0  0  0  0
  -22.5575  -40.9631   -6.3821 C   0  0  0  0  0  0  0  0  0  0  0  0
  -21.9717  -41.9339   -5.3802 C   0  0  0  0  0  0  0  0  0  0  0  0
  -21.5713  -43.2438   -6.0374 C   0  0  0  0  0  0  0  0  0  0  0  0
  -20.0661  -43.4009   -6.0557 C   0  0  0  0  0  0  0  0  0  0  0  0
  -19.6094  -44.2864   -7.1531 C   0  0  0  0  0  0  0  0  0  0  0  0
  -20.3631  -45.2911   -7.3997 O   0  0  0  0  0  0  0  0  0  0  0  0
  -18.4632  -44.1528   -7.9407 N   0  0  0  0  0  0  0  0  0  0  0  0
  -17.6272  -45.3081   -8.2290 C   0  0  0  0  0  0  0  0  0  0  0  0
  -17.9912  -42.8959   -8.5423 C   0  0  1  0  0  0  0  0  0  0  0  0
  -17.6854  -43.0967  -10.0201 C   0  0  0  0  0  0  0  0  0  0  0  0
  -19.0428  -41.8490   -8.4512 C   0  0  0  0  0  0  0  0  0  0  0  0
  -20.1824  -42.2292   -8.9140 O   0  0  0  0  0  0  0  0  0  0  0  0
  -18.9312  -40.5659   -7.9427 N   0  0  0  0  0  0  0  0  0  0  0  0
  -18.1115  -39.4521   -8.3542 C   0  0  1  0  0  0  0  0  0  0  0  0
  -18.9273  -38.1548   -8.1497 C   0  0  0  0  0  0  0  0  0  0  0  0
  -16.8321  -39.3758   -7.5261 C   0  0  2  0  0  0  0  0  0  0  0  0
  -15.9748  -38.3996   -7.9949 O   0  0  0  0  0  0  0  0  0  0  0  0
  -16.1059  -40.6786   -7.4964 C   0  0  0  0  0  0  0  0  0  0  0  0
  -14.8214  -40.6007   -8.0295 O   0  0  0  0  0  0  0  0  0  0  0  0
  2  1  1  6
  2  3  1  0
  3  4  1  0
  4  5  1  0
  5  6  1  0
  6  7  1  0
  7  8  1  0
  8  9  1  0
  9 10  1  0
 10 11  1  0
 11 12  2  0
 11 13  1  0
 13 14  1  0
 13 15  1  0
 15 16  1  6
 15 17  1  0
 17 18  2  0
 17 19  1  0
 19 20  1  0
 20 21  1  1
 20 22  1  0
 22 23  1  6
 22 24  1  0
 24 25  1  0
 21  2  1  0
M  END
$$$$
