
     RDKit          3D

 25 25  0  0  0  0  0  0  0  0999 V2000
  -19.8554  -38.2031  -10.3051 C   0  0  0  0  0  0  0  0  0  0  0  0
  -19.8726  -38.6440   -8.8247 C   0  0  2  0  0  0  0  0  0  0  0  0
  -21.0962  -38.1188   -8.2215 C   0  0  0  0  0  0  0  0  0  0  0  0
  -21.1859  -37.8632   -6.7810 C   0  0  0  0  0  0  0  0  0  0  0  0
  -21.6539  -38.9714   -5.8964 C   0  0  0  0  0  0  0  0  0  0  0  0
  -22.8134  -39.7623   -6.3770 C   0  0  0  0  0  0  0  0  0  0  0  0
  -22.3566  -41.1123   -6.8776 C   0  0  0  0  0  0  0  0  0  0  0  0
  -21.9227  -41.9788   -5.7155 C   0  0  0  0  0  0  0  0  0  0  0  0
  -21.3807  -43.3176   -6.1868 C   0  0  0  0  0  0  0  0  0  0  0  0
  -19.8904  -43.4137   -5.9408 C   0  0  0  0  0  0  0  0  0  0  0  0
  -19.2300  -44.3610   -6.8700 C   0  0  0  0  0  0  0  0  0  0  0  0
  -19.9030  -45.4116   -7.1554 O   0  0  0  0  0  0  0  0  0  0  0  0
  -17.9710  -44.2410   -7.4636 N   0  0  0  0  0  0  0  0  0  0  0  0
  -17.0667  -45.3797   -7.5125 C   0  0  0  0  0  0  0  0  0  0  0  0
  -17.4387  -43.0154   -8.0793 C   0  0  1  0  0  0  0  0  0  0  0  0
  -16.8813  -43.3159   -9.4638 C   0  0  0  0  0  0  0  0  0  0  0  0
  -18.5189  -42.0087   -8.2514 C   0  0  0  0  0  0  0  0  0  0  0  0
  -19.5526  -42.4696   -8.8650 O   0  0  0  0  0  0  0  0  0  0  0  0
  -18.5306  -40.6869   -7.8386 N   0  0  0  0  0  0  0  0  0  0  0  0
  -17.6840  -39.5752   -8.1978 C   0  0  1  0  0  0  0  0  0  0  0  0
  -18.5581  -38.3006   -8.2396 C   0  0  0  0  0  0  0  0  0  0  0  0
  -16.5662  -39.3834   -7.1770 C   0  0  2  0  0  0  0  0  0  0  0  0
  -16.3860  -38.0519   -6.8573 O   0  0  0  0  0  0  0  0  0  0  0  0
  -15.2685  -39.9420   -7.6562 C   0  0  0  0  0  0  0  0  0  0  0  0
  -14.7423  -40.9103   -6.8043 O   0  0  0  0  0  0  0  0  0  0  0  0
  2  1  1  6
  2  3  1  0
  3  4  1  0
  4  5  1  0
  5  6  1  0
  6  7  1  0
  7  8  1  0
  8  9  1  0
  9 10  1  0
 10 11  1  0
 11 12  2  0
 11 13  1  0
 13 14  1  0
 13 15  1  0
 15 16  1  6
 15 17  1  0
 17 18  2  0
 17 19  1  0
 19 20  1  0
 20 21  1  1
 20 22  1  0
 22 23  1  6
 22 24  1  0
 24 25  1  0
 21  2  1  0
M  END
$$$$
