
     RDKit          3D

 25 25  0  0  0  0  0  0  0  0999 V2000
  -19.8905  -38.2392   -9.9417 C   0  0  0  0  0  0  0  0  0  0  0  0
  -19.8062  -38.7470   -8.4852 C   0  0  2  0  0  0  0  0  0  0  0  0
  -20.9238  -38.1609   -7.7476 C   0  0  0  0  0  0  0  0  0  0  0  0
  -20.8602  -37.9676   -6.2959 C   0  0  0  0  0  0  0  0  0  0  0  0
  -21.3308  -39.0783   -5.4159 C   0  0  0  0  0  0  0  0  0  0  0  0
  -22.5884  -39.7566   -5.8149 C   0  0  0  0  0  0  0  0  0  0  0  0
  -22.2874  -41.1118   -6.4104 C   0  0  0  0  0  0  0  0  0  0  0  0
  -21.8181  -42.0623   -5.3307 C   0  0  0  0  0  0  0  0  0  0  0  0
  -21.4291  -43.4141   -5.9047 C   0  0  0  0  0  0  0  0  0  0  0  0
  -19.9348  -43.6329   -5.8060 C   0  0  0  0  0  0  0  0  0  0  0  0
  -19.4395  -44.5820   -6.8312 C   0  0  0  0  0  0  0  0  0  0  0  0
  -20.2167  -45.5647   -7.0929 O   0  0  0  0  0  0  0  0  0  0  0  0
  -18.2349  -44.5286   -7.5369 N   0  0  0  0  0  0  0  0  0  0  0  0
  -17.4316  -45.7281   -7.7173 C   0  0  0  0  0  0  0  0  0  0  0  0
  -17.6665  -43.3185   -8.1510 C   0  0  1  0  0  0  0  0  0  0  0  0
  -17.2643  -43.5940   -9.5932 C   0  0  0  0  0  0  0  0  0  0  0  0
  -18.6752  -42.2268   -8.1788 C   0  0  0  0  0  0  0  0  0  0  0  0
  -19.7941  -42.5796   -8.7089 O   0  0  0  0  0  0  0  0  0  0  0  0
  -18.5445  -40.9289   -7.7142 N   0  0  0  0  0  0  0  0  0  0  0  0
  -17.6495  -39.8679   -8.1077 C   0  0  1  0  0  0  0  0  0  0  0  0
  -18.4205  -38.5309   -8.0149 C   0  0  0  0  0  0  0  0  0  0  0  0
  -16.4309  -39.8087   -7.1913 C   0  0  2  0  0  0  0  0  0  0  0  0
  -15.9695  -38.5164   -7.0337 O   0  0  0  0  0  0  0  0  0  0  0  0
  -15.3125  -40.6601   -7.6913 C   0  0  0  0  0  0  0  0  0  0  0  0
  -14.7774  -41.4912   -6.7099 O   0  0  0  0  0  0  0  0  0  0  0  0
  2  1  1  6
  2  3  1  0
  3  4  1  0
  4  5  1  0
  5  6  1  0
  6  7  1  0
  7  8  1  0
  8  9  1  0
  9 10  1  0
 10 11  1  0
 11 12  2  0
 11 13  1  0
 13 14  1  0
 13 15  1  0
 15 16  1  6
 15 17  1  0
 17 18  2  0
 17 19  1  0
 19 20  1  0
 20 21  1  1
 20 22  1  0
 22 23  1  6
 22 24  1  0
 24 25  1  0
 21  2  1  0
M  END
$$$$
