
     RDKit          3D

 25 25  0  0  0  0  0  0  0  0999 V2000
  -20.1766  -38.2549  -10.1583 C   0  0  0  0  0  0  0  0  0  0  0  0
  -20.0902  -38.6847   -8.6770 C   0  0  2  0  0  0  0  0  0  0  0  0
  -21.1547  -37.9921   -7.9532 C   0  0  0  0  0  0  0  0  0  0  0  0
  -21.0476  -37.7222   -6.5164 C   0  0  0  0  0  0  0  0  0  0  0  0
  -21.5634  -38.7516   -5.5657 C   0  0  0  0  0  0  0  0  0  0  0  0
  -22.8674  -39.3743   -5.9017 C   0  0  0  0  0  0  0  0  0  0  0  0
  -22.6602  -40.7763   -6.4244 C   0  0  0  0  0  0  0  0  0  0  0  0
  -22.2240  -41.6915   -5.3012 C   0  0  0  0  0  0  0  0  0  0  0  0
  -21.9283  -43.0942   -5.8042 C   0  0  0  0  0  0  0  0  0  0  0  0
  -20.4476  -43.3967   -5.7212 C   0  0  0  0  0  0  0  0  0  0  0  0
  -20.0321  -44.4296   -6.6996 C   0  0  0  0  0  0  0  0  0  0  0  0
  -20.8715  -45.3769   -6.8902 O   0  0  0  0  0  0  0  0  0  0  0  0
  -18.8423  -44.4883   -7.4297 N   0  0  0  0  0  0  0  0  0  0  0  0
  -18.1154  -45.7422   -7.5564 C   0  0  0  0  0  0  0  0  0  0  0  0
  -18.2172  -43.3508   -8.1224 C   0  0  1  0  0  0  0  0  0  0  0  0
  -17.8639  -43.7302   -9.5539 C   0  0  0  0  0  0  0  0  0  0  0  0
  -19.1600  -42.2037   -8.1936 C   0  0  0  0  0  0  0  0  0  0  0  0
  -20.3093  -42.5176   -8.6817 O   0  0  0  0  0  0  0  0  0  0  0  0
  -18.9428  -40.8920   -7.8064 N   0  0  0  0  0  0  0  0  0  0  0  0
  -17.9955  -39.9105   -8.2766 C   0  0  1  0  0  0  0  0  0  0  0  0
  -18.6841  -38.5264   -8.2459 C   0  0  0  0  0  0  0  0  0  0  0  0
  -16.7556  -39.8736   -7.3881 C   0  0  2  0  0  0  0  0  0  0  0  0
  -16.1263  -38.6451   -7.4360 O   0  0  0  0  0  0  0  0  0  0  0  0
  -15.7711  -40.9321   -7.7566 C   0  0  0  0  0  0  0  0  0  0  0  0
  -14.8201  -40.4976   -8.6769 O   0  0  0  0  0  0  0  0  0  0  0  0
  2  1  1  6
  2  3  1  0
  3  4  1  0
  4  5  1  0
  5  6  1  0
  6  7  1  0
  7  8  1  0
  8  9  1  0
  9 10  1  0
 10 11  1  0
 11 12  2  0
 11 13  1  0
 13 14  1  0
 13 15  1  0
 15 16  1  6
 15 17  1  0
 17 18  2  0
 17 19  1  0
 19 20  1  0
 20 21  1  1
 20 22  1  0
 22 23  1  6
 22 24  1  0
 24 25  1  0
 21  2  1  0
M  END
$$$$
