
     RDKit          3D

 25 25  0  0  0  0  0  0  0  0999 V2000
  -18.9353  -37.8449  -10.5173 C   0  0  0  0  0  0  0  0  0  0  0  0
  -19.1523  -38.2787   -9.0506 C   0  0  2  0  0  0  0  0  0  0  0  0
  -20.2616  -37.4907   -8.5164 C   0  0  0  0  0  0  0  0  0  0  0  0
  -20.3875  -37.2296   -7.0795 C   0  0  0  0  0  0  0  0  0  0  0  0
  -21.1545  -38.2062   -6.2504 C   0  0  0  0  0  0  0  0  0  0  0  0
  -22.4288  -38.7076   -6.8211 C   0  0  0  0  0  0  0  0  0  0  0  0
  -22.2595  -40.1234   -7.3195 C   0  0  0  0  0  0  0  0  0  0  0  0
  -22.1140  -41.0730   -6.1505 C   0  0  0  0  0  0  0  0  0  0  0  0
  -21.8614  -42.4976   -6.6140 C   0  0  0  0  0  0  0  0  0  0  0  0
  -20.4524  -42.9340   -6.2748 C   0  0  0  0  0  0  0  0  0  0  0  0
  -19.9646  -44.0021   -7.1795 C   0  0  0  0  0  0  0  0  0  0  0  0
  -20.8388  -44.8689   -7.5296 O   0  0  0  0  0  0  0  0  0  0  0  0
  -18.6744  -44.1703   -7.6883 N   0  0  0  0  0  0  0  0  0  0  0  0
  -18.0526  -45.4855   -7.7029 C   0  0  0  0  0  0  0  0  0  0  0  0
  -17.8362  -43.0957   -8.2426 C   0  0  1  0  0  0  0  0  0  0  0  0
  -17.2701  -43.5079   -9.5944 C   0  0  0  0  0  0  0  0  0  0  0  0
  -18.6440  -41.8673   -8.4624 C   0  0  0  0  0  0  0  0  0  0  0  0
  -19.7119  -42.0756   -9.1508 O   0  0  0  0  0  0  0  0  0  0  0  0
  -18.3816  -40.5804   -8.0236 N   0  0  0  0  0  0  0  0  0  0  0  0
  -17.2813  -39.6902   -8.3041 C   0  0  1  0  0  0  0  0  0  0  0  0
  -17.8367  -38.2490   -8.3752 C   0  0  0  0  0  0  0  0  0  0  0  0
  -16.2207  -39.7655   -7.2098 C   0  0  2  0  0  0  0  0  0  0  0  0
  -15.4708  -38.6077   -7.1413 O   0  0  0  0  0  0  0  0  0  0  0  0
  -15.2996  -40.9234   -7.4015 C   0  0  0  0  0  0  0  0  0  0  0  0
  -14.4406  -40.7647   -8.4864 O   0  0  0  0  0  0  0  0  0  0  0  0
  2  1  1  6
  2  3  1  0
  3  4  1  0
  4  5  1  0
  5  6  1  0
  6  7  1  0
  7  8  1  0
  8  9  1  0
  9 10  1  0
 10 11  1  0
 11 12  2  0
 11 13  1  0
 13 14  1  0
 13 15  1  0
 15 16  1  6
 15 17  1  0
 17 18  2  0
 17 19  1  0
 19 20  1  0
 20 21  1  1
 20 22  1  0
 22 23  1  6
 22 24  1  0
 24 25  1  0
 21  2  1  0
M  END
$$$$
