
     RDKit          3D

 25 25  0  0  0  0  0  0  0  0999 V2000
  -20.4745  -38.2988   -9.9247 C   0  0  0  0  0  0  0  0  0  0  0  0
  -20.2439  -38.8576   -8.5031 C   0  0  2  0  0  0  0  0  0  0  0  0
  -21.3124  -38.3441   -7.6479 C   0  0  0  0  0  0  0  0  0  0  0  0
  -21.1280  -38.2035   -6.2005 C   0  0  0  0  0  0  0  0  0  0  0  0
  -21.4791  -39.3643   -5.3294 C   0  0  0  0  0  0  0  0  0  0  0  0
  -22.7420  -40.0758   -5.6455 C   0  0  0  0  0  0  0  0  0  0  0  0
  -22.4465  -41.3947   -6.3200 C   0  0  0  0  0  0  0  0  0  0  0  0
  -21.8501  -42.3662   -5.3250 C   0  0  0  0  0  0  0  0  0  0  0  0
  -21.4651  -43.6790   -5.9856 C   0  0  0  0  0  0  0  0  0  0  0  0
  -19.9610  -43.8426   -6.0258 C   0  0  0  0  0  0  0  0  0  0  0  0
  -19.5244  -44.7321   -7.1282 C   0  0  0  0  0  0  0  0  0  0  0  0
  -20.2860  -45.7339   -7.3618 O   0  0  0  0  0  0  0  0  0  0  0  0
  -18.3894  -44.6048   -7.9329 N   0  0  0  0  0  0  0  0  0  0  0  0
  -17.5628  -45.7643   -8.2314 C   0  0  0  0  0  0  0  0  0  0  0  0
  -17.9210  -43.3511   -8.5437 C   0  0  1  0  0  0  0  0  0  0  0  0
  -17.6379  -43.5559  -10.0255 C   0  0  0  0  0  0  0  0  0  0  0  0
  -18.9666  -42.2995   -8.4391 C   0  0  0  0  0  0  0  0  0  0  0  0
  -20.1146  -42.6756   -8.8843 O   0  0  0  0  0  0  0  0  0  0  0  0
  -18.8420  -41.0159   -7.9347 N   0  0  0  0  0  0  0  0  0  0  0  0
  -18.0236  -39.9065   -8.3603 C   0  0  1  0  0  0  0  0  0  0  0  0
  -18.8308  -38.6053   -8.1462 C   0  0  0  0  0  0  0  0  0  0  0  0
  -16.7319  -39.8343   -7.5513 C   0  0  2  0  0  0  0  0  0  0  0  0
  -16.3057  -38.5317   -7.3802 O   0  0  0  0  0  0  0  0  0  0  0  0
  -15.6318  -40.6205   -8.1817 C   0  0  0  0  0  0  0  0  0  0  0  0
  -14.4070  -40.4601   -7.5379 O   0  0  0  0  0  0  0  0  0  0  0  0
  2  1  1  6
  2  3  1  0
  3  4  1  0
  4  5  1  0
  5  6  1  0
  6  7  1  0
  7  8  1  0
  8  9  1  0
  9 10  1  0
 10 11  1  0
 11 12  2  0
 11 13  1  0
 13 14  1  0
 13 15  1  0
 15 16  1  6
 15 17  1  0
 17 18  2  0
 17 19  1  0
 19 20  1  0
 20 21  1  1
 20 22  1  0
 22 23  1  6
 22 24  1  0
 24 25  1  0
 21  2  1  0
M  END
$$$$
