
     RDKit          3D

 25 25  0  0  0  0  0  0  0  0999 V2000
  -20.0516  -38.2231   -9.8474 C   0  0  0  0  0  0  0  0  0  0  0  0
  -19.8529  -38.7577   -8.4118 C   0  0  2  0  0  0  0  0  0  0  0  0
  -20.9361  -38.2242   -7.5878 C   0  0  0  0  0  0  0  0  0  0  0  0
  -20.7806  -38.0589   -6.1396 C   0  0  0  0  0  0  0  0  0  0  0  0
  -21.1551  -39.2024   -5.2556 C   0  0  0  0  0  0  0  0  0  0  0  0
  -22.4147  -39.9137   -5.5849 C   0  0  0  0  0  0  0  0  0  0  0  0
  -22.1120  -41.2456   -6.2298 C   0  0  0  0  0  0  0  0  0  0  0  0
  -21.5409  -42.2020   -5.2058 C   0  0  0  0  0  0  0  0  0  0  0  0
  -21.1489  -43.5281   -5.8352 C   0  0  0  0  0  0  0  0  0  0  0  0
  -19.6451  -43.6992   -5.8417 C   0  0  0  0  0  0  0  0  0  0  0  0
  -19.1905  -44.6101   -6.9190 C   0  0  0  0  0  0  0  0  0  0  0  0
  -19.9520  -45.6124   -7.1505 O   0  0  0  0  0  0  0  0  0  0  0  0
  -18.0387  -44.5023   -7.7024 N   0  0  0  0  0  0  0  0  0  0  0  0
  -17.2118  -45.6706   -7.9634 C   0  0  0  0  0  0  0  0  0  0  0  0
  -17.5517  -43.2617   -8.3255 C   0  0  1  0  0  0  0  0  0  0  0  0
  -17.2395  -43.4940   -9.7973 C   0  0  0  0  0  0  0  0  0  0  0  0
  -18.5940  -42.2037   -8.2609 C   0  0  0  0  0  0  0  0  0  0  0  0
  -19.7345  -42.5824   -8.7228 O   0  0  0  0  0  0  0  0  0  0  0  0
  -18.4735  -40.9120   -7.7767 N   0  0  0  0  0  0  0  0  0  0  0  0
  -17.6412  -39.8140   -8.2050 C   0  0  1  0  0  0  0  0  0  0  0  0
  -18.4461  -38.5055   -8.0304 C   0  0  0  0  0  0  0  0  0  0  0  0
  -16.3659  -39.7333   -7.3711 C   0  0  2  0  0  0  0  0  0  0  0  0
  -15.9194  -38.4328   -7.2406 O   0  0  0  0  0  0  0  0  0  0  0  0
  -15.2673  -40.5626   -7.9465 C   0  0  0  0  0  0  0  0  0  0  0  0
  -14.3167  -39.8105   -8.6326 O   0  0  0  0  0  0  0  0  0  0  0  0
  2  1  1  6
  2  3  1  0
  3  4  1  0
  4  5  1  0
  5  6  1  0
  6  7  1  0
  7  8  1  0
  8  9  1  0
  9 10  1  0
 10 11  1  0
 11 12  2  0
 11 13  1  0
 13 14  1  0
 13 15  1  0
 15 16  1  6
 15 17  1  0
 17 18  2  0
 17 19  1  0
 19 20  1  0
 20 21  1  1
 20 22  1  0
 22 23  1  6
 22 24  1  0
 24 25  1  0
 21  2  1  0
M  END
$$$$
