
     RDKit          3D

 25 25  0  0  0  0  0  0  0  0999 V2000
  -19.6542  -38.0853  -10.4997 C   0  0  0  0  0  0  0  0  0  0  0  0
  -19.6401  -38.4810   -9.0066 C   0  0  2  0  0  0  0  0  0  0  0  0
  -20.7183  -37.7482   -8.3452 C   0  0  0  0  0  0  0  0  0  0  0  0
  -20.6659  -37.4461   -6.9118 C   0  0  0  0  0  0  0  0  0  0  0  0
  -21.2445  -38.4409   -5.9603 C   0  0  0  0  0  0  0  0  0  0  0  0
  -22.5469  -39.0431   -6.3372 C   0  0  0  0  0  0  0  0  0  0  0  0
  -22.3497  -40.4614   -6.8179 C   0  0  0  0  0  0  0  0  0  0  0  0
  -21.9821  -41.3585   -5.6561 C   0  0  0  0  0  0  0  0  0  0  0  0
  -21.6973  -42.7790   -6.1134 C   0  0  0  0  0  0  0  0  0  0  0  0
  -20.2287  -43.1114   -5.9602 C   0  0  0  0  0  0  0  0  0  0  0  0
  -19.7957  -44.1764   -6.8957 C   0  0  0  0  0  0  0  0  0  0  0  0
  -20.6475  -45.1096   -7.1000 O   0  0  0  0  0  0  0  0  0  0  0  0
  -18.5778  -44.2785   -7.5727 N   0  0  0  0  0  0  0  0  0  0  0  0
  -17.8748  -45.5505   -7.6391 C   0  0  0  0  0  0  0  0  0  0  0  0
  -17.8984  -43.1719   -8.2643 C   0  0  1  0  0  0  0  0  0  0  0  0
  -17.4938  -43.5933   -9.6702 C   0  0  0  0  0  0  0  0  0  0  0  0
  -18.8112  -42.0066   -8.4023 C   0  0  0  0  0  0  0  0  0  0  0  0
  -19.9456  -42.3073   -8.9317 O   0  0  0  0  0  0  0  0  0  0  0  0
  -18.5808  -40.6910   -8.0368 N   0  0  0  0  0  0  0  0  0  0  0  0
  -17.5926  -39.7418   -8.4886 C   0  0  1  0  0  0  0  0  0  0  0  0
  -18.2503  -38.3428   -8.5195 C   0  0  0  0  0  0  0  0  0  0  0  0
  -16.3907  -39.7104   -7.5491 C   0  0  2  0  0  0  0  0  0  0  0  0
  -15.3717  -38.9212   -8.0456 O   0  0  0  0  0  0  0  0  0  0  0  0
  -15.8534  -41.0761   -7.2814 C   0  0  0  0  0  0  0  0  0  0  0  0
  -14.8896  -41.0969   -6.2761 O   0  0  0  0  0  0  0  0  0  0  0  0
  2  1  1  6
  2  3  1  0
  3  4  1  0
  4  5  1  0
  5  6  1  0
  6  7  1  0
  7  8  1  0
  8  9  1  0
  9 10  1  0
 10 11  1  0
 11 12  2  0
 11 13  1  0
 13 14  1  0
 13 15  1  0
 15 16  1  6
 15 17  1  0
 17 18  2  0
 17 19  1  0
 19 20  1  0
 20 21  1  1
 20 22  1  0
 22 23  1  6
 22 24  1  0
 24 25  1  0
 21  2  1  0
M  END
$$$$
