
     RDKit          3D

 25 25  0  0  0  0  0  0  0  0999 V2000
  -20.2921  -38.5497  -10.1756 C   0  0  0  0  0  0  0  0  0  0  0  0
  -20.1416  -38.8096   -8.6603 C   0  0  2  0  0  0  0  0  0  0  0  0
  -21.0840  -37.9340   -7.9660 C   0  0  0  0  0  0  0  0  0  0  0  0
  -20.8515  -37.5098   -6.5823 C   0  0  0  0  0  0  0  0  0  0  0  0
  -21.3918  -38.3641   -5.4832 C   0  0  0  0  0  0  0  0  0  0  0  0
  -22.7681  -38.8881   -5.6626 C   0  0  0  0  0  0  0  0  0  0  0  0
  -22.7285  -40.3553   -6.0197 C   0  0  0  0  0  0  0  0  0  0  0  0
  -22.3006  -41.1717   -4.8197 C   0  0  0  0  0  0  0  0  0  0  0  0
  -22.1717  -42.6462   -5.1625 C   0  0  0  0  0  0  0  0  0  0  0  0
  -20.7231  -43.0836   -5.1300 C   0  0  0  0  0  0  0  0  0  0  0  0
  -20.4746  -44.2603   -5.9963 C   0  0  0  0  0  0  0  0  0  0  0  0
  -21.4091  -45.1345   -6.0189 O   0  0  0  0  0  0  0  0  0  0  0  0
  -19.3497  -44.5228   -6.7823 N   0  0  0  0  0  0  0  0  0  0  0  0
  -18.7523  -45.8494   -6.7958 C   0  0  0  0  0  0  0  0  0  0  0  0
  -18.6727  -43.5426   -7.6455 C   0  0  1  0  0  0  0  0  0  0  0  0
  -18.4577  -44.1204   -9.0376 C   0  0  0  0  0  0  0  0  0  0  0  0
  -19.5083  -42.3231   -7.8021 C   0  0  0  0  0  0  0  0  0  0  0  0
  -20.7132  -42.5754   -8.1793 O   0  0  0  0  0  0  0  0  0  0  0  0
  -19.1442  -41.0036   -7.5931 N   0  0  0  0  0  0  0  0  0  0  0  0
  -18.1460  -40.1836   -8.2356 C   0  0  1  0  0  0  0  0  0  0  0  0
  -18.7000  -38.7435   -8.3354 C   0  0  0  0  0  0  0  0  0  0  0  0
  -16.8485  -40.1672   -7.4329 C   0  0  2  0  0  0  0  0  0  0  0  0
  -16.1540  -38.9856   -7.6040 O   0  0  0  0  0  0  0  0  0  0  0  0
  -15.9539  -41.3060   -7.7914 C   0  0  0  0  0  0  0  0  0  0  0  0
  -14.7973  -41.3574   -7.0169 O   0  0  0  0  0  0  0  0  0  0  0  0
  2  1  1  6
  2  3  1  0
  3  4  1  0
  4  5  1  0
  5  6  1  0
  6  7  1  0
  7  8  1  0
  8  9  1  0
  9 10  1  0
 10 11  1  0
 11 12  2  0
 11 13  1  0
 13 14  1  0
 13 15  1  0
 15 16  1  6
 15 17  1  0
 17 18  2  0
 17 19  1  0
 19 20  1  0
 20 21  1  1
 20 22  1  0
 22 23  1  6
 22 24  1  0
 24 25  1  0
 21  2  1  0
M  END
$$$$
