
     RDKit          3D

 25 25  0  0  0  0  0  0  0  0999 V2000
  -19.4192  -37.9429  -10.1248 C   0  0  0  0  0  0  0  0  0  0  0  0
  -19.4603  -38.4846   -8.6787 C   0  0  2  0  0  0  0  0  0  0  0  0
  -20.6257  -37.8975   -8.0200 C   0  0  0  0  0  0  0  0  0  0  0  0
  -20.6772  -37.7381   -6.5637 C   0  0  0  0  0  0  0  0  0  0  0  0
  -21.2331  -38.8606   -5.7511 C   0  0  0  0  0  0  0  0  0  0  0  0
  -22.4637  -39.5097   -6.2664 C   0  0  0  0  0  0  0  0  0  0  0  0
  -22.1345  -40.8558   -6.8676 C   0  0  0  0  0  0  0  0  0  0  0  0
  -21.7677  -41.8377   -5.7763 C   0  0  0  0  0  0  0  0  0  0  0  0
  -21.3524  -43.1822   -6.3490 C   0  0  0  0  0  0  0  0  0  0  0  0
  -19.8742  -43.4269   -6.1352 C   0  0  0  0  0  0  0  0  0  0  0  0
  -19.3109  -44.3605   -7.1392 C   0  0  0  0  0  0  0  0  0  0  0  0
  -20.0780  -45.3245   -7.4861 O   0  0  0  0  0  0  0  0  0  0  0  0
  -18.0524  -44.3103   -7.7440 N   0  0  0  0  0  0  0  0  0  0  0  0
  -17.2540  -45.5181   -7.8873 C   0  0  0  0  0  0  0  0  0  0  0  0
  -17.4191  -43.0960   -8.2813 C   0  0  1  0  0  0  0  0  0  0  0  0
  -16.9053  -43.3453   -9.6925 C   0  0  0  0  0  0  0  0  0  0  0  0
  -18.4068  -41.9880   -8.3645 C   0  0  0  0  0  0  0  0  0  0  0  0
  -19.4839  -42.3110   -8.9915 O   0  0  0  0  0  0  0  0  0  0  0  0
  -18.2961  -40.7031   -7.8603 N   0  0  0  0  0  0  0  0  0  0  0  0
  -17.3572  -39.6479   -8.1550 C   0  0  1  0  0  0  0  0  0  0  0  0
  -18.1144  -38.3012   -8.0931 C   0  0  0  0  0  0  0  0  0  0  0  0
  -16.2162  -39.6287   -7.1421 C   0  0  2  0  0  0  0  0  0  0  0  0
  -15.6388  -38.3780   -7.0432 O   0  0  0  0  0  0  0  0  0  0  0  0
  -15.1547  -40.6226   -7.4756 C   0  0  0  0  0  0  0  0  0  0  0  0
  -14.3042  -40.1937   -8.4918 O   0  0  0  0  0  0  0  0  0  0  0  0
  2  1  1  6
  2  3  1  0
  3  4  1  0
  4  5  1  0
  5  6  1  0
  6  7  1  0
  7  8  1  0
  8  9  1  0
  9 10  1  0
 10 11  1  0
 11 12  2  0
 11 13  1  0
 13 14  1  0
 13 15  1  0
 15 16  1  6
 15 17  1  0
 17 18  2  0
 17 19  1  0
 19 20  1  0
 20 21  1  1
 20 22  1  0
 22 23  1  6
 22 24  1  0
 24 25  1  0
 21  2  1  0
M  END
$$$$
