
     RDKit          3D

 25 25  0  0  0  0  0  0  0  0999 V2000
  -19.6668  -38.1524  -10.5356 C   0  0  0  0  0  0  0  0  0  0  0  0
  -19.6644  -38.5310   -9.0379 C   0  0  2  0  0  0  0  0  0  0  0  0
  -20.7016  -37.7384   -8.3801 C   0  0  0  0  0  0  0  0  0  0  0  0
  -20.6268  -37.4227   -6.9507 C   0  0  0  0  0  0  0  0  0  0  0  0
  -21.2487  -38.3766   -5.9849 C   0  0  0  0  0  0  0  0  0  0  0  0
  -22.5812  -38.9181   -6.3485 C   0  0  0  0  0  0  0  0  0  0  0  0
  -22.4566  -40.3500   -6.8133 C   0  0  0  0  0  0  0  0  0  0  0  0
  -22.1276  -41.2506   -5.6428 C   0  0  0  0  0  0  0  0  0  0  0  0
  -21.9155  -42.6886   -6.0846 C   0  0  0  0  0  0  0  0  0  0  0  0
  -20.4643  -43.0913   -5.9344 C   0  0  0  0  0  0  0  0  0  0  0  0
  -20.0893  -44.1871   -6.8593 C   0  0  0  0  0  0  0  0  0  0  0  0
  -20.9872  -45.0794   -7.0485 O   0  0  0  0  0  0  0  0  0  0  0  0
  -18.8815  -44.3569   -7.5408 N   0  0  0  0  0  0  0  0  0  0  0  0
  -18.2424  -45.6628   -7.5954 C   0  0  0  0  0  0  0  0  0  0  0  0
  -18.1520  -43.2932   -8.2486 C   0  0  1  0  0  0  0  0  0  0  0  0
  -17.7761  -43.7503   -9.6513 C   0  0  0  0  0  0  0  0  0  0  0  0
  -19.0070  -42.0860   -8.3960 C   0  0  0  0  0  0  0  0  0  0  0  0
  -20.1577  -42.3364   -8.9164 O   0  0  0  0  0  0  0  0  0  0  0  0
  -18.7101  -40.7793   -8.0471 N   0  0  0  0  0  0  0  0  0  0  0  0
  -17.6788  -39.8853   -8.5148 C   0  0  1  0  0  0  0  0  0  0  0  0
  -18.2669  -38.4560   -8.5591 C   0  0  0  0  0  0  0  0  0  0  0  0
  -16.4719  -39.9023   -7.5813 C   0  0  2  0  0  0  0  0  0  0  0  0
  -15.8602  -38.6660   -7.5107 O   0  0  0  0  0  0  0  0  0  0  0  0
  -15.4587  -40.9164   -7.9946 C   0  0  0  0  0  0  0  0  0  0  0  0
  -14.3650  -40.9783   -7.1343 O   0  0  0  0  0  0  0  0  0  0  0  0
  2  1  1  6
  2  3  1  0
  3  4  1  0
  4  5  1  0
  5  6  1  0
  6  7  1  0
  7  8  1  0
  8  9  1  0
  9 10  1  0
 10 11  1  0
 11 12  2  0
 11 13  1  0
 13 14  1  0
 13 15  1  0
 15 16  1  6
 15 17  1  0
 17 18  2  0
 17 19  1  0
 19 20  1  0
 20 21  1  1
 20 22  1  0
 22 23  1  6
 22 24  1  0
 24 25  1  0
 21  2  1  0
M  END
$$$$
