
     RDKit          3D

 40 43  0  0  0  0  0  0  0  0999 V2000
  -17.9493  -46.1696   -6.1704 C   0  0  0  0  0  0  0  0  0  0  0  0
  -18.7333  -45.2279   -7.0183 C   0  0  0  0  0  0  0  0  0  0  0  0
  -18.1260  -44.4484   -7.9634 C   0  0  0  0  0  0  0  0  0  0  0  0
  -18.8031  -43.5245   -8.8133 C   0  0  0  0  0  0  0  0  0  0  0  0
  -20.1549  -43.4281   -8.6559 C   0  0  0  0  0  0  0  0  0  0  0  0
  -20.7952  -44.2129   -7.6971 C   0  0  0  0  0  0  0  0  0  0  0  0
  -20.0400  -45.0758   -6.9267 N   0  0  0  0  0  0  0  0  0  0  0  0
  -22.1089  -44.2978   -7.3534 O   0  0  0  0  0  0  0  0  0  0  0  0
  -23.1357  -43.6596   -6.7623 C   0  0  0  0  0  0  0  0  0  0  0  0
  -22.6948  -42.6940   -5.6895 C   0  0  0  0  0  0  0  0  0  0  0  0
  -23.3021  -41.3027   -5.9079 C   0  0  0  0  0  0  0  0  0  0  0  0
  -22.9086  -40.3792   -4.7971 C   0  0  0  0  0  0  0  0  0  0  0  0
  -21.8414  -39.5473   -5.1436 O   0  0  0  0  0  0  0  0  0  0  0  0
  -21.2437  -39.1718   -6.3365 C   0  0  0  0  0  0  0  0  0  0  0  0
  -20.6733  -39.9771   -7.3048 C   0  0  0  0  0  0  0  0  0  0  0  0
  -20.1452  -39.3606   -8.4105 C   0  0  0  0  0  0  0  0  0  0  0  0
  -19.4888  -39.9312   -9.6287 C   0  0  0  0  0  0  0  0  0  0  0  0
  -18.0680  -40.3231   -9.3966 C   0  0  2  0  0  0  0  0  0  0  0  0
  -17.6803  -41.5122  -10.1199 N   0  0  0  0  0  0  0  0  0  0  0  0
  -17.8545  -42.8531   -9.7033 C   0  0  0  0  0  0  0  0  0  0  0  0
  -16.9338  -43.6127  -10.2684 O   0  0  0  0  0  0  0  0  0  0  0  0
  -17.6297  -40.4017   -7.9543 C   0  0  2  0  0  0  0  0  0  0  0  0
  -17.9297  -39.2058   -7.2801 O   0  0  0  0  0  0  0  0  0  0  0  0
  -16.1165  -40.4946   -7.9022 C   0  0  0  0  0  0  0  0  0  0  0  0
  -15.5081  -40.9141   -9.1330 N   0  0  0  0  0  0  0  0  0  0  0  0
  -14.5989  -39.9134   -9.6630 C   0  0  0  0  0  0  0  0  0  0  0  0
  -13.7701  -39.2269   -8.6332 C   0  0  0  0  0  0  0  0  0  0  0  0
  -13.6679  -40.6375  -10.6159 C   0  0  0  0  0  0  0  0  0  0  0  0
  -15.4103  -38.9176  -10.4912 C   0  0  0  0  0  0  0  0  0  0  0  0
  -15.4258  -37.5889  -10.2305 C   0  0  0  0  0  0  0  0  0  0  0  0
  -16.1976  -36.8124  -11.0576 C   0  0  0  0  0  0  0  0  0  0  0  0
  -16.8510  -37.9491  -12.1365 S   0  0  0  0  0  0  0  0  0  0  0  0
  -16.1476  -39.3369  -11.5263 N   0  0  0  0  0  0  0  0  0  0  0  0
  -16.3872  -35.3144  -10.9835 C   0  0  0  0  0  0  0  0  0  0  0  0
  -15.0629  -34.6556  -11.2898 C   0  0  0  0  0  0  0  0  0  0  0  0
  -17.4101  -34.9509  -12.0259 C   0  0  0  0  0  0  0  0  0  0  0  0
  -16.8469  -34.9760   -9.5968 C   0  0  0  0  0  0  0  0  0  0  0  0
  -20.1952  -37.9521   -8.5233 C   0  0  0  0  0  0  0  0  0  0  0  0
  -20.7511  -37.1285   -7.5800 C   0  0  0  0  0  0  0  0  0  0  0  0
  -21.2715  -37.7760   -6.4883 C   0  0  0  0  0  0  0  0  0  0  0  0
  1  2  1  0
  2  3  2  0
  3  4  1  0
  4  5  2  0
  5  6  1  0
  6  7  2  0
  6  8  1  0
  8  9  1  0
  9 10  1  0
 10 11  1  0
 11 12  1  0
 12 13  1  0
 13 14  1  0
 14 15  2  0
 15 16  1  0
 16 17  1  0
 18 17  1  1
 18 19  1  0
 19 20  1  0
 20 21  2  0
 18 22  1  0
 22 23  1  1
 22 24  1  0
 24 25  1  0
 25 26  1  0
 26 27  1  0
 26 28  1  0
 26 29  1  0
 29 30  1  0
 30 31  2  0
 31 32  1  0
 32 33  1  0
 31 34  1  0
 34 35  1  0
 34 36  1  0
 34 37  1  0
 16 38  2  0
 38 39  1  0
 39 40  2  0
  7  2  1  0
 20  4  1  0
 33 29  2  0
 40 14  1  0
M  END
$$$$
