
     RDKit          3D

 40 43  0  0  0  0  0  0  0  0999 V2000
  -14.8054  -43.9540   -7.8415 C   0  0  0  0  0  0  0  0  0  0  0  0
  -16.0473  -43.5011   -8.5293 C   0  0  0  0  0  0  0  0  0  0  0  0
  -16.0595  -42.3764   -9.3068 C   0  0  0  0  0  0  0  0  0  0  0  0
  -17.2036  -41.8771   -9.9970 C   0  0  0  0  0  0  0  0  0  0  0  0
  -18.3589  -42.5895   -9.8586 C   0  0  0  0  0  0  0  0  0  0  0  0
  -18.3697  -43.7394   -9.0695 C   0  0  0  0  0  0  0  0  0  0  0  0
  -17.2019  -44.1324   -8.4448 N   0  0  0  0  0  0  0  0  0  0  0  0
  -19.3772  -44.6065   -8.7789 O   0  0  0  0  0  0  0  0  0  0  0  0
  -20.5340  -44.7657   -8.1102 C   0  0  0  0  0  0  0  0  0  0  0  0
  -20.6270  -43.9059   -6.8734 C   0  0  0  0  0  0  0  0  0  0  0  0
  -21.9253  -43.0897   -6.8580 C   0  0  0  0  0  0  0  0  0  0  0  0
  -22.0307  -42.2969   -5.5923 C   0  0  0  0  0  0  0  0  0  0  0  0
  -21.6457  -40.9647   -5.7601 O   0  0  0  0  0  0  0  0  0  0  0  0
  -21.4589  -40.1327   -6.8529 C   0  0  0  0  0  0  0  0  0  0  0  0
  -20.6144  -40.3069   -7.9335 C   0  0  0  0  0  0  0  0  0  0  0  0
  -20.6134  -39.3333   -8.8997 C   0  0  0  0  0  0  0  0  0  0  0  0
  -19.8495  -39.2293  -10.1828 C   0  0  0  0  0  0  0  0  0  0  0  0
  -18.4404  -38.7788   -9.9882 C   0  0  2  0  0  0  0  0  0  0  0  0
  -17.5116  -39.4059  -10.8999 N   0  0  0  0  0  0  0  0  0  0  0  0
  -16.8696  -40.6554  -10.7308 C   0  0  0  0  0  0  0  0  0  0  0  0
  -15.7299  -40.6585  -11.3979 O   0  0  0  0  0  0  0  0  0  0  0  0
  -17.9202  -38.8240   -8.5719 C   0  0  2  0  0  0  0  0  0  0  0  0
  -18.9044  -38.3866   -7.6691 O   0  0  0  0  0  0  0  0  0  0  0  0
  -16.7983  -37.8135   -8.4253 C   0  0  0  0  0  0  0  0  0  0  0  0
  -17.0323  -36.5692   -9.1020 N   0  0  0  0  0  0  0  0  0  0  0  0
  -16.9382  -36.7048  -10.5448 C   0  0  0  0  0  0  0  0  0  0  0  0
  -18.0466  -37.4837  -11.1640 C   0  0  0  0  0  0  0  0  0  0  0  0
  -16.9706  -35.2995  -11.1135 C   0  0  0  0  0  0  0  0  0  0  0  0
  -15.5717  -37.2994  -10.8835 C   0  0  0  0  0  0  0  0  0  0  0  0
  -15.1007  -37.3786  -12.1506 C   0  0  0  0  0  0  0  0  0  0  0  0
  -13.8560  -37.9346  -12.3067 C   0  0  0  0  0  0  0  0  0  0  0  0
  -13.4117  -38.3124  -10.7121 S   0  0  0  0  0  0  0  0  0  0  0  0
  -14.7771  -37.7704   -9.9151 N   0  0  0  0  0  0  0  0  0  0  0  0
  -13.1074  -38.1392  -13.6041 C   0  0  0  0  0  0  0  0  0  0  0  0
  -12.8603  -39.6192  -13.7777 C   0  0  0  0  0  0  0  0  0  0  0  0
  -13.9915  -37.6198  -14.7058 C   0  0  0  0  0  0  0  0  0  0  0  0
  -11.8137  -37.3861  -13.5136 C   0  0  0  0  0  0  0  0  0  0  0  0
  -21.4537  -38.2044   -8.7636 C   0  0  0  0  0  0  0  0  0  0  0  0
  -22.2985  -38.0032   -7.7039 C   0  0  0  0  0  0  0  0  0  0  0  0
  -22.2771  -38.9953   -6.7568 C   0  0  0  0  0  0  0  0  0  0  0  0
  1  2  1  0
  2  3  2  0
  3  4  1  0
  4  5  2  0
  5  6  1  0
  6  7  2  0
  6  8  1  0
  8  9  1  0
  9 10  1  0
 10 11  1  0
 11 12  1  0
 12 13  1  0
 13 14  1  0
 14 15  2  0
 15 16  1  0
 16 17  1  0
 18 17  1  1
 18 19  1  0
 19 20  1  0
 20 21  2  0
 18 22  1  0
 22 23  1  1
 22 24  1  0
 24 25  1  0
 25 26  1  0
 26 27  1  0
 26 28  1  0
 26 29  1  0
 29 30  1  0
 30 31  2  0
 31 32  1  0
 32 33  1  0
 31 34  1  0
 34 35  1  0
 34 36  1  0
 34 37  1  0
 16 38  2  0
 38 39  1  0
 39 40  2  0
  7  2  1  0
 20  4  1  0
 33 29  2  0
 40 14  1  0
M  END
$$$$
