
     RDKit          3D

 40 43  0  0  0  0  0  0  0  0999 V2000
  -19.5537  -45.1233   -5.3169 C   0  0  0  0  0  0  0  0  0  0  0  0
  -19.8466  -44.4688   -6.6232 C   0  0  0  0  0  0  0  0  0  0  0  0
  -18.8421  -44.0066   -7.4276 C   0  0  0  0  0  0  0  0  0  0  0  0
  -19.0380  -43.3703   -8.6891 C   0  0  0  0  0  0  0  0  0  0  0  0
  -20.3292  -43.2233   -9.1046 C   0  0  0  0  0  0  0  0  0  0  0  0
  -21.3696  -43.6865   -8.2996 C   0  0  0  0  0  0  0  0  0  0  0  0
  -21.0650  -44.2884   -7.0940 N   0  0  0  0  0  0  0  0  0  0  0  0
  -22.7169  -43.6580   -8.4875 O   0  0  0  0  0  0  0  0  0  0  0  0
  -23.8046  -42.8675   -8.5401 C   0  0  0  0  0  0  0  0  0  0  0  0
  -23.6810  -41.6311   -7.6835 C   0  0  0  0  0  0  0  0  0  0  0  0
  -23.9908  -40.3625   -8.4876 C   0  0  0  0  0  0  0  0  0  0  0  0
  -23.9300  -39.1548   -7.6047 C   0  0  0  0  0  0  0  0  0  0  0  0
  -22.7185  -38.4688   -7.7167 O   0  0  0  0  0  0  0  0  0  0  0  0
  -21.6796  -38.4657   -8.6342 C   0  0  0  0  0  0  0  0  0  0  0  0
  -20.8919  -39.5242   -9.0470 C   0  0  0  0  0  0  0  0  0  0  0  0
  -19.9204  -39.2646   -9.9799 C   0  0  0  0  0  0  0  0  0  0  0  0
  -18.9324  -40.1732  -10.6422 C   0  0  0  0  0  0  0  0  0  0  0  0
  -17.7581  -40.4880   -9.7771 C   0  0  2  0  0  0  0  0  0  0  0  0
  -17.2760  -41.8399   -9.9422 N   0  0  0  0  0  0  0  0  0  0  0  0
  -17.7530  -42.9972   -9.2826 C   0  0  0  0  0  0  0  0  0  0  0  0
  -16.7872  -43.8953   -9.2158 O   0  0  0  0  0  0  0  0  0  0  0  0
  -17.9003  -40.1404   -8.3151 C   0  0  2  0  0  0  0  0  0  0  0  0
  -17.3282  -38.8851   -8.0471 O   0  0  0  0  0  0  0  0  0  0  0  0
  -17.0761  -41.1136   -7.4936 C   0  0  0  0  0  0  0  0  0  0  0  0
  -15.6766  -41.1189   -7.8138 N   0  0  0  0  0  0  0  0  0  0  0  0
  -15.0048  -39.9174   -7.3511 C   0  0  0  0  0  0  0  0  0  0  0  0
  -15.6722  -39.2413   -6.2040 C   0  0  0  0  0  0  0  0  0  0  0  0
  -13.6173  -40.3413   -6.9101 C   0  0  0  0  0  0  0  0  0  0  0  0
  -14.8336  -38.9741   -8.5413 C   0  0  0  0  0  0  0  0  0  0  0  0
  -15.5631  -39.0870   -9.6765 C   0  0  0  0  0  0  0  0  0  0  0  0
  -15.3046  -38.1693  -10.6633 C   0  0  0  0  0  0  0  0  0  0  0  0
  -14.0820  -37.2131   -9.9749 S   0  0  0  0  0  0  0  0  0  0  0  0
  -13.9370  -37.9815   -8.4977 N   0  0  0  0  0  0  0  0  0  0  0  0
  -15.9725  -38.0759  -12.0163 C   0  0  0  0  0  0  0  0  0  0  0  0
  -16.6603  -36.7344  -12.1112 C   0  0  0  0  0  0  0  0  0  0  0  0
  -14.8839  -38.1841  -13.0499 C   0  0  0  0  0  0  0  0  0  0  0  0
  -16.9644  -39.1959  -12.1191 C   0  0  0  0  0  0  0  0  0  0  0  0
  -19.7545  -37.9517  -10.4779 C   0  0  0  0  0  0  0  0  0  0  0  0
  -20.5174  -36.8832  -10.0864 C   0  0  0  0  0  0  0  0  0  0  0  0
  -21.4803  -37.1765   -9.1546 C   0  0  0  0  0  0  0  0  0  0  0  0
  1  2  1  0
  2  3  2  0
  3  4  1  0
  4  5  2  0
  5  6  1  0
  6  7  2  0
  6  8  1  0
  8  9  1  0
  9 10  1  0
 10 11  1  0
 11 12  1  0
 12 13  1  0
 13 14  1  0
 14 15  2  0
 15 16  1  0
 16 17  1  0
 18 17  1  6
 18 19  1  0
 19 20  1  0
 20 21  2  0
 18 22  1  0
 22 23  1  6
 22 24  1  0
 24 25  1  0
 25 26  1  0
 26 27  1  0
 26 28  1  0
 26 29  1  0
 29 30  1  0
 30 31  2  0
 31 32  1  0
 32 33  1  0
 31 34  1  0
 34 35  1  0
 34 36  1  0
 34 37  1  0
 16 38  2  0
 38 39  1  0
 39 40  2  0
  7  2  1  0
 20  4  1  0
 33 29  2  0
 40 14  1  0
M  END
$$$$
