
     RDKit          3D

 40 43  0  0  0  0  0  0  0  0999 V2000
  -17.6285  -45.7038   -7.3119 C   0  0  0  0  0  0  0  0  0  0  0  0
  -18.4965  -44.7379   -8.0428 C   0  0  0  0  0  0  0  0  0  0  0  0
  -17.9664  -43.8125   -8.8986 C   0  0  0  0  0  0  0  0  0  0  0  0
  -18.7265  -42.8556   -9.6342 C   0  0  0  0  0  0  0  0  0  0  0  0
  -20.0790  -42.8839   -9.4571 C   0  0  0  0  0  0  0  0  0  0  0  0
  -20.6412  -43.8187   -8.5881 C   0  0  0  0  0  0  0  0  0  0  0  0
  -19.8093  -44.7001   -7.9252 N   0  0  0  0  0  0  0  0  0  0  0  0
  -21.9388  -44.0443   -8.2466 O   0  0  0  0  0  0  0  0  0  0  0  0
  -23.0022  -43.5588   -7.5799 C   0  0  0  0  0  0  0  0  0  0  0  0
  -22.6200  -42.6873   -6.4086 C   0  0  0  0  0  0  0  0  0  0  0  0
  -23.3364  -41.3324   -6.4646 C   0  0  0  0  0  0  0  0  0  0  0  0
  -22.9977  -40.5105   -5.2598 C   0  0  0  0  0  0  0  0  0  0  0  0
  -22.0037  -39.5639   -5.5183 O   0  0  0  0  0  0  0  0  0  0  0  0
  -21.4560  -39.0118   -6.6657 C   0  0  0  0  0  0  0  0  0  0  0  0
  -20.8408  -39.6567   -7.7226 C   0  0  0  0  0  0  0  0  0  0  0  0
  -20.3797  -38.8810   -8.7558 C   0  0  0  0  0  0  0  0  0  0  0  0
  -19.7009  -39.2589  -10.0352 C   0  0  0  0  0  0  0  0  0  0  0  0
  -18.2504  -39.5613   -9.8590 C   0  0  2  0  0  0  0  0  0  0  0  0
  -17.7837  -40.6281  -10.7142 N   0  0  0  0  0  0  0  0  0  0  0  0
  -17.8470  -42.0167  -10.4499 C   0  0  0  0  0  0  0  0  0  0  0  0
  -16.8796  -42.6337  -11.1035 O   0  0  0  0  0  0  0  0  0  0  0  0
  -17.7843  -39.7657   -8.4379 C   0  0  2  0  0  0  0  0  0  0  0  0
  -18.0829  -38.6394   -7.6524 O   0  0  0  0  0  0  0  0  0  0  0  0
  -16.2696  -39.8460   -8.4216 C   0  0  0  0  0  0  0  0  0  0  0  0
  -15.7015  -40.5139   -9.5584 N   0  0  0  0  0  0  0  0  0  0  0  0
  -14.3826  -40.0045   -9.8897 C   0  0  0  0  0  0  0  0  0  0  0  0
  -13.5836  -39.5537   -8.7162 C   0  0  0  0  0  0  0  0  0  0  0  0
  -13.6375  -41.1407  -10.5628 C   0  0  0  0  0  0  0  0  0  0  0  0
  -14.5433  -38.8918  -10.9250 C   0  0  0  0  0  0  0  0  0  0  0  0
  -13.9563  -37.6785  -10.7938 C   0  0  0  0  0  0  0  0  0  0  0  0
  -14.1859  -36.7760  -11.8015 C   0  0  0  0  0  0  0  0  0  0  0  0
  -15.1884  -37.6446  -12.8614 S   0  0  0  0  0  0  0  0  0  0  0  0
  -15.2856  -39.0863  -12.0214 N   0  0  0  0  0  0  0  0  0  0  0  0
  -13.6535  -35.3643  -11.8970 C   0  0  0  0  0  0  0  0  0  0  0  0
  -13.8361  -34.8864  -13.3182 C   0  0  0  0  0  0  0  0  0  0  0  0
  -14.4682  -34.5247  -10.9501 C   0  0  0  0  0  0  0  0  0  0  0  0
  -12.2016  -35.3928  -11.5227 C   0  0  0  0  0  0  0  0  0  0  0  0
  -20.5402  -37.4771   -8.7090 C   0  0  0  0  0  0  0  0  0  0  0  0
  -21.1428  -36.8102   -7.6750 C   0  0  0  0  0  0  0  0  0  0  0  0
  -21.5941  -37.6143   -6.6594 C   0  0  0  0  0  0  0  0  0  0  0  0
  1  2  1  0
  2  3  2  0
  3  4  1  0
  4  5  2  0
  5  6  1  0
  6  7  2  0
  6  8  1  0
  8  9  1  0
  9 10  1  0
 10 11  1  0
 11 12  1  0
 12 13  1  0
 13 14  1  0
 14 15  2  0
 15 16  1  0
 16 17  1  0
 18 17  1  1
 18 19  1  0
 19 20  1  0
 20 21  2  0
 18 22  1  0
 22 23  1  1
 22 24  1  0
 24 25  1  0
 25 26  1  0
 26 27  1  0
 26 28  1  0
 26 29  1  0
 29 30  1  0
 30 31  2  0
 31 32  1  0
 32 33  1  0
 31 34  1  0
 34 35  1  0
 34 36  1  0
 34 37  1  0
 16 38  2  0
 38 39  1  0
 39 40  2  0
  7  2  1  0
 20  4  1  0
 33 29  2  0
 40 14  1  0
M  END
$$$$
