
     RDKit          3D

 40 43  0  0  0  0  0  0  0  0999 V2000
  -19.0373  -42.2861  -12.3295 C   0  0  0  0  0  0  0  0  0  0  0  0
  -17.6463  -42.0871  -11.8335 C   0  0  0  0  0  0  0  0  0  0  0  0
  -17.3933  -41.8109  -10.5184 C   0  0  0  0  0  0  0  0  0  0  0  0
  -16.0944  -41.6076   -9.9653 C   0  0  0  0  0  0  0  0  0  0  0  0
  -15.0420  -41.7012  -10.8285 C   0  0  0  0  0  0  0  0  0  0  0  0
  -15.2768  -41.9812  -12.1744 C   0  0  0  0  0  0  0  0  0  0  0  0
  -16.5779  -42.1599  -12.6029 N   0  0  0  0  0  0  0  0  0  0  0  0
  -14.4119  -42.1225  -13.2152 O   0  0  0  0  0  0  0  0  0  0  0  0
  -13.5613  -41.4782  -14.0350 C   0  0  0  0  0  0  0  0  0  0  0  0
  -13.9358  -40.0338  -14.2614 C   0  0  0  0  0  0  0  0  0  0  0  0
  -12.7507  -39.1006  -13.9844 C   0  0  0  0  0  0  0  0  0  0  0  0
  -13.1218  -37.6806  -14.2805 C   0  0  0  0  0  0  0  0  0  0  0  0
  -13.4615  -36.9639  -13.1308 O   0  0  0  0  0  0  0  0  0  0  0  0
  -13.2748  -37.1548  -11.7706 C   0  0  0  0  0  0  0  0  0  0  0  0
  -13.6782  -38.2201  -10.9872 C   0  0  0  0  0  0  0  0  0  0  0  0
  -13.3666  -38.1779   -9.6520 C   0  0  0  0  0  0  0  0  0  0  0  0
  -13.6314  -39.1604   -8.5542 C   0  0  0  0  0  0  0  0  0  0  0  0
  -15.0310  -39.0987   -8.0407 C   0  0  2  0  0  0  0  0  0  0  0  0
  -15.5597  -40.3920   -7.6733 N   0  0  0  0  0  0  0  0  0  0  0  0
  -16.1834  -41.3285   -8.5312 C   0  0  0  0  0  0  0  0  0  0  0  0
  -17.0138  -42.0807   -7.8322 O   0  0  0  0  0  0  0  0  0  0  0  0
  -16.0159  -38.3351   -8.8925 C   0  0  2  0  0  0  0  0  0  0  0  0
  -15.3883  -37.2435   -9.5165 O   0  0  0  0  0  0  0  0  0  0  0  0
  -17.0622  -37.7048   -7.9929 C   0  0  0  0  0  0  0  0  0  0  0  0
  -17.4608  -38.5266   -6.8853 N   0  0  0  0  0  0  0  0  0  0  0  0
  -18.8542  -38.9259   -6.9737 C   0  0  0  0  0  0  0  0  0  0  0  0
  -19.2331  -40.0451   -6.0668 C   0  0  0  0  0  0  0  0  0  0  0  0
  -19.6767  -37.7095   -6.5954 C   0  0  0  0  0  0  0  0  0  0  0  0
  -19.1695  -39.2500   -8.4336 C   0  0  0  0  0  0  0  0  0  0  0  0
  -20.4287  -39.2377   -8.9314 C   0  0  0  0  0  0  0  0  0  0  0  0
  -20.5635  -39.5471  -10.2614 C   0  0  0  0  0  0  0  0  0  0  0  0
  -18.9611  -39.8345  -10.7435 S   0  0  0  0  0  0  0  0  0  0  0  0
  -18.1874  -39.5621   -9.2874 N   0  0  0  0  0  0  0  0  0  0  0  0
  -21.8483  -39.6052  -11.0561 C   0  0  0  0  0  0  0  0  0  0  0  0
  -21.9515  -38.3426  -11.8788 C   0  0  0  0  0  0  0  0  0  0  0  0
  -21.7545  -40.8113  -11.9516 C   0  0  0  0  0  0  0  0  0  0  0  0
  -22.9867  -39.7078  -10.0854 C   0  0  0  0  0  0  0  0  0  0  0  0
  -12.6616  -37.0702   -9.1275 C   0  0  0  0  0  0  0  0  0  0  0  0
  -12.2512  -35.9999   -9.8779 C   0  0  0  0  0  0  0  0  0  0  0  0
  -12.5766  -36.0737  -11.2084 C   0  0  0  0  0  0  0  0  0  0  0  0
  1  2  1  0
  2  3  2  0
  3  4  1  0
  4  5  2  0
  5  6  1  0
  6  7  2  0
  6  8  1  0
  8  9  1  0
  9 10  1  0
 10 11  1  0
 11 12  1  0
 12 13  1  0
 13 14  1  0
 14 15  2  0
 15 16  1  0
 16 17  1  0
 18 17  1  6
 18 19  1  0
 19 20  1  0
 20 21  2  0
 18 22  1  0
 22 23  1  1
 22 24  1  0
 24 25  1  0
 25 26  1  0
 26 27  1  0
 26 28  1  0
 26 29  1  0
 29 30  1  0
 30 31  2  0
 31 32  1  0
 32 33  1  0
 31 34  1  0
 34 35  1  0
 34 36  1  0
 34 37  1  0
 16 38  2  0
 38 39  1  0
 39 40  2  0
  7  2  1  0
 20  4  1  0
 33 29  2  0
 40 14  1  0
M  END
$$$$
