
     RDKit          3D

 40 43  0  0  0  0  0  0  0  0999 V2000
  -16.6275  -44.9634   -5.5975 C   0  0  0  0  0  0  0  0  0  0  0  0
  -17.5487  -44.3930   -6.6206 C   0  0  0  0  0  0  0  0  0  0  0  0
  -17.1224  -43.4492   -7.5135 C   0  0  0  0  0  0  0  0  0  0  0  0
  -17.9390  -42.8550   -8.5207 C   0  0  0  0  0  0  0  0  0  0  0  0
  -19.2361  -43.2740   -8.5807 C   0  0  0  0  0  0  0  0  0  0  0  0
  -19.6927  -44.2351   -7.6791 C   0  0  0  0  0  0  0  0  0  0  0  0
  -18.8139  -44.7439   -6.7424 N   0  0  0  0  0  0  0  0  0  0  0  0
  -20.9194  -44.8062   -7.5368 O   0  0  0  0  0  0  0  0  0  0  0  0
  -22.1936  -44.5977   -7.1576 C   0  0  0  0  0  0  0  0  0  0  0  0
  -22.3301  -43.5291   -6.1007 C   0  0  0  0  0  0  0  0  0  0  0  0
  -23.3629  -42.4709   -6.5078 C   0  0  0  0  0  0  0  0  0  0  0  0
  -23.5337  -41.4589   -5.4177 C   0  0  0  0  0  0  0  0  0  0  0  0
  -22.8083  -40.2888   -5.6535 O   0  0  0  0  0  0  0  0  0  0  0  0
  -22.1993  -39.7247   -6.7635 C   0  0  0  0  0  0  0  0  0  0  0  0
  -21.2162  -40.2628   -7.5730 C   0  0  0  0  0  0  0  0  0  0  0  0
  -20.7749  -39.5010   -8.6249 C   0  0  0  0  0  0  0  0  0  0  0  0
  -19.7577  -39.7913   -9.6840 C   0  0  0  0  0  0  0  0  0  0  0  0
  -18.3542  -39.6171   -9.2085 C   0  0  2  0  0  0  0  0  0  0  0  0
  -17.4373  -40.5778   -9.7776 N   0  0  0  0  0  0  0  0  0  0  0  0
  -17.1705  -41.8823   -9.2991 C   0  0  0  0  0  0  0  0  0  0  0  0
  -15.9526  -42.2431   -9.6604 O   0  0  0  0  0  0  0  0  0  0  0  0
  -18.1691  -39.5139   -7.7140 C   0  0  2  0  0  0  0  0  0  0  0  0
  -19.1792  -38.7206   -7.1439 O   0  0  0  0  0  0  0  0  0  0  0  0
  -16.8869  -38.7562   -7.4262 C   0  0  0  0  0  0  0  0  0  0  0  0
  -16.5657  -37.7488   -8.3974 N   0  0  0  0  0  0  0  0  0  0  0  0
  -15.2520  -37.9514   -8.9822 C   0  0  0  0  0  0  0  0  0  0  0  0
  -14.5115  -36.6948   -9.2840 C   0  0  0  0  0  0  0  0  0  0  0  0
  -14.4474  -38.7452   -7.9714 C   0  0  0  0  0  0  0  0  0  0  0  0
  -15.4091  -38.8271  -10.2248 C   0  0  0  0  0  0  0  0  0  0  0  0
  -14.8081  -38.5405  -11.4039 C   0  0  0  0  0  0  0  0  0  0  0  0
  -15.0359  -39.4163  -12.4353 C   0  0  0  0  0  0  0  0  0  0  0  0
  -16.0563  -40.5733  -11.7259 S   0  0  0  0  0  0  0  0  0  0  0  0
  -16.1623  -39.9327  -10.1859 N   0  0  0  0  0  0  0  0  0  0  0  0
  -14.4892  -39.3272  -13.8419 C   0  0  0  0  0  0  0  0  0  0  0  0
  -12.9829  -39.2508  -13.7585 C   0  0  0  0  0  0  0  0  0  0  0  0
  -14.9142  -40.5817  -14.5567 C   0  0  0  0  0  0  0  0  0  0  0  0
  -15.0547  -38.0932  -14.4791 C   0  0  0  0  0  0  0  0  0  0  0  0
  -21.3229  -38.2161   -8.8433 C   0  0  0  0  0  0  0  0  0  0  0  0
  -22.2954  -37.6558   -8.0575 C   0  0  0  0  0  0  0  0  0  0  0  0
  -22.7159  -38.4434   -7.0161 C   0  0  0  0  0  0  0  0  0  0  0  0
  1  2  1  0
  2  3  2  0
  3  4  1  0
  4  5  2  0
  5  6  1  0
  6  7  2  0
  6  8  1  0
  8  9  1  0
  9 10  1  0
 10 11  1  0
 11 12  1  0
 12 13  1  0
 13 14  1  0
 14 15  2  0
 15 16  1  0
 16 17  1  0
 18 17  1  1
 18 19  1  0
 19 20  1  0
 20 21  2  0
 18 22  1  0
 22 23  1  1
 22 24  1  0
 24 25  1  0
 25 26  1  0
 26 27  1  0
 26 28  1  0
 26 29  1  0
 29 30  1  0
 30 31  2  0
 31 32  1  0
 32 33  1  0
 31 34  1  0
 34 35  1  0
 34 36  1  0
 34 37  1  0
 16 38  2  0
 38 39  1  0
 39 40  2  0
  7  2  1  0
 20  4  1  0
 33 29  2  0
 40 14  1  0
M  END
$$$$
