
     RDKit          3D

 40 43  0  0  0  0  0  0  0  0999 V2000
  -17.6948  -45.7297   -8.7181 C   0  0  0  0  0  0  0  0  0  0  0  0
  -18.3611  -44.4450   -9.0732 C   0  0  0  0  0  0  0  0  0  0  0  0
  -17.6346  -43.3200   -9.3491 C   0  0  0  0  0  0  0  0  0  0  0  0
  -18.1947  -42.0549   -9.6962 C   0  0  0  0  0  0  0  0  0  0  0  0
  -19.5560  -41.9849   -9.7524 C   0  0  0  0  0  0  0  0  0  0  0  0
  -20.3171  -43.1199   -9.4737 C   0  0  0  0  0  0  0  0  0  0  0  0
  -19.6691  -44.2956   -9.1473 N   0  0  0  0  0  0  0  0  0  0  0  0
  -21.6652  -43.3032   -9.4621 O   0  0  0  0  0  0  0  0  0  0  0  0
  -22.8100  -43.0144   -8.8165 C   0  0  0  0  0  0  0  0  0  0  0  0
  -22.6132  -42.7734   -7.3397 C   0  0  0  0  0  0  0  0  0  0  0  0
  -23.2390  -41.4429   -6.9036 C   0  0  0  0  0  0  0  0  0  0  0  0
  -23.0934  -41.2552   -5.4253 C   0  0  0  0  0  0  0  0  0  0  0  0
  -22.0234  -40.4212   -5.0932 O   0  0  0  0  0  0  0  0  0  0  0  0
  -21.2429  -39.5107   -5.7883 C   0  0  0  0  0  0  0  0  0  0  0  0
  -20.4719  -39.7218   -6.9163 C   0  0  0  0  0  0  0  0  0  0  0  0
  -19.7871  -38.6478   -7.4253 C   0  0  0  0  0  0  0  0  0  0  0  0
  -18.8986  -38.5332   -8.6245 C   0  0  0  0  0  0  0  0  0  0  0  0
  -17.5239  -39.0616   -8.3849 C   0  0  2  0  0  0  0  0  0  0  0  0
  -16.9573  -39.7179   -9.5406 N   0  0  0  0  0  0  0  0  0  0  0  0
  -17.1372  -41.0684   -9.9224 C   0  0  0  0  0  0  0  0  0  0  0  0
  -16.0954  -41.4687  -10.6283 O   0  0  0  0  0  0  0  0  0  0  0  0
  -17.3445  -39.9028   -7.1444 C   0  0  2  0  0  0  0  0  0  0  0  0
  -17.8376  -39.2289   -6.0141 O   0  0  0  0  0  0  0  0  0  0  0  0
  -15.8618  -40.0665   -6.8689 C   0  0  0  0  0  0  0  0  0  0  0  0
  -15.0094  -39.3744   -7.7939 N   0  0  0  0  0  0  0  0  0  0  0  0
  -14.8555  -40.0986   -9.0432 C   0  0  0  0  0  0  0  0  0  0  0  0
  -13.7247  -41.0680   -9.0581 C   0  0  0  0  0  0  0  0  0  0  0  0
  -16.1438  -40.8691   -9.2571 C   0  0  0  0  0  0  0  0  0  0  0  0
  -14.7423  -39.0809  -10.1778 C   0  0  0  0  0  0  0  0  0  0  0  0
  -15.5974  -38.0400  -10.3163 C   0  0  0  0  0  0  0  0  0  0  0  0
  -15.3751  -37.2037  -11.3812 C   0  0  0  0  0  0  0  0  0  0  0  0
  -14.0129  -37.8948  -12.1225 S   0  0  0  0  0  0  0  0  0  0  0  0
  -13.7702  -39.1875  -11.0914 N   0  0  0  0  0  0  0  0  0  0  0  0
  -16.1773  -35.9793  -11.7591 C   0  0  0  0  0  0  0  0  0  0  0  0
  -17.2581  -36.4032  -12.7254 C   0  0  0  0  0  0  0  0  0  0  0  0
  -16.7852  -35.4457  -10.4897 C   0  0  0  0  0  0  0  0  0  0  0  0
  -15.2431  -34.9948  -12.3969 C   0  0  0  0  0  0  0  0  0  0  0  0
  -19.8845  -37.3864   -6.7939 C   0  0  0  0  0  0  0  0  0  0  0  0
  -20.6377  -37.1475   -5.6747 C   0  0  0  0  0  0  0  0  0  0  0  0
  -21.3111  -38.2409   -5.1923 C   0  0  0  0  0  0  0  0  0  0  0  0
  1  2  1  0
  2  3  2  0
  3  4  1  0
  4  5  2  0
  5  6  1  0
  6  7  2  0
  6  8  1  0
  8  9  1  0
  9 10  1  0
 10 11  1  0
 11 12  1  0
 12 13  1  0
 13 14  1  0
 14 15  2  0
 15 16  1  0
 16 17  1  0
 18 17  1  6
 18 19  1  0
 19 20  1  0
 20 21  2  0
 18 22  1  0
 22 23  1  1
 22 24  1  0
 24 25  1  0
 25 26  1  0
 26 27  1  0
 26 28  1  0
 26 29  1  0
 29 30  1  0
 30 31  2  0
 31 32  1  0
 32 33  1  0
 31 34  1  0
 34 35  1  0
 34 36  1  0
 34 37  1  0
 16 38  2  0
 38 39  1  0
 39 40  2  0
  7  2  1  0
 20  4  1  0
 33 29  2  0
 40 14  1  0
M  END
$$$$
