
     RDKit          3D

 40 43  0  0  0  0  0  0  0  0999 V2000
  -17.7748  -45.8845  -11.1773 C   0  0  0  0  0  0  0  0  0  0  0  0
  -17.2814  -44.9343  -10.1409 C   0  0  0  0  0  0  0  0  0  0  0  0
  -18.1457  -44.1622   -9.4152 C   0  0  0  0  0  0  0  0  0  0  0  0
  -17.7549  -43.2310   -8.4080 C   0  0  0  0  0  0  0  0  0  0  0  0
  -16.4169  -43.1192   -8.1661 C   0  0  0  0  0  0  0  0  0  0  0  0
  -15.5170  -43.8963   -8.8952 C   0  0  0  0  0  0  0  0  0  0  0  0
  -16.0063  -44.7674   -9.8493 N   0  0  0  0  0  0  0  0  0  0  0  0
  -14.1593  -43.9661   -8.8421 O   0  0  0  0  0  0  0  0  0  0  0  0
  -13.0121  -43.3161   -9.1113 C   0  0  0  0  0  0  0  0  0  0  0  0
  -13.1329  -42.3551  -10.2686 C   0  0  0  0  0  0  0  0  0  0  0  0
  -12.6306  -40.9571   -9.8872 C   0  0  0  0  0  0  0  0  0  0  0  0
  -12.6944  -40.0376  -11.0671 C   0  0  0  0  0  0  0  0  0  0  0  0
  -13.8253  -39.2180  -11.0480 O   0  0  0  0  0  0  0  0  0  0  0  0
  -14.7479  -38.8499  -10.0813 C   0  0  0  0  0  0  0  0  0  0  0  0
  -15.5661  -39.6620   -9.3182 C   0  0  0  0  0  0  0  0  0  0  0  0
  -16.3995  -39.0520   -8.4154 C   0  0  0  0  0  0  0  0  0  0  0  0
  -17.3752  -39.6306   -7.4388 C   0  0  0  0  0  0  0  0  0  0  0  0
  -18.6629  -40.0384   -8.0726 C   0  0  2  0  0  0  0  0  0  0  0  0
  -19.2309  -41.2322   -7.4898 N   0  0  0  0  0  0  0  0  0  0  0  0
  -18.9285  -42.5709   -7.8339 C   0  0  0  0  0  0  0  0  0  0  0  0
  -19.9653  -43.3410   -7.5585 O   0  0  0  0  0  0  0  0  0  0  0  0
  -18.6622  -40.1214   -9.5799 C   0  0  2  0  0  0  0  0  0  0  0  0
  -17.7497  -39.2026  -10.1256 O   0  0  0  0  0  0  0  0  0  0  0  0
  -20.0125  -39.6661  -10.1002 C   0  0  0  0  0  0  0  0  0  0  0  0
  -20.9200  -40.7366  -10.4031 N   0  0  0  0  0  0  0  0  0  0  0  0
  -22.0321  -40.7915   -9.4709 C   0  0  0  0  0  0  0  0  0  0  0  0
  -23.2822  -40.1495   -9.9647 C   0  0  0  0  0  0  0  0  0  0  0  0
  -22.3180  -42.2604   -9.2260 C   0  0  0  0  0  0  0  0  0  0  0  0
  -21.5753  -40.1909   -8.1419 C   0  0  0  0  0  0  0  0  0  0  0  0
  -21.9685  -40.6814   -6.9425 C   0  0  0  0  0  0  0  0  0  0  0  0
  -21.4783  -40.0439   -5.8307 C   0  0  0  0  0  0  0  0  0  0  0  0
  -20.5128  -38.8167   -6.4976 S   0  0  0  0  0  0  0  0  0  0  0  0
  -20.7508  -39.1370   -8.1205 N   0  0  0  0  0  0  0  0  0  0  0  0
  -21.7605  -40.3886   -4.3860 C   0  0  0  0  0  0  0  0  0  0  0  0
  -20.5909  -39.9209   -3.5524 C   0  0  0  0  0  0  0  0  0  0  0  0
  -23.0133  -39.6507   -3.9970 C   0  0  0  0  0  0  0  0  0  0  0  0
  -21.9266  -41.8759   -4.2909 C   0  0  0  0  0  0  0  0  0  0  0  0
  -16.3999  -37.6431   -8.2970 C   0  0  0  0  0  0  0  0  0  0  0  0
  -15.6030  -36.8129   -9.0405 C   0  0  0  0  0  0  0  0  0  0  0  0
  -14.7807  -37.4539   -9.9320 C   0  0  0  0  0  0  0  0  0  0  0  0
  1  2  1  0
  2  3  2  0
  3  4  1  0
  4  5  2  0
  5  6  1  0
  6  7  2  0
  6  8  1  0
  8  9  1  0
  9 10  1  0
 10 11  1  0
 11 12  1  0
 12 13  1  0
 13 14  1  0
 14 15  2  0
 15 16  1  0
 16 17  1  0
 18 17  1  1
 18 19  1  0
 19 20  1  0
 20 21  2  0
 18 22  1  0
 22 23  1  6
 22 24  1  0
 24 25  1  0
 25 26  1  0
 26 27  1  0
 26 28  1  0
 26 29  1  0
 29 30  1  0
 30 31  2  0
 31 32  1  0
 32 33  1  0
 31 34  1  0
 34 35  1  0
 34 36  1  0
 34 37  1  0
 16 38  2  0
 38 39  1  0
 39 40  2  0
  7  2  1  0
 20  4  1  0
 33 29  2  0
 40 14  1  0
M  END
$$$$
