
     RDKit          3D

 40 43  0  0  0  0  0  0  0  0999 V2000
  -17.0164  -45.8408   -7.2038 C   0  0  0  0  0  0  0  0  0  0  0  0
  -17.9928  -44.9173   -7.8475 C   0  0  0  0  0  0  0  0  0  0  0  0
  -17.5825  -43.9330   -8.7033 C   0  0  0  0  0  0  0  0  0  0  0  0
  -18.4512  -43.0107   -9.3585 C   0  0  0  0  0  0  0  0  0  0  0  0
  -19.7846  -43.1385   -9.0994 C   0  0  0  0  0  0  0  0  0  0  0  0
  -20.2255  -44.1349   -8.2288 C   0  0  0  0  0  0  0  0  0  0  0  0
  -19.2950  -44.9748   -7.6479 N   0  0  0  0  0  0  0  0  0  0  0  0
  -21.4802  -44.4604   -7.8156 O   0  0  0  0  0  0  0  0  0  0  0  0
  -22.5294  -44.0698   -7.0690 C   0  0  0  0  0  0  0  0  0  0  0  0
  -22.1335  -43.2077   -5.8952 C   0  0  0  0  0  0  0  0  0  0  0  0
  -22.9424  -41.9051   -5.8622 C   0  0  0  0  0  0  0  0  0  0  0  0
  -22.5842  -41.0966   -4.6540 C   0  0  0  0  0  0  0  0  0  0  0  0
  -21.6753  -40.0758   -4.9418 O   0  0  0  0  0  0  0  0  0  0  0  0
  -21.2406  -39.4540   -6.1019 C   0  0  0  0  0  0  0  0  0  0  0  0
  -20.6516  -40.0237   -7.2154 C   0  0  0  0  0  0  0  0  0  0  0  0
  -20.3112  -39.1883   -8.2488 C   0  0  0  0  0  0  0  0  0  0  0  0
  -19.6912  -39.4808   -9.5795 C   0  0  0  0  0  0  0  0  0  0  0  0
  -18.2153  -39.6861   -9.5031 C   0  0  2  0  0  0  0  0  0  0  0  0
  -17.7327  -40.6927  -10.4203 N   0  0  0  0  0  0  0  0  0  0  0  0
  -17.6845  -42.0893  -10.1987 C   0  0  0  0  0  0  0  0  0  0  0  0
  -16.7211  -42.6182  -10.9308 O   0  0  0  0  0  0  0  0  0  0  0  0
  -17.6467  -39.8982   -8.1210 C   0  0  2  0  0  0  0  0  0  0  0  0
  -18.1906  -38.9721   -7.2147 O   0  0  0  0  0  0  0  0  0  0  0  0
  -16.1639  -39.5786   -8.1425 C   0  0  0  0  0  0  0  0  0  0  0  0
  -15.5361  -39.7749   -9.4186 N   0  0  0  0  0  0  0  0  0  0  0  0
  -15.4141  -38.5352  -10.1649 C   0  0  0  0  0  0  0  0  0  0  0  0
  -16.6866  -38.0530  -10.7707 C   0  0  0  0  0  0  0  0  0  0  0  0
  -14.9285  -37.4864   -9.1834 C   0  0  0  0  0  0  0  0  0  0  0  0
  -14.3194  -38.7131  -11.2165 C   0  0  0  0  0  0  0  0  0  0  0  0
  -13.4962  -37.7066  -11.5947 C   0  0  0  0  0  0  0  0  0  0  0  0
  -12.5574  -38.0101  -12.5483 C   0  0  0  0  0  0  0  0  0  0  0  0
  -12.8616  -39.6503  -12.8650 S   0  0  0  0  0  0  0  0  0  0  0  0
  -14.1339  -39.8982  -11.8099 N   0  0  0  0  0  0  0  0  0  0  0  0
  -11.5269  -37.0756  -13.1401 C   0  0  0  0  0  0  0  0  0  0  0  0
  -11.1075  -36.0967  -12.0689 C   0  0  0  0  0  0  0  0  0  0  0  0
  -10.3589  -37.9248  -13.5644 C   0  0  0  0  0  0  0  0  0  0  0  0
  -12.1605  -36.3647  -14.2985 C   0  0  0  0  0  0  0  0  0  0  0  0
  -20.5633  -37.8009   -8.1458 C   0  0  0  0  0  0  0  0  0  0  0  0
  -21.1427  -37.2078   -7.0551 C   0  0  0  0  0  0  0  0  0  0  0  0
  -21.4726  -38.0703   -6.0408 C   0  0  0  0  0  0  0  0  0  0  0  0
  1  2  1  0
  2  3  2  0
  3  4  1  0
  4  5  2  0
  5  6  1  0
  6  7  2  0
  6  8  1  0
  8  9  1  0
  9 10  1  0
 10 11  1  0
 11 12  1  0
 12 13  1  0
 13 14  1  0
 14 15  2  0
 15 16  1  0
 16 17  1  0
 18 17  1  1
 18 19  1  0
 19 20  1  0
 20 21  2  0
 18 22  1  0
 22 23  1  1
 22 24  1  0
 24 25  1  0
 25 26  1  0
 26 27  1  0
 26 28  1  0
 26 29  1  0
 29 30  1  0
 30 31  2  0
 31 32  1  0
 32 33  1  0
 31 34  1  0
 34 35  1  0
 34 36  1  0
 34 37  1  0
 16 38  2  0
 38 39  1  0
 39 40  2  0
  7  2  1  0
 20  4  1  0
 33 29  2  0
 40 14  1  0
M  END
$$$$
