
     RDKit          3D

 40 43  0  0  0  0  0  0  0  0999 V2000
  -18.2580  -46.3421   -6.6327 C   0  0  0  0  0  0  0  0  0  0  0  0
  -19.1174  -45.2959   -7.2552 C   0  0  0  0  0  0  0  0  0  0  0  0
  -18.6190  -44.4290   -8.1879 C   0  0  0  0  0  0  0  0  0  0  0  0
  -19.3736  -43.4025   -8.8293 C   0  0  0  0  0  0  0  0  0  0  0  0
  -20.6861  -43.2961   -8.4725 C   0  0  0  0  0  0  0  0  0  0  0  0
  -21.2153  -44.1692   -7.5223 C   0  0  0  0  0  0  0  0  0  0  0  0
  -20.3923  -45.1278   -6.9636 N   0  0  0  0  0  0  0  0  0  0  0  0
  -22.4709  -44.2643   -7.0069 O   0  0  0  0  0  0  0  0  0  0  0  0
  -23.3820  -43.6747   -6.2113 C   0  0  0  0  0  0  0  0  0  0  0  0
  -22.7621  -42.8436   -5.1147 C   0  0  0  0  0  0  0  0  0  0  0  0
  -23.3430  -41.4244   -5.0945 C   0  0  0  0  0  0  0  0  0  0  0  0
  -22.7662  -40.6383   -3.9582 C   0  0  0  0  0  0  0  0  0  0  0  0
  -21.7279  -39.7955   -4.3613 O   0  0  0  0  0  0  0  0  0  0  0  0
  -21.2881  -39.3023   -5.5798 C   0  0  0  0  0  0  0  0  0  0  0  0
  -20.8870  -40.0066   -6.6998 C   0  0  0  0  0  0  0  0  0  0  0  0
  -20.4953  -39.2821   -7.7967 C   0  0  0  0  0  0  0  0  0  0  0  0
  -20.0352  -39.7274   -9.1497 C   0  0  0  0  0  0  0  0  0  0  0  0
  -18.6110  -40.1721   -9.1646 C   0  0  2  0  0  0  0  0  0  0  0  0
  -18.3706  -41.2812  -10.0587 N   0  0  0  0  0  0  0  0  0  0  0  0
  -18.5338  -42.6562   -9.7677 C   0  0  0  0  0  0  0  0  0  0  0  0
  -17.7284  -43.3672  -10.5356 O   0  0  0  0  0  0  0  0  0  0  0  0
  -17.9802  -40.4196   -7.8158 C   0  0  2  0  0  0  0  0  0  0  0  0
  -18.2358  -39.3462   -6.9456 O   0  0  0  0  0  0  0  0  0  0  0  0
  -16.4712  -40.4286   -7.9704 C   0  0  0  0  0  0  0  0  0  0  0  0
  -16.0154  -40.7332   -9.2973 N   0  0  0  0  0  0  0  0  0  0  0  0
  -14.8128  -39.9975   -9.6453 C   0  0  0  0  0  0  0  0  0  0  0  0
  -13.9567  -39.6310   -8.4827 C   0  0  0  0  0  0  0  0  0  0  0  0
  -14.0072  -40.8963  -10.5630 C   0  0  0  0  0  0  0  0  0  0  0  0
  -15.2195  -38.7683  -10.4573 C   0  0  0  0  0  0  0  0  0  0  0  0
  -16.4908  -38.3033  -10.4957 C   0  0  0  0  0  0  0  0  0  0  0  0
  -16.7112  -37.1888  -11.2651 C   0  0  0  0  0  0  0  0  0  0  0  0
  -15.1673  -36.8501  -11.8852 S   0  0  0  0  0  0  0  0  0  0  0  0
  -14.3102  -38.0951  -11.1721 N   0  0  0  0  0  0  0  0  0  0  0  0
  -18.0272  -36.4755  -11.4770 C   0  0  0  0  0  0  0  0  0  0  0  0
  -18.1070  -35.3310  -10.4945 C   0  0  0  0  0  0  0  0  0  0  0  0
  -18.0213  -35.9574  -12.8901 C   0  0  0  0  0  0  0  0  0  0  0  0
  -19.1304  -37.4635  -11.2408 C   0  0  0  0  0  0  0  0  0  0  0  0
  -20.5094  -37.8691   -7.7497 C   0  0  0  0  0  0  0  0  0  0  0  0
  -20.8990  -37.1441   -6.6544 C   0  0  0  0  0  0  0  0  0  0  0  0
  -21.2862  -37.8979   -5.5758 C   0  0  0  0  0  0  0  0  0  0  0  0
  1  2  1  0
  2  3  2  0
  3  4  1  0
  4  5  2  0
  5  6  1  0
  6  7  2  0
  6  8  1  0
  8  9  1  0
  9 10  1  0
 10 11  1  0
 11 12  1  0
 12 13  1  0
 13 14  1  0
 14 15  2  0
 15 16  1  0
 16 17  1  0
 18 17  1  1
 18 19  1  0
 19 20  1  0
 20 21  2  0
 18 22  1  0
 22 23  1  1
 22 24  1  0
 24 25  1  0
 25 26  1  0
 26 27  1  0
 26 28  1  0
 26 29  1  0
 29 30  1  0
 30 31  2  0
 31 32  1  0
 32 33  1  0
 31 34  1  0
 34 35  1  0
 34 36  1  0
 34 37  1  0
 16 38  2  0
 38 39  1  0
 39 40  2  0
  7  2  1  0
 20  4  1  0
 33 29  2  0
 40 14  1  0
M  END
$$$$
