
     RDKit          3D

 40 43  0  0  0  0  0  0  0  0999 V2000
  -16.2369  -44.3437   -5.1124 C   0  0  0  0  0  0  0  0  0  0  0  0
  -17.2448  -43.9473   -6.1359 C   0  0  0  0  0  0  0  0  0  0  0  0
  -16.9151  -43.1234   -7.1763 C   0  0  0  0  0  0  0  0  0  0  0  0
  -17.8186  -42.6981   -8.1948 C   0  0  0  0  0  0  0  0  0  0  0  0
  -19.0995  -43.1595   -8.1060 C   0  0  0  0  0  0  0  0  0  0  0  0
  -19.4582  -44.0002   -7.0525 C   0  0  0  0  0  0  0  0  0  0  0  0
  -18.5007  -44.3488   -6.1197 N   0  0  0  0  0  0  0  0  0  0  0  0
  -20.6497  -44.5822   -6.7482 O   0  0  0  0  0  0  0  0  0  0  0  0
  -21.9034  -44.3611   -6.3120 C   0  0  0  0  0  0  0  0  0  0  0  0
  -22.0118  -43.1615   -5.4027 C   0  0  0  0  0  0  0  0  0  0  0  0
  -23.1094  -42.2006   -5.8758 C   0  0  0  0  0  0  0  0  0  0  0  0
  -23.2475  -41.0534   -4.9236 C   0  0  0  0  0  0  0  0  0  0  0  0
  -22.5852  -39.9060   -5.3663 O   0  0  0  0  0  0  0  0  0  0  0  0
  -22.0728  -39.4826   -6.5827 C   0  0  0  0  0  0  0  0  0  0  0  0
  -21.1248  -40.0980   -7.3789 C   0  0  0  0  0  0  0  0  0  0  0  0
  -20.7835  -39.4758   -8.5528 C   0  0  0  0  0  0  0  0  0  0  0  0
  -19.8275  -39.8792   -9.6317 C   0  0  0  0  0  0  0  0  0  0  0  0
  -18.4036  -39.5997   -9.2842 C   0  0  2  0  0  0  0  0  0  0  0  0
  -17.4895  -40.6022   -9.7808 N   0  0  0  0  0  0  0  0  0  0  0  0
  -17.1412  -41.8198   -9.1499 C   0  0  0  0  0  0  0  0  0  0  0  0
  -15.9366  -42.1908   -9.5438 O   0  0  0  0  0  0  0  0  0  0  0  0
  -18.1250  -39.2860   -7.8341 C   0  0  2  0  0  0  0  0  0  0  0  0
  -19.1906  -38.5639   -7.2705 O   0  0  0  0  0  0  0  0  0  0  0  0
  -16.9426  -38.3392   -7.7520 C   0  0  0  0  0  0  0  0  0  0  0  0
  -15.7282  -38.8613   -8.3121 N   0  0  0  0  0  0  0  0  0  0  0  0
  -15.0595  -37.8952   -9.1656 C   0  0  0  0  0  0  0  0  0  0  0  0
  -15.4891  -36.4848   -8.9538 C   0  0  0  0  0  0  0  0  0  0  0  0
  -13.5794  -37.9928   -8.8509 C   0  0  0  0  0  0  0  0  0  0  0  0
  -15.2435  -38.3298  -10.6192 C   0  0  0  0  0  0  0  0  0  0  0  0
  -14.4637  -39.2673  -11.2079 C   0  0  0  0  0  0  0  0  0  0  0  0
  -14.7438  -39.5603  -12.5189 C   0  0  0  0  0  0  0  0  0  0  0  0
  -16.0539  -38.5355  -12.8602 S   0  0  0  0  0  0  0  0  0  0  0  0
  -16.2054  -37.7859  -11.3741 N   0  0  0  0  0  0  0  0  0  0  0  0
  -14.0295  -40.5594  -13.4003 C   0  0  0  0  0  0  0  0  0  0  0  0
  -13.5047  -41.6717  -12.5233 C   0  0  0  0  0  0  0  0  0  0  0  0
  -15.0477  -41.0911  -14.3729 C   0  0  0  0  0  0  0  0  0  0  0  0
  -12.9062  -39.8449  -14.0907 C   0  0  0  0  0  0  0  0  0  0  0  0
  -21.3942  -38.2500   -8.9042 C   0  0  0  0  0  0  0  0  0  0  0  0
  -22.3340  -37.6157   -8.1351 C   0  0  0  0  0  0  0  0  0  0  0  0
  -22.6543  -38.2643   -6.9696 C   0  0  0  0  0  0  0  0  0  0  0  0
  1  2  1  0
  2  3  2  0
  3  4  1  0
  4  5  2  0
  5  6  1  0
  6  7  2  0
  6  8  1  0
  8  9  1  0
  9 10  1  0
 10 11  1  0
 11 12  1  0
 12 13  1  0
 13 14  1  0
 14 15  2  0
 15 16  1  0
 16 17  1  0
 18 17  1  1
 18 19  1  0
 19 20  1  0
 20 21  2  0
 18 22  1  0
 22 23  1  6
 22 24  1  0
 24 25  1  0
 25 26  1  0
 26 27  1  0
 26 28  1  0
 26 29  1  0
 29 30  1  0
 30 31  2  0
 31 32  1  0
 32 33  1  0
 31 34  1  0
 34 35  1  0
 34 36  1  0
 34 37  1  0
 16 38  2  0
 38 39  1  0
 39 40  2  0
  7  2  1  0
 20  4  1  0
 33 29  2  0
 40 14  1  0
M  END
$$$$
