
     RDKit          3D

 40 43  0  0  0  0  0  0  0  0999 V2000
  -19.0402  -45.8548   -8.6637 C   0  0  0  0  0  0  0  0  0  0  0  0
  -19.5568  -44.4806   -8.9192 C   0  0  0  0  0  0  0  0  0  0  0  0
  -18.7262  -43.4729   -9.3246 C   0  0  0  0  0  0  0  0  0  0  0  0
  -19.1408  -42.1341   -9.5896 C   0  0  0  0  0  0  0  0  0  0  0  0
  -20.4669  -41.8612   -9.4212 C   0  0  0  0  0  0  0  0  0  0  0  0
  -21.3322  -42.8736   -9.0072 C   0  0  0  0  0  0  0  0  0  0  0  0
  -20.8220  -44.1369   -8.7783 N   0  0  0  0  0  0  0  0  0  0  0  0
  -22.6720  -42.8541   -8.7711 O   0  0  0  0  0  0  0  0  0  0  0  0
  -23.6386  -42.4062   -7.9489 C   0  0  0  0  0  0  0  0  0  0  0  0
  -23.1671  -42.2165   -6.5278 C   0  0  0  0  0  0  0  0  0  0  0  0
  -23.5068  -40.8134   -6.0103 C   0  0  0  0  0  0  0  0  0  0  0  0
  -23.0931  -40.6687   -4.5787 C   0  0  0  0  0  0  0  0  0  0  0  0
  -21.8707  -40.0079   -4.4376 O   0  0  0  0  0  0  0  0  0  0  0  0
  -21.0886  -39.2150   -5.2628 C   0  0  0  0  0  0  0  0  0  0  0  0
  -20.5545  -39.5240   -6.5000 C   0  0  0  0  0  0  0  0  0  0  0  0
  -19.8105  -38.5575   -7.1277 C   0  0  0  0  0  0  0  0  0  0  0  0
  -19.1250  -38.5611   -8.4584 C   0  0  0  0  0  0  0  0  0  0  0  0
  -17.8241  -39.2915   -8.4427 C   0  0  2  0  0  0  0  0  0  0  0  0
  -17.5601  -40.0099   -9.6681 N   0  0  0  0  0  0  0  0  0  0  0  0
  -18.0000  -41.3134   -9.9989 C   0  0  0  0  0  0  0  0  0  0  0  0
  -17.1604  -41.8553  -10.8622 O   0  0  0  0  0  0  0  0  0  0  0  0
  -17.5700  -40.1661   -7.2389 C   0  0  2  0  0  0  0  0  0  0  0  0
  -18.0132  -39.5332   -6.0651 O   0  0  0  0  0  0  0  0  0  0  0  0
  -16.0730  -40.3159   -7.0443 C   0  0  0  0  0  0  0  0  0  0  0  0
  -15.3024  -39.1975   -7.5095 N   0  0  0  0  0  0  0  0  0  0  0  0
  -14.5087  -39.5286   -8.6797 C   0  0  0  0  0  0  0  0  0  0  0  0
  -13.1358  -40.0192   -8.3743 C   0  0  0  0  0  0  0  0  0  0  0  0
  -15.2542  -40.6288   -9.4098 C   0  0  0  0  0  0  0  0  0  0  0  0
  -14.4813  -38.3104   -9.6021 C   0  0  0  0  0  0  0  0  0  0  0  0
  -15.3621  -38.1393  -10.6163 C   0  0  0  0  0  0  0  0  0  0  0  0
  -15.2208  -36.9966  -11.3627 C   0  0  0  0  0  0  0  0  0  0  0  0
  -13.8940  -36.2318  -10.6296 S   0  0  0  0  0  0  0  0  0  0  0  0
  -13.5650  -37.3499   -9.4317 N   0  0  0  0  0  0  0  0  0  0  0  0
  -16.0660  -36.5696  -12.5412 C   0  0  0  0  0  0  0  0  0  0  0  0
  -17.3700  -36.0207  -12.0123 C   0  0  0  0  0  0  0  0  0  0  0  0
  -15.2974  -35.4966  -13.2647 C   0  0  0  0  0  0  0  0  0  0  0  0
  -16.3007  -37.7756  -13.4012 C   0  0  0  0  0  0  0  0  0  0  0  0
  -19.6132  -37.3040   -6.5040 C   0  0  0  0  0  0  0  0  0  0  0  0
  -20.1273  -36.9701   -5.2788 C   0  0  0  0  0  0  0  0  0  0  0  0
  -20.8673  -37.9571   -4.6789 C   0  0  0  0  0  0  0  0  0  0  0  0
  1  2  1  0
  2  3  2  0
  3  4  1  0
  4  5  2  0
  5  6  1  0
  6  7  2  0
  6  8  1  0
  8  9  1  0
  9 10  1  0
 10 11  1  0
 11 12  1  0
 12 13  1  0
 13 14  1  0
 14 15  2  0
 15 16  1  0
 16 17  1  0
 18 17  1  6
 18 19  1  0
 19 20  1  0
 20 21  2  0
 18 22  1  0
 22 23  1  1
 22 24  1  0
 24 25  1  0
 25 26  1  0
 26 27  1  0
 26 28  1  0
 26 29  1  0
 29 30  1  0
 30 31  2  0
 31 32  1  0
 32 33  1  0
 31 34  1  0
 34 35  1  0
 34 36  1  0
 34 37  1  0
 16 38  2  0
 38 39  1  0
 39 40  2  0
  7  2  1  0
 20  4  1  0
 33 29  2  0
 40 14  1  0
M  END
$$$$
