
     RDKit          3D

 40 43  0  0  0  0  0  0  0  0999 V2000
  -17.8429  -45.9195   -8.2048 C   0  0  0  0  0  0  0  0  0  0  0  0
  -18.7625  -44.7818   -8.4884 C   0  0  0  0  0  0  0  0  0  0  0  0
  -18.2866  -43.5714   -8.9107 C   0  0  0  0  0  0  0  0  0  0  0  0
  -19.0981  -42.4354   -9.2027 C   0  0  0  0  0  0  0  0  0  0  0  0
  -20.4443  -42.5898   -9.0437 C   0  0  0  0  0  0  0  0  0  0  0  0
  -20.9517  -43.8154   -8.6130 C   0  0  0  0  0  0  0  0  0  0  0  0
  -20.0728  -44.8504   -8.3581 N   0  0  0  0  0  0  0  0  0  0  0  0
  -22.2320  -44.2136   -8.3815 O   0  0  0  0  0  0  0  0  0  0  0  0
  -23.2977  -44.0777   -7.5711 C   0  0  0  0  0  0  0  0  0  0  0  0
  -22.9225  -43.7249   -6.1525 C   0  0  0  0  0  0  0  0  0  0  0  0
  -23.6902  -42.4907   -5.6633 C   0  0  0  0  0  0  0  0  0  0  0  0
  -23.3558  -42.1985   -4.2334 C   0  0  0  0  0  0  0  0  0  0  0  0
  -22.4039  -41.1849   -4.1013 O   0  0  0  0  0  0  0  0  0  0  0  0
  -21.9029  -40.2009   -4.9393 C   0  0  0  0  0  0  0  0  0  0  0  0
  -21.2876  -40.3480   -6.1686 C   0  0  0  0  0  0  0  0  0  0  0  0
  -20.8790  -39.2078   -6.8126 C   0  0  0  0  0  0  0  0  0  0  0  0
  -20.2151  -39.0191   -8.1408 C   0  0  0  0  0  0  0  0  0  0  0  0
  -18.7508  -39.3036   -8.1069 C   0  0  2  0  0  0  0  0  0  0  0  0
  -18.2637  -39.9239   -9.3174 N   0  0  0  0  0  0  0  0  0  0  0  0
  -18.2690  -41.3051   -9.6243 C   0  0  0  0  0  0  0  0  0  0  0  0
  -17.2940  -41.5709  -10.4744 O   0  0  0  0  0  0  0  0  0  0  0  0
  -18.2459  -40.0331   -6.8857 C   0  0  2  0  0  0  0  0  0  0  0  0
  -18.5723  -39.3253   -5.7164 O   0  0  0  0  0  0  0  0  0  0  0  0
  -16.7291  -40.0440   -6.9088 C   0  0  0  0  0  0  0  0  0  0  0  0
  -16.1598  -40.2003   -8.2175 N   0  0  0  0  0  0  0  0  0  0  0  0
  -15.5298  -38.9800   -8.6895 C   0  0  0  0  0  0  0  0  0  0  0  0
  -15.2987  -37.9570   -7.6318 C   0  0  0  0  0  0  0  0  0  0  0  0
  -14.1848  -39.3823   -9.2625 C   0  0  0  0  0  0  0  0  0  0  0  0
  -16.3651  -38.4228   -9.8417 C   0  0  0  0  0  0  0  0  0  0  0  0
  -15.8118  -37.8717  -10.9481 C   0  0  0  0  0  0  0  0  0  0  0  0
  -16.6831  -37.4138  -11.9041 C   0  0  0  0  0  0  0  0  0  0  0  0
  -18.2002  -37.7662  -11.2281 S   0  0  0  0  0  0  0  0  0  0  0  0
  -17.7018  -38.4642   -9.7937 N   0  0  0  0  0  0  0  0  0  0  0  0
  -16.3280  -36.7612  -13.2207 C   0  0  0  0  0  0  0  0  0  0  0  0
  -16.0885  -35.2911  -12.9691 C   0  0  0  0  0  0  0  0  0  0  0  0
  -15.0688  -37.4236  -13.7116 C   0  0  0  0  0  0  0  0  0  0  0  0
  -17.4783  -36.9643  -14.1611 C   0  0  0  0  0  0  0  0  0  0  0  0
  -21.0908  -37.9452   -6.2126 C   0  0  0  0  0  0  0  0  0  0  0  0
  -21.6949  -37.7684   -4.9957 C   0  0  0  0  0  0  0  0  0  0  0  0
  -22.0930  -38.9272   -4.3791 C   0  0  0  0  0  0  0  0  0  0  0  0
  1  2  1  0
  2  3  2  0
  3  4  1  0
  4  5  2  0
  5  6  1  0
  6  7  2  0
  6  8  1  0
  8  9  1  0
  9 10  1  0
 10 11  1  0
 11 12  1  0
 12 13  1  0
 13 14  1  0
 14 15  2  0
 15 16  1  0
 16 17  1  0
 18 17  1  6
 18 19  1  0
 19 20  1  0
 20 21  2  0
 18 22  1  0
 22 23  1  1
 22 24  1  0
 24 25  1  0
 25 26  1  0
 26 27  1  0
 26 28  1  0
 26 29  1  0
 29 30  1  0
 30 31  2  0
 31 32  1  0
 32 33  1  0
 31 34  1  0
 34 35  1  0
 34 36  1  0
 34 37  1  0
 16 38  2  0
 38 39  1  0
 39 40  2  0
  7  2  1  0
 20  4  1  0
 33 29  2  0
 40 14  1  0
M  END
$$$$
