
     RDKit          3D

 40 43  0  0  0  0  0  0  0  0999 V2000
  -17.4656  -46.0794   -7.4703 C   0  0  0  0  0  0  0  0  0  0  0  0
  -18.4773  -45.1234   -8.0024 C   0  0  0  0  0  0  0  0  0  0  0  0
  -18.1112  -44.0632   -8.7844 C   0  0  0  0  0  0  0  0  0  0  0  0
  -19.0156  -43.1055   -9.3316 C   0  0  0  0  0  0  0  0  0  0  0  0
  -20.3375  -43.2794   -9.0422 C   0  0  0  0  0  0  0  0  0  0  0  0
  -20.7335  -44.3534   -8.2455 C   0  0  0  0  0  0  0  0  0  0  0  0
  -19.7711  -45.2216   -7.7674 N   0  0  0  0  0  0  0  0  0  0  0  0
  -21.9686  -44.7357   -7.8218 O   0  0  0  0  0  0  0  0  0  0  0  0
  -22.9986  -44.4287   -7.0120 C   0  0  0  0  0  0  0  0  0  0  0  0
  -22.5778  -43.6610   -5.7827 C   0  0  0  0  0  0  0  0  0  0  0  0
  -23.4058  -42.3811   -5.6142 C   0  0  0  0  0  0  0  0  0  0  0  0
  -23.0207  -41.6703   -4.3539 C   0  0  0  0  0  0  0  0  0  0  0  0
  -22.1381  -40.6122   -4.5830 O   0  0  0  0  0  0  0  0  0  0  0  0
  -21.7519  -39.8873   -5.6995 C   0  0  0  0  0  0  0  0  0  0  0  0
  -21.1911  -40.3504   -6.8753 C   0  0  0  0  0  0  0  0  0  0  0  0
  -20.8983  -39.4250   -7.8446 C   0  0  0  0  0  0  0  0  0  0  0  0
  -20.3181  -39.5932   -9.2141 C   0  0  0  0  0  0  0  0  0  0  0  0
  -18.8374  -39.7767   -9.2021 C   0  0  2  0  0  0  0  0  0  0  0  0
  -18.3695  -40.6935  -10.2159 N   0  0  0  0  0  0  0  0  0  0  0  0
  -18.2919  -42.1027  -10.1147 C   0  0  0  0  0  0  0  0  0  0  0  0
  -17.3449  -42.5502  -10.9189 O   0  0  0  0  0  0  0  0  0  0  0  0
  -18.2201  -40.0935   -7.8614 C   0  0  2  0  0  0  0  0  0  0  0  0
  -19.0946  -39.7427   -6.8188 O   0  0  0  0  0  0  0  0  0  0  0  0
  -17.0088  -39.2044   -7.6529 C   0  0  0  0  0  0  0  0  0  0  0  0
  -16.6922  -38.3654   -8.7741 N   0  0  0  0  0  0  0  0  0  0  0  0
  -15.5901  -38.8933   -9.5587 C   0  0  0  0  0  0  0  0  0  0  0  0
  -14.4247  -39.3528   -8.7528 C   0  0  0  0  0  0  0  0  0  0  0  0
  -16.1361  -40.0828  -10.3243 C   0  0  0  0  0  0  0  0  0  0  0  0
  -15.1849  -37.8389  -10.5881 C   0  0  0  0  0  0  0  0  0  0  0  0
  -14.2571  -36.8857  -10.3343 C   0  0  0  0  0  0  0  0  0  0  0  0
  -13.9908  -36.0051  -11.3523 C   0  0  0  0  0  0  0  0  0  0  0  0
  -15.0256  -36.5376  -12.5887 S   0  0  0  0  0  0  0  0  0  0  0  0
  -15.7461  -37.8247  -11.8029 N   0  0  0  0  0  0  0  0  0  0  0  0
  -13.0074  -34.8571  -11.3282 C   0  0  0  0  0  0  0  0  0  0  0  0
  -12.3830  -34.7420  -12.6988 C   0  0  0  0  0  0  0  0  0  0  0  0
  -13.7925  -33.6155  -11.0008 C   0  0  0  0  0  0  0  0  0  0  0  0
  -11.9694  -35.1611  -10.2894 C   0  0  0  0  0  0  0  0  0  0  0  0
  -21.1689  -38.0561   -7.6168 C   0  0  0  0  0  0  0  0  0  0  0  0
  -21.7213  -37.5675   -6.4621 C   0  0  0  0  0  0  0  0  0  0  0  0
  -22.0037  -38.5182   -5.5144 C   0  0  0  0  0  0  0  0  0  0  0  0
  1  2  1  0
  2  3  2  0
  3  4  1  0
  4  5  2  0
  5  6  1  0
  6  7  2  0
  6  8  1  0
  8  9  1  0
  9 10  1  0
 10 11  1  0
 11 12  1  0
 12 13  1  0
 13 14  1  0
 14 15  2  0
 15 16  1  0
 16 17  1  0
 18 17  1  1
 18 19  1  0
 19 20  1  0
 20 21  2  0
 18 22  1  0
 22 23  1  1
 22 24  1  0
 24 25  1  0
 25 26  1  0
 26 27  1  0
 26 28  1  0
 26 29  1  0
 29 30  1  0
 30 31  2  0
 31 32  1  0
 32 33  1  0
 31 34  1  0
 34 35  1  0
 34 36  1  0
 34 37  1  0
 16 38  2  0
 38 39  1  0
 39 40  2  0
  7  2  1  0
 20  4  1  0
 33 29  2  0
 40 14  1  0
M  END
$$$$
