
     RDKit          3D

 40 43  0  0  0  0  0  0  0  0999 V2000
  -19.5234  -45.9312   -9.6221 C   0  0  0  0  0  0  0  0  0  0  0  0
  -20.0252  -44.5281   -9.6234 C   0  0  0  0  0  0  0  0  0  0  0  0
  -19.2102  -43.4820   -9.9568 C   0  0  0  0  0  0  0  0  0  0  0  0
  -19.6124  -42.1138   -9.9826 C   0  0  0  0  0  0  0  0  0  0  0  0
  -20.9090  -41.8523   -9.6480 C   0  0  0  0  0  0  0  0  0  0  0  0
  -21.7578  -42.9039   -9.3035 C   0  0  0  0  0  0  0  0  0  0  0  0
  -21.2619  -44.1933   -9.3116 N   0  0  0  0  0  0  0  0  0  0  0  0
  -23.0683  -42.9028   -8.9379 O   0  0  0  0  0  0  0  0  0  0  0  0
  -23.9407  -42.5692   -7.9691 C   0  0  0  0  0  0  0  0  0  0  0  0
  -23.3324  -42.5968   -6.5883 C   0  0  0  0  0  0  0  0  0  0  0  0
  -23.5844  -41.2811   -5.8416 C   0  0  0  0  0  0  0  0  0  0  0  0
  -23.0337  -41.3541   -4.4512 C   0  0  0  0  0  0  0  0  0  0  0  0
  -21.7863  -40.7364   -4.3352 O   0  0  0  0  0  0  0  0  0  0  0  0
  -21.0649  -39.8402   -5.1084 C   0  0  0  0  0  0  0  0  0  0  0  0
  -20.6584  -39.9701   -6.4234 C   0  0  0  0  0  0  0  0  0  0  0  0
  -19.9517  -38.9309   -6.9732 C   0  0  0  0  0  0  0  0  0  0  0  0
  -19.3953  -38.7469   -8.3506 C   0  0  0  0  0  0  0  0  0  0  0  0
  -18.1184  -39.4876   -8.5680 C   0  0  2  0  0  0  0  0  0  0  0  0
  -17.9905  -40.0208   -9.9046 N   0  0  0  0  0  0  0  0  0  0  0  0
  -18.4940  -41.2558  -10.3772 C   0  0  0  0  0  0  0  0  0  0  0  0
  -17.7543  -41.6749  -11.3877 O   0  0  0  0  0  0  0  0  0  0  0  0
  -17.7751  -40.5331   -7.5347 C   0  0  2  0  0  0  0  0  0  0  0  0
  -17.9937  -40.0377   -6.2379 O   0  0  0  0  0  0  0  0  0  0  0  0
  -16.2841  -40.8082   -7.5869 C   0  0  0  0  0  0  0  0  0  0  0  0
  -15.4646  -39.6301   -7.5453 N   0  0  0  0  0  0  0  0  0  0  0  0
  -14.6135  -39.5139   -8.7161 C   0  0  0  0  0  0  0  0  0  0  0  0
  -13.4243  -38.6367   -8.5287 C   0  0  0  0  0  0  0  0  0  0  0  0
  -14.1251  -40.9135   -9.0354 C   0  0  0  0  0  0  0  0  0  0  0  0
  -15.4745  -39.0550   -9.8925 C   0  0  0  0  0  0  0  0  0  0  0  0
  -15.1423  -38.0023  -10.6768 C   0  0  0  0  0  0  0  0  0  0  0  0
  -16.0080  -37.7039  -11.6987 C   0  0  0  0  0  0  0  0  0  0  0  0
  -17.2184  -38.8812  -11.5202 S   0  0  0  0  0  0  0  0  0  0  0  0
  -16.6105  -39.6953  -10.1932 N   0  0  0  0  0  0  0  0  0  0  0  0
  -15.8722  -36.5877  -12.7092 C   0  0  0  0  0  0  0  0  0  0  0  0
  -14.4675  -36.6217  -13.2637 C   0  0  0  0  0  0  0  0  0  0  0  0
  -16.8751  -36.8592  -13.7982 C   0  0  0  0  0  0  0  0  0  0  0  0
  -16.1394  -35.2918  -12.0035 C   0  0  0  0  0  0  0  0  0  0  0  0
  -19.6632  -37.7856   -6.1960 C   0  0  0  0  0  0  0  0  0  0  0  0
  -20.0503  -37.6295   -4.8910 C   0  0  0  0  0  0  0  0  0  0  0  0
  -20.7563  -38.6850   -4.3720 C   0  0  0  0  0  0  0  0  0  0  0  0
  1  2  1  0
  2  3  2  0
  3  4  1  0
  4  5  2  0
  5  6  1  0
  6  7  2  0
  6  8  1  0
  8  9  1  0
  9 10  1  0
 10 11  1  0
 11 12  1  0
 12 13  1  0
 13 14  1  0
 14 15  2  0
 15 16  1  0
 16 17  1  0
 18 17  1  1
 18 19  1  0
 19 20  1  0
 20 21  2  0
 18 22  1  0
 22 23  1  1
 22 24  1  0
 24 25  1  0
 25 26  1  0
 26 27  1  0
 26 28  1  0
 26 29  1  0
 29 30  1  0
 30 31  2  0
 31 32  1  0
 32 33  1  0
 31 34  1  0
 34 35  1  0
 34 36  1  0
 34 37  1  0
 16 38  2  0
 38 39  1  0
 39 40  2  0
  7  2  1  0
 20  4  1  0
 33 29  2  0
 40 14  1  0
M  END
$$$$
