
     RDKit          3D

 40 43  0  0  0  0  0  0  0  0999 V2000
  -20.6771  -38.7195  -13.1706 C   0  0  0  0  0  0  0  0  0  0  0  0
  -19.6136  -39.5752  -12.5727 C   0  0  0  0  0  0  0  0  0  0  0  0
  -19.7829  -40.1720  -11.3542 C   0  0  0  0  0  0  0  0  0  0  0  0
  -18.8164  -41.0034  -10.7145 C   0  0  0  0  0  0  0  0  0  0  0  0
  -17.6457  -41.2057  -11.3852 C   0  0  0  0  0  0  0  0  0  0  0  0
  -17.4511  -40.6059  -12.6292 C   0  0  0  0  0  0  0  0  0  0  0  0
  -18.4562  -39.8181  -13.1560 N   0  0  0  0  0  0  0  0  0  0  0  0
  -16.3906  -40.6524  -13.4803 O   0  0  0  0  0  0  0  0  0  0  0  0
  -15.1172  -40.2631  -13.6749 C   0  0  0  0  0  0  0  0  0  0  0  0
  -14.7832  -38.9625  -12.9861 C   0  0  0  0  0  0  0  0  0  0  0  0
  -13.5243  -39.0972  -12.1207 C   0  0  0  0  0  0  0  0  0  0  0  0
  -13.1709  -37.7805  -11.5015 C   0  0  0  0  0  0  0  0  0  0  0  0
  -13.6050  -37.6763  -10.1780 O   0  0  0  0  0  0  0  0  0  0  0  0
  -14.0296  -38.5793   -9.2159 C   0  0  0  0  0  0  0  0  0  0  0  0
  -15.0776  -39.4785   -9.2816 C   0  0  0  0  0  0  0  0  0  0  0  0
  -15.2966  -40.2767   -8.1877 C   0  0  0  0  0  0  0  0  0  0  0  0
  -16.3127  -41.3492   -7.9471 C   0  0  0  0  0  0  0  0  0  0  0  0
  -17.6578  -40.8095   -7.5921 C   0  0  2  0  0  0  0  0  0  0  0  0
  -18.7454  -41.5919   -8.1327 N   0  0  0  0  0  0  0  0  0  0  0  0
  -19.3167  -41.4736   -9.4217 C   0  0  0  0  0  0  0  0  0  0  0  0
  -20.5702  -41.8878   -9.3873 O   0  0  0  0  0  0  0  0  0  0  0  0
  -17.8705  -39.3378   -7.8514 C   0  0  2  0  0  0  0  0  0  0  0  0
  -16.7134  -38.6069   -7.5327 O   0  0  0  0  0  0  0  0  0  0  0  0
  -18.9232  -38.8144   -6.8926 C   0  0  0  0  0  0  0  0  0  0  0  0
  -20.2459  -39.3165   -7.1366 N   0  0  0  0  0  0  0  0  0  0  0  0
  -20.9695  -39.5738   -5.9041 C   0  0  0  0  0  0  0  0  0  0  0  0
  -20.4190  -38.8755   -4.7092 C   0  0  0  0  0  0  0  0  0  0  0  0
  -22.3880  -39.0865   -6.1267 C   0  0  0  0  0  0  0  0  0  0  0  0
  -21.0375  -41.0860   -5.6935 C   0  0  0  0  0  0  0  0  0  0  0  0
  -21.1931  -41.9617   -6.7146 C   0  0  0  0  0  0  0  0  0  0  0  0
  -21.2355  -43.2914   -6.3788 C   0  0  0  0  0  0  0  0  0  0  0  0
  -21.0602  -43.2571   -4.6902 S   0  0  0  0  0  0  0  0  0  0  0  0
  -20.9414  -41.6055   -4.4639 N   0  0  0  0  0  0  0  0  0  0  0  0
  -21.4008  -44.4626   -7.3203 C   0  0  0  0  0  0  0  0  0  0  0  0
  -22.3845  -45.4286   -6.7032 C   0  0  0  0  0  0  0  0  0  0  0  0
  -21.9426  -43.9122   -8.6121 C   0  0  0  0  0  0  0  0  0  0  0  0
  -20.0573  -45.1048   -7.4976 C   0  0  0  0  0  0  0  0  0  0  0  0
  -14.4656  -40.1568   -7.0501 C   0  0  0  0  0  0  0  0  0  0  0  0
  -13.4221  -39.2742   -6.9549 C   0  0  0  0  0  0  0  0  0  0  0  0
  -13.2288  -38.4925   -8.0654 C   0  0  0  0  0  0  0  0  0  0  0  0
  1  2  1  0
  2  3  2  0
  3  4  1  0
  4  5  2  0
  5  6  1  0
  6  7  2  0
  6  8  1  0
  8  9  1  0
  9 10  1  0
 10 11  1  0
 11 12  1  0
 12 13  1  0
 13 14  1  0
 14 15  2  0
 15 16  1  0
 16 17  1  0
 18 17  1  6
 18 19  1  0
 19 20  1  0
 20 21  2  0
 18 22  1  0
 22 23  1  1
 22 24  1  0
 24 25  1  0
 25 26  1  0
 26 27  1  0
 26 28  1  0
 26 29  1  0
 29 30  1  0
 30 31  2  0
 31 32  1  0
 32 33  1  0
 31 34  1  0
 34 35  1  0
 34 36  1  0
 34 37  1  0
 16 38  2  0
 38 39  1  0
 39 40  2  0
  7  2  1  0
 20  4  1  0
 33 29  2  0
 40 14  1  0
M  END
$$$$
