
     RDKit          3D

 40 43  0  0  0  0  0  0  0  0999 V2000
  -16.2230  -45.1072   -6.0992 C   0  0  0  0  0  0  0  0  0  0  0  0
  -17.2124  -44.4577   -7.0045 C   0  0  0  0  0  0  0  0  0  0  0  0
  -16.8403  -43.4670   -7.8705 C   0  0  0  0  0  0  0  0  0  0  0  0
  -17.7237  -42.7965   -8.7674 C   0  0  0  0  0  0  0  0  0  0  0  0
  -19.0303  -43.1884   -8.7441 C   0  0  0  0  0  0  0  0  0  0  0  0
  -19.4324  -44.1964   -7.8680 C   0  0  0  0  0  0  0  0  0  0  0  0
  -18.4909  -44.7783   -7.0413 N   0  0  0  0  0  0  0  0  0  0  0  0
  -20.6557  -44.7541   -7.6588 O   0  0  0  0  0  0  0  0  0  0  0  0
  -21.8892  -44.5479   -7.1620 C   0  0  0  0  0  0  0  0  0  0  0  0
  -21.9141  -43.5458   -6.0338 C   0  0  0  0  0  0  0  0  0  0  0  0
  -22.9529  -42.4464   -6.2873 C   0  0  0  0  0  0  0  0  0  0  0  0
  -23.0104  -41.5023   -5.1267 C   0  0  0  0  0  0  0  0  0  0  0  0
  -22.2808  -40.3323   -5.3502 O   0  0  0  0  0  0  0  0  0  0  0  0
  -21.7530  -39.7100   -6.4707 C   0  0  0  0  0  0  0  0  0  0  0  0
  -20.8524  -40.2130   -7.3912 C   0  0  0  0  0  0  0  0  0  0  0  0
  -20.4824  -39.3942   -8.4276 C   0  0  0  0  0  0  0  0  0  0  0  0
  -19.5629  -39.6347   -9.5840 C   0  0  0  0  0  0  0  0  0  0  0  0
  -18.1214  -39.5150   -9.2180 C   0  0  2  0  0  0  0  0  0  0  0  0
  -17.2765  -40.4536   -9.9197 N   0  0  0  0  0  0  0  0  0  0  0  0
  -17.0004  -41.7901   -9.5462 C   0  0  0  0  0  0  0  0  0  0  0  0
  -15.8249  -42.1484  -10.0298 O   0  0  0  0  0  0  0  0  0  0  0  0
  -17.8113  -39.5094   -7.7407 C   0  0  2  0  0  0  0  0  0  0  0  0
  -18.8744  -38.9466   -7.0141 O   0  0  0  0  0  0  0  0  0  0  0  0
  -16.6435  -38.5758   -7.4847 C   0  0  0  0  0  0  0  0  0  0  0  0
  -15.3893  -39.0428   -8.0043 N   0  0  0  0  0  0  0  0  0  0  0  0
  -14.6780  -38.0062   -8.7312 C   0  0  0  0  0  0  0  0  0  0  0  0
  -14.8172  -36.6412   -8.1517 C   0  0  0  0  0  0  0  0  0  0  0  0
  -13.2106  -38.3871   -8.7009 C   0  0  0  0  0  0  0  0  0  0  0  0
  -15.1273  -38.0488  -10.1914 C   0  0  0  0  0  0  0  0  0  0  0  0
  -14.9343  -37.0176  -11.0477 C   0  0  0  0  0  0  0  0  0  0  0  0
  -15.3874  -37.1952  -12.3306 C   0  0  0  0  0  0  0  0  0  0  0  0
  -16.0470  -38.7590  -12.2820 S   0  0  0  0  0  0  0  0  0  0  0  0
  -15.7387  -39.1331  -10.6826 N   0  0  0  0  0  0  0  0  0  0  0  0
  -15.2978  -36.2077  -13.4718 C   0  0  0  0  0  0  0  0  0  0  0  0
  -15.8353  -36.8746  -14.7160 C   0  0  0  0  0  0  0  0  0  0  0  0
  -16.1519  -35.0267  -13.0963 C   0  0  0  0  0  0  0  0  0  0  0  0
  -13.8563  -35.8321  -13.6444 C   0  0  0  0  0  0  0  0  0  0  0  0
  -21.0177  -38.0888   -8.5201 C   0  0  0  0  0  0  0  0  0  0  0  0
  -21.9091  -37.5623   -7.6227 C   0  0  0  0  0  0  0  0  0  0  0  0
  -22.2598  -38.4067   -6.6000 C   0  0  0  0  0  0  0  0  0  0  0  0
  1  2  1  0
  2  3  2  0
  3  4  1  0
  4  5  2  0
  5  6  1  0
  6  7  2  0
  6  8  1  0
  8  9  1  0
  9 10  1  0
 10 11  1  0
 11 12  1  0
 12 13  1  0
 13 14  1  0
 14 15  2  0
 15 16  1  0
 16 17  1  0
 18 17  1  1
 18 19  1  0
 19 20  1  0
 20 21  2  0
 18 22  1  0
 22 23  1  1
 22 24  1  0
 24 25  1  0
 25 26  1  0
 26 27  1  0
 26 28  1  0
 26 29  1  0
 29 30  1  0
 30 31  2  0
 31 32  1  0
 32 33  1  0
 31 34  1  0
 34 35  1  0
 34 36  1  0
 34 37  1  0
 16 38  2  0
 38 39  1  0
 39 40  2  0
  7  2  1  0
 20  4  1  0
 33 29  2  0
 40 14  1  0
M  END
$$$$
