
     RDKit          3D

 40 43  0  0  0  0  0  0  0  0999 V2000
  -17.1743  -45.5823   -7.3186 C   0  0  0  0  0  0  0  0  0  0  0  0
  -18.5011  -44.9897   -7.6485 C   0  0  0  0  0  0  0  0  0  0  0  0
  -18.8591  -44.7234   -8.9410 C   0  0  0  0  0  0  0  0  0  0  0  0
  -20.1067  -44.1584   -9.3395 C   0  0  0  0  0  0  0  0  0  0  0  0
  -20.9930  -43.8715   -8.3427 C   0  0  0  0  0  0  0  0  0  0  0  0
  -20.6484  -44.1338   -7.0170 C   0  0  0  0  0  0  0  0  0  0  0  0
  -19.4105  -44.6833   -6.7442 N   0  0  0  0  0  0  0  0  0  0  0  0
  -21.3450  -43.9404   -5.8644 O   0  0  0  0  0  0  0  0  0  0  0  0
  -21.8271  -43.0183   -5.0110 C   0  0  0  0  0  0  0  0  0  0  0  0
  -21.0077  -41.7513   -4.9821 C   0  0  0  0  0  0  0  0  0  0  0  0
  -21.8872  -40.5135   -5.1968 C   0  0  0  0  0  0  0  0  0  0  0  0
  -21.0674  -39.2646   -5.0962 C   0  0  0  0  0  0  0  0  0  0  0  0
  -20.7102  -38.7551   -6.3467 O   0  0  0  0  0  0  0  0  0  0  0  0
  -21.1524  -38.9554   -7.6451 C   0  0  0  0  0  0  0  0  0  0  0  0
  -21.2117  -40.1358   -8.3622 C   0  0  0  0  0  0  0  0  0  0  0  0
  -21.6980  -40.0746   -9.6434 C   0  0  0  0  0  0  0  0  0  0  0  0
  -21.9115  -41.1513  -10.6611 C   0  0  0  0  0  0  0  0  0  0  0  0
  -20.6540  -41.5565  -11.3545 C   0  0  2  0  0  0  0  0  0  0  0  0
  -20.5995  -42.9688  -11.6545 N   0  0  0  0  0  0  0  0  0  0  0  0
  -20.1601  -44.0025  -10.7940 C   0  0  0  0  0  0  0  0  0  0  0  0
  -19.7107  -45.0137  -11.5146 O   0  0  0  0  0  0  0  0  0  0  0  0
  -19.3670  -41.0897  -10.7187 C   0  0  2  0  0  0  0  0  0  0  0  0
  -19.2252  -39.6980  -10.8528 O   0  0  0  0  0  0  0  0  0  0  0  0
  -18.1964  -41.6644  -11.4936 C   0  0  0  0  0  0  0  0  0  0  0  0
  -17.0517  -41.9796  -10.6864 N   0  0  0  0  0  0  0  0  0  0  0  0
  -16.6149  -40.8464   -9.8901 C   0  0  0  0  0  0  0  0  0  0  0  0
  -17.6065  -40.3853   -8.8787 C   0  0  0  0  0  0  0  0  0  0  0  0
  -15.3627  -41.2898   -9.1589 C   0  0  0  0  0  0  0  0  0  0  0  0
  -16.2103  -39.7193  -10.8396 C   0  0  0  0  0  0  0  0  0  0  0  0
  -16.3594  -38.4099  -10.5281 C   0  0  0  0  0  0  0  0  0  0  0  0
  -15.9512  -37.5056  -11.4759 C   0  0  0  0  0  0  0  0  0  0  0  0
  -15.3909  -38.5041  -12.7298 S   0  0  0  0  0  0  0  0  0  0  0  0
  -15.6815  -39.9971  -12.0372 N   0  0  0  0  0  0  0  0  0  0  0  0
  -16.0087  -35.9980  -11.3792 C   0  0  0  0  0  0  0  0  0  0  0  0
  -17.4502  -35.5927  -11.1809 C   0  0  0  0  0  0  0  0  0  0  0  0
  -15.1817  -35.6046  -10.1848 C   0  0  0  0  0  0  0  0  0  0  0  0
  -15.4632  -35.4329  -12.6566 C   0  0  0  0  0  0  0  0  0  0  0  0
  -22.1113  -38.8343  -10.1818 C   0  0  0  0  0  0  0  0  0  0  0  0
  -22.0622  -37.6488   -9.4968 C   0  0  0  0  0  0  0  0  0  0  0  0
  -21.5731  -37.7446   -8.2188 C   0  0  0  0  0  0  0  0  0  0  0  0
  1  2  1  0
  2  3  2  0
  3  4  1  0
  4  5  2  0
  5  6  1  0
  6  7  2  0
  6  8  1  0
  8  9  1  0
  9 10  1  0
 10 11  1  0
 11 12  1  0
 12 13  1  0
 13 14  1  0
 14 15  2  0
 15 16  1  0
 16 17  1  0
 18 17  1  1
 18 19  1  0
 19 20  1  0
 20 21  2  0
 18 22  1  0
 22 23  1  6
 22 24  1  0
 24 25  1  0
 25 26  1  0
 26 27  1  0
 26 28  1  0
 26 29  1  0
 29 30  1  0
 30 31  2  0
 31 32  1  0
 32 33  1  0
 31 34  1  0
 34 35  1  0
 34 36  1  0
 34 37  1  0
 16 38  2  0
 38 39  1  0
 39 40  2  0
  7  2  1  0
 20  4  1  0
 33 29  2  0
 40 14  1  0
M  END
$$$$
