
     RDKit          3D

 40 43  0  0  0  0  0  0  0  0999 V2000
  -17.1475  -45.1208   -6.4456 C   0  0  0  0  0  0  0  0  0  0  0  0
  -18.1582  -44.3643   -7.2373 C   0  0  0  0  0  0  0  0  0  0  0  0
  -17.7884  -43.5642   -8.2827 C   0  0  0  0  0  0  0  0  0  0  0  0
  -18.6916  -42.8092   -9.0882 C   0  0  0  0  0  0  0  0  0  0  0  0
  -20.0161  -42.9079   -8.7764 C   0  0  0  0  0  0  0  0  0  0  0  0
  -20.4159  -43.7174   -7.7134 C   0  0  0  0  0  0  0  0  0  0  0  0
  -19.4544  -44.4055   -6.9988 N   0  0  0  0  0  0  0  0  0  0  0  0
  -21.6541  -43.9772   -7.2130 O   0  0  0  0  0  0  0  0  0  0  0  0
  -22.6972  -43.4648   -6.5345 C   0  0  0  0  0  0  0  0  0  0  0  0
  -22.2984  -42.3771   -5.5673 C   0  0  0  0  0  0  0  0  0  0  0  0
  -23.1371  -41.1102   -5.7763 C   0  0  0  0  0  0  0  0  0  0  0  0
  -22.7740  -40.0687   -4.7637 C   0  0  0  0  0  0  0  0  0  0  0  0
  -21.8955  -39.1093   -5.2722 O   0  0  0  0  0  0  0  0  0  0  0  0
  -21.4988  -38.7250   -6.5436 C   0  0  0  0  0  0  0  0  0  0  0  0
  -20.9189  -39.4953   -7.5343 C   0  0  0  0  0  0  0  0  0  0  0  0
  -20.6190  -38.8782   -8.7221 C   0  0  0  0  0  0  0  0  0  0  0  0
  -20.0189  -39.4201   -9.9818 C   0  0  0  0  0  0  0  0  0  0  0  0
  -18.5373  -39.5775   -9.9017 C   0  0  2  0  0  0  0  0  0  0  0  0
  -18.0494  -40.7383  -10.6101 N   0  0  0  0  0  0  0  0  0  0  0  0
  -17.9638  -42.0608  -10.1143 C   0  0  0  0  0  0  0  0  0  0  0  0
  -17.0029  -42.7073  -10.7487 O   0  0  0  0  0  0  0  0  0  0  0  0
  -17.9364  -39.4967   -8.5193 C   0  0  2  0  0  0  0  0  0  0  0  0
  -18.6136  -38.5431   -7.7404 O   0  0  0  0  0  0  0  0  0  0  0  0
  -16.5215  -38.9603   -8.6264 C   0  0  0  0  0  0  0  0  0  0  0  0
  -15.5289  -39.9624   -8.8943 N   0  0  0  0  0  0  0  0  0  0  0  0
  -15.2872  -40.1268  -10.3168 C   0  0  0  0  0  0  0  0  0  0  0  0
  -14.2305  -41.1218  -10.6512 C   0  0  0  0  0  0  0  0  0  0  0  0
  -16.5935  -40.5994  -10.9247 C   0  0  0  0  0  0  0  0  0  0  0  0
  -14.9800  -38.7539  -10.9138 C   0  0  0  0  0  0  0  0  0  0  0  0
  -13.8559  -38.0601  -10.6154 C   0  0  0  0  0  0  0  0  0  0  0  0
  -13.7097  -36.8405  -11.2269 C   0  0  0  0  0  0  0  0  0  0  0  0
  -15.1175  -36.7224  -12.1689 S   0  0  0  0  0  0  0  0  0  0  0  0
  -15.8314  -38.1806  -11.7724 N   0  0  0  0  0  0  0  0  0  0  0  0
  -12.5577  -35.8748  -11.0666 C   0  0  0  0  0  0  0  0  0  0  0  0
  -13.1263  -34.5070  -10.7710 C   0  0  0  0  0  0  0  0  0  0  0  0
  -11.7343  -36.3651   -9.9060 C   0  0  0  0  0  0  0  0  0  0  0  0
  -11.7805  -35.8673  -12.3491 C   0  0  0  0  0  0  0  0  0  0  0  0
  -20.9018  -37.5035   -8.8931 C   0  0  0  0  0  0  0  0  0  0  0  0
  -21.4731  -36.7146   -7.9296 C   0  0  0  0  0  0  0  0  0  0  0  0
  -21.7622  -37.3619   -6.7553 C   0  0  0  0  0  0  0  0  0  0  0  0
  1  2  1  0
  2  3  2  0
  3  4  1  0
  4  5  2  0
  5  6  1  0
  6  7  2  0
  6  8  1  0
  8  9  1  0
  9 10  1  0
 10 11  1  0
 11 12  1  0
 12 13  1  0
 13 14  1  0
 14 15  2  0
 15 16  1  0
 16 17  1  0
 18 17  1  1
 18 19  1  0
 19 20  1  0
 20 21  2  0
 18 22  1  0
 22 23  1  1
 22 24  1  0
 24 25  1  0
 25 26  1  0
 26 27  1  0
 26 28  1  0
 26 29  1  0
 29 30  1  0
 30 31  2  0
 31 32  1  0
 32 33  1  0
 31 34  1  0
 34 35  1  0
 34 36  1  0
 34 37  1  0
 16 38  2  0
 38 39  1  0
 39 40  2  0
  7  2  1  0
 20  4  1  0
 33 29  2  0
 40 14  1  0
M  END
$$$$
