
     RDKit          3D

 40 43  0  0  0  0  0  0  0  0999 V2000
  -19.8081  -43.1461  -11.1234 C   0  0  0  0  0  0  0  0  0  0  0  0
  -18.5021  -42.9298  -10.4391 C   0  0  0  0  0  0  0  0  0  0  0  0
  -18.4088  -42.1607   -9.3124 C   0  0  0  0  0  0  0  0  0  0  0  0
  -17.1999  -41.9053   -8.5998 C   0  0  0  0  0  0  0  0  0  0  0  0
  -16.0663  -42.4808   -9.0949 C   0  0  0  0  0  0  0  0  0  0  0  0
  -16.1379  -43.2684  -10.2437 C   0  0  0  0  0  0  0  0  0  0  0  0
  -17.3636  -43.4492  -10.8549 N   0  0  0  0  0  0  0  0  0  0  0  0
  -15.1672  -43.9383  -10.9220 O   0  0  0  0  0  0  0  0  0  0  0  0
  -14.0837  -43.8071  -11.7092 C   0  0  0  0  0  0  0  0  0  0  0  0
  -14.1128  -42.5570  -12.5543 C   0  0  0  0  0  0  0  0  0  0  0  0
  -12.8202  -41.7469  -12.3960 C   0  0  0  0  0  0  0  0  0  0  0  0
  -12.8400  -40.5484  -13.2933 C   0  0  0  0  0  0  0  0  0  0  0  0
  -13.2024  -39.3798  -12.6195 O   0  0  0  0  0  0  0  0  0  0  0  0
  -13.2763  -39.0038  -11.2874 C   0  0  0  0  0  0  0  0  0  0  0  0
  -14.0087  -39.5838  -10.2683 C   0  0  0  0  0  0  0  0  0  0  0  0
  -13.9100  -39.0239   -9.0199 C   0  0  0  0  0  0  0  0  0  0  0  0
  -14.5411  -39.4146   -7.7200 C   0  0  0  0  0  0  0  0  0  0  0  0
  -15.9613  -38.9720   -7.6044 C   0  0  2  0  0  0  0  0  0  0  0  0
  -16.7958  -39.9161   -6.8978 N   0  0  0  0  0  0  0  0  0  0  0  0
  -17.4551  -41.0417   -7.4458 C   0  0  0  0  0  0  0  0  0  0  0  0
  -18.5221  -41.3232   -6.7205 O   0  0  0  0  0  0  0  0  0  0  0  0
  -16.6210  -38.5216   -8.8853 C   0  0  2  0  0  0  0  0  0  0  0  0
  -15.8624  -37.5139   -9.5048 O   0  0  0  0  0  0  0  0  0  0  0  0
  -17.9397  -37.8498   -8.5520 C   0  0  0  0  0  0  0  0  0  0  0  0
  -18.7493  -38.5724   -7.6120 N   0  0  0  0  0  0  0  0  0  0  0  0
  -20.1617  -38.5092   -7.9441 C   0  0  0  0  0  0  0  0  0  0  0  0
  -20.9342  -37.5049   -7.1610 C   0  0  0  0  0  0  0  0  0  0  0  0
  -20.2439  -38.1326   -9.4105 C   0  0  0  0  0  0  0  0  0  0  0  0
  -20.7518  -39.9118   -7.8025 C   0  0  0  0  0  0  0  0  0  0  0  0
  -21.5900  -40.2559   -6.7961 C   0  0  0  0  0  0  0  0  0  0  0  0
  -22.0449  -41.5504   -6.7947 C   0  0  0  0  0  0  0  0  0  0  0  0
  -21.2975  -42.2117   -8.1684 S   0  0  0  0  0  0  0  0  0  0  0  0
  -20.4534  -40.8671   -8.6909 N   0  0  0  0  0  0  0  0  0  0  0  0
  -22.9814  -42.1844   -5.7915 C   0  0  0  0  0  0  0  0  0  0  0  0
  -22.1525  -42.9728   -4.8051 C   0  0  0  0  0  0  0  0  0  0  0  0
  -23.7019  -41.0613   -5.0952 C   0  0  0  0  0  0  0  0  0  0  0  0
  -23.9210  -43.0815   -6.5408 C   0  0  0  0  0  0  0  0  0  0  0  0
  -13.0843  -37.8942   -8.8174 C   0  0  0  0  0  0  0  0  0  0  0  0
  -12.3495  -37.2967   -9.8073 C   0  0  0  0  0  0  0  0  0  0  0  0
  -12.4686  -37.8813  -11.0425 C   0  0  0  0  0  0  0  0  0  0  0  0
  1  2  1  0
  2  3  2  0
  3  4  1  0
  4  5  2  0
  5  6  1  0
  6  7  2  0
  6  8  1  0
  8  9  1  0
  9 10  1  0
 10 11  1  0
 11 12  1  0
 12 13  1  0
 13 14  1  0
 14 15  2  0
 15 16  1  0
 16 17  1  0
 18 17  1  6
 18 19  1  0
 19 20  1  0
 20 21  2  0
 18 22  1  0
 22 23  1  1
 22 24  1  0
 24 25  1  0
 25 26  1  0
 26 27  1  0
 26 28  1  0
 26 29  1  0
 29 30  1  0
 30 31  2  0
 31 32  1  0
 32 33  1  0
 31 34  1  0
 34 35  1  0
 34 36  1  0
 34 37  1  0
 16 38  2  0
 38 39  1  0
 39 40  2  0
  7  2  1  0
 20  4  1  0
 33 29  2  0
 40 14  1  0
M  END
$$$$
