
     RDKit          3D

 28 30  0  0  0  0  0  0  0  0999 V2000
  -17.6855  -36.3159   -7.7984 N   0  0  0  0  0  0  0  0  0  0  0  0
  -16.8390  -37.3589   -7.2471 C   0  0  0  0  0  0  0  0  0  0  0  0
  -17.5687  -38.7046   -7.4173 C   0  0  1  0  0  0  0  0  0  0  0  0
  -17.7612  -39.2334   -6.1129 O   0  0  0  0  0  0  0  0  0  0  0  0
  -18.9128  -38.4291   -8.0041 C   0  0  2  0  0  0  0  0  0  0  0  0
  -20.0864  -38.8917   -7.1987 C   0  0  0  0  0  0  0  0  0  0  0  0
  -20.6179  -40.2465   -7.5951 C   0  0  0  0  0  0  0  0  0  0  0  0
  -21.7794  -40.0968   -8.3802 C   0  0  0  0  0  0  0  0  0  0  0  0
  -22.5223  -41.1477   -8.8572 C   0  0  0  0  0  0  0  0  0  0  0  0
  -22.0381  -42.3782   -8.5029 C   0  0  0  0  0  0  0  0  0  0  0  0
  -20.8868  -42.5941   -7.7240 C   0  0  0  0  0  0  0  0  0  0  0  0
  -20.1673  -41.4871   -7.2655 C   0  0  0  0  0  0  0  0  0  0  0  0
  -20.6243  -43.9240   -7.5108 O   0  0  0  0  0  0  0  0  0  0  0  0
  -19.7032  -44.9117   -7.6230 C   0  0  0  0  0  0  0  0  0  0  0  0
  -19.1311  -45.0897   -9.0092 C   0  0  0  0  0  0  0  0  0  0  0  0
  -18.0361  -45.0411   -9.6353 C   0  0  0  0  0  0  0  0  0  0  0  0
  -16.5734  -44.7815   -9.4754 C   0  0  0  0  0  0  0  0  0  0  0  0
  -16.1107  -43.8043  -10.4322 N   0  0  0  0  0  0  0  0  0  0  0  0
  -16.3269  -42.3912  -10.5339 C   0  0  0  0  0  0  0  0  0  0  0  0
  -17.4110  -41.5795  -10.2928 C   0  0  0  0  0  0  0  0  0  0  0  0
  -17.2386  -40.2228  -10.5302 C   0  0  0  0  0  0  0  0  0  0  0  0
  -15.9813  -39.7526  -11.0009 C   0  0  0  0  0  0  0  0  0  0  0  0
  -14.9107  -40.5768  -11.2364 C   0  0  0  0  0  0  0  0  0  0  0  0
  -13.3737  -39.9555  -11.8165 Cl  0  0  0  0  0  0  0  0  0  0  0  0
  -15.1233  -41.8497  -10.9952 N   0  0  0  0  0  0  0  0  0  0  0  0
  -18.1482  -39.0781  -10.3849 C   0  0  0  0  0  0  0  0  0  0  0  0
  -18.1081  -38.2222  -11.3944 O   0  0  0  0  0  0  0  0  0  0  0  0
  -19.0634  -38.6722   -9.4091 N   0  0  0  0  0  0  0  0  0  0  0  0
  1  2  1  0
  2  3  1  0
  3  4  1  1
  3  5  1  0
  5  6  1  1
  6  7  1  0
  7  8  1  0
  8  9  2  0
  9 10  1  0
 10 11  2  0
 11 12  1  0
 11 13  1  0
 13 14  1  0
 14 15  1  0
 15 16  2  0
 16 17  1  0
 17 18  1  0
 18 19  1  0
 19 20  1  0
 20 21  2  0
 21 22  1  0
 22 23  2  0
 23 24  1  0
 23 25  1  0
 21 26  1  0
 26 27  2  0
 26 28  1  0
 12  7  2  0
 25 19  2  0
 28  5  1  0
M  END
$$$$
