
     RDKit          3D

 28 30  0  0  0  0  0  0  0  0999 V2000
  -15.9085  -41.1057   -5.6043 N   0  0  0  0  0  0  0  0  0  0  0  0
  -16.9608  -40.1192   -5.7707 C   0  0  0  0  0  0  0  0  0  0  0  0
  -16.6137  -39.2544   -6.9972 C   0  0  1  0  0  0  0  0  0  0  0  0
  -15.5766  -38.3710   -6.5944 O   0  0  0  0  0  0  0  0  0  0  0  0
  -16.0664  -40.1533   -8.0550 C   0  0  2  0  0  0  0  0  0  0  0  0
  -14.7841  -39.7134   -8.6892 C   0  0  0  0  0  0  0  0  0  0  0  0
  -14.9577  -38.9442   -9.9751 C   0  0  0  0  0  0  0  0  0  0  0  0
  -14.6986  -39.7846  -11.0771 C   0  0  0  0  0  0  0  0  0  0  0  0
  -14.7292  -39.3657  -12.3838 C   0  0  0  0  0  0  0  0  0  0  0  0
  -15.0362  -38.0403  -12.5367 C   0  0  0  0  0  0  0  0  0  0  0  0
  -15.3051  -37.1514  -11.4801 C   0  0  0  0  0  0  0  0  0  0  0  0
  -15.2614  -37.6323  -10.1686 C   0  0  0  0  0  0  0  0  0  0  0  0
  -15.5804  -35.8768  -11.9075 O   0  0  0  0  0  0  0  0  0  0  0  0
  -16.4699  -34.8551  -11.8707 C   0  0  0  0  0  0  0  0  0  0  0  0
  -17.8757  -35.2243  -12.2801 C   0  0  0  0  0  0  0  0  0  0  0  0
  -19.0547  -35.2579  -11.8302 C   0  0  0  0  0  0  0  0  0  0  0  0
  -19.8858  -34.9748  -10.6212 C   0  0  0  0  0  0  0  0  0  0  0  0
  -20.6968  -36.1160  -10.2685 N   0  0  0  0  0  0  0  0  0  0  0  0
  -20.3583  -37.3913   -9.7087 C   0  0  0  0  0  0  0  0  0  0  0  0
  -19.2994  -38.2515   -9.8850 C   0  0  0  0  0  0  0  0  0  0  0  0
  -19.3317  -39.4356   -9.1613 C   0  0  0  0  0  0  0  0  0  0  0  0
  -20.4317  -39.6938   -8.2972 C   0  0  0  0  0  0  0  0  0  0  0  0
  -21.4797  -38.8243   -8.1341 C   0  0  0  0  0  0  0  0  0  0  0  0
  -22.8191  -39.1805   -7.0552 Cl  0  0  0  0  0  0  0  0  0  0  0  0
  -21.4019  -37.7189   -8.8380 N   0  0  0  0  0  0  0  0  0  0  0  0
  -18.3971  -40.5671   -9.0895 C   0  0  0  0  0  0  0  0  0  0  0  0
  -18.9813  -41.7551   -9.1141 O   0  0  0  0  0  0  0  0  0  0  0  0
  -17.0071  -40.6849   -8.9974 N   0  0  0  0  0  0  0  0  0  0  0  0
  1  2  1  0
  2  3  1  0
  3  4  1  1
  3  5  1  0
  5  6  1  6
  6  7  1  0
  7  8  1  0
  8  9  2  0
  9 10  1  0
 10 11  2  0
 11 12  1  0
 11 13  1  0
 13 14  1  0
 14 15  1  0
 15 16  2  0
 16 17  1  0
 17 18  1  0
 18 19  1  0
 19 20  1  0
 20 21  2  0
 21 22  1  0
 22 23  2  0
 23 24  1  0
 23 25  1  0
 21 26  1  0
 26 27  2  0
 26 28  1  0
 12  7  2  0
 25 19  2  0
 28  5  1  0
M  END
$$$$
