
     RDKit          3D

 28 30  0  0  0  0  0  0  0  0999 V2000
  -14.1828  -38.5596   -8.3165 N   0  0  0  0  0  0  0  0  0  0  0  0
  -14.6078  -39.4880   -7.2842 C   0  0  0  0  0  0  0  0  0  0  0  0
  -16.1450  -39.5755   -7.3254 C   0  0  1  0  0  0  0  0  0  0  0  0
  -16.5985  -39.4365   -5.9863 O   0  0  0  0  0  0  0  0  0  0  0  0
  -16.6523  -38.4090   -8.1055 C   0  0  2  0  0  0  0  0  0  0  0  0
  -17.6936  -37.5724   -7.4303 C   0  0  0  0  0  0  0  0  0  0  0  0
  -19.1129  -37.9371   -7.7880 C   0  0  0  0  0  0  0  0  0  0  0  0
  -19.6223  -37.0200   -8.7300 C   0  0  0  0  0  0  0  0  0  0  0  0
  -20.9042  -37.0569   -9.2191 C   0  0  0  0  0  0  0  0  0  0  0  0
  -21.6658  -38.0740   -8.7094 C   0  0  0  0  0  0  0  0  0  0  0  0
  -21.2170  -39.0197   -7.7697 C   0  0  0  0  0  0  0  0  0  0  0  0
  -19.9011  -38.9358   -7.3065 C   0  0  0  0  0  0  0  0  0  0  0  0
  -22.1826  -39.9304   -7.4213 O   0  0  0  0  0  0  0  0  0  0  0  0
  -22.4961  -41.2459   -7.3330 C   0  0  0  0  0  0  0  0  0  0  0  0
  -22.3157  -42.0271   -8.6127 C   0  0  0  0  0  0  0  0  0  0  0  0
  -21.6644  -42.9979   -9.0892 C   0  0  0  0  0  0  0  0  0  0  0  0
  -20.6417  -44.0350   -8.7564 C   0  0  0  0  0  0  0  0  0  0  0  0
  -19.5627  -44.0284   -9.7158 N   0  0  0  0  0  0  0  0  0  0  0  0
  -18.5032  -43.0931   -9.9543 C   0  0  0  0  0  0  0  0  0  0  0  0
  -18.4277  -41.7199   -9.9233 C   0  0  0  0  0  0  0  0  0  0  0  0
  -17.1993  -41.1562  -10.2398 C   0  0  0  0  0  0  0  0  0  0  0  0
  -16.1086  -42.0060  -10.5737 C   0  0  0  0  0  0  0  0  0  0  0  0
  -16.2021  -43.3741  -10.6000 C   0  0  0  0  0  0  0  0  0  0  0  0
  -14.8300  -44.3882  -11.0165 Cl  0  0  0  0  0  0  0  0  0  0  0  0
  -17.3828  -43.8583  -10.2917 N   0  0  0  0  0  0  0  0  0  0  0  0
  -16.7490  -39.7592  -10.3059 C   0  0  0  0  0  0  0  0  0  0  0  0
  -16.0041  -39.4792  -11.3642 O   0  0  0  0  0  0  0  0  0  0  0  0
  -16.9251  -38.6340   -9.4950 N   0  0  0  0  0  0  0  0  0  0  0  0
  1  2  1  0
  2  3  1  0
  3  4  1  1
  3  5  1  0
  5  6  1  1
  6  7  1  0
  7  8  1  0
  8  9  2  0
  9 10  1  0
 10 11  2  0
 11 12  1  0
 11 13  1  0
 13 14  1  0
 14 15  1  0
 15 16  2  0
 16 17  1  0
 17 18  1  0
 18 19  1  0
 19 20  1  0
 20 21  2  0
 21 22  1  0
 22 23  2  0
 23 24  1  0
 23 25  1  0
 21 26  1  0
 26 27  2  0
 26 28  1  0
 12  7  2  0
 25 19  2  0
 28  5  1  0
M  END
$$$$
