
     RDKit          3D

 28 30  0  0  0  0  0  0  0  0999 V2000
  -15.7676  -36.6665   -6.6828 N   0  0  0  0  0  0  0  0  0  0  0  0
  -15.1765  -37.8696   -7.2409 C   0  0  0  0  0  0  0  0  0  0  0  0
  -16.3163  -38.8513   -7.5719 C   0  0  1  0  0  0  0  0  0  0  0  0
  -16.5178  -39.6494   -6.4141 O   0  0  0  0  0  0  0  0  0  0  0  0
  -17.5573  -38.0556   -7.8029 C   0  0  2  0  0  0  0  0  0  0  0  0
  -18.7890  -38.5470   -7.1090 C   0  0  0  0  0  0  0  0  0  0  0  0
  -19.6654  -39.4380   -7.9535 C   0  0  0  0  0  0  0  0  0  0  0  0
  -20.7683  -38.7067   -8.4399 C   0  0  0  0  0  0  0  0  0  0  0  0
  -21.7716  -39.2503   -9.2026 C   0  0  0  0  0  0  0  0  0  0  0  0
  -21.6154  -40.5860   -9.4585 C   0  0  0  0  0  0  0  0  0  0  0  0
  -20.5397  -41.3701   -9.0036 C   0  0  0  0  0  0  0  0  0  0  0  0
  -19.5448  -40.7643   -8.2313 C   0  0  0  0  0  0  0  0  0  0  0  0
  -20.6270  -42.6817   -9.3973 O   0  0  0  0  0  0  0  0  0  0  0  0
  -19.9982  -43.7005  -10.0324 C   0  0  0  0  0  0  0  0  0  0  0  0
  -19.5294  -43.3813  -11.4319 C   0  0  0  0  0  0  0  0  0  0  0  0
  -18.4765  -43.3114  -12.1248 C   0  0  0  0  0  0  0  0  0  0  0  0
  -16.9930  -43.4812  -12.0731 C   0  0  0  0  0  0  0  0  0  0  0  0
  -16.3174  -42.3162  -12.5935 N   0  0  0  0  0  0  0  0  0  0  0  0
  -16.1608  -40.9907  -12.0713 C   0  0  0  0  0  0  0  0  0  0  0  0
  -16.9894  -40.1451  -11.3707 C   0  0  0  0  0  0  0  0  0  0  0  0
  -16.4759  -38.8968  -11.0470 C   0  0  0  0  0  0  0  0  0  0  0  0
  -15.1526  -38.5629  -11.4478 C   0  0  0  0  0  0  0  0  0  0  0  0
  -14.3402  -39.4189  -12.1467 C   0  0  0  0  0  0  0  0  0  0  0  0
  -12.7105  -38.9681  -12.6217 Cl  0  0  0  0  0  0  0  0  0  0  0  0
  -14.8704  -40.5867  -12.4269 N   0  0  0  0  0  0  0  0  0  0  0  0
  -17.0519  -37.7580  -10.3188 C   0  0  0  0  0  0  0  0  0  0  0  0
  -16.8172  -36.5815  -10.8792 O   0  0  0  0  0  0  0  0  0  0  0  0
  -17.8034  -37.6234   -9.1477 N   0  0  0  0  0  0  0  0  0  0  0  0
  1  2  1  0
  2  3  1  0
  3  4  1  1
  3  5  1  0
  5  6  1  6
  6  7  1  0
  7  8  1  0
  8  9  2  0
  9 10  1  0
 10 11  2  0
 11 12  1  0
 11 13  1  0
 13 14  1  0
 14 15  1  0
 15 16  2  0
 16 17  1  0
 17 18  1  0
 18 19  1  0
 19 20  1  0
 20 21  2  0
 21 22  1  0
 22 23  2  0
 23 24  1  0
 23 25  1  0
 21 26  1  0
 26 27  2  0
 26 28  1  0
 12  7  2  0
 25 19  2  0
 28  5  1  0
M  END
$$$$
