
     RDKit          3D

 28 30  0  0  0  0  0  0  0  0999 V2000
  -14.3955  -40.4039   -7.3480 N   0  0  0  0  0  0  0  0  0  0  0  0
  -15.0905  -39.4206   -8.1594 C   0  0  0  0  0  0  0  0  0  0  0  0
  -16.5713  -39.4137   -7.7355 C   0  0  1  0  0  0  0  0  0  0  0  0
  -16.6258  -38.8111   -6.4501 O   0  0  0  0  0  0  0  0  0  0  0  0
  -17.3185  -38.5382   -8.6852 C   0  0  2  0  0  0  0  0  0  0  0  0
  -18.3449  -37.6359   -8.0749 C   0  0  0  0  0  0  0  0  0  0  0  0
  -19.7474  -38.1908   -8.0870 C   0  0  0  0  0  0  0  0  0  0  0  0
  -20.4903  -37.5982   -9.1286 C   0  0  0  0  0  0  0  0  0  0  0  0
  -21.8152  -37.8624   -9.3708 C   0  0  0  0  0  0  0  0  0  0  0  0
  -22.3710  -38.7639   -8.5034 C   0  0  0  0  0  0  0  0  0  0  0  0
  -21.6848  -39.3894   -7.4468 C   0  0  0  0  0  0  0  0  0  0  0  0
  -20.3357  -39.0843   -7.2466 C   0  0  0  0  0  0  0  0  0  0  0  0
  -22.4766  -40.2472   -6.7254 O   0  0  0  0  0  0  0  0  0  0  0  0
  -22.6167  -41.5126   -6.2608 C   0  0  0  0  0  0  0  0  0  0  0  0
  -22.5287  -42.5883   -7.3169 C   0  0  0  0  0  0  0  0  0  0  0  0
  -21.8416  -43.5973   -7.6387 C   0  0  0  0  0  0  0  0  0  0  0  0
  -20.6666  -44.4269   -7.2345 C   0  0  0  0  0  0  0  0  0  0  0  0
  -19.7432  -44.5910   -8.3322 N   0  0  0  0  0  0  0  0  0  0  0  0
  -18.8464  -43.6733   -8.9706 C   0  0  0  0  0  0  0  0  0  0  0  0
  -18.9301  -42.3393   -9.2958 C   0  0  0  0  0  0  0  0  0  0  0  0
  -17.8344  -41.7862   -9.9443 C   0  0  0  0  0  0  0  0  0  0  0  0
  -16.7095  -42.6071  -10.2340 C   0  0  0  0  0  0  0  0  0  0  0  0
  -16.6434  -43.9363   -9.9025 C   0  0  0  0  0  0  0  0  0  0  0  0
  -15.2341  -44.9152  -10.2772 Cl  0  0  0  0  0  0  0  0  0  0  0  0
  -17.7027  -44.4114   -9.2896 N   0  0  0  0  0  0  0  0  0  0  0  0
  -17.5664  -40.4261  -10.4311 C   0  0  0  0  0  0  0  0  0  0  0  0
  -17.0176  -40.3796  -11.6353 O   0  0  0  0  0  0  0  0  0  0  0  0
  -17.7573  -39.1435   -9.9086 N   0  0  0  0  0  0  0  0  0  0  0  0
  1  2  1  0
  2  3  1  0
  3  4  1  1
  3  5  1  0
  5  6  1  1
  6  7  1  0
  7  8  1  0
  8  9  2  0
  9 10  1  0
 10 11  2  0
 11 12  1  0
 11 13  1  0
 13 14  1  0
 14 15  1  0
 15 16  2  0
 16 17  1  0
 17 18  1  0
 18 19  1  0
 19 20  1  0
 20 21  2  0
 21 22  1  0
 22 23  2  0
 23 24  1  0
 23 25  1  0
 21 26  1  0
 26 27  2  0
 26 28  1  0
 12  7  2  0
 25 19  2  0
 28  5  1  0
M  END
$$$$
