
     RDKit          3D

 28 30  0  0  0  0  0  0  0  0999 V2000
  -16.3786  -40.9847   -5.5982 N   0  0  0  0  0  0  0  0  0  0  0  0
  -17.0719  -39.7223   -5.7826 C   0  0  0  0  0  0  0  0  0  0  0  0
  -16.3360  -38.9302   -6.8796 C   0  0  1  0  0  0  0  0  0  0  0  0
  -15.4029  -38.0869   -6.2190 O   0  0  0  0  0  0  0  0  0  0  0  0
  -15.5679  -39.9012   -7.7126 C   0  0  2  0  0  0  0  0  0  0  0  0
  -14.1541  -39.5218   -8.0244 C   0  0  0  0  0  0  0  0  0  0  0  0
  -13.9739  -38.8305   -9.3529 C   0  0  0  0  0  0  0  0  0  0  0  0
  -13.4715  -39.7412  -10.3049 C   0  0  0  0  0  0  0  0  0  0  0  0
  -13.1587  -39.4030  -11.5978 C   0  0  0  0  0  0  0  0  0  0  0  0
  -13.3759  -38.0848  -11.8968 C   0  0  0  0  0  0  0  0  0  0  0  0
  -13.8748  -37.1284  -10.9940 C   0  0  0  0  0  0  0  0  0  0  0  0
  -14.1780  -37.5283   -9.6896 C   0  0  0  0  0  0  0  0  0  0  0  0
  -13.9936  -35.8783  -11.5472 O   0  0  0  0  0  0  0  0  0  0  0  0
  -14.8315  -34.8421  -11.7939 C   0  0  0  0  0  0  0  0  0  0  0  0
  -16.0995  -35.2132  -12.5252 C   0  0  0  0  0  0  0  0  0  0  0  0
  -17.3543  -35.2002  -12.3876 C   0  0  0  0  0  0  0  0  0  0  0  0
  -18.4541  -34.8299  -11.4465 C   0  0  0  0  0  0  0  0  0  0  0  0
  -19.3629  -35.9341  -11.2481 N   0  0  0  0  0  0  0  0  0  0  0  0
  -19.2162  -37.1777  -10.5510 C   0  0  0  0  0  0  0  0  0  0  0  0
  -18.1744  -38.0641  -10.4050 C   0  0  0  0  0  0  0  0  0  0  0  0
  -18.4248  -39.2008   -9.6486 C   0  0  0  0  0  0  0  0  0  0  0  0
  -19.7146  -39.3875   -9.0787 C   0  0  0  0  0  0  0  0  0  0  0  0
  -20.7424  -38.4930   -9.2351 C   0  0  0  0  0  0  0  0  0  0  0  0
  -22.3209  -38.7606   -8.5129 Cl  0  0  0  0  0  0  0  0  0  0  0  0
  -20.4553  -37.4344   -9.9564 N   0  0  0  0  0  0  0  0  0  0  0  0
  -17.5742  -40.3405   -9.2796 C   0  0  0  0  0  0  0  0  0  0  0  0
  -18.1699  -41.5183   -9.3855 O   0  0  0  0  0  0  0  0  0  0  0  0
  -16.2567  -40.4747   -8.8317 N   0  0  0  0  0  0  0  0  0  0  0  0
  1  2  1  0
  2  3  1  0
  3  4  1  1
  3  5  1  0
  5  6  1  6
  6  7  1  0
  7  8  1  0
  8  9  2  0
  9 10  1  0
 10 11  2  0
 11 12  1  0
 11 13  1  0
 13 14  1  0
 14 15  1  0
 15 16  2  0
 16 17  1  0
 17 18  1  0
 18 19  1  0
 19 20  1  0
 20 21  2  0
 21 22  1  0
 22 23  2  0
 23 24  1  0
 23 25  1  0
 21 26  1  0
 26 27  2  0
 26 28  1  0
 12  7  2  0
 25 19  2  0
 28  5  1  0
M  END
$$$$
