
     RDKit          3D

 28 30  0  0  0  0  0  0  0  0999 V2000
  -14.1484  -40.2755   -6.9924 N   0  0  0  0  0  0  0  0  0  0  0  0
  -15.4122  -40.9716   -6.8301 C   0  0  0  0  0  0  0  0  0  0  0  0
  -16.5459  -39.9362   -6.9531 C   0  0  1  0  0  0  0  0  0  0  0  0
  -16.2296  -38.8757   -6.0624 O   0  0  0  0  0  0  0  0  0  0  0  0
  -16.5238  -39.3914   -8.3421 C   0  0  2  0  0  0  0  0  0  0  0  0
  -16.9664  -37.9699   -8.4952 C   0  0  0  0  0  0  0  0  0  0  0  0
  -18.4190  -37.8072   -8.8676 C   0  0  0  0  0  0  0  0  0  0  0  0
  -18.5341  -37.5260  -10.2444 C   0  0  0  0  0  0  0  0  0  0  0  0
  -19.7261  -37.2805  -10.8790 C   0  0  0  0  0  0  0  0  0  0  0  0
  -20.8171  -37.3299  -10.0535 C   0  0  0  0  0  0  0  0  0  0  0  0
  -20.7690  -37.6053   -8.6749 C   0  0  0  0  0  0  0  0  0  0  0  0
  -19.5278  -37.8493   -8.0805 C   0  0  0  0  0  0  0  0  0  0  0  0
  -22.0057  -37.5895   -8.0806 O   0  0  0  0  0  0  0  0  0  0  0  0
  -22.8914  -38.2870   -7.3284 C   0  0  0  0  0  0  0  0  0  0  0  0
  -23.2414  -39.6537   -7.8668 C   0  0  0  0  0  0  0  0  0  0  0  0
  -23.1818  -40.8768   -7.5601 C   0  0  0  0  0  0  0  0  0  0  0  0
  -22.7405  -41.8260   -6.4940 C   0  0  0  0  0  0  0  0  0  0  0  0
  -21.8977  -42.8643   -7.0381 N   0  0  0  0  0  0  0  0  0  0  0  0
  -20.5552  -42.8393   -7.5393 C   0  0  0  0  0  0  0  0  0  0  0  0
  -19.8375  -41.9278   -8.2786 C   0  0  0  0  0  0  0  0  0  0  0  0
  -18.5311  -42.2737   -8.5959 C   0  0  0  0  0  0  0  0  0  0  0  0
  -18.0144  -43.5228   -8.1532 C   0  0  0  0  0  0  0  0  0  0  0  0
  -18.7449  -44.4201   -7.4168 C   0  0  0  0  0  0  0  0  0  0  0  0
  -18.0685  -45.9523   -6.8881 Cl  0  0  0  0  0  0  0  0  0  0  0  0
  -19.9729  -44.0464   -7.1412 N   0  0  0  0  0  0  0  0  0  0  0  0
  -17.4848  -41.5680   -9.3484 C   0  0  0  0  0  0  0  0  0  0  0  0
  -16.8159  -42.3346  -10.1958 O   0  0  0  0  0  0  0  0  0  0  0  0
  -17.0196  -40.2500   -9.3778 N   0  0  0  0  0  0  0  0  0  0  0  0
  1  2  1  0
  2  3  1  0
  3  4  1  1
  3  5  1  0
  5  6  1  1
  6  7  1  0
  7  8  1  0
  8  9  2  0
  9 10  1  0
 10 11  2  0
 11 12  1  0
 11 13  1  0
 13 14  1  0
 14 15  1  0
 15 16  2  0
 16 17  1  0
 17 18  1  0
 18 19  1  0
 19 20  1  0
 20 21  2  0
 21 22  1  0
 22 23  2  0
 23 24  1  0
 23 25  1  0
 21 26  1  0
 26 27  2  0
 26 28  1  0
 12  7  2  0
 25 19  2  0
 28  5  1  0
M  END
$$$$
