
     RDKit          3D

 28 30  0  0  0  0  0  0  0  0999 V2000
  -14.6831  -40.9392   -8.7234 N   0  0  0  0  0  0  0  0  0  0  0  0
  -15.0676  -41.2029   -7.3483 C   0  0  0  0  0  0  0  0  0  0  0  0
  -16.4608  -40.5882   -7.1167 C   0  0  1  0  0  0  0  0  0  0  0  0
  -16.3374  -39.6985   -6.0160 O   0  0  0  0  0  0  0  0  0  0  0  0
  -16.8149  -39.7820   -8.3214 C   0  0  2  0  0  0  0  0  0  0  0  0
  -17.3587  -38.4130   -8.0567 C   0  0  0  0  0  0  0  0  0  0  0  0
  -18.8649  -38.3347   -8.0378 C   0  0  0  0  0  0  0  0  0  0  0  0
  -19.3343  -37.8023   -9.2561 C   0  0  0  0  0  0  0  0  0  0  0  0
  -20.6583  -37.5643   -9.5285 C   0  0  0  0  0  0  0  0  0  0  0  0
  -21.5051  -37.8898   -8.5032 C   0  0  0  0  0  0  0  0  0  0  0  0
  -21.1003  -38.4240   -7.2665 C   0  0  0  0  0  0  0  0  0  0  0  0
  -19.7389  -38.6474   -7.0433 C   0  0  0  0  0  0  0  0  0  0  0  0
  -22.1492  -38.6560   -6.4126 O   0  0  0  0  0  0  0  0  0  0  0  0
  -22.7803  -39.5771   -5.6446 C   0  0  0  0  0  0  0  0  0  0  0  0
  -23.1781  -40.8407   -6.3695 C   0  0  0  0  0  0  0  0  0  0  0  0
  -22.9773  -42.0869   -6.3569 C   0  0  0  0  0  0  0  0  0  0  0  0
  -22.2333  -43.1750   -5.6533 C   0  0  0  0  0  0  0  0  0  0  0  0
  -21.4970  -43.9912   -6.5893 N   0  0  0  0  0  0  0  0  0  0  0  0
  -20.3250  -43.7266   -7.3706 C   0  0  0  0  0  0  0  0  0  0  0  0
  -19.8648  -42.6171   -8.0411 C   0  0  0  0  0  0  0  0  0  0  0  0
  -18.6616  -42.7539   -8.7198 C   0  0  0  0  0  0  0  0  0  0  0  0
  -17.9835  -44.0039   -8.6897 C   0  0  0  0  0  0  0  0  0  0  0  0
  -18.4576  -45.1004   -8.0159 C   0  0  0  0  0  0  0  0  0  0  0  0
  -17.5882  -46.6264   -8.0026 Cl  0  0  0  0  0  0  0  0  0  0  0  0
  -19.5968  -44.9199   -7.3890 N   0  0  0  0  0  0  0  0  0  0  0  0
  -17.8757  -41.8077   -9.5235 C   0  0  0  0  0  0  0  0  0  0  0  0
  -17.3979  -42.3179  -10.6481 O   0  0  0  0  0  0  0  0  0  0  0  0
  -17.5052  -40.4680   -9.3744 N   0  0  0  0  0  0  0  0  0  0  0  0
  1  2  1  0
  2  3  1  0
  3  4  1  1
  3  5  1  0
  5  6  1  1
  6  7  1  0
  7  8  1  0
  8  9  2  0
  9 10  1  0
 10 11  2  0
 11 12  1  0
 11 13  1  0
 13 14  1  0
 14 15  1  0
 15 16  2  0
 16 17  1  0
 17 18  1  0
 18 19  1  0
 19 20  1  0
 20 21  2  0
 21 22  1  0
 22 23  2  0
 23 24  1  0
 23 25  1  0
 21 26  1  0
 26 27  2  0
 26 28  1  0
 12  7  2  0
 25 19  2  0
 28  5  1  0
M  END
$$$$
