
     RDKit          3D

 28 30  0  0  0  0  0  0  0  0999 V2000
  -17.5497  -40.3798   -5.4271 N   0  0  0  0  0  0  0  0  0  0  0  0
  -16.2832  -39.7110   -5.6657 C   0  0  0  0  0  0  0  0  0  0  0  0
  -16.2873  -39.1846   -7.1132 C   0  0  1  0  0  0  0  0  0  0  0  0
  -15.4386  -38.0457   -7.1367 O   0  0  0  0  0  0  0  0  0  0  0  0
  -15.6771  -40.2302   -7.9856 C   0  0  2  0  0  0  0  0  0  0  0  0
  -14.2867  -39.9531   -8.4654 C   0  0  0  0  0  0  0  0  0  0  0  0
  -14.2149  -39.3194   -9.8323 C   0  0  0  0  0  0  0  0  0  0  0  0
  -13.8780  -40.2917  -10.7962 C   0  0  0  0  0  0  0  0  0  0  0  0
  -13.6920  -40.0176  -12.1281 C   0  0  0  0  0  0  0  0  0  0  0  0
  -13.8614  -38.6989  -12.4543 C   0  0  0  0  0  0  0  0  0  0  0  0
  -14.1976  -37.6828  -11.5415 C   0  0  0  0  0  0  0  0  0  0  0  0
  -14.3767  -38.0187  -10.1967 C   0  0  0  0  0  0  0  0  0  0  0  0
  -14.3021  -36.4467  -12.1282 O   0  0  0  0  0  0  0  0  0  0  0  0
  -15.0983  -35.3676  -12.3230 C   0  0  0  0  0  0  0  0  0  0  0  0
  -16.4602  -35.6805  -12.8955 C   0  0  0  0  0  0  0  0  0  0  0  0
  -17.6887  -35.5822  -12.6220 C   0  0  0  0  0  0  0  0  0  0  0  0
  -18.6520  -35.1109  -11.5817 C   0  0  0  0  0  0  0  0  0  0  0  0
  -19.5978  -36.1471  -11.2407 N   0  0  0  0  0  0  0  0  0  0  0  0
  -19.4493  -37.3737  -10.5145 C   0  0  0  0  0  0  0  0  0  0  0  0
  -18.4529  -38.3199  -10.4479 C   0  0  0  0  0  0  0  0  0  0  0  0
  -18.6852  -39.4123   -9.6236 C   0  0  0  0  0  0  0  0  0  0  0  0
  -19.9121  -39.4967   -8.9087 C   0  0  0  0  0  0  0  0  0  0  0  0
  -20.8951  -38.5436   -8.9874 C   0  0  0  0  0  0  0  0  0  0  0  0
  -22.3962  -38.6849   -8.0866 Cl  0  0  0  0  0  0  0  0  0  0  0  0
  -20.6273  -37.5303   -9.7779 N   0  0  0  0  0  0  0  0  0  0  0  0
  -17.8688  -40.5915   -9.3044 C   0  0  0  0  0  0  0  0  0  0  0  0
  -18.5425  -41.7314   -9.2970 O   0  0  0  0  0  0  0  0  0  0  0  0
  -16.5200  -40.7951   -8.9985 N   0  0  0  0  0  0  0  0  0  0  0  0
  1  2  1  0
  2  3  1  0
  3  4  1  1
  3  5  1  0
  5  6  1  6
  6  7  1  0
  7  8  1  0
  8  9  2  0
  9 10  1  0
 10 11  2  0
 11 12  1  0
 11 13  1  0
 13 14  1  0
 14 15  1  0
 15 16  2  0
 16 17  1  0
 17 18  1  0
 18 19  1  0
 19 20  1  0
 20 21  2  0
 21 22  1  0
 22 23  2  0
 23 24  1  0
 23 25  1  0
 21 26  1  0
 26 27  2  0
 26 28  1  0
 12  7  2  0
 25 19  2  0
 28  5  1  0
M  END
$$$$
