
     RDKit          3D

 28 30  0  0  0  0  0  0  0  0999 V2000
  -15.3161  -37.1016   -7.3713 N   0  0  0  0  0  0  0  0  0  0  0  0
  -15.3218  -38.3850   -6.6923 C   0  0  0  0  0  0  0  0  0  0  0  0
  -16.5524  -39.1748   -7.1762 C   0  0  1  0  0  0  0  0  0  0  0  0
  -17.0664  -39.8644   -6.0454 O   0  0  0  0  0  0  0  0  0  0  0  0
  -17.5836  -38.1931   -7.6231 C   0  0  2  0  0  0  0  0  0  0  0  0
  -18.9113  -38.2802   -6.9379 C   0  0  0  0  0  0  0  0  0  0  0  0
  -19.9372  -39.1074   -7.6717 C   0  0  0  0  0  0  0  0  0  0  0  0
  -20.8405  -38.2632   -8.3493 C   0  0  0  0  0  0  0  0  0  0  0  0
  -21.9168  -38.7151   -9.0713 C   0  0  0  0  0  0  0  0  0  0  0  0
  -22.0483  -40.0778   -9.0813 C   0  0  0  0  0  0  0  0  0  0  0  0
  -21.1822  -40.9727   -8.4272 C   0  0  0  0  0  0  0  0  0  0  0  0
  -20.1008  -40.4575   -7.7072 C   0  0  0  0  0  0  0  0  0  0  0  0
  -21.5422  -42.2864   -8.5930 O   0  0  0  0  0  0  0  0  0  0  0  0
  -21.1333  -43.5130   -8.9991 C   0  0  0  0  0  0  0  0  0  0  0  0
  -20.5678  -43.5609  -10.3985 C   0  0  0  0  0  0  0  0  0  0  0  0
  -19.5064  -43.8411  -11.0217 C   0  0  0  0  0  0  0  0  0  0  0  0
  -18.0974  -44.3053  -10.8431 C   0  0  0  0  0  0  0  0  0  0  0  0
  -17.1703  -43.4230  -11.5113 N   0  0  0  0  0  0  0  0  0  0  0  0
  -16.7431  -42.0869  -11.2171 C   0  0  0  0  0  0  0  0  0  0  0  0
  -17.3865  -40.9729  -10.7299 C   0  0  0  0  0  0  0  0  0  0  0  0
  -16.6226  -39.8219  -10.5937 C   0  0  0  0  0  0  0  0  0  0  0  0
  -15.2478  -39.8517  -10.9576 C   0  0  0  0  0  0  0  0  0  0  0  0
  -14.6225  -40.9720  -11.4424 C   0  0  0  0  0  0  0  0  0  0  0  0
  -12.9213  -40.9671  -11.8791 Cl  0  0  0  0  0  0  0  0  0  0  0  0
  -15.3865  -42.0341  -11.5508 N   0  0  0  0  0  0  0  0  0  0  0  0
  -16.9565  -38.4741  -10.1134 C   0  0  0  0  0  0  0  0  0  0  0  0
  -16.4558  -37.4959  -10.8521 O   0  0  0  0  0  0  0  0  0  0  0  0
  -17.6925  -37.9730   -9.0357 N   0  0  0  0  0  0  0  0  0  0  0  0
  1  2  1  0
  2  3  1  0
  3  4  1  1
  3  5  1  0
  5  6  1  6
  6  7  1  0
  7  8  1  0
  8  9  2  0
  9 10  1  0
 10 11  2  0
 11 12  1  0
 11 13  1  0
 13 14  1  0
 14 15  1  0
 15 16  2  0
 16 17  1  0
 17 18  1  0
 18 19  1  0
 19 20  1  0
 20 21  2  0
 21 22  1  0
 22 23  2  0
 23 24  1  0
 23 25  1  0
 21 26  1  0
 26 27  2  0
 26 28  1  0
 12  7  2  0
 25 19  2  0
 28  5  1  0
M  END
$$$$
