
     RDKit          3D

 28 30  0  0  0  0  0  0  0  0999 V2000
  -16.7520  -39.9575   -5.5403 N   0  0  0  0  0  0  0  0  0  0  0  0
  -16.5335  -40.6747   -6.7838 C   0  0  0  0  0  0  0  0  0  0  0  0
  -15.8824  -39.7033   -7.7862 C   0  0  1  0  0  0  0  0  0  0  0  0
  -14.6813  -39.2399   -7.1854 O   0  0  0  0  0  0  0  0  0  0  0  0
  -15.5156  -40.4785   -9.0073 C   0  0  2  0  0  0  0  0  0  0  0  0
  -14.1255  -40.2712   -9.5217 C   0  0  0  0  0  0  0  0  0  0  0  0
  -14.0140  -39.2373  -10.6144 C   0  0  0  0  0  0  0  0  0  0  0  0
  -13.9075  -39.8724  -11.8686 C   0  0  0  0  0  0  0  0  0  0  0  0
  -13.7462  -39.2021  -13.0554 C   0  0  0  0  0  0  0  0  0  0  0  0
  -13.6945  -37.8405  -12.9235 C   0  0  0  0  0  0  0  0  0  0  0  0
  -13.7951  -37.1477  -11.7034 C   0  0  0  0  0  0  0  0  0  0  0  0
  -13.9599  -37.8809  -10.5249 C   0  0  0  0  0  0  0  0  0  0  0  0
  -13.7080  -35.7861  -11.8501 O   0  0  0  0  0  0  0  0  0  0  0  0
  -14.3079  -34.5964  -11.6028 C   0  0  0  0  0  0  0  0  0  0  0  0
  -15.7321  -34.4911  -12.0937 C   0  0  0  0  0  0  0  0  0  0  0  0
  -16.9071  -34.3048  -11.6714 C   0  0  0  0  0  0  0  0  0  0  0  0
  -17.7144  -34.0666  -10.4369 C   0  0  0  0  0  0  0  0  0  0  0  0
  -18.8107  -35.0015  -10.3437 N   0  0  0  0  0  0  0  0  0  0  0  0
  -18.8454  -36.4074  -10.0673 C   0  0  0  0  0  0  0  0  0  0  0  0
  -18.0319  -37.4609  -10.4148 C   0  0  0  0  0  0  0  0  0  0  0  0
  -18.4116  -38.7169   -9.9618 C   0  0  0  0  0  0  0  0  0  0  0  0
  -19.5943  -38.8478   -9.1825 C   0  0  0  0  0  0  0  0  0  0  0  0
  -20.3941  -37.7858   -8.8458 C   0  0  0  0  0  0  0  0  0  0  0  0
  -21.8466  -37.9901   -7.8796 Cl  0  0  0  0  0  0  0  0  0  0  0  0
  -19.9918  -36.6200   -9.2958 N   0  0  0  0  0  0  0  0  0  0  0  0
  -17.8033  -40.0442  -10.1262 C   0  0  0  0  0  0  0  0  0  0  0  0
  -18.6683  -41.0058  -10.4097 O   0  0  0  0  0  0  0  0  0  0  0  0
  -16.4982  -40.5396  -10.0497 N   0  0  0  0  0  0  0  0  0  0  0  0
  1  2  1  0
  2  3  1  0
  3  4  1  1
  3  5  1  0
  5  6  1  6
  6  7  1  0
  7  8  1  0
  8  9  2  0
  9 10  1  0
 10 11  2  0
 11 12  1  0
 11 13  1  0
 13 14  1  0
 14 15  1  0
 15 16  2  0
 16 17  1  0
 17 18  1  0
 18 19  1  0
 19 20  1  0
 20 21  2  0
 21 22  1  0
 22 23  2  0
 23 24  1  0
 23 25  1  0
 21 26  1  0
 26 27  2  0
 26 28  1  0
 12  7  2  0
 25 19  2  0
 28  5  1  0
M  END
$$$$
