
     RDKit          3D

 28 30  0  0  0  0  0  0  0  0999 V2000
  -19.8071  -40.5681  -13.3677 N   0  0  0  0  0  0  0  0  0  0  0  0
  -20.5706  -39.5750  -12.6335 C   0  0  0  0  0  0  0  0  0  0  0  0
  -20.1301  -39.6301  -11.1586 C   0  0  1  0  0  0  0  0  0  0  0  0
  -20.1076  -38.2897  -10.6882 O   0  0  0  0  0  0  0  0  0  0  0  0
  -21.1764  -40.3681  -10.3923 C   0  0  2  0  0  0  0  0  0  0  0  0
  -22.0565  -39.5339   -9.5151 C   0  0  0  0  0  0  0  0  0  0  0  0
  -21.6072  -39.4555   -8.0773 C   0  0  0  0  0  0  0  0  0  0  0  0
  -22.3862  -40.3207   -7.2819 C   0  0  0  0  0  0  0  0  0  0  0  0
  -22.2502  -40.4408   -5.9215 C   0  0  0  0  0  0  0  0  0  0  0  0
  -21.2798  -39.6374   -5.3856 C   0  0  0  0  0  0  0  0  0  0  0  0
  -20.4702  -38.7550   -6.1236 C   0  0  0  0  0  0  0  0  0  0  0  0
  -20.6507  -38.6739   -7.5072 C   0  0  0  0  0  0  0  0  0  0  0  0
  -19.5793  -38.0629   -5.3424 O   0  0  0  0  0  0  0  0  0  0  0  0
  -18.2754  -37.7505   -5.1458 C   0  0  0  0  0  0  0  0  0  0  0  0
  -17.3498  -38.9383   -5.0319 C   0  0  0  0  0  0  0  0  0  0  0  0
  -16.3488  -39.4630   -5.5942 C   0  0  0  0  0  0  0  0  0  0  0  0
  -15.3922  -39.3055   -6.7312 C   0  0  0  0  0  0  0  0  0  0  0  0
  -15.3152  -40.5140   -7.5175 N   0  0  0  0  0  0  0  0  0  0  0  0
  -16.2467  -41.1288   -8.4165 C   0  0  0  0  0  0  0  0  0  0  0  0
  -17.6151  -41.2695   -8.4117 C   0  0  0  0  0  0  0  0  0  0  0  0
  -18.1738  -41.9637   -9.4761 C   0  0  0  0  0  0  0  0  0  0  0  0
  -17.3238  -42.4830  -10.4915 C   0  0  0  0  0  0  0  0  0  0  0  0
  -15.9605  -42.3336  -10.4799 C   0  0  0  0  0  0  0  0  0  0  0  0
  -14.9461  -42.9896  -11.7549 Cl  0  0  0  0  0  0  0  0  0  0  0  0
  -15.4812  -41.6687   -9.4544 N   0  0  0  0  0  0  0  0  0  0  0  0
  -19.5656  -42.3005   -9.8052 C   0  0  0  0  0  0  0  0  0  0  0  0
  -19.7373  -43.5439  -10.2268 O   0  0  0  0  0  0  0  0  0  0  0  0
  -20.7752  -41.6002   -9.7785 N   0  0  0  0  0  0  0  0  0  0  0  0
  1  2  1  0
  2  3  1  0
  3  4  1  1
  3  5  1  0
  5  6  1  1
  6  7  1  0
  7  8  1  0
  8  9  2  0
  9 10  1  0
 10 11  2  0
 11 12  1  0
 11 13  1  0
 13 14  1  0
 14 15  1  0
 15 16  2  0
 16 17  1  0
 17 18  1  0
 18 19  1  0
 19 20  1  0
 20 21  2  0
 21 22  1  0
 22 23  2  0
 23 24  1  0
 23 25  1  0
 21 26  1  0
 26 27  2  0
 26 28  1  0
 12  7  2  0
 25 19  2  0
 28  5  1  0
M  END
$$$$
