
     RDKit          3D

 28 30  0  0  0  0  0  0  0  0999 V2000
  -14.5017  -40.1251   -7.4418 N   0  0  0  0  0  0  0  0  0  0  0  0
  -15.5734  -40.4052   -8.3807 C   0  0  0  0  0  0  0  0  0  0  0  0
  -16.9123  -40.1204   -7.6744 C   0  0  1  0  0  0  0  0  0  0  0  0
  -16.6030  -39.4154   -6.4804 O   0  0  0  0  0  0  0  0  0  0  0  0
  -17.7112  -39.2135   -8.5494 C   0  0  2  0  0  0  0  0  0  0  0  0
  -18.4834  -38.1399   -7.8486 C   0  0  0  0  0  0  0  0  0  0  0  0
  -19.9207  -38.4947   -7.5597 C   0  0  0  0  0  0  0  0  0  0  0  0
  -20.7679  -37.8739   -8.5002 C   0  0  0  0  0  0  0  0  0  0  0  0
  -22.1370  -37.9670   -8.4767 C   0  0  0  0  0  0  0  0  0  0  0  0
  -22.6262  -38.7246   -7.4466 C   0  0  0  0  0  0  0  0  0  0  0  0
  -21.8353  -39.3691   -6.4781 C   0  0  0  0  0  0  0  0  0  0  0  0
  -20.4454  -39.2416   -6.5509 C   0  0  0  0  0  0  0  0  0  0  0  0
  -22.5764  -40.0602   -5.5528 O   0  0  0  0  0  0  0  0  0  0  0  0
  -22.7820  -41.2610   -4.9592 C   0  0  0  0  0  0  0  0  0  0  0  0
  -23.0298  -42.4050   -5.9134 C   0  0  0  0  0  0  0  0  0  0  0  0
  -22.5467  -43.5181   -6.2614 C   0  0  0  0  0  0  0  0  0  0  0  0
  -21.4286  -44.4746   -6.0014 C   0  0  0  0  0  0  0  0  0  0  0  0
  -20.7575  -44.8360   -7.2275 N   0  0  0  0  0  0  0  0  0  0  0  0
  -19.8909  -44.0949   -8.0957 C   0  0  0  0  0  0  0  0  0  0  0  0
  -19.8684  -42.7861   -8.5189 C   0  0  0  0  0  0  0  0  0  0  0  0
  -18.8553  -42.4336   -9.3999 C   0  0  0  0  0  0  0  0  0  0  0  0
  -17.9163  -43.4195   -9.8117 C   0  0  0  0  0  0  0  0  0  0  0  0
  -17.9542  -44.7206   -9.3797 C   0  0  0  0  0  0  0  0  0  0  0  0
  -16.7740  -45.9076   -9.9115 Cl  0  0  0  0  0  0  0  0  0  0  0  0
  -18.9289  -45.0035   -8.5470 N   0  0  0  0  0  0  0  0  0  0  0  0
  -18.5176  -41.1582  -10.0466 C   0  0  0  0  0  0  0  0  0  0  0  0
  -18.2053  -41.2665  -11.3288 O   0  0  0  0  0  0  0  0  0  0  0  0
  -18.4454  -39.8303   -9.6154 N   0  0  0  0  0  0  0  0  0  0  0  0
  1  2  1  0
  2  3  1  0
  3  4  1  1
  3  5  1  0
  5  6  1  1
  6  7  1  0
  7  8  1  0
  8  9  2  0
  9 10  1  0
 10 11  2  0
 11 12  1  0
 11 13  1  0
 13 14  1  0
 14 15  1  0
 15 16  2  0
 16 17  1  0
 17 18  1  0
 18 19  1  0
 19 20  1  0
 20 21  2  0
 21 22  1  0
 22 23  2  0
 23 24  1  0
 23 25  1  0
 21 26  1  0
 26 27  2  0
 26 28  1  0
 12  7  2  0
 25 19  2  0
 28  5  1  0
M  END
$$$$
