
     RDKit          3D

 28 30  0  0  0  0  0  0  0  0999 V2000
  -14.4631  -39.2408   -8.1228 N   0  0  0  0  0  0  0  0  0  0  0  0
  -15.2781  -38.7217   -7.0390 C   0  0  0  0  0  0  0  0  0  0  0  0
  -16.6550  -39.4088   -7.1070 C   0  0  1  0  0  0  0  0  0  0  0  0
  -17.2959  -39.1641   -5.8630 O   0  0  0  0  0  0  0  0  0  0  0  0
  -17.4528  -38.7375   -8.1745 C   0  0  2  0  0  0  0  0  0  0  0  0
  -18.5598  -37.8474   -7.7030 C   0  0  0  0  0  0  0  0  0  0  0  0
  -19.9125  -38.5126   -7.6478 C   0  0  0  0  0  0  0  0  0  0  0  0
  -20.6814  -38.1329   -8.7669 C   0  0  0  0  0  0  0  0  0  0  0  0
  -21.9759  -38.5364   -8.9794 C   0  0  0  0  0  0  0  0  0  0  0  0
  -22.4731  -39.3524   -7.9989 C   0  0  0  0  0  0  0  0  0  0  0  0
  -21.7582  -39.7672   -6.8607 C   0  0  0  0  0  0  0  0  0  0  0  0
  -20.4421  -39.3270   -6.6954 C   0  0  0  0  0  0  0  0  0  0  0  0
  -22.4913  -40.5796   -6.0327 O   0  0  0  0  0  0  0  0  0  0  0  0
  -22.5372  -41.7758   -5.3975 C   0  0  0  0  0  0  0  0  0  0  0  0
  -22.3432  -42.9762   -6.2930 C   0  0  0  0  0  0  0  0  0  0  0  0
  -21.5710  -43.9596   -6.4665 C   0  0  0  0  0  0  0  0  0  0  0  0
  -20.3405  -44.6257   -5.9424 C   0  0  0  0  0  0  0  0  0  0  0  0
  -19.3867  -44.8630   -7.0000 N   0  0  0  0  0  0  0  0  0  0  0  0
  -18.5553  -43.9713   -7.7535 C   0  0  0  0  0  0  0  0  0  0  0  0
  -18.7405  -42.7065   -8.2618 C   0  0  0  0  0  0  0  0  0  0  0  0
  -17.6813  -42.1597   -8.9732 C   0  0  0  0  0  0  0  0  0  0  0  0
  -16.4885  -42.9170   -9.1379 C   0  0  0  0  0  0  0  0  0  0  0  0
  -16.3215  -44.1777   -8.6242 C   0  0  0  0  0  0  0  0  0  0  0  0
  -14.8310  -45.0792   -8.8491 Cl  0  0  0  0  0  0  0  0  0  0  0  0
  -17.3500  -44.6494   -7.9587 N   0  0  0  0  0  0  0  0  0  0  0  0
  -17.5151  -40.8624   -9.6426 C   0  0  0  0  0  0  0  0  0  0  0  0
  -16.9497  -40.9374  -10.8375 O   0  0  0  0  0  0  0  0  0  0  0  0
  -17.8186  -39.5401   -9.3049 N   0  0  0  0  0  0  0  0  0  0  0  0
  1  2  1  0
  2  3  1  0
  3  4  1  1
  3  5  1  0
  5  6  1  1
  6  7  1  0
  7  8  1  0
  8  9  2  0
  9 10  1  0
 10 11  2  0
 11 12  1  0
 11 13  1  0
 13 14  1  0
 14 15  1  0
 15 16  2  0
 16 17  1  0
 17 18  1  0
 18 19  1  0
 19 20  1  0
 20 21  2  0
 21 22  1  0
 22 23  2  0
 23 24  1  0
 23 25  1  0
 21 26  1  0
 26 27  2  0
 26 28  1  0
 12  7  2  0
 25 19  2  0
 28  5  1  0
M  END
$$$$
