
     RDKit          3D

 28 30  0  0  0  0  0  0  0  0999 V2000
  -14.7759  -40.7151   -6.9717 N   0  0  0  0  0  0  0  0  0  0  0  0
  -15.9912  -40.6259   -6.1823 C   0  0  0  0  0  0  0  0  0  0  0  0
  -16.8359  -39.4637   -6.7374 C   0  0  1  0  0  0  0  0  0  0  0  0
  -16.2795  -38.2666   -6.2126 O   0  0  0  0  0  0  0  0  0  0  0  0
  -16.6663  -39.4376   -8.2197 C   0  0  2  0  0  0  0  0  0  0  0  0
  -16.7549  -38.0904   -8.8655 C   0  0  0  0  0  0  0  0  0  0  0  0
  -18.1218  -37.7467   -9.4030 C   0  0  0  0  0  0  0  0  0  0  0  0
  -18.1485  -37.9276  -10.8010 C   0  0  0  0  0  0  0  0  0  0  0  0
  -19.2391  -37.6539  -11.5881 C   0  0  0  0  0  0  0  0  0  0  0  0
  -20.3211  -37.1807  -10.8956 C   0  0  0  0  0  0  0  0  0  0  0  0
  -20.3580  -36.9791   -9.5040 C   0  0  0  0  0  0  0  0  0  0  0  0
  -19.2188  -37.2758   -8.7506 C   0  0  0  0  0  0  0  0  0  0  0  0
  -21.5630  -36.4920   -9.0637 O   0  0  0  0  0  0  0  0  0  0  0  0
  -22.5992  -36.6819   -8.2113 C   0  0  0  0  0  0  0  0  0  0  0  0
  -23.2581  -38.0373   -8.3074 C   0  0  0  0  0  0  0  0  0  0  0  0
  -23.4961  -39.0668   -7.6167 C   0  0  0  0  0  0  0  0  0  0  0  0
  -23.3079  -39.6740   -6.2645 C   0  0  0  0  0  0  0  0  0  0  0  0
  -22.7301  -40.9934   -6.3625 N   0  0  0  0  0  0  0  0  0  0  0  0
  -21.4140  -41.4352   -6.7185 C   0  0  0  0  0  0  0  0  0  0  0  0
  -20.4899  -41.0079   -7.6438 C   0  0  0  0  0  0  0  0  0  0  0  0
  -19.2998  -41.7193   -7.7098 C   0  0  0  0  0  0  0  0  0  0  0  0
  -19.1018  -42.8275   -6.8403 C   0  0  0  0  0  0  0  0  0  0  0  0
  -20.0349  -43.2399   -5.9237 C   0  0  0  0  0  0  0  0  0  0  0  0
  -19.7505  -44.6136   -4.8668 Cl  0  0  0  0  0  0  0  0  0  0  0  0
  -21.1417  -42.5344   -5.8987 N   0  0  0  0  0  0  0  0  0  0  0  0
  -18.1056  -41.5573   -8.5503 C   0  0  0  0  0  0  0  0  0  0  0  0
  -17.6279  -42.6919   -9.0380 O   0  0  0  0  0  0  0  0  0  0  0  0
  -17.3390  -40.4632   -8.9623 N   0  0  0  0  0  0  0  0  0  0  0  0
  1  2  1  0
  2  3  1  0
  3  4  1  1
  3  5  1  0
  5  6  1  6
  6  7  1  0
  7  8  1  0
  8  9  2  0
  9 10  1  0
 10 11  2  0
 11 12  1  0
 11 13  1  0
 13 14  1  0
 14 15  1  0
 15 16  2  0
 16 17  1  0
 17 18  1  0
 18 19  1  0
 19 20  1  0
 20 21  2  0
 21 22  1  0
 22 23  2  0
 23 24  1  0
 23 25  1  0
 21 26  1  0
 26 27  2  0
 26 28  1  0
 12  7  2  0
 25 19  2  0
 28  5  1  0
M  END
$$$$
