
     RDKit          3D

 28 30  0  0  0  0  0  0  0  0999 V2000
  -14.5453  -39.3078   -6.3168 N   0  0  0  0  0  0  0  0  0  0  0  0
  -15.2121  -39.5043   -7.5916 C   0  0  0  0  0  0  0  0  0  0  0  0
  -16.7117  -39.7231   -7.3163 C   0  0  1  0  0  0  0  0  0  0  0  0
  -16.9237  -39.4221   -5.9442 O   0  0  0  0  0  0  0  0  0  0  0  0
  -17.4785  -38.7328   -8.1275 C   0  0  2  0  0  0  0  0  0  0  0  0
  -18.6296  -38.0713   -7.4366 C   0  0  0  0  0  0  0  0  0  0  0  0
  -19.9646  -38.7283   -7.6839 C   0  0  0  0  0  0  0  0  0  0  0  0
  -20.6923  -37.9935   -8.6423 C   0  0  0  0  0  0  0  0  0  0  0  0
  -21.9643  -38.3119   -9.0475 C   0  0  0  0  0  0  0  0  0  0  0  0
  -22.4828  -39.4210   -8.4350 C   0  0  0  0  0  0  0  0  0  0  0  0
  -21.8091  -40.1959   -7.4736 C   0  0  0  0  0  0  0  0  0  0  0  0
  -20.5143  -39.8266   -7.0988 C   0  0  0  0  0  0  0  0  0  0  0  0
  -22.5564  -41.2515   -7.0149 O   0  0  0  0  0  0  0  0  0  0  0  0
  -22.5983  -42.5938   -6.8336 C   0  0  0  0  0  0  0  0  0  0  0  0
  -22.3311  -43.4094   -8.0761 C   0  0  0  0  0  0  0  0  0  0  0  0
  -21.5253  -44.2648   -8.5371 C   0  0  0  0  0  0  0  0  0  0  0  0
  -20.3019  -45.0583   -8.2111 C   0  0  0  0  0  0  0  0  0  0  0  0
  -19.2952  -44.9064   -9.2348 N   0  0  0  0  0  0  0  0  0  0  0  0
  -18.4553  -43.8011   -9.5912 C   0  0  0  0  0  0  0  0  0  0  0  0
  -18.6518  -42.4405   -9.6420 C   0  0  0  0  0  0  0  0  0  0  0  0
  -17.5769  -41.6712  -10.0658 C   0  0  0  0  0  0  0  0  0  0  0  0
  -16.3576  -42.3131  -10.4189 C   0  0  0  0  0  0  0  0  0  0  0  0
  -16.1795  -43.6718  -10.3625 C   0  0  0  0  0  0  0  0  0  0  0  0
  -14.6563  -44.4253  -10.8063 Cl  0  0  0  0  0  0  0  0  0  0  0  0
  -17.2238  -44.3546   -9.9543 N   0  0  0  0  0  0  0  0  0  0  0  0
  -17.4161  -40.2210  -10.2382 C   0  0  0  0  0  0  0  0  0  0  0  0
  -16.7954  -39.8733  -11.3550 O   0  0  0  0  0  0  0  0  0  0  0  0
  -17.7707  -39.0996   -9.4824 N   0  0  0  0  0  0  0  0  0  0  0  0
  1  2  1  0
  2  3  1  0
  3  4  1  1
  3  5  1  0
  5  6  1  1
  6  7  1  0
  7  8  1  0
  8  9  2  0
  9 10  1  0
 10 11  2  0
 11 12  1  0
 11 13  1  0
 13 14  1  0
 14 15  1  0
 15 16  2  0
 16 17  1  0
 17 18  1  0
 18 19  1  0
 19 20  1  0
 20 21  2  0
 21 22  1  0
 22 23  2  0
 23 24  1  0
 23 25  1  0
 21 26  1  0
 26 27  2  0
 26 28  1  0
 12  7  2  0
 25 19  2  0
 28  5  1  0
M  END
$$$$
