
     RDKit          3D

 28 30  0  0  0  0  0  0  0  0999 V2000
  -14.9354  -40.2524   -9.4995 N   0  0  0  0  0  0  0  0  0  0  0  0
  -15.1011  -40.7229   -8.1359 C   0  0  0  0  0  0  0  0  0  0  0  0
  -16.5185  -40.3415   -7.6690 C   0  0  1  0  0  0  0  0  0  0  0  0
  -16.3651  -39.5595   -6.4930 O   0  0  0  0  0  0  0  0  0  0  0  0
  -17.1324  -39.4768   -8.7188 C   0  0  2  0  0  0  0  0  0  0  0  0
  -17.7127  -38.1816   -8.2434 C   0  0  0  0  0  0  0  0  0  0  0  0
  -19.1940  -38.2293   -7.9629 C   0  0  0  0  0  0  0  0  0  0  0  0
  -19.9050  -37.6450   -9.0311 C   0  0  0  0  0  0  0  0  0  0  0  0
  -21.2693  -37.4966   -9.0528 C   0  0  0  0  0  0  0  0  0  0  0  0
  -21.8989  -37.9687   -7.9326 C   0  0  0  0  0  0  0  0  0  0  0  0
  -21.2480  -38.5614   -6.8355 C   0  0  0  0  0  0  0  0  0  0  0  0
  -19.8565  -38.6886   -6.8670 C   0  0  0  0  0  0  0  0  0  0  0  0
  -22.1124  -38.9441   -5.8408 O   0  0  0  0  0  0  0  0  0  0  0  0
  -22.5350  -39.9705   -5.0633 C   0  0  0  0  0  0  0  0  0  0  0  0
  -22.9674  -41.2029   -5.8214 C   0  0  0  0  0  0  0  0  0  0  0  0
  -22.6835  -42.4256   -5.9553 C   0  0  0  0  0  0  0  0  0  0  0  0
  -21.7556  -43.4998   -5.4889 C   0  0  0  0  0  0  0  0  0  0  0  0
  -21.1415  -44.1780   -6.6057 N   0  0  0  0  0  0  0  0  0  0  0  0
  -20.1456  -43.7584   -7.5470 C   0  0  0  0  0  0  0  0  0  0  0  0
  -19.8865  -42.5664   -8.1830 C   0  0  0  0  0  0  0  0  0  0  0  0
  -18.8148  -42.5510   -9.0650 C   0  0  0  0  0  0  0  0  0  0  0  0
  -18.0588  -43.7395   -9.2630 C   0  0  0  0  0  0  0  0  0  0  0  0
  -18.3319  -44.9200   -8.6203 C   0  0  0  0  0  0  0  0  0  0  0  0
  -17.3723  -46.3657   -8.8921 Cl  0  0  0  0  0  0  0  0  0  0  0  0
  -19.3528  -44.8828   -7.7959 N   0  0  0  0  0  0  0  0  0  0  0  0
  -18.2482  -41.4842   -9.9016 C   0  0  0  0  0  0  0  0  0  0  0  0
  -17.9419  -41.8652  -11.1321 O   0  0  0  0  0  0  0  0  0  0  0  0
  -17.9489  -40.1340   -9.6971 N   0  0  0  0  0  0  0  0  0  0  0  0
  1  2  1  0
  2  3  1  0
  3  4  1  1
  3  5  1  0
  5  6  1  1
  6  7  1  0
  7  8  1  0
  8  9  2  0
  9 10  1  0
 10 11  2  0
 11 12  1  0
 11 13  1  0
 13 14  1  0
 14 15  1  0
 15 16  2  0
 16 17  1  0
 17 18  1  0
 18 19  1  0
 19 20  1  0
 20 21  2  0
 21 22  1  0
 22 23  2  0
 23 24  1  0
 23 25  1  0
 21 26  1  0
 26 27  2  0
 26 28  1  0
 12  7  2  0
 25 19  2  0
 28  5  1  0
M  END
$$$$
