
     RDKit          3D

 28 30  0  0  0  0  0  0  0  0999 V2000
  -14.8672  -38.2753   -9.2213 N   0  0  0  0  0  0  0  0  0  0  0  0
  -15.7330  -37.8473   -8.1371 C   0  0  0  0  0  0  0  0  0  0  0  0
  -16.8765  -38.8712   -8.0079 C   0  0  1  0  0  0  0  0  0  0  0  0
  -17.4831  -38.6493   -6.7426 O   0  0  0  0  0  0  0  0  0  0  0  0
  -17.8883  -38.5675   -9.0618 C   0  0  2  0  0  0  0  0  0  0  0  0
  -19.0343  -37.7024   -8.6397 C   0  0  0  0  0  0  0  0  0  0  0  0
  -20.2670  -38.4637   -8.2200 C   0  0  0  0  0  0  0  0  0  0  0  0
  -21.2180  -38.4510   -9.2608 C   0  0  0  0  0  0  0  0  0  0  0  0
  -22.4633  -39.0206   -9.1676 C   0  0  0  0  0  0  0  0  0  0  0  0
  -22.7156  -39.6134   -7.9597 C   0  0  0  0  0  0  0  0  0  0  0  0
  -21.8106  -39.6606   -6.8839 C   0  0  0  0  0  0  0  0  0  0  0  0
  -20.5551  -39.0652   -7.0342 C   0  0  0  0  0  0  0  0  0  0  0  0
  -22.3149  -40.3111   -5.7860 O   0  0  0  0  0  0  0  0  0  0  0  0
  -22.1176  -41.3114   -4.8931 C   0  0  0  0  0  0  0  0  0  0  0  0
  -21.8817  -42.6708   -5.5070 C   0  0  0  0  0  0  0  0  0  0  0  0
  -21.0136  -43.5852   -5.5686 C   0  0  0  0  0  0  0  0  0  0  0  0
  -19.6476  -43.9756   -5.1060 C   0  0  0  0  0  0  0  0  0  0  0  0
  -18.8154  -44.3718   -6.2173 N   0  0  0  0  0  0  0  0  0  0  0  0
  -18.2154  -43.6166   -7.2775 C   0  0  0  0  0  0  0  0  0  0  0  0
  -18.6326  -42.5418   -8.0278 C   0  0  0  0  0  0  0  0  0  0  0  0
  -17.7571  -42.0861   -9.0039 C   0  0  0  0  0  0  0  0  0  0  0  0
  -16.5050  -42.7388   -9.1757 C   0  0  0  0  0  0  0  0  0  0  0  0
  -16.1055  -43.8101   -8.4183 C   0  0  0  0  0  0  0  0  0  0  0  0
  -14.5493  -44.5871   -8.6615 Cl  0  0  0  0  0  0  0  0  0  0  0  0
  -16.9668  -44.2017   -7.5083 N   0  0  0  0  0  0  0  0  0  0  0  0
  -17.8543  -40.9851   -9.9719 C   0  0  0  0  0  0  0  0  0  0  0  0
  -17.4432  -41.2973  -11.1912 O   0  0  0  0  0  0  0  0  0  0  0  0
  -18.2862  -39.6571   -9.9046 N   0  0  0  0  0  0  0  0  0  0  0  0
  1  2  1  0
  2  3  1  0
  3  4  1  1
  3  5  1  0
  5  6  1  1
  6  7  1  0
  7  8  1  0
  8  9  2  0
  9 10  1  0
 10 11  2  0
 11 12  1  0
 11 13  1  0
 13 14  1  0
 14 15  1  0
 15 16  2  0
 16 17  1  0
 17 18  1  0
 18 19  1  0
 19 20  1  0
 20 21  2  0
 21 22  1  0
 22 23  2  0
 23 24  1  0
 23 25  1  0
 21 26  1  0
 26 27  2  0
 26 28  1  0
 12  7  2  0
 25 19  2  0
 28  5  1  0
M  END
$$$$
