
     RDKit          3D

 28 30  0  0  0  0  0  0  0  0999 V2000
  -18.9299  -44.6631   -7.1326 N   0  0  0  0  0  0  0  0  0  0  0  0
  -19.1425  -44.3200   -8.5274 C   0  0  0  0  0  0  0  0  0  0  0  0
  -18.9508  -42.7992   -8.6786 C   0  0  1  0  0  0  0  0  0  0  0  0
  -19.6868  -42.4066   -9.8286 O   0  0  0  0  0  0  0  0  0  0  0  0
  -19.5661  -42.1368   -7.4915 C   0  0  2  0  0  0  0  0  0  0  0  0
  -20.9230  -41.5419   -7.7034 C   0  0  0  0  0  0  0  0  0  0  0  0
  -20.9124  -40.0706   -8.0356 C   0  0  0  0  0  0  0  0  0  0  0  0
  -21.2480  -39.3168   -6.8923 C   0  0  0  0  0  0  0  0  0  0  0  0
  -21.3674  -37.9495   -6.8842 C   0  0  0  0  0  0  0  0  0  0  0  0
  -21.1314  -37.3626   -8.0982 C   0  0  0  0  0  0  0  0  0  0  0  0
  -20.7926  -38.0573   -9.2735 C   0  0  0  0  0  0  0  0  0  0  0  0
  -20.6833  -39.4497   -9.2242 C   0  0  0  0  0  0  0  0  0  0  0  0
  -20.6141  -37.2301  -10.3538 O   0  0  0  0  0  0  0  0  0  0  0  0
  -19.7676  -36.8525  -11.3424 C   0  0  0  0  0  0  0  0  0  0  0  0
  -18.3968  -36.4259  -10.8738 C   0  0  0  0  0  0  0  0  0  0  0  0
  -17.1778  -36.7327  -10.9899 C   0  0  0  0  0  0  0  0  0  0  0  0
  -16.2402  -37.6969  -11.6408 C   0  0  0  0  0  0  0  0  0  0  0  0
  -15.3520  -38.2938  -10.6715 N   0  0  0  0  0  0  0  0  0  0  0  0
  -15.5799  -39.2531   -9.6314 C   0  0  0  0  0  0  0  0  0  0  0  0
  -16.6156  -39.4677   -8.7517 C   0  0  0  0  0  0  0  0  0  0  0  0
  -16.4620  -40.5133   -7.8517 C   0  0  0  0  0  0  0  0  0  0  0  0
  -15.2702  -41.2892   -7.8828 C   0  0  0  0  0  0  0  0  0  0  0  0
  -14.2471  -41.0606   -8.7671 C   0  0  0  0  0  0  0  0  0  0  0  0
  -12.7917  -42.0437   -8.7734 Cl  0  0  0  0  0  0  0  0  0  0  0  0
  -14.4408  -40.0630   -9.5980 N   0  0  0  0  0  0  0  0  0  0  0  0
  -17.3378  -41.0323   -6.7923 C   0  0  0  0  0  0  0  0  0  0  0  0
  -16.7116  -41.3118   -5.6597 O   0  0  0  0  0  0  0  0  0  0  0  0
  -18.7053  -41.3075   -6.6995 N   0  0  0  0  0  0  0  0  0  0  0  0
  1  2  1  0
  2  3  1  0
  3  4  1  6
  3  5  1  0
  5  6  1  6
  6  7  1  0
  7  8  1  0
  8  9  2  0
  9 10  1  0
 10 11  2  0
 11 12  1  0
 11 13  1  0
 13 14  1  0
 14 15  1  0
 15 16  2  0
 16 17  1  0
 17 18  1  0
 18 19  1  0
 19 20  1  0
 20 21  2  0
 21 22  1  0
 22 23  2  0
 23 24  1  0
 23 25  1  0
 21 26  1  0
 26 27  2  0
 26 28  1  0
 12  7  2  0
 25 19  2  0
 28  5  1  0
M  END
$$$$
