
     RDKit          3D

 28 30  0  0  0  0  0  0  0  0999 V2000
  -14.6284  -41.5020   -7.5675 N   0  0  0  0  0  0  0  0  0  0  0  0
  -15.2419  -40.9559   -6.3701 C   0  0  0  0  0  0  0  0  0  0  0  0
  -16.4351  -40.0827   -6.8017 C   0  0  1  0  0  0  0  0  0  0  0  0
  -16.2136  -38.7895   -6.2570 O   0  0  0  0  0  0  0  0  0  0  0  0
  -16.4063  -39.9657   -8.2890 C   0  0  2  0  0  0  0  0  0  0  0  0
  -16.4949  -38.5764   -8.8385 C   0  0  0  0  0  0  0  0  0  0  0  0
  -17.8897  -38.1447   -9.2172 C   0  0  0  0  0  0  0  0  0  0  0  0
  -18.0576  -38.2318  -10.6144 C   0  0  0  0  0  0  0  0  0  0  0  0
  -19.2046  -37.8643  -11.2724 C   0  0  0  0  0  0  0  0  0  0  0  0
  -20.1931  -37.3957  -10.4494 C   0  0  0  0  0  0  0  0  0  0  0  0
  -20.0882  -37.2850   -9.0510 C   0  0  0  0  0  0  0  0  0  0  0  0
  -18.8971  -37.6751   -8.4327 C   0  0  0  0  0  0  0  0  0  0  0  0
  -21.2224  -36.7811   -8.4655 O   0  0  0  0  0  0  0  0  0  0  0  0
  -22.1803  -36.9860   -7.5291 C   0  0  0  0  0  0  0  0  0  0  0  0
  -22.9062  -38.3052   -7.6438 C   0  0  0  0  0  0  0  0  0  0  0  0
  -23.1237  -39.3679   -6.9981 C   0  0  0  0  0  0  0  0  0  0  0  0
  -22.8354  -40.0698   -5.7110 C   0  0  0  0  0  0  0  0  0  0  0  0
  -22.3301  -41.4016   -5.9464 N   0  0  0  0  0  0  0  0  0  0  0  0
  -21.0753  -41.8702   -6.4563 C   0  0  0  0  0  0  0  0  0  0  0  0
  -20.2251  -41.4194   -7.4394 C   0  0  0  0  0  0  0  0  0  0  0  0
  -19.0802  -42.1710   -7.6656 C   0  0  0  0  0  0  0  0  0  0  0  0
  -18.8508  -43.3410   -6.8899 C   0  0  0  0  0  0  0  0  0  0  0  0
  -19.7101  -43.7760   -5.9135 C   0  0  0  0  0  0  0  0  0  0  0  0
  -19.3890  -45.2265   -4.9765 Cl  0  0  0  0  0  0  0  0  0  0  0  0
  -20.7763  -43.0309   -5.7366 N   0  0  0  0  0  0  0  0  0  0  0  0
  -17.9654  -42.0009   -8.6075 C   0  0  0  0  0  0  0  0  0  0  0  0
  -17.5883  -43.1187   -9.2087 O   0  0  0  0  0  0  0  0  0  0  0  0
  -17.1927  -40.9129   -9.0241 N   0  0  0  0  0  0  0  0  0  0  0  0
  1  2  1  0
  2  3  1  0
  3  4  1  1
  3  5  1  0
  5  6  1  1
  6  7  1  0
  7  8  1  0
  8  9  2  0
  9 10  1  0
 10 11  2  0
 11 12  1  0
 11 13  1  0
 13 14  1  0
 14 15  1  0
 15 16  2  0
 16 17  1  0
 17 18  1  0
 18 19  1  0
 19 20  1  0
 20 21  2  0
 21 22  1  0
 22 23  2  0
 23 24  1  0
 23 25  1  0
 21 26  1  0
 26 27  2  0
 26 28  1  0
 12  7  2  0
 25 19  2  0
 28  5  1  0
M  END
$$$$
