
     RDKit          3D

 28 30  0  0  0  0  0  0  0  0999 V2000
  -14.7501  -40.4899   -8.7197 N   0  0  0  0  0  0  0  0  0  0  0  0
  -15.2637  -40.9882   -7.4563 C   0  0  0  0  0  0  0  0  0  0  0  0
  -16.6691  -40.3943   -7.2456 C   0  0  1  0  0  0  0  0  0  0  0  0
  -16.5720  -39.4914   -6.1531 O   0  0  0  0  0  0  0  0  0  0  0  0
  -17.0237  -39.6065   -8.4623 C   0  0  2  0  0  0  0  0  0  0  0  0
  -17.6766  -38.2821   -8.2178 C   0  0  0  0  0  0  0  0  0  0  0  0
  -19.1838  -38.3123   -8.2696 C   0  0  0  0  0  0  0  0  0  0  0  0
  -19.6329  -37.8059   -9.5065 C   0  0  0  0  0  0  0  0  0  0  0  0
  -20.9564  -37.6615   -9.8400 C   0  0  0  0  0  0  0  0  0  0  0  0
  -21.8245  -38.0548   -8.8572 C   0  0  0  0  0  0  0  0  0  0  0  0
  -21.4406  -38.5678   -7.6050 C   0  0  0  0  0  0  0  0  0  0  0  0
  -20.0785  -38.6945   -7.3187 C   0  0  0  0  0  0  0  0  0  0  0  0
  -22.5087  -38.8809   -6.8025 O   0  0  0  0  0  0  0  0  0  0  0  0
  -23.1070  -39.8508   -6.0690 C   0  0  0  0  0  0  0  0  0  0  0  0
  -23.3783  -41.1342   -6.8171 C   0  0  0  0  0  0  0  0  0  0  0  0
  -23.0890  -42.3628   -6.8002 C   0  0  0  0  0  0  0  0  0  0  0  0
  -22.3022  -43.3999   -6.0669 C   0  0  0  0  0  0  0  0  0  0  0  0
  -21.4660  -44.1541   -6.9705 N   0  0  0  0  0  0  0  0  0  0  0  0
  -20.2809  -43.8001   -7.6945 C   0  0  0  0  0  0  0  0  0  0  0  0
  -19.8710  -42.6553   -8.3380 C   0  0  0  0  0  0  0  0  0  0  0  0
  -18.6307  -42.7002   -8.9597 C   0  0  0  0  0  0  0  0  0  0  0  0
  -17.8664  -43.8985   -8.9029 C   0  0  0  0  0  0  0  0  0  0  0  0
  -18.2912  -45.0313   -8.2568 C   0  0  0  0  0  0  0  0  0  0  0  0
  -17.3156  -46.4909   -8.2089 Cl  0  0  0  0  0  0  0  0  0  0  0  0
  -19.4685  -44.9379   -7.6835 N   0  0  0  0  0  0  0  0  0  0  0  0
  -17.8784  -41.6940   -9.7215 C   0  0  0  0  0  0  0  0  0  0  0  0
  -17.3130  -42.1601  -10.8244 O   0  0  0  0  0  0  0  0  0  0  0  0
  -17.6128  -40.3323   -9.5494 N   0  0  0  0  0  0  0  0  0  0  0  0
  1  2  1  0
  2  3  1  0
  3  4  1  1
  3  5  1  0
  5  6  1  1
  6  7  1  0
  7  8  1  0
  8  9  2  0
  9 10  1  0
 10 11  2  0
 11 12  1  0
 11 13  1  0
 13 14  1  0
 14 15  1  0
 15 16  2  0
 16 17  1  0
 17 18  1  0
 18 19  1  0
 19 20  1  0
 20 21  2  0
 21 22  1  0
 22 23  2  0
 23 24  1  0
 23 25  1  0
 21 26  1  0
 26 27  2  0
 26 28  1  0
 12  7  2  0
 25 19  2  0
 28  5  1  0
M  END
$$$$
