
     RDKit          3D

 28 30  0  0  0  0  0  0  0  0999 V2000
  -16.2602  -41.9992   -6.9435 N   0  0  0  0  0  0  0  0  0  0  0  0
  -15.3084  -40.9062   -6.8556 C   0  0  0  0  0  0  0  0  0  0  0  0
  -15.7125  -39.8380   -7.8890 C   0  0  1  0  0  0  0  0  0  0  0  0
  -14.8949  -38.7023   -7.6443 O   0  0  0  0  0  0  0  0  0  0  0  0
  -15.3788  -40.3603   -9.2464 C   0  0  2  0  0  0  0  0  0  0  0  0
  -14.2637  -39.6628   -9.9606 C   0  0  0  0  0  0  0  0  0  0  0  0
  -14.7137  -38.5807  -10.9103 C   0  0  0  0  0  0  0  0  0  0  0  0
  -14.6722  -39.0570  -12.2367 C   0  0  0  0  0  0  0  0  0  0  0  0
  -14.9800  -38.2932  -13.3347 C   0  0  0  0  0  0  0  0  0  0  0  0
  -15.3369  -37.0059  -13.0355 C   0  0  0  0  0  0  0  0  0  0  0  0
  -15.3983  -36.4713  -11.7358 C   0  0  0  0  0  0  0  0  0  0  0  0
  -15.0754  -37.2946  -10.6536 C   0  0  0  0  0  0  0  0  0  0  0  0
  -15.7798  -35.1533  -11.7147 O   0  0  0  0  0  0  0  0  0  0  0  0
  -16.6615  -34.2546  -11.2133 C   0  0  0  0  0  0  0  0  0  0  0  0
  -18.1144  -34.6023  -11.4333 C   0  0  0  0  0  0  0  0  0  0  0  0
  -19.1741  -34.8515  -10.7942 C   0  0  0  0  0  0  0  0  0  0  0  0
  -19.7426  -34.9828   -9.4187 C   0  0  0  0  0  0  0  0  0  0  0  0
  -20.4417  -36.2363   -9.2621 N   0  0  0  0  0  0  0  0  0  0  0  0
  -19.9709  -37.5870   -9.1714 C   0  0  0  0  0  0  0  0  0  0  0  0
  -18.9553  -38.2790   -9.7895 C   0  0  0  0  0  0  0  0  0  0  0  0
  -18.8151  -39.6170   -9.4474 C   0  0  0  0  0  0  0  0  0  0  0  0
  -19.7078  -40.1907   -8.5001 C   0  0  0  0  0  0  0  0  0  0  0  0
  -20.7156  -39.4853   -7.8937 C   0  0  0  0  0  0  0  0  0  0  0  0
  -21.7962  -40.2314   -6.7274 Cl  0  0  0  0  0  0  0  0  0  0  0  0
  -20.8057  -38.2247   -8.2489 N   0  0  0  0  0  0  0  0  0  0  0  0
  -17.8648  -40.6476   -9.8874 C   0  0  0  0  0  0  0  0  0  0  0  0
  -18.4190  -41.8229  -10.1418 O   0  0  0  0  0  0  0  0  0  0  0  0
  -16.4838  -40.6785  -10.1028 N   0  0  0  0  0  0  0  0  0  0  0  0
  1  2  1  0
  2  3  1  0
  3  4  1  1
  3  5  1  0
  5  6  1  6
  6  7  1  0
  7  8  1  0
  8  9  2  0
  9 10  1  0
 10 11  2  0
 11 12  1  0
 11 13  1  0
 13 14  1  0
 14 15  1  0
 15 16  2  0
 16 17  1  0
 17 18  1  0
 18 19  1  0
 19 20  1  0
 20 21  2  0
 21 22  1  0
 22 23  2  0
 23 24  1  0
 23 25  1  0
 21 26  1  0
 26 27  2  0
 26 28  1  0
 12  7  2  0
 25 19  2  0
 28  5  1  0
M  END
$$$$
