
     RDKit          3D

 28 30  0  0  0  0  0  0  0  0999 V2000
  -17.6383  -40.9902   -5.8330 N   0  0  0  0  0  0  0  0  0  0  0  0
  -17.5395  -39.5431   -5.7657 C   0  0  0  0  0  0  0  0  0  0  0  0
  -16.5970  -39.0769   -6.8912 C   0  0  1  0  0  0  0  0  0  0  0  0
  -15.5580  -38.3316   -6.2720 O   0  0  0  0  0  0  0  0  0  0  0  0
  -15.9859  -40.2884   -7.5121 C   0  0  2  0  0  0  0  0  0  0  0  0
  -14.4900  -40.3269   -7.5386 C   0  0  0  0  0  0  0  0  0  0  0  0
  -13.8775  -39.8321   -8.8252 C   0  0  0  0  0  0  0  0  0  0  0  0
  -13.4776  -40.9262   -9.6196 C   0  0  0  0  0  0  0  0  0  0  0  0
  -12.8450  -40.8022  -10.8313 C   0  0  0  0  0  0  0  0  0  0  0  0
  -12.6270  -39.5066  -11.2159 C   0  0  0  0  0  0  0  0  0  0  0  0
  -13.0017  -38.3740  -10.4705 C   0  0  0  0  0  0  0  0  0  0  0  0
  -13.6446  -38.5587   -9.2433 C   0  0  0  0  0  0  0  0  0  0  0  0
  -12.6620  -37.1929  -11.0809 O   0  0  0  0  0  0  0  0  0  0  0  0
  -13.1169  -35.9988  -11.5323 C   0  0  0  0  0  0  0  0  0  0  0  0
  -14.2763  -36.0860  -12.4959 C   0  0  0  0  0  0  0  0  0  0  0  0
  -15.4806  -35.7287  -12.6210 C   0  0  0  0  0  0  0  0  0  0  0  0
  -16.5913  -34.9962  -11.9412 C   0  0  0  0  0  0  0  0  0  0  0  0
  -17.7915  -35.7975  -11.8953 N   0  0  0  0  0  0  0  0  0  0  0  0
  -18.1303  -36.9666  -11.1387 C   0  0  0  0  0  0  0  0  0  0  0  0
  -17.4227  -38.0801  -10.7490 C   0  0  0  0  0  0  0  0  0  0  0  0
  -18.1171  -39.0360  -10.0203 C   0  0  0  0  0  0  0  0  0  0  0  0
  -19.4914  -38.8218   -9.7227 C   0  0  0  0  0  0  0  0  0  0  0  0
  -20.1815  -37.7052  -10.1200 C   0  0  0  0  0  0  0  0  0  0  0  0
  -21.8790  -37.4783   -9.7303 Cl  0  0  0  0  0  0  0  0  0  0  0  0
  -19.4809  -36.8308  -10.8041 N   0  0  0  0  0  0  0  0  0  0  0  0
  -17.7020  -40.3217   -9.4429 C   0  0  0  0  0  0  0  0  0  0  0  0
  -18.5702  -41.3043   -9.6272 O   0  0  0  0  0  0  0  0  0  0  0  0
  -16.5828  -40.7585   -8.7280 N   0  0  0  0  0  0  0  0  0  0  0  0
  1  2  1  0
  2  3  1  0
  3  4  1  1
  3  5  1  0
  5  6  1  6
  6  7  1  0
  7  8  1  0
  8  9  2  0
  9 10  1  0
 10 11  2  0
 11 12  1  0
 11 13  1  0
 13 14  1  0
 14 15  1  0
 15 16  2  0
 16 17  1  0
 17 18  1  0
 18 19  1  0
 19 20  1  0
 20 21  2  0
 21 22  1  0
 22 23  2  0
 23 24  1  0
 23 25  1  0
 21 26  1  0
 26 27  2  0
 26 28  1  0
 12  7  2  0
 25 19  2  0
 28  5  1  0
M  END
$$$$
