
     RDKit          3D

 28 30  0  0  0  0  0  0  0  0999 V2000
  -14.1451  -40.1013   -7.7441 N   0  0  0  0  0  0  0  0  0  0  0  0
  -15.2076  -40.6168   -6.8993 C   0  0  0  0  0  0  0  0  0  0  0  0
  -16.4685  -39.7679   -7.1480 C   0  0  1  0  0  0  0  0  0  0  0  0
  -16.4355  -38.7019   -6.2095 O   0  0  0  0  0  0  0  0  0  0  0  0
  -16.3656  -39.1793   -8.5153 C   0  0  2  0  0  0  0  0  0  0  0  0
  -16.7412  -37.7356   -8.6369 C   0  0  0  0  0  0  0  0  0  0  0  0
  -18.1689  -37.4978   -9.0616 C   0  0  0  0  0  0  0  0  0  0  0  0
  -18.2146  -37.1669  -10.4314 C   0  0  0  0  0  0  0  0  0  0  0  0
  -19.3677  -36.8492  -11.1046 C   0  0  0  0  0  0  0  0  0  0  0  0
  -20.4933  -36.8781  -10.3259 C   0  0  0  0  0  0  0  0  0  0  0  0
  -20.5143  -37.2004   -8.9568 C   0  0  0  0  0  0  0  0  0  0  0  0
  -19.3104  -37.5175   -8.3217 C   0  0  0  0  0  0  0  0  0  0  0  0
  -21.7730  -37.1505   -8.4126 O   0  0  0  0  0  0  0  0  0  0  0  0
  -22.7178  -37.8330   -7.7213 C   0  0  0  0  0  0  0  0  0  0  0  0
  -23.1023  -39.1649   -8.3202 C   0  0  0  0  0  0  0  0  0  0  0  0
  -23.1070  -40.3988   -8.0538 C   0  0  0  0  0  0  0  0  0  0  0  0
  -22.7509  -41.4008   -7.0042 C   0  0  0  0  0  0  0  0  0  0  0  0
  -21.9305  -42.4563   -7.5495 N   0  0  0  0  0  0  0  0  0  0  0  0
  -20.5684  -42.4732   -7.9951 C   0  0  0  0  0  0  0  0  0  0  0  0
  -19.7828  -41.5700   -8.6729 C   0  0  0  0  0  0  0  0  0  0  0  0
  -18.4801  -41.9617   -8.9492 C   0  0  0  0  0  0  0  0  0  0  0  0
  -18.0353  -43.2459   -8.5294 C   0  0  0  0  0  0  0  0  0  0  0  0
  -18.8330  -44.1343   -7.8545 C   0  0  0  0  0  0  0  0  0  0  0  0
  -18.2443  -45.7110   -7.3522 Cl  0  0  0  0  0  0  0  0  0  0  0  0
  -20.0545  -43.7168   -7.6158 N   0  0  0  0  0  0  0  0  0  0  0  0
  -17.3745  -41.2779   -9.6341 C   0  0  0  0  0  0  0  0  0  0  0  0
  -16.7038  -42.0447  -10.4799 O   0  0  0  0  0  0  0  0  0  0  0  0
  -16.8535  -39.9811   -9.5992 N   0  0  0  0  0  0  0  0  0  0  0  0
  1  2  1  0
  2  3  1  0
  3  4  1  1
  3  5  1  0
  5  6  1  1
  6  7  1  0
  7  8  1  0
  8  9  2  0
  9 10  1  0
 10 11  2  0
 11 12  1  0
 11 13  1  0
 13 14  1  0
 14 15  1  0
 15 16  2  0
 16 17  1  0
 17 18  1  0
 18 19  1  0
 19 20  1  0
 20 21  2  0
 21 22  1  0
 22 23  2  0
 23 24  1  0
 23 25  1  0
 21 26  1  0
 26 27  2  0
 26 28  1  0
 12  7  2  0
 25 19  2  0
 28  5  1  0
M  END
$$$$
