
     RDKit          3D

 28 30  0  0  0  0  0  0  0  0999 V2000
  -18.2944  -43.8728   -6.4686 N   0  0  0  0  0  0  0  0  0  0  0  0
  -18.6167  -43.9425   -7.8826 C   0  0  0  0  0  0  0  0  0  0  0  0
  -18.7439  -42.5024   -8.4140 C   0  0  1  0  0  0  0  0  0  0  0  0
  -19.6003  -42.5584   -9.5461 O   0  0  0  0  0  0  0  0  0  0  0  0
  -19.4202  -41.6827   -7.3665 C   0  0  2  0  0  0  0  0  0  0  0  0
  -20.7609  -41.1278   -7.7334 C   0  0  0  0  0  0  0  0  0  0  0  0
  -20.7258  -39.7173   -8.2669 C   0  0  0  0  0  0  0  0  0  0  0  0
  -21.1202  -38.8123   -7.2602 C   0  0  0  0  0  0  0  0  0  0  0  0
  -21.2339  -37.4577   -7.4497 C   0  0  0  0  0  0  0  0  0  0  0  0
  -20.9294  -37.0454   -8.7192 C   0  0  0  0  0  0  0  0  0  0  0  0
  -20.5299  -37.8964   -9.7655 C   0  0  0  0  0  0  0  0  0  0  0  0
  -20.4294  -39.2679   -9.5162 C   0  0  0  0  0  0  0  0  0  0  0  0
  -20.2891  -37.2277  -10.9394 O   0  0  0  0  0  0  0  0  0  0  0  0
  -19.3881  -36.9891  -11.9232 C   0  0  0  0  0  0  0  0  0  0  0  0
  -18.0432  -36.4966  -11.4445 C   0  0  0  0  0  0  0  0  0  0  0  0
  -16.8210  -36.8125  -11.4497 C   0  0  0  0  0  0  0  0  0  0  0  0
  -15.8534  -37.8551  -11.9072 C   0  0  0  0  0  0  0  0  0  0  0  0
  -15.0221  -38.3076  -10.8169 N   0  0  0  0  0  0  0  0  0  0  0  0
  -15.3107  -39.1129   -9.6670 C   0  0  0  0  0  0  0  0  0  0  0  0
  -16.3938  -39.2059   -8.8240 C   0  0  0  0  0  0  0  0  0  0  0  0
  -16.2941  -40.1150   -7.7797 C   0  0  0  0  0  0  0  0  0  0  0  0
  -15.1058  -40.8837   -7.6368 C   0  0  0  0  0  0  0  0  0  0  0  0
  -14.0349  -40.7774   -8.4870 C   0  0  0  0  0  0  0  0  0  0  0  0
  -12.5855  -41.7468   -8.2762 Cl  0  0  0  0  0  0  0  0  0  0  0  0
  -14.1786  -39.9063   -9.4586 N   0  0  0  0  0  0  0  0  0  0  0  0
  -17.2288  -40.4838   -6.7077 C   0  0  0  0  0  0  0  0  0  0  0  0
  -16.6666  -40.6001   -5.5145 O   0  0  0  0  0  0  0  0  0  0  0  0
  -18.6005  -40.7480   -6.6523 N   0  0  0  0  0  0  0  0  0  0  0  0
  1  2  1  0
  2  3  1  0
  3  4  1  6
  3  5  1  0
  5  6  1  6
  6  7  1  0
  7  8  1  0
  8  9  2  0
  9 10  1  0
 10 11  2  0
 11 12  1  0
 11 13  1  0
 13 14  1  0
 14 15  1  0
 15 16  2  0
 16 17  1  0
 17 18  1  0
 18 19  1  0
 19 20  1  0
 20 21  2  0
 21 22  1  0
 22 23  2  0
 23 24  1  0
 23 25  1  0
 21 26  1  0
 26 27  2  0
 26 28  1  0
 12  7  2  0
 25 19  2  0
 28  5  1  0
M  END
$$$$
