
     RDKit          3D

 28 30  0  0  0  0  0  0  0  0999 V2000
  -14.0568  -40.5330   -7.4590 N   0  0  0  0  0  0  0  0  0  0  0  0
  -14.6891  -39.6582   -8.4302 C   0  0  0  0  0  0  0  0  0  0  0  0
  -16.1792  -39.5338   -8.0605 C   0  0  1  0  0  0  0  0  0  0  0  0
  -16.2461  -38.7146   -6.9018 O   0  0  0  0  0  0  0  0  0  0  0  0
  -16.8711  -38.8162   -9.1709 C   0  0  2  0  0  0  0  0  0  0  0  0
  -17.8050  -37.7207   -8.7611 C   0  0  0  0  0  0  0  0  0  0  0  0
  -19.2489  -38.1428   -8.6508 C   0  0  0  0  0  0  0  0  0  0  0  0
  -19.9621  -37.7203   -9.7913 C   0  0  0  0  0  0  0  0  0  0  0  0
  -21.3094  -37.9141   -9.9674 C   0  0  0  0  0  0  0  0  0  0  0  0
  -21.9196  -38.5620   -8.9272 C   0  0  0  0  0  0  0  0  0  0  0  0
  -21.2653  -39.0085   -7.7649 C   0  0  0  0  0  0  0  0  0  0  0  0
  -19.8913  -38.7857   -7.6385 C   0  0  0  0  0  0  0  0  0  0  0  0
  -22.1101  -39.6241   -6.8758 O   0  0  0  0  0  0  0  0  0  0  0  0
  -22.3452  -40.7468   -6.1541 C   0  0  0  0  0  0  0  0  0  0  0  0
  -22.3705  -42.0238   -6.9596 C   0  0  0  0  0  0  0  0  0  0  0  0
  -21.7772  -43.1332   -7.0637 C   0  0  0  0  0  0  0  0  0  0  0  0
  -20.6671  -43.9577   -6.4977 C   0  0  0  0  0  0  0  0  0  0  0  0
  -19.7848  -44.4277   -7.5394 N   0  0  0  0  0  0  0  0  0  0  0  0
  -18.8285  -43.7453   -8.3604 C   0  0  0  0  0  0  0  0  0  0  0  0
  -18.8076  -42.5072   -8.9596 C   0  0  0  0  0  0  0  0  0  0  0  0
  -17.6839  -42.1993   -9.7142 C   0  0  0  0  0  0  0  0  0  0  0  0
  -16.6380  -43.1567   -9.8282 C   0  0  0  0  0  0  0  0  0  0  0  0
  -16.6760  -44.3872   -9.2238 C   0  0  0  0  0  0  0  0  0  0  0  0
  -15.3620  -45.5408   -9.3886 Cl  0  0  0  0  0  0  0  0  0  0  0  0
  -17.7577  -44.6298   -8.5206 N   0  0  0  0  0  0  0  0  0  0  0  0
  -17.3138  -41.0000  -10.4781 C   0  0  0  0  0  0  0  0  0  0  0  0
  -16.7894  -41.2549  -11.6669 O   0  0  0  0  0  0  0  0  0  0  0  0
  -17.3855  -39.6248  -10.2374 N   0  0  0  0  0  0  0  0  0  0  0  0
  1  2  1  0
  2  3  1  0
  3  4  1  1
  3  5  1  0
  5  6  1  1
  6  7  1  0
  7  8  1  0
  8  9  2  0
  9 10  1  0
 10 11  2  0
 11 12  1  0
 11 13  1  0
 13 14  1  0
 14 15  1  0
 15 16  2  0
 16 17  1  0
 17 18  1  0
 18 19  1  0
 19 20  1  0
 20 21  2  0
 21 22  1  0
 22 23  2  0
 23 24  1  0
 23 25  1  0
 21 26  1  0
 26 27  2  0
 26 28  1  0
 12  7  2  0
 25 19  2  0
 28  5  1  0
M  END
$$$$
