
     RDKit          3D

 38 39  0  0  0  0  0  0  0  0999 V2000
  -20.0540  -38.6044   -5.1473 C   0  0  0  0  0  0  0  0  0  0  0  0
  -19.5909  -38.4892   -6.5597 C   0  0  2  0  0  0  0  0  0  0  0  0
  -20.6268  -38.8671   -7.5474 C   0  0  0  0  0  0  0  0  0  0  0  0
  -21.8002  -39.6032   -6.9560 C   0  0  0  0  0  0  0  0  0  0  0  0
  -23.1151  -38.8741   -7.1724 C   0  0  0  0  0  0  0  0  0  0  0  0
  -24.0429  -39.8167   -7.9479 C   0  0  0  0  0  0  0  0  0  0  0  0
  -23.3889  -40.3286   -9.2099 C   0  0  0  0  0  0  0  0  0  0  0  0
  -23.4722  -41.8296   -9.2060 C   0  0  0  0  0  0  0  0  0  0  0  0
  -22.5747  -42.4943  -10.2036 C   0  0  0  0  0  0  0  0  0  0  0  0
  -21.1218  -42.4705   -9.8664 C   0  0  0  0  0  0  0  0  0  0  0  0
  -20.6705  -43.5902   -9.0281 C   0  0  0  0  0  0  0  0  0  0  0  0
  -20.7302  -44.7584   -9.5452 O   0  0  0  0  0  0  0  0  0  0  0  0
  -20.1773  -43.5170   -7.7119 N   0  0  0  0  0  0  0  0  0  0  0  0
  -20.5640  -44.4983   -6.7139 C   0  0  0  0  0  0  0  0  0  0  0  0
  -19.2556  -42.4698   -7.2403 C   0  0  1  0  0  0  0  0  0  0  0  0
  -18.2931  -43.1899   -6.2838 C   0  0  0  0  0  0  0  0  0  0  0  0
  -18.4191  -41.9502   -8.3236 C   0  0  0  0  0  0  0  0  0  0  0  0
  -17.7502  -42.8750   -8.9253 O   0  0  0  0  0  0  0  0  0  0  0  0
  -18.2439  -40.6508   -8.7863 N   0  0  0  0  0  0  0  0  0  0  0  0
  -17.8709  -39.4524   -8.1072 C   0  0  1  0  0  0  0  0  0  0  0  0
  -18.2943  -39.3044   -6.6923 C   0  0  0  0  0  0  0  0  0  0  0  0
  -16.3965  -39.1621   -8.3212 C   0  0  2  0  0  0  0  0  0  0  0  0
  -15.8621  -38.7411   -7.1156 O   0  0  0  0  0  0  0  0  0  0  0  0
  -16.1449  -38.1456   -9.3995 C   0  0  0  0  0  0  0  0  0  0  0  0
  -16.1670  -38.8512  -10.6688 N   0  0  0  0  0  0  0  0  0  0  0  0
  -15.8999  -37.9332  -11.7425 C   0  0  0  0  0  0  0  0  0  0  0  0
  -16.7137  -36.6592  -11.5795 C   0  0  0  0  0  0  0  0  0  0  0  0
  -16.2839  -38.5027  -13.1050 C   0  0  0  0  0  0  0  0  0  0  0  0
  -14.4328  -37.6268  -11.8177 C   0  0  0  0  0  0  0  0  0  0  0  0
  -13.8054  -36.4583  -11.8455 N   0  0  0  0  0  0  0  0  0  0  0  0
  -12.5453  -36.4179  -11.9107 N   0  0  0  0  0  0  0  0  0  0  0  0
  -11.8463  -37.5478  -11.9514 C   0  0  0  0  0  0  0  0  0  0  0  0
  -10.3554  -37.7326  -12.0294 C   0  0  0  0  0  0  0  0  0  0  0  0
  -10.0158  -39.2206  -11.9945 C   0  0  0  0  0  0  0  0  0  0  0  0
  -10.7955  -39.9651  -13.0573 C   0  0  0  0  0  0  0  0  0  0  0  0
   -8.5472  -39.3509  -12.3363 C   0  0  0  0  0  0  0  0  0  0  0  0
  -10.3001  -39.7968  -10.6224 C   0  0  0  0  0  0  0  0  0  0  0  0
  -13.1170  -38.7101  -11.8902 S   0  0  0  0  0  0  0  0  0  0  0  0
  2  1  1  1
  2  3  1  0
  3  4  1  0
  4  5  1  0
  5  6  1  0
  6  7  1  0
  7  8  1  0
  8  9  1  0
  9 10  1  0
 10 11  1  0
 11 12  2  0
 11 13  1  0
 13 14  1  0
 13 15  1  0
 15 16  1  1
 15 17  1  0
 17 18  2  0
 17 19  1  0
 19 20  1  0
 20 21  1  1
 20 22  1  0
 22 23  1  1
 22 24  1  0
 24 25  1  0
 25 26  1  0
 26 27  1  0
 26 28  1  0
 26 29  1  0
 29 30  2  0
 30 31  1  0
 31 32  2  0
 32 33  1  0
 33 34  1  0
 34 35  1  0
 34 36  1  0
 34 37  1  0
 32 38  1  0
 21  2  1  0
 38 29  1  0
M  END
$$$$
