
     RDKit          3D

 38 39  0  0  0  0  0  0  0  0999 V2000
  -19.6594  -40.2396   -4.4361 C   0  0  0  0  0  0  0  0  0  0  0  0
  -19.1265  -39.5696   -5.6567 C   0  0  2  0  0  0  0  0  0  0  0  0
  -20.1296  -39.4399   -6.7377 C   0  0  0  0  0  0  0  0  0  0  0  0
  -21.3583  -40.2884   -6.5408 C   0  0  0  0  0  0  0  0  0  0  0  0
  -22.6310  -39.4628   -6.4636 C   0  0  0  0  0  0  0  0  0  0  0  0
  -23.5590  -39.9397   -7.5870 C   0  0  0  0  0  0  0  0  0  0  0  0
  -22.8680  -39.9120   -8.9302 C   0  0  0  0  0  0  0  0  0  0  0  0
  -23.0123  -41.2692   -9.5603 C   0  0  0  0  0  0  0  0  0  0  0  0
  -22.0968  -41.5044  -10.7219 C   0  0  0  0  0  0  0  0  0  0  0  0
  -20.6615  -41.7062  -10.3692 C   0  0  0  0  0  0  0  0  0  0  0  0
  -20.2957  -43.0976  -10.0687 C   0  0  0  0  0  0  0  0  0  0  0  0
  -20.3786  -43.9363  -11.0306 O   0  0  0  0  0  0  0  0  0  0  0  0
  -19.8621  -43.6105   -8.8318 N   0  0  0  0  0  0  0  0  0  0  0  0
  -20.3345  -44.8960   -8.3495 C   0  0  0  0  0  0  0  0  0  0  0  0
  -18.9217  -42.9110   -7.9402 C   0  0  1  0  0  0  0  0  0  0  0  0
  -18.0350  -44.0187   -7.3513 C   0  0  0  0  0  0  0  0  0  0  0  0
  -18.0150  -42.0336   -8.6827 C   0  0  0  0  0  0  0  0  0  0  0  0
  -17.3568  -42.6574   -9.6004 O   0  0  0  0  0  0  0  0  0  0  0  0
  -17.7657  -40.6721   -8.5512 N   0  0  0  0  0  0  0  0  0  0  0  0
  -17.3766  -39.8916   -7.4217 C   0  0  1  0  0  0  0  0  0  0  0  0
  -17.8593  -40.3262   -6.0870 C   0  0  0  0  0  0  0  0  0  0  0  0
  -15.8832  -39.6221   -7.4562 C   0  0  2  0  0  0  0  0  0  0  0  0
  -15.6838  -38.2752   -7.2063 O   0  0  0  0  0  0  0  0  0  0  0  0
  -15.2401  -40.0242   -8.7540 C   0  0  0  0  0  0  0  0  0  0  0  0
  -13.8408  -40.2942   -8.4745 N   0  0  0  0  0  0  0  0  0  0  0  0
  -13.1134  -40.4271   -9.7076 C   0  0  0  0  0  0  0  0  0  0  0  0
  -13.8675  -41.3122  -10.6873 C   0  0  0  0  0  0  0  0  0  0  0  0
  -11.7511  -41.0860   -9.5122 C   0  0  0  0  0  0  0  0  0  0  0  0
  -12.8413  -39.0772  -10.3039 C   0  0  0  0  0  0  0  0  0  0  0  0
  -11.6941  -38.5230  -10.6736 N   0  0  0  0  0  0  0  0  0  0  0  0
  -11.6818  -37.3588  -11.1614 N   0  0  0  0  0  0  0  0  0  0  0  0
  -12.8199  -36.6872  -11.3048 C   0  0  0  0  0  0  0  0  0  0  0  0
  -13.0365  -35.3045  -11.8564 C   0  0  0  0  0  0  0  0  0  0  0  0
  -13.7202  -35.3919  -13.2186 C   0  0  0  0  0  0  0  0  0  0  0  0
  -14.5666  -36.6440  -13.3052 C   0  0  0  0  0  0  0  0  0  0  0  0
  -14.6544  -34.2060  -13.3256 C   0  0  0  0  0  0  0  0  0  0  0  0
  -12.6911  -35.3657  -14.3303 C   0  0  0  0  0  0  0  0  0  0  0  0
  -13.9468  -37.8363  -10.6890 S   0  0  0  0  0  0  0  0  0  0  0  0
  2  1  1  1
  2  3  1  0
  3  4  1  0
  4  5  1  0
  5  6  1  0
  6  7  1  0
  7  8  1  0
  8  9  1  0
  9 10  1  0
 10 11  1  0
 11 12  2  0
 11 13  1  0
 13 14  1  0
 13 15  1  0
 15 16  1  6
 15 17  1  0
 17 18  2  0
 17 19  1  0
 19 20  1  0
 20 21  1  1
 20 22  1  0
 22 23  1  6
 22 24  1  0
 24 25  1  0
 25 26  1  0
 26 27  1  0
 26 28  1  0
 26 29  1  0
 29 30  2  0
 30 31  1  0
 31 32  2  0
 32 33  1  0
 33 34  1  0
 34 35  1  0
 34 36  1  0
 34 37  1  0
 32 38  1  0
 21  2  1  0
 38 29  1  0
M  END
$$$$
