
     RDKit          3D

 38 39  0  0  0  0  0  0  0  0999 V2000
  -19.8694  -38.7062   -4.6973 C   0  0  0  0  0  0  0  0  0  0  0  0
  -19.2397  -38.8106   -6.0447 C   0  0  2  0  0  0  0  0  0  0  0  0
  -20.1703  -39.2947   -7.0892 C   0  0  0  0  0  0  0  0  0  0  0  0
  -21.4388  -39.9008   -6.5489 C   0  0  0  0  0  0  0  0  0  0  0  0
  -22.6828  -39.1700   -7.0242 C   0  0  0  0  0  0  0  0  0  0  0  0
  -23.5582  -40.1853   -7.7682 C   0  0  0  0  0  0  0  0  0  0  0  0
  -22.7869  -40.8942   -8.8567 C   0  0  0  0  0  0  0  0  0  0  0  0
  -22.9424  -42.3755   -8.6536 C   0  0  0  0  0  0  0  0  0  0  0  0
  -21.9678  -43.2049   -9.4313 C   0  0  0  0  0  0  0  0  0  0  0  0
  -20.5647  -43.1780   -8.9254 C   0  0  0  0  0  0  0  0  0  0  0  0
  -20.2689  -44.1784   -7.8902 C   0  0  0  0  0  0  0  0  0  0  0  0
  -20.3242  -45.4066   -8.2425 O   0  0  0  0  0  0  0  0  0  0  0  0
  -19.9297  -43.9314   -6.5467 N   0  0  0  0  0  0  0  0  0  0  0  0
  -20.4771  -44.7457   -5.4764 C   0  0  0  0  0  0  0  0  0  0  0  0
  -19.0199  -42.8562   -6.1167 C   0  0  1  0  0  0  0  0  0  0  0  0
  -18.2114  -43.4604   -4.9585 C   0  0  0  0  0  0  0  0  0  0  0  0
  -18.0385  -42.5248   -7.1514 C   0  0  0  0  0  0  0  0  0  0  0  0
  -17.3494  -43.5471   -7.5316 O   0  0  0  0  0  0  0  0  0  0  0  0
  -17.7480  -41.3120   -7.7660 N   0  0  0  0  0  0  0  0  0  0  0  0
  -17.3994  -40.0403   -7.2203 C   0  0  1  0  0  0  0  0  0  0  0  0
  -17.9773  -39.6764   -5.9025 C   0  0  0  0  0  0  0  0  0  0  0  0
  -15.8978  -39.8300   -7.2907 C   0  0  2  0  0  0  0  0  0  0  0  0
  -15.4044  -39.8191   -5.9974 O   0  0  0  0  0  0  0  0  0  0  0  0
  -15.5107  -38.5735   -8.0193 C   0  0  0  0  0  0  0  0  0  0  0  0
  -15.4482  -38.8987   -9.4333 N   0  0  0  0  0  0  0  0  0  0  0  0
  -14.0860  -38.8360   -9.8891 C   0  0  0  0  0  0  0  0  0  0  0  0
  -13.3085  -40.0627   -9.4388 C   0  0  0  0  0  0  0  0  0  0  0  0
  -13.3364  -37.6344   -9.3213 C   0  0  0  0  0  0  0  0  0  0  0  0
  -14.0388  -38.6890  -11.3817 C   0  0  0  0  0  0  0  0  0  0  0  0
  -14.9692  -38.9389  -12.2938 N   0  0  0  0  0  0  0  0  0  0  0  0
  -14.7246  -38.7451  -13.5169 N   0  0  0  0  0  0  0  0  0  0  0  0
  -13.5332  -38.2900  -13.8916 C   0  0  0  0  0  0  0  0  0  0  0  0
  -13.0307  -37.9905  -15.2775 C   0  0  0  0  0  0  0  0  0  0  0  0
  -12.9408  -36.4801  -15.4804 C   0  0  0  0  0  0  0  0  0  0  0  0
  -12.1192  -36.1607  -16.7111 C   0  0  0  0  0  0  0  0  0  0  0  0
  -14.3467  -35.9795  -15.7324 C   0  0  0  0  0  0  0  0  0  0  0  0
  -12.3467  -35.8156  -14.2551 C   0  0  0  0  0  0  0  0  0  0  0  0
  -12.7522  -38.1471  -12.3622 S   0  0  0  0  0  0  0  0  0  0  0  0
  2  1  1  1
  2  3  1  0
  3  4  1  0
  4  5  1  0
  5  6  1  0
  6  7  1  0
  7  8  1  0
  8  9  1  0
  9 10  1  0
 10 11  1  0
 11 12  2  0
 11 13  1  0
 13 14  1  0
 13 15  1  0
 15 16  1  1
 15 17  1  0
 17 18  2  0
 17 19  1  0
 19 20  1  0
 20 21  1  1
 20 22  1  0
 22 23  1  1
 22 24  1  0
 24 25  1  0
 25 26  1  0
 26 27  1  0
 26 28  1  0
 26 29  1  0
 29 30  2  0
 30 31  1  0
 31 32  2  0
 32 33  1  0
 33 34  1  0
 34 35  1  0
 34 36  1  0
 34 37  1  0
 32 38  1  0
 21  2  1  0
 38 29  1  0
M  END
$$$$
