
     RDKit          3D

 38 39  0  0  0  0  0  0  0  0999 V2000
  -19.3697  -39.6757   -4.9029 C   0  0  0  0  0  0  0  0  0  0  0  0
  -18.9938  -39.0431   -6.1996 C   0  0  2  0  0  0  0  0  0  0  0  0
  -20.0103  -39.2327   -7.2591 C   0  0  0  0  0  0  0  0  0  0  0  0
  -21.0383  -40.2869   -6.9426 C   0  0  0  0  0  0  0  0  0  0  0  0
  -22.4522  -39.7324   -6.9127 C   0  0  0  0  0  0  0  0  0  0  0  0
  -23.2716  -40.5020   -7.9553 C   0  0  0  0  0  0  0  0  0  0  0  0
  -22.6108  -40.4756   -9.3136 C   0  0  0  0  0  0  0  0  0  0  0  0
  -22.4796  -41.8922   -9.7993 C   0  0  0  0  0  0  0  0  0  0  0  0
  -21.5441  -42.0574  -10.9570 C   0  0  0  0  0  0  0  0  0  0  0  0
  -20.0952  -41.9266  -10.6269 C   0  0  0  0  0  0  0  0  0  0  0  0
  -19.4508  -43.1760  -10.1983 C   0  0  0  0  0  0  0  0  0  0  0  0
  -19.3678  -44.1100  -11.0679 O   0  0  0  0  0  0  0  0  0  0  0  0
  -18.9124  -43.4585   -8.9288 N   0  0  0  0  0  0  0  0  0  0  0  0
  -19.1087  -44.7553   -8.3061 C   0  0  0  0  0  0  0  0  0  0  0  0
  -18.1280  -42.4939   -8.1395 C   0  0  1  0  0  0  0  0  0  0  0  0
  -17.0295  -43.3316   -7.4675 C   0  0  0  0  0  0  0  0  0  0  0  0
  -17.4251  -41.5337   -8.9923 C   0  0  0  0  0  0  0  0  0  0  0  0
  -16.6602  -42.1039   -9.8609 O   0  0  0  0  0  0  0  0  0  0  0  0
  -17.4582  -40.1438   -9.0059 N   0  0  0  0  0  0  0  0  0  0  0  0
  -17.2282  -39.1870   -7.9724 C   0  0  1  0  0  0  0  0  0  0  0  0
  -17.6021  -39.5683   -6.5875 C   0  0  0  0  0  0  0  0  0  0  0  0
  -15.8216  -38.6261   -8.0766 C   0  0  2  0  0  0  0  0  0  0  0  0
  -15.6382  -37.7304   -7.0371 O   0  0  0  0  0  0  0  0  0  0  0  0
  -15.5436  -37.9703   -9.4003 C   0  0  0  0  0  0  0  0  0  0  0  0
  -14.4994  -38.7419  -10.0511 N   0  0  0  0  0  0  0  0  0  0  0  0
  -13.6327  -37.8648  -10.7902 C   0  0  0  0  0  0  0  0  0  0  0  0
  -12.3072  -37.6803  -10.0683 C   0  0  0  0  0  0  0  0  0  0  0  0
  -14.2193  -36.4654  -10.9507 C   0  0  0  0  0  0  0  0  0  0  0  0
  -13.4183  -38.3884  -12.1801 C   0  0  0  0  0  0  0  0  0  0  0  0
  -13.0326  -39.5899  -12.5894 N   0  0  0  0  0  0  0  0  0  0  0  0
  -12.9119  -39.8298  -13.8228 N   0  0  0  0  0  0  0  0  0  0  0  0
  -13.1716  -38.8771  -14.7128 C   0  0  0  0  0  0  0  0  0  0  0  0
  -13.0948  -38.9418  -16.2137 C   0  0  0  0  0  0  0  0  0  0  0  0
  -11.8598  -38.1886  -16.7018 C   0  0  0  0  0  0  0  0  0  0  0  0
  -12.1023  -36.6949  -16.6616 C   0  0  0  0  0  0  0  0  0  0  0  0
  -10.7397  -38.4915  -15.7300 C   0  0  0  0  0  0  0  0  0  0  0  0
  -11.4886  -38.6313  -18.1025 C   0  0  0  0  0  0  0  0  0  0  0  0
  -13.6113  -37.5784  -13.6690 S   0  0  0  0  0  0  0  0  0  0  0  0
  2  1  1  1
  2  3  1  0
  3  4  1  0
  4  5  1  0
  5  6  1  0
  6  7  1  0
  7  8  1  0
  8  9  1  0
  9 10  1  0
 10 11  1  0
 11 12  2  0
 11 13  1  0
 13 14  1  0
 13 15  1  0
 15 16  1  6
 15 17  1  0
 17 18  2  0
 17 19  1  0
 19 20  1  0
 20 21  1  1
 20 22  1  0
 22 23  1  1
 22 24  1  0
 24 25  1  0
 25 26  1  0
 26 27  1  0
 26 28  1  0
 26 29  1  0
 29 30  2  0
 30 31  1  0
 31 32  2  0
 32 33  1  0
 33 34  1  0
 34 35  1  0
 34 36  1  0
 34 37  1  0
 32 38  1  0
 21  2  1  0
 38 29  1  0
M  END
$$$$
