
     RDKit          3D

 38 39  0  0  0  0  0  0  0  0999 V2000
  -16.2240  -40.7745  -13.3067 C   0  0  0  0  0  0  0  0  0  0  0  0
  -15.4703  -40.8510  -12.0226 C   0  0  2  0  0  0  0  0  0  0  0  0
  -14.9119  -42.1950  -11.7516 C   0  0  0  0  0  0  0  0  0  0  0  0
  -15.4820  -43.2841  -12.6216 C   0  0  0  0  0  0  0  0  0  0  0  0
  -14.4205  -43.9790  -13.4569 C   0  0  0  0  0  0  0  0  0  0  0  0
  -14.4502  -45.4685  -13.0944 C   0  0  0  0  0  0  0  0  0  0  0  0
  -14.3221  -45.6820  -11.6043 C   0  0  0  0  0  0  0  0  0  0  0  0
  -15.4645  -46.5494  -11.1546 C   0  0  0  0  0  0  0  0  0  0  0  0
  -15.6732  -46.5654   -9.6717 C   0  0  0  0  0  0  0  0  0  0  0  0
  -16.2583  -45.3185   -9.0988 C   0  0  0  0  0  0  0  0  0  0  0  0
  -17.7275  -45.2790   -9.0939 C   0  0  0  0  0  0  0  0  0  0  0  0
  -18.3249  -46.1322   -8.3518 O   0  0  0  0  0  0  0  0  0  0  0  0
  -18.5529  -44.4005   -9.8205 N   0  0  0  0  0  0  0  0  0  0  0  0
  -19.7663  -44.8745  -10.4618 C   0  0  0  0  0  0  0  0  0  0  0  0
  -18.2689  -42.9659   -9.9939 C   0  0  1  0  0  0  0  0  0  0  0  0
  -19.6405  -42.2781   -9.9176 C   0  0  0  0  0  0  0  0  0  0  0  0
  -17.4935  -42.4237   -8.8767 C   0  0  0  0  0  0  0  0  0  0  0  0
  -18.0619  -42.6161   -7.7346 O   0  0  0  0  0  0  0  0  0  0  0  0
  -16.2750  -41.7542   -8.8633 N   0  0  0  0  0  0  0  0  0  0  0  0
  -15.8346  -40.5876   -9.5571 C   0  0  1  0  0  0  0  0  0  0  0  0
  -16.3968  -40.3385  -10.9081 C   0  0  0  0  0  0  0  0  0  0  0  0
  -15.9085  -39.3741   -8.6482 C   0  0  2  0  0  0  0  0  0  0  0  0
  -14.6494  -38.8016   -8.5928 O   0  0  0  0  0  0  0  0  0  0  0  0
  -16.4072  -39.6993   -7.2680 C   0  0  0  0  0  0  0  0  0  0  0  0
  -17.7747  -40.1691   -7.4048 N   0  0  0  0  0  0  0  0  0  0  0  0
  -18.6859  -39.1666   -6.9234 C   0  0  0  0  0  0  0  0  0  0  0  0
  -18.5290  -37.8727   -7.7066 C   0  0  0  0  0  0  0  0  0  0  0  0
  -18.4345  -38.8040   -5.4628 C   0  0  0  0  0  0  0  0  0  0  0  0
  -20.0991  -39.6667   -6.9911 C   0  0  0  0  0  0  0  0  0  0  0  0
  -20.7429  -40.2746   -7.9790 N   0  0  0  0  0  0  0  0  0  0  0  0
  -21.9481  -40.6198   -7.8311 N   0  0  0  0  0  0  0  0  0  0  0  0
  -22.5729  -40.3739   -6.6839 C   0  0  0  0  0  0  0  0  0  0  0  0
  -23.9901  -40.6941   -6.2939 C   0  0  0  0  0  0  0  0  0  0  0  0
  -24.6168  -39.4936   -5.5889 C   0  0  0  0  0  0  0  0  0  0  0  0
  -26.0678  -39.7731   -5.2598 C   0  0  0  0  0  0  0  0  0  0  0  0
  -23.8822  -39.3128   -4.2782 C   0  0  0  0  0  0  0  0  0  0  0  0
  -24.4943  -38.2516   -6.4481 C   0  0  0  0  0  0  0  0  0  0  0  0
  -21.3149  -39.5999   -5.7963 S   0  0  0  0  0  0  0  0  0  0  0  0
  2  1  1  6
  2  3  1  0
  3  4  1  0
  4  5  1  0
  5  6  1  0
  6  7  1  0
  7  8  1  0
  8  9  1  0
  9 10  1  0
 10 11  1  0
 11 12  2  0
 11 13  1  0
 13 14  1  0
 13 15  1  0
 15 16  1  1
 15 17  1  0
 17 18  2  0
 17 19  1  0
 19 20  1  0
 20 21  1  6
 20 22  1  0
 22 23  1  1
 22 24  1  0
 24 25  1  0
 25 26  1  0
 26 27  1  0
 26 28  1  0
 26 29  1  0
 29 30  2  0
 30 31  1  0
 31 32  2  0
 32 33  1  0
 33 34  1  0
 34 35  1  0
 34 36  1  0
 34 37  1  0
 32 38  1  0
 21  2  1  0
 38 29  1  0
M  END
$$$$
