
     RDKit          3D

 38 39  0  0  0  0  0  0  0  0999 V2000
  -20.3185  -39.2683   -4.3185 C   0  0  0  0  0  0  0  0  0  0  0  0
  -20.1464  -39.0258   -5.7794 C   0  0  2  0  0  0  0  0  0  0  0  0
  -21.2533  -39.5717   -6.5971 C   0  0  0  0  0  0  0  0  0  0  0  0
  -22.1421  -40.5390   -5.8605 C   0  0  0  0  0  0  0  0  0  0  0  0
  -23.5876  -40.0754   -5.8036 C   0  0  0  0  0  0  0  0  0  0  0  0
  -24.4460  -41.1595   -6.4659 C   0  0  0  0  0  0  0  0  0  0  0  0
  -23.9450  -41.4987   -7.8502 C   0  0  0  0  0  0  0  0  0  0  0  0
  -23.7432  -42.9865   -7.9247 C   0  0  0  0  0  0  0  0  0  0  0  0
  -22.9309  -43.4351   -9.1001 C   0  0  0  0  0  0  0  0  0  0  0  0
  -21.4717  -43.1370   -9.0153 C   0  0  0  0  0  0  0  0  0  0  0  0
  -20.6753  -44.1695   -8.3372 C   0  0  0  0  0  0  0  0  0  0  0  0
  -20.6067  -45.3121   -8.9075 O   0  0  0  0  0  0  0  0  0  0  0  0
  -19.9765  -44.0376   -7.1226 N   0  0  0  0  0  0  0  0  0  0  0  0
  -19.9866  -45.1026   -6.1357 C   0  0  0  0  0  0  0  0  0  0  0  0
  -19.1982  -42.8437   -6.7517 C   0  0  1  0  0  0  0  0  0  0  0  0
  -17.9618  -43.3878   -6.0199 C   0  0  0  0  0  0  0  0  0  0  0  0
  -18.6823  -42.1409   -7.9278 C   0  0  0  0  0  0  0  0  0  0  0  0
  -17.9709  -42.9001   -8.6908 O   0  0  0  0  0  0  0  0  0  0  0  0
  -18.8399  -40.8202   -8.3325 N   0  0  0  0  0  0  0  0  0  0  0  0
  -18.5826  -39.5911   -7.6544 C   0  0  1  0  0  0  0  0  0  0  0  0
  -18.7652  -39.5678   -6.1816 C   0  0  0  0  0  0  0  0  0  0  0  0
  -17.2517  -39.0123   -8.0989 C   0  0  2  0  0  0  0  0  0  0  0  0
  -17.4549  -37.6893   -8.4519 O   0  0  0  0  0  0  0  0  0  0  0  0
  -16.6241  -39.7757   -9.2316 C   0  0  0  0  0  0  0  0  0  0  0  0
  -16.1551  -38.7997  -10.1995 N   0  0  0  0  0  0  0  0  0  0  0  0
  -15.7141  -39.4688  -11.3932 C   0  0  0  0  0  0  0  0  0  0  0  0
  -16.6320  -39.1491  -12.5625 C   0  0  0  0  0  0  0  0  0  0  0  0
  -15.7330  -40.9879  -11.2504 C   0  0  0  0  0  0  0  0  0  0  0  0
  -14.2946  -39.0978  -11.7083 C   0  0  0  0  0  0  0  0  0  0  0  0
  -13.3273  -39.8173  -12.2621 N   0  0  0  0  0  0  0  0  0  0  0  0
  -12.1856  -39.3099  -12.4431 N   0  0  0  0  0  0  0  0  0  0  0  0
  -11.9524  -38.0532  -12.0782 C   0  0  0  0  0  0  0  0  0  0  0  0
  -10.6823  -37.2561  -12.1985 C   0  0  0  0  0  0  0  0  0  0  0  0
  -10.8985  -35.8509  -11.6422 C   0  0  0  0  0  0  0  0  0  0  0  0
  -12.0341  -35.1638  -12.3702 C   0  0  0  0  0  0  0  0  0  0  0  0
  -11.3151  -36.0033  -10.1952 C   0  0  0  0  0  0  0  0  0  0  0  0
   -9.6252  -35.0367  -11.7506 C   0  0  0  0  0  0  0  0  0  0  0  0
  -13.4932  -37.6154  -11.4429 S   0  0  0  0  0  0  0  0  0  0  0  0
  2  1  1  1
  2  3  1  0
  3  4  1  0
  4  5  1  0
  5  6  1  0
  6  7  1  0
  7  8  1  0
  8  9  1  0
  9 10  1  0
 10 11  1  0
 11 12  2  0
 11 13  1  0
 13 14  1  0
 13 15  1  0
 15 16  1  1
 15 17  1  0
 17 18  2  0
 17 19  1  0
 19 20  1  0
 20 21  1  1
 20 22  1  0
 22 23  1  6
 22 24  1  0
 24 25  1  0
 25 26  1  0
 26 27  1  0
 26 28  1  0
 26 29  1  0
 29 30  2  0
 30 31  1  0
 31 32  2  0
 32 33  1  0
 33 34  1  0
 34 35  1  0
 34 36  1  0
 34 37  1  0
 32 38  1  0
 21  2  1  0
 38 29  1  0
M  END
$$$$
