
     RDKit          3D

 38 39  0  0  0  0  0  0  0  0999 V2000
  -19.9082  -37.8895   -7.1595 C   0  0  0  0  0  0  0  0  0  0  0  0
  -20.3040  -38.8542   -8.2251 C   0  0  2  0  0  0  0  0  0  0  0  0
  -21.3775  -39.7826   -7.8040 C   0  0  0  0  0  0  0  0  0  0  0  0
  -21.6203  -39.8074   -6.3178 C   0  0  0  0  0  0  0  0  0  0  0  0
  -23.0379  -39.4027   -5.9517 C   0  0  0  0  0  0  0  0  0  0  0  0
  -23.6672  -40.5708   -5.1833 C   0  0  0  0  0  0  0  0  0  0  0  0
  -23.5583  -41.8668   -5.9521 C   0  0  0  0  0  0  0  0  0  0  0  0
  -22.9242  -42.8928   -5.0549 C   0  0  0  0  0  0  0  0  0  0  0  0
  -22.4357  -44.1135   -5.7719 C   0  0  0  0  0  0  0  0  0  0  0  0
  -21.2051  -43.9189   -6.5922 C   0  0  0  0  0  0  0  0  0  0  0  0
  -19.9454  -44.1027   -5.8577 C   0  0  0  0  0  0  0  0  0  0  0  0
  -19.7008  -45.2782   -5.4174 O   0  0  0  0  0  0  0  0  0  0  0  0
  -18.9741  -43.1215   -5.5844 N   0  0  0  0  0  0  0  0  0  0  0  0
  -18.3225  -43.0562   -4.2885 C   0  0  0  0  0  0  0  0  0  0  0  0
  -18.5455  -42.1012   -6.5560 C   0  0  1  0  0  0  0  0  0  0  0  0
  -17.0339  -41.9476   -6.3291 C   0  0  0  0  0  0  0  0  0  0  0  0
  -18.6914  -42.5663   -7.9365 C   0  0  0  0  0  0  0  0  0  0  0  0
  -18.0598  -43.6687   -8.1613 O   0  0  0  0  0  0  0  0  0  0  0  0
  -19.3869  -42.0153   -9.0069 N   0  0  0  0  0  0  0  0  0  0  0  0
  -19.3344  -40.7159   -9.5944 C   0  0  1  0  0  0  0  0  0  0  0  0
  -19.0296  -39.5701   -8.7015 C   0  0  0  0  0  0  0  0  0  0  0  0
  -18.4788  -40.7381  -10.8480 C   0  0  2  0  0  0  0  0  0  0  0  0
  -19.2598  -41.2009  -11.8931 O   0  0  0  0  0  0  0  0  0  0  0  0
  -17.2369  -41.5721  -10.7010 C   0  0  0  0  0  0  0  0  0  0  0  0
  -16.3807  -41.2713  -11.8349 N   0  0  0  0  0  0  0  0  0  0  0  0
  -15.1581  -40.6688  -11.3774 C   0  0  0  0  0  0  0  0  0  0  0  0
  -13.9510  -41.3798  -11.9683 C   0  0  0  0  0  0  0  0  0  0  0  0
  -14.9957  -40.7582   -9.8629 C   0  0  0  0  0  0  0  0  0  0  0  0
  -15.1368  -39.2063  -11.7129 C   0  0  0  0  0  0  0  0  0  0  0  0
  -15.6352  -38.5638  -12.7611 N   0  0  0  0  0  0  0  0  0  0  0  0
  -15.5081  -37.3114  -12.8548 N   0  0  0  0  0  0  0  0  0  0  0  0
  -14.8740  -36.6354  -11.9019 C   0  0  0  0  0  0  0  0  0  0  0  0
  -14.6100  -35.1573  -11.8099 C   0  0  0  0  0  0  0  0  0  0  0  0
  -13.1059  -34.9031  -11.7464 C   0  0  0  0  0  0  0  0  0  0  0  0
  -12.8270  -33.4244  -11.5809 C   0  0  0  0  0  0  0  0  0  0  0  0
  -12.5873  -35.6027  -10.5086 C   0  0  0  0  0  0  0  0  0  0  0  0
  -12.4254  -35.4385  -12.9897 C   0  0  0  0  0  0  0  0  0  0  0  0
  -14.4536  -37.9169  -10.8292 S   0  0  0  0  0  0  0  0  0  0  0  0
  2  1  1  1
  2  3  1  0
  3  4  1  0
  4  5  1  0
  5  6  1  0
  6  7  1  0
  7  8  1  0
  8  9  1  0
  9 10  1  0
 10 11  1  0
 11 12  2  0
 11 13  1  0
 13 14  1  0
 13 15  1  0
 15 16  1  1
 15 17  1  0
 17 18  2  0
 17 19  1  0
 19 20  1  0
 20 21  1  1
 20 22  1  0
 22 23  1  6
 22 24  1  0
 24 25  1  0
 25 26  1  0
 26 27  1  0
 26 28  1  0
 26 29  1  0
 29 30  2  0
 30 31  1  0
 31 32  2  0
 32 33  1  0
 33 34  1  0
 34 35  1  0
 34 36  1  0
 34 37  1  0
 32 38  1  0
 21  2  1  0
 38 29  1  0
M  END
$$$$
