
     RDKit          3D

 38 39  0  0  0  0  0  0  0  0999 V2000
  -19.7884  -38.8923   -4.3673 C   0  0  0  0  0  0  0  0  0  0  0  0
  -20.1761  -38.7710   -5.8018 C   0  0  2  0  0  0  0  0  0  0  0  0
  -21.3560  -39.5904   -6.1599 C   0  0  0  0  0  0  0  0  0  0  0  0
  -21.7215  -40.6251   -5.1283 C   0  0  0  0  0  0  0  0  0  0  0  0
  -23.1247  -40.4313   -4.5797 C   0  0  0  0  0  0  0  0  0  0  0  0
  -23.9124  -41.7157   -4.8638 C   0  0  0  0  0  0  0  0  0  0  0  0
  -23.8516  -42.0951   -6.3248 C   0  0  0  0  0  0  0  0  0  0  0  0
  -23.3835  -43.5203   -6.4206 C   0  0  0  0  0  0  0  0  0  0  0  0
  -22.9436  -43.9286   -7.7926 C   0  0  0  0  0  0  0  0  0  0  0  0
  -21.6376  -43.3607   -8.2366 C   0  0  0  0  0  0  0  0  0  0  0  0
  -20.4629  -44.1558   -7.8516 C   0  0  0  0  0  0  0  0  0  0  0  0
  -20.3566  -45.3180   -8.3746 O   0  0  0  0  0  0  0  0  0  0  0  0
  -19.4372  -43.7760   -6.9659 N   0  0  0  0  0  0  0  0  0  0  0  0
  -18.8912  -44.7197   -6.0069 C   0  0  0  0  0  0  0  0  0  0  0  0
  -18.8446  -42.4284   -6.9295 C   0  0  1  0  0  0  0  0  0  0  0  0
  -17.3492  -42.6597   -6.6642 C   0  0  0  0  0  0  0  0  0  0  0  0
  -18.9155  -41.7652   -8.2328 C   0  0  0  0  0  0  0  0  0  0  0  0
  -18.3641  -42.4539   -9.1741 O   0  0  0  0  0  0  0  0  0  0  0  0
  -19.4710  -40.5434   -8.5958 N   0  0  0  0  0  0  0  0  0  0  0  0
  -19.2597  -39.2260   -8.0896 C   0  0  1  0  0  0  0  0  0  0  0  0
  -18.9327  -39.0881   -6.6483 C   0  0  0  0  0  0  0  0  0  0  0  0
  -18.3089  -38.4606   -8.9919 C   0  0  2  0  0  0  0  0  0  0  0  0
  -19.0510  -37.5499   -9.7241 O   0  0  0  0  0  0  0  0  0  0  0  0
  -17.5116  -39.3525   -9.9021 C   0  0  0  0  0  0  0  0  0  0  0  0
  -16.1289  -38.9138   -9.8302 N   0  0  0  0  0  0  0  0  0  0  0  0
  -15.7314  -38.3436  -11.0888 C   0  0  0  0  0  0  0  0  0  0  0  0
  -16.6758  -37.2241  -11.4973 C   0  0  0  0  0  0  0  0  0  0  0  0
  -15.7704  -39.3593  -12.2268 C   0  0  0  0  0  0  0  0  0  0  0  0
  -14.3154  -37.8520  -11.0177 C   0  0  0  0  0  0  0  0  0  0  0  0
  -13.8002  -36.6805  -11.3674 N   0  0  0  0  0  0  0  0  0  0  0  0
  -12.5647  -36.4646  -11.2245 N   0  0  0  0  0  0  0  0  0  0  0  0
  -11.7789  -37.4121  -10.7230 C   0  0  0  0  0  0  0  0  0  0  0  0
  -10.2968  -37.3720  -10.4686 C   0  0  0  0  0  0  0  0  0  0  0  0
   -9.5419  -37.4460  -11.7935 C   0  0  0  0  0  0  0  0  0  0  0  0
   -8.1832  -36.7910  -11.6643 C   0  0  0  0  0  0  0  0  0  0  0  0
   -9.3112  -38.9113  -12.0940 C   0  0  0  0  0  0  0  0  0  0  0  0
  -10.3464  -36.7923  -12.8986 C   0  0  0  0  0  0  0  0  0  0  0  0
  -12.9272  -38.6690  -10.4561 S   0  0  0  0  0  0  0  0  0  0  0  0
  2  1  1  1
  2  3  1  0
  3  4  1  0
  4  5  1  0
  5  6  1  0
  6  7  1  0
  7  8  1  0
  8  9  1  0
  9 10  1  0
 10 11  1  0
 11 12  2  0
 11 13  1  0
 13 14  1  0
 13 15  1  0
 15 16  1  6
 15 17  1  0
 17 18  2  0
 17 19  1  0
 19 20  1  0
 20 21  1  1
 20 22  1  0
 22 23  1  6
 22 24  1  0
 24 25  1  0
 25 26  1  0
 26 27  1  0
 26 28  1  0
 26 29  1  0
 29 30  2  0
 30 31  1  0
 31 32  2  0
 32 33  1  0
 33 34  1  0
 34 35  1  0
 34 36  1  0
 34 37  1  0
 32 38  1  0
 21  2  1  0
 38 29  1  0
M  END
$$$$
