
     RDKit          3D

 38 39  0  0  0  0  0  0  0  0999 V2000
  -19.6255  -37.8487   -5.5664 C   0  0  0  0  0  0  0  0  0  0  0  0
  -19.2973  -37.8104   -7.0202 C   0  0  2  0  0  0  0  0  0  0  0  0
  -20.2816  -38.5286   -7.8610 C   0  0  0  0  0  0  0  0  0  0  0  0
  -21.2106  -39.4271   -7.0877 C   0  0  0  0  0  0  0  0  0  0  0  0
  -22.6699  -39.0406   -7.2560 C   0  0  0  0  0  0  0  0  0  0  0  0
  -23.4045  -40.2545   -7.8371 C   0  0  0  0  0  0  0  0  0  0  0  0
  -22.7359  -40.7616   -9.0934 C   0  0  0  0  0  0  0  0  0  0  0  0
  -22.4695  -42.2311   -8.9227 C   0  0  0  0  0  0  0  0  0  0  0  0
  -21.5115  -42.7991   -9.9240 C   0  0  0  0  0  0  0  0  0  0  0  0
  -20.0842  -42.4119   -9.7286 C   0  0  0  0  0  0  0  0  0  0  0  0
  -19.3311  -43.2903   -8.8225 C   0  0  0  0  0  0  0  0  0  0  0  0
  -19.1537  -44.4977   -9.2050 O   0  0  0  0  0  0  0  0  0  0  0  0
  -18.7811  -42.9464   -7.5733 N   0  0  0  0  0  0  0  0  0  0  0  0
  -18.8626  -43.8569   -6.4453 C   0  0  0  0  0  0  0  0  0  0  0  0
  -18.0971  -41.6704   -7.3037 C   0  0  1  0  0  0  0  0  0  0  0  0
  -16.9323  -42.0343   -6.3706 C   0  0  0  0  0  0  0  0  0  0  0  0
  -17.4779  -41.1172   -8.5095 C   0  0  0  0  0  0  0  0  0  0  0  0
  -16.6552  -41.9381   -9.0697 O   0  0  0  0  0  0  0  0  0  0  0  0
  -17.6393  -39.8793   -9.1215 N   0  0  0  0  0  0  0  0  0  0  0  0
  -17.5089  -38.5530   -8.6111 C   0  0  1  0  0  0  0  0  0  0  0  0
  -17.8592  -38.3277   -7.1864 C   0  0  0  0  0  0  0  0  0  0  0  0
  -16.1593  -37.9719   -8.9917 C   0  0  2  0  0  0  0  0  0  0  0  0
  -16.2312  -36.5959   -8.8588 O   0  0  0  0  0  0  0  0  0  0  0  0
  -15.7228  -38.3511  -10.3792 C   0  0  0  0  0  0  0  0  0  0  0  0
  -15.1192  -37.1730  -10.9768 N   0  0  0  0  0  0  0  0  0  0  0  0
  -13.9129  -37.5396  -11.6677 C   0  0  0  0  0  0  0  0  0  0  0  0
  -12.8688  -36.4402  -11.5528 C   0  0  0  0  0  0  0  0  0  0  0  0
  -14.1379  -37.7475  -13.1625 C   0  0  0  0  0  0  0  0  0  0  0  0
  -13.3820  -38.8408  -11.1416 C   0  0  0  0  0  0  0  0  0  0  0  0
  -12.5211  -39.0769  -10.1602 N   0  0  0  0  0  0  0  0  0  0  0  0
  -12.2015  -40.2633   -9.8705 N   0  0  0  0  0  0  0  0  0  0  0  0
  -12.7283  -41.2773  -10.5496 C   0  0  0  0  0  0  0  0  0  0  0  0
  -12.4923  -42.7528  -10.3763 C   0  0  0  0  0  0  0  0  0  0  0  0
  -13.6928  -43.5345  -10.9042 C   0  0  0  0  0  0  0  0  0  0  0  0
  -14.4840  -44.1253   -9.7567 C   0  0  0  0  0  0  0  0  0  0  0  0
  -14.5927  -42.5451  -11.6124 C   0  0  0  0  0  0  0  0  0  0  0  0
  -13.2391  -44.6230  -11.8556 C   0  0  0  0  0  0  0  0  0  0  0  0
  -13.7360  -40.4272  -11.6593 S   0  0  0  0  0  0  0  0  0  0  0  0
  2  1  1  1
  2  3  1  0
  3  4  1  0
  4  5  1  0
  5  6  1  0
  6  7  1  0
  7  8  1  0
  8  9  1  0
  9 10  1  0
 10 11  1  0
 11 12  2  0
 11 13  1  0
 13 14  1  0
 13 15  1  0
 15 16  1  1
 15 17  1  0
 17 18  2  0
 17 19  1  0
 19 20  1  0
 20 21  1  1
 20 22  1  0
 22 23  1  6
 22 24  1  0
 24 25  1  0
 25 26  1  0
 26 27  1  0
 26 28  1  0
 26 29  1  0
 29 30  2  0
 30 31  1  0
 31 32  2  0
 32 33  1  0
 33 34  1  0
 34 35  1  0
 34 36  1  0
 34 37  1  0
 32 38  1  0
 21  2  1  0
 38 29  1  0
M  END
$$$$
