
     RDKit          3D

 38 39  0  0  0  0  0  0  0  0999 V2000
  -19.2976  -39.2733   -4.4157 C   0  0  0  0  0  0  0  0  0  0  0  0
  -19.3572  -38.6592   -5.7729 C   0  0  2  0  0  0  0  0  0  0  0  0
  -20.5228  -39.1084   -6.5674 C   0  0  0  0  0  0  0  0  0  0  0  0
  -21.2165  -40.3226   -6.0080 C   0  0  0  0  0  0  0  0  0  0  0  0
  -22.6712  -40.0553   -5.6616 C   0  0  0  0  0  0  0  0  0  0  0  0
  -23.5265  -41.0324   -6.4767 C   0  0  0  0  0  0  0  0  0  0  0  0
  -23.2040  -40.9595   -7.9508 C   0  0  0  0  0  0  0  0  0  0  0  0
  -22.8968  -42.3497   -8.4333 C   0  0  0  0  0  0  0  0  0  0  0  0
  -22.2285  -42.3982   -9.7727 C   0  0  0  0  0  0  0  0  0  0  0  0
  -20.8008  -41.9661   -9.7866 C   0  0  0  0  0  0  0  0  0  0  0  0
  -19.8354  -43.0365   -9.4999 C   0  0  0  0  0  0  0  0  0  0  0  0
  -19.7584  -43.9871  -10.3519 O   0  0  0  0  0  0  0  0  0  0  0  0
  -18.9821  -43.1303   -8.3844 N   0  0  0  0  0  0  0  0  0  0  0  0
  -18.7653  -44.4002   -7.7147 C   0  0  0  0  0  0  0  0  0  0  0  0
  -18.2565  -41.9845   -7.8105 C   0  0  1  0  0  0  0  0  0  0  0  0
  -16.8884  -42.5482   -7.3974 C   0  0  0  0  0  0  0  0  0  0  0  0
  -17.9727  -40.9587   -8.8158 C   0  0  0  0  0  0  0  0  0  0  0  0
  -17.3199  -41.4195   -9.8287 O   0  0  0  0  0  0  0  0  0  0  0  0
  -18.2918  -39.6057   -8.8412 N   0  0  0  0  0  0  0  0  0  0  0  0
  -18.0388  -38.5615   -7.9021 C   0  0  1  0  0  0  0  0  0  0  0  0
  -18.0092  -38.9240   -6.4630 C   0  0  0  0  0  0  0  0  0  0  0  0
  -16.8360  -37.7430   -8.3350 C   0  0  2  0  0  0  0  0  0  0  0  0
  -17.1973  -36.4068   -8.3190 O   0  0  0  0  0  0  0  0  0  0  0  0
  -16.3092  -38.1364   -9.6867 C   0  0  0  0  0  0  0  0  0  0  0  0
  -17.1749  -37.5249  -10.6797 N   0  0  0  0  0  0  0  0  0  0  0  0
  -16.3828  -36.8172  -11.6486 C   0  0  0  0  0  0  0  0  0  0  0  0
  -16.2407  -35.3527  -11.2648 C   0  0  0  0  0  0  0  0  0  0  0  0
  -17.0158  -36.8257  -13.0370 C   0  0  0  0  0  0  0  0  0  0  0  0
  -15.0377  -37.4650  -11.8002 C   0  0  0  0  0  0  0  0  0  0  0  0
  -13.9141  -37.2674  -11.1232 N   0  0  0  0  0  0  0  0  0  0  0  0
  -12.8767  -37.9259  -11.4125 N   0  0  0  0  0  0  0  0  0  0  0  0
  -12.9102  -38.8186  -12.3968 C   0  0  0  0  0  0  0  0  0  0  0  0
  -11.8058  -39.7043  -12.9053 C   0  0  0  0  0  0  0  0  0  0  0  0
  -10.8128  -38.8781  -13.7190 C   0  0  0  0  0  0  0  0  0  0  0  0
  -11.1711  -37.4087  -13.6548 C   0  0  0  0  0  0  0  0  0  0  0  0
   -9.4567  -39.0421  -13.0673 C   0  0  0  0  0  0  0  0  0  0  0  0
  -10.7783  -39.3564  -15.1563 C   0  0  0  0  0  0  0  0  0  0  0  0
  -14.5493  -38.6678  -12.9070 S   0  0  0  0  0  0  0  0  0  0  0  0
  2  1  1  1
  2  3  1  0
  3  4  1  0
  4  5  1  0
  5  6  1  0
  6  7  1  0
  7  8  1  0
  8  9  1  0
  9 10  1  0
 10 11  1  0
 11 12  2  0
 11 13  1  0
 13 14  1  0
 13 15  1  0
 15 16  1  6
 15 17  1  0
 17 18  2  0
 17 19  1  0
 19 20  1  0
 20 21  1  1
 20 22  1  0
 22 23  1  6
 22 24  1  0
 24 25  1  0
 25 26  1  0
 26 27  1  0
 26 28  1  0
 26 29  1  0
 29 30  2  0
 30 31  1  0
 31 32  2  0
 32 33  1  0
 33 34  1  0
 34 35  1  0
 34 36  1  0
 34 37  1  0
 32 38  1  0
 21  2  1  0
 38 29  1  0
M  END
$$$$
