
     RDKit          3D

 38 39  0  0  0  0  0  0  0  0999 V2000
  -19.8025  -39.0777   -4.3375 C   0  0  0  0  0  0  0  0  0  0  0  0
  -19.3171  -38.8858   -5.7341 C   0  0  2  0  0  0  0  0  0  0  0  0
  -20.3231  -39.2482   -6.7579 C   0  0  0  0  0  0  0  0  0  0  0  0
  -21.4850  -40.0434   -6.2231 C   0  0  0  0  0  0  0  0  0  0  0  0
  -22.8166  -39.3430   -6.4327 C   0  0  0  0  0  0  0  0  0  0  0  0
  -23.7019  -40.2758   -7.2676 C   0  0  0  0  0  0  0  0  0  0  0  0
  -23.0100  -40.7115   -8.5379 C   0  0  0  0  0  0  0  0  0  0  0  0
  -23.0492  -42.2128   -8.6025 C   0  0  0  0  0  0  0  0  0  0  0  0
  -22.1143  -42.8060   -9.6108 C   0  0  0  0  0  0  0  0  0  0  0  0
  -20.6692  -42.7561   -9.2443 C   0  0  0  0  0  0  0  0  0  0  0  0
  -20.2007  -43.8991   -8.4480 C   0  0  0  0  0  0  0  0  0  0  0  0
  -20.2166  -45.0440   -9.0176 O   0  0  0  0  0  0  0  0  0  0  0  0
  -19.7342  -43.8713   -7.1203 N   0  0  0  0  0  0  0  0  0  0  0  0
  -20.1102  -44.9071   -6.1748 C   0  0  0  0  0  0  0  0  0  0  0  0
  -18.8526  -42.8205   -6.5845 C   0  0  1  0  0  0  0  0  0  0  0  0
  -17.8871  -43.5553   -5.6421 C   0  0  0  0  0  0  0  0  0  0  0  0
  -18.0118  -42.2290   -7.6269 C   0  0  0  0  0  0  0  0  0  0  0  0
  -17.3051  -43.1062   -8.2558 O   0  0  0  0  0  0  0  0  0  0  0  0
  -17.8663  -40.9056   -8.0277 N   0  0  0  0  0  0  0  0  0  0  0  0
  -17.5413  -39.7289   -7.2886 C   0  0  1  0  0  0  0  0  0  0  0  0
  -17.9949  -39.6569   -5.8772 C   0  0  0  0  0  0  0  0  0  0  0  0
  -16.0724  -39.3873   -7.4604 C   0  0  2  0  0  0  0  0  0  0  0  0
  -15.9546  -38.0089   -7.5088 O   0  0  0  0  0  0  0  0  0  0  0  0
  -15.4577  -40.0177   -8.6787 C   0  0  0  0  0  0  0  0  0  0  0  0
  -14.2866  -39.2314   -9.0248 N   0  0  0  0  0  0  0  0  0  0  0  0
  -14.1931  -39.0973  -10.4531 C   0  0  0  0  0  0  0  0  0  0  0  0
  -14.1977  -40.4611  -11.1255 C   0  0  0  0  0  0  0  0  0  0  0  0
  -12.8980  -38.4198  -10.8912 C   0  0  0  0  0  0  0  0  0  0  0  0
  -15.3087  -38.2389  -10.9733 C   0  0  0  0  0  0  0  0  0  0  0  0
  -16.6154  -38.3143  -10.7573 N   0  0  0  0  0  0  0  0  0  0  0  0
  -17.3953  -37.4819  -11.2979 N   0  0  0  0  0  0  0  0  0  0  0  0
  -16.9066  -36.5285  -12.0847 C   0  0  0  0  0  0  0  0  0  0  0  0
  -17.6434  -35.4443  -12.8226 C   0  0  0  0  0  0  0  0  0  0  0  0
  -18.2364  -36.0066  -14.1122 C   0  0  0  0  0  0  0  0  0  0  0  0
  -17.1363  -36.4981  -15.0287 C   0  0  0  0  0  0  0  0  0  0  0  0
  -19.0769  -37.2060  -13.7306 C   0  0  0  0  0  0  0  0  0  0  0  0
  -19.0817  -34.9589  -14.8074 C   0  0  0  0  0  0  0  0  0  0  0  0
  -15.2231  -36.8895  -12.0134 S   0  0  0  0  0  0  0  0  0  0  0  0
  2  1  1  1
  2  3  1  0
  3  4  1  0
  4  5  1  0
  5  6  1  0
  6  7  1  0
  7  8  1  0
  8  9  1  0
  9 10  1  0
 10 11  1  0
 11 12  2  0
 11 13  1  0
 13 14  1  0
 13 15  1  0
 15 16  1  1
 15 17  1  0
 17 18  2  0
 17 19  1  0
 19 20  1  0
 20 21  1  1
 20 22  1  0
 22 23  1  6
 22 24  1  0
 24 25  1  0
 25 26  1  0
 26 27  1  0
 26 28  1  0
 26 29  1  0
 29 30  2  0
 30 31  1  0
 31 32  2  0
 32 33  1  0
 33 34  1  0
 34 35  1  0
 34 36  1  0
 34 37  1  0
 32 38  1  0
 21  2  1  0
 38 29  1  0
M  END
$$$$
