
     RDKit          3D

 38 39  0  0  0  0  0  0  0  0999 V2000
  -14.4573  -36.2697  -12.5924 C   0  0  0  0  0  0  0  0  0  0  0  0
  -14.0043  -36.7291  -11.2484 C   0  0  2  0  0  0  0  0  0  0  0  0
  -12.6297  -37.2788  -11.2509 C   0  0  0  0  0  0  0  0  0  0  0  0
  -12.0915  -37.5814  -12.6247 C   0  0  0  0  0  0  0  0  0  0  0  0
  -10.8317  -36.7950  -12.9437 C   0  0  0  0  0  0  0  0  0  0  0  0
   -9.7213  -37.8071  -13.2494 C   0  0  0  0  0  0  0  0  0  0  0  0
   -9.5698  -38.8204  -12.1393 C   0  0  0  0  0  0  0  0  0  0  0  0
   -9.6477  -40.1944  -12.7442 C   0  0  0  0  0  0  0  0  0  0  0  0
   -9.8609  -41.2906  -11.7463 C   0  0  0  0  0  0  0  0  0  0  0  0
  -11.2307  -41.3582  -11.1595 C   0  0  0  0  0  0  0  0  0  0  0  0
  -12.1880  -42.1616  -11.9328 C   0  0  0  0  0  0  0  0  0  0  0  0
  -11.9518  -43.4156  -12.0185 O   0  0  0  0  0  0  0  0  0  0  0  0
  -13.3420  -41.6995  -12.5929 N   0  0  0  0  0  0  0  0  0  0  0  0
  -13.6997  -42.1980  -13.9089 C   0  0  0  0  0  0  0  0  0  0  0  0
  -14.2616  -40.6972  -12.0286 C   0  0  1  0  0  0  0  0  0  0  0  0
  -15.6634  -41.1630  -12.4507 C   0  0  0  0  0  0  0  0  0  0  0  0
  -14.2630  -40.7202  -10.5647 C   0  0  0  0  0  0  0  0  0  0  0  0
  -14.5449  -41.8838  -10.0840 O   0  0  0  0  0  0  0  0  0  0  0  0
  -14.0133  -39.7080   -9.6449 N   0  0  0  0  0  0  0  0  0  0  0  0
  -14.5941  -38.4138   -9.4892 C   0  0  1  0  0  0  0  0  0  0  0  0
  -15.0556  -37.7158  -10.7151 C   0  0  0  0  0  0  0  0  0  0  0  0
  -15.6369  -38.4330   -8.3864 C   0  0  2  0  0  0  0  0  0  0  0  0
  -15.0987  -37.8072   -7.2752 O   0  0  0  0  0  0  0  0  0  0  0  0
  -16.1072  -39.8186   -8.0421 C   0  0  0  0  0  0  0  0  0  0  0  0
  -17.4903  -39.9223   -8.4728 N   0  0  0  0  0  0  0  0  0  0  0  0
  -18.3389  -40.1614   -7.3371 C   0  0  0  0  0  0  0  0  0  0  0  0
  -17.8315  -39.4110   -6.1158 C   0  0  0  0  0  0  0  0  0  0  0  0
  -18.3762  -41.6334   -6.9374 C   0  0  0  0  0  0  0  0  0  0  0  0
  -19.7556  -39.7792   -7.6514 C   0  0  0  0  0  0  0  0  0  0  0  0
  -20.2294  -38.9151   -8.5396 N   0  0  0  0  0  0  0  0  0  0  0  0
  -21.4745  -38.7375   -8.6479 N   0  0  0  0  0  0  0  0  0  0  0  0
  -22.3119  -39.4172   -7.8709 C   0  0  0  0  0  0  0  0  0  0  0  0
  -23.8147  -39.3642   -7.8301 C   0  0  0  0  0  0  0  0  0  0  0  0
  -24.2786  -38.8813   -6.4581 C   0  0  0  0  0  0  0  0  0  0  0  0
  -24.2769  -40.0259   -5.4673 C   0  0  0  0  0  0  0  0  0  0  0  0
  -23.2657  -37.8649   -5.9771 C   0  0  0  0  0  0  0  0  0  0  0  0
  -25.6574  -38.2604   -6.5535 C   0  0  0  0  0  0  0  0  0  0  0  0
  -21.1991  -40.3538   -6.9469 S   0  0  0  0  0  0  0  0  0  0  0  0
  2  1  1  6
  2  3  1  0
  3  4  1  0
  4  5  1  0
  5  6  1  0
  6  7  1  0
  7  8  1  0
  8  9  1  0
  9 10  1  0
 10 11  1  0
 11 12  2  0
 11 13  1  0
 13 14  1  0
 13 15  1  0
 15 16  1  6
 15 17  1  0
 17 18  2  0
 17 19  1  0
 19 20  1  0
 20 21  1  6
 20 22  1  0
 22 23  1  1
 22 24  1  0
 24 25  1  0
 25 26  1  0
 26 27  1  0
 26 28  1  0
 26 29  1  0
 29 30  2  0
 30 31  1  0
 31 32  2  0
 32 33  1  0
 33 34  1  0
 34 35  1  0
 34 36  1  0
 34 37  1  0
 32 38  1  0
 21  2  1  0
 38 29  1  0
M  END
$$$$
