
     RDKit          3D

 38 39  0  0  0  0  0  0  0  0999 V2000
  -20.4491  -38.0616   -4.8580 C   0  0  0  0  0  0  0  0  0  0  0  0
  -20.4533  -38.1067   -6.3483 C   0  0  2  0  0  0  0  0  0  0  0  0
  -21.3654  -39.1341   -6.8996 C   0  0  0  0  0  0  0  0  0  0  0  0
  -21.8413  -40.1411   -5.8857 C   0  0  0  0  0  0  0  0  0  0  0  0
  -23.3527  -40.1463   -5.7340 C   0  0  0  0  0  0  0  0  0  0  0  0
  -23.8444  -41.5606   -6.0637 C   0  0  0  0  0  0  0  0  0  0  0  0
  -23.3427  -42.0252   -7.4109 C   0  0  0  0  0  0  0  0  0  0  0  0
  -22.6675  -43.3556   -7.2270 C   0  0  0  0  0  0  0  0  0  0  0  0
  -21.8240  -43.7791   -8.3897 C   0  0  0  0  0  0  0  0  0  0  0  0
  -20.5418  -43.0336   -8.5496 C   0  0  0  0  0  0  0  0  0  0  0  0
  -19.4114  -43.5930   -7.7951 C   0  0  0  0  0  0  0  0  0  0  0  0
  -19.0047  -44.7548   -8.1424 O   0  0  0  0  0  0  0  0  0  0  0  0
  -18.7241  -42.9870   -6.7268 N   0  0  0  0  0  0  0  0  0  0  0  0
  -18.3248  -43.7575   -5.5627 C   0  0  0  0  0  0  0  0  0  0  0  0
  -18.3613  -41.5602   -6.6914 C   0  0  1  0  0  0  0  0  0  0  0  0
  -16.9737  -41.5200   -6.0333 C   0  0  0  0  0  0  0  0  0  0  0  0
  -18.1761  -41.0102   -8.0355 C   0  0  0  0  0  0  0  0  0  0  0  0
  -17.3011  -41.6611   -8.7249 O   0  0  0  0  0  0  0  0  0  0  0  0
  -18.7831  -39.9264   -8.6599 N   0  0  0  0  0  0  0  0  0  0  0  0
  -18.9047  -38.5603   -8.2657 C   0  0  1  0  0  0  0  0  0  0  0  0
  -18.9971  -38.2700   -6.8130 C   0  0  0  0  0  0  0  0  0  0  0  0
  -17.8670  -37.7117   -8.9779 C   0  0  2  0  0  0  0  0  0  0  0  0
  -18.5238  -36.9113   -9.8968 O   0  0  0  0  0  0  0  0  0  0  0  0
  -16.7972  -38.5265   -9.6495 C   0  0  0  0  0  0  0  0  0  0  0  0
  -15.5718  -37.7485   -9.6030 N   0  0  0  0  0  0  0  0  0  0  0  0
  -15.2807  -37.2175  -10.9070 C   0  0  0  0  0  0  0  0  0  0  0  0
  -15.5986  -35.7319  -10.9690 C   0  0  0  0  0  0  0  0  0  0  0  0
  -16.1188  -37.8703  -12.0022 C   0  0  0  0  0  0  0  0  0  0  0  0
  -13.8476  -37.4752  -11.2700 C   0  0  0  0  0  0  0  0  0  0  0  0
  -12.8177  -36.6406  -11.3246 N   0  0  0  0  0  0  0  0  0  0  0  0
  -11.6764  -37.0648  -11.6577 N   0  0  0  0  0  0  0  0  0  0  0  0
  -11.5062  -38.3493  -11.9543 C   0  0  0  0  0  0  0  0  0  0  0  0
  -10.2493  -39.0630  -12.3709 C   0  0  0  0  0  0  0  0  0  0  0  0
  -10.5335  -39.9477  -13.5822 C   0  0  0  0  0  0  0  0  0  0  0  0
   -9.2541  -40.5823  -14.0844 C   0  0  0  0  0  0  0  0  0  0  0  0
  -11.4401  -41.0658  -13.1149 C   0  0  0  0  0  0  0  0  0  0  0  0
  -11.1972  -39.1434  -14.6814 C   0  0  0  0  0  0  0  0  0  0  0  0
  -13.1080  -38.9429  -11.7271 S   0  0  0  0  0  0  0  0  0  0  0  0
  2  1  1  1
  2  3  1  0
  3  4  1  0
  4  5  1  0
  5  6  1  0
  6  7  1  0
  7  8  1  0
  8  9  1  0
  9 10  1  0
 10 11  1  0
 11 12  2  0
 11 13  1  0
 13 14  1  0
 13 15  1  0
 15 16  1  1
 15 17  1  0
 17 18  2  0
 17 19  1  0
 19 20  1  0
 20 21  1  1
 20 22  1  0
 22 23  1  6
 22 24  1  0
 24 25  1  0
 25 26  1  0
 26 27  1  0
 26 28  1  0
 26 29  1  0
 29 30  2  0
 30 31  1  0
 31 32  2  0
 32 33  1  0
 33 34  1  0
 34 35  1  0
 34 36  1  0
 34 37  1  0
 32 38  1  0
 21  2  1  0
 38 29  1  0
M  END
$$$$
