
     RDKit          3D

 38 39  0  0  0  0  0  0  0  0999 V2000
  -19.9060  -37.1181   -6.3577 C   0  0  0  0  0  0  0  0  0  0  0  0
  -19.8296  -37.7845   -7.6892 C   0  0  2  0  0  0  0  0  0  0  0  0
  -20.9907  -38.6576   -7.9737 C   0  0  0  0  0  0  0  0  0  0  0  0
  -21.8340  -38.9714   -6.7658 C   0  0  0  0  0  0  0  0  0  0  0  0
  -23.2701  -38.5008   -6.9190 C   0  0  0  0  0  0  0  0  0  0  0  0
  -24.1759  -39.7294   -6.7746 C   0  0  0  0  0  0  0  0  0  0  0  0
  -23.7691  -40.8359   -7.7193 C   0  0  0  0  0  0  0  0  0  0  0  0
  -23.5803  -42.0927   -6.9165 C   0  0  0  0  0  0  0  0  0  0  0  0
  -22.8497  -43.1788   -7.6439 C   0  0  0  0  0  0  0  0  0  0  0  0
  -21.3866  -42.9504   -7.8239 C   0  0  0  0  0  0  0  0  0  0  0  0
  -20.5525  -43.4235   -6.7102 C   0  0  0  0  0  0  0  0  0  0  0  0
  -20.5275  -44.6854   -6.5039 O   0  0  0  0  0  0  0  0  0  0  0  0
  -19.7743  -42.6356   -5.8414 N   0  0  0  0  0  0  0  0  0  0  0  0
  -19.7247  -42.9197   -4.4184 C   0  0  0  0  0  0  0  0  0  0  0  0
  -18.9671  -41.4853   -6.2817 C   0  0  1  0  0  0  0  0  0  0  0  0
  -17.6879  -41.5504   -5.4335 C   0  0  0  0  0  0  0  0  0  0  0  0
  -18.5264  -41.6270   -7.6707 C   0  0  0  0  0  0  0  0  0  0  0  0
  -17.8708  -42.7188   -7.8775 O   0  0  0  0  0  0  0  0  0  0  0  0
  -18.7037  -40.7878   -8.7649 N   0  0  0  0  0  0  0  0  0  0  0  0
  -18.3959  -39.4069   -8.9514 C   0  0  1  0  0  0  0  0  0  0  0  0
  -18.4807  -38.5179   -7.7658 C   0  0  0  0  0  0  0  0  0  0  0  0
  -17.0942  -39.2555   -9.7174 C   0  0  2  0  0  0  0  0  0  0  0  0
  -17.3356  -38.4552  -10.8208 O   0  0  0  0  0  0  0  0  0  0  0  0
  -16.4972  -40.5708  -10.1337 C   0  0  0  0  0  0  0  0  0  0  0  0
  -15.4065  -40.8565   -9.2182 N   0  0  0  0  0  0  0  0  0  0  0  0
  -14.2141  -41.1641   -9.9602 C   0  0  0  0  0  0  0  0  0  0  0  0
  -14.3212  -42.5338  -10.6117 C   0  0  0  0  0  0  0  0  0  0  0  0
  -12.9739  -41.2191   -9.0731 C   0  0  0  0  0  0  0  0  0  0  0  0
  -13.9459  -40.1017  -10.9855 C   0  0  0  0  0  0  0  0  0  0  0  0
  -14.6185  -39.7876  -12.0850 N   0  0  0  0  0  0  0  0  0  0  0  0
  -14.2192  -38.8449  -12.8235 N   0  0  0  0  0  0  0  0  0  0  0  0
  -13.1234  -38.1660  -12.4991 C   0  0  0  0  0  0  0  0  0  0  0  0
  -12.4746  -37.0191  -13.2247 C   0  0  0  0  0  0  0  0  0  0  0  0
  -12.8138  -35.7054  -12.5246 C   0  0  0  0  0  0  0  0  0  0  0  0
  -12.0012  -35.5582  -11.2559 C   0  0  0  0  0  0  0  0  0  0  0  0
  -12.4049  -34.5851  -13.4564 C   0  0  0  0  0  0  0  0  0  0  0  0
  -14.2963  -35.6351  -12.2198 C   0  0  0  0  0  0  0  0  0  0  0  0
  -12.6750  -38.9650  -11.0396 S   0  0  0  0  0  0  0  0  0  0  0  0
  2  1  1  1
  2  3  1  0
  3  4  1  0
  4  5  1  0
  5  6  1  0
  6  7  1  0
  7  8  1  0
  8  9  1  0
  9 10  1  0
 10 11  1  0
 11 12  2  0
 11 13  1  0
 13 14  1  0
 13 15  1  0
 15 16  1  1
 15 17  1  0
 17 18  2  0
 17 19  1  0
 19 20  1  0
 20 21  1  1
 20 22  1  0
 22 23  1  6
 22 24  1  0
 24 25  1  0
 25 26  1  0
 26 27  1  0
 26 28  1  0
 26 29  1  0
 29 30  2  0
 30 31  1  0
 31 32  2  0
 32 33  1  0
 33 34  1  0
 34 35  1  0
 34 36  1  0
 34 37  1  0
 32 38  1  0
 21  2  1  0
 38 29  1  0
M  END
$$$$
