
     RDKit          3D

 38 39  0  0  0  0  0  0  0  0999 V2000
  -19.4942  -39.6870   -5.1637 C   0  0  0  0  0  0  0  0  0  0  0  0
  -19.1020  -38.9467   -6.3969 C   0  0  2  0  0  0  0  0  0  0  0  0
  -20.1089  -39.0372   -7.4784 C   0  0  0  0  0  0  0  0  0  0  0  0
  -21.1458  -40.1083   -7.2644 C   0  0  0  0  0  0  0  0  0  0  0  0
  -22.5568  -39.5494   -7.1998 C   0  0  0  0  0  0  0  0  0  0  0  0
  -23.3701  -40.2204   -8.3130 C   0  0  0  0  0  0  0  0  0  0  0  0
  -22.6957  -40.0805   -9.6576 C   0  0  0  0  0  0  0  0  0  0  0  0
  -22.5675  -41.4504  -10.2632 C   0  0  0  0  0  0  0  0  0  0  0  0
  -21.6214  -41.5205  -11.4219 C   0  0  0  0  0  0  0  0  0  0  0  0
  -20.1752  -41.4281  -11.0681 C   0  0  0  0  0  0  0  0  0  0  0  0
  -19.5420  -42.7141  -10.7435 C   0  0  0  0  0  0  0  0  0  0  0  0
  -19.4556  -43.5696  -11.6902 O   0  0  0  0  0  0  0  0  0  0  0  0
  -19.0178  -43.1090   -9.4984 N   0  0  0  0  0  0  0  0  0  0  0  0
  -19.2276  -44.4537   -8.9924 C   0  0  0  0  0  0  0  0  0  0  0  0
  -18.2361  -42.2216   -8.6209 C   0  0  1  0  0  0  0  0  0  0  0  0
  -17.1489  -43.1214   -8.0139 C   0  0  0  0  0  0  0  0  0  0  0  0
  -17.5194  -41.1955   -9.3805 C   0  0  0  0  0  0  0  0  0  0  0  0
  -16.7491  -41.6931  -10.2880 O   0  0  0  0  0  0  0  0  0  0  0  0
  -17.5446  -39.8095   -9.2736 N   0  0  0  0  0  0  0  0  0  0  0  0
  -17.3197  -38.9475   -8.1588 C   0  0  1  0  0  0  0  0  0  0  0  0
  -17.7094  -39.4452   -6.8158 C   0  0  0  0  0  0  0  0  0  0  0  0
  -15.9090  -38.3886   -8.2006 C   0  0  2  0  0  0  0  0  0  0  0  0
  -15.6888  -37.6898   -7.0261 O   0  0  0  0  0  0  0  0  0  0  0  0
  -15.6551  -37.5142   -9.3966 C   0  0  0  0  0  0  0  0  0  0  0  0
  -14.2624  -37.6895   -9.7691 N   0  0  0  0  0  0  0  0  0  0  0  0
  -13.9872  -36.9699  -10.9829 C   0  0  0  0  0  0  0  0  0  0  0  0
  -13.6315  -35.5221  -10.6841 C   0  0  0  0  0  0  0  0  0  0  0  0
  -15.1930  -36.9198  -11.9166 C   0  0  0  0  0  0  0  0  0  0  0  0
  -12.8906  -37.6435  -11.7547 C   0  0  0  0  0  0  0  0  0  0  0  0
  -11.5737  -37.5487  -11.6257 N   0  0  0  0  0  0  0  0  0  0  0  0
  -10.8140  -38.2097  -12.3869 N   0  0  0  0  0  0  0  0  0  0  0  0
  -11.3342  -39.0017  -13.3191 C   0  0  0  0  0  0  0  0  0  0  0  0
  -10.6254  -39.8697  -14.3226 C   0  0  0  0  0  0  0  0  0  0  0  0
  -10.5702  -39.1602  -15.6733 C   0  0  0  0  0  0  0  0  0  0  0  0
   -9.6212  -39.8787  -16.6086 C   0  0  0  0  0  0  0  0  0  0  0  0
  -11.9544  -39.2464  -16.2791 C   0  0  0  0  0  0  0  0  0  0  0  0
  -10.1518  -37.7148  -15.4955 C   0  0  0  0  0  0  0  0  0  0  0  0
  -13.0171  -38.7492  -13.0476 S   0  0  0  0  0  0  0  0  0  0  0  0
  2  1  1  1
  2  3  1  0
  3  4  1  0
  4  5  1  0
  5  6  1  0
  6  7  1  0
  7  8  1  0
  8  9  1  0
  9 10  1  0
 10 11  1  0
 11 12  2  0
 11 13  1  0
 13 14  1  0
 13 15  1  0
 15 16  1  6
 15 17  1  0
 17 18  2  0
 17 19  1  0
 19 20  1  0
 20 21  1  1
 20 22  1  0
 22 23  1  1
 22 24  1  0
 24 25  1  0
 25 26  1  0
 26 27  1  0
 26 28  1  0
 26 29  1  0
 29 30  2  0
 30 31  1  0
 31 32  2  0
 32 33  1  0
 33 34  1  0
 34 35  1  0
 34 36  1  0
 34 37  1  0
 32 38  1  0
 21  2  1  0
 38 29  1  0
M  END
$$$$
