
     RDKit          3D

 38 39  0  0  0  0  0  0  0  0999 V2000
  -18.8904  -40.7266   -3.9547 C   0  0  0  0  0  0  0  0  0  0  0  0
  -19.0875  -39.9683   -5.2232 C   0  0  2  0  0  0  0  0  0  0  0  0
  -20.3044  -40.3723   -5.9629 C   0  0  0  0  0  0  0  0  0  0  0  0
  -20.9096  -41.6677   -5.4895 C   0  0  0  0  0  0  0  0  0  0  0  0
  -22.3355  -41.4984   -4.9939 C   0  0  0  0  0  0  0  0  0  0  0  0
  -23.2296  -42.4121   -5.8405 C   0  0  0  0  0  0  0  0  0  0  0  0
  -23.0403  -42.1631   -7.3185 C   0  0  0  0  0  0  0  0  0  0  0  0
  -22.7352  -43.4777   -7.9806 C   0  0  0  0  0  0  0  0  0  0  0  0
  -22.1862  -43.3506   -9.3681 C   0  0  0  0  0  0  0  0  0  0  0  0
  -20.7788  -42.8633   -9.4525 C   0  0  0  0  0  0  0  0  0  0  0  0
  -19.7603  -43.9198   -9.3719 C   0  0  0  0  0  0  0  0  0  0  0  0
  -19.7301  -44.7661  -10.3303 O   0  0  0  0  0  0  0  0  0  0  0  0
  -18.8098  -44.1031   -8.3501 N   0  0  0  0  0  0  0  0  0  0  0  0
  -18.4971  -45.4300   -7.8503 C   0  0  0  0  0  0  0  0  0  0  0  0
  -18.0712  -43.0003   -7.7121 C   0  0  1  0  0  0  0  0  0  0  0  0
  -16.6558  -43.5517   -7.4824 C   0  0  0  0  0  0  0  0  0  0  0  0
  -17.9077  -41.8587   -8.6140 C   0  0  0  0  0  0  0  0  0  0  0  0
  -17.3330  -42.1778   -9.7242 O   0  0  0  0  0  0  0  0  0  0  0  0
  -18.2682  -40.5250   -8.4579 N   0  0  0  0  0  0  0  0  0  0  0  0
  -17.9649  -39.5823   -7.4304 C   0  0  1  0  0  0  0  0  0  0  0  0
  -17.7981  -40.1010   -6.0497 C   0  0  0  0  0  0  0  0  0  0  0  0
  -16.8299  -38.6738   -7.8665 C   0  0  2  0  0  0  0  0  0  0  0  0
  -16.1573  -38.2519   -6.7325 O   0  0  0  0  0  0  0  0  0  0  0  0
  -17.2937  -37.4976   -8.6795 C   0  0  0  0  0  0  0  0  0  0  0  0
  -17.1016  -37.8394  -10.0779 N   0  0  0  0  0  0  0  0  0  0  0  0
  -16.7079  -36.6705  -10.8167 C   0  0  0  0  0  0  0  0  0  0  0  0
  -17.0035  -35.4061  -10.0255 C   0  0  0  0  0  0  0  0  0  0  0  0
  -17.4693  -36.5284  -12.1313 C   0  0  0  0  0  0  0  0  0  0  0  0
  -15.2547  -36.7467  -11.1833 C   0  0  0  0  0  0  0  0  0  0  0  0
  -14.2310  -36.0101  -10.7717 N   0  0  0  0  0  0  0  0  0  0  0  0
  -13.0693  -36.2408  -11.2083 N   0  0  0  0  0  0  0  0  0  0  0  0
  -12.8714  -37.2232  -12.0817 C   0  0  0  0  0  0  0  0  0  0  0  0
  -11.5870  -37.6688  -12.7256 C   0  0  0  0  0  0  0  0  0  0  0  0
  -11.2291  -36.7270  -13.8726 C   0  0  0  0  0  0  0  0  0  0  0  0
   -9.7368  -36.4742  -13.9020 C   0  0  0  0  0  0  0  0  0  0  0  0
  -11.5938  -37.4337  -15.1602 C   0  0  0  0  0  0  0  0  0  0  0  0
  -11.9887  -35.4224  -13.7433 C   0  0  0  0  0  0  0  0  0  0  0  0
  -14.4778  -37.8222  -12.2556 S   0  0  0  0  0  0  0  0  0  0  0  0
  2  1  1  1
  2  3  1  0
  3  4  1  0
  4  5  1  0
  5  6  1  0
  6  7  1  0
  7  8  1  0
  8  9  1  0
  9 10  1  0
 10 11  1  0
 11 12  2  0
 11 13  1  0
 13 14  1  0
 13 15  1  0
 15 16  1  6
 15 17  1  0
 17 18  2  0
 17 19  1  0
 19 20  1  0
 20 21  1  1
 20 22  1  0
 22 23  1  1
 22 24  1  0
 24 25  1  0
 25 26  1  0
 26 27  1  0
 26 28  1  0
 26 29  1  0
 29 30  2  0
 30 31  1  0
 31 32  2  0
 32 33  1  0
 33 34  1  0
 34 35  1  0
 34 36  1  0
 34 37  1  0
 32 38  1  0
 21  2  1  0
 38 29  1  0
M  END
$$$$
