
     RDKit          3D

 38 39  0  0  0  0  0  0  0  0999 V2000
  -19.3235  -39.4011   -4.4012 C   0  0  0  0  0  0  0  0  0  0  0  0
  -19.2390  -38.8482   -5.7831 C   0  0  2  0  0  0  0  0  0  0  0  0
  -20.4308  -39.1503   -6.6077 C   0  0  0  0  0  0  0  0  0  0  0  0
  -21.3231  -40.2174   -6.0302 C   0  0  0  0  0  0  0  0  0  0  0  0
  -22.7305  -39.7157   -5.7567 C   0  0  0  0  0  0  0  0  0  0  0  0
  -23.6967  -40.5873   -6.5676 C   0  0  0  0  0  0  0  0  0  0  0  0
  -23.3143  -40.6323   -8.0285 C   0  0  0  0  0  0  0  0  0  0  0  0
  -23.2081  -42.0737   -8.4417 C   0  0  0  0  0  0  0  0  0  0  0  0
  -22.5079  -42.2852   -9.7485 C   0  0  0  0  0  0  0  0  0  0  0  0
  -21.0310  -42.0770   -9.7191 C   0  0  0  0  0  0  0  0  0  0  0  0
  -20.2532  -43.2679   -9.3492 C   0  0  0  0  0  0  0  0  0  0  0  0
  -20.2934  -44.2573  -10.1586 O   0  0  0  0  0  0  0  0  0  0  0  0
  -19.4650  -43.4394   -8.1958 N   0  0  0  0  0  0  0  0  0  0  0  0
  -19.4708  -44.6954   -7.4673 C   0  0  0  0  0  0  0  0  0  0  0  0
  -18.5924  -42.3926   -7.6378 C   0  0  1  0  0  0  0  0  0  0  0  0
  -17.3432  -43.1388   -7.1449 C   0  0  0  0  0  0  0  0  0  0  0  0
  -18.1180  -41.4694   -8.6703 C   0  0  0  0  0  0  0  0  0  0  0  0
  -17.5083  -42.0705   -9.6355 O   0  0  0  0  0  0  0  0  0  0  0  0
  -18.2234  -40.0862   -8.7632 N   0  0  0  0  0  0  0  0  0  0  0  0
  -17.8461  -39.0507   -7.8567 C   0  0  1  0  0  0  0  0  0  0  0  0
  -17.9242  -39.3469   -6.4043 C   0  0  0  0  0  0  0  0  0  0  0  0
  -16.5167  -38.4461   -8.2705 C   0  0  2  0  0  0  0  0  0  0  0  0
  -16.1879  -37.4627   -7.3535 O   0  0  0  0  0  0  0  0  0  0  0  0
  -16.5299  -37.8896   -9.6669 C   0  0  0  0  0  0  0  0  0  0  0  0
  -15.1861  -37.4199   -9.9548 N   0  0  0  0  0  0  0  0  0  0  0  0
  -15.1065  -36.9745  -11.3195 C   0  0  0  0  0  0  0  0  0  0  0  0
  -14.5813  -35.5494  -11.3931 C   0  0  0  0  0  0  0  0  0  0  0  0
  -16.4690  -36.9537  -12.0060 C   0  0  0  0  0  0  0  0  0  0  0  0
  -14.2482  -37.9049  -12.1255 C   0  0  0  0  0  0  0  0  0  0  0  0
  -14.4532  -39.1683  -12.4742 N   0  0  0  0  0  0  0  0  0  0  0  0
  -13.5934  -39.7815  -13.1658 N   0  0  0  0  0  0  0  0  0  0  0  0
  -12.4811  -39.1603  -13.5452 C   0  0  0  0  0  0  0  0  0  0  0  0
  -11.3356  -39.6917  -14.3627 C   0  0  0  0  0  0  0  0  0  0  0  0
  -10.1061  -39.8711  -13.4757 C   0  0  0  0  0  0  0  0  0  0  0  0
   -9.7543  -38.5676  -12.7911 C   0  0  0  0  0  0  0  0  0  0  0  0
  -10.4766  -40.8641  -12.3953 C   0  0  0  0  0  0  0  0  0  0  0  0
   -8.9342  -40.3786  -14.2912 C   0  0  0  0  0  0  0  0  0  0  0  0
  -12.7299  -37.6062  -12.8435 S   0  0  0  0  0  0  0  0  0  0  0  0
  2  1  1  1
  2  3  1  0
  3  4  1  0
  4  5  1  0
  5  6  1  0
  6  7  1  0
  7  8  1  0
  8  9  1  0
  9 10  1  0
 10 11  1  0
 11 12  2  0
 11 13  1  0
 13 14  1  0
 13 15  1  0
 15 16  1  6
 15 17  1  0
 17 18  2  0
 17 19  1  0
 19 20  1  0
 20 21  1  1
 20 22  1  0
 22 23  1  1
 22 24  1  0
 24 25  1  0
 25 26  1  0
 26 27  1  0
 26 28  1  0
 26 29  1  0
 29 30  2  0
 30 31  1  0
 31 32  2  0
 32 33  1  0
 33 34  1  0
 34 35  1  0
 34 36  1  0
 34 37  1  0
 32 38  1  0
 21  2  1  0
 38 29  1  0
M  END
$$$$
