
     RDKit          3D

 38 39  0  0  0  0  0  0  0  0999 V2000
  -19.4570  -39.1065   -4.9635 C   0  0  0  0  0  0  0  0  0  0  0  0
  -19.2880  -38.5095   -6.3192 C   0  0  2  0  0  0  0  0  0  0  0  0
  -20.4066  -38.8192   -7.2380 C   0  0  0  0  0  0  0  0  0  0  0  0
  -21.3065  -39.9278   -6.7587 C   0  0  0  0  0  0  0  0  0  0  0  0
  -22.7446  -39.4737   -6.5762 C   0  0  0  0  0  0  0  0  0  0  0  0
  -23.6222  -40.3467   -7.4810 C   0  0  0  0  0  0  0  0  0  0  0  0
  -23.1326  -40.3365   -8.9101 C   0  0  0  0  0  0  0  0  0  0  0  0
  -22.9535  -41.7612   -9.3551 C   0  0  0  0  0  0  0  0  0  0  0  0
  -22.1534  -41.9132  -10.6118 C   0  0  0  0  0  0  0  0  0  0  0  0
  -20.6895  -41.6652  -10.4672 C   0  0  0  0  0  0  0  0  0  0  0  0
  -19.9056  -42.8448  -10.0745 C   0  0  0  0  0  0  0  0  0  0  0  0
  -19.8568  -43.8098  -10.9124 O   0  0  0  0  0  0  0  0  0  0  0  0
  -19.1994  -43.0295   -8.8712 N   0  0  0  0  0  0  0  0  0  0  0  0
  -19.2210  -44.3068   -8.1811 C   0  0  0  0  0  0  0  0  0  0  0  0
  -18.4016  -41.9764   -8.2206 C   0  0  1  0  0  0  0  0  0  0  0  0
  -17.1702  -42.7024   -7.6577 C   0  0  0  0  0  0  0  0  0  0  0  0
  -17.8806  -41.0094   -9.1885 C   0  0  0  0  0  0  0  0  0  0  0  0
  -17.1841  -41.5636  -10.1224 O   0  0  0  0  0  0  0  0  0  0  0  0
  -18.0202  -39.6274   -9.2496 N   0  0  0  0  0  0  0  0  0  0  0  0
  -17.7414  -38.6100   -8.2886 C   0  0  1  0  0  0  0  0  0  0  0  0
  -17.9169  -38.9524   -6.8550 C   0  0  0  0  0  0  0  0  0  0  0  0
  -16.4040  -37.9565   -8.5855 C   0  0  2  0  0  0  0  0  0  0  0  0
  -16.4903  -36.6211   -8.2313 O   0  0  0  0  0  0  0  0  0  0  0  0
  -15.9815  -38.1008  -10.0208 C   0  0  0  0  0  0  0  0  0  0  0  0
  -15.0136  -37.0523  -10.2913 N   0  0  0  0  0  0  0  0  0  0  0  0
  -14.2171  -37.4061  -11.4348 C   0  0  0  0  0  0  0  0  0  0  0  0
  -12.9187  -36.6151  -11.4548 C   0  0  0  0  0  0  0  0  0  0  0  0
  -14.9183  -37.0917  -12.7529 C   0  0  0  0  0  0  0  0  0  0  0  0
  -13.9464  -38.8821  -11.4488 C   0  0  0  0  0  0  0  0  0  0  0  0
  -14.1783  -39.7833  -12.3943 N   0  0  0  0  0  0  0  0  0  0  0  0
  -13.8709  -40.9929  -12.2047 N   0  0  0  0  0  0  0  0  0  0  0  0
  -13.3141  -41.3641  -11.0562 C   0  0  0  0  0  0  0  0  0  0  0  0
  -12.8723  -42.7347  -10.6213 C   0  0  0  0  0  0  0  0  0  0  0  0
  -11.6062  -42.6263   -9.7751 C   0  0  0  0  0  0  0  0  0  0  0  0
  -11.1737  -43.9951   -9.2944 C   0  0  0  0  0  0  0  0  0  0  0  0
  -10.5116  -42.0964  -10.6761 C   0  0  0  0  0  0  0  0  0  0  0  0
  -11.8318  -41.6953   -8.6012 C   0  0  0  0  0  0  0  0  0  0  0  0
  -13.2481  -39.8523  -10.2317 S   0  0  0  0  0  0  0  0  0  0  0  0
  2  1  1  1
  2  3  1  0
  3  4  1  0
  4  5  1  0
  5  6  1  0
  6  7  1  0
  7  8  1  0
  8  9  1  0
  9 10  1  0
 10 11  1  0
 11 12  2  0
 11 13  1  0
 13 14  1  0
 13 15  1  0
 15 16  1  6
 15 17  1  0
 17 18  2  0
 17 19  1  0
 19 20  1  0
 20 21  1  1
 20 22  1  0
 22 23  1  6
 22 24  1  0
 24 25  1  0
 25 26  1  0
 26 27  1  0
 26 28  1  0
 26 29  1  0
 29 30  2  0
 30 31  1  0
 31 32  2  0
 32 33  1  0
 33 34  1  0
 34 35  1  0
 34 36  1  0
 34 37  1  0
 32 38  1  0
 21  2  1  0
 38 29  1  0
M  END
$$$$
