
     RDKit          3D

 38 39  0  0  0  0  0  0  0  0999 V2000
  -17.5044  -36.5407  -11.7577 C   0  0  0  0  0  0  0  0  0  0  0  0
  -16.6250  -36.6147  -10.5560 C   0  0  2  0  0  0  0  0  0  0  0  0
  -15.2920  -36.0069  -10.7686 C   0  0  0  0  0  0  0  0  0  0  0  0
  -14.9591  -35.7460  -12.2142 C   0  0  0  0  0  0  0  0  0  0  0  0
  -14.6989  -34.2764  -12.4967 C   0  0  0  0  0  0  0  0  0  0  0  0
  -13.2795  -34.1602  -13.0647 C   0  0  0  0  0  0  0  0  0  0  0  0
  -12.2627  -34.8203  -12.1631 C   0  0  0  0  0  0  0  0  0  0  0  0
  -11.4643  -35.7909  -12.9879 C   0  0  0  0  0  0  0  0  0  0  0  0
  -10.6617  -36.7637  -12.1804 C   0  0  0  0  0  0  0  0  0  0  0  0
  -11.4524  -37.8310  -11.5015 C   0  0  0  0  0  0  0  0  0  0  0  0
  -11.6911  -39.0286  -12.3193 C   0  0  0  0  0  0  0  0  0  0  0  0
  -10.6653  -39.7218  -12.6400 O   0  0  0  0  0  0  0  0  0  0  0  0
  -12.9314  -39.4983  -12.7906 N   0  0  0  0  0  0  0  0  0  0  0  0
  -13.0689  -40.0207  -14.1384 C   0  0  0  0  0  0  0  0  0  0  0  0
  -14.1651  -39.4998  -11.9865 C   0  0  1  0  0  0  0  0  0  0  0  0
  -14.8830  -40.8045  -12.3640 C   0  0  0  0  0  0  0  0  0  0  0  0
  -13.8831  -39.6056  -10.5538 C   0  0  0  0  0  0  0  0  0  0  0  0
  -13.1749  -40.6431  -10.2597 O   0  0  0  0  0  0  0  0  0  0  0  0
  -14.2522  -38.7811   -9.4969 N   0  0  0  0  0  0  0  0  0  0  0  0
  -15.5311  -38.3120   -9.0716 C   0  0  1  0  0  0  0  0  0  0  0  0
  -16.5620  -38.0862  -10.1154 C   0  0  0  0  0  0  0  0  0  0  0  0
  -16.0362  -39.1421   -7.9055 C   0  0  2  0  0  0  0  0  0  0  0  0
  -15.1106  -39.0506   -6.8802 O   0  0  0  0  0  0  0  0  0  0  0  0
  -16.2889  -40.5787   -8.2685 C   0  0  0  0  0  0  0  0  0  0  0  0
  -17.6232  -40.6498   -8.8375 N   0  0  0  0  0  0  0  0  0  0  0  0
  -18.2346  -41.9047   -8.4934 C   0  0  0  0  0  0  0  0  0  0  0  0
  -17.4260  -42.6253   -7.4262 C   0  0  0  0  0  0  0  0  0  0  0  0
  -18.3078  -42.8618   -9.6795 C   0  0  0  0  0  0  0  0  0  0  0  0
  -19.6499  -41.6921   -8.0420 C   0  0  0  0  0  0  0  0  0  0  0  0
  -20.6519  -41.0633   -8.6425 N   0  0  0  0  0  0  0  0  0  0  0  0
  -21.7822  -40.9964   -8.0845 N   0  0  0  0  0  0  0  0  0  0  0  0
  -21.9688  -41.5568   -6.8936 C   0  0  0  0  0  0  0  0  0  0  0  0
  -23.2173  -41.5984   -6.0556 C   0  0  0  0  0  0  0  0  0  0  0  0
  -23.0251  -40.7543   -4.7981 C   0  0  0  0  0  0  0  0  0  0  0  0
  -21.7521  -39.9411   -4.8977 C   0  0  0  0  0  0  0  0  0  0  0  0
  -24.1810  -39.7795   -4.7342 C   0  0  0  0  0  0  0  0  0  0  0  0
  -22.9993  -41.6368   -3.5667 C   0  0  0  0  0  0  0  0  0  0  0  0
  -20.4000  -42.2059   -6.5985 S   0  0  0  0  0  0  0  0  0  0  0  0
  2  1  1  6
  2  3  1  0
  3  4  1  0
  4  5  1  0
  5  6  1  0
  6  7  1  0
  7  8  1  0
  8  9  1  0
  9 10  1  0
 10 11  1  0
 11 12  2  0
 11 13  1  0
 13 14  1  0
 13 15  1  0
 15 16  1  6
 15 17  1  0
 17 18  2  0
 17 19  1  0
 19 20  1  0
 20 21  1  6
 20 22  1  0
 22 23  1  1
 22 24  1  0
 24 25  1  0
 25 26  1  0
 26 27  1  0
 26 28  1  0
 26 29  1  0
 29 30  2  0
 30 31  1  0
 31 32  2  0
 32 33  1  0
 33 34  1  0
 34 35  1  0
 34 36  1  0
 34 37  1  0
 32 38  1  0
 21  2  1  0
 38 29  1  0
M  END
$$$$
