
     RDKit          3D

 38 39  0  0  0  0  0  0  0  0999 V2000
  -20.2664  -38.0571   -5.2935 C   0  0  0  0  0  0  0  0  0  0  0  0
  -19.7123  -38.4032   -6.6336 C   0  0  2  0  0  0  0  0  0  0  0  0
  -20.6730  -39.1305   -7.4936 C   0  0  0  0  0  0  0  0  0  0  0  0
  -21.8698  -39.6717   -6.7566 C   0  0  0  0  0  0  0  0  0  0  0  0
  -23.1803  -39.1095   -7.2800 C   0  0  0  0  0  0  0  0  0  0  0  0
  -24.0371  -40.2931   -7.7444 C   0  0  0  0  0  0  0  0  0  0  0  0
  -23.2913  -41.1719   -8.7210 C   0  0  0  0  0  0  0  0  0  0  0  0
  -23.3475  -42.5869   -8.2169 C   0  0  0  0  0  0  0  0  0  0  0  0
  -22.3736  -43.5114   -8.8799 C   0  0  0  0  0  0  0  0  0  0  0  0
  -20.9471  -43.3188   -8.4884 C   0  0  0  0  0  0  0  0  0  0  0  0
  -20.5326  -44.0746   -7.2980 C   0  0  0  0  0  0  0  0  0  0  0  0
  -20.5367  -45.3499   -7.3942 O   0  0  0  0  0  0  0  0  0  0  0  0
  -20.1298  -43.5456   -6.0575 N   0  0  0  0  0  0  0  0  0  0  0  0
  -20.5644  -44.1505   -4.8111 C   0  0  0  0  0  0  0  0  0  0  0  0
  -19.2607  -42.3655   -5.9144 C   0  0  1  0  0  0  0  0  0  0  0  0
  -18.3513  -42.6853   -4.7182 C   0  0  0  0  0  0  0  0  0  0  0  0
  -18.3632  -42.2060   -7.0600 C   0  0  0  0  0  0  0  0  0  0  0  0
  -17.6391  -43.2517   -7.2763 O   0  0  0  0  0  0  0  0  0  0  0  0
  -18.1810  -41.1307   -7.9223 N   0  0  0  0  0  0  0  0  0  0  0  0
  -17.8758  -39.7604   -7.6662 C   0  0  1  0  0  0  0  0  0  0  0  0
  -18.3952  -39.1640   -6.4102 C   0  0  0  0  0  0  0  0  0  0  0  0
  -16.3959  -39.5006   -7.8814 C   0  0  2  0  0  0  0  0  0  0  0  0
  -16.1348  -38.1871   -7.5310 O   0  0  0  0  0  0  0  0  0  0  0  0
  -15.9462  -39.7760   -9.2890 C   0  0  0  0  0  0  0  0  0  0  0  0
  -15.3636  -41.1063   -9.3015 N   0  0  0  0  0  0  0  0  0  0  0  0
  -14.1669  -41.1079  -10.0983 C   0  0  0  0  0  0  0  0  0  0  0  0
  -13.9520  -42.4656  -10.7481 C   0  0  0  0  0  0  0  0  0  0  0  0
  -12.9146  -40.8385   -9.2692 C   0  0  0  0  0  0  0  0  0  0  0  0
  -14.2237  -40.0214  -11.1318 C   0  0  0  0  0  0  0  0  0  0  0  0
  -14.3478  -40.1031  -12.4501 N   0  0  0  0  0  0  0  0  0  0  0  0
  -14.3755  -39.0526  -13.1495 N   0  0  0  0  0  0  0  0  0  0  0  0
  -14.2801  -37.8629  -12.5644 C   0  0  0  0  0  0  0  0  0  0  0  0
  -14.2906  -36.4975  -13.1955 C   0  0  0  0  0  0  0  0  0  0  0  0
  -12.9555  -36.2374  -13.8888 C   0  0  0  0  0  0  0  0  0  0  0  0
  -11.8141  -36.3710  -12.9033 C   0  0  0  0  0  0  0  0  0  0  0  0
  -12.7786  -37.3165  -14.9350 C   0  0  0  0  0  0  0  0  0  0  0  0
  -12.9498  -34.8640  -14.5288 C   0  0  0  0  0  0  0  0  0  0  0  0
  -14.1445  -38.3316  -10.9117 S   0  0  0  0  0  0  0  0  0  0  0  0
  2  1  1  1
  2  3  1  0
  3  4  1  0
  4  5  1  0
  5  6  1  0
  6  7  1  0
  7  8  1  0
  8  9  1  0
  9 10  1  0
 10 11  1  0
 11 12  2  0
 11 13  1  0
 13 14  1  0
 13 15  1  0
 15 16  1  1
 15 17  1  0
 17 18  2  0
 17 19  1  0
 19 20  1  0
 20 21  1  1
 20 22  1  0
 22 23  1  6
 22 24  1  0
 24 25  1  0
 25 26  1  0
 26 27  1  0
 26 28  1  0
 26 29  1  0
 29 30  2  0
 30 31  1  0
 31 32  2  0
 32 33  1  0
 33 34  1  0
 34 35  1  0
 34 36  1  0
 34 37  1  0
 32 38  1  0
 21  2  1  0
 38 29  1  0
M  END
$$$$
