
     RDKit          3D

 38 39  0  0  0  0  0  0  0  0999 V2000
  -18.9316  -39.3151   -4.2433 C   0  0  0  0  0  0  0  0  0  0  0  0
  -19.4367  -38.9504   -5.5978 C   0  0  2  0  0  0  0  0  0  0  0  0
  -20.5126  -39.8450   -6.0811 C   0  0  0  0  0  0  0  0  0  0  0  0
  -20.6523  -41.1201   -5.2919 C   0  0  0  0  0  0  0  0  0  0  0  0
  -22.0248  -41.2658   -4.6574 C   0  0  0  0  0  0  0  0  0  0  0  0
  -22.6427  -42.5648   -5.1880 C   0  0  0  0  0  0  0  0  0  0  0  0
  -22.6365  -42.6086   -6.6981 C   0  0  0  0  0  0  0  0  0  0  0  0
  -21.9808  -43.8913   -7.1278 C   0  0  0  0  0  0  0  0  0  0  0  0
  -21.5898  -43.9238   -8.5730 C   0  0  0  0  0  0  0  0  0  0  0  0
  -20.4127  -43.0807   -8.9321 C   0  0  0  0  0  0  0  0  0  0  0  0
  -19.1129  -43.7500   -8.7819 C   0  0  0  0  0  0  0  0  0  0  0  0
  -18.8828  -44.7428   -9.5545 O   0  0  0  0  0  0  0  0  0  0  0  0
  -18.0885  -43.4160   -7.8763 N   0  0  0  0  0  0  0  0  0  0  0  0
  -17.3464  -44.4481   -7.1745 C   0  0  0  0  0  0  0  0  0  0  0  0
  -17.6903  -42.0329   -7.5648 C   0  0  1  0  0  0  0  0  0  0  0  0
  -16.1618  -42.0836   -7.4187 C   0  0  0  0  0  0  0  0  0  0  0  0
  -17.9492  -41.1249   -8.6836 C   0  0  0  0  0  0  0  0  0  0  0  0
  -17.3770  -41.5032   -9.7763 O   0  0  0  0  0  0  0  0  0  0  0  0
  -18.6962  -39.9537   -8.7426 N   0  0  0  0  0  0  0  0  0  0  0  0
  -18.6357  -38.7588   -7.9648 C   0  0  1  0  0  0  0  0  0  0  0  0
  -18.2265  -38.8843   -6.5435 C   0  0  0  0  0  0  0  0  0  0  0  0
  -17.8708  -37.6814   -8.7119 C   0  0  2  0  0  0  0  0  0  0  0  0
  -17.7235  -36.5948   -7.8670 O   0  0  0  0  0  0  0  0  0  0  0  0
  -18.5324  -37.2709   -9.9976 C   0  0  0  0  0  0  0  0  0  0  0  0
  -17.6059  -36.3993  -10.6984 N   0  0  0  0  0  0  0  0  0  0  0  0
  -17.5120  -36.7943  -12.0776 C   0  0  0  0  0  0  0  0  0  0  0  0
  -18.1332  -35.7435  -12.9842 C   0  0  0  0  0  0  0  0  0  0  0  0
  -18.2634  -38.0908  -12.3648 C   0  0  0  0  0  0  0  0  0  0  0  0
  -16.0819  -37.0497  -12.4537 C   0  0  0  0  0  0  0  0  0  0  0  0
  -15.4199  -36.7308  -13.5583 N   0  0  0  0  0  0  0  0  0  0  0  0
  -14.2024  -37.0419  -13.6785 N   0  0  0  0  0  0  0  0  0  0  0  0
  -13.5828  -37.6898  -12.6971 C   0  0  0  0  0  0  0  0  0  0  0  0
  -12.1536  -38.1537  -12.6277 C   0  0  0  0  0  0  0  0  0  0  0  0
  -11.8827  -38.7945  -11.2688 C   0  0  0  0  0  0  0  0  0  0  0  0
  -12.5023  -40.1742  -11.2027 C   0  0  0  0  0  0  0  0  0  0  0  0
  -10.3838  -38.9654  -11.1472 C   0  0  0  0  0  0  0  0  0  0  0  0
  -12.4144  -37.9170  -10.1539 C   0  0  0  0  0  0  0  0  0  0  0  0
  -14.8651  -37.8388  -11.5555 S   0  0  0  0  0  0  0  0  0  0  0  0
  2  1  1  1
  2  3  1  0
  3  4  1  0
  4  5  1  0
  5  6  1  0
  6  7  1  0
  7  8  1  0
  8  9  1  0
  9 10  1  0
 10 11  1  0
 11 12  2  0
 11 13  1  0
 13 14  1  0
 13 15  1  0
 15 16  1  6
 15 17  1  0
 17 18  2  0
 17 19  1  0
 19 20  1  0
 20 21  1  1
 20 22  1  0
 22 23  1  1
 22 24  1  0
 24 25  1  0
 25 26  1  0
 26 27  1  0
 26 28  1  0
 26 29  1  0
 29 30  2  0
 30 31  1  0
 31 32  2  0
 32 33  1  0
 33 34  1  0
 34 35  1  0
 34 36  1  0
 34 37  1  0
 32 38  1  0
 21  2  1  0
 38 29  1  0
M  END
$$$$
