
     RDKit          3D

 38 39  0  0  0  0  0  0  0  0999 V2000
  -20.3107  -38.2292   -5.3529 C   0  0  0  0  0  0  0  0  0  0  0  0
  -19.5366  -38.4167   -6.6133 C   0  0  2  0  0  0  0  0  0  0  0  0
  -20.3666  -38.8890   -7.7445 C   0  0  0  0  0  0  0  0  0  0  0  0
  -21.7215  -39.4064   -7.3384 C   0  0  0  0  0  0  0  0  0  0  0  0
  -22.8586  -38.6286   -7.9784 C   0  0  0  0  0  0  0  0  0  0  0  0
  -23.6988  -39.6228   -8.7886 C   0  0  0  0  0  0  0  0  0  0  0  0
  -22.8488  -40.4114   -9.7570 C   0  0  0  0  0  0  0  0  0  0  0  0
  -23.1110  -41.8739   -9.5283 C   0  0  0  0  0  0  0  0  0  0  0  0
  -22.1021  -42.7821  -10.1607 C   0  0  0  0  0  0  0  0  0  0  0  0
  -20.7675  -42.8111   -9.4948 C   0  0  0  0  0  0  0  0  0  0  0  0
  -20.6507  -43.7868   -8.4020 C   0  0  0  0  0  0  0  0  0  0  0  0
  -20.7350  -45.0225   -8.7207 O   0  0  0  0  0  0  0  0  0  0  0  0
  -20.4553  -43.5087   -7.0362 N   0  0  0  0  0  0  0  0  0  0  0  0
  -21.1681  -44.2526   -6.0131 C   0  0  0  0  0  0  0  0  0  0  0  0
  -19.5413  -42.4682   -6.5355 C   0  0  1  0  0  0  0  0  0  0  0  0
  -18.9077  -43.0712   -5.2725 C   0  0  0  0  0  0  0  0  0  0  0  0
  -18.4298  -42.2279   -7.4576 C   0  0  0  0  0  0  0  0  0  0  0  0
  -17.7609  -43.2987   -7.7230 O   0  0  0  0  0  0  0  0  0  0  0  0
  -18.0015  -41.0557   -8.0706 N   0  0  0  0  0  0  0  0  0  0  0  0
  -17.6462  -39.7851   -7.5269 C   0  0  1  0  0  0  0  0  0  0  0  0
  -18.3507  -39.3425   -6.2977 C   0  0  0  0  0  0  0  0  0  0  0  0
  -16.1370  -39.6576   -7.4271 C   0  0  2  0  0  0  0  0  0  0  0  0
  -15.8171  -38.3110   -7.4505 O   0  0  0  0  0  0  0  0  0  0  0  0
  -15.4084  -40.3973   -8.5141 C   0  0  0  0  0  0  0  0  0  0  0  0
  -13.9869  -40.2521   -8.2542 N   0  0  0  0  0  0  0  0  0  0  0  0
  -13.2352  -40.6555   -9.4115 C   0  0  0  0  0  0  0  0  0  0  0  0
  -13.8662  -41.8730  -10.0685 C   0  0  0  0  0  0  0  0  0  0  0  0
  -11.8057  -41.0614   -9.0653 C   0  0  0  0  0  0  0  0  0  0  0  0
  -13.1213  -39.5191  -10.3849 C   0  0  0  0  0  0  0  0  0  0  0  0
  -12.1407  -38.6437  -10.5638 N   0  0  0  0  0  0  0  0  0  0  0  0
  -12.2428  -37.7515  -11.4510 N   0  0  0  0  0  0  0  0  0  0  0  0
  -13.3344  -37.6892  -12.2070 C   0  0  0  0  0  0  0  0  0  0  0  0
  -13.6641  -36.7209  -13.3100 C   0  0  0  0  0  0  0  0  0  0  0  0
  -13.9106  -35.3329  -12.7240 C   0  0  0  0  0  0  0  0  0  0  0  0
  -15.2822  -34.8289  -13.1195 C   0  0  0  0  0  0  0  0  0  0  0  0
  -13.8984  -35.4764  -11.2174 C   0  0  0  0  0  0  0  0  0  0  0  0
  -12.8356  -34.3672  -13.1793 C   0  0  0  0  0  0  0  0  0  0  0  0
  -14.2388  -39.0100  -11.5690 S   0  0  0  0  0  0  0  0  0  0  0  0
  2  1  1  1
  2  3  1  0
  3  4  1  0
  4  5  1  0
  5  6  1  0
  6  7  1  0
  7  8  1  0
  8  9  1  0
  9 10  1  0
 10 11  1  0
 11 12  2  0
 11 13  1  0
 13 14  1  0
 13 15  1  0
 15 16  1  1
 15 17  1  0
 17 18  2  0
 17 19  1  0
 19 20  1  0
 20 21  1  1
 20 22  1  0
 22 23  1  6
 22 24  1  0
 24 25  1  0
 25 26  1  0
 26 27  1  0
 26 28  1  0
 26 29  1  0
 29 30  2  0
 30 31  1  0
 31 32  2  0
 32 33  1  0
 33 34  1  0
 34 35  1  0
 34 36  1  0
 34 37  1  0
 32 38  1  0
 21  2  1  0
 38 29  1  0
M  END
$$$$
