
     RDKit          3D

 38 39  0  0  0  0  0  0  0  0999 V2000
  -18.2875  -42.4383   -4.7356 C   0  0  0  0  0  0  0  0  0  0  0  0
  -18.3628  -41.0730   -5.3299 C   0  0  2  0  0  0  0  0  0  0  0  0
  -19.7082  -40.7332   -5.8456 C   0  0  0  0  0  0  0  0  0  0  0  0
  -20.6303  -41.9160   -5.9834 C   0  0  0  0  0  0  0  0  0  0  0  0
  -21.8856  -41.7784   -5.1392 C   0  0  0  0  0  0  0  0  0  0  0  0
  -23.0888  -41.8492   -6.0869 C   0  0  0  0  0  0  0  0  0  0  0  0
  -22.9712  -40.8486   -7.2126 C   0  0  0  0  0  0  0  0  0  0  0  0
  -23.1412  -41.5832   -8.5131 C   0  0  0  0  0  0  0  0  0  0  0  0
  -22.7108  -40.8030   -9.7167 C   0  0  0  0  0  0  0  0  0  0  0  0
  -21.2362  -40.6461   -9.8786 C   0  0  0  0  0  0  0  0  0  0  0  0
  -20.5823  -41.7384  -10.6129 C   0  0  0  0  0  0  0  0  0  0  0  0
  -20.8988  -41.8759  -11.8444 O   0  0  0  0  0  0  0  0  0  0  0  0
  -19.6412  -42.6544  -10.1065 N   0  0  0  0  0  0  0  0  0  0  0  0
  -19.6996  -44.0602  -10.4651 C   0  0  0  0  0  0  0  0  0  0  0  0
  -18.5476  -42.2831   -9.1929 C   0  0  1  0  0  0  0  0  0  0  0  0
  -17.3505  -43.1358   -9.6401 C   0  0  0  0  0  0  0  0  0  0  0  0
  -18.1309  -40.8918   -9.3767 C   0  0  0  0  0  0  0  0  0  0  0  0
  -17.7855  -40.6305  -10.5920 O   0  0  0  0  0  0  0  0  0  0  0  0
  -18.0547  -39.8435   -8.4665 N   0  0  0  0  0  0  0  0  0  0  0  0
  -17.3863  -39.7347   -7.2104 C   0  0  1  0  0  0  0  0  0  0  0  0
  -17.2567  -40.9663   -6.3922 C   0  0  0  0  0  0  0  0  0  0  0  0
  -16.0752  -38.9874   -7.3737 C   0  0  2  0  0  0  0  0  0  0  0  0
  -16.2435  -37.7093   -6.8694 O   0  0  0  0  0  0  0  0  0  0  0  0
  -15.5958  -38.9396   -8.7976 C   0  0  0  0  0  0  0  0  0  0  0  0
  -14.2253  -38.4596   -8.7736 N   0  0  0  0  0  0  0  0  0  0  0  0
  -13.6908  -38.4413  -10.1081 C   0  0  0  0  0  0  0  0  0  0  0  0
  -13.7093  -39.8346  -10.7168 C   0  0  0  0  0  0  0  0  0  0  0  0
  -12.2344  -37.9880  -10.1463 C   0  0  0  0  0  0  0  0  0  0  0  0
  -14.4514  -37.4716  -10.9643 C   0  0  0  0  0  0  0  0  0  0  0  0
  -14.4507  -36.1450  -10.9582 N   0  0  0  0  0  0  0  0  0  0  0  0
  -15.1737  -35.5080  -11.7737 N   0  0  0  0  0  0  0  0  0  0  0  0
  -15.9368  -36.1673  -12.6396 C   0  0  0  0  0  0  0  0  0  0  0  0
  -16.8652  -35.6180  -13.6880 C   0  0  0  0  0  0  0  0  0  0  0  0
  -18.3132  -35.9056  -13.2991 C   0  0  0  0  0  0  0  0  0  0  0  0
  -18.9246  -36.9137  -14.2487 C   0  0  0  0  0  0  0  0  0  0  0  0
  -18.2887  -36.5365  -11.9237 C   0  0  0  0  0  0  0  0  0  0  0  0
  -19.1227  -34.6248  -13.2871 C   0  0  0  0  0  0  0  0  0  0  0  0
  -15.5599  -37.7956  -12.2198 S   0  0  0  0  0  0  0  0  0  0  0  0
  2  1  1  6
  2  3  1  0
  3  4  1  0
  4  5  1  0
  5  6  1  0
  6  7  1  0
  7  8  1  0
  8  9  1  0
  9 10  1  0
 10 11  1  0
 11 12  2  0
 11 13  1  0
 13 14  1  0
 13 15  1  0
 15 16  1  6
 15 17  1  0
 17 18  2  0
 17 19  1  0
 19 20  1  0
 20 21  1  6
 20 22  1  0
 22 23  1  6
 22 24  1  0
 24 25  1  0
 25 26  1  0
 26 27  1  0
 26 28  1  0
 26 29  1  0
 29 30  2  0
 30 31  1  0
 31 32  2  0
 32 33  1  0
 33 34  1  0
 34 35  1  0
 34 36  1  0
 34 37  1  0
 32 38  1  0
 21  2  1  0
 38 29  1  0
M  END
$$$$
