
     RDKit          3D

 36 39  0  0  0  0  0  0  0  0999 V2000
  -16.1499  -38.0026  -14.1774 C   0  0  0  0  0  0  0  0  0  0  0  0
  -17.3491  -37.3909  -13.4865 C   0  0  0  0  0  0  0  0  0  0  0  0
  -18.5320  -38.2993  -13.7562 C   0  0  0  0  0  0  0  0  0  0  0  0
  -17.1554  -37.2401  -12.0392 C   0  0  0  0  0  0  0  0  0  0  0  0
  -17.6599  -36.1422  -11.3796 C   0  0  0  0  0  0  0  0  0  0  0  0
  -17.4672  -36.0174  -10.0129 C   0  0  0  0  0  0  0  0  0  0  0  0
  -16.7628  -37.0089   -9.3240 C   0  0  0  0  0  0  0  0  0  0  0  0
  -16.2556  -38.1069   -9.9702 C   0  0  0  0  0  0  0  0  0  0  0  0
  -15.5080  -39.1707   -9.2742 C   0  0  0  0  0  0  0  0  0  0  0  0
  -15.6969  -39.1913   -7.8420 N   0  0  0  0  0  0  0  0  0  0  0  0
  -16.3929  -40.3914   -7.4870 C   0  0  0  0  0  0  0  0  0  0  0  0
  -17.9174  -40.1415   -7.3935 C   0  0  1  0  0  0  0  0  0  0  0  0
  -18.1037  -39.1710   -6.4480 O   0  0  0  0  0  0  0  0  0  0  0  0
  -18.3046  -39.6744   -8.7801 C   0  0  2  0  0  0  0  0  0  0  0  0
  -19.7258  -39.2625   -8.9526 C   0  0  0  0  0  0  0  0  0  0  0  0
  -20.5592  -39.0468   -7.7265 C   0  0  0  0  0  0  0  0  0  0  0  0
  -21.0363  -37.7089   -7.6915 C   0  0  0  0  0  0  0  0  0  0  0  0
  -21.8800  -37.2341   -6.7273 C   0  0  0  0  0  0  0  0  0  0  0  0
  -22.2459  -38.1521   -5.7746 C   0  0  0  0  0  0  0  0  0  0  0  0
  -21.8013  -39.4926   -5.7613 C   0  0  0  0  0  0  0  0  0  0  0  0
  -22.4086  -40.2239   -4.6290 C   0  0  0  0  0  0  0  0  0  0  0  0
  -23.3718  -41.3371   -5.0123 C   0  0  0  0  0  0  0  0  0  0  0  0
  -22.6460  -42.6258   -5.3604 C   0  0  0  0  0  0  0  0  0  0  0  0
  -23.0195  -43.0255   -6.7408 C   0  0  0  0  0  0  0  0  0  0  0  0
  -22.1125  -43.8843   -7.4012 O   0  0  0  0  0  0  0  0  0  0  0  0
  -20.7988  -43.7406   -7.8128 C   0  0  0  0  0  0  0  0  0  0  0  0
  -19.9803  -44.7180   -7.2078 C   0  0  0  0  0  0  0  0  0  0  0  0
  -18.6723  -44.8044   -7.4214 N   0  0  0  0  0  0  0  0  0  0  0  0
  -18.1438  -43.9089   -8.2511 C   0  0  0  0  0  0  0  0  0  0  0  0
  -18.8962  -42.8912   -8.9029 C   0  0  0  0  0  0  0  0  0  0  0  0
  -20.2485  -42.8109   -8.6810 C   0  0  0  0  0  0  0  0  0  0  0  0
  -17.9791  -42.0451   -9.6877 C   0  0  0  0  0  0  0  0  0  0  0  0
  -17.1015  -42.6946  -10.4013 O   0  0  0  0  0  0  0  0  0  0  0  0
  -17.8843  -40.6334   -9.7984 N   0  0  0  0  0  0  0  0  0  0  0  0
  -20.9411  -39.9426   -6.7547 C   0  0  0  0  0  0  0  0  0  0  0  0
  -16.4564  -38.2140  -11.3260 C   0  0  0  0  0  0  0  0  0  0  0  0
  1  2  1  0
  2  3  1  0
  2  4  1  0
  4  5  2  0
  5  6  1  0
  6  7  2  0
  7  8  1  0
  8  9  1  0
  9 10  1  0
 10 11  1  0
 11 12  1  0
 12 13  1  1
 12 14  1  0
 14 15  1  1
 15 16  1  0
 16 17  1  0
 17 18  2  0
 18 19  1  0
 19 20  2  0
 20 21  1  0
 21 22  1  0
 22 23  1  0
 23 24  1  0
 24 25  1  0
 25 26  1  0
 26 27  1  0
 27 28  2  0
 28 29  1  0
 29 30  2  0
 30 31  1  0
 30 32  1  0
 32 33  2  0
 32 34  1  0
 20 35  1  0
  8 36  2  0
 31 26  2  0
 34 14  1  0
 35 16  2  0
 36  4  1  0
M  END
$$$$
