
     RDKit          3D

 36 39  0  0  0  0  0  0  0  0999 V2000
  -10.2644  -42.1156  -10.5266 C   0  0  0  0  0  0  0  0  0  0  0  0
  -11.6224  -42.7531  -10.3291 C   0  0  0  0  0  0  0  0  0  0  0  0
  -11.6848  -43.2367   -8.8941 C   0  0  0  0  0  0  0  0  0  0  0  0
  -12.7292  -41.8252  -10.5918 C   0  0  0  0  0  0  0  0  0  0  0  0
  -13.4960  -41.9594  -11.7272 C   0  0  0  0  0  0  0  0  0  0  0  0
  -14.5369  -41.0740  -11.9579 C   0  0  0  0  0  0  0  0  0  0  0  0
  -14.7929  -40.0571  -11.0335 C   0  0  0  0  0  0  0  0  0  0  0  0
  -14.0359  -39.9135   -9.8991 C   0  0  0  0  0  0  0  0  0  0  0  0
  -14.2786  -38.8525   -8.9041 C   0  0  0  0  0  0  0  0  0  0  0  0
  -15.6725  -38.5250   -8.7113 N   0  0  0  0  0  0  0  0  0  0  0  0
  -16.3286  -39.6451   -8.1065 C   0  0  0  0  0  0  0  0  0  0  0  0
  -17.8510  -39.3956   -7.9824 C   0  0  1  0  0  0  0  0  0  0  0  0
  -18.0065  -38.2139   -7.3117 O   0  0  0  0  0  0  0  0  0  0  0  0
  -18.3331  -39.3111   -9.4146 C   0  0  2  0  0  0  0  0  0  0  0  0
  -19.8098  -39.3577   -9.6057 C   0  0  0  0  0  0  0  0  0  0  0  0
  -20.6898  -39.1744   -8.4073 C   0  0  0  0  0  0  0  0  0  0  0  0
  -21.5302  -38.0433   -8.5889 C   0  0  0  0  0  0  0  0  0  0  0  0
  -22.4900  -37.6652   -7.6930 C   0  0  0  0  0  0  0  0  0  0  0  0
  -22.5933  -38.4656   -6.5826 C   0  0  0  0  0  0  0  0  0  0  0  0
  -21.7840  -39.5998   -6.3517 C   0  0  0  0  0  0  0  0  0  0  0  0
  -22.1749  -40.2611   -5.0885 C   0  0  0  0  0  0  0  0  0  0  0  0
  -22.7730  -41.6518   -5.2377 C   0  0  0  0  0  0  0  0  0  0  0  0
  -21.7033  -42.7212   -5.3815 C   0  0  0  0  0  0  0  0  0  0  0  0
  -21.9244  -43.4484   -6.6570 C   0  0  0  0  0  0  0  0  0  0  0  0
  -20.7991  -44.1166   -7.1894 O   0  0  0  0  0  0  0  0  0  0  0  0
  -19.5749  -43.6805   -7.6660 C   0  0  0  0  0  0  0  0  0  0  0  0
  -18.5209  -44.2616   -6.9293 C   0  0  0  0  0  0  0  0  0  0  0  0
  -17.2396  -44.0088   -7.1708 N   0  0  0  0  0  0  0  0  0  0  0  0
  -16.9761  -43.1616   -8.1620 C   0  0  0  0  0  0  0  0  0  0  0  0
  -17.9775  -42.5321   -8.9541 C   0  0  0  0  0  0  0  0  0  0  0  0
  -19.2997  -42.8016   -8.7018 C   0  0  0  0  0  0  0  0  0  0  0  0
  -17.3283  -41.6129   -9.9063 C   0  0  0  0  0  0  0  0  0  0  0  0
  -16.2901  -42.1017  -10.5265 O   0  0  0  0  0  0  0  0  0  0  0  0
  -17.6396  -40.2754  -10.2644 N   0  0  0  0  0  0  0  0  0  0  0  0
  -20.8151  -39.9550   -7.2814 C   0  0  0  0  0  0  0  0  0  0  0  0
  -13.0076  -40.8009   -9.6868 C   0  0  0  0  0  0  0  0  0  0  0  0
  1  2  1  0
  2  3  1  0
  2  4  1  0
  4  5  2  0
  5  6  1  0
  6  7  2  0
  7  8  1  0
  8  9  1  0
  9 10  1  0
 10 11  1  0
 11 12  1  0
 12 13  1  1
 12 14  1  0
 14 15  1  1
 15 16  1  0
 16 17  1  0
 17 18  2  0
 18 19  1  0
 19 20  2  0
 20 21  1  0
 21 22  1  0
 22 23  1  0
 23 24  1  0
 24 25  1  0
 25 26  1  0
 26 27  1  0
 27 28  2  0
 28 29  1  0
 29 30  2  0
 30 31  1  0
 30 32  1  0
 32 33  2  0
 32 34  1  0
 20 35  1  0
  8 36  2  0
 31 26  2  0
 34 14  1  0
 35 16  2  0
 36  4  1  0
M  END
$$$$
