
     RDKit          3D

 36 39  0  0  0  0  0  0  0  0999 V2000
  -11.3608  -34.5803  -11.7343 C   0  0  0  0  0  0  0  0  0  0  0  0
  -12.8356  -34.8819  -11.5818 C   0  0  0  0  0  0  0  0  0  0  0  0
  -13.5706  -34.0542  -12.6171 C   0  0  0  0  0  0  0  0  0  0  0  0
  -13.1468  -36.3045  -11.7673 C   0  0  0  0  0  0  0  0  0  0  0  0
  -12.9185  -36.9150  -12.9798 C   0  0  0  0  0  0  0  0  0  0  0  0
  -13.2183  -38.2590  -13.1358 C   0  0  0  0  0  0  0  0  0  0  0  0
  -13.7486  -38.9752  -12.0588 C   0  0  0  0  0  0  0  0  0  0  0  0
  -13.9804  -38.3779  -10.8464 C   0  0  0  0  0  0  0  0  0  0  0  0
  -14.5386  -39.1036   -9.6903 C   0  0  0  0  0  0  0  0  0  0  0  0
  -15.9795  -39.2110   -9.6945 N   0  0  0  0  0  0  0  0  0  0  0  0
  -16.4454  -39.1981   -8.3404 C   0  0  0  0  0  0  0  0  0  0  0  0
  -17.8667  -39.8021   -8.2371 C   0  0  1  0  0  0  0  0  0  0  0  0
  -18.5405  -39.0735   -7.2960 O   0  0  0  0  0  0  0  0  0  0  0  0
  -18.4479  -39.6273   -9.6235 C   0  0  2  0  0  0  0  0  0  0  0  0
  -19.9324  -39.5260   -9.6965 C   0  0  0  0  0  0  0  0  0  0  0  0
  -20.6945  -39.2964   -8.4273 C   0  0  0  0  0  0  0  0  0  0  0  0
  -21.4314  -38.0848   -8.5144 C   0  0  0  0  0  0  0  0  0  0  0  0
  -22.2770  -37.6444   -7.5357 C   0  0  0  0  0  0  0  0  0  0  0  0
  -22.3717  -38.4653   -6.4396 C   0  0  0  0  0  0  0  0  0  0  0  0
  -21.6622  -39.6785   -6.3010 C   0  0  0  0  0  0  0  0  0  0  0  0
  -22.0168  -40.3382   -5.0263 C   0  0  0  0  0  0  0  0  0  0  0  0
  -22.7582  -41.6597   -5.1594 C   0  0  0  0  0  0  0  0  0  0  0  0
  -21.8130  -42.8219   -5.4137 C   0  0  0  0  0  0  0  0  0  0  0  0
  -22.2028  -43.4846   -6.6839 C   0  0  0  0  0  0  0  0  0  0  0  0
  -21.1931  -44.2407   -7.3204 O   0  0  0  0  0  0  0  0  0  0  0  0
  -19.9728  -43.9095   -7.8835 C   0  0  0  0  0  0  0  0  0  0  0  0
  -18.9269  -44.6116   -7.2476 C   0  0  0  0  0  0  0  0  0  0  0  0
  -17.6496  -44.4756   -7.5853 N   0  0  0  0  0  0  0  0  0  0  0  0
  -17.3820  -43.6272   -8.5743 C   0  0  0  0  0  0  0  0  0  0  0  0
  -18.3754  -42.8802   -9.2685 C   0  0  0  0  0  0  0  0  0  0  0  0
  -19.6940  -43.0294   -8.9172 C   0  0  0  0  0  0  0  0  0  0  0  0
  -17.7150  -41.9985  -10.2480 C   0  0  0  0  0  0  0  0  0  0  0  0
  -16.7810  -42.5651  -10.9608 O   0  0  0  0  0  0  0  0  0  0  0  0
  -17.9204  -40.6268  -10.5486 N   0  0  0  0  0  0  0  0  0  0  0  0
  -20.8079  -40.0960   -7.3135 C   0  0  0  0  0  0  0  0  0  0  0  0
  -13.6769  -37.0440  -10.7100 C   0  0  0  0  0  0  0  0  0  0  0  0
  1  2  1  0
  2  3  1  0
  2  4  1  0
  4  5  2  0
  5  6  1  0
  6  7  2  0
  7  8  1  0
  8  9  1  0
  9 10  1  0
 10 11  1  0
 11 12  1  0
 12 13  1  1
 12 14  1  0
 14 15  1  1
 15 16  1  0
 16 17  1  0
 17 18  2  0
 18 19  1  0
 19 20  2  0
 20 21  1  0
 21 22  1  0
 22 23  1  0
 23 24  1  0
 24 25  1  0
 25 26  1  0
 26 27  1  0
 27 28  2  0
 28 29  1  0
 29 30  2  0
 30 31  1  0
 30 32  1  0
 32 33  2  0
 32 34  1  0
 20 35  1  0
  8 36  2  0
 31 26  2  0
 34 14  1  0
 35 16  2  0
 36  4  1  0
M  END
$$$$
