
     RDKit          3D

 36 39  0  0  0  0  0  0  0  0999 V2000
  -18.8372  -36.0378  -12.9533 C   0  0  0  0  0  0  0  0  0  0  0  0
  -17.4906  -36.7278  -12.9531 C   0  0  0  0  0  0  0  0  0  0  0  0
  -16.4910  -35.7575  -13.5500 C   0  0  0  0  0  0  0  0  0  0  0  0
  -17.0570  -37.1272  -11.6086 C   0  0  0  0  0  0  0  0  0  0  0  0
  -16.7366  -36.1741  -10.6684 C   0  0  0  0  0  0  0  0  0  0  0  0
  -16.3295  -36.5704   -9.4043 C   0  0  0  0  0  0  0  0  0  0  0  0
  -16.2503  -37.9330   -9.1026 C   0  0  0  0  0  0  0  0  0  0  0  0
  -16.5669  -38.8914  -10.0309 C   0  0  0  0  0  0  0  0  0  0  0  0
  -16.4942  -40.3365   -9.7460 C   0  0  0  0  0  0  0  0  0  0  0  0
  -15.8850  -40.6629   -8.4772 N   0  0  0  0  0  0  0  0  0  0  0  0
  -16.5892  -39.9735   -7.4381 C   0  0  0  0  0  0  0  0  0  0  0  0
  -18.0658  -40.4322   -7.3700 C   0  0  1  0  0  0  0  0  0  0  0  0
  -18.7400  -39.4938   -6.6383 O   0  0  0  0  0  0  0  0  0  0  0  0
  -18.5135  -40.4642   -8.8154 C   0  0  2  0  0  0  0  0  0  0  0  0
  -19.9829  -40.3692   -9.0416 C   0  0  0  0  0  0  0  0  0  0  0  0
  -20.8546  -39.9497   -7.8977 C   0  0  0  0  0  0  0  0  0  0  0  0
  -21.5587  -38.7619   -8.2323 C   0  0  0  0  0  0  0  0  0  0  0  0
  -22.4830  -38.1769   -7.4135 C   0  0  0  0  0  0  0  0  0  0  0  0
  -22.6930  -38.8246   -6.2215 C   0  0  0  0  0  0  0  0  0  0  0  0
  -22.0210  -40.0062   -5.8385 C   0  0  0  0  0  0  0  0  0  0  0  0
  -22.5033  -40.4668   -4.5191 C   0  0  0  0  0  0  0  0  0  0  0  0
  -23.2527  -41.7905   -4.5237 C   0  0  0  0  0  0  0  0  0  0  0  0
  -22.3089  -42.9812   -4.5129 C   0  0  0  0  0  0  0  0  0  0  0  0
  -22.5916  -43.8247   -5.7017 C   0  0  0  0  0  0  0  0  0  0  0  0
  -21.5412  -44.6713   -6.1214 O   0  0  0  0  0  0  0  0  0  0  0  0
  -20.2684  -44.4326   -6.6103 C   0  0  0  0  0  0  0  0  0  0  0  0
  -19.2983  -45.0359   -5.7820 C   0  0  0  0  0  0  0  0  0  0  0  0
  -17.9930  -44.9568   -6.0147 N   0  0  0  0  0  0  0  0  0  0  0  0
  -17.6203  -44.2666   -7.0891 C   0  0  0  0  0  0  0  0  0  0  0  0
  -18.5320  -43.6278   -7.9766 C   0  0  0  0  0  0  0  0  0  0  0  0
  -19.8798  -43.7178   -7.7323 C   0  0  0  0  0  0  0  0  0  0  0  0
  -17.7685  -42.9048   -9.0096 C   0  0  0  0  0  0  0  0  0  0  0  0
  -16.7830  -43.5751   -9.5397 O   0  0  0  0  0  0  0  0  0  0  0  0
  -17.9208  -41.5926   -9.5284 N   0  0  0  0  0  0  0  0  0  0  0  0
  -21.0845  -40.5736   -6.6932 C   0  0  0  0  0  0  0  0  0  0  0  0
  -16.9688  -38.4798  -11.2795 C   0  0  0  0  0  0  0  0  0  0  0  0
  1  2  1  0
  2  3  1  0
  2  4  1  0
  4  5  2  0
  5  6  1  0
  6  7  2  0
  7  8  1  0
  8  9  1  0
  9 10  1  0
 10 11  1  0
 11 12  1  0
 12 13  1  1
 12 14  1  0
 14 15  1  1
 15 16  1  0
 16 17  1  0
 17 18  2  0
 18 19  1  0
 19 20  2  0
 20 21  1  0
 21 22  1  0
 22 23  1  0
 23 24  1  0
 24 25  1  0
 25 26  1  0
 26 27  1  0
 27 28  2  0
 28 29  1  0
 29 30  2  0
 30 31  1  0
 30 32  1  0
 32 33  2  0
 32 34  1  0
 20 35  1  0
  8 36  2  0
 31 26  2  0
 34 14  1  0
 35 16  2  0
 36  4  1  0
M  END
$$$$
