
     RDKit          3D

 36 39  0  0  0  0  0  0  0  0999 V2000
  -23.2706  -42.6614   -9.4301 C   0  0  0  0  0  0  0  0  0  0  0  0
  -21.9100  -42.0783   -9.7437 C   0  0  0  0  0  0  0  0  0  0  0  0
  -21.9385  -41.6303  -11.1914 C   0  0  0  0  0  0  0  0  0  0  0  0
  -21.5641  -40.9450   -8.8772 C   0  0  0  0  0  0  0  0  0  0  0  0
  -22.2044  -39.7352   -9.0239 C   0  0  0  0  0  0  0  0  0  0  0  0
  -21.8644  -38.6769   -8.1963 C   0  0  0  0  0  0  0  0  0  0  0  0
  -20.8757  -38.8537   -7.2241 C   0  0  0  0  0  0  0  0  0  0  0  0
  -20.2310  -40.0540   -7.0686 C   0  0  0  0  0  0  0  0  0  0  0  0
  -19.1838  -40.2744   -6.0539 C   0  0  0  0  0  0  0  0  0  0  0  0
  -17.8448  -40.3606   -6.5898 N   0  0  0  0  0  0  0  0  0  0  0  0
  -17.1590  -39.1343   -6.3133 C   0  0  0  0  0  0  0  0  0  0  0  0
  -16.3890  -38.6360   -7.5599 C   0  0  1  0  0  0  0  0  0  0  0  0
  -15.7912  -37.4560   -7.2124 O   0  0  0  0  0  0  0  0  0  0  0  0
  -15.3813  -39.7305   -7.8381 C   0  0  2  0  0  0  0  0  0  0  0  0
  -14.5557  -39.5554   -9.0657 C   0  0  0  0  0  0  0  0  0  0  0  0
  -14.5555  -38.2175   -9.7397 C   0  0  0  0  0  0  0  0  0  0  0  0
  -13.2367  -37.6899   -9.7739 C   0  0  0  0  0  0  0  0  0  0  0  0
  -12.9107  -36.5134  -10.3875 C   0  0  0  0  0  0  0  0  0  0  0  0
  -13.9612  -35.8601  -10.9825 C   0  0  0  0  0  0  0  0  0  0  0  0
  -15.2900  -36.3385  -10.9781 C   0  0  0  0  0  0  0  0  0  0  0  0
  -16.1682  -35.4225  -11.7367 C   0  0  0  0  0  0  0  0  0  0  0  0
  -16.7627  -35.9966  -13.0137 C   0  0  0  0  0  0  0  0  0  0  0  0
  -17.9982  -36.8379  -12.7408 C   0  0  0  0  0  0  0  0  0  0  0  0
  -17.7725  -38.2043  -13.2761 C   0  0  0  0  0  0  0  0  0  0  0  0
  -18.5653  -39.2275  -12.7099 O   0  0  0  0  0  0  0  0  0  0  0  0
  -18.6607  -39.7575  -11.4347 C   0  0  0  0  0  0  0  0  0  0  0  0
  -19.9744  -39.6201  -10.9381 C   0  0  0  0  0  0  0  0  0  0  0  0
  -20.3429  -40.0370   -9.7321 N   0  0  0  0  0  0  0  0  0  0  0  0
  -19.4007  -40.6057   -8.9848 C   0  0  0  0  0  0  0  0  0  0  0  0
  -18.0532  -40.7837   -9.4080 C   0  0  0  0  0  0  0  0  0  0  0  0
  -17.6806  -40.3546  -10.6576 C   0  0  0  0  0  0  0  0  0  0  0  0
  -17.2794  -41.3824   -8.3054 C   0  0  0  0  0  0  0  0  0  0  0  0
  -17.8582  -42.3847   -7.7039 O   0  0  0  0  0  0  0  0  0  0  0  0
  -16.0037  -41.0505   -7.7796 N   0  0  0  0  0  0  0  0  0  0  0  0
  -15.5882  -37.5369  -10.3422 C   0  0  0  0  0  0  0  0  0  0  0  0
  -20.5812  -41.0926   -7.8985 C   0  0  0  0  0  0  0  0  0  0  0  0
  1  2  1  0
  2  3  1  0
  2  4  1  0
  4  5  2  0
  5  6  1  0
  6  7  2  0
  7  8  1  0
  8  9  1  0
  9 10  1  0
 10 11  1  0
 11 12  1  0
 12 13  1  1
 12 14  1  0
 14 15  1  6
 15 16  1  0
 16 17  1  0
 17 18  2  0
 18 19  1  0
 19 20  2  0
 20 21  1  0
 21 22  1  0
 22 23  1  0
 23 24  1  0
 24 25  1  0
 25 26  1  0
 26 27  1  0
 27 28  2  0
 28 29  1  0
 29 30  2  0
 30 31  1  0
 30 32  1  0
 32 33  2  0
 32 34  1  0
 20 35  1  0
  8 36  2  0
 31 26  2  0
 34 14  1  0
 35 16  2  0
 36  4  1  0
M  END
$$$$
