
     RDKit          3D

 36 39  0  0  0  0  0  0  0  0999 V2000
  -14.3762  -34.1738  -10.8327 C   0  0  0  0  0  0  0  0  0  0  0  0
  -13.6923  -35.0438  -11.8646 C   0  0  0  0  0  0  0  0  0  0  0  0
  -12.3014  -34.4793  -12.0743 C   0  0  0  0  0  0  0  0  0  0  0  0
  -13.6034  -36.4501  -11.4531 C   0  0  0  0  0  0  0  0  0  0  0  0
  -12.4040  -37.1221  -11.5241 C   0  0  0  0  0  0  0  0  0  0  0  0
  -12.3396  -38.4495  -11.1309 C   0  0  0  0  0  0  0  0  0  0  0  0
  -13.4944  -39.0867  -10.6677 C   0  0  0  0  0  0  0  0  0  0  0  0
  -14.6946  -38.4277  -10.5926 C   0  0  0  0  0  0  0  0  0  0  0  0
  -15.9312  -39.0696  -10.1093 C   0  0  0  0  0  0  0  0  0  0  0  0
  -16.7713  -38.2124   -9.3049 N   0  0  0  0  0  0  0  0  0  0  0  0
  -16.9335  -38.8087   -8.0131 C   0  0  0  0  0  0  0  0  0  0  0  0
  -18.0850  -39.8428   -8.0200 C   0  0  1  0  0  0  0  0  0  0  0  0
  -19.0035  -39.4208   -7.0987 O   0  0  0  0  0  0  0  0  0  0  0  0
  -18.6237  -39.7917   -9.4334 C   0  0  2  0  0  0  0  0  0  0  0  0
  -20.1079  -39.7803   -9.5619 C   0  0  0  0  0  0  0  0  0  0  0  0
  -20.9274  -39.5128   -8.3367 C   0  0  0  0  0  0  0  0  0  0  0  0
  -21.7259  -38.3534   -8.5287 C   0  0  0  0  0  0  0  0  0  0  0  0
  -22.6297  -37.8994   -7.6100 C   0  0  0  0  0  0  0  0  0  0  0  0
  -22.7194  -38.6516   -6.4652 C   0  0  0  0  0  0  0  0  0  0  0  0
  -21.9500  -39.8108   -6.2226 C   0  0  0  0  0  0  0  0  0  0  0  0
  -22.3144  -40.4057   -4.9191 C   0  0  0  0  0  0  0  0  0  0  0  0
  -22.9769  -41.7732   -4.9880 C   0  0  0  0  0  0  0  0  0  0  0  0
  -21.9607  -42.8935   -5.1328 C   0  0  0  0  0  0  0  0  0  0  0  0
  -22.2668  -43.6583   -6.3681 C   0  0  0  0  0  0  0  0  0  0  0  0
  -21.1946  -44.3953   -6.9191 O   0  0  0  0  0  0  0  0  0  0  0  0
  -19.9745  -44.0321   -7.4625 C   0  0  0  0  0  0  0  0  0  0  0  0
  -18.9156  -44.6307   -6.7470 C   0  0  0  0  0  0  0  0  0  0  0  0
  -17.6362  -44.4442   -7.0507 N   0  0  0  0  0  0  0  0  0  0  0  0
  -17.3794  -43.6478   -8.0849 C   0  0  0  0  0  0  0  0  0  0  0  0
  -18.3861  -43.0053   -8.8597 C   0  0  0  0  0  0  0  0  0  0  0  0
  -19.7065  -43.2064   -8.5429 C   0  0  0  0  0  0  0  0  0  0  0  0
  -17.7396  -42.1526   -9.8736 C   0  0  0  0  0  0  0  0  0  0  0  0
  -16.7505  -42.7101  -10.5158 O   0  0  0  0  0  0  0  0  0  0  0  0
  -18.0087  -40.8173  -10.2718 N   0  0  0  0  0  0  0  0  0  0  0  0
  -21.0376  -40.2436   -7.1763 C   0  0  0  0  0  0  0  0  0  0  0  0
  -14.7396  -37.1115  -10.9869 C   0  0  0  0  0  0  0  0  0  0  0  0
  1  2  1  0
  2  3  1  0
  2  4  1  0
  4  5  2  0
  5  6  1  0
  6  7  2  0
  7  8  1  0
  8  9  1  0
  9 10  1  0
 10 11  1  0
 11 12  1  0
 12 13  1  1
 12 14  1  0
 14 15  1  1
 15 16  1  0
 16 17  1  0
 17 18  2  0
 18 19  1  0
 19 20  2  0
 20 21  1  0
 21 22  1  0
 22 23  1  0
 23 24  1  0
 24 25  1  0
 25 26  1  0
 26 27  1  0
 27 28  2  0
 28 29  1  0
 29 30  2  0
 30 31  1  0
 30 32  1  0
 32 33  2  0
 32 34  1  0
 20 35  1  0
  8 36  2  0
 31 26  2  0
 34 14  1  0
 35 16  2  0
 36  4  1  0
M  END
$$$$
