
     RDKit          3D

 36 39  0  0  0  0  0  0  0  0999 V2000
  -13.5340  -34.6185  -12.8730 C   0  0  0  0  0  0  0  0  0  0  0  0
  -13.0863  -35.5864  -11.7996 C   0  0  0  0  0  0  0  0  0  0  0  0
  -12.4704  -34.7644  -10.6851 C   0  0  0  0  0  0  0  0  0  0  0  0
  -14.1892  -36.3980  -11.2705 C   0  0  0  0  0  0  0  0  0  0  0  0
  -15.3609  -36.5289  -11.9811 C   0  0  0  0  0  0  0  0  0  0  0  0
  -16.3908  -37.2995  -11.4655 C   0  0  0  0  0  0  0  0  0  0  0  0
  -16.2245  -37.9329  -10.2305 C   0  0  0  0  0  0  0  0  0  0  0  0
  -15.0620  -37.8099   -9.5136 C   0  0  0  0  0  0  0  0  0  0  0  0
  -14.8536  -38.4640   -8.2084 C   0  0  0  0  0  0  0  0  0  0  0  0
  -15.6206  -39.6739   -8.0200 N   0  0  0  0  0  0  0  0  0  0  0  0
  -16.3968  -39.5446   -6.8235 C   0  0  0  0  0  0  0  0  0  0  0  0
  -17.8702  -39.9480   -7.0718 C   0  0  1  0  0  0  0  0  0  0  0  0
  -18.6384  -39.1757   -6.2448 O   0  0  0  0  0  0  0  0  0  0  0  0
  -18.1025  -39.6313   -8.5334 C   0  0  2  0  0  0  0  0  0  0  0  0
  -19.5106  -39.3318   -8.9165 C   0  0  0  0  0  0  0  0  0  0  0  0
  -20.5042  -39.0653   -7.8274 C   0  0  0  0  0  0  0  0  0  0  0  0
  -21.0549  -37.7643   -7.9786 C   0  0  0  0  0  0  0  0  0  0  0  0
  -22.0397  -37.2640   -7.1743 C   0  0  0  0  0  0  0  0  0  0  0  0
  -22.4729  -38.1172   -6.1902 C   0  0  0  0  0  0  0  0  0  0  0  0
  -21.9605  -39.4187   -5.9949 C   0  0  0  0  0  0  0  0  0  0  0  0
  -22.6660  -40.0867   -4.8805 C   0  0  0  0  0  0  0  0  0  0  0  0
  -23.5095  -41.2909   -5.2705 C   0  0  0  0  0  0  0  0  0  0  0  0
  -22.6753  -42.5539   -5.4030 C   0  0  0  0  0  0  0  0  0  0  0  0
  -22.8470  -43.0973   -6.7741 C   0  0  0  0  0  0  0  0  0  0  0  0
  -21.8172  -43.9483   -7.2340 O   0  0  0  0  0  0  0  0  0  0  0  0
  -20.4717  -43.7541   -7.4941 C   0  0  0  0  0  0  0  0  0  0  0  0
  -19.6844  -44.6179   -6.7033 C   0  0  0  0  0  0  0  0  0  0  0  0
  -18.3571  -44.6354   -6.7466 N   0  0  0  0  0  0  0  0  0  0  0  0
  -17.7773  -43.7829   -7.5872 C   0  0  0  0  0  0  0  0  0  0  0  0
  -18.4953  -42.8787   -8.4200 C   0  0  0  0  0  0  0  0  0  0  0  0
  -19.8672  -42.8695   -8.3734 C   0  0  0  0  0  0  0  0  0  0  0  0
  -17.5336  -42.0455   -9.1642 C   0  0  0  0  0  0  0  0  0  0  0  0
  -16.5376  -42.6952   -9.7003 O   0  0  0  0  0  0  0  0  0  0  0  0
  -17.5034  -40.6458   -9.3967 N   0  0  0  0  0  0  0  0  0  0  0  0
  -20.9570  -39.8958   -6.8285 C   0  0  0  0  0  0  0  0  0  0  0  0
  -14.0512  -37.0415  -10.0406 C   0  0  0  0  0  0  0  0  0  0  0  0
  1  2  1  0
  2  3  1  0
  2  4  1  0
  4  5  2  0
  5  6  1  0
  6  7  2  0
  7  8  1  0
  8  9  1  0
  9 10  1  0
 10 11  1  0
 11 12  1  0
 12 13  1  1
 12 14  1  0
 14 15  1  1
 15 16  1  0
 16 17  1  0
 17 18  2  0
 18 19  1  0
 19 20  2  0
 20 21  1  0
 21 22  1  0
 22 23  1  0
 23 24  1  0
 24 25  1  0
 25 26  1  0
 26 27  1  0
 27 28  2  0
 28 29  1  0
 29 30  2  0
 30 31  1  0
 30 32  1  0
 32 33  2  0
 32 34  1  0
 20 35  1  0
  8 36  2  0
 31 26  2  0
 34 14  1  0
 35 16  2  0
 36  4  1  0
M  END
$$$$
