
     RDKit          3D

 36 39  0  0  0  0  0  0  0  0999 V2000
  -21.9040  -37.3457   -8.0643 C   0  0  0  0  0  0  0  0  0  0  0  0
  -22.6037  -38.6856   -7.9962 C   0  0  0  0  0  0  0  0  0  0  0  0
  -22.3453  -39.3922   -9.3119 C   0  0  0  0  0  0  0  0  0  0  0  0
  -22.1320  -39.5170   -6.8821 C   0  0  0  0  0  0  0  0  0  0  0  0
  -23.0176  -40.2920   -6.1677 C   0  0  0  0  0  0  0  0  0  0  0  0
  -22.5534  -41.0706   -5.1194 C   0  0  0  0  0  0  0  0  0  0  0  0
  -21.1920  -41.0573   -4.8027 C   0  0  0  0  0  0  0  0  0  0  0  0
  -20.3005  -40.2895   -5.5070 C   0  0  0  0  0  0  0  0  0  0  0  0
  -18.8587  -40.2520   -5.1994 C   0  0  0  0  0  0  0  0  0  0  0  0
  -18.0013  -40.2852   -6.3619 N   0  0  0  0  0  0  0  0  0  0  0  0
  -16.9917  -39.2800   -6.2175 C   0  0  0  0  0  0  0  0  0  0  0  0
  -16.3459  -38.9422   -7.5828 C   0  0  1  0  0  0  0  0  0  0  0  0
  -15.5634  -37.8372   -7.3898 O   0  0  0  0  0  0  0  0  0  0  0  0
  -15.5307  -40.1709   -7.9240 C   0  0  2  0  0  0  0  0  0  0  0  0
  -14.4983  -39.9910   -8.9828 C   0  0  0  0  0  0  0  0  0  0  0  0
  -14.1365  -38.5973   -9.3961 C   0  0  0  0  0  0  0  0  0  0  0  0
  -12.7543  -38.3641   -9.1639 C   0  0  0  0  0  0  0  0  0  0  0  0
  -12.1171  -37.2048   -9.5059 C   0  0  0  0  0  0  0  0  0  0  0  0
  -12.9147  -36.2596  -10.1017 C   0  0  0  0  0  0  0  0  0  0  0  0
  -14.2925  -36.4386  -10.3552 C   0  0  0  0  0  0  0  0  0  0  0  0
  -14.8471  -35.2519  -11.0405 C   0  0  0  0  0  0  0  0  0  0  0  0
  -15.3231  -35.4847  -12.4664 C   0  0  0  0  0  0  0  0  0  0  0  0
  -16.7225  -36.0747  -12.5123 C   0  0  0  0  0  0  0  0  0  0  0  0
  -16.6741  -37.3600  -13.2541 C   0  0  0  0  0  0  0  0  0  0  0  0
  -17.7268  -38.2647  -12.9904 O   0  0  0  0  0  0  0  0  0  0  0  0
  -18.1265  -38.9500  -11.8561 C   0  0  0  0  0  0  0  0  0  0  0  0
  -19.4539  -38.6129  -11.5156 C   0  0  0  0  0  0  0  0  0  0  0  0
  -20.0856  -39.1203  -10.4633 N   0  0  0  0  0  0  0  0  0  0  0  0
  -19.4018  -39.9839   -9.7174 C   0  0  0  0  0  0  0  0  0  0  0  0
  -18.0613  -40.3785   -9.9894 C   0  0  0  0  0  0  0  0  0  0  0  0
  -17.4163  -39.8535  -11.0815 C   0  0  0  0  0  0  0  0  0  0  0  0
  -17.6040  -41.2892   -8.9243 C   0  0  0  0  0  0  0  0  0  0  0  0
  -18.4513  -42.2247   -8.5949 O   0  0  0  0  0  0  0  0  0  0  0  0
  -16.3916  -41.3210   -8.1874 N   0  0  0  0  0  0  0  0  0  0  0  0
  -14.9104  -37.6284   -9.9920 C   0  0  0  0  0  0  0  0  0  0  0  0
  -20.7788  -39.5236   -6.5436 C   0  0  0  0  0  0  0  0  0  0  0  0
  1  2  1  0
  2  3  1  0
  2  4  1  0
  4  5  2  0
  5  6  1  0
  6  7  2  0
  7  8  1  0
  8  9  1  0
  9 10  1  0
 10 11  1  0
 11 12  1  0
 12 13  1  1
 12 14  1  0
 14 15  1  6
 15 16  1  0
 16 17  1  0
 17 18  2  0
 18 19  1  0
 19 20  2  0
 20 21  1  0
 21 22  1  0
 22 23  1  0
 23 24  1  0
 24 25  1  0
 25 26  1  0
 26 27  1  0
 27 28  2  0
 28 29  1  0
 29 30  2  0
 30 31  1  0
 30 32  1  0
 32 33  2  0
 32 34  1  0
 20 35  1  0
  8 36  2  0
 31 26  2  0
 34 14  1  0
 35 16  2  0
 36  4  1  0
M  END
$$$$
