
     RDKit          3D

 36 39  0  0  0  0  0  0  0  0999 V2000
  -18.3004  -40.7288   -1.8121 C   0  0  0  0  0  0  0  0  0  0  0  0
  -19.4360  -41.5823   -1.2912 C   0  0  0  0  0  0  0  0  0  0  0  0
  -19.9623  -40.9103   -0.0388 C   0  0  0  0  0  0  0  0  0  0  0  0
  -20.5216  -41.7405   -2.2666 C   0  0  0  0  0  0  0  0  0  0  0  0
  -21.7035  -42.3446   -1.9015 C   0  0  0  0  0  0  0  0  0  0  0  0
  -22.7171  -42.4846   -2.8362 C   0  0  0  0  0  0  0  0  0  0  0  0
  -22.5241  -42.0100   -4.1368 C   0  0  0  0  0  0  0  0  0  0  0  0
  -21.3513  -41.4066   -4.5121 C   0  0  0  0  0  0  0  0  0  0  0  0
  -21.1147  -40.8952   -5.8749 C   0  0  0  0  0  0  0  0  0  0  0  0
  -19.7723  -40.4132   -6.1049 N   0  0  0  0  0  0  0  0  0  0  0  0
  -19.8429  -39.0625   -6.5754 C   0  0  0  0  0  0  0  0  0  0  0  0
  -19.0606  -38.8950   -7.9003 C   0  0  1  0  0  0  0  0  0  0  0  0
  -18.7552  -37.5669   -8.0162 O   0  0  0  0  0  0  0  0  0  0  0  0
  -17.8282  -39.7541   -7.7170 C   0  0  2  0  0  0  0  0  0  0  0  0
  -16.6731  -39.4281   -8.5995 C   0  0  0  0  0  0  0  0  0  0  0  0
  -16.6940  -38.1326   -9.3516 C   0  0  0  0  0  0  0  0  0  0  0  0
  -15.5768  -37.3367   -8.9812 C   0  0  0  0  0  0  0  0  0  0  0  0
  -15.2896  -36.1284   -9.5509 C   0  0  0  0  0  0  0  0  0  0  0  0
  -16.1677  -35.7243  -10.5255 C   0  0  0  0  0  0  0  0  0  0  0  0
  -17.2931  -36.4748  -10.9316 C   0  0  0  0  0  0  0  0  0  0  0  0
  -18.0066  -35.7802  -12.0243 C   0  0  0  0  0  0  0  0  0  0  0  0
  -17.9891  -36.4896  -13.3698 C   0  0  0  0  0  0  0  0  0  0  0  0
  -19.0535  -37.5701  -13.4599 C   0  0  0  0  0  0  0  0  0  0  0  0
  -18.3934  -38.8659  -13.7594 C   0  0  0  0  0  0  0  0  0  0  0  0
  -19.1210  -40.0248  -13.4073 O   0  0  0  0  0  0  0  0  0  0  0  0
  -19.5557  -40.5410  -12.1989 C   0  0  0  0  0  0  0  0  0  0  0  0
  -20.9602  -40.6783  -12.1953 C   0  0  0  0  0  0  0  0  0  0  0  0
  -21.6424  -41.1435  -11.1550 N   0  0  0  0  0  0  0  0  0  0  0  0
  -20.9336  -41.4855  -10.0825 C   0  0  0  0  0  0  0  0  0  0  0  0
  -19.5162  -41.3793  -10.0022 C   0  0  0  0  0  0  0  0  0  0  0  0
  -18.8172  -40.9021  -11.0830 C   0  0  0  0  0  0  0  0  0  0  0  0
  -19.0811  -41.7803   -8.6521 C   0  0  0  0  0  0  0  0  0  0  0  0
  -19.6292  -42.8725   -8.1959 O   0  0  0  0  0  0  0  0  0  0  0  0
  -18.1631  -41.1752   -7.7548 N   0  0  0  0  0  0  0  0  0  0  0  0
  -17.5585  -37.6981  -10.3296 C   0  0  0  0  0  0  0  0  0  0  0  0
  -20.3570  -41.2763   -3.5717 C   0  0  0  0  0  0  0  0  0  0  0  0
  1  2  1  0
  2  3  1  0
  2  4  1  0
  4  5  2  0
  5  6  1  0
  6  7  2  0
  7  8  1  0
  8  9  1  0
  9 10  1  0
 10 11  1  0
 11 12  1  0
 12 13  1  1
 12 14  1  0
 14 15  1  6
 15 16  1  0
 16 17  1  0
 17 18  2  0
 18 19  1  0
 19 20  2  0
 20 21  1  0
 21 22  1  0
 22 23  1  0
 23 24  1  0
 24 25  1  0
 25 26  1  0
 26 27  1  0
 27 28  2  0
 28 29  1  0
 29 30  2  0
 30 31  1  0
 30 32  1  0
 32 33  2  0
 32 34  1  0
 20 35  1  0
  8 36  2  0
 31 26  2  0
 34 14  1  0
 35 16  2  0
 36  4  1  0
M  END
$$$$
