
     RDKit          3D

 36 39  0  0  0  0  0  0  0  0999 V2000
  -23.3267  -43.4720   -7.0134 C   0  0  0  0  0  0  0  0  0  0  0  0
  -22.5428  -43.5016   -5.7195 C   0  0  0  0  0  0  0  0  0  0  0  0
  -21.2689  -44.2780   -5.9863 C   0  0  0  0  0  0  0  0  0  0  0  0
  -22.2148  -42.1596   -5.2231 C   0  0  0  0  0  0  0  0  0  0  0  0
  -23.2164  -41.2675   -4.9132 C   0  0  0  0  0  0  0  0  0  0  0  0
  -22.8871  -40.0051   -4.4456 C   0  0  0  0  0  0  0  0  0  0  0  0
  -21.5419  -39.6562   -4.2955 C   0  0  0  0  0  0  0  0  0  0  0  0
  -20.5356  -40.5363   -4.6009 C   0  0  0  0  0  0  0  0  0  0  0  0
  -19.1070  -40.2007   -4.4545 C   0  0  0  0  0  0  0  0  0  0  0  0
  -18.4356  -39.9014   -5.6983 N   0  0  0  0  0  0  0  0  0  0  0  0
  -19.1187  -38.8192   -6.3408 C   0  0  0  0  0  0  0  0  0  0  0  0
  -18.7527  -38.7459   -7.8428 C   0  0  1  0  0  0  0  0  0  0  0  0
  -19.0413  -37.4759   -8.2605 O   0  0  0  0  0  0  0  0  0  0  0  0
  -17.2685  -39.0396   -7.8798 C   0  0  2  0  0  0  0  0  0  0  0  0
  -16.5392  -38.5452   -9.0811 C   0  0  0  0  0  0  0  0  0  0  0  0
  -17.2272  -37.5623   -9.9782 C   0  0  0  0  0  0  0  0  0  0  0  0
  -16.4777  -36.3571  -10.0454 C   0  0  0  0  0  0  0  0  0  0  0  0
  -16.8195  -35.2998  -10.8405 C   0  0  0  0  0  0  0  0  0  0  0  0
  -17.9573  -35.4804  -11.5868 C   0  0  0  0  0  0  0  0  0  0  0  0
  -18.7395  -36.6560  -11.5579 C   0  0  0  0  0  0  0  0  0  0  0  0
  -19.8704  -36.5439  -12.5035 C   0  0  0  0  0  0  0  0  0  0  0  0
  -19.8301  -37.5005  -13.6856 C   0  0  0  0  0  0  0  0  0  0  0  0
  -20.3631  -38.8769  -13.3249 C   0  0  0  0  0  0  0  0  0  0  0  0
  -19.3082  -39.8844  -13.6022 C   0  0  0  0  0  0  0  0  0  0  0  0
  -19.4223  -41.1059  -12.9014 O   0  0  0  0  0  0  0  0  0  0  0  0
  -19.3674  -41.4377  -11.5587 C   0  0  0  0  0  0  0  0  0  0  0  0
  -20.5668  -42.0607  -11.1528 C   0  0  0  0  0  0  0  0  0  0  0  0
  -20.7865  -42.4747   -9.9101 N   0  0  0  0  0  0  0  0  0  0  0  0
  -19.8061  -42.2748   -9.0336 C   0  0  0  0  0  0  0  0  0  0  0  0
  -18.5662  -41.6553   -9.3586 C   0  0  0  0  0  0  0  0  0  0  0  0
  -18.3443  -41.2341  -10.6461 C   0  0  0  0  0  0  0  0  0  0  0  0
  -17.7526  -41.5396   -8.1348 C   0  0  0  0  0  0  0  0  0  0  0  0
  -17.7129  -42.6122   -7.3935 O   0  0  0  0  0  0  0  0  0  0  0  0
  -17.0016  -40.4516   -7.6189 N   0  0  0  0  0  0  0  0  0  0  0  0
  -18.3657  -37.7115  -10.7360 C   0  0  0  0  0  0  0  0  0  0  0  0
  -20.8809  -41.7840   -5.0634 C   0  0  0  0  0  0  0  0  0  0  0  0
  1  2  1  0
  2  3  1  0
  2  4  1  0
  4  5  2  0
  5  6  1  0
  6  7  2  0
  7  8  1  0
  8  9  1  0
  9 10  1  0
 10 11  1  0
 11 12  1  0
 12 13  1  1
 12 14  1  0
 14 15  1  6
 15 16  1  0
 16 17  1  0
 17 18  2  0
 18 19  1  0
 19 20  2  0
 20 21  1  0
 21 22  1  0
 22 23  1  0
 23 24  1  0
 24 25  1  0
 25 26  1  0
 26 27  1  0
 27 28  2  0
 28 29  1  0
 29 30  2  0
 30 31  1  0
 30 32  1  0
 32 33  2  0
 32 34  1  0
 20 35  1  0
  8 36  2  0
 31 26  2  0
 34 14  1  0
 35 16  2  0
 36  4  1  0
M  END
$$$$
