
     RDKit          3D

 36 39  0  0  0  0  0  0  0  0999 V2000
  -23.8112  -42.9733   -4.9105 C   0  0  0  0  0  0  0  0  0  0  0  0
  -23.5621  -41.5501   -4.4611 C   0  0  0  0  0  0  0  0  0  0  0  0
  -22.9824  -41.6180   -3.0624 C   0  0  0  0  0  0  0  0  0  0  0  0
  -22.6426  -40.8269   -5.3480 C   0  0  0  0  0  0  0  0  0  0  0  0
  -22.9524  -39.5602   -5.7890 C   0  0  0  0  0  0  0  0  0  0  0  0
  -22.0717  -38.8930   -6.6256 C   0  0  0  0  0  0  0  0  0  0  0  0
  -20.8811  -39.5168   -7.0094 C   0  0  0  0  0  0  0  0  0  0  0  0
  -20.5618  -40.7782   -6.5766 C   0  0  0  0  0  0  0  0  0  0  0  0
  -19.3150  -41.4650   -6.9623 C   0  0  0  0  0  0  0  0  0  0  0  0
  -18.1114  -40.7192   -6.6748 N   0  0  0  0  0  0  0  0  0  0  0  0
  -18.4200  -39.3210   -6.6992 C   0  0  0  0  0  0  0  0  0  0  0  0
  -17.6593  -38.6049   -7.8411 C   0  0  1  0  0  0  0  0  0  0  0  0
  -17.6484  -37.2717   -7.5362 O   0  0  0  0  0  0  0  0  0  0  0  0
  -16.2741  -39.2137   -7.8057 C   0  0  2  0  0  0  0  0  0  0  0  0
  -15.3187  -38.7121   -8.8328 C   0  0  0  0  0  0  0  0  0  0  0  0
  -15.6756  -37.4714   -9.5927 C   0  0  0  0  0  0  0  0  0  0  0  0
  -14.6913  -36.4694   -9.3786 C   0  0  0  0  0  0  0  0  0  0  0  0
  -14.7091  -35.2506   -9.9960 C   0  0  0  0  0  0  0  0  0  0  0  0
  -15.7608  -35.0521  -10.8555 C   0  0  0  0  0  0  0  0  0  0  0  0
  -16.7661  -36.0123  -11.1046 C   0  0  0  0  0  0  0  0  0  0  0  0
  -17.7267  -35.5025  -12.1061 C   0  0  0  0  0  0  0  0  0  0  0  0
  -17.7417  -36.2452  -13.4335 C   0  0  0  0  0  0  0  0  0  0  0  0
  -18.5864  -37.5066  -13.3727 C   0  0  0  0  0  0  0  0  0  0  0  0
  -17.7362  -38.6680  -13.7373 C   0  0  0  0  0  0  0  0  0  0  0  0
  -18.1836  -39.9278  -13.2800 O   0  0  0  0  0  0  0  0  0  0  0  0
  -18.3611  -40.4709  -12.0193 C   0  0  0  0  0  0  0  0  0  0  0  0
  -19.7033  -40.8656  -11.8344 C   0  0  0  0  0  0  0  0  0  0  0  0
  -20.1524  -41.4105  -10.7095 N   0  0  0  0  0  0  0  0  0  0  0  0
  -19.2652  -41.5757   -9.7321 C   0  0  0  0  0  0  0  0  0  0  0  0
  -17.8943  -41.2061   -9.8350 C   0  0  0  0  0  0  0  0  0  0  0  0
  -17.4362  -40.6478  -11.0024 C   0  0  0  0  0  0  0  0  0  0  0  0
  -17.2285  -41.4698   -8.5465 C   0  0  0  0  0  0  0  0  0  0  0  0
  -17.5008  -42.6271   -8.0099 O   0  0  0  0  0  0  0  0  0  0  0  0
  -16.3375  -40.6726   -7.7819 N   0  0  0  0  0  0  0  0  0  0  0  0
  -16.7202  -37.2407  -10.4578 C   0  0  0  0  0  0  0  0  0  0  0  0
  -21.4473  -41.4247   -5.7473 C   0  0  0  0  0  0  0  0  0  0  0  0
  1  2  1  0
  2  3  1  0
  2  4  1  0
  4  5  2  0
  5  6  1  0
  6  7  2  0
  7  8  1  0
  8  9  1  0
  9 10  1  0
 10 11  1  0
 11 12  1  0
 12 13  1  1
 12 14  1  0
 14 15  1  6
 15 16  1  0
 16 17  1  0
 17 18  2  0
 18 19  1  0
 19 20  2  0
 20 21  1  0
 21 22  1  0
 22 23  1  0
 23 24  1  0
 24 25  1  0
 25 26  1  0
 26 27  1  0
 27 28  2  0
 28 29  1  0
 29 30  2  0
 30 31  1  0
 30 32  1  0
 32 33  2  0
 32 34  1  0
 20 35  1  0
  8 36  2  0
 31 26  2  0
 34 14  1  0
 35 16  2  0
 36  4  1  0
M  END
$$$$
