
     RDKit          3D

 36 39  0  0  0  0  0  0  0  0999 V2000
  -23.6654  -42.0301   -0.0965 C   0  0  0  0  0  0  0  0  0  0  0  0
  -22.8997  -42.9846   -0.9865 C   0  0  0  0  0  0  0  0  0  0  0  0
  -23.5407  -44.3495   -0.8342 C   0  0  0  0  0  0  0  0  0  0  0  0
  -22.9141  -42.5810   -2.3978 C   0  0  0  0  0  0  0  0  0  0  0  0
  -24.1018  -42.5123   -3.0904 C   0  0  0  0  0  0  0  0  0  0  0  0
  -24.0955  -42.1289   -4.4222 C   0  0  0  0  0  0  0  0  0  0  0  0
  -22.8823  -41.8175   -5.0428 C   0  0  0  0  0  0  0  0  0  0  0  0
  -21.6930  -41.8823   -4.3632 C   0  0  0  0  0  0  0  0  0  0  0  0
  -20.3961  -41.5608   -4.9872 C   0  0  0  0  0  0  0  0  0  0  0  0
  -20.4656  -41.3092   -6.4082 N   0  0  0  0  0  0  0  0  0  0  0  0
  -19.2011  -41.6361   -6.9955 C   0  0  0  0  0  0  0  0  0  0  0  0
  -19.0022  -40.8886   -8.3360 C   0  0  1  0  0  0  0  0  0  0  0  0
  -18.1243  -41.6298   -9.0778 O   0  0  0  0  0  0  0  0  0  0  0  0
  -20.3847  -40.8507   -8.9507 C   0  0  2  0  0  0  0  0  0  0  0  0
  -20.4367  -40.5747  -10.4138 C   0  0  0  0  0  0  0  0  0  0  0  0
  -19.1655  -40.6632  -11.2014 C   0  0  0  0  0  0  0  0  0  0  0  0
  -19.2905  -41.6473  -12.2186 C   0  0  0  0  0  0  0  0  0  0  0  0
  -18.3169  -41.9058  -13.1416 C   0  0  0  0  0  0  0  0  0  0  0  0
  -17.1860  -41.1370  -13.0215 C   0  0  0  0  0  0  0  0  0  0  0  0
  -17.0090  -40.1468  -12.0302 C   0  0  0  0  0  0  0  0  0  0  0  0
  -15.7021  -39.4769  -12.2008 C   0  0  0  0  0  0  0  0  0  0  0  0
  -15.7674  -38.0076  -12.5888 C   0  0  0  0  0  0  0  0  0  0  0  0
  -15.9889  -37.1081  -11.3844 C   0  0  0  0  0  0  0  0  0  0  0  0
  -17.2237  -36.3131  -11.6036 C   0  0  0  0  0  0  0  0  0  0  0  0
  -17.8451  -35.8054  -10.4407 O   0  0  0  0  0  0  0  0  0  0  0  0
  -18.4420  -36.4053   -9.3455 C   0  0  0  0  0  0  0  0  0  0  0  0
  -17.7953  -36.0157   -8.1533 C   0  0  0  0  0  0  0  0  0  0  0  0
  -18.1598  -36.4511   -6.9527 N   0  0  0  0  0  0  0  0  0  0  0  0
  -19.1878  -37.2944   -6.9118 C   0  0  0  0  0  0  0  0  0  0  0  0
  -19.8956  -37.7381   -8.0646 C   0  0  0  0  0  0  0  0  0  0  0  0
  -19.5161  -37.2802   -9.3018 C   0  0  0  0  0  0  0  0  0  0  0  0
  -20.9220  -38.7122   -7.6516 C   0  0  0  0  0  0  0  0  0  0  0  0
  -21.6263  -38.3655   -6.6099 O   0  0  0  0  0  0  0  0  0  0  0  0
  -21.2761  -39.9743   -8.1955 N   0  0  0  0  0  0  0  0  0  0  0  0
  -18.0175  -39.9110  -11.1046 C   0  0  0  0  0  0  0  0  0  0  0  0
  -21.7185  -42.2644   -3.0428 C   0  0  0  0  0  0  0  0  0  0  0  0
  1  2  1  0
  2  3  1  0
  2  4  1  0
  4  5  2  0
  5  6  1  0
  6  7  2  0
  7  8  1  0
  8  9  1  0
  9 10  1  0
 10 11  1  0
 11 12  1  0
 12 13  1  6
 12 14  1  0
 14 15  1  6
 15 16  1  0
 16 17  1  0
 17 18  2  0
 18 19  1  0
 19 20  2  0
 20 21  1  0
 21 22  1  0
 22 23  1  0
 23 24  1  0
 24 25  1  0
 25 26  1  0
 26 27  1  0
 27 28  2  0
 28 29  1  0
 29 30  2  0
 30 31  1  0
 30 32  1  0
 32 33  2  0
 32 34  1  0
 20 35  1  0
  8 36  2  0
 31 26  2  0
 34 14  1  0
 35 16  2  0
 36  4  1  0
M  END
$$$$
