
     RDKit          3D

 36 39  0  0  0  0  0  0  0  0999 V2000
  -12.5791  -36.7603  -10.6374 C   0  0  0  0  0  0  0  0  0  0  0  0
  -13.8895  -36.6886   -9.8842 C   0  0  0  0  0  0  0  0  0  0  0  0
  -13.8689  -35.4091   -9.0721 C   0  0  0  0  0  0  0  0  0  0  0  0
  -15.0572  -36.6966  -10.7738 C   0  0  0  0  0  0  0  0  0  0  0  0
  -15.3276  -35.6124  -11.5779 C   0  0  0  0  0  0  0  0  0  0  0  0
  -16.4345  -35.6384  -12.4113 C   0  0  0  0  0  0  0  0  0  0  0  0
  -17.2607  -36.7660  -12.4230 C   0  0  0  0  0  0  0  0  0  0  0  0
  -17.0015  -37.8517  -11.6265 C   0  0  0  0  0  0  0  0  0  0  0  0
  -17.8520  -39.0564  -11.6141 C   0  0  0  0  0  0  0  0  0  0  0  0
  -17.9499  -39.7024  -10.3254 N   0  0  0  0  0  0  0  0  0  0  0  0
  -18.9350  -39.0192   -9.5422 C   0  0  0  0  0  0  0  0  0  0  0  0
  -19.6518  -39.9950   -8.5782 C   0  0  1  0  0  0  0  0  0  0  0  0
  -20.4511  -39.2372   -7.7675 O   0  0  0  0  0  0  0  0  0  0  0  0
  -20.4518  -40.8999   -9.4902 C   0  0  2  0  0  0  0  0  0  0  0  0
  -21.8297  -41.2302   -9.0303 C   0  0  0  0  0  0  0  0  0  0  0  0
  -22.4179  -40.4299   -7.9088 C   0  0  0  0  0  0  0  0  0  0  0  0
  -23.6057  -39.7826   -8.3434 C   0  0  0  0  0  0  0  0  0  0  0  0
  -24.4018  -39.0360   -7.5213 C   0  0  0  0  0  0  0  0  0  0  0  0
  -23.9719  -38.9500   -6.2205 C   0  0  0  0  0  0  0  0  0  0  0  0
  -22.8001  -39.5719   -5.7359 C   0  0  0  0  0  0  0  0  0  0  0  0
  -22.6442  -39.3163   -4.2881 C   0  0  0  0  0  0  0  0  0  0  0  0
  -22.7605  -40.5406   -3.3929 C   0  0  0  0  0  0  0  0  0  0  0  0
  -21.4591  -41.3215   -3.3210 C   0  0  0  0  0  0  0  0  0  0  0  0
  -21.7132  -42.7142   -3.7687 C   0  0  0  0  0  0  0  0  0  0  0  0
  -20.5849  -43.4305   -4.2269 O   0  0  0  0  0  0  0  0  0  0  0  0
  -19.7223  -43.2587   -5.2957 C   0  0  0  0  0  0  0  0  0  0  0  0
  -18.3947  -43.1083   -4.8417 C   0  0  0  0  0  0  0  0  0  0  0  0
  -17.3642  -42.9197   -5.6580 N   0  0  0  0  0  0  0  0  0  0  0  0
  -17.6357  -42.8753   -6.9595 C   0  0  0  0  0  0  0  0  0  0  0  0
  -18.9443  -43.0179   -7.5017 C   0  0  0  0  0  0  0  0  0  0  0  0
  -20.0040  -43.2173   -6.6521 C   0  0  0  0  0  0  0  0  0  0  0  0
  -18.8784  -42.8487   -8.9645 C   0  0  0  0  0  0  0  0  0  0  0  0
  -17.9099  -43.4946   -9.5530 O   0  0  0  0  0  0  0  0  0  0  0  0
  -19.6925  -42.0947   -9.8493 N   0  0  0  0  0  0  0  0  0  0  0  0
  -22.0111  -40.3215   -6.5990 C   0  0  0  0  0  0  0  0  0  0  0  0
  -15.8991  -37.8082  -10.8062 C   0  0  0  0  0  0  0  0  0  0  0  0
  1  2  1  0
  2  3  1  0
  2  4  1  0
  4  5  2  0
  5  6  1  0
  6  7  2  0
  7  8  1  0
  8  9  1  0
  9 10  1  0
 10 11  1  0
 11 12  1  0
 12 13  1  1
 12 14  1  0
 14 15  1  1
 15 16  1  0
 16 17  1  0
 17 18  2  0
 18 19  1  0
 19 20  2  0
 20 21  1  0
 21 22  1  0
 22 23  1  0
 23 24  1  0
 24 25  1  0
 25 26  1  0
 26 27  1  0
 27 28  2  0
 28 29  1  0
 29 30  2  0
 30 31  1  0
 30 32  1  0
 32 33  2  0
 32 34  1  0
 20 35  1  0
  8 36  2  0
 31 26  2  0
 34 14  1  0
 35 16  2  0
 36  4  1  0
M  END
$$$$
