
     RDKit          3D

 36 39  0  0  0  0  0  0  0  0999 V2000
  -11.5617  -42.8339  -10.5914 C   0  0  0  0  0  0  0  0  0  0  0  0
  -11.6574  -41.4432  -10.0029 C   0  0  0  0  0  0  0  0  0  0  0  0
  -10.3933  -40.7043  -10.3940 C   0  0  0  0  0  0  0  0  0  0  0  0
  -12.8342  -40.7051  -10.4776 C   0  0  0  0  0  0  0  0  0  0  0  0
  -13.4226  -41.0305  -11.6789 C   0  0  0  0  0  0  0  0  0  0  0  0
  -14.5331  -40.3225  -12.1103 C   0  0  0  0  0  0  0  0  0  0  0  0
  -15.0396  -39.2878  -11.3187 C   0  0  0  0  0  0  0  0  0  0  0  0
  -14.4621  -38.9546  -10.1204 C   0  0  0  0  0  0  0  0  0  0  0  0
  -14.9705  -37.8691   -9.2612 C   0  0  0  0  0  0  0  0  0  0  0  0
  -16.3606  -38.0047   -8.8913 N   0  0  0  0  0  0  0  0  0  0  0  0
  -16.4650  -38.9740   -7.8424 C   0  0  0  0  0  0  0  0  0  0  0  0
  -17.9271  -39.4521   -7.6723 C   0  0  1  0  0  0  0  0  0  0  0  0
  -18.5065  -38.6350   -6.7411 O   0  0  0  0  0  0  0  0  0  0  0  0
  -18.5378  -39.2808   -9.0465 C   0  0  2  0  0  0  0  0  0  0  0  0
  -20.0263  -39.3036   -9.1022 C   0  0  0  0  0  0  0  0  0  0  0  0
  -20.7896  -39.1824   -7.8189 C   0  0  0  0  0  0  0  0  0  0  0  0
  -21.6274  -38.0355   -7.8573 C   0  0  0  0  0  0  0  0  0  0  0  0
  -22.4953  -37.7016   -6.8562 C   0  0  0  0  0  0  0  0  0  0  0  0
  -22.5070  -38.5640   -5.7883 C   0  0  0  0  0  0  0  0  0  0  0  0
  -21.6957  -39.7165   -5.6982 C   0  0  0  0  0  0  0  0  0  0  0  0
  -21.9778  -40.4465   -4.4439 C   0  0  0  0  0  0  0  0  0  0  0  0
  -22.6063  -41.8210   -4.6157 C   0  0  0  0  0  0  0  0  0  0  0  0
  -21.5693  -42.8894   -4.9186 C   0  0  0  0  0  0  0  0  0  0  0  0
  -21.9171  -43.5397   -6.2073 C   0  0  0  0  0  0  0  0  0  0  0  0
  -20.8549  -44.1856   -6.8789 O   0  0  0  0  0  0  0  0  0  0  0  0
  -19.6739  -43.7331   -7.4414 C   0  0  0  0  0  0  0  0  0  0  0  0
  -18.5647  -44.3649   -6.8398 C   0  0  0  0  0  0  0  0  0  0  0  0
  -17.3076  -44.1096   -7.1843 N   0  0  0  0  0  0  0  0  0  0  0  0
  -17.1248  -43.2088   -8.1459 C   0  0  0  0  0  0  0  0  0  0  0  0
  -18.1861  -42.5259   -8.8047 C   0  0  0  0  0  0  0  0  0  0  0  0
  -19.4830  -42.7982   -8.4466 C   0  0  0  0  0  0  0  0  0  0  0  0
  -17.6146  -41.5588   -9.7592 C   0  0  0  0  0  0  0  0  0  0  0  0
  -16.6447  -42.0198  -10.4997 O   0  0  0  0  0  0  0  0  0  0  0  0
  -17.9389  -40.2002  -10.0104 N   0  0  0  0  0  0  0  0  0  0  0  0
  -20.8215  -40.0257   -6.7324 C   0  0  0  0  0  0  0  0  0  0  0  0
  -13.3613  -39.6677   -9.7084 C   0  0  0  0  0  0  0  0  0  0  0  0
  1  2  1  0
  2  3  1  0
  2  4  1  0
  4  5  2  0
  5  6  1  0
  6  7  2  0
  7  8  1  0
  8  9  1  0
  9 10  1  0
 10 11  1  0
 11 12  1  0
 12 13  1  1
 12 14  1  0
 14 15  1  1
 15 16  1  0
 16 17  1  0
 17 18  2  0
 18 19  1  0
 19 20  2  0
 20 21  1  0
 21 22  1  0
 22 23  1  0
 23 24  1  0
 24 25  1  0
 25 26  1  0
 26 27  1  0
 27 28  2  0
 28 29  1  0
 29 30  2  0
 30 31  1  0
 30 32  1  0
 32 33  2  0
 32 34  1  0
 20 35  1  0
  8 36  2  0
 31 26  2  0
 34 14  1  0
 35 16  2  0
 36  4  1  0
M  END
$$$$
