
     RDKit          3D

 36 39  0  0  0  0  0  0  0  0999 V2000
  -15.7255  -41.4037  -12.8896 C   0  0  0  0  0  0  0  0  0  0  0  0
  -15.4580  -42.4687  -11.8486 C   0  0  0  0  0  0  0  0  0  0  0  0
  -15.1629  -43.7562  -12.5918 C   0  0  0  0  0  0  0  0  0  0  0  0
  -14.3332  -42.1320  -10.9674 C   0  0  0  0  0  0  0  0  0  0  0  0
  -13.0373  -42.3476  -11.3788 C   0  0  0  0  0  0  0  0  0  0  0  0
  -11.9885  -42.0232  -10.5331 C   0  0  0  0  0  0  0  0  0  0  0  0
  -12.2622  -41.4815   -9.2739 C   0  0  0  0  0  0  0  0  0  0  0  0
  -13.5488  -41.2622   -8.8531 C   0  0  0  0  0  0  0  0  0  0  0  0
  -13.8728  -40.6928   -7.5319 C   0  0  0  0  0  0  0  0  0  0  0  0
  -15.2791  -40.7182   -7.2016 N   0  0  0  0  0  0  0  0  0  0  0  0
  -16.0335  -40.4073   -8.3784 C   0  0  0  0  0  0  0  0  0  0  0  0
  -17.3990  -39.7779   -8.0117 C   0  0  1  0  0  0  0  0  0  0  0  0
  -17.1653  -38.8785   -7.0082 O   0  0  0  0  0  0  0  0  0  0  0  0
  -17.8559  -39.1074   -9.2893 C   0  0  2  0  0  0  0  0  0  0  0  0
  -19.2709  -38.6418   -9.3075 C   0  0  0  0  0  0  0  0  0  0  0  0
  -20.0194  -38.5853   -8.0110 C   0  0  0  0  0  0  0  0  0  0  0  0
  -20.4496  -37.2556   -7.7549 C   0  0  0  0  0  0  0  0  0  0  0  0
  -21.2161  -36.9048   -6.6796 C   0  0  0  0  0  0  0  0  0  0  0  0
  -21.5520  -37.9416   -5.8450 C   0  0  0  0  0  0  0  0  0  0  0  0
  -21.1514  -39.2800   -6.0515 C   0  0  0  0  0  0  0  0  0  0  0  0
  -21.7109  -40.1522   -4.9970 C   0  0  0  0  0  0  0  0  0  0  0  0
  -22.7317  -41.1759   -5.4702 C   0  0  0  0  0  0  0  0  0  0  0  0
  -22.0711  -42.4177   -6.0450 C   0  0  0  0  0  0  0  0  0  0  0  0
  -22.5421  -42.6059   -7.4405 C   0  0  0  0  0  0  0  0  0  0  0  0
  -21.7062  -43.3817   -8.2745 O   0  0  0  0  0  0  0  0  0  0  0  0
  -20.4165  -43.2110   -8.7471 C   0  0  0  0  0  0  0  0  0  0  0  0
  -19.5944  -44.2841   -8.3424 C   0  0  0  0  0  0  0  0  0  0  0  0
  -18.3056  -44.3695   -8.6518 N   0  0  0  0  0  0  0  0  0  0  0  0
  -17.8006  -43.3765   -9.3789 C   0  0  0  0  0  0  0  0  0  0  0  0
  -18.5583  -42.2583   -9.8285 C   0  0  0  0  0  0  0  0  0  0  0  0
  -19.8910  -42.1792   -9.5088 C   0  0  0  0  0  0  0  0  0  0  0  0
  -17.6645  -41.3298  -10.5439 C   0  0  0  0  0  0  0  0  0  0  0  0
  -16.8543  -41.8902  -11.3988 O   0  0  0  0  0  0  0  0  0  0  0  0
  -17.5308  -39.9194  -10.4589 N   0  0  0  0  0  0  0  0  0  0  0  0
  -20.3694  -39.6024   -7.1533 C   0  0  0  0  0  0  0  0  0  0  0  0
  -14.5766  -41.5901   -9.7053 C   0  0  0  0  0  0  0  0  0  0  0  0
  1  2  1  0
  2  3  1  0
  2  4  1  0
  4  5  2  0
  5  6  1  0
  6  7  2  0
  7  8  1  0
  8  9  1  0
  9 10  1  0
 10 11  1  0
 11 12  1  0
 12 13  1  1
 12 14  1  0
 14 15  1  1
 15 16  1  0
 16 17  1  0
 17 18  2  0
 18 19  1  0
 19 20  2  0
 20 21  1  0
 21 22  1  0
 22 23  1  0
 23 24  1  0
 24 25  1  0
 25 26  1  0
 26 27  1  0
 27 28  2  0
 28 29  1  0
 29 30  2  0
 30 31  1  0
 30 32  1  0
 32 33  2  0
 32 34  1  0
 20 35  1  0
  8 36  2  0
 31 26  2  0
 34 14  1  0
 35 16  2  0
 36  4  1  0
M  END
$$$$
