
     RDKit          3D

 36 39  0  0  0  0  0  0  0  0999 V2000
  -23.1648  -37.9377   -6.4518 C   0  0  0  0  0  0  0  0  0  0  0  0
  -22.6930  -38.8086   -5.3079 C   0  0  0  0  0  0  0  0  0  0  0  0
  -23.8150  -38.8562   -4.2901 C   0  0  0  0  0  0  0  0  0  0  0  0
  -22.3484  -40.1702   -5.7351 C   0  0  0  0  0  0  0  0  0  0  0  0
  -23.2927  -41.1712   -5.6994 C   0  0  0  0  0  0  0  0  0  0  0  0
  -22.9488  -42.4504   -6.1069 C   0  0  0  0  0  0  0  0  0  0  0  0
  -21.6472  -42.7053   -6.5485 C   0  0  0  0  0  0  0  0  0  0  0  0
  -20.6982  -41.7162   -6.5884 C   0  0  0  0  0  0  0  0  0  0  0  0
  -19.3167  -41.9507   -7.0482 C   0  0  0  0  0  0  0  0  0  0  0  0
  -19.2199  -42.5703   -8.3498 N   0  0  0  0  0  0  0  0  0  0  0  0
  -19.4690  -41.5775   -9.3514 C   0  0  0  0  0  0  0  0  0  0  0  0
  -18.2718  -40.6050   -9.4783 C   0  0  1  0  0  0  0  0  0  0  0  0
  -18.7653  -39.4299   -9.9744 O   0  0  0  0  0  0  0  0  0  0  0  0
  -17.7573  -40.4599   -8.0624 C   0  0  2  0  0  0  0  0  0  0  0  0
  -16.8481  -39.3055   -7.8177 C   0  0  0  0  0  0  0  0  0  0  0  0
  -16.7593  -38.2344   -8.8613 C   0  0  0  0  0  0  0  0  0  0  0  0
  -17.1496  -36.9843   -8.3102 C   0  0  0  0  0  0  0  0  0  0  0  0
  -17.1057  -35.8077   -9.0035 C   0  0  0  0  0  0  0  0  0  0  0  0
  -16.6499  -35.9127  -10.2941 C   0  0  0  0  0  0  0  0  0  0  0  0
  -16.2503  -37.1284  -10.8914 C   0  0  0  0  0  0  0  0  0  0  0  0
  -15.7767  -36.8913  -12.2717 C   0  0  0  0  0  0  0  0  0  0  0  0
  -14.2985  -37.1593  -12.5098 C   0  0  0  0  0  0  0  0  0  0  0  0
  -14.0158  -38.6337  -12.7440 C   0  0  0  0  0  0  0  0  0  0  0  0
  -13.0345  -39.0979  -11.7309 C   0  0  0  0  0  0  0  0  0  0  0  0
  -13.0189  -40.4880  -11.4787 O   0  0  0  0  0  0  0  0  0  0  0  0
  -13.9521  -41.3679  -10.9582 C   0  0  0  0  0  0  0  0  0  0  0  0
  -14.2411  -42.3902  -11.8871 C   0  0  0  0  0  0  0  0  0  0  0  0
  -15.1111  -43.3648  -11.6480 N   0  0  0  0  0  0  0  0  0  0  0  0
  -15.7203  -43.3428  -10.4657 C   0  0  0  0  0  0  0  0  0  0  0  0
  -15.4874  -42.3500   -9.4723 C   0  0  0  0  0  0  0  0  0  0  0  0
  -14.5834  -41.3482   -9.7245 C   0  0  0  0  0  0  0  0  0  0  0  0
  -16.3794  -42.6004   -8.3257 C   0  0  0  0  0  0  0  0  0  0  0  0
  -16.4389  -43.8426   -7.9322 O   0  0  0  0  0  0  0  0  0  0  0  0
  -17.1938  -41.7151   -7.5726 N   0  0  0  0  0  0  0  0  0  0  0  0
  -16.3102  -38.3075  -10.1596 C   0  0  0  0  0  0  0  0  0  0  0  0
  -21.0573  -40.4535   -6.1804 C   0  0  0  0  0  0  0  0  0  0  0  0
  1  2  1  0
  2  3  1  0
  2  4  1  0
  4  5  2  0
  5  6  1  0
  6  7  2  0
  7  8  1  0
  8  9  1  0
  9 10  1  0
 10 11  1  0
 11 12  1  0
 12 13  1  1
 12 14  1  0
 14 15  1  6
 15 16  1  0
 16 17  1  0
 17 18  2  0
 18 19  1  0
 19 20  2  0
 20 21  1  0
 21 22  1  0
 22 23  1  0
 23 24  1  0
 24 25  1  0
 25 26  1  0
 26 27  1  0
 27 28  2  0
 28 29  1  0
 29 30  2  0
 30 31  1  0
 30 32  1  0
 32 33  2  0
 32 34  1  0
 20 35  1  0
  8 36  2  0
 31 26  2  0
 34 14  1  0
 35 16  2  0
 36  4  1  0
M  END
$$$$
