
     RDKit          3D

 36 39  0  0  0  0  0  0  0  0999 V2000
  -18.1564  -36.4365  -11.4403 C   0  0  0  0  0  0  0  0  0  0  0  0
  -16.9242  -36.9769  -12.1326 C   0  0  0  0  0  0  0  0  0  0  0  0
  -16.4908  -35.9390  -13.1484 C   0  0  0  0  0  0  0  0  0  0  0  0
  -15.8241  -37.2533  -11.2008 C   0  0  0  0  0  0  0  0  0  0  0  0
  -14.9583  -36.2500  -10.8281 C   0  0  0  0  0  0  0  0  0  0  0  0
  -13.9258  -36.5300   -9.9471 C   0  0  0  0  0  0  0  0  0  0  0  0
  -13.7787  -37.8280   -9.4497 C   0  0  0  0  0  0  0  0  0  0  0  0
  -14.6348  -38.8355   -9.8136 C   0  0  0  0  0  0  0  0  0  0  0  0
  -14.5082  -40.2151   -9.3081 C   0  0  0  0  0  0  0  0  0  0  0  0
  -15.4217  -40.5428   -8.2378 N   0  0  0  0  0  0  0  0  0  0  0  0
  -16.1956  -39.3801   -7.9216 C   0  0  0  0  0  0  0  0  0  0  0  0
  -17.6979  -39.7307   -7.7970 C   0  0  1  0  0  0  0  0  0  0  0  0
  -18.2051  -38.9539   -6.7920 O   0  0  0  0  0  0  0  0  0  0  0  0
  -18.2779  -39.3727   -9.1483 C   0  0  2  0  0  0  0  0  0  0  0  0
  -19.7430  -39.1045   -9.1750 C   0  0  0  0  0  0  0  0  0  0  0  0
  -20.4551  -38.9057   -7.8720 C   0  0  0  0  0  0  0  0  0  0  0  0
  -21.0549  -37.6181   -7.8366 C   0  0  0  0  0  0  0  0  0  0  0  0
  -21.8312  -37.1760   -6.8028 C   0  0  0  0  0  0  0  0  0  0  0  0
  -21.9990  -38.0747   -5.7789 C   0  0  0  0  0  0  0  0  0  0  0  0
  -21.4258  -39.3654   -5.7625 C   0  0  0  0  0  0  0  0  0  0  0  0
  -21.8313  -40.0920   -4.5404 C   0  0  0  0  0  0  0  0  0  0  0  0
  -22.7162  -41.3082   -4.7674 C   0  0  0  0  0  0  0  0  0  0  0  0
  -21.9093  -42.5394   -5.1438 C   0  0  0  0  0  0  0  0  0  0  0  0
  -22.3898  -43.0417   -6.4558 C   0  0  0  0  0  0  0  0  0  0  0  0
  -21.4800  -43.8444   -7.1799 O   0  0  0  0  0  0  0  0  0  0  0  0
  -20.2395  -43.5997   -7.7431 C   0  0  0  0  0  0  0  0  0  0  0  0
  -19.2678  -44.4646   -7.1961 C   0  0  0  0  0  0  0  0  0  0  0  0
  -17.9887  -44.4392   -7.5529 N   0  0  0  0  0  0  0  0  0  0  0  0
  -17.6444  -43.5414   -8.4722 C   0  0  0  0  0  0  0  0  0  0  0  0
  -18.5598  -42.6327   -9.0747 C   0  0  0  0  0  0  0  0  0  0  0  0
  -19.8812  -42.6678   -8.7044 C   0  0  0  0  0  0  0  0  0  0  0  0
  -17.8214  -41.7455   -9.9915 C   0  0  0  0  0  0  0  0  0  0  0  0
  -16.9670  -42.3456  -10.7735 O   0  0  0  0  0  0  0  0  0  0  0  0
  -17.8786  -40.3385  -10.1685 N   0  0  0  0  0  0  0  0  0  0  0  0
  -20.6389  -39.7829   -6.8282 C   0  0  0  0  0  0  0  0  0  0  0  0
  -15.6532  -38.5394  -10.6884 C   0  0  0  0  0  0  0  0  0  0  0  0
  1  2  1  0
  2  3  1  0
  2  4  1  0
  4  5  2  0
  5  6  1  0
  6  7  2  0
  7  8  1  0
  8  9  1  0
  9 10  1  0
 10 11  1  0
 11 12  1  0
 12 13  1  1
 12 14  1  0
 14 15  1  1
 15 16  1  0
 16 17  1  0
 17 18  2  0
 18 19  1  0
 19 20  2  0
 20 21  1  0
 21 22  1  0
 22 23  1  0
 23 24  1  0
 24 25  1  0
 25 26  1  0
 26 27  1  0
 27 28  2  0
 28 29  1  0
 29 30  2  0
 30 31  1  0
 30 32  1  0
 32 33  2  0
 32 34  1  0
 20 35  1  0
  8 36  2  0
 31 26  2  0
 34 14  1  0
 35 16  2  0
 36  4  1  0
M  END
$$$$
