
     RDKit          3D

 36 39  0  0  0  0  0  0  0  0999 V2000
  -14.0676  -35.2414  -12.0761 C   0  0  0  0  0  0  0  0  0  0  0  0
  -12.6844  -35.8420  -11.9511 C   0  0  0  0  0  0  0  0  0  0  0  0
  -12.0204  -35.1903  -10.7547 C   0  0  0  0  0  0  0  0  0  0  0  0
  -12.7115  -37.2991  -11.7748 C   0  0  0  0  0  0  0  0  0  0  0  0
  -11.6882  -38.0791  -12.2643 C   0  0  0  0  0  0  0  0  0  0  0  0
  -11.7312  -39.4530  -12.0878 C   0  0  0  0  0  0  0  0  0  0  0  0
  -12.8137  -40.0268  -11.4149 C   0  0  0  0  0  0  0  0  0  0  0  0
  -13.8388  -39.2602  -10.9230 C   0  0  0  0  0  0  0  0  0  0  0  0
  -14.9951  -39.8328  -10.2090 C   0  0  0  0  0  0  0  0  0  0  0  0
  -15.9165  -38.8510   -9.6849 N   0  0  0  0  0  0  0  0  0  0  0  0
  -16.2562  -39.2106   -8.3410 C   0  0  0  0  0  0  0  0  0  0  0  0
  -17.7180  -39.7113   -8.2534 C   0  0  1  0  0  0  0  0  0  0  0  0
  -18.3314  -38.9776   -7.2757 O   0  0  0  0  0  0  0  0  0  0  0  0
  -18.2909  -39.4320   -9.6261 C   0  0  2  0  0  0  0  0  0  0  0  0
  -19.7608  -39.1956   -9.6797 C   0  0  0  0  0  0  0  0  0  0  0  0
  -20.4902  -38.9478   -8.3949 C   0  0  0  0  0  0  0  0  0  0  0  0
  -21.1160  -37.6727   -8.4286 C   0  0  0  0  0  0  0  0  0  0  0  0
  -21.9118  -37.1964   -7.4252 C   0  0  0  0  0  0  0  0  0  0  0  0
  -22.0722  -38.0471   -6.3599 C   0  0  0  0  0  0  0  0  0  0  0  0
  -21.4735  -39.3234   -6.2745 C   0  0  0  0  0  0  0  0  0  0  0  0
  -21.8770  -39.9973   -5.0221 C   0  0  0  0  0  0  0  0  0  0  0  0
  -22.7349  -41.2411   -5.1972 C   0  0  0  0  0  0  0  0  0  0  0  0
  -21.8997  -42.4725   -5.5049 C   0  0  0  0  0  0  0  0  0  0  0  0
  -22.3563  -43.0483   -6.7951 C   0  0  0  0  0  0  0  0  0  0  0  0
  -21.4231  -43.8666   -7.4702 O   0  0  0  0  0  0  0  0  0  0  0  0
  -20.1820  -43.6244   -8.0330 C   0  0  0  0  0  0  0  0  0  0  0  0
  -19.1989  -44.4413   -7.4351 C   0  0  0  0  0  0  0  0  0  0  0  0
  -17.9169  -44.4072   -7.7806 N   0  0  0  0  0  0  0  0  0  0  0  0
  -17.5811  -43.5487   -8.7397 C   0  0  0  0  0  0  0  0  0  0  0  0
  -18.5083  -42.6896   -9.3948 C   0  0  0  0  0  0  0  0  0  0  0  0
  -19.8324  -42.7337   -9.0357 C   0  0  0  0  0  0  0  0  0  0  0  0
  -17.7782  -41.8334  -10.3472 C   0  0  0  0  0  0  0  0  0  0  0  0
  -16.9039  -42.4535  -11.0905 O   0  0  0  0  0  0  0  0  0  0  0  0
  -17.8618  -40.4383  -10.5937 N   0  0  0  0  0  0  0  0  0  0  0  0
  -20.6673  -39.7763   -7.3110 C   0  0  0  0  0  0  0  0  0  0  0  0
  -13.7793  -37.8991  -11.1073 C   0  0  0  0  0  0  0  0  0  0  0  0
  1  2  1  0
  2  3  1  0
  2  4  1  0
  4  5  2  0
  5  6  1  0
  6  7  2  0
  7  8  1  0
  8  9  1  0
  9 10  1  0
 10 11  1  0
 11 12  1  0
 12 13  1  1
 12 14  1  0
 14 15  1  1
 15 16  1  0
 16 17  1  0
 17 18  2  0
 18 19  1  0
 19 20  2  0
 20 21  1  0
 21 22  1  0
 22 23  1  0
 23 24  1  0
 24 25  1  0
 25 26  1  0
 26 27  1  0
 27 28  2  0
 28 29  1  0
 29 30  2  0
 30 31  1  0
 30 32  1  0
 32 33  2  0
 32 34  1  0
 20 35  1  0
  8 36  2  0
 31 26  2  0
 34 14  1  0
 35 16  2  0
 36  4  1  0
M  END
$$$$
