
     RDKit          3D

 36 39  0  0  0  0  0  0  0  0999 V2000
  -24.4198  -40.8790   -5.2302 C   0  0  0  0  0  0  0  0  0  0  0  0
  -23.3289  -41.9271   -5.1980 C   0  0  0  0  0  0  0  0  0  0  0  0
  -23.9567  -43.2105   -4.6923 C   0  0  0  0  0  0  0  0  0  0  0  0
  -22.7200  -42.1541   -6.5143 C   0  0  0  0  0  0  0  0  0  0  0  0
  -23.4396  -41.9202   -7.6643 C   0  0  0  0  0  0  0  0  0  0  0  0
  -22.8477  -42.1400   -8.8980 C   0  0  0  0  0  0  0  0  0  0  0  0
  -21.5277  -42.5963   -8.9563 C   0  0  0  0  0  0  0  0  0  0  0  0
  -20.8010  -42.8329   -7.8177 C   0  0  0  0  0  0  0  0  0  0  0  0
  -19.4073  -43.3144   -7.8433 C   0  0  0  0  0  0  0  0  0  0  0  0
  -18.4154  -42.2643   -7.8704 N   0  0  0  0  0  0  0  0  0  0  0  0
  -18.0204  -42.0397   -9.2285 C   0  0  0  0  0  0  0  0  0  0  0  0
  -18.1632  -40.5461   -9.6079 C   0  0  1  0  0  0  0  0  0  0  0  0
  -17.3116  -40.3187  -10.6538 O   0  0  0  0  0  0  0  0  0  0  0  0
  -19.6156  -40.3999  -10.0075 C   0  0  2  0  0  0  0  0  0  0  0  0
  -19.9070  -39.3470  -11.0203 C   0  0  0  0  0  0  0  0  0  0  0  0
  -18.7602  -38.7464  -11.7743 C   0  0  0  0  0  0  0  0  0  0  0  0
  -18.9233  -38.9704  -13.1679 C   0  0  0  0  0  0  0  0  0  0  0  0
  -18.0704  -38.4793  -14.1156 C   0  0  0  0  0  0  0  0  0  0  0  0
  -17.0237  -37.7390  -13.6249 C   0  0  0  0  0  0  0  0  0  0  0  0
  -16.8138  -37.4864  -12.2513 C   0  0  0  0  0  0  0  0  0  0  0  0
  -15.6251  -36.6278  -12.0627 C   0  0  0  0  0  0  0  0  0  0  0  0
  -15.9037  -35.2406  -11.5045 C   0  0  0  0  0  0  0  0  0  0  0  0
  -16.0455  -35.2515   -9.9917 C   0  0  0  0  0  0  0  0  0  0  0  0
  -17.3774  -34.7017   -9.6335 C   0  0  0  0  0  0  0  0  0  0  0  0
  -17.8763  -35.0708   -8.3642 O   0  0  0  0  0  0  0  0  0  0  0  0
  -18.2412  -36.2830   -7.8045 C   0  0  0  0  0  0  0  0  0  0  0  0
  -17.4756  -36.5455   -6.6486 C   0  0  0  0  0  0  0  0  0  0  0  0
  -17.6145  -37.6468   -5.9192 N   0  0  0  0  0  0  0  0  0  0  0  0
  -18.5288  -38.5216   -6.3295 C   0  0  0  0  0  0  0  0  0  0  0  0
  -19.3430  -38.3353   -7.4824 C   0  0  0  0  0  0  0  0  0  0  0  0
  -19.1971  -37.1926   -8.2288 C   0  0  0  0  0  0  0  0  0  0  0  0
  -20.1882  -39.5284   -7.6703 C   0  0  0  0  0  0  0  0  0  0  0  0
  -20.7686  -39.9709   -6.5892 O   0  0  0  0  0  0  0  0  0  0  0  0
  -20.4785  -40.2862   -8.8346 N   0  0  0  0  0  0  0  0  0  0  0  0
  -17.6983  -38.0032  -11.3132 C   0  0  0  0  0  0  0  0  0  0  0  0
  -21.4044  -42.6093   -6.6028 C   0  0  0  0  0  0  0  0  0  0  0  0
  1  2  1  0
  2  3  1  0
  2  4  1  0
  4  5  2  0
  5  6  1  0
  6  7  2  0
  7  8  1  0
  8  9  1  0
  9 10  1  0
 10 11  1  0
 11 12  1  0
 12 13  1  6
 12 14  1  0
 14 15  1  6
 15 16  1  0
 16 17  1  0
 17 18  2  0
 18 19  1  0
 19 20  2  0
 20 21  1  0
 21 22  1  0
 22 23  1  0
 23 24  1  0
 24 25  1  0
 25 26  1  0
 26 27  1  0
 27 28  2  0
 28 29  1  0
 29 30  2  0
 30 31  1  0
 30 32  1  0
 32 33  2  0
 32 34  1  0
 20 35  1  0
  8 36  2  0
 31 26  2  0
 34 14  1  0
 35 16  2  0
 36  4  1  0
M  END
$$$$
