
     RDKit          3D

 36 39  0  0  0  0  0  0  0  0999 V2000
  -12.3788  -34.9341  -10.9606 C   0  0  0  0  0  0  0  0  0  0  0  0
  -13.5810  -35.2417  -11.8264 C   0  0  0  0  0  0  0  0  0  0  0  0
  -13.3866  -34.5079  -13.1382 C   0  0  0  0  0  0  0  0  0  0  0  0
  -13.7473  -36.6784  -12.0780 C   0  0  0  0  0  0  0  0  0  0  0  0
  -13.6162  -37.1821  -13.3525 C   0  0  0  0  0  0  0  0  0  0  0  0
  -13.7765  -38.5413  -13.5703 C   0  0  0  0  0  0  0  0  0  0  0  0
  -14.0692  -39.3812  -12.4920 C   0  0  0  0  0  0  0  0  0  0  0  0
  -14.2021  -38.8910  -11.2182 C   0  0  0  0  0  0  0  0  0  0  0  0
  -14.5105  -39.7486  -10.0588 C   0  0  0  0  0  0  0  0  0  0  0  0
  -15.9077  -40.0921   -9.9276 N   0  0  0  0  0  0  0  0  0  0  0  0
  -16.4857  -39.2820   -8.8978 C   0  0  0  0  0  0  0  0  0  0  0  0
  -17.9478  -39.7035   -8.6154 C   0  0  1  0  0  0  0  0  0  0  0  0
  -18.4603  -38.7933   -7.7325 O   0  0  0  0  0  0  0  0  0  0  0  0
  -18.6235  -39.6353   -9.9679 C   0  0  2  0  0  0  0  0  0  0  0  0
  -20.1040  -39.4710   -9.9459 C   0  0  0  0  0  0  0  0  0  0  0  0
  -20.7591  -39.0845   -8.6552 C   0  0  0  0  0  0  0  0  0  0  0  0
  -21.4509  -37.8532   -8.8101 C   0  0  0  0  0  0  0  0  0  0  0  0
  -22.2025  -37.2810   -7.8228 C   0  0  0  0  0  0  0  0  0  0  0  0
  -22.2482  -37.9874   -6.6467 C   0  0  0  0  0  0  0  0  0  0  0  0
  -21.5799  -39.2140   -6.4386 C   0  0  0  0  0  0  0  0  0  0  0  0
  -21.8647  -39.7306   -5.0830 C   0  0  0  0  0  0  0  0  0  0  0  0
  -22.6667  -41.0221   -5.0316 C   0  0  0  0  0  0  0  0  0  0  0  0
  -21.7910  -42.2469   -5.2352 C   0  0  0  0  0  0  0  0  0  0  0  0
  -22.3011  -43.0093   -6.4027 C   0  0  0  0  0  0  0  0  0  0  0  0
  -21.3733  -43.8702   -7.0306 O   0  0  0  0  0  0  0  0  0  0  0  0
  -20.1861  -43.6531   -7.7082 C   0  0  0  0  0  0  0  0  0  0  0  0
  -19.1249  -44.3398   -7.0811 C   0  0  0  0  0  0  0  0  0  0  0  0
  -17.8719  -44.2978   -7.5197 N   0  0  0  0  0  0  0  0  0  0  0  0
  -17.6449  -43.5621   -8.6044 C   0  0  0  0  0  0  0  0  0  0  0  0
  -18.6563  -42.8388   -9.2977 C   0  0  0  0  0  0  0  0  0  0  0  0
  -19.9499  -42.8906   -8.8413 C   0  0  0  0  0  0  0  0  0  0  0  0
  -18.0359  -42.0877  -10.4039 C   0  0  0  0  0  0  0  0  0  0  0  0
  -17.1815  -42.7640  -11.1210 O   0  0  0  0  0  0  0  0  0  0  0  0
  -18.2075  -40.7430  -10.8241 N   0  0  0  0  0  0  0  0  0  0  0  0
  -20.8213  -39.7671   -7.4623 C   0  0  0  0  0  0  0  0  0  0  0  0
  -14.0397  -37.5402  -11.0209 C   0  0  0  0  0  0  0  0  0  0  0  0
  1  2  1  0
  2  3  1  0
  2  4  1  0
  4  5  2  0
  5  6  1  0
  6  7  2  0
  7  8  1  0
  8  9  1  0
  9 10  1  0
 10 11  1  0
 11 12  1  0
 12 13  1  1
 12 14  1  0
 14 15  1  1
 15 16  1  0
 16 17  1  0
 17 18  2  0
 18 19  1  0
 19 20  2  0
 20 21  1  0
 21 22  1  0
 22 23  1  0
 23 24  1  0
 24 25  1  0
 25 26  1  0
 26 27  1  0
 27 28  2  0
 28 29  1  0
 29 30  2  0
 30 31  1  0
 30 32  1  0
 32 33  2  0
 32 34  1  0
 20 35  1  0
  8 36  2  0
 31 26  2  0
 34 14  1  0
 35 16  2  0
 36  4  1  0
M  END
$$$$
