
     RDKit          3D

 36 39  0  0  0  0  0  0  0  0999 V2000
  -13.7205  -34.8176  -11.6438 C   0  0  0  0  0  0  0  0  0  0  0  0
  -13.1570  -35.7412  -12.7016 C   0  0  0  0  0  0  0  0  0  0  0  0
  -11.6653  -35.4823  -12.7725 C   0  0  0  0  0  0  0  0  0  0  0  0
  -13.4043  -37.1583  -12.4088 C   0  0  0  0  0  0  0  0  0  0  0  0
  -13.1983  -38.1156  -13.3763 C   0  0  0  0  0  0  0  0  0  0  0  0
  -13.4369  -39.4485  -13.0811 C   0  0  0  0  0  0  0  0  0  0  0  0
  -13.8836  -39.8012  -11.8043 C   0  0  0  0  0  0  0  0  0  0  0  0
  -14.0924  -38.8565  -10.8325 C   0  0  0  0  0  0  0  0  0  0  0  0
  -14.5631  -39.1939   -9.4763 C   0  0  0  0  0  0  0  0  0  0  0  0
  -15.9400  -38.8397   -9.2190 N   0  0  0  0  0  0  0  0  0  0  0  0
  -16.3222  -39.3740   -7.9466 C   0  0  0  0  0  0  0  0  0  0  0  0
  -17.7789  -39.8958   -7.9790 C   0  0  1  0  0  0  0  0  0  0  0  0
  -18.4503  -39.2627   -6.9695 O   0  0  0  0  0  0  0  0  0  0  0  0
  -18.2881  -39.4957   -9.3469 C   0  0  2  0  0  0  0  0  0  0  0  0
  -19.7684  -39.4017   -9.4861 C   0  0  0  0  0  0  0  0  0  0  0  0
  -20.6026  -39.3998   -8.2418 C   0  0  0  0  0  0  0  0  0  0  0  0
  -21.3598  -38.2000   -8.1653 C   0  0  0  0  0  0  0  0  0  0  0  0
  -22.2664  -37.9421   -7.1761 C   0  0  0  0  0  0  0  0  0  0  0  0
  -22.4024  -38.9380   -6.2411 C   0  0  0  0  0  0  0  0  0  0  0  0
  -21.6752  -40.1484   -6.2688 C   0  0  0  0  0  0  0  0  0  0  0  0
  -22.0838  -41.0188   -5.1458 C   0  0  0  0  0  0  0  0  0  0  0  0
  -22.7881  -42.3077   -5.5415 C   0  0  0  0  0  0  0  0  0  0  0  0
  -21.8056  -43.3983   -5.9338 C   0  0  0  0  0  0  0  0  0  0  0  0
  -22.1118  -43.8409   -7.3176 C   0  0  0  0  0  0  0  0  0  0  0  0
  -21.0531  -44.4659   -8.0140 O   0  0  0  0  0  0  0  0  0  0  0  0
  -19.8117  -44.0292   -8.4428 C   0  0  0  0  0  0  0  0  0  0  0  0
  -18.7866  -44.8161   -7.8759 C   0  0  0  0  0  0  0  0  0  0  0  0
  -17.4962  -44.6092   -8.1126 N   0  0  0  0  0  0  0  0  0  0  0  0
  -17.1940  -43.6023   -8.9277 C   0  0  0  0  0  0  0  0  0  0  0  0
  -18.1644  -42.7606   -9.5415 C   0  0  0  0  0  0  0  0  0  0  0  0
  -19.4965  -42.9833   -9.2959 C   0  0  0  0  0  0  0  0  0  0  0  0
  -17.4714  -41.7177  -10.3192 C   0  0  0  0  0  0  0  0  0  0  0  0
  -16.4882  -42.1439  -11.0631 O   0  0  0  0  0  0  0  0  0  0  0  0
  -17.6899  -40.3176  -10.3957 N   0  0  0  0  0  0  0  0  0  0  0  0
  -20.7587  -40.3779   -7.2869 C   0  0  0  0  0  0  0  0  0  0  0  0
  -13.8505  -37.5393  -11.1433 C   0  0  0  0  0  0  0  0  0  0  0  0
  1  2  1  0
  2  3  1  0
  2  4  1  0
  4  5  2  0
  5  6  1  0
  6  7  2  0
  7  8  1  0
  8  9  1  0
  9 10  1  0
 10 11  1  0
 11 12  1  0
 12 13  1  1
 12 14  1  0
 14 15  1  1
 15 16  1  0
 16 17  1  0
 17 18  2  0
 18 19  1  0
 19 20  2  0
 20 21  1  0
 21 22  1  0
 22 23  1  0
 23 24  1  0
 24 25  1  0
 25 26  1  0
 26 27  1  0
 27 28  2  0
 28 29  1  0
 29 30  2  0
 30 31  1  0
 30 32  1  0
 32 33  2  0
 32 34  1  0
 20 35  1  0
  8 36  2  0
 31 26  2  0
 34 14  1  0
 35 16  2  0
 36  4  1  0
M  END
$$$$
