
     RDKit          3D

 36 39  0  0  0  0  0  0  0  0999 V2000
  -13.3431  -34.7150  -13.1316 C   0  0  0  0  0  0  0  0  0  0  0  0
  -13.3141  -36.1925  -12.8065 C   0  0  0  0  0  0  0  0  0  0  0  0
  -12.0389  -36.4546  -12.0306 C   0  0  0  0  0  0  0  0  0  0  0  0
  -14.4754  -36.6239  -12.0188 C   0  0  0  0  0  0  0  0  0  0  0  0
  -15.7463  -36.5193  -12.5372 C   0  0  0  0  0  0  0  0  0  0  0  0
  -16.8302  -36.9321  -11.7787 C   0  0  0  0  0  0  0  0  0  0  0  0
  -16.6167  -37.4488  -10.4975 C   0  0  0  0  0  0  0  0  0  0  0  0
  -15.3554  -37.5578   -9.9706 C   0  0  0  0  0  0  0  0  0  0  0  0
  -15.0948  -38.0978   -8.6233 C   0  0  0  0  0  0  0  0  0  0  0  0
  -15.7934  -39.3281   -8.3300 N   0  0  0  0  0  0  0  0  0  0  0  0
  -16.6440  -39.1152   -7.1978 C   0  0  0  0  0  0  0  0  0  0  0  0
  -18.0437  -39.7329   -7.4317 C   0  0  1  0  0  0  0  0  0  0  0  0
  -18.8979  -39.1255   -6.5531 O   0  0  0  0  0  0  0  0  0  0  0  0
  -18.3647  -39.3951   -8.8716 C   0  0  2  0  0  0  0  0  0  0  0  0
  -19.8111  -39.2475   -9.1964 C   0  0  0  0  0  0  0  0  0  0  0  0
  -20.7876  -39.1355   -8.0659 C   0  0  0  0  0  0  0  0  0  0  0  0
  -21.4888  -37.9025   -8.1487 C   0  0  0  0  0  0  0  0  0  0  0  0
  -22.4939  -37.5476   -7.2938 C   0  0  0  0  0  0  0  0  0  0  0  0
  -22.7899  -38.4787   -6.3295 C   0  0  0  0  0  0  0  0  0  0  0  0
  -22.1249  -39.7180   -6.2014 C   0  0  0  0  0  0  0  0  0  0  0  0
  -22.7076  -40.5012   -5.0911 C   0  0  0  0  0  0  0  0  0  0  0  0
  -23.4216  -41.7808   -5.4992 C   0  0  0  0  0  0  0  0  0  0  0  0
  -22.4537  -42.9335   -5.7075 C   0  0  0  0  0  0  0  0  0  0  0  0
  -22.6128  -43.4454   -7.0922 C   0  0  0  0  0  0  0  0  0  0  0  0
  -21.5101  -44.1552   -7.6181 O   0  0  0  0  0  0  0  0  0  0  0  0
  -20.2062  -43.7977   -7.9145 C   0  0  0  0  0  0  0  0  0  0  0  0
  -19.2965  -44.5913   -7.1839 C   0  0  0  0  0  0  0  0  0  0  0  0
  -17.9784  -44.4535   -7.2714 N   0  0  0  0  0  0  0  0  0  0  0  0
  -17.5315  -43.5112   -8.0971 C   0  0  0  0  0  0  0  0  0  0  0  0
  -18.3787  -42.6681   -8.8705 C   0  0  0  0  0  0  0  0  0  0  0  0
  -19.7400  -42.8193   -8.7785 C   0  0  0  0  0  0  0  0  0  0  0  0
  -17.5470  -41.7040   -9.6132 C   0  0  0  0  0  0  0  0  0  0  0  0
  -16.5037  -42.2152  -10.2063 O   0  0  0  0  0  0  0  0  0  0  0  0
  -17.6858  -40.3030   -9.7925 N   0  0  0  0  0  0  0  0  0  0  0  0
  -21.1051  -40.0468   -7.0853 C   0  0  0  0  0  0  0  0  0  0  0  0
  -14.2922  -37.1435  -10.7373 C   0  0  0  0  0  0  0  0  0  0  0  0
  1  2  1  0
  2  3  1  0
  2  4  1  0
  4  5  2  0
  5  6  1  0
  6  7  2  0
  7  8  1  0
  8  9  1  0
  9 10  1  0
 10 11  1  0
 11 12  1  0
 12 13  1  1
 12 14  1  0
 14 15  1  1
 15 16  1  0
 16 17  1  0
 17 18  2  0
 18 19  1  0
 19 20  2  0
 20 21  1  0
 21 22  1  0
 22 23  1  0
 23 24  1  0
 24 25  1  0
 25 26  1  0
 26 27  1  0
 27 28  2  0
 28 29  1  0
 29 30  2  0
 30 31  1  0
 30 32  1  0
 32 33  2  0
 32 34  1  0
 20 35  1  0
  8 36  2  0
 31 26  2  0
 34 14  1  0
 35 16  2  0
 36  4  1  0
M  END
$$$$
