
     RDKit          3D

 36 39  0  0  0  0  0  0  0  0999 V2000
  -16.4264  -39.7233  -13.9864 C   0  0  0  0  0  0  0  0  0  0  0  0
  -15.7431  -39.0999  -12.7889 C   0  0  0  0  0  0  0  0  0  0  0  0
  -16.7921  -38.3012  -12.0414 C   0  0  0  0  0  0  0  0  0  0  0  0
  -15.1435  -40.0971  -11.8940 C   0  0  0  0  0  0  0  0  0  0  0  0
  -14.2148  -40.9936  -12.3726 C   0  0  0  0  0  0  0  0  0  0  0  0
  -13.6595  -41.9275  -11.5124 C   0  0  0  0  0  0  0  0  0  0  0  0
  -14.0508  -41.9454  -10.1706 C   0  0  0  0  0  0  0  0  0  0  0  0
  -14.9749  -41.0576   -9.6824 C   0  0  0  0  0  0  0  0  0  0  0  0
  -15.4099  -41.0490   -8.2733 C   0  0  0  0  0  0  0  0  0  0  0  0
  -14.5834  -40.2476   -7.4003 N   0  0  0  0  0  0  0  0  0  0  0  0
  -15.2605  -39.0151   -7.1296 C   0  0  0  0  0  0  0  0  0  0  0  0
  -16.6813  -39.0164   -7.7432 C   0  0  1  0  0  0  0  0  0  0  0  0
  -17.4025  -38.0641   -7.0771 O   0  0  0  0  0  0  0  0  0  0  0  0
  -16.4603  -38.6574   -9.1967 C   0  0  2  0  0  0  0  0  0  0  0  0
  -17.4871  -37.7683   -9.8087 C   0  0  0  0  0  0  0  0  0  0  0  0
  -18.4522  -37.0656   -8.9037 C   0  0  0  0  0  0  0  0  0  0  0  0
  -18.3312  -35.6587   -9.0614 C   0  0  0  0  0  0  0  0  0  0  0  0
  -19.1299  -34.7562   -8.4176 C   0  0  0  0  0  0  0  0  0  0  0  0
  -20.0775  -35.3074   -7.5915 C   0  0  0  0  0  0  0  0  0  0  0  0
  -20.2408  -36.6967   -7.3976 C   0  0  0  0  0  0  0  0  0  0  0  0
  -21.3707  -36.9581   -6.4806 C   0  0  0  0  0  0  0  0  0  0  0  0
  -22.5649  -37.6666   -7.1016 C   0  0  0  0  0  0  0  0  0  0  0  0
  -22.3655  -39.1714   -7.1676 C   0  0  0  0  0  0  0  0  0  0  0  0
  -22.4885  -39.6072   -8.5817 C   0  0  0  0  0  0  0  0  0  0  0  0
  -21.8722  -40.8370   -8.9042 O   0  0  0  0  0  0  0  0  0  0  0  0
  -20.5571  -41.2687   -8.8997 C   0  0  0  0  0  0  0  0  0  0  0  0
  -20.4025  -42.3777   -8.0409 C   0  0  0  0  0  0  0  0  0  0  0  0
  -19.2390  -42.9866   -7.8419 N   0  0  0  0  0  0  0  0  0  0  0  0
  -18.1912  -42.4988   -8.5005 C   0  0  0  0  0  0  0  0  0  0  0  0
  -18.2591  -41.3853   -9.3851 C   0  0  0  0  0  0  0  0  0  0  0  0
  -19.4660  -40.7640   -9.5894 C   0  0  0  0  0  0  0  0  0  0  0  0
  -16.9041  -41.0833   -9.8806 C   0  0  0  0  0  0  0  0  0  0  0  0
  -16.2138  -42.1194  -10.2698 O   0  0  0  0  0  0  0  0  0  0  0  0
  -16.2149  -39.8490  -10.0049 N   0  0  0  0  0  0  0  0  0  0  0  0
  -19.4099  -37.5874   -8.0651 C   0  0  0  0  0  0  0  0  0  0  0  0
  -15.5151  -40.1383  -10.5501 C   0  0  0  0  0  0  0  0  0  0  0  0
  1  2  1  0
  2  3  1  0
  2  4  1  0
  4  5  2  0
  5  6  1  0
  6  7  2  0
  7  8  1  0
  8  9  1  0
  9 10  1  0
 10 11  1  0
 11 12  1  0
 12 13  1  1
 12 14  1  0
 14 15  1  6
 15 16  1  0
 16 17  1  0
 17 18  2  0
 18 19  1  0
 19 20  2  0
 20 21  1  0
 21 22  1  0
 22 23  1  0
 23 24  1  0
 24 25  1  0
 25 26  1  0
 26 27  1  0
 27 28  2  0
 28 29  1  0
 29 30  2  0
 30 31  1  0
 30 32  1  0
 32 33  2  0
 32 34  1  0
 20 35  1  0
  8 36  2  0
 31 26  2  0
 34 14  1  0
 35 16  2  0
 36  4  1  0
M  END
$$$$
