
     RDKit          3D

 36 39  0  0  0  0  0  0  0  0999 V2000
  -14.3343  -33.9919  -11.6357 C   0  0  0  0  0  0  0  0  0  0  0  0
  -15.3206  -34.9465  -10.9990 C   0  0  0  0  0  0  0  0  0  0  0  0
  -16.7046  -34.5290  -11.4545 C   0  0  0  0  0  0  0  0  0  0  0  0
  -15.0751  -36.3463  -11.3670 C   0  0  0  0  0  0  0  0  0  0  0  0
  -15.2705  -36.7706  -12.6620 C   0  0  0  0  0  0  0  0  0  0  0  0
  -15.0332  -38.0958  -12.9905 C   0  0  0  0  0  0  0  0  0  0  0  0
  -14.5985  -38.9827  -12.0013 C   0  0  0  0  0  0  0  0  0  0  0  0
  -14.4004  -38.5717  -10.7081 C   0  0  0  0  0  0  0  0  0  0  0  0
  -13.9429  -39.4806   -9.6406 C   0  0  0  0  0  0  0  0  0  0  0  0
  -15.0098  -40.1252   -8.9102 N   0  0  0  0  0  0  0  0  0  0  0  0
  -15.9064  -39.1203   -8.4233 C   0  0  0  0  0  0  0  0  0  0  0  0
  -17.3475  -39.6724   -8.3061 C   0  0  1  0  0  0  0  0  0  0  0  0
  -18.0353  -38.8173   -7.4899 O   0  0  0  0  0  0  0  0  0  0  0  0
  -17.8700  -39.6559   -9.7264 C   0  0  2  0  0  0  0  0  0  0  0  0
  -19.3291  -39.3964   -9.8779 C   0  0  0  0  0  0  0  0  0  0  0  0
  -20.0879  -38.8798   -8.6940 C   0  0  0  0  0  0  0  0  0  0  0  0
  -20.6704  -37.6207   -9.0008 C   0  0  0  0  0  0  0  0  0  0  0  0
  -21.4795  -36.9342   -8.1401 C   0  0  0  0  0  0  0  0  0  0  0  0
  -21.6992  -37.5523   -6.9342 C   0  0  0  0  0  0  0  0  0  0  0  0
  -21.1453  -38.8015   -6.5775 C   0  0  0  0  0  0  0  0  0  0  0  0
  -21.6076  -39.2029   -5.2318 C   0  0  0  0  0  0  0  0  0  0  0  0
  -22.5002  -40.4338   -5.1884 C   0  0  0  0  0  0  0  0  0  0  0  0
  -21.6969  -41.7232   -5.2172 C   0  0  0  0  0  0  0  0  0  0  0  0
  -22.1336  -42.5312   -6.3838 C   0  0  0  0  0  0  0  0  0  0  0  0
  -21.2081  -43.4913   -6.8505 O   0  0  0  0  0  0  0  0  0  0  0  0
  -19.9435  -43.3982   -7.4056 C   0  0  0  0  0  0  0  0  0  0  0  0
  -19.0058  -44.1057   -6.6236 C   0  0  0  0  0  0  0  0  0  0  0  0
  -17.7137  -44.1743   -6.9233 N   0  0  0  0  0  0  0  0  0  0  0  0
  -17.3218  -43.5322   -8.0204 C   0  0  0  0  0  0  0  0  0  0  0  0
  -18.2005  -42.7961   -8.8647 C   0  0  0  0  0  0  0  0  0  0  0  0
  -19.5355  -42.7334   -8.5512 C   0  0  0  0  0  0  0  0  0  0  0  0
  -17.4149  -42.1652   -9.9407 C   0  0  0  0  0  0  0  0  0  0  0  0
  -16.5397  -42.9430  -10.5155 O   0  0  0  0  0  0  0  0  0  0  0  0
  -17.4455  -40.8450  -10.4605 N   0  0  0  0  0  0  0  0  0  0  0  0
  -20.3239  -39.4719   -7.4748 C   0  0  0  0  0  0  0  0  0  0  0  0
  -14.6408  -37.2535  -10.4006 C   0  0  0  0  0  0  0  0  0  0  0  0
  1  2  1  0
  2  3  1  0
  2  4  1  0
  4  5  2  0
  5  6  1  0
  6  7  2  0
  7  8  1  0
  8  9  1  0
  9 10  1  0
 10 11  1  0
 11 12  1  0
 12 13  1  1
 12 14  1  0
 14 15  1  1
 15 16  1  0
 16 17  1  0
 17 18  2  0
 18 19  1  0
 19 20  2  0
 20 21  1  0
 21 22  1  0
 22 23  1  0
 23 24  1  0
 24 25  1  0
 25 26  1  0
 26 27  1  0
 27 28  2  0
 28 29  1  0
 29 30  2  0
 30 31  1  0
 30 32  1  0
 32 33  2  0
 32 34  1  0
 20 35  1  0
  8 36  2  0
 31 26  2  0
 34 14  1  0
 35 16  2  0
 36  4  1  0
M  END
$$$$
