
     RDKit          3D

 36 39  0  0  0  0  0  0  0  0999 V2000
  -24.3458  -39.3057   -7.8137 C   0  0  0  0  0  0  0  0  0  0  0  0
  -23.8130  -40.7138   -7.6620 C   0  0  0  0  0  0  0  0  0  0  0  0
  -23.4970  -41.2245   -9.0536 C   0  0  0  0  0  0  0  0  0  0  0  0
  -22.6113  -40.7793   -6.8214 C   0  0  0  0  0  0  0  0  0  0  0  0
  -22.4287  -41.8273   -5.9477 C   0  0  0  0  0  0  0  0  0  0  0  0
  -21.2877  -41.8720   -5.1625 C   0  0  0  0  0  0  0  0  0  0  0  0
  -20.3385  -40.8514   -5.2694 C   0  0  0  0  0  0  0  0  0  0  0  0
  -20.5094  -39.8025   -6.1360 C   0  0  0  0  0  0  0  0  0  0  0  0
  -19.5286  -38.7099   -6.2735 C   0  0  0  0  0  0  0  0  0  0  0  0
  -19.7149  -37.8871   -7.4464 N   0  0  0  0  0  0  0  0  0  0  0  0
  -19.6237  -38.7173   -8.6097 C   0  0  0  0  0  0  0  0  0  0  0  0
  -18.1465  -38.9987   -8.9759 C   0  0  1  0  0  0  0  0  0  0  0  0
  -17.7610  -38.0211   -9.8512 O   0  0  0  0  0  0  0  0  0  0  0  0
  -17.4116  -38.9104   -7.6558 C   0  0  2  0  0  0  0  0  0  0  0  0
  -15.9573  -38.5989   -7.7426 C   0  0  0  0  0  0  0  0  0  0  0  0
  -15.4108  -38.1048   -9.0470 C   0  0  0  0  0  0  0  0  0  0  0  0
  -14.8355  -36.8168   -8.8771 C   0  0  0  0  0  0  0  0  0  0  0  0
  -14.1955  -36.1389   -9.8760 C   0  0  0  0  0  0  0  0  0  0  0  0
  -14.1421  -36.7961  -11.0799 C   0  0  0  0  0  0  0  0  0  0  0  0
  -14.6972  -38.0753  -11.3039 C   0  0  0  0  0  0  0  0  0  0  0  0
  -14.4340  -38.5138  -12.6910 C   0  0  0  0  0  0  0  0  0  0  0  0
  -13.5134  -39.7164  -12.8319 C   0  0  0  0  0  0  0  0  0  0  0  0
  -14.2536  -41.0286  -12.6350 C   0  0  0  0  0  0  0  0  0  0  0  0
  -13.6117  -41.7764  -11.5244 C   0  0  0  0  0  0  0  0  0  0  0  0
  -14.4172  -42.7466  -10.8872 O   0  0  0  0  0  0  0  0  0  0  0  0
  -15.5832  -42.6722  -10.1451 C   0  0  0  0  0  0  0  0  0  0  0  0
  -16.6034  -43.4391  -10.7471 C   0  0  0  0  0  0  0  0  0  0  0  0
  -17.8301  -43.5371  -10.2474 N   0  0  0  0  0  0  0  0  0  0  0  0
  -18.0714  -42.8656   -9.1248 C   0  0  0  0  0  0  0  0  0  0  0  0
  -17.1009  -42.0696   -8.4530 C   0  0  0  0  0  0  0  0  0  0  0  0
  -15.8338  -41.9767   -8.9728 C   0  0  0  0  0  0  0  0  0  0  0  0
  -17.7336  -41.4227   -7.2893 C   0  0  0  0  0  0  0  0  0  0  0  0
  -18.4795  -42.2050   -6.5593 O   0  0  0  0  0  0  0  0  0  0  0  0
  -17.6725  -40.0830   -6.8251 N   0  0  0  0  0  0  0  0  0  0  0  0
  -15.3442  -38.7361  -10.2675 C   0  0  0  0  0  0  0  0  0  0  0  0
  -21.6473  -39.7748   -6.9070 C   0  0  0  0  0  0  0  0  0  0  0  0
  1  2  1  0
  2  3  1  0
  2  4  1  0
  4  5  2  0
  5  6  1  0
  6  7  2  0
  7  8  1  0
  8  9  1  0
  9 10  1  0
 10 11  1  0
 11 12  1  0
 12 13  1  6
 12 14  1  0
 14 15  1  6
 15 16  1  0
 16 17  1  0
 17 18  2  0
 18 19  1  0
 19 20  2  0
 20 21  1  0
 21 22  1  0
 22 23  1  0
 23 24  1  0
 24 25  1  0
 25 26  1  0
 26 27  1  0
 27 28  2  0
 28 29  1  0
 29 30  2  0
 30 31  1  0
 30 32  1  0
 32 33  2  0
 32 34  1  0
 20 35  1  0
  8 36  2  0
 31 26  2  0
 34 14  1  0
 35 16  2  0
 36  4  1  0
M  END
$$$$
