
     RDKit          3D

 36 39  0  0  0  0  0  0  0  0999 V2000
  -16.9889  -35.1014  -10.0977 C   0  0  0  0  0  0  0  0  0  0  0  0
  -16.8054  -35.9205  -11.3567 C   0  0  0  0  0  0  0  0  0  0  0  0
  -16.4984  -34.9507  -12.4802 C   0  0  0  0  0  0  0  0  0  0  0  0
  -15.7249  -36.9074  -11.2400 C   0  0  0  0  0  0  0  0  0  0  0  0
  -14.4699  -36.6277  -11.7318 C   0  0  0  0  0  0  0  0  0  0  0  0
  -13.4625  -37.5718  -11.6121 C   0  0  0  0  0  0  0  0  0  0  0  0
  -13.7359  -38.7950  -10.9932 C   0  0  0  0  0  0  0  0  0  0  0  0
  -14.9820  -39.0850  -10.4995 C   0  0  0  0  0  0  0  0  0  0  0  0
  -15.3043  -40.3648   -9.8416 C   0  0  0  0  0  0  0  0  0  0  0  0
  -15.3213  -40.3041   -8.3981 N   0  0  0  0  0  0  0  0  0  0  0  0
  -16.2418  -39.2852   -7.9916 C   0  0  0  0  0  0  0  0  0  0  0  0
  -17.6802  -39.8467   -7.8873 C   0  0  1  0  0  0  0  0  0  0  0  0
  -18.3622  -39.0345   -7.0236 O   0  0  0  0  0  0  0  0  0  0  0  0
  -18.2168  -39.7626   -9.2999 C   0  0  2  0  0  0  0  0  0  0  0  0
  -19.6834  -39.5323   -9.4241 C   0  0  0  0  0  0  0  0  0  0  0  0
  -20.4432  -39.1035   -8.2063 C   0  0  0  0  0  0  0  0  0  0  0  0
  -21.0600  -37.8443   -8.4357 C   0  0  0  0  0  0  0  0  0  0  0  0
  -21.8777  -37.2289   -7.5303 C   0  0  0  0  0  0  0  0  0  0  0  0
  -22.0700  -37.9201   -6.3601 C   0  0  0  0  0  0  0  0  0  0  0  0
  -21.4816  -39.1731   -6.0800 C   0  0  0  0  0  0  0  0  0  0  0  0
  -21.9205  -39.6623   -4.7557 C   0  0  0  0  0  0  0  0  0  0  0  0
  -22.7815  -40.9161   -4.7754 C   0  0  0  0  0  0  0  0  0  0  0  0
  -21.9465  -42.1808   -4.8847 C   0  0  0  0  0  0  0  0  0  0  0  0
  -22.3743  -42.9319   -6.0920 C   0  0  0  0  0  0  0  0  0  0  0  0
  -21.4296  -43.8398   -6.6206 O   0  0  0  0  0  0  0  0  0  0  0  0
  -20.1733  -43.6829   -7.1800 C   0  0  0  0  0  0  0  0  0  0  0  0
  -19.2106  -44.4096   -6.4476 C   0  0  0  0  0  0  0  0  0  0  0  0
  -17.9202  -44.4281   -6.7615 N   0  0  0  0  0  0  0  0  0  0  0  0
  -17.5552  -43.7146   -7.8233 C   0  0  0  0  0  0  0  0  0  0  0  0
  -18.4602  -42.9543   -8.6167 C   0  0  0  0  0  0  0  0  0  0  0  0
  -19.7932  -42.9436   -8.2890 C   0  0  0  0  0  0  0  0  0  0  0  0
  -17.7013  -42.2432   -9.6613 C   0  0  0  0  0  0  0  0  0  0  0  0
  -16.8125  -42.9643  -10.2870 O   0  0  0  0  0  0  0  0  0  0  0  0
  -17.7699  -40.8967  -10.1044 N   0  0  0  0  0  0  0  0  0  0  0  0
  -20.6525  -39.7701   -7.0211 C   0  0  0  0  0  0  0  0  0  0  0  0
  -15.9689  -38.1365  -10.6271 C   0  0  0  0  0  0  0  0  0  0  0  0
  1  2  1  0
  2  3  1  0
  2  4  1  0
  4  5  2  0
  5  6  1  0
  6  7  2  0
  7  8  1  0
  8  9  1  0
  9 10  1  0
 10 11  1  0
 11 12  1  0
 12 13  1  1
 12 14  1  0
 14 15  1  1
 15 16  1  0
 16 17  1  0
 17 18  2  0
 18 19  1  0
 19 20  2  0
 20 21  1  0
 21 22  1  0
 22 23  1  0
 23 24  1  0
 24 25  1  0
 25 26  1  0
 26 27  1  0
 27 28  2  0
 28 29  1  0
 29 30  2  0
 30 31  1  0
 30 32  1  0
 32 33  2  0
 32 34  1  0
 20 35  1  0
  8 36  2  0
 31 26  2  0
 34 14  1  0
 35 16  2  0
 36  4  1  0
M  END
$$$$
