
     RDKit          3D

 36 39  0  0  0  0  0  0  0  0999 V2000
  -13.6318  -34.5992  -11.7489 C   0  0  0  0  0  0  0  0  0  0  0  0
  -12.6087  -35.7032  -11.9044 C   0  0  0  0  0  0  0  0  0  0  0  0
  -11.6862  -35.6300  -10.7041 C   0  0  0  0  0  0  0  0  0  0  0  0
  -13.2188  -37.0360  -11.9846 C   0  0  0  0  0  0  0  0  0  0  0  0
  -12.7265  -37.9756  -12.8621 C   0  0  0  0  0  0  0  0  0  0  0  0
  -13.3154  -39.2286  -12.9234 C   0  0  0  0  0  0  0  0  0  0  0  0
  -14.4013  -39.5200  -12.0927 C   0  0  0  0  0  0  0  0  0  0  0  0
  -14.9003  -38.5922  -11.2148 C   0  0  0  0  0  0  0  0  0  0  0  0
  -16.0439  -38.8664  -10.3250 C   0  0  0  0  0  0  0  0  0  0  0  0
  -15.9610  -38.2228   -9.0341 N   0  0  0  0  0  0  0  0  0  0  0  0
  -16.1910  -39.2032   -8.0159 C   0  0  0  0  0  0  0  0  0  0  0  0
  -17.6927  -39.5667   -7.9249 C   0  0  1  0  0  0  0  0  0  0  0  0
  -18.2630  -38.6834   -7.0503 O   0  0  0  0  0  0  0  0  0  0  0  0
  -18.2058  -39.3887   -9.3376 C   0  0  2  0  0  0  0  0  0  0  0  0
  -19.6840  -39.2710   -9.4808 C   0  0  0  0  0  0  0  0  0  0  0  0
  -20.5024  -39.0298   -8.2495 C   0  0  0  0  0  0  0  0  0  0  0  0
  -21.2207  -37.8102   -8.3736 C   0  0  0  0  0  0  0  0  0  0  0  0
  -22.1065  -37.3579   -7.4367 C   0  0  0  0  0  0  0  0  0  0  0  0
  -22.2622  -38.1751   -6.3448 C   0  0  0  0  0  0  0  0  0  0  0  0
  -21.5738  -39.3959   -6.1705 C   0  0  0  0  0  0  0  0  0  0  0  0
  -21.9956  -40.0485   -4.9128 C   0  0  0  0  0  0  0  0  0  0  0  0
  -22.7447  -41.3619   -5.0783 C   0  0  0  0  0  0  0  0  0  0  0  0
  -21.8018  -42.5352   -5.2854 C   0  0  0  0  0  0  0  0  0  0  0  0
  -22.1387  -43.1966   -6.5714 C   0  0  0  0  0  0  0  0  0  0  0  0
  -21.1088  -43.9655   -7.1581 O   0  0  0  0  0  0  0  0  0  0  0  0
  -19.8596  -43.6494   -7.6634 C   0  0  0  0  0  0  0  0  0  0  0  0
  -18.8528  -44.3616   -6.9776 C   0  0  0  0  0  0  0  0  0  0  0  0
  -17.5595  -44.2408   -7.2548 N   0  0  0  0  0  0  0  0  0  0  0  0
  -17.2360  -43.3979   -8.2317 C   0  0  0  0  0  0  0  0  0  0  0  0
  -18.1869  -42.6414   -8.9734 C   0  0  0  0  0  0  0  0  0  0  0  0
  -19.5222  -42.7749   -8.6845 C   0  0  0  0  0  0  0  0  0  0  0  0
  -17.4711  -41.7695   -9.9223 C   0  0  0  0  0  0  0  0  0  0  0  0
  -16.5110  -42.3483  -10.5891 O   0  0  0  0  0  0  0  0  0  0  0  0
  -17.6466  -40.3963  -10.2349 N   0  0  0  0  0  0  0  0  0  0  0  0
  -20.6774  -39.8254   -7.1408 C   0  0  0  0  0  0  0  0  0  0  0  0
  -14.3036  -37.3546  -11.1677 C   0  0  0  0  0  0  0  0  0  0  0  0
  1  2  1  0
  2  3  1  0
  2  4  1  0
  4  5  2  0
  5  6  1  0
  6  7  2  0
  7  8  1  0
  8  9  1  0
  9 10  1  0
 10 11  1  0
 11 12  1  0
 12 13  1  1
 12 14  1  0
 14 15  1  1
 15 16  1  0
 16 17  1  0
 17 18  2  0
 18 19  1  0
 19 20  2  0
 20 21  1  0
 21 22  1  0
 22 23  1  0
 23 24  1  0
 24 25  1  0
 25 26  1  0
 26 27  1  0
 27 28  2  0
 28 29  1  0
 29 30  2  0
 30 31  1  0
 30 32  1  0
 32 33  2  0
 32 34  1  0
 20 35  1  0
  8 36  2  0
 31 26  2  0
 34 14  1  0
 35 16  2  0
 36  4  1  0
M  END
$$$$
