
     RDKit          3D

 36 39  0  0  0  0  0  0  0  0999 V2000
  -14.9804  -35.0987  -11.2837 C   0  0  0  0  0  0  0  0  0  0  0  0
  -15.2048  -36.1236  -12.3740 C   0  0  0  0  0  0  0  0  0  0  0  0
  -14.2820  -35.7648  -13.5216 C   0  0  0  0  0  0  0  0  0  0  0  0
  -14.9361  -37.4961  -11.9278 C   0  0  0  0  0  0  0  0  0  0  0  0
  -14.0677  -38.2998  -12.6314 C   0  0  0  0  0  0  0  0  0  0  0  0
  -13.8264  -39.5927  -12.1945 C   0  0  0  0  0  0  0  0  0  0  0  0
  -14.4688  -40.0617  -11.0450 C   0  0  0  0  0  0  0  0  0  0  0  0
  -15.3357  -39.2704  -10.3360 C   0  0  0  0  0  0  0  0  0  0  0  0
  -16.0299  -39.7335   -9.1200 C   0  0  0  0  0  0  0  0  0  0  0  0
  -15.6881  -38.9992   -7.9236 N   0  0  0  0  0  0  0  0  0  0  0  0
  -16.4262  -39.5431   -6.8236 C   0  0  0  0  0  0  0  0  0  0  0  0
  -17.5358  -40.5012   -7.3197 C   0  0  1  0  0  0  0  0  0  0  0  0
  -18.6212  -40.3048   -6.5110 O   0  0  0  0  0  0  0  0  0  0  0  0
  -17.7954  -40.0649   -8.7455 C   0  0  2  0  0  0  0  0  0  0  0  0
  -19.1949  -39.6589   -9.0551 C   0  0  0  0  0  0  0  0  0  0  0  0
  -20.1360  -39.4179   -7.9147 C   0  0  0  0  0  0  0  0  0  0  0  0
  -20.6136  -38.0803   -7.9522 C   0  0  0  0  0  0  0  0  0  0  0  0
  -21.5412  -37.5859   -7.0791 C   0  0  0  0  0  0  0  0  0  0  0  0
  -21.9924  -38.4836   -6.1439 C   0  0  0  0  0  0  0  0  0  0  0  0
  -21.5516  -39.8228   -6.0611 C   0  0  0  0  0  0  0  0  0  0  0  0
  -22.2595  -40.5303   -4.9730 C   0  0  0  0  0  0  0  0  0  0  0  0
  -23.1844  -41.6530   -5.4178 C   0  0  0  0  0  0  0  0  0  0  0  0
  -22.4306  -42.9478   -5.6706 C   0  0  0  0  0  0  0  0  0  0  0  0
  -22.6775  -43.3780   -7.0702 C   0  0  0  0  0  0  0  0  0  0  0  0
  -21.7147  -44.2495   -7.6267 O   0  0  0  0  0  0  0  0  0  0  0  0
  -20.3690  -44.1128   -7.9204 C   0  0  0  0  0  0  0  0  0  0  0  0
  -19.6093  -45.0757   -7.2226 C   0  0  0  0  0  0  0  0  0  0  0  0
  -18.2874  -45.1648   -7.3147 N   0  0  0  0  0  0  0  0  0  0  0  0
  -17.6853  -44.2867   -8.1122 C   0  0  0  0  0  0  0  0  0  0  0  0
  -18.3750  -43.2844   -8.8516 C   0  0  0  0  0  0  0  0  0  0  0  0
  -19.7417  -43.2013   -8.7551 C   0  0  0  0  0  0  0  0  0  0  0  0
  -17.3900  -42.4541   -9.5681 C   0  0  0  0  0  0  0  0  0  0  0  0
  -16.4515  -43.1177  -10.1849 O   0  0  0  0  0  0  0  0  0  0  0  0
  -17.2848  -41.0451   -9.7003 N   0  0  0  0  0  0  0  0  0  0  0  0
  -20.6050  -40.2930   -6.9624 C   0  0  0  0  0  0  0  0  0  0  0  0
  -15.5630  -37.9908  -10.7841 C   0  0  0  0  0  0  0  0  0  0  0  0
  1  2  1  0
  2  3  1  0
  2  4  1  0
  4  5  2  0
  5  6  1  0
  6  7  2  0
  7  8  1  0
  8  9  1  0
  9 10  1  0
 10 11  1  0
 11 12  1  0
 12 13  1  1
 12 14  1  0
 14 15  1  1
 15 16  1  0
 16 17  1  0
 17 18  2  0
 18 19  1  0
 19 20  2  0
 20 21  1  0
 21 22  1  0
 22 23  1  0
 23 24  1  0
 24 25  1  0
 25 26  1  0
 26 27  1  0
 27 28  2  0
 28 29  1  0
 29 30  2  0
 30 31  1  0
 30 32  1  0
 32 33  2  0
 32 34  1  0
 20 35  1  0
  8 36  2  0
 31 26  2  0
 34 14  1  0
 35 16  2  0
 36  4  1  0
M  END
$$$$
