
     RDKit          3D

 33 34  0  0  0  0  0  0  0  0999 V2000
  -20.8742  -38.7750   -8.4473 C   0  0  0  0  0  0  0  0  0  0  0  0
  -20.4874  -39.3670   -7.1318 C   0  0  2  0  0  0  0  0  0  0  0  0
  -21.0402  -38.4404   -6.0508 C   0  0  0  0  0  0  0  0  0  0  0  0
  -21.7904  -39.1891   -4.9958 C   0  0  0  0  0  0  0  0  0  0  0  0
  -22.9816  -39.9027   -5.5593 C   0  0  0  0  0  0  0  0  0  0  0  0
  -23.2007  -41.2283   -4.8661 C   0  0  0  0  0  0  0  0  0  0  0  0
  -22.7684  -42.3881   -5.7400 C   0  0  0  0  0  0  0  0  0  0  0  0
  -21.3909  -42.7966   -5.2891 C   0  0  0  0  0  0  0  0  0  0  0  0
  -20.9211  -43.9320   -5.8989 O   0  0  0  0  0  0  0  0  0  0  0  0
  -20.4573  -43.7516   -7.1924 C   0  0  0  0  0  0  0  0  0  0  0  0
  -19.4225  -44.7559   -7.4726 C   0  0  0  0  0  0  0  0  0  0  0  0
  -19.5041  -45.8478   -6.8009 O   0  0  0  0  0  0  0  0  0  0  0  0
  -18.3579  -44.6456   -8.3950 N   0  0  0  0  0  0  0  0  0  0  0  0
  -18.0492  -45.7738   -9.2572 C   0  0  0  0  0  0  0  0  0  0  0  0
  -17.5106  -43.4749   -8.5705 C   0  0  1  0  0  0  0  0  0  0  0  0
  -17.6267  -42.8887   -9.9350 C   0  0  0  0  0  0  0  0  0  0  0  0
  -17.5430  -42.5472   -7.4456 C   0  0  0  0  0  0  0  0  0  0  0  0
  -17.7225  -43.1256   -6.3051 O   0  0  0  0  0  0  0  0  0  0  0  0
  -17.4102  -41.1541   -7.4075 N   0  0  0  0  0  0  0  0  0  0  0  0
  -18.2358  -40.1345   -8.0092 C   0  0  1  0  0  0  0  0  0  0  0  0
  -19.0344  -39.5080   -6.8755 C   0  0  0  0  0  0  0  0  0  0  0  0
  -17.3007  -39.0530   -8.5784 C   0  0  2  0  0  0  0  0  0  0  0  0
  -17.5464  -38.9527   -9.9326 O   0  0  0  0  0  0  0  0  0  0  0  0
  -15.8572  -39.3836   -8.2789 C   0  0  0  0  0  0  0  0  0  0  0  0
  -15.0620  -39.5493   -9.4470 N   0  0  0  0  0  0  0  0  0  0  0  0
  -15.3552  -38.6379  -10.5241 C   0  0  0  0  0  0  0  0  0  0  0  0
  -14.1522  -37.8946  -10.9738 C   0  0  0  0  0  0  0  0  0  0  0  0
  -14.1162  -37.0468  -12.0568 C   0  0  0  0  0  0  0  0  0  0  0  0
  -12.9642  -36.4219  -12.3690 N   0  0  0  0  0  0  0  0  0  0  0  0
  -11.8186  -36.5922  -11.6542 C   0  0  0  0  0  0  0  0  0  0  0  0
  -11.8137  -37.4388  -10.5549 C   0  0  0  0  0  0  0  0  0  0  0  0
  -10.2131  -37.6897   -9.5371 Br  0  0  0  0  0  0  0  0  0  0  0  0
  -12.9899  -38.0667  -10.2493 C   0  0  0  0  0  0  0  0  0  0  0  0
  2  1  1  6
  2  3  1  0
  3  4  1  0
  4  5  1  0
  5  6  1  0
  6  7  1  0
  7  8  1  0
  8  9  1  0
  9 10  1  0
 10 11  1  0
 11 12  2  0
 11 13  1  0
 13 14  1  0
 13 15  1  0
 15 16  1  6
 15 17  1  0
 17 18  2  0
 17 19  1  0
 19 20  1  0
 20 21  1  1
 20 22  1  0
 22 23  1  6
 22 24  1  0
 24 25  1  0
 25 26  1  0
 26 27  1  0
 27 28  2  0
 28 29  1  0
 29 30  2  0
 30 31  1  0
 31 32  1  0
 31 33  2  0
 21  2  1  0
 33 27  1  0
M  END
$$$$
