
     RDKit          3D

 33 34  0  0  0  0  0  0  0  0999 V2000
  -19.6869  -38.3200   -8.5431 C   0  0  0  0  0  0  0  0  0  0  0  0
  -19.6992  -39.1572   -7.3064 C   0  0  2  0  0  0  0  0  0  0  0  0
  -20.4162  -38.3446   -6.2300 C   0  0  0  0  0  0  0  0  0  0  0  0
  -21.4733  -39.1402   -5.5332 C   0  0  0  0  0  0  0  0  0  0  0  0
  -22.5467  -39.5889   -6.4779 C   0  0  0  0  0  0  0  0  0  0  0  0
  -23.0555  -40.9643   -6.1108 C   0  0  0  0  0  0  0  0  0  0  0  0
  -22.5284  -42.0212   -7.0600 C   0  0  0  0  0  0  0  0  0  0  0  0
  -21.3523  -42.6781   -6.3870 C   0  0  0  0  0  0  0  0  0  0  0  0
  -20.8530  -43.7573   -7.0707 O   0  0  0  0  0  0  0  0  0  0  0  0
  -20.0650  -43.4416   -8.1664 C   0  0  0  0  0  0  0  0  0  0  0  0
  -19.0916  -44.5207   -8.3807 C   0  0  0  0  0  0  0  0  0  0  0  0
  -19.4407  -45.6829   -7.9592 O   0  0  0  0  0  0  0  0  0  0  0  0
  -17.8243  -44.4130   -8.9962 N   0  0  0  0  0  0  0  0  0  0  0  0
  -17.4163  -45.4239   -9.9569 C   0  0  0  0  0  0  0  0  0  0  0  0
  -16.8545  -43.3551   -8.7525 C   0  0  1  0  0  0  0  0  0  0  0  0
  -16.5696  -42.5527   -9.9747 C   0  0  0  0  0  0  0  0  0  0  0  0
  -17.0809  -42.6188   -7.5140 C   0  0  0  0  0  0  0  0  0  0  0  0
  -17.5937  -43.3386   -6.5725 O   0  0  0  0  0  0  0  0  0  0  0  0
  -16.8322  -41.2798   -7.1900 N   0  0  0  0  0  0  0  0  0  0  0  0
  -17.3816  -40.0763   -7.7671 C   0  0  1  0  0  0  0  0  0  0  0  0
  -18.3766  -39.5323   -6.7525 C   0  0  0  0  0  0  0  0  0  0  0  0
  -16.2368  -39.0561   -7.8958 C   0  0  2  0  0  0  0  0  0  0  0  0
  -16.7753  -37.7953   -7.7396 O   0  0  0  0  0  0  0  0  0  0  0  0
  -15.5241  -39.2170   -9.2183 C   0  0  0  0  0  0  0  0  0  0  0  0
  -14.2559  -39.8513   -9.1026 N   0  0  0  0  0  0  0  0  0  0  0  0
  -13.8022  -40.5380  -10.2855 C   0  0  0  0  0  0  0  0  0  0  0  0
  -13.1628  -39.6180  -11.2584 C   0  0  0  0  0  0  0  0  0  0  0  0
  -12.5818  -40.0118  -12.4418 C   0  0  0  0  0  0  0  0  0  0  0  0
  -12.0334  -39.0838  -13.2498 N   0  0  0  0  0  0  0  0  0  0  0  0
  -12.0267  -37.7569  -12.9467 C   0  0  0  0  0  0  0  0  0  0  0  0
  -12.6027  -37.3194  -11.7627 C   0  0  0  0  0  0  0  0  0  0  0  0
  -12.6040  -35.4579  -11.3202 Br  0  0  0  0  0  0  0  0  0  0  0  0
  -13.1557  -38.2721  -10.9518 C   0  0  0  0  0  0  0  0  0  0  0  0
  2  1  1  6
  2  3  1  0
  3  4  1  0
  4  5  1  0
  5  6  1  0
  6  7  1  0
  7  8  1  0
  8  9  1  0
  9 10  1  0
 10 11  1  0
 11 12  2  0
 11 13  1  0
 13 14  1  0
 13 15  1  0
 15 16  1  6
 15 17  1  0
 17 18  2  0
 17 19  1  0
 19 20  1  0
 20 21  1  1
 20 22  1  0
 22 23  1  6
 22 24  1  0
 24 25  1  0
 25 26  1  0
 26 27  1  0
 27 28  2  0
 28 29  1  0
 29 30  2  0
 30 31  1  0
 31 32  1  0
 31 33  2  0
 21  2  1  0
 33 27  1  0
M  END
$$$$
