
     RDKit          3D

 33 34  0  0  0  0  0  0  0  0999 V2000
  -20.1339  -38.4592   -8.0851 C   0  0  0  0  0  0  0  0  0  0  0  0
  -19.9398  -39.2450   -6.8299 C   0  0  2  0  0  0  0  0  0  0  0  0
  -20.5489  -38.4232   -5.6957 C   0  0  0  0  0  0  0  0  0  0  0  0
  -21.4626  -39.2378   -4.8368 C   0  0  0  0  0  0  0  0  0  0  0  0
  -22.6269  -39.7737   -5.6132 C   0  0  0  0  0  0  0  0  0  0  0  0
  -23.0116  -41.1551   -5.1343 C   0  0  0  0  0  0  0  0  0  0  0  0
  -22.5611  -42.2243   -6.1089 C   0  0  0  0  0  0  0  0  0  0  0  0
  -21.2743  -42.7981   -5.5774 C   0  0  0  0  0  0  0  0  0  0  0  0
  -20.8150  -43.8801   -6.2845 O   0  0  0  0  0  0  0  0  0  0  0  0
  -20.1960  -43.5732   -7.4860 C   0  0  0  0  0  0  0  0  0  0  0  0
  -19.2054  -44.6139   -7.7918 C   0  0  0  0  0  0  0  0  0  0  0  0
  -19.4357  -45.7730   -7.2878 O   0  0  0  0  0  0  0  0  0  0  0  0
  -18.0377  -44.4729   -8.5748 N   0  0  0  0  0  0  0  0  0  0  0  0
  -17.7090  -45.5023   -9.5464 C   0  0  0  0  0  0  0  0  0  0  0  0
  -17.0997  -43.3624   -8.4996 C   0  0  1  0  0  0  0  0  0  0  0  0
  -17.0203  -42.5981   -9.7757 C   0  0  0  0  0  0  0  0  0  0  0  0
  -17.1979  -42.5874   -7.2679 C   0  0  0  0  0  0  0  0  0  0  0  0
  -17.5442  -43.2912   -6.2421 O   0  0  0  0  0  0  0  0  0  0  0  0
  -16.9776  -41.2263   -7.0261 N   0  0  0  0  0  0  0  0  0  0  0  0
  -17.6593  -40.0739   -7.5653 C   0  0  1  0  0  0  0  0  0  0  0  0
  -18.5381  -39.5356   -6.4457 C   0  0  0  0  0  0  0  0  0  0  0  0
  -16.5954  -39.0080   -7.8810 C   0  0  2  0  0  0  0  0  0  0  0  0
  -17.1648  -37.7684   -7.6726 O   0  0  0  0  0  0  0  0  0  0  0  0
  -16.0763  -39.1725   -9.2904 C   0  0  0  0  0  0  0  0  0  0  0  0
  -14.9816  -40.0760   -9.3868 N   0  0  0  0  0  0  0  0  0  0  0  0
  -13.6972  -39.4631   -9.6136 C   0  0  0  0  0  0  0  0  0  0  0  0
  -13.7473  -38.4325  -10.6799 C   0  0  0  0  0  0  0  0  0  0  0  0
  -14.6930  -38.3852  -11.6781 C   0  0  0  0  0  0  0  0  0  0  0  0
  -14.6401  -37.3973  -12.5925 N   0  0  0  0  0  0  0  0  0  0  0  0
  -13.6820  -36.4306  -12.5756 C   0  0  0  0  0  0  0  0  0  0  0  0
  -12.7104  -36.4431  -11.5852 C   0  0  0  0  0  0  0  0  0  0  0  0
  -11.3564  -35.0919  -11.5443 Br  0  0  0  0  0  0  0  0  0  0  0  0
  -12.7761  -37.4517  -10.6634 C   0  0  0  0  0  0  0  0  0  0  0  0
  2  1  1  6
  2  3  1  0
  3  4  1  0
  4  5  1  0
  5  6  1  0
  6  7  1  0
  7  8  1  0
  8  9  1  0
  9 10  1  0
 10 11  1  0
 11 12  2  0
 11 13  1  0
 13 14  1  0
 13 15  1  0
 15 16  1  6
 15 17  1  0
 17 18  2  0
 17 19  1  0
 19 20  1  0
 20 21  1  1
 20 22  1  0
 22 23  1  6
 22 24  1  0
 24 25  1  0
 25 26  1  0
 26 27  1  0
 27 28  2  0
 28 29  1  0
 29 30  2  0
 30 31  1  0
 31 32  1  0
 31 33  2  0
 21  2  1  0
 33 27  1  0
M  END
$$$$
