
     RDKit          3D

 33 34  0  0  0  0  0  0  0  0999 V2000
  -18.8869  -38.0743   -9.0143 C   0  0  0  0  0  0  0  0  0  0  0  0
  -19.0605  -38.6350   -7.6410 C   0  0  2  0  0  0  0  0  0  0  0  0
  -19.6476  -37.5190   -6.7792 C   0  0  0  0  0  0  0  0  0  0  0  0
  -20.8351  -37.9777   -5.9946 C   0  0  0  0  0  0  0  0  0  0  0  0
  -21.9531  -38.4256   -6.8863 C   0  0  0  0  0  0  0  0  0  0  0  0
  -22.6925  -39.5993   -6.2853 C   0  0  0  0  0  0  0  0  0  0  0  0
  -22.3358  -40.8953   -6.9846 C   0  0  0  0  0  0  0  0  0  0  0  0
  -21.2985  -41.5866   -6.1398 C   0  0  0  0  0  0  0  0  0  0  0  0
  -20.9772  -42.8469   -6.5760 O   0  0  0  0  0  0  0  0  0  0  0  0
  -20.1295  -42.8877   -7.6718 C   0  0  0  0  0  0  0  0  0  0  0  0
  -19.3487  -44.1311   -7.6247 C   0  0  0  0  0  0  0  0  0  0  0  0
  -19.8956  -45.1138   -7.0039 O   0  0  0  0  0  0  0  0  0  0  0  0
  -18.0715  -44.3550   -8.1860 N   0  0  0  0  0  0  0  0  0  0  0  0
  -17.8242  -45.5896   -8.9114 C   0  0  0  0  0  0  0  0  0  0  0  0
  -16.9412  -43.4413   -8.1042 C   0  0  1  0  0  0  0  0  0  0  0  0
  -16.5051  -42.9555   -9.4432 C   0  0  0  0  0  0  0  0  0  0  0  0
  -17.0604  -42.4462   -7.0446 C   0  0  0  0  0  0  0  0  0  0  0  0
  -17.7026  -42.8712   -6.0080 O   0  0  0  0  0  0  0  0  0  0  0  0
  -16.5948  -41.1279   -6.9742 N   0  0  0  0  0  0  0  0  0  0  0  0
  -16.9239  -39.9907   -7.7999 C   0  0  1  0  0  0  0  0  0  0  0  0
  -17.8293  -39.1015   -6.9603 C   0  0  0  0  0  0  0  0  0  0  0  0
  -15.6214  -39.2159   -8.0670 C   0  0  2  0  0  0  0  0  0  0  0  0
  -15.5428  -38.1918   -7.1455 O   0  0  0  0  0  0  0  0  0  0  0  0
  -15.5820  -38.7123   -9.4909 C   0  0  0  0  0  0  0  0  0  0  0  0
  -14.9215  -39.5997  -10.3855 N   0  0  0  0  0  0  0  0  0  0  0  0
  -13.4864  -39.4749  -10.4267 C   0  0  0  0  0  0  0  0  0  0  0  0
  -13.0505  -38.2241  -11.0955 C   0  0  0  0  0  0  0  0  0  0  0  0
  -12.0731  -37.3816  -10.6182 C   0  0  0  0  0  0  0  0  0  0  0  0
  -11.7582  -36.2726  -11.3152 N   0  0  0  0  0  0  0  0  0  0  0  0
  -12.3698  -35.9415  -12.4852 C   0  0  0  0  0  0  0  0  0  0  0  0
  -13.3606  -36.7651  -13.0000 C   0  0  0  0  0  0  0  0  0  0  0  0
  -14.2306  -36.3167  -14.6440 Br  0  0  0  0  0  0  0  0  0  0  0  0
  -13.6702  -37.8875  -12.2822 C   0  0  0  0  0  0  0  0  0  0  0  0
  2  1  1  6
  2  3  1  0
  3  4  1  0
  4  5  1  0
  5  6  1  0
  6  7  1  0
  7  8  1  0
  8  9  1  0
  9 10  1  0
 10 11  1  0
 11 12  2  0
 11 13  1  0
 13 14  1  0
 13 15  1  0
 15 16  1  6
 15 17  1  0
 17 18  2  0
 17 19  1  0
 19 20  1  0
 20 21  1  1
 20 22  1  0
 22 23  1  1
 22 24  1  0
 24 25  1  0
 25 26  1  0
 26 27  1  0
 27 28  2  0
 28 29  1  0
 29 30  2  0
 30 31  1  0
 31 32  1  0
 31 33  2  0
 21  2  1  0
 33 27  1  0
M  END
$$$$
