
     RDKit          3D

 33 34  0  0  0  0  0  0  0  0999 V2000
  -20.1963  -38.7045   -8.1825 C   0  0  0  0  0  0  0  0  0  0  0  0
  -20.0546  -39.4531   -6.8979 C   0  0  2  0  0  0  0  0  0  0  0  0
  -20.7025  -38.5951   -5.8130 C   0  0  0  0  0  0  0  0  0  0  0  0
  -21.6527  -39.3799   -4.9660 C   0  0  0  0  0  0  0  0  0  0  0  0
  -22.7891  -39.9341   -5.7703 C   0  0  0  0  0  0  0  0  0  0  0  0
  -23.1991  -41.2990   -5.2656 C   0  0  0  0  0  0  0  0  0  0  0  0
  -22.7171  -42.3987   -6.1898 C   0  0  0  0  0  0  0  0  0  0  0  0
  -21.4546  -42.9616   -5.5922 C   0  0  0  0  0  0  0  0  0  0  0  0
  -20.9742  -44.0662   -6.2486 O   0  0  0  0  0  0  0  0  0  0  0  0
  -20.3079  -43.7979   -7.4339 C   0  0  0  0  0  0  0  0  0  0  0  0
  -19.3118  -44.8514   -7.6701 C   0  0  0  0  0  0  0  0  0  0  0  0
  -19.5673  -45.9938   -7.1411 O   0  0  0  0  0  0  0  0  0  0  0  0
  -18.1142  -44.7387   -8.4115 N   0  0  0  0  0  0  0  0  0  0  0  0
  -17.7538  -45.7981   -9.3385 C   0  0  0  0  0  0  0  0  0  0  0  0
  -17.1740  -43.6302   -8.3333 C   0  0  1  0  0  0  0  0  0  0  0  0
  -17.0417  -42.9049   -9.6277 C   0  0  0  0  0  0  0  0  0  0  0  0
  -17.3153  -42.8182   -7.1300 C   0  0  0  0  0  0  0  0  0  0  0  0
  -17.7044  -43.4895   -6.0978 O   0  0  0  0  0  0  0  0  0  0  0  0
  -17.0974  -41.4513   -6.9207 N   0  0  0  0  0  0  0  0  0  0  0  0
  -17.7519  -40.3130   -7.5198 C   0  0  1  0  0  0  0  0  0  0  0  0
  -18.6702  -39.7377   -6.4515 C   0  0  0  0  0  0  0  0  0  0  0  0
  -16.6711  -39.2613   -7.8260 C   0  0  2  0  0  0  0  0  0  0  0  0
  -17.2874  -38.1876   -8.4354 O   0  0  0  0  0  0  0  0  0  0  0  0
  -15.5746  -39.8551   -8.6793 C   0  0  0  0  0  0  0  0  0  0  0  0
  -14.2957  -39.2824   -8.4339 N   0  0  0  0  0  0  0  0  0  0  0  0
  -13.2220  -39.8094   -9.2378 C   0  0  0  0  0  0  0  0  0  0  0  0
  -13.1416  -39.1540  -10.5666 C   0  0  0  0  0  0  0  0  0  0  0  0
  -13.5802  -39.7156  -11.7435 C   0  0  0  0  0  0  0  0  0  0  0  0
  -13.4581  -39.0226  -12.8924 N   0  0  0  0  0  0  0  0  0  0  0  0
  -12.9139  -37.7761  -12.9446 C   0  0  0  0  0  0  0  0  0  0  0  0
  -12.4598  -37.1750  -11.7794 C   0  0  0  0  0  0  0  0  0  0  0  0
  -11.6930  -35.4229  -11.8329 Br  0  0  0  0  0  0  0  0  0  0  0  0
  -12.5898  -37.8898  -10.6204 C   0  0  0  0  0  0  0  0  0  0  0  0
  2  1  1  6
  2  3  1  0
  3  4  1  0
  4  5  1  0
  5  6  1  0
  6  7  1  0
  7  8  1  0
  8  9  1  0
  9 10  1  0
 10 11  1  0
 11 12  2  0
 11 13  1  0
 13 14  1  0
 13 15  1  0
 15 16  1  6
 15 17  1  0
 17 18  2  0
 17 19  1  0
 19 20  1  0
 20 21  1  1
 20 22  1  0
 22 23  1  6
 22 24  1  0
 24 25  1  0
 25 26  1  0
 26 27  1  0
 27 28  2  0
 28 29  1  0
 29 30  2  0
 30 31  1  0
 31 32  1  0
 31 33  2  0
 21  2  1  0
 33 27  1  0
M  END
$$$$
