
     RDKit          3D

 33 34  0  0  0  0  0  0  0  0999 V2000
  -13.3849  -38.2816   -8.3052 C   0  0  0  0  0  0  0  0  0  0  0  0
  -14.1783  -38.3387   -9.5692 C   0  0  2  0  0  0  0  0  0  0  0  0
  -13.9852  -36.9969  -10.2729 C   0  0  0  0  0  0  0  0  0  0  0  0
  -13.6202  -37.1630  -11.7135 C   0  0  0  0  0  0  0  0  0  0  0  0
  -12.3218  -37.8927  -11.8789 C   0  0  0  0  0  0  0  0  0  0  0  0
  -12.3532  -38.7919  -13.0938 C   0  0  0  0  0  0  0  0  0  0  0  0
  -12.5012  -40.2479  -12.7012 C   0  0  0  0  0  0  0  0  0  0  0  0
  -13.9561  -40.6049  -12.8539 C   0  0  0  0  0  0  0  0  0  0  0  0
  -14.2234  -41.9373  -12.6669 O   0  0  0  0  0  0  0  0  0  0  0  0
  -14.2490  -42.3482  -11.3435 C   0  0  0  0  0  0  0  0  0  0  0  0
  -15.1549  -43.4978  -11.2184 C   0  0  0  0  0  0  0  0  0  0  0  0
  -15.3066  -44.2103  -12.2765 O   0  0  0  0  0  0  0  0  0  0  0  0
  -15.8691  -43.8964  -10.0662 N   0  0  0  0  0  0  0  0  0  0  0  0
  -15.9032  -45.3039   -9.7068 C   0  0  0  0  0  0  0  0  0  0  0  0
  -16.6001  -43.0063   -9.1760 C   0  0  1  0  0  0  0  0  0  0  0  0
  -16.0477  -43.0070   -7.7925 C   0  0  0  0  0  0  0  0  0  0  0  0
  -16.9142  -41.7089   -9.7636 C   0  0  0  0  0  0  0  0  0  0  0  0
  -17.1150  -41.7553  -11.0383 O   0  0  0  0  0  0  0  0  0  0  0  0
  -17.0326  -40.4448   -9.1741 N   0  0  0  0  0  0  0  0  0  0  0  0
  -16.0443  -39.6601   -8.4736 C   0  0  1  0  0  0  0  0  0  0  0  0
  -15.6392  -38.5400   -9.4205 C   0  0  0  0  0  0  0  0  0  0  0  0
  -16.7345  -39.0195   -7.2565 C   0  0  2  0  0  0  0  0  0  0  0  0
  -15.7913  -38.8861   -6.2581 O   0  0  0  0  0  0  0  0  0  0  0  0
  -17.9215  -39.8458   -6.8194 C   0  0  0  0  0  0  0  0  0  0  0  0
  -19.0655  -39.6724   -7.6471 N   0  0  0  0  0  0  0  0  0  0  0  0
  -20.1854  -39.0187   -7.0184 C   0  0  0  0  0  0  0  0  0  0  0  0
  -20.9759  -39.9478   -6.1736 C   0  0  0  0  0  0  0  0  0  0  0  0
  -21.2995  -39.7230   -4.8554 C   0  0  0  0  0  0  0  0  0  0  0  0
  -22.0274  -40.6394   -4.1879 N   0  0  0  0  0  0  0  0  0  0  0  0
  -22.4636  -41.7929   -4.7638 C   0  0  0  0  0  0  0  0  0  0  0  0
  -22.1583  -42.0567   -6.0913 C   0  0  0  0  0  0  0  0  0  0  0  0
  -22.7638  -43.6723   -6.9183 Br  0  0  0  0  0  0  0  0  0  0  0  0
  -21.4188  -41.1180   -6.7569 C   0  0  0  0  0  0  0  0  0  0  0  0
  2  1  1  1
  2  3  1  0
  3  4  1  0
  4  5  1  0
  5  6  1  0
  6  7  1  0
  7  8  1  0
  8  9  1  0
  9 10  1  0
 10 11  1  0
 11 12  2  0
 11 13  1  0
 13 14  1  0
 13 15  1  0
 15 16  1  1
 15 17  1  0
 17 18  2  0
 17 19  1  0
 19 20  1  0
 20 21  1  6
 20 22  1  0
 22 23  1  1
 22 24  1  0
 24 25  1  0
 25 26  1  0
 26 27  1  0
 27 28  2  0
 28 29  1  0
 29 30  2  0
 30 31  1  0
 31 32  1  0
 31 33  2  0
 21  2  1  0
 33 27  1  0
M  END
$$$$
