
     RDKit          3D

 33 34  0  0  0  0  0  0  0  0999 V2000
  -13.8926  -36.6161   -9.3612 C   0  0  0  0  0  0  0  0  0  0  0  0
  -14.3664  -37.1258  -10.6827 C   0  0  2  0  0  0  0  0  0  0  0  0
  -14.4325  -35.9232  -11.6221 C   0  0  0  0  0  0  0  0  0  0  0  0
  -13.7549  -36.1900  -12.9281 C   0  0  0  0  0  0  0  0  0  0  0  0
  -12.2953  -36.4795  -12.7499 C   0  0  0  0  0  0  0  0  0  0  0  0
  -11.8222  -37.5222  -13.7371 C   0  0  0  0  0  0  0  0  0  0  0  0
  -11.6189  -38.8663  -13.0678 C   0  0  0  0  0  0  0  0  0  0  0  0
  -12.8475  -39.6920  -13.3438 C   0  0  0  0  0  0  0  0  0  0  0  0
  -12.7504  -40.9919  -12.9165 O   0  0  0  0  0  0  0  0  0  0  0  0
  -12.9203  -41.1731  -11.5529 C   0  0  0  0  0  0  0  0  0  0  0  0
  -13.4615  -42.5177  -11.3142 C   0  0  0  0  0  0  0  0  0  0  0  0
  -13.1863  -43.3997  -12.2066 O   0  0  0  0  0  0  0  0  0  0  0  0
  -14.2454  -42.9362  -10.2156 N   0  0  0  0  0  0  0  0  0  0  0  0
  -13.9427  -44.2037   -9.5727 C   0  0  0  0  0  0  0  0  0  0  0  0
  -15.3647  -42.1991   -9.6475 C   0  0  1  0  0  0  0  0  0  0  0  0
  -15.1238  -41.8018   -8.2321 C   0  0  0  0  0  0  0  0  0  0  0  0
  -15.9160  -41.1827  -10.5365 C   0  0  0  0  0  0  0  0  0  0  0  0
  -15.8359  -41.4934  -11.7873 O   0  0  0  0  0  0  0  0  0  0  0  0
  -16.5098  -39.9471  -10.2529 N   0  0  0  0  0  0  0  0  0  0  0  0
  -15.9510  -38.7853   -9.6040 C   0  0  1  0  0  0  0  0  0  0  0  0
  -15.7059  -37.7601  -10.7014 C   0  0  0  0  0  0  0  0  0  0  0  0
  -17.0255  -38.2159   -8.6609 C   0  0  2  0  0  0  0  0  0  0  0  0
  -16.3817  -37.6589   -7.5748 O   0  0  0  0  0  0  0  0  0  0  0  0
  -18.0068  -39.2917   -8.2579 C   0  0  0  0  0  0  0  0  0  0  0  0
  -19.2855  -38.7829   -7.8973 N   0  0  0  0  0  0  0  0  0  0  0  0
  -20.3487  -39.7554   -7.8711 C   0  0  0  0  0  0  0  0  0  0  0  0
  -20.9795  -39.8616   -6.5322 C   0  0  0  0  0  0  0  0  0  0  0  0
  -22.0353  -39.0915   -6.1018 C   0  0  0  0  0  0  0  0  0  0  0  0
  -22.5290  -39.2801   -4.8626 N   0  0  0  0  0  0  0  0  0  0  0  0
  -22.0258  -40.2090   -4.0044 C   0  0  0  0  0  0  0  0  0  0  0  0
  -20.9611  -41.0056   -4.4008 C   0  0  0  0  0  0  0  0  0  0  0  0
  -20.2412  -42.3176   -3.2086 Br  0  0  0  0  0  0  0  0  0  0  0  0
  -20.4698  -40.8035   -5.6613 C   0  0  0  0  0  0  0  0  0  0  0  0
  2  1  1  1
  2  3  1  0
  3  4  1  0
  4  5  1  0
  5  6  1  0
  6  7  1  0
  7  8  1  0
  8  9  1  0
  9 10  1  0
 10 11  1  0
 11 12  2  0
 11 13  1  0
 13 14  1  0
 13 15  1  0
 15 16  1  1
 15 17  1  0
 17 18  2  0
 17 19  1  0
 19 20  1  0
 20 21  1  6
 20 22  1  0
 22 23  1  1
 22 24  1  0
 24 25  1  0
 25 26  1  0
 26 27  1  0
 27 28  2  0
 28 29  1  0
 29 30  2  0
 30 31  1  0
 31 32  1  0
 31 33  2  0
 21  2  1  0
 33 27  1  0
M  END
$$$$
