
     RDKit          3D

 33 34  0  0  0  0  0  0  0  0999 V2000
  -20.2373  -38.6829   -9.0048 C   0  0  0  0  0  0  0  0  0  0  0  0
  -20.1095  -39.1823   -7.6031 C   0  0  2  0  0  0  0  0  0  0  0  0
  -20.6374  -38.0770   -6.6906 C   0  0  0  0  0  0  0  0  0  0  0  0
  -21.6171  -38.5946   -5.6864 C   0  0  0  0  0  0  0  0  0  0  0  0
  -22.8282  -39.1850   -6.3425 C   0  0  0  0  0  0  0  0  0  0  0  0
  -23.3338  -40.3847   -5.5738 C   0  0  0  0  0  0  0  0  0  0  0  0
  -22.9855  -41.6803   -6.2781 C   0  0  0  0  0  0  0  0  0  0  0  0
  -21.7534  -42.2327   -5.6114 C   0  0  0  0  0  0  0  0  0  0  0  0
  -21.3964  -43.4818   -6.0519 O   0  0  0  0  0  0  0  0  0  0  0  0
  -20.7573  -43.5073   -7.2815 C   0  0  0  0  0  0  0  0  0  0  0  0
  -19.8658  -44.6738   -7.3314 C   0  0  0  0  0  0  0  0  0  0  0  0
  -20.1974  -45.6657   -6.5855 O   0  0  0  0  0  0  0  0  0  0  0  0
  -18.6934  -44.8156   -8.1073 N   0  0  0  0  0  0  0  0  0  0  0  0
  -18.4628  -46.0611   -8.8195 C   0  0  0  0  0  0  0  0  0  0  0  0
  -17.6589  -43.8040   -8.2666 C   0  0  1  0  0  0  0  0  0  0  0  0
  -17.5162  -43.3545   -9.6796 C   0  0  0  0  0  0  0  0  0  0  0  0
  -17.6817  -42.7678   -7.2405 C   0  0  0  0  0  0  0  0  0  0  0  0
  -18.0857  -43.1909   -6.0893 O   0  0  0  0  0  0  0  0  0  0  0  0
  -17.3386  -41.4121   -7.3048 N   0  0  0  0  0  0  0  0  0  0  0  0
  -17.9161  -40.3536   -8.0982 C   0  0  1  0  0  0  0  0  0  0  0  0
  -18.7381  -39.5028   -7.1412 C   0  0  0  0  0  0  0  0  0  0  0  0
  -16.7617  -39.4840   -8.6266 C   0  0  2  0  0  0  0  0  0  0  0  0
  -17.2750  -38.6421   -9.5919 O   0  0  0  0  0  0  0  0  0  0  0  0
  -15.6404  -40.3481   -9.1546 C   0  0  0  0  0  0  0  0  0  0  0  0
  -14.3517  -39.9251   -8.7253 N   0  0  0  0  0  0  0  0  0  0  0  0
  -13.6967  -38.9764   -9.5901 C   0  0  0  0  0  0  0  0  0  0  0  0
  -13.2445  -39.5943  -10.8611 C   0  0  0  0  0  0  0  0  0  0  0  0
  -12.5599  -38.9309  -11.8532 C   0  0  0  0  0  0  0  0  0  0  0  0
  -12.1967  -39.5984  -12.9656 N   0  0  0  0  0  0  0  0  0  0  0  0
  -12.4791  -40.9160  -13.1573 C   0  0  0  0  0  0  0  0  0  0  0  0
  -13.1678  -41.6206  -12.1804 C   0  0  0  0  0  0  0  0  0  0  0  0
  -13.5726  -43.4737  -12.4315 Br  0  0  0  0  0  0  0  0  0  0  0  0
  -13.5304  -40.9306  -11.0563 C   0  0  0  0  0  0  0  0  0  0  0  0
  2  1  1  6
  2  3  1  0
  3  4  1  0
  4  5  1  0
  5  6  1  0
  6  7  1  0
  7  8  1  0
  8  9  1  0
  9 10  1  0
 10 11  1  0
 11 12  2  0
 11 13  1  0
 13 14  1  0
 13 15  1  0
 15 16  1  6
 15 17  1  0
 17 18  2  0
 17 19  1  0
 19 20  1  0
 20 21  1  1
 20 22  1  0
 22 23  1  6
 22 24  1  0
 24 25  1  0
 25 26  1  0
 26 27  1  0
 27 28  2  0
 28 29  1  0
 29 30  2  0
 30 31  1  0
 31 32  1  0
 31 33  2  0
 21  2  1  0
 33 27  1  0
M  END
$$$$
