
     RDKit          3D

 33 34  0  0  0  0  0  0  0  0999 V2000
  -20.1611  -38.7216   -8.5725 C   0  0  0  0  0  0  0  0  0  0  0  0
  -20.2559  -39.4679   -7.2822 C   0  0  2  0  0  0  0  0  0  0  0  0
  -20.9400  -38.5372   -6.2829 C   0  0  0  0  0  0  0  0  0  0  0  0
  -22.0626  -39.2118   -5.5613 C   0  0  0  0  0  0  0  0  0  0  0  0
  -23.1429  -39.6546   -6.5008 C   0  0  0  0  0  0  0  0  0  0  0  0
  -23.7501  -40.9650   -6.0541 C   0  0  0  0  0  0  0  0  0  0  0  0
  -23.2743  -42.1176   -6.9150 C   0  0  0  0  0  0  0  0  0  0  0  0
  -22.1594  -42.8010   -6.1683 C   0  0  0  0  0  0  0  0  0  0  0  0
  -21.7186  -43.9556   -6.7636 O   0  0  0  0  0  0  0  0  0  0  0  0
  -20.8879  -43.7689   -7.8573 C   0  0  0  0  0  0  0  0  0  0  0  0
  -19.9843  -44.9213   -7.9721 C   0  0  0  0  0  0  0  0  0  0  0  0
  -20.4191  -46.0262   -7.4816 O   0  0  0  0  0  0  0  0  0  0  0  0
  -18.6997  -44.9395   -8.5603 N   0  0  0  0  0  0  0  0  0  0  0  0
  -18.3394  -46.0394   -9.4389 C   0  0  0  0  0  0  0  0  0  0  0  0
  -17.6669  -43.9326   -8.3640 C   0  0  1  0  0  0  0  0  0  0  0  0
  -17.3029  -43.2376   -9.6304 C   0  0  0  0  0  0  0  0  0  0  0  0
  -17.8703  -43.0984   -7.1850 C   0  0  0  0  0  0  0  0  0  0  0  0
  -18.4501  -43.7159   -6.2103 O   0  0  0  0  0  0  0  0  0  0  0  0
  -17.5400  -41.7591   -6.9467 N   0  0  0  0  0  0  0  0  0  0  0  0
  -17.9953  -40.5656   -7.6186 C   0  0  1  0  0  0  0  0  0  0  0  0
  -18.9734  -39.8886   -6.6698 C   0  0  0  0  0  0  0  0  0  0  0  0
  -16.7825  -39.6335   -7.7867 C   0  0  2  0  0  0  0  0  0  0  0  0
  -17.2562  -38.3445   -7.9212 O   0  0  0  0  0  0  0  0  0  0  0  0
  -15.9389  -40.0618   -8.9647 C   0  0  0  0  0  0  0  0  0  0  0  0
  -14.7135  -40.6781   -8.5871 N   0  0  0  0  0  0  0  0  0  0  0  0
  -13.6152  -39.7732   -8.3597 C   0  0  0  0  0  0  0  0  0  0  0  0
  -12.8791  -39.4586   -9.6091 C   0  0  0  0  0  0  0  0  0  0  0  0
  -11.6487  -38.8449   -9.6585 C   0  0  0  0  0  0  0  0  0  0  0  0
  -11.0735  -38.6124  -10.8544 N   0  0  0  0  0  0  0  0  0  0  0  0
  -11.6602  -38.9605  -12.0322 C   0  0  0  0  0  0  0  0  0  0  0  0
  -12.9010  -39.5814  -12.0250 C   0  0  0  0  0  0  0  0  0  0  0  0
  -13.7407  -40.0791  -13.6706 Br  0  0  0  0  0  0  0  0  0  0  0  0
  -13.4734  -39.8113  -10.8041 C   0  0  0  0  0  0  0  0  0  0  0  0
  2  1  1  6
  2  3  1  0
  3  4  1  0
  4  5  1  0
  5  6  1  0
  6  7  1  0
  7  8  1  0
  8  9  1  0
  9 10  1  0
 10 11  1  0
 11 12  2  0
 11 13  1  0
 13 14  1  0
 13 15  1  0
 15 16  1  6
 15 17  1  0
 17 18  2  0
 17 19  1  0
 19 20  1  0
 20 21  1  1
 20 22  1  0
 22 23  1  6
 22 24  1  0
 24 25  1  0
 25 26  1  0
 26 27  1  0
 27 28  2  0
 28 29  1  0
 29 30  2  0
 30 31  1  0
 31 32  1  0
 31 33  2  0
 21  2  1  0
 33 27  1  0
M  END
$$$$
