
     RDKit          3D

 33 34  0  0  0  0  0  0  0  0999 V2000
  -20.0636  -38.2959   -8.3066 C   0  0  0  0  0  0  0  0  0  0  0  0
  -19.9292  -39.1185   -7.0672 C   0  0  2  0  0  0  0  0  0  0  0  0
  -20.5011  -38.2868   -5.9209 C   0  0  0  0  0  0  0  0  0  0  0  0
  -21.4700  -39.0646   -5.0887 C   0  0  0  0  0  0  0  0  0  0  0  0
  -22.6554  -39.5143   -5.8876 C   0  0  0  0  0  0  0  0  0  0  0  0
  -23.1254  -40.8807   -5.4429 C   0  0  0  0  0  0  0  0  0  0  0  0
  -22.7280  -41.9533   -6.4366 C   0  0  0  0  0  0  0  0  0  0  0  0
  -21.4827  -42.6131   -5.9059 C   0  0  0  0  0  0  0  0  0  0  0  0
  -21.0801  -43.7048   -6.6324 O   0  0  0  0  0  0  0  0  0  0  0  0
  -20.4315  -43.4091   -7.8210 C   0  0  0  0  0  0  0  0  0  0  0  0
  -19.5004  -44.4995   -8.1403 C   0  0  0  0  0  0  0  0  0  0  0  0
  -19.8035  -45.6535   -7.6642 O   0  0  0  0  0  0  0  0  0  0  0  0
  -18.3182  -44.4106   -8.9091 N   0  0  0  0  0  0  0  0  0  0  0  0
  -18.0400  -45.4364   -9.9001 C   0  0  0  0  0  0  0  0  0  0  0  0
  -17.3176  -43.3589   -8.8006 C   0  0  1  0  0  0  0  0  0  0  0  0
  -17.1800  -42.5734  -10.0589 C   0  0  0  0  0  0  0  0  0  0  0  0
  -17.3833  -42.6062   -7.5532 C   0  0  0  0  0  0  0  0  0  0  0  0
  -17.7811  -43.3102   -6.5464 O   0  0  0  0  0  0  0  0  0  0  0  0
  -17.0862  -41.2659   -7.2794 N   0  0  0  0  0  0  0  0  0  0  0  0
  -17.6935  -40.0641   -7.7993 C   0  0  1  0  0  0  0  0  0  0  0  0
  -18.5511  -39.4992   -6.6765 C   0  0  0  0  0  0  0  0  0  0  0  0
  -16.5656  -39.0561   -8.0815 C   0  0  2  0  0  0  0  0  0  0  0  0
  -17.1308  -37.7992   -8.1523 O   0  0  0  0  0  0  0  0  0  0  0  0
  -15.8236  -39.4247   -9.3450 C   0  0  0  0  0  0  0  0  0  0  0  0
  -14.4514  -39.7294   -9.1251 N   0  0  0  0  0  0  0  0  0  0  0  0
  -13.5833  -38.5877   -8.9850 C   0  0  0  0  0  0  0  0  0  0  0  0
  -13.0626  -38.1146  -10.2915 C   0  0  0  0  0  0  0  0  0  0  0  0
  -11.8698  -37.4509  -10.4640 C   0  0  0  0  0  0  0  0  0  0  0  0
  -11.4977  -37.0714  -11.7020 N   0  0  0  0  0  0  0  0  0  0  0  0
  -12.2562  -37.3167  -12.8051 C   0  0  0  0  0  0  0  0  0  0  0  0
  -13.4658  -37.9836  -12.6731 C   0  0  0  0  0  0  0  0  0  0  0  0
  -14.5451  -38.3386  -14.2126 Br  0  0  0  0  0  0  0  0  0  0  0  0
  -13.8313  -38.3630  -11.4108 C   0  0  0  0  0  0  0  0  0  0  0  0
  2  1  1  6
  2  3  1  0
  3  4  1  0
  4  5  1  0
  5  6  1  0
  6  7  1  0
  7  8  1  0
  8  9  1  0
  9 10  1  0
 10 11  1  0
 11 12  2  0
 11 13  1  0
 13 14  1  0
 13 15  1  0
 15 16  1  6
 15 17  1  0
 17 18  2  0
 17 19  1  0
 19 20  1  0
 20 21  1  1
 20 22  1  0
 22 23  1  6
 22 24  1  0
 24 25  1  0
 25 26  1  0
 26 27  1  0
 27 28  2  0
 28 29  1  0
 29 30  2  0
 30 31  1  0
 31 32  1  0
 31 33  2  0
 21  2  1  0
 33 27  1  0
M  END
$$$$
