
     RDKit          3D

 33 34  0  0  0  0  0  0  0  0999 V2000
  -12.3272  -37.5986   -9.2635 C   0  0  0  0  0  0  0  0  0  0  0  0
  -13.1980  -37.6655  -10.4750 C   0  0  2  0  0  0  0  0  0  0  0  0
  -13.0685  -36.3204  -11.1869 C   0  0  0  0  0  0  0  0  0  0  0  0
  -12.7930  -36.4798  -12.6480 C   0  0  0  0  0  0  0  0  0  0  0  0
  -11.4975  -37.1910  -12.8965 C   0  0  0  0  0  0  0  0  0  0  0  0
  -11.5931  -38.0894  -14.1087 C   0  0  0  0  0  0  0  0  0  0  0  0
  -11.6957  -39.5477  -13.7104 C   0  0  0  0  0  0  0  0  0  0  0  0
  -13.1523  -39.9249  -13.7716 C   0  0  0  0  0  0  0  0  0  0  0  0
  -13.3886  -41.2611  -13.5707 O   0  0  0  0  0  0  0  0  0  0  0  0
  -13.3248  -41.6737  -12.2491 C   0  0  0  0  0  0  0  0  0  0  0  0
  -14.2049  -42.8361  -12.0693 C   0  0  0  0  0  0  0  0  0  0  0  0
  -14.4132  -43.5494  -13.1171 O   0  0  0  0  0  0  0  0  0  0  0  0
  -14.8393  -43.2459  -10.8751 N   0  0  0  0  0  0  0  0  0  0  0  0
  -14.8310  -44.6541  -10.5169 C   0  0  0  0  0  0  0  0  0  0  0  0
  -15.5248  -42.3671   -9.9387 C   0  0  1  0  0  0  0  0  0  0  0  0
  -14.8862  -42.3615   -8.5929 C   0  0  0  0  0  0  0  0  0  0  0  0
  -15.8935  -41.0736  -10.5028 C   0  0  0  0  0  0  0  0  0  0  0  0
  -16.1738  -41.1214  -11.7624 O   0  0  0  0  0  0  0  0  0  0  0  0
  -15.9921  -39.8118   -9.9046 N   0  0  0  0  0  0  0  0  0  0  0  0
  -14.9725  -39.0141   -9.2663 C   0  0  1  0  0  0  0  0  0  0  0  0
  -14.6437  -37.8875  -10.2348 C   0  0  0  0  0  0  0  0  0  0  0  0
  -15.5933  -38.3846   -8.0068 C   0  0  2  0  0  0  0  0  0  0  0  0
  -15.7758  -39.3894   -7.0788 O   0  0  0  0  0  0  0  0  0  0  0  0
  -16.8827  -37.6734   -8.3452 C   0  0  0  0  0  0  0  0  0  0  0  0
  -17.9470  -38.5591   -8.6716 N   0  0  0  0  0  0  0  0  0  0  0  0
  -19.2520  -38.1427   -8.2240 C   0  0  0  0  0  0  0  0  0  0  0  0
  -20.3407  -38.9154   -8.8716 C   0  0  0  0  0  0  0  0  0  0  0  0
  -21.3397  -39.5768   -8.1951 C   0  0  0  0  0  0  0  0  0  0  0  0
  -22.2796  -40.2447   -8.8918 N   0  0  0  0  0  0  0  0  0  0  0  0
  -22.2877  -40.2971  -10.2518 C   0  0  0  0  0  0  0  0  0  0  0  0
  -21.2976  -39.6431  -10.9708 C   0  0  0  0  0  0  0  0  0  0  0  0
  -21.2934  -39.7045  -12.8832 Br  0  0  0  0  0  0  0  0  0  0  0  0
  -20.3498  -38.9690  -10.2509 C   0  0  0  0  0  0  0  0  0  0  0  0
  2  1  1  1
  2  3  1  0
  3  4  1  0
  4  5  1  0
  5  6  1  0
  6  7  1  0
  7  8  1  0
  8  9  1  0
  9 10  1  0
 10 11  1  0
 11 12  2  0
 11 13  1  0
 13 14  1  0
 13 15  1  0
 15 16  1  1
 15 17  1  0
 17 18  2  0
 17 19  1  0
 19 20  1  0
 20 21  1  6
 20 22  1  0
 22 23  1  1
 22 24  1  0
 24 25  1  0
 25 26  1  0
 26 27  1  0
 27 28  2  0
 28 29  1  0
 29 30  2  0
 30 31  1  0
 31 32  1  0
 31 33  2  0
 21  2  1  0
 33 27  1  0
M  END
$$$$
