
     RDKit          3D

 33 34  0  0  0  0  0  0  0  0999 V2000
  -20.2057  -38.3146   -8.4874 C   0  0  0  0  0  0  0  0  0  0  0  0
  -19.9603  -38.9084   -7.1392 C   0  0  2  0  0  0  0  0  0  0  0  0
  -20.3920  -37.8642   -6.1114 C   0  0  0  0  0  0  0  0  0  0  0  0
  -21.2852  -38.4427   -5.0608 C   0  0  0  0  0  0  0  0  0  0  0  0
  -22.5565  -38.9802   -5.6443 C   0  0  0  0  0  0  0  0  0  0  0  0
  -23.0064  -40.2261   -4.9156 C   0  0  0  0  0  0  0  0  0  0  0  0
  -22.7373  -41.4731   -5.7331 C   0  0  0  0  0  0  0  0  0  0  0  0
  -21.4577  -42.0767   -5.2173 C   0  0  0  0  0  0  0  0  0  0  0  0
  -21.1561  -43.2952   -5.7704 O   0  0  0  0  0  0  0  0  0  0  0  0
  -20.6286  -43.2413   -7.0510 C   0  0  0  0  0  0  0  0  0  0  0  0
  -19.7591  -44.4070   -7.2581 C   0  0  0  0  0  0  0  0  0  0  0  0
  -20.0352  -45.4451   -6.5535 O   0  0  0  0  0  0  0  0  0  0  0  0
  -18.6618  -44.5030   -8.1431 N   0  0  0  0  0  0  0  0  0  0  0  0
  -18.5100  -45.6988   -8.9546 C   0  0  0  0  0  0  0  0  0  0  0  0
  -17.6334  -43.4891   -8.3259 C   0  0  1  0  0  0  0  0  0  0  0  0
  -17.6110  -42.9459   -9.7128 C   0  0  0  0  0  0  0  0  0  0  0  0
  -17.5529  -42.5246   -7.2349 C   0  0  0  0  0  0  0  0  0  0  0  0
  -17.8585  -43.0221   -6.0832 O   0  0  0  0  0  0  0  0  0  0  0  0
  -17.2007  -41.1697   -7.2388 N   0  0  0  0  0  0  0  0  0  0  0  0
  -17.8334  -40.0566   -7.9050 C   0  0  1  0  0  0  0  0  0  0  0  0
  -18.5573  -39.2676   -6.8239 C   0  0  0  0  0  0  0  0  0  0  0  0
  -16.7201  -39.1601   -8.4748 C   0  0  2  0  0  0  0  0  0  0  0  0
  -17.3119  -38.0179   -8.9743 O   0  0  0  0  0  0  0  0  0  0  0  0
  -15.9227  -39.9000   -9.5234 C   0  0  0  0  0  0  0  0  0  0  0  0
  -14.6740  -40.3852   -9.0447 N   0  0  0  0  0  0  0  0  0  0  0  0
  -13.6970  -39.3709   -8.7391 C   0  0  0  0  0  0  0  0  0  0  0  0
  -13.3505  -38.5495   -9.9253 C   0  0  0  0  0  0  0  0  0  0  0  0
  -13.6512  -37.2143  -10.0669 C   0  0  0  0  0  0  0  0  0  0  0  0
  -13.2822  -36.5693  -11.1906 N   0  0  0  0  0  0  0  0  0  0  0  0
  -12.6170  -37.1844  -12.2064 C   0  0  0  0  0  0  0  0  0  0  0  0
  -12.2952  -38.5300  -12.1019 C   0  0  0  0  0  0  0  0  0  0  0  0
  -11.3593  -39.4114  -13.5190 Br  0  0  0  0  0  0  0  0  0  0  0  0
  -12.6759  -39.1725  -10.9559 C   0  0  0  0  0  0  0  0  0  0  0  0
  2  1  1  6
  2  3  1  0
  3  4  1  0
  4  5  1  0
  5  6  1  0
  6  7  1  0
  7  8  1  0
  8  9  1  0
  9 10  1  0
 10 11  1  0
 11 12  2  0
 11 13  1  0
 13 14  1  0
 13 15  1  0
 15 16  1  6
 15 17  1  0
 17 18  2  0
 17 19  1  0
 19 20  1  0
 20 21  1  1
 20 22  1  0
 22 23  1  6
 22 24  1  0
 24 25  1  0
 25 26  1  0
 26 27  1  0
 27 28  2  0
 28 29  1  0
 29 30  2  0
 30 31  1  0
 31 32  1  0
 31 33  2  0
 21  2  1  0
 33 27  1  0
M  END
$$$$
