
     RDKit          3D

 33 34  0  0  0  0  0  0  0  0999 V2000
  -20.2684  -38.5727   -7.9830 C   0  0  0  0  0  0  0  0  0  0  0  0
  -20.1384  -39.3252   -6.6995 C   0  0  2  0  0  0  0  0  0  0  0  0
  -20.6932  -38.4221   -5.5998 C   0  0  0  0  0  0  0  0  0  0  0  0
  -21.6680  -39.1380   -4.7203 C   0  0  0  0  0  0  0  0  0  0  0  0
  -22.8634  -39.6163   -5.4870 C   0  0  0  0  0  0  0  0  0  0  0  0
  -23.3492  -40.9487   -4.9632 C   0  0  0  0  0  0  0  0  0  0  0  0
  -22.9713  -42.0814   -5.8960 C   0  0  0  0  0  0  0  0  0  0  0  0
  -21.7322  -42.7268   -5.3342 C   0  0  0  0  0  0  0  0  0  0  0  0
  -21.3480  -43.8634   -5.9992 O   0  0  0  0  0  0  0  0  0  0  0  0
  -20.7017  -43.6445   -7.2056 C   0  0  0  0  0  0  0  0  0  0  0  0
  -19.7868  -44.7638   -7.4665 C   0  0  0  0  0  0  0  0  0  0  0  0
  -20.1028  -45.8847   -6.9242 O   0  0  0  0  0  0  0  0  0  0  0  0
  -18.6077  -44.7349   -8.2444 N   0  0  0  0  0  0  0  0  0  0  0  0
  -18.3483  -45.8190   -9.1766 C   0  0  0  0  0  0  0  0  0  0  0  0
  -17.5926  -43.6924   -8.2005 C   0  0  1  0  0  0  0  0  0  0  0  0
  -17.4512  -42.9816   -9.5020 C   0  0  0  0  0  0  0  0  0  0  0  0
  -17.6417  -42.8691   -6.9976 C   0  0  0  0  0  0  0  0  0  0  0  0
  -18.0436  -43.5094   -5.9506 O   0  0  0  0  0  0  0  0  0  0  0  0
  -17.3254  -41.5196   -6.8018 N   0  0  0  0  0  0  0  0  0  0  0  0
  -17.9194  -40.3412   -7.3866 C   0  0  1  0  0  0  0  0  0  0  0  0
  -18.7635  -39.7018   -6.2939 C   0  0  0  0  0  0  0  0  0  0  0  0
  -16.7797  -39.3662   -7.7308 C   0  0  2  0  0  0  0  0  0  0  0  0
  -17.3460  -38.2254   -8.2619 O   0  0  0  0  0  0  0  0  0  0  0  0
  -15.7921  -40.0110   -8.6751 C   0  0  0  0  0  0  0  0  0  0  0  0
  -14.8130  -39.1063   -9.1719 N   0  0  0  0  0  0  0  0  0  0  0  0
  -13.5240  -39.6878   -9.4499 C   0  0  0  0  0  0  0  0  0  0  0  0
  -13.1887  -39.6454  -10.8947 C   0  0  0  0  0  0  0  0  0  0  0  0
  -13.3797  -40.6872  -11.7729 C   0  0  0  0  0  0  0  0  0  0  0  0
  -13.0397  -40.5315  -13.0671 N   0  0  0  0  0  0  0  0  0  0  0  0
  -12.5086  -39.3766  -13.5537 C   0  0  0  0  0  0  0  0  0  0  0  0
  -12.3005  -38.3026  -12.7003 C   0  0  0  0  0  0  0  0  0  0  0  0
  -11.5562  -36.6707  -13.3663 Br  0  0  0  0  0  0  0  0  0  0  0  0
  -12.6502  -38.4745  -11.3890 C   0  0  0  0  0  0  0  0  0  0  0  0
  2  1  1  6
  2  3  1  0
  3  4  1  0
  4  5  1  0
  5  6  1  0
  6  7  1  0
  7  8  1  0
  8  9  1  0
  9 10  1  0
 10 11  1  0
 11 12  2  0
 11 13  1  0
 13 14  1  0
 13 15  1  0
 15 16  1  6
 15 17  1  0
 17 18  2  0
 17 19  1  0
 19 20  1  0
 20 21  1  1
 20 22  1  0
 22 23  1  6
 22 24  1  0
 24 25  1  0
 25 26  1  0
 26 27  1  0
 27 28  2  0
 28 29  1  0
 29 30  2  0
 30 31  1  0
 31 32  1  0
 31 33  2  0
 21  2  1  0
 33 27  1  0
M  END
$$$$
