
     RDKit          3D

 33 34  0  0  0  0  0  0  0  0999 V2000
  -20.1016  -38.2913   -7.9519 C   0  0  0  0  0  0  0  0  0  0  0  0
  -20.0367  -39.3649   -6.9157 C   0  0  2  0  0  0  0  0  0  0  0  0
  -20.8230  -38.8606   -5.7073 C   0  0  0  0  0  0  0  0  0  0  0  0
  -21.8031  -39.8742   -5.2092 C   0  0  0  0  0  0  0  0  0  0  0  0
  -22.8325  -40.2102   -6.2452 C   0  0  0  0  0  0  0  0  0  0  0  0
  -23.2144  -41.6716   -6.1798 C   0  0  0  0  0  0  0  0  0  0  0  0
  -22.5948  -42.4571   -7.3178 C   0  0  0  0  0  0  0  0  0  0  0  0
  -21.3634  -43.1325   -6.7747 C   0  0  0  0  0  0  0  0  0  0  0  0
  -20.7692  -43.9974   -7.6581 O   0  0  0  0  0  0  0  0  0  0  0  0
  -20.0143  -43.3923   -8.6505 C   0  0  0  0  0  0  0  0  0  0  0  0
  -18.9475  -44.3125   -9.0663 C   0  0  0  0  0  0  0  0  0  0  0  0
  -19.1895  -45.5633   -8.9009 O   0  0  0  0  0  0  0  0  0  0  0  0
  -17.6958  -43.9673   -9.6236 N   0  0  0  0  0  0  0  0  0  0  0  0
  -17.1991  -44.7162  -10.7655 C   0  0  0  0  0  0  0  0  0  0  0  0
  -16.8254  -42.9014   -9.1490 C   0  0  1  0  0  0  0  0  0  0  0  0
  -16.6156  -41.8404  -10.1734 C   0  0  0  0  0  0  0  0  0  0  0  0
  -17.1161  -42.4615   -7.7892 C   0  0  0  0  0  0  0  0  0  0  0  0
  -17.5606  -43.4038   -7.0264 O   0  0  0  0  0  0  0  0  0  0  0  0
  -16.9893  -41.2024   -7.1906 N   0  0  0  0  0  0  0  0  0  0  0  0
  -17.6459  -39.9589   -7.5156 C   0  0  1  0  0  0  0  0  0  0  0  0
  -18.6849  -39.7280   -6.4281 C   0  0  0  0  0  0  0  0  0  0  0  0
  -16.5983  -38.8367   -7.4100 C   0  0  2  0  0  0  0  0  0  0  0  0
  -17.2690  -37.6535   -7.1768 O   0  0  0  0  0  0  0  0  0  0  0  0
  -15.7489  -38.7797   -8.6583 C   0  0  0  0  0  0  0  0  0  0  0  0
  -14.3688  -39.0231   -8.4135 N   0  0  0  0  0  0  0  0  0  0  0  0
  -13.7374  -39.9470   -9.3216 C   0  0  0  0  0  0  0  0  0  0  0  0
  -13.4082  -39.3175  -10.6243 C   0  0  0  0  0  0  0  0  0  0  0  0
  -13.6409  -39.8932  -11.8521 C   0  0  0  0  0  0  0  0  0  0  0  0
  -13.3022  -39.2235  -12.9709 N   0  0  0  0  0  0  0  0  0  0  0  0
  -12.7328  -37.9875  -12.9438 C   0  0  0  0  0  0  0  0  0  0  0  0
  -12.4821  -37.3728  -11.7255 C   0  0  0  0  0  0  0  0  0  0  0  0
  -11.6835  -35.6351  -11.6675 Br  0  0  0  0  0  0  0  0  0  0  0  0
  -12.8308  -38.0639  -10.5977 C   0  0  0  0  0  0  0  0  0  0  0  0
  2  1  1  6
  2  3  1  0
  3  4  1  0
  4  5  1  0
  5  6  1  0
  6  7  1  0
  7  8  1  0
  8  9  1  0
  9 10  1  0
 10 11  1  0
 11 12  2  0
 11 13  1  0
 13 14  1  0
 13 15  1  0
 15 16  1  6
 15 17  1  0
 17 18  2  0
 17 19  1  0
 19 20  1  0
 20 21  1  1
 20 22  1  0
 22 23  1  6
 22 24  1  0
 24 25  1  0
 25 26  1  0
 26 27  1  0
 27 28  2  0
 28 29  1  0
 29 30  2  0
 30 31  1  0
 31 32  1  0
 31 33  2  0
 21  2  1  0
 33 27  1  0
M  END
$$$$
