
     RDKit          3D

 33 34  0  0  0  0  0  0  0  0999 V2000
  -20.2807  -38.5794   -8.1143 C   0  0  0  0  0  0  0  0  0  0  0  0
  -20.2587  -39.4816   -6.9243 C   0  0  2  0  0  0  0  0  0  0  0  0
  -21.0949  -38.8037   -5.8406 C   0  0  0  0  0  0  0  0  0  0  0  0
  -22.0945  -39.7359   -5.2341 C   0  0  0  0  0  0  0  0  0  0  0  0
  -23.0797  -40.2332   -6.2479 C   0  0  0  0  0  0  0  0  0  0  0  0
  -23.4635  -41.6699   -5.9755 C   0  0  0  0  0  0  0  0  0  0  0  0
  -22.7969  -42.6159   -6.9536 C   0  0  0  0  0  0  0  0  0  0  0  0
  -21.5890  -43.1921   -6.2633 C   0  0  0  0  0  0  0  0  0  0  0  0
  -20.9582  -44.1779   -6.9788 O   0  0  0  0  0  0  0  0  0  0  0  0
  -20.1628  -43.7265   -8.0202 C   0  0  0  0  0  0  0  0  0  0  0  0
  -19.0793  -44.6923   -8.2461 C   0  0  0  0  0  0  0  0  0  0  0  0
  -19.3276  -45.9047   -7.9014 O   0  0  0  0  0  0  0  0  0  0  0  0
  -17.8056  -44.4279   -8.7977 N   0  0  0  0  0  0  0  0  0  0  0  0
  -17.2615  -45.3392   -9.7902 C   0  0  0  0  0  0  0  0  0  0  0  0
  -16.9561  -43.2962   -8.4564 C   0  0  1  0  0  0  0  0  0  0  0  0
  -16.7041  -42.4029   -9.6215 C   0  0  0  0  0  0  0  0  0  0  0  0
  -17.3033  -42.6557   -7.1929 C   0  0  0  0  0  0  0  0  0  0  0  0
  -17.7789  -43.4733   -6.3139 O   0  0  0  0  0  0  0  0  0  0  0  0
  -17.2019  -41.3191   -6.7893 N   0  0  0  0  0  0  0  0  0  0  0  0
  -17.8449  -40.1442   -7.3275 C   0  0  1  0  0  0  0  0  0  0  0  0
  -18.9283  -39.7568   -6.3318 C   0  0  0  0  0  0  0  0  0  0  0  0
  -16.8028  -39.0121   -7.3517 C   0  0  2  0  0  0  0  0  0  0  0  0
  -17.3633  -37.9366   -8.0100 O   0  0  0  0  0  0  0  0  0  0  0  0
  -15.5213  -39.4796   -8.0014 C   0  0  0  0  0  0  0  0  0  0  0  0
  -15.5795  -39.4879   -9.4229 N   0  0  0  0  0  0  0  0  0  0  0  0
  -14.9534  -38.3627  -10.0700 C   0  0  0  0  0  0  0  0  0  0  0  0
  -13.8465  -38.7758  -10.9676 C   0  0  0  0  0  0  0  0  0  0  0  0
  -13.4796  -40.0799  -11.2080 C   0  0  0  0  0  0  0  0  0  0  0  0
  -12.4574  -40.3349  -12.0476 N   0  0  0  0  0  0  0  0  0  0  0  0
  -11.7608  -39.3500  -12.6779 C   0  0  0  0  0  0  0  0  0  0  0  0
  -12.0999  -38.0221  -12.4621 C   0  0  0  0  0  0  0  0  0  0  0  0
  -11.1329  -36.6240  -13.3403 Br  0  0  0  0  0  0  0  0  0  0  0  0
  -13.1395  -37.7776  -11.6073 C   0  0  0  0  0  0  0  0  0  0  0  0
  2  1  1  6
  2  3  1  0
  3  4  1  0
  4  5  1  0
  5  6  1  0
  6  7  1  0
  7  8  1  0
  8  9  1  0
  9 10  1  0
 10 11  1  0
 11 12  2  0
 11 13  1  0
 13 14  1  0
 13 15  1  0
 15 16  1  6
 15 17  1  0
 17 18  2  0
 17 19  1  0
 19 20  1  0
 20 21  1  1
 20 22  1  0
 22 23  1  6
 22 24  1  0
 24 25  1  0
 25 26  1  0
 26 27  1  0
 27 28  2  0
 28 29  1  0
 29 30  2  0
 30 31  1  0
 31 32  1  0
 31 33  2  0
 21  2  1  0
 33 27  1  0
M  END
$$$$
