
     RDKit          3D

 33 34  0  0  0  0  0  0  0  0999 V2000
  -20.4982  -38.7646   -7.7124 C   0  0  0  0  0  0  0  0  0  0  0  0
  -20.2441  -39.7226   -6.5952 C   0  0  2  0  0  0  0  0  0  0  0  0
  -20.9505  -39.1613   -5.3628 C   0  0  0  0  0  0  0  0  0  0  0  0
  -21.7894  -40.1910   -4.6758 C   0  0  0  0  0  0  0  0  0  0  0  0
  -22.8815  -40.7038   -5.5647 C   0  0  0  0  0  0  0  0  0  0  0  0
  -23.1309  -42.1759   -5.3276 C   0  0  0  0  0  0  0  0  0  0  0  0
  -22.5595  -43.0217   -6.4474 C   0  0  0  0  0  0  0  0  0  0  0  0
  -21.2291  -43.5462   -5.9755 C   0  0  0  0  0  0  0  0  0  0  0  0
  -20.6517  -44.4475   -6.8333 O   0  0  0  0  0  0  0  0  0  0  0  0
  -20.0491  -43.8888   -7.9494 C   0  0  0  0  0  0  0  0  0  0  0  0
  -18.9534  -44.7634   -8.3880 C   0  0  0  0  0  0  0  0  0  0  0  0
  -19.0723  -46.0062   -8.0854 O   0  0  0  0  0  0  0  0  0  0  0  0
  -17.7946  -44.3825   -9.1010 N   0  0  0  0  0  0  0  0  0  0  0  0
  -17.3484  -45.2015  -10.2153 C   0  0  0  0  0  0  0  0  0  0  0  0
  -16.9755  -43.2128   -8.8180 C   0  0  1  0  0  0  0  0  0  0  0  0
  -16.9550  -42.2457   -9.9508 C   0  0  0  0  0  0  0  0  0  0  0  0
  -17.1704  -42.6636   -7.4810 C   0  0  0  0  0  0  0  0  0  0  0  0
  -17.4588  -43.5564   -6.5937 O   0  0  0  0  0  0  0  0  0  0  0  0
  -17.0932  -41.3455   -7.0158 N   0  0  0  0  0  0  0  0  0  0  0  0
  -17.8804  -40.1927   -7.3828 C   0  0  1  0  0  0  0  0  0  0  0  0
  -18.8260  -39.9337   -6.2192 C   0  0  0  0  0  0  0  0  0  0  0  0
  -16.9256  -38.9905   -7.4887 C   0  0  2  0  0  0  0  0  0  0  0  0
  -17.6676  -37.8955   -7.8819 O   0  0  0  0  0  0  0  0  0  0  0  0
  -15.7931  -39.2903   -8.4429 C   0  0  0  0  0  0  0  0  0  0  0  0
  -15.7896  -38.4554   -9.5947 N   0  0  0  0  0  0  0  0  0  0  0  0
  -14.5205  -37.8503   -9.9110 C   0  0  0  0  0  0  0  0  0  0  0  0
  -14.0344  -38.2370  -11.2586 C   0  0  0  0  0  0  0  0  0  0  0  0
  -14.5531  -39.2649  -12.0119 C   0  0  0  0  0  0  0  0  0  0  0  0
  -14.0313  -39.5224  -13.2270 N   0  0  0  0  0  0  0  0  0  0  0  0
  -13.0011  -38.8042  -13.7517 C   0  0  0  0  0  0  0  0  0  0  0  0
  -12.4503  -37.7595  -13.0234 C   0  0  0  0  0  0  0  0  0  0  0  0
  -11.0024  -36.7379  -13.7451 Br  0  0  0  0  0  0  0  0  0  0  0  0
  -12.9896  -37.5091  -11.7915 C   0  0  0  0  0  0  0  0  0  0  0  0
  2  1  1  6
  2  3  1  0
  3  4  1  0
  4  5  1  0
  5  6  1  0
  6  7  1  0
  7  8  1  0
  8  9  1  0
  9 10  1  0
 10 11  1  0
 11 12  2  0
 11 13  1  0
 13 14  1  0
 13 15  1  0
 15 16  1  6
 15 17  1  0
 17 18  2  0
 17 19  1  0
 19 20  1  0
 20 21  1  1
 20 22  1  0
 22 23  1  6
 22 24  1  0
 24 25  1  0
 25 26  1  0
 26 27  1  0
 27 28  2  0
 28 29  1  0
 29 30  2  0
 30 31  1  0
 31 32  1  0
 31 33  2  0
 21  2  1  0
 33 27  1  0
M  END
$$$$
