
     RDKit          3D

 33 34  0  0  0  0  0  0  0  0999 V2000
  -20.7596  -38.5622   -8.4142 C   0  0  0  0  0  0  0  0  0  0  0  0
  -20.3434  -39.0739   -7.0743 C   0  0  2  0  0  0  0  0  0  0  0  0
  -20.8087  -38.0461   -6.0448 C   0  0  0  0  0  0  0  0  0  0  0  0
  -21.5452  -38.6799   -4.9082 C   0  0  0  0  0  0  0  0  0  0  0  0
  -22.7893  -39.3764   -5.3695 C   0  0  0  0  0  0  0  0  0  0  0  0
  -23.0363  -40.6361   -4.5709 C   0  0  0  0  0  0  0  0  0  0  0  0
  -22.6926  -41.8756   -5.3718 C   0  0  0  0  0  0  0  0  0  0  0  0
  -21.3164  -42.3139   -4.9459 C   0  0  0  0  0  0  0  0  0  0  0  0
  -20.9229  -43.5115   -5.4869 O   0  0  0  0  0  0  0  0  0  0  0  0
  -20.5072  -43.4479   -6.8076 C   0  0  0  0  0  0  0  0  0  0  0  0
  -19.5301  -44.5171   -7.0521 C   0  0  0  0  0  0  0  0  0  0  0  0
  -19.6306  -45.5521   -6.2978 O   0  0  0  0  0  0  0  0  0  0  0  0
  -18.5019  -44.5243   -8.0213 N   0  0  0  0  0  0  0  0  0  0  0  0
  -18.2797  -45.7256   -8.8081 C   0  0  0  0  0  0  0  0  0  0  0  0
  -17.6126  -43.4104   -8.3170 C   0  0  1  0  0  0  0  0  0  0  0  0
  -17.7610  -42.9206   -9.7160 C   0  0  0  0  0  0  0  0  0  0  0  0
  -17.5566  -42.4025   -7.2643 C   0  0  0  0  0  0  0  0  0  0  0  0
  -17.7124  -42.8871   -6.0776 O   0  0  0  0  0  0  0  0  0  0  0  0
  -17.3616  -41.0181   -7.3359 N   0  0  0  0  0  0  0  0  0  0  0  0
  -18.1669  -40.0077   -7.9794 C   0  0  1  0  0  0  0  0  0  0  0  0
  -18.8883  -39.2636   -6.8654 C   0  0  0  0  0  0  0  0  0  0  0  0
  -17.2105  -39.0156   -8.6643 C   0  0  2  0  0  0  0  0  0  0  0  0
  -17.9350  -38.3112   -9.6041 O   0  0  0  0  0  0  0  0  0  0  0  0
  -16.0330  -39.7416   -9.2720 C   0  0  0  0  0  0  0  0  0  0  0  0
  -14.8350  -39.6052   -8.5169 N   0  0  0  0  0  0  0  0  0  0  0  0
  -13.6563  -40.1652   -9.1284 C   0  0  0  0  0  0  0  0  0  0  0  0
  -13.1775  -39.3520  -10.2734 C   0  0  0  0  0  0  0  0  0  0  0  0
  -13.3109  -39.7081  -11.5957 C   0  0  0  0  0  0  0  0  0  0  0  0
  -12.8390  -38.8856  -12.5526 N   0  0  0  0  0  0  0  0  0  0  0  0
  -12.2279  -37.7029  -12.2693 C   0  0  0  0  0  0  0  0  0  0  0  0
  -12.0740  -37.3077  -10.9482 C   0  0  0  0  0  0  0  0  0  0  0  0
  -11.2187  -35.6479  -10.5307 Br  0  0  0  0  0  0  0  0  0  0  0  0
  -12.5577  -38.1523   -9.9870 C   0  0  0  0  0  0  0  0  0  0  0  0
  2  1  1  6
  2  3  1  0
  3  4  1  0
  4  5  1  0
  5  6  1  0
  6  7  1  0
  7  8  1  0
  8  9  1  0
  9 10  1  0
 10 11  1  0
 11 12  2  0
 11 13  1  0
 13 14  1  0
 13 15  1  0
 15 16  1  6
 15 17  1  0
 17 18  2  0
 17 19  1  0
 19 20  1  0
 20 21  1  1
 20 22  1  0
 22 23  1  6
 22 24  1  0
 24 25  1  0
 25 26  1  0
 26 27  1  0
 27 28  2  0
 28 29  1  0
 29 30  2  0
 30 31  1  0
 31 32  1  0
 31 33  2  0
 21  2  1  0
 33 27  1  0
M  END
$$$$
