
     RDKit          3D

 33 34  0  0  0  0  0  0  0  0999 V2000
  -20.9629  -39.5055   -9.5361 C   0  0  0  0  0  0  0  0  0  0  0  0
  -20.4886  -39.5149   -8.1199 C   0  0  2  0  0  0  0  0  0  0  0  0
  -20.8926  -38.1742   -7.5099 C   0  0  0  0  0  0  0  0  0  0  0  0
  -21.5808  -38.3385   -6.1926 C   0  0  0  0  0  0  0  0  0  0  0  0
  -22.8532  -39.1195   -6.3220 C   0  0  0  0  0  0  0  0  0  0  0  0
  -23.0757  -40.0024   -5.1152 C   0  0  0  0  0  0  0  0  0  0  0  0
  -22.7845  -41.4555   -5.4311 C   0  0  0  0  0  0  0  0  0  0  0  0
  -21.3944  -41.7499   -4.9327 C   0  0  0  0  0  0  0  0  0  0  0  0
  -21.0406  -43.0722   -5.0233 O   0  0  0  0  0  0  0  0  0  0  0  0
  -20.6879  -43.4971   -6.2946 C   0  0  0  0  0  0  0  0  0  0  0  0
  -19.7355  -44.6094   -6.1786 C   0  0  0  0  0  0  0  0  0  0  0  0
  -19.8113  -45.3026   -5.0997 O   0  0  0  0  0  0  0  0  0  0  0  0
  -18.7551  -44.9914   -7.1217 N   0  0  0  0  0  0  0  0  0  0  0  0
  -18.5842  -46.4005   -7.4332 C   0  0  0  0  0  0  0  0  0  0  0  0
  -17.8687  -44.0822   -7.8335 C   0  0  1  0  0  0  0  0  0  0  0  0
  -18.0785  -44.1219   -9.3077 C   0  0  0  0  0  0  0  0  0  0  0  0
  -17.7512  -42.7662   -7.2159 C   0  0  0  0  0  0  0  0  0  0  0  0
  -17.8553  -42.7893   -5.9290 O   0  0  0  0  0  0  0  0  0  0  0  0
  -17.5446  -41.5051   -7.7875 N   0  0  0  0  0  0  0  0  0  0  0  0
  -18.3684  -40.7704   -8.7174 C   0  0  1  0  0  0  0  0  0  0  0  0
  -19.0274  -39.6571   -7.9163 C   0  0  0  0  0  0  0  0  0  0  0  0
  -17.4350  -40.1159   -9.7511 C   0  0  2  0  0  0  0  0  0  0  0  0
  -17.1355  -41.0632  -10.7088 O   0  0  0  0  0  0  0  0  0  0  0  0
  -16.1981  -39.5652   -9.0807 C   0  0  0  0  0  0  0  0  0  0  0  0
  -14.9946  -40.1817   -9.5228 N   0  0  0  0  0  0  0  0  0  0  0  0
  -14.2909  -39.4782  -10.5653 C   0  0  0  0  0  0  0  0  0  0  0  0
  -14.4676  -38.0081  -10.4687 C   0  0  0  0  0  0  0  0  0  0  0  0
  -15.6824  -37.3628  -10.4982 C   0  0  0  0  0  0  0  0  0  0  0  0
  -15.7200  -36.0198  -10.3986 N   0  0  0  0  0  0  0  0  0  0  0  0
  -14.5978  -35.2607  -10.2686 C   0  0  0  0  0  0  0  0  0  0  0  0
  -13.3535  -35.8736  -10.2346 C   0  0  0  0  0  0  0  0  0  0  0  0
  -11.7649  -34.8231  -10.0511 Br  0  0  0  0  0  0  0  0  0  0  0  0
  -13.3300  -37.2375  -10.3367 C   0  0  0  0  0  0  0  0  0  0  0  0
  2  1  1  6
  2  3  1  0
  3  4  1  0
  4  5  1  0
  5  6  1  0
  6  7  1  0
  7  8  1  0
  8  9  1  0
  9 10  1  0
 10 11  1  0
 11 12  2  0
 11 13  1  0
 13 14  1  0
 13 15  1  0
 15 16  1  6
 15 17  1  0
 17 18  2  0
 17 19  1  0
 19 20  1  0
 20 21  1  1
 20 22  1  0
 22 23  1  6
 22 24  1  0
 24 25  1  0
 25 26  1  0
 26 27  1  0
 27 28  2  0
 28 29  1  0
 29 30  2  0
 30 31  1  0
 31 32  1  0
 31 33  2  0
 21  2  1  0
 33 27  1  0
M  END
$$$$
