
     RDKit          3D

 33 34  0  0  0  0  0  0  0  0999 V2000
  -12.7818  -37.3739   -9.2436 C   0  0  0  0  0  0  0  0  0  0  0  0
  -13.6310  -37.6836  -10.4326 C   0  0  2  0  0  0  0  0  0  0  0  0
  -13.8670  -36.3630  -11.1629 C   0  0  0  0  0  0  0  0  0  0  0  0
  -13.5901  -36.4718  -12.6283 C   0  0  0  0  0  0  0  0  0  0  0  0
  -12.1607  -36.8302  -12.9004 C   0  0  0  0  0  0  0  0  0  0  0  0
  -12.0468  -37.7439  -14.0994 C   0  0  0  0  0  0  0  0  0  0  0  0
  -11.7623  -39.1724  -13.6819 C   0  0  0  0  0  0  0  0  0  0  0  0
  -13.0736  -39.9125  -13.7030 C   0  0  0  0  0  0  0  0  0  0  0  0
  -12.9537  -41.2608  -13.4809 O   0  0  0  0  0  0  0  0  0  0  0  0
  -12.7584  -41.6200  -12.1566 C   0  0  0  0  0  0  0  0  0  0  0  0
  -13.3057  -42.9662  -11.9419 C   0  0  0  0  0  0  0  0  0  0  0  0
  -13.3450  -43.7273  -12.9760 O   0  0  0  0  0  0  0  0  0  0  0  0
  -13.7882  -43.5044  -10.7278 N   0  0  0  0  0  0  0  0  0  0  0  0
  -13.4103  -44.8567  -10.3538 C   0  0  0  0  0  0  0  0  0  0  0  0
  -14.6574  -42.8153   -9.7851 C   0  0  1  0  0  0  0  0  0  0  0  0
  -14.0139  -42.6221   -8.4555 C   0  0  0  0  0  0  0  0  0  0  0  0
  -15.3582  -41.6701  -10.3549 C   0  0  0  0  0  0  0  0  0  0  0  0
  -15.6428  -41.8104  -11.6066 O   0  0  0  0  0  0  0  0  0  0  0  0
  -15.7659  -40.4659   -9.7690 N   0  0  0  0  0  0  0  0  0  0  0  0
  -14.9730  -39.4218   -9.1652 C   0  0  1  0  0  0  0  0  0  0  0  0
  -14.9655  -38.2655  -10.1544 C   0  0  0  0  0  0  0  0  0  0  0  0
  -15.7087  -38.9511   -7.8982 C   0  0  2  0  0  0  0  0  0  0  0  0
  -14.8682  -39.1530   -6.8225 O   0  0  0  0  0  0  0  0  0  0  0  0
  -17.0246  -39.6773   -7.7438 C   0  0  0  0  0  0  0  0  0  0  0  0
  -17.7883  -39.2308   -6.6296 N   0  0  0  0  0  0  0  0  0  0  0  0
  -18.8205  -40.1355   -6.1901 C   0  0  0  0  0  0  0  0  0  0  0  0
  -20.0317  -40.0629   -7.0442 C   0  0  0  0  0  0  0  0  0  0  0  0
  -20.6617  -41.1514   -7.6021 C   0  0  0  0  0  0  0  0  0  0  0  0
  -21.7597  -40.9630   -8.3597 N   0  0  0  0  0  0  0  0  0  0  0  0
  -22.2823  -39.7300   -8.6028 C   0  0  0  0  0  0  0  0  0  0  0  0
  -21.6762  -38.6070   -8.0581 C   0  0  0  0  0  0  0  0  0  0  0  0
  -22.3972  -36.8657   -8.3877 Br  0  0  0  0  0  0  0  0  0  0  0  0
  -20.5624  -38.8127   -7.2912 C   0  0  0  0  0  0  0  0  0  0  0  0
  2  1  1  1
  2  3  1  0
  3  4  1  0
  4  5  1  0
  5  6  1  0
  6  7  1  0
  7  8  1  0
  8  9  1  0
  9 10  1  0
 10 11  1  0
 11 12  2  0
 11 13  1  0
 13 14  1  0
 13 15  1  0
 15 16  1  1
 15 17  1  0
 17 18  2  0
 17 19  1  0
 19 20  1  0
 20 21  1  6
 20 22  1  0
 22 23  1  1
 22 24  1  0
 24 25  1  0
 25 26  1  0
 26 27  1  0
 27 28  2  0
 28 29  1  0
 29 30  2  0
 30 31  1  0
 31 32  1  0
 31 33  2  0
 21  2  1  0
 33 27  1  0
M  END
$$$$
