
     RDKit          3D

 33 34  0  0  0  0  0  0  0  0999 V2000
  -20.2083  -38.6042   -7.7311 C   0  0  0  0  0  0  0  0  0  0  0  0
  -20.1028  -39.4905   -6.5335 C   0  0  2  0  0  0  0  0  0  0  0  0
  -20.7503  -38.7408   -5.3709 C   0  0  0  0  0  0  0  0  0  0  0  0
  -21.7301  -39.5913   -4.6273 C   0  0  0  0  0  0  0  0  0  0  0  0
  -22.8646  -40.0297   -5.5028 C   0  0  0  0  0  0  0  0  0  0  0  0
  -23.3108  -41.4317   -5.1551 C   0  0  0  0  0  0  0  0  0  0  0  0
  -22.8367  -42.4354   -6.1865 C   0  0  0  0  0  0  0  0  0  0  0  0
  -21.5960  -43.0876   -5.6362 C   0  0  0  0  0  0  0  0  0  0  0  0
  -21.1279  -44.1251   -6.4019 O   0  0  0  0  0  0  0  0  0  0  0  0
  -20.4372  -43.7450   -7.5418 C   0  0  0  0  0  0  0  0  0  0  0  0
  -19.4593  -44.7886   -7.8773 C   0  0  0  0  0  0  0  0  0  0  0  0
  -19.7469  -45.9756   -7.4790 O   0  0  0  0  0  0  0  0  0  0  0  0
  -18.2479  -44.6230   -8.5853 N   0  0  0  0  0  0  0  0  0  0  0  0
  -17.8945  -45.5835   -9.6169 C   0  0  0  0  0  0  0  0  0  0  0  0
  -17.2863  -43.5507   -8.3742 C   0  0  1  0  0  0  0  0  0  0  0  0
  -17.1182  -42.6926   -9.5802 C   0  0  0  0  0  0  0  0  0  0  0  0
  -17.4303  -42.8709   -7.0919 C   0  0  0  0  0  0  0  0  0  0  0  0
  -17.8498  -43.6412   -6.1442 O   0  0  0  0  0  0  0  0  0  0  0  0
  -17.1875  -41.5400   -6.7323 N   0  0  0  0  0  0  0  0  0  0  0  0
  -17.8087  -40.3291   -7.2132 C   0  0  1  0  0  0  0  0  0  0  0  0
  -18.7320  -39.8526   -6.1016 C   0  0  0  0  0  0  0  0  0  0  0  0
  -16.7015  -39.2748   -7.3884 C   0  0  2  0  0  0  0  0  0  0  0  0
  -17.2961  -38.1052   -7.8158 O   0  0  0  0  0  0  0  0  0  0  0  0
  -15.6434  -39.7660   -8.3486 C   0  0  0  0  0  0  0  0  0  0  0  0
  -14.5047  -38.9159   -8.4167 N   0  0  0  0  0  0  0  0  0  0  0  0
  -13.4974  -39.3132   -9.3678 C   0  0  0  0  0  0  0  0  0  0  0  0
  -13.7460  -38.7490  -10.7175 C   0  0  0  0  0  0  0  0  0  0  0  0
  -13.9501  -39.4986  -11.8530 C   0  0  0  0  0  0  0  0  0  0  0  0
  -14.1703  -38.8744  -13.0264 N   0  0  0  0  0  0  0  0  0  0  0  0
  -14.2006  -37.5187  -13.1433 C   0  0  0  0  0  0  0  0  0  0  0  0
  -13.9994  -36.7273  -12.0215 C   0  0  0  0  0  0  0  0  0  0  0  0
  -14.0397  -34.8199  -12.1661 Br  0  0  0  0  0  0  0  0  0  0  0  0
  -13.7770  -37.3742  -10.8370 C   0  0  0  0  0  0  0  0  0  0  0  0
  2  1  1  6
  2  3  1  0
  3  4  1  0
  4  5  1  0
  5  6  1  0
  6  7  1  0
  7  8  1  0
  8  9  1  0
  9 10  1  0
 10 11  1  0
 11 12  2  0
 11 13  1  0
 13 14  1  0
 13 15  1  0
 15 16  1  6
 15 17  1  0
 17 18  2  0
 17 19  1  0
 19 20  1  0
 20 21  1  1
 20 22  1  0
 22 23  1  6
 22 24  1  0
 24 25  1  0
 25 26  1  0
 26 27  1  0
 27 28  2  0
 28 29  1  0
 29 30  2  0
 30 31  1  0
 31 32  1  0
 31 33  2  0
 21  2  1  0
 33 27  1  0
M  END
$$$$
