
     RDKit          3D

 33 34  0  0  0  0  0  0  0  0999 V2000
  -20.8506  -39.0993   -9.1335 C   0  0  0  0  0  0  0  0  0  0  0  0
  -20.3712  -39.3250   -7.7371 C   0  0  2  0  0  0  0  0  0  0  0  0
  -20.6787  -38.0508   -6.9531 C   0  0  0  0  0  0  0  0  0  0  0  0
  -21.3701  -38.3382   -5.6587 C   0  0  0  0  0  0  0  0  0  0  0  0
  -22.6940  -39.0076   -5.8705 C   0  0  0  0  0  0  0  0  0  0  0  0
  -22.9710  -40.0230   -4.7853 C   0  0  0  0  0  0  0  0  0  0  0  0
  -22.7824  -41.4389   -5.2907 C   0  0  0  0  0  0  0  0  0  0  0  0
  -21.4134  -41.8894   -4.8540 C   0  0  0  0  0  0  0  0  0  0  0  0
  -21.1522  -43.2095   -5.1201 O   0  0  0  0  0  0  0  0  0  0  0  0
  -20.8360  -43.4882   -6.4404 C   0  0  0  0  0  0  0  0  0  0  0  0
  -19.9621  -44.6682   -6.4827 C   0  0  0  0  0  0  0  0  0  0  0  0
  -20.0802  -45.4892   -5.5017 O   0  0  0  0  0  0  0  0  0  0  0  0
  -19.0151  -44.9898   -7.4808 N   0  0  0  0  0  0  0  0  0  0  0  0
  -18.9434  -46.3546   -7.9745 C   0  0  0  0  0  0  0  0  0  0  0  0
  -18.0715  -44.0579   -8.0810 C   0  0  1  0  0  0  0  0  0  0  0  0
  -18.2908  -43.8910   -9.5450 C   0  0  0  0  0  0  0  0  0  0  0  0
  -17.8603  -42.8444   -7.2999 C   0  0  0  0  0  0  0  0  0  0  0  0
  -17.9595  -43.0277   -6.0255 O   0  0  0  0  0  0  0  0  0  0  0  0
  -17.5700  -41.5366   -7.7061 N   0  0  0  0  0  0  0  0  0  0  0  0
  -18.3457  -40.6329   -8.5215 C   0  0  1  0  0  0  0  0  0  0  0  0
  -18.9223  -39.5913   -7.5739 C   0  0  0  0  0  0  0  0  0  0  0  0
  -17.3745  -39.9143   -9.4746 C   0  0  2  0  0  0  0  0  0  0  0  0
  -17.3122  -40.6448  -10.6436 O   0  0  0  0  0  0  0  0  0  0  0  0
  -16.0189  -39.7462   -8.8288 C   0  0  0  0  0  0  0  0  0  0  0  0
  -15.4858  -38.4347   -8.9687 N   0  0  0  0  0  0  0  0  0  0  0  0
  -14.2308  -38.3534   -9.6726 C   0  0  0  0  0  0  0  0  0  0  0  0
  -14.1534  -37.1564  -10.5460 C   0  0  0  0  0  0  0  0  0  0  0  0
  -14.8545  -35.9907  -10.3393 C   0  0  0  0  0  0  0  0  0  0  0  0
  -14.7009  -34.9656  -11.1998 N   0  0  0  0  0  0  0  0  0  0  0  0
  -13.8738  -35.0294  -12.2789 C   0  0  0  0  0  0  0  0  0  0  0  0
  -13.1492  -36.1874  -12.5220 C   0  0  0  0  0  0  0  0  0  0  0  0
  -11.9804  -36.2952  -14.0330 Br  0  0  0  0  0  0  0  0  0  0  0  0
  -13.3147  -37.2202  -11.6405 C   0  0  0  0  0  0  0  0  0  0  0  0
  2  1  1  6
  2  3  1  0
  3  4  1  0
  4  5  1  0
  5  6  1  0
  6  7  1  0
  7  8  1  0
  8  9  1  0
  9 10  1  0
 10 11  1  0
 11 12  2  0
 11 13  1  0
 13 14  1  0
 13 15  1  0
 15 16  1  6
 15 17  1  0
 17 18  2  0
 17 19  1  0
 19 20  1  0
 20 21  1  1
 20 22  1  0
 22 23  1  6
 22 24  1  0
 24 25  1  0
 25 26  1  0
 26 27  1  0
 27 28  2  0
 28 29  1  0
 29 30  2  0
 30 31  1  0
 31 32  1  0
 31 33  2  0
 21  2  1  0
 33 27  1  0
M  END
$$$$
