
     RDKit          3D

 36 38  0  0  0  0  0  0  0  0999 V2000
  -17.2088  -47.1580  -11.0080 C   0  0  0  0  0  0  0  0  0  0  0  0
  -17.3853  -46.0429  -10.2095 O   0  0  0  0  0  0  0  0  0  0  0  0
  -18.7038  -45.7526   -9.9613 C   0  0  0  0  0  0  0  0  0  0  0  0
  -18.8869  -44.2747   -9.9408 C   0  0  0  0  0  0  0  0  0  0  0  0
  -20.0406  -43.6715  -10.3539 C   0  0  0  0  0  0  0  0  0  0  0  0
  -20.2448  -42.2647  -10.3471 C   0  0  0  0  0  0  0  0  0  0  0  0
  -19.2254  -41.4557   -9.9010 C   0  0  0  0  0  0  0  0  0  0  0  0
  -18.0352  -42.0026   -9.4692 C   0  0  0  0  0  0  0  0  0  0  0  0
  -17.9161  -43.4237   -9.5099 C   0  0  0  0  0  0  0  0  0  0  0  0
  -16.8037  -41.4010   -8.9516 C   0  0  0  0  0  0  0  0  0  0  0  0
  -15.6586  -41.9281   -9.3600 O   0  0  0  0  0  0  0  0  0  0  0  0
  -16.5044  -40.3408   -8.0727 N   0  0  0  0  0  0  0  0  0  0  0  0
  -17.3320  -39.1409   -7.8425 C   0  0  1  0  0  0  0  0  0  0  0  0
  -18.0530  -39.3628   -6.5572 C   0  0  0  0  0  0  0  0  0  0  0  0
  -18.8395  -38.2560   -5.9883 C   0  0  2  0  0  0  0  0  0  0  0  0
  -19.3603  -38.7699   -4.6273 C   0  0  0  0  0  0  0  0  0  0  0  0
  -20.0449  -37.8323   -6.7593 C   0  0  0  0  0  0  0  0  0  0  0  0
  -20.8728  -38.8958   -7.3449 C   0  0  0  0  0  0  0  0  0  0  0  0
  -21.9891  -39.3960   -6.4559 C   0  0  0  0  0  0  0  0  0  0  0  0
  -23.0693  -39.9538   -7.3848 C   0  0  0  0  0  0  0  0  0  0  0  0
  -22.7092  -41.3267   -7.8781 C   0  0  0  0  0  0  0  0  0  0  0  0
  -23.3574  -41.6542   -9.2020 C   0  0  0  0  0  0  0  0  0  0  0  0
  -22.5776  -41.0750  -10.3686 C   0  0  0  0  0  0  0  0  0  0  0  0
  -21.5540  -41.9882  -10.8418 N   0  0  0  0  0  0  0  0  0  0  0  0
  -16.3693  -37.9434   -7.7246 C   0  0  2  0  0  0  0  0  0  0  0  0
  -16.9313  -36.7517   -8.0584 O   0  0  0  0  0  0  0  0  0  0  0  0
  -15.2057  -38.2393   -8.6354 C   0  0  0  0  0  0  0  0  0  0  0  0
  -14.3765  -39.3259   -8.2734 N   0  0  0  0  0  0  0  0  0  0  0  0
  -13.7826  -40.0825   -9.3215 C   0  0  0  0  0  0  0  0  0  0  0  0
  -12.7944  -41.0765   -8.7035 C   0  0  0  0  0  0  0  0  0  0  0  0
  -13.0476  -42.3894   -9.3151 C   0  0  0  0  0  0  0  0  0  0  0  0
  -12.8267  -42.5657  -10.6578 C   0  0  0  0  0  0  0  0  0  0  0  0
  -13.0728  -43.8147  -11.2270 C   0  0  0  0  0  0  0  0  0  0  0  0
  -13.5194  -44.8404  -10.4877 N   0  0  0  0  0  0  0  0  0  0  0  0
  -13.7405  -44.6839   -9.1719 C   0  0  0  0  0  0  0  0  0  0  0  0
  -13.5022  -43.4436   -8.5762 C   0  0  0  0  0  0  0  0  0  0  0  0
  1  2  1  0
  2  3  1  0
  3  4  1  0
  4  5  2  0
  5  6  1  0
  6  7  2  0
  7  8  1  0
  8  9  2  0
  8 10  1  0
 10 11  2  0
 10 12  1  0
 12 13  1  0
 13 14  1  1
 14 15  1  0
 15 16  1  1
 15 17  1  0
 17 18  1  0
 18 19  1  0
 19 20  1  0
 20 21  1  0
 21 22  1  0
 22 23  1  0
 23 24  1  0
 13 25  1  0
 25 26  1  6
 25 27  1  0
 27 28  1  0
 28 29  1  0
 29 30  1  0
 30 31  1  0
 31 32  2  0
 32 33  1  0
 33 34  2  0
 34 35  1  0
 35 36  2  0
  9  4  1  0
 24  6  1  0
 36 31  1  0
M  END
$$$$
