
     RDKit          3D

 36 38  0  0  0  0  0  0  0  0999 V2000
  -19.1051  -46.6342   -3.2355 C   0  0  0  0  0  0  0  0  0  0  0  0
  -18.6668  -45.3251   -3.1571 O   0  0  0  0  0  0  0  0  0  0  0  0
  -19.6848  -44.4052   -3.2010 C   0  0  0  0  0  0  0  0  0  0  0  0
  -19.7284  -43.7834   -4.5536 C   0  0  0  0  0  0  0  0  0  0  0  0
  -20.8414  -43.8217   -5.3443 C   0  0  0  0  0  0  0  0  0  0  0  0
  -20.9133  -43.2388   -6.6389 C   0  0  0  0  0  0  0  0  0  0  0  0
  -19.8008  -42.5977   -7.1328 C   0  0  0  0  0  0  0  0  0  0  0  0
  -18.6452  -42.5231   -6.3835 C   0  0  0  0  0  0  0  0  0  0  0  0
  -18.6610  -43.1353   -5.0950 C   0  0  0  0  0  0  0  0  0  0  0  0
  -17.3373  -41.9173   -6.6456 C   0  0  0  0  0  0  0  0  0  0  0  0
  -16.2695  -42.5986   -6.2561 O   0  0  0  0  0  0  0  0  0  0  0  0
  -16.8942  -40.7188   -7.2402 N   0  0  0  0  0  0  0  0  0  0  0  0
  -17.5932  -39.9604   -8.2956 C   0  0  1  0  0  0  0  0  0  0  0  0
  -18.2621  -38.8122   -7.6209 C   0  0  0  0  0  0  0  0  0  0  0  0
  -18.9108  -37.7848   -8.4521 C   0  0  2  0  0  0  0  0  0  0  0  0
  -19.4038  -36.7007   -7.4675 C   0  0  0  0  0  0  0  0  0  0  0  0
  -20.1110  -38.2169   -9.2266 C   0  0  0  0  0  0  0  0  0  0  0  0
  -21.0642  -39.1032   -8.5445 C   0  0  0  0  0  0  0  0  0  0  0  0
  -22.1731  -38.3935   -7.8006 C   0  0  0  0  0  0  0  0  0  0  0  0
  -23.3486  -39.3707   -7.7346 C   0  0  0  0  0  0  0  0  0  0  0  0
  -23.1445  -40.3981   -6.6571 C   0  0  0  0  0  0  0  0  0  0  0  0
  -23.8901  -41.6818   -6.9331 C   0  0  0  0  0  0  0  0  0  0  0  0
  -23.1231  -42.5847   -7.8824 C   0  0  0  0  0  0  0  0  0  0  0  0
  -22.2156  -43.4681   -7.1743 N   0  0  0  0  0  0  0  0  0  0  0  0
  -16.5184  -39.4598   -9.2799 C   0  0  2  0  0  0  0  0  0  0  0  0
  -16.6509  -39.9573  -10.5378 O   0  0  0  0  0  0  0  0  0  0  0  0
  -15.1871  -39.8651   -8.7014 C   0  0  0  0  0  0  0  0  0  0  0  0
  -14.1335  -38.9293   -8.8170 N   0  0  0  0  0  0  0  0  0  0  0  0
  -12.8906  -39.3929   -9.3307 C   0  0  0  0  0  0  0  0  0  0  0  0
  -11.8284  -38.3191   -9.0755 C   0  0  0  0  0  0  0  0  0  0  0  0
  -11.9925  -37.2818  -10.1047 C   0  0  0  0  0  0  0  0  0  0  0  0
  -13.0254  -36.3842  -10.0037 C   0  0  0  0  0  0  0  0  0  0  0  0
  -13.1724  -35.4066  -10.9871 C   0  0  0  0  0  0  0  0  0  0  0  0
  -12.3256  -35.3299  -12.0240 N   0  0  0  0  0  0  0  0  0  0  0  0
  -11.3094  -36.2012  -12.1371 C   0  0  0  0  0  0  0  0  0  0  0  0
  -11.1389  -37.1903  -11.1663 C   0  0  0  0  0  0  0  0  0  0  0  0
  1  2  1  0
  2  3  1  0
  3  4  1  0
  4  5  2  0
  5  6  1  0
  6  7  2  0
  7  8  1  0
  8  9  2  0
  8 10  1  0
 10 11  2  0
 10 12  1  0
 12 13  1  0
 13 14  1  1
 14 15  1  0
 15 16  1  1
 15 17  1  0
 17 18  1  0
 18 19  1  0
 19 20  1  0
 20 21  1  0
 21 22  1  0
 22 23  1  0
 23 24  1  0
 13 25  1  0
 25 26  1  6
 25 27  1  0
 27 28  1  0
 28 29  1  0
 29 30  1  0
 30 31  1  0
 31 32  2  0
 32 33  1  0
 33 34  2  0
 34 35  1  0
 35 36  2  0
  9  4  1  0
 24  6  1  0
 36 31  1  0
M  END
$$$$
