
     RDKit          3D

 36 38  0  0  0  0  0  0  0  0999 V2000
  -17.7585  -48.0172   -8.2611 C   0  0  0  0  0  0  0  0  0  0  0  0
  -19.0834  -47.9449   -7.8716 O   0  0  0  0  0  0  0  0  0  0  0  0
  -19.3011  -47.0696   -6.8369 C   0  0  0  0  0  0  0  0  0  0  0  0
  -19.6681  -45.7361   -7.3892 C   0  0  0  0  0  0  0  0  0  0  0  0
  -20.9503  -45.4082   -7.7268 C   0  0  0  0  0  0  0  0  0  0  0  0
  -21.3312  -44.1452   -8.2565 C   0  0  0  0  0  0  0  0  0  0  0  0
  -20.3575  -43.1917   -8.4447 C   0  0  0  0  0  0  0  0  0  0  0  0
  -19.0435  -43.4597   -8.1229 C   0  0  0  0  0  0  0  0  0  0  0  0
  -18.7501  -44.7529   -7.5966 C   0  0  0  0  0  0  0  0  0  0  0  0
  -17.8223  -42.6553   -8.2127 C   0  0  0  0  0  0  0  0  0  0  0  0
  -16.7245  -43.2719   -8.6258 O   0  0  0  0  0  0  0  0  0  0  0  0
  -17.4928  -41.3098   -7.9534 N   0  0  0  0  0  0  0  0  0  0  0  0
  -18.4065  -40.1552   -8.0523 C   0  0  1  0  0  0  0  0  0  0  0  0
  -18.8173  -39.8187   -6.6598 C   0  0  0  0  0  0  0  0  0  0  0  0
  -19.6105  -38.5994   -6.4325 C   0  0  2  0  0  0  0  0  0  0  0  0
  -19.7735  -38.4867   -4.9000 C   0  0  0  0  0  0  0  0  0  0  0  0
  -20.9917  -38.5902   -6.9972 C   0  0  0  0  0  0  0  0  0  0  0  0
  -21.7745  -39.8275   -6.8715 C   0  0  0  0  0  0  0  0  0  0  0  0
  -22.6127  -39.9259   -5.6167 C   0  0  0  0  0  0  0  0  0  0  0  0
  -23.7759  -40.8650   -5.9421 C   0  0  0  0  0  0  0  0  0  0  0  0
  -23.3465  -42.3040   -5.8907 C   0  0  0  0  0  0  0  0  0  0  0  0
  -24.2005  -43.1940   -6.7616 C   0  0  0  0  0  0  0  0  0  0  0  0
  -23.7553  -43.1556   -8.2125 C   0  0  0  0  0  0  0  0  0  0  0  0
  -22.7381  -44.1516   -8.4929 N   0  0  0  0  0  0  0  0  0  0  0  0
  -17.6050  -38.9965   -8.6763 C   0  0  2  0  0  0  0  0  0  0  0  0
  -18.3810  -38.0222   -9.2204 O   0  0  0  0  0  0  0  0  0  0  0  0
  -16.7244  -39.6077   -9.7356 C   0  0  0  0  0  0  0  0  0  0  0  0
  -15.4246  -39.9941   -9.3350 N   0  0  0  0  0  0  0  0  0  0  0  0
  -14.3676  -39.8311  -10.2731 C   0  0  0  0  0  0  0  0  0  0  0  0
  -13.0894  -40.4247   -9.6730 C   0  0  0  0  0  0  0  0  0  0  0  0
  -12.5315  -41.3612  -10.6597 C   0  0  0  0  0  0  0  0  0  0  0  0
  -11.5302  -42.2220  -10.2867 C   0  0  0  0  0  0  0  0  0  0  0  0
  -11.0073  -43.1039  -11.2319 C   0  0  0  0  0  0  0  0  0  0  0  0
  -11.4646  -43.1242  -12.4923 N   0  0  0  0  0  0  0  0  0  0  0  0
  -12.4445  -42.2879  -12.8731 C   0  0  0  0  0  0  0  0  0  0  0  0
  -12.9862  -41.3945  -11.9466 C   0  0  0  0  0  0  0  0  0  0  0  0
  1  2  1  0
  2  3  1  0
  3  4  1  0
  4  5  2  0
  5  6  1  0
  6  7  2  0
  7  8  1  0
  8  9  2  0
  8 10  1  0
 10 11  2  0
 10 12  1  0
 12 13  1  0
 13 14  1  1
 14 15  1  0
 15 16  1  1
 15 17  1  0
 17 18  1  0
 18 19  1  0
 19 20  1  0
 20 21  1  0
 21 22  1  0
 22 23  1  0
 23 24  1  0
 13 25  1  0
 25 26  1  6
 25 27  1  0
 27 28  1  0
 28 29  1  0
 29 30  1  0
 30 31  1  0
 31 32  2  0
 32 33  1  0
 33 34  2  0
 34 35  1  0
 35 36  2  0
  9  4  1  0
 24  6  1  0
 36 31  1  0
M  END
$$$$
