
     RDKit          3D

 36 38  0  0  0  0  0  0  0  0999 V2000
  -18.5765  -44.0870   -0.6564 C   0  0  0  0  0  0  0  0  0  0  0  0
  -18.5856  -43.5805   -1.9431 O   0  0  0  0  0  0  0  0  0  0  0  0
  -19.6943  -42.8211   -2.2229 C   0  0  0  0  0  0  0  0  0  0  0  0
  -19.7783  -42.5955   -3.6926 C   0  0  0  0  0  0  0  0  0  0  0  0
  -20.8435  -43.0104   -4.4400 C   0  0  0  0  0  0  0  0  0  0  0  0
  -20.9519  -42.8107   -5.8433 C   0  0  0  0  0  0  0  0  0  0  0  0
  -19.9278  -42.1636   -6.4952 C   0  0  0  0  0  0  0  0  0  0  0  0
  -18.8243  -41.7187   -5.7977 C   0  0  0  0  0  0  0  0  0  0  0  0
  -18.7980  -41.9612   -4.3920 C   0  0  0  0  0  0  0  0  0  0  0  0
  -17.6103  -41.0141   -6.2176 C   0  0  0  0  0  0  0  0  0  0  0  0
  -16.4695  -41.3977   -5.6633 O   0  0  0  0  0  0  0  0  0  0  0  0
  -17.3259  -39.9642   -7.1138 N   0  0  0  0  0  0  0  0  0  0  0  0
  -18.0888  -39.6285   -8.3315 C   0  0  1  0  0  0  0  0  0  0  0  0
  -18.9432  -38.4569   -7.9876 C   0  0  0  0  0  0  0  0  0  0  0  0
  -19.7042  -37.7979   -9.0618 C   0  0  2  0  0  0  0  0  0  0  0  0
  -20.3869  -36.5784   -8.4027 C   0  0  0  0  0  0  0  0  0  0  0  0
  -20.7985  -38.5967   -9.6874 C   0  0  0  0  0  0  0  0  0  0  0  0
  -21.6363  -39.4031   -8.7889 C   0  0  0  0  0  0  0  0  0  0  0  0
  -22.8641  -38.6971   -8.2589 C   0  0  0  0  0  0  0  0  0  0  0  0
  -23.8853  -39.7875   -7.9286 C   0  0  0  0  0  0  0  0  0  0  0  0
  -23.5731  -40.4481   -6.6156 C   0  0  0  0  0  0  0  0  0  0  0  0
  -24.1117  -41.8563   -6.5340 C   0  0  0  0  0  0  0  0  0  0  0  0
  -23.1861  -42.8526   -7.2087 C   0  0  0  0  0  0  0  0  0  0  0  0
  -22.1859  -43.3682   -6.2926 N   0  0  0  0  0  0  0  0  0  0  0  0
  -17.0632  -39.2514   -9.4180 C   0  0  2  0  0  0  0  0  0  0  0  0
  -17.5010  -39.4690  -10.6862 O   0  0  0  0  0  0  0  0  0  0  0  0
  -15.8314  -40.0765   -9.1477 C   0  0  0  0  0  0  0  0  0  0  0  0
  -14.5902  -39.4016   -9.2046 N   0  0  0  0  0  0  0  0  0  0  0  0
  -13.7061  -39.5489   -8.0999 C   0  0  0  0  0  0  0  0  0  0  0  0
  -12.4790  -40.3410   -8.5617 C   0  0  0  0  0  0  0  0  0  0  0  0
  -12.2801  -40.0544   -9.9901 C   0  0  0  0  0  0  0  0  0  0  0  0
  -12.7672  -40.9268  -10.9306 C   0  0  0  0  0  0  0  0  0  0  0  0
  -12.5702  -40.6458  -12.2822 C   0  0  0  0  0  0  0  0  0  0  0  0
  -11.9162  -39.5432  -12.6754 N   0  0  0  0  0  0  0  0  0  0  0  0
  -11.4334  -38.6793  -11.7670 C   0  0  0  0  0  0  0  0  0  0  0  0
  -11.6166  -38.9364  -10.4067 C   0  0  0  0  0  0  0  0  0  0  0  0
  1  2  1  0
  2  3  1  0
  3  4  1  0
  4  5  2  0
  5  6  1  0
  6  7  2  0
  7  8  1  0
  8  9  2  0
  8 10  1  0
 10 11  2  0
 10 12  1  0
 12 13  1  0
 13 14  1  1
 14 15  1  0
 15 16  1  1
 15 17  1  0
 17 18  1  0
 18 19  1  0
 19 20  1  0
 20 21  1  0
 21 22  1  0
 22 23  1  0
 23 24  1  0
 13 25  1  0
 25 26  1  6
 25 27  1  0
 27 28  1  0
 28 29  1  0
 29 30  1  0
 30 31  1  0
 31 32  2  0
 32 33  1  0
 33 34  2  0
 34 35  1  0
 35 36  2  0
  9  4  1  0
 24  6  1  0
 36 31  1  0
M  END
$$$$
