
     RDKit          3D

 36 38  0  0  0  0  0  0  0  0999 V2000
  -20.1602  -48.0545   -6.2374 C   0  0  0  0  0  0  0  0  0  0  0  0
  -19.8970  -46.8245   -5.6630 O   0  0  0  0  0  0  0  0  0  0  0  0
  -20.9815  -45.9830   -5.6542 C   0  0  0  0  0  0  0  0  0  0  0  0
  -20.7811  -44.9112   -6.6687 C   0  0  0  0  0  0  0  0  0  0  0  0
  -21.6609  -44.6926   -7.6902 C   0  0  0  0  0  0  0  0  0  0  0  0
  -21.4966  -43.6790   -8.6734 C   0  0  0  0  0  0  0  0  0  0  0  0
  -20.3885  -42.8669   -8.6000 C   0  0  0  0  0  0  0  0  0  0  0  0
  -19.4625  -43.0352   -7.5919 C   0  0  0  0  0  0  0  0  0  0  0  0
  -19.7061  -44.0766   -6.6477 C   0  0  0  0  0  0  0  0  0  0  0  0
  -18.2167  -42.3346   -7.2700 C   0  0  0  0  0  0  0  0  0  0  0  0
  -17.1947  -43.0771   -6.8698 O   0  0  0  0  0  0  0  0  0  0  0  0
  -17.7999  -40.9883   -7.2736 N   0  0  0  0  0  0  0  0  0  0  0  0
  -18.3184  -39.9188   -8.1481 C   0  0  1  0  0  0  0  0  0  0  0  0
  -19.2673  -39.1187   -7.3232 C   0  0  0  0  0  0  0  0  0  0  0  0
  -19.8245  -37.8795   -7.8898 C   0  0  2  0  0  0  0  0  0  0  0  0
  -20.6694  -37.2470   -6.7612 C   0  0  0  0  0  0  0  0  0  0  0  0
  -20.7426  -38.0359   -9.0558 C   0  0  0  0  0  0  0  0  0  0  0  0
  -21.7109  -39.1399   -9.0019 C   0  0  0  0  0  0  0  0  0  0  0  0
  -23.0449  -38.7870   -8.3833 C   0  0  0  0  0  0  0  0  0  0  0  0
  -24.0698  -39.7572   -8.9743 C   0  0  0  0  0  0  0  0  0  0  0  0
  -23.9993  -41.1005   -8.3047 C   0  0  0  0  0  0  0  0  0  0  0  0
  -24.4904  -42.2170   -9.1947 C   0  0  0  0  0  0  0  0  0  0  0  0
  -23.4128  -42.6853  -10.1560 C   0  0  0  0  0  0  0  0  0  0  0  0
  -22.5953  -43.7375   -9.5815 N   0  0  0  0  0  0  0  0  0  0  0  0
  -17.1128  -39.0591   -8.5747 C   0  0  2  0  0  0  0  0  0  0  0  0
  -17.4358  -38.0340   -9.4066 O   0  0  0  0  0  0  0  0  0  0  0  0
  -16.1429  -39.9908   -9.2549 C   0  0  0  0  0  0  0  0  0  0  0  0
  -14.8627  -40.1137   -8.6674 N   0  0  0  0  0  0  0  0  0  0  0  0
  -14.4811  -41.3926   -8.1749 C   0  0  0  0  0  0  0  0  0  0  0  0
  -13.1343  -41.2552   -7.4582 C   0  0  0  0  0  0  0  0  0  0  0  0
  -13.2674  -41.8950   -6.1409 C   0  0  0  0  0  0  0  0  0  0  0  0
  -14.0925  -41.3373   -5.1970 C   0  0  0  0  0  0  0  0  0  0  0  0
  -14.2088  -41.9516   -3.9505 C   0  0  0  0  0  0  0  0  0  0  0  0
  -13.5313  -43.0720   -3.6611 N   0  0  0  0  0  0  0  0  0  0  0  0
  -12.7195  -43.6301   -4.5744 C   0  0  0  0  0  0  0  0  0  0  0  0
  -12.5846  -43.0357   -5.8308 C   0  0  0  0  0  0  0  0  0  0  0  0
  1  2  1  0
  2  3  1  0
  3  4  1  0
  4  5  2  0
  5  6  1  0
  6  7  2  0
  7  8  1  0
  8  9  2  0
  8 10  1  0
 10 11  2  0
 10 12  1  0
 12 13  1  0
 13 14  1  1
 14 15  1  0
 15 16  1  1
 15 17  1  0
 17 18  1  0
 18 19  1  0
 19 20  1  0
 20 21  1  0
 21 22  1  0
 22 23  1  0
 23 24  1  0
 13 25  1  0
 25 26  1  6
 25 27  1  0
 27 28  1  0
 28 29  1  0
 29 30  1  0
 30 31  1  0
 31 32  2  0
 32 33  1  0
 33 34  2  0
 34 35  1  0
 35 36  2  0
  9  4  1  0
 24  6  1  0
 36 31  1  0
M  END
$$$$
