
     RDKit          3D

 36 38  0  0  0  0  0  0  0  0999 V2000
  -18.4450  -46.2676  -10.7657 C   0  0  0  0  0  0  0  0  0  0  0  0
  -18.0031  -45.6654  -11.9294 O   0  0  0  0  0  0  0  0  0  0  0  0
  -18.4530  -44.3776  -12.0824 C   0  0  0  0  0  0  0  0  0  0  0  0
  -17.4486  -43.4348  -11.5162 C   0  0  0  0  0  0  0  0  0  0  0  0
  -16.2184  -43.2468  -12.0789 C   0  0  0  0  0  0  0  0  0  0  0  0
  -15.2390  -42.3556  -11.5617 C   0  0  0  0  0  0  0  0  0  0  0  0
  -15.5391  -41.6371  -10.4275 C   0  0  0  0  0  0  0  0  0  0  0  0
  -16.7648  -41.7805   -9.8116 C   0  0  0  0  0  0  0  0  0  0  0  0
  -17.6879  -42.6965  -10.3981 C   0  0  0  0  0  0  0  0  0  0  0  0
  -17.3485  -41.1591   -8.6201 C   0  0  0  0  0  0  0  0  0  0  0  0
  -18.0581  -41.9412   -7.8197 O   0  0  0  0  0  0  0  0  0  0  0  0
  -17.3526  -39.8602   -8.0730 N   0  0  0  0  0  0  0  0  0  0  0  0
  -16.2942  -38.8446   -8.2337 C   0  0  1  0  0  0  0  0  0  0  0  0
  -16.7779  -37.8876   -9.2688 C   0  0  0  0  0  0  0  0  0  0  0  0
  -15.9927  -36.6693   -9.5264 C   0  0  2  0  0  0  0  0  0  0  0  0
  -16.8085  -35.8565  -10.5567 C   0  0  0  0  0  0  0  0  0  0  0  0
  -14.6418  -36.8646  -10.1297 C   0  0  0  0  0  0  0  0  0  0  0  0
  -14.5230  -37.8713  -11.1935 C   0  0  0  0  0  0  0  0  0  0  0  0
  -14.7409  -37.3457  -12.5946 C   0  0  0  0  0  0  0  0  0  0  0  0
  -13.9767  -38.2803  -13.5345 C   0  0  0  0  0  0  0  0  0  0  0  0
  -14.7411  -39.5501  -13.7820 C   0  0  0  0  0  0  0  0  0  0  0  0
  -13.8406  -40.7053  -14.1488 C   0  0  0  0  0  0  0  0  0  0  0  0
  -13.2343  -41.3582  -12.9196 C   0  0  0  0  0  0  0  0  0  0  0  0
  -14.0814  -42.4123  -12.3935 N   0  0  0  0  0  0  0  0  0  0  0  0
  -16.1354  -38.1379   -6.8737 C   0  0  2  0  0  0  0  0  0  0  0  0
  -14.8784  -38.2083   -6.3613 O   0  0  0  0  0  0  0  0  0  0  0  0
  -17.1140  -38.7943   -5.9341 C   0  0  0  0  0  0  0  0  0  0  0  0
  -18.4798  -38.7312   -6.2946 N   0  0  0  0  0  0  0  0  0  0  0  0
  -19.4417  -39.0737   -5.3040 C   0  0  0  0  0  0  0  0  0  0  0  0
  -19.8175  -40.5481   -5.4808 C   0  0  0  0  0  0  0  0  0  0  0  0
  -21.2380  -40.6000   -5.8569 C   0  0  0  0  0  0  0  0  0  0  0  0
  -21.9400  -39.4318   -6.0165 C   0  0  0  0  0  0  0  0  0  0  0  0
  -23.2873  -39.4937   -6.3710 C   0  0  0  0  0  0  0  0  0  0  0  0
  -23.9044  -40.6695   -6.5573 N   0  0  0  0  0  0  0  0  0  0  0  0
  -23.2310  -41.8219   -6.4049 C   0  0  0  0  0  0  0  0  0  0  0  0
  -21.8807  -41.7888   -6.0504 C   0  0  0  0  0  0  0  0  0  0  0  0
  1  2  1  0
  2  3  1  0
  3  4  1  0
  4  5  2  0
  5  6  1  0
  6  7  2  0
  7  8  1  0
  8  9  2  0
  8 10  1  0
 10 11  2  0
 10 12  1  0
 12 13  1  0
 13 14  1  6
 14 15  1  0
 15 16  1  6
 15 17  1  0
 17 18  1  0
 18 19  1  0
 19 20  1  0
 20 21  1  0
 21 22  1  0
 22 23  1  0
 23 24  1  0
 13 25  1  0
 25 26  1  1
 25 27  1  0
 27 28  1  0
 28 29  1  0
 29 30  1  0
 30 31  1  0
 31 32  2  0
 32 33  1  0
 33 34  2  0
 34 35  1  0
 35 36  2  0
  9  4  1  0
 24  6  1  0
 36 31  1  0
M  END
$$$$
