
     RDKit          3D

 36 38  0  0  0  0  0  0  0  0999 V2000
  -12.9223  -34.6696  -12.5005 C   0  0  0  0  0  0  0  0  0  0  0  0
  -14.2101  -34.1661  -12.5151 O   0  0  0  0  0  0  0  0  0  0  0  0
  -15.1481  -35.0786  -12.9297 C   0  0  0  0  0  0  0  0  0  0  0  0
  -15.6872  -35.8030  -11.7454 C   0  0  0  0  0  0  0  0  0  0  0  0
  -16.5184  -35.2111  -10.8377 C   0  0  0  0  0  0  0  0  0  0  0  0
  -17.0480  -35.8755   -9.6979 C   0  0  0  0  0  0  0  0  0  0  0  0
  -16.7074  -37.1919   -9.4885 C   0  0  0  0  0  0  0  0  0  0  0  0
  -15.8724  -37.8478  -10.3688 C   0  0  0  0  0  0  0  0  0  0  0  0
  -15.3870  -37.1050  -11.4859 C   0  0  0  0  0  0  0  0  0  0  0  0
  -15.3514  -39.2167  -10.3998 C   0  0  0  0  0  0  0  0  0  0  0  0
  -14.0855  -39.3709  -10.7597 O   0  0  0  0  0  0  0  0  0  0  0  0
  -15.8849  -40.4933  -10.1316 N   0  0  0  0  0  0  0  0  0  0  0  0
  -16.9759  -40.7999   -9.1864 C   0  0  1  0  0  0  0  0  0  0  0  0
  -18.2063  -40.9894  -10.0056 C   0  0  0  0  0  0  0  0  0  0  0  0
  -19.4311  -41.4646   -9.3411 C   0  0  2  0  0  0  0  0  0  0  0  0
  -20.4709  -41.6550  -10.4681 C   0  0  0  0  0  0  0  0  0  0  0  0
  -20.0555  -40.5349   -8.3549 C   0  0  0  0  0  0  0  0  0  0  0  0
  -20.1012  -39.1106   -8.7136 C   0  0  0  0  0  0  0  0  0  0  0  0
  -21.3477  -38.6803   -9.4539 C   0  0  0  0  0  0  0  0  0  0  0  0
  -21.5303  -37.1881   -9.1694 C   0  0  0  0  0  0  0  0  0  0  0  0
  -20.6139  -36.3542  -10.0196 C   0  0  0  0  0  0  0  0  0  0  0  0
  -20.2952  -35.0196   -9.3894 C   0  0  0  0  0  0  0  0  0  0  0  0
  -19.1778  -35.1324   -8.3679 C   0  0  0  0  0  0  0  0  0  0  0  0
  -17.8709  -34.9618   -8.9746 N   0  0  0  0  0  0  0  0  0  0  0  0
  -16.5964  -42.1086   -8.4669 C   0  0  2  0  0  0  0  0  0  0  0  0
  -16.1519  -41.9275   -7.1953 O   0  0  0  0  0  0  0  0  0  0  0  0
  -15.5239  -42.7598   -9.3016 C   0  0  0  0  0  0  0  0  0  0  0  0
  -15.3355  -44.1495   -9.1215 N   0  0  0  0  0  0  0  0  0  0  0  0
  -15.1854  -44.9529  -10.2858 C   0  0  0  0  0  0  0  0  0  0  0  0
  -14.8951  -46.3921   -9.8490 C   0  0  0  0  0  0  0  0  0  0  0  0
  -15.8202  -47.2708  -10.5798 C   0  0  0  0  0  0  0  0  0  0  0  0
  -17.1630  -46.9883  -10.5834 C   0  0  0  0  0  0  0  0  0  0  0  0
  -18.0309  -47.8302  -11.2779 C   0  0  0  0  0  0  0  0  0  0  0  0
  -17.5772  -48.9054  -11.9384 N   0  0  0  0  0  0  0  0  0  0  0  0
  -16.2656  -49.1955  -11.9444 C   0  0  0  0  0  0  0  0  0  0  0  0
  -15.3742  -48.3691  -11.2571 C   0  0  0  0  0  0  0  0  0  0  0  0
  1  2  1  0
  2  3  1  0
  3  4  1  0
  4  5  2  0
  5  6  1  0
  6  7  2  0
  7  8  1  0
  8  9  2  0
  8 10  1  0
 10 11  2  0
 10 12  1  0
 12 13  1  0
 13 14  1  6
 14 15  1  0
 15 16  1  6
 15 17  1  0
 17 18  1  0
 18 19  1  0
 19 20  1  0
 20 21  1  0
 21 22  1  0
 22 23  1  0
 23 24  1  0
 13 25  1  0
 25 26  1  1
 25 27  1  0
 27 28  1  0
 28 29  1  0
 29 30  1  0
 30 31  1  0
 31 32  2  0
 32 33  1  0
 33 34  2  0
 34 35  1  0
 35 36  2  0
  9  4  1  0
 24  6  1  0
 36 31  1  0
M  END
$$$$
