
     RDKit          3D

 36 38  0  0  0  0  0  0  0  0999 V2000
  -20.5875  -44.2615   -1.6458 C   0  0  0  0  0  0  0  0  0  0  0  0
  -20.9378  -43.3139   -2.5900 O   0  0  0  0  0  0  0  0  0  0  0  0
  -21.6209  -43.8363   -3.6600 C   0  0  0  0  0  0  0  0  0  0  0  0
  -21.1685  -43.1629   -4.9090 C   0  0  0  0  0  0  0  0  0  0  0  0
  -22.0106  -42.9110   -5.9543 C   0  0  0  0  0  0  0  0  0  0  0  0
  -21.6085  -42.2714   -7.1586 C   0  0  0  0  0  0  0  0  0  0  0  0
  -20.2957  -41.8811   -7.2877 C   0  0  0  0  0  0  0  0  0  0  0  0
  -19.3948  -42.1057   -6.2678 C   0  0  0  0  0  0  0  0  0  0  0  0
  -19.8839  -42.7534   -5.0945 C   0  0  0  0  0  0  0  0  0  0  0  0
  -17.9678  -41.8046   -6.1283 C   0  0  0  0  0  0  0  0  0  0  0  0
  -17.2110  -42.7284   -5.5541 O   0  0  0  0  0  0  0  0  0  0  0  0
  -17.1407  -40.7146   -6.4662 N   0  0  0  0  0  0  0  0  0  0  0  0
  -17.3557  -39.7712   -7.5803 C   0  0  1  0  0  0  0  0  0  0  0  0
  -17.9255  -38.5308   -6.9822 C   0  0  0  0  0  0  0  0  0  0  0  0
  -18.0972  -37.3471   -7.8405 C   0  0  2  0  0  0  0  0  0  0  0  0
  -18.5982  -36.2228   -6.9064 C   0  0  0  0  0  0  0  0  0  0  0  0
  -19.1081  -37.4590   -8.9325 C   0  0  0  0  0  0  0  0  0  0  0  0
  -20.3731  -38.1323   -8.6071 C   0  0  0  0  0  0  0  0  0  0  0  0
  -21.4670  -37.2206   -8.0982 C   0  0  0  0  0  0  0  0  0  0  0  0
  -22.7944  -37.9048   -8.4310 C   0  0  0  0  0  0  0  0  0  0  0  0
  -23.1070  -38.9974   -7.4478 C   0  0  0  0  0  0  0  0  0  0  0  0
  -24.0025  -40.0631   -8.0327 C   0  0  0  0  0  0  0  0  0  0  0  0
  -23.2155  -41.0755   -8.8453 C   0  0  0  0  0  0  0  0  0  0  0  0
  -22.7373  -42.1730   -8.0255 N   0  0  0  0  0  0  0  0  0  0  0  0
  -15.9760  -39.4877   -8.2054 C   0  0  2  0  0  0  0  0  0  0  0  0
  -15.9671  -38.4319   -9.0613 O   0  0  0  0  0  0  0  0  0  0  0  0
  -15.5690  -40.7445   -8.9306 C   0  0  0  0  0  0  0  0  0  0  0  0
  -15.8893  -41.9709   -8.3041 N   0  0  0  0  0  0  0  0  0  0  0  0
  -16.0597  -43.1132   -9.1347 C   0  0  0  0  0  0  0  0  0  0  0  0
  -16.3867  -44.3165   -8.2451 C   0  0  0  0  0  0  0  0  0  0  0  0
  -17.6019  -44.9461   -8.7825 C   0  0  0  0  0  0  0  0  0  0  0  0
  -18.2141  -44.4059   -9.8853 C   0  0  0  0  0  0  0  0  0  0  0  0
  -19.3675  -45.0103  -10.3845 C   0  0  0  0  0  0  0  0  0  0  0  0
  -19.8849  -46.1045   -9.8076 N   0  0  0  0  0  0  0  0  0  0  0  0
  -19.2973  -46.6454   -8.7274 C   0  0  0  0  0  0  0  0  0  0  0  0
  -18.1411  -46.0604   -8.2069 C   0  0  0  0  0  0  0  0  0  0  0  0
  1  2  1  0
  2  3  1  0
  3  4  1  0
  4  5  2  0
  5  6  1  0
  6  7  2  0
  7  8  1  0
  8  9  2  0
  8 10  1  0
 10 11  2  0
 10 12  1  0
 12 13  1  0
 13 14  1  1
 14 15  1  0
 15 16  1  1
 15 17  1  0
 17 18  1  0
 18 19  1  0
 19 20  1  0
 20 21  1  0
 21 22  1  0
 22 23  1  0
 23 24  1  0
 13 25  1  0
 25 26  1  6
 25 27  1  0
 27 28  1  0
 28 29  1  0
 29 30  1  0
 30 31  1  0
 31 32  2  0
 32 33  1  0
 33 34  2  0
 34 35  1  0
 35 36  2  0
  9  4  1  0
 24  6  1  0
 36 31  1  0
M  END
$$$$
