
     RDKit          3D

 36 38  0  0  0  0  0  0  0  0999 V2000
  -18.3911  -48.0632   -6.3503 C   0  0  0  0  0  0  0  0  0  0  0  0
  -17.9084  -47.1403   -7.2599 O   0  0  0  0  0  0  0  0  0  0  0  0
  -18.6738  -47.0412   -8.3951 C   0  0  0  0  0  0  0  0  0  0  0  0
  -19.0822  -45.6224   -8.5911 C   0  0  0  0  0  0  0  0  0  0  0  0
  -20.3670  -45.2610   -8.8810 C   0  0  0  0  0  0  0  0  0  0  0  0
  -20.7869  -43.9167   -9.0743 C   0  0  0  0  0  0  0  0  0  0  0  0
  -19.8505  -42.9146   -8.9662 C   0  0  0  0  0  0  0  0  0  0  0  0
  -18.5360  -43.2131   -8.6744 C   0  0  0  0  0  0  0  0  0  0  0  0
  -18.2021  -44.5886   -8.4959 C   0  0  0  0  0  0  0  0  0  0  0  0
  -17.3488  -42.3723   -8.5009 C   0  0  0  0  0  0  0  0  0  0  0  0
  -16.2136  -42.8196   -9.0179 O   0  0  0  0  0  0  0  0  0  0  0  0
  -17.0859  -41.1328   -7.8837 N   0  0  0  0  0  0  0  0  0  0  0  0
  -18.0456  -40.0252   -7.7114 C   0  0  1  0  0  0  0  0  0  0  0  0
  -18.5111  -40.0833   -6.2968 C   0  0  0  0  0  0  0  0  0  0  0  0
  -19.3628  -38.9956   -5.7882 C   0  0  2  0  0  0  0  0  0  0  0  0
  -19.5752  -39.2979   -4.2878 C   0  0  0  0  0  0  0  0  0  0  0  0
  -20.7261  -38.8846   -6.3849 C   0  0  0  0  0  0  0  0  0  0  0  0
  -21.4577  -40.1371   -6.6204 C   0  0  0  0  0  0  0  0  0  0  0  0
  -22.3270  -40.5926   -5.4699 C   0  0  0  0  0  0  0  0  0  0  0  0
  -23.4384  -41.4514   -6.0768 C   0  0  0  0  0  0  0  0  0  0  0  0
  -22.9485  -42.8372   -6.3890 C   0  0  0  0  0  0  0  0  0  0  0  0
  -23.7372  -43.4937   -7.4966 C   0  0  0  0  0  0  0  0  0  0  0  0
  -23.2520  -43.0576   -8.8674 C   0  0  0  0  0  0  0  0  0  0  0  0
  -22.1847  -43.9085   -9.3595 N   0  0  0  0  0  0  0  0  0  0  0  0
  -17.2775  -38.7159   -7.9761 C   0  0  2  0  0  0  0  0  0  0  0  0
  -18.0766  -37.6214   -8.0799 O   0  0  0  0  0  0  0  0  0  0  0  0
  -16.5128  -38.9209   -9.2585 C   0  0  0  0  0  0  0  0  0  0  0  0
  -15.4166  -39.8126   -9.2083 N   0  0  0  0  0  0  0  0  0  0  0  0
  -14.9749  -40.3874  -10.4323 C   0  0  0  0  0  0  0  0  0  0  0  0
  -13.5127  -39.9895  -10.6563 C   0  0  0  0  0  0  0  0  0  0  0  0
  -13.1198  -40.4806  -11.9854 C   0  0  0  0  0  0  0  0  0  0  0  0
  -14.0124  -41.2102  -12.7295 C   0  0  0  0  0  0  0  0  0  0  0  0
  -13.6276  -41.6727  -13.9875 C   0  0  0  0  0  0  0  0  0  0  0  0
  -12.4063  -41.4176  -14.4789 N   0  0  0  0  0  0  0  0  0  0  0  0
  -11.5211  -40.7047  -13.7627 C   0  0  0  0  0  0  0  0  0  0  0  0
  -11.8805  -40.2293  -12.4999 C   0  0  0  0  0  0  0  0  0  0  0  0
  1  2  1  0
  2  3  1  0
  3  4  1  0
  4  5  2  0
  5  6  1  0
  6  7  2  0
  7  8  1  0
  8  9  2  0
  8 10  1  0
 10 11  2  0
 10 12  1  0
 12 13  1  0
 13 14  1  1
 14 15  1  0
 15 16  1  1
 15 17  1  0
 17 18  1  0
 18 19  1  0
 19 20  1  0
 20 21  1  0
 21 22  1  0
 22 23  1  0
 23 24  1  0
 13 25  1  0
 25 26  1  6
 25 27  1  0
 27 28  1  0
 28 29  1  0
 29 30  1  0
 30 31  1  0
 31 32  2  0
 32 33  1  0
 33 34  2  0
 34 35  1  0
 35 36  2  0
  9  4  1  0
 24  6  1  0
 36 31  1  0
M  END
$$$$
