
     RDKit          3D

 36 38  0  0  0  0  0  0  0  0999 V2000
  -20.9570  -44.1410  -12.0269 C   0  0  0  0  0  0  0  0  0  0  0  0
  -20.5995  -44.9269  -10.9468 O   0  0  0  0  0  0  0  0  0  0  0  0
  -19.3608  -45.5038  -11.0779 C   0  0  0  0  0  0  0  0  0  0  0  0
  -18.3162  -44.5262  -10.6641 C   0  0  0  0  0  0  0  0  0  0  0  0
  -17.0442  -44.5558  -11.1607 C   0  0  0  0  0  0  0  0  0  0  0  0
  -16.0260  -43.6378  -10.7848 C   0  0  0  0  0  0  0  0  0  0  0  0
  -16.3304  -42.6598   -9.8664 C   0  0  0  0  0  0  0  0  0  0  0  0
  -17.5972  -42.5751   -9.3276 C   0  0  0  0  0  0  0  0  0  0  0  0
  -18.5576  -43.5368   -9.7612 C   0  0  0  0  0  0  0  0  0  0  0  0
  -18.1952  -41.6590   -8.3531 C   0  0  0  0  0  0  0  0  0  0  0  0
  -19.0120  -42.1870   -7.4531 O   0  0  0  0  0  0  0  0  0  0  0  0
  -18.1234  -40.2721   -8.1131 N   0  0  0  0  0  0  0  0  0  0  0  0
  -16.9771  -39.3942   -8.4178 C   0  0  1  0  0  0  0  0  0  0  0  0
  -17.3195  -38.6697   -9.6743 C   0  0  0  0  0  0  0  0  0  0  0  0
  -16.4227  -37.5988  -10.1391 C   0  0  2  0  0  0  0  0  0  0  0  0
  -17.1078  -36.9908  -11.3836 C   0  0  0  0  0  0  0  0  0  0  0  0
  -15.0601  -38.0178  -10.5803 C   0  0  0  0  0  0  0  0  0  0  0  0
  -14.9639  -39.2474  -11.3792 C   0  0  0  0  0  0  0  0  0  0  0  0
  -15.0565  -39.0437  -12.8748 C   0  0  0  0  0  0  0  0  0  0  0  0
  -14.3193  -40.2183  -13.5211 C   0  0  0  0  0  0  0  0  0  0  0  0
  -15.1706  -41.4565  -13.5341 C   0  0  0  0  0  0  0  0  0  0  0  0
  -14.3490  -42.7230  -13.5639 C   0  0  0  0  0  0  0  0  0  0  0  0
  -13.8707  -43.1159  -12.1777 C   0  0  0  0  0  0  0  0  0  0  0  0
  -14.8310  -43.9617  -11.4936 N   0  0  0  0  0  0  0  0  0  0  0  0
  -16.8390  -38.4067   -7.2429 C   0  0  2  0  0  0  0  0  0  0  0  0
  -16.3339  -38.9659   -6.1117 O   0  0  0  0  0  0  0  0  0  0  0  0
  -18.2189  -37.8616   -6.9783 C   0  0  0  0  0  0  0  0  0  0  0  0
  -19.1896  -38.7842   -6.5248 N   0  0  0  0  0  0  0  0  0  0  0  0
  -19.7070  -38.6078   -5.2114 C   0  0  0  0  0  0  0  0  0  0  0  0
  -21.2337  -38.7160   -5.2719 C   0  0  0  0  0  0  0  0  0  0  0  0
  -21.5774  -40.1451   -5.2321 C   0  0  0  0  0  0  0  0  0  0  0  0
  -22.2353  -40.7137   -6.2936 C   0  0  0  0  0  0  0  0  0  0  0  0
  -22.5581  -42.0694   -6.2434 C   0  0  0  0  0  0  0  0  0  0  0  0
  -22.2379  -42.8220   -5.1808 N   0  0  0  0  0  0  0  0  0  0  0  0
  -21.5938  -42.2802   -4.1338 C   0  0  0  0  0  0  0  0  0  0  0  0
  -21.2584  -40.9249   -4.1579 C   0  0  0  0  0  0  0  0  0  0  0  0
  1  2  1  0
  2  3  1  0
  3  4  1  0
  4  5  2  0
  5  6  1  0
  6  7  2  0
  7  8  1  0
  8  9  2  0
  8 10  1  0
 10 11  2  0
 10 12  1  0
 12 13  1  0
 13 14  1  6
 14 15  1  0
 15 16  1  6
 15 17  1  0
 17 18  1  0
 18 19  1  0
 19 20  1  0
 20 21  1  0
 21 22  1  0
 22 23  1  0
 23 24  1  0
 13 25  1  0
 25 26  1  1
 25 27  1  0
 27 28  1  0
 28 29  1  0
 29 30  1  0
 30 31  1  0
 31 32  2  0
 32 33  1  0
 33 34  2  0
 34 35  1  0
 35 36  2  0
  9  4  1  0
 24  6  1  0
 36 31  1  0
M  END
$$$$
