
     RDKit          3D

 36 38  0  0  0  0  0  0  0  0999 V2000
  -21.7832  -46.0978  -10.0192 C   0  0  0  0  0  0  0  0  0  0  0  0
  -21.1132  -45.2267  -10.8585 O   0  0  0  0  0  0  0  0  0  0  0  0
  -19.8573  -45.6596  -11.2044 C   0  0  0  0  0  0  0  0  0  0  0  0
  -18.8458  -44.9512  -10.3719 C   0  0  0  0  0  0  0  0  0  0  0  0
  -17.9349  -45.6142   -9.5999 C   0  0  0  0  0  0  0  0  0  0  0  0
  -16.9587  -44.9665   -8.7946 C   0  0  0  0  0  0  0  0  0  0  0  0
  -16.9230  -43.5913   -8.7854 C   0  0  0  0  0  0  0  0  0  0  0  0
  -17.8150  -42.8625   -9.5439 C   0  0  0  0  0  0  0  0  0  0  0  0
  -18.7608  -43.5936  -10.3226 C   0  0  0  0  0  0  0  0  0  0  0  0
  -18.0066  -41.4217   -9.7276 C   0  0  0  0  0  0  0  0  0  0  0  0
  -19.2557  -40.9826   -9.7812 O   0  0  0  0  0  0  0  0  0  0  0  0
  -17.1499  -40.3123   -9.8745 N   0  0  0  0  0  0  0  0  0  0  0  0
  -15.7885  -40.1842   -9.3198 C   0  0  1  0  0  0  0  0  0  0  0  0
  -14.8458  -40.4493  -10.4433 C   0  0  0  0  0  0  0  0  0  0  0  0
  -13.4061  -40.2355  -10.2227 C   0  0  2  0  0  0  0  0  0  0  0  0
  -12.7315  -40.4908  -11.5893 C   0  0  0  0  0  0  0  0  0  0  0  0
  -12.7386  -41.1536   -9.2540 C   0  0  0  0  0  0  0  0  0  0  0  0
  -13.1164  -42.5727   -9.3076 C   0  0  0  0  0  0  0  0  0  0  0  0
  -12.2722  -43.4218  -10.2312 C   0  0  0  0  0  0  0  0  0  0  0  0
  -12.3472  -44.8536   -9.6971 C   0  0  0  0  0  0  0  0  0  0  0  0
  -13.6345  -45.5182  -10.0961 C   0  0  0  0  0  0  0  0  0  0  0  0
  -14.0383  -46.6166   -9.1419 C   0  0  0  0  0  0  0  0  0  0  0  0
  -14.7492  -46.0660   -7.9188 C   0  0  0  0  0  0  0  0  0  0  0  0
  -16.1812  -45.9594   -8.1276 N   0  0  0  0  0  0  0  0  0  0  0  0
  -15.6394  -38.7352   -8.8172 C   0  0  2  0  0  0  0  0  0  0  0  0
  -14.5831  -38.5492   -7.9824 O   0  0  0  0  0  0  0  0  0  0  0  0
  -16.9249  -38.3945   -8.1082 C   0  0  0  0  0  0  0  0  0  0  0  0
  -17.8666  -37.6293   -8.8340 N   0  0  0  0  0  0  0  0  0  0  0  0
  -19.2154  -38.0812   -8.8488 C   0  0  0  0  0  0  0  0  0  0  0  0
  -20.1026  -36.9458   -9.3685 C   0  0  0  0  0  0  0  0  0  0  0  0
  -20.9569  -37.5022  -10.4281 C   0  0  0  0  0  0  0  0  0  0  0  0
  -20.5813  -37.3696  -11.7412 C   0  0  0  0  0  0  0  0  0  0  0  0
  -21.4008  -37.8992  -12.7374 C   0  0  0  0  0  0  0  0  0  0  0  0
  -22.5435  -38.5322  -12.4348 N   0  0  0  0  0  0  0  0  0  0  0  0
  -22.9251  -38.6702  -11.1541 C   0  0  0  0  0  0  0  0  0  0  0  0
  -22.1230  -38.1495  -10.1365 C   0  0  0  0  0  0  0  0  0  0  0  0
  1  2  1  0
  2  3  1  0
  3  4  1  0
  4  5  2  0
  5  6  1  0
  6  7  2  0
  7  8  1  0
  8  9  2  0
  8 10  1  0
 10 11  2  0
 10 12  1  0
 12 13  1  0
 13 14  1  6
 14 15  1  0
 15 16  1  6
 15 17  1  0
 17 18  1  0
 18 19  1  0
 19 20  1  0
 20 21  1  0
 21 22  1  0
 22 23  1  0
 23 24  1  0
 13 25  1  0
 25 26  1  1
 25 27  1  0
 27 28  1  0
 28 29  1  0
 29 30  1  0
 30 31  1  0
 31 32  2  0
 32 33  1  0
 33 34  2  0
 34 35  1  0
 35 36  2  0
  9  4  1  0
 24  6  1  0
 36 31  1  0
M  END
$$$$
