
     RDKit          3D

 36 38  0  0  0  0  0  0  0  0999 V2000
  -19.8542  -46.3396   -6.6118 C   0  0  0  0  0  0  0  0  0  0  0  0
  -20.6881  -46.5305   -7.6981 O   0  0  0  0  0  0  0  0  0  0  0  0
  -20.0839  -46.2686   -8.9026 C   0  0  0  0  0  0  0  0  0  0  0  0
  -20.0453  -44.7963   -9.1241 C   0  0  0  0  0  0  0  0  0  0  0  0
  -21.1256  -44.0926   -9.5748 C   0  0  0  0  0  0  0  0  0  0  0  0
  -21.1194  -42.6884   -9.7966 C   0  0  0  0  0  0  0  0  0  0  0  0
  -19.9611  -41.9896   -9.5464 C   0  0  0  0  0  0  0  0  0  0  0  0
  -18.8351  -42.6413   -9.0887 C   0  0  0  0  0  0  0  0  0  0  0  0
  -18.9299  -44.0513   -8.8935 C   0  0  0  0  0  0  0  0  0  0  0  0
  -17.4927  -42.1666   -8.7435 C   0  0  0  0  0  0  0  0  0  0  0  0
  -16.4719  -42.9262   -9.1137 O   0  0  0  0  0  0  0  0  0  0  0  0
  -16.9747  -41.0400   -8.0735 N   0  0  0  0  0  0  0  0  0  0  0  0
  -17.5966  -39.7034   -8.0090 C   0  0  1  0  0  0  0  0  0  0  0  0
  -18.2427  -39.6002   -6.6700 C   0  0  0  0  0  0  0  0  0  0  0  0
  -18.8122  -38.3065   -6.2583 C   0  0  2  0  0  0  0  0  0  0  0  0
  -19.2981  -38.5074   -4.8052 C   0  0  0  0  0  0  0  0  0  0  0  0
  -19.9971  -37.8268   -7.0282 C   0  0  0  0  0  0  0  0  0  0  0  0
  -21.0146  -38.8262   -7.3822 C   0  0  0  0  0  0  0  0  0  0  0  0
  -22.1216  -38.9952   -6.3660 C   0  0  0  0  0  0  0  0  0  0  0  0
  -23.3396  -39.5170   -7.1310 C   0  0  0  0  0  0  0  0  0  0  0  0
  -23.2241  -40.9905   -7.4017 C   0  0  0  0  0  0  0  0  0  0  0  0
  -24.0121  -41.4191   -8.6163 C   0  0  0  0  0  0  0  0  0  0  0  0
  -23.2464  -41.1645   -9.9021 C   0  0  0  0  0  0  0  0  0  0  0  0
  -22.4074  -42.2915  -10.2644 N   0  0  0  0  0  0  0  0  0  0  0  0
  -16.4620  -38.6696   -8.1448 C   0  0  2  0  0  0  0  0  0  0  0  0
  -16.8148  -37.4134   -7.7642 O   0  0  0  0  0  0  0  0  0  0  0  0
  -16.0510  -38.6742   -9.5947 C   0  0  0  0  0  0  0  0  0  0  0  0
  -15.5445  -39.8908  -10.1071 N   0  0  0  0  0  0  0  0  0  0  0  0
  -14.2196  -39.8897  -10.6253 C   0  0  0  0  0  0  0  0  0  0  0  0
  -13.9468  -41.2546  -11.2647 C   0  0  0  0  0  0  0  0  0  0  0  0
  -12.9983  -41.9677  -10.3965 C   0  0  0  0  0  0  0  0  0  0  0  0
  -11.6505  -41.7626  -10.5525 C   0  0  0  0  0  0  0  0  0  0  0  0
  -10.7606  -42.4464   -9.7249 C   0  0  0  0  0  0  0  0  0  0  0  0
  -11.1980  -43.2962   -8.7844 N   0  0  0  0  0  0  0  0  0  0  0  0
  -12.5143  -43.5077   -8.6191 C   0  0  0  0  0  0  0  0  0  0  0  0
  -13.4275  -42.8359   -9.4343 C   0  0  0  0  0  0  0  0  0  0  0  0
  1  2  1  0
  2  3  1  0
  3  4  1  0
  4  5  2  0
  5  6  1  0
  6  7  2  0
  7  8  1  0
  8  9  2  0
  8 10  1  0
 10 11  2  0
 10 12  1  0
 12 13  1  0
 13 14  1  1
 14 15  1  0
 15 16  1  1
 15 17  1  0
 17 18  1  0
 18 19  1  0
 19 20  1  0
 20 21  1  0
 21 22  1  0
 22 23  1  0
 23 24  1  0
 13 25  1  0
 25 26  1  6
 25 27  1  0
 27 28  1  0
 28 29  1  0
 29 30  1  0
 30 31  1  0
 31 32  2  0
 32 33  1  0
 33 34  2  0
 34 35  1  0
 35 36  2  0
  9  4  1  0
 24  6  1  0
 36 31  1  0
M  END
$$$$
