
     RDKit          3D

 36 38  0  0  0  0  0  0  0  0999 V2000
  -17.4324  -48.1020   -8.3992 C   0  0  0  0  0  0  0  0  0  0  0  0
  -18.5031  -47.4370   -8.9678 O   0  0  0  0  0  0  0  0  0  0  0  0
  -19.3537  -46.8822   -8.0442 C   0  0  0  0  0  0  0  0  0  0  0  0
  -19.6116  -45.4602   -8.4043 C   0  0  0  0  0  0  0  0  0  0  0  0
  -20.8605  -44.9911   -8.6965 C   0  0  0  0  0  0  0  0  0  0  0  0
  -21.1379  -43.6409   -9.0442 C   0  0  0  0  0  0  0  0  0  0  0  0
  -20.0926  -42.7477   -9.0929 C   0  0  0  0  0  0  0  0  0  0  0  0
  -18.8071  -43.1580   -8.8077 C   0  0  0  0  0  0  0  0  0  0  0  0
  -18.6193  -44.5308   -8.4680 C   0  0  0  0  0  0  0  0  0  0  0  0
  -17.5277  -42.4447   -8.7793 C   0  0  0  0  0  0  0  0  0  0  0  0
  -16.4737  -43.0794   -9.2715 O   0  0  0  0  0  0  0  0  0  0  0  0
  -17.1016  -41.1781   -8.3318 N   0  0  0  0  0  0  0  0  0  0  0  0
  -17.9243  -39.9546   -8.2699 C   0  0  1  0  0  0  0  0  0  0  0  0
  -18.3281  -39.7863   -6.8453 C   0  0  0  0  0  0  0  0  0  0  0  0
  -19.0303  -38.5539   -6.4510 C   0  0  2  0  0  0  0  0  0  0  0  0
  -19.2059  -38.6451   -4.9185 C   0  0  0  0  0  0  0  0  0  0  0  0
  -20.3989  -38.3600   -7.0134 C   0  0  0  0  0  0  0  0  0  0  0  0
  -21.2743  -39.5391   -7.0659 C   0  0  0  0  0  0  0  0  0  0  0  0
  -22.1350  -39.7481   -5.8402 C   0  0  0  0  0  0  0  0  0  0  0  0
  -23.3610  -40.5405   -6.2986 C   0  0  0  0  0  0  0  0  0  0  0  0
  -23.0419  -42.0011   -6.4491 C   0  0  0  0  0  0  0  0  0  0  0  0
  -23.9481  -42.6922   -7.4396 C   0  0  0  0  0  0  0  0  0  0  0  0
  -23.4810  -42.4848   -8.8691 C   0  0  0  0  0  0  0  0  0  0  0  0
  -22.5378  -43.5065   -9.2837 N   0  0  0  0  0  0  0  0  0  0  0  0
  -17.0292  -38.7845   -8.7218 C   0  0  2  0  0  0  0  0  0  0  0  0
  -16.9352  -38.6539  -10.0714 O   0  0  0  0  0  0  0  0  0  0  0  0
  -15.6659  -39.0362   -8.1307 C   0  0  0  0  0  0  0  0  0  0  0  0
  -14.5556  -38.8078   -8.9758 N   0  0  0  0  0  0  0  0  0  0  0  0
  -14.2519  -39.7981   -9.9509 C   0  0  0  0  0  0  0  0  0  0  0  0
  -13.7726  -39.0949  -11.2246 C   0  0  0  0  0  0  0  0  0  0  0  0
  -13.5535  -40.1305  -12.2452 C   0  0  0  0  0  0  0  0  0  0  0  0
  -13.1813  -39.7636  -13.5140 C   0  0  0  0  0  0  0  0  0  0  0  0
  -12.9788  -40.7545  -14.4741 C   0  0  0  0  0  0  0  0  0  0  0  0
  -13.1410  -42.0525  -14.1793 N   0  0  0  0  0  0  0  0  0  0  0  0
  -13.5050  -42.4278  -12.9418 C   0  0  0  0  0  0  0  0  0  0  0  0
  -13.7143  -41.4561  -11.9610 C   0  0  0  0  0  0  0  0  0  0  0  0
  1  2  1  0
  2  3  1  0
  3  4  1  0
  4  5  2  0
  5  6  1  0
  6  7  2  0
  7  8  1  0
  8  9  2  0
  8 10  1  0
 10 11  2  0
 10 12  1  0
 12 13  1  0
 13 14  1  1
 14 15  1  0
 15 16  1  1
 15 17  1  0
 17 18  1  0
 18 19  1  0
 19 20  1  0
 20 21  1  0
 21 22  1  0
 22 23  1  0
 23 24  1  0
 13 25  1  0
 25 26  1  6
 25 27  1  0
 27 28  1  0
 28 29  1  0
 29 30  1  0
 30 31  1  0
 31 32  2  0
 32 33  1  0
 33 34  2  0
 34 35  1  0
 35 36  2  0
  9  4  1  0
 24  6  1  0
 36 31  1  0
M  END
$$$$
