
     RDKit          3D

 36 38  0  0  0  0  0  0  0  0999 V2000
  -17.4746  -48.3903   -6.2164 C   0  0  0  0  0  0  0  0  0  0  0  0
  -17.7722  -47.1321   -5.7261 O   0  0  0  0  0  0  0  0  0  0  0  0
  -19.1052  -46.8151   -5.8096 C   0  0  0  0  0  0  0  0  0  0  0  0
  -19.2754  -45.6341   -6.7008 C   0  0  0  0  0  0  0  0  0  0  0  0
  -20.3480  -45.4909   -7.5341 C   0  0  0  0  0  0  0  0  0  0  0  0
  -20.5377  -44.3767   -8.3962 C   0  0  0  0  0  0  0  0  0  0  0  0
  -19.5894  -43.3799   -8.3989 C   0  0  0  0  0  0  0  0  0  0  0  0
  -18.4829  -43.4640   -7.5799 C   0  0  0  0  0  0  0  0  0  0  0  0
  -18.3724  -44.6167   -6.7467 C   0  0  0  0  0  0  0  0  0  0  0  0
  -17.3377  -42.5735   -7.3750 C   0  0  0  0  0  0  0  0  0  0  0  0
  -16.1491  -43.1433   -7.2384 O   0  0  0  0  0  0  0  0  0  0  0  0
  -17.1640  -41.1784   -7.2763 N   0  0  0  0  0  0  0  0  0  0  0  0
  -18.0054  -40.1490   -7.9166 C   0  0  1  0  0  0  0  0  0  0  0  0
  -18.9136  -39.6244   -6.8578 C   0  0  0  0  0  0  0  0  0  0  0  0
  -19.7663  -38.4654   -7.1692 C   0  0  2  0  0  0  0  0  0  0  0  0
  -20.4907  -38.1134   -5.8505 C   0  0  0  0  0  0  0  0  0  0  0  0
  -20.8379  -38.6825   -8.1847 C   0  0  0  0  0  0  0  0  0  0  0  0
  -21.5783  -39.9500   -8.1161 C   0  0  0  0  0  0  0  0  0  0  0  0
  -22.8203  -39.9158   -7.2541 C   0  0  0  0  0  0  0  0  0  0  0  0
  -23.7537  -41.0026   -7.7914 C   0  0  0  0  0  0  0  0  0  0  0  0
  -23.3365  -42.3652   -7.3148 C   0  0  0  0  0  0  0  0  0  0  0  0
  -23.7812  -43.4657   -8.2481 C   0  0  0  0  0  0  0  0  0  0  0  0
  -22.8293  -43.6289   -9.4194 C   0  0  0  0  0  0  0  0  0  0  0  0
  -21.7549  -44.5564   -9.1183 N   0  0  0  0  0  0  0  0  0  0  0  0
  -17.0602  -39.0403   -8.4185 C   0  0  2  0  0  0  0  0  0  0  0  0
  -17.4921  -38.4196   -9.5479 O   0  0  0  0  0  0  0  0  0  0  0  0
  -15.7262  -39.6961   -8.6670 C   0  0  0  0  0  0  0  0  0  0  0  0
  -14.7840  -38.9544   -9.4162 N   0  0  0  0  0  0  0  0  0  0  0  0
  -14.7930  -39.1104  -10.8302 C   0  0  0  0  0  0  0  0  0  0  0  0
  -13.3448  -39.2276  -11.3153 C   0  0  0  0  0  0  0  0  0  0  0  0
  -12.9455  -37.9118  -11.8362 C   0  0  0  0  0  0  0  0  0  0  0  0
  -11.6442  -37.6998  -12.2164 C   0  0  0  0  0  0  0  0  0  0  0  0
  -11.2767  -36.4471  -12.7065 C   0  0  0  0  0  0  0  0  0  0  0  0
  -12.1693  -35.4519  -12.8116 N   0  0  0  0  0  0  0  0  0  0  0  0
  -13.4470  -35.6436  -12.4436 C   0  0  0  0  0  0  0  0  0  0  0  0
  -13.8421  -36.8885  -11.9495 C   0  0  0  0  0  0  0  0  0  0  0  0
  1  2  1  0
  2  3  1  0
  3  4  1  0
  4  5  2  0
  5  6  1  0
  6  7  2  0
  7  8  1  0
  8  9  2  0
  8 10  1  0
 10 11  2  0
 10 12  1  0
 12 13  1  0
 13 14  1  1
 14 15  1  0
 15 16  1  1
 15 17  1  0
 17 18  1  0
 18 19  1  0
 19 20  1  0
 20 21  1  0
 21 22  1  0
 22 23  1  0
 23 24  1  0
 13 25  1  0
 25 26  1  6
 25 27  1  0
 27 28  1  0
 28 29  1  0
 29 30  1  0
 30 31  1  0
 31 32  2  0
 32 33  1  0
 33 34  2  0
 34 35  1  0
 35 36  2  0
  9  4  1  0
 24  6  1  0
 36 31  1  0
M  END
$$$$
