
     RDKit          3D

 36 38  0  0  0  0  0  0  0  0999 V2000
  -15.4768  -47.6243  -10.7506 C   0  0  0  0  0  0  0  0  0  0  0  0
  -16.4588  -46.6614  -10.8944 O   0  0  0  0  0  0  0  0  0  0  0  0
  -16.1862  -45.7472  -11.8815 C   0  0  0  0  0  0  0  0  0  0  0  0
  -15.5649  -44.5376  -11.2743 C   0  0  0  0  0  0  0  0  0  0  0  0
  -14.2832  -44.1535  -11.5486 C   0  0  0  0  0  0  0  0  0  0  0  0
  -13.6627  -43.0056  -10.9845 C   0  0  0  0  0  0  0  0  0  0  0  0
  -14.3879  -42.2311  -10.1088 C   0  0  0  0  0  0  0  0  0  0  0  0
  -15.6880  -42.5642   -9.7908 C   0  0  0  0  0  0  0  0  0  0  0  0
  -16.2319  -43.7324  -10.4029 C   0  0  0  0  0  0  0  0  0  0  0  0
  -16.6790  -41.9395   -8.9109 C   0  0  0  0  0  0  0  0  0  0  0  0
  -17.4259  -42.7496   -8.1748 O   0  0  0  0  0  0  0  0  0  0  0  0
  -17.0696  -40.6147   -8.6305 N   0  0  0  0  0  0  0  0  0  0  0  0
  -16.2113  -39.4174   -8.7162 C   0  0  1  0  0  0  0  0  0  0  0  0
  -16.5588  -38.7368   -9.9956 C   0  0  0  0  0  0  0  0  0  0  0  0
  -15.9688  -37.4177  -10.2769 C   0  0  2  0  0  0  0  0  0  0  0  0
  -16.6049  -36.9501  -11.6052 C   0  0  0  0  0  0  0  0  0  0  0  0
  -14.4922  -37.3819  -10.4902 C   0  0  0  0  0  0  0  0  0  0  0  0
  -13.9049  -38.4663  -11.2893 C   0  0  0  0  0  0  0  0  0  0  0  0
  -13.8225  -38.1904  -12.7738 C   0  0  0  0  0  0  0  0  0  0  0  0
  -12.6728  -39.0442  -13.3126 C   0  0  0  0  0  0  0  0  0  0  0  0
  -13.0953  -40.4742  -13.4982 C   0  0  0  0  0  0  0  0  0  0  0  0
  -11.9339  -41.4357  -13.4173 C   0  0  0  0  0  0  0  0  0  0  0  0
  -11.5793  -41.7699  -11.9795 C   0  0  0  0  0  0  0  0  0  0  0  0
  -12.3312  -42.9092  -11.4876 N   0  0  0  0  0  0  0  0  0  0  0  0
  -16.5630  -38.5219   -7.5125 C   0  0  2  0  0  0  0  0  0  0  0  0
  -16.5413  -39.1720   -6.3191 O   0  0  0  0  0  0  0  0  0  0  0  0
  -17.9412  -37.9725   -7.7769 C   0  0  0  0  0  0  0  0  0  0  0  0
  -18.9701  -38.9174   -7.9950 N   0  0  0  0  0  0  0  0  0  0  0  0
  -19.9976  -39.0143   -7.0159 C   0  0  0  0  0  0  0  0  0  0  0  0
  -21.0521  -40.0071   -7.5147 C   0  0  0  0  0  0  0  0  0  0  0  0
  -21.9575  -40.2914   -6.3915 C   0  0  0  0  0  0  0  0  0  0  0  0
  -22.9314  -39.3837   -6.0595 C   0  0  0  0  0  0  0  0  0  0  0  0
  -23.7826  -39.6632   -4.9908 C   0  0  0  0  0  0  0  0  0  0  0  0
  -23.6653  -40.7982   -4.2864 N   0  0  0  0  0  0  0  0  0  0  0  0
  -22.7170  -41.6969   -4.5990 C   0  0  0  0  0  0  0  0  0  0  0  0
  -21.8513  -41.4422   -5.6647 C   0  0  0  0  0  0  0  0  0  0  0  0
  1  2  1  0
  2  3  1  0
  3  4  1  0
  4  5  2  0
  5  6  1  0
  6  7  2  0
  7  8  1  0
  8  9  2  0
  8 10  1  0
 10 11  2  0
 10 12  1  0
 12 13  1  0
 13 14  1  6
 14 15  1  0
 15 16  1  6
 15 17  1  0
 17 18  1  0
 18 19  1  0
 19 20  1  0
 20 21  1  0
 21 22  1  0
 22 23  1  0
 23 24  1  0
 13 25  1  0
 25 26  1  1
 25 27  1  0
 27 28  1  0
 28 29  1  0
 29 30  1  0
 30 31  1  0
 31 32  2  0
 32 33  1  0
 33 34  2  0
 34 35  1  0
 35 36  2  0
  9  4  1  0
 24  6  1  0
 36 31  1  0
M  END
$$$$
