
     RDKit          3D

 36 38  0  0  0  0  0  0  0  0999 V2000
  -22.5887  -43.7288   -3.0610 C   0  0  0  0  0  0  0  0  0  0  0  0
  -23.1172  -42.9251   -4.0544 O   0  0  0  0  0  0  0  0  0  0  0  0
  -23.2455  -43.5640   -5.2626 C   0  0  0  0  0  0  0  0  0  0  0  0
  -22.4674  -42.8249   -6.2952 C   0  0  0  0  0  0  0  0  0  0  0  0
  -23.0471  -41.9381   -7.1571 C   0  0  0  0  0  0  0  0  0  0  0  0
  -22.3316  -41.2188   -8.1530 C   0  0  0  0  0  0  0  0  0  0  0  0
  -20.9755  -41.4228   -8.2630 C   0  0  0  0  0  0  0  0  0  0  0  0
  -20.3296  -42.3047   -7.4220 C   0  0  0  0  0  0  0  0  0  0  0  0
  -21.1247  -42.9838   -6.4514 C   0  0  0  0  0  0  0  0  0  0  0  0
  -18.9269  -42.7127   -7.3098 C   0  0  0  0  0  0  0  0  0  0  0  0
  -18.6898  -43.9968   -7.0846 O   0  0  0  0  0  0  0  0  0  0  0  0
  -17.6861  -42.0482   -7.3809 N   0  0  0  0  0  0  0  0  0  0  0  0
  -17.3958  -40.8270   -8.1567 C   0  0  1  0  0  0  0  0  0  0  0  0
  -17.3986  -39.6965   -7.1855 C   0  0  0  0  0  0  0  0  0  0  0  0
  -16.9797  -38.3642   -7.6511 C   0  0  2  0  0  0  0  0  0  0  0  0
  -16.9925  -37.4605   -6.3978 C   0  0  0  0  0  0  0  0  0  0  0  0
  -17.8676  -37.6996   -8.6495 C   0  0  0  0  0  0  0  0  0  0  0  0
  -19.3171  -37.8146   -8.4373 C   0  0  0  0  0  0  0  0  0  0  0  0
  -19.9285  -36.7088   -7.6064 C   0  0  0  0  0  0  0  0  0  0  0  0
  -21.3983  -36.6140   -8.0209 C   0  0  0  0  0  0  0  0  0  0  0  0
  -22.2188  -37.6935   -7.3734 C   0  0  0  0  0  0  0  0  0  0  0  0
  -23.4535  -38.0387   -8.1710 C   0  0  0  0  0  0  0  0  0  0  0  0
  -23.1427  -39.0076   -9.2976 C   0  0  0  0  0  0  0  0  0  0  0  0
  -23.2466  -40.3893   -8.8671 N   0  0  0  0  0  0  0  0  0  0  0  0
  -15.9962  -41.0066   -8.7758 C   0  0  2  0  0  0  0  0  0  0  0  0
  -15.7795  -40.2388   -9.8762 O   0  0  0  0  0  0  0  0  0  0  0  0
  -15.8700  -42.4658   -9.1308 C   0  0  0  0  0  0  0  0  0  0  0  0
  -15.8174  -43.3791   -8.0526 N   0  0  0  0  0  0  0  0  0  0  0  0
  -16.0637  -44.7513   -8.3356 C   0  0  0  0  0  0  0  0  0  0  0  0
  -17.5666  -45.0136   -8.1984 C   0  0  0  0  0  0  0  0  0  0  0  0
  -17.7329  -46.4003   -7.7384 C   0  0  0  0  0  0  0  0  0  0  0  0
  -18.0072  -47.3885   -8.6501 C   0  0  0  0  0  0  0  0  0  0  0  0
  -18.1653  -48.6994   -8.2017 C   0  0  0  0  0  0  0  0  0  0  0  0
  -18.0543  -49.0082   -6.9016 N   0  0  0  0  0  0  0  0  0  0  0  0
  -17.7860  -48.0522   -5.9967 C   0  0  0  0  0  0  0  0  0  0  0  0
  -17.6228  -46.7310   -6.4185 C   0  0  0  0  0  0  0  0  0  0  0  0
  1  2  1  0
  2  3  1  0
  3  4  1  0
  4  5  2  0
  5  6  1  0
  6  7  2  0
  7  8  1  0
  8  9  2  0
  8 10  1  0
 10 11  2  0
 10 12  1  0
 12 13  1  0
 13 14  1  1
 14 15  1  0
 15 16  1  1
 15 17  1  0
 17 18  1  0
 18 19  1  0
 19 20  1  0
 20 21  1  0
 21 22  1  0
 22 23  1  0
 23 24  1  0
 13 25  1  0
 25 26  1  6
 25 27  1  0
 27 28  1  0
 28 29  1  0
 29 30  1  0
 30 31  1  0
 31 32  2  0
 32 33  1  0
 33 34  2  0
 34 35  1  0
 35 36  2  0
  9  4  1  0
 24  6  1  0
 36 31  1  0
M  END
$$$$
