
     RDKit          3D

 36 38  0  0  0  0  0  0  0  0999 V2000
  -23.1263  -41.2414  -12.5148 C   0  0  0  0  0  0  0  0  0  0  0  0
  -21.9398  -40.5322  -12.5506 O   0  0  0  0  0  0  0  0  0  0  0  0
  -20.9436  -41.1699  -13.2472 C   0  0  0  0  0  0  0  0  0  0  0  0
  -19.7314  -41.2740  -12.3883 C   0  0  0  0  0  0  0  0  0  0  0  0
  -18.6673  -42.0666  -12.7121 C   0  0  0  0  0  0  0  0  0  0  0  0
  -17.4978  -42.1874  -11.9130 C   0  0  0  0  0  0  0  0  0  0  0  0
  -17.4257  -41.4683  -10.7423 C   0  0  0  0  0  0  0  0  0  0  0  0
  -18.4664  -40.6486  -10.3588 C   0  0  0  0  0  0  0  0  0  0  0  0
  -19.6017  -40.5869  -11.2205 C   0  0  0  0  0  0  0  0  0  0  0  0
  -18.6624  -39.7838   -9.1925 C   0  0  0  0  0  0  0  0  0  0  0  0
  -19.8702  -39.7730   -8.6474 O   0  0  0  0  0  0  0  0  0  0  0  0
  -17.8461  -38.9018   -8.4563 N   0  0  0  0  0  0  0  0  0  0  0  0
  -16.3840  -39.0062   -8.2859 C   0  0  1  0  0  0  0  0  0  0  0  0
  -15.7761  -38.0184   -9.2216 C   0  0  0  0  0  0  0  0  0  0  0  0
  -14.3238  -37.7855   -9.1573 C   0  0  2  0  0  0  0  0  0  0  0  0
  -14.0380  -36.6483  -10.1636 C   0  0  0  0  0  0  0  0  0  0  0  0
  -13.4495  -38.9252   -9.5617 C   0  0  0  0  0  0  0  0  0  0  0  0
  -13.8644  -39.7026  -10.7377 C   0  0  0  0  0  0  0  0  0  0  0  0
  -13.3140  -39.2059  -12.0557 C   0  0  0  0  0  0  0  0  0  0  0  0
  -13.2830  -40.4116  -12.9972 C   0  0  0  0  0  0  0  0  0  0  0  0
  -14.6465  -40.7008  -13.5587 C   0  0  0  0  0  0  0  0  0  0  0  0
  -14.8140  -42.1483  -13.9545 C   0  0  0  0  0  0  0  0  0  0  0  0
  -15.1649  -43.0203  -12.7624 C   0  0  0  0  0  0  0  0  0  0  0  0
  -16.5983  -43.0937  -12.5491 N   0  0  0  0  0  0  0  0  0  0  0  0
  -16.0713  -38.6323   -6.8241 C   0  0  2  0  0  0  0  0  0  0  0  0
  -14.8304  -39.0065   -6.4146 O   0  0  0  0  0  0  0  0  0  0  0  0
  -17.1201  -39.3057   -5.9769 C   0  0  0  0  0  0  0  0  0  0  0  0
  -18.4652  -38.9532   -6.2327 N   0  0  0  0  0  0  0  0  0  0  0  0
  -19.3964  -40.0075   -6.4447 C   0  0  0  0  0  0  0  0  0  0  0  0
  -20.8121  -39.4458   -6.2807 C   0  0  0  0  0  0  0  0  0  0  0  0
  -21.3574  -39.9818   -5.0248 C   0  0  0  0  0  0  0  0  0  0  0  0
  -20.5481  -40.7125   -4.1917 C   0  0  0  0  0  0  0  0  0  0  0  0
  -21.0771  -41.2177   -3.0045 C   0  0  0  0  0  0  0  0  0  0  0  0
  -22.3566  -41.0024   -2.6658 N   0  0  0  0  0  0  0  0  0  0  0  0
  -23.1616  -40.2891   -3.4706 C   0  0  0  0  0  0  0  0  0  0  0  0
  -22.6576  -39.7714   -4.6656 C   0  0  0  0  0  0  0  0  0  0  0  0
  1  2  1  0
  2  3  1  0
  3  4  1  0
  4  5  2  0
  5  6  1  0
  6  7  2  0
  7  8  1  0
  8  9  2  0
  8 10  1  0
 10 11  2  0
 10 12  1  0
 12 13  1  0
 13 14  1  6
 14 15  1  0
 15 16  1  6
 15 17  1  0
 17 18  1  0
 18 19  1  0
 19 20  1  0
 20 21  1  0
 21 22  1  0
 22 23  1  0
 23 24  1  0
 13 25  1  0
 25 26  1  1
 25 27  1  0
 27 28  1  0
 28 29  1  0
 29 30  1  0
 30 31  1  0
 31 32  2  0
 32 33  1  0
 33 34  2  0
 34 35  1  0
 35 36  2  0
  9  4  1  0
 24  6  1  0
 36 31  1  0
M  END
$$$$
