
     RDKit          3D

 36 38  0  0  0  0  0  0  0  0999 V2000
  -21.3447  -41.2075  -13.7532 C   0  0  0  0  0  0  0  0  0  0  0  0
  -20.2201  -42.0046  -13.8625 O   0  0  0  0  0  0  0  0  0  0  0  0
  -20.1467  -42.9798  -12.8992 C   0  0  0  0  0  0  0  0  0  0  0  0
  -18.9750  -42.7149  -12.0188 C   0  0  0  0  0  0  0  0  0  0  0  0
  -17.7541  -43.2907  -12.2274 C   0  0  0  0  0  0  0  0  0  0  0  0
  -16.6183  -43.0583  -11.4048 C   0  0  0  0  0  0  0  0  0  0  0  0
  -16.7476  -42.2059  -10.3327 C   0  0  0  0  0  0  0  0  0  0  0  0
  -17.9537  -41.5917  -10.0680 C   0  0  0  0  0  0  0  0  0  0  0  0
  -19.0411  -41.8814  -10.9449 C   0  0  0  0  0  0  0  0  0  0  0  0
  -18.3758  -40.6568   -9.0219 C   0  0  0  0  0  0  0  0  0  0  0  0
  -19.5784  -40.8431   -8.4977 O   0  0  0  0  0  0  0  0  0  0  0  0
  -17.7964  -39.5371   -8.3919 N   0  0  0  0  0  0  0  0  0  0  0  0
  -16.3537  -39.3007   -8.1914 C   0  0  1  0  0  0  0  0  0  0  0  0
  -15.9345  -38.3237   -9.2358 C   0  0  0  0  0  0  0  0  0  0  0  0
  -14.5693  -37.7754   -9.1830 C   0  0  2  0  0  0  0  0  0  0  0  0
  -14.4938  -36.7320  -10.3202 C   0  0  0  0  0  0  0  0  0  0  0  0
  -13.4564  -38.7383   -9.4304 C   0  0  0  0  0  0  0  0  0  0  0  0
  -13.6490  -39.7222  -10.5047 C   0  0  0  0  0  0  0  0  0  0  0  0
  -13.1660  -39.2793  -11.8676 C   0  0  0  0  0  0  0  0  0  0  0  0
  -12.8410  -40.5533  -12.6501 C   0  0  0  0  0  0  0  0  0  0  0  0
  -14.0880  -41.1965  -13.1880 C   0  0  0  0  0  0  0  0  0  0  0  0
  -13.9266  -42.6825  -13.4013 C   0  0  0  0  0  0  0  0  0  0  0  0
  -14.1297  -43.4609  -12.1138 C   0  0  0  0  0  0  0  0  0  0  0  0
  -15.5215  -43.8174  -11.9110 N   0  0  0  0  0  0  0  0  0  0  0  0
  -16.1859  -38.6956   -6.7842 C   0  0  2  0  0  0  0  0  0  0  0  0
  -15.0135  -39.0253   -6.1806 O   0  0  0  0  0  0  0  0  0  0  0  0
  -17.3477  -39.1936   -5.9635 C   0  0  0  0  0  0  0  0  0  0  0  0
  -18.5240  -39.5345   -6.6701 N   0  0  0  0  0  0  0  0  0  0  0  0
  -19.7496  -38.9625   -6.2291 C   0  0  0  0  0  0  0  0  0  0  0  0
  -20.8720  -39.4473   -7.1519 C   0  0  0  0  0  0  0  0  0  0  0  0
  -21.9696  -39.9263   -6.2987 C   0  0  0  0  0  0  0  0  0  0  0  0
  -21.8322  -41.1100   -5.6183 C   0  0  0  0  0  0  0  0  0  0  0  0
  -22.8808  -41.5553   -4.8142 C   0  0  0  0  0  0  0  0  0  0  0  0
  -24.0149  -40.8496   -4.6959 N   0  0  0  0  0  0  0  0  0  0  0  0
  -24.1648  -39.6890   -5.3555 C   0  0  0  0  0  0  0  0  0  0  0  0
  -23.1303  -39.2197   -6.1676 C   0  0  0  0  0  0  0  0  0  0  0  0
  1  2  1  0
  2  3  1  0
  3  4  1  0
  4  5  2  0
  5  6  1  0
  6  7  2  0
  7  8  1  0
  8  9  2  0
  8 10  1  0
 10 11  2  0
 10 12  1  0
 12 13  1  0
 13 14  1  6
 14 15  1  0
 15 16  1  6
 15 17  1  0
 17 18  1  0
 18 19  1  0
 19 20  1  0
 20 21  1  0
 21 22  1  0
 22 23  1  0
 23 24  1  0
 13 25  1  0
 25 26  1  1
 25 27  1  0
 27 28  1  0
 28 29  1  0
 29 30  1  0
 30 31  1  0
 31 32  2  0
 32 33  1  0
 33 34  2  0
 34 35  1  0
 35 36  2  0
  9  4  1  0
 24  6  1  0
 36 31  1  0
M  END
$$$$
