
     RDKit          3D

 36 38  0  0  0  0  0  0  0  0999 V2000
  -16.3149  -47.4953   -5.9780 C   0  0  0  0  0  0  0  0  0  0  0  0
  -17.4667  -46.7306   -6.0059 O   0  0  0  0  0  0  0  0  0  0  0  0
  -18.2093  -46.9040   -7.1473 C   0  0  0  0  0  0  0  0  0  0  0  0
  -18.5113  -45.5736   -7.7448 C   0  0  0  0  0  0  0  0  0  0  0  0
  -19.6695  -45.3180   -8.4220 C   0  0  0  0  0  0  0  0  0  0  0  0
  -19.9855  -44.0600   -9.0037 C   0  0  0  0  0  0  0  0  0  0  0  0
  -19.0765  -43.0344   -8.8834 C   0  0  0  0  0  0  0  0  0  0  0  0
  -17.8880  -43.2273   -8.2106 C   0  0  0  0  0  0  0  0  0  0  0  0
  -17.6525  -44.5213   -7.6578 C   0  0  0  0  0  0  0  0  0  0  0  0
  -16.7579  -42.3382   -7.9301 C   0  0  0  0  0  0  0  0  0  0  0  0
  -15.5433  -42.8579   -8.0325 O   0  0  0  0  0  0  0  0  0  0  0  0
  -16.6215  -40.9873   -7.5522 N   0  0  0  0  0  0  0  0  0  0  0  0
  -17.5591  -39.8943   -7.8741 C   0  0  1  0  0  0  0  0  0  0  0  0
  -18.3684  -39.6538   -6.6460 C   0  0  0  0  0  0  0  0  0  0  0  0
  -19.2871  -38.5038   -6.6194 C   0  0  2  0  0  0  0  0  0  0  0  0
  -19.8807  -38.4761   -5.1930 C   0  0  0  0  0  0  0  0  0  0  0  0
  -20.4514  -38.5617   -7.5510 C   0  0  0  0  0  0  0  0  0  0  0  0
  -21.1379  -39.8541   -7.6849 C   0  0  0  0  0  0  0  0  0  0  0  0
  -22.2832  -40.0694   -6.7212 C   0  0  0  0  0  0  0  0  0  0  0  0
  -23.2310  -41.0689   -7.3871 C   0  0  0  0  0  0  0  0  0  0  0  0
  -22.7210  -42.4762   -7.2552 C   0  0  0  0  0  0  0  0  0  0  0  0
  -23.2242  -43.3795   -8.3555 C   0  0  0  0  0  0  0  0  0  0  0  0
  -22.3954  -43.2412   -9.6199 C   0  0  0  0  0  0  0  0  0  0  0  0
  -21.2650  -44.1509   -9.6280 N   0  0  0  0  0  0  0  0  0  0  0  0
  -16.7092  -38.6550   -8.2149 C   0  0  2  0  0  0  0  0  0  0  0  0
  -17.1517  -37.9668   -9.3002 O   0  0  0  0  0  0  0  0  0  0  0  0
  -15.3065  -39.1515   -8.4544 C   0  0  0  0  0  0  0  0  0  0  0  0
  -14.6440  -38.6538   -9.6001 N   0  0  0  0  0  0  0  0  0  0  0  0
  -14.4554  -39.5438  -10.6937 C   0  0  0  0  0  0  0  0  0  0  0  0
  -13.5603  -40.6980  -10.2323 C   0  0  0  0  0  0  0  0  0  0  0  0
  -13.1551  -41.4490  -11.4297 C   0  0  0  0  0  0  0  0  0  0  0  0
  -13.2888  -42.8144  -11.4509 C   0  0  0  0  0  0  0  0  0  0  0  0
  -12.8988  -43.5161  -12.5912 C   0  0  0  0  0  0  0  0  0  0  0  0
  -12.3981  -42.8816  -13.6611 N   0  0  0  0  0  0  0  0  0  0  0  0
  -12.2609  -41.5453  -13.6560 C   0  0  0  0  0  0  0  0  0  0  0  0
  -12.6437  -40.8180  -12.5271 C   0  0  0  0  0  0  0  0  0  0  0  0
  1  2  1  0
  2  3  1  0
  3  4  1  0
  4  5  2  0
  5  6  1  0
  6  7  2  0
  7  8  1  0
  8  9  2  0
  8 10  1  0
 10 11  2  0
 10 12  1  0
 12 13  1  0
 13 14  1  1
 14 15  1  0
 15 16  1  1
 15 17  1  0
 17 18  1  0
 18 19  1  0
 19 20  1  0
 20 21  1  0
 21 22  1  0
 22 23  1  0
 23 24  1  0
 13 25  1  0
 25 26  1  6
 25 27  1  0
 27 28  1  0
 28 29  1  0
 29 30  1  0
 30 31  1  0
 31 32  2  0
 32 33  1  0
 33 34  2  0
 34 35  1  0
 35 36  2  0
  9  4  1  0
 24  6  1  0
 36 31  1  0
M  END
$$$$
