
     RDKit          3D

 42 45  0  0  0  0  0  0  0  0999 V2000
  -24.5896  -44.0299   -8.9348 C   0  0  0  0  0  0  0  0  0  0  0  0
  -25.1494  -43.0519   -7.9418 C   0  0  0  0  0  0  0  0  0  0  0  0
  -24.1629  -42.1634   -7.3647 N   0  0  0  0  0  0  0  0  0  0  0  0
  -24.2582  -40.7588   -7.7408 C   0  0  0  0  0  0  0  0  0  0  0  0
  -24.2329  -40.4960   -9.2011 C   0  0  0  0  0  0  0  0  0  0  0  0
  -22.9362  -40.8070   -9.8935 C   0  0  0  0  0  0  0  0  0  0  0  0
  -22.0775  -39.5618   -9.8587 C   0  0  0  0  0  0  0  0  0  0  0  0
  -20.7409  -39.8008  -10.5436 C   0  0  0  0  0  0  0  0  0  0  0  0
  -19.8518  -38.6373  -10.1646 C   0  0  1  0  0  0  0  0  0  0  0  0
  -20.7152  -37.3549  -10.1467 C   0  0  0  0  0  0  0  0  0  0  0  0
  -19.2581  -38.7609   -8.8165 C   0  0  0  0  0  0  0  0  0  0  0  0
  -18.2729  -39.8367   -8.6826 C   0  0  2  0  0  0  0  0  0  0  0  0
  -17.7664  -40.0237   -7.3115 N   0  0  0  0  0  0  0  0  0  0  0  0
  -18.5831  -40.1740   -6.1637 C   0  0  0  0  0  0  0  0  0  0  0  0
  -18.1061  -39.4028   -5.2100 O   0  0  0  0  0  0  0  0  0  0  0  0
  -19.7740  -40.9510   -5.8110 C   0  0  0  0  0  0  0  0  0  0  0  0
  -20.8807  -41.3522   -6.5561 C   0  0  0  0  0  0  0  0  0  0  0  0
  -21.9090  -42.1000   -5.9786 C   0  0  0  0  0  0  0  0  0  0  0  0
  -21.7803  -42.4341   -4.6072 C   0  0  0  0  0  0  0  0  0  0  0  0
  -20.7274  -42.0742   -3.8243 C   0  0  0  0  0  0  0  0  0  0  0  0
  -19.7565  -41.3500   -4.4282 C   0  0  0  0  0  0  0  0  0  0  0  0
  -20.6388  -42.4447   -2.4036 C   0  0  0  0  0  0  0  0  0  0  0  0
  -19.8670  -41.8171   -1.5172 N   0  0  0  0  0  0  0  0  0  0  0  0
  -20.0064  -42.3904   -0.3057 C   0  0  0  0  0  0  0  0  0  0  0  0
  -20.9184  -43.4137   -0.5137 C   0  0  0  0  0  0  0  0  0  0  0  0
  -21.2633  -43.4027   -1.7791 O   0  0  0  0  0  0  0  0  0  0  0  0
  -23.1649  -42.6528   -6.4720 C   0  0  0  0  0  0  0  0  0  0  0  0
  -23.5177  -43.8438   -6.0506 O   0  0  0  0  0  0  0  0  0  0  0  0
  -17.1529  -39.6241   -9.6731 C   0  0  2  0  0  0  0  0  0  0  0  0
  -16.2952  -40.7545   -9.6004 O   0  0  0  0  0  0  0  0  0  0  0  0
  -16.3666  -38.3752   -9.3462 C   0  0  0  0  0  0  0  0  0  0  0  0
  -14.9574  -38.4978   -9.4444 N   0  0  0  0  0  0  0  0  0  0  0  0
  -14.1319  -37.4481   -8.9902 C   0  0  0  0  0  0  0  0  0  0  0  0
  -13.0075  -37.1648   -9.9195 C   0  0  0  0  0  0  0  0  0  0  0  0
  -13.2488  -36.6360  -11.1921 C   0  0  0  0  0  0  0  0  0  0  0  0
  -12.2352  -36.3690  -12.0758 C   0  0  0  0  0  0  0  0  0  0  0  0
  -10.9133  -36.6190  -11.7316 C   0  0  0  0  0  0  0  0  0  0  0  0
  -10.6531  -37.1374  -10.4896 C   0  0  0  0  0  0  0  0  0  0  0  0
  -11.7005  -37.4035   -9.6008 C   0  0  0  0  0  0  0  0  0  0  0  0
  -12.4797  -35.8025  -13.4301 C   0  0  0  0  0  0  0  0  0  0  0  0
  -12.6088  -36.9603  -14.4269 C   0  0  0  0  0  0  0  0  0  0  0  0
  -13.8050  -35.0767  -13.4087 C   0  0  0  0  0  0  0  0  0  0  0  0
  1  2  1  0
  2  3  1  0
  3  4  1  0
  4  5  1  0
  5  6  1  0
  6  7  1  0
  7  8  1  0
  8  9  1  0
  9 10  1  1
  9 11  1  0
 12 11  1  1
 12 13  1  0
 13 14  1  0
 14 15  2  0
 14 16  1  0
 16 17  2  0
 17 18  1  0
 18 19  2  0
 19 20  1  0
 20 21  2  0
 20 22  1  0
 22 23  2  0
 23 24  1  0
 24 25  2  0
 25 26  1  0
 18 27  1  0
 27 28  2  0
 12 29  1  0
 29 30  1  1
 29 31  1  0
 31 32  1  0
 32 33  1  0
 33 34  1  0
 34 35  2  0
 35 36  1  0
 36 37  2  0
 37 38  1  0
 38 39  2  0
 36 40  1  0
 40 41  1  0
 40 42  1  0
 21 16  1  0
 26 22  1  0
 27  3  1  0
 39 34  1  0
M  END
$$$$
