
     RDKit          3D

 42 45  0  0  0  0  0  0  0  0999 V2000
  -19.2025  -46.1912   -3.9034 C   0  0  0  0  0  0  0  0  0  0  0  0
  -20.2837  -46.5344   -4.8879 C   0  0  0  0  0  0  0  0  0  0  0  0
  -20.6052  -45.4666   -5.8110 N   0  0  0  0  0  0  0  0  0  0  0  0
  -20.2532  -45.6901   -7.2072 C   0  0  0  0  0  0  0  0  0  0  0  0
  -18.8267  -46.0186   -7.4511 C   0  0  0  0  0  0  0  0  0  0  0  0
  -17.8492  -44.9136   -7.1668 C   0  0  0  0  0  0  0  0  0  0  0  0
  -17.6718  -44.1087   -8.4356 C   0  0  0  0  0  0  0  0  0  0  0  0
  -16.6916  -42.9653   -8.2244 C   0  0  0  0  0  0  0  0  0  0  0  0
  -16.8419  -42.0471   -9.4171 C   0  0  1  0  0  0  0  0  0  0  0  0
  -17.0553  -42.9199  -10.6753 C   0  0  0  0  0  0  0  0  0  0  0  0
  -18.0120  -41.1483   -9.3280 C   0  0  0  0  0  0  0  0  0  0  0  0
  -17.9159  -40.1275   -8.2817 C   0  0  2  0  0  0  0  0  0  0  0  0
  -19.1294  -39.3059   -8.1271 N   0  0  0  0  0  0  0  0  0  0  0  0
  -20.4388  -39.8233   -7.9697 C   0  0  0  0  0  0  0  0  0  0  0  0
  -21.2476  -39.1578   -8.7664 O   0  0  0  0  0  0  0  0  0  0  0  0
  -21.0684  -40.8733   -7.1649 C   0  0  0  0  0  0  0  0  0  0  0  0
  -20.6089  -42.1121   -6.7233 C   0  0  0  0  0  0  0  0  0  0  0  0
  -21.4181  -42.9519   -5.9552 C   0  0  0  0  0  0  0  0  0  0  0  0
  -22.7223  -42.4928   -5.6432 C   0  0  0  0  0  0  0  0  0  0  0  0
  -23.2314  -41.2959   -6.0425 C   0  0  0  0  0  0  0  0  0  0  0  0
  -22.4103  -40.5174   -6.7851 C   0  0  0  0  0  0  0  0  0  0  0  0
  -24.5932  -40.8630   -5.6936 C   0  0  0  0  0  0  0  0  0  0  0  0
  -25.1633  -41.0807   -4.5093 N   0  0  0  0  0  0  0  0  0  0  0  0
  -26.4083  -40.5652   -4.5017 C   0  0  0  0  0  0  0  0  0  0  0  0
  -26.5597  -40.0164   -5.7659 C   0  0  0  0  0  0  0  0  0  0  0  0
  -25.4507  -40.2210   -6.4356 O   0  0  0  0  0  0  0  0  0  0  0  0
  -21.2395  -44.2717   -5.3613 C   0  0  0  0  0  0  0  0  0  0  0  0
  -21.7402  -44.4790   -4.1668 O   0  0  0  0  0  0  0  0  0  0  0  0
  -16.6872  -39.2801   -8.5118 C   0  0  2  0  0  0  0  0  0  0  0  0
  -15.5614  -40.0288   -8.0750 O   0  0  0  0  0  0  0  0  0  0  0  0
  -16.7636  -37.9871   -7.7327 C   0  0  0  0  0  0  0  0  0  0  0  0
  -17.9062  -37.1873   -7.9877 N   0  0  0  0  0  0  0  0  0  0  0  0
  -18.6634  -37.4043   -9.1579 C   0  0  0  0  0  0  0  0  0  0  0  0
  -18.1889  -36.5853  -10.3034 C   0  0  0  0  0  0  0  0  0  0  0  0
  -16.9026  -36.7634  -10.8244 C   0  0  0  0  0  0  0  0  0  0  0  0
  -16.4318  -36.0204  -11.8760 C   0  0  0  0  0  0  0  0  0  0  0  0
  -17.2289  -35.0502  -12.4689 C   0  0  0  0  0  0  0  0  0  0  0  0
  -18.4931  -34.8582  -11.9748 C   0  0  0  0  0  0  0  0  0  0  0  0
  -18.9567  -35.6259  -10.9008 C   0  0  0  0  0  0  0  0  0  0  0  0
  -15.0673  -36.2042  -12.4410 C   0  0  0  0  0  0  0  0  0  0  0  0
  -14.5850  -34.8595  -12.9978 C   0  0  0  0  0  0  0  0  0  0  0  0
  -14.1347  -36.5858  -11.3147 C   0  0  0  0  0  0  0  0  0  0  0  0
  1  2  1  0
  2  3  1  0
  3  4  1  0
  4  5  1  0
  5  6  1  0
  6  7  1  0
  7  8  1  0
  8  9  1  0
  9 10  1  6
  9 11  1  0
 12 11  1  6
 12 13  1  0
 13 14  1  0
 14 15  2  0
 14 16  1  0
 16 17  2  0
 17 18  1  0
 18 19  2  0
 19 20  1  0
 20 21  2  0
 20 22  1  0
 22 23  2  0
 23 24  1  0
 24 25  2  0
 25 26  1  0
 18 27  1  0
 27 28  2  0
 12 29  1  0
 29 30  1  1
 29 31  1  0
 31 32  1  0
 32 33  1  0
 33 34  1  0
 34 35  2  0
 35 36  1  0
 36 37  2  0
 37 38  1  0
 38 39  2  0
 36 40  1  0
 40 41  1  0
 40 42  1  0
 21 16  1  0
 26 22  1  0
 27  3  1  0
 39 34  1  0
M  END
$$$$
