
     RDKit          3D

 42 45  0  0  0  0  0  0  0  0999 V2000
  -24.5352  -45.6809   -6.1967 C   0  0  0  0  0  0  0  0  0  0  0  0
  -24.0844  -44.2507   -6.2819 C   0  0  0  0  0  0  0  0  0  0  0  0
  -22.6671  -44.0900   -6.5289 N   0  0  0  0  0  0  0  0  0  0  0  0
  -21.8250  -43.8853   -5.3575 C   0  0  0  0  0  0  0  0  0  0  0  0
  -22.2162  -42.7436   -4.4939 C   0  0  0  0  0  0  0  0  0  0  0  0
  -22.0516  -41.3814   -5.1061 C   0  0  0  0  0  0  0  0  0  0  0  0
  -20.6585  -40.8884   -4.7817 C   0  0  0  0  0  0  0  0  0  0  0  0
  -20.4164  -39.5081   -5.3723 C   0  0  0  0  0  0  0  0  0  0  0  0
  -18.9266  -39.2608   -5.2853 C   0  0  1  0  0  0  0  0  0  0  0  0
  -18.4170  -39.8449   -3.9476 C   0  0  0  0  0  0  0  0  0  0  0  0
  -18.1529  -39.9266   -6.3544 C   0  0  0  0  0  0  0  0  0  0  0  0
  -18.3823  -39.3869   -7.6969 C   0  0  2  0  0  0  0  0  0  0  0  0
  -17.6921  -40.1245   -8.7697 N   0  0  0  0  0  0  0  0  0  0  0  0
  -17.7611  -41.5271   -8.9573 C   0  0  0  0  0  0  0  0  0  0  0  0
  -16.5439  -41.9781   -9.1738 O   0  0  0  0  0  0  0  0  0  0  0  0
  -18.8205  -42.5391   -8.9671 C   0  0  0  0  0  0  0  0  0  0  0  0
  -20.0068  -42.6548   -8.2459 C   0  0  0  0  0  0  0  0  0  0  0  0
  -20.8666  -43.7384   -8.4368 C   0  0  0  0  0  0  0  0  0  0  0  0
  -20.4843  -44.7126   -9.3928 C   0  0  0  0  0  0  0  0  0  0  0  0
  -19.3414  -44.6593  -10.1291 C   0  0  0  0  0  0  0  0  0  0  0  0
  -18.5402  -43.5911   -9.9085 C   0  0  0  0  0  0  0  0  0  0  0  0
  -18.9870  -45.6963  -11.1102 C   0  0  0  0  0  0  0  0  0  0  0  0
  -19.8340  -46.1867  -12.0142 N   0  0  0  0  0  0  0  0  0  0  0  0
  -19.2114  -47.1178  -12.7633 C   0  0  0  0  0  0  0  0  0  0  0  0
  -17.9230  -47.1626  -12.2534 C   0  0  0  0  0  0  0  0  0  0  0  0
  -17.8420  -46.2972  -11.2711 O   0  0  0  0  0  0  0  0  0  0  0  0
  -22.1409  -44.1406   -7.8529 C   0  0  0  0  0  0  0  0  0  0  0  0
  -23.0404  -44.6679   -8.6488 O   0  0  0  0  0  0  0  0  0  0  0  0
  -18.0429  -37.9155   -7.7161 C   0  0  2  0  0  0  0  0  0  0  0  0
  -19.0921  -37.2242   -7.0529 O   0  0  0  0  0  0  0  0  0  0  0  0
  -17.9208  -37.4032   -9.1330 C   0  0  0  0  0  0  0  0  0  0  0  0
  -16.6257  -37.4894   -9.7038 N   0  0  0  0  0  0  0  0  0  0  0  0
  -16.4175  -37.0586  -11.0307 C   0  0  0  0  0  0  0  0  0  0  0  0
  -15.1749  -37.6183  -11.6229 C   0  0  0  0  0  0  0  0  0  0  0  0
  -14.0685  -36.7979  -11.8686 C   0  0  0  0  0  0  0  0  0  0  0  0
  -12.9097  -37.2809  -12.4195 C   0  0  0  0  0  0  0  0  0  0  0  0
  -12.7936  -38.6227  -12.7578 C   0  0  0  0  0  0  0  0  0  0  0  0
  -13.8653  -39.4454  -12.5261 C   0  0  0  0  0  0  0  0  0  0  0  0
  -15.0400  -38.9347  -11.9631 C   0  0  0  0  0  0  0  0  0  0  0  0
  -11.7253  -36.4186  -12.6812 C   0  0  0  0  0  0  0  0  0  0  0  0
  -11.5428  -35.4673  -11.4927 C   0  0  0  0  0  0  0  0  0  0  0  0
  -10.5003  -37.3011  -12.7439 C   0  0  0  0  0  0  0  0  0  0  0  0
  1  2  1  0
  2  3  1  0
  3  4  1  0
  4  5  1  0
  5  6  1  0
  6  7  1  0
  7  8  1  0
  8  9  1  0
  9 10  1  1
  9 11  1  0
 12 11  1  1
 12 13  1  0
 13 14  1  0
 14 15  2  0
 14 16  1  0
 16 17  2  0
 17 18  1  0
 18 19  2  0
 19 20  1  0
 20 21  2  0
 20 22  1  0
 22 23  2  0
 23 24  1  0
 24 25  2  0
 25 26  1  0
 18 27  1  0
 27 28  2  0
 12 29  1  0
 29 30  1  6
 29 31  1  0
 31 32  1  0
 32 33  1  0
 33 34  1  0
 34 35  2  0
 35 36  1  0
 36 37  2  0
 37 38  1  0
 38 39  2  0
 36 40  1  0
 40 41  1  0
 40 42  1  0
 21 16  1  0
 26 22  1  0
 27  3  1  0
 39 34  1  0
M  END
$$$$
