
     RDKit          3D

 42 45  0  0  0  0  0  0  0  0999 V2000
  -25.8610  -42.3915   -8.3523 C   0  0  0  0  0  0  0  0  0  0  0  0
  -24.5779  -42.7962   -9.0198 C   0  0  0  0  0  0  0  0  0  0  0  0
  -23.4135  -42.7158   -8.1634 N   0  0  0  0  0  0  0  0  0  0  0  0
  -23.4500  -41.7048   -7.1146 C   0  0  0  0  0  0  0  0  0  0  0  0
  -23.7016  -40.3200   -7.5849 C   0  0  0  0  0  0  0  0  0  0  0  0
  -22.6112  -39.7107   -8.4200 C   0  0  0  0  0  0  0  0  0  0  0  0
  -21.6491  -39.0049   -7.4898 C   0  0  0  0  0  0  0  0  0  0  0  0
  -20.5116  -38.3608   -8.2669 C   0  0  0  0  0  0  0  0  0  0  0  0
  -19.4567  -37.9864   -7.2495 C   0  0  1  0  0  0  0  0  0  0  0  0
  -20.1716  -37.4756   -5.9774 C   0  0  0  0  0  0  0  0  0  0  0  0
  -18.6123  -39.1236   -6.8268 C   0  0  0  0  0  0  0  0  0  0  0  0
  -17.7277  -39.6451   -7.8716 C   0  0  2  0  0  0  0  0  0  0  0  0
  -16.9695  -40.8453   -7.4765 N   0  0  0  0  0  0  0  0  0  0  0  0
  -17.5424  -42.0112   -6.9113 C   0  0  0  0  0  0  0  0  0  0  0  0
  -16.8077  -42.3794   -5.8834 O   0  0  0  0  0  0  0  0  0  0  0  0
  -18.7034  -42.8591   -7.1934 C   0  0  0  0  0  0  0  0  0  0  0  0
  -19.9731  -42.5681   -7.6876 C   0  0  0  0  0  0  0  0  0  0  0  0
  -20.9267  -43.5722   -7.8681 C   0  0  0  0  0  0  0  0  0  0  0  0
  -20.5503  -44.8962   -7.5297 C   0  0  0  0  0  0  0  0  0  0  0  0
  -19.3291  -45.2472   -7.0433 C   0  0  0  0  0  0  0  0  0  0  0  0
  -18.4391  -44.2399   -6.8850 C   0  0  0  0  0  0  0  0  0  0  0  0
  -18.9851  -46.6369   -6.7055 C   0  0  0  0  0  0  0  0  0  0  0  0
  -19.4219  -47.6978   -7.3828 N   0  0  0  0  0  0  0  0  0  0  0  0
  -18.9331  -48.8246   -6.8285 C   0  0  0  0  0  0  0  0  0  0  0  0
  -18.1661  -48.3778   -5.7634 C   0  0  0  0  0  0  0  0  0  0  0  0
  -18.2307  -47.0681   -5.7344 O   0  0  0  0  0  0  0  0  0  0  0  0
  -22.3041  -43.5923   -8.3461 C   0  0  0  0  0  0  0  0  0  0  0  0
  -22.6742  -44.5947   -9.1068 O   0  0  0  0  0  0  0  0  0  0  0  0
  -16.8209  -38.5426   -8.3645 C   0  0  2  0  0  0  0  0  0  0  0  0
  -17.6271  -37.6035   -9.0622 O   0  0  0  0  0  0  0  0  0  0  0  0
  -15.7611  -39.0848   -9.2960 C   0  0  0  0  0  0  0  0  0  0  0  0
  -14.5257  -39.4198   -8.6861 N   0  0  0  0  0  0  0  0  0  0  0  0
  -13.7267  -40.4406   -9.2421 C   0  0  0  0  0  0  0  0  0  0  0  0
  -13.4286  -40.2114  -10.6796 C   0  0  0  0  0  0  0  0  0  0  0  0
  -12.7923  -39.0380  -11.0989 C   0  0  0  0  0  0  0  0  0  0  0  0
  -12.5085  -38.7927  -12.4175 C   0  0  0  0  0  0  0  0  0  0  0  0
  -12.8491  -39.7159  -13.3974 C   0  0  0  0  0  0  0  0  0  0  0  0
  -13.4736  -40.8730  -13.0098 C   0  0  0  0  0  0  0  0  0  0  0  0
  -13.7552  -41.1062  -11.6592 C   0  0  0  0  0  0  0  0  0  0  0  0
  -11.8282  -37.5504  -12.8743 C   0  0  0  0  0  0  0  0  0  0  0  0
  -12.7126  -36.3503  -12.5157 C   0  0  0  0  0  0  0  0  0  0  0  0
  -10.5372  -37.4051  -12.1024 C   0  0  0  0  0  0  0  0  0  0  0  0
  1  2  1  0
  2  3  1  0
  3  4  1  0
  4  5  1  0
  5  6  1  0
  6  7  1  0
  7  8  1  0
  8  9  1  0
  9 10  1  1
  9 11  1  0
 12 11  1  1
 12 13  1  0
 13 14  1  0
 14 15  2  0
 14 16  1  0
 16 17  2  0
 17 18  1  0
 18 19  2  0
 19 20  1  0
 20 21  2  0
 20 22  1  0
 22 23  2  0
 23 24  1  0
 24 25  2  0
 25 26  1  0
 18 27  1  0
 27 28  2  0
 12 29  1  0
 29 30  1  6
 29 31  1  0
 31 32  1  0
 32 33  1  0
 33 34  1  0
 34 35  2  0
 35 36  1  0
 36 37  2  0
 37 38  1  0
 38 39  2  0
 36 40  1  0
 40 41  1  0
 40 42  1  0
 21 16  1  0
 26 22  1  0
 27  3  1  0
 39 34  1  0
M  END
$$$$
