
     RDKit          3D

 42 45  0  0  0  0  0  0  0  0999 V2000
  -11.3454  -42.7097  -13.2928 C   0  0  0  0  0  0  0  0  0  0  0  0
  -12.5271  -43.0810  -14.1422 C   0  0  0  0  0  0  0  0  0  0  0  0
  -13.7994  -42.6362  -13.6140 N   0  0  0  0  0  0  0  0  0  0  0  0
  -14.1933  -41.2713  -13.9383 C   0  0  0  0  0  0  0  0  0  0  0  0
  -13.2108  -40.2263  -13.5578 C   0  0  0  0  0  0  0  0  0  0  0  0
  -13.0057  -40.0360  -12.0815 C   0  0  0  0  0  0  0  0  0  0  0  0
  -13.9944  -38.9957  -11.6025 C   0  0  0  0  0  0  0  0  0  0  0  0
  -13.8469  -38.7489  -10.1092 C   0  0  0  0  0  0  0  0  0  0  0  0
  -15.0707  -37.9696   -9.6815 C   0  0  1  0  0  0  0  0  0  0  0  0
  -15.4166  -36.9603  -10.8004 C   0  0  0  0  0  0  0  0  0  0  0  0
  -16.2711  -38.8108   -9.4910 C   0  0  0  0  0  0  0  0  0  0  0  0
  -16.1942  -39.7312   -8.3539 C   0  0  2  0  0  0  0  0  0  0  0  0
  -17.3470  -40.6413   -8.2353 N   0  0  0  0  0  0  0  0  0  0  0  0
  -17.8479  -41.4493   -9.2856 C   0  0  0  0  0  0  0  0  0  0  0  0
  -19.1588  -41.3356   -9.3089 O   0  0  0  0  0  0  0  0  0  0  0  0
  -17.2732  -42.3378  -10.2988 C   0  0  0  0  0  0  0  0  0  0  0  0
  -16.0757  -42.2913  -11.0093 C   0  0  0  0  0  0  0  0  0  0  0  0
  -15.7505  -43.2765  -11.9441 C   0  0  0  0  0  0  0  0  0  0  0  0
  -16.6860  -44.3234  -12.1390 C   0  0  0  0  0  0  0  0  0  0  0  0
  -17.8711  -44.4275  -11.4791 C   0  0  0  0  0  0  0  0  0  0  0  0
  -18.1422  -43.4491  -10.5839 C   0  0  0  0  0  0  0  0  0  0  0  0
  -18.8109  -45.5339  -11.7164 C   0  0  0  0  0  0  0  0  0  0  0  0
  -19.6146  -46.0413  -10.7829 N   0  0  0  0  0  0  0  0  0  0  0  0
  -20.3508  -47.0396  -11.3096 C   0  0  0  0  0  0  0  0  0  0  0  0
  -19.9402  -47.1071  -12.6322 C   0  0  0  0  0  0  0  0  0  0  0  0
  -19.0224  -46.1896  -12.8224 O   0  0  0  0  0  0  0  0  0  0  0  0
  -14.6133  -43.5036  -12.8281 C   0  0  0  0  0  0  0  0  0  0  0  0
  -14.1951  -44.7371  -12.9840 O   0  0  0  0  0  0  0  0  0  0  0  0
  -15.9609  -38.9485   -7.0836 C   0  0  2  0  0  0  0  0  0  0  0  0
  -14.9309  -39.6051   -6.3578 O   0  0  0  0  0  0  0  0  0  0  0  0
  -17.2137  -38.8941   -6.2397 C   0  0  0  0  0  0  0  0  0  0  0  0
  -18.0386  -37.7590   -6.4441 N   0  0  0  0  0  0  0  0  0  0  0  0
  -19.0758  -37.8125   -7.3984 C   0  0  0  0  0  0  0  0  0  0  0  0
  -19.8533  -39.0766   -7.3246 C   0  0  0  0  0  0  0  0  0  0  0  0
  -21.1310  -39.0971   -6.7550 C   0  0  0  0  0  0  0  0  0  0  0  0
  -21.8720  -40.2471   -6.6656 C   0  0  0  0  0  0  0  0  0  0  0  0
  -21.3707  -41.4500   -7.1452 C   0  0  0  0  0  0  0  0  0  0  0  0
  -20.1205  -41.4539   -7.7075 C   0  0  0  0  0  0  0  0  0  0  0  0
  -19.3787  -40.2703   -7.7901 C   0  0  0  0  0  0  0  0  0  0  0  0
  -23.2336  -40.2797   -6.0657 C   0  0  0  0  0  0  0  0  0  0  0  0
  -23.0942  -40.4621   -4.5498 C   0  0  0  0  0  0  0  0  0  0  0  0
  -23.8875  -38.9376   -6.2997 C   0  0  0  0  0  0  0  0  0  0  0  0
  1  2  1  0
  2  3  1  0
  3  4  1  0
  4  5  1  0
  5  6  1  0
  6  7  1  0
  7  8  1  0
  8  9  1  0
  9 10  1  6
  9 11  1  0
 12 11  1  6
 12 13  1  0
 13 14  1  0
 14 15  2  0
 14 16  1  0
 16 17  2  0
 17 18  1  0
 18 19  2  0
 19 20  1  0
 20 21  2  0
 20 22  1  0
 22 23  2  0
 23 24  1  0
 24 25  2  0
 25 26  1  0
 18 27  1  0
 27 28  2  0
 12 29  1  0
 29 30  1  1
 29 31  1  0
 31 32  1  0
 32 33  1  0
 33 34  1  0
 34 35  2  0
 35 36  1  0
 36 37  2  0
 37 38  1  0
 38 39  2  0
 36 40  1  0
 40 41  1  0
 40 42  1  0
 21 16  1  0
 26 22  1  0
 27  3  1  0
 39 34  1  0
M  END
$$$$
