
     RDKit          3D

 42 45  0  0  0  0  0  0  0  0999 V2000
  -26.3869  -47.1403  -10.3361 C   0  0  0  0  0  0  0  0  0  0  0  0
  -25.0111  -46.7626  -10.8055 C   0  0  0  0  0  0  0  0  0  0  0  0
  -24.1521  -46.2411   -9.7635 N   0  0  0  0  0  0  0  0  0  0  0  0
  -24.6612  -45.0983   -9.0164 C   0  0  0  0  0  0  0  0  0  0  0  0
  -25.0483  -43.9286   -9.8434 C   0  0  0  0  0  0  0  0  0  0  0  0
  -23.9192  -43.2288  -10.5454 C   0  0  0  0  0  0  0  0  0  0  0  0
  -23.3938  -42.1492   -9.6247 C   0  0  0  0  0  0  0  0  0  0  0  0
  -22.2422  -41.3941  -10.2698 C   0  0  0  0  0  0  0  0  0  0  0  0
  -21.5868  -40.5910   -9.1682 C   0  0  1  0  0  0  0  0  0  0  0  0
  -22.6968  -40.0525   -8.2365 C   0  0  0  0  0  0  0  0  0  0  0  0
  -20.6760  -41.3862   -8.3178 C   0  0  0  0  0  0  0  0  0  0  0  0
  -19.4633  -41.8515   -8.9952 C   0  0  2  0  0  0  0  0  0  0  0  0
  -18.6144  -42.7331   -8.1746 N   0  0  0  0  0  0  0  0  0  0  0  0
  -19.0742  -43.8827   -7.4860 C   0  0  0  0  0  0  0  0  0  0  0  0
  -18.5776  -43.8639   -6.2674 O   0  0  0  0  0  0  0  0  0  0  0  0
  -19.9296  -45.0294   -7.8015 C   0  0  0  0  0  0  0  0  0  0  0  0
  -21.0564  -45.1581   -8.6106 C   0  0  0  0  0  0  0  0  0  0  0  0
  -21.7118  -46.3835   -8.7485 C   0  0  0  0  0  0  0  0  0  0  0  0
  -21.1842  -47.4882   -8.0341 C   0  0  0  0  0  0  0  0  0  0  0  0
  -20.0894  -47.4301   -7.2285 C   0  0  0  0  0  0  0  0  0  0  0  0
  -19.4888  -46.2215   -7.1261 C   0  0  0  0  0  0  0  0  0  0  0  0
  -19.5792  -48.6055   -6.5061 C   0  0  0  0  0  0  0  0  0  0  0  0
  -19.9081  -49.8621   -6.8024 N   0  0  0  0  0  0  0  0  0  0  0  0
  -19.2790  -50.7074   -5.9624 C   0  0  0  0  0  0  0  0  0  0  0  0
  -18.5417  -49.8787   -5.1307 C   0  0  0  0  0  0  0  0  0  0  0  0
  -18.7558  -48.6374   -5.4967 O   0  0  0  0  0  0  0  0  0  0  0  0
  -22.8835  -46.8320   -9.4918 C   0  0  0  0  0  0  0  0  0  0  0  0
  -22.8357  -48.0157  -10.0550 O   0  0  0  0  0  0  0  0  0  0  0  0
  -18.6947  -40.6661   -9.5289 C   0  0  2  0  0  0  0  0  0  0  0  0
  -18.4171  -40.9164  -10.8997 O   0  0  0  0  0  0  0  0  0  0  0  0
  -17.3956  -40.4773   -8.7796 C   0  0  0  0  0  0  0  0  0  0  0  0
  -17.5226  -40.0237   -7.4423 N   0  0  0  0  0  0  0  0  0  0  0  0
  -17.5885  -38.6397   -7.1778 C   0  0  0  0  0  0  0  0  0  0  0  0
  -18.9702  -38.1821   -6.8787 C   0  0  0  0  0  0  0  0  0  0  0  0
  -19.6601  -38.6738   -5.7652 C   0  0  0  0  0  0  0  0  0  0  0  0
  -20.9375  -38.2774   -5.4644 C   0  0  0  0  0  0  0  0  0  0  0  0
  -21.6004  -37.3594   -6.2683 C   0  0  0  0  0  0  0  0  0  0  0  0
  -20.9439  -36.8641   -7.3650 C   0  0  0  0  0  0  0  0  0  0  0  0
  -19.6402  -37.2804   -7.6564 C   0  0  0  0  0  0  0  0  0  0  0  0
  -21.6791  -38.7904   -4.2805 C   0  0  0  0  0  0  0  0  0  0  0  0
  -21.3672  -40.2829   -4.1191 C   0  0  0  0  0  0  0  0  0  0  0  0
  -21.1559  -38.0853   -3.0506 C   0  0  0  0  0  0  0  0  0  0  0  0
  1  2  1  0
  2  3  1  0
  3  4  1  0
  4  5  1  0
  5  6  1  0
  6  7  1  0
  7  8  1  0
  8  9  1  0
  9 10  1  1
  9 11  1  0
 12 11  1  1
 12 13  1  0
 13 14  1  0
 14 15  2  0
 14 16  1  0
 16 17  2  0
 17 18  1  0
 18 19  2  0
 19 20  1  0
 20 21  2  0
 20 22  1  0
 22 23  2  0
 23 24  1  0
 24 25  2  0
 25 26  1  0
 18 27  1  0
 27 28  2  0
 12 29  1  0
 29 30  1  6
 29 31  1  0
 31 32  1  0
 32 33  1  0
 33 34  1  0
 34 35  2  0
 35 36  1  0
 36 37  2  0
 37 38  1  0
 38 39  2  0
 36 40  1  0
 40 41  1  0
 40 42  1  0
 21 16  1  0
 26 22  1  0
 27  3  1  0
 39 34  1  0
M  END
$$$$
