
     RDKit          3D

 42 45  0  0  0  0  0  0  0  0999 V2000
  -20.5058  -48.6722  -12.5232 C   0  0  0  0  0  0  0  0  0  0  0  0
  -19.4844  -47.7333  -11.9477 C   0  0  0  0  0  0  0  0  0  0  0  0
  -20.0317  -46.7453  -11.0422 N   0  0  0  0  0  0  0  0  0  0  0  0
  -20.7601  -45.6408  -11.6528 C   0  0  0  0  0  0  0  0  0  0  0  0
  -20.0023  -44.8763  -12.6742 C   0  0  0  0  0  0  0  0  0  0  0  0
  -18.8307  -44.0897  -12.1582 C   0  0  0  0  0  0  0  0  0  0  0  0
  -19.3236  -42.7095  -11.7825 C   0  0  0  0  0  0  0  0  0  0  0  0
  -18.1879  -41.8509  -11.2479 C   0  0  0  0  0  0  0  0  0  0  0  0
  -18.8315  -40.6441  -10.6017 C   0  0  1  0  0  0  0  0  0  0  0  0
  -20.0416  -40.2208  -11.4658 C   0  0  0  0  0  0  0  0  0  0  0  0
  -19.3576  -40.9091   -9.2460 C   0  0  0  0  0  0  0  0  0  0  0  0
  -18.3297  -41.1713   -8.2357 C   0  0  2  0  0  0  0  0  0  0  0  0
  -18.8641  -41.5411   -6.9131 N   0  0  0  0  0  0  0  0  0  0  0  0
  -19.8225  -42.5596   -6.6867 C   0  0  0  0  0  0  0  0  0  0  0  0
  -20.7380  -42.0938   -5.8641 O   0  0  0  0  0  0  0  0  0  0  0  0
  -20.0187  -43.9412   -7.1328 C   0  0  0  0  0  0  0  0  0  0  0  0
  -19.7362  -44.5817   -8.3373 C   0  0  0  0  0  0  0  0  0  0  0  0
  -20.0270  -45.9350   -8.5226 C   0  0  0  0  0  0  0  0  0  0  0  0
  -20.6189  -46.6284   -7.4373 C   0  0  0  0  0  0  0  0  0  0  0  0
  -20.9200  -46.0631   -6.2369 C   0  0  0  0  0  0  0  0  0  0  0  0
  -20.6203  -44.7498   -6.1053 C   0  0  0  0  0  0  0  0  0  0  0  0
  -21.5354  -46.8248   -5.1393 C   0  0  0  0  0  0  0  0  0  0  0  0
  -21.2628  -48.1019   -4.8749 N   0  0  0  0  0  0  0  0  0  0  0  0
  -21.9843  -48.5109   -3.8129 C   0  0  0  0  0  0  0  0  0  0  0  0
  -22.7181  -47.3932   -3.4460 C   0  0  0  0  0  0  0  0  0  0  0  0
  -22.4139  -46.4170   -4.2676 O   0  0  0  0  0  0  0  0  0  0  0  0
  -19.8640  -46.8675   -9.6318 C   0  0  0  0  0  0  0  0  0  0  0  0
  -19.4881  -48.0926   -9.3522 O   0  0  0  0  0  0  0  0  0  0  0  0
  -17.3878  -39.9937   -8.1537 C   0  0  2  0  0  0  0  0  0  0  0  0
  -16.3534  -40.2043   -9.1047 O   0  0  0  0  0  0  0  0  0  0  0  0
  -16.7842  -39.8742   -6.7731 C   0  0  0  0  0  0  0  0  0  0  0  0
  -17.7116  -39.8575   -5.7007 N   0  0  0  0  0  0  0  0  0  0  0  0
  -17.8071  -38.7159   -4.8779 C   0  0  0  0  0  0  0  0  0  0  0  0
  -19.1469  -38.0767   -4.9436 C   0  0  0  0  0  0  0  0  0  0  0  0
  -19.2727  -36.6838   -4.9816 C   0  0  0  0  0  0  0  0  0  0  0  0
  -20.4935  -36.0623   -5.0362 C   0  0  0  0  0  0  0  0  0  0  0  0
  -21.6654  -36.8070   -5.0556 C   0  0  0  0  0  0  0  0  0  0  0  0
  -21.5664  -38.1737   -5.0190 C   0  0  0  0  0  0  0  0  0  0  0  0
  -20.3117  -38.7906   -4.9635 C   0  0  0  0  0  0  0  0  0  0  0  0
  -20.6390  -34.5819   -5.0813 C   0  0  0  0  0  0  0  0  0  0  0  0
  -19.2776  -33.9687   -5.4299 C   0  0  0  0  0  0  0  0  0  0  0  0
  -21.5906  -34.2325   -6.2020 C   0  0  0  0  0  0  0  0  0  0  0  0
  1  2  1  0
  2  3  1  0
  3  4  1  0
  4  5  1  0
  5  6  1  0
  6  7  1  0
  7  8  1  0
  8  9  1  0
  9 10  1  6
  9 11  1  0
 12 11  1  6
 12 13  1  0
 13 14  1  0
 14 15  2  0
 14 16  1  0
 16 17  2  0
 17 18  1  0
 18 19  2  0
 19 20  1  0
 20 21  2  0
 20 22  1  0
 22 23  2  0
 23 24  1  0
 24 25  2  0
 25 26  1  0
 18 27  1  0
 27 28  2  0
 12 29  1  0
 29 30  1  6
 29 31  1  0
 31 32  1  0
 32 33  1  0
 33 34  1  0
 34 35  2  0
 35 36  1  0
 36 37  2  0
 37 38  1  0
 38 39  2  0
 36 40  1  0
 40 41  1  0
 40 42  1  0
 21 16  1  0
 26 22  1  0
 27  3  1  0
 39 34  1  0
M  END
$$$$
