
     RDKit          3D

 42 45  0  0  0  0  0  0  0  0999 V2000
  -24.6221  -42.7344  -10.3465 C   0  0  0  0  0  0  0  0  0  0  0  0
  -24.8230  -42.8779   -8.8650 C   0  0  0  0  0  0  0  0  0  0  0  0
  -23.9282  -42.0690   -8.0647 N   0  0  0  0  0  0  0  0  0  0  0  0
  -23.9965  -40.6285   -8.2734 C   0  0  0  0  0  0  0  0  0  0  0  0
  -23.7951  -40.1863   -9.6756 C   0  0  0  0  0  0  0  0  0  0  0  0
  -22.4186  -40.4101  -10.2346 C   0  0  0  0  0  0  0  0  0  0  0  0
  -21.5887  -39.1798   -9.9399 C   0  0  0  0  0  0  0  0  0  0  0  0
  -20.1746  -39.3332  -10.4778 C   0  0  0  0  0  0  0  0  0  0  0  0
  -19.3559  -38.2267   -9.8506 C   0  0  1  0  0  0  0  0  0  0  0  0
  -20.2333  -36.9556   -9.7818 C   0  0  0  0  0  0  0  0  0  0  0  0
  -18.9313  -38.5175   -8.4648 C   0  0  0  0  0  0  0  0  0  0  0  0
  -17.9547  -39.6027   -8.3434 C   0  0  2  0  0  0  0  0  0  0  0  0
  -17.6186  -39.9592   -6.9537 N   0  0  0  0  0  0  0  0  0  0  0  0
  -18.5684  -40.2501   -5.9437 C   0  0  0  0  0  0  0  0  0  0  0  0
  -18.2239  -39.6039   -4.8502 O   0  0  0  0  0  0  0  0  0  0  0  0
  -19.7824  -41.0637   -5.8402 C   0  0  0  0  0  0  0  0  0  0  0  0
  -20.7828  -41.3680   -6.7607 C   0  0  0  0  0  0  0  0  0  0  0  0
  -21.8637  -42.1807   -6.4123 C   0  0  0  0  0  0  0  0  0  0  0  0
  -21.9003  -42.6828   -5.0873 C   0  0  0  0  0  0  0  0  0  0  0  0
  -20.9573  -42.4241   -4.1413 C   0  0  0  0  0  0  0  0  0  0  0  0
  -19.9298  -41.6315   -4.5259 C   0  0  0  0  0  0  0  0  0  0  0  0
  -21.0393  -42.9683   -2.7772 C   0  0  0  0  0  0  0  0  0  0  0  0
  -22.1747  -43.3537   -2.1964 N   0  0  0  0  0  0  0  0  0  0  0  0
  -21.9195  -43.8042   -0.9523 C   0  0  0  0  0  0  0  0  0  0  0  0
  -20.5470  -43.6669   -0.8129 C   0  0  0  0  0  0  0  0  0  0  0  0
  -20.0713  -43.1651   -1.9274 O   0  0  0  0  0  0  0  0  0  0  0  0
  -23.0410  -42.6667   -7.1223 C   0  0  0  0  0  0  0  0  0  0  0  0
  -23.4259  -43.9004   -6.8982 O   0  0  0  0  0  0  0  0  0  0  0  0
  -16.7242  -39.2698   -9.1532 C   0  0  2  0  0  0  0  0  0  0  0  0
  -16.7987  -40.0026  -10.3682 O   0  0  0  0  0  0  0  0  0  0  0  0
  -15.4641  -39.6533   -8.4117 C   0  0  0  0  0  0  0  0  0  0  0  0
  -14.8307  -38.6030   -7.7004 N   0  0  0  0  0  0  0  0  0  0  0  0
  -14.6178  -37.3604   -8.3331 C   0  0  0  0  0  0  0  0  0  0  0  0
  -13.7038  -37.4646   -9.5001 C   0  0  0  0  0  0  0  0  0  0  0  0
  -12.5044  -38.1788   -9.4064 C   0  0  0  0  0  0  0  0  0  0  0  0
  -11.6362  -38.2891  -10.4617 C   0  0  0  0  0  0  0  0  0  0  0  0
  -11.9229  -37.6854  -11.6788 C   0  0  0  0  0  0  0  0  0  0  0  0
  -13.0927  -36.9801  -11.7938 C   0  0  0  0  0  0  0  0  0  0  0  0
  -13.9668  -36.8783  -10.7059 C   0  0  0  0  0  0  0  0  0  0  0  0
  -10.3600  -39.0498  -10.3747 C   0  0  0  0  0  0  0  0  0  0  0  0
   -9.2418  -38.0814   -9.9713 C   0  0  0  0  0  0  0  0  0  0  0  0
  -10.4912  -40.0719   -9.2694 C   0  0  0  0  0  0  0  0  0  0  0  0
  1  2  1  0
  2  3  1  0
  3  4  1  0
  4  5  1  0
  5  6  1  0
  6  7  1  0
  7  8  1  0
  8  9  1  0
  9 10  1  1
  9 11  1  0
 12 11  1  1
 12 13  1  0
 13 14  1  0
 14 15  2  0
 14 16  1  0
 16 17  2  0
 17 18  1  0
 18 19  2  0
 19 20  1  0
 20 21  2  0
 20 22  1  0
 22 23  2  0
 23 24  1  0
 24 25  2  0
 25 26  1  0
 18 27  1  0
 27 28  2  0
 12 29  1  0
 29 30  1  6
 29 31  1  0
 31 32  1  0
 32 33  1  0
 33 34  1  0
 34 35  2  0
 35 36  1  0
 36 37  2  0
 37 38  1  0
 38 39  2  0
 36 40  1  0
 40 41  1  0
 40 42  1  0
 21 16  1  0
 26 22  1  0
 27  3  1  0
 39 34  1  0
M  END
$$$$
