
     RDKit          3D

 42 45  0  0  0  0  0  0  0  0999 V2000
  -25.8609  -43.0207   -9.6864 C   0  0  0  0  0  0  0  0  0  0  0  0
  -24.6332  -42.1992   -9.9578 C   0  0  0  0  0  0  0  0  0  0  0  0
  -23.7284  -42.0965   -8.8324 N   0  0  0  0  0  0  0  0  0  0  0  0
  -23.8266  -40.8831   -8.0316 C   0  0  0  0  0  0  0  0  0  0  0  0
  -23.6742  -39.6160   -8.7889 C   0  0  0  0  0  0  0  0  0  0  0  0
  -22.3113  -39.3686   -9.3711 C   0  0  0  0  0  0  0  0  0  0  0  0
  -21.4934  -38.6175   -8.3434 C   0  0  0  0  0  0  0  0  0  0  0  0
  -20.0936  -38.3303   -8.8635 C   0  0  0  0  0  0  0  0  0  0  0  0
  -19.2749  -37.8927   -7.6692 C   0  0  1  0  0  0  0  0  0  0  0  0
  -20.1707  -37.0158   -6.7642 C   0  0  0  0  0  0  0  0  0  0  0  0
  -18.8047  -39.0155   -6.8307 C   0  0  0  0  0  0  0  0  0  0  0  0
  -17.8072  -39.8762   -7.4712 C   0  0  2  0  0  0  0  0  0  0  0  0
  -17.4242  -41.0537   -6.6724 N   0  0  0  0  0  0  0  0  0  0  0  0
  -18.3387  -41.9715   -6.0994 C   0  0  0  0  0  0  0  0  0  0  0  0
  -17.9725  -42.2025   -4.8566 O   0  0  0  0  0  0  0  0  0  0  0  0
  -19.5355  -42.6874   -6.5483 C   0  0  0  0  0  0  0  0  0  0  0  0
  -20.5577  -42.3364   -7.4274 C   0  0  0  0  0  0  0  0  0  0  0  0
  -21.6142  -43.2098   -7.6941 C   0  0  0  0  0  0  0  0  0  0  0  0
  -21.6032  -44.4651   -7.0360 C   0  0  0  0  0  0  0  0  0  0  0  0
  -20.6369  -44.8689   -6.1675 C   0  0  0  0  0  0  0  0  0  0  0  0
  -19.6345  -43.9883   -5.9406 C   0  0  0  0  0  0  0  0  0  0  0  0
  -20.6694  -46.1832   -5.5077 C   0  0  0  0  0  0  0  0  0  0  0  0
  -20.3591  -46.3814   -4.2273 N   0  0  0  0  0  0  0  0  0  0  0  0
  -20.4861  -47.6884   -3.9252 C   0  0  0  0  0  0  0  0  0  0  0  0
  -20.8962  -48.2763   -5.1120 C   0  0  0  0  0  0  0  0  0  0  0  0
  -20.9899  -47.3366   -6.0223 O   0  0  0  0  0  0  0  0  0  0  0  0
  -22.8039  -43.1400   -8.5343 C   0  0  0  0  0  0  0  0  0  0  0  0
  -23.1616  -44.2235   -9.1813 O   0  0  0  0  0  0  0  0  0  0  0  0
  -16.6069  -39.0509   -7.8698 C   0  0  2  0  0  0  0  0  0  0  0  0
  -17.0862  -37.8838   -8.5231 O   0  0  0  0  0  0  0  0  0  0  0  0
  -15.7060  -39.8185   -8.8098 C   0  0  0  0  0  0  0  0  0  0  0  0
  -14.7927  -40.7082   -8.1896 N   0  0  0  0  0  0  0  0  0  0  0  0
  -13.4138  -40.5979   -8.4657 C   0  0  0  0  0  0  0  0  0  0  0  0
  -13.1453  -40.1598   -9.8599 C   0  0  0  0  0  0  0  0  0  0  0  0
  -12.7959  -38.8336  -10.1369 C   0  0  0  0  0  0  0  0  0  0  0  0
  -12.5478  -38.3953  -11.4121 C   0  0  0  0  0  0  0  0  0  0  0  0
  -12.6369  -39.2673  -12.4890 C   0  0  0  0  0  0  0  0  0  0  0  0
  -12.9779  -40.5717  -12.2413 C   0  0  0  0  0  0  0  0  0  0  0  0
  -13.2275  -41.0011  -10.9332 C   0  0  0  0  0  0  0  0  0  0  0  0
  -12.1712  -36.9883  -11.7179 C   0  0  0  0  0  0  0  0  0  0  0  0
  -11.8914  -36.8744  -13.2211 C   0  0  0  0  0  0  0  0  0  0  0  0
  -13.3567  -36.1025  -11.4120 C   0  0  0  0  0  0  0  0  0  0  0  0
  1  2  1  0
  2  3  1  0
  3  4  1  0
  4  5  1  0
  5  6  1  0
  6  7  1  0
  7  8  1  0
  8  9  1  0
  9 10  1  1
  9 11  1  0
 12 11  1  1
 12 13  1  0
 13 14  1  0
 14 15  2  0
 14 16  1  0
 16 17  2  0
 17 18  1  0
 18 19  2  0
 19 20  1  0
 20 21  2  0
 20 22  1  0
 22 23  2  0
 23 24  1  0
 24 25  2  0
 25 26  1  0
 18 27  1  0
 27 28  2  0
 12 29  1  0
 29 30  1  6
 29 31  1  0
 31 32  1  0
 32 33  1  0
 33 34  1  0
 34 35  2  0
 35 36  1  0
 36 37  2  0
 37 38  1  0
 38 39  2  0
 36 40  1  0
 40 41  1  0
 40 42  1  0
 21 16  1  0
 26 22  1  0
 27  3  1  0
 39 34  1  0
M  END
$$$$
