
     RDKit          3D

 42 45  0  0  0  0  0  0  0  0999 V2000
  -25.0434  -41.4726   -8.8052 C   0  0  0  0  0  0  0  0  0  0  0  0
  -24.7560  -42.7772   -8.1187 C   0  0  0  0  0  0  0  0  0  0  0  0
  -23.4901  -42.8113   -7.4174 N   0  0  0  0  0  0  0  0  0  0  0  0
  -23.4078  -42.0278   -6.1916 C   0  0  0  0  0  0  0  0  0  0  0  0
  -23.7485  -40.5911   -6.3397 C   0  0  0  0  0  0  0  0  0  0  0  0
  -22.7918  -39.7799   -7.1669 C   0  0  0  0  0  0  0  0  0  0  0  0
  -21.7295  -39.2253   -6.2434 C   0  0  0  0  0  0  0  0  0  0  0  0
  -20.7191  -38.3892   -7.0131 C   0  0  0  0  0  0  0  0  0  0  0  0
  -19.5463  -38.1719   -6.0829 C   0  0  1  0  0  0  0  0  0  0  0  0
  -20.0962  -37.9538   -4.6544 C   0  0  0  0  0  0  0  0  0  0  0  0
  -18.6296  -39.3290   -6.0062 C   0  0  0  0  0  0  0  0  0  0  0  0
  -17.8812  -39.5941   -7.2373 C   0  0  2  0  0  0  0  0  0  0  0  0
  -17.0523  -40.8115   -7.1891 N   0  0  0  0  0  0  0  0  0  0  0  0
  -17.5206  -42.0910   -6.8009 C   0  0  0  0  0  0  0  0  0  0  0  0
  -16.6482  -42.6182   -5.9685 O   0  0  0  0  0  0  0  0  0  0  0  0
  -18.6909  -42.9207   -7.0981 C   0  0  0  0  0  0  0  0  0  0  0  0
  -20.0207  -42.5986   -7.3598 C   0  0  0  0  0  0  0  0  0  0  0  0
  -20.9687  -43.5915   -7.6157 C   0  0  0  0  0  0  0  0  0  0  0  0
  -20.5232  -44.9369   -7.5992 C   0  0  0  0  0  0  0  0  0  0  0  0
  -19.2411  -45.3187   -7.3509 C   0  0  0  0  0  0  0  0  0  0  0  0
  -18.3592  -44.3212   -7.1080 C   0  0  0  0  0  0  0  0  0  0  0  0
  -18.8263  -46.7299   -7.3441 C   0  0  0  0  0  0  0  0  0  0  0  0
  -17.6129  -47.1511   -7.6981 N   0  0  0  0  0  0  0  0  0  0  0  0
  -17.5454  -48.4922   -7.5847 C   0  0  0  0  0  0  0  0  0  0  0  0
  -18.8041  -48.8619   -7.1362 C   0  0  0  0  0  0  0  0  0  0  0  0
  -19.5281  -47.7756   -7.0094 O   0  0  0  0  0  0  0  0  0  0  0  0
  -22.3968  -43.5822   -7.9103 C   0  0  0  0  0  0  0  0  0  0  0  0
  -22.8438  -44.4327   -8.8032 O   0  0  0  0  0  0  0  0  0  0  0  0
  -17.0712  -38.3752   -7.6101 C   0  0  2  0  0  0  0  0  0  0  0  0
  -17.5967  -37.8668   -8.8284 O   0  0  0  0  0  0  0  0  0  0  0  0
  -15.6135  -38.7271   -7.7999 C   0  0  0  0  0  0  0  0  0  0  0  0
  -15.2844  -40.0922   -7.6028 N   0  0  0  0  0  0  0  0  0  0  0  0
  -14.3455  -40.7137   -8.4524 C   0  0  0  0  0  0  0  0  0  0  0  0
  -14.3694  -40.1588   -9.8306 C   0  0  0  0  0  0  0  0  0  0  0  0
  -13.5449  -39.0847  -10.1825 C   0  0  0  0  0  0  0  0  0  0  0  0
  -13.5470  -38.5452  -11.4428 C   0  0  0  0  0  0  0  0  0  0  0  0
  -14.3816  -39.0552  -12.4285 C   0  0  0  0  0  0  0  0  0  0  0  0
  -15.1985  -40.1078  -12.1064 C   0  0  0  0  0  0  0  0  0  0  0  0
  -15.1828  -40.6455  -10.8147 C   0  0  0  0  0  0  0  0  0  0  0  0
  -12.6712  -37.4057  -11.8294 C   0  0  0  0  0  0  0  0  0  0  0  0
  -11.3432  -37.9668  -12.3515 C   0  0  0  0  0  0  0  0  0  0  0  0
  -13.3290  -36.6681  -12.9725 C   0  0  0  0  0  0  0  0  0  0  0  0
  1  2  1  0
  2  3  1  0
  3  4  1  0
  4  5  1  0
  5  6  1  0
  6  7  1  0
  7  8  1  0
  8  9  1  0
  9 10  1  1
  9 11  1  0
 12 11  1  1
 12 13  1  0
 13 14  1  0
 14 15  2  0
 14 16  1  0
 16 17  2  0
 17 18  1  0
 18 19  2  0
 19 20  1  0
 20 21  2  0
 20 22  1  0
 22 23  2  0
 23 24  1  0
 24 25  2  0
 25 26  1  0
 18 27  1  0
 27 28  2  0
 12 29  1  0
 29 30  1  6
 29 31  1  0
 31 32  1  0
 32 33  1  0
 33 34  1  0
 34 35  2  0
 35 36  1  0
 36 37  2  0
 37 38  1  0
 38 39  2  0
 36 40  1  0
 40 41  1  0
 40 42  1  0
 21 16  1  0
 26 22  1  0
 27  3  1  0
 39 34  1  0
M  END
$$$$
