
     RDKit          3D

 42 45  0  0  0  0  0  0  0  0999 V2000
  -24.8489  -42.8145  -10.0603 C   0  0  0  0  0  0  0  0  0  0  0  0
  -25.0427  -43.4927   -8.7343 C   0  0  0  0  0  0  0  0  0  0  0  0
  -23.8279  -43.6394   -7.9607 N   0  0  0  0  0  0  0  0  0  0  0  0
  -23.8150  -43.0044   -6.6493 C   0  0  0  0  0  0  0  0  0  0  0  0
  -24.1194  -41.5520   -6.6511 C   0  0  0  0  0  0  0  0  0  0  0  0
  -23.0948  -40.6756   -7.3141 C   0  0  0  0  0  0  0  0  0  0  0  0
  -22.0877  -40.2580   -6.2650 C   0  0  0  0  0  0  0  0  0  0  0  0
  -21.0129  -39.3649   -6.8646 C   0  0  0  0  0  0  0  0  0  0  0  0
  -19.9021  -39.2859   -5.8409 C   0  0  1  0  0  0  0  0  0  0  0  0
  -20.5435  -39.2195   -4.4358 C   0  0  0  0  0  0  0  0  0  0  0  0
  -19.0133  -40.4670   -5.8399 C   0  0  0  0  0  0  0  0  0  0  0  0
  -18.1881  -40.6078   -7.0420 C   0  0  2  0  0  0  0  0  0  0  0  0
  -17.3860  -41.8433   -7.0820 N   0  0  0  0  0  0  0  0  0  0  0  0
  -17.9020  -43.1466   -6.8766 C   0  0  0  0  0  0  0  0  0  0  0  0
  -17.0975  -43.7880   -6.0562 O   0  0  0  0  0  0  0  0  0  0  0  0
  -19.0640  -43.9067   -7.3440 C   0  0  0  0  0  0  0  0  0  0  0  0
  -20.3672  -43.5229   -7.6526 C   0  0  0  0  0  0  0  0  0  0  0  0
  -21.3131  -44.4554   -8.0836 C   0  0  0  0  0  0  0  0  0  0  0  0
  -20.8936  -45.8047   -8.1949 C   0  0  0  0  0  0  0  0  0  0  0  0
  -19.6382  -46.2450   -7.9096 C   0  0  0  0  0  0  0  0  0  0  0  0
  -18.7573  -45.3047   -7.4953 C   0  0  0  0  0  0  0  0  0  0  0  0
  -19.2499  -47.6577   -8.0401 C   0  0  0  0  0  0  0  0  0  0  0  0
  -19.2887  -48.3379   -9.1850 N   0  0  0  0  0  0  0  0  0  0  0  0
  -18.8731  -49.6028   -8.9773 C   0  0  0  0  0  0  0  0  0  0  0  0
  -18.5774  -49.6485   -7.6236 C   0  0  0  0  0  0  0  0  0  0  0  0
  -18.8190  -48.4650   -7.1124 O   0  0  0  0  0  0  0  0  0  0  0  0
  -22.7176  -44.3761   -8.4676 C   0  0  0  0  0  0  0  0  0  0  0  0
  -23.1181  -45.1067   -9.4807 O   0  0  0  0  0  0  0  0  0  0  0  0
  -17.3333  -39.3751   -7.2169 C   0  0  2  0  0  0  0  0  0  0  0  0
  -18.2069  -38.2644   -7.3648 O   0  0  0  0  0  0  0  0  0  0  0  0
  -16.4555  -39.4904   -8.4420 C   0  0  0  0  0  0  0  0  0  0  0  0
  -15.2303  -40.1785   -8.2526 N   0  0  0  0  0  0  0  0  0  0  0  0
  -14.0244  -39.5897   -8.6872 C   0  0  0  0  0  0  0  0  0  0  0  0
  -14.0763  -39.1703  -10.1117 C   0  0  0  0  0  0  0  0  0  0  0  0
  -13.8347  -37.8407  -10.4740 C   0  0  0  0  0  0  0  0  0  0  0  0
  -13.8809  -37.4195  -11.7778 C   0  0  0  0  0  0  0  0  0  0  0  0
  -14.1741  -38.3132  -12.7993 C   0  0  0  0  0  0  0  0  0  0  0  0
  -14.4145  -39.6214  -12.4678 C   0  0  0  0  0  0  0  0  0  0  0  0
  -14.3630  -40.0332  -11.1315 C   0  0  0  0  0  0  0  0  0  0  0  0
  -13.6214  -36.0089  -12.1751 C   0  0  0  0  0  0  0  0  0  0  0  0
  -14.2353  -35.0838  -11.1176 C   0  0  0  0  0  0  0  0  0  0  0  0
  -12.1278  -35.7793  -12.1619 C   0  0  0  0  0  0  0  0  0  0  0  0
  1  2  1  0
  2  3  1  0
  3  4  1  0
  4  5  1  0
  5  6  1  0
  6  7  1  0
  7  8  1  0
  8  9  1  0
  9 10  1  1
  9 11  1  0
 12 11  1  1
 12 13  1  0
 13 14  1  0
 14 15  2  0
 14 16  1  0
 16 17  2  0
 17 18  1  0
 18 19  2  0
 19 20  1  0
 20 21  2  0
 20 22  1  0
 22 23  2  0
 23 24  1  0
 24 25  2  0
 25 26  1  0
 18 27  1  0
 27 28  2  0
 12 29  1  0
 29 30  1  6
 29 31  1  0
 31 32  1  0
 32 33  1  0
 33 34  1  0
 34 35  2  0
 35 36  1  0
 36 37  2  0
 37 38  1  0
 38 39  2  0
 36 40  1  0
 40 41  1  0
 40 42  1  0
 21 16  1  0
 26 22  1  0
 27  3  1  0
 39 34  1  0
M  END
$$$$
