
     RDKit          3D

 42 45  0  0  0  0  0  0  0  0999 V2000
  -24.6309  -42.2075   -9.6906 C   0  0  0  0  0  0  0  0  0  0  0  0
  -24.7437  -42.8990   -8.3620 C   0  0  0  0  0  0  0  0  0  0  0  0
  -23.4868  -43.0363   -7.6570 N   0  0  0  0  0  0  0  0  0  0  0  0
  -23.3011  -42.1807   -6.4923 C   0  0  0  0  0  0  0  0  0  0  0  0
  -23.4642  -40.7279   -6.7471 C   0  0  0  0  0  0  0  0  0  0  0  0
  -22.4209  -40.1033   -7.6297 C   0  0  0  0  0  0  0  0  0  0  0  0
  -21.2925  -39.6166   -6.7470 C   0  0  0  0  0  0  0  0  0  0  0  0
  -20.1924  -38.9697   -7.5740 C   0  0  0  0  0  0  0  0  0  0  0  0
  -18.9957  -38.8300   -6.6594 C   0  0  1  0  0  0  0  0  0  0  0  0
  -19.5053  -38.4414   -5.2524 C   0  0  0  0  0  0  0  0  0  0  0  0
  -18.2272  -40.0819   -6.4951 C   0  0  0  0  0  0  0  0  0  0  0  0
  -17.5250  -40.5268   -7.7014 C   0  0  2  0  0  0  0  0  0  0  0  0
  -16.8512  -41.8298   -7.5613 N   0  0  0  0  0  0  0  0  0  0  0  0
  -17.4701  -43.0100   -7.0807 C   0  0  0  0  0  0  0  0  0  0  0  0
  -16.6633  -43.5775   -6.2094 O   0  0  0  0  0  0  0  0  0  0  0  0
  -18.7351  -43.7096   -7.3185 C   0  0  0  0  0  0  0  0  0  0  0  0
  -20.0172  -43.2470   -7.6067 C   0  0  0  0  0  0  0  0  0  0  0  0
  -21.0814  -44.1323   -7.7908 C   0  0  0  0  0  0  0  0  0  0  0  0
  -20.8039  -45.5174   -7.6738 C   0  0  0  0  0  0  0  0  0  0  0  0
  -19.5766  -46.0341   -7.3947 C   0  0  0  0  0  0  0  0  0  0  0  0
  -18.5775  -45.1371   -7.2240 C   0  0  0  0  0  0  0  0  0  0  0  0
  -19.3378  -47.4812   -7.2825 C   0  0  0  0  0  0  0  0  0  0  0  0
  -18.7264  -48.0569   -6.2481 N   0  0  0  0  0  0  0  0  0  0  0  0
  -18.6615  -49.3889   -6.4416 C   0  0  0  0  0  0  0  0  0  0  0  0
  -19.2765  -49.5875   -7.6682 C   0  0  0  0  0  0  0  0  0  0  0  0
  -19.6608  -48.4201   -8.1263 O   0  0  0  0  0  0  0  0  0  0  0  0
  -22.4995  -43.9697   -8.0888 C   0  0  0  0  0  0  0  0  0  0  0  0
  -23.0532  -44.8225   -8.9175 O   0  0  0  0  0  0  0  0  0  0  0  0
  -16.5743  -39.4473   -8.1614 C   0  0  2  0  0  0  0  0  0  0  0  0
  -17.0296  -38.9843   -9.4251 O   0  0  0  0  0  0  0  0  0  0  0  0
  -15.1677  -39.9830   -8.2996 C   0  0  0  0  0  0  0  0  0  0  0  0
  -14.1324  -39.0731   -7.9669 N   0  0  0  0  0  0  0  0  0  0  0  0
  -13.9087  -37.9423   -8.7800 C   0  0  0  0  0  0  0  0  0  0  0  0
  -13.5996  -38.3049  -10.1874 C   0  0  0  0  0  0  0  0  0  0  0  0
  -13.3383  -37.3135  -11.1394 C   0  0  0  0  0  0  0  0  0  0  0  0
  -13.0560  -37.6134  -12.4471 C   0  0  0  0  0  0  0  0  0  0  0  0
  -13.0195  -38.9332  -12.8774 C   0  0  0  0  0  0  0  0  0  0  0  0
  -13.2725  -39.9215  -11.9619 C   0  0  0  0  0  0  0  0  0  0  0  0
  -13.5589  -39.5964  -10.6314 C   0  0  0  0  0  0  0  0  0  0  0  0
  -12.7723  -36.5675  -13.4671 C   0  0  0  0  0  0  0  0  0  0  0  0
  -13.9745  -35.6187  -13.5398 C   0  0  0  0  0  0  0  0  0  0  0  0
  -11.5864  -35.7567  -12.9982 C   0  0  0  0  0  0  0  0  0  0  0  0
  1  2  1  0
  2  3  1  0
  3  4  1  0
  4  5  1  0
  5  6  1  0
  6  7  1  0
  7  8  1  0
  8  9  1  0
  9 10  1  1
  9 11  1  0
 12 11  1  1
 12 13  1  0
 13 14  1  0
 14 15  2  0
 14 16  1  0
 16 17  2  0
 17 18  1  0
 18 19  2  0
 19 20  1  0
 20 21  2  0
 20 22  1  0
 22 23  2  0
 23 24  1  0
 24 25  2  0
 25 26  1  0
 18 27  1  0
 27 28  2  0
 12 29  1  0
 29 30  1  6
 29 31  1  0
 31 32  1  0
 32 33  1  0
 33 34  1  0
 34 35  2  0
 35 36  1  0
 36 37  2  0
 37 38  1  0
 38 39  2  0
 36 40  1  0
 40 41  1  0
 40 42  1  0
 21 16  1  0
 26 22  1  0
 27  3  1  0
 39 34  1  0
M  END
$$$$
