
     RDKit          3D

 42 45  0  0  0  0  0  0  0  0999 V2000
  -25.4499  -43.6120   -9.3004 C   0  0  0  0  0  0  0  0  0  0  0  0
  -24.2104  -42.8626   -9.6977 C   0  0  0  0  0  0  0  0  0  0  0  0
  -23.1681  -42.8668   -8.6932 N   0  0  0  0  0  0  0  0  0  0  0  0
  -23.3155  -41.9108   -7.6034 C   0  0  0  0  0  0  0  0  0  0  0  0
  -23.4646  -40.4957   -8.0245 C   0  0  0  0  0  0  0  0  0  0  0  0
  -22.2569  -39.8820   -8.6745 C   0  0  0  0  0  0  0  0  0  0  0  0
  -21.4076  -39.2588   -7.5885 C   0  0  0  0  0  0  0  0  0  0  0  0
  -20.1599  -38.6150   -8.1728 C   0  0  0  0  0  0  0  0  0  0  0  0
  -19.2393  -38.3303   -7.0069 C   0  0  1  0  0  0  0  0  0  0  0  0
  -20.1022  -37.8616   -5.8128 C   0  0  0  0  0  0  0  0  0  0  0  0
  -18.4898  -39.5163   -6.5415 C   0  0  0  0  0  0  0  0  0  0  0  0
  -17.4891  -40.0132   -7.4891 C   0  0  2  0  0  0  0  0  0  0  0  0
  -16.8231  -41.2577   -7.0658 N   0  0  0  0  0  0  0  0  0  0  0  0
  -17.4975  -42.4308   -6.6464 C   0  0  0  0  0  0  0  0  0  0  0  0
  -16.9159  -42.8768   -5.5534 O   0  0  0  0  0  0  0  0  0  0  0  0
  -18.6337  -43.2224   -7.1249 C   0  0  0  0  0  0  0  0  0  0  0  0
  -19.8182  -42.8627   -7.7639 C   0  0  0  0  0  0  0  0  0  0  0  0
  -20.7666  -43.8226   -8.1234 C   0  0  0  0  0  0  0  0  0  0  0  0
  -20.4747  -45.1745   -7.8131 C   0  0  0  0  0  0  0  0  0  0  0  0
  -19.3389  -45.5921   -7.1915 C   0  0  0  0  0  0  0  0  0  0  0  0
  -18.4505  -44.6256   -6.8622 C   0  0  0  0  0  0  0  0  0  0  0  0
  -19.0808  -47.0084   -6.8897 C   0  0  0  0  0  0  0  0  0  0  0  0
  -17.9183  -47.6183   -7.1171 N   0  0  0  0  0  0  0  0  0  0  0  0
  -17.9985  -48.9081   -6.7350 C   0  0  0  0  0  0  0  0  0  0  0  0
  -19.2930  -49.0443   -6.2577 C   0  0  0  0  0  0  0  0  0  0  0  0
  -19.8948  -47.8845   -6.3722 O   0  0  0  0  0  0  0  0  0  0  0  0
  -22.0687  -43.7704   -8.7779 C   0  0  0  0  0  0  0  0  0  0  0  0
  -22.3620  -44.7188   -9.6352 O   0  0  0  0  0  0  0  0  0  0  0  0
  -16.4953  -38.9186   -7.7968 C   0  0  2  0  0  0  0  0  0  0  0  0
  -17.2079  -37.6901   -7.8354 O   0  0  0  0  0  0  0  0  0  0  0  0
  -15.8239  -39.1519   -9.1309 C   0  0  0  0  0  0  0  0  0  0  0  0
  -14.5393  -39.7492   -9.0716 N   0  0  0  0  0  0  0  0  0  0  0  0
  -13.3897  -38.9522   -9.2532 C   0  0  0  0  0  0  0  0  0  0  0  0
  -13.4209  -38.1894  -10.5280 C   0  0  0  0  0  0  0  0  0  0  0  0
  -13.2294  -38.8376  -11.7530 C   0  0  0  0  0  0  0  0  0  0  0  0
  -13.2458  -38.1628  -12.9463 C   0  0  0  0  0  0  0  0  0  0  0  0
  -13.4565  -36.7907  -12.9795 C   0  0  0  0  0  0  0  0  0  0  0  0
  -13.6464  -36.1344  -11.7910 C   0  0  0  0  0  0  0  0  0  0  0  0
  -13.6263  -36.8398  -10.5828 C   0  0  0  0  0  0  0  0  0  0  0  0
  -13.0477  -38.8426  -14.2553 C   0  0  0  0  0  0  0  0  0  0  0  0
  -13.7601  -38.0271  -15.3408 C   0  0  0  0  0  0  0  0  0  0  0  0
  -11.5714  -38.8295  -14.5781 C   0  0  0  0  0  0  0  0  0  0  0  0
  1  2  1  0
  2  3  1  0
  3  4  1  0
  4  5  1  0
  5  6  1  0
  6  7  1  0
  7  8  1  0
  8  9  1  0
  9 10  1  1
  9 11  1  0
 12 11  1  1
 12 13  1  0
 13 14  1  0
 14 15  2  0
 14 16  1  0
 16 17  2  0
 17 18  1  0
 18 19  2  0
 19 20  1  0
 20 21  2  0
 20 22  1  0
 22 23  2  0
 23 24  1  0
 24 25  2  0
 25 26  1  0
 18 27  1  0
 27 28  2  0
 12 29  1  0
 29 30  1  6
 29 31  1  0
 31 32  1  0
 32 33  1  0
 33 34  1  0
 34 35  2  0
 35 36  1  0
 36 37  2  0
 37 38  1  0
 38 39  2  0
 36 40  1  0
 40 41  1  0
 40 42  1  0
 21 16  1  0
 26 22  1  0
 27  3  1  0
 39 34  1  0
M  END
$$$$
