
     RDKit          3D

 42 45  0  0  0  0  0  0  0  0999 V2000
  -24.9198  -41.4048   -8.0670 C   0  0  0  0  0  0  0  0  0  0  0  0
  -24.6591  -42.6476   -7.2650 C   0  0  0  0  0  0  0  0  0  0  0  0
  -23.2720  -42.8342   -6.8956 N   0  0  0  0  0  0  0  0  0  0  0  0
  -22.8723  -42.3113   -5.5956 C   0  0  0  0  0  0  0  0  0  0  0  0
  -23.1561  -40.8703   -5.3834 C   0  0  0  0  0  0  0  0  0  0  0  0
  -22.3657  -39.9210   -6.2388 C   0  0  0  0  0  0  0  0  0  0  0  0
  -21.0934  -39.5728   -5.4977 C   0  0  0  0  0  0  0  0  0  0  0  0
  -20.2364  -38.6111   -6.3060 C   0  0  0  0  0  0  0  0  0  0  0  0
  -18.8742  -38.5959   -5.6486 C   0  0  1  0  0  0  0  0  0  0  0  0
  -19.0758  -38.6605   -4.1170 C   0  0  0  0  0  0  0  0  0  0  0  0
  -18.0304  -39.7550   -6.0088 C   0  0  0  0  0  0  0  0  0  0  0  0
  -17.5940  -39.7778   -7.4070 C   0  0  2  0  0  0  0  0  0  0  0  0
  -16.8454  -40.9893   -7.7856 N   0  0  0  0  0  0  0  0  0  0  0  0
  -17.2857  -42.3153   -7.5515 C   0  0  0  0  0  0  0  0  0  0  0  0
  -16.2797  -43.0070   -7.0602 O   0  0  0  0  0  0  0  0  0  0  0  0
  -18.5377  -43.0567   -7.7227 C   0  0  0  0  0  0  0  0  0  0  0  0
  -19.8720  -42.6746   -7.6030 C   0  0  0  0  0  0  0  0  0  0  0  0
  -20.9077  -43.5865   -7.8174 C   0  0  0  0  0  0  0  0  0  0  0  0
  -20.5464  -44.9130   -8.1621 C   0  0  0  0  0  0  0  0  0  0  0  0
  -19.2649  -45.3504   -8.2949 C   0  0  0  0  0  0  0  0  0  0  0  0
  -18.2962  -44.4307   -8.0766 C   0  0  0  0  0  0  0  0  0  0  0  0
  -18.9393  -46.7391   -8.6542 C   0  0  0  0  0  0  0  0  0  0  0  0
  -17.7422  -47.2944   -8.4712 N   0  0  0  0  0  0  0  0  0  0  0  0
  -17.7627  -48.5719   -8.8995 C   0  0  0  0  0  0  0  0  0  0  0  0
  -19.0577  -48.7590   -9.3578 C   0  0  0  0  0  0  0  0  0  0  0  0
  -19.7168  -47.6376   -9.1891 O   0  0  0  0  0  0  0  0  0  0  0  0
  -22.3626  -43.5034   -7.7661 C   0  0  0  0  0  0  0  0  0  0  0  0
  -23.0461  -44.1544   -8.6770 O   0  0  0  0  0  0  0  0  0  0  0  0
  -16.8212  -38.5179   -7.7171 C   0  0  2  0  0  0  0  0  0  0  0  0
  -17.7567  -37.4527   -7.8114 O   0  0  0  0  0  0  0  0  0  0  0  0
  -16.0725  -38.6460   -9.0239 C   0  0  0  0  0  0  0  0  0  0  0  0
  -14.6918  -38.9473   -8.9094 N   0  0  0  0  0  0  0  0  0  0  0  0
  -14.1740  -40.0991   -9.5380 C   0  0  0  0  0  0  0  0  0  0  0  0
  -14.0670  -39.9442  -11.0119 C   0  0  0  0  0  0  0  0  0  0  0  0
  -13.8662  -38.6837  -11.5849 C   0  0  0  0  0  0  0  0  0  0  0  0
  -13.7693  -38.5052  -12.9408 C   0  0  0  0  0  0  0  0  0  0  0  0
  -13.8691  -39.5875  -13.8050 C   0  0  0  0  0  0  0  0  0  0  0  0
  -14.0661  -40.8324  -13.2659 C   0  0  0  0  0  0  0  0  0  0  0  0
  -14.1625  -40.9954  -11.8795 C   0  0  0  0  0  0  0  0  0  0  0  0
  -13.5515  -37.1700  -13.5608 C   0  0  0  0  0  0  0  0  0  0  0  0
  -14.4823  -36.1590  -12.8808 C   0  0  0  0  0  0  0  0  0  0  0  0
  -12.1318  -36.7392  -13.2735 C   0  0  0  0  0  0  0  0  0  0  0  0
  1  2  1  0
  2  3  1  0
  3  4  1  0
  4  5  1  0
  5  6  1  0
  6  7  1  0
  7  8  1  0
  8  9  1  0
  9 10  1  1
  9 11  1  0
 12 11  1  1
 12 13  1  0
 13 14  1  0
 14 15  2  0
 14 16  1  0
 16 17  2  0
 17 18  1  0
 18 19  2  0
 19 20  1  0
 20 21  2  0
 20 22  1  0
 22 23  2  0
 23 24  1  0
 24 25  2  0
 25 26  1  0
 18 27  1  0
 27 28  2  0
 12 29  1  0
 29 30  1  6
 29 31  1  0
 31 32  1  0
 32 33  1  0
 33 34  1  0
 34 35  2  0
 35 36  1  0
 36 37  2  0
 37 38  1  0
 38 39  2  0
 36 40  1  0
 40 41  1  0
 40 42  1  0
 21 16  1  0
 26 22  1  0
 27  3  1  0
 39 34  1  0
M  END
$$$$
