
     RDKit          3D

 42 45  0  0  0  0  0  0  0  0999 V2000
  -24.6252  -44.9936   -9.8292 C   0  0  0  0  0  0  0  0  0  0  0  0
  -24.0369  -45.1910   -8.4615 C   0  0  0  0  0  0  0  0  0  0  0  0
  -23.4789  -43.9897   -7.8775 N   0  0  0  0  0  0  0  0  0  0  0  0
  -23.7248  -42.7462   -8.5961 C   0  0  0  0  0  0  0  0  0  0  0  0
  -23.2913  -42.7440  -10.0154 C   0  0  0  0  0  0  0  0  0  0  0  0
  -21.8077  -42.8216  -10.2402 C   0  0  0  0  0  0  0  0  0  0  0  0
  -21.2670  -41.4092  -10.2829 C   0  0  0  0  0  0  0  0  0  0  0  0
  -19.7630  -41.4068  -10.5077 C   0  0  0  0  0  0  0  0  0  0  0  0
  -19.2868  -40.0041  -10.2014 C   0  0  1  0  0  0  0  0  0  0  0  0
  -20.3462  -39.0084  -10.7272 C   0  0  0  0  0  0  0  0  0  0  0  0
  -19.1379  -39.7322   -8.7561 C   0  0  0  0  0  0  0  0  0  0  0  0
  -18.0541  -40.4737   -8.1067 C   0  0  2  0  0  0  0  0  0  0  0  0
  -17.9809  -40.2808   -6.6476 N   0  0  0  0  0  0  0  0  0  0  0  0
  -19.0723  -40.4368   -5.7579 C   0  0  0  0  0  0  0  0  0  0  0  0
  -19.0831  -39.4142   -4.9296 O   0  0  0  0  0  0  0  0  0  0  0  0
  -20.1360  -41.4238   -5.5563 C   0  0  0  0  0  0  0  0  0  0  0  0
  -20.8484  -42.2229   -6.4478 C   0  0  0  0  0  0  0  0  0  0  0  0
  -21.8381  -43.1007   -6.0006 C   0  0  0  0  0  0  0  0  0  0  0  0
  -22.0866  -43.1459   -4.6059 C   0  0  0  0  0  0  0  0  0  0  0  0
  -21.4279  -42.3934   -3.6834 C   0  0  0  0  0  0  0  0  0  0  0  0
  -20.4785  -41.5576   -4.1648 C   0  0  0  0  0  0  0  0  0  0  0  0
  -21.7221  -42.4750   -2.2445 C   0  0  0  0  0  0  0  0  0  0  0  0
  -20.8274  -42.2352   -1.2868 N   0  0  0  0  0  0  0  0  0  0  0  0
  -21.4017  -42.3919   -0.0778 C   0  0  0  0  0  0  0  0  0  0  0  0
  -22.7116  -42.7448   -0.3637 C   0  0  0  0  0  0  0  0  0  0  0  0
  -22.8500  -42.7802   -1.6675 O   0  0  0  0  0  0  0  0  0  0  0  0
  -22.7387  -44.0390   -6.6601 C   0  0  0  0  0  0  0  0  0  0  0  0
  -22.9649  -45.1887   -6.0705 O   0  0  0  0  0  0  0  0  0  0  0  0
  -16.7433  -40.1520   -8.7842 C   0  0  2  0  0  0  0  0  0  0  0  0
  -15.6983  -40.5931   -7.9286 O   0  0  0  0  0  0  0  0  0  0  0  0
  -16.6038  -38.6659   -9.0226 C   0  0  0  0  0  0  0  0  0  0  0  0
  -16.0319  -37.9275   -7.9557 N   0  0  0  0  0  0  0  0  0  0  0  0
  -14.8009  -37.2656   -8.1457 C   0  0  0  0  0  0  0  0  0  0  0  0
  -14.6604  -36.7061   -9.5150 C   0  0  0  0  0  0  0  0  0  0  0  0
  -13.5798  -37.0677  -10.3269 C   0  0  0  0  0  0  0  0  0  0  0  0
  -13.4171  -36.5654  -11.5921 C   0  0  0  0  0  0  0  0  0  0  0  0
  -14.3345  -35.6658  -12.1187 C   0  0  0  0  0  0  0  0  0  0  0  0
  -15.4014  -35.2969  -11.3410 C   0  0  0  0  0  0  0  0  0  0  0  0
  -15.5511  -35.8200  -10.0519 C   0  0  0  0  0  0  0  0  0  0  0  0
  -12.2742  -36.9463  -12.4659 C   0  0  0  0  0  0  0  0  0  0  0  0
  -12.7940  -37.8712  -13.5728 C   0  0  0  0  0  0  0  0  0  0  0  0
  -11.7496  -35.6959  -13.1331 C   0  0  0  0  0  0  0  0  0  0  0  0
  1  2  1  0
  2  3  1  0
  3  4  1  0
  4  5  1  0
  5  6  1  0
  6  7  1  0
  7  8  1  0
  8  9  1  0
  9 10  1  1
  9 11  1  0
 12 11  1  6
 12 13  1  0
 13 14  1  0
 14 15  2  0
 14 16  1  0
 16 17  2  0
 17 18  1  0
 18 19  2  0
 19 20  1  0
 20 21  2  0
 20 22  1  0
 22 23  2  0
 23 24  1  0
 24 25  2  0
 25 26  1  0
 18 27  1  0
 27 28  2  0
 12 29  1  0
 29 30  1  1
 29 31  1  0
 31 32  1  0
 32 33  1  0
 33 34  1  0
 34 35  2  0
 35 36  1  0
 36 37  2  0
 37 38  1  0
 38 39  2  0
 36 40  1  0
 40 41  1  0
 40 42  1  0
 21 16  1  0
 26 22  1  0
 27  3  1  0
 39 34  1  0
M  END
$$$$
