
     RDKit          3D

 42 45  0  0  0  0  0  0  0  0999 V2000
  -14.3623  -45.3778  -13.9080 C   0  0  0  0  0  0  0  0  0  0  0  0
  -14.1834  -44.8387  -12.5176 C   0  0  0  0  0  0  0  0  0  0  0  0
  -15.4119  -44.4005  -11.8895 N   0  0  0  0  0  0  0  0  0  0  0  0
  -16.0848  -43.2646  -12.5062 C   0  0  0  0  0  0  0  0  0  0  0  0
  -15.2513  -42.0460  -12.6565 C   0  0  0  0  0  0  0  0  0  0  0  0
  -14.8475  -41.3746  -11.3744 C   0  0  0  0  0  0  0  0  0  0  0  0
  -15.9122  -40.3586  -11.0234 C   0  0  0  0  0  0  0  0  0  0  0  0
  -15.5715  -39.6352   -9.7298 C   0  0  0  0  0  0  0  0  0  0  0  0
  -16.8274  -38.9084   -9.3025 C   0  0  1  0  0  0  0  0  0  0  0  0
  -17.5196  -38.3539  -10.5688 C   0  0  0  0  0  0  0  0  0  0  0  0
  -17.8161  -39.7794   -8.6326 C   0  0  0  0  0  0  0  0  0  0  0  0
  -17.3977  -40.2758   -7.3193 C   0  0  2  0  0  0  0  0  0  0  0  0
  -18.3397  -41.2288   -6.7064 N   0  0  0  0  0  0  0  0  0  0  0  0
  -18.8545  -42.3809   -7.3504 C   0  0  0  0  0  0  0  0  0  0  0  0
  -20.1515  -42.4339   -7.1338 O   0  0  0  0  0  0  0  0  0  0  0  0
  -18.3044  -43.4718   -8.1589 C   0  0  0  0  0  0  0  0  0  0  0  0
  -17.2637  -43.5142   -9.0841 C   0  0  0  0  0  0  0  0  0  0  0  0
  -16.9266  -44.7001   -9.7398 C   0  0  0  0  0  0  0  0  0  0  0  0
  -17.6841  -45.8561   -9.4253 C   0  0  0  0  0  0  0  0  0  0  0  0
  -18.7109  -45.8826   -8.5332 C   0  0  0  0  0  0  0  0  0  0  0  0
  -19.0007  -44.7093   -7.9238 C   0  0  0  0  0  0  0  0  0  0  0  0
  -19.4690  -47.1086   -8.2402 C   0  0  0  0  0  0  0  0  0  0  0  0
  -19.5222  -47.6819   -7.0387 N   0  0  0  0  0  0  0  0  0  0  0  0
  -20.2946  -48.7847   -7.0943 C   0  0  0  0  0  0  0  0  0  0  0  0
  -20.7103  -48.8457   -8.4155 C   0  0  0  0  0  0  0  0  0  0  0  0
  -20.1909  -47.8249   -9.0548 O   0  0  0  0  0  0  0  0  0  0  0  0
  -15.9246  -45.0622  -10.7355 C   0  0  0  0  0  0  0  0  0  0  0  0
  -15.3283  -46.2238  -10.6106 O   0  0  0  0  0  0  0  0  0  0  0  0
  -17.1030  -39.1089   -6.4070 C   0  0  2  0  0  0  0  0  0  0  0  0
  -15.9436  -39.4353   -5.6534 O   0  0  0  0  0  0  0  0  0  0  0  0
  -18.2569  -38.8484   -5.4661 C   0  0  0  0  0  0  0  0  0  0  0  0
  -18.2572  -39.6153   -4.2735 N   0  0  0  0  0  0  0  0  0  0  0  0
  -19.3211  -40.5050   -4.0158 C   0  0  0  0  0  0  0  0  0  0  0  0
  -20.4978  -40.2536   -4.8876 C   0  0  0  0  0  0  0  0  0  0  0  0
  -20.4902  -39.2036   -5.8123 C   0  0  0  0  0  0  0  0  0  0  0  0
  -21.5611  -38.9406   -6.6269 C   0  0  0  0  0  0  0  0  0  0  0  0
  -22.7082  -39.7203   -6.5601 C   0  0  0  0  0  0  0  0  0  0  0  0
  -22.7382  -40.7548   -5.6611 C   0  0  0  0  0  0  0  0  0  0  0  0
  -21.6357  -41.0082   -4.8378 C   0  0  0  0  0  0  0  0  0  0  0  0
  -21.5624  -37.8294   -7.6170 C   0  0  0  0  0  0  0  0  0  0  0  0
  -20.8122  -38.2932   -8.8711 C   0  0  0  0  0  0  0  0  0  0  0  0
  -22.9924  -37.5569   -8.0225 C   0  0  0  0  0  0  0  0  0  0  0  0
  1  2  1  0
  2  3  1  0
  3  4  1  0
  4  5  1  0
  5  6  1  0
  6  7  1  0
  7  8  1  0
  8  9  1  0
  9 10  1  6
  9 11  1  0
 12 11  1  6
 12 13  1  0
 13 14  1  0
 14 15  2  0
 14 16  1  0
 16 17  2  0
 17 18  1  0
 18 19  2  0
 19 20  1  0
 20 21  2  0
 20 22  1  0
 22 23  2  0
 23 24  1  0
 24 25  2  0
 25 26  1  0
 18 27  1  0
 27 28  2  0
 12 29  1  0
 29 30  1  1
 29 31  1  0
 31 32  1  0
 32 33  1  0
 33 34  1  0
 34 35  2  0
 35 36  1  0
 36 37  2  0
 37 38  1  0
 38 39  2  0
 36 40  1  0
 40 41  1  0
 40 42  1  0
 21 16  1  0
 26 22  1  0
 27  3  1  0
 39 34  1  0
M  END
$$$$
