
     RDKit          3D

 42 45  0  0  0  0  0  0  0  0999 V2000
  -24.8738  -44.3351   -7.6505 C   0  0  0  0  0  0  0  0  0  0  0  0
  -24.1496  -45.4485   -6.9493 C   0  0  0  0  0  0  0  0  0  0  0  0
  -22.7245  -45.2344   -6.8120 N   0  0  0  0  0  0  0  0  0  0  0  0
  -22.2316  -45.0055   -5.4600 C   0  0  0  0  0  0  0  0  0  0  0  0
  -22.8798  -43.8840   -4.7360 C   0  0  0  0  0  0  0  0  0  0  0  0
  -22.6093  -42.5132   -5.2884 C   0  0  0  0  0  0  0  0  0  0  0  0
  -21.3714  -41.9711   -4.6080 C   0  0  0  0  0  0  0  0  0  0  0  0
  -21.0325  -40.5794   -5.1190 C   0  0  0  0  0  0  0  0  0  0  0  0
  -19.6295  -40.2780   -4.6409 C   0  0  1  0  0  0  0  0  0  0  0  0
  -19.4717  -40.8506   -3.2134 C   0  0  0  0  0  0  0  0  0  0  0  0
  -18.5757  -40.9087   -5.4635 C   0  0  0  0  0  0  0  0  0  0  0  0
  -18.4605  -40.3701   -6.8210 C   0  0  2  0  0  0  0  0  0  0  0  0
  -17.4836  -41.0757   -7.6691 N   0  0  0  0  0  0  0  0  0  0  0  0
  -17.4484  -42.4787   -7.8623 C   0  0  0  0  0  0  0  0  0  0  0  0
  -16.2016  -42.8834   -7.7462 O   0  0  0  0  0  0  0  0  0  0  0  0
  -18.4290  -43.5289   -8.1485 C   0  0  0  0  0  0  0  0  0  0  0  0
  -19.7590  -43.6924   -7.7675 C   0  0  0  0  0  0  0  0  0  0  0  0
  -20.4966  -44.8058   -8.1752 C   0  0  0  0  0  0  0  0  0  0  0  0
  -19.8386  -45.7597   -8.9913 C   0  0  0  0  0  0  0  0  0  0  0  0
  -18.5441  -45.6602   -9.3982 C   0  0  0  0  0  0  0  0  0  0  0  0
  -17.8702  -44.5645   -8.9774 C   0  0  0  0  0  0  0  0  0  0  0  0
  -17.9039  -46.6778  -10.2457 C   0  0  0  0  0  0  0  0  0  0  0  0
  -17.8682  -47.9767   -9.9513 N   0  0  0  0  0  0  0  0  0  0  0  0
  -17.2133  -48.6454  -10.9208 C   0  0  0  0  0  0  0  0  0  0  0  0
  -16.8506  -47.6631  -11.8296 C   0  0  0  0  0  0  0  0  0  0  0  0
  -17.2857  -46.5102  -11.3804 O   0  0  0  0  0  0  0  0  0  0  0  0
  -21.8643  -45.2580   -7.9487 C   0  0  0  0  0  0  0  0  0  0  0  0
  -22.5003  -45.8134   -8.9525 O   0  0  0  0  0  0  0  0  0  0  0  0
  -18.1828  -38.8871   -6.7557 C   0  0  2  0  0  0  0  0  0  0  0  0
  -19.2743  -38.2752   -6.0829 O   0  0  0  0  0  0  0  0  0  0  0  0
  -18.0515  -38.2962   -8.1407 C   0  0  0  0  0  0  0  0  0  0  0  0
  -16.9574  -38.7727   -8.9065 N   0  0  0  0  0  0  0  0  0  0  0  0
  -16.4873  -38.0148   -9.9993 C   0  0  0  0  0  0  0  0  0  0  0  0
  -17.3763  -38.1140  -11.1858 C   0  0  0  0  0  0  0  0  0  0  0  0
  -18.2008  -37.0446  -11.5520 C   0  0  0  0  0  0  0  0  0  0  0  0
  -19.0369  -37.1057  -12.6367 C   0  0  0  0  0  0  0  0  0  0  0  0
  -19.0946  -38.2501  -13.4211 C   0  0  0  0  0  0  0  0  0  0  0  0
  -18.2955  -39.3108  -13.0811 C   0  0  0  0  0  0  0  0  0  0  0  0
  -17.4483  -39.2303  -11.9704 C   0  0  0  0  0  0  0  0  0  0  0  0
  -19.9149  -35.9730  -13.0379 C   0  0  0  0  0  0  0  0  0  0  0  0
  -20.6371  -35.4505  -11.7904 C   0  0  0  0  0  0  0  0  0  0  0  0
  -19.0400  -34.8540  -13.5536 C   0  0  0  0  0  0  0  0  0  0  0  0
  1  2  1  0
  2  3  1  0
  3  4  1  0
  4  5  1  0
  5  6  1  0
  6  7  1  0
  7  8  1  0
  8  9  1  0
  9 10  1  1
  9 11  1  0
 12 11  1  1
 12 13  1  0
 13 14  1  0
 14 15  2  0
 14 16  1  0
 16 17  2  0
 17 18  1  0
 18 19  2  0
 19 20  1  0
 20 21  2  0
 20 22  1  0
 22 23  2  0
 23 24  1  0
 24 25  2  0
 25 26  1  0
 18 27  1  0
 27 28  2  0
 12 29  1  0
 29 30  1  6
 29 31  1  0
 31 32  1  0
 32 33  1  0
 33 34  1  0
 34 35  2  0
 35 36  1  0
 36 37  2  0
 37 38  1  0
 38 39  2  0
 36 40  1  0
 40 41  1  0
 40 42  1  0
 21 16  1  0
 26 22  1  0
 27  3  1  0
 39 34  1  0
M  END
$$$$
