
     RDKit          3D

 42 45  0  0  0  0  0  0  0  0999 V2000
  -26.7495  -41.8159   -7.9265 C   0  0  0  0  0  0  0  0  0  0  0  0
  -25.3304  -42.0016   -8.3820 C   0  0  0  0  0  0  0  0  0  0  0  0
  -24.3460  -41.3800   -7.5218 N   0  0  0  0  0  0  0  0  0  0  0  0
  -24.3436  -39.9232   -7.4880 C   0  0  0  0  0  0  0  0  0  0  0  0
  -24.1985  -39.2640   -8.8096 C   0  0  0  0  0  0  0  0  0  0  0  0
  -22.8716  -39.4563   -9.4878 C   0  0  0  0  0  0  0  0  0  0  0  0
  -21.9569  -38.3324   -9.0524 C   0  0  0  0  0  0  0  0  0  0  0  0
  -20.5873  -38.4607   -9.7008 C   0  0  0  0  0  0  0  0  0  0  0  0
  -19.6717  -37.5135   -8.9574 C   0  0  1  0  0  0  0  0  0  0  0  0
  -20.4694  -36.2317   -8.6244 C   0  0  0  0  0  0  0  0  0  0  0  0
  -19.1852  -38.0502   -7.6689 C   0  0  0  0  0  0  0  0  0  0  0  0
  -18.2670  -39.1851   -7.7911 C   0  0  2  0  0  0  0  0  0  0  0  0
  -17.8722  -39.7831   -6.5034 N   0  0  0  0  0  0  0  0  0  0  0  0
  -18.7772  -40.1928   -5.4934 C   0  0  0  0  0  0  0  0  0  0  0  0
  -18.3337  -39.7543   -4.3346 O   0  0  0  0  0  0  0  0  0  0  0  0
  -20.0279  -40.9543   -5.4435 C   0  0  0  0  0  0  0  0  0  0  0  0
  -21.0955  -41.0540   -6.3328 C   0  0  0  0  0  0  0  0  0  0  0  0
  -22.1992  -41.8616   -6.0504 C   0  0  0  0  0  0  0  0  0  0  0  0
  -22.1880  -42.5746   -4.8255 C   0  0  0  0  0  0  0  0  0  0  0  0
  -21.1787  -42.5214   -3.9147 C   0  0  0  0  0  0  0  0  0  0  0  0
  -20.1314  -41.7250   -4.2324 C   0  0  0  0  0  0  0  0  0  0  0  0
  -21.2128  -43.2803   -2.6551 C   0  0  0  0  0  0  0  0  0  0  0  0
  -20.4024  -43.0478   -1.6236 N   0  0  0  0  0  0  0  0  0  0  0  0
  -20.6810  -43.9065   -0.6232 C   0  0  0  0  0  0  0  0  0  0  0  0
  -21.7197  -44.6814   -1.1160 C   0  0  0  0  0  0  0  0  0  0  0  0
  -21.9981  -44.2677   -2.3291 O   0  0  0  0  0  0  0  0  0  0  0  0
  -23.4415  -42.1669   -6.7503 C   0  0  0  0  0  0  0  0  0  0  0  0
  -23.8829  -43.4013   -6.7052 O   0  0  0  0  0  0  0  0  0  0  0  0
  -17.0683  -38.7805   -8.6157 C   0  0  2  0  0  0  0  0  0  0  0  0
  -17.5175  -38.5562   -9.9448 O   0  0  0  0  0  0  0  0  0  0  0  0
  -16.0169  -39.8664   -8.6174 C   0  0  0  0  0  0  0  0  0  0  0  0
  -14.6993  -39.4409   -8.3117 N   0  0  0  0  0  0  0  0  0  0  0  0
  -13.6249  -40.3450   -8.4455 C   0  0  0  0  0  0  0  0  0  0  0  0
  -13.0037  -40.2958   -9.7944 C   0  0  0  0  0  0  0  0  0  0  0  0
  -12.2183  -39.2039  -10.1796 C   0  0  0  0  0  0  0  0  0  0  0  0
  -11.6362  -39.1244  -11.4184 C   0  0  0  0  0  0  0  0  0  0  0  0
  -11.8099  -40.1416  -12.3475 C   0  0  0  0  0  0  0  0  0  0  0  0
  -12.5758  -41.2215  -11.9920 C   0  0  0  0  0  0  0  0  0  0  0  0
  -13.1621  -41.2854  -10.7231 C   0  0  0  0  0  0  0  0  0  0  0  0
  -10.7954  -37.9700  -11.8372 C   0  0  0  0  0  0  0  0  0  0  0  0
  -10.1804  -38.2861  -13.2057 C   0  0  0  0  0  0  0  0  0  0  0  0
  -11.6938  -36.7679  -12.0140 C   0  0  0  0  0  0  0  0  0  0  0  0
  1  2  1  0
  2  3  1  0
  3  4  1  0
  4  5  1  0
  5  6  1  0
  6  7  1  0
  7  8  1  0
  8  9  1  0
  9 10  1  1
  9 11  1  0
 12 11  1  1
 12 13  1  0
 13 14  1  0
 14 15  2  0
 14 16  1  0
 16 17  2  0
 17 18  1  0
 18 19  2  0
 19 20  1  0
 20 21  2  0
 20 22  1  0
 22 23  2  0
 23 24  1  0
 24 25  2  0
 25 26  1  0
 18 27  1  0
 27 28  2  0
 12 29  1  0
 29 30  1  6
 29 31  1  0
 31 32  1  0
 32 33  1  0
 33 34  1  0
 34 35  2  0
 35 36  1  0
 36 37  2  0
 37 38  1  0
 38 39  2  0
 36 40  1  0
 40 41  1  0
 40 42  1  0
 21 16  1  0
 26 22  1  0
 27  3  1  0
 39 34  1  0
M  END
$$$$
