
     RDKit          3D

 42 45  0  0  0  0  0  0  0  0999 V2000
  -18.0833  -50.1721   -9.4215 C   0  0  0  0  0  0  0  0  0  0  0  0
  -17.7275  -49.1606   -8.3697 C   0  0  0  0  0  0  0  0  0  0  0  0
  -18.3721  -47.8758   -8.5412 N   0  0  0  0  0  0  0  0  0  0  0  0
  -18.3076  -47.2922   -9.8748 C   0  0  0  0  0  0  0  0  0  0  0  0
  -16.9391  -47.1340  -10.4263 C   0  0  0  0  0  0  0  0  0  0  0  0
  -16.0678  -46.1332   -9.7215 C   0  0  0  0  0  0  0  0  0  0  0  0
  -16.2721  -44.7879  -10.3829 C   0  0  0  0  0  0  0  0  0  0  0  0
  -15.4189  -43.7180   -9.7195 C   0  0  0  0  0  0  0  0  0  0  0  0
  -15.9379  -42.3873  -10.2173 C   0  0  1  0  0  0  0  0  0  0  0  0
  -16.3103  -42.5414  -11.7099 C   0  0  0  0  0  0  0  0  0  0  0  0
  -17.1626  -41.9335   -9.5251 C   0  0  0  0  0  0  0  0  0  0  0  0
  -16.9683  -41.5756   -8.1180 C   0  0  2  0  0  0  0  0  0  0  0  0
  -18.2112  -41.2288   -7.4064 N   0  0  0  0  0  0  0  0  0  0  0  0
  -19.3804  -42.0286   -7.3892 C   0  0  0  0  0  0  0  0  0  0  0  0
  -20.4194  -41.2511   -7.6083 O   0  0  0  0  0  0  0  0  0  0  0  0
  -19.6846  -43.4482   -7.1923 C   0  0  0  0  0  0  0  0  0  0  0  0
  -18.9901  -44.6069   -7.5325 C   0  0  0  0  0  0  0  0  0  0  0  0
  -19.5021  -45.8713   -7.2335 C   0  0  0  0  0  0  0  0  0  0  0  0
  -20.7536  -45.9269   -6.5705 C   0  0  0  0  0  0  0  0  0  0  0  0
  -21.4818  -44.8353   -6.2110 C   0  0  0  0  0  0  0  0  0  0  0  0
  -20.9450  -43.6325   -6.5224 C   0  0  0  0  0  0  0  0  0  0  0  0
  -22.7779  -44.9438   -5.5239 C   0  0  0  0  0  0  0  0  0  0  0  0
  -23.9523  -44.9838   -6.1517 N   0  0  0  0  0  0  0  0  0  0  0  0
  -24.9478  -45.0848   -5.2490 C   0  0  0  0  0  0  0  0  0  0  0  0
  -24.2989  -45.1037   -4.0240 C   0  0  0  0  0  0  0  0  0  0  0  0
  -23.0087  -45.0172   -4.2436 O   0  0  0  0  0  0  0  0  0  0  0  0
  -19.0363  -47.2353   -7.4545 C   0  0  0  0  0  0  0  0  0  0  0  0
  -19.2352  -48.1129   -6.5001 O   0  0  0  0  0  0  0  0  0  0  0  0
  -15.9339  -40.4804   -8.0120 C   0  0  2  0  0  0  0  0  0  0  0  0
  -15.3323  -40.5807   -6.7288 O   0  0  0  0  0  0  0  0  0  0  0  0
  -16.5673  -39.1164   -8.1645 C   0  0  0  0  0  0  0  0  0  0  0  0
  -16.2850  -38.1927   -7.1265 N   0  0  0  0  0  0  0  0  0  0  0  0
  -17.2870  -37.8695   -6.1878 C   0  0  0  0  0  0  0  0  0  0  0  0
  -18.6521  -37.9165   -6.7728 C   0  0  0  0  0  0  0  0  0  0  0  0
  -19.7657  -38.1777   -5.9671 C   0  0  0  0  0  0  0  0  0  0  0  0
  -21.0376  -38.2342   -6.4759 C   0  0  0  0  0  0  0  0  0  0  0  0
  -21.2666  -38.0311   -7.8304 C   0  0  0  0  0  0  0  0  0  0  0  0
  -20.1902  -37.7737   -8.6391 C   0  0  0  0  0  0  0  0  0  0  0  0
  -18.8992  -37.7198   -8.1021 C   0  0  0  0  0  0  0  0  0  0  0  0
  -22.2297  -38.5069   -5.6278 C   0  0  0  0  0  0  0  0  0  0  0  0
  -22.6499  -37.2008   -4.9432 C   0  0  0  0  0  0  0  0  0  0  0  0
  -23.3668  -38.9290   -6.5291 C   0  0  0  0  0  0  0  0  0  0  0  0
  1  2  1  0
  2  3  1  0
  3  4  1  0
  4  5  1  0
  5  6  1  0
  6  7  1  0
  7  8  1  0
  8  9  1  0
  9 10  1  6
  9 11  1  0
 12 11  1  6
 12 13  1  0
 13 14  1  0
 14 15  2  0
 14 16  1  0
 16 17  2  0
 17 18  1  0
 18 19  2  0
 19 20  1  0
 20 21  2  0
 20 22  1  0
 22 23  2  0
 23 24  1  0
 24 25  2  0
 25 26  1  0
 18 27  1  0
 27 28  2  0
 12 29  1  0
 29 30  1  1
 29 31  1  0
 31 32  1  0
 32 33  1  0
 33 34  1  0
 34 35  2  0
 35 36  1  0
 36 37  2  0
 37 38  1  0
 38 39  2  0
 36 40  1  0
 40 41  1  0
 40 42  1  0
 21 16  1  0
 26 22  1  0
 27  3  1  0
 39 34  1  0
M  END
$$$$
