
     RDKit          3D

 42 45  0  0  0  0  0  0  0  0999 V2000
  -25.3306  -43.8987   -7.0341 C   0  0  0  0  0  0  0  0  0  0  0  0
  -24.4181  -42.8017   -7.5029 C   0  0  0  0  0  0  0  0  0  0  0  0
  -23.0752  -42.8790   -6.9680 N   0  0  0  0  0  0  0  0  0  0  0  0
  -22.8082  -42.0897   -5.7726 C   0  0  0  0  0  0  0  0  0  0  0  0
  -23.1113  -40.6421   -5.8945 C   0  0  0  0  0  0  0  0  0  0  0  0
  -22.2385  -39.8749   -6.8469 C   0  0  0  0  0  0  0  0  0  0  0  0
  -21.0471  -39.3543   -6.0730 C   0  0  0  0  0  0  0  0  0  0  0  0
  -20.1128  -38.5638   -6.9756 C   0  0  0  0  0  0  0  0  0  0  0  0
  -18.8236  -38.3845   -6.2048 C   0  0  1  0  0  0  0  0  0  0  0  0
  -19.1784  -38.1341   -4.7210 C   0  0  0  0  0  0  0  0  0  0  0  0
  -17.9483  -39.5754   -6.2306 C   0  0  0  0  0  0  0  0  0  0  0  0
  -17.3734  -39.8787   -7.5434 C   0  0  2  0  0  0  0  0  0  0  0  0
  -16.5910  -41.1267   -7.5856 N   0  0  0  0  0  0  0  0  0  0  0  0
  -17.0531  -42.3841   -7.1248 C   0  0  0  0  0  0  0  0  0  0  0  0
  -16.1019  -42.9380   -6.4035 O   0  0  0  0  0  0  0  0  0  0  0  0
  -18.2818  -43.1705   -7.2601 C   0  0  0  0  0  0  0  0  0  0  0  0
  -19.6213  -42.7995   -7.3547 C   0  0  0  0  0  0  0  0  0  0  0  0
  -20.6304  -43.7572   -7.4753 C   0  0  0  0  0  0  0  0  0  0  0  0
  -20.2367  -45.1187   -7.4985 C   0  0  0  0  0  0  0  0  0  0  0  0
  -18.9485  -45.5475   -7.4104 C   0  0  0  0  0  0  0  0  0  0  0  0
  -18.0064  -44.5828   -7.2943 C   0  0  0  0  0  0  0  0  0  0  0  0
  -18.5890  -46.9736   -7.4385 C   0  0  0  0  0  0  0  0  0  0  0  0
  -17.9004  -47.5486   -8.4235 N   0  0  0  0  0  0  0  0  0  0  0  0
  -17.7330  -48.8589   -8.1572 C   0  0  0  0  0  0  0  0  0  0  0  0
  -18.3683  -49.0450   -6.9390 C   0  0  0  0  0  0  0  0  0  0  0  0
  -18.8611  -47.8918   -6.5548 O   0  0  0  0  0  0  0  0  0  0  0  0
  -22.0831  -43.6953   -7.5860 C   0  0  0  0  0  0  0  0  0  0  0  0
  -22.6717  -44.5350   -8.4040 O   0  0  0  0  0  0  0  0  0  0  0  0
  -16.5729  -38.6949   -8.0317 C   0  0  2  0  0  0  0  0  0  0  0  0
  -17.3808  -37.9833   -8.9588 O   0  0  0  0  0  0  0  0  0  0  0  0
  -15.3004  -39.1421   -8.7141 C   0  0  0  0  0  0  0  0  0  0  0  0
  -15.1967  -40.5346   -8.9605 N   0  0  0  0  0  0  0  0  0  0  0  0
  -15.2411  -41.0143  -10.2862 C   0  0  0  0  0  0  0  0  0  0  0  0
  -14.4512  -40.1737  -11.2229 C   0  0  0  0  0  0  0  0  0  0  0  0
  -14.3514  -38.7914  -11.0312 C   0  0  0  0  0  0  0  0  0  0  0  0
  -13.6362  -37.9865  -11.8798 C   0  0  0  0  0  0  0  0  0  0  0  0
  -12.9762  -38.5253  -12.9764 C   0  0  0  0  0  0  0  0  0  0  0  0
  -13.0601  -39.8777  -13.1842 C   0  0  0  0  0  0  0  0  0  0  0  0
  -13.7948  -40.6835  -12.3073 C   0  0  0  0  0  0  0  0  0  0  0  0
  -13.5196  -36.5159  -11.6832 C   0  0  0  0  0  0  0  0  0  0  0  0
  -12.0457  -36.1724  -11.4372 C   0  0  0  0  0  0  0  0  0  0  0  0
  -13.9337  -35.8314  -12.9652 C   0  0  0  0  0  0  0  0  0  0  0  0
  1  2  1  0
  2  3  1  0
  3  4  1  0
  4  5  1  0
  5  6  1  0
  6  7  1  0
  7  8  1  0
  8  9  1  0
  9 10  1  1
  9 11  1  0
 12 11  1  1
 12 13  1  0
 13 14  1  0
 14 15  2  0
 14 16  1  0
 16 17  2  0
 17 18  1  0
 18 19  2  0
 19 20  1  0
 20 21  2  0
 20 22  1  0
 22 23  2  0
 23 24  1  0
 24 25  2  0
 25 26  1  0
 18 27  1  0
 27 28  2  0
 12 29  1  0
 29 30  1  6
 29 31  1  0
 31 32  1  0
 32 33  1  0
 33 34  1  0
 34 35  2  0
 35 36  1  0
 36 37  2  0
 37 38  1  0
 38 39  2  0
 36 40  1  0
 40 41  1  0
 40 42  1  0
 21 16  1  0
 26 22  1  0
 27  3  1  0
 39 34  1  0
M  END
$$$$
