
     RDKit          3D

 42 45  0  0  0  0  0  0  0  0999 V2000
  -25.2004  -42.5286   -8.8536 C   0  0  0  0  0  0  0  0  0  0  0  0
  -25.1152  -42.8862   -7.3973 C   0  0  0  0  0  0  0  0  0  0  0  0
  -23.7811  -42.7975   -6.8426 N   0  0  0  0  0  0  0  0  0  0  0  0
  -23.5576  -41.7455   -5.8593 C   0  0  0  0  0  0  0  0  0  0  0  0
  -23.8964  -40.3751   -6.3168 C   0  0  0  0  0  0  0  0  0  0  0  0
  -23.0263  -39.8229   -7.4102 C   0  0  0  0  0  0  0  0  0  0  0  0
  -21.8639  -39.1021   -6.7634 C   0  0  0  0  0  0  0  0  0  0  0  0
  -20.9338  -38.5139   -7.8130 C   0  0  0  0  0  0  0  0  0  0  0  0
  -19.6647  -38.1227   -7.0890 C   0  0  1  0  0  0  0  0  0  0  0  0
  -20.0538  -37.5469   -5.7079 C   0  0  0  0  0  0  0  0  0  0  0  0
  -18.7579  -39.2605   -6.8276 C   0  0  0  0  0  0  0  0  0  0  0  0
  -18.1505  -39.8417   -8.0273 C   0  0  2  0  0  0  0  0  0  0  0  0
  -17.3348  -41.0416   -7.7697 N   0  0  0  0  0  0  0  0  0  0  0  0
  -17.7723  -42.1717   -7.0359 C   0  0  0  0  0  0  0  0  0  0  0  0
  -16.8206  -42.5150   -6.1943 O   0  0  0  0  0  0  0  0  0  0  0  0
  -18.9770  -43.0046   -7.0005 C   0  0  0  0  0  0  0  0  0  0  0  0
  -20.3238  -42.7059   -7.1948 C   0  0  0  0  0  0  0  0  0  0  0  0
  -21.3049  -43.6953   -7.1027 C   0  0  0  0  0  0  0  0  0  0  0  0
  -20.8751  -45.0128   -6.8052 C   0  0  0  0  0  0  0  0  0  0  0  0
  -19.5779  -45.3709   -6.6044 C   0  0  0  0  0  0  0  0  0  0  0  0
  -18.6639  -44.3776   -6.7033 C   0  0  0  0  0  0  0  0  0  0  0  0
  -19.1805  -46.7533   -6.2970 C   0  0  0  0  0  0  0  0  0  0  0  0
  -18.1462  -47.3740   -6.8628 N   0  0  0  0  0  0  0  0  0  0  0  0
  -18.0430  -48.6253   -6.3734 C   0  0  0  0  0  0  0  0  0  0  0  0
  -19.0879  -48.7264   -5.4678 C   0  0  0  0  0  0  0  0  0  0  0  0
  -19.7340  -47.5849   -5.4603 O   0  0  0  0  0  0  0  0  0  0  0  0
  -22.7563  -43.7043   -7.2425 C   0  0  0  0  0  0  0  0  0  0  0  0
  -23.3070  -44.7276   -7.8510 O   0  0  0  0  0  0  0  0  0  0  0  0
  -17.3724  -38.7793   -8.7666 C   0  0  2  0  0  0  0  0  0  0  0  0
  -18.2361  -38.2171   -9.7447 O   0  0  0  0  0  0  0  0  0  0  0  0
  -16.1583  -39.3683   -9.4476 C   0  0  0  0  0  0  0  0  0  0  0  0
  -14.9201  -39.1339   -8.7979 N   0  0  0  0  0  0  0  0  0  0  0  0
  -13.7227  -39.5805   -9.3949 C   0  0  0  0  0  0  0  0  0  0  0  0
  -13.4239  -38.8759  -10.6685 C   0  0  0  0  0  0  0  0  0  0  0  0
  -12.9541  -37.5581  -10.6625 C   0  0  0  0  0  0  0  0  0  0  0  0
  -12.6749  -36.8774  -11.8193 C   0  0  0  0  0  0  0  0  0  0  0  0
  -12.8522  -37.4832  -13.0562 C   0  0  0  0  0  0  0  0  0  0  0  0
  -13.3118  -38.7743  -13.0865 C   0  0  0  0  0  0  0  0  0  0  0  0
  -13.5916  -39.4533  -11.8955 C   0  0  0  0  0  0  0  0  0  0  0  0
  -12.1707  -35.4771  -11.8247 C   0  0  0  0  0  0  0  0  0  0  0  0
  -11.8073  -35.0954  -13.2645 C   0  0  0  0  0  0  0  0  0  0  0  0
  -13.2945  -34.5664  -11.3872 C   0  0  0  0  0  0  0  0  0  0  0  0
  1  2  1  0
  2  3  1  0
  3  4  1  0
  4  5  1  0
  5  6  1  0
  6  7  1  0
  7  8  1  0
  8  9  1  0
  9 10  1  1
  9 11  1  0
 12 11  1  1
 12 13  1  0
 13 14  1  0
 14 15  2  0
 14 16  1  0
 16 17  2  0
 17 18  1  0
 18 19  2  0
 19 20  1  0
 20 21  2  0
 20 22  1  0
 22 23  2  0
 23 24  1  0
 24 25  2  0
 25 26  1  0
 18 27  1  0
 27 28  2  0
 12 29  1  0
 29 30  1  6
 29 31  1  0
 31 32  1  0
 32 33  1  0
 33 34  1  0
 34 35  2  0
 35 36  1  0
 36 37  2  0
 37 38  1  0
 38 39  2  0
 36 40  1  0
 40 41  1  0
 40 42  1  0
 21 16  1  0
 26 22  1  0
 27  3  1  0
 39 34  1  0
M  END
$$$$
