
     RDKit          3D

 42 45  0  0  0  0  0  0  0  0999 V2000
  -25.8673  -42.6886   -8.4806 C   0  0  0  0  0  0  0  0  0  0  0  0
  -24.4823  -42.5212   -9.0371 C   0  0  0  0  0  0  0  0  0  0  0  0
  -23.5567  -41.8678   -8.1359 N   0  0  0  0  0  0  0  0  0  0  0  0
  -23.6099  -40.4122   -8.0968 C   0  0  0  0  0  0  0  0  0  0  0  0
  -23.4368  -39.7414   -9.4092 C   0  0  0  0  0  0  0  0  0  0  0  0
  -22.0777  -39.8809  -10.0344 C   0  0  0  0  0  0  0  0  0  0  0  0
  -21.2237  -38.7262   -9.5587 C   0  0  0  0  0  0  0  0  0  0  0  0
  -19.8255  -38.8003  -10.1521 C   0  0  0  0  0  0  0  0  0  0  0  0
  -18.9761  -37.8236   -9.3693 C   0  0  1  0  0  0  0  0  0  0  0  0
  -19.8336  -36.5739   -9.0639 C   0  0  0  0  0  0  0  0  0  0  0  0
  -18.5217  -38.3484   -8.0642 C   0  0  0  0  0  0  0  0  0  0  0  0
  -17.5578  -39.4479   -8.1536 C   0  0  2  0  0  0  0  0  0  0  0  0
  -17.1927  -40.0374   -6.8533 N   0  0  0  0  0  0  0  0  0  0  0  0
  -18.1214  -40.4855   -5.8819 C   0  0  0  0  0  0  0  0  0  0  0  0
  -17.7410  -40.0367   -4.7047 O   0  0  0  0  0  0  0  0  0  0  0  0
  -19.3438  -41.2930   -5.8848 C   0  0  0  0  0  0  0  0  0  0  0  0
  -20.3707  -41.4277   -6.8165 C   0  0  0  0  0  0  0  0  0  0  0  0
  -21.4540  -42.2771   -6.5815 C   0  0  0  0  0  0  0  0  0  0  0  0
  -21.4651  -42.9954   -5.3596 C   0  0  0  0  0  0  0  0  0  0  0  0
  -20.4956  -42.9094   -4.4090 C   0  0  0  0  0  0  0  0  0  0  0  0
  -19.4668  -42.0732   -4.6816 C   0  0  0  0  0  0  0  0  0  0  0  0
  -20.5517  -43.6754   -3.1545 C   0  0  0  0  0  0  0  0  0  0  0  0
  -19.4798  -44.0072   -2.4361 N   0  0  0  0  0  0  0  0  0  0  0  0
  -19.8595  -44.7041   -1.3471 C   0  0  0  0  0  0  0  0  0  0  0  0
  -21.2403  -44.7755   -1.4502 C   0  0  0  0  0  0  0  0  0  0  0  0
  -21.6014  -44.1476   -2.5437 O   0  0  0  0  0  0  0  0  0  0  0  0
  -22.6551  -42.6246   -7.3317 C   0  0  0  0  0  0  0  0  0  0  0  0
  -23.0517  -43.8747   -7.3087 O   0  0  0  0  0  0  0  0  0  0  0  0
  -16.3430  -38.9950   -8.9281 C   0  0  2  0  0  0  0  0  0  0  0  0
  -15.6542  -40.1583   -9.3651 O   0  0  0  0  0  0  0  0  0  0  0  0
  -15.4246  -38.1628   -8.0628 C   0  0  0  0  0  0  0  0  0  0  0  0
  -14.0381  -38.3270   -8.3101 N   0  0  0  0  0  0  0  0  0  0  0  0
  -13.2423  -37.1992   -8.6006 C   0  0  0  0  0  0  0  0  0  0  0  0
  -12.6270  -37.2689   -9.9513 C   0  0  0  0  0  0  0  0  0  0  0  0
  -12.8400  -38.3783  -10.7768 C   0  0  0  0  0  0  0  0  0  0  0  0
  -12.2823  -38.4769  -12.0253 C   0  0  0  0  0  0  0  0  0  0  0  0
  -11.4737  -37.4623  -12.5204 C   0  0  0  0  0  0  0  0  0  0  0  0
  -11.2509  -36.3656  -11.7289 C   0  0  0  0  0  0  0  0  0  0  0  0
  -11.8285  -36.2823  -10.4571 C   0  0  0  0  0  0  0  0  0  0  0  0
  -12.5055  -39.6500  -12.9135 C   0  0  0  0  0  0  0  0  0  0  0  0
  -11.3332  -40.6229  -12.7402 C   0  0  0  0  0  0  0  0  0  0  0  0
  -13.7551  -40.3637  -12.4521 C   0  0  0  0  0  0  0  0  0  0  0  0
  1  2  1  0
  2  3  1  0
  3  4  1  0
  4  5  1  0
  5  6  1  0
  6  7  1  0
  7  8  1  0
  8  9  1  0
  9 10  1  1
  9 11  1  0
 12 11  1  1
 12 13  1  0
 13 14  1  0
 14 15  2  0
 14 16  1  0
 16 17  2  0
 17 18  1  0
 18 19  2  0
 19 20  1  0
 20 21  2  0
 20 22  1  0
 22 23  2  0
 23 24  1  0
 24 25  2  0
 25 26  1  0
 18 27  1  0
 27 28  2  0
 12 29  1  0
 29 30  1  1
 29 31  1  0
 31 32  1  0
 32 33  1  0
 33 34  1  0
 34 35  2  0
 35 36  1  0
 36 37  2  0
 37 38  1  0
 38 39  2  0
 36 40  1  0
 40 41  1  0
 40 42  1  0
 21 16  1  0
 26 22  1  0
 27  3  1  0
 39 34  1  0
M  END
$$$$
