
     RDKit          3D

 37 40  0  0  0  0  0  0  0  0999 V2000
  -23.6097  -41.5911   -3.3843 C   0  0  0  0  0  0  0  0  0  0  0  0
  -23.4888  -42.3484   -4.4923 O   0  0  0  0  0  0  0  0  0  0  0  0
  -22.4917  -43.2430   -4.6246 C   0  0  0  0  0  0  0  0  0  0  0  0
  -21.1440  -42.6401   -4.8592 C   0  0  1  0  0  0  0  0  0  0  0  0
  -20.5788  -42.8507   -6.2297 C   0  0  0  0  0  0  0  0  0  0  0  0
  -20.1207  -41.5550   -6.8043 N   0  0  0  0  0  0  0  0  0  0  0  0
  -19.1817  -40.9629   -5.8169 C   0  0  2  0  0  0  0  0  0  0  0  0
  -20.0617  -40.6838   -4.5850 C   0  0  0  0  0  0  0  0  0  0  0  0
  -21.3382  -41.2190   -4.7745 O   0  0  0  0  0  0  0  0  0  0  0  0
  -18.6478  -39.7103   -6.4205 C   0  0  1  0  0  0  0  0  0  0  0  0
  -17.3857  -39.4923   -5.8449 O   0  0  0  0  0  0  0  0  0  0  0  0
  -18.6057  -39.6699   -7.9225 C   0  0  2  0  0  0  0  0  0  0  0  0
  -19.9063  -39.2058   -8.5426 C   0  0  0  0  0  0  0  0  0  0  0  0
  -19.8390  -37.8646   -9.2094 C   0  0  0  0  0  0  0  0  0  0  0  0
  -20.6053  -36.9198   -8.4817 C   0  0  0  0  0  0  0  0  0  0  0  0
  -20.7432  -35.6086   -8.8405 C   0  0  0  0  0  0  0  0  0  0  0  0
  -20.0714  -35.2562   -9.9844 C   0  0  0  0  0  0  0  0  0  0  0  0
  -19.2951  -36.1529  -10.7453 C   0  0  0  0  0  0  0  0  0  0  0  0
  -19.1853  -37.4837  -10.3386 C   0  0  0  0  0  0  0  0  0  0  0  0
  -18.7405  -35.5241  -11.8334 O   0  0  0  0  0  0  0  0  0  0  0  0
  -17.5508  -35.2954  -12.4589 C   0  0  0  0  0  0  0  0  0  0  0  0
  -16.9512  -36.4441  -13.2296 C   0  0  0  0  0  0  0  0  0  0  0  0
  -15.4387  -36.4260  -13.2500 C   0  0  0  0  0  0  0  0  0  0  0  0
  -14.8377  -36.4795  -11.8858 C   0  0  0  0  0  0  0  0  0  0  0  0
  -14.2392  -37.7751  -11.6666 N   0  0  0  0  0  0  0  0  0  0  0  0
  -14.8099  -39.0171  -11.2198 C   0  0  0  0  0  0  0  0  0  0  0  0
  -14.3026  -40.0466  -12.0561 C   0  0  0  0  0  0  0  0  0  0  0  0
  -14.6510  -41.3620  -11.9147 C   0  0  0  0  0  0  0  0  0  0  0  0
  -14.1077  -42.4129  -12.7963 C   0  0  0  0  0  0  0  0  0  0  0  0
  -12.9823  -43.0264  -12.2869 O   0  0  0  0  0  0  0  0  0  0  0  0
  -12.3289  -43.6472  -13.3502 C   0  0  0  0  0  0  0  0  0  0  0  0
  -15.5271  -41.6200  -10.9062 C   0  0  0  0  0  0  0  0  0  0  0  0
  -16.0714  -40.6289  -10.0330 C   0  0  0  0  0  0  0  0  0  0  0  0
  -15.6958  -39.3108  -10.2044 C   0  0  0  0  0  0  0  0  0  0  0  0
  -16.9782  -41.2746   -9.0804 C   0  0  0  0  0  0  0  0  0  0  0  0
  -16.6098  -42.4564   -8.5871 O   0  0  0  0  0  0  0  0  0  0  0  0
  -18.2294  -40.9397   -8.5184 N   0  0  0  0  0  0  0  0  0  0  0  0
  1  2  1  0
  2  3  1  0
  4  3  1  6
  4  5  1  0
  5  6  1  0
  6  7  1  0
  7  8  1  1
  8  9  1  0
  7 10  1  0
 10 11  1  1
 10 12  1  0
 12 13  1  6
 13 14  1  0
 14 15  2  0
 15 16  1  0
 16 17  2  0
 17 18  1  0
 18 19  2  0
 18 20  1  0
 20 21  1  0
 21 22  1  0
 22 23  1  0
 23 24  1  0
 24 25  1  0
 25 26  1  0
 26 27  2  0
 27 28  1  0
 28 29  1  0
 29 30  1  0
 30 31  1  0
 28 32  2  0
 32 33  1  0
 33 34  2  0
 33 35  1  0
 35 36  2  0
 35 37  1  0
  9  4  1  0
 19 14  1  0
 34 26  1  0
 37 12  1  0
M  END
$$$$
