
     RDKit          3D

 37 40  0  0  0  0  0  0  0  0999 V2000
  -12.1756  -37.4573  -12.2737 C   0  0  0  0  0  0  0  0  0  0  0  0
  -11.9260  -37.3579  -10.9533 O   0  0  0  0  0  0  0  0  0  0  0  0
  -12.3553  -38.2938  -10.0864 C   0  0  0  0  0  0  0  0  0  0  0  0
  -13.8000  -38.6521  -10.2249 C   0  0  1  0  0  0  0  0  0  0  0  0
  -14.2868  -39.7189   -9.2937 C   0  0  0  0  0  0  0  0  0  0  0  0
  -15.5258  -39.2716   -8.5981 N   0  0  0  0  0  0  0  0  0  0  0  0
  -16.4857  -38.8720   -9.6592 C   0  0  2  0  0  0  0  0  0  0  0  0
  -15.8182  -37.6572  -10.3289 C   0  0  0  0  0  0  0  0  0  0  0  0
  -14.5273  -37.4792   -9.8252 O   0  0  0  0  0  0  0  0  0  0  0  0
  -17.7598  -38.5081   -8.9793 C   0  0  1  0  0  0  0  0  0  0  0  0
  -18.7195  -38.3335   -9.9894 O   0  0  0  0  0  0  0  0  0  0  0  0
  -18.2253  -39.4516   -7.9057 C   0  0  2  0  0  0  0  0  0  0  0  0
  -18.7684  -38.7422   -6.6838 C   0  0  0  0  0  0  0  0  0  0  0  0
  -20.2449  -38.8970   -6.4738 C   0  0  0  0  0  0  0  0  0  0  0  0
  -20.8990  -37.6564   -6.6797 C   0  0  0  0  0  0  0  0  0  0  0  0
  -22.2476  -37.4740   -6.5582 C   0  0  0  0  0  0  0  0  0  0  0  0
  -22.9475  -38.6035   -6.2142 C   0  0  0  0  0  0  0  0  0  0  0  0
  -22.3495  -39.8612   -5.9990 C   0  0  0  0  0  0  0  0  0  0  0  0
  -20.9669  -39.9974   -6.1341 C   0  0  0  0  0  0  0  0  0  0  0  0
  -23.2916  -40.8049   -5.6690 O   0  0  0  0  0  0  0  0  0  0  0  0
  -23.7570  -42.0366   -6.0229 C   0  0  0  0  0  0  0  0  0  0  0  0
  -22.9102  -43.2239   -5.6405 C   0  0  0  0  0  0  0  0  0  0  0  0
  -23.0221  -44.3766   -6.6136 C   0  0  0  0  0  0  0  0  0  0  0  0
  -22.6209  -44.0073   -8.0020 C   0  0  0  0  0  0  0  0  0  0  0  0
  -21.3536  -44.6202   -8.3232 N   0  0  0  0  0  0  0  0  0  0  0  0
  -20.0046  -44.1967   -8.0605 C   0  0  0  0  0  0  0  0  0  0  0  0
  -19.2850  -45.3272   -7.5909 C   0  0  0  0  0  0  0  0  0  0  0  0
  -17.9651  -45.2759   -7.2347 C   0  0  0  0  0  0  0  0  0  0  0  0
  -17.2398  -46.4663   -6.7512 C   0  0  0  0  0  0  0  0  0  0  0  0
  -17.2126  -46.5692   -5.3760 O   0  0  0  0  0  0  0  0  0  0  0  0
  -16.0348  -45.9669   -4.9365 C   0  0  0  0  0  0  0  0  0  0  0  0
  -17.3817  -44.0534   -7.3624 C   0  0  0  0  0  0  0  0  0  0  0  0
  -18.0521  -42.8810   -7.8283 C   0  0  0  0  0  0  0  0  0  0  0  0
  -19.3846  -42.9706   -8.1807 C   0  0  0  0  0  0  0  0  0  0  0  0
  -17.1115  -41.7576   -7.8260 C   0  0  0  0  0  0  0  0  0  0  0  0
  -15.8623  -42.0026   -8.2198 O   0  0  0  0  0  0  0  0  0  0  0  0
  -17.1998  -40.3903   -7.4854 N   0  0  0  0  0  0  0  0  0  0  0  0
  1  2  1  0
  2  3  1  0
  4  3  1  1
  4  5  1  0
  5  6  1  0
  6  7  1  0
  7  8  1  1
  8  9  1  0
  7 10  1  0
 10 11  1  6
 10 12  1  0
 12 13  1  1
 13 14  1  0
 14 15  2  0
 15 16  1  0
 16 17  2  0
 17 18  1  0
 18 19  2  0
 18 20  1  0
 20 21  1  0
 21 22  1  0
 22 23  1  0
 23 24  1  0
 24 25  1  0
 25 26  1  0
 26 27  2  0
 27 28  1  0
 28 29  1  0
 29 30  1  0
 30 31  1  0
 28 32  2  0
 32 33  1  0
 33 34  2  0
 33 35  1  0
 35 36  2  0
 35 37  1  0
  9  4  1  0
 19 14  1  0
 34 26  1  0
 37 12  1  0
M  END
$$$$
