
     RDKit          3D

 37 40  0  0  0  0  0  0  0  0999 V2000
  -12.0345  -37.9330   -9.4729 C   0  0  0  0  0  0  0  0  0  0  0  0
  -11.1366  -38.9235   -9.3040 O   0  0  0  0  0  0  0  0  0  0  0  0
  -11.4246  -40.0126   -8.5672 C   0  0  0  0  0  0  0  0  0  0  0  0
  -12.8377  -40.4860   -8.6854 C   0  0  1  0  0  0  0  0  0  0  0  0
  -13.7489  -40.0634   -7.5748 C   0  0  0  0  0  0  0  0  0  0  0  0
  -14.9912  -39.4560   -8.1287 N   0  0  0  0  0  0  0  0  0  0  0  0
  -15.5634  -40.4501   -9.0728 C   0  0  2  0  0  0  0  0  0  0  0  0
  -14.5110  -40.5518  -10.1918 C   0  0  0  0  0  0  0  0  0  0  0  0
  -13.3690  -39.8254   -9.8455 O   0  0  0  0  0  0  0  0  0  0  0  0
  -16.8533  -39.8912   -9.5648 C   0  0  1  0  0  0  0  0  0  0  0  0
  -17.4071  -40.8535  -10.4245 O   0  0  0  0  0  0  0  0  0  0  0  0
  -17.8229  -39.4445   -8.5066 C   0  0  2  0  0  0  0  0  0  0  0  0
  -18.1254  -37.9624   -8.5635 C   0  0  0  0  0  0  0  0  0  0  0  0
  -19.5234  -37.6240   -8.9867 C   0  0  0  0  0  0  0  0  0  0  0  0
  -19.5101  -37.0064  -10.2626 C   0  0  0  0  0  0  0  0  0  0  0  0
  -20.6310  -36.5786  -10.9163 C   0  0  0  0  0  0  0  0  0  0  0  0
  -21.8044  -36.7926  -10.2372 C   0  0  0  0  0  0  0  0  0  0  0  0
  -21.8761  -37.4023   -8.9688 C   0  0  0  0  0  0  0  0  0  0  0  0
  -20.7025  -37.8219   -8.3402 C   0  0  0  0  0  0  0  0  0  0  0  0
  -23.1767  -37.4857   -8.5348 O   0  0  0  0  0  0  0  0  0  0  0  0
  -24.1060  -38.3683   -8.0697 C   0  0  0  0  0  0  0  0  0  0  0  0
  -23.9462  -38.8446   -6.6483 C   0  0  0  0  0  0  0  0  0  0  0  0
  -24.4534  -40.2527   -6.4286 C   0  0  0  0  0  0  0  0  0  0  0  0
  -23.7642  -41.2598   -7.2865 C   0  0  0  0  0  0  0  0  0  0  0  0
  -22.8874  -42.0724   -6.4768 N   0  0  0  0  0  0  0  0  0  0  0  0
  -21.5362  -41.8547   -6.0351 C   0  0  0  0  0  0  0  0  0  0  0  0
  -21.4732  -42.2068   -4.6609 C   0  0  0  0  0  0  0  0  0  0  0  0
  -20.3286  -42.1100   -3.9179 C   0  0  0  0  0  0  0  0  0  0  0  0
  -20.2896  -42.4843   -2.4912 C   0  0  0  0  0  0  0  0  0  0  0  0
  -19.4768  -43.5682   -2.2321 O   0  0  0  0  0  0  0  0  0  0  0  0
  -18.3066  -43.0819   -1.6515 C   0  0  0  0  0  0  0  0  0  0  0  0
  -19.2415  -41.6479   -4.5931 C   0  0  0  0  0  0  0  0  0  0  0  0
  -19.2424  -41.2783   -5.9731 C   0  0  0  0  0  0  0  0  0  0  0  0
  -20.4161  -41.3906   -6.6926 C   0  0  0  0  0  0  0  0  0  0  0  0
  -17.9011  -40.8240   -6.3490 C   0  0  0  0  0  0  0  0  0  0  0  0
  -16.8637  -41.4926   -5.8468 O   0  0  0  0  0  0  0  0  0  0  0  0
  -17.3968  -39.7845   -7.1605 N   0  0  0  0  0  0  0  0  0  0  0  0
  1  2  1  0
  2  3  1  0
  4  3  1  1
  4  5  1  0
  5  6  1  0
  6  7  1  0
  7  8  1  6
  8  9  1  0
  7 10  1  0
 10 11  1  1
 10 12  1  0
 12 13  1  1
 13 14  1  0
 14 15  2  0
 15 16  1  0
 16 17  2  0
 17 18  1  0
 18 19  2  0
 18 20  1  0
 20 21  1  0
 21 22  1  0
 22 23  1  0
 23 24  1  0
 24 25  1  0
 25 26  1  0
 26 27  2  0
 27 28  1  0
 28 29  1  0
 29 30  1  0
 30 31  1  0
 28 32  2  0
 32 33  1  0
 33 34  2  0
 33 35  1  0
 35 36  2  0
 35 37  1  0
  9  4  1  0
 19 14  1  0
 34 26  1  0
 37 12  1  0
M  END
$$$$
