
     RDKit          3D

 37 40  0  0  0  0  0  0  0  0999 V2000
  -12.3180  -40.8420   -7.9076 C   0  0  0  0  0  0  0  0  0  0  0  0
  -12.7661  -41.9353   -8.5554 O   0  0  0  0  0  0  0  0  0  0  0  0
  -13.0001  -41.9180   -9.8809 C   0  0  0  0  0  0  0  0  0  0  0  0
  -14.1531  -41.0621  -10.2964 C   0  0  1  0  0  0  0  0  0  0  0  0
  -15.4690  -41.7688  -10.4027 C   0  0  0  0  0  0  0  0  0  0  0  0
  -16.5174  -41.0245   -9.6505 N   0  0  0  0  0  0  0  0  0  0  0  0
  -16.5031  -39.6328  -10.1702 C   0  0  2  0  0  0  0  0  0  0  0  0
  -15.1177  -39.0970   -9.7658 C   0  0  0  0  0  0  0  0  0  0  0  0
  -14.3436  -40.1258   -9.2234 O   0  0  0  0  0  0  0  0  0  0  0  0
  -17.6080  -38.9023   -9.4892 C   0  0  1  0  0  0  0  0  0  0  0  0
  -18.5871  -38.6535  -10.4644 O   0  0  0  0  0  0  0  0  0  0  0  0
  -18.1762  -39.5625   -8.2642 C   0  0  2  0  0  0  0  0  0  0  0  0
  -18.6795  -38.5740   -7.2341 C   0  0  0  0  0  0  0  0  0  0  0  0
  -20.1679  -38.5610   -7.0531 C   0  0  0  0  0  0  0  0  0  0  0  0
  -20.7061  -37.3403   -7.5323 C   0  0  0  0  0  0  0  0  0  0  0  0
  -22.0357  -37.0271   -7.5018 C   0  0  0  0  0  0  0  0  0  0  0  0
  -22.8390  -38.0001   -6.9614 C   0  0  0  0  0  0  0  0  0  0  0  0
  -22.3583  -39.2308   -6.4717 C   0  0  0  0  0  0  0  0  0  0  0  0
  -20.9904  -39.5046   -6.5237 C   0  0  0  0  0  0  0  0  0  0  0  0
  -23.3860  -40.0058   -5.9921 O   0  0  0  0  0  0  0  0  0  0  0  0
  -23.9506  -41.2417   -6.1047 C   0  0  0  0  0  0  0  0  0  0  0  0
  -23.2192  -42.3897   -5.4564 C   0  0  0  0  0  0  0  0  0  0  0  0
  -23.4123  -43.7054   -6.1775 C   0  0  0  0  0  0  0  0  0  0  0  0
  -22.9521  -43.6647   -7.5958 C   0  0  0  0  0  0  0  0  0  0  0  0
  -21.7373  -44.4323   -7.7370 N   0  0  0  0  0  0  0  0  0  0  0  0
  -20.3619  -44.0755   -7.5153 C   0  0  0  0  0  0  0  0  0  0  0  0
  -19.7540  -45.1397   -6.7980 C   0  0  0  0  0  0  0  0  0  0  0  0
  -18.4423  -45.1241   -6.4099 C   0  0  0  0  0  0  0  0  0  0  0  0
  -17.8343  -46.2443   -5.6667 C   0  0  0  0  0  0  0  0  0  0  0  0
  -16.9726  -47.0038   -6.4303 O   0  0  0  0  0  0  0  0  0  0  0  0
  -17.3176  -46.8081   -7.7666 C   0  0  0  0  0  0  0  0  0  0  0  0
  -17.7513  -44.0062   -6.7621 C   0  0  0  0  0  0  0  0  0  0  0  0
  -18.3065  -42.9044   -7.4824 C   0  0  0  0  0  0  0  0  0  0  0  0
  -19.6343  -42.9556   -7.8593 C   0  0  0  0  0  0  0  0  0  0  0  0
  -17.2711  -41.8856   -7.6736 C   0  0  0  0  0  0  0  0  0  0  0  0
  -16.0405  -42.3079   -7.9616 O   0  0  0  0  0  0  0  0  0  0  0  0
  -17.2459  -40.4748   -7.6227 N   0  0  0  0  0  0  0  0  0  0  0  0
  1  2  1  0
  2  3  1  0
  4  3  1  1
  4  5  1  0
  5  6  1  0
  6  7  1  0
  7  8  1  1
  8  9  1  0
  7 10  1  0
 10 11  1  6
 10 12  1  0
 12 13  1  1
 13 14  1  0
 14 15  2  0
 15 16  1  0
 16 17  2  0
 17 18  1  0
 18 19  2  0
 18 20  1  0
 20 21  1  0
 21 22  1  0
 22 23  1  0
 23 24  1  0
 24 25  1  0
 25 26  1  0
 26 27  2  0
 27 28  1  0
 28 29  1  0
 29 30  1  0
 30 31  1  0
 28 32  2  0
 32 33  1  0
 33 34  2  0
 33 35  1  0
 35 36  2  0
 35 37  1  0
  9  4  1  0
 19 14  1  0
 34 26  1  0
 37 12  1  0
M  END
$$$$
