
     RDKit          3D

 37 40  0  0  0  0  0  0  0  0999 V2000
  -24.1414  -39.9050   -4.3434 C   0  0  0  0  0  0  0  0  0  0  0  0
  -24.3680  -41.1365   -3.8456 O   0  0  0  0  0  0  0  0  0  0  0  0
  -23.3834  -42.0505   -3.7612 C   0  0  0  0  0  0  0  0  0  0  0  0
  -22.0481  -41.5695   -4.2306 C   0  0  1  0  0  0  0  0  0  0  0  0
  -21.5706  -42.1644   -5.5192 C   0  0  0  0  0  0  0  0  0  0  0  0
  -21.1386  -41.0895   -6.4557 N   0  0  0  0  0  0  0  0  0  0  0  0
  -20.1357  -40.2713   -5.7266 C   0  0  2  0  0  0  0  0  0  0  0  0
  -20.9353  -39.6411   -4.5720 C   0  0  0  0  0  0  0  0  0  0  0  0
  -22.2254  -40.1759   -4.5322 O   0  0  0  0  0  0  0  0  0  0  0  0
  -19.6303  -39.2477   -6.6833 C   0  0  1  0  0  0  0  0  0  0  0  0
  -18.5036  -38.6599   -6.0859 O   0  0  0  0  0  0  0  0  0  0  0  0
  -19.3499  -39.7327   -8.0782 C   0  0  2  0  0  0  0  0  0  0  0  0
  -20.1050  -38.9619   -9.1398 C   0  0  0  0  0  0  0  0  0  0  0  0
  -19.2464  -38.1073  -10.0234 C   0  0  0  0  0  0  0  0  0  0  0  0
  -19.5024  -36.7359   -9.7723 C   0  0  0  0  0  0  0  0  0  0  0  0
  -18.8775  -35.7101  -10.4236 C   0  0  0  0  0  0  0  0  0  0  0  0
  -17.9591  -36.1062  -11.3636 C   0  0  0  0  0  0  0  0  0  0  0  0
  -17.6645  -37.4535  -11.6527 C   0  0  0  0  0  0  0  0  0  0  0  0
  -18.3304  -38.4668  -10.9610 C   0  0  0  0  0  0  0  0  0  0  0  0
  -16.7078  -37.5493  -12.6338 O   0  0  0  0  0  0  0  0  0  0  0  0
  -15.4971  -38.1117  -12.9110 C   0  0  0  0  0  0  0  0  0  0  0  0
  -15.4813  -39.5896  -13.2087 C   0  0  0  0  0  0  0  0  0  0  0  0
  -14.2004  -40.2720  -12.7821 C   0  0  0  0  0  0  0  0  0  0  0  0
  -13.9277  -40.1373  -11.3218 C   0  0  0  0  0  0  0  0  0  0  0  0
  -14.1373  -41.4069  -10.6670 N   0  0  0  0  0  0  0  0  0  0  0  0
  -15.3334  -42.0229  -10.1588 C   0  0  0  0  0  0  0  0  0  0  0  0
  -15.3227  -43.3820  -10.5700 C   0  0  0  0  0  0  0  0  0  0  0  0
  -16.3251  -44.2615  -10.2648 C   0  0  0  0  0  0  0  0  0  0  0  0
  -16.2888  -45.6699  -10.7032 C   0  0  0  0  0  0  0  0  0  0  0  0
  -16.9825  -46.5207   -9.8682 O   0  0  0  0  0  0  0  0  0  0  0  0
  -17.6296  -47.4576  -10.6723 C   0  0  0  0  0  0  0  0  0  0  0  0
  -17.3453  -43.7393   -9.5316 C   0  0  0  0  0  0  0  0  0  0  0  0
  -17.4126  -42.3826   -9.0888 C   0  0  0  0  0  0  0  0  0  0  0  0
  -16.3815  -41.5233   -9.4145 C   0  0  0  0  0  0  0  0  0  0  0  0
  -18.6533  -42.1850   -8.3350 C   0  0  0  0  0  0  0  0  0  0  0  0
  -19.0371  -43.1645   -7.5172 O   0  0  0  0  0  0  0  0  0  0  0  0
  -19.6109  -41.1505   -8.2539 N   0  0  0  0  0  0  0  0  0  0  0  0
  1  2  1  0
  2  3  1  0
  4  3  1  6
  4  5  1  0
  5  6  1  0
  6  7  1  0
  7  8  1  1
  8  9  1  0
  7 10  1  0
 10 11  1  1
 10 12  1  0
 12 13  1  6
 13 14  1  0
 14 15  2  0
 15 16  1  0
 16 17  2  0
 17 18  1  0
 18 19  2  0
 18 20  1  0
 20 21  1  0
 21 22  1  0
 22 23  1  0
 23 24  1  0
 24 25  1  0
 25 26  1  0
 26 27  2  0
 27 28  1  0
 28 29  1  0
 29 30  1  0
 30 31  1  0
 28 32  2  0
 32 33  1  0
 33 34  2  0
 33 35  1  0
 35 36  2  0
 35 37  1  0
  9  4  1  0
 19 14  1  0
 34 26  1  0
 37 12  1  0
M  END
$$$$
