
     RDKit          3D

 37 40  0  0  0  0  0  0  0  0999 V2000
  -24.2605  -41.0640   -5.3574 C   0  0  0  0  0  0  0  0  0  0  0  0
  -23.5728  -41.0865   -4.1989 O   0  0  0  0  0  0  0  0  0  0  0  0
  -22.5912  -41.9821   -3.9836 C   0  0  0  0  0  0  0  0  0  0  0  0
  -21.2205  -41.4957   -4.3290 C   0  0  1  0  0  0  0  0  0  0  0  0
  -20.6517  -42.0376   -5.6038 C   0  0  0  0  0  0  0  0  0  0  0  0
  -20.1418  -40.9268   -6.4554 N   0  0  0  0  0  0  0  0  0  0  0  0
  -19.1903  -40.1534   -5.6166 C   0  0  2  0  0  0  0  0  0  0  0  0
  -20.0700  -39.5665   -4.4978 C   0  0  0  0  0  0  0  0  0  0  0  0
  -21.3635  -40.0881   -4.5794 O   0  0  0  0  0  0  0  0  0  0  0  0
  -18.6060  -39.0939   -6.4850 C   0  0  1  0  0  0  0  0  0  0  0  0
  -17.3839  -38.7234   -5.9011 O   0  0  0  0  0  0  0  0  0  0  0  0
  -18.4620  -39.4415   -7.9403 C   0  0  2  0  0  0  0  0  0  0  0  0
  -19.3308  -38.5930   -8.8441 C   0  0  0  0  0  0  0  0  0  0  0  0
  -18.5773  -37.6413   -9.7244 C   0  0  0  0  0  0  0  0  0  0  0  0
  -18.8244  -36.3051   -9.3210 C   0  0  0  0  0  0  0  0  0  0  0  0
  -18.2822  -35.2097   -9.9317 C   0  0  0  0  0  0  0  0  0  0  0  0
  -17.4586  -35.4965  -10.9916 C   0  0  0  0  0  0  0  0  0  0  0  0
  -17.1772  -36.8043  -11.4343 C   0  0  0  0  0  0  0  0  0  0  0  0
  -17.7563  -37.8919  -10.7782 C   0  0  0  0  0  0  0  0  0  0  0  0
  -16.3236  -36.7876  -12.5104 O   0  0  0  0  0  0  0  0  0  0  0  0
  -15.1399  -37.2946  -12.9585 C   0  0  0  0  0  0  0  0  0  0  0  0
  -15.1350  -38.7379  -13.3942 C   0  0  0  0  0  0  0  0  0  0  0  0
  -13.8088  -39.4279  -13.1635 C   0  0  0  0  0  0  0  0  0  0  0  0
  -13.3914  -39.4226  -11.7314 C   0  0  0  0  0  0  0  0  0  0  0  0
  -13.5170  -40.7517  -11.1815 N   0  0  0  0  0  0  0  0  0  0  0  0
  -14.6473  -41.4387  -10.6170 C   0  0  0  0  0  0  0  0  0  0  0  0
  -14.6606  -42.7534  -11.1535 C   0  0  0  0  0  0  0  0  0  0  0  0
  -15.6154  -43.6797  -10.8342 C   0  0  0  0  0  0  0  0  0  0  0  0
  -15.6052  -45.0403  -11.4047 C   0  0  0  0  0  0  0  0  0  0  0  0
  -16.8359  -45.4437  -11.8793 O   0  0  0  0  0  0  0  0  0  0  0  0
  -16.6816  -45.7485  -13.2307 C   0  0  0  0  0  0  0  0  0  0  0  0
  -16.5628  -43.2505   -9.9571 C   0  0  0  0  0  0  0  0  0  0  0  0
  -16.6027  -41.9424   -9.3840 C   0  0  0  0  0  0  0  0  0  0  0  0
  -15.6211  -41.0337   -9.7283 C   0  0  0  0  0  0  0  0  0  0  0  0
  -17.7631  -41.8432   -8.4951 C   0  0  0  0  0  0  0  0  0  0  0  0
  -18.0493  -42.9025   -7.7391 O   0  0  0  0  0  0  0  0  0  0  0  0
  -18.7209  -40.8425   -8.2219 N   0  0  0  0  0  0  0  0  0  0  0  0
  1  2  1  0
  2  3  1  0
  4  3  1  6
  4  5  1  0
  5  6  1  0
  6  7  1  0
  7  8  1  1
  8  9  1  0
  7 10  1  0
 10 11  1  1
 10 12  1  0
 12 13  1  6
 13 14  1  0
 14 15  2  0
 15 16  1  0
 16 17  2  0
 17 18  1  0
 18 19  2  0
 18 20  1  0
 20 21  1  0
 21 22  1  0
 22 23  1  0
 23 24  1  0
 24 25  1  0
 25 26  1  0
 26 27  2  0
 27 28  1  0
 28 29  1  0
 29 30  1  0
 30 31  1  0
 28 32  2  0
 32 33  1  0
 33 34  2  0
 33 35  1  0
 35 36  2  0
 35 37  1  0
  9  4  1  0
 19 14  1  0
 34 26  1  0
 37 12  1  0
M  END
$$$$
