
     RDKit          3D

 37 40  0  0  0  0  0  0  0  0999 V2000
  -14.4175  -35.0678  -11.9663 C   0  0  0  0  0  0  0  0  0  0  0  0
  -13.5043  -36.0583  -11.9383 O   0  0  0  0  0  0  0  0  0  0  0  0
  -13.8473  -37.3189  -11.6138 C   0  0  0  0  0  0  0  0  0  0  0  0
  -15.3141  -37.5998  -11.6804 C   0  0  1  0  0  0  0  0  0  0  0  0
  -15.7499  -38.8808  -11.0391 C   0  0  0  0  0  0  0  0  0  0  0  0
  -16.8853  -38.6320  -10.1075 N   0  0  0  0  0  0  0  0  0  0  0  0
  -17.9320  -37.9303  -10.8943 C   0  0  2  0  0  0  0  0  0  0  0  0
  -17.2819  -36.5852  -11.2656 C   0  0  0  0  0  0  0  0  0  0  0  0
  -15.9378  -36.5792  -10.8844 O   0  0  0  0  0  0  0  0  0  0  0  0
  -19.1080  -37.7564   -9.9970 C   0  0  1  0  0  0  0  0  0  0  0  0
  -20.2495  -37.9985  -10.7781 O   0  0  0  0  0  0  0  0  0  0  0  0
  -19.0971  -38.5700   -8.7332 C   0  0  2  0  0  0  0  0  0  0  0  0
  -19.7287  -37.8540   -7.5585 C   0  0  0  0  0  0  0  0  0  0  0  0
  -21.0250  -38.4432   -7.0889 C   0  0  0  0  0  0  0  0  0  0  0  0
  -22.0934  -37.5543   -7.3675 C   0  0  0  0  0  0  0  0  0  0  0  0
  -23.3993  -37.8072   -7.0554 C   0  0  0  0  0  0  0  0  0  0  0  0
  -23.6149  -39.0134   -6.4369 C   0  0  0  0  0  0  0  0  0  0  0  0
  -22.5917  -39.9347   -6.1374 C   0  0  0  0  0  0  0  0  0  0  0  0
  -21.2719  -39.6306   -6.4753 C   0  0  0  0  0  0  0  0  0  0  0  0
  -23.0996  -41.0522   -5.5206 O   0  0  0  0  0  0  0  0  0  0  0  0
  -23.1322  -42.4125   -5.6057 C   0  0  0  0  0  0  0  0  0  0  0  0
  -21.8855  -43.1539   -5.1945 C   0  0  0  0  0  0  0  0  0  0  0  0
  -21.6805  -44.4464   -5.9531 C   0  0  0  0  0  0  0  0  0  0  0  0
  -21.5799  -44.2460   -7.4278 C   0  0  0  0  0  0  0  0  0  0  0  0
  -20.2175  -44.4567   -7.8572 N   0  0  0  0  0  0  0  0  0  0  0  0
  -19.0866  -43.5687   -7.8851 C   0  0  0  0  0  0  0  0  0  0  0  0
  -17.9694  -44.2825   -7.3764 C   0  0  0  0  0  0  0  0  0  0  0  0
  -16.7243  -43.7293   -7.2527 C   0  0  0  0  0  0  0  0  0  0  0  0
  -15.5792  -44.4938   -6.7225 C   0  0  0  0  0  0  0  0  0  0  0  0
  -15.3325  -44.2537   -5.3869 O   0  0  0  0  0  0  0  0  0  0  0  0
  -14.3830  -43.2357   -5.3151 C   0  0  0  0  0  0  0  0  0  0  0  0
  -16.6279  -42.4332   -7.6551 C   0  0  0  0  0  0  0  0  0  0  0  0
  -17.7138  -41.6637   -8.1746 C   0  0  0  0  0  0  0  0  0  0  0  0
  -18.9567  -42.2557   -8.2866 C   0  0  0  0  0  0  0  0  0  0  0  0
  -17.2369  -40.3156   -8.4939 C   0  0  0  0  0  0  0  0  0  0  0  0
  -16.0291  -40.2068   -9.0460 O   0  0  0  0  0  0  0  0  0  0  0  0
  -17.7686  -39.0154   -8.3513 N   0  0  0  0  0  0  0  0  0  0  0  0
  1  2  1  0
  2  3  1  0
  4  3  1  1
  4  5  1  0
  5  6  1  0
  6  7  1  0
  7  8  1  1
  8  9  1  0
  7 10  1  0
 10 11  1  6
 10 12  1  0
 12 13  1  1
 13 14  1  0
 14 15  2  0
 15 16  1  0
 16 17  2  0
 17 18  1  0
 18 19  2  0
 18 20  1  0
 20 21  1  0
 21 22  1  0
 22 23  1  0
 23 24  1  0
 24 25  1  0
 25 26  1  0
 26 27  2  0
 27 28  1  0
 28 29  1  0
 29 30  1  0
 30 31  1  0
 28 32  2  0
 32 33  1  0
 33 34  2  0
 33 35  1  0
 35 36  2  0
 35 37  1  0
  9  4  1  0
 19 14  1  0
 34 26  1  0
 37 12  1  0
M  END
$$$$
