
     RDKit          3D

 37 40  0  0  0  0  0  0  0  0999 V2000
  -13.3604  -36.2885   -9.9939 C   0  0  0  0  0  0  0  0  0  0  0  0
  -12.5768  -37.0470  -10.7853 O   0  0  0  0  0  0  0  0  0  0  0  0
  -12.5656  -38.3890  -10.6814 C   0  0  0  0  0  0  0  0  0  0  0  0
  -13.9182  -39.0134  -10.5578 C   0  0  1  0  0  0  0  0  0  0  0  0
  -14.1996  -39.6757   -9.2447 C   0  0  0  0  0  0  0  0  0  0  0  0
  -15.5013  -39.2029   -8.6960 N   0  0  0  0  0  0  0  0  0  0  0  0
  -16.5170  -39.4391   -9.7541 C   0  0  2  0  0  0  0  0  0  0  0  0
  -16.0861  -38.5069  -10.9008 C   0  0  0  0  0  0  0  0  0  0  0  0
  -14.8516  -37.9222  -10.6073 O   0  0  0  0  0  0  0  0  0  0  0  0
  -17.8377  -39.0536   -9.1838 C   0  0  1  0  0  0  0  0  0  0  0  0
  -18.7458  -39.0252  -10.2545 O   0  0  0  0  0  0  0  0  0  0  0  0
  -18.3303  -39.8937   -8.0388 C   0  0  2  0  0  0  0  0  0  0  0  0
  -18.7287  -39.0763   -6.8286 C   0  0  0  0  0  0  0  0  0  0  0  0
  -20.1985  -39.0709   -6.5323 C   0  0  0  0  0  0  0  0  0  0  0  0
  -20.7382  -37.7815   -6.7678 C   0  0  0  0  0  0  0  0  0  0  0  0
  -22.0529  -37.4581   -6.5842 C   0  0  0  0  0  0  0  0  0  0  0  0
  -22.8394  -38.4935   -6.1445 C   0  0  0  0  0  0  0  0  0  0  0  0
  -22.3565  -39.7937   -5.8957 C   0  0  0  0  0  0  0  0  0  0  0  0
  -21.0042  -40.0754   -6.0971 C   0  0  0  0  0  0  0  0  0  0  0  0
  -23.3660  -40.6207   -5.4668 O   0  0  0  0  0  0  0  0  0  0  0  0
  -23.9703  -41.8142   -5.7301 C   0  0  0  0  0  0  0  0  0  0  0  0
  -23.2235  -43.0618   -5.3316 C   0  0  0  0  0  0  0  0  0  0  0  0
  -23.5050  -44.2418   -6.2354 C   0  0  0  0  0  0  0  0  0  0  0  0
  -23.1511  -43.9805   -7.6608 C   0  0  0  0  0  0  0  0  0  0  0  0
  -21.9713  -44.7329   -8.0165 N   0  0  0  0  0  0  0  0  0  0  0  0
  -20.5741  -44.4363   -7.8489 C   0  0  0  0  0  0  0  0  0  0  0  0
  -19.9430  -45.6106   -7.3596 C   0  0  0  0  0  0  0  0  0  0  0  0
  -18.6060  -45.6765   -7.0775 C   0  0  0  0  0  0  0  0  0  0  0  0
  -17.9745  -46.9102   -6.5715 C   0  0  0  0  0  0  0  0  0  0  0  0
  -17.2098  -47.5608   -7.5173 O   0  0  0  0  0  0  0  0  0  0  0  0
  -15.8823  -47.1929   -7.3046 C   0  0  0  0  0  0  0  0  0  0  0  0
  -17.9136  -44.5267   -7.3002 C   0  0  0  0  0  0  0  0  0  0  0  0
  -18.4914  -43.3155   -7.7906 C   0  0  0  0  0  0  0  0  0  0  0  0
  -19.8445  -43.2863   -8.0662 C   0  0  0  0  0  0  0  0  0  0  0  0
  -17.4462  -42.2943   -7.8976 C   0  0  0  0  0  0  0  0  0  0  0  0
  -16.2523  -42.6827   -8.3442 O   0  0  0  0  0  0  0  0  0  0  0  0
  -17.3795  -40.9106   -7.6251 N   0  0  0  0  0  0  0  0  0  0  0  0
  1  2  1  0
  2  3  1  0
  4  3  1  1
  4  5  1  0
  5  6  1  0
  6  7  1  0
  7  8  1  6
  8  9  1  0
  7 10  1  0
 10 11  1  6
 10 12  1  0
 12 13  1  1
 13 14  1  0
 14 15  2  0
 15 16  1  0
 16 17  2  0
 17 18  1  0
 18 19  2  0
 18 20  1  0
 20 21  1  0
 21 22  1  0
 22 23  1  0
 23 24  1  0
 24 25  1  0
 25 26  1  0
 26 27  2  0
 27 28  1  0
 28 29  1  0
 29 30  1  0
 30 31  1  0
 28 32  2  0
 32 33  1  0
 33 34  2  0
 33 35  1  0
 35 36  2  0
 35 37  1  0
  9  4  1  0
 19 14  1  0
 34 26  1  0
 37 12  1  0
M  END
$$$$
