
     RDKit          3D

 37 40  0  0  0  0  0  0  0  0999 V2000
  -12.1062  -36.7780  -11.5237 C   0  0  0  0  0  0  0  0  0  0  0  0
  -12.1623  -38.1096  -11.3256 O   0  0  0  0  0  0  0  0  0  0  0  0
  -12.9500  -38.8981  -12.0805 C   0  0  0  0  0  0  0  0  0  0  0  0
  -14.3582  -39.0175  -11.5930 C   0  0  1  0  0  0  0  0  0  0  0  0
  -14.5814  -40.0462  -10.5280 C   0  0  0  0  0  0  0  0  0  0  0  0
  -15.3242  -39.4508   -9.3822 N   0  0  0  0  0  0  0  0  0  0  0  0
  -16.5585  -38.8465   -9.9467 C   0  0  2  0  0  0  0  0  0  0  0  0
  -16.0402  -37.7150  -10.8527 C   0  0  0  0  0  0  0  0  0  0  0  0
  -14.6470  -37.7699  -10.9416 O   0  0  0  0  0  0  0  0  0  0  0  0
  -17.3531  -38.3270   -8.7992 C   0  0  1  0  0  0  0  0  0  0  0  0
  -18.3430  -37.4911   -9.3406 O   0  0  0  0  0  0  0  0  0  0  0  0
  -17.9244  -39.3631   -7.8719 C   0  0  2  0  0  0  0  0  0  0  0  0
  -18.5492  -38.7691   -6.6276 C   0  0  0  0  0  0  0  0  0  0  0  0
  -20.0408  -38.9005   -6.5516 C   0  0  0  0  0  0  0  0  0  0  0  0
  -20.6490  -37.6260   -6.6747 C   0  0  0  0  0  0  0  0  0  0  0  0
  -21.9987  -37.4168   -6.6403 C   0  0  0  0  0  0  0  0  0  0  0  0
  -22.7486  -38.5544   -6.4745 C   0  0  0  0  0  0  0  0  0  0  0  0
  -22.1974  -39.8451   -6.3483 C   0  0  0  0  0  0  0  0  0  0  0  0
  -20.8117  -40.0080   -6.3886 C   0  0  0  0  0  0  0  0  0  0  0  0
  -23.1834  -40.7894   -6.1955 O   0  0  0  0  0  0  0  0  0  0  0  0
  -23.6452  -41.9627   -6.7140 C   0  0  0  0  0  0  0  0  0  0  0  0
  -22.8581  -43.2084   -6.3952 C   0  0  0  0  0  0  0  0  0  0  0  0
  -22.9158  -44.2493   -7.4913 C   0  0  0  0  0  0  0  0  0  0  0  0
  -22.3955  -43.7492   -8.7968 C   0  0  0  0  0  0  0  0  0  0  0  0
  -21.1200  -44.3631   -9.0813 N   0  0  0  0  0  0  0  0  0  0  0  0
  -19.7878  -44.0102   -8.6702 C   0  0  0  0  0  0  0  0  0  0  0  0
  -19.1333  -45.2048   -8.2689 C   0  0  0  0  0  0  0  0  0  0  0  0
  -17.8458  -45.2308   -7.8070 C   0  0  0  0  0  0  0  0  0  0  0  0
  -17.1881  -46.4865   -7.3978 C   0  0  0  0  0  0  0  0  0  0  0  0
  -15.9914  -46.2885   -6.7413 O   0  0  0  0  0  0  0  0  0  0  0  0
  -15.8993  -47.2562   -5.7422 C   0  0  0  0  0  0  0  0  0  0  0  0
  -17.2276  -44.0198   -7.7576 C   0  0  0  0  0  0  0  0  0  0  0  0
  -17.8325  -42.7854   -8.1470 C   0  0  0  0  0  0  0  0  0  0  0  0
  -19.1337  -42.7976   -8.6102 C   0  0  0  0  0  0  0  0  0  0  0  0
  -16.8710  -41.6973   -7.9515 C   0  0  0  0  0  0  0  0  0  0  0  0
  -15.5996  -41.9373   -8.2702 O   0  0  0  0  0  0  0  0  0  0  0  0
  -16.9570  -40.3709   -7.4751 N   0  0  0  0  0  0  0  0  0  0  0  0
  1  2  1  0
  2  3  1  0
  4  3  1  1
  4  5  1  0
  5  6  1  0
  6  7  1  0
  7  8  1  6
  8  9  1  0
  7 10  1  0
 10 11  1  6
 10 12  1  0
 12 13  1  1
 13 14  1  0
 14 15  2  0
 15 16  1  0
 16 17  2  0
 17 18  1  0
 18 19  2  0
 18 20  1  0
 20 21  1  0
 21 22  1  0
 22 23  1  0
 23 24  1  0
 24 25  1  0
 25 26  1  0
 26 27  2  0
 27 28  1  0
 28 29  1  0
 29 30  1  0
 30 31  1  0
 28 32  2  0
 32 33  1  0
 33 34  2  0
 33 35  1  0
 35 36  2  0
 35 37  1  0
  9  4  1  0
 19 14  1  0
 34 26  1  0
 37 12  1  0
M  END
$$$$
