
     RDKit          3D

 37 40  0  0  0  0  0  0  0  0999 V2000
  -13.3183  -35.5426  -10.5729 C   0  0  0  0  0  0  0  0  0  0  0  0
  -12.5664  -36.3952   -9.8494 O   0  0  0  0  0  0  0  0  0  0  0  0
  -12.3220  -37.6486  -10.2750 C   0  0  0  0  0  0  0  0  0  0  0  0
  -13.4984  -38.5683  -10.2050 C   0  0  1  0  0  0  0  0  0  0  0  0
  -14.0556  -38.7911   -8.8330 C   0  0  0  0  0  0  0  0  0  0  0  0
  -15.5292  -38.5733   -8.8322 N   0  0  0  0  0  0  0  0  0  0  0  0
  -16.0871  -39.4523   -9.8919 C   0  0  2  0  0  0  0  0  0  0  0  0
  -15.4958  -38.8872  -11.1961 C   0  0  0  0  0  0  0  0  0  0  0  0
  -14.5555  -37.8950  -10.9076 O   0  0  0  0  0  0  0  0  0  0  0  0
  -17.5688  -39.3105   -9.8400 C   0  0  1  0  0  0  0  0  0  0  0  0
  -18.0863  -40.1112  -10.8709 O   0  0  0  0  0  0  0  0  0  0  0  0
  -18.2114  -39.6019   -8.5127 C   0  0  2  0  0  0  0  0  0  0  0  0
  -18.7675  -38.3671   -7.8364 C   0  0  0  0  0  0  0  0  0  0  0  0
  -20.2638  -38.3189   -7.7524 C   0  0  0  0  0  0  0  0  0  0  0  0
  -20.7657  -37.2901   -8.5886 C   0  0  0  0  0  0  0  0  0  0  0  0
  -22.0928  -36.9951   -8.7247 C   0  0  0  0  0  0  0  0  0  0  0  0
  -22.9322  -37.7832   -7.9775 C   0  0  0  0  0  0  0  0  0  0  0  0
  -22.4884  -38.8192   -7.1317 C   0  0  0  0  0  0  0  0  0  0  0  0
  -21.1216  -39.0821   -7.0251 C   0  0  0  0  0  0  0  0  0  0  0  0
  -23.5472  -39.4370   -6.5118 O   0  0  0  0  0  0  0  0  0  0  0  0
  -24.1119  -40.6600   -6.3011 C   0  0  0  0  0  0  0  0  0  0  0  0
  -23.4267  -41.5690   -5.3127 C   0  0  0  0  0  0  0  0  0  0  0  0
  -23.5857  -43.0372   -5.6403 C   0  0  0  0  0  0  0  0  0  0  0  0
  -23.0436  -43.3958   -6.9829 C   0  0  0  0  0  0  0  0  0  0  0  0
  -21.8275  -44.1591   -6.8303 N   0  0  0  0  0  0  0  0  0  0  0  0
  -20.4651  -43.7396   -6.6403 C   0  0  0  0  0  0  0  0  0  0  0  0
  -19.9066  -44.5500   -5.6167 C   0  0  0  0  0  0  0  0  0  0  0  0
  -18.6195  -44.4111   -5.1743 C   0  0  0  0  0  0  0  0  0  0  0  0
  -18.0628  -45.2679   -4.1099 C   0  0  0  0  0  0  0  0  0  0  0  0
  -16.7013  -45.4604   -4.2187 O   0  0  0  0  0  0  0  0  0  0  0  0
  -16.5034  -46.6642   -4.8931 C   0  0  0  0  0  0  0  0  0  0  0  0
  -17.9023  -43.4319   -5.7890 C   0  0  0  0  0  0  0  0  0  0  0  0
  -18.4078  -42.5857   -6.8232 C   0  0  0  0  0  0  0  0  0  0  0  0
  -19.7117  -42.7557   -7.2457 C   0  0  0  0  0  0  0  0  0  0  0  0
  -17.3566  -41.6522   -7.2359 C   0  0  0  0  0  0  0  0  0  0  0  0
  -16.1141  -42.1259   -7.3209 O   0  0  0  0  0  0  0  0  0  0  0  0
  -17.3256  -40.2848   -7.5862 N   0  0  0  0  0  0  0  0  0  0  0  0
  1  2  1  0
  2  3  1  0
  4  3  1  1
  4  5  1  0
  5  6  1  0
  6  7  1  0
  7  8  1  6
  8  9  1  0
  7 10  1  0
 10 11  1  6
 10 12  1  0
 12 13  1  1
 13 14  1  0
 14 15  2  0
 15 16  1  0
 16 17  2  0
 17 18  1  0
 18 19  2  0
 18 20  1  0
 20 21  1  0
 21 22  1  0
 22 23  1  0
 23 24  1  0
 24 25  1  0
 25 26  1  0
 26 27  2  0
 27 28  1  0
 28 29  1  0
 29 30  1  0
 30 31  1  0
 28 32  2  0
 32 33  1  0
 33 34  2  0
 33 35  1  0
 35 36  2  0
 35 37  1  0
  9  4  1  0
 19 14  1  0
 34 26  1  0
 37 12  1  0
M  END
$$$$
