
     RDKit          3D

 37 40  0  0  0  0  0  0  0  0999 V2000
  -12.6736  -36.6945  -11.7392 C   0  0  0  0  0  0  0  0  0  0  0  0
  -12.2570  -37.9453  -12.0179 O   0  0  0  0  0  0  0  0  0  0  0  0
  -12.3379  -38.9309  -11.1047 C   0  0  0  0  0  0  0  0  0  0  0  0
  -13.7280  -39.4031  -10.8227 C   0  0  1  0  0  0  0  0  0  0  0  0
  -13.9242  -40.0544   -9.4887 C   0  0  0  0  0  0  0  0  0  0  0  0
  -15.0899  -39.4501   -8.7852 N   0  0  0  0  0  0  0  0  0  0  0  0
  -16.2442  -39.5521   -9.7148 C   0  0  2  0  0  0  0  0  0  0  0  0
  -15.8503  -38.6523  -10.9001 C   0  0  0  0  0  0  0  0  0  0  0  0
  -14.5318  -38.2141  -10.7540 O   0  0  0  0  0  0  0  0  0  0  0  0
  -17.4359  -39.0327   -8.9879 C   0  0  1  0  0  0  0  0  0  0  0  0
  -18.4317  -38.8123   -9.9532 O   0  0  0  0  0  0  0  0  0  0  0  0
  -17.9262  -39.8740   -7.8428 C   0  0  2  0  0  0  0  0  0  0  0  0
  -18.4507  -39.0543   -6.6833 C   0  0  0  0  0  0  0  0  0  0  0  0
  -19.9308  -39.1530   -6.4650 C   0  0  0  0  0  0  0  0  0  0  0  0
  -20.5520  -37.9164   -6.7717 C   0  0  0  0  0  0  0  0  0  0  0  0
  -21.8954  -37.6895   -6.6684 C   0  0  0  0  0  0  0  0  0  0  0  0
  -22.6249  -38.7688   -6.2361 C   0  0  0  0  0  0  0  0  0  0  0  0
  -22.0602  -40.0202   -5.9187 C   0  0  0  0  0  0  0  0  0  0  0  0
  -20.6815  -40.2031   -6.0393 C   0  0  0  0  0  0  0  0  0  0  0  0
  -23.0267  -40.9093   -5.5159 O   0  0  0  0  0  0  0  0  0  0  0  0
  -23.5243  -42.1529   -5.7704 C   0  0  0  0  0  0  0  0  0  0  0  0
  -22.7090  -43.3272   -5.2915 C   0  0  0  0  0  0  0  0  0  0  0  0
  -22.8511  -44.5514   -6.1687 C   0  0  0  0  0  0  0  0  0  0  0  0
  -22.4400  -44.3059   -7.5815 C   0  0  0  0  0  0  0  0  0  0  0  0
  -21.1893  -44.9757   -7.8493 N   0  0  0  0  0  0  0  0  0  0  0  0
  -19.8297  -44.5679   -7.6185 C   0  0  0  0  0  0  0  0  0  0  0  0
  -19.1400  -45.6753   -7.0576 C   0  0  0  0  0  0  0  0  0  0  0  0
  -17.8194  -45.6300   -6.7036 C   0  0  0  0  0  0  0  0  0  0  0  0
  -17.1257  -46.7961   -6.1240 C   0  0  0  0  0  0  0  0  0  0  0  0
  -17.4533  -47.0271   -4.8043 O   0  0  0  0  0  0  0  0  0  0  0  0
  -18.3367  -48.1050   -4.7768 C   0  0  0  0  0  0  0  0  0  0  0  0
  -17.2040  -44.4375   -6.9281 C   0  0  0  0  0  0  0  0  0  0  0  0
  -17.8433  -43.2893   -7.4887 C   0  0  0  0  0  0  0  0  0  0  0  0
  -19.1776  -43.3722   -7.8357 C   0  0  0  0  0  0  0  0  0  0  0  0
  -16.8734  -42.1944   -7.5748 C   0  0  0  0  0  0  0  0  0  0  0  0
  -15.6311  -42.5030   -7.9448 O   0  0  0  0  0  0  0  0  0  0  0  0
  -16.9259  -40.8022   -7.3458 N   0  0  0  0  0  0  0  0  0  0  0  0
  1  2  1  0
  2  3  1  0
  4  3  1  1
  4  5  1  0
  5  6  1  0
  6  7  1  0
  7  8  1  6
  8  9  1  0
  7 10  1  0
 10 11  1  6
 10 12  1  0
 12 13  1  1
 13 14  1  0
 14 15  2  0
 15 16  1  0
 16 17  2  0
 17 18  1  0
 18 19  2  0
 18 20  1  0
 20 21  1  0
 21 22  1  0
 22 23  1  0
 23 24  1  0
 24 25  1  0
 25 26  1  0
 26 27  2  0
 27 28  1  0
 28 29  1  0
 29 30  1  0
 30 31  1  0
 28 32  2  0
 32 33  1  0
 33 34  2  0
 33 35  1  0
 35 36  2  0
 35 37  1  0
  9  4  1  0
 19 14  1  0
 34 26  1  0
 37 12  1  0
M  END
$$$$
