
     RDKit          3D

 37 40  0  0  0  0  0  0  0  0999 V2000
  -24.2148  -39.9568   -4.8787 C   0  0  0  0  0  0  0  0  0  0  0  0
  -23.0947  -40.1624   -4.1584 O   0  0  0  0  0  0  0  0  0  0  0  0
  -22.2790  -41.2026   -4.4123 C   0  0  0  0  0  0  0  0  0  0  0  0
  -20.8484  -40.8299   -4.6339 C   0  0  1  0  0  0  0  0  0  0  0  0
  -20.2280  -41.3851   -5.8785 C   0  0  0  0  0  0  0  0  0  0  0  0
  -19.5580  -40.3010   -6.6497 N   0  0  0  0  0  0  0  0  0  0  0  0
  -18.6139  -39.6377   -5.7139 C   0  0  2  0  0  0  0  0  0  0  0  0
  -19.5266  -39.0061   -4.6472 C   0  0  0  0  0  0  0  0  0  0  0  0
  -20.8494  -39.4089   -4.8464 O   0  0  0  0  0  0  0  0  0  0  0  0
  -17.8731  -38.6106   -6.4979 C   0  0  1  0  0  0  0  0  0  0  0  0
  -16.5063  -38.8885   -6.3351 O   0  0  0  0  0  0  0  0  0  0  0  0
  -18.2616  -38.4806   -7.9442 C   0  0  2  0  0  0  0  0  0  0  0  0
  -18.2131  -37.0539   -8.4479 C   0  0  0  0  0  0  0  0  0  0  0  0
  -17.1290  -36.7784   -9.4464 C   0  0  0  0  0  0  0  0  0  0  0  0
  -16.1515  -35.9222   -8.8803 C   0  0  0  0  0  0  0  0  0  0  0  0
  -15.0400  -35.4864   -9.5449 C   0  0  0  0  0  0  0  0  0  0  0  0
  -14.9289  -35.9458  -10.8336 C   0  0  0  0  0  0  0  0  0  0  0  0
  -15.8690  -36.7986  -11.4455 C   0  0  0  0  0  0  0  0  0  0  0  0
  -16.9897  -37.2162  -10.7256 C   0  0  0  0  0  0  0  0  0  0  0  0
  -15.4999  -37.0946  -12.7352 O   0  0  0  0  0  0  0  0  0  0  0  0
  -15.2720  -38.1394  -13.5810 C   0  0  0  0  0  0  0  0  0  0  0  0
  -16.4813  -38.8696  -14.1077 C   0  0  0  0  0  0  0  0  0  0  0  0
  -16.2253  -40.3364  -14.3741 C   0  0  0  0  0  0  0  0  0  0  0  0
  -15.7848  -41.0805  -13.1586 C   0  0  0  0  0  0  0  0  0  0  0  0
  -16.8473  -41.9464  -12.7047 N   0  0  0  0  0  0  0  0  0  0  0  0
  -17.9828  -41.6879  -11.8609 C   0  0  0  0  0  0  0  0  0  0  0  0
  -19.1135  -42.2972  -12.4665 C   0  0  0  0  0  0  0  0  0  0  0  0
  -20.3704  -42.2367  -11.9297 C   0  0  0  0  0  0  0  0  0  0  0  0
  -21.5286  -42.8805  -12.5786 C   0  0  0  0  0  0  0  0  0  0  0  0
  -22.1901  -42.0533  -13.4622 O   0  0  0  0  0  0  0  0  0  0  0  0
  -23.2504  -41.4688  -12.7715 C   0  0  0  0  0  0  0  0  0  0  0  0
  -20.4647  -41.5448  -10.7621 C   0  0  0  0  0  0  0  0  0  0  0  0
  -19.3654  -40.9111  -10.1053 C   0  0  0  0  0  0  0  0  0  0  0  0
  -18.1103  -40.9943  -10.6757 C   0  0  0  0  0  0  0  0  0  0  0  0
  -19.8466  -40.2609   -8.8837 C   0  0  0  0  0  0  0  0  0  0  0  0
  -20.7598  -40.9098   -8.1621 O   0  0  0  0  0  0  0  0  0  0  0  0
  -19.5710  -39.0365   -8.2368 N   0  0  0  0  0  0  0  0  0  0  0  0
  1  2  1  0
  2  3  1  0
  4  3  1  6
  4  5  1  0
  5  6  1  0
  6  7  1  0
  7  8  1  1
  8  9  1  0
  7 10  1  0
 10 11  1  6
 10 12  1  0
 12 13  1  1
 13 14  1  0
 14 15  2  0
 15 16  1  0
 16 17  2  0
 17 18  1  0
 18 19  2  0
 18 20  1  0
 20 21  1  0
 21 22  1  0
 22 23  1  0
 23 24  1  0
 24 25  1  0
 25 26  1  0
 26 27  2  0
 27 28  1  0
 28 29  1  0
 29 30  1  0
 30 31  1  0
 28 32  2  0
 32 33  1  0
 33 34  2  0
 33 35  1  0
 35 36  2  0
 35 37  1  0
  9  4  1  0
 19 14  1  0
 34 26  1  0
 37 12  1  0
M  END
$$$$
