
     RDKit          3D

 37 40  0  0  0  0  0  0  0  0999 V2000
  -12.0258  -38.8346   -7.8697 C   0  0  0  0  0  0  0  0  0  0  0  0
  -11.6689  -39.9519   -8.5330 O   0  0  0  0  0  0  0  0  0  0  0  0
  -12.0799  -40.1799   -9.7943 C   0  0  0  0  0  0  0  0  0  0  0  0
  -13.5207  -40.5589   -9.9186 C   0  0  1  0  0  0  0  0  0  0  0  0
  -14.1351  -41.1503   -8.6878 C   0  0  0  0  0  0  0  0  0  0  0  0
  -15.4108  -40.4539   -8.3615 N   0  0  0  0  0  0  0  0  0  0  0  0
  -16.2532  -40.5199   -9.5834 C   0  0  2  0  0  0  0  0  0  0  0  0
  -15.4760  -39.6870  -10.6188 C   0  0  0  0  0  0  0  0  0  0  0  0
  -14.2290  -39.3228  -10.1048 O   0  0  0  0  0  0  0  0  0  0  0  0
  -17.5662  -39.9058   -9.2408 C   0  0  1  0  0  0  0  0  0  0  0  0
  -18.3764  -40.0254  -10.3814 O   0  0  0  0  0  0  0  0  0  0  0  0
  -18.2377  -40.4356   -8.0047 C   0  0  2  0  0  0  0  0  0  0  0  0
  -18.4215  -39.3853   -6.9302 C   0  0  0  0  0  0  0  0  0  0  0  0
  -19.8455  -38.9898   -6.6777 C   0  0  0  0  0  0  0  0  0  0  0  0
  -20.0633  -37.6554   -7.1035 C   0  0  0  0  0  0  0  0  0  0  0  0
  -21.2615  -37.0068   -7.0023 C   0  0  0  0  0  0  0  0  0  0  0  0
  -22.2696  -37.7536   -6.4455 C   0  0  0  0  0  0  0  0  0  0  0  0
  -22.1095  -39.0831   -6.0066 C   0  0  0  0  0  0  0  0  0  0  0  0
  -20.8649  -39.7030   -6.1303 C   0  0  0  0  0  0  0  0  0  0  0  0
  -23.2844  -39.5783   -5.4954 O   0  0  0  0  0  0  0  0  0  0  0  0
  -24.1579  -40.6191   -5.6079 C   0  0  0  0  0  0  0  0  0  0  0  0
  -23.7280  -41.9395   -5.0209 C   0  0  0  0  0  0  0  0  0  0  0  0
  -24.2889  -43.1339   -5.7605 C   0  0  0  0  0  0  0  0  0  0  0  0
  -23.8921  -43.1670   -7.1981 C   0  0  0  0  0  0  0  0  0  0  0  0
  -22.9284  -44.2202   -7.4143 N   0  0  0  0  0  0  0  0  0  0  0  0
  -21.4997  -44.2430   -7.2511 C   0  0  0  0  0  0  0  0  0  0  0  0
  -21.1641  -45.4527   -6.5874 C   0  0  0  0  0  0  0  0  0  0  0  0
  -19.8797  -45.7936   -6.2625 C   0  0  0  0  0  0  0  0  0  0  0  0
  -19.5576  -47.0583   -5.5742 C   0  0  0  0  0  0  0  0  0  0  0  0
  -18.4538  -47.6996   -6.0963 O   0  0  0  0  0  0  0  0  0  0  0  0
  -17.4535  -47.6636   -5.1263 C   0  0  0  0  0  0  0  0  0  0  0  0
  -18.9342  -44.8840   -6.6228 C   0  0  0  0  0  0  0  0  0  0  0  0
  -19.2093  -43.6517   -7.2913 C   0  0  0  0  0  0  0  0  0  0  0  0
  -20.5181  -43.3412   -7.6050 C   0  0  0  0  0  0  0  0  0  0  0  0
  -17.9513  -42.9331   -7.5095 C   0  0  0  0  0  0  0  0  0  0  0  0
  -16.8876  -43.6523   -7.8655 O   0  0  0  0  0  0  0  0  0  0  0  0
  -17.5544  -41.5805   -7.4289 N   0  0  0  0  0  0  0  0  0  0  0  0
  1  2  1  0
  2  3  1  0
  4  3  1  1
  4  5  1  0
  5  6  1  0
  6  7  1  0
  7  8  1  6
  8  9  1  0
  7 10  1  0
 10 11  1  6
 10 12  1  0
 12 13  1  1
 13 14  1  0
 14 15  2  0
 15 16  1  0
 16 17  2  0
 17 18  1  0
 18 19  2  0
 18 20  1  0
 20 21  1  0
 21 22  1  0
 22 23  1  0
 23 24  1  0
 24 25  1  0
 25 26  1  0
 26 27  2  0
 27 28  1  0
 28 29  1  0
 29 30  1  0
 30 31  1  0
 28 32  2  0
 32 33  1  0
 33 34  2  0
 33 35  1  0
 35 36  2  0
 35 37  1  0
  9  4  1  0
 19 14  1  0
 34 26  1  0
 37 12  1  0
M  END
$$$$
