
     RDKit          3D

 37 40  0  0  0  0  0  0  0  0999 V2000
  -13.0323  -37.1669  -10.5169 C   0  0  0  0  0  0  0  0  0  0  0  0
  -12.1490  -38.1738  -10.6648 O   0  0  0  0  0  0  0  0  0  0  0  0
  -12.5564  -39.4499  -10.7967 C   0  0  0  0  0  0  0  0  0  0  0  0
  -14.0400  -39.6325  -10.7821 C   0  0  1  0  0  0  0  0  0  0  0  0
  -14.5594  -40.5669   -9.7336 C   0  0  0  0  0  0  0  0  0  0  0  0
  -15.6646  -39.9234   -8.9698 N   0  0  0  0  0  0  0  0  0  0  0  0
  -16.6667  -39.4767   -9.9714 C   0  0  2  0  0  0  0  0  0  0  0  0
  -15.9263  -38.4013  -10.7870 C   0  0  0  0  0  0  0  0  0  0  0  0
  -14.5814  -38.3541  -10.4117 O   0  0  0  0  0  0  0  0  0  0  0  0
  -17.8181  -38.9124   -9.2136 C   0  0  1  0  0  0  0  0  0  0  0  0
  -18.8466  -38.6976  -10.1452 O   0  0  0  0  0  0  0  0  0  0  0  0
  -18.2795  -39.7113   -8.0269 C   0  0  2  0  0  0  0  0  0  0  0  0
  -18.6272  -38.8527   -6.8297 C   0  0  0  0  0  0  0  0  0  0  0  0
  -20.0857  -38.8213   -6.4835 C   0  0  0  0  0  0  0  0  0  0  0  0
  -20.6198  -37.5336   -6.7403 C   0  0  0  0  0  0  0  0  0  0  0  0
  -21.9239  -37.1896   -6.5219 C   0  0  0  0  0  0  0  0  0  0  0  0
  -22.7054  -38.2020   -6.0236 C   0  0  0  0  0  0  0  0  0  0  0  0
  -22.2278  -39.4994   -5.7512 C   0  0  0  0  0  0  0  0  0  0  0  0
  -20.8863  -39.8026   -5.9901 C   0  0  0  0  0  0  0  0  0  0  0  0
  -23.2304  -40.3012   -5.2625 O   0  0  0  0  0  0  0  0  0  0  0  0
  -23.8559  -41.4952   -5.4678 C   0  0  0  0  0  0  0  0  0  0  0  0
  -23.1088  -42.7385   -5.0566 C   0  0  0  0  0  0  0  0  0  0  0  0
  -23.4337  -43.9423   -5.9132 C   0  0  0  0  0  0  0  0  0  0  0  0
  -23.1266  -43.7289   -7.3572 C   0  0  0  0  0  0  0  0  0  0  0  0
  -21.9677  -44.5054   -7.7297 N   0  0  0  0  0  0  0  0  0  0  0  0
  -20.5625  -44.2199   -7.6193 C   0  0  0  0  0  0  0  0  0  0  0  0
  -19.9272  -45.3857   -7.1157 C   0  0  0  0  0  0  0  0  0  0  0  0
  -18.5820  -45.4583   -6.8777 C   0  0  0  0  0  0  0  0  0  0  0  0
  -17.9462  -46.6831   -6.3556 C   0  0  0  0  0  0  0  0  0  0  0  0
  -16.5701  -46.6050   -6.3024 O   0  0  0  0  0  0  0  0  0  0  0  0
  -16.0649  -47.5258   -7.2189 C   0  0  0  0  0  0  0  0  0  0  0  0
  -17.8857  -44.3239   -7.1596 C   0  0  0  0  0  0  0  0  0  0  0  0
  -18.4675  -43.1218   -7.6673 C   0  0  0  0  0  0  0  0  0  0  0  0
  -19.8290  -43.0855   -7.8971 C   0  0  0  0  0  0  0  0  0  0  0  0
  -17.4160  -42.1164   -7.8416 C   0  0  0  0  0  0  0  0  0  0  0  0
  -16.2424  -42.5320   -8.3166 O   0  0  0  0  0  0  0  0  0  0  0  0
  -17.3256  -40.7258   -7.6147 N   0  0  0  0  0  0  0  0  0  0  0  0
  1  2  1  0
  2  3  1  0
  4  3  1  1
  4  5  1  0
  5  6  1  0
  6  7  1  0
  7  8  1  6
  8  9  1  0
  7 10  1  0
 10 11  1  6
 10 12  1  0
 12 13  1  1
 13 14  1  0
 14 15  2  0
 15 16  1  0
 16 17  2  0
 17 18  1  0
 18 19  2  0
 18 20  1  0
 20 21  1  0
 21 22  1  0
 22 23  1  0
 23 24  1  0
 24 25  1  0
 25 26  1  0
 26 27  2  0
 27 28  1  0
 28 29  1  0
 29 30  1  0
 30 31  1  0
 28 32  2  0
 32 33  1  0
 33 34  2  0
 33 35  1  0
 35 36  2  0
 35 37  1  0
  9  4  1  0
 19 14  1  0
 34 26  1  0
 37 12  1  0
M  END
$$$$
