
     RDKit          3D

 37 40  0  0  0  0  0  0  0  0999 V2000
  -12.4493  -42.1712  -11.3122 C   0  0  0  0  0  0  0  0  0  0  0  0
  -13.6166  -42.8041  -11.5415 O   0  0  0  0  0  0  0  0  0  0  0  0
  -14.7580  -42.1191  -11.7412 C   0  0  0  0  0  0  0  0  0  0  0  0
  -15.0149  -41.0365  -10.7428 C   0  0  1  0  0  0  0  0  0  0  0  0
  -15.6707  -39.8058  -11.2882 C   0  0  0  0  0  0  0  0  0  0  0  0
  -16.8498  -39.4367  -10.4560 N   0  0  0  0  0  0  0  0  0  0  0  0
  -16.3621  -39.3266   -9.0570 C   0  0  2  0  0  0  0  0  0  0  0  0
  -15.9230  -40.7583   -8.7004 C   0  0  0  0  0  0  0  0  0  0  0  0
  -15.9854  -41.5763   -9.8312 O   0  0  0  0  0  0  0  0  0  0  0  0
  -17.5131  -38.8701   -8.2293 C   0  0  1  0  0  0  0  0  0  0  0  0
  -18.4415  -38.2960   -9.1126 O   0  0  0  0  0  0  0  0  0  0  0  0
  -18.1370  -39.9092   -7.3402 C   0  0  2  0  0  0  0  0  0  0  0  0
  -18.7942  -39.3228   -6.1091 C   0  0  0  0  0  0  0  0  0  0  0  0
  -20.2899  -39.4256   -6.0881 C   0  0  0  0  0  0  0  0  0  0  0  0
  -20.8685  -38.1375   -6.2113 C   0  0  0  0  0  0  0  0  0  0  0  0
  -22.2143  -37.9019   -6.2213 C   0  0  0  0  0  0  0  0  0  0  0  0
  -22.9915  -39.0268   -6.1010 C   0  0  0  0  0  0  0  0  0  0  0  0
  -22.4703  -40.3301   -5.9770 C   0  0  0  0  0  0  0  0  0  0  0  0
  -21.0874  -40.5200   -5.9709 C   0  0  0  0  0  0  0  0  0  0  0  0
  -23.4791  -41.2568   -5.8749 O   0  0  0  0  0  0  0  0  0  0  0  0
  -23.9449  -42.4123   -6.4288 C   0  0  0  0  0  0  0  0  0  0  0  0
  -23.1939  -43.6784   -6.1032 C   0  0  0  0  0  0  0  0  0  0  0  0
  -23.2326  -44.7003   -7.2178 C   0  0  0  0  0  0  0  0  0  0  0  0
  -22.6564  -44.1899   -8.4955 C   0  0  0  0  0  0  0  0  0  0  0  0
  -21.3837  -44.8246   -8.7449 N   0  0  0  0  0  0  0  0  0  0  0  0
  -20.0605  -44.5049   -8.2812 C   0  0  0  0  0  0  0  0  0  0  0  0
  -19.4439  -45.7185   -7.8769 C   0  0  0  0  0  0  0  0  0  0  0  0
  -18.1745  -45.7776   -7.3702 C   0  0  0  0  0  0  0  0  0  0  0  0
  -17.5563  -47.0526   -6.9590 C   0  0  0  0  0  0  0  0  0  0  0  0
  -17.1251  -47.8191   -8.0215 O   0  0  0  0  0  0  0  0  0  0  0  0
  -15.7608  -47.5814   -8.1802 C   0  0  0  0  0  0  0  0  0  0  0  0
  -17.5352  -44.5801   -7.2789 C   0  0  0  0  0  0  0  0  0  0  0  0
  -18.1017  -43.3278   -7.6688 C   0  0  0  0  0  0  0  0  0  0  0  0
  -19.3855  -43.3067   -8.1778 C   0  0  0  0  0  0  0  0  0  0  0  0
  -17.1269  -42.2624   -7.4213 C   0  0  0  0  0  0  0  0  0  0  0  0
  -15.8498  -42.5226   -7.6988 O   0  0  0  0  0  0  0  0  0  0  0  0
  -17.2041  -40.9424   -6.9263 N   0  0  0  0  0  0  0  0  0  0  0  0
  1  2  1  0
  2  3  1  0
  4  3  1  6
  4  5  1  0
  5  6  1  0
  6  7  1  0
  7  8  1  1
  8  9  1  0
  7 10  1  0
 10 11  1  6
 10 12  1  0
 12 13  1  1
 13 14  1  0
 14 15  2  0
 15 16  1  0
 16 17  2  0
 17 18  1  0
 18 19  2  0
 18 20  1  0
 20 21  1  0
 21 22  1  0
 22 23  1  0
 23 24  1  0
 24 25  1  0
 25 26  1  0
 26 27  2  0
 27 28  1  0
 28 29  1  0
 29 30  1  0
 30 31  1  0
 28 32  2  0
 32 33  1  0
 33 34  2  0
 33 35  1  0
 35 36  2  0
 35 37  1  0
  9  4  1  0
 19 14  1  0
 34 26  1  0
 37 12  1  0
M  END
$$$$
