
     RDKit          3D

 37 40  0  0  0  0  0  0  0  0999 V2000
  -12.1143  -37.9594  -10.1285 C   0  0  0  0  0  0  0  0  0  0  0  0
  -11.9410  -39.1940   -9.6172 O   0  0  0  0  0  0  0  0  0  0  0  0
  -12.4074  -40.2866  -10.2501 C   0  0  0  0  0  0  0  0  0  0  0  0
  -13.8971  -40.4117  -10.2565 C   0  0  1  0  0  0  0  0  0  0  0  0
  -14.4740  -41.2438   -9.1533 C   0  0  0  0  0  0  0  0  0  0  0  0
  -15.5685  -40.5032   -8.4658 N   0  0  0  0  0  0  0  0  0  0  0  0
  -16.5316  -40.0963   -9.5212 C   0  0  2  0  0  0  0  0  0  0  0  0
  -15.7330  -39.1144  -10.3976 C   0  0  0  0  0  0  0  0  0  0  0  0
  -14.3953  -39.0895   -9.9957 O   0  0  0  0  0  0  0  0  0  0  0  0
  -17.6752  -39.4333   -8.8349 C   0  0  1  0  0  0  0  0  0  0  0  0
  -18.5795  -39.0501   -9.8385 O   0  0  0  0  0  0  0  0  0  0  0  0
  -18.3362  -40.2266   -7.7426 C   0  0  2  0  0  0  0  0  0  0  0  0
  -19.0334  -39.3601   -6.7157 C   0  0  0  0  0  0  0  0  0  0  0  0
  -20.5295  -39.4595   -6.7239 C   0  0  0  0  0  0  0  0  0  0  0  0
  -21.0961  -38.2420   -7.1779 C   0  0  0  0  0  0  0  0  0  0  0  0
  -22.4393  -38.0202   -7.2931 C   0  0  0  0  0  0  0  0  0  0  0  0
  -23.2266  -39.0845   -6.9305 C   0  0  0  0  0  0  0  0  0  0  0  0
  -22.7175  -40.3166   -6.4741 C   0  0  0  0  0  0  0  0  0  0  0  0
  -21.3368  -40.4949   -6.3724 C   0  0  0  0  0  0  0  0  0  0  0  0
  -23.7345  -41.1938   -6.1857 O   0  0  0  0  0  0  0  0  0  0  0  0
  -24.1867  -42.4509   -6.4578 C   0  0  0  0  0  0  0  0  0  0  0  0
  -23.4549  -43.5971   -5.8069 C   0  0  0  0  0  0  0  0  0  0  0  0
  -23.4598  -44.8599   -6.6398 C   0  0  0  0  0  0  0  0  0  0  0  0
  -22.8357  -44.6742   -7.9818 C   0  0  0  0  0  0  0  0  0  0  0  0
  -21.5585  -45.3464   -8.0234 N   0  0  0  0  0  0  0  0  0  0  0  0
  -20.2508  -44.9192   -7.6043 C   0  0  0  0  0  0  0  0  0  0  0  0
  -19.6558  -45.9958   -6.8947 C   0  0  0  0  0  0  0  0  0  0  0  0
  -18.4056  -45.9256   -6.3438 C   0  0  0  0  0  0  0  0  0  0  0  0
  -17.8096  -47.0600   -5.6126 C   0  0  0  0  0  0  0  0  0  0  0  0
  -18.1636  -47.0985   -4.2800 O   0  0  0  0  0  0  0  0  0  0  0  0
  -17.0970  -46.5761   -3.5504 C   0  0  0  0  0  0  0  0  0  0  0  0
  -17.7632  -44.7399   -6.5240 C   0  0  0  0  0  0  0  0  0  0  0  0
  -18.3084  -43.6221   -7.2272 C   0  0  0  0  0  0  0  0  0  0  0  0
  -19.5732  -43.7297   -7.7717 C   0  0  0  0  0  0  0  0  0  0  0  0
  -17.3370  -42.5254   -7.2118 C   0  0  0  0  0  0  0  0  0  0  0  0
  -16.0524  -42.8412   -7.3716 O   0  0  0  0  0  0  0  0  0  0  0  0
  -17.4244  -41.1248   -7.0563 N   0  0  0  0  0  0  0  0  0  0  0  0
  1  2  1  0
  2  3  1  0
  4  3  1  1
  4  5  1  0
  5  6  1  0
  6  7  1  0
  7  8  1  6
  8  9  1  0
  7 10  1  0
 10 11  1  6
 10 12  1  0
 12 13  1  1
 13 14  1  0
 14 15  2  0
 15 16  1  0
 16 17  2  0
 17 18  1  0
 18 19  2  0
 18 20  1  0
 20 21  1  0
 21 22  1  0
 22 23  1  0
 23 24  1  0
 24 25  1  0
 25 26  1  0
 26 27  2  0
 27 28  1  0
 28 29  1  0
 29 30  1  0
 30 31  1  0
 28 32  2  0
 32 33  1  0
 33 34  2  0
 33 35  1  0
 35 36  2  0
 35 37  1  0
  9  4  1  0
 19 14  1  0
 34 26  1  0
 37 12  1  0
M  END
$$$$
