
     RDKit          3D

 37 40  0  0  0  0  0  0  0  0999 V2000
  -12.5183  -37.8936  -11.7571 C   0  0  0  0  0  0  0  0  0  0  0  0
  -11.7861  -38.5262  -10.8193 O   0  0  0  0  0  0  0  0  0  0  0  0
  -12.2308  -39.6469  -10.2209 C   0  0  0  0  0  0  0  0  0  0  0  0
  -13.7005  -39.8830  -10.3591 C   0  0  1  0  0  0  0  0  0  0  0  0
  -14.3138  -40.7392   -9.2947 C   0  0  0  0  0  0  0  0  0  0  0  0
  -15.5179  -40.0723   -8.7252 N   0  0  0  0  0  0  0  0  0  0  0  0
  -16.4073  -39.7544   -9.8719 C   0  0  2  0  0  0  0  0  0  0  0  0
  -15.6057  -38.7289  -10.6938 C   0  0  0  0  0  0  0  0  0  0  0  0
  -14.3158  -38.5980  -10.1733 O   0  0  0  0  0  0  0  0  0  0  0  0
  -17.6544  -39.1685   -9.3064 C   0  0  1  0  0  0  0  0  0  0  0  0
  -18.6110  -39.1893  -10.3341 O   0  0  0  0  0  0  0  0  0  0  0  0
  -18.1622  -39.7995   -8.0401 C   0  0  2  0  0  0  0  0  0  0  0  0
  -18.7249  -38.7945   -7.0579 C   0  0  0  0  0  0  0  0  0  0  0  0
  -20.2086  -38.8769   -6.8579 C   0  0  0  0  0  0  0  0  0  0  0  0
  -20.8372  -37.7254   -7.3947 C   0  0  0  0  0  0  0  0  0  0  0  0
  -22.1854  -37.5059   -7.3631 C   0  0  0  0  0  0  0  0  0  0  0  0
  -22.9120  -38.5023   -6.7605 C   0  0  0  0  0  0  0  0  0  0  0  0
  -22.3399  -39.6674   -6.2119 C   0  0  0  0  0  0  0  0  0  0  0  0
  -20.9566  -39.8462   -6.2676 C   0  0  0  0  0  0  0  0  0  0  0  0
  -23.3051  -40.4860   -5.6776 O   0  0  0  0  0  0  0  0  0  0  0  0
  -23.7810  -41.7630   -5.7161 C   0  0  0  0  0  0  0  0  0  0  0  0
  -22.9634  -42.8193   -5.0170 C   0  0  0  0  0  0  0  0  0  0  0  0
  -23.0689  -44.1827   -5.6637 C   0  0  0  0  0  0  0  0  0  0  0  0
  -22.6264  -44.1869   -7.0882 C   0  0  0  0  0  0  0  0  0  0  0  0
  -21.3614  -44.8732   -7.2043 N   0  0  0  0  0  0  0  0  0  0  0  0
  -20.0129  -44.4084   -7.0206 C   0  0  0  0  0  0  0  0  0  0  0  0
  -19.3237  -45.3862   -6.2555 C   0  0  0  0  0  0  0  0  0  0  0  0
  -18.0127  -45.2566   -5.8865 C   0  0  0  0  0  0  0  0  0  0  0  0
  -17.3192  -46.2888   -5.0924 C   0  0  0  0  0  0  0  0  0  0  0  0
  -16.1906  -46.7870   -5.7092 O   0  0  0  0  0  0  0  0  0  0  0  0
  -16.1696  -48.1635   -5.4904 C   0  0  0  0  0  0  0  0  0  0  0  0
  -17.4067  -44.1135   -6.3074 C   0  0  0  0  0  0  0  0  0  0  0  0
  -18.0461  -43.0947   -7.0784 C   0  0  0  0  0  0  0  0  0  0  0  0
  -19.3704  -43.2602   -7.4341 C   0  0  0  0  0  0  0  0  0  0  0  0
  -17.0879  -42.0171   -7.3379 C   0  0  0  0  0  0  0  0  0  0  0  0
  -15.8332  -42.3663   -7.6193 O   0  0  0  0  0  0  0  0  0  0  0  0
  -17.1630  -40.6074   -7.3632 N   0  0  0  0  0  0  0  0  0  0  0  0
  1  2  1  0
  2  3  1  0
  4  3  1  1
  4  5  1  0
  5  6  1  0
  6  7  1  0
  7  8  1  6
  8  9  1  0
  7 10  1  0
 10 11  1  6
 10 12  1  0
 12 13  1  1
 13 14  1  0
 14 15  2  0
 15 16  1  0
 16 17  2  0
 17 18  1  0
 18 19  2  0
 18 20  1  0
 20 21  1  0
 21 22  1  0
 22 23  1  0
 23 24  1  0
 24 25  1  0
 25 26  1  0
 26 27  2  0
 27 28  1  0
 28 29  1  0
 29 30  1  0
 30 31  1  0
 28 32  2  0
 32 33  1  0
 33 34  2  0
 33 35  1  0
 35 36  2  0
 35 37  1  0
  9  4  1  0
 19 14  1  0
 34 26  1  0
 37 12  1  0
M  END
$$$$
