
     RDKit          3D

 37 40  0  0  0  0  0  0  0  0999 V2000
  -11.6775  -40.6944   -7.8674 C   0  0  0  0  0  0  0  0  0  0  0  0
  -11.6440  -41.2727   -9.0840 O   0  0  0  0  0  0  0  0  0  0  0  0
  -12.6377  -41.0918   -9.9737 C   0  0  0  0  0  0  0  0  0  0  0  0
  -13.6712  -40.0957   -9.5560 C   0  0  1  0  0  0  0  0  0  0  0  0
  -14.3493  -39.3694  -10.6762 C   0  0  0  0  0  0  0  0  0  0  0  0
  -15.8286  -39.4332  -10.5127 N   0  0  0  0  0  0  0  0  0  0  0  0
  -16.1263  -38.9167   -9.1519 C   0  0  2  0  0  0  0  0  0  0  0  0
  -15.4713  -39.9437   -8.2106 C   0  0  0  0  0  0  0  0  0  0  0  0
  -14.7226  -40.8638   -8.9487 O   0  0  0  0  0  0  0  0  0  0  0  0
  -17.6087  -38.8914   -9.0104 C   0  0  1  0  0  0  0  0  0  0  0  0
  -18.1391  -39.1565  -10.2832 O   0  0  0  0  0  0  0  0  0  0  0  0
  -18.1840  -39.7913   -7.9527 C   0  0  2  0  0  0  0  0  0  0  0  0
  -18.5705  -39.0534   -6.6887 C   0  0  0  0  0  0  0  0  0  0  0  0
  -20.0458  -38.9833   -6.4304 C   0  0  0  0  0  0  0  0  0  0  0  0
  -20.5020  -37.6485   -6.5707 C   0  0  0  0  0  0  0  0  0  0  0  0
  -21.8005  -37.2621   -6.3941 C   0  0  0  0  0  0  0  0  0  0  0  0
  -22.6590  -38.2805   -6.0628 C   0  0  0  0  0  0  0  0  0  0  0  0
  -22.2606  -39.6237   -5.9117 C   0  0  0  0  0  0  0  0  0  0  0  0
  -20.9216  -39.9693   -6.1016 C   0  0  0  0  0  0  0  0  0  0  0  0
  -23.3292  -40.4204   -5.5794 O   0  0  0  0  0  0  0  0  0  0  0  0
  -23.9938  -41.5494   -5.9570 C   0  0  0  0  0  0  0  0  0  0  0  0
  -23.3335  -42.8685   -5.6457 C   0  0  0  0  0  0  0  0  0  0  0  0
  -23.6558  -43.9509   -6.6521 C   0  0  0  0  0  0  0  0  0  0  0  0
  -23.2441  -43.5954   -8.0411 C   0  0  0  0  0  0  0  0  0  0  0  0
  -22.1000  -44.3862   -8.4286 N   0  0  0  0  0  0  0  0  0  0  0  0
  -20.6936  -44.1897   -8.2012 C   0  0  0  0  0  0  0  0  0  0  0  0
  -20.1472  -45.4362   -7.7962 C   0  0  0  0  0  0  0  0  0  0  0  0
  -18.8255  -45.6060   -7.4868 C   0  0  0  0  0  0  0  0  0  0  0  0
  -18.2826  -46.9132   -7.0701 C   0  0  0  0  0  0  0  0  0  0  0  0
  -18.0181  -46.9900   -5.7186 O   0  0  0  0  0  0  0  0  0  0  0  0
  -17.7413  -48.3239   -5.4235 C   0  0  0  0  0  0  0  0  0  0  0  0
  -18.0607  -44.4860   -7.5947 C   0  0  0  0  0  0  0  0  0  0  0  0
  -18.5517  -43.2058   -7.9964 C   0  0  0  0  0  0  0  0  0  0  0  0
  -19.8919  -43.0721   -8.3028 C   0  0  0  0  0  0  0  0  0  0  0  0
  -17.4460  -42.2446   -7.9908 C   0  0  0  0  0  0  0  0  0  0  0  0
  -16.2638  -42.6666   -8.4379 O   0  0  0  0  0  0  0  0  0  0  0  0
  -17.3070  -40.8944   -7.6017 N   0  0  0  0  0  0  0  0  0  0  0  0
  1  2  1  0
  2  3  1  0
  4  3  1  6
  4  5  1  0
  5  6  1  0
  6  7  1  0
  7  8  1  1
  8  9  1  0
  7 10  1  0
 10 11  1  6
 10 12  1  0
 12 13  1  1
 13 14  1  0
 14 15  2  0
 15 16  1  0
 16 17  2  0
 17 18  1  0
 18 19  2  0
 18 20  1  0
 20 21  1  0
 21 22  1  0
 22 23  1  0
 23 24  1  0
 24 25  1  0
 25 26  1  0
 26 27  2  0
 27 28  1  0
 28 29  1  0
 29 30  1  0
 30 31  1  0
 28 32  2  0
 32 33  1  0
 33 34  2  0
 33 35  1  0
 35 36  2  0
 35 37  1  0
  9  4  1  0
 19 14  1  0
 34 26  1  0
 37 12  1  0
M  END
$$$$
