
     RDKit          3D

 37 40  0  0  0  0  0  0  0  0999 V2000
  -12.6337  -37.1772   -8.0799 C   0  0  0  0  0  0  0  0  0  0  0  0
  -12.2169  -37.6087   -9.2865 O   0  0  0  0  0  0  0  0  0  0  0  0
  -12.3059  -38.9055   -9.6362 C   0  0  0  0  0  0  0  0  0  0  0  0
  -13.6462  -39.3182  -10.1538 C   0  0  1  0  0  0  0  0  0  0  0  0
  -14.3240  -40.4058   -9.3791 C   0  0  0  0  0  0  0  0  0  0  0  0
  -15.7199  -40.0083   -9.0437 N   0  0  0  0  0  0  0  0  0  0  0  0
  -16.3750  -39.6424  -10.3259 C   0  0  2  0  0  0  0  0  0  0  0  0
  -15.5989  -38.4009  -10.8013 C   0  0  0  0  0  0  0  0  0  0  0  0
  -14.4976  -38.1752   -9.9717 O   0  0  0  0  0  0  0  0  0  0  0  0
  -17.7975  -39.3296  -10.0144 C   0  0  1  0  0  0  0  0  0  0  0  0
  -18.5741  -39.9695  -10.9937 O   0  0  0  0  0  0  0  0  0  0  0  0
  -18.2528  -39.6570   -8.6198 C   0  0  2  0  0  0  0  0  0  0  0  0
  -18.7485  -38.4479   -7.8557 C   0  0  0  0  0  0  0  0  0  0  0  0
  -20.2216  -38.4437   -7.5766 C   0  0  0  0  0  0  0  0  0  0  0  0
  -20.8558  -37.4187   -8.3225 C   0  0  0  0  0  0  0  0  0  0  0  0
  -22.1967  -37.1601   -8.2794 C   0  0  0  0  0  0  0  0  0  0  0  0
  -22.9099  -37.9818   -7.4426 C   0  0  0  0  0  0  0  0  0  0  0  0
  -22.3317  -39.0159   -6.6796 C   0  0  0  0  0  0  0  0  0  0  0  0
  -20.9562  -39.2409   -6.7567 C   0  0  0  0  0  0  0  0  0  0  0  0
  -23.2834  -39.6721   -5.9375 O   0  0  0  0  0  0  0  0  0  0  0  0
  -23.7829  -40.9134   -5.6759 C   0  0  0  0  0  0  0  0  0  0  0  0
  -22.9502  -41.8156   -4.8008 C   0  0  0  0  0  0  0  0  0  0  0  0
  -23.1115  -43.2832   -5.1299 C   0  0  0  0  0  0  0  0  0  0  0  0
  -22.7404  -43.6081   -6.5377 C   0  0  0  0  0  0  0  0  0  0  0  0
  -21.4948  -44.3382   -6.5580 N   0  0  0  0  0  0  0  0  0  0  0  0
  -20.1310  -43.8824   -6.5402 C   0  0  0  0  0  0  0  0  0  0  0  0
  -19.4219  -44.6901   -5.6121 C   0  0  0  0  0  0  0  0  0  0  0  0
  -18.0922  -44.5203   -5.3390 C   0  0  0  0  0  0  0  0  0  0  0  0
  -17.3783  -45.3749   -4.3711 C   0  0  0  0  0  0  0  0  0  0  0  0
  -16.6250  -44.6611   -3.4626 O   0  0  0  0  0  0  0  0  0  0  0  0
  -17.3143  -44.6706   -2.2511 C   0  0  0  0  0  0  0  0  0  0  0  0
  -17.4879  -43.5128   -6.0252 C   0  0  0  0  0  0  0  0  0  0  0  0
  -18.1468  -42.6677   -6.9701 C   0  0  0  0  0  0  0  0  0  0  0  0
  -19.4898  -42.8693   -7.2218 C   0  0  0  0  0  0  0  0  0  0  0  0
  -17.1840  -41.6990   -7.5005 C   0  0  0  0  0  0  0  0  0  0  0  0
  -15.9510  -42.1356   -7.7548 O   0  0  0  0  0  0  0  0  0  0  0  0
  -17.2356  -40.3266   -7.8285 N   0  0  0  0  0  0  0  0  0  0  0  0
  1  2  1  0
  2  3  1  0
  4  3  1  1
  4  5  1  0
  5  6  1  0
  6  7  1  0
  7  8  1  1
  8  9  1  0
  7 10  1  0
 10 11  1  6
 10 12  1  0
 12 13  1  1
 13 14  1  0
 14 15  2  0
 15 16  1  0
 16 17  2  0
 17 18  1  0
 18 19  2  0
 18 20  1  0
 20 21  1  0
 21 22  1  0
 22 23  1  0
 23 24  1  0
 24 25  1  0
 25 26  1  0
 26 27  2  0
 27 28  1  0
 28 29  1  0
 29 30  1  0
 30 31  1  0
 28 32  2  0
 32 33  1  0
 33 34  2  0
 33 35  1  0
 35 36  2  0
 35 37  1  0
  9  4  1  0
 19 14  1  0
 34 26  1  0
 37 12  1  0
M  END
$$$$
