
     RDKit          3D

 37 40  0  0  0  0  0  0  0  0999 V2000
  -14.0552  -35.7253  -13.1161 C   0  0  0  0  0  0  0  0  0  0  0  0
  -14.0346  -37.0715  -13.0610 O   0  0  0  0  0  0  0  0  0  0  0  0
  -14.1170  -37.7264  -11.8878 C   0  0  0  0  0  0  0  0  0  0  0  0
  -15.5068  -37.8795  -11.3588 C   0  0  1  0  0  0  0  0  0  0  0  0
  -15.8455  -39.2408  -10.8349 C   0  0  0  0  0  0  0  0  0  0  0  0
  -16.4422  -39.1369   -9.4740 N   0  0  0  0  0  0  0  0  0  0  0  0
  -17.5887  -38.1986   -9.5854 C   0  0  2  0  0  0  0  0  0  0  0  0
  -16.9365  -36.8534   -9.9528 C   0  0  0  0  0  0  0  0  0  0  0  0
  -15.5732  -37.0316  -10.2007 O   0  0  0  0  0  0  0  0  0  0  0  0
  -18.2482  -38.1564   -8.2507 C   0  0  1  0  0  0  0  0  0  0  0  0
  -19.4960  -37.5403   -8.4376 O   0  0  0  0  0  0  0  0  0  0  0  0
  -18.3621  -39.4714   -7.5314 C   0  0  2  0  0  0  0  0  0  0  0  0
  -18.5346  -39.3189   -6.0353 C   0  0  0  0  0  0  0  0  0  0  0  0
  -19.8817  -39.7231   -5.5155 C   0  0  0  0  0  0  0  0  0  0  0  0
  -20.5883  -38.5835   -5.0555 C   0  0  0  0  0  0  0  0  0  0  0  0
  -21.8448  -38.6278   -4.5207 C   0  0  0  0  0  0  0  0  0  0  0  0
  -22.3938  -39.8842   -4.4565 C   0  0  0  0  0  0  0  0  0  0  0  0
  -21.7377  -41.0499   -4.8996 C   0  0  0  0  0  0  0  0  0  0  0  0
  -20.4535  -40.9537   -5.4382 C   0  0  0  0  0  0  0  0  0  0  0  0
  -22.5254  -42.1598   -4.7134 O   0  0  0  0  0  0  0  0  0  0  0  0
  -23.0532  -43.2324   -5.3691 C   0  0  0  0  0  0  0  0  0  0  0  0
  -22.1115  -44.3612   -5.7036 C   0  0  0  0  0  0  0  0  0  0  0  0
  -22.4845  -45.0953   -6.9725 C   0  0  0  0  0  0  0  0  0  0  0  0
  -22.5147  -44.2076   -8.1709 C   0  0  0  0  0  0  0  0  0  0  0  0
  -21.3873  -44.5009   -9.0240 N   0  0  0  0  0  0  0  0  0  0  0  0
  -20.0280  -44.0327   -8.9893 C   0  0  0  0  0  0  0  0  0  0  0  0
  -19.1831  -45.1561   -9.1911 C   0  0  0  0  0  0  0  0  0  0  0  0
  -17.8179  -45.0695   -9.2063 C   0  0  0  0  0  0  0  0  0  0  0  0
  -16.9627  -46.2527   -9.4200 C   0  0  0  0  0  0  0  0  0  0  0  0
  -16.1286  -46.1346  -10.5121 O   0  0  0  0  0  0  0  0  0  0  0  0
  -14.8388  -45.9181  -10.0298 C   0  0  0  0  0  0  0  0  0  0  0  0
  -17.3185  -43.8189   -9.0125 C   0  0  0  0  0  0  0  0  0  0  0  0
  -18.1158  -42.6517   -8.8047 C   0  0  0  0  0  0  0  0  0  0  0  0
  -19.4913  -42.7768   -8.7972 C   0  0  0  0  0  0  0  0  0  0  0  0
  -17.2351  -41.4943   -8.6280 C   0  0  0  0  0  0  0  0  0  0  0  0
  -16.1525  -41.4232   -9.4016 O   0  0  0  0  0  0  0  0  0  0  0  0
  -17.2427  -40.3611   -7.7857 N   0  0  0  0  0  0  0  0  0  0  0  0
  1  2  1  0
  2  3  1  0
  4  3  1  1
  4  5  1  0
  5  6  1  0
  6  7  1  0
  7  8  1  1
  8  9  1  0
  7 10  1  0
 10 11  1  6
 10 12  1  0
 12 13  1  1
 13 14  1  0
 14 15  2  0
 15 16  1  0
 16 17  2  0
 17 18  1  0
 18 19  2  0
 18 20  1  0
 20 21  1  0
 21 22  1  0
 22 23  1  0
 23 24  1  0
 24 25  1  0
 25 26  1  0
 26 27  2  0
 27 28  1  0
 28 29  1  0
 29 30  1  0
 30 31  1  0
 28 32  2  0
 32 33  1  0
 33 34  2  0
 33 35  1  0
 35 36  2  0
 35 37  1  0
  9  4  1  0
 19 14  1  0
 34 26  1  0
 37 12  1  0
M  END
$$$$
