
     RDKit          3D

 37 40  0  0  0  0  0  0  0  0999 V2000
  -21.1599  -38.1987   -0.6134 C   0  0  0  0  0  0  0  0  0  0  0  0
  -22.0079  -39.2406   -0.5088 O   0  0  0  0  0  0  0  0  0  0  0  0
  -21.6226  -40.4921   -0.8207 C   0  0  0  0  0  0  0  0  0  0  0  0
  -20.6576  -40.5788   -1.9591 C   0  0  1  0  0  0  0  0  0  0  0  0
  -20.9112  -41.6907   -2.9295 C   0  0  0  0  0  0  0  0  0  0  0  0
  -20.9204  -41.1673   -4.3241 N   0  0  0  0  0  0  0  0  0  0  0  0
  -19.6367  -40.4436   -4.5126 C   0  0  2  0  0  0  0  0  0  0  0  0
  -19.7264  -39.2612   -3.5309 C   0  0  0  0  0  0  0  0  0  0  0  0
  -20.8654  -39.3852   -2.7314 O   0  0  0  0  0  0  0  0  0  0  0  0
  -19.5953  -39.9929   -5.9316 C   0  0  1  0  0  0  0  0  0  0  0  0
  -18.2579  -39.6698   -6.2124 O   0  0  0  0  0  0  0  0  0  0  0  0
  -20.1779  -40.9425   -6.9407 C   0  0  2  0  0  0  0  0  0  0  0  0
  -20.9922  -40.2480   -8.0112 C   0  0  0  0  0  0  0  0  0  0  0  0
  -20.3836  -40.2805   -9.3812 C   0  0  0  0  0  0  0  0  0  0  0  0
  -19.9768  -38.9779   -9.7646 C   0  0  0  0  0  0  0  0  0  0  0  0
  -19.3902  -38.6820  -10.9625 C   0  0  0  0  0  0  0  0  0  0  0  0
  -19.2153  -39.7599  -11.7940 C   0  0  0  0  0  0  0  0  0  0  0  0
  -19.5992  -41.0750  -11.4640 C   0  0  0  0  0  0  0  0  0  0  0  0
  -20.1962  -41.3273  -10.2277 C   0  0  0  0  0  0  0  0  0  0  0  0
  -19.3022  -41.9459  -12.4839 O   0  0  0  0  0  0  0  0  0  0  0  0
  -18.6495  -43.1123  -12.7530 C   0  0  0  0  0  0  0  0  0  0  0  0
  -19.3115  -44.3877  -12.2969 C   0  0  0  0  0  0  0  0  0  0  0  0
  -18.3261  -45.4769  -11.9351 C   0  0  0  0  0  0  0  0  0  0  0  0
  -17.3921  -45.0773  -10.8428 C   0  0  0  0  0  0  0  0  0  0  0  0
  -17.7288  -45.7845   -9.6298 N   0  0  0  0  0  0  0  0  0  0  0  0
  -18.6949  -45.4965   -8.6042 C   0  0  0  0  0  0  0  0  0  0  0  0
  -19.3693  -46.7083   -8.2992 C   0  0  0  0  0  0  0  0  0  0  0  0
  -20.3665  -46.7925   -7.3664 C   0  0  0  0  0  0  0  0  0  0  0  0
  -21.0503  -48.0652   -7.0669 C   0  0  0  0  0  0  0  0  0  0  0  0
  -20.2229  -49.0095   -6.4960 O   0  0  0  0  0  0  0  0  0  0  0  0
  -20.4097  -50.2025   -7.1923 C   0  0  0  0  0  0  0  0  0  0  0  0
  -20.6720  -45.6222   -6.7434 C   0  0  0  0  0  0  0  0  0  0  0  0
  -20.0302  -44.3732   -7.0065 C   0  0  0  0  0  0  0  0  0  0  0  0
  -19.0263  -44.3262   -7.9540 C   0  0  0  0  0  0  0  0  0  0  0  0
  -20.6240  -43.3398   -6.1544 C   0  0  0  0  0  0  0  0  0  0  0  0
  -20.9223  -43.6757   -4.8999 O   0  0  0  0  0  0  0  0  0  0  0  0
  -20.9876  -41.9883   -6.3408 N   0  0  0  0  0  0  0  0  0  0  0  0
  1  2  1  0
  2  3  1  0
  4  3  1  1
  4  5  1  0
  5  6  1  0
  6  7  1  0
  7  8  1  1
  8  9  1  0
  7 10  1  0
 10 11  1  6
 10 12  1  0
 12 13  1  6
 13 14  1  0
 14 15  2  0
 15 16  1  0
 16 17  2  0
 17 18  1  0
 18 19  2  0
 18 20  1  0
 20 21  1  0
 21 22  1  0
 22 23  1  0
 23 24  1  0
 24 25  1  0
 25 26  1  0
 26 27  2  0
 27 28  1  0
 28 29  1  0
 29 30  1  0
 30 31  1  0
 28 32  2  0
 32 33  1  0
 33 34  2  0
 33 35  1  0
 35 36  2  0
 35 37  1  0
  9  4  1  0
 19 14  1  0
 34 26  1  0
 37 12  1  0
M  END
$$$$
