
     RDKit          3D

 37 40  0  0  0  0  0  0  0  0999 V2000
  -10.5355  -40.3258   -9.4841 C   0  0  0  0  0  0  0  0  0  0  0  0
  -11.4001  -40.8444  -10.3781 O   0  0  0  0  0  0  0  0  0  0  0  0
  -12.2743  -41.8072  -10.0306 C   0  0  0  0  0  0  0  0  0  0  0  0
  -13.7060  -41.3771  -10.0364 C   0  0  1  0  0  0  0  0  0  0  0  0
  -14.5971  -42.1069   -9.0797 C   0  0  0  0  0  0  0  0  0  0  0  0
  -15.3807  -41.1388   -8.2624 N   0  0  0  0  0  0  0  0  0  0  0  0
  -16.0794  -40.2445   -9.2210 C   0  0  2  0  0  0  0  0  0  0  0  0
  -14.9386  -39.4947   -9.9324 C   0  0  0  0  0  0  0  0  0  0  0  0
  -13.7034  -40.0247   -9.5512 O   0  0  0  0  0  0  0  0  0  0  0  0
  -16.9367  -39.3295   -8.4172 C   0  0  1  0  0  0  0  0  0  0  0  0
  -17.5934  -38.4881   -9.3297 O   0  0  0  0  0  0  0  0  0  0  0  0
  -17.8900  -39.9912   -7.4618 C   0  0  2  0  0  0  0  0  0  0  0  0
  -18.5655  -39.0149   -6.5227 C   0  0  0  0  0  0  0  0  0  0  0  0
  -20.0356  -38.8353   -6.7568 C   0  0  0  0  0  0  0  0  0  0  0  0
  -20.2946  -37.5320   -7.2504 C   0  0  0  0  0  0  0  0  0  0  0  0
  -21.5413  -37.0647   -7.5572 C   0  0  0  0  0  0  0  0  0  0  0  0
  -22.5555  -37.9662   -7.3506 C   0  0  0  0  0  0  0  0  0  0  0  0
  -22.3554  -39.2733   -6.8637 C   0  0  0  0  0  0  0  0  0  0  0  0
  -21.0623  -39.7047   -6.5633 C   0  0  0  0  0  0  0  0  0  0  0  0
  -23.5473  -39.9480   -6.7585 O   0  0  0  0  0  0  0  0  0  0  0  0
  -24.1745  -41.0984   -7.1355 C   0  0  0  0  0  0  0  0  0  0  0  0
  -23.7720  -42.3631   -6.4204 C   0  0  0  0  0  0  0  0  0  0  0  0
  -23.8802  -43.5996   -7.2852 C   0  0  0  0  0  0  0  0  0  0  0  0
  -23.0357  -43.5270   -8.5126 C   0  0  0  0  0  0  0  0  0  0  0  0
  -21.9114  -44.4240   -8.3852 N   0  0  0  0  0  0  0  0  0  0  0  0
  -20.6272  -44.2483   -7.7624 C   0  0  0  0  0  0  0  0  0  0  0  0
  -20.3538  -45.4196   -7.0074 C   0  0  0  0  0  0  0  0  0  0  0  0
  -19.2106  -45.5846   -6.2744 C   0  0  0  0  0  0  0  0  0  0  0  0
  -18.9501  -46.8129   -5.4997 C   0  0  0  0  0  0  0  0  0  0  0  0
  -18.8150  -46.5874   -4.1457 O   0  0  0  0  0  0  0  0  0  0  0  0
  -18.0404  -47.6232   -3.6261 C   0  0  0  0  0  0  0  0  0  0  0  0
  -18.3427  -44.5377   -6.3184 C   0  0  0  0  0  0  0  0  0  0  0  0
  -18.5612  -43.3353   -7.0584 C   0  0  0  0  0  0  0  0  0  0  0  0
  -19.7264  -43.2043   -7.7884 C   0  0  0  0  0  0  0  0  0  0  0  0
  -17.4199  -42.4376   -6.8629 C   0  0  0  0  0  0  0  0  0  0  0  0
  -16.2054  -42.9853   -6.8397 O   0  0  0  0  0  0  0  0  0  0  0  0
  -17.2728  -41.0457   -6.6768 N   0  0  0  0  0  0  0  0  0  0  0  0
  1  2  1  0
  2  3  1  0
  4  3  1  1
  4  5  1  0
  5  6  1  0
  6  7  1  0
  7  8  1  1
  8  9  1  0
  7 10  1  0
 10 11  1  6
 10 12  1  0
 12 13  1  1
 13 14  1  0
 14 15  2  0
 15 16  1  0
 16 17  2  0
 17 18  1  0
 18 19  2  0
 18 20  1  0
 20 21  1  0
 21 22  1  0
 22 23  1  0
 23 24  1  0
 24 25  1  0
 25 26  1  0
 26 27  2  0
 27 28  1  0
 28 29  1  0
 29 30  1  0
 30 31  1  0
 28 32  2  0
 32 33  1  0
 33 34  2  0
 33 35  1  0
 35 36  2  0
 35 37  1  0
  9  4  1  0
 19 14  1  0
 34 26  1  0
 37 12  1  0
M  END
$$$$
