
     RDKit          3D

 37 40  0  0  0  0  0  0  0  0999 V2000
  -13.0114  -36.0196  -10.8695 C   0  0  0  0  0  0  0  0  0  0  0  0
  -12.2760  -37.1031  -10.5519 O   0  0  0  0  0  0  0  0  0  0  0  0
  -12.3817  -38.2505  -11.2477 C   0  0  0  0  0  0  0  0  0  0  0  0
  -13.7380  -38.8780  -11.2078 C   0  0  1  0  0  0  0  0  0  0  0  0
  -14.0232  -39.7084   -9.9948 C   0  0  0  0  0  0  0  0  0  0  0  0
  -15.3222  -39.3058   -9.3868 N   0  0  0  0  0  0  0  0  0  0  0  0
  -16.3392  -39.3925  -10.4663 C   0  0  2  0  0  0  0  0  0  0  0  0
  -15.9028  -38.3177  -11.4783 C   0  0  0  0  0  0  0  0  0  0  0  0
  -14.6650  -37.7846  -11.1101 O   0  0  0  0  0  0  0  0  0  0  0  0
  -17.6577  -39.0791   -9.8485 C   0  0  1  0  0  0  0  0  0  0  0  0
  -18.6312  -39.3283  -10.8293 O   0  0  0  0  0  0  0  0  0  0  0  0
  -17.9598  -39.7784   -8.5527 C   0  0  2  0  0  0  0  0  0  0  0  0
  -18.1350  -38.8265   -7.3889 C   0  0  0  0  0  0  0  0  0  0  0  0
  -19.5327  -38.7429   -6.8526 C   0  0  0  0  0  0  0  0  0  0  0  0
  -20.0866  -37.4686   -7.1330 C   0  0  0  0  0  0  0  0  0  0  0  0
  -21.3462  -37.0856   -6.7677 C   0  0  0  0  0  0  0  0  0  0  0  0
  -22.0607  -38.0435   -6.0924 C   0  0  0  0  0  0  0  0  0  0  0  0
  -21.5606  -39.3254   -5.7884 C   0  0  0  0  0  0  0  0  0  0  0  0
  -20.2664  -39.6698   -6.1820 C   0  0  0  0  0  0  0  0  0  0  0  0
  -22.4938  -40.0701   -5.1089 O   0  0  0  0  0  0  0  0  0  0  0  0
  -23.1506  -41.2646   -5.1359 C   0  0  0  0  0  0  0  0  0  0  0  0
  -22.3643  -42.4870   -4.7352 C   0  0  0  0  0  0  0  0  0  0  0  0
  -22.8119  -43.7454   -5.4453 C   0  0  0  0  0  0  0  0  0  0  0  0
  -22.7021  -43.6463   -6.9297 C   0  0  0  0  0  0  0  0  0  0  0  0
  -21.6106  -44.4694   -7.3944 N   0  0  0  0  0  0  0  0  0  0  0  0
  -20.2014  -44.2018   -7.4967 C   0  0  0  0  0  0  0  0  0  0  0  0
  -19.5126  -45.3380   -6.9956 C   0  0  0  0  0  0  0  0  0  0  0  0
  -18.1481  -45.4169   -6.9363 C   0  0  0  0  0  0  0  0  0  0  0  0
  -17.4568  -46.6105   -6.4124 C   0  0  0  0  0  0  0  0  0  0  0  0
  -16.3580  -46.9786   -7.1605 O   0  0  0  0  0  0  0  0  0  0  0  0
  -16.7114  -48.1130   -7.8894 C   0  0  0  0  0  0  0  0  0  0  0  0
  -17.4878  -44.3195   -7.3956 C   0  0  0  0  0  0  0  0  0  0  0  0
  -18.1237  -43.1485   -7.9108 C   0  0  0  0  0  0  0  0  0  0  0  0
  -19.5035  -43.1049   -7.9570 C   0  0  0  0  0  0  0  0  0  0  0  0
  -17.0979  -42.1782   -8.3019 C   0  0  0  0  0  0  0  0  0  0  0  0
  -16.0030  -42.6493   -8.8975 O   0  0  0  0  0  0  0  0  0  0  0  0
  -16.9666  -40.7764   -8.1964 N   0  0  0  0  0  0  0  0  0  0  0  0
  1  2  1  0
  2  3  1  0
  4  3  1  1
  4  5  1  0
  5  6  1  0
  6  7  1  0
  7  8  1  6
  8  9  1  0
  7 10  1  0
 10 11  1  6
 10 12  1  0
 12 13  1  1
 13 14  1  0
 14 15  2  0
 15 16  1  0
 16 17  2  0
 17 18  1  0
 18 19  2  0
 18 20  1  0
 20 21  1  0
 21 22  1  0
 22 23  1  0
 23 24  1  0
 24 25  1  0
 25 26  1  0
 26 27  2  0
 27 28  1  0
 28 29  1  0
 29 30  1  0
 30 31  1  0
 28 32  2  0
 32 33  1  0
 33 34  2  0
 33 35  1  0
 35 36  2  0
 35 37  1  0
  9  4  1  0
 19 14  1  0
 34 26  1  0
 37 12  1  0
M  END
$$$$
