
     RDKit          3D

 37 40  0  0  0  0  0  0  0  0999 V2000
  -12.7880  -35.0286  -11.9840 C   0  0  0  0  0  0  0  0  0  0  0  0
  -12.5304  -36.3497  -12.0477 O   0  0  0  0  0  0  0  0  0  0  0  0
  -12.9459  -37.1922  -11.0836 C   0  0  0  0  0  0  0  0  0  0  0  0
  -14.3494  -37.6799  -11.2481 C   0  0  1  0  0  0  0  0  0  0  0  0
  -14.6809  -38.9372  -10.5055 C   0  0  0  0  0  0  0  0  0  0  0  0
  -15.9294  -38.7555   -9.7135 N   0  0  0  0  0  0  0  0  0  0  0  0
  -16.9704  -38.2901  -10.6658 C   0  0  2  0  0  0  0  0  0  0  0  0
  -16.4638  -36.9124  -11.1295 C   0  0  0  0  0  0  0  0  0  0  0  0
  -15.1785  -36.6805  -10.6332 O   0  0  0  0  0  0  0  0  0  0  0  0
  -18.2457  -38.1914   -9.9029 C   0  0  1  0  0  0  0  0  0  0  0  0
  -19.2760  -38.5274  -10.7959 O   0  0  0  0  0  0  0  0  0  0  0  0
  -18.3128  -38.9850   -8.6281 C   0  0  2  0  0  0  0  0  0  0  0  0
  -18.7008  -38.1501   -7.4265 C   0  0  0  0  0  0  0  0  0  0  0  0
  -20.0541  -38.4591   -6.8595 C   0  0  0  0  0  0  0  0  0  0  0  0
  -20.9351  -37.3710   -7.0813 C   0  0  0  0  0  0  0  0  0  0  0  0
  -22.2400  -37.3496   -6.6768 C   0  0  0  0  0  0  0  0  0  0  0  0
  -22.6537  -38.4835   -6.0233 C   0  0  0  0  0  0  0  0  0  0  0  0
  -21.8218  -39.5939   -5.7771 C   0  0  0  0  0  0  0  0  0  0  0  0
  -20.4947  -39.5682   -6.2091 C   0  0  0  0  0  0  0  0  0  0  0  0
  -22.5028  -40.5810   -5.1070 O   0  0  0  0  0  0  0  0  0  0  0  0
  -22.8185  -41.9061   -5.1651 C   0  0  0  0  0  0  0  0  0  0  0  0
  -21.7239  -42.8858   -4.8258 C   0  0  0  0  0  0  0  0  0  0  0  0
  -21.8409  -44.1958   -5.5730 C   0  0  0  0  0  0  0  0  0  0  0  0
  -21.8050  -44.0260   -7.0545 C   0  0  0  0  0  0  0  0  0  0  0  0
  -20.5479  -44.5133   -7.5713 N   0  0  0  0  0  0  0  0  0  0  0  0
  -19.2643  -43.8762   -7.6919 C   0  0  0  0  0  0  0  0  0  0  0  0
  -18.2836  -44.8019   -7.2472 C   0  0  0  0  0  0  0  0  0  0  0  0
  -16.9462  -44.5154   -7.2183 C   0  0  0  0  0  0  0  0  0  0  0  0
  -15.9472  -45.4964   -6.7530 C   0  0  0  0  0  0  0  0  0  0  0  0
  -14.6786  -44.9691   -6.6304 O   0  0  0  0  0  0  0  0  0  0  0  0
  -13.7776  -46.0303   -6.7022 C   0  0  0  0  0  0  0  0  0  0  0  0
  -16.6155  -43.2682   -7.6498 C   0  0  0  0  0  0  0  0  0  0  0  0
  -17.5550  -42.2944   -8.1083 C   0  0  0  0  0  0  0  0  0  0  0  0
  -18.8973  -42.6193   -8.1251 C   0  0  0  0  0  0  0  0  0  0  0  0
  -16.8363  -41.0740   -8.4837 C   0  0  0  0  0  0  0  0  0  0  0  0
  -15.6734  -41.2173   -9.1183 O   0  0  0  0  0  0  0  0  0  0  0  0
  -17.0798  -39.6918   -8.3290 N   0  0  0  0  0  0  0  0  0  0  0  0
  1  2  1  0
  2  3  1  0
  4  3  1  1
  4  5  1  0
  5  6  1  0
  6  7  1  0
  7  8  1  1
  8  9  1  0
  7 10  1  0
 10 11  1  6
 10 12  1  0
 12 13  1  1
 13 14  1  0
 14 15  2  0
 15 16  1  0
 16 17  2  0
 17 18  1  0
 18 19  2  0
 18 20  1  0
 20 21  1  0
 21 22  1  0
 22 23  1  0
 23 24  1  0
 24 25  1  0
 25 26  1  0
 26 27  2  0
 27 28  1  0
 28 29  1  0
 29 30  1  0
 30 31  1  0
 28 32  2  0
 32 33  1  0
 33 34  2  0
 33 35  1  0
 35 36  2  0
 35 37  1  0
  9  4  1  0
 19 14  1  0
 34 26  1  0
 37 12  1  0
M  END
$$$$
