
     RDKit          3D

 37 40  0  0  0  0  0  0  0  0999 V2000
  -10.9916  -39.4480  -10.5347 C   0  0  0  0  0  0  0  0  0  0  0  0
  -10.6881  -40.3410   -9.5723 O   0  0  0  0  0  0  0  0  0  0  0  0
  -10.9279  -40.0807   -8.2736 C   0  0  0  0  0  0  0  0  0  0  0  0
  -12.3662  -39.8410   -7.9440 C   0  0  1  0  0  0  0  0  0  0  0  0
  -12.9585  -38.5975   -8.5313 C   0  0  0  0  0  0  0  0  0  0  0  0
  -14.2369  -38.9131   -9.2277 N   0  0  0  0  0  0  0  0  0  0  0  0
  -15.0944  -39.6165   -8.2393 C   0  0  2  0  0  0  0  0  0  0  0  0
  -14.3393  -40.9275   -7.9552 C   0  0  0  0  0  0  0  0  0  0  0  0
  -13.0894  -40.9077   -8.5792 O   0  0  0  0  0  0  0  0  0  0  0  0
  -16.4090  -39.8573   -8.8967 C   0  0  1  0  0  0  0  0  0  0  0  0
  -16.4315  -41.2115   -9.2675 O   0  0  0  0  0  0  0  0  0  0  0  0
  -17.6232  -39.4616   -8.1039 C   0  0  2  0  0  0  0  0  0  0  0  0
  -17.9919  -38.0026   -8.2677 C   0  0  0  0  0  0  0  0  0  0  0  0
  -19.2705  -37.7591   -9.0121 C   0  0  0  0  0  0  0  0  0  0  0  0
  -18.9972  -37.1564  -10.2656 C   0  0  0  0  0  0  0  0  0  0  0  0
  -19.9584  -36.8086  -11.1722 C   0  0  0  0  0  0  0  0  0  0  0  0
  -21.2429  -37.0896  -10.7782 C   0  0  0  0  0  0  0  0  0  0  0  0
  -21.5716  -37.6882   -9.5456 C   0  0  0  0  0  0  0  0  0  0  0  0
  -20.5538  -38.0247   -8.6515 C   0  0  0  0  0  0  0  0  0  0  0  0
  -22.9302  -37.8496   -9.4227 O   0  0  0  0  0  0  0  0  0  0  0  0
  -23.8880  -38.7846   -9.1630 C   0  0  0  0  0  0  0  0  0  0  0  0
  -24.0356  -39.2335   -7.7314 C   0  0  0  0  0  0  0  0  0  0  0  0
  -24.4951  -40.6686   -7.5989 C   0  0  0  0  0  0  0  0  0  0  0  0
  -23.5664  -41.6392   -8.2473 C   0  0  0  0  0  0  0  0  0  0  0  0
  -22.8554  -42.3848   -7.2357 N   0  0  0  0  0  0  0  0  0  0  0  0
  -21.6597  -42.0761   -6.4987 C   0  0  0  0  0  0  0  0  0  0  0  0
  -21.8976  -42.4079   -5.1386 C   0  0  0  0  0  0  0  0  0  0  0  0
  -20.9654  -42.2297   -4.1533 C   0  0  0  0  0  0  0  0  0  0  0  0
  -21.2375  -42.5846   -2.7473 C   0  0  0  0  0  0  0  0  0  0  0  0
  -20.0958  -42.8394   -2.0166 O   0  0  0  0  0  0  0  0  0  0  0  0
  -20.2728  -44.0678   -1.3820 C   0  0  0  0  0  0  0  0  0  0  0  0
  -19.7805  -41.7067   -4.5700 C   0  0  0  0  0  0  0  0  0  0  0  0
  -19.4819  -41.3536   -5.9218 C   0  0  0  0  0  0  0  0  0  0  0  0
  -20.4470  -41.5489   -6.8905 C   0  0  0  0  0  0  0  0  0  0  0  0
  -18.1195  -40.8187   -5.9882 C   0  0  0  0  0  0  0  0  0  0  0  0
  -17.1897  -41.4139   -5.2421 O   0  0  0  0  0  0  0  0  0  0  0  0
  -17.5029  -39.7583   -6.6874 N   0  0  0  0  0  0  0  0  0  0  0  0
  1  2  1  0
  2  3  1  0
  4  3  1  6
  4  5  1  0
  5  6  1  0
  6  7  1  0
  7  8  1  6
  8  9  1  0
  7 10  1  0
 10 11  1  1
 10 12  1  0
 12 13  1  1
 13 14  1  0
 14 15  2  0
 15 16  1  0
 16 17  2  0
 17 18  1  0
 18 19  2  0
 18 20  1  0
 20 21  1  0
 21 22  1  0
 22 23  1  0
 23 24  1  0
 24 25  1  0
 25 26  1  0
 26 27  2  0
 27 28  1  0
 28 29  1  0
 29 30  1  0
 30 31  1  0
 28 32  2  0
 32 33  1  0
 33 34  2  0
 33 35  1  0
 35 36  2  0
 35 37  1  0
  9  4  1  0
 19 14  1  0
 34 26  1  0
 37 12  1  0
M  END
$$$$
