
     RDKit          3D

 37 40  0  0  0  0  0  0  0  0999 V2000
  -12.9686  -36.4351  -12.0202 C   0  0  0  0  0  0  0  0  0  0  0  0
  -12.3437  -36.7817  -10.8778 O   0  0  0  0  0  0  0  0  0  0  0  0
  -12.2595  -38.0671  -10.4871 C   0  0  0  0  0  0  0  0  0  0  0  0
  -13.5761  -38.7620  -10.3512 C   0  0  1  0  0  0  0  0  0  0  0  0
  -13.8883  -39.2787   -8.9809 C   0  0  0  0  0  0  0  0  0  0  0  0
  -15.2448  -38.8323   -8.5570 N   0  0  0  0  0  0  0  0  0  0  0  0
  -16.1842  -39.2625   -9.6245 C   0  0  2  0  0  0  0  0  0  0  0  0
  -15.7487  -38.4482  -10.8562 C   0  0  0  0  0  0  0  0  0  0  0  0
  -14.5705  -37.7503  -10.5794 O   0  0  0  0  0  0  0  0  0  0  0  0
  -17.5555  -38.9011   -9.1693 C   0  0  1  0  0  0  0  0  0  0  0  0
  -18.3995  -39.0425  -10.2826 O   0  0  0  0  0  0  0  0  0  0  0  0
  -18.0666  -39.6442   -7.9667 C   0  0  2  0  0  0  0  0  0  0  0  0
  -18.6959  -38.7383   -6.9300 C   0  0  0  0  0  0  0  0  0  0  0  0
  -20.1791  -38.8962   -6.7775 C   0  0  0  0  0  0  0  0  0  0  0  0
  -20.8434  -37.7351   -7.2463 C   0  0  0  0  0  0  0  0  0  0  0  0
  -22.2002  -37.5742   -7.2360 C   0  0  0  0  0  0  0  0  0  0  0  0
  -22.8977  -38.6414   -6.7277 C   0  0  0  0  0  0  0  0  0  0  0  0
  -22.2896  -39.8192   -6.2496 C   0  0  0  0  0  0  0  0  0  0  0  0
  -20.8989  -39.9363   -6.2799 C   0  0  0  0  0  0  0  0  0  0  0  0
  -23.2314  -40.7140   -5.8030 O   0  0  0  0  0  0  0  0  0  0  0  0
  -23.6508  -42.0032   -5.9472 C   0  0  0  0  0  0  0  0  0  0  0  0
  -22.8058  -43.0736   -5.3044 C   0  0  0  0  0  0  0  0  0  0  0  0
  -22.8366  -44.3888   -6.0510 C   0  0  0  0  0  0  0  0  0  0  0  0
  -22.3596  -44.2698   -7.4594 C   0  0  0  0  0  0  0  0  0  0  0  0
  -21.0637  -44.8930   -7.5901 N   0  0  0  0  0  0  0  0  0  0  0  0
  -19.7414  -44.3879   -7.3360 C   0  0  0  0  0  0  0  0  0  0  0  0
  -19.0297  -45.3903   -6.6252 C   0  0  0  0  0  0  0  0  0  0  0  0
  -17.7349  -45.2344   -6.2118 C   0  0  0  0  0  0  0  0  0  0  0  0
  -17.0173  -46.2929   -5.4760 C   0  0  0  0  0  0  0  0  0  0  0  0
  -15.9384  -46.8041   -6.1668 O   0  0  0  0  0  0  0  0  0  0  0  0
  -16.4411  -47.5453   -7.2350 C   0  0  0  0  0  0  0  0  0  0  0  0
  -17.1686  -44.0394   -6.5318 C   0  0  0  0  0  0  0  0  0  0  0  0
  -17.8322  -42.9937   -7.2440 C   0  0  0  0  0  0  0  0  0  0  0  0
  -19.1391  -43.1869   -7.6472 C   0  0  0  0  0  0  0  0  0  0  0  0
  -16.9153  -41.8613   -7.3981 C   0  0  0  0  0  0  0  0  0  0  0  0
  -15.6401  -42.1369   -7.6695 O   0  0  0  0  0  0  0  0  0  0  0  0
  -17.0504  -40.4579   -7.3230 N   0  0  0  0  0  0  0  0  0  0  0  0
  1  2  1  0
  2  3  1  0
  4  3  1  1
  4  5  1  0
  5  6  1  0
  6  7  1  0
  7  8  1  6
  8  9  1  0
  7 10  1  0
 10 11  1  6
 10 12  1  0
 12 13  1  1
 13 14  1  0
 14 15  2  0
 15 16  1  0
 16 17  2  0
 17 18  1  0
 18 19  2  0
 18 20  1  0
 20 21  1  0
 21 22  1  0
 22 23  1  0
 23 24  1  0
 24 25  1  0
 25 26  1  0
 26 27  2  0
 27 28  1  0
 28 29  1  0
 29 30  1  0
 30 31  1  0
 28 32  2  0
 32 33  1  0
 33 34  2  0
 33 35  1  0
 35 36  2  0
 35 37  1  0
  9  4  1  0
 19 14  1  0
 34 26  1  0
 37 12  1  0
M  END
$$$$
