
     RDKit          3D

 37 40  0  0  0  0  0  0  0  0999 V2000
  -13.7740  -35.4288  -10.5616 C   0  0  0  0  0  0  0  0  0  0  0  0
  -12.8789  -36.2158   -9.9330 O   0  0  0  0  0  0  0  0  0  0  0  0
  -12.8902  -37.5528  -10.0881 C   0  0  0  0  0  0  0  0  0  0  0  0
  -14.2541  -38.1647  -10.0998 C   0  0  1  0  0  0  0  0  0  0  0  0
  -14.5215  -39.1527   -9.0069 C   0  0  0  0  0  0  0  0  0  0  0  0
  -15.7991  -38.8244   -8.3148 N   0  0  0  0  0  0  0  0  0  0  0  0
  -16.8435  -38.7487   -9.3685 C   0  0  2  0  0  0  0  0  0  0  0  0
  -16.4166  -37.5483  -10.2326 C   0  0  0  0  0  0  0  0  0  0  0  0
  -15.1624  -37.0854   -9.8268 O   0  0  0  0  0  0  0  0  0  0  0  0
  -18.1417  -38.5098   -8.6786 C   0  0  1  0  0  0  0  0  0  0  0  0
  -19.1127  -38.3735   -9.6838 O   0  0  0  0  0  0  0  0  0  0  0  0
  -18.5318  -39.5251   -7.6411 C   0  0  2  0  0  0  0  0  0  0  0  0
  -19.1331  -38.9054   -6.3978 C   0  0  0  0  0  0  0  0  0  0  0  0
  -20.5928  -39.1861   -6.2009 C   0  0  0  0  0  0  0  0  0  0  0  0
  -21.3444  -37.9958   -6.3664 C   0  0  0  0  0  0  0  0  0  0  0  0
  -22.7036  -37.9271   -6.2454 C   0  0  0  0  0  0  0  0  0  0  0  0
  -23.3109  -39.1208   -5.9447 C   0  0  0  0  0  0  0  0  0  0  0  0
  -22.6137  -40.3329   -5.7706 C   0  0  0  0  0  0  0  0  0  0  0  0
  -21.2243  -40.3524   -5.9035 C   0  0  0  0  0  0  0  0  0  0  0  0
  -23.4772  -41.3607   -5.4787 O   0  0  0  0  0  0  0  0  0  0  0  0
  -23.8409  -42.6126   -5.8778 C   0  0  0  0  0  0  0  0  0  0  0  0
  -22.9017  -43.7405   -5.5330 C   0  0  0  0  0  0  0  0  0  0  0  0
  -22.9181  -44.8634   -6.5464 C   0  0  0  0  0  0  0  0  0  0  0  0
  -22.5449  -44.4141   -7.9190 C   0  0  0  0  0  0  0  0  0  0  0  0
  -21.2316  -44.9111   -8.2551 N   0  0  0  0  0  0  0  0  0  0  0  0
  -19.9218  -44.3898   -7.9710 C   0  0  0  0  0  0  0  0  0  0  0  0
  -19.1142  -45.4745   -7.5376 C   0  0  0  0  0  0  0  0  0  0  0  0
  -17.8036  -45.3295   -7.1732 C   0  0  0  0  0  0  0  0  0  0  0  0
  -16.9857  -46.4739   -6.7280 C   0  0  0  0  0  0  0  0  0  0  0  0
  -16.2414  -47.0413   -7.7412 O   0  0  0  0  0  0  0  0  0  0  0  0
  -15.0201  -47.4302   -7.1934 C   0  0  0  0  0  0  0  0  0  0  0  0
  -17.3206  -44.0602   -7.2550 C   0  0  0  0  0  0  0  0  0  0  0  0
  -18.0824  -42.9299   -7.6830 C   0  0  0  0  0  0  0  0  0  0  0  0
  -19.4026  -43.1143   -8.0450 C   0  0  0  0  0  0  0  0  0  0  0  0
  -17.2356  -41.7352   -7.6366 C   0  0  0  0  0  0  0  0  0  0  0  0
  -15.9699  -41.8645   -8.0325 O   0  0  0  0  0  0  0  0  0  0  0  0
  -17.4349  -40.3923   -7.2488 N   0  0  0  0  0  0  0  0  0  0  0  0
  1  2  1  0
  2  3  1  0
  4  3  1  1
  4  5  1  0
  5  6  1  0
  6  7  1  0
  7  8  1  6
  8  9  1  0
  7 10  1  0
 10 11  1  6
 10 12  1  0
 12 13  1  1
 13 14  1  0
 14 15  2  0
 15 16  1  0
 16 17  2  0
 17 18  1  0
 18 19  2  0
 18 20  1  0
 20 21  1  0
 21 22  1  0
 22 23  1  0
 23 24  1  0
 24 25  1  0
 25 26  1  0
 26 27  2  0
 27 28  1  0
 28 29  1  0
 29 30  1  0
 30 31  1  0
 28 32  2  0
 32 33  1  0
 33 34  2  0
 33 35  1  0
 35 36  2  0
 35 37  1  0
  9  4  1  0
 19 14  1  0
 34 26  1  0
 37 12  1  0
M  END
$$$$
