
     RDKit          3D

 37 39  0  0  0  0  0  0  0  0999 V2000
  -19.8811  -40.2660   -4.9085 C   0  0  0  0  0  0  0  0  0  0  0  0
  -19.6108  -40.9895   -6.2192 C   0  0  2  0  0  0  0  0  0  0  0  0
  -20.1123  -42.4032   -6.0294 C   0  0  0  0  0  0  0  0  0  0  0  0
  -21.5842  -42.5149   -6.2763 C   0  0  0  0  0  0  0  0  0  0  0  0
  -22.0254  -41.3721   -6.8830 O   0  0  0  0  0  0  0  0  0  0  0  0
  -23.3250  -41.0261   -6.5750 C   0  0  0  0  0  0  0  0  0  0  0  0
  -24.2520  -41.8272   -7.4597 C   0  0  0  0  0  0  0  0  0  0  0  0
  -23.7491  -41.8628   -8.8628 C   0  0  0  0  0  0  0  0  0  0  0  0
  -23.6104  -40.4765   -9.4874 C   0  0  0  0  0  0  0  0  0  0  0  0
  -22.8129  -40.6776  -10.6844 N   0  0  0  0  0  0  0  0  0  0  0  0
  -21.4039  -40.6171  -10.9058 C   0  0  0  0  0  0  0  0  0  0  0  0
  -20.3411  -41.0525  -10.1385 C   0  0  0  0  0  0  0  0  0  0  0  0
  -19.0646  -40.8269  -10.6166 C   0  0  0  0  0  0  0  0  0  0  0  0
  -18.8931  -40.1680  -11.8629 C   0  0  0  0  0  0  0  0  0  0  0  0
  -19.9215  -39.7287  -12.6437 C   0  0  0  0  0  0  0  0  0  0  0  0
  -21.1770  -39.9642  -12.1453 C   0  0  0  0  0  0  0  0  0  0  0  0
  -22.5105  -39.4189  -13.1894 Cl  0  0  0  0  0  0  0  0  0  0  0  0
  -17.7442  -41.1361  -10.0584 C   0  0  0  0  0  0  0  0  0  0  0  0
  -16.8219  -41.5556  -10.8896 O   0  0  0  0  0  0  0  0  0  0  0  0
  -17.2085  -41.0798   -8.7586 N   0  0  0  0  0  0  0  0  0  0  0  0
  -17.7269  -40.1856   -7.7089 C   0  0  1  0  0  0  0  0  0  0  0  0
  -18.1379  -41.0199   -6.5440 C   0  0  0  0  0  0  0  0  0  0  0  0
  -16.6819  -39.1583   -7.4104 C   0  0  2  0  0  0  0  0  0  0  0  0
  -17.1256  -38.3869   -6.3385 O   0  0  0  0  0  0  0  0  0  0  0  0
  -16.3881  -38.2241   -8.5439 C   0  0  0  0  0  0  0  0  0  0  0  0
  -15.5553  -38.8255   -9.5605 N   0  0  0  0  0  0  0  0  0  0  0  0
  -14.1516  -38.7845   -9.2484 C   0  0  0  0  0  0  0  0  0  0  0  0
  -13.2897  -38.9162  -10.4508 C   0  0  0  0  0  0  0  0  0  0  0  0
  -12.7245  -37.7826  -10.9928 C   0  0  0  0  0  0  0  0  0  0  0  0
  -11.9163  -37.7911  -12.0966 C   0  0  0  0  0  0  0  0  0  0  0  0
  -11.6509  -38.9990  -12.7028 C   0  0  0  0  0  0  0  0  0  0  0  0
  -12.2184  -40.1469  -12.1605 C   0  0  0  0  0  0  0  0  0  0  0  0
  -13.0168  -40.0822  -11.0587 N   0  0  0  0  0  0  0  0  0  0  0  0
  -11.2982  -36.5826  -12.6945 C   0  0  0  0  0  0  0  0  0  0  0  0
   -9.7921  -36.7122  -12.7842 C   0  0  0  0  0  0  0  0  0  0  0  0
  -11.6030  -35.3358  -11.8954 C   0  0  0  0  0  0  0  0  0  0  0  0
  -11.8180  -36.3418  -14.1053 C   0  0  0  0  0  0  0  0  0  0  0  0
  2  1  1  1
  2  3  1  0
  3  4  1  0
  4  5  1  0
  5  6  1  0
  6  7  1  0
  7  8  1  0
  8  9  1  0
  9 10  1  0
 10 11  1  0
 11 12  1  0
 12 13  2  0
 13 14  1  0
 14 15  2  0
 15 16  1  0
 16 17  1  0
 13 18  1  0
 18 19  2  0
 18 20  1  0
 20 21  1  0
 21 22  1  1
 21 23  1  0
 23 24  1  1
 23 25  1  0
 25 26  1  0
 26 27  1  0
 27 28  1  0
 28 29  2  0
 29 30  1  0
 30 31  2  0
 31 32  1  0
 32 33  2  0
 30 34  1  0
 34 35  1  0
 34 36  1  0
 34 37  1  0
 16 11  2  0
 22  2  1  0
 33 28  1  0
M  END
$$$$
