
     RDKit          3D

 37 39  0  0  0  0  0  0  0  0999 V2000
  -16.8973  -43.6475   -6.0250 C   0  0  0  0  0  0  0  0  0  0  0  0
  -17.4973  -42.9291   -7.2243 C   0  0  2  0  0  0  0  0  0  0  0  0
  -17.9536  -44.0112   -8.1767 C   0  0  0  0  0  0  0  0  0  0  0  0
  -19.3081  -44.5384   -7.8204 C   0  0  0  0  0  0  0  0  0  0  0  0
  -19.8876  -43.7046   -6.9050 O   0  0  0  0  0  0  0  0  0  0  0  0
  -20.7375  -44.3319   -6.0174 C   0  0  0  0  0  0  0  0  0  0  0  0
  -22.0830  -44.4980   -6.6849 C   0  0  0  0  0  0  0  0  0  0  0  0
  -22.4704  -43.2580   -7.4167 C   0  0  0  0  0  0  0  0  0  0  0  0
  -22.5597  -42.0300   -6.5139 C   0  0  0  0  0  0  0  0  0  0  0  0
  -22.6077  -40.8957   -7.4196 N   0  0  0  0  0  0  0  0  0  0  0  0
  -21.5752  -40.0770   -7.9688 C   0  0  0  0  0  0  0  0  0  0  0  0
  -20.3198  -40.3935   -8.4502 C   0  0  0  0  0  0  0  0  0  0  0  0
  -19.5229  -39.3601   -8.9038 C   0  0  0  0  0  0  0  0  0  0  0  0
  -20.0166  -38.0291   -8.8627 C   0  0  0  0  0  0  0  0  0  0  0  0
  -21.2511  -37.6854   -8.3957 C   0  0  0  0  0  0  0  0  0  0  0  0
  -22.0204  -38.7295   -7.9507 C   0  0  0  0  0  0  0  0  0  0  0  0
  -23.6417  -38.2728   -7.3777 Cl  0  0  0  0  0  0  0  0  0  0  0  0
  -18.1616  -39.3439   -9.4492 C   0  0  0  0  0  0  0  0  0  0  0  0
  -17.9244  -38.5354  -10.4529 O   0  0  0  0  0  0  0  0  0  0  0  0
  -16.9819  -40.0367   -9.1206 N   0  0  0  0  0  0  0  0  0  0  0  0
  -16.7139  -40.5856   -7.7801 C   0  0  1  0  0  0  0  0  0  0  0  0
  -16.4810  -42.0519   -7.9126 C   0  0  0  0  0  0  0  0  0  0  0  0
  -15.5791  -39.8196   -7.1785 C   0  0  2  0  0  0  0  0  0  0  0  0
  -15.7361  -39.8272   -5.7942 O   0  0  0  0  0  0  0  0  0  0  0  0
  -15.4972  -38.3881   -7.6125 C   0  0  0  0  0  0  0  0  0  0  0  0
  -15.7891  -38.2140   -9.0172 N   0  0  0  0  0  0  0  0  0  0  0  0
  -15.3462  -36.9496   -9.5412 C   0  0  0  0  0  0  0  0  0  0  0  0
  -15.5985  -36.8093  -10.9982 C   0  0  0  0  0  0  0  0  0  0  0  0
  -16.8919  -36.9065  -11.4628 C   0  0  0  0  0  0  0  0  0  0  0  0
  -17.2347  -36.7926  -12.7823 C   0  0  0  0  0  0  0  0  0  0  0  0
  -16.2331  -36.5683  -13.7006 C   0  0  0  0  0  0  0  0  0  0  0  0
  -14.9255  -36.4692  -13.2380 C   0  0  0  0  0  0  0  0  0  0  0  0
  -14.6388  -36.5904  -11.9118 N   0  0  0  0  0  0  0  0  0  0  0  0
  -18.6203  -36.8934  -13.3020 C   0  0  0  0  0  0  0  0  0  0  0  0
  -18.6592  -37.5560  -14.6631 C   0  0  0  0  0  0  0  0  0  0  0  0
  -19.2760  -35.5375  -13.4346 C   0  0  0  0  0  0  0  0  0  0  0  0
  -19.4967  -37.7192  -12.3699 C   0  0  0  0  0  0  0  0  0  0  0  0
  2  1  1  1
  2  3  1  0
  3  4  1  0
  4  5  1  0
  5  6  1  0
  6  7  1  0
  7  8  1  0
  8  9  1  0
  9 10  1  0
 10 11  1  0
 11 12  1  0
 12 13  2  0
 13 14  1  0
 14 15  2  0
 15 16  1  0
 16 17  1  0
 13 18  1  0
 18 19  2  0
 18 20  1  0
 20 21  1  0
 21 22  1  6
 21 23  1  0
 23 24  1  1
 23 25  1  0
 25 26  1  0
 26 27  1  0
 27 28  1  0
 28 29  2  0
 29 30  1  0
 30 31  2  0
 31 32  1  0
 32 33  2  0
 30 34  1  0
 34 35  1  0
 34 36  1  0
 34 37  1  0
 16 11  2  0
 22  2  1  0
 33 28  1  0
M  END
$$$$
