
     RDKit          3D

 37 39  0  0  0  0  0  0  0  0999 V2000
  -14.3054  -43.7514   -7.7638 C   0  0  0  0  0  0  0  0  0  0  0  0
  -15.6021  -43.5373   -8.5301 C   0  0  2  0  0  0  0  0  0  0  0  0
  -15.6692  -44.6434   -9.5588 C   0  0  0  0  0  0  0  0  0  0  0  0
  -16.2221  -45.9105   -8.9858 C   0  0  0  0  0  0  0  0  0  0  0  0
  -16.7819  -45.6451   -7.7672 O   0  0  0  0  0  0  0  0  0  0  0  0
  -16.7113  -46.6875   -6.8661 C   0  0  0  0  0  0  0  0  0  0  0  0
  -17.8463  -47.6426   -7.1547 C   0  0  0  0  0  0  0  0  0  0  0  0
  -19.1128  -46.9002   -7.4152 C   0  0  0  0  0  0  0  0  0  0  0  0
  -19.5458  -46.0204   -6.2450 C   0  0  0  0  0  0  0  0  0  0  0  0
  -20.5690  -45.1439   -6.7873 N   0  0  0  0  0  0  0  0  0  0  0  0
  -20.4901  -43.8462   -7.3769 C   0  0  0  0  0  0  0  0  0  0  0  0
  -19.5722  -43.2959   -8.2502 C   0  0  0  0  0  0  0  0  0  0  0  0
  -19.7527  -41.9806   -8.6322 C   0  0  0  0  0  0  0  0  0  0  0  0
  -20.8610  -41.2525   -8.1236 C   0  0  0  0  0  0  0  0  0  0  0  0
  -21.7846  -41.7681   -7.2626 C   0  0  0  0  0  0  0  0  0  0  0  0
  -21.5811  -43.0744   -6.8990 C   0  0  0  0  0  0  0  0  0  0  0  0
  -22.8122  -43.7464   -5.8043 Cl  0  0  0  0  0  0  0  0  0  0  0  0
  -18.9723  -41.1031   -9.5107 C   0  0  0  0  0  0  0  0  0  0  0  0
  -19.6370  -40.2998  -10.3046 O   0  0  0  0  0  0  0  0  0  0  0  0
  -17.5919  -40.9133   -9.7061 N   0  0  0  0  0  0  0  0  0  0  0  0
  -16.5820  -41.2063   -8.6745 C   0  0  1  0  0  0  0  0  0  0  0  0
  -15.6204  -42.2008   -9.2296 C   0  0  0  0  0  0  0  0  0  0  0  0
  -15.9694  -39.9137   -8.2381 C   0  0  2  0  0  0  0  0  0  0  0  0
  -16.3753  -39.6611   -6.9296 O   0  0  0  0  0  0  0  0  0  0  0  0
  -16.3633  -38.7292   -9.0663 C   0  0  0  0  0  0  0  0  0  0  0  0
  -15.3208  -38.3144   -9.9772 N   0  0  0  0  0  0  0  0  0  0  0  0
  -15.4080  -36.9287  -10.3539 C   0  0  0  0  0  0  0  0  0  0  0  0
  -16.7362  -36.5654  -10.9108 C   0  0  0  0  0  0  0  0  0  0  0  0
  -17.4854  -35.6015  -10.2721 C   0  0  0  0  0  0  0  0  0  0  0  0
  -18.7188  -35.1924  -10.6997 C   0  0  0  0  0  0  0  0  0  0  0  0
  -19.2444  -35.7748  -11.8317 C   0  0  0  0  0  0  0  0  0  0  0  0
  -18.4931  -36.7484  -12.4809 C   0  0  0  0  0  0  0  0  0  0  0  0
  -17.2689  -37.1191  -12.0123 N   0  0  0  0  0  0  0  0  0  0  0  0
  -19.5402  -34.1566  -10.0270 C   0  0  0  0  0  0  0  0  0  0  0  0
  -18.6778  -33.0882   -9.3882 C   0  0  0  0  0  0  0  0  0  0  0  0
  -20.4175  -34.7436   -8.9445 C   0  0  0  0  0  0  0  0  0  0  0  0
  -20.4648  -33.4616  -11.0172 C   0  0  0  0  0  0  0  0  0  0  0  0
  2  1  1  6
  2  3  1  0
  3  4  1  0
  4  5  1  0
  5  6  1  0
  6  7  1  0
  7  8  1  0
  8  9  1  0
  9 10  1  0
 10 11  1  0
 11 12  1  0
 12 13  2  0
 13 14  1  0
 14 15  2  0
 15 16  1  0
 16 17  1  0
 13 18  1  0
 18 19  2  0
 18 20  1  0
 20 21  1  0
 21 22  1  6
 21 23  1  0
 23 24  1  1
 23 25  1  0
 25 26  1  0
 26 27  1  0
 27 28  1  0
 28 29  2  0
 29 30  1  0
 30 31  2  0
 31 32  1  0
 32 33  2  0
 30 34  1  0
 34 35  1  0
 34 36  1  0
 34 37  1  0
 16 11  2  0
 22  2  1  0
 33 28  1  0
M  END
$$$$
