
     RDKit          3D

 37 39  0  0  0  0  0  0  0  0999 V2000
  -20.5834  -37.9612   -6.8235 C   0  0  0  0  0  0  0  0  0  0  0  0
  -19.8305  -39.2633   -6.5954 C   0  0  2  0  0  0  0  0  0  0  0  0
  -20.2665  -39.7680   -5.2384 C   0  0  0  0  0  0  0  0  0  0  0  0
  -21.5530  -40.5293   -5.3091 C   0  0  0  0  0  0  0  0  0  0  0  0
  -21.8385  -40.8075   -6.6167 O   0  0  0  0  0  0  0  0  0  0  0  0
  -23.1858  -40.8656   -6.9083 C   0  0  0  0  0  0  0  0  0  0  0  0
  -23.6952  -42.2367   -6.5285 C   0  0  0  0  0  0  0  0  0  0  0  0
  -22.7409  -43.2972   -6.9613 C   0  0  0  0  0  0  0  0  0  0  0  0
  -22.4939  -43.3056   -8.4679 C   0  0  0  0  0  0  0  0  0  0  0  0
  -21.3226  -44.1435   -8.6559 N   0  0  0  0  0  0  0  0  0  0  0  0
  -19.9309  -43.8295   -8.7067 C   0  0  0  0  0  0  0  0  0  0  0  0
  -19.1675  -42.9486   -7.9656 C   0  0  0  0  0  0  0  0  0  0  0  0
  -17.8237  -42.8456   -8.2691 C   0  0  0  0  0  0  0  0  0  0  0  0
  -17.2821  -43.6396   -9.3147 C   0  0  0  0  0  0  0  0  0  0  0  0
  -18.0088  -44.5191  -10.0621 C   0  0  0  0  0  0  0  0  0  0  0  0
  -19.3393  -44.6007   -9.7409 C   0  0  0  0  0  0  0  0  0  0  0  0
  -20.2690  -45.7772  -10.6985 Cl  0  0  0  0  0  0  0  0  0  0  0  0
  -16.7562  -42.0135   -7.7045 C   0  0  0  0  0  0  0  0  0  0  0  0
  -15.5780  -42.5667   -7.5518 O   0  0  0  0  0  0  0  0  0  0  0  0
  -16.7036  -40.6777   -7.2657 N   0  0  0  0  0  0  0  0  0  0  0  0
  -17.6114  -39.6283   -7.7602 C   0  0  1  0  0  0  0  0  0  0  0  0
  -18.3371  -39.0492   -6.5941 C   0  0  0  0  0  0  0  0  0  0  0  0
  -16.8064  -38.6472   -8.5514 C   0  0  2  0  0  0  0  0  0  0  0  0
  -17.6862  -37.8641   -9.2955 O   0  0  0  0  0  0  0  0  0  0  0  0
  -15.8383  -39.2688   -9.5108 C   0  0  0  0  0  0  0  0  0  0  0  0
  -14.4685  -38.8955   -9.2407 N   0  0  0  0  0  0  0  0  0  0  0  0
  -13.5154  -39.5692  -10.0817 C   0  0  0  0  0  0  0  0  0  0  0  0
  -13.2370  -38.8335  -11.3416 C   0  0  0  0  0  0  0  0  0  0  0  0
  -13.3963  -37.4652  -11.3632 C   0  0  0  0  0  0  0  0  0  0  0  0
  -13.1674  -36.6920  -12.4683 C   0  0  0  0  0  0  0  0  0  0  0  0
  -12.7545  -37.3130  -13.6262 C   0  0  0  0  0  0  0  0  0  0  0  0
  -12.5919  -38.6940  -13.6109 C   0  0  0  0  0  0  0  0  0  0  0  0
  -12.8338  -39.4170  -12.4820 N   0  0  0  0  0  0  0  0  0  0  0  0
  -13.3323  -35.2185  -12.5116 C   0  0  0  0  0  0  0  0  0  0  0  0
  -14.6717  -34.7900  -11.9499 C   0  0  0  0  0  0  0  0  0  0  0  0
  -13.2332  -34.6782  -13.9202 C   0  0  0  0  0  0  0  0  0  0  0  0
  -12.2532  -34.5219  -11.6937 C   0  0  0  0  0  0  0  0  0  0  0  0
  2  1  1  1
  2  3  1  0
  3  4  1  0
  4  5  1  0
  5  6  1  0
  6  7  1  0
  7  8  1  0
  8  9  1  0
  9 10  1  0
 10 11  1  0
 11 12  1  0
 12 13  2  0
 13 14  1  0
 14 15  2  0
 15 16  1  0
 16 17  1  0
 13 18  1  0
 18 19  2  0
 18 20  1  0
 20 21  1  0
 21 22  1  1
 21 23  1  0
 23 24  1  6
 23 25  1  0
 25 26  1  0
 26 27  1  0
 27 28  1  0
 28 29  2  0
 29 30  1  0
 30 31  2  0
 31 32  1  0
 32 33  2  0
 30 34  1  0
 34 35  1  0
 34 36  1  0
 34 37  1  0
 16 11  2  0
 22  2  1  0
 33 28  1  0
M  END
$$$$
