
     RDKit          3D

 37 39  0  0  0  0  0  0  0  0999 V2000
  -18.3773  -40.7896   -3.9171 C   0  0  0  0  0  0  0  0  0  0  0  0
  -18.5904  -41.2557   -5.3494 C   0  0  2  0  0  0  0  0  0  0  0  0
  -18.9680  -42.7172   -5.2636 C   0  0  0  0  0  0  0  0  0  0  0  0
  -20.4273  -42.9052   -4.9899 C   0  0  0  0  0  0  0  0  0  0  0  0
  -21.0753  -41.7158   -5.1750 O   0  0  0  0  0  0  0  0  0  0  0  0
  -22.1796  -41.5344   -4.3679 C   0  0  0  0  0  0  0  0  0  0  0  0
  -23.3525  -42.2466   -5.0008 C   0  0  0  0  0  0  0  0  0  0  0  0
  -23.3926  -42.0023   -6.4711 C   0  0  0  0  0  0  0  0  0  0  0  0
  -23.5104  -40.5236   -6.8322 C   0  0  0  0  0  0  0  0  0  0  0  0
  -23.1988  -40.4528   -8.2489 N   0  0  0  0  0  0  0  0  0  0  0  0
  -21.9673  -40.2408   -8.9390 C   0  0  0  0  0  0  0  0  0  0  0  0
  -20.6921  -40.7119   -8.6939 C   0  0  0  0  0  0  0  0  0  0  0  0
  -19.6796  -40.3050   -9.5413 C   0  0  0  0  0  0  0  0  0  0  0  0
  -19.9818  -39.4323  -10.6202 C   0  0  0  0  0  0  0  0  0  0  0  0
  -21.2298  -38.9523  -10.8892 C   0  0  0  0  0  0  0  0  0  0  0  0
  -22.2153  -39.3706  -10.0324 C   0  0  0  0  0  0  0  0  0  0  0  0
  -23.8446  -38.7668  -10.4149 Cl  0  0  0  0  0  0  0  0  0  0  0  0
  -18.2423  -40.5956   -9.5552 C   0  0  0  0  0  0  0  0  0  0  0  0
  -17.6784  -40.7913  -10.7219 O   0  0  0  0  0  0  0  0  0  0  0  0
  -17.2723  -40.7172   -8.5433 N   0  0  0  0  0  0  0  0  0  0  0  0
  -17.3876  -40.0596   -7.2302 C   0  0  1  0  0  0  0  0  0  0  0  0
  -17.3355  -41.1101   -6.1741 C   0  0  0  0  0  0  0  0  0  0  0  0
  -16.3207  -39.0160   -7.1336 C   0  0  2  0  0  0  0  0  0  0  0  0
  -16.8401  -37.8182   -7.6198 O   0  0  0  0  0  0  0  0  0  0  0  0
  -15.0824  -39.3197   -7.9200 C   0  0  0  0  0  0  0  0  0  0  0  0
  -13.9775  -38.4536   -7.5765 N   0  0  0  0  0  0  0  0  0  0  0  0
  -12.9984  -38.3325   -8.6234 C   0  0  0  0  0  0  0  0  0  0  0  0
  -13.4944  -37.5576   -9.7895 C   0  0  0  0  0  0  0  0  0  0  0  0
  -12.6637  -37.3814  -10.8744 C   0  0  0  0  0  0  0  0  0  0  0  0
  -13.0198  -36.6865  -11.9978 C   0  0  0  0  0  0  0  0  0  0  0  0
  -14.2787  -36.1305  -12.0505 C   0  0  0  0  0  0  0  0  0  0  0  0
  -15.1220  -36.3048  -10.9586 C   0  0  0  0  0  0  0  0  0  0  0  0
  -14.7169  -37.0066   -9.8636 N   0  0  0  0  0  0  0  0  0  0  0  0
  -12.1408  -36.4864  -13.1757 C   0  0  0  0  0  0  0  0  0  0  0  0
  -10.7219  -36.9355  -12.8961 C   0  0  0  0  0  0  0  0  0  0  0  0
  -12.0860  -35.0368  -13.6021 C   0  0  0  0  0  0  0  0  0  0  0  0
  -12.6408  -37.2814  -14.3743 C   0  0  0  0  0  0  0  0  0  0  0  0
  2  1  1  1
  2  3  1  0
  3  4  1  0
  4  5  1  0
  5  6  1  0
  6  7  1  0
  7  8  1  0
  8  9  1  0
  9 10  1  0
 10 11  1  0
 11 12  1  0
 12 13  2  0
 13 14  1  0
 14 15  2  0
 15 16  1  0
 16 17  1  0
 13 18  1  0
 18 19  2  0
 18 20  1  0
 20 21  1  0
 21 22  1  1
 21 23  1  0
 23 24  1  6
 23 25  1  0
 25 26  1  0
 26 27  1  0
 27 28  1  0
 28 29  2  0
 29 30  1  0
 30 31  2  0
 31 32  1  0
 32 33  2  0
 30 34  1  0
 34 35  1  0
 34 36  1  0
 34 37  1  0
 16 11  2  0
 22  2  1  0
 33 28  1  0
M  END
$$$$
