
     RDKit          3D

 37 39  0  0  0  0  0  0  0  0999 V2000
  -14.6481  -35.4713   -9.3899 C   0  0  0  0  0  0  0  0  0  0  0  0
  -15.1822  -36.7009  -10.1090 C   0  0  2  0  0  0  0  0  0  0  0  0
  -15.7386  -36.2083  -11.4259 C   0  0  0  0  0  0  0  0  0  0  0  0
  -14.6736  -36.0669  -12.4678 C   0  0  0  0  0  0  0  0  0  0  0  0
  -13.5369  -36.6909  -12.0351 O   0  0  0  0  0  0  0  0  0  0  0  0
  -12.3643  -36.1197  -12.4849 C   0  0  0  0  0  0  0  0  0  0  0  0
  -12.0895  -36.6342  -13.8789 C   0  0  0  0  0  0  0  0  0  0  0  0
  -12.3443  -38.1007  -13.9643 C   0  0  0  0  0  0  0  0  0  0  0  0
  -11.4859  -38.9174  -13.0013 C   0  0  0  0  0  0  0  0  0  0  0  0
  -12.0919  -40.2371  -12.9786 N   0  0  0  0  0  0  0  0  0  0  0  0
  -13.0932  -40.8058  -12.1348 C   0  0  0  0  0  0  0  0  0  0  0  0
  -14.2584  -40.2745  -11.6171 C   0  0  0  0  0  0  0  0  0  0  0  0
  -15.0257  -41.0787  -10.7965 C   0  0  0  0  0  0  0  0  0  0  0  0
  -14.5973  -42.4044  -10.5210 C   0  0  0  0  0  0  0  0  0  0  0  0
  -13.4542  -42.9576  -11.0185 C   0  0  0  0  0  0  0  0  0  0  0  0
  -12.7112  -42.1379  -11.8285 C   0  0  0  0  0  0  0  0  0  0  0  0
  -11.2415  -42.8826  -12.5000 Cl  0  0  0  0  0  0  0  0  0  0  0  0
  -16.2815  -40.8284  -10.0818 C   0  0  0  0  0  0  0  0  0  0  0  0
  -17.1617  -41.7989  -10.0523 O   0  0  0  0  0  0  0  0  0  0  0  0
  -16.7866  -39.7204   -9.3768 N   0  0  0  0  0  0  0  0  0  0  0  0
  -15.9272  -38.7026   -8.7479 C   0  0  1  0  0  0  0  0  0  0  0  0
  -16.2797  -37.3728   -9.3215 C   0  0  0  0  0  0  0  0  0  0  0  0
  -16.0828  -38.8098   -7.2644 C   0  0  2  0  0  0  0  0  0  0  0  0
  -14.8266  -39.0518   -6.7127 O   0  0  0  0  0  0  0  0  0  0  0  0
  -16.9905  -39.9130   -6.8135 C   0  0  0  0  0  0  0  0  0  0  0  0
  -18.3236  -39.7961   -7.3594 N   0  0  0  0  0  0  0  0  0  0  0  0
  -19.2090  -39.0087   -6.5436 C   0  0  0  0  0  0  0  0  0  0  0  0
  -20.4024  -39.7676   -6.0900 C   0  0  0  0  0  0  0  0  0  0  0  0
  -21.1947  -40.3882   -7.0309 C   0  0  0  0  0  0  0  0  0  0  0  0
  -22.3142  -41.1114   -6.7223 C   0  0  0  0  0  0  0  0  0  0  0  0
  -22.6725  -41.2276   -5.3976 C   0  0  0  0  0  0  0  0  0  0  0  0
  -21.8769  -40.6035   -4.4429 C   0  0  0  0  0  0  0  0  0  0  0  0
  -20.7713  -39.8948   -4.8049 N   0  0  0  0  0  0  0  0  0  0  0  0
  -23.1793  -41.7870   -7.7200 C   0  0  0  0  0  0  0  0  0  0  0  0
  -23.4011  -40.9223   -8.9432 C   0  0  0  0  0  0  0  0  0  0  0  0
  -24.5373  -42.1318   -7.1515 C   0  0  0  0  0  0  0  0  0  0  0  0
  -22.5538  -43.0919   -8.1938 C   0  0  0  0  0  0  0  0  0  0  0  0
  2  1  1  1
  2  3  1  0
  3  4  1  0
  4  5  1  0
  5  6  1  0
  6  7  1  0
  7  8  1  0
  8  9  1  0
  9 10  1  0
 10 11  1  0
 11 12  1  0
 12 13  2  0
 13 14  1  0
 14 15  2  0
 15 16  1  0
 16 17  1  0
 13 18  1  0
 18 19  2  0
 18 20  1  0
 20 21  1  0
 21 22  1  6
 21 23  1  0
 23 24  1  1
 23 25  1  0
 25 26  1  0
 26 27  1  0
 27 28  1  0
 28 29  2  0
 29 30  1  0
 30 31  2  0
 31 32  1  0
 32 33  2  0
 30 34  1  0
 34 35  1  0
 34 36  1  0
 34 37  1  0
 16 11  2  0
 22  2  1  0
 33 28  1  0
M  END
$$$$
