
     RDKit          3D

 37 39  0  0  0  0  0  0  0  0999 V2000
  -18.5293  -41.9327   -4.3230 C   0  0  0  0  0  0  0  0  0  0  0  0
  -18.6358  -41.8479   -5.8382 C   0  0  2  0  0  0  0  0  0  0  0  0
  -19.3358  -43.1129   -6.2812 C   0  0  0  0  0  0  0  0  0  0  0  0
  -20.8241  -42.9980   -6.1744 C   0  0  0  0  0  0  0  0  0  0  0  0
  -21.1601  -41.6876   -5.9779 O   0  0  0  0  0  0  0  0  0  0  0  0
  -22.2994  -41.4961   -5.2236 C   0  0  0  0  0  0  0  0  0  0  0  0
  -23.4995  -41.6448   -6.1299 C   0  0  0  0  0  0  0  0  0  0  0  0
  -23.2765  -40.9439   -7.4268 C   0  0  0  0  0  0  0  0  0  0  0  0
  -23.0119  -39.4490   -7.2649 C   0  0  0  0  0  0  0  0  0  0  0  0
  -22.4956  -39.0134   -8.5505 N   0  0  0  0  0  0  0  0  0  0  0  0
  -21.1629  -38.9155   -9.0528 C   0  0  0  0  0  0  0  0  0  0  0  0
  -20.0713  -39.7499   -8.9100 C   0  0  0  0  0  0  0  0  0  0  0  0
  -18.8846  -39.3680   -9.5056 C   0  0  0  0  0  0  0  0  0  0  0  0
  -18.8307  -38.1508  -10.2354 C   0  0  0  0  0  0  0  0  0  0  0  0
  -19.8908  -37.3077  -10.3958 C   0  0  0  0  0  0  0  0  0  0  0  0
  -21.0552  -37.7099   -9.7938 C   0  0  0  0  0  0  0  0  0  0  0  0
  -22.4398  -36.6201  -10.0405 Cl  0  0  0  0  0  0  0  0  0  0  0  0
  -17.5600  -39.9967   -9.5343 C   0  0  0  0  0  0  0  0  0  0  0  0
  -16.8945  -39.9484  -10.6622 O   0  0  0  0  0  0  0  0  0  0  0  0
  -16.7939  -40.6778   -8.5705 N   0  0  0  0  0  0  0  0  0  0  0  0
  -16.9450  -40.4656   -7.1207 C   0  0  1  0  0  0  0  0  0  0  0  0
  -17.2763  -41.7739   -6.4879 C   0  0  0  0  0  0  0  0  0  0  0  0
  -15.6982  -39.8167   -6.6097 C   0  0  2  0  0  0  0  0  0  0  0  0
  -16.0355  -39.0395   -5.5038 O   0  0  0  0  0  0  0  0  0  0  0  0
  -15.0159  -38.9198   -7.5967 C   0  0  0  0  0  0  0  0  0  0  0  0
  -14.5984  -39.6198   -8.7902 N   0  0  0  0  0  0  0  0  0  0  0  0
  -13.3235  -39.1829   -9.2934 C   0  0  0  0  0  0  0  0  0  0  0  0
  -13.4268  -38.4958  -10.6062 C   0  0  0  0  0  0  0  0  0  0  0  0
  -13.4408  -37.1185  -10.6380 C   0  0  0  0  0  0  0  0  0  0  0  0
  -13.5324  -36.3871  -11.7905 C   0  0  0  0  0  0  0  0  0  0  0  0
  -13.6154  -37.0622  -12.9880 C   0  0  0  0  0  0  0  0  0  0  0  0
  -13.6017  -38.4525  -12.9626 C   0  0  0  0  0  0  0  0  0  0  0  0
  -13.5088  -39.1324  -11.7859 N   0  0  0  0  0  0  0  0  0  0  0  0
  -13.5484  -34.9049  -11.8457 C   0  0  0  0  0  0  0  0  0  0  0  0
  -14.1524  -34.3060  -10.5929 C   0  0  0  0  0  0  0  0  0  0  0  0
  -14.3405  -34.3903  -13.0263 C   0  0  0  0  0  0  0  0  0  0  0  0
  -12.1384  -34.3461  -11.9817 C   0  0  0  0  0  0  0  0  0  0  0  0
  2  1  1  1
  2  3  1  0
  3  4  1  0
  4  5  1  0
  5  6  1  0
  6  7  1  0
  7  8  1  0
  8  9  1  0
  9 10  1  0
 10 11  1  0
 11 12  1  0
 12 13  2  0
 13 14  1  0
 14 15  2  0
 15 16  1  0
 16 17  1  0
 13 18  1  0
 18 19  2  0
 18 20  1  0
 20 21  1  0
 21 22  1  1
 21 23  1  0
 23 24  1  1
 23 25  1  0
 25 26  1  0
 26 27  1  0
 27 28  1  0
 28 29  2  0
 29 30  1  0
 30 31  2  0
 31 32  1  0
 32 33  2  0
 30 34  1  0
 34 35  1  0
 34 36  1  0
 34 37  1  0
 16 11  2  0
 22  2  1  0
 33 28  1  0
M  END
$$$$
