
     RDKit          3D

 37 39  0  0  0  0  0  0  0  0999 V2000
  -19.6597  -38.9350   -4.8057 C   0  0  0  0  0  0  0  0  0  0  0  0
  -19.6577  -40.0942   -5.7908 C   0  0  2  0  0  0  0  0  0  0  0  0
  -20.5990  -41.1311   -5.2209 C   0  0  0  0  0  0  0  0  0  0  0  0
  -22.0265  -40.8447   -5.5676 C   0  0  0  0  0  0  0  0  0  0  0  0
  -22.0681  -39.8865   -6.5418 O   0  0  0  0  0  0  0  0  0  0  0  0
  -23.1757  -39.0656   -6.4898 C   0  0  0  0  0  0  0  0  0  0  0  0
  -24.3246  -39.7745   -7.1689 C   0  0  0  0  0  0  0  0  0  0  0  0
  -23.8752  -40.4256   -8.4327 C   0  0  0  0  0  0  0  0  0  0  0  0
  -23.2891  -39.4406   -9.4413 C   0  0  0  0  0  0  0  0  0  0  0  0
  -22.6151  -40.2648  -10.4291 N   0  0  0  0  0  0  0  0  0  0  0  0
  -21.2683  -40.7304  -10.5152 C   0  0  0  0  0  0  0  0  0  0  0  0
  -20.4037  -41.2035   -9.5473 C   0  0  0  0  0  0  0  0  0  0  0  0
  -19.1294  -41.5642   -9.9408 C   0  0  0  0  0  0  0  0  0  0  0  0
  -18.7601  -41.4407  -11.3066 C   0  0  0  0  0  0  0  0  0  0  0  0
  -19.5911  -40.9796  -12.2848 C   0  0  0  0  0  0  0  0  0  0  0  0
  -20.8487  -40.6276  -11.8670 C   0  0  0  0  0  0  0  0  0  0  0  0
  -21.9346  -40.0618  -13.1579 Cl  0  0  0  0  0  0  0  0  0  0  0  0
  -17.9819  -42.0751   -9.1839 C   0  0  0  0  0  0  0  0  0  0  0  0
  -17.2594  -43.0133   -9.7453 O   0  0  0  0  0  0  0  0  0  0  0  0
  -17.4459  -41.7687   -7.9196 N   0  0  0  0  0  0  0  0  0  0  0  0
  -17.6276  -40.4646   -7.2593 C   0  0  1  0  0  0  0  0  0  0  0  0
  -18.2818  -40.6948   -5.9399 C   0  0  0  0  0  0  0  0  0  0  0  0
  -16.2976  -39.7839   -7.1925 C   0  0  2  0  0  0  0  0  0  0  0  0
  -16.4748  -38.4494   -7.5511 O   0  0  0  0  0  0  0  0  0  0  0  0
  -15.2592  -40.3595   -8.1060 C   0  0  0  0  0  0  0  0  0  0  0  0
  -14.9654  -39.4983   -9.2289 N   0  0  0  0  0  0  0  0  0  0  0  0
  -13.6542  -39.7071   -9.7825 C   0  0  0  0  0  0  0  0  0  0  0  0
  -13.5485  -39.2648  -11.1965 C   0  0  0  0  0  0  0  0  0  0  0  0
  -13.3978  -37.9220  -11.4651 C   0  0  0  0  0  0  0  0  0  0  0  0
  -13.2909  -37.4083  -12.7286 C   0  0  0  0  0  0  0  0  0  0  0  0
  -13.3360  -38.2796  -13.7942 C   0  0  0  0  0  0  0  0  0  0  0  0
  -13.4878  -39.6363  -13.5297 C   0  0  0  0  0  0  0  0  0  0  0  0
  -13.5898  -40.0953  -12.2511 N   0  0  0  0  0  0  0  0  0  0  0  0
  -13.1276  -35.9669  -13.0383 C   0  0  0  0  0  0  0  0  0  0  0  0
  -13.9908  -35.5463  -14.2093 C   0  0  0  0  0  0  0  0  0  0  0  0
  -11.6959  -35.6187  -13.3773 C   0  0  0  0  0  0  0  0  0  0  0  0
  -13.5234  -35.1023  -11.8489 C   0  0  0  0  0  0  0  0  0  0  0  0
  2  1  1  1
  2  3  1  0
  3  4  1  0
  4  5  1  0
  5  6  1  0
  6  7  1  0
  7  8  1  0
  8  9  1  0
  9 10  1  0
 10 11  1  0
 11 12  1  0
 12 13  2  0
 13 14  1  0
 14 15  2  0
 15 16  1  0
 16 17  1  0
 13 18  1  0
 18 19  2  0
 18 20  1  0
 20 21  1  0
 21 22  1  1
 21 23  1  0
 23 24  1  6
 23 25  1  0
 25 26  1  0
 26 27  1  0
 27 28  1  0
 28 29  2  0
 29 30  1  0
 30 31  2  0
 31 32  1  0
 32 33  2  0
 30 34  1  0
 34 35  1  0
 34 36  1  0
 34 37  1  0
 16 11  2  0
 22  2  1  0
 33 28  1  0
M  END
$$$$
