
     RDKit          3D

 37 39  0  0  0  0  0  0  0  0999 V2000
  -14.3753  -41.1898  -10.3738 C   0  0  0  0  0  0  0  0  0  0  0  0
  -15.8286  -41.6130  -10.2214 C   0  0  2  0  0  0  0  0  0  0  0  0
  -16.4382  -41.5258  -11.6023 C   0  0  0  0  0  0  0  0  0  0  0  0
  -16.1698  -42.7546  -12.4133 C   0  0  0  0  0  0  0  0  0  0  0  0
  -15.6933  -43.7387  -11.5927 O   0  0  0  0  0  0  0  0  0  0  0  0
  -14.8111  -44.6103  -12.1973 C   0  0  0  0  0  0  0  0  0  0  0  0
  -15.6103  -45.6520  -12.9454 C   0  0  0  0  0  0  0  0  0  0  0  0
  -16.7631  -46.1264  -12.1275 C   0  0  0  0  0  0  0  0  0  0  0  0
  -16.3421  -46.7458  -10.7971 C   0  0  0  0  0  0  0  0  0  0  0  0
  -17.5630  -46.8321  -10.0153 N   0  0  0  0  0  0  0  0  0  0  0  0
  -18.1618  -45.9251   -9.0896 C   0  0  0  0  0  0  0  0  0  0  0  0
  -18.2873  -44.5497   -9.1126 C   0  0  0  0  0  0  0  0  0  0  0  0
  -18.9086  -43.9402   -8.0396 C   0  0  0  0  0  0  0  0  0  0  0  0
  -19.3918  -44.7377   -6.9685 C   0  0  0  0  0  0  0  0  0  0  0  0
  -19.2849  -46.0965   -6.9180 C   0  0  0  0  0  0  0  0  0  0  0  0
  -18.6634  -46.6754   -7.9944 C   0  0  0  0  0  0  0  0  0  0  0  0
  -18.5622  -48.4507   -7.9338 Cl  0  0  0  0  0  0  0  0  0  0  0  0
  -19.1841  -42.5307   -7.7427 C   0  0  0  0  0  0  0  0  0  0  0  0
  -20.3398  -42.2452   -7.1947 O   0  0  0  0  0  0  0  0  0  0  0  0
  -18.4472  -41.3452   -7.9195 N   0  0  0  0  0  0  0  0  0  0  0  0
  -16.9760  -41.3102   -7.9839 C   0  0  1  0  0  0  0  0  0  0  0  0
  -16.5785  -40.6992   -9.2841 C   0  0  0  0  0  0  0  0  0  0  0  0
  -16.4709  -40.5949   -6.7715 C   0  0  2  0  0  0  0  0  0  0  0  0
  -15.1228  -40.9087   -6.6128 O   0  0  0  0  0  0  0  0  0  0  0  0
  -17.1695  -40.9620   -5.4982 C   0  0  0  0  0  0  0  0  0  0  0  0
  -18.5861  -40.6784   -5.5379 N   0  0  0  0  0  0  0  0  0  0  0  0
  -18.8881  -39.3236   -5.9158 C   0  0  0  0  0  0  0  0  0  0  0  0
  -19.5125  -39.2258   -7.2600 C   0  0  0  0  0  0  0  0  0  0  0  0
  -19.7366  -37.9789   -7.8014 C   0  0  0  0  0  0  0  0  0  0  0  0
  -20.3043  -37.7758   -9.0294 C   0  0  0  0  0  0  0  0  0  0  0  0
  -20.6737  -38.8774   -9.7688 C   0  0  0  0  0  0  0  0  0  0  0  0
  -20.4501  -40.1388   -9.2279 C   0  0  0  0  0  0  0  0  0  0  0  0
  -19.8808  -40.2850   -7.9990 N   0  0  0  0  0  0  0  0  0  0  0  0
  -20.5531  -36.4424   -9.6297 C   0  0  0  0  0  0  0  0  0  0  0  0
  -20.2763  -35.3262   -8.6445 C   0  0  0  0  0  0  0  0  0  0  0  0
  -21.9814  -36.2913  -10.1023 C   0  0  0  0  0  0  0  0  0  0  0  0
  -19.6596  -36.2109  -10.8407 C   0  0  0  0  0  0  0  0  0  0  0  0
  2  1  1  6
  2  3  1  0
  3  4  1  0
  4  5  1  0
  5  6  1  0
  6  7  1  0
  7  8  1  0
  8  9  1  0
  9 10  1  0
 10 11  1  0
 11 12  1  0
 12 13  2  0
 13 14  1  0
 14 15  2  0
 15 16  1  0
 16 17  1  0
 13 18  1  0
 18 19  2  0
 18 20  1  0
 20 21  1  0
 21 22  1  6
 21 23  1  0
 23 24  1  1
 23 25  1  0
 25 26  1  0
 26 27  1  0
 27 28  1  0
 28 29  2  0
 29 30  1  0
 30 31  2  0
 31 32  1  0
 32 33  2  0
 30 34  1  0
 34 35  1  0
 34 36  1  0
 34 37  1  0
 16 11  2  0
 22  2  1  0
 33 28  1  0
M  END
$$$$
