
     RDKit          3D

 37 39  0  0  0  0  0  0  0  0999 V2000
  -19.3332  -39.1671   -4.1968 C   0  0  0  0  0  0  0  0  0  0  0  0
  -19.4381  -40.1773   -5.3294 C   0  0  2  0  0  0  0  0  0  0  0  0
  -19.9510  -41.4556   -4.7056 C   0  0  0  0  0  0  0  0  0  0  0  0
  -21.4417  -41.4567   -4.5722 C   0  0  0  0  0  0  0  0  0  0  0  0
  -21.9589  -40.4277   -5.3087 O   0  0  0  0  0  0  0  0  0  0  0  0
  -23.1199  -39.8853   -4.7974 C   0  0  0  0  0  0  0  0  0  0  0  0
  -24.2800  -40.7504   -5.2324 C   0  0  0  0  0  0  0  0  0  0  0  0
  -24.1465  -41.1374   -6.6660 C   0  0  0  0  0  0  0  0  0  0  0  0
  -24.0945  -39.9388   -7.6103 C   0  0  0  0  0  0  0  0  0  0  0  0
  -23.6335  -40.4747   -8.8790 N   0  0  0  0  0  0  0  0  0  0  0  0
  -22.3234  -40.6160   -9.4283 C   0  0  0  0  0  0  0  0  0  0  0  0
  -21.1273  -40.9914   -8.8483 C   0  0  0  0  0  0  0  0  0  0  0  0
  -20.0008  -41.0123   -9.6478 C   0  0  0  0  0  0  0  0  0  0  0  0
  -20.1113  -40.6555  -11.0180 C   0  0  0  0  0  0  0  0  0  0  0  0
  -21.2773  -40.2831  -11.6196 C   0  0  0  0  0  0  0  0  0  0  0  0
  -22.3791  -40.2696  -10.8035 C   0  0  0  0  0  0  0  0  0  0  0  0
  -23.9001  -39.8171  -11.6080 Cl  0  0  0  0  0  0  0  0  0  0  0  0
  -18.6012  -41.3374   -9.3542 C   0  0  0  0  0  0  0  0  0  0  0  0
  -17.9398  -42.0213  -10.2554 O   0  0  0  0  0  0  0  0  0  0  0  0
  -17.7553  -41.0649   -8.2634 N   0  0  0  0  0  0  0  0  0  0  0  0
  -17.9464  -39.9174   -7.3596 C   0  0  1  0  0  0  0  0  0  0  0  0
  -18.0970  -40.4357   -5.9702 C   0  0  0  0  0  0  0  0  0  0  0  0
  -16.8066  -38.9698   -7.5582 C   0  0  2  0  0  0  0  0  0  0  0  0
  -17.2943  -37.6713   -7.4284 O   0  0  0  0  0  0  0  0  0  0  0  0
  -16.1439  -39.0680   -8.8981 C   0  0  0  0  0  0  0  0  0  0  0  0
  -14.7897  -39.5661   -8.8150 N   0  0  0  0  0  0  0  0  0  0  0  0
  -14.1718  -39.7608  -10.0994 C   0  0  0  0  0  0  0  0  0  0  0  0
  -14.4254  -38.6372  -11.0373 C   0  0  0  0  0  0  0  0  0  0  0  0
  -13.6312  -37.5140  -10.9615 C   0  0  0  0  0  0  0  0  0  0  0  0
  -13.7783  -36.4245  -11.7757 C   0  0  0  0  0  0  0  0  0  0  0  0
  -14.7754  -36.4483  -12.7255 C   0  0  0  0  0  0  0  0  0  0  0  0
  -15.5804  -37.5793  -12.8070 C   0  0  0  0  0  0  0  0  0  0  0  0
  -15.3908  -38.6379  -11.9708 N   0  0  0  0  0  0  0  0  0  0  0  0
  -12.9337  -35.2069  -11.7104 C   0  0  0  0  0  0  0  0  0  0  0  0
  -11.4632  -35.5393  -11.8518 C   0  0  0  0  0  0  0  0  0  0  0  0
  -13.1111  -34.4634  -10.4059 C   0  0  0  0  0  0  0  0  0  0  0  0
  -13.2884  -34.2332  -12.8262 C   0  0  0  0  0  0  0  0  0  0  0  0
  2  1  1  1
  2  3  1  0
  3  4  1  0
  4  5  1  0
  5  6  1  0
  6  7  1  0
  7  8  1  0
  8  9  1  0
  9 10  1  0
 10 11  1  0
 11 12  1  0
 12 13  2  0
 13 14  1  0
 14 15  2  0
 15 16  1  0
 16 17  1  0
 13 18  1  0
 18 19  2  0
 18 20  1  0
 20 21  1  0
 21 22  1  1
 21 23  1  0
 23 24  1  6
 23 25  1  0
 25 26  1  0
 26 27  1  0
 27 28  1  0
 28 29  2  0
 29 30  1  0
 30 31  2  0
 31 32  1  0
 32 33  2  0
 30 34  1  0
 34 35  1  0
 34 36  1  0
 34 37  1  0
 16 11  2  0
 22  2  1  0
 33 28  1  0
M  END
$$$$
