
     RDKit          3D

 37 39  0  0  0  0  0  0  0  0999 V2000
  -21.0507  -37.9737   -5.8051 C   0  0  0  0  0  0  0  0  0  0  0  0
  -20.3641  -39.3311   -5.7860 C   0  0  2  0  0  0  0  0  0  0  0  0
  -20.8244  -40.0165   -4.5193 C   0  0  0  0  0  0  0  0  0  0  0  0
  -22.1476  -40.6930   -4.6958 C   0  0  0  0  0  0  0  0  0  0  0  0
  -22.4472  -40.7521   -6.0283 O   0  0  0  0  0  0  0  0  0  0  0  0
  -23.7958  -40.6977   -6.3143 C   0  0  0  0  0  0  0  0  0  0  0  0
  -24.3734  -42.0839   -6.1458 C   0  0  0  0  0  0  0  0  0  0  0  0
  -23.4737  -43.1112   -6.7443 C   0  0  0  0  0  0  0  0  0  0  0  0
  -23.2280  -42.8997   -8.2362 C   0  0  0  0  0  0  0  0  0  0  0  0
  -22.1004  -43.7557   -8.5603 N   0  0  0  0  0  0  0  0  0  0  0  0
  -20.6947  -43.5071   -8.5735 C   0  0  0  0  0  0  0  0  0  0  0  0
  -19.8878  -42.7897   -7.7120 C   0  0  0  0  0  0  0  0  0  0  0  0
  -18.5405  -42.7080   -8.0070 C   0  0  0  0  0  0  0  0  0  0  0  0
  -18.0399  -43.3574   -9.1666 C   0  0  0  0  0  0  0  0  0  0  0  0
  -18.8103  -44.0742  -10.0344 C   0  0  0  0  0  0  0  0  0  0  0  0
  -20.1431  -44.1381   -9.7188 C   0  0  0  0  0  0  0  0  0  0  0  0
  -21.1311  -45.1056  -10.8383 Cl  0  0  0  0  0  0  0  0  0  0  0  0
  -17.4324  -42.0268   -7.3298 C   0  0  0  0  0  0  0  0  0  0  0  0
  -16.2835  -42.6547   -7.2736 O   0  0  0  0  0  0  0  0  0  0  0  0
  -17.3125  -40.7788   -6.6912 N   0  0  0  0  0  0  0  0  0  0  0  0
  -18.1666  -39.6220   -7.0111 C   0  0  1  0  0  0  0  0  0  0  0  0
  -18.8619  -39.1941   -5.7640 C   0  0  0  0  0  0  0  0  0  0  0  0
  -17.3136  -38.5719   -7.6485 C   0  0  2  0  0  0  0  0  0  0  0  0
  -18.1536  -37.6152   -8.2143 O   0  0  0  0  0  0  0  0  0  0  0  0
  -16.4144  -39.0775   -8.7346 C   0  0  0  0  0  0  0  0  0  0  0  0
  -15.2161  -38.2829   -8.8813 N   0  0  0  0  0  0  0  0  0  0  0  0
  -15.1646  -37.5480  -10.1170 C   0  0  0  0  0  0  0  0  0  0  0  0
  -14.1702  -38.0978  -11.0735 C   0  0  0  0  0  0  0  0  0  0  0  0
  -13.0724  -37.3344  -11.4056 C   0  0  0  0  0  0  0  0  0  0  0  0
  -12.0982  -37.7441  -12.2743 C   0  0  0  0  0  0  0  0  0  0  0  0
  -12.2183  -38.9889  -12.8511 C   0  0  0  0  0  0  0  0  0  0  0  0
  -13.3241  -39.7644  -12.5199 C   0  0  0  0  0  0  0  0  0  0  0  0
  -14.2660  -39.3079  -11.6481 N   0  0  0  0  0  0  0  0  0  0  0  0
  -10.9093  -36.9379  -12.6441 C   0  0  0  0  0  0  0  0  0  0  0  0
   -9.9045  -37.7532  -13.4306 C   0  0  0  0  0  0  0  0  0  0  0  0
  -10.1990  -36.3854  -11.4290 C   0  0  0  0  0  0  0  0  0  0  0  0
  -11.3018  -35.7461  -13.5069 C   0  0  0  0  0  0  0  0  0  0  0  0
  2  1  1  1
  2  3  1  0
  3  4  1  0
  4  5  1  0
  5  6  1  0
  6  7  1  0
  7  8  1  0
  8  9  1  0
  9 10  1  0
 10 11  1  0
 11 12  1  0
 12 13  2  0
 13 14  1  0
 14 15  2  0
 15 16  1  0
 16 17  1  0
 13 18  1  0
 18 19  2  0
 18 20  1  0
 20 21  1  0
 21 22  1  1
 21 23  1  0
 23 24  1  6
 23 25  1  0
 25 26  1  0
 26 27  1  0
 27 28  1  0
 28 29  2  0
 29 30  1  0
 30 31  2  0
 31 32  1  0
 32 33  2  0
 30 34  1  0
 34 35  1  0
 34 36  1  0
 34 37  1  0
 16 11  2  0
 22  2  1  0
 33 28  1  0
M  END
$$$$
