
     RDKit          3D

 37 39  0  0  0  0  0  0  0  0999 V2000
  -11.6858  -41.0882   -9.8655 C   0  0  0  0  0  0  0  0  0  0  0  0
  -12.3261  -39.7716   -9.4523 C   0  0  2  0  0  0  0  0  0  0  0  0
  -11.1864  -38.8437   -9.0972 C   0  0  0  0  0  0  0  0  0  0  0  0
  -10.6070  -38.1776  -10.3056 C   0  0  0  0  0  0  0  0  0  0  0  0
  -11.4463  -38.3670  -11.3680 O   0  0  0  0  0  0  0  0  0  0  0  0
  -10.8129  -38.4384  -12.5917 C   0  0  0  0  0  0  0  0  0  0  0  0
  -10.5543  -37.0303  -13.0754 C   0  0  0  0  0  0  0  0  0  0  0  0
  -11.7440  -36.1618  -12.8445 C   0  0  0  0  0  0  0  0  0  0  0  0
  -13.0005  -36.6620  -13.5531 C   0  0  0  0  0  0  0  0  0  0  0  0
  -14.0947  -35.9152  -12.9579 N   0  0  0  0  0  0  0  0  0  0  0  0
  -14.9415  -36.2001  -11.8445 C   0  0  0  0  0  0  0  0  0  0  0  0
  -14.6689  -36.7607  -10.6118 C   0  0  0  0  0  0  0  0  0  0  0  0
  -15.7220  -36.9343   -9.7345 C   0  0  0  0  0  0  0  0  0  0  0  0
  -17.0275  -36.5331  -10.1241 C   0  0  0  0  0  0  0  0  0  0  0  0
  -17.3277  -35.9753  -11.3320 C   0  0  0  0  0  0  0  0  0  0  0  0
  -16.2649  -35.8156  -12.1835 C   0  0  0  0  0  0  0  0  0  0  0  0
  -16.6629  -35.0541  -13.7415 Cl  0  0  0  0  0  0  0  0  0  0  0  0
  -15.7843  -37.5031   -8.3842 C   0  0  0  0  0  0  0  0  0  0  0  0
  -16.5636  -36.9077   -7.5151 O   0  0  0  0  0  0  0  0  0  0  0  0
  -15.1642  -38.6083   -7.7730 N   0  0  0  0  0  0  0  0  0  0  0  0
  -14.6820  -39.7811   -8.5226 C   0  0  1  0  0  0  0  0  0  0  0  0
  -13.2250  -39.9428   -8.2528 C   0  0  0  0  0  0  0  0  0  0  0  0
  -15.5263  -40.9569   -8.1466 C   0  0  2  0  0  0  0  0  0  0  0  0
  -15.4447  -41.8955   -9.1729 O   0  0  0  0  0  0  0  0  0  0  0  0
  -16.9763  -40.6402   -7.9430 C   0  0  0  0  0  0  0  0  0  0  0  0
  -17.6904  -41.7035   -7.2735 N   0  0  0  0  0  0  0  0  0  0  0  0
  -18.7130  -41.2311   -6.3787 C   0  0  0  0  0  0  0  0  0  0  0  0
  -19.9634  -40.8484   -7.0832 C   0  0  0  0  0  0  0  0  0  0  0  0
  -21.1478  -40.8374   -6.3796 C   0  0  0  0  0  0  0  0  0  0  0  0
  -22.3542  -40.5011   -6.9301 C   0  0  0  0  0  0  0  0  0  0  0  0
  -22.3904  -40.1534   -8.2622 C   0  0  0  0  0  0  0  0  0  0  0  0
  -21.1982  -40.1624   -8.9779 C   0  0  0  0  0  0  0  0  0  0  0  0
  -20.0231  -40.5058   -8.3804 N   0  0  0  0  0  0  0  0  0  0  0  0
  -23.6395  -40.4826   -6.1898 C   0  0  0  0  0  0  0  0  0  0  0  0
  -23.4307  -40.6852   -4.7037 C   0  0  0  0  0  0  0  0  0  0  0  0
  -24.5855  -41.5599   -6.6698 C   0  0  0  0  0  0  0  0  0  0  0  0
  -24.3569  -39.1516   -6.3701 C   0  0  0  0  0  0  0  0  0  0  0  0
  2  1  1  1
  2  3  1  0
  3  4  1  0
  4  5  1  0
  5  6  1  0
  6  7  1  0
  7  8  1  0
  8  9  1  0
  9 10  1  0
 10 11  1  0
 11 12  1  0
 12 13  2  0
 13 14  1  0
 14 15  2  0
 15 16  1  0
 16 17  1  0
 13 18  1  0
 18 19  2  0
 18 20  1  0
 20 21  1  0
 21 22  1  1
 21 23  1  0
 23 24  1  6
 23 25  1  0
 25 26  1  0
 26 27  1  0
 27 28  1  0
 28 29  2  0
 29 30  1  0
 30 31  2  0
 31 32  1  0
 32 33  2  0
 30 34  1  0
 34 35  1  0
 34 36  1  0
 34 37  1  0
 16 11  2  0
 22  2  1  0
 33 28  1  0
M  END
$$$$
