
     RDKit          3D

 37 39  0  0  0  0  0  0  0  0999 V2000
  -18.3602  -40.7562   -4.4762 C   0  0  0  0  0  0  0  0  0  0  0  0
  -18.6046  -41.2463   -5.8955 C   0  0  2  0  0  0  0  0  0  0  0  0
  -18.9018  -42.7246   -5.7837 C   0  0  0  0  0  0  0  0  0  0  0  0
  -20.3375  -42.9852   -5.4511 C   0  0  0  0  0  0  0  0  0  0  0  0
  -21.0534  -41.8329   -5.6194 O   0  0  0  0  0  0  0  0  0  0  0  0
  -22.1332  -41.7012   -4.7707 C   0  0  0  0  0  0  0  0  0  0  0  0
  -23.2913  -42.4792   -5.3513 C   0  0  0  0  0  0  0  0  0  0  0  0
  -23.4015  -42.2515   -6.8206 C   0  0  0  0  0  0  0  0  0  0  0  0
  -23.6103  -40.7844   -7.1879 C   0  0  0  0  0  0  0  0  0  0  0  0
  -23.3585  -40.7111   -8.6163 N   0  0  0  0  0  0  0  0  0  0  0  0
  -22.1676  -40.4422   -9.3562 C   0  0  0  0  0  0  0  0  0  0  0  0
  -20.8610  -40.8443   -9.1582 C   0  0  0  0  0  0  0  0  0  0  0  0
  -19.9051  -40.3937  -10.0480 C   0  0  0  0  0  0  0  0  0  0  0  0
  -20.2943  -39.5482  -11.1207 C   0  0  0  0  0  0  0  0  0  0  0  0
  -21.5752  -39.1361  -11.3437 C   0  0  0  0  0  0  0  0  0  0  0  0
  -22.5032  -39.5966  -10.4455 C   0  0  0  0  0  0  0  0  0  0  0  0
  -24.1755  -39.0817  -10.7677 Cl  0  0  0  0  0  0  0  0  0  0  0  0
  -18.4561  -40.6095  -10.1166 C   0  0  0  0  0  0  0  0  0  0  0  0
  -17.9289  -40.7868  -11.3032 O   0  0  0  0  0  0  0  0  0  0  0  0
  -17.4423  -40.6710   -9.1429 N   0  0  0  0  0  0  0  0  0  0  0  0
  -17.5403  -40.0076   -7.8313 C   0  0  1  0  0  0  0  0  0  0  0  0
  -17.3922  -41.0439   -6.7702 C   0  0  0  0  0  0  0  0  0  0  0  0
  -16.5263  -38.9093   -7.7849 C   0  0  2  0  0  0  0  0  0  0  0  0
  -17.0686  -37.8484   -7.0629 O   0  0  0  0  0  0  0  0  0  0  0  0
  -16.1236  -38.3791   -9.1268 C   0  0  0  0  0  0  0  0  0  0  0  0
  -14.9789  -39.0681   -9.6779 N   0  0  0  0  0  0  0  0  0  0  0  0
  -14.9245  -39.0288  -11.1149 C   0  0  0  0  0  0  0  0  0  0  0  0
  -14.0043  -37.9820  -11.6283 C   0  0  0  0  0  0  0  0  0  0  0  0
  -13.0417  -38.3344  -12.5488 C   0  0  0  0  0  0  0  0  0  0  0  0
  -12.1454  -37.4510  -13.0853 C   0  0  0  0  0  0  0  0  0  0  0  0
  -12.2058  -36.1346  -12.6849 C   0  0  0  0  0  0  0  0  0  0  0  0
  -13.1753  -35.7726  -11.7560 C   0  0  0  0  0  0  0  0  0  0  0  0
  -14.0442  -36.6932  -11.2530 N   0  0  0  0  0  0  0  0  0  0  0  0
  -11.1027  -37.8104  -14.0772 C   0  0  0  0  0  0  0  0  0  0  0  0
  -10.5474  -36.5849  -14.7722 C   0  0  0  0  0  0  0  0  0  0  0  0
  -11.6328  -38.7407  -15.1448 C   0  0  0  0  0  0  0  0  0  0  0  0
   -9.9338  -38.5228  -13.4103 C   0  0  0  0  0  0  0  0  0  0  0  0
  2  1  1  1
  2  3  1  0
  3  4  1  0
  4  5  1  0
  5  6  1  0
  6  7  1  0
  7  8  1  0
  8  9  1  0
  9 10  1  0
 10 11  1  0
 11 12  1  0
 12 13  2  0
 13 14  1  0
 14 15  2  0
 15 16  1  0
 16 17  1  0
 13 18  1  0
 18 19  2  0
 18 20  1  0
 20 21  1  0
 21 22  1  1
 21 23  1  0
 23 24  1  1
 23 25  1  0
 25 26  1  0
 26 27  1  0
 27 28  1  0
 28 29  2  0
 29 30  1  0
 30 31  2  0
 31 32  1  0
 32 33  2  0
 30 34  1  0
 34 35  1  0
 34 36  1  0
 34 37  1  0
 16 11  2  0
 22  2  1  0
 33 28  1  0
M  END
$$$$
