
     RDKit          3D

 37 39  0  0  0  0  0  0  0  0999 V2000
  -19.3440  -40.0597   -4.1241 C   0  0  0  0  0  0  0  0  0  0  0  0
  -19.3231  -40.8225   -5.4402 C   0  0  2  0  0  0  0  0  0  0  0  0
  -19.8650  -42.2007   -5.1352 C   0  0  0  0  0  0  0  0  0  0  0  0
  -21.3613  -42.2309   -5.1465 C   0  0  0  0  0  0  0  0  0  0  0  0
  -21.8292  -41.0760   -5.7085 O   0  0  0  0  0  0  0  0  0  0  0  0
  -23.0434  -40.6490   -5.2115 C   0  0  0  0  0  0  0  0  0  0  0  0
  -24.1404  -41.4112   -5.9182 C   0  0  0  0  0  0  0  0  0  0  0  0
  -23.8670  -41.5026   -7.3810 C   0  0  0  0  0  0  0  0  0  0  0  0
  -23.7526  -40.1389   -8.0579 C   0  0  0  0  0  0  0  0  0  0  0  0
  -23.1655  -40.4088   -9.3586 N   0  0  0  0  0  0  0  0  0  0  0  0
  -21.8076  -40.4350   -9.7985 C   0  0  0  0  0  0  0  0  0  0  0  0
  -20.6628  -40.9171   -9.1945 C   0  0  0  0  0  0  0  0  0  0  0  0
  -19.4669  -40.7755   -9.8718 C   0  0  0  0  0  0  0  0  0  0  0  0
  -19.4577  -40.1514  -11.1475 C   0  0  0  0  0  0  0  0  0  0  0  0
  -20.5705  -39.6677  -11.7703 C   0  0  0  0  0  0  0  0  0  0  0  0
  -21.7430  -39.8200  -11.0759 C   0  0  0  0  0  0  0  0  0  0  0  0
  -23.1922  -39.2177  -11.9143 Cl  0  0  0  0  0  0  0  0  0  0  0  0
  -18.0941  -41.1506   -9.5178 C   0  0  0  0  0  0  0  0  0  0  0  0
  -17.3383  -41.6388  -10.4706 O   0  0  0  0  0  0  0  0  0  0  0  0
  -17.3584  -41.1010   -8.3195 N   0  0  0  0  0  0  0  0  0  0  0  0
  -17.6557  -40.1584   -7.2272 C   0  0  1  0  0  0  0  0  0  0  0  0
  -17.9234  -40.9449   -5.9897 C   0  0  0  0  0  0  0  0  0  0  0  0
  -16.5221  -39.1884   -7.1240 C   0  0  2  0  0  0  0  0  0  0  0  0
  -17.0475  -37.8994   -7.1819 O   0  0  0  0  0  0  0  0  0  0  0  0
  -15.5027  -39.3065   -8.2152 C   0  0  0  0  0  0  0  0  0  0  0  0
  -15.6721  -38.3084   -9.2467 N   0  0  0  0  0  0  0  0  0  0  0  0
  -15.7220  -38.8602  -10.5743 C   0  0  0  0  0  0  0  0  0  0  0  0
  -14.5155  -38.5377  -11.3782 C   0  0  0  0  0  0  0  0  0  0  0  0
  -14.1345  -37.2202  -11.5090 C   0  0  0  0  0  0  0  0  0  0  0  0
  -13.0420  -36.8137  -12.2251 C   0  0  0  0  0  0  0  0  0  0  0  0
  -12.2778  -37.7728  -12.8519 C   0  0  0  0  0  0  0  0  0  0  0  0
  -12.6571  -39.1045  -12.7238 C   0  0  0  0  0  0  0  0  0  0  0  0
  -13.7553  -39.4551  -11.9980 N   0  0  0  0  0  0  0  0  0  0  0  0
  -12.6153  -35.4013  -12.3771 C   0  0  0  0  0  0  0  0  0  0  0  0
  -11.9360  -35.1637  -13.7095 C   0  0  0  0  0  0  0  0  0  0  0  0
  -11.6514  -34.9804  -11.2909 C   0  0  0  0  0  0  0  0  0  0  0  0
  -13.8075  -34.4571  -12.3007 C   0  0  0  0  0  0  0  0  0  0  0  0
  2  1  1  1
  2  3  1  0
  3  4  1  0
  4  5  1  0
  5  6  1  0
  6  7  1  0
  7  8  1  0
  8  9  1  0
  9 10  1  0
 10 11  1  0
 11 12  1  0
 12 13  2  0
 13 14  1  0
 14 15  2  0
 15 16  1  0
 16 17  1  0
 13 18  1  0
 18 19  2  0
 18 20  1  0
 20 21  1  0
 21 22  1  1
 21 23  1  0
 23 24  1  6
 23 25  1  0
 25 26  1  0
 26 27  1  0
 27 28  1  0
 28 29  2  0
 29 30  1  0
 30 31  2  0
 31 32  1  0
 32 33  2  0
 30 34  1  0
 34 35  1  0
 34 36  1  0
 34 37  1  0
 16 11  2  0
 22  2  1  0
 33 28  1  0
M  END
$$$$
