
     RDKit          3D

 37 39  0  0  0  0  0  0  0  0999 V2000
  -20.3321  -38.8571   -5.3613 C   0  0  0  0  0  0  0  0  0  0  0  0
  -20.0492  -39.9353   -6.3966 C   0  0  2  0  0  0  0  0  0  0  0  0
  -20.7122  -41.1938   -5.8839 C   0  0  0  0  0  0  0  0  0  0  0  0
  -22.1663  -41.2452   -6.2340 C   0  0  0  0  0  0  0  0  0  0  0  0
  -22.4379  -40.2821   -7.1654 O   0  0  0  0  0  0  0  0  0  0  0  0
  -23.7112  -39.7563   -7.0900 C   0  0  0  0  0  0  0  0  0  0  0  0
  -24.6542  -40.6900   -7.8129 C   0  0  0  0  0  0  0  0  0  0  0  0
  -24.0600  -41.1549   -9.0989 C   0  0  0  0  0  0  0  0  0  0  0  0
  -23.7291  -40.0125  -10.0563 C   0  0  0  0  0  0  0  0  0  0  0  0
  -22.8752  -40.6035  -11.0716 N   0  0  0  0  0  0  0  0  0  0  0  0
  -21.4558  -40.7256  -11.1626 C   0  0  0  0  0  0  0  0  0  0  0  0
  -20.5029  -41.0194  -10.2068 C   0  0  0  0  0  0  0  0  0  0  0  0
  -19.1790  -41.0433  -10.6010 C   0  0  0  0  0  0  0  0  0  0  0  0
  -18.8498  -40.7720  -11.9556 C   0  0  0  0  0  0  0  0  0  0  0  0
  -19.7671  -40.4812  -12.9221 C   0  0  0  0  0  0  0  0  0  0  0  0
  -21.0728  -40.4629  -12.5037 C   0  0  0  0  0  0  0  0  0  0  0  0
  -22.2625  -40.1178  -13.7808 Cl  0  0  0  0  0  0  0  0  0  0  0  0
  -17.9423  -41.2958   -9.8543 C   0  0  0  0  0  0  0  0  0  0  0  0
  -17.0141  -42.0051  -10.4482 O   0  0  0  0  0  0  0  0  0  0  0  0
  -17.4970  -40.9270   -8.5716 N   0  0  0  0  0  0  0  0  0  0  0  0
  -17.9891  -39.7369   -7.8564 C   0  0  1  0  0  0  0  0  0  0  0  0
  -18.5688  -40.1783   -6.5561 C   0  0  0  0  0  0  0  0  0  0  0  0
  -16.8633  -38.7589   -7.7444 C   0  0  2  0  0  0  0  0  0  0  0  0
  -17.3923  -37.5315   -7.3514 O   0  0  0  0  0  0  0  0  0  0  0  0
  -16.1072  -38.5340   -9.0179 C   0  0  0  0  0  0  0  0  0  0  0  0
  -15.2816  -39.6628   -9.3828 N   0  0  0  0  0  0  0  0  0  0  0  0
  -13.8747  -39.3629   -9.3934 C   0  0  0  0  0  0  0  0  0  0  0  0
  -13.4978  -38.4043  -10.4636 C   0  0  0  0  0  0  0  0  0  0  0  0
  -12.1668  -38.0991  -10.6461 C   0  0  0  0  0  0  0  0  0  0  0  0
  -11.7114  -37.2311  -11.6005 C   0  0  0  0  0  0  0  0  0  0  0  0
  -12.6325  -36.6266  -12.4269 C   0  0  0  0  0  0  0  0  0  0  0  0
  -13.9776  -36.9306  -12.2477 C   0  0  0  0  0  0  0  0  0  0  0  0
  -14.3775  -37.8030  -11.2810 N   0  0  0  0  0  0  0  0  0  0  0  0
  -10.2836  -36.8901  -11.8132 C   0  0  0  0  0  0  0  0  0  0  0  0
   -9.4037  -37.4665  -10.7239 C   0  0  0  0  0  0  0  0  0  0  0  0
  -10.0561  -35.3956  -11.8419 C   0  0  0  0  0  0  0  0  0  0  0  0
   -9.7807  -37.4396  -13.1413 C   0  0  0  0  0  0  0  0  0  0  0  0
  2  1  1  1
  2  3  1  0
  3  4  1  0
  4  5  1  0
  5  6  1  0
  6  7  1  0
  7  8  1  0
  8  9  1  0
  9 10  1  0
 10 11  1  0
 11 12  1  0
 12 13  2  0
 13 14  1  0
 14 15  2  0
 15 16  1  0
 16 17  1  0
 13 18  1  0
 18 19  2  0
 18 20  1  0
 20 21  1  0
 21 22  1  1
 21 23  1  0
 23 24  1  6
 23 25  1  0
 25 26  1  0
 26 27  1  0
 27 28  1  0
 28 29  2  0
 29 30  1  0
 30 31  2  0
 31 32  1  0
 32 33  2  0
 30 34  1  0
 34 35  1  0
 34 36  1  0
 34 37  1  0
 16 11  2  0
 22  2  1  0
 33 28  1  0
M  END
$$$$
