
     RDKit          3D

 37 39  0  0  0  0  0  0  0  0999 V2000
  -21.0870  -38.1930   -6.0062 C   0  0  0  0  0  0  0  0  0  0  0  0
  -20.1459  -39.3872   -6.0552 C   0  0  2  0  0  0  0  0  0  0  0  0
  -20.1391  -39.9738   -4.6616 C   0  0  0  0  0  0  0  0  0  0  0  0
  -21.2938  -40.8986   -4.4359 C   0  0  0  0  0  0  0  0  0  0  0  0
  -21.8805  -41.1853   -5.6369 O   0  0  0  0  0  0  0  0  0  0  0  0
  -23.2390  -41.4169   -5.5691 C   0  0  0  0  0  0  0  0  0  0  0  0
  -23.4556  -42.8514   -5.1460 C   0  0  0  0  0  0  0  0  0  0  0  0
  -22.5276  -43.7656   -5.8712 C   0  0  0  0  0  0  0  0  0  0  0  0
  -22.6916  -43.7097   -7.3881 C   0  0  0  0  0  0  0  0  0  0  0  0
  -21.5185  -44.3793   -7.9217 N   0  0  0  0  0  0  0  0  0  0  0  0
  -20.2403  -43.8811   -8.3167 C   0  0  0  0  0  0  0  0  0  0  0  0
  -19.4220  -42.9216   -7.7531 C   0  0  0  0  0  0  0  0  0  0  0  0
  -18.2308  -42.6335   -8.3910 C   0  0  0  0  0  0  0  0  0  0  0  0
  -17.8934  -43.3262   -9.5841 C   0  0  0  0  0  0  0  0  0  0  0  0
  -18.6786  -44.2792  -10.1632 C   0  0  0  0  0  0  0  0  0  0  0  0
  -19.8550  -44.5446   -9.5107 C   0  0  0  0  0  0  0  0  0  0  0  0
  -20.8535  -45.8148  -10.2558 Cl  0  0  0  0  0  0  0  0  0  0  0  0
  -17.1627  -41.6781   -8.0796 C   0  0  0  0  0  0  0  0  0  0  0  0
  -15.9275  -42.0719   -8.2709 O   0  0  0  0  0  0  0  0  0  0  0  0
  -17.1605  -40.3567   -7.5964 N   0  0  0  0  0  0  0  0  0  0  0  0
  -18.2895  -39.4280   -7.7776 C   0  0  1  0  0  0  0  0  0  0  0  0
  -18.7443  -38.9755   -6.4322 C   0  0  0  0  0  0  0  0  0  0  0  0
  -17.8517  -38.3319   -8.6960 C   0  0  2  0  0  0  0  0  0  0  0  0
  -18.7548  -38.2663   -9.7548 O   0  0  0  0  0  0  0  0  0  0  0  0
  -16.4863  -38.5215   -9.2824 C   0  0  0  0  0  0  0  0  0  0  0  0
  -15.4682  -38.7116   -8.2743 N   0  0  0  0  0  0  0  0  0  0  0  0
  -14.4441  -39.6436   -8.6641 C   0  0  0  0  0  0  0  0  0  0  0  0
  -13.9684  -39.4289  -10.0547 C   0  0  0  0  0  0  0  0  0  0  0  0
  -13.6400  -38.1528  -10.4570 C   0  0  0  0  0  0  0  0  0  0  0  0
  -13.1923  -37.8446  -11.7125 C   0  0  0  0  0  0  0  0  0  0  0  0
  -13.0614  -38.8649  -12.6282 C   0  0  0  0  0  0  0  0  0  0  0  0
  -13.3912  -40.1553  -12.2283 C   0  0  0  0  0  0  0  0  0  0  0  0
  -13.8327  -40.4074  -10.9645 N   0  0  0  0  0  0  0  0  0  0  0  0
  -12.8333  -36.4783  -12.1644 C   0  0  0  0  0  0  0  0  0  0  0  0
  -12.6854  -36.4090  -13.6699 C   0  0  0  0  0  0  0  0  0  0  0  0
  -11.5338  -36.0029  -11.5550 C   0  0  0  0  0  0  0  0  0  0  0  0
  -13.9031  -35.4704  -11.7665 C   0  0  0  0  0  0  0  0  0  0  0  0
  2  1  1  1
  2  3  1  0
  3  4  1  0
  4  5  1  0
  5  6  1  0
  6  7  1  0
  7  8  1  0
  8  9  1  0
  9 10  1  0
 10 11  1  0
 11 12  1  0
 12 13  2  0
 13 14  1  0
 14 15  2  0
 15 16  1  0
 16 17  1  0
 13 18  1  0
 18 19  2  0
 18 20  1  0
 20 21  1  0
 21 22  1  1
 21 23  1  0
 23 24  1  6
 23 25  1  0
 25 26  1  0
 26 27  1  0
 27 28  1  0
 28 29  2  0
 29 30  1  0
 30 31  2  0
 31 32  1  0
 32 33  2  0
 30 34  1  0
 34 35  1  0
 34 36  1  0
 34 37  1  0
 16 11  2  0
 22  2  1  0
 33 28  1  0
M  END
$$$$
