
     RDKit          3D

 37 39  0  0  0  0  0  0  0  0999 V2000
  -20.1772  -37.5734   -6.0371 C   0  0  0  0  0  0  0  0  0  0  0  0
  -19.5091  -38.9396   -6.0771 C   0  0  2  0  0  0  0  0  0  0  0  0
  -19.1569  -39.2767   -4.6458 C   0  0  0  0  0  0  0  0  0  0  0  0
  -20.3154  -39.8697   -3.9071 C   0  0  0  0  0  0  0  0  0  0  0  0
  -21.2913  -40.2102   -4.8019 O   0  0  0  0  0  0  0  0  0  0  0  0
  -22.5767  -40.1175   -4.3092 C   0  0  0  0  0  0  0  0  0  0  0  0
  -22.8798  -41.3780   -3.5328 C   0  0  0  0  0  0  0  0  0  0  0  0
  -22.3926  -42.5828   -4.2635 C   0  0  0  0  0  0  0  0  0  0  0  0
  -23.0176  -42.7404   -5.6476 C   0  0  0  0  0  0  0  0  0  0  0  0
  -22.2006  -43.7338   -6.3221 N   0  0  0  0  0  0  0  0  0  0  0  0
  -21.0503  -43.6059   -7.1578 C   0  0  0  0  0  0  0  0  0  0  0  0
  -19.9500  -42.7751   -7.0735 C   0  0  0  0  0  0  0  0  0  0  0  0
  -18.9924  -42.8695   -8.0648 C   0  0  0  0  0  0  0  0  0  0  0  0
  -19.1690  -43.8056   -9.1181 C   0  0  0  0  0  0  0  0  0  0  0  0
  -20.2421  -44.6402   -9.2276 C   0  0  0  0  0  0  0  0  0  0  0  0
  -21.1776  -44.5250   -8.2318 C   0  0  0  0  0  0  0  0  0  0  0  0
  -22.5546  -45.6436   -8.3662 Cl  0  0  0  0  0  0  0  0  0  0  0  0
  -17.7394  -42.1397   -8.2845 C   0  0  0  0  0  0  0  0  0  0  0  0
  -16.7107  -42.8260   -8.7183 O   0  0  0  0  0  0  0  0  0  0  0  0
  -17.3677  -40.7916   -8.1295 N   0  0  0  0  0  0  0  0  0  0  0  0
  -18.3278  -39.6762   -8.1929 C   0  0  1  0  0  0  0  0  0  0  0  0
  -18.2519  -38.9195   -6.9109 C   0  0  0  0  0  0  0  0  0  0  0  0
  -18.0305  -38.8713   -9.4178 C   0  0  2  0  0  0  0  0  0  0  0  0
  -19.2392  -38.4247   -9.9473 O   0  0  0  0  0  0  0  0  0  0  0  0
  -17.3189  -39.6257  -10.4988 C   0  0  0  0  0  0  0  0  0  0  0  0
  -16.2185  -38.8806  -11.0668 N   0  0  0  0  0  0  0  0  0  0  0  0
  -14.9272  -39.3822  -10.6790 C   0  0  0  0  0  0  0  0  0  0  0  0
  -13.8065  -38.6137  -11.2786 C   0  0  0  0  0  0  0  0  0  0  0  0
  -13.9444  -37.2527  -11.4423 C   0  0  0  0  0  0  0  0  0  0  0  0
  -12.9760  -36.4515  -11.9826 C   0  0  0  0  0  0  0  0  0  0  0  0
  -11.7957  -37.0349  -12.3868 C   0  0  0  0  0  0  0  0  0  0  0  0
  -11.6503  -38.4083  -12.2242 C   0  0  0  0  0  0  0  0  0  0  0  0
  -12.6472  -39.1603  -11.6799 N   0  0  0  0  0  0  0  0  0  0  0  0
  -13.1049  -34.9853  -12.1665 C   0  0  0  0  0  0  0  0  0  0  0  0
  -14.3413  -34.4432  -11.4806 C   0  0  0  0  0  0  0  0  0  0  0  0
  -13.1870  -34.6024  -13.6269 C   0  0  0  0  0  0  0  0  0  0  0  0
  -11.9042  -34.2521  -11.5838 C   0  0  0  0  0  0  0  0  0  0  0  0
  2  1  1  1
  2  3  1  0
  3  4  1  0
  4  5  1  0
  5  6  1  0
  6  7  1  0
  7  8  1  0
  8  9  1  0
  9 10  1  0
 10 11  1  0
 11 12  1  0
 12 13  2  0
 13 14  1  0
 14 15  2  0
 15 16  1  0
 16 17  1  0
 13 18  1  0
 18 19  2  0
 18 20  1  0
 20 21  1  0
 21 22  1  1
 21 23  1  0
 23 24  1  6
 23 25  1  0
 25 26  1  0
 26 27  1  0
 27 28  1  0
 28 29  2  0
 29 30  1  0
 30 31  2  0
 31 32  1  0
 32 33  2  0
 30 34  1  0
 34 35  1  0
 34 36  1  0
 34 37  1  0
 16 11  2  0
 22  2  1  0
 33 28  1  0
M  END
$$$$
