
     RDKit          3D

 37 39  0  0  0  0  0  0  0  0999 V2000
  -21.1192  -37.9668   -6.4305 C   0  0  0  0  0  0  0  0  0  0  0  0
  -20.2712  -39.2015   -6.1649 C   0  0  2  0  0  0  0  0  0  0  0  0
  -20.6502  -39.6815   -4.7821 C   0  0  0  0  0  0  0  0  0  0  0  0
  -21.8793  -40.5352   -4.8011 C   0  0  0  0  0  0  0  0  0  0  0  0
  -22.1626  -40.8851   -6.0919 O   0  0  0  0  0  0  0  0  0  0  0  0
  -23.5062  -41.0510   -6.3579 C   0  0  0  0  0  0  0  0  0  0  0  0
  -23.9098  -42.4388   -5.9165 C   0  0  0  0  0  0  0  0  0  0  0  0
  -22.8877  -43.4448   -6.3241 C   0  0  0  0  0  0  0  0  0  0  0  0
  -22.6623  -43.4957   -7.8333 C   0  0  0  0  0  0  0  0  0  0  0  0
  -21.4364  -44.2544   -8.0086 N   0  0  0  0  0  0  0  0  0  0  0  0
  -20.0719  -43.8439   -8.0953 C   0  0  0  0  0  0  0  0  0  0  0  0
  -19.3636  -42.8817   -7.4021 C   0  0  0  0  0  0  0  0  0  0  0  0
  -18.0351  -42.6950   -7.7324 C   0  0  0  0  0  0  0  0  0  0  0  0
  -17.4526  -43.4894   -8.7555 C   0  0  0  0  0  0  0  0  0  0  0  0
  -18.1246  -44.4478   -9.4556 C   0  0  0  0  0  0  0  0  0  0  0  0
  -19.4410  -44.6115   -9.1088 C   0  0  0  0  0  0  0  0  0  0  0  0
  -20.2969  -45.8888  -10.0039 Cl  0  0  0  0  0  0  0  0  0  0  0  0
  -17.0225  -41.7668   -7.2188 C   0  0  0  0  0  0  0  0  0  0  0  0
  -15.8055  -42.2278   -7.0650 O   0  0  0  0  0  0  0  0  0  0  0  0
  -17.0602  -40.4142   -6.8331 N   0  0  0  0  0  0  0  0  0  0  0  0
  -18.0483  -39.4531   -7.3524 C   0  0  1  0  0  0  0  0  0  0  0  0
  -18.7972  -38.8813   -6.1974 C   0  0  0  0  0  0  0  0  0  0  0  0
  -17.3277  -38.4492   -8.1948 C   0  0  2  0  0  0  0  0  0  0  0  0
  -17.9483  -38.4032   -9.4412 O   0  0  0  0  0  0  0  0  0  0  0  0
  -15.8801  -38.7577   -8.4259 C   0  0  0  0  0  0  0  0  0  0  0  0
  -15.5137  -38.6988   -9.8227 N   0  0  0  0  0  0  0  0  0  0  0  0
  -15.7235  -37.4049  -10.4153 C   0  0  0  0  0  0  0  0  0  0  0  0
  -14.4618  -36.6422  -10.5957 C   0  0  0  0  0  0  0  0  0  0  0  0
  -13.4876  -37.1526  -11.4254 C   0  0  0  0  0  0  0  0  0  0  0  0
  -12.2911  -36.5327  -11.6616 C   0  0  0  0  0  0  0  0  0  0  0  0
  -12.0432  -35.3308  -11.0365 C   0  0  0  0  0  0  0  0  0  0  0  0
  -13.0227  -34.8103  -10.1978 C   0  0  0  0  0  0  0  0  0  0  0  0
  -14.1979  -35.4692   -9.9972 N   0  0  0  0  0  0  0  0  0  0  0  0
  -11.2303  -37.0652  -12.5513 C   0  0  0  0  0  0  0  0  0  0  0  0
  -11.8014  -37.5754  -13.8576 C   0  0  0  0  0  0  0  0  0  0  0  0
  -10.4705  -38.2036  -11.9088 C   0  0  0  0  0  0  0  0  0  0  0  0
  -10.2090  -35.9884  -12.8920 C   0  0  0  0  0  0  0  0  0  0  0  0
  2  1  1  1
  2  3  1  0
  3  4  1  0
  4  5  1  0
  5  6  1  0
  6  7  1  0
  7  8  1  0
  8  9  1  0
  9 10  1  0
 10 11  1  0
 11 12  1  0
 12 13  2  0
 13 14  1  0
 14 15  2  0
 15 16  1  0
 16 17  1  0
 13 18  1  0
 18 19  2  0
 18 20  1  0
 20 21  1  0
 21 22  1  1
 21 23  1  0
 23 24  1  6
 23 25  1  0
 25 26  1  0
 26 27  1  0
 27 28  1  0
 28 29  2  0
 29 30  1  0
 30 31  2  0
 31 32  1  0
 32 33  2  0
 30 34  1  0
 34 35  1  0
 34 36  1  0
 34 37  1  0
 16 11  2  0
 22  2  1  0
 33 28  1  0
M  END
$$$$
