
     RDKit          3D

 37 39  0  0  0  0  0  0  0  0999 V2000
  -20.1663  -37.9493   -5.8443 C   0  0  0  0  0  0  0  0  0  0  0  0
  -19.7563  -39.3183   -6.3658 C   0  0  2  0  0  0  0  0  0  0  0  0
  -20.3008  -40.3244   -5.3772 C   0  0  0  0  0  0  0  0  0  0  0  0
  -21.7352  -40.6563   -5.6460 C   0  0  0  0  0  0  0  0  0  0  0  0
  -22.0824  -40.1801   -6.8794 O   0  0  0  0  0  0  0  0  0  0  0  0
  -23.4031  -39.7976   -6.9939 C   0  0  0  0  0  0  0  0  0  0  0  0
  -24.2334  -41.0316   -7.2612 C   0  0  0  0  0  0  0  0  0  0  0  0
  -23.5699  -41.9119   -8.2651 C   0  0  0  0  0  0  0  0  0  0  0  0
  -23.3350  -41.2230   -9.6072 C   0  0  0  0  0  0  0  0  0  0  0  0
  -22.4060  -42.0836  -10.3182 N   0  0  0  0  0  0  0  0  0  0  0  0
  -20.9799  -42.0901  -10.3831 C   0  0  0  0  0  0  0  0  0  0  0  0
  -20.0222  -41.8794   -9.4103 C   0  0  0  0  0  0  0  0  0  0  0  0
  -18.6947  -41.9277   -9.7902 C   0  0  0  0  0  0  0  0  0  0  0  0
  -18.3667  -42.1915  -11.1466 C   0  0  0  0  0  0  0  0  0  0  0  0
  -19.2886  -42.4057  -12.1286 C   0  0  0  0  0  0  0  0  0  0  0  0
  -20.5978  -42.3510  -11.7247 C   0  0  0  0  0  0  0  0  0  0  0  0
  -21.7898  -42.6675  -13.0071 Cl  0  0  0  0  0  0  0  0  0  0  0  0
  -17.4545  -41.7350   -9.0316 C   0  0  0  0  0  0  0  0  0  0  0  0
  -16.4483  -42.5269   -9.3108 O   0  0  0  0  0  0  0  0  0  0  0  0
  -17.0743  -40.8403   -8.0145 N   0  0  0  0  0  0  0  0  0  0  0  0
  -17.6970  -39.5186   -7.8265 C   0  0  1  0  0  0  0  0  0  0  0  0
  -18.2562  -39.4564   -6.4462 C   0  0  0  0  0  0  0  0  0  0  0  0
  -16.6768  -38.4711   -8.1405 C   0  0  2  0  0  0  0  0  0  0  0  0
  -17.3387  -37.2565   -8.3055 O   0  0  0  0  0  0  0  0  0  0  0  0
  -15.8894  -38.7260   -9.3892 C   0  0  0  0  0  0  0  0  0  0  0  0
  -14.7358  -39.5656   -9.1591 N   0  0  0  0  0  0  0  0  0  0  0  0
  -14.3533  -40.3402  -10.3095 C   0  0  0  0  0  0  0  0  0  0  0  0
  -13.5174  -39.5735  -11.2685 C   0  0  0  0  0  0  0  0  0  0  0  0
  -13.4916  -38.1989  -11.1790 C   0  0  0  0  0  0  0  0  0  0  0  0
  -12.7572  -37.3981  -12.0102 C   0  0  0  0  0  0  0  0  0  0  0  0
  -11.9998  -37.9963  -12.9928 C   0  0  0  0  0  0  0  0  0  0  0  0
  -12.0215  -39.3835  -13.0882 C   0  0  0  0  0  0  0  0  0  0  0  0
  -12.7712  -40.1344  -12.2340 N   0  0  0  0  0  0  0  0  0  0  0  0
  -12.7157  -35.9176  -11.9298 C   0  0  0  0  0  0  0  0  0  0  0  0
  -14.0583  -35.3424  -11.5305 C   0  0  0  0  0  0  0  0  0  0  0  0
  -12.3226  -35.2892  -13.2477 C   0  0  0  0  0  0  0  0  0  0  0  0
  -11.6975  -35.4530  -10.8972 C   0  0  0  0  0  0  0  0  0  0  0  0
  2  1  1  1
  2  3  1  0
  3  4  1  0
  4  5  1  0
  5  6  1  0
  6  7  1  0
  7  8  1  0
  8  9  1  0
  9 10  1  0
 10 11  1  0
 11 12  1  0
 12 13  2  0
 13 14  1  0
 14 15  2  0
 15 16  1  0
 16 17  1  0
 13 18  1  0
 18 19  2  0
 18 20  1  0
 20 21  1  0
 21 22  1  1
 21 23  1  0
 23 24  1  6
 23 25  1  0
 25 26  1  0
 26 27  1  0
 27 28  1  0
 28 29  2  0
 29 30  1  0
 30 31  2  0
 31 32  1  0
 32 33  2  0
 30 34  1  0
 34 35  1  0
 34 36  1  0
 34 37  1  0
 16 11  2  0
 22  2  1  0
 33 28  1  0
M  END
$$$$
