
     RDKit          3D

 37 39  0  0  0  0  0  0  0  0999 V2000
  -13.2213  -37.7329   -9.6838 C   0  0  0  0  0  0  0  0  0  0  0  0
  -14.6650  -37.2551   -9.6442 C   0  0  2  0  0  0  0  0  0  0  0  0
  -14.6156  -35.7543   -9.8218 C   0  0  0  0  0  0  0  0  0  0  0  0
  -14.5298  -35.3620  -11.2635 C   0  0  0  0  0  0  0  0  0  0  0  0
  -14.8069  -36.4509  -12.0421 O   0  0  0  0  0  0  0  0  0  0  0  0
  -14.1499  -36.4688  -13.2552 C   0  0  0  0  0  0  0  0  0  0  0  0
  -14.9219  -35.6058  -14.2262 C   0  0  0  0  0  0  0  0  0  0  0  0
  -16.3872  -35.8558  -14.1110 C   0  0  0  0  0  0  0  0  0  0  0  0
  -16.7733  -37.3069  -14.3869 C   0  0  0  0  0  0  0  0  0  0  0  0
  -18.1389  -37.4338  -13.9091 N   0  0  0  0  0  0  0  0  0  0  0  0
  -18.6671  -37.8221  -12.6409 C   0  0  0  0  0  0  0  0  0  0  0  0
  -18.2562  -37.5313  -11.3546 C   0  0  0  0  0  0  0  0  0  0  0  0
  -18.9702  -38.0834  -10.3086 C   0  0  0  0  0  0  0  0  0  0  0  0
  -20.0865  -38.9155  -10.5887 C   0  0  0  0  0  0  0  0  0  0  0  0
  -20.5176  -39.2190  -11.8465 C   0  0  0  0  0  0  0  0  0  0  0  0
  -19.7908  -38.6593  -12.8656 C   0  0  0  0  0  0  0  0  0  0  0  0
  -20.3845  -39.0333  -14.5006 Cl  0  0  0  0  0  0  0  0  0  0  0  0
  -18.7970  -37.9965   -8.8549 C   0  0  0  0  0  0  0  0  0  0  0  0
  -19.8799  -37.8924   -8.1243 O   0  0  0  0  0  0  0  0  0  0  0  0
  -17.6679  -38.0021   -8.0154 N   0  0  0  0  0  0  0  0  0  0  0  0
  -16.3862  -38.6249   -8.3889 C   0  0  1  0  0  0  0  0  0  0  0  0
  -15.3230  -37.5821   -8.3265 C   0  0  0  0  0  0  0  0  0  0  0  0
  -16.1626  -39.8062   -7.4995 C   0  0  2  0  0  0  0  0  0  0  0  0
  -15.9826  -40.9282   -8.3055 O   0  0  0  0  0  0  0  0  0  0  0  0
  -17.2951  -40.1027   -6.5648 C   0  0  0  0  0  0  0  0  0  0  0  0
  -16.9352  -41.0524   -5.5365 N   0  0  0  0  0  0  0  0  0  0  0  0
  -17.8692  -42.1389   -5.4088 C   0  0  0  0  0  0  0  0  0  0  0  0
  -19.2088  -41.6958   -4.9448 C   0  0  0  0  0  0  0  0  0  0  0  0
  -20.3010  -41.9152   -5.7555 C   0  0  0  0  0  0  0  0  0  0  0  0
  -21.5768  -41.5481   -5.4255 C   0  0  0  0  0  0  0  0  0  0  0  0
  -21.7849  -40.9238   -4.2157 C   0  0  0  0  0  0  0  0  0  0  0  0
  -20.6866  -40.6994   -3.3928 C   0  0  0  0  0  0  0  0  0  0  0  0
  -19.4360  -41.0857   -3.7702 N   0  0  0  0  0  0  0  0  0  0  0  0
  -22.7651  -41.7758   -6.2837 C   0  0  0  0  0  0  0  0  0  0  0  0
  -24.0031  -42.0594   -5.4591 C   0  0  0  0  0  0  0  0  0  0  0  0
  -22.5676  -42.9404   -7.2275 C   0  0  0  0  0  0  0  0  0  0  0  0
  -23.0623  -40.5549   -7.1438 C   0  0  0  0  0  0  0  0  0  0  0  0
  2  1  1  1
  2  3  1  0
  3  4  1  0
  4  5  1  0
  5  6  1  0
  6  7  1  0
  7  8  1  0
  8  9  1  0
  9 10  1  0
 10 11  1  0
 11 12  1  0
 12 13  2  0
 13 14  1  0
 14 15  2  0
 15 16  1  0
 16 17  1  0
 13 18  1  0
 18 19  2  0
 18 20  1  0
 20 21  1  0
 21 22  1  1
 21 23  1  0
 23 24  1  6
 23 25  1  0
 25 26  1  0
 26 27  1  0
 27 28  1  0
 28 29  2  0
 29 30  1  0
 30 31  2  0
 31 32  1  0
 32 33  2  0
 30 34  1  0
 34 35  1  0
 34 36  1  0
 34 37  1  0
 16 11  2  0
 22  2  1  0
 33 28  1  0
M  END
$$$$
