
     RDKit          3D

 37 39  0  0  0  0  0  0  0  0999 V2000
  -12.7354  -37.0082   -8.6886 C   0  0  0  0  0  0  0  0  0  0  0  0
  -14.0166  -37.2441   -9.4742 C   0  0  2  0  0  0  0  0  0  0  0  0
  -14.0545  -36.1776  -10.5455 C   0  0  0  0  0  0  0  0  0  0  0  0
  -13.2512  -36.5613  -11.7485 C   0  0  0  0  0  0  0  0  0  0  0  0
  -12.9354  -37.8892  -11.6724 O   0  0  0  0  0  0  0  0  0  0  0  0
  -11.7311  -38.2251  -12.2559 C   0  0  0  0  0  0  0  0  0  0  0  0
  -11.9519  -38.3855  -13.7422 C   0  0  0  0  0  0  0  0  0  0  0  0
  -13.2069  -39.1428  -14.0147 C   0  0  0  0  0  0  0  0  0  0  0  0
  -13.2110  -40.5409  -13.4014 C   0  0  0  0  0  0  0  0  0  0  0  0
  -14.5928  -40.9824  -13.4720 N   0  0  0  0  0  0  0  0  0  0  0  0
  -15.6720  -40.8709  -12.5441 C   0  0  0  0  0  0  0  0  0  0  0  0
  -16.0570  -39.8364  -11.7137 C   0  0  0  0  0  0  0  0  0  0  0  0
  -17.1522  -40.0384  -10.8961 C   0  0  0  0  0  0  0  0  0  0  0  0
  -17.8351  -41.2829  -10.9401 C   0  0  0  0  0  0  0  0  0  0  0  0
  -17.4809  -42.3215  -11.7500 C   0  0  0  0  0  0  0  0  0  0  0  0
  -16.3904  -42.0948  -12.5497 C   0  0  0  0  0  0  0  0  0  0  0  0
  -15.9601  -43.4436  -13.6274 Cl  0  0  0  0  0  0  0  0  0  0  0  0
  -17.8018  -39.1762   -9.9035 C   0  0  0  0  0  0  0  0  0  0  0  0
  -19.1112  -39.1969   -9.8524 O   0  0  0  0  0  0  0  0  0  0  0  0
  -17.3123  -38.2810   -8.9347 N   0  0  0  0  0  0  0  0  0  0  0  0
  -15.9694  -38.3898   -8.3391 C   0  0  1  0  0  0  0  0  0  0  0  0
  -15.2379  -37.1171   -8.5976 C   0  0  0  0  0  0  0  0  0  0  0  0
  -16.1249  -38.7446   -6.8946 C   0  0  2  0  0  0  0  0  0  0  0  0
  -15.6051  -40.0229   -6.7034 O   0  0  0  0  0  0  0  0  0  0  0  0
  -17.5416  -38.7593   -6.4081 C   0  0  0  0  0  0  0  0  0  0  0  0
  -17.7784  -39.7796   -5.4122 N   0  0  0  0  0  0  0  0  0  0  0  0
  -18.7646  -39.4062   -4.4337 C   0  0  0  0  0  0  0  0  0  0  0  0
  -20.1087  -39.9659   -4.7276 C   0  0  0  0  0  0  0  0  0  0  0  0
  -20.4599  -40.2023   -6.0387 C   0  0  0  0  0  0  0  0  0  0  0  0
  -21.6698  -40.7148   -6.4195 C   0  0  0  0  0  0  0  0  0  0  0  0
  -22.5910  -41.0121   -5.4398 C   0  0  0  0  0  0  0  0  0  0  0  0
  -22.2426  -40.7758   -4.1145 C   0  0  0  0  0  0  0  0  0  0  0  0
  -21.0228  -40.2635   -3.7898 N   0  0  0  0  0  0  0  0  0  0  0  0
  -22.0664  -40.9769   -7.8245 C   0  0  0  0  0  0  0  0  0  0  0  0
  -23.1127  -39.9920   -8.3023 C   0  0  0  0  0  0  0  0  0  0  0  0
  -22.6319  -42.3677   -8.0037 C   0  0  0  0  0  0  0  0  0  0  0  0
  -20.8721  -40.8610   -8.7620 C   0  0  0  0  0  0  0  0  0  0  0  0
  2  1  1  1
  2  3  1  0
  3  4  1  0
  4  5  1  0
  5  6  1  0
  6  7  1  0
  7  8  1  0
  8  9  1  0
  9 10  1  0
 10 11  1  0
 11 12  1  0
 12 13  2  0
 13 14  1  0
 14 15  2  0
 15 16  1  0
 16 17  1  0
 13 18  1  0
 18 19  2  0
 18 20  1  0
 20 21  1  0
 21 22  1  1
 21 23  1  0
 23 24  1  6
 23 25  1  0
 25 26  1  0
 26 27  1  0
 27 28  1  0
 28 29  2  0
 29 30  1  0
 30 31  2  0
 31 32  1  0
 32 33  2  0
 30 34  1  0
 34 35  1  0
 34 36  1  0
 34 37  1  0
 16 11  2  0
 22  2  1  0
 33 28  1  0
M  END
$$$$
