
     RDKit          3D

 37 39  0  0  0  0  0  0  0  0999 V2000
  -21.2192  -38.0198   -7.5044 C   0  0  0  0  0  0  0  0  0  0  0  0
  -20.3696  -39.1079   -6.8654 C   0  0  2  0  0  0  0  0  0  0  0  0
  -20.6359  -39.0297   -5.3790 C   0  0  0  0  0  0  0  0  0  0  0  0
  -21.8744  -39.7744   -4.9903 C   0  0  0  0  0  0  0  0  0  0  0  0
  -22.2722  -40.5603   -6.0358 O   0  0  0  0  0  0  0  0  0  0  0  0
  -23.6359  -40.7514   -6.1213 C   0  0  0  0  0  0  0  0  0  0  0  0
  -24.0205  -41.8608   -5.1700 C   0  0  0  0  0  0  0  0  0  0  0  0
  -23.0518  -42.9912   -5.2519 C   0  0  0  0  0  0  0  0  0  0  0  0
  -22.9571  -43.6022   -6.6479 C   0  0  0  0  0  0  0  0  0  0  0  0
  -21.7619  -44.4268   -6.6211 N   0  0  0  0  0  0  0  0  0  0  0  0
  -20.4039  -44.1388   -6.9542 C   0  0  0  0  0  0  0  0  0  0  0  0
  -19.6250  -43.0224   -6.7199 C   0  0  0  0  0  0  0  0  0  0  0  0
  -18.3271  -43.0299   -7.1933 C   0  0  0  0  0  0  0  0  0  0  0  0
  -17.8459  -44.1696   -7.8909 C   0  0  0  0  0  0  0  0  0  0  0  0
  -18.5892  -45.2866   -8.1357 C   0  0  0  0  0  0  0  0  0  0  0  0
  -19.8734  -45.2521   -7.6564 C   0  0  0  0  0  0  0  0  0  0  0  0
  -20.8213  -46.7288   -7.9504 Cl  0  0  0  0  0  0  0  0  0  0  0  0
  -17.2608  -42.0247   -7.1354 C   0  0  0  0  0  0  0  0  0  0  0  0
  -16.0419  -42.4515   -6.9129 O   0  0  0  0  0  0  0  0  0  0  0  0
  -17.2456  -40.6247   -7.2748 N   0  0  0  0  0  0  0  0  0  0  0  0
  -18.2605  -39.8775   -8.0374 C   0  0  1  0  0  0  0  0  0  0  0  0
  -18.8994  -38.8888   -7.1231 C   0  0  0  0  0  0  0  0  0  0  0  0
  -17.6000  -39.2862   -9.2419 C   0  0  2  0  0  0  0  0  0  0  0  0
  -18.2954  -39.7124  -10.3713 O   0  0  0  0  0  0  0  0  0  0  0  0
  -16.1667  -39.6832   -9.4216 C   0  0  0  0  0  0  0  0  0  0  0  0
  -15.2865  -39.0374   -8.4746 N   0  0  0  0  0  0  0  0  0  0  0  0
  -13.9043  -39.4013   -8.6378 C   0  0  0  0  0  0  0  0  0  0  0  0
  -13.3397  -38.9527   -9.9363 C   0  0  0  0  0  0  0  0  0  0  0  0
  -13.2846  -37.6031  -10.2082 C   0  0  0  0  0  0  0  0  0  0  0  0
  -12.7849  -37.0832  -11.3707 C   0  0  0  0  0  0  0  0  0  0  0  0
  -12.3093  -37.9548  -12.3251 C   0  0  0  0  0  0  0  0  0  0  0  0
  -12.3620  -39.3182  -12.0567 C   0  0  0  0  0  0  0  0  0  0  0  0
  -12.8703  -39.7833  -10.8815 N   0  0  0  0  0  0  0  0  0  0  0  0
  -12.7163  -35.6345  -11.6818 C   0  0  0  0  0  0  0  0  0  0  0  0
  -12.6726  -34.7945  -10.4226 C   0  0  0  0  0  0  0  0  0  0  0  0
  -13.9026  -35.1734  -12.4981 C   0  0  0  0  0  0  0  0  0  0  0  0
  -11.4685  -35.3058  -12.4903 C   0  0  0  0  0  0  0  0  0  0  0  0
  2  1  1  6
  2  3  1  0
  3  4  1  0
  4  5  1  0
  5  6  1  0
  6  7  1  0
  7  8  1  0
  8  9  1  0
  9 10  1  0
 10 11  1  0
 11 12  1  0
 12 13  2  0
 13 14  1  0
 14 15  2  0
 15 16  1  0
 16 17  1  0
 13 18  1  0
 18 19  2  0
 18 20  1  0
 20 21  1  0
 21 22  1  1
 21 23  1  0
 23 24  1  6
 23 25  1  0
 25 26  1  0
 26 27  1  0
 27 28  1  0
 28 29  2  0
 29 30  1  0
 30 31  2  0
 31 32  1  0
 32 33  2  0
 30 34  1  0
 34 35  1  0
 34 36  1  0
 34 37  1  0
 16 11  2  0
 22  2  1  0
 33 28  1  0
M  END
$$$$
