
     RDKit          3D

 37 39  0  0  0  0  0  0  0  0999 V2000
  -18.4802  -40.9860   -3.4696 C   0  0  0  0  0  0  0  0  0  0  0  0
  -18.6971  -41.2263   -4.9561 C   0  0  2  0  0  0  0  0  0  0  0  0
  -19.2812  -42.6158   -5.0759 C   0  0  0  0  0  0  0  0  0  0  0  0
  -20.7625  -42.6226   -4.8630 C   0  0  0  0  0  0  0  0  0  0  0  0
  -21.2273  -41.3376   -4.9013 O   0  0  0  0  0  0  0  0  0  0  0  0
  -22.3275  -41.1032   -4.1024 C   0  0  0  0  0  0  0  0  0  0  0  0
  -23.5620  -41.5485   -4.8516 C   0  0  0  0  0  0  0  0  0  0  0  0
  -23.5056  -41.1125   -6.2762 C   0  0  0  0  0  0  0  0  0  0  0  0
  -23.3976  -39.5982   -6.4380 C   0  0  0  0  0  0  0  0  0  0  0  0
  -23.0201  -39.3905   -7.8249 N   0  0  0  0  0  0  0  0  0  0  0  0
  -21.7432  -39.2729   -8.4523 C   0  0  0  0  0  0  0  0  0  0  0  0
  -20.5590  -39.9528   -8.2440 C   0  0  0  0  0  0  0  0  0  0  0  0
  -19.4646  -39.5916   -9.0059 C   0  0  0  0  0  0  0  0  0  0  0  0
  -19.5948  -38.5517   -9.9644 C   0  0  0  0  0  0  0  0  0  0  0  0
  -20.7499  -37.8640  -10.1945 C   0  0  0  0  0  0  0  0  0  0  0  0
  -21.8196  -38.2415   -9.4243 C   0  0  0  0  0  0  0  0  0  0  0  0
  -23.3295  -37.3619   -9.7589 Cl  0  0  0  0  0  0  0  0  0  0  0  0
  -18.0836  -40.0845   -9.0262 C   0  0  0  0  0  0  0  0  0  0  0  0
  -17.5049  -40.2074  -10.1955 O   0  0  0  0  0  0  0  0  0  0  0  0
  -17.1838  -40.4765   -8.0180 N   0  0  0  0  0  0  0  0  0  0  0  0
  -17.2595  -39.9849   -6.6315 C   0  0  1  0  0  0  0  0  0  0  0  0
  -17.4009  -41.1597   -5.7251 C   0  0  0  0  0  0  0  0  0  0  0  0
  -16.0606  -39.1296   -6.3715 C   0  0  2  0  0  0  0  0  0  0  0  0
  -16.5039  -37.8599   -6.0080 O   0  0  0  0  0  0  0  0  0  0  0  0
  -15.1478  -38.9660   -7.5480 C   0  0  0  0  0  0  0  0  0  0  0  0
  -15.5811  -39.7246   -8.6993 N   0  0  0  0  0  0  0  0  0  0  0  0
  -14.6418  -39.6982   -9.7885 C   0  0  0  0  0  0  0  0  0  0  0  0
  -15.0557  -38.7852  -10.8846 C   0  0  0  0  0  0  0  0  0  0  0  0
  -14.4002  -37.5825  -11.0331 C   0  0  0  0  0  0  0  0  0  0  0  0
  -14.7008  -36.6699  -12.0070 C   0  0  0  0  0  0  0  0  0  0  0  0
  -15.7150  -36.9667  -12.8901 C   0  0  0  0  0  0  0  0  0  0  0  0
  -16.3805  -38.1792  -12.7454 C   0  0  0  0  0  0  0  0  0  0  0  0
  -16.0408  -39.0529  -11.7571 N   0  0  0  0  0  0  0  0  0  0  0  0
  -14.0069  -35.3708  -12.1838 C   0  0  0  0  0  0  0  0  0  0  0  0
  -14.4851  -34.3416  -11.1812 C   0  0  0  0  0  0  0  0  0  0  0  0
  -14.2219  -34.7970  -13.5660 C   0  0  0  0  0  0  0  0  0  0  0  0
  -12.5034  -35.5225  -11.9967 C   0  0  0  0  0  0  0  0  0  0  0  0
  2  1  1  1
  2  3  1  0
  3  4  1  0
  4  5  1  0
  5  6  1  0
  6  7  1  0
  7  8  1  0
  8  9  1  0
  9 10  1  0
 10 11  1  0
 11 12  1  0
 12 13  2  0
 13 14  1  0
 14 15  2  0
 15 16  1  0
 16 17  1  0
 13 18  1  0
 18 19  2  0
 18 20  1  0
 20 21  1  0
 21 22  1  1
 21 23  1  0
 23 24  1  6
 23 25  1  0
 25 26  1  0
 26 27  1  0
 27 28  1  0
 28 29  2  0
 29 30  1  0
 30 31  2  0
 31 32  1  0
 32 33  2  0
 30 34  1  0
 34 35  1  0
 34 36  1  0
 34 37  1  0
 16 11  2  0
 22  2  1  0
 33 28  1  0
M  END
$$$$
