
     RDKit          3D

 37 39  0  0  0  0  0  0  0  0999 V2000
  -19.0458  -39.1388   -4.7585 C   0  0  0  0  0  0  0  0  0  0  0  0
  -18.8709  -39.9829   -6.0120 C   0  0  2  0  0  0  0  0  0  0  0  0
  -19.0294  -41.4216   -5.5747 C   0  0  0  0  0  0  0  0  0  0  0  0
  -20.4668  -41.8321   -5.5041 C   0  0  0  0  0  0  0  0  0  0  0  0
  -21.2343  -40.8876   -6.1267 O   0  0  0  0  0  0  0  0  0  0  0  0
  -22.5010  -40.7416   -5.5998 C   0  0  0  0  0  0  0  0  0  0  0  0
  -23.3864  -41.8162   -6.1871 C   0  0  0  0  0  0  0  0  0  0  0  0
  -23.1455  -41.9623   -7.6512 C   0  0  0  0  0  0  0  0  0  0  0  0
  -23.4080  -40.6787   -8.4350 C   0  0  0  0  0  0  0  0  0  0  0  0
  -22.8129  -40.9027   -9.7407 N   0  0  0  0  0  0  0  0  0  0  0  0
  -21.5089  -40.6210  -10.2489 C   0  0  0  0  0  0  0  0  0  0  0  0
  -20.2599  -40.7418   -9.6717 C   0  0  0  0  0  0  0  0  0  0  0  0
  -19.1632  -40.3604  -10.4204 C   0  0  0  0  0  0  0  0  0  0  0  0
  -19.3558  -39.8681  -11.7386 C   0  0  0  0  0  0  0  0  0  0  0  0
  -20.5749  -39.7394  -12.3363 C   0  0  0  0  0  0  0  0  0  0  0  0
  -21.6458  -40.1236  -11.5711 C   0  0  0  0  0  0  0  0  0  0  0  0
  -23.2272  -39.9850  -12.3746 Cl  0  0  0  0  0  0  0  0  0  0  0  0
  -17.7295  -40.3419  -10.1124 C   0  0  0  0  0  0  0  0  0  0  0  0
  -16.9041  -40.7031  -11.0641 O   0  0  0  0  0  0  0  0  0  0  0  0
  -16.9937  -40.0026   -8.9621 N   0  0  0  0  0  0  0  0  0  0  0  0
  -17.4889  -39.0751   -7.9304 C   0  0  1  0  0  0  0  0  0  0  0  0
  -17.5052  -39.7929   -6.6242 C   0  0  0  0  0  0  0  0  0  0  0  0
  -16.6409  -37.8436   -7.9617 C   0  0  2  0  0  0  0  0  0  0  0  0
  -17.1362  -36.9517   -7.0129 O   0  0  0  0  0  0  0  0  0  0  0  0
  -16.6265  -37.1331   -9.2804 C   0  0  0  0  0  0  0  0  0  0  0  0
  -15.6987  -37.7206  -10.2200 N   0  0  0  0  0  0  0  0  0  0  0  0
  -14.7247  -36.7881  -10.7213 C   0  0  0  0  0  0  0  0  0  0  0  0
  -13.4185  -37.4267  -11.0251 C   0  0  0  0  0  0  0  0  0  0  0  0
  -13.3978  -38.5651  -11.8008 C   0  0  0  0  0  0  0  0  0  0  0  0
  -12.2521  -39.2314  -12.1400 C   0  0  0  0  0  0  0  0  0  0  0  0
  -11.0501  -38.7393  -11.6821 C   0  0  0  0  0  0  0  0  0  0  0  0
  -11.0642  -37.5904  -10.8986 C   0  0  0  0  0  0  0  0  0  0  0  0
  -12.2346  -36.9654  -10.5901 N   0  0  0  0  0  0  0  0  0  0  0  0
  -12.2089  -40.4572  -12.9740 C   0  0  0  0  0  0  0  0  0  0  0  0
  -11.7015  -40.1648  -14.3704 C   0  0  0  0  0  0  0  0  0  0  0  0
  -13.5708  -41.1001  -13.1076 C   0  0  0  0  0  0  0  0  0  0  0  0
  -11.2843  -41.5025  -12.3646 C   0  0  0  0  0  0  0  0  0  0  0  0
  2  1  1  1
  2  3  1  0
  3  4  1  0
  4  5  1  0
  5  6  1  0
  6  7  1  0
  7  8  1  0
  8  9  1  0
  9 10  1  0
 10 11  1  0
 11 12  1  0
 12 13  2  0
 13 14  1  0
 14 15  2  0
 15 16  1  0
 16 17  1  0
 13 18  1  0
 18 19  2  0
 18 20  1  0
 20 21  1  0
 21 22  1  1
 21 23  1  0
 23 24  1  1
 23 25  1  0
 25 26  1  0
 26 27  1  0
 27 28  1  0
 28 29  2  0
 29 30  1  0
 30 31  2  0
 31 32  1  0
 32 33  2  0
 30 34  1  0
 34 35  1  0
 34 36  1  0
 34 37  1  0
 16 11  2  0
 22  2  1  0
 33 28  1  0
M  END
$$$$
