
     RDKit          3D

 37 39  0  0  0  0  0  0  0  0999 V2000
  -18.3389  -44.1912   -5.8068 C   0  0  0  0  0  0  0  0  0  0  0  0
  -18.7443  -43.3167   -6.9837 C   0  0  2  0  0  0  0  0  0  0  0  0
  -19.7582  -44.1158   -7.7709 C   0  0  0  0  0  0  0  0  0  0  0  0
  -21.1375  -43.9860   -7.2049 C   0  0  0  0  0  0  0  0  0  0  0  0
  -21.1582  -42.9571   -6.3050 O   0  0  0  0  0  0  0  0  0  0  0  0
  -22.0515  -43.1232   -5.2667 C   0  0  0  0  0  0  0  0  0  0  0  0
  -23.4211  -42.7018   -5.7464 C   0  0  0  0  0  0  0  0  0  0  0  0
  -23.3430  -41.4386   -6.5347 C   0  0  0  0  0  0  0  0  0  0  0  0
  -22.7597  -40.2707   -5.7430 C   0  0  0  0  0  0  0  0  0  0  0  0
  -22.4509  -39.2562   -6.7352 N   0  0  0  0  0  0  0  0  0  0  0  0
  -21.2620  -38.9884   -7.4787 C   0  0  0  0  0  0  0  0  0  0  0  0
  -20.3522  -39.8364   -8.0796 C   0  0  0  0  0  0  0  0  0  0  0  0
  -19.2666  -39.2699   -8.7194 C   0  0  0  0  0  0  0  0  0  0  0  0
  -19.1283  -37.8566   -8.7391 C   0  0  0  0  0  0  0  0  0  0  0  0
  -20.0100  -36.9937   -8.1575 C   0  0  0  0  0  0  0  0  0  0  0  0
  -21.0769  -37.5822   -7.5287 C   0  0  0  0  0  0  0  0  0  0  0  0
  -22.2386  -36.4453   -6.8051 Cl  0  0  0  0  0  0  0  0  0  0  0  0
  -18.1292  -39.8672   -9.4267 C   0  0  0  0  0  0  0  0  0  0  0  0
  -17.7210  -39.2731  -10.5211 O   0  0  0  0  0  0  0  0  0  0  0  0
  -17.3270  -40.9973   -9.1836 N   0  0  0  0  0  0  0  0  0  0  0  0
  -17.1233  -41.5701   -7.8418 C   0  0  1  0  0  0  0  0  0  0  0  0
  -17.5656  -42.9933   -7.8681 C   0  0  0  0  0  0  0  0  0  0  0  0
  -15.6935  -41.3621   -7.4557 C   0  0  2  0  0  0  0  0  0  0  0  0
  -15.6596  -40.9372   -6.1294 O   0  0  0  0  0  0  0  0  0  0  0  0
  -14.9726  -40.3351   -8.2741 C   0  0  0  0  0  0  0  0  0  0  0  0
  -15.2559  -40.4489   -9.6868 N   0  0  0  0  0  0  0  0  0  0  0  0
  -14.2226  -39.8998  -10.5236 C   0  0  0  0  0  0  0  0  0  0  0  0
  -14.2235  -38.4146  -10.5411 C   0  0  0  0  0  0  0  0  0  0  0  0
  -15.0830  -37.7589  -11.3952 C   0  0  0  0  0  0  0  0  0  0  0  0
  -15.1649  -36.3966  -11.4909 C   0  0  0  0  0  0  0  0  0  0  0  0
  -14.3436  -35.6348  -10.6898 C   0  0  0  0  0  0  0  0  0  0  0  0
  -13.4738  -36.2907   -9.8254 C   0  0  0  0  0  0  0  0  0  0  0  0
  -13.4324  -37.6511   -9.7698 N   0  0  0  0  0  0  0  0  0  0  0  0
  -16.0833  -35.6723  -12.4030 C   0  0  0  0  0  0  0  0  0  0  0  0
  -16.0067  -34.1739  -12.1981 C   0  0  0  0  0  0  0  0  0  0  0  0
  -17.5235  -36.0879  -12.2046 C   0  0  0  0  0  0  0  0  0  0  0  0
  -15.7398  -35.9494  -13.8604 C   0  0  0  0  0  0  0  0  0  0  0  0
  2  1  1  1
  2  3  1  0
  3  4  1  0
  4  5  1  0
  5  6  1  0
  6  7  1  0
  7  8  1  0
  8  9  1  0
  9 10  1  0
 10 11  1  0
 11 12  1  0
 12 13  2  0
 13 14  1  0
 14 15  2  0
 15 16  1  0
 16 17  1  0
 13 18  1  0
 18 19  2  0
 18 20  1  0
 20 21  1  0
 21 22  1  6
 21 23  1  0
 23 24  1  1
 23 25  1  0
 25 26  1  0
 26 27  1  0
 27 28  1  0
 28 29  2  0
 29 30  1  0
 30 31  2  0
 31 32  1  0
 32 33  2  0
 30 34  1  0
 34 35  1  0
 34 36  1  0
 34 37  1  0
 16 11  2  0
 22  2  1  0
 33 28  1  0
M  END
$$$$
