
     RDKit          3D

 41 45  0  0  0  0  0  0  0  0999 V2000
  -16.0305  -42.8301  -10.9557 C   0  0  0  0  0  0  0  0  0  0  0  0
  -14.9921  -42.1777  -11.8402 C   0  0  0  0  0  0  0  0  0  0  0  0
  -15.5732  -42.0795  -13.2510 C   0  0  0  0  0  0  0  0  0  0  0  0
  -14.5976  -40.8489  -11.3306 C   0  0  0  0  0  0  0  0  0  0  0  0
  -14.2413  -40.6018  -10.0470 C   0  0  0  0  0  0  0  0  0  0  0  0
  -13.8717  -39.3602   -9.5538 C   0  0  0  0  0  0  0  0  0  0  0  0
  -13.4886  -39.0962   -8.1669 C   0  0  0  0  0  0  0  0  0  0  0  0
  -13.9141  -37.8547   -7.6183 N   0  0  0  0  0  0  0  0  0  0  0  0
  -15.3257  -37.7123   -7.3952 C   0  0  0  0  0  0  0  0  0  0  0  0
  -15.8794  -38.7404   -6.4510 C   0  0  1  0  0  0  0  0  0  0  0  0
  -16.4463  -38.1149   -5.3314 O   0  0  0  0  0  0  0  0  0  0  0  0
  -17.0821  -39.4139   -7.1538 C   0  0  2  0  0  0  0  0  0  0  0  0
  -17.7203  -40.3867   -6.2800 C   0  0  0  0  0  0  0  0  0  0  0  0
  -18.9722  -40.0875   -5.5226 C   0  0  0  0  0  0  0  0  0  0  0  0
  -20.1284  -39.4696   -5.9246 C   0  0  0  0  0  0  0  0  0  0  0  0
  -21.1828  -39.3923   -5.0414 C   0  0  0  0  0  0  0  0  0  0  0  0
  -22.5412  -38.8088   -5.2162 C   0  0  0  0  0  0  0  0  0  0  0  0
  -23.4301  -39.4468   -6.2470 C   0  0  0  0  0  0  0  0  0  0  0  0
  -22.9611  -40.7091   -6.8720 C   0  0  0  0  0  0  0  0  0  0  0  0
  -23.3017  -40.7734   -8.3615 C   0  0  0  0  0  0  0  0  0  0  0  0
  -22.3835  -41.4884   -9.1322 O   0  0  0  0  0  0  0  0  0  0  0  0
  -21.1612  -41.2592   -9.7314 C   0  0  0  0  0  0  0  0  0  0  0  0
  -19.9251  -41.0644   -9.1190 C   0  0  0  0  0  0  0  0  0  0  0  0
  -18.8062  -40.8344   -9.8712 C   0  0  0  0  0  0  0  0  0  0  0  0
  -18.9841  -40.8169  -11.2888 C   0  0  0  0  0  0  0  0  0  0  0  0
  -20.1626  -41.0058  -11.9328 C   0  0  0  0  0  0  0  0  0  0  0  0
  -21.2549  -41.2287  -11.1336 C   0  0  0  0  0  0  0  0  0  0  0  0
  -20.2605  -40.9698  -13.3947 C   0  0  0  0  0  0  0  0  0  0  0  0
  -19.6411  -41.7837  -14.2636 N   0  0  0  0  0  0  0  0  0  0  0  0
  -19.9853  -41.4313  -15.5191 C   0  0  0  0  0  0  0  0  0  0  0  0
  -20.8507  -40.3573  -15.3660 C   0  0  0  0  0  0  0  0  0  0  0  0
  -20.9831  -40.1203  -14.0750 O   0  0  0  0  0  0  0  0  0  0  0  0
  -17.3944  -40.5523   -9.4715 C   0  0  0  0  0  0  0  0  0  0  0  0
  -16.5340  -41.2087  -10.2340 O   0  0  0  0  0  0  0  0  0  0  0  0
  -16.7689  -39.7772   -8.5125 N   0  0  0  0  0  0  0  0  0  0  0  0
  -21.0426  -39.9477   -3.7434 C   0  0  0  0  0  0  0  0  0  0  0  0
  -19.9118  -40.5701   -3.2971 C   0  0  0  0  0  0  0  0  0  0  0  0
  -18.8947  -40.6250   -4.2072 C   0  0  0  0  0  0  0  0  0  0  0  0
  -13.8801  -38.3232  -10.4653 C   0  0  0  0  0  0  0  0  0  0  0  0
  -14.2422  -38.5366  -11.8019 C   0  0  0  0  0  0  0  0  0  0  0  0
  -14.5958  -39.7858  -12.2245 C   0  0  0  0  0  0  0  0  0  0  0  0
  1  2  1  0
  2  3  1  0
  2  4  1  0
  4  5  2  0
  5  6  1  0
  6  7  1  0
  7  8  1  0
  8  9  1  0
  9 10  1  0
 10 11  1  1
 10 12  1  0
 12 13  1  1
 13 14  1  0
 14 15  1  0
 15 16  2  0
 16 17  1  0
 17 18  1  0
 18 19  1  0
 19 20  1  0
 20 21  1  0
 21 22  1  0
 22 23  1  0
 23 24  2  0
 24 25  1  0
 25 26  2  0
 26 27  1  0
 26 28  1  0
 28 29  2  0
 29 30  1  0
 30 31  2  0
 31 32  1  0
 24 33  1  0
 33 34  2  0
 33 35  1  0
 16 36  1  0
 36 37  2  0
 37 38  1  0
  6 39  2  0
 39 40  1  0
 40 41  2  0
 27 22  2  0
 32 28  1  0
 35 12  1  0
 38 14  2  0
 41  4  1  0
M  END
$$$$
