
     RDKit          3D

 41 45  0  0  0  0  0  0  0  0999 V2000
  -13.1730  -36.0176  -12.8913 C   0  0  0  0  0  0  0  0  0  0  0  0
  -14.2922  -36.5044  -11.9985 C   0  0  0  0  0  0  0  0  0  0  0  0
  -15.6176  -36.1265  -12.6605 C   0  0  0  0  0  0  0  0  0  0  0  0
  -14.2084  -37.9597  -11.7619 C   0  0  0  0  0  0  0  0  0  0  0  0
  -14.2869  -38.5369  -10.5387 C   0  0  0  0  0  0  0  0  0  0  0  0
  -14.2070  -39.9003  -10.3010 C   0  0  0  0  0  0  0  0  0  0  0  0
  -14.2909  -40.5206   -8.9788 C   0  0  0  0  0  0  0  0  0  0  0  0
  -14.3771  -39.6352   -7.8688 N   0  0  0  0  0  0  0  0  0  0  0  0
  -15.3253  -38.5630   -7.9870 C   0  0  0  0  0  0  0  0  0  0  0  0
  -16.4099  -38.6190   -6.9500 C   0  0  1  0  0  0  0  0  0  0  0  0
  -17.2281  -37.4840   -7.0425 O   0  0  0  0  0  0  0  0  0  0  0  0
  -17.3490  -39.7902   -7.3254 C   0  0  2  0  0  0  0  0  0  0  0  0
  -18.3857  -39.9714   -6.3207 C   0  0  0  0  0  0  0  0  0  0  0  0
  -19.7767  -39.4579   -6.4991 C   0  0  0  0  0  0  0  0  0  0  0  0
  -20.6124  -39.5132   -7.5848 C   0  0  0  0  0  0  0  0  0  0  0  0
  -21.8970  -39.0314   -7.4604 C   0  0  0  0  0  0  0  0  0  0  0  0
  -23.0067  -38.9882   -8.4519 C   0  0  0  0  0  0  0  0  0  0  0  0
  -23.5317  -40.3073   -8.9458 C   0  0  0  0  0  0  0  0  0  0  0  0
  -23.0376  -41.5373   -8.2771 C   0  0  0  0  0  0  0  0  0  0  0  0
  -22.8137  -42.6796   -9.2689 C   0  0  0  0  0  0  0  0  0  0  0  0
  -21.7801  -43.5506   -8.9208 O   0  0  0  0  0  0  0  0  0  0  0  0
  -20.4045  -43.5917   -9.0282 C   0  0  0  0  0  0  0  0  0  0  0  0
  -19.4649  -42.8106   -8.3589 C   0  0  0  0  0  0  0  0  0  0  0  0
  -18.1283  -42.9760   -8.5972 C   0  0  0  0  0  0  0  0  0  0  0  0
  -17.7700  -43.9824   -9.5459 C   0  0  0  0  0  0  0  0  0  0  0  0
  -18.6442  -44.7713  -10.2189 C   0  0  0  0  0  0  0  0  0  0  0  0
  -19.9726  -44.5636   -9.9474 C   0  0  0  0  0  0  0  0  0  0  0  0
  -18.1937  -45.7816  -11.1802 C   0  0  0  0  0  0  0  0  0  0  0  0
  -17.0907  -46.5412  -11.0928 N   0  0  0  0  0  0  0  0  0  0  0  0
  -17.0247  -47.3473  -12.1721 C   0  0  0  0  0  0  0  0  0  0  0  0
  -18.1506  -47.0368  -12.9216 C   0  0  0  0  0  0  0  0  0  0  0  0
  -18.8179  -46.0938  -12.2846 O   0  0  0  0  0  0  0  0  0  0  0  0
  -16.9374  -42.2511   -8.0598 C   0  0  0  0  0  0  0  0  0  0  0  0
  -15.9522  -43.0859   -7.7680 O   0  0  0  0  0  0  0  0  0  0  0  0
  -16.6104  -40.9333   -7.7984 N   0  0  0  0  0  0  0  0  0  0  0  0
  -22.3172  -38.4890   -6.2186 C   0  0  0  0  0  0  0  0  0  0  0  0
  -21.5218  -38.4105   -5.1112 C   0  0  0  0  0  0  0  0  0  0  0  0
  -20.2587  -38.9020   -5.2811 C   0  0  0  0  0  0  0  0  0  0  0  0
  -14.0337  -40.6969  -11.4152 C   0  0  0  0  0  0  0  0  0  0  0  0
  -13.9479  -40.1394  -12.6978 C   0  0  0  0  0  0  0  0  0  0  0  0
  -14.0347  -38.7870  -12.8640 C   0  0  0  0  0  0  0  0  0  0  0  0
  1  2  1  0
  2  3  1  0
  2  4  1  0
  4  5  2  0
  5  6  1  0
  6  7  1  0
  7  8  1  0
  8  9  1  0
  9 10  1  0
 10 11  1  6
 10 12  1  0
 12 13  1  1
 13 14  1  0
 14 15  1  0
 15 16  2  0
 16 17  1  0
 17 18  1  0
 18 19  1  0
 19 20  1  0
 20 21  1  0
 21 22  1  0
 22 23  1  0
 23 24  2  0
 24 25  1  0
 25 26  2  0
 26 27  1  0
 26 28  1  0
 28 29  2  0
 29 30  1  0
 30 31  2  0
 31 32  1  0
 24 33  1  0
 33 34  2  0
 33 35  1  0
 16 36  1  0
 36 37  2  0
 37 38  1  0
  6 39  2  0
 39 40  1  0
 40 41  2  0
 27 22  2  0
 32 28  1  0
 35 12  1  0
 38 14  2  0
 41  4  1  0
M  END
$$$$
