
     RDKit          3D

 41 45  0  0  0  0  0  0  0  0999 V2000
  -17.0115  -35.9210  -11.0395 C   0  0  0  0  0  0  0  0  0  0  0  0
  -15.9115  -36.4467  -11.9341 C   0  0  0  0  0  0  0  0  0  0  0  0
  -14.7002  -35.5271  -11.7771 C   0  0  0  0  0  0  0  0  0  0  0  0
  -15.5664  -37.8457  -11.6108 C   0  0  0  0  0  0  0  0  0  0  0  0
  -14.7748  -38.2136  -10.5745 C   0  0  0  0  0  0  0  0  0  0  0  0
  -14.4400  -39.5216  -10.2606 C   0  0  0  0  0  0  0  0  0  0  0  0
  -13.5840  -39.9157   -9.1417 C   0  0  0  0  0  0  0  0  0  0  0  0
  -13.9504  -39.4202   -7.8596 N   0  0  0  0  0  0  0  0  0  0  0  0
  -15.2021  -38.7198   -7.7862 C   0  0  0  0  0  0  0  0  0  0  0  0
  -16.0874  -39.2106   -6.6770 C   0  0  1  0  0  0  0  0  0  0  0  0
  -16.5719  -38.1283   -5.9286 O   0  0  0  0  0  0  0  0  0  0  0  0
  -17.3547  -39.8134   -7.3289 C   0  0  2  0  0  0  0  0  0  0  0  0
  -17.9718  -40.8009   -6.4565 C   0  0  0  0  0  0  0  0  0  0  0  0
  -19.1629  -40.4930   -5.6098 C   0  0  0  0  0  0  0  0  0  0  0  0
  -20.3190  -39.8206   -5.9124 C   0  0  0  0  0  0  0  0  0  0  0  0
  -21.3133  -39.7462   -4.9617 C   0  0  0  0  0  0  0  0  0  0  0  0
  -22.6582  -39.1111   -5.0264 C   0  0  0  0  0  0  0  0  0  0  0  0
  -23.6314  -39.6748   -6.0237 C   0  0  0  0  0  0  0  0  0  0  0  0
  -23.2474  -40.9241   -6.7278 C   0  0  0  0  0  0  0  0  0  0  0  0
  -23.6817  -40.9136   -8.1941 C   0  0  0  0  0  0  0  0  0  0  0  0
  -22.8391  -41.6250   -9.0497 O   0  0  0  0  0  0  0  0  0  0  0  0
  -21.6488  -41.4111   -9.7154 C   0  0  0  0  0  0  0  0  0  0  0  0
  -20.3710  -41.2836   -9.1752 C   0  0  0  0  0  0  0  0  0  0  0  0
  -19.2934  -41.0589   -9.9869 C   0  0  0  0  0  0  0  0  0  0  0  0
  -19.5579  -40.9751  -11.3884 C   0  0  0  0  0  0  0  0  0  0  0  0
  -20.7801  -41.0972  -11.9636 C   0  0  0  0  0  0  0  0  0  0  0  0
  -21.8281  -41.3178  -11.1065 C   0  0  0  0  0  0  0  0  0  0  0  0
  -20.9670  -40.9958  -13.4137 C   0  0  0  0  0  0  0  0  0  0  0  0
  -22.0438  -40.5160  -14.0553 N   0  0  0  0  0  0  0  0  0  0  0  0
  -21.8332  -40.5907  -15.3854 C   0  0  0  0  0  0  0  0  0  0  0  0
  -20.5665  -41.1420  -15.5179 C   0  0  0  0  0  0  0  0  0  0  0  0
  -20.0900  -41.3662  -14.3084 O   0  0  0  0  0  0  0  0  0  0  0  0
  -17.8503  -40.8410   -9.6664 C   0  0  0  0  0  0  0  0  0  0  0  0
  -17.0628  -41.4923  -10.5078 O   0  0  0  0  0  0  0  0  0  0  0  0
  -17.1394  -40.1285   -8.7183 N   0  0  0  0  0  0  0  0  0  0  0  0
  -21.1129  -40.3608   -3.6988 C   0  0  0  0  0  0  0  0  0  0  0  0
  -19.9795  -41.0387   -3.3506 C   0  0  0  0  0  0  0  0  0  0  0  0
  -19.0234  -41.0883   -4.3248 C   0  0  0  0  0  0  0  0  0  0  0  0
  -14.9687  -40.4935  -11.0864 C   0  0  0  0  0  0  0  0  0  0  0  0
  -15.7918  -40.1550  -12.1686 C   0  0  0  0  0  0  0  0  0  0  0  0
  -16.0842  -38.8460  -12.4235 C   0  0  0  0  0  0  0  0  0  0  0  0
  1  2  1  0
  2  3  1  0
  2  4  1  0
  4  5  2  0
  5  6  1  0
  6  7  1  0
  7  8  1  0
  8  9  1  0
  9 10  1  0
 10 11  1  1
 10 12  1  0
 12 13  1  1
 13 14  1  0
 14 15  1  0
 15 16  2  0
 16 17  1  0
 17 18  1  0
 18 19  1  0
 19 20  1  0
 20 21  1  0
 21 22  1  0
 22 23  1  0
 23 24  2  0
 24 25  1  0
 25 26  2  0
 26 27  1  0
 26 28  1  0
 28 29  2  0
 29 30  1  0
 30 31  2  0
 31 32  1  0
 24 33  1  0
 33 34  2  0
 33 35  1  0
 16 36  1  0
 36 37  2  0
 37 38  1  0
  6 39  2  0
 39 40  1  0
 40 41  2  0
 27 22  2  0
 32 28  1  0
 35 12  1  0
 38 14  2  0
 41  4  1  0
M  END
$$$$
