
     RDKit          3D

 41 45  0  0  0  0  0  0  0  0999 V2000
  -20.5092  -34.8502   -8.5693 C   0  0  0  0  0  0  0  0  0  0  0  0
  -20.9915  -36.2700   -8.7647 C   0  0  0  0  0  0  0  0  0  0  0  0
  -22.0571  -36.2562   -9.8610 C   0  0  0  0  0  0  0  0  0  0  0  0
  -19.8816  -37.1813   -9.1091 C   0  0  0  0  0  0  0  0  0  0  0  0
  -18.5797  -36.8092   -9.1585 C   0  0  0  0  0  0  0  0  0  0  0  0
  -17.5281  -37.6521   -9.4829 C   0  0  0  0  0  0  0  0  0  0  0  0
  -16.1234  -37.2471   -9.5366 C   0  0  0  0  0  0  0  0  0  0  0  0
  -15.3490  -37.4925   -8.3689 N   0  0  0  0  0  0  0  0  0  0  0  0
  -15.4662  -38.8043   -7.7962 C   0  0  0  0  0  0  0  0  0  0  0  0
  -15.3331  -39.9037   -8.8105 C   0  0  1  0  0  0  0  0  0  0  0  0
  -14.2673  -40.7495   -8.4715 O   0  0  0  0  0  0  0  0  0  0  0  0
  -16.5837  -40.8058   -8.6818 C   0  0  2  0  0  0  0  0  0  0  0  0
  -16.8102  -41.5624   -9.9038 C   0  0  0  0  0  0  0  0  0  0  0  0
  -16.4098  -42.9939  -10.0489 C   0  0  0  0  0  0  0  0  0  0  0  0
  -16.5636  -44.0516   -9.1899 C   0  0  0  0  0  0  0  0  0  0  0  0
  -16.1769  -45.3069   -9.6049 C   0  0  0  0  0  0  0  0  0  0  0  0
  -16.2503  -46.6164   -8.9003 C   0  0  0  0  0  0  0  0  0  0  0  0
  -17.6209  -47.1326   -8.5616 C   0  0  0  0  0  0  0  0  0  0  0  0
  -18.7873  -46.3983   -9.1131 C   0  0  0  0  0  0  0  0  0  0  0  0
  -19.9411  -46.3188   -8.1126 C   0  0  0  0  0  0  0  0  0  0  0  0
  -20.7194  -45.1652   -8.2211 O   0  0  0  0  0  0  0  0  0  0  0  0
  -20.6596  -43.8535   -7.7952 C   0  0  0  0  0  0  0  0  0  0  0  0
  -19.7880  -42.8509   -8.2149 C   0  0  0  0  0  0  0  0  0  0  0  0
  -19.8593  -41.5973   -7.6726 C   0  0  0  0  0  0  0  0  0  0  0  0
  -20.8660  -41.3886   -6.6805 C   0  0  0  0  0  0  0  0  0  0  0  0
  -21.7404  -42.3280   -6.2420 C   0  0  0  0  0  0  0  0  0  0  0  0
  -21.6253  -43.5694   -6.8141 C   0  0  0  0  0  0  0  0  0  0  0  0
  -22.7445  -42.0325   -5.2162 C   0  0  0  0  0  0  0  0  0  0  0  0
  -23.9837  -42.5409   -5.1319 N   0  0  0  0  0  0  0  0  0  0  0  0
  -24.5991  -42.0236   -4.0491 C   0  0  0  0  0  0  0  0  0  0  0  0
  -23.6644  -41.1719   -3.4775 C   0  0  0  0  0  0  0  0  0  0  0  0
  -22.5705  -41.2129   -4.2137 O   0  0  0  0  0  0  0  0  0  0  0  0
  -19.0290  -40.3771   -7.9060 C   0  0  0  0  0  0  0  0  0  0  0  0
  -19.7767  -39.2866   -7.9706 O   0  0  0  0  0  0  0  0  0  0  0  0
  -17.6823  -40.1068   -8.0650 N   0  0  0  0  0  0  0  0  0  0  0  0
  -15.6277  -45.4699  -10.9028 C   0  0  0  0  0  0  0  0  0  0  0  0
  -15.4530  -44.4481  -11.7920 C   0  0  0  0  0  0  0  0  0  0  0  0
  -15.8526  -43.2233  -11.3380 C   0  0  0  0  0  0  0  0  0  0  0  0
  -17.8699  -38.9581   -9.7718 C   0  0  0  0  0  0  0  0  0  0  0  0
  -19.2044  -39.3832   -9.7319 C   0  0  0  0  0  0  0  0  0  0  0  0
  -20.1944  -38.5020   -9.4041 C   0  0  0  0  0  0  0  0  0  0  0  0
  1  2  1  0
  2  3  1  0
  2  4  1  0
  4  5  2  0
  5  6  1  0
  6  7  1  0
  7  8  1  0
  8  9  1  0
  9 10  1  0
 10 11  1  1
 10 12  1  0
 12 13  1  6
 13 14  1  0
 14 15  1  0
 15 16  2  0
 16 17  1  0
 17 18  1  0
 18 19  1  0
 19 20  1  0
 20 21  1  0
 21 22  1  0
 22 23  1  0
 23 24  2  0
 24 25  1  0
 25 26  2  0
 26 27  1  0
 26 28  1  0
 28 29  2  0
 29 30  1  0
 30 31  2  0
 31 32  1  0
 24 33  1  0
 33 34  2  0
 33 35  1  0
 16 36  1  0
 36 37  2  0
 37 38  1  0
  6 39  2  0
 39 40  1  0
 40 41  2  0
 27 22  2  0
 32 28  1  0
 35 12  1  0
 38 14  2  0
 41  4  1  0
M  END
$$$$
