
     RDKit          3D

 41 45  0  0  0  0  0  0  0  0999 V2000
  -13.3846  -40.7801  -13.0758 C   0  0  0  0  0  0  0  0  0  0  0  0
  -12.5841  -39.5622  -13.4788 C   0  0  0  0  0  0  0  0  0  0  0  0
  -12.9626  -39.2077  -14.9171 C   0  0  0  0  0  0  0  0  0  0  0  0
  -12.8232  -38.4252  -12.5672 C   0  0  0  0  0  0  0  0  0  0  0  0
  -13.3310  -38.5468  -11.3170 C   0  0  0  0  0  0  0  0  0  0  0  0
  -13.5634  -37.4893  -10.4515 C   0  0  0  0  0  0  0  0  0  0  0  0
  -14.1130  -37.6236   -9.1024 C   0  0  0  0  0  0  0  0  0  0  0  0
  -14.7925  -38.8395   -8.8141 N   0  0  0  0  0  0  0  0  0  0  0  0
  -15.7452  -39.2796   -9.7946 C   0  0  0  0  0  0  0  0  0  0  0  0
  -17.0353  -38.5126   -9.7480 C   0  0  1  0  0  0  0  0  0  0  0  0
  -17.7886  -38.7603  -10.9045 O   0  0  0  0  0  0  0  0  0  0  0  0
  -17.8903  -39.1140   -8.6072 C   0  0  2  0  0  0  0  0  0  0  0  0
  -18.7566  -38.1056   -8.0160 C   0  0  0  0  0  0  0  0  0  0  0  0
  -20.2045  -37.9866   -8.3619 C   0  0  0  0  0  0  0  0  0  0  0  0
  -21.1697  -38.9519   -8.4923 C   0  0  0  0  0  0  0  0  0  0  0  0
  -22.4684  -38.5646   -8.7395 C   0  0  0  0  0  0  0  0  0  0  0  0
  -23.7009  -39.3840   -8.8999 C   0  0  0  0  0  0  0  0  0  0  0  0
  -24.1488  -40.1828   -7.7079 C   0  0  0  0  0  0  0  0  0  0  0  0
  -23.4438  -39.9519   -6.4219 C   0  0  0  0  0  0  0  0  0  0  0  0
  -23.2396  -41.2490   -5.6381 C   0  0  0  0  0  0  0  0  0  0  0  0
  -22.0837  -41.2739   -4.8560 O   0  0  0  0  0  0  0  0  0  0  0  0
  -20.7387  -41.5266   -5.0360 C   0  0  0  0  0  0  0  0  0  0  0  0
  -19.8029  -40.7583   -5.7250 C   0  0  0  0  0  0  0  0  0  0  0  0
  -18.5011  -41.1677   -5.8173 C   0  0  0  0  0  0  0  0  0  0  0  0
  -18.1727  -42.3981   -5.1694 C   0  0  0  0  0  0  0  0  0  0  0  0
  -19.0438  -43.1788   -4.4831 C   0  0  0  0  0  0  0  0  0  0  0  0
  -20.3374  -42.7264   -4.4231 C   0  0  0  0  0  0  0  0  0  0  0  0
  -18.6259  -44.4316   -3.8477 C   0  0  0  0  0  0  0  0  0  0  0  0
  -17.8164  -44.5650   -2.7856 N   0  0  0  0  0  0  0  0  0  0  0  0
  -17.6728  -45.8760   -2.5034 C   0  0  0  0  0  0  0  0  0  0  0  0
  -18.4417  -46.5340   -3.4531 C   0  0  0  0  0  0  0  0  0  0  0  0
  -18.9920  -45.6246   -4.2344 O   0  0  0  0  0  0  0  0  0  0  0  0
  -17.3297  -40.5665   -6.5237 C   0  0  0  0  0  0  0  0  0  0  0  0
  -16.2330  -40.6296   -5.7849 O   0  0  0  0  0  0  0  0  0  0  0  0
  -17.1085  -39.9695   -7.7511 N   0  0  0  0  0  0  0  0  0  0  0  0
  -22.7699  -37.1832   -8.8568 C   0  0  0  0  0  0  0  0  0  0  0  0
  -21.8439  -36.1865   -8.7370 C   0  0  0  0  0  0  0  0  0  0  0  0
  -20.5716  -36.6177   -8.4900 C   0  0  0  0  0  0  0  0  0  0  0  0
  -13.2435  -36.2354  -10.9328 C   0  0  0  0  0  0  0  0  0  0  0  0
  -12.7161  -36.0667  -12.2199 C   0  0  0  0  0  0  0  0  0  0  0  0
  -12.5103  -37.1512  -13.0234 C   0  0  0  0  0  0  0  0  0  0  0  0
  1  2  1  0
  2  3  1  0
  2  4  1  0
  4  5  2  0
  5  6  1  0
  6  7  1  0
  7  8  1  0
  8  9  1  0
  9 10  1  0
 10 11  1  6
 10 12  1  0
 12 13  1  1
 13 14  1  0
 14 15  1  0
 15 16  2  0
 16 17  1  0
 17 18  1  0
 18 19  1  0
 19 20  1  0
 20 21  1  0
 21 22  1  0
 22 23  1  0
 23 24  2  0
 24 25  1  0
 25 26  2  0
 26 27  1  0
 26 28  1  0
 28 29  2  0
 29 30  1  0
 30 31  2  0
 31 32  1  0
 24 33  1  0
 33 34  2  0
 33 35  1  0
 16 36  1  0
 36 37  2  0
 37 38  1  0
  6 39  2  0
 39 40  1  0
 40 41  2  0
 27 22  2  0
 32 28  1  0
 35 12  1  0
 38 14  2  0
 41  4  1  0
M  END
$$$$
