
     RDKit          3D

 41 45  0  0  0  0  0  0  0  0999 V2000
  -12.3946  -35.0981  -12.4387 C   0  0  0  0  0  0  0  0  0  0  0  0
  -13.6410  -35.5425  -11.7069 C   0  0  0  0  0  0  0  0  0  0  0  0
  -14.8186  -35.4286  -12.6754 C   0  0  0  0  0  0  0  0  0  0  0  0
  -13.5076  -36.9182  -11.1866 C   0  0  0  0  0  0  0  0  0  0  0  0
  -13.8657  -37.2960   -9.9357 C   0  0  0  0  0  0  0  0  0  0  0  0
  -13.7438  -38.5820   -9.4327 C   0  0  0  0  0  0  0  0  0  0  0  0
  -14.1302  -38.9868   -8.0811 C   0  0  0  0  0  0  0  0  0  0  0  0
  -15.2714  -39.8292   -7.9748 N   0  0  0  0  0  0  0  0  0  0  0  0
  -16.0362  -40.0129   -9.1765 C   0  0  0  0  0  0  0  0  0  0  0  0
  -17.0675  -38.9421   -9.3877 C   0  0  1  0  0  0  0  0  0  0  0  0
  -17.6669  -39.0881  -10.6469 O   0  0  0  0  0  0  0  0  0  0  0  0
  -18.2204  -39.2068   -8.3902 C   0  0  2  0  0  0  0  0  0  0  0  0
  -19.1978  -38.1296   -8.4234 C   0  0  0  0  0  0  0  0  0  0  0  0
  -20.4876  -38.2368   -9.1687 C   0  0  0  0  0  0  0  0  0  0  0  0
  -21.3960  -39.2620   -9.2306 C   0  0  0  0  0  0  0  0  0  0  0  0
  -22.5649  -39.0731   -9.9347 C   0  0  0  0  0  0  0  0  0  0  0  0
  -23.7187  -39.9903  -10.1445 C   0  0  0  0  0  0  0  0  0  0  0  0
  -24.4992  -40.3945   -8.9250 C   0  0  0  0  0  0  0  0  0  0  0  0
  -24.1797  -39.7102   -7.6468 C   0  0  0  0  0  0  0  0  0  0  0  0
  -24.2297  -40.6672   -6.4551 C   0  0  0  0  0  0  0  0  0  0  0  0
  -23.3410  -40.3527   -5.4257 O   0  0  0  0  0  0  0  0  0  0  0  0
  -22.0048  -40.5485   -5.1397 C   0  0  0  0  0  0  0  0  0  0  0  0
  -20.8981  -39.9749   -5.7618 C   0  0  0  0  0  0  0  0  0  0  0  0
  -19.6312  -40.2937   -5.3566 C   0  0  0  0  0  0  0  0  0  0  0  0
  -19.5226  -41.2222   -4.2761 C   0  0  0  0  0  0  0  0  0  0  0  0
  -20.5667  -41.8035   -3.6348 C   0  0  0  0  0  0  0  0  0  0  0  0
  -21.8158  -41.4539   -4.0811 C   0  0  0  0  0  0  0  0  0  0  0  0
  -20.3690  -42.7504   -2.5338 C   0  0  0  0  0  0  0  0  0  0  0  0
  -19.6486  -43.8823   -2.5646 N   0  0  0  0  0  0  0  0  0  0  0  0
  -19.7112  -44.4770   -1.3558 C   0  0  0  0  0  0  0  0  0  0  0  0
  -20.5096  -43.6427   -0.5861 C   0  0  0  0  0  0  0  0  0  0  0  0
  -20.8779  -42.6228   -1.3374 O   0  0  0  0  0  0  0  0  0  0  0  0
  -18.2968  -39.8658   -5.8753 C   0  0  0  0  0  0  0  0  0  0  0  0
  -17.4535  -39.6058   -4.8886 O   0  0  0  0  0  0  0  0  0  0  0  0
  -17.7278  -39.6805   -7.1218 N   0  0  0  0  0  0  0  0  0  0  0  0
  -22.7940  -37.8295  -10.5779 C   0  0  0  0  0  0  0  0  0  0  0  0
  -21.9195  -36.7809  -10.5465 C   0  0  0  0  0  0  0  0  0  0  0  0
  -20.7767  -37.0133   -9.8354 C   0  0  0  0  0  0  0  0  0  0  0  0
  -13.2140  -39.5192  -10.2970 C   0  0  0  0  0  0  0  0  0  0  0  0
  -12.8313  -39.1693  -11.5986 C   0  0  0  0  0  0  0  0  0  0  0  0
  -12.9783  -37.8834  -12.0335 C   0  0  0  0  0  0  0  0  0  0  0  0
  1  2  1  0
  2  3  1  0
  2  4  1  0
  4  5  2  0
  5  6  1  0
  6  7  1  0
  7  8  1  0
  8  9  1  0
  9 10  1  0
 10 11  1  6
 10 12  1  0
 12 13  1  1
 13 14  1  0
 14 15  1  0
 15 16  2  0
 16 17  1  0
 17 18  1  0
 18 19  1  0
 19 20  1  0
 20 21  1  0
 21 22  1  0
 22 23  1  0
 23 24  2  0
 24 25  1  0
 25 26  2  0
 26 27  1  0
 26 28  1  0
 28 29  2  0
 29 30  1  0
 30 31  2  0
 31 32  1  0
 24 33  1  0
 33 34  2  0
 33 35  1  0
 16 36  1  0
 36 37  2  0
 37 38  1  0
  6 39  2  0
 39 40  1  0
 40 41  2  0
 27 22  2  0
 32 28  1  0
 35 12  1  0
 38 14  2  0
 41  4  1  0
M  END
$$$$
