
     RDKit          3D

 41 45  0  0  0  0  0  0  0  0999 V2000
  -18.3201  -44.3070  -10.1466 C   0  0  0  0  0  0  0  0  0  0  0  0
  -17.9660  -43.2260  -11.1429 C   0  0  0  0  0  0  0  0  0  0  0  0
  -19.1042  -42.2051  -11.1508 C   0  0  0  0  0  0  0  0  0  0  0  0
  -16.6755  -42.5856  -10.8184 C   0  0  0  0  0  0  0  0  0  0  0  0
  -16.2115  -42.4057   -9.5583 C   0  0  0  0  0  0  0  0  0  0  0  0
  -15.0043  -41.8041   -9.2383 C   0  0  0  0  0  0  0  0  0  0  0  0
  -14.5065  -41.6102   -7.8765 C   0  0  0  0  0  0  0  0  0  0  0  0
  -14.9520  -40.4406   -7.2005 N   0  0  0  0  0  0  0  0  0  0  0  0
  -15.1961  -39.2889   -8.0231 C   0  0  0  0  0  0  0  0  0  0  0  0
  -16.3655  -38.4699   -7.5576 C   0  0  1  0  0  0  0  0  0  0  0  0
  -16.7728  -37.5879   -8.5687 O   0  0  0  0  0  0  0  0  0  0  0  0
  -17.5667  -39.4310   -7.3916 C   0  0  2  0  0  0  0  0  0  0  0  0
  -18.6866  -38.7615   -6.7477 C   0  0  0  0  0  0  0  0  0  0  0  0
  -19.8562  -38.2349   -7.5127 C   0  0  0  0  0  0  0  0  0  0  0  0
  -20.5866  -38.8045   -8.5238 C   0  0  0  0  0  0  0  0  0  0  0  0
  -21.6869  -38.1327   -9.0093 C   0  0  0  0  0  0  0  0  0  0  0  0
  -22.6585  -38.5201  -10.0687 C   0  0  0  0  0  0  0  0  0  0  0  0
  -23.4969  -39.7410   -9.8116 C   0  0  0  0  0  0  0  0  0  0  0  0
  -23.4260  -40.3510   -8.4600 C   0  0  0  0  0  0  0  0  0  0  0  0
  -23.4600  -41.8788   -8.5170 C   0  0  0  0  0  0  0  0  0  0  0  0
  -22.7467  -42.5097   -7.4965 O   0  0  0  0  0  0  0  0  0  0  0  0
  -21.4355  -42.8507   -7.2320 C   0  0  0  0  0  0  0  0  0  0  0  0
  -20.3674  -42.0045   -6.9424 C   0  0  0  0  0  0  0  0  0  0  0  0
  -19.1186  -42.5150   -6.7171 C   0  0  0  0  0  0  0  0  0  0  0  0
  -18.9890  -43.9361   -6.7878 C   0  0  0  0  0  0  0  0  0  0  0  0
  -19.9965  -44.8020   -7.0605 C   0  0  0  0  0  0  0  0  0  0  0  0
  -21.2280  -44.2401   -7.2826 C   0  0  0  0  0  0  0  0  0  0  0  0
  -19.7788  -46.2503   -7.1170 C   0  0  0  0  0  0  0  0  0  0  0  0
  -20.1597  -47.0843   -8.0971 N   0  0  0  0  0  0  0  0  0  0  0  0
  -19.7770  -48.3384   -7.7815 C   0  0  0  0  0  0  0  0  0  0  0  0
  -19.1401  -48.2212   -6.5541 C   0  0  0  0  0  0  0  0  0  0  0  0
  -19.1673  -46.9509   -6.1994 O   0  0  0  0  0  0  0  0  0  0  0  0
  -17.8160  -41.8381   -6.4383 C   0  0  0  0  0  0  0  0  0  0  0  0
  -17.1344  -42.4678   -5.4942 O   0  0  0  0  0  0  0  0  0  0  0  0
  -17.1492  -40.7278   -6.9226 N   0  0  0  0  0  0  0  0  0  0  0  0
  -22.0303  -36.8725   -8.4553 C   0  0  0  0  0  0  0  0  0  0  0  0
  -21.3335  -36.2646   -7.4503 C   0  0  0  0  0  0  0  0  0  0  0  0
  -20.2530  -36.9683   -6.9996 C   0  0  0  0  0  0  0  0  0  0  0  0
  -14.2467  -41.3679  -10.3070 C   0  0  0  0  0  0  0  0  0  0  0  0
  -14.6906  -41.5349  -11.6254 C   0  0  0  0  0  0  0  0  0  0  0  0
  -15.8907  -42.1369  -11.8730 C   0  0  0  0  0  0  0  0  0  0  0  0
  1  2  1  0
  2  3  1  0
  2  4  1  0
  4  5  2  0
  5  6  1  0
  6  7  1  0
  7  8  1  0
  8  9  1  0
  9 10  1  0
 10 11  1  6
 10 12  1  0
 12 13  1  1
 13 14  1  0
 14 15  1  0
 15 16  2  0
 16 17  1  0
 17 18  1  0
 18 19  1  0
 19 20  1  0
 20 21  1  0
 21 22  1  0
 22 23  1  0
 23 24  2  0
 24 25  1  0
 25 26  2  0
 26 27  1  0
 26 28  1  0
 28 29  2  0
 29 30  1  0
 30 31  2  0
 31 32  1  0
 24 33  1  0
 33 34  2  0
 33 35  1  0
 16 36  1  0
 36 37  2  0
 37 38  1  0
  6 39  2  0
 39 40  1  0
 40 41  2  0
 27 22  2  0
 32 28  1  0
 35 12  1  0
 38 14  2  0
 41  4  1  0
M  END
$$$$
