
     RDKit          3D

 41 45  0  0  0  0  0  0  0  0999 V2000
  -12.0752  -43.4473   -8.2209 C   0  0  0  0  0  0  0  0  0  0  0  0
  -12.5774  -43.1770   -9.6214 C   0  0  0  0  0  0  0  0  0  0  0  0
  -13.8924  -43.9358   -9.8022 C   0  0  0  0  0  0  0  0  0  0  0  0
  -12.7555  -41.7319   -9.8683 C   0  0  0  0  0  0  0  0  0  0  0  0
  -13.0996  -40.8342   -8.9137 C   0  0  0  0  0  0  0  0  0  0  0  0
  -13.2731  -39.4761   -9.1310 C   0  0  0  0  0  0  0  0  0  0  0  0
  -13.6459  -38.5093   -8.0984 C   0  0  0  0  0  0  0  0  0  0  0  0
  -15.0022  -38.5322   -7.6702 N   0  0  0  0  0  0  0  0  0  0  0  0
  -15.9694  -38.9319   -8.6538 C   0  0  0  0  0  0  0  0  0  0  0  0
  -17.1392  -37.9947   -8.7442 C   0  0  1  0  0  0  0  0  0  0  0  0
  -17.5885  -37.9068  -10.0696 O   0  0  0  0  0  0  0  0  0  0  0  0
  -18.3192  -38.6534   -7.9907 C   0  0  2  0  0  0  0  0  0  0  0  0
  -19.4247  -37.7206   -7.8334 C   0  0  0  0  0  0  0  0  0  0  0  0
  -20.6290  -37.7449   -8.7162 C   0  0  0  0  0  0  0  0  0  0  0  0
  -21.3872  -38.7991   -9.1569 C   0  0  0  0  0  0  0  0  0  0  0  0
  -22.5143  -38.5405   -9.9056 C   0  0  0  0  0  0  0  0  0  0  0  0
  -23.5179  -39.4752  -10.4847 C   0  0  0  0  0  0  0  0  0  0  0  0
  -24.3283  -40.2911   -9.5166 C   0  0  0  0  0  0  0  0  0  0  0  0
  -24.1992  -39.9716   -8.0725 C   0  0  0  0  0  0  0  0  0  0  0  0
  -24.2127  -41.2294   -7.2027 C   0  0  0  0  0  0  0  0  0  0  0  0
  -23.4534  -41.1310   -6.0356 O   0  0  0  0  0  0  0  0  0  0  0  0
  -22.1286  -41.2590   -5.6697 C   0  0  0  0  0  0  0  0  0  0  0  0
  -21.0632  -40.4184   -5.9849 C   0  0  0  0  0  0  0  0  0  0  0  0
  -19.7997  -40.7049   -5.5465 C   0  0  0  0  0  0  0  0  0  0  0  0
  -19.6517  -41.8870   -4.7578 C   0  0  0  0  0  0  0  0  0  0  0  0
  -20.6555  -42.7338   -4.4195 C   0  0  0  0  0  0  0  0  0  0  0  0
  -21.9025  -42.4044   -4.8867 C   0  0  0  0  0  0  0  0  0  0  0  0
  -20.4186  -43.9300   -3.6066 C   0  0  0  0  0  0  0  0  0  0  0  0
  -20.9629  -45.1441   -3.7824 N   0  0  0  0  0  0  0  0  0  0  0  0
  -20.4964  -45.9778   -2.8304 C   0  0  0  0  0  0  0  0  0  0  0  0
  -19.6360  -45.2033   -2.0652 C   0  0  0  0  0  0  0  0  0  0  0  0
  -19.6239  -43.9850   -2.5711 O   0  0  0  0  0  0  0  0  0  0  0  0
  -18.4980  -40.0088   -5.7780 C   0  0  0  0  0  0  0  0  0  0  0  0
  -17.7732  -39.9549   -4.6715 O   0  0  0  0  0  0  0  0  0  0  0  0
  -17.8658  -39.4157   -6.8552 N   0  0  0  0  0  0  0  0  0  0  0  0
  -22.8559  -37.1960  -10.2033 C   0  0  0  0  0  0  0  0  0  0  0  0
  -22.1320  -36.1145   -9.7891 C   0  0  0  0  0  0  0  0  0  0  0  0
  -21.0256  -36.4193   -9.0484 C   0  0  0  0  0  0  0  0  0  0  0  0
  -13.0735  -39.0430  -10.4266 C   0  0  0  0  0  0  0  0  0  0  0  0
  -12.7168  -39.9392  -11.4429 C   0  0  0  0  0  0  0  0  0  0  0  0
  -12.5608  -41.2662  -11.1623 C   0  0  0  0  0  0  0  0  0  0  0  0
  1  2  1  0
  2  3  1  0
  2  4  1  0
  4  5  2  0
  5  6  1  0
  6  7  1  0
  7  8  1  0
  8  9  1  0
  9 10  1  0
 10 11  1  6
 10 12  1  0
 12 13  1  1
 13 14  1  0
 14 15  1  0
 15 16  2  0
 16 17  1  0
 17 18  1  0
 18 19  1  0
 19 20  1  0
 20 21  1  0
 21 22  1  0
 22 23  1  0
 23 24  2  0
 24 25  1  0
 25 26  2  0
 26 27  1  0
 26 28  1  0
 28 29  2  0
 29 30  1  0
 30 31  2  0
 31 32  1  0
 24 33  1  0
 33 34  2  0
 33 35  1  0
 16 36  1  0
 36 37  2  0
 37 38  1  0
  6 39  2  0
 39 40  1  0
 40 41  2  0
 27 22  2  0
 32 28  1  0
 35 12  1  0
 38 14  2  0
 41  4  1  0
M  END
$$$$
