
     RDKit          3D

 41 45  0  0  0  0  0  0  0  0999 V2000
  -11.2945  -40.5588  -13.7280 C   0  0  0  0  0  0  0  0  0  0  0  0
  -12.7228  -40.1398  -13.4613 C   0  0  0  0  0  0  0  0  0  0  0  0
  -13.5456  -41.4061  -13.2220 C   0  0  0  0  0  0  0  0  0  0  0  0
  -12.8157  -39.2166  -12.3124 C   0  0  0  0  0  0  0  0  0  0  0  0
  -12.9982  -39.6144  -11.0302 C   0  0  0  0  0  0  0  0  0  0  0  0
  -13.0901  -38.7598   -9.9425 C   0  0  0  0  0  0  0  0  0  0  0  0
  -13.2885  -39.1922   -8.5592 C   0  0  0  0  0  0  0  0  0  0  0  0
  -14.5769  -39.6994   -8.2333 N   0  0  0  0  0  0  0  0  0  0  0  0
  -15.6865  -39.0909   -8.9123 C   0  0  0  0  0  0  0  0  0  0  0  0
  -16.7404  -38.5762   -7.9745 C   0  0  1  0  0  0  0  0  0  0  0  0
  -17.5540  -37.6389   -8.6271 O   0  0  0  0  0  0  0  0  0  0  0  0
  -17.6972  -39.7518   -7.6636 C   0  0  2  0  0  0  0  0  0  0  0  0
  -18.6848  -39.3717   -6.6650 C   0  0  0  0  0  0  0  0  0  0  0  0
  -20.0824  -38.9854   -7.0228 C   0  0  0  0  0  0  0  0  0  0  0  0
  -20.9690  -39.5635   -7.8944 C   0  0  0  0  0  0  0  0  0  0  0  0
  -22.2458  -39.0535   -7.9800 C   0  0  0  0  0  0  0  0  0  0  0  0
  -23.4017  -39.4921   -8.8095 C   0  0  0  0  0  0  0  0  0  0  0  0
  -23.9507  -40.8657   -8.5421 C   0  0  0  0  0  0  0  0  0  0  0  0
  -23.4262  -41.5974   -7.3617 C   0  0  0  0  0  0  0  0  0  0  0  0
  -23.2508  -43.0903   -7.6429 C   0  0  0  0  0  0  0  0  0  0  0  0
  -22.2024  -43.6894   -6.9428 O   0  0  0  0  0  0  0  0  0  0  0  0
  -20.8335  -43.8137   -7.0703 C   0  0  0  0  0  0  0  0  0  0  0  0
  -19.8624  -42.8246   -6.9302 C   0  0  0  0  0  0  0  0  0  0  0  0
  -18.5389  -43.1215   -7.1056 C   0  0  0  0  0  0  0  0  0  0  0  0
  -18.2272  -44.4789   -7.4244 C   0  0  0  0  0  0  0  0  0  0  0  0
  -19.1331  -45.4781   -7.5665 C   0  0  0  0  0  0  0  0  0  0  0  0
  -20.4469  -45.1282   -7.3844 C   0  0  0  0  0  0  0  0  0  0  0  0
  -18.7299  -46.8476   -7.8979 C   0  0  0  0  0  0  0  0  0  0  0  0
  -18.5634  -47.8676   -7.0418 N   0  0  0  0  0  0  0  0  0  0  0  0
  -18.1884  -48.9643   -7.7314 C   0  0  0  0  0  0  0  0  0  0  0  0
  -18.1370  -48.5551   -9.0565 C   0  0  0  0  0  0  0  0  0  0  0  0
  -18.4701  -47.2796   -9.1032 O   0  0  0  0  0  0  0  0  0  0  0  0
  -17.3230  -42.2541   -7.0606 C   0  0  0  0  0  0  0  0  0  0  0  0
  -16.3257  -42.8494   -6.4253 O   0  0  0  0  0  0  0  0  0  0  0  0
  -16.9829  -40.9948   -7.5193 N   0  0  0  0  0  0  0  0  0  0  0  0
  -22.6058  -37.9452   -7.1706 C   0  0  0  0  0  0  0  0  0  0  0  0
  -21.7582  -37.3351   -6.2905 C   0  0  0  0  0  0  0  0  0  0  0  0
  -20.5051  -37.8761   -6.2382 C   0  0  0  0  0  0  0  0  0  0  0  0
  -12.9848  -37.4124  -10.2245 C   0  0  0  0  0  0  0  0  0  0  0  0
  -12.7955  -36.9598  -11.5369 C   0  0  0  0  0  0  0  0  0  0  0  0
  -12.7126  -37.8547  -12.5648 C   0  0  0  0  0  0  0  0  0  0  0  0
  1  2  1  0
  2  3  1  0
  2  4  1  0
  4  5  2  0
  5  6  1  0
  6  7  1  0
  7  8  1  0
  8  9  1  0
  9 10  1  0
 10 11  1  6
 10 12  1  0
 12 13  1  1
 13 14  1  0
 14 15  1  0
 15 16  2  0
 16 17  1  0
 17 18  1  0
 18 19  1  0
 19 20  1  0
 20 21  1  0
 21 22  1  0
 22 23  1  0
 23 24  2  0
 24 25  1  0
 25 26  2  0
 26 27  1  0
 26 28  1  0
 28 29  2  0
 29 30  1  0
 30 31  2  0
 31 32  1  0
 24 33  1  0
 33 34  2  0
 33 35  1  0
 16 36  1  0
 36 37  2  0
 37 38  1  0
  6 39  2  0
 39 40  1  0
 40 41  2  0
 27 22  2  0
 32 28  1  0
 35 12  1  0
 38 14  2  0
 41  4  1  0
M  END
$$$$
