
     RDKit          3D

 41 45  0  0  0  0  0  0  0  0999 V2000
  -11.6502  -43.0428   -9.8722 C   0  0  0  0  0  0  0  0  0  0  0  0
  -13.1071  -43.2379   -9.5174 C   0  0  0  0  0  0  0  0  0  0  0  0
  -13.2645  -42.9712   -8.0202 C   0  0  0  0  0  0  0  0  0  0  0  0
  -13.9856  -42.3567  -10.3129 C   0  0  0  0  0  0  0  0  0  0  0  0
  -14.1002  -41.0208  -10.1182 C   0  0  0  0  0  0  0  0  0  0  0  0
  -14.9222  -40.1819  -10.8544 C   0  0  0  0  0  0  0  0  0  0  0  0
  -15.0447  -38.7399  -10.6411 C   0  0  0  0  0  0  0  0  0  0  0  0
  -16.3585  -38.1991  -10.7117 N   0  0  0  0  0  0  0  0  0  0  0  0
  -17.0698  -38.1009   -9.4679 C   0  0  0  0  0  0  0  0  0  0  0  0
  -16.3566  -38.7684   -8.3273 C   0  0  1  0  0  0  0  0  0  0  0  0
  -16.1200  -37.8465   -7.2976 O   0  0  0  0  0  0  0  0  0  0  0  0
  -17.3382  -39.7873   -7.7007 C   0  0  2  0  0  0  0  0  0  0  0  0
  -17.9916  -39.2293   -6.5265 C   0  0  0  0  0  0  0  0  0  0  0  0
  -19.3779  -38.6752   -6.5651 C   0  0  0  0  0  0  0  0  0  0  0  0
  -20.5170  -39.1693   -7.1469 C   0  0  0  0  0  0  0  0  0  0  0  0
  -21.7044  -38.4958   -6.9614 C   0  0  0  0  0  0  0  0  0  0  0  0
  -23.0749  -38.8135   -7.4485 C   0  0  0  0  0  0  0  0  0  0  0  0
  -23.6991  -40.0857   -6.9468 C   0  0  0  0  0  0  0  0  0  0  0  0
  -22.9868  -40.8239   -5.8737 C   0  0  0  0  0  0  0  0  0  0  0  0
  -23.0667  -42.3386   -6.0684 C   0  0  0  0  0  0  0  0  0  0  0  0
  -21.9554  -43.0396   -5.5971 O   0  0  0  0  0  0  0  0  0  0  0  0
  -20.6870  -43.3540   -6.0419 C   0  0  0  0  0  0  0  0  0  0  0  0
  -19.6010  -42.4998   -6.2209 C   0  0  0  0  0  0  0  0  0  0  0  0
  -18.4087  -42.9812   -6.6870 C   0  0  0  0  0  0  0  0  0  0  0  0
  -18.3508  -44.3821   -6.9619 C   0  0  0  0  0  0  0  0  0  0  0  0
  -19.3759  -45.2551   -6.7998 C   0  0  0  0  0  0  0  0  0  0  0  0
  -20.5508  -44.7223   -6.3337 C   0  0  0  0  0  0  0  0  0  0  0  0
  -19.2347  -46.6810   -7.1081 C   0  0  0  0  0  0  0  0  0  0  0  0
  -18.9985  -47.6739   -6.2365 N   0  0  0  0  0  0  0  0  0  0  0  0
  -18.9353  -48.8424   -6.9069 C   0  0  0  0  0  0  0  0  0  0  0  0
  -19.1475  -48.5055   -8.2364 C   0  0  0  0  0  0  0  0  0  0  0  0
  -19.3219  -47.1997   -8.3039 O   0  0  0  0  0  0  0  0  0  0  0  0
  -17.1259  -42.2852   -7.0075 C   0  0  0  0  0  0  0  0  0  0  0  0
  -16.0796  -42.9786   -6.5869 O   0  0  0  0  0  0  0  0  0  0  0  0
  -16.7639  -41.1071   -7.6343 N   0  0  0  0  0  0  0  0  0  0  0  0
  -21.7154  -37.3114   -6.1806 C   0  0  0  0  0  0  0  0  0  0  0  0
  -20.6080  -36.7798   -5.5837 C   0  0  0  0  0  0  0  0  0  0  0  0
  -19.4554  -37.4823   -5.7931 C   0  0  0  0  0  0  0  0  0  0  0  0
  -15.6642  -40.7868  -11.8493 C   0  0  0  0  0  0  0  0  0  0  0  0
  -15.5746  -42.1654  -12.0830 C   0  0  0  0  0  0  0  0  0  0  0  0
  -14.7442  -42.9366  -11.3216 C   0  0  0  0  0  0  0  0  0  0  0  0
  1  2  1  0
  2  3  1  0
  2  4  1  0
  4  5  2  0
  5  6  1  0
  6  7  1  0
  7  8  1  0
  8  9  1  0
  9 10  1  0
 10 11  1  1
 10 12  1  0
 12 13  1  1
 13 14  1  0
 14 15  1  0
 15 16  2  0
 16 17  1  0
 17 18  1  0
 18 19  1  0
 19 20  1  0
 20 21  1  0
 21 22  1  0
 22 23  1  0
 23 24  2  0
 24 25  1  0
 25 26  2  0
 26 27  1  0
 26 28  1  0
 28 29  2  0
 29 30  1  0
 30 31  2  0
 31 32  1  0
 24 33  1  0
 33 34  2  0
 33 35  1  0
 16 36  1  0
 36 37  2  0
 37 38  1  0
  6 39  2  0
 39 40  1  0
 40 41  2  0
 27 22  2  0
 32 28  1  0
 35 12  1  0
 38 14  2  0
 41  4  1  0
M  END
$$$$
