
     RDKit          3D

 41 45  0  0  0  0  0  0  0  0999 V2000
  -21.3250  -39.9289   -8.1314 C   0  0  0  0  0  0  0  0  0  0  0  0
  -21.2025  -38.4757   -8.5312 C   0  0  0  0  0  0  0  0  0  0  0  0
  -21.6216  -37.6233   -7.3331 C   0  0  0  0  0  0  0  0  0  0  0  0
  -19.8322  -38.1437   -8.9705 C   0  0  0  0  0  0  0  0  0  0  0  0
  -18.7762  -38.0108   -8.1323 C   0  0  0  0  0  0  0  0  0  0  0  0
  -17.4857  -37.6969   -8.5295 C   0  0  0  0  0  0  0  0  0  0  0  0
  -16.3476  -37.5528   -7.6218 C   0  0  0  0  0  0  0  0  0  0  0  0
  -15.1401  -38.1941   -8.0143 N   0  0  0  0  0  0  0  0  0  0  0  0
  -15.2140  -39.0177   -9.1886 C   0  0  0  0  0  0  0  0  0  0  0  0
  -14.8693  -40.4548   -8.9227 C   0  0  1  0  0  0  0  0  0  0  0  0
  -14.3261  -40.5932   -7.6375 O   0  0  0  0  0  0  0  0  0  0  0  0
  -16.1983  -41.2446   -8.8555 C   0  0  2  0  0  0  0  0  0  0  0  0
  -16.4408  -41.9660  -10.0956 C   0  0  0  0  0  0  0  0  0  0  0  0
  -16.1617  -43.4256  -10.2444 C   0  0  0  0  0  0  0  0  0  0  0  0
  -16.4420  -44.4743   -9.4066 C   0  0  0  0  0  0  0  0  0  0  0  0
  -16.1502  -45.7545   -9.8232 C   0  0  0  0  0  0  0  0  0  0  0  0
  -16.3663  -47.0595   -9.1399 C   0  0  0  0  0  0  0  0  0  0  0  0
  -17.7893  -47.4565   -8.8622 C   0  0  0  0  0  0  0  0  0  0  0  0
  -18.8638  -46.6169   -9.4490 C   0  0  0  0  0  0  0  0  0  0  0  0
  -20.0455  -46.4462   -8.4935 C   0  0  0  0  0  0  0  0  0  0  0  0
  -20.7149  -45.2275   -8.6167 O   0  0  0  0  0  0  0  0  0  0  0  0
  -20.5576  -43.9306   -8.1709 C   0  0  0  0  0  0  0  0  0  0  0  0
  -19.5855  -43.0044   -8.5424 C   0  0  0  0  0  0  0  0  0  0  0  0
  -19.5685  -41.7550   -7.9863 C   0  0  0  0  0  0  0  0  0  0  0  0
  -20.5922  -41.4685   -7.0317 C   0  0  0  0  0  0  0  0  0  0  0  0
  -21.5624  -42.3317   -6.6406 C   0  0  0  0  0  0  0  0  0  0  0  0
  -21.5335  -43.5726   -7.2246 C   0  0  0  0  0  0  0  0  0  0  0  0
  -22.5772  -41.9593   -5.6510 C   0  0  0  0  0  0  0  0  0  0  0  0
  -23.8771  -42.2928   -5.6658 N   0  0  0  0  0  0  0  0  0  0  0  0
  -24.4808  -41.7592   -4.5842 C   0  0  0  0  0  0  0  0  0  0  0  0
  -23.4748  -41.0827   -3.9087 C   0  0  0  0  0  0  0  0  0  0  0  0
  -22.3541  -41.2333   -4.5880 O   0  0  0  0  0  0  0  0  0  0  0  0
  -18.6259  -40.6103   -8.1703 C   0  0  0  0  0  0  0  0  0  0  0  0
  -19.2721  -39.4576   -8.2493 O   0  0  0  0  0  0  0  0  0  0  0  0
  -17.2554  -40.4579   -8.2728 N   0  0  0  0  0  0  0  0  0  0  0  0
  -15.5656  -45.9520  -11.1007 C   0  0  0  0  0  0  0  0  0  0  0  0
  -15.2666  -44.9406  -11.9684 C   0  0  0  0  0  0  0  0  0  0  0  0
  -15.5753  -43.6901  -11.5137 C   0  0  0  0  0  0  0  0  0  0  0  0
  -17.3009  -37.5122   -9.8852 C   0  0  0  0  0  0  0  0  0  0  0  0
  -18.3668  -37.6406  -10.7855 C   0  0  0  0  0  0  0  0  0  0  0  0
  -19.6151  -37.9526  -10.3291 C   0  0  0  0  0  0  0  0  0  0  0  0
  1  2  1  0
  2  3  1  0
  2  4  1  0
  4  5  2  0
  5  6  1  0
  6  7  1  0
  7  8  1  0
  8  9  1  0
  9 10  1  0
 10 11  1  1
 10 12  1  0
 12 13  1  6
 13 14  1  0
 14 15  1  0
 15 16  2  0
 16 17  1  0
 17 18  1  0
 18 19  1  0
 19 20  1  0
 20 21  1  0
 21 22  1  0
 22 23  1  0
 23 24  2  0
 24 25  1  0
 25 26  2  0
 26 27  1  0
 26 28  1  0
 28 29  2  0
 29 30  1  0
 30 31  2  0
 31 32  1  0
 24 33  1  0
 33 34  2  0
 33 35  1  0
 16 36  1  0
 36 37  2  0
 37 38  1  0
  6 39  2  0
 39 40  1  0
 40 41  2  0
 27 22  2  0
 32 28  1  0
 35 12  1  0
 38 14  2  0
 41  4  1  0
M  END
$$$$
