
     RDKit          3D

 41 45  0  0  0  0  0  0  0  0999 V2000
  -23.4098  -39.6662   -7.6318 C   0  0  0  0  0  0  0  0  0  0  0  0
  -22.5466  -38.5721   -7.0447 C   0  0  0  0  0  0  0  0  0  0  0  0
  -22.2464  -38.9411   -5.5917 C   0  0  0  0  0  0  0  0  0  0  0  0
  -21.3019  -38.3848   -7.8171 C   0  0  0  0  0  0  0  0  0  0  0  0
  -20.2107  -37.7291   -7.3534 C   0  0  0  0  0  0  0  0  0  0  0  0
  -19.0372  -37.5430   -8.0674 C   0  0  0  0  0  0  0  0  0  0  0  0
  -17.8610  -36.8335   -7.5645 C   0  0  0  0  0  0  0  0  0  0  0  0
  -16.6329  -37.0892   -8.2353 N   0  0  0  0  0  0  0  0  0  0  0  0
  -15.6656  -37.8646   -7.5102 C   0  0  0  0  0  0  0  0  0  0  0  0
  -15.1416  -39.0339   -8.2931 C   0  0  1  0  0  0  0  0  0  0  0  0
  -14.0217  -39.5833   -7.6527 O   0  0  0  0  0  0  0  0  0  0  0  0
  -16.2051  -40.1554   -8.2173 C   0  0  2  0  0  0  0  0  0  0  0  0
  -16.5810  -40.6097   -9.5474 C   0  0  0  0  0  0  0  0  0  0  0  0
  -16.0328  -41.8590  -10.1551 C   0  0  0  0  0  0  0  0  0  0  0  0
  -15.8594  -43.1079   -9.6162 C   0  0  0  0  0  0  0  0  0  0  0  0
  -15.4048  -44.1247  -10.4269 C   0  0  0  0  0  0  0  0  0  0  0  0
  -15.1525  -45.5591  -10.1183 C   0  0  0  0  0  0  0  0  0  0  0  0
  -16.3393  -46.3890   -9.7152 C   0  0  0  0  0  0  0  0  0  0  0  0
  -17.6831  -45.7695   -9.8346 C   0  0  0  0  0  0  0  0  0  0  0  0
  -18.6000  -46.1591   -8.6743 C   0  0  0  0  0  0  0  0  0  0  0  0
  -19.5306  -45.1804   -8.3216 O   0  0  0  0  0  0  0  0  0  0  0  0
  -19.5580  -44.0299   -7.5592 C   0  0  0  0  0  0  0  0  0  0  0  0
  -18.9364  -42.8103   -7.8184 C   0  0  0  0  0  0  0  0  0  0  0  0
  -19.0584  -41.7686   -6.9405 C   0  0  0  0  0  0  0  0  0  0  0  0
  -19.8519  -42.0060   -5.7764 C   0  0  0  0  0  0  0  0  0  0  0  0
  -20.4807  -43.1709   -5.4812 C   0  0  0  0  0  0  0  0  0  0  0  0
  -20.3242  -44.1854   -6.3910 C   0  0  0  0  0  0  0  0  0  0  0  0
  -21.2761  -43.3338   -4.2610 C   0  0  0  0  0  0  0  0  0  0  0  0
  -22.6024  -43.1705   -4.1364 N   0  0  0  0  0  0  0  0  0  0  0  0
  -22.9572  -43.4100   -2.8575 C   0  0  0  0  0  0  0  0  0  0  0  0
  -21.7721  -43.7297   -2.2099 C   0  0  0  0  0  0  0  0  0  0  0  0
  -20.7948  -43.6702   -3.0940 O   0  0  0  0  0  0  0  0  0  0  0  0
  -18.4665  -40.3967   -6.9554 C   0  0  0  0  0  0  0  0  0  0  0  0
  -19.3498  -39.4833   -6.5841 O   0  0  0  0  0  0  0  0  0  0  0  0
  -17.2321  -39.8499   -7.2541 N   0  0  0  0  0  0  0  0  0  0  0  0
  -15.1249  -43.8519  -11.7908 C   0  0  0  0  0  0  0  0  0  0  0  0
  -15.2798  -42.6257  -12.3718 C   0  0  0  0  0  0  0  0  0  0  0  0
  -15.7345  -41.6502  -11.5307 C   0  0  0  0  0  0  0  0  0  0  0  0
  -19.0154  -38.0772   -9.3403 C   0  0  0  0  0  0  0  0  0  0  0  0
  -20.1228  -38.7625   -9.8571 C   0  0  0  0  0  0  0  0  0  0  0  0
  -21.2498  -38.9119   -9.1011 C   0  0  0  0  0  0  0  0  0  0  0  0
  1  2  1  0
  2  3  1  0
  2  4  1  0
  4  5  2  0
  5  6  1  0
  6  7  1  0
  7  8  1  0
  8  9  1  0
  9 10  1  0
 10 11  1  1
 10 12  1  0
 12 13  1  6
 13 14  1  0
 14 15  1  0
 15 16  2  0
 16 17  1  0
 17 18  1  0
 18 19  1  0
 19 20  1  0
 20 21  1  0
 21 22  1  0
 22 23  1  0
 23 24  2  0
 24 25  1  0
 25 26  2  0
 26 27  1  0
 26 28  1  0
 28 29  2  0
 29 30  1  0
 30 31  2  0
 31 32  1  0
 24 33  1  0
 33 34  2  0
 33 35  1  0
 16 36  1  0
 36 37  2  0
 37 38  1  0
  6 39  2  0
 39 40  1  0
 40 41  2  0
 27 22  2  0
 32 28  1  0
 35 12  1  0
 38 14  2  0
 41  4  1  0
M  END
$$$$
