
     RDKit          3D

 41 45  0  0  0  0  0  0  0  0999 V2000
  -21.7766  -38.0630   -6.9584 C   0  0  0  0  0  0  0  0  0  0  0  0
  -20.9100  -36.8308   -7.0904 C   0  0  0  0  0  0  0  0  0  0  0  0
  -20.3446  -36.5053   -5.7077 C   0  0  0  0  0  0  0  0  0  0  0  0
  -19.8292  -37.0265   -8.0777 C   0  0  0  0  0  0  0  0  0  0  0  0
  -18.5518  -36.6117   -7.8990 C   0  0  0  0  0  0  0  0  0  0  0  0
  -17.5280  -36.7856   -8.8172 C   0  0  0  0  0  0  0  0  0  0  0  0
  -16.1500  -36.3355   -8.6220 C   0  0  0  0  0  0  0  0  0  0  0  0
  -15.1506  -37.3475   -8.6017 N   0  0  0  0  0  0  0  0  0  0  0  0
  -15.5151  -38.5840   -7.9684 C   0  0  0  0  0  0  0  0  0  0  0  0
  -15.2485  -39.7866   -8.8273 C   0  0  1  0  0  0  0  0  0  0  0  0
  -14.1147  -40.4703   -8.3654 O   0  0  0  0  0  0  0  0  0  0  0  0
  -16.4082  -40.7850   -8.5982 C   0  0  2  0  0  0  0  0  0  0  0  0
  -16.5612  -41.6783   -9.7364 C   0  0  0  0  0  0  0  0  0  0  0  0
  -16.0270  -43.0730   -9.7414 C   0  0  0  0  0  0  0  0  0  0  0  0
  -16.0806  -44.0490   -8.7798 C   0  0  0  0  0  0  0  0  0  0  0  0
  -15.5765  -45.2976   -9.0707 C   0  0  0  0  0  0  0  0  0  0  0  0
  -15.5262  -46.5309   -8.2383 C   0  0  0  0  0  0  0  0  0  0  0  0
  -16.8419  -47.1374   -7.8377 C   0  0  0  0  0  0  0  0  0  0  0  0
  -18.0723  -46.5753   -8.4495 C   0  0  0  0  0  0  0  0  0  0  0  0
  -19.2291  -46.5050   -7.4517 C   0  0  0  0  0  0  0  0  0  0  0  0
  -20.1130  -45.4466   -7.6680 O   0  0  0  0  0  0  0  0  0  0  0  0
  -20.1779  -44.0990   -7.3758 C   0  0  0  0  0  0  0  0  0  0  0  0
  -19.4048  -43.0659   -7.9011 C   0  0  0  0  0  0  0  0  0  0  0  0
  -19.5948  -41.7766   -7.4861 C   0  0  0  0  0  0  0  0  0  0  0  0
  -20.6175  -41.5653   -6.5110 C   0  0  0  0  0  0  0  0  0  0  0  0
  -21.3993  -42.5342   -5.9732 C   0  0  0  0  0  0  0  0  0  0  0  0
  -21.1668  -43.8103   -6.4194 C   0  0  0  0  0  0  0  0  0  0  0  0
  -22.4275  -42.2333   -4.9731 C   0  0  0  0  0  0  0  0  0  0  0  0
  -22.5543  -42.7862   -3.7568 N   0  0  0  0  0  0  0  0  0  0  0  0
  -23.6239  -42.2468   -3.1373 C   0  0  0  0  0  0  0  0  0  0  0  0
  -24.1411  -41.3328   -4.0445 C   0  0  0  0  0  0  0  0  0  0  0  0
  -23.3889  -41.3623   -5.1278 O   0  0  0  0  0  0  0  0  0  0  0  0
  -18.8836  -40.5132   -7.8475 C   0  0  0  0  0  0  0  0  0  0  0  0
  -19.7311  -39.5100   -8.0140 O   0  0  0  0  0  0  0  0  0  0  0  0
  -17.5684  -40.1344   -8.0446 N   0  0  0  0  0  0  0  0  0  0  0  0
  -15.0135  -45.5373  -10.3507 C   0  0  0  0  0  0  0  0  0  0  0  0
  -14.9358  -44.5979  -11.3390 C   0  0  0  0  0  0  0  0  0  0  0  0
  -15.4498  -43.3769  -11.0061 C   0  0  0  0  0  0  0  0  0  0  0  0
  -17.8722  -37.4315   -9.9879 C   0  0  0  0  0  0  0  0  0  0  0  0
  -19.1819  -37.8762  -10.2116 C   0  0  0  0  0  0  0  0  0  0  0  0
  -20.1450  -37.6740   -9.2652 C   0  0  0  0  0  0  0  0  0  0  0  0
  1  2  1  0
  2  3  1  0
  2  4  1  0
  4  5  2  0
  5  6  1  0
  6  7  1  0
  7  8  1  0
  8  9  1  0
  9 10  1  0
 10 11  1  1
 10 12  1  0
 12 13  1  6
 13 14  1  0
 14 15  1  0
 15 16  2  0
 16 17  1  0
 17 18  1  0
 18 19  1  0
 19 20  1  0
 20 21  1  0
 21 22  1  0
 22 23  1  0
 23 24  2  0
 24 25  1  0
 25 26  2  0
 26 27  1  0
 26 28  1  0
 28 29  2  0
 29 30  1  0
 30 31  2  0
 31 32  1  0
 24 33  1  0
 33 34  2  0
 33 35  1  0
 16 36  1  0
 36 37  2  0
 37 38  1  0
  6 39  2  0
 39 40  1  0
 40 41  2  0
 27 22  2  0
 32 28  1  0
 35 12  1  0
 38 14  2  0
 41  4  1  0
M  END
$$$$
