
     RDKit          3D

 41 45  0  0  0  0  0  0  0  0999 V2000
  -11.4457  -37.5845  -13.3696 C   0  0  0  0  0  0  0  0  0  0  0  0
  -12.2514  -37.5545  -12.0902 C   0  0  0  0  0  0  0  0  0  0  0  0
  -13.0027  -36.2239  -12.0407 C   0  0  0  0  0  0  0  0  0  0  0  0
  -13.1822  -38.6978  -12.0042 C   0  0  0  0  0  0  0  0  0  0  0  0
  -13.5331  -39.3071  -10.8460 C   0  0  0  0  0  0  0  0  0  0  0  0
  -14.4028  -40.3823  -10.7500 C   0  0  0  0  0  0  0  0  0  0  0  0
  -14.7789  -41.0390   -9.4981 C   0  0  0  0  0  0  0  0  0  0  0  0
  -14.9149  -40.1984   -8.3587 N   0  0  0  0  0  0  0  0  0  0  0  0
  -15.7163  -39.0196   -8.5342 C   0  0  0  0  0  0  0  0  0  0  0  0
  -16.5643  -38.7002   -7.3368 C   0  0  1  0  0  0  0  0  0  0  0  0
  -17.3962  -37.6050   -7.6102 O   0  0  0  0  0  0  0  0  0  0  0  0
  -17.5477  -39.8784   -7.1387 C   0  0  2  0  0  0  0  0  0  0  0  0
  -18.4561  -39.6204   -6.0319 C   0  0  0  0  0  0  0  0  0  0  0  0
  -19.8559  -39.1413   -6.2356 C   0  0  0  0  0  0  0  0  0  0  0  0
  -20.8171  -39.5550   -7.1217 C   0  0  0  0  0  0  0  0  0  0  0  0
  -22.0748  -38.9979   -7.0466 C   0  0  0  0  0  0  0  0  0  0  0  0
  -23.2961  -39.2716   -7.8529 C   0  0  0  0  0  0  0  0  0  0  0  0
  -23.8835  -40.6517   -7.7539 C   0  0  0  0  0  0  0  0  0  0  0  0
  -23.3183  -41.5672   -6.7310 C   0  0  0  0  0  0  0  0  0  0  0  0
  -23.2217  -43.0064   -7.2392 C   0  0  0  0  0  0  0  0  0  0  0  0
  -22.1579  -43.7357   -6.7056 O   0  0  0  0  0  0  0  0  0  0  0  0
  -20.8057  -43.8826   -6.9406 C   0  0  0  0  0  0  0  0  0  0  0  0
  -19.7882  -42.9565   -6.7218 C   0  0  0  0  0  0  0  0  0  0  0  0
  -18.4910  -43.2654   -7.0263 C   0  0  0  0  0  0  0  0  0  0  0  0
  -18.2551  -44.5693   -7.5607 C   0  0  0  0  0  0  0  0  0  0  0  0
  -19.2082  -45.5072   -7.7872 C   0  0  0  0  0  0  0  0  0  0  0  0
  -20.4930  -45.1471   -7.4690 C   0  0  0  0  0  0  0  0  0  0  0  0
  -18.8823  -46.8240   -8.3420 C   0  0  0  0  0  0  0  0  0  0  0  0
  -19.6942  -47.6217   -9.0532 N   0  0  0  0  0  0  0  0  0  0  0  0
  -19.0278  -48.7470   -9.3824 C   0  0  0  0  0  0  0  0  0  0  0  0
  -17.7634  -48.5894   -8.8326 C   0  0  0  0  0  0  0  0  0  0  0  0
  -17.7269  -47.4215   -8.2204 O   0  0  0  0  0  0  0  0  0  0  0  0
  -17.2402  -42.4531   -6.9354 C   0  0  0  0  0  0  0  0  0  0  0  0
  -16.2312  -43.1674   -6.4619 O   0  0  0  0  0  0  0  0  0  0  0  0
  -16.8775  -41.1508   -7.2260 N   0  0  0  0  0  0  0  0  0  0  0  0
  -22.3390  -38.0118   -6.0614 C   0  0  0  0  0  0  0  0  0  0  0  0
  -21.4150  -37.5666   -5.1595 C   0  0  0  0  0  0  0  0  0  0  0  0
  -20.1843  -38.1485   -5.2704 C   0  0  0  0  0  0  0  0  0  0  0  0
  -14.9294  -40.8394  -11.9416 C   0  0  0  0  0  0  0  0  0  0  0  0
  -14.5921  -40.2370  -13.1609 C   0  0  0  0  0  0  0  0  0  0  0  0
  -13.7289  -39.1796  -13.1867 C   0  0  0  0  0  0  0  0  0  0  0  0
  1  2  1  0
  2  3  1  0
  2  4  1  0
  4  5  2  0
  5  6  1  0
  6  7  1  0
  7  8  1  0
  8  9  1  0
  9 10  1  0
 10 11  1  6
 10 12  1  0
 12 13  1  1
 13 14  1  0
 14 15  1  0
 15 16  2  0
 16 17  1  0
 17 18  1  0
 18 19  1  0
 19 20  1  0
 20 21  1  0
 21 22  1  0
 22 23  1  0
 23 24  2  0
 24 25  1  0
 25 26  2  0
 26 27  1  0
 26 28  1  0
 28 29  2  0
 29 30  1  0
 30 31  2  0
 31 32  1  0
 24 33  1  0
 33 34  2  0
 33 35  1  0
 16 36  1  0
 36 37  2  0
 37 38  1  0
  6 39  2  0
 39 40  1  0
 40 41  2  0
 27 22  2  0
 32 28  1  0
 35 12  1  0
 38 14  2  0
 41  4  1  0
M  END
$$$$
