
     RDKit          3D

 41 45  0  0  0  0  0  0  0  0999 V2000
  -10.8349  -36.3438  -11.6135 C   0  0  0  0  0  0  0  0  0  0  0  0
  -12.2599  -36.3881  -11.1095 C   0  0  0  0  0  0  0  0  0  0  0  0
  -13.0324  -35.2569  -11.7886 C   0  0  0  0  0  0  0  0  0  0  0  0
  -12.8906  -37.6979  -11.3695 C   0  0  0  0  0  0  0  0  0  0  0  0
  -13.1626  -38.6148  -10.4098 C   0  0  0  0  0  0  0  0  0  0  0  0
  -13.7513  -39.8487  -10.6390 C   0  0  0  0  0  0  0  0  0  0  0  0
  -14.0427  -40.8372   -9.6009 C   0  0  0  0  0  0  0  0  0  0  0  0
  -15.0890  -40.5123   -8.6936 N   0  0  0  0  0  0  0  0  0  0  0  0
  -15.3920  -39.1156   -8.5513 C   0  0  0  0  0  0  0  0  0  0  0  0
  -16.8056  -38.7782   -8.9293 C   0  0  1  0  0  0  0  0  0  0  0  0
  -17.0347  -39.0904  -10.2769 O   0  0  0  0  0  0  0  0  0  0  0  0
  -17.7344  -39.7450   -8.1568 C   0  0  2  0  0  0  0  0  0  0  0  0
  -18.4817  -39.0401   -7.1264 C   0  0  0  0  0  0  0  0  0  0  0  0
  -19.9029  -38.6195   -7.3096 C   0  0  0  0  0  0  0  0  0  0  0  0
  -20.9732  -39.3038   -7.8258 C   0  0  0  0  0  0  0  0  0  0  0  0
  -22.2156  -38.7091   -7.8047 C   0  0  0  0  0  0  0  0  0  0  0  0
  -23.5342  -39.2226   -8.2675 C   0  0  0  0  0  0  0  0  0  0  0  0
  -24.0821  -40.4304   -7.5600 C   0  0  0  0  0  0  0  0  0  0  0  0
  -23.3657  -40.9004   -6.3477 C   0  0  0  0  0  0  0  0  0  0  0  0
  -23.3210  -42.4267   -6.2626 C   0  0  0  0  0  0  0  0  0  0  0  0
  -22.1825  -42.9358   -5.6359 O   0  0  0  0  0  0  0  0  0  0  0  0
  -20.8747  -43.2188   -5.9754 C   0  0  0  0  0  0  0  0  0  0  0  0
  -19.8499  -42.3238   -6.2745 C   0  0  0  0  0  0  0  0  0  0  0  0
  -18.6042  -42.7806   -6.6066 C   0  0  0  0  0  0  0  0  0  0  0  0
  -18.4273  -44.1983   -6.6170 C   0  0  0  0  0  0  0  0  0  0  0  0
  -19.3893  -45.1099   -6.3291 C   0  0  0  0  0  0  0  0  0  0  0  0
  -20.6216  -44.6012   -6.0060 C   0  0  0  0  0  0  0  0  0  0  0  0
  -19.1260  -46.5512   -6.3651 C   0  0  0  0  0  0  0  0  0  0  0  0
  -18.6856  -47.2635   -7.4139 N   0  0  0  0  0  0  0  0  0  0  0  0
  -18.5692  -48.5569   -7.0499 C   0  0  0  0  0  0  0  0  0  0  0  0
  -18.9623  -48.5923   -5.7195 C   0  0  0  0  0  0  0  0  0  0  0  0
  -19.2857  -47.3660   -5.3564 O   0  0  0  0  0  0  0  0  0  0  0  0
  -17.3647  -42.0498   -7.0094 C   0  0  0  0  0  0  0  0  0  0  0  0
  -16.2891  -42.5661   -6.4359 O   0  0  0  0  0  0  0  0  0  0  0  0
  -17.0651  -40.9785   -7.8308 N   0  0  0  0  0  0  0  0  0  0  0  0
  -22.3526  -37.4080   -7.2559 C   0  0  0  0  0  0  0  0  0  0  0  0
  -21.3174  -36.6869   -6.7327 C   0  0  0  0  0  0  0  0  0  0  0  0
  -20.1063  -37.3172   -6.7731 C   0  0  0  0  0  0  0  0  0  0  0  0
  -14.0687  -40.1299  -11.9530 C   0  0  0  0  0  0  0  0  0  0  0  0
  -13.8040  -39.2088  -12.9750 C   0  0  0  0  0  0  0  0  0  0  0  0
  -13.2221  -38.0090  -12.6820 C   0  0  0  0  0  0  0  0  0  0  0  0
  1  2  1  0
  2  3  1  0
  2  4  1  0
  4  5  2  0
  5  6  1  0
  6  7  1  0
  7  8  1  0
  8  9  1  0
  9 10  1  0
 10 11  1  6
 10 12  1  0
 12 13  1  1
 13 14  1  0
 14 15  1  0
 15 16  2  0
 16 17  1  0
 17 18  1  0
 18 19  1  0
 19 20  1  0
 20 21  1  0
 21 22  1  0
 22 23  1  0
 23 24  2  0
 24 25  1  0
 25 26  2  0
 26 27  1  0
 26 28  1  0
 28 29  2  0
 29 30  1  0
 30 31  2  0
 31 32  1  0
 24 33  1  0
 33 34  2  0
 33 35  1  0
 16 36  1  0
 36 37  2  0
 37 38  1  0
  6 39  2  0
 39 40  1  0
 40 41  2  0
 27 22  2  0
 32 28  1  0
 35 12  1  0
 38 14  2  0
 41  4  1  0
M  END
$$$$
