
     RDKit          3D

 41 45  0  0  0  0  0  0  0  0999 V2000
  -21.9212  -39.0282  -10.3958 C   0  0  0  0  0  0  0  0  0  0  0  0
  -22.4561  -39.2378   -8.9971 C   0  0  0  0  0  0  0  0  0  0  0  0
  -22.8927  -40.6981   -8.8764 C   0  0  0  0  0  0  0  0  0  0  0  0
  -21.4514  -38.8934   -7.9709 C   0  0  0  0  0  0  0  0  0  0  0  0
  -20.3534  -38.1353   -8.2060 C   0  0  0  0  0  0  0  0  0  0  0  0
  -19.4009  -37.8064   -7.2541 C   0  0  0  0  0  0  0  0  0  0  0  0
  -18.2156  -36.9885   -7.5113 C   0  0  0  0  0  0  0  0  0  0  0  0
  -17.2478  -37.5379   -8.3973 N   0  0  0  0  0  0  0  0  0  0  0  0
  -16.2154  -38.3324   -7.7926 C   0  0  0  0  0  0  0  0  0  0  0  0
  -15.5386  -39.2565   -8.7636 C   0  0  1  0  0  0  0  0  0  0  0  0
  -14.3027  -39.6769   -8.2516 O   0  0  0  0  0  0  0  0  0  0  0  0
  -16.3785  -40.5544   -8.8295 C   0  0  2  0  0  0  0  0  0  0  0  0
  -16.2683  -41.1824  -10.1373 C   0  0  0  0  0  0  0  0  0  0  0  0
  -15.3689  -42.3460  -10.3973 C   0  0  0  0  0  0  0  0  0  0  0  0
  -15.1587  -43.4876   -9.6674 C   0  0  0  0  0  0  0  0  0  0  0  0
  -14.3261  -44.4593  -10.1777 C   0  0  0  0  0  0  0  0  0  0  0  0
  -13.9437  -45.7858   -9.6205 C   0  0  0  0  0  0  0  0  0  0  0  0
  -15.0436  -46.7958   -9.4478 C   0  0  0  0  0  0  0  0  0  0  0  0
  -16.3760  -46.4637  -10.0120 C   0  0  0  0  0  0  0  0  0  0  0  0
  -17.5158  -46.9278   -9.1042 C   0  0  0  0  0  0  0  0  0  0  0  0
  -18.6563  -46.1246   -9.1548 O   0  0  0  0  0  0  0  0  0  0  0  0
  -19.0941  -44.9426   -8.5921 C   0  0  0  0  0  0  0  0  0  0  0  0
  -18.6327  -43.6507   -8.8346 C   0  0  0  0  0  0  0  0  0  0  0  0
  -19.1758  -42.5839   -8.1730 C   0  0  0  0  0  0  0  0  0  0  0  0
  -20.2255  -42.8748   -7.2485 C   0  0  0  0  0  0  0  0  0  0  0  0
  -20.7133  -44.1117   -6.9809 C   0  0  0  0  0  0  0  0  0  0  0  0
  -20.1327  -45.1478   -7.6673 C   0  0  0  0  0  0  0  0  0  0  0  0
  -21.7934  -44.3255   -6.0136 C   0  0  0  0  0  0  0  0  0  0  0  0
  -21.7867  -45.1735   -4.9734 N   0  0  0  0  0  0  0  0  0  0  0  0
  -22.9639  -45.0804   -4.3220 C   0  0  0  0  0  0  0  0  0  0  0  0
  -23.6880  -44.1266   -5.0234 C   0  0  0  0  0  0  0  0  0  0  0  0
  -22.9430  -43.7050   -6.0271 O   0  0  0  0  0  0  0  0  0  0  0  0
  -18.8389  -41.1286   -8.2117 C   0  0  0  0  0  0  0  0  0  0  0  0
  -19.9296  -40.3784   -8.2228 O   0  0  0  0  0  0  0  0  0  0  0  0
  -17.6784  -40.3773   -8.2336 N   0  0  0  0  0  0  0  0  0  0  0  0
  -13.7075  -44.2511  -11.4374 C   0  0  0  0  0  0  0  0  0  0  0  0
  -13.8842  -43.1314  -12.1993 C   0  0  0  0  0  0  0  0  0  0  0  0
  -14.7190  -42.1976  -11.6545 C   0  0  0  0  0  0  0  0  0  0  0  0
  -19.6192  -38.3061   -5.9857 C   0  0  0  0  0  0  0  0  0  0  0  0
  -20.7423  -39.0940   -5.7011 C   0  0  0  0  0  0  0  0  0  0  0  0
  -21.6444  -39.3813   -6.6848 C   0  0  0  0  0  0  0  0  0  0  0  0
  1  2  1  0
  2  3  1  0
  2  4  1  0
  4  5  2  0
  5  6  1  0
  6  7  1  0
  7  8  1  0
  8  9  1  0
  9 10  1  0
 10 11  1  1
 10 12  1  0
 12 13  1  6
 13 14  1  0
 14 15  1  0
 15 16  2  0
 16 17  1  0
 17 18  1  0
 18 19  1  0
 19 20  1  0
 20 21  1  0
 21 22  1  0
 22 23  1  0
 23 24  2  0
 24 25  1  0
 25 26  2  0
 26 27  1  0
 26 28  1  0
 28 29  2  0
 29 30  1  0
 30 31  2  0
 31 32  1  0
 24 33  1  0
 33 34  2  0
 33 35  1  0
 16 36  1  0
 36 37  2  0
 37 38  1  0
  6 39  2  0
 39 40  1  0
 40 41  2  0
 27 22  2  0
 32 28  1  0
 35 12  1  0
 38 14  2  0
 41  4  1  0
M  END
$$$$
