
     RDKit          3D

 41 45  0  0  0  0  0  0  0  0999 V2000
  -12.5384  -39.3965  -12.5381 C   0  0  0  0  0  0  0  0  0  0  0  0
  -13.7403  -39.9969  -13.2320 C   0  0  0  0  0  0  0  0  0  0  0  0
  -13.5951  -41.5183  -13.1883 C   0  0  0  0  0  0  0  0  0  0  0  0
  -15.0056  -39.5622  -12.6066 C   0  0  0  0  0  0  0  0  0  0  0  0
  -15.4470  -39.9973  -11.4018 C   0  0  0  0  0  0  0  0  0  0  0  0
  -16.6330  -39.6007  -10.8037 C   0  0  0  0  0  0  0  0  0  0  0  0
  -17.1076  -40.0732   -9.5032 C   0  0  0  0  0  0  0  0  0  0  0  0
  -16.1705  -40.0303   -8.4339 N   0  0  0  0  0  0  0  0  0  0  0  0
  -16.0883  -38.7901   -7.7142 C   0  0  0  0  0  0  0  0  0  0  0  0
  -17.3287  -38.4839   -6.9251 C   0  0  1  0  0  0  0  0  0  0  0  0
  -18.2088  -37.7039   -7.6888 O   0  0  0  0  0  0  0  0  0  0  0  0
  -18.0884  -39.8165   -6.7215 C   0  0  2  0  0  0  0  0  0  0  0  0
  -18.8652  -39.7925   -5.4915 C   0  0  0  0  0  0  0  0  0  0  0  0
  -20.3355  -39.5309   -5.4741 C   0  0  0  0  0  0  0  0  0  0  0  0
  -21.3359  -40.0256   -6.2707 C   0  0  0  0  0  0  0  0  0  0  0  0
  -22.6406  -39.6855   -5.9880 C   0  0  0  0  0  0  0  0  0  0  0  0
  -23.9059  -40.0903   -6.6601 C   0  0  0  0  0  0  0  0  0  0  0  0
  -24.2611  -41.5504   -6.6226 C   0  0  0  0  0  0  0  0  0  0  0  0
  -23.4308  -42.4378   -5.7699 C   0  0  0  0  0  0  0  0  0  0  0  0
  -23.1904  -43.8000   -6.4220 C   0  0  0  0  0  0  0  0  0  0  0  0
  -21.9666  -44.3869   -6.0962 O   0  0  0  0  0  0  0  0  0  0  0  0
  -20.6526  -44.2961   -6.5090 C   0  0  0  0  0  0  0  0  0  0  0  0
  -19.7648  -43.2376   -6.3293 C   0  0  0  0  0  0  0  0  0  0  0  0
  -18.4900  -43.3098   -6.8196 C   0  0  0  0  0  0  0  0  0  0  0  0
  -18.1370  -44.5145   -7.5018 C   0  0  0  0  0  0  0  0  0  0  0  0
  -18.9610  -45.5737   -7.6982 C   0  0  0  0  0  0  0  0  0  0  0  0
  -20.2295  -45.4502   -7.1910 C   0  0  0  0  0  0  0  0  0  0  0  0
  -18.5207  -46.7752   -8.4129 C   0  0  0  0  0  0  0  0  0  0  0  0
  -18.2245  -46.8726   -9.7182 N   0  0  0  0  0  0  0  0  0  0  0  0
  -17.8602  -48.1417   -9.9934 C   0  0  0  0  0  0  0  0  0  0  0  0
  -17.9500  -48.8118   -8.7815 C   0  0  0  0  0  0  0  0  0  0  0  0
  -18.3493  -47.9494   -7.8665 O   0  0  0  0  0  0  0  0  0  0  0  0
  -17.3742  -42.3161   -6.8059 C   0  0  0  0  0  0  0  0  0  0  0  0
  -16.2146  -42.8925   -6.5312 O   0  0  0  0  0  0  0  0  0  0  0  0
  -17.2536  -40.9542   -7.0125 N   0  0  0  0  0  0  0  0  0  0  0  0
  -22.9121  -38.8321   -4.8876 C   0  0  0  0  0  0  0  0  0  0  0  0
  -21.9507  -38.3135   -4.0679 C   0  0  0  0  0  0  0  0  0  0  0  0
  -20.6736  -38.6798   -4.3850 C   0  0  0  0  0  0  0  0  0  0  0  0
  -17.3946  -38.6968  -11.5172 C   0  0  0  0  0  0  0  0  0  0  0  0
  -16.9737  -38.2222  -12.7666 C   0  0  0  0  0  0  0  0  0  0  0  0
  -15.7931  -38.6525  -13.3004 C   0  0  0  0  0  0  0  0  0  0  0  0
  1  2  1  0
  2  3  1  0
  2  4  1  0
  4  5  2  0
  5  6  1  0
  6  7  1  0
  7  8  1  0
  8  9  1  0
  9 10  1  0
 10 11  1  6
 10 12  1  0
 12 13  1  1
 13 14  1  0
 14 15  1  0
 15 16  2  0
 16 17  1  0
 17 18  1  0
 18 19  1  0
 19 20  1  0
 20 21  1  0
 21 22  1  0
 22 23  1  0
 23 24  2  0
 24 25  1  0
 25 26  2  0
 26 27  1  0
 26 28  1  0
 28 29  2  0
 29 30  1  0
 30 31  2  0
 31 32  1  0
 24 33  1  0
 33 34  2  0
 33 35  1  0
 16 36  1  0
 36 37  2  0
 37 38  1  0
  6 39  2  0
 39 40  1  0
 40 41  2  0
 27 22  2  0
 32 28  1  0
 35 12  1  0
 38 14  2  0
 41  4  1  0
M  END
$$$$
