
     RDKit          3D

 41 45  0  0  0  0  0  0  0  0999 V2000
  -13.0388  -43.1636   -8.3776 C   0  0  0  0  0  0  0  0  0  0  0  0
  -13.6099  -41.7645   -8.4316 C   0  0  0  0  0  0  0  0  0  0  0  0
  -12.6671  -40.8434   -7.6568 C   0  0  0  0  0  0  0  0  0  0  0  0
  -13.7877  -41.3005   -9.8223 C   0  0  0  0  0  0  0  0  0  0  0  0
  -14.8705  -40.6156  -10.2628 C   0  0  0  0  0  0  0  0  0  0  0  0
  -15.0525  -40.1763  -11.5649 C   0  0  0  0  0  0  0  0  0  0  0  0
  -16.2234  -39.4380  -12.0379 C   0  0  0  0  0  0  0  0  0  0  0  0
  -17.4701  -39.7820  -11.4456 N   0  0  0  0  0  0  0  0  0  0  0  0
  -18.2354  -38.6934  -10.9052 C   0  0  0  0  0  0  0  0  0  0  0  0
  -17.9284  -38.4173   -9.4615 C   0  0  1  0  0  0  0  0  0  0  0  0
  -18.7388  -37.3773   -8.9839 O   0  0  0  0  0  0  0  0  0  0  0  0
  -18.3836  -39.6518   -8.6473 C   0  0  2  0  0  0  0  0  0  0  0  0
  -18.5773  -39.3113   -7.2460 C   0  0  0  0  0  0  0  0  0  0  0  0
  -19.9268  -39.0529   -6.6606 C   0  0  0  0  0  0  0  0  0  0  0  0
  -21.1066  -39.7352   -6.8109 C   0  0  0  0  0  0  0  0  0  0  0  0
  -22.2049  -39.3328   -6.0834 C   0  0  0  0  0  0  0  0  0  0  0  0
  -23.5821  -39.8960   -6.0323 C   0  0  0  0  0  0  0  0  0  0  0  0
  -23.7270  -41.2969   -5.5070 C   0  0  0  0  0  0  0  0  0  0  0  0
  -22.5257  -41.9355   -4.9127 C   0  0  0  0  0  0  0  0  0  0  0  0
  -22.4295  -43.4198   -5.2676 C   0  0  0  0  0  0  0  0  0  0  0  0
  -21.1245  -43.9040   -5.3720 O   0  0  0  0  0  0  0  0  0  0  0  0
  -20.1191  -43.9236   -6.3176 C   0  0  0  0  0  0  0  0  0  0  0  0
  -19.3590  -42.8552   -6.7885 C   0  0  0  0  0  0  0  0  0  0  0  0
  -18.4032  -43.0523   -7.7467 C   0  0  0  0  0  0  0  0  0  0  0  0
  -18.2352  -44.3923   -8.2129 C   0  0  0  0  0  0  0  0  0  0  0  0
  -18.9445  -45.4657   -7.7839 C   0  0  0  0  0  0  0  0  0  0  0  0
  -19.8932  -45.2148   -6.8255 C   0  0  0  0  0  0  0  0  0  0  0  0
  -18.7114  -46.8110   -8.3167 C   0  0  0  0  0  0  0  0  0  0  0  0
  -19.5933  -47.5816   -8.9721 N   0  0  0  0  0  0  0  0  0  0  0  0
  -19.0009  -48.7483   -9.2988 C   0  0  0  0  0  0  0  0  0  0  0  0
  -17.7076  -48.6446   -8.8065 C   0  0  0  0  0  0  0  0  0  0  0  0
  -17.5844  -47.4657   -8.2274 O   0  0  0  0  0  0  0  0  0  0  0  0
  -17.4990  -42.0894   -8.4453 C   0  0  0  0  0  0  0  0  0  0  0  0
  -16.2744  -42.5766   -8.5693 O   0  0  0  0  0  0  0  0  0  0  0  0
  -17.6255  -40.8268   -8.9946 N   0  0  0  0  0  0  0  0  0  0  0  0
  -22.0872  -38.2246   -5.2053 C   0  0  0  0  0  0  0  0  0  0  0  0
  -20.9357  -37.5131   -5.0236 C   0  0  0  0  0  0  0  0  0  0  0  0
  -19.8736  -37.9497   -5.7633 C   0  0  0  0  0  0  0  0  0  0  0  0
  -14.0366  -40.4778  -12.4499 C   0  0  0  0  0  0  0  0  0  0  0  0
  -12.9001  -41.1843  -12.0344 C   0  0  0  0  0  0  0  0  0  0  0  0
  -12.7817  -41.5884  -10.7357 C   0  0  0  0  0  0  0  0  0  0  0  0
  1  2  1  0
  2  3  1  0
  2  4  1  0
  4  5  2  0
  5  6  1  0
  6  7  1  0
  7  8  1  0
  8  9  1  0
  9 10  1  0
 10 11  1  1
 10 12  1  0
 12 13  1  1
 13 14  1  0
 14 15  1  0
 15 16  2  0
 16 17  1  0
 17 18  1  0
 18 19  1  0
 19 20  1  0
 20 21  1  0
 21 22  1  0
 22 23  1  0
 23 24  2  0
 24 25  1  0
 25 26  2  0
 26 27  1  0
 26 28  1  0
 28 29  2  0
 29 30  1  0
 30 31  2  0
 31 32  1  0
 24 33  1  0
 33 34  2  0
 33 35  1  0
 16 36  1  0
 36 37  2  0
 37 38  1  0
  6 39  2  0
 39 40  1  0
 40 41  2  0
 27 22  2  0
 32 28  1  0
 35 12  1  0
 38 14  2  0
 41  4  1  0
M  END
$$$$
