
     RDKit          3D

 41 45  0  0  0  0  0  0  0  0999 V2000
  -20.4835  -44.9680   -8.0245 C   0  0  0  0  0  0  0  0  0  0  0  0
  -19.3376  -44.7988   -7.0525 C   0  0  0  0  0  0  0  0  0  0  0  0
  -19.0680  -46.1573   -6.4049 C   0  0  0  0  0  0  0  0  0  0  0  0
  -18.1286  -44.2748   -7.7194 C   0  0  0  0  0  0  0  0  0  0  0  0
  -17.2247  -43.4597   -7.1241 C   0  0  0  0  0  0  0  0  0  0  0  0
  -16.0875  -42.9580   -7.7379 C   0  0  0  0  0  0  0  0  0  0  0  0
  -15.1139  -42.0771   -7.0930 C   0  0  0  0  0  0  0  0  0  0  0  0
  -14.0751  -41.5684   -7.9209 N   0  0  0  0  0  0  0  0  0  0  0  0
  -14.4928  -40.7946   -9.0564 C   0  0  0  0  0  0  0  0  0  0  0  0
  -14.6221  -39.3292   -8.7551 C   0  0  1  0  0  0  0  0  0  0  0  0
  -14.2530  -38.5697   -9.8746 O   0  0  0  0  0  0  0  0  0  0  0  0
  -16.1285  -39.0250   -8.5752 C   0  0  2  0  0  0  0  0  0  0  0  0
  -16.3783  -37.5918   -8.5955 C   0  0  0  0  0  0  0  0  0  0  0  0
  -16.8919  -36.8822   -9.8052 C   0  0  0  0  0  0  0  0  0  0  0  0
  -17.8981  -37.2196  -10.6734 C   0  0  0  0  0  0  0  0  0  0  0  0
  -18.2349  -36.3371  -11.6762 C   0  0  0  0  0  0  0  0  0  0  0  0
  -19.2850  -36.4328  -12.7272 C   0  0  0  0  0  0  0  0  0  0  0  0
  -20.7138  -36.4749  -12.2618 C   0  0  0  0  0  0  0  0  0  0  0  0
  -20.9743  -36.2329  -10.8205 C   0  0  0  0  0  0  0  0  0  0  0  0
  -22.0868  -37.1318  -10.2793 C   0  0  0  0  0  0  0  0  0  0  0  0
  -21.9430  -37.4812   -8.9355 O   0  0  0  0  0  0  0  0  0  0  0  0
  -21.2442  -38.4139   -8.1959 C   0  0  0  0  0  0  0  0  0  0  0  0
  -19.8710  -38.4806   -7.9704 C   0  0  0  0  0  0  0  0  0  0  0  0
  -19.3396  -39.4902   -7.2161 C   0  0  0  0  0  0  0  0  0  0  0  0
  -20.2632  -40.4406   -6.6821 C   0  0  0  0  0  0  0  0  0  0  0  0
  -21.6064  -40.4170   -6.8676 C   0  0  0  0  0  0  0  0  0  0  0  0
  -22.0890  -39.3871   -7.6344 C   0  0  0  0  0  0  0  0  0  0  0  0
  -22.4865  -41.4341   -6.2853 C   0  0  0  0  0  0  0  0  0  0  0  0
  -22.5877  -41.7647   -4.9885 N   0  0  0  0  0  0  0  0  0  0  0  0
  -23.5053  -42.7439   -4.8542 C   0  0  0  0  0  0  0  0  0  0  0  0
  -23.9584  -42.9906   -6.1425 C   0  0  0  0  0  0  0  0  0  0  0  0
  -23.3177  -42.1803   -6.9629 O   0  0  0  0  0  0  0  0  0  0  0  0
  -17.9235  -39.8149   -6.8667 C   0  0  0  0  0  0  0  0  0  0  0  0
  -17.8080  -40.1792   -5.5992 O   0  0  0  0  0  0  0  0  0  0  0  0
  -16.7138  -39.8335   -7.5361 N   0  0  0  0  0  0  0  0  0  0  0  0
  -17.5311  -35.1101  -11.7857 C   0  0  0  0  0  0  0  0  0  0  0  0
  -16.5216  -34.7313  -10.9474 C   0  0  0  0  0  0  0  0  0  0  0  0
  -16.2245  -35.6361   -9.9682 C   0  0  0  0  0  0  0  0  0  0  0  0
  -15.8952  -43.3367   -9.0516 C   0  0  0  0  0  0  0  0  0  0  0  0
  -16.8062  -44.1782   -9.7035 C   0  0  0  0  0  0  0  0  0  0  0  0
  -17.9077  -44.6391   -9.0414 C   0  0  0  0  0  0  0  0  0  0  0  0
  1  2  1  0
  2  3  1  0
  2  4  1  0
  4  5  2  0
  5  6  1  0
  6  7  1  0
  7  8  1  0
  8  9  1  0
  9 10  1  0
 10 11  1  6
 10 12  1  0
 12 13  1  1
 13 14  1  0
 14 15  1  0
 15 16  2  0
 16 17  1  0
 17 18  1  0
 18 19  1  0
 19 20  1  0
 20 21  1  0
 21 22  1  0
 22 23  1  0
 23 24  2  0
 24 25  1  0
 25 26  2  0
 26 27  1  0
 26 28  1  0
 28 29  2  0
 29 30  1  0
 30 31  2  0
 31 32  1  0
 24 33  1  0
 33 34  2  0
 33 35  1  0
 16 36  1  0
 36 37  2  0
 37 38  1  0
  6 39  2  0
 39 40  1  0
 40 41  2  0
 27 22  2  0
 32 28  1  0
 35 12  1  0
 38 14  2  0
 41  4  1  0
M  END
$$$$
