
     RDKit          3D

 41 45  0  0  0  0  0  0  0  0999 V2000
  -13.2135  -36.3995  -12.0062 C   0  0  0  0  0  0  0  0  0  0  0  0
  -12.4795  -37.7156  -12.1315 C   0  0  0  0  0  0  0  0  0  0  0  0
  -11.4596  -37.7932  -10.9950 C   0  0  0  0  0  0  0  0  0  0  0  0
  -13.4075  -38.8639  -12.0967 C   0  0  0  0  0  0  0  0  0  0  0  0
  -14.2825  -39.1042  -11.0905 C   0  0  0  0  0  0  0  0  0  0  0  0
  -15.1570  -40.1787  -11.0427 C   0  0  0  0  0  0  0  0  0  0  0  0
  -16.0999  -40.4362   -9.9543 C   0  0  0  0  0  0  0  0  0  0  0  0
  -15.5902  -40.3096   -8.6324 N   0  0  0  0  0  0  0  0  0  0  0  0
  -15.8921  -39.0808   -7.9530 C   0  0  0  0  0  0  0  0  0  0  0  0
  -17.3398  -38.6942   -8.0508 C   0  0  1  0  0  0  0  0  0  0  0  0
  -17.7353  -38.6323   -9.3946 O   0  0  0  0  0  0  0  0  0  0  0  0
  -18.1710  -39.8620   -7.4682 C   0  0  2  0  0  0  0  0  0  0  0  0
  -18.9465  -39.4279   -6.3163 C   0  0  0  0  0  0  0  0  0  0  0  0
  -20.4004  -39.0977   -6.4040 C   0  0  0  0  0  0  0  0  0  0  0  0
  -21.4256  -39.7575   -7.0317 C   0  0  0  0  0  0  0  0  0  0  0  0
  -22.7101  -39.2810   -6.8872 C   0  0  0  0  0  0  0  0  0  0  0  0
  -23.9949  -39.8039   -7.4279 C   0  0  0  0  0  0  0  0  0  0  0  0
  -24.4291  -41.1642   -6.9583 C   0  0  0  0  0  0  0  0  0  0  0  0
  -23.6491  -41.7945   -5.8636 C   0  0  0  0  0  0  0  0  0  0  0  0
  -23.4826  -43.3005   -6.0706 C   0  0  0  0  0  0  0  0  0  0  0  0
  -22.2929  -43.8241   -5.5620 O   0  0  0  0  0  0  0  0  0  0  0  0
  -20.9754  -43.9300   -5.9602 C   0  0  0  0  0  0  0  0  0  0  0  0
  -20.0315  -42.9139   -6.0925 C   0  0  0  0  0  0  0  0  0  0  0  0
  -18.7621  -43.1965   -6.5160 C   0  0  0  0  0  0  0  0  0  0  0  0
  -18.4746  -44.5675   -6.7973 C   0  0  0  0  0  0  0  0  0  0  0  0
  -19.3548  -45.5925   -6.6797 C   0  0  0  0  0  0  0  0  0  0  0  0
  -20.6152  -45.2564   -6.2552 C   0  0  0  0  0  0  0  0  0  0  0  0
  -18.9800  -46.9746   -6.9913 C   0  0  0  0  0  0  0  0  0  0  0  0
  -18.3628  -47.4112   -8.1002 N   0  0  0  0  0  0  0  0  0  0  0  0
  -18.1930  -48.7463   -8.0129 C   0  0  0  0  0  0  0  0  0  0  0  0
  -18.7405  -49.0985   -6.7873 C   0  0  0  0  0  0  0  0  0  0  0  0
  -19.1980  -48.0019   -6.2142 O   0  0  0  0  0  0  0  0  0  0  0  0
  -17.5939  -42.3039   -6.7831 C   0  0  0  0  0  0  0  0  0  0  0  0
  -16.4676  -42.8296   -6.3276 O   0  0  0  0  0  0  0  0  0  0  0  0
  -17.3992  -41.0761   -7.3884 N   0  0  0  0  0  0  0  0  0  0  0  0
  -22.9358  -38.1225   -6.0999 C   0  0  0  0  0  0  0  0  0  0  0  0
  -21.9483  -37.4310   -5.4581 C   0  0  0  0  0  0  0  0  0  0  0  0
  -20.6927  -37.9413   -5.6280 C   0  0  0  0  0  0  0  0  0  0  0  0
  -15.1036  -41.0469  -12.1149 C   0  0  0  0  0  0  0  0  0  0  0  0
  -14.2131  -40.8342  -13.1754 C   0  0  0  0  0  0  0  0  0  0  0  0
  -13.3774  -39.7546  -13.1620 C   0  0  0  0  0  0  0  0  0  0  0  0
  1  2  1  0
  2  3  1  0
  2  4  1  0
  4  5  2  0
  5  6  1  0
  6  7  1  0
  7  8  1  0
  8  9  1  0
  9 10  1  0
 10 11  1  6
 10 12  1  0
 12 13  1  1
 13 14  1  0
 14 15  1  0
 15 16  2  0
 16 17  1  0
 17 18  1  0
 18 19  1  0
 19 20  1  0
 20 21  1  0
 21 22  1  0
 22 23  1  0
 23 24  2  0
 24 25  1  0
 25 26  2  0
 26 27  1  0
 26 28  1  0
 28 29  2  0
 29 30  1  0
 30 31  2  0
 31 32  1  0
 24 33  1  0
 33 34  2  0
 33 35  1  0
 16 36  1  0
 36 37  2  0
 37 38  1  0
  6 39  2  0
 39 40  1  0
 40 41  2  0
 27 22  2  0
 32 28  1  0
 35 12  1  0
 38 14  2  0
 41  4  1  0
M  END
$$$$
