
     RDKit          3D

 41 45  0  0  0  0  0  0  0  0999 V2000
  -16.3148  -35.7641  -12.3382 C   0  0  0  0  0  0  0  0  0  0  0  0
  -17.7160  -36.3322  -12.3188 C   0  0  0  0  0  0  0  0  0  0  0  0
  -17.6976  -37.6508  -13.0924 C   0  0  0  0  0  0  0  0  0  0  0  0
  -18.2069  -36.5280  -10.9398 C   0  0  0  0  0  0  0  0  0  0  0  0
  -17.8274  -37.5501  -10.1355 C   0  0  0  0  0  0  0  0  0  0  0  0
  -18.2815  -37.7483   -8.8409 C   0  0  0  0  0  0  0  0  0  0  0  0
  -17.8709  -38.8537   -7.9752 C   0  0  0  0  0  0  0  0  0  0  0  0
  -16.9213  -38.5449   -6.9621 N   0  0  0  0  0  0  0  0  0  0  0  0
  -15.5643  -38.9331   -7.2276 C   0  0  0  0  0  0  0  0  0  0  0  0
  -15.4387  -39.8816   -8.3849 C   0  0  1  0  0  0  0  0  0  0  0  0
  -14.2943  -40.6783   -8.2367 O   0  0  0  0  0  0  0  0  0  0  0  0
  -16.6110  -40.8870   -8.2885 C   0  0  2  0  0  0  0  0  0  0  0  0
  -16.7708  -41.6242   -9.5326 C   0  0  0  0  0  0  0  0  0  0  0  0
  -16.2533  -43.0131   -9.7163 C   0  0  0  0  0  0  0  0  0  0  0  0
  -16.3218  -44.1041   -8.8886 C   0  0  0  0  0  0  0  0  0  0  0  0
  -15.8317  -45.3109   -9.3371 C   0  0  0  0  0  0  0  0  0  0  0  0
  -15.7989  -46.6417   -8.6704 C   0  0  0  0  0  0  0  0  0  0  0  0
  -17.1232  -47.2786   -8.3537 C   0  0  0  0  0  0  0  0  0  0  0  0
  -18.3446  -46.6273   -8.8902 C   0  0  0  0  0  0  0  0  0  0  0  0
  -19.5039  -46.6718   -7.8938 C   0  0  0  0  0  0  0  0  0  0  0  0
  -20.3744  -45.5836   -7.9735 O   0  0  0  0  0  0  0  0  0  0  0  0
  -20.4241  -44.2843   -7.5102 C   0  0  0  0  0  0  0  0  0  0  0  0
  -19.6370  -43.2017   -7.8966 C   0  0  0  0  0  0  0  0  0  0  0  0
  -19.8130  -41.9743   -7.3193 C   0  0  0  0  0  0  0  0  0  0  0  0
  -20.8363  -41.8778   -6.3269 C   0  0  0  0  0  0  0  0  0  0  0  0
  -21.6315  -42.8983   -5.9199 C   0  0  0  0  0  0  0  0  0  0  0  0
  -21.4128  -44.1090   -6.5264 C   0  0  0  0  0  0  0  0  0  0  0  0
  -22.6595  -42.7161   -4.8913 C   0  0  0  0  0  0  0  0  0  0  0  0
  -22.6616  -43.2358   -3.6539 N   0  0  0  0  0  0  0  0  0  0  0  0
  -23.7788  -42.8383   -3.0114 C   0  0  0  0  0  0  0  0  0  0  0  0
  -24.4568  -42.0458   -3.9269 C   0  0  0  0  0  0  0  0  0  0  0  0
  -23.7449  -42.0038   -5.0368 O   0  0  0  0  0  0  0  0  0  0  0  0
  -19.0855  -40.6837   -7.5135 C   0  0  0  0  0  0  0  0  0  0  0  0
  -19.9204  -39.6571   -7.5510 O   0  0  0  0  0  0  0  0  0  0  0  0
  -17.7653  -40.2989   -7.6578 N   0  0  0  0  0  0  0  0  0  0  0  0
  -15.2672  -45.3906  -10.6363 C   0  0  0  0  0  0  0  0  0  0  0  0
  -15.1750  -44.3328  -11.4951 C   0  0  0  0  0  0  0  0  0  0  0  0
  -15.6755  -43.1587  -11.0086 C   0  0  0  0  0  0  0  0  0  0  0  0
  -19.1863  -36.8174   -8.3708 C   0  0  0  0  0  0  0  0  0  0  0  0
  -19.6043  -35.7456   -9.1706 C   0  0  0  0  0  0  0  0  0  0  0  0
  -19.1177  -35.6069  -10.4387 C   0  0  0  0  0  0  0  0  0  0  0  0
  1  2  1  0
  2  3  1  0
  2  4  1  0
  4  5  2  0
  5  6  1  0
  6  7  1  0
  7  8  1  0
  8  9  1  0
  9 10  1  0
 10 11  1  1
 10 12  1  0
 12 13  1  6
 13 14  1  0
 14 15  1  0
 15 16  2  0
 16 17  1  0
 17 18  1  0
 18 19  1  0
 19 20  1  0
 20 21  1  0
 21 22  1  0
 22 23  1  0
 23 24  2  0
 24 25  1  0
 25 26  2  0
 26 27  1  0
 26 28  1  0
 28 29  2  0
 29 30  1  0
 30 31  2  0
 31 32  1  0
 24 33  1  0
 33 34  2  0
 33 35  1  0
 16 36  1  0
 36 37  2  0
 37 38  1  0
  6 39  2  0
 39 40  1  0
 40 41  2  0
 27 22  2  0
 32 28  1  0
 35 12  1  0
 38 14  2  0
 41  4  1  0
M  END
$$$$
