
     RDKit          3D

 41 45  0  0  0  0  0  0  0  0999 V2000
  -12.9640  -42.3192  -12.7200 C   0  0  0  0  0  0  0  0  0  0  0  0
  -14.0333  -42.9744  -11.8751 C   0  0  0  0  0  0  0  0  0  0  0  0
  -13.3886  -43.4111  -10.5593 C   0  0  0  0  0  0  0  0  0  0  0  0
  -15.1735  -42.0666  -11.6365 C   0  0  0  0  0  0  0  0  0  0  0  0
  -15.0884  -40.9044  -10.9454 C   0  0  0  0  0  0  0  0  0  0  0  0
  -16.1498  -40.0441  -10.7111 C   0  0  0  0  0  0  0  0  0  0  0  0
  -16.0551  -38.7903   -9.9634 C   0  0  0  0  0  0  0  0  0  0  0  0
  -15.0198  -38.7100   -8.9913 N   0  0  0  0  0  0  0  0  0  0  0  0
  -15.4231  -38.8732   -7.6226 C   0  0  0  0  0  0  0  0  0  0  0  0
  -16.8030  -38.3480   -7.3486 C   0  0  1  0  0  0  0  0  0  0  0  0
  -17.2550  -37.5837   -8.4339 O   0  0  0  0  0  0  0  0  0  0  0  0
  -17.7625  -39.5615   -7.3186 C   0  0  2  0  0  0  0  0  0  0  0  0
  -18.7653  -39.4092   -6.2755 C   0  0  0  0  0  0  0  0  0  0  0  0
  -20.1581  -38.9511   -6.5599 C   0  0  0  0  0  0  0  0  0  0  0  0
  -21.0309  -39.3212   -7.5506 C   0  0  0  0  0  0  0  0  0  0  0  0
  -22.3070  -38.8026   -7.5404 C   0  0  0  0  0  0  0  0  0  0  0  0
  -23.4498  -39.0455   -8.4632 C   0  0  0  0  0  0  0  0  0  0  0  0
  -24.0007  -40.4432   -8.5133 C   0  0  0  0  0  0  0  0  0  0  0  0
  -23.4925  -41.4182   -7.5157 C   0  0  0  0  0  0  0  0  0  0  0  0
  -23.3107  -42.8126   -8.1165 C   0  0  0  0  0  0  0  0  0  0  0  0
  -22.2718  -43.5532   -7.5503 O   0  0  0  0  0  0  0  0  0  0  0  0
  -20.9011  -43.6487   -7.6819 C   0  0  0  0  0  0  0  0  0  0  0  0
  -19.9337  -42.7166   -7.3129 C   0  0  0  0  0  0  0  0  0  0  0  0
  -18.6072  -42.9698   -7.5298 C   0  0  0  0  0  0  0  0  0  0  0  0
  -18.2887  -44.2241   -8.1354 C   0  0  0  0  0  0  0  0  0  0  0  0
  -19.1909  -45.1657   -8.5076 C   0  0  0  0  0  0  0  0  0  0  0  0
  -20.5078  -44.8623   -8.2723 C   0  0  0  0  0  0  0  0  0  0  0  0
  -18.7807  -46.4292   -9.1269 C   0  0  0  0  0  0  0  0  0  0  0  0
  -19.4321  -47.6013   -9.0730 N   0  0  0  0  0  0  0  0  0  0  0  0
  -18.7353  -48.5245   -9.7666 C   0  0  0  0  0  0  0  0  0  0  0  0
  -17.6229  -47.8482  -10.2474 C   0  0  0  0  0  0  0  0  0  0  0  0
  -17.6970  -46.5966   -9.8370 O   0  0  0  0  0  0  0  0  0  0  0  0
  -17.3935  -42.1359   -7.2767 C   0  0  0  0  0  0  0  0  0  0  0  0
  -16.4048  -42.8583   -6.7737 O   0  0  0  0  0  0  0  0  0  0  0  0
  -17.0486  -40.8070   -7.4414 N   0  0  0  0  0  0  0  0  0  0  0  0
  -22.6806  -37.8994   -6.5120 C   0  0  0  0  0  0  0  0  0  0  0  0
  -21.8471  -37.4998   -5.5066 C   0  0  0  0  0  0  0  0  0  0  0  0
  -20.5941  -38.0413   -5.5564 C   0  0  0  0  0  0  0  0  0  0  0  0
  -17.3670  -40.4328  -11.2340 C   0  0  0  0  0  0  0  0  0  0  0  0
  -17.4973  -41.6272  -11.9549 C   0  0  0  0  0  0  0  0  0  0  0  0
  -16.4111  -42.4308  -12.1511 C   0  0  0  0  0  0  0  0  0  0  0  0
  1  2  1  0
  2  3  1  0
  2  4  1  0
  4  5  2  0
  5  6  1  0
  6  7  1  0
  7  8  1  0
  8  9  1  0
  9 10  1  0
 10 11  1  6
 10 12  1  0
 12 13  1  1
 13 14  1  0
 14 15  1  0
 15 16  2  0
 16 17  1  0
 17 18  1  0
 18 19  1  0
 19 20  1  0
 20 21  1  0
 21 22  1  0
 22 23  1  0
 23 24  2  0
 24 25  1  0
 25 26  2  0
 26 27  1  0
 26 28  1  0
 28 29  2  0
 29 30  1  0
 30 31  2  0
 31 32  1  0
 24 33  1  0
 33 34  2  0
 33 35  1  0
 16 36  1  0
 36 37  2  0
 37 38  1  0
  6 39  2  0
 39 40  1  0
 40 41  2  0
 27 22  2  0
 32 28  1  0
 35 12  1  0
 38 14  2  0
 41  4  1  0
M  END
$$$$
