
     RDKit          3D

 41 45  0  0  0  0  0  0  0  0999 V2000
  -21.6924  -41.1562   -5.5711 C   0  0  0  0  0  0  0  0  0  0  0  0
  -22.1029  -39.7009   -5.5543 C   0  0  0  0  0  0  0  0  0  0  0  0
  -21.6273  -39.0951   -4.2336 C   0  0  0  0  0  0  0  0  0  0  0  0
  -21.5517  -38.9646   -6.7097 C   0  0  0  0  0  0  0  0  0  0  0  0
  -20.2281  -38.8434   -6.9729 C   0  0  0  0  0  0  0  0  0  0  0  0
  -19.6961  -38.1535   -8.0511 C   0  0  0  0  0  0  0  0  0  0  0  0
  -18.2664  -38.0234   -8.3321 C   0  0  0  0  0  0  0  0  0  0  0  0
  -17.4469  -37.5871   -7.2543 N   0  0  0  0  0  0  0  0  0  0  0  0
  -16.3594  -38.4538   -6.8956 C   0  0  0  0  0  0  0  0  0  0  0  0
  -15.7841  -39.1935   -8.0690 C   0  0  1  0  0  0  0  0  0  0  0  0
  -14.4952  -39.6554   -7.7662 O   0  0  0  0  0  0  0  0  0  0  0  0
  -16.6131  -40.4871   -8.2521 C   0  0  2  0  0  0  0  0  0  0  0  0
  -16.6045  -40.9211   -9.6409 C   0  0  0  0  0  0  0  0  0  0  0  0
  -15.7175  -42.0161  -10.1355 C   0  0  0  0  0  0  0  0  0  0  0  0
  -15.4360  -43.2446   -9.5955 C   0  0  0  0  0  0  0  0  0  0  0  0
  -14.6383  -44.1157  -10.3044 C   0  0  0  0  0  0  0  0  0  0  0  0
  -14.1975  -45.4990   -9.9749 C   0  0  0  0  0  0  0  0  0  0  0  0
  -15.2689  -46.5472   -9.8607 C   0  0  0  0  0  0  0  0  0  0  0  0
  -16.6467  -46.1681  -10.2631 C   0  0  0  0  0  0  0  0  0  0  0  0
  -17.7029  -46.7809   -9.3426 C   0  0  0  0  0  0  0  0  0  0  0  0
  -18.8519  -46.0040   -9.1863 O   0  0  0  0  0  0  0  0  0  0  0  0
  -19.2542  -44.9235   -8.4273 C   0  0  0  0  0  0  0  0  0  0  0  0
  -18.8277  -43.6004   -8.5190 C   0  0  0  0  0  0  0  0  0  0  0  0
  -19.3255  -42.6502   -7.6704 C   0  0  0  0  0  0  0  0  0  0  0  0
  -20.2924  -43.0920   -6.7158 C   0  0  0  0  0  0  0  0  0  0  0  0
  -20.7435  -44.3648   -6.5895 C   0  0  0  0  0  0  0  0  0  0  0  0
  -20.2108  -45.2803   -7.4611 C   0  0  0  0  0  0  0  0  0  0  0  0
  -21.7380  -44.7371   -5.5794 C   0  0  0  0  0  0  0  0  0  0  0  0
  -22.2878  -43.9333   -4.6558 N   0  0  0  0  0  0  0  0  0  0  0  0
  -23.1572  -44.6474   -3.9122 C   0  0  0  0  0  0  0  0  0  0  0  0
  -23.1071  -45.9317   -4.4357 C   0  0  0  0  0  0  0  0  0  0  0  0
  -22.2427  -45.9331   -5.4322 O   0  0  0  0  0  0  0  0  0  0  0  0
  -19.0081  -41.1971   -7.5277 C   0  0  0  0  0  0  0  0  0  0  0  0
  -20.1037  -40.4770   -7.3441 O   0  0  0  0  0  0  0  0  0  0  0  0
  -17.8611  -40.4248   -7.5349 N   0  0  0  0  0  0  0  0  0  0  0  0
  -14.1278  -43.7178  -11.5669 C   0  0  0  0  0  0  0  0  0  0  0  0
  -14.3783  -42.5057  -12.1443 C   0  0  0  0  0  0  0  0  0  0  0  0
  -15.1750  -41.6770  -11.4066 C   0  0  0  0  0  0  0  0  0  0  0  0
  -20.6114  -37.5584   -8.8964 C   0  0  0  0  0  0  0  0  0  0  0  0
  -21.9886  -37.6601   -8.6596 C   0  0  0  0  0  0  0  0  0  0  0  0
  -22.4482  -38.3556   -7.5784 C   0  0  0  0  0  0  0  0  0  0  0  0
  1  2  1  0
  2  3  1  0
  2  4  1  0
  4  5  2  0
  5  6  1  0
  6  7  1  0
  7  8  1  0
  8  9  1  0
  9 10  1  0
 10 11  1  1
 10 12  1  0
 12 13  1  6
 13 14  1  0
 14 15  1  0
 15 16  2  0
 16 17  1  0
 17 18  1  0
 18 19  1  0
 19 20  1  0
 20 21  1  0
 21 22  1  0
 22 23  1  0
 23 24  2  0
 24 25  1  0
 25 26  2  0
 26 27  1  0
 26 28  1  0
 28 29  2  0
 29 30  1  0
 30 31  2  0
 31 32  1  0
 24 33  1  0
 33 34  2  0
 33 35  1  0
 16 36  1  0
 36 37  2  0
 37 38  1  0
  6 39  2  0
 39 40  1  0
 40 41  2  0
 27 22  2  0
 32 28  1  0
 35 12  1  0
 38 14  2  0
 41  4  1  0
M  END
$$$$
