
     RDKit          3D

 41 45  0  0  0  0  0  0  0  0999 V2000
  -12.5938  -37.8749  -14.6726 C   0  0  0  0  0  0  0  0  0  0  0  0
  -12.7126  -37.5070  -13.2107 C   0  0  0  0  0  0  0  0  0  0  0  0
  -13.5798  -36.2516  -13.1125 C   0  0  0  0  0  0  0  0  0  0  0  0
  -13.2804  -38.6129  -12.4136 C   0  0  0  0  0  0  0  0  0  0  0  0
  -13.2405  -38.6737  -11.0607 C   0  0  0  0  0  0  0  0  0  0  0  0
  -13.7663  -39.7061  -10.2996 C   0  0  0  0  0  0  0  0  0  0  0  0
  -13.7206  -39.7695   -8.8388 C   0  0  0  0  0  0  0  0  0  0  0  0
  -14.4761  -38.7884   -8.1389 N   0  0  0  0  0  0  0  0  0  0  0  0
  -15.8633  -38.6847   -8.4960 C   0  0  0  0  0  0  0  0  0  0  0  0
  -16.7754  -38.6259   -7.3046 C   0  0  1  0  0  0  0  0  0  0  0  0
  -17.7003  -37.5825   -7.4532 O   0  0  0  0  0  0  0  0  0  0  0  0
  -17.6460  -39.9049   -7.3247 C   0  0  2  0  0  0  0  0  0  0  0  0
  -18.4918  -39.9801   -6.1432 C   0  0  0  0  0  0  0  0  0  0  0  0
  -19.9360  -39.6002   -6.1628 C   0  0  0  0  0  0  0  0  0  0  0  0
  -20.9214  -39.8980   -7.0686 C   0  0  0  0  0  0  0  0  0  0  0  0
  -22.2108  -39.4899   -6.8066 C   0  0  0  0  0  0  0  0  0  0  0  0
  -23.4604  -39.6932   -7.5900 C   0  0  0  0  0  0  0  0  0  0  0  0
  -23.9283  -41.1101   -7.7721 C   0  0  0  0  0  0  0  0  0  0  0  0
  -23.2217  -42.1703   -7.0100 C   0  0  0  0  0  0  0  0  0  0  0  0
  -23.0475  -43.4485   -7.8312 C   0  0  0  0  0  0  0  0  0  0  0  0
  -21.8943  -44.1747   -7.5293 O   0  0  0  0  0  0  0  0  0  0  0  0
  -20.5546  -44.1406   -7.8601 C   0  0  0  0  0  0  0  0  0  0  0  0
  -19.6007  -43.1942   -7.4922 C   0  0  0  0  0  0  0  0  0  0  0  0
  -18.3079  -43.3075   -7.9240 C   0  0  0  0  0  0  0  0  0  0  0  0
  -18.0078  -44.4357   -8.7476 C   0  0  0  0  0  0  0  0  0  0  0  0
  -18.8972  -45.3859   -9.1290 C   0  0  0  0  0  0  0  0  0  0  0  0
  -20.1808  -45.2248   -8.6730 C   0  0  0  0  0  0  0  0  0  0  0  0
  -18.5080  -46.5139   -9.9799 C   0  0  0  0  0  0  0  0  0  0  0  0
  -19.3280  -47.3910  -10.5795 N   0  0  0  0  0  0  0  0  0  0  0  0
  -18.5894  -48.2806  -11.2737 C   0  0  0  0  0  0  0  0  0  0  0  0
  -17.2728  -47.8951  -11.0644 C   0  0  0  0  0  0  0  0  0  0  0  0
  -17.2777  -46.8321  -10.2833 O   0  0  0  0  0  0  0  0  0  0  0  0
  -17.1221  -42.4221   -7.7180 C   0  0  0  0  0  0  0  0  0  0  0  0
  -16.0288  -43.1257   -7.4684 O   0  0  0  0  0  0  0  0  0  0  0  0
  -16.8850  -41.0599   -7.7284 N   0  0  0  0  0  0  0  0  0  0  0  0
  -22.4822  -38.7714   -5.6137 C   0  0  0  0  0  0  0  0  0  0  0  0
  -21.5352  -38.4499   -4.6837 C   0  0  0  0  0  0  0  0  0  0  0  0
  -20.2731  -38.8768   -4.9847 C   0  0  0  0  0  0  0  0  0  0  0  0
  -14.3655  -40.7302  -11.0055 C   0  0  0  0  0  0  0  0  0  0  0  0
  -14.4278  -40.7054  -12.4050 C   0  0  0  0  0  0  0  0  0  0  0  0
  -13.8905  -39.6576  -13.0960 C   0  0  0  0  0  0  0  0  0  0  0  0
  1  2  1  0
  2  3  1  0
  2  4  1  0
  4  5  2  0
  5  6  1  0
  6  7  1  0
  7  8  1  0
  8  9  1  0
  9 10  1  0
 10 11  1  6
 10 12  1  0
 12 13  1  1
 13 14  1  0
 14 15  1  0
 15 16  2  0
 16 17  1  0
 17 18  1  0
 18 19  1  0
 19 20  1  0
 20 21  1  0
 21 22  1  0
 22 23  1  0
 23 24  2  0
 24 25  1  0
 25 26  2  0
 26 27  1  0
 26 28  1  0
 28 29  2  0
 29 30  1  0
 30 31  2  0
 31 32  1  0
 24 33  1  0
 33 34  2  0
 33 35  1  0
 16 36  1  0
 36 37  2  0
 37 38  1  0
  6 39  2  0
 39 40  1  0
 40 41  2  0
 27 22  2  0
 32 28  1  0
 35 12  1  0
 38 14  2  0
 41  4  1  0
M  END
$$$$
