
     RDKit          3D

 41 45  0  0  0  0  0  0  0  0999 V2000
  -15.6229  -35.1302  -12.2467 C   0  0  0  0  0  0  0  0  0  0  0  0
  -14.3550  -35.7579  -12.7805 C   0  0  0  0  0  0  0  0  0  0  0  0
  -13.1875  -34.8422  -12.4115 C   0  0  0  0  0  0  0  0  0  0  0  0
  -14.1544  -37.1209  -12.2484 C   0  0  0  0  0  0  0  0  0  0  0  0
  -15.1124  -37.8375  -11.6124 C   0  0  0  0  0  0  0  0  0  0  0  0
  -14.9381  -39.1159  -11.1055 C   0  0  0  0  0  0  0  0  0  0  0  0
  -15.9741  -39.8867  -10.4181 C   0  0  0  0  0  0  0  0  0  0  0  0
  -15.6507  -40.3619   -9.1169 N   0  0  0  0  0  0  0  0  0  0  0  0
  -15.3816  -39.3580   -8.1257 C   0  0  0  0  0  0  0  0  0  0  0  0
  -16.6248  -38.6947   -7.6066 C   0  0  1  0  0  0  0  0  0  0  0  0
  -17.3150  -38.0703   -8.6554 O   0  0  0  0  0  0  0  0  0  0  0  0
  -17.5855  -39.8138   -7.1389 C   0  0  2  0  0  0  0  0  0  0  0  0
  -18.3368  -39.4002   -5.9635 C   0  0  0  0  0  0  0  0  0  0  0  0
  -19.7462  -38.9123   -6.0408 C   0  0  0  0  0  0  0  0  0  0  0  0
  -20.8204  -39.4042   -6.7367 C   0  0  0  0  0  0  0  0  0  0  0  0
  -22.0512  -38.8090   -6.5678 C   0  0  0  0  0  0  0  0  0  0  0  0
  -23.3712  -39.1454   -7.1685 C   0  0  0  0  0  0  0  0  0  0  0  0
  -23.9547  -40.4874   -6.8248 C   0  0  0  0  0  0  0  0  0  0  0  0
  -23.2687  -41.2876   -5.7793 C   0  0  0  0  0  0  0  0  0  0  0  0
  -23.2551  -42.7796   -6.1147 C   0  0  0  0  0  0  0  0  0  0  0  0
  -22.1377  -43.4672   -5.6383 O   0  0  0  0  0  0  0  0  0  0  0  0
  -20.8300  -43.6771   -6.0273 C   0  0  0  0  0  0  0  0  0  0  0  0
  -19.7829  -42.7587   -6.0584 C   0  0  0  0  0  0  0  0  0  0  0  0
  -18.5408  -43.1364   -6.4886 C   0  0  0  0  0  0  0  0  0  0  0  0
  -18.3913  -44.5010   -6.8846 C   0  0  0  0  0  0  0  0  0  0  0  0
  -19.3757  -45.4337   -6.8681 C   0  0  0  0  0  0  0  0  0  0  0  0
  -20.6032  -45.0040   -6.4322 C   0  0  0  0  0  0  0  0  0  0  0  0
  -19.1398  -46.8161   -7.2942 C   0  0  0  0  0  0  0  0  0  0  0  0
  -20.0680  -47.7582   -7.5219 N   0  0  0  0  0  0  0  0  0  0  0  0
  -19.4545  -48.8991   -7.8971 C   0  0  0  0  0  0  0  0  0  0  0  0
  -18.0997  -48.5986   -7.8863 C   0  0  0  0  0  0  0  0  0  0  0  0
  -17.9638  -47.3389   -7.5189 O   0  0  0  0  0  0  0  0  0  0  0  0
  -17.2806  -42.3524   -6.6619 C   0  0  0  0  0  0  0  0  0  0  0  0
  -16.2253  -43.0309   -6.2394 O   0  0  0  0  0  0  0  0  0  0  0  0
  -16.9460  -41.1048   -7.1553 N   0  0  0  0  0  0  0  0  0  0  0  0
  -22.1724  -37.7046   -5.6855 C   0  0  0  0  0  0  0  0  0  0  0  0
  -21.1327  -37.1784   -4.9732 C   0  0  0  0  0  0  0  0  0  0  0  0
  -19.9336  -37.8019   -5.1708 C   0  0  0  0  0  0  0  0  0  0  0  0
  -13.6840  -39.6667  -11.2784 C   0  0  0  0  0  0  0  0  0  0  0  0
  -12.6658  -38.9588  -11.9307 C   0  0  0  0  0  0  0  0  0  0  0  0
  -12.9029  -37.7019  -12.4080 C   0  0  0  0  0  0  0  0  0  0  0  0
  1  2  1  0
  2  3  1  0
  2  4  1  0
  4  5  2  0
  5  6  1  0
  6  7  1  0
  7  8  1  0
  8  9  1  0
  9 10  1  0
 10 11  1  6
 10 12  1  0
 12 13  1  1
 13 14  1  0
 14 15  1  0
 15 16  2  0
 16 17  1  0
 17 18  1  0
 18 19  1  0
 19 20  1  0
 20 21  1  0
 21 22  1  0
 22 23  1  0
 23 24  2  0
 24 25  1  0
 25 26  2  0
 26 27  1  0
 26 28  1  0
 28 29  2  0
 29 30  1  0
 30 31  2  0
 31 32  1  0
 24 33  1  0
 33 34  2  0
 33 35  1  0
 16 36  1  0
 36 37  2  0
 37 38  1  0
  6 39  2  0
 39 40  1  0
 40 41  2  0
 27 22  2  0
 32 28  1  0
 35 12  1  0
 38 14  2  0
 41  4  1  0
M  END
$$$$
