
     RDKit          3D

 41 45  0  0  0  0  0  0  0  0999 V2000
  -12.8014  -36.1487  -10.7855 C   0  0  0  0  0  0  0  0  0  0  0  0
  -12.3798  -37.2665  -11.7125 C   0  0  0  0  0  0  0  0  0  0  0  0
  -10.8556  -37.3721  -11.6564 C   0  0  0  0  0  0  0  0  0  0  0  0
  -13.0185  -38.5476  -11.3491 C   0  0  0  0  0  0  0  0  0  0  0  0
  -13.2992  -38.9236  -10.0781 C   0  0  0  0  0  0  0  0  0  0  0  0
  -13.8953  -40.1233   -9.7217 C   0  0  0  0  0  0  0  0  0  0  0  0
  -14.1960  -40.5271   -8.3483 C   0  0  0  0  0  0  0  0  0  0  0  0
  -14.8345  -39.5557   -7.5285 N   0  0  0  0  0  0  0  0  0  0  0  0
  -15.8254  -38.7384   -8.1710 C   0  0  0  0  0  0  0  0  0  0  0  0
  -16.9904  -38.4156   -7.2803 C   0  0  1  0  0  0  0  0  0  0  0  0
  -17.8114  -37.4535   -7.8856 O   0  0  0  0  0  0  0  0  0  0  0  0
  -17.8820  -39.6783   -7.2086 C   0  0  2  0  0  0  0  0  0  0  0  0
  -18.9726  -39.4950   -6.2633 C   0  0  0  0  0  0  0  0  0  0  0  0
  -20.3606  -39.1508   -6.6939 C   0  0  0  0  0  0  0  0  0  0  0  0
  -21.1291  -39.6612   -7.7084 C   0  0  0  0  0  0  0  0  0  0  0  0
  -22.4281  -39.2232   -7.8436 C   0  0  0  0  0  0  0  0  0  0  0  0
  -23.4777  -39.6177   -8.8230 C   0  0  0  0  0  0  0  0  0  0  0  0
  -23.9460  -41.0455   -8.7827 C   0  0  0  0  0  0  0  0  0  0  0  0
  -23.4680  -41.8940   -7.6621 C   0  0  0  0  0  0  0  0  0  0  0  0
  -23.1628  -43.3229   -8.1135 C   0  0  0  0  0  0  0  0  0  0  0  0
  -22.1345  -43.9444   -7.4032 O   0  0  0  0  0  0  0  0  0  0  0  0
  -20.7544  -43.9668   -7.4213 C   0  0  0  0  0  0  0  0  0  0  0  0
  -19.8720  -42.9477   -7.0697 C   0  0  0  0  0  0  0  0  0  0  0  0
  -18.5206  -43.1373   -7.1610 C   0  0  0  0  0  0  0  0  0  0  0  0
  -18.0866  -44.4188   -7.6199 C   0  0  0  0  0  0  0  0  0  0  0  0
  -18.9033  -45.4438   -7.9689 C   0  0  0  0  0  0  0  0  0  0  0  0
  -20.2494  -45.2020   -7.8633 C   0  0  0  0  0  0  0  0  0  0  0  0
  -18.3764  -46.7300   -8.4336 C   0  0  0  0  0  0  0  0  0  0  0  0
  -18.1682  -47.1027   -9.7060 N   0  0  0  0  0  0  0  0  0  0  0  0
  -17.6759  -48.3582   -9.7220 C   0  0  0  0  0  0  0  0  0  0  0  0
  -17.5946  -48.7290   -8.3872 C   0  0  0  0  0  0  0  0  0  0  0  0
  -18.0254  -47.7193   -7.6558 O   0  0  0  0  0  0  0  0  0  0  0  0
  -17.3783  -42.2109   -6.8966 C   0  0  0  0  0  0  0  0  0  0  0  0
  -16.3958  -42.8232   -6.2546 O   0  0  0  0  0  0  0  0  0  0  0  0
  -17.0939  -40.8835   -7.1593 N   0  0  0  0  0  0  0  0  0  0  0  0
  -22.9321  -38.2561   -6.9360 C   0  0  0  0  0  0  0  0  0  0  0  0
  -22.2056  -37.7175   -5.9126 C   0  0  0  0  0  0  0  0  0  0  0  0
  -20.9251  -38.1832   -5.8163 C   0  0  0  0  0  0  0  0  0  0  0  0
  -14.2109  -40.9721  -10.7639 C   0  0  0  0  0  0  0  0  0  0  0  0
  -13.9373  -40.6208  -12.0923 C   0  0  0  0  0  0  0  0  0  0  0  0
  -13.3483  -39.4222  -12.3764 C   0  0  0  0  0  0  0  0  0  0  0  0
  1  2  1  0
  2  3  1  0
  2  4  1  0
  4  5  2  0
  5  6  1  0
  6  7  1  0
  7  8  1  0
  8  9  1  0
  9 10  1  0
 10 11  1  6
 10 12  1  0
 12 13  1  1
 13 14  1  0
 14 15  1  0
 15 16  2  0
 16 17  1  0
 17 18  1  0
 18 19  1  0
 19 20  1  0
 20 21  1  0
 21 22  1  0
 22 23  1  0
 23 24  2  0
 24 25  1  0
 25 26  2  0
 26 27  1  0
 26 28  1  0
 28 29  2  0
 29 30  1  0
 30 31  2  0
 31 32  1  0
 24 33  1  0
 33 34  2  0
 33 35  1  0
 16 36  1  0
 36 37  2  0
 37 38  1  0
  6 39  2  0
 39 40  1  0
 40 41  2  0
 27 22  2  0
 32 28  1  0
 35 12  1  0
 38 14  2  0
 41  4  1  0
M  END
$$$$
