
     RDKit          3D

 41 45  0  0  0  0  0  0  0  0999 V2000
  -10.1615  -37.8625  -11.1071 C   0  0  0  0  0  0  0  0  0  0  0  0
  -11.5594  -37.2920  -11.1911 C   0  0  0  0  0  0  0  0  0  0  0  0
  -11.7514  -36.7279  -12.5991 C   0  0  0  0  0  0  0  0  0  0  0  0
  -12.5839  -38.3086  -10.8780 C   0  0  0  0  0  0  0  0  0  0  0  0
  -13.7673  -38.4209  -11.5281 C   0  0  0  0  0  0  0  0  0  0  0  0
  -14.7392  -39.3675  -11.2436 C   0  0  0  0  0  0  0  0  0  0  0  0
  -16.0166  -39.4855  -11.9465 C   0  0  0  0  0  0  0  0  0  0  0  0
  -17.1662  -39.7031  -11.1375 N   0  0  0  0  0  0  0  0  0  0  0  0
  -17.4486  -38.6941  -10.1552 C   0  0  0  0  0  0  0  0  0  0  0  0
  -16.7518  -38.9345   -8.8469 C   0  0  1  0  0  0  0  0  0  0  0  0
  -16.8019  -37.7806   -8.0518 O   0  0  0  0  0  0  0  0  0  0  0  0
  -17.5901  -39.9696   -8.0595 C   0  0  2  0  0  0  0  0  0  0  0  0
  -18.0756  -39.4062   -6.8090 C   0  0  0  0  0  0  0  0  0  0  0  0
  -19.4700  -38.8973   -6.6442 C   0  0  0  0  0  0  0  0  0  0  0  0
  -20.6667  -39.4404   -7.0358 C   0  0  0  0  0  0  0  0  0  0  0  0
  -21.8345  -38.8009   -6.6823 C   0  0  0  0  0  0  0  0  0  0  0  0
  -23.2515  -39.1728   -6.9478 C   0  0  0  0  0  0  0  0  0  0  0  0
  -23.7471  -40.4524   -6.3342 C   0  0  0  0  0  0  0  0  0  0  0  0
  -22.8541  -41.1432   -5.3703 C   0  0  0  0  0  0  0  0  0  0  0  0
  -22.9100  -42.6637   -5.5238 C   0  0  0  0  0  0  0  0  0  0  0  0
  -21.7161  -43.3183   -5.2164 O   0  0  0  0  0  0  0  0  0  0  0  0
  -20.5203  -43.6023   -5.8447 C   0  0  0  0  0  0  0  0  0  0  0  0
  -19.5048  -42.7184   -6.2030 C   0  0  0  0  0  0  0  0  0  0  0  0
  -18.3815  -43.1721   -6.8380 C   0  0  0  0  0  0  0  0  0  0  0  0
  -18.3176  -44.5763   -7.0939 C   0  0  0  0  0  0  0  0  0  0  0  0
  -19.2749  -45.4776   -6.7613 C   0  0  0  0  0  0  0  0  0  0  0  0
  -20.3827  -44.9718   -6.1300 C   0  0  0  0  0  0  0  0  0  0  0  0
  -19.1329  -46.9048   -7.0626 C   0  0  0  0  0  0  0  0  0  0  0  0
  -19.2143  -47.9235   -6.1927 N   0  0  0  0  0  0  0  0  0  0  0  0
  -19.0280  -49.0837   -6.8548 C   0  0  0  0  0  0  0  0  0  0  0  0
  -18.8297  -48.7143   -8.1777 C   0  0  0  0  0  0  0  0  0  0  0  0
  -18.9023  -47.3991   -8.2497 O   0  0  0  0  0  0  0  0  0  0  0  0
  -17.1877  -42.4432   -7.3634 C   0  0  0  0  0  0  0  0  0  0  0  0
  -16.0660  -43.0934   -7.0962 O   0  0  0  0  0  0  0  0  0  0  0  0
  -16.9669  -41.2687   -8.0589 N   0  0  0  0  0  0  0  0  0  0  0  0
  -21.7674  -37.6000   -5.9298 C   0  0  0  0  0  0  0  0  0  0  0  0
  -20.6011  -37.0202   -5.5191 C   0  0  0  0  0  0  0  0  0  0  0  0
  -19.4702  -37.6904   -5.8904 C   0  0  0  0  0  0  0  0  0  0  0  0
  -14.4459  -40.2420  -10.2162 C   0  0  0  0  0  0  0  0  0  0  0  0
  -13.2334  -40.1596   -9.5190 C   0  0  0  0  0  0  0  0  0  0  0  0
  -12.3169  -39.2031   -9.8494 C   0  0  0  0  0  0  0  0  0  0  0  0
  1  2  1  0
  2  3  1  0
  2  4  1  0
  4  5  2  0
  5  6  1  0
  6  7  1  0
  7  8  1  0
  8  9  1  0
  9 10  1  0
 10 11  1  1
 10 12  1  0
 12 13  1  1
 13 14  1  0
 14 15  1  0
 15 16  2  0
 16 17  1  0
 17 18  1  0
 18 19  1  0
 19 20  1  0
 20 21  1  0
 21 22  1  0
 22 23  1  0
 23 24  2  0
 24 25  1  0
 25 26  2  0
 26 27  1  0
 26 28  1  0
 28 29  2  0
 29 30  1  0
 30 31  2  0
 31 32  1  0
 24 33  1  0
 33 34  2  0
 33 35  1  0
 16 36  1  0
 36 37  2  0
 37 38  1  0
  6 39  2  0
 39 40  1  0
 40 41  2  0
 27 22  2  0
 32 28  1  0
 35 12  1  0
 38 14  2  0
 41  4  1  0
M  END
$$$$
