
     RDKit          3D

 41 45  0  0  0  0  0  0  0  0999 V2000
  -19.7348  -37.3505  -12.3862 C   0  0  0  0  0  0  0  0  0  0  0  0
  -20.0612  -38.5213  -11.4866 C   0  0  0  0  0  0  0  0  0  0  0  0
  -19.2632  -39.7283  -11.9803 C   0  0  0  0  0  0  0  0  0  0  0  0
  -19.7601  -38.2234  -10.0718 C   0  0  0  0  0  0  0  0  0  0  0  0
  -18.5466  -37.8242   -9.6204 C   0  0  0  0  0  0  0  0  0  0  0  0
  -18.2484  -37.5440   -8.2960 C   0  0  0  0  0  0  0  0  0  0  0  0
  -16.9368  -37.1142   -7.8114 C   0  0  0  0  0  0  0  0  0  0  0  0
  -15.8073  -37.7630   -8.3830 N   0  0  0  0  0  0  0  0  0  0  0  0
  -15.3846  -38.9775   -7.7435 C   0  0  0  0  0  0  0  0  0  0  0  0
  -15.3083  -40.1438   -8.6862 C   0  0  1  0  0  0  0  0  0  0  0  0
  -14.2594  -40.9979   -8.3168 O   0  0  0  0  0  0  0  0  0  0  0  0
  -16.5809  -40.9972   -8.4704 C   0  0  2  0  0  0  0  0  0  0  0  0
  -17.0053  -41.6259   -9.7120 C   0  0  0  0  0  0  0  0  0  0  0  0
  -16.7085  -43.0541  -10.0325 C   0  0  0  0  0  0  0  0  0  0  0  0
  -16.8099  -44.1792   -9.2554 C   0  0  0  0  0  0  0  0  0  0  0  0
  -16.5515  -45.4065   -9.8252 C   0  0  0  0  0  0  0  0  0  0  0  0
  -16.6074  -46.7713   -9.2330 C   0  0  0  0  0  0  0  0  0  0  0  0
  -17.9498  -47.2551   -8.7604 C   0  0  0  0  0  0  0  0  0  0  0  0
  -19.1343  -46.4213   -9.0858 C   0  0  0  0  0  0  0  0  0  0  0  0
  -20.1431  -46.3838   -7.9371 C   0  0  0  0  0  0  0  0  0  0  0  0
  -20.8625  -45.1915   -7.8407 O   0  0  0  0  0  0  0  0  0  0  0  0
  -20.6742  -43.9292   -7.3148 C   0  0  0  0  0  0  0  0  0  0  0  0
  -19.8088  -42.9318   -7.7587 C   0  0  0  0  0  0  0  0  0  0  0  0
  -19.7386  -41.7323   -7.1054 C   0  0  0  0  0  0  0  0  0  0  0  0
  -20.5957  -41.5721   -5.9736 C   0  0  0  0  0  0  0  0  0  0  0  0
  -21.4580  -42.5083   -5.5052 C   0  0  0  0  0  0  0  0  0  0  0  0
  -21.4879  -43.6949   -6.1927 C   0  0  0  0  0  0  0  0  0  0  0  0
  -22.3032  -42.2650   -4.3329 C   0  0  0  0  0  0  0  0  0  0  0  0
  -22.3594  -43.0032   -3.2134 N   0  0  0  0  0  0  0  0  0  0  0  0
  -23.2572  -42.4552   -2.3693 C   0  0  0  0  0  0  0  0  0  0  0  0
  -23.7441  -41.3404   -3.0373 C   0  0  0  0  0  0  0  0  0  0  0  0
  -23.1411  -41.2704   -4.2085 O   0  0  0  0  0  0  0  0  0  0  0  0
  -18.8777  -40.5340   -7.3411 C   0  0  0  0  0  0  0  0  0  0  0  0
  -19.5647  -39.4099   -7.2108 O   0  0  0  0  0  0  0  0  0  0  0  0
  -17.5496  -40.3103   -7.6544 N   0  0  0  0  0  0  0  0  0  0  0  0
  -16.1842  -45.4722  -11.1940 C   0  0  0  0  0  0  0  0  0  0  0  0
  -16.0681  -44.3808  -12.0068 C   0  0  0  0  0  0  0  0  0  0  0  0
  -16.3360  -43.1871  -11.3994 C   0  0  0  0  0  0  0  0  0  0  0  0
  -19.2876  -37.6948   -7.3996 C   0  0  0  0  0  0  0  0  0  0  0  0
  -20.5576  -38.1057   -7.8257 C   0  0  0  0  0  0  0  0  0  0  0  0
  -20.7861  -38.3655   -9.1464 C   0  0  0  0  0  0  0  0  0  0  0  0
  1  2  1  0
  2  3  1  0
  2  4  1  0
  4  5  2  0
  5  6  1  0
  6  7  1  0
  7  8  1  0
  8  9  1  0
  9 10  1  0
 10 11  1  1
 10 12  1  0
 12 13  1  6
 13 14  1  0
 14 15  1  0
 15 16  2  0
 16 17  1  0
 17 18  1  0
 18 19  1  0
 19 20  1  0
 20 21  1  0
 21 22  1  0
 22 23  1  0
 23 24  2  0
 24 25  1  0
 25 26  2  0
 26 27  1  0
 26 28  1  0
 28 29  2  0
 29 30  1  0
 30 31  2  0
 31 32  1  0
 24 33  1  0
 33 34  2  0
 33 35  1  0
 16 36  1  0
 36 37  2  0
 37 38  1  0
  6 39  2  0
 39 40  1  0
 40 41  2  0
 27 22  2  0
 32 28  1  0
 35 12  1  0
 38 14  2  0
 41  4  1  0
M  END
$$$$
