
     RDKit          3D

 41 45  0  0  0  0  0  0  0  0999 V2000
  -21.4229  -37.4549   -3.7421 C   0  0  0  0  0  0  0  0  0  0  0  0
  -22.4437  -37.2888   -4.8452 C   0  0  0  0  0  0  0  0  0  0  0  0
  -22.6498  -35.7908   -5.0712 C   0  0  0  0  0  0  0  0  0  0  0  0
  -22.0192  -37.9638   -6.0883 C   0  0  0  0  0  0  0  0  0  0  0  0
  -21.1190  -38.9753   -6.1350 C   0  0  0  0  0  0  0  0  0  0  0  0
  -20.7090  -39.6162   -7.2938 C   0  0  0  0  0  0  0  0  0  0  0  0
  -19.7358  -40.7073   -7.3413 C   0  0  0  0  0  0  0  0  0  0  0  0
  -19.0123  -40.9624   -6.1434 N   0  0  0  0  0  0  0  0  0  0  0  0
  -17.7395  -40.3082   -6.0217 C   0  0  0  0  0  0  0  0  0  0  0  0
  -16.9904  -40.2310   -7.3209 C   0  0  1  0  0  0  0  0  0  0  0  0
  -15.6149  -40.1030   -7.0804 O   0  0  0  0  0  0  0  0  0  0  0  0
  -17.1237  -41.6078   -8.0144 C   0  0  2  0  0  0  0  0  0  0  0  0
  -17.1511  -41.4634   -9.4619 C   0  0  0  0  0  0  0  0  0  0  0  0
  -15.9518  -41.7093  -10.3172 C   0  0  0  0  0  0  0  0  0  0  0  0
  -15.0322  -42.7260  -10.2879 C   0  0  0  0  0  0  0  0  0  0  0  0
  -14.0533  -42.7654  -11.2564 C   0  0  0  0  0  0  0  0  0  0  0  0
  -12.9593  -43.7509  -11.4766 C   0  0  0  0  0  0  0  0  0  0  0  0
  -13.3667  -45.1594  -11.8078 C   0  0  0  0  0  0  0  0  0  0  0  0
  -14.8054  -45.4148  -12.0703 C   0  0  0  0  0  0  0  0  0  0  0  0
  -15.2665  -46.7522  -11.4894 C   0  0  0  0  0  0  0  0  0  0  0  0
  -16.5997  -46.7721  -11.0765 O   0  0  0  0  0  0  0  0  0  0  0  0
  -17.3281  -46.3851   -9.9696 C   0  0  0  0  0  0  0  0  0  0  0  0
  -17.6038  -45.0925   -9.5292 C   0  0  0  0  0  0  0  0  0  0  0  0
  -18.3372  -44.8878   -8.3930 C   0  0  0  0  0  0  0  0  0  0  0  0
  -18.7964  -46.0568   -7.7119 C   0  0  0  0  0  0  0  0  0  0  0  0
  -18.5599  -47.3342   -8.1016 C   0  0  0  0  0  0  0  0  0  0  0  0
  -17.8169  -47.4858   -9.2446 C   0  0  0  0  0  0  0  0  0  0  0  0
  -19.0663  -48.4814   -7.3431 C   0  0  0  0  0  0  0  0  0  0  0  0
  -19.2355  -49.7340   -7.7944 N   0  0  0  0  0  0  0  0  0  0  0  0
  -19.7216  -50.4997   -6.7963 C   0  0  0  0  0  0  0  0  0  0  0  0
  -19.8379  -49.6431   -5.7106 C   0  0  0  0  0  0  0  0  0  0  0  0
  -19.4326  -48.4462   -6.0895 O   0  0  0  0  0  0  0  0  0  0  0  0
  -18.7281  -43.6290   -7.6893 C   0  0  0  0  0  0  0  0  0  0  0  0
  -19.9835  -43.6765   -7.2718 O   0  0  0  0  0  0  0  0  0  0  0  0
  -18.1060  -42.4377   -7.3644 N   0  0  0  0  0  0  0  0  0  0  0  0
  -14.0204  -41.7543  -12.2510 C   0  0  0  0  0  0  0  0  0  0  0  0
  -14.9119  -40.7219  -12.3203 C   0  0  0  0  0  0  0  0  0  0  0  0
  -15.8648  -40.7255  -11.3417 C   0  0  0  0  0  0  0  0  0  0  0  0
  -21.2795  -39.1634   -8.4667 C   0  0  0  0  0  0  0  0  0  0  0  0
  -22.2144  -38.1198   -8.4616 C   0  0  0  0  0  0  0  0  0  0  0  0
  -22.5766  -37.5305   -7.2845 C   0  0  0  0  0  0  0  0  0  0  0  0
  1  2  1  0
  2  3  1  0
  2  4  1  0
  4  5  2  0
  5  6  1  0
  6  7  1  0
  7  8  1  0
  8  9  1  0
  9 10  1  0
 10 11  1  1
 10 12  1  0
 12 13  1  6
 13 14  1  0
 14 15  1  0
 15 16  2  0
 16 17  1  0
 17 18  1  0
 18 19  1  0
 19 20  1  0
 20 21  1  0
 21 22  1  0
 22 23  1  0
 23 24  2  0
 24 25  1  0
 25 26  2  0
 26 27  1  0
 26 28  1  0
 28 29  2  0
 29 30  1  0
 30 31  2  0
 31 32  1  0
 24 33  1  0
 33 34  2  0
 33 35  1  0
 16 36  1  0
 36 37  2  0
 37 38  1  0
  6 39  2  0
 39 40  1  0
 40 41  2  0
 27 22  2  0
 32 28  1  0
 35 12  1  0
 38 14  2  0
 41  4  1  0
M  END
$$$$
