
     RDKit          3D

 41 45  0  0  0  0  0  0  0  0999 V2000
  -20.5638  -39.7804   -4.6894 C   0  0  0  0  0  0  0  0  0  0  0  0
  -21.4019  -40.1497   -5.8927 C   0  0  0  0  0  0  0  0  0  0  0  0
  -22.8616  -40.2194   -5.4433 C   0  0  0  0  0  0  0  0  0  0  0  0
  -21.2277  -39.1843   -6.9966 C   0  0  0  0  0  0  0  0  0  0  0  0
  -20.0474  -38.6019   -7.3183 C   0  0  0  0  0  0  0  0  0  0  0  0
  -19.8693  -37.6925   -8.3492 C   0  0  0  0  0  0  0  0  0  0  0  0
  -18.5938  -37.0643   -8.6934 C   0  0  0  0  0  0  0  0  0  0  0  0
  -17.6664  -36.8905   -7.6289 N   0  0  0  0  0  0  0  0  0  0  0  0
  -16.9117  -38.0526   -7.2513 C   0  0  0  0  0  0  0  0  0  0  0  0
  -16.3206  -38.7781   -8.4257 C   0  0  1  0  0  0  0  0  0  0  0  0
  -15.0159  -39.1978   -8.1295 O   0  0  0  0  0  0  0  0  0  0  0  0
  -17.1093  -40.0980   -8.5989 C   0  0  2  0  0  0  0  0  0  0  0  0
  -16.8142  -40.7187   -9.8813 C   0  0  0  0  0  0  0  0  0  0  0  0
  -15.8574  -41.8567  -10.0225 C   0  0  0  0  0  0  0  0  0  0  0  0
  -15.7120  -42.9945   -9.2711 C   0  0  0  0  0  0  0  0  0  0  0  0
  -14.7944  -43.9416   -9.6694 C   0  0  0  0  0  0  0  0  0  0  0  0
  -14.4509  -45.2590   -9.0669 C   0  0  0  0  0  0  0  0  0  0  0  0
  -15.5359  -46.2990   -9.0372 C   0  0  0  0  0  0  0  0  0  0  0  0
  -16.7931  -46.0014   -9.7687 C   0  0  0  0  0  0  0  0  0  0  0  0
  -18.0273  -46.4990   -9.0153 C   0  0  0  0  0  0  0  0  0  0  0  0
  -19.1732  -45.7269   -9.2129 O   0  0  0  0  0  0  0  0  0  0  0  0
  -19.7121  -44.5590   -8.7118 C   0  0  0  0  0  0  0  0  0  0  0  0
  -19.2587  -43.2543   -8.8934 C   0  0  0  0  0  0  0  0  0  0  0  0
  -19.9115  -42.2046   -8.3078 C   0  0  0  0  0  0  0  0  0  0  0  0
  -21.0633  -42.5268   -7.5263 C   0  0  0  0  0  0  0  0  0  0  0  0
  -21.5475  -43.7772   -7.3234 C   0  0  0  0  0  0  0  0  0  0  0  0
  -20.8553  -44.7951   -7.9287 C   0  0  0  0  0  0  0  0  0  0  0  0
  -22.7371  -44.0233   -6.5034 C   0  0  0  0  0  0  0  0  0  0  0  0
  -23.2573  -43.2072   -5.5736 N   0  0  0  0  0  0  0  0  0  0  0  0
  -24.3504  -43.7889   -5.0392 C   0  0  0  0  0  0  0  0  0  0  0  0
  -24.4677  -45.0052   -5.6969 C   0  0  0  0  0  0  0  0  0  0  0  0
  -23.4779  -45.0978   -6.5640 O   0  0  0  0  0  0  0  0  0  0  0  0
  -19.6123  -40.7407   -8.3034 C   0  0  0  0  0  0  0  0  0  0  0  0
  -20.7124  -40.0203   -8.4554 O   0  0  0  0  0  0  0  0  0  0  0  0
  -18.4795  -39.9581   -8.1757 N   0  0  0  0  0  0  0  0  0  0  0  0
  -14.0244  -43.7128  -10.8388 C   0  0  0  0  0  0  0  0  0  0  0  0
  -14.1319  -42.5960  -11.6176 C   0  0  0  0  0  0  0  0  0  0  0  0
  -15.0551  -41.6868  -11.1854 C   0  0  0  0  0  0  0  0  0  0  0  0
  -20.9989  -37.3804   -9.0791 C   0  0  0  0  0  0  0  0  0  0  0  0
  -22.2384  -37.9607   -8.7788 C   0  0  0  0  0  0  0  0  0  0  0  0
  -22.3464  -38.8511   -7.7494 C   0  0  0  0  0  0  0  0  0  0  0  0
  1  2  1  0
  2  3  1  0
  2  4  1  0
  4  5  2  0
  5  6  1  0
  6  7  1  0
  7  8  1  0
  8  9  1  0
  9 10  1  0
 10 11  1  1
 10 12  1  0
 12 13  1  6
 13 14  1  0
 14 15  1  0
 15 16  2  0
 16 17  1  0
 17 18  1  0
 18 19  1  0
 19 20  1  0
 20 21  1  0
 21 22  1  0
 22 23  1  0
 23 24  2  0
 24 25  1  0
 25 26  2  0
 26 27  1  0
 26 28  1  0
 28 29  2  0
 29 30  1  0
 30 31  2  0
 31 32  1  0
 24 33  1  0
 33 34  2  0
 33 35  1  0
 16 36  1  0
 36 37  2  0
 37 38  1  0
  6 39  2  0
 39 40  1  0
 40 41  2  0
 27 22  2  0
 32 28  1  0
 35 12  1  0
 38 14  2  0
 41  4  1  0
M  END
$$$$
