
     RDKit          3D

 41 45  0  0  0  0  0  0  0  0999 V2000
  -16.9584  -45.1786   -9.2909 C   0  0  0  0  0  0  0  0  0  0  0  0
  -16.8576  -44.8153  -10.7553 C   0  0  0  0  0  0  0  0  0  0  0  0
  -18.2755  -44.7713  -11.3257 C   0  0  0  0  0  0  0  0  0  0  0  0
  -16.1619  -43.5275  -10.9518 C   0  0  0  0  0  0  0  0  0  0  0  0
  -15.6155  -42.7978   -9.9496 C   0  0  0  0  0  0  0  0  0  0  0  0
  -14.9624  -41.5868  -10.1183 C   0  0  0  0  0  0  0  0  0  0  0  0
  -14.3744  -40.8004   -9.0340 C   0  0  0  0  0  0  0  0  0  0  0  0
  -15.2782  -40.2853   -8.0638 N   0  0  0  0  0  0  0  0  0  0  0  0
  -15.9649  -39.0748   -8.4187 C   0  0  0  0  0  0  0  0  0  0  0  0
  -16.9041  -38.5955   -7.3496 C   0  0  1  0  0  0  0  0  0  0  0  0
  -17.7535  -37.6033   -7.8599 O   0  0  0  0  0  0  0  0  0  0  0  0
  -17.8565  -39.7671   -7.0111 C   0  0  2  0  0  0  0  0  0  0  0  0
  -18.6957  -39.4446   -5.8671 C   0  0  0  0  0  0  0  0  0  0  0  0
  -20.1122  -38.9935   -6.0108 C   0  0  0  0  0  0  0  0  0  0  0  0
  -21.1223  -39.4744   -6.8037 C   0  0  0  0  0  0  0  0  0  0  0  0
  -22.3801  -38.9256   -6.6841 C   0  0  0  0  0  0  0  0  0  0  0  0
  -23.6466  -39.2639   -7.3898 C   0  0  0  0  0  0  0  0  0  0  0  0
  -24.2075  -40.6399   -7.1623 C   0  0  0  0  0  0  0  0  0  0  0  0
  -23.5654  -41.4799   -6.1201 C   0  0  0  0  0  0  0  0  0  0  0  0
  -23.4817  -42.9487   -6.5376 C   0  0  0  0  0  0  0  0  0  0  0  0
  -22.3760  -43.6307   -6.0272 O   0  0  0  0  0  0  0  0  0  0  0  0
  -21.0396  -43.7801   -6.3391 C   0  0  0  0  0  0  0  0  0  0  0  0
  -20.0230  -42.8318   -6.2481 C   0  0  0  0  0  0  0  0  0  0  0  0
  -18.7439  -43.1480   -6.6150 C   0  0  0  0  0  0  0  0  0  0  0  0
  -18.5248  -44.4822   -7.0766 C   0  0  0  0  0  0  0  0  0  0  0  0
  -19.4774  -45.4421   -7.1787 C   0  0  0  0  0  0  0  0  0  0  0  0
  -20.7441  -45.0739   -6.8023 C   0  0  0  0  0  0  0  0  0  0  0  0
  -19.1696  -46.7898   -7.6655 C   0  0  0  0  0  0  0  0  0  0  0  0
  -19.8433  -47.9180   -7.3927 N   0  0  0  0  0  0  0  0  0  0  0  0
  -19.2492  -48.9497   -8.0264 C   0  0  0  0  0  0  0  0  0  0  0  0
  -18.1759  -48.3860   -8.7019 C   0  0  0  0  0  0  0  0  0  0  0  0
  -18.1721  -47.0904   -8.4537 O   0  0  0  0  0  0  0  0  0  0  0  0
  -17.5012  -42.3195   -6.6590 C   0  0  0  0  0  0  0  0  0  0  0  0
  -16.4542  -42.9911   -6.2060 O   0  0  0  0  0  0  0  0  0  0  0  0
  -17.1758  -41.0361   -7.0577 N   0  0  0  0  0  0  0  0  0  0  0  0
  -22.5943  -37.8786   -5.7509 C   0  0  0  0  0  0  0  0  0  0  0  0
  -21.6207  -37.3655   -4.9421 C   0  0  0  0  0  0  0  0  0  0  0  0
  -20.3917  -37.9418   -5.0939 C   0  0  0  0  0  0  0  0  0  0  0  0
  -14.8831  -41.1208  -11.4155 C   0  0  0  0  0  0  0  0  0  0  0  0
  -15.4351  -41.8451  -12.4803 C   0  0  0  0  0  0  0  0  0  0  0  0
  -16.0657  -43.0333  -12.2463 C   0  0  0  0  0  0  0  0  0  0  0  0
  1  2  1  0
  2  3  1  0
  2  4  1  0
  4  5  2  0
  5  6  1  0
  6  7  1  0
  7  8  1  0
  8  9  1  0
  9 10  1  0
 10 11  1  6
 10 12  1  0
 12 13  1  1
 13 14  1  0
 14 15  1  0
 15 16  2  0
 16 17  1  0
 17 18  1  0
 18 19  1  0
 19 20  1  0
 20 21  1  0
 21 22  1  0
 22 23  1  0
 23 24  2  0
 24 25  1  0
 25 26  2  0
 26 27  1  0
 26 28  1  0
 28 29  2  0
 29 30  1  0
 30 31  2  0
 31 32  1  0
 24 33  1  0
 33 34  2  0
 33 35  1  0
 16 36  1  0
 36 37  2  0
 37 38  1  0
  6 39  2  0
 39 40  1  0
 40 41  2  0
 27 22  2  0
 32 28  1  0
 35 12  1  0
 38 14  2  0
 41  4  1  0
M  END
$$$$
