
     RDKit          3D

 41 45  0  0  0  0  0  0  0  0999 V2000
  -23.3059  -37.2265   -8.4705 C   0  0  0  0  0  0  0  0  0  0  0  0
  -22.3548  -38.3780   -8.7072 C   0  0  0  0  0  0  0  0  0  0  0  0
  -21.1823  -37.8543   -9.5369 C   0  0  0  0  0  0  0  0  0  0  0  0
  -21.8888  -38.9713   -7.4376 C   0  0  0  0  0  0  0  0  0  0  0  0
  -20.7704  -38.5797   -6.7807 C   0  0  0  0  0  0  0  0  0  0  0  0
  -20.3192  -39.1288   -5.5905 C   0  0  0  0  0  0  0  0  0  0  0  0
  -19.1104  -38.7047   -4.8841 C   0  0  0  0  0  0  0  0  0  0  0  0
  -18.0580  -38.1841   -5.6872 N   0  0  0  0  0  0  0  0  0  0  0  0
  -17.9939  -38.6684   -7.0377 C   0  0  0  0  0  0  0  0  0  0  0  0
  -16.6274  -39.1564   -7.4241 C   0  0  1  0  0  0  0  0  0  0  0  0
  -15.8884  -39.4855   -6.2787 O   0  0  0  0  0  0  0  0  0  0  0  0
  -16.8083  -40.5080   -8.1552 C   0  0  2  0  0  0  0  0  0  0  0  0
  -16.7162  -40.3386   -9.5974 C   0  0  0  0  0  0  0  0  0  0  0  0
  -15.4771  -40.6591  -10.3670 C   0  0  0  0  0  0  0  0  0  0  0  0
  -14.6391  -41.7419  -10.2920 C   0  0  0  0  0  0  0  0  0  0  0  0
  -13.5956  -41.8383  -11.1863 C   0  0  0  0  0  0  0  0  0  0  0  0
  -12.5631  -42.8988  -11.3465 C   0  0  0  0  0  0  0  0  0  0  0  0
  -13.0461  -44.2675  -11.7374 C   0  0  0  0  0  0  0  0  0  0  0  0
  -14.4758  -44.4109  -12.1107 C   0  0  0  0  0  0  0  0  0  0  0  0
  -15.0757  -45.7194  -11.5945 C   0  0  0  0  0  0  0  0  0  0  0  0
  -16.4340  -45.6468  -11.2816 O   0  0  0  0  0  0  0  0  0  0  0  0
  -17.2133  -45.2246  -10.2234 C   0  0  0  0  0  0  0  0  0  0  0  0
  -17.4263  -43.9224   -9.7766 C   0  0  0  0  0  0  0  0  0  0  0  0
  -18.2261  -43.6821   -8.6934 C   0  0  0  0  0  0  0  0  0  0  0  0
  -18.8193  -44.8245   -8.0735 C   0  0  0  0  0  0  0  0  0  0  0  0
  -18.6481  -46.1095   -8.4723 C   0  0  0  0  0  0  0  0  0  0  0  0
  -17.8343  -46.2974   -9.5604 C   0  0  0  0  0  0  0  0  0  0  0  0
  -19.2924  -47.2280   -7.7782 C   0  0  0  0  0  0  0  0  0  0  0  0
  -18.9544  -47.7364   -6.5831 N   0  0  0  0  0  0  0  0  0  0  0  0
  -19.7847  -48.7575   -6.2883 C   0  0  0  0  0  0  0  0  0  0  0  0
  -20.6487  -48.8418   -7.3710 C   0  0  0  0  0  0  0  0  0  0  0  0
  -20.3124  -47.9041   -8.2358 O   0  0  0  0  0  0  0  0  0  0  0  0
  -18.5759  -42.4092   -7.9933 C   0  0  0  0  0  0  0  0  0  0  0  0
  -19.8591  -42.3699   -7.6706 O   0  0  0  0  0  0  0  0  0  0  0  0
  -17.8946  -41.2729   -7.5977 N   0  0  0  0  0  0  0  0  0  0  0  0
  -13.4144  -40.8165  -12.1536 C   0  0  0  0  0  0  0  0  0  0  0  0
  -14.2204  -39.7196  -12.2661 C   0  0  0  0  0  0  0  0  0  0  0  0
  -15.2419  -39.6681  -11.3607 C   0  0  0  0  0  0  0  0  0  0  0  0
  -21.0902  -40.1472   -5.0664 C   0  0  0  0  0  0  0  0  0  0  0  0
  -22.2539  -40.5815   -5.7146 C   0  0  0  0  0  0  0  0  0  0  0  0
  -22.6443  -39.9977   -6.8854 C   0  0  0  0  0  0  0  0  0  0  0  0
  1  2  1  0
  2  3  1  0
  2  4  1  0
  4  5  2  0
  5  6  1  0
  6  7  1  0
  7  8  1  0
  8  9  1  0
  9 10  1  0
 10 11  1  1
 10 12  1  0
 12 13  1  6
 13 14  1  0
 14 15  1  0
 15 16  2  0
 16 17  1  0
 17 18  1  0
 18 19  1  0
 19 20  1  0
 20 21  1  0
 21 22  1  0
 22 23  1  0
 23 24  2  0
 24 25  1  0
 25 26  2  0
 26 27  1  0
 26 28  1  0
 28 29  2  0
 29 30  1  0
 30 31  2  0
 31 32  1  0
 24 33  1  0
 33 34  2  0
 33 35  1  0
 16 36  1  0
 36 37  2  0
 37 38  1  0
  6 39  2  0
 39 40  1  0
 40 41  2  0
 27 22  2  0
 32 28  1  0
 35 12  1  0
 38 14  2  0
 41  4  1  0
M  END
$$$$
