
     RDKit          3D

 41 44  0  0  0  0  0  0  0  0999 V2000
  -14.2144  -42.7740  -10.3265 C   0  0  0  0  0  0  0  0  0  0  0  0
  -13.8750  -41.4521   -9.6963 C   0  0  0  0  0  0  0  0  0  0  0  0
  -14.3188  -41.4967   -8.2266 C   0  0  0  0  0  0  0  0  0  0  0  0
  -14.6988  -40.3703  -10.3343 C   0  0  0  0  0  0  0  0  0  0  0  0
  -14.7346  -40.2822  -11.7051 C   0  0  0  0  0  0  0  0  0  0  0  0
  -15.4909  -39.2734  -12.3006 C   0  0  0  0  0  0  0  0  0  0  0  0
  -16.1936  -38.3721  -11.5211 C   0  0  0  0  0  0  0  0  0  0  0  0
  -16.1608  -38.4534  -10.1531 C   0  0  0  0  0  0  0  0  0  0  0  0
  -15.4070  -39.4605   -9.5886 C   0  0  0  0  0  0  0  0  0  0  0  0
  -16.8738  -37.5234   -9.2305 C   0  0  0  0  0  0  0  0  0  0  0  0
  -17.7385  -36.6667  -10.1626 C   0  0  0  0  0  0  0  0  0  0  0  0
  -15.8267  -36.6992   -8.5261 C   0  0  0  0  0  0  0  0  0  0  0  0
  -17.7065  -38.2101   -8.2872 N   0  0  0  0  0  0  0  0  0  0  0  0
  -16.8817  -39.2428   -7.6313 C   0  0  0  0  0  0  0  0  0  0  0  0
  -17.3193  -40.5489   -8.2453 C   0  0  1  0  0  0  0  0  0  0  0  0
  -17.0668  -41.5232   -7.2524 O   0  0  0  0  0  0  0  0  0  0  0  0
  -18.7524  -40.6052   -8.6932 C   0  0  2  0  0  0  0  0  0  0  0  0
  -18.9752  -41.2721  -10.0135 C   0  0  0  0  0  0  0  0  0  0  0  0
  -20.1299  -42.2087  -10.1072 C   0  0  0  0  0  0  0  0  0  0  0  0
  -21.1314  -41.6852  -10.9383 C   0  0  0  0  0  0  0  0  0  0  0  0
  -22.3280  -42.3104  -11.1932 C   0  0  0  0  0  0  0  0  0  0  0  0
  -23.5428  -41.6227  -12.2393 Cl  0  0  0  0  0  0  0  0  0  0  0  0
  -22.4800  -43.5129  -10.5617 C   0  0  0  0  0  0  0  0  0  0  0  0
  -23.7072  -44.1727  -10.8134 O   0  0  0  0  0  0  0  0  0  0  0  0
  -21.4978  -44.0877   -9.7095 C   0  0  0  0  0  0  0  0  0  0  0  0
  -22.0305  -45.3805   -9.2136 C   0  0  0  0  0  0  0  0  0  0  0  0
  -21.7682  -45.8758   -7.8646 C   0  0  0  0  0  0  0  0  0  0  0  0
  -21.8377  -44.8435   -6.7789 C   0  0  0  0  0  0  0  0  0  0  0  0
  -23.2380  -44.3694   -6.4834 C   0  0  0  0  0  0  0  0  0  0  0  0
  -23.4051  -43.0377   -6.2477 O   0  0  0  0  0  0  0  0  0  0  0  0
  -22.5928  -41.9244   -6.0909 C   0  0  0  0  0  0  0  0  0  0  0  0
  -21.9437  -41.1823   -7.0689 C   0  0  0  0  0  0  0  0  0  0  0  0
  -21.1856  -40.1138   -6.6733 C   0  0  0  0  0  0  0  0  0  0  0  0
  -21.1197  -39.8377   -5.2832 C   0  0  0  0  0  0  0  0  0  0  0  0
  -21.7585  -40.5652   -4.3111 C   0  0  0  0  0  0  0  0  0  0  0  0
  -21.6555  -40.2274   -2.8635 C   0  0  0  0  0  0  0  0  0  0  0  0
  -22.4711  -41.5836   -4.7747 N   0  0  0  0  0  0  0  0  0  0  0  0
  -20.3685  -39.1476   -7.4090 C   0  0  0  0  0  0  0  0  0  0  0  0
  -20.4343  -37.8776   -7.1092 O   0  0  0  0  0  0  0  0  0  0  0  0
  -19.4319  -39.3542   -8.4805 N   0  0  0  0  0  0  0  0  0  0  0  0
  -20.3109  -43.4361   -9.4782 C   0  0  0  0  0  0  0  0  0  0  0  0
  1  2  1  0
  2  3  1  0
  2  4  1  0
  4  5  2  0
  5  6  1  0
  6  7  2  0
  7  8  1  0
  8  9  2  0
  8 10  1  0
 10 11  1  0
 10 12  1  0
 10 13  1  0
 13 14  1  0
 14 15  1  0
 15 16  1  1
 15 17  1  0
 17 18  1  6
 18 19  1  0
 19 20  1  0
 20 21  2  0
 21 22  1  0
 21 23  1  0
 23 24  1  0
 23 25  2  0
 25 26  1  0
 26 27  1  0
 27 28  1  0
 28 29  1  0
 29 30  1  0
 30 31  1  0
 31 32  1  0
 32 33  2  0
 33 34  1  0
 34 35  2  0
 35 36  1  0
 35 37  1  0
 33 38  1  0
 38 39  2  0
 38 40  1  0
 25 41  1  0
  9  4  1  0
 37 31  2  0
 40 17  1  0
 41 19  2  0
M  END
$$$$
