
     RDKit          3D

 41 44  0  0  0  0  0  0  0  0999 V2000
  -13.6131  -34.8245  -11.6899 C   0  0  0  0  0  0  0  0  0  0  0  0
  -14.6151  -33.8676  -11.1066 C   0  0  0  0  0  0  0  0  0  0  0  0
  -14.2677  -33.6579   -9.6253 C   0  0  0  0  0  0  0  0  0  0  0  0
  -15.9755  -34.5041  -11.1163 C   0  0  0  0  0  0  0  0  0  0  0  0
  -16.8723  -34.1428  -12.0927 C   0  0  0  0  0  0  0  0  0  0  0  0
  -18.1393  -34.7249  -12.0992 C   0  0  0  0  0  0  0  0  0  0  0  0
  -18.4891  -35.6520  -11.1336 C   0  0  0  0  0  0  0  0  0  0  0  0
  -17.5998  -36.0155  -10.1559 C   0  0  0  0  0  0  0  0  0  0  0  0
  -16.3530  -35.4269  -10.1721 C   0  0  0  0  0  0  0  0  0  0  0  0
  -17.8878  -36.9948   -9.0685 C   0  0  0  0  0  0  0  0  0  0  0  0
  -18.2298  -38.2891   -9.8159 C   0  0  0  0  0  0  0  0  0  0  0  0
  -19.0683  -36.4697   -8.2923 C   0  0  0  0  0  0  0  0  0  0  0  0
  -16.7628  -37.2121   -8.2071 N   0  0  0  0  0  0  0  0  0  0  0  0
  -17.2060  -38.0876   -7.1052 C   0  0  0  0  0  0  0  0  0  0  0  0
  -16.3279  -39.3107   -7.1928 C   0  0  1  0  0  0  0  0  0  0  0  0
  -16.4782  -39.9595   -5.9457 O   0  0  0  0  0  0  0  0  0  0  0  0
  -16.6395  -40.2512   -8.3224 C   0  0  2  0  0  0  0  0  0  0  0  0
  -15.4642  -40.6406   -9.1617 C   0  0  0  0  0  0  0  0  0  0  0  0
  -15.3577  -42.0763   -9.5445 C   0  0  0  0  0  0  0  0  0  0  0  0
  -15.5696  -42.2433  -10.9211 C   0  0  0  0  0  0  0  0  0  0  0  0
  -15.5620  -43.4587  -11.5616 C   0  0  0  0  0  0  0  0  0  0  0  0
  -15.8255  -43.6172  -13.2787 Cl  0  0  0  0  0  0  0  0  0  0  0  0
  -15.3274  -44.5257  -10.7404 C   0  0  0  0  0  0  0  0  0  0  0  0
  -15.3147  -45.7872  -11.3832 O   0  0  0  0  0  0  0  0  0  0  0  0
  -15.1073  -44.4120   -9.3404 C   0  0  0  0  0  0  0  0  0  0  0  0
  -14.8993  -45.7792   -8.8031 C   0  0  0  0  0  0  0  0  0  0  0  0
  -15.3787  -46.1901   -7.4859 C   0  0  0  0  0  0  0  0  0  0  0  0
  -16.7488  -45.7003   -7.1221 C   0  0  0  0  0  0  0  0  0  0  0  0
  -17.8566  -46.3752   -7.8903 C   0  0  0  0  0  0  0  0  0  0  0  0
  -18.8865  -45.5893   -8.3128 O   0  0  0  0  0  0  0  0  0  0  0  0
  -19.2942  -44.2739   -8.1472 C   0  0  0  0  0  0  0  0  0  0  0  0
  -18.8002  -43.1310   -8.7622 C   0  0  0  0  0  0  0  0  0  0  0  0
  -19.3636  -41.9268   -8.4374 C   0  0  0  0  0  0  0  0  0  0  0  0
  -20.4211  -41.9335   -7.4917 C   0  0  0  0  0  0  0  0  0  0  0  0
  -20.9154  -43.0580   -6.8804 C   0  0  0  0  0  0  0  0  0  0  0  0
  -22.0314  -43.0060   -5.8945 C   0  0  0  0  0  0  0  0  0  0  0  0
  -20.3165  -44.1835   -7.2472 N   0  0  0  0  0  0  0  0  0  0  0  0
  -19.0893  -40.5536   -8.8633 C   0  0  0  0  0  0  0  0  0  0  0  0
  -20.0793  -39.7534   -9.1578 O   0  0  0  0  0  0  0  0  0  0  0  0
  -17.8354  -39.8686   -9.0263 N   0  0  0  0  0  0  0  0  0  0  0  0
  -15.1195  -43.1804   -8.7325 C   0  0  0  0  0  0  0  0  0  0  0  0
  1  2  1  0
  2  3  1  0
  2  4  1  0
  4  5  2  0
  5  6  1  0
  6  7  2  0
  7  8  1  0
  8  9  2  0
  8 10  1  0
 10 11  1  0
 10 12  1  0
 10 13  1  0
 13 14  1  0
 14 15  1  0
 15 16  1  1
 15 17  1  0
 17 18  1  6
 18 19  1  0
 19 20  1  0
 20 21  2  0
 21 22  1  0
 21 23  1  0
 23 24  1  0
 23 25  2  0
 25 26  1  0
 26 27  1  0
 27 28  1  0
 28 29  1  0
 29 30  1  0
 30 31  1  0
 31 32  1  0
 32 33  2  0
 33 34  1  0
 34 35  2  0
 35 36  1  0
 35 37  1  0
 33 38  1  0
 38 39  2  0
 38 40  1  0
 25 41  1  0
  9  4  1  0
 37 31  2  0
 40 17  1  0
 41 19  2  0
M  END
$$$$
