
     RDKit          3D

 41 44  0  0  0  0  0  0  0  0999 V2000
  -16.1487  -34.0610  -11.3995 C   0  0  0  0  0  0  0  0  0  0  0  0
  -17.0827  -35.2115  -11.1468 C   0  0  0  0  0  0  0  0  0  0  0  0
  -17.4120  -35.2376   -9.6469 C   0  0  0  0  0  0  0  0  0  0  0  0
  -16.3685  -36.5030  -11.4261 C   0  0  0  0  0  0  0  0  0  0  0  0
  -16.5446  -37.1104  -12.6460 C   0  0  0  0  0  0  0  0  0  0  0  0
  -15.8904  -38.3142  -12.9053 C   0  0  0  0  0  0  0  0  0  0  0  0
  -15.0771  -38.8901  -11.9457 C   0  0  0  0  0  0  0  0  0  0  0  0
  -14.8985  -38.2901  -10.7261 C   0  0  0  0  0  0  0  0  0  0  0  0
  -15.5550  -37.0999  -10.4949 C   0  0  0  0  0  0  0  0  0  0  0  0
  -14.0530  -38.8383   -9.6266 C   0  0  0  0  0  0  0  0  0  0  0  0
  -13.3845  -37.5993   -9.0196 C   0  0  0  0  0  0  0  0  0  0  0  0
  -13.0443  -39.7654  -10.2552 C   0  0  0  0  0  0  0  0  0  0  0  0
  -14.8204  -39.5183   -8.6248 N   0  0  0  0  0  0  0  0  0  0  0  0
  -15.6651  -40.5159   -9.3091 C   0  0  0  0  0  0  0  0  0  0  0  0
  -16.9387  -39.7862   -9.6557 C   0  0  1  0  0  0  0  0  0  0  0  0
  -17.4973  -40.5149  -10.7307 O   0  0  0  0  0  0  0  0  0  0  0  0
  -17.9302  -39.6475   -8.5352 C   0  0  2  0  0  0  0  0  0  0  0  0
  -18.8331  -38.4592   -8.6351 C   0  0  0  0  0  0  0  0  0  0  0  0
  -20.2723  -38.6800   -8.3199 C   0  0  0  0  0  0  0  0  0  0  0  0
  -20.6274  -38.0322   -7.1274 C   0  0  0  0  0  0  0  0  0  0  0  0
  -21.8810  -38.0792   -6.5670 C   0  0  0  0  0  0  0  0  0  0  0  0
  -22.2781  -37.2522   -5.0833 Cl  0  0  0  0  0  0  0  0  0  0  0  0
  -22.7847  -38.8235   -7.2722 C   0  0  0  0  0  0  0  0  0  0  0  0
  -24.0829  -38.8827   -6.7103 O   0  0  0  0  0  0  0  0  0  0  0  0
  -22.4769  -39.4999   -8.4842 C   0  0  0  0  0  0  0  0  0  0  0  0
  -23.7056  -40.1972   -8.9372 C   0  0  0  0  0  0  0  0  0  0  0  0
  -23.6748  -41.4993   -9.5986 C   0  0  0  0  0  0  0  0  0  0  0  0
  -22.7091  -42.4892   -9.0183 C   0  0  0  0  0  0  0  0  0  0  0  0
  -23.1277  -43.0261   -7.6732 C   0  0  0  0  0  0  0  0  0  0  0  0
  -22.1506  -43.1827   -6.7364 O   0  0  0  0  0  0  0  0  0  0  0  0
  -20.7684  -43.0793   -6.6838 C   0  0  0  0  0  0  0  0  0  0  0  0
  -19.9887  -41.9324   -6.6123 C   0  0  0  0  0  0  0  0  0  0  0  0
  -18.6283  -42.0767   -6.5722 C   0  0  0  0  0  0  0  0  0  0  0  0
  -18.1095  -43.3968   -6.6035 C   0  0  0  0  0  0  0  0  0  0  0  0
  -18.8729  -44.5348   -6.6731 C   0  0  0  0  0  0  0  0  0  0  0  0
  -18.2731  -45.8984   -6.7008 C   0  0  0  0  0  0  0  0  0  0  0  0
  -20.1800  -44.3107   -6.7095 N   0  0  0  0  0  0  0  0  0  0  0  0
  -17.5275  -41.1136   -6.5168 C   0  0  0  0  0  0  0  0  0  0  0  0
  -16.5250  -41.3170   -5.7040 O   0  0  0  0  0  0  0  0  0  0  0  0
  -17.3283  -39.8932   -7.2510 N   0  0  0  0  0  0  0  0  0  0  0  0
  -21.2133  -39.4297   -9.0180 C   0  0  0  0  0  0  0  0  0  0  0  0
  1  2  1  0
  2  3  1  0
  2  4  1  0
  4  5  2  0
  5  6  1  0
  6  7  2  0
  7  8  1  0
  8  9  2  0
  8 10  1  0
 10 11  1  0
 10 12  1  0
 10 13  1  0
 13 14  1  0
 14 15  1  0
 15 16  1  6
 15 17  1  0
 17 18  1  1
 18 19  1  0
 19 20  1  0
 20 21  2  0
 21 22  1  0
 21 23  1  0
 23 24  1  0
 23 25  2  0
 25 26  1  0
 26 27  1  0
 27 28  1  0
 28 29  1  0
 29 30  1  0
 30 31  1  0
 31 32  1  0
 32 33  2  0
 33 34  1  0
 34 35  2  0
 35 36  1  0
 35 37  1  0
 33 38  1  0
 38 39  2  0
 38 40  1  0
 25 41  1  0
  9  4  1  0
 37 31  2  0
 40 17  1  0
 41 19  2  0
M  END
$$$$
