
     RDKit          3D

 41 44  0  0  0  0  0  0  0  0999 V2000
  -11.6691  -42.5949   -7.4807 C   0  0  0  0  0  0  0  0  0  0  0  0
  -12.2018  -41.1972   -7.6306 C   0  0  0  0  0  0  0  0  0  0  0  0
  -13.1037  -40.8988   -6.4238 C   0  0  0  0  0  0  0  0  0  0  0  0
  -13.1006  -41.1332   -8.8322 C   0  0  0  0  0  0  0  0  0  0  0  0
  -13.5734  -42.3047   -9.3727 C   0  0  0  0  0  0  0  0  0  0  0  0
  -14.4005  -42.2495  -10.4939 C   0  0  0  0  0  0  0  0  0  0  0  0
  -14.7383  -41.0312  -11.0556 C   0  0  0  0  0  0  0  0  0  0  0  0
  -14.2687  -39.8589  -10.5224 C   0  0  0  0  0  0  0  0  0  0  0  0
  -13.4539  -39.9402   -9.4130 C   0  0  0  0  0  0  0  0  0  0  0  0
  -14.5674  -38.5013  -11.0628 C   0  0  0  0  0  0  0  0  0  0  0  0
  -14.6058  -38.7068  -12.5816 C   0  0  0  0  0  0  0  0  0  0  0  0
  -13.4360  -37.5948  -10.6504 C   0  0  0  0  0  0  0  0  0  0  0  0
  -15.8268  -37.9893  -10.6082 N   0  0  0  0  0  0  0  0  0  0  0  0
  -16.5307  -39.0849   -9.9145 C   0  0  0  0  0  0  0  0  0  0  0  0
  -17.5056  -38.4049   -8.9862 C   0  0  1  0  0  0  0  0  0  0  0  0
  -18.5433  -37.9362   -9.8242 O   0  0  0  0  0  0  0  0  0  0  0  0
  -18.0587  -39.2655   -7.8856 C   0  0  2  0  0  0  0  0  0  0  0  0
  -18.6711  -38.5155   -6.7454 C   0  0  0  0  0  0  0  0  0  0  0  0
  -19.9602  -39.0380   -6.2122 C   0  0  0  0  0  0  0  0  0  0  0  0
  -19.7907  -39.5644   -4.9230 C   0  0  0  0  0  0  0  0  0  0  0  0
  -20.7961  -40.1438   -4.1874 C   0  0  0  0  0  0  0  0  0  0  0  0
  -20.5392  -40.7808   -2.5839 Cl  0  0  0  0  0  0  0  0  0  0  0  0
  -22.0086  -40.1734   -4.8174 C   0  0  0  0  0  0  0  0  0  0  0  0
  -23.0576  -40.7661   -4.0738 O   0  0  0  0  0  0  0  0  0  0  0  0
  -22.2341  -39.6552   -6.1220 C   0  0  0  0  0  0  0  0  0  0  0  0
  -23.6622  -39.8784   -6.4562 C   0  0  0  0  0  0  0  0  0  0  0  0
  -24.1139  -40.2077   -7.8058 C   0  0  0  0  0  0  0  0  0  0  0  0
  -23.2555  -41.1896   -8.5463 C   0  0  0  0  0  0  0  0  0  0  0  0
  -23.3545  -42.5984   -8.0187 C   0  0  0  0  0  0  0  0  0  0  0  0
  -22.1982  -43.3158   -7.9449 O   0  0  0  0  0  0  0  0  0  0  0  0
  -20.8764  -43.1540   -8.3328 C   0  0  0  0  0  0  0  0  0  0  0  0
  -19.8834  -42.3961   -7.7263 C   0  0  0  0  0  0  0  0  0  0  0  0
  -18.6390  -42.3858   -8.2958 C   0  0  0  0  0  0  0  0  0  0  0  0
  -18.4513  -43.1582   -9.4710 C   0  0  0  0  0  0  0  0  0  0  0  0
  -19.4266  -43.9101  -10.0757 C   0  0  0  0  0  0  0  0  0  0  0  0
  -19.1720  -44.7052  -11.3098 C   0  0  0  0  0  0  0  0  0  0  0  0
  -20.6032  -43.8668   -9.4644 N   0  0  0  0  0  0  0  0  0  0  0  0
  -17.3921  -41.7022   -7.9487 C   0  0  0  0  0  0  0  0  0  0  0  0
  -16.2598  -42.3527   -7.9896 O   0  0  0  0  0  0  0  0  0  0  0  0
  -17.1654  -40.3411   -7.5435 N   0  0  0  0  0  0  0  0  0  0  0  0
  -21.2063  -39.0802   -6.8289 C   0  0  0  0  0  0  0  0  0  0  0  0
  1  2  1  0
  2  3  1  0
  2  4  1  0
  4  5  2  0
  5  6  1  0
  6  7  2  0
  7  8  1  0
  8  9  2  0
  8 10  1  0
 10 11  1  0
 10 12  1  0
 10 13  1  0
 13 14  1  0
 14 15  1  0
 15 16  1  6
 15 17  1  0
 17 18  1  1
 18 19  1  0
 19 20  1  0
 20 21  2  0
 21 22  1  0
 21 23  1  0
 23 24  1  0
 23 25  2  0
 25 26  1  0
 26 27  1  0
 27 28  1  0
 28 29  1  0
 29 30  1  0
 30 31  1  0
 31 32  1  0
 32 33  2  0
 33 34  1  0
 34 35  2  0
 35 36  1  0
 35 37  1  0
 33 38  1  0
 38 39  2  0
 38 40  1  0
 25 41  1  0
  9  4  1  0
 37 31  2  0
 40 17  1  0
 41 19  2  0
M  END
$$$$
