
     RDKit          3D

 41 44  0  0  0  0  0  0  0  0999 V2000
  -10.3962  -38.6461  -12.9179 C   0  0  0  0  0  0  0  0  0  0  0  0
  -11.7201  -37.9662  -13.1302 C   0  0  0  0  0  0  0  0  0  0  0  0
  -11.6883  -36.6198  -12.3919 C   0  0  0  0  0  0  0  0  0  0  0  0
  -12.8029  -38.7664  -12.4646 C   0  0  0  0  0  0  0  0  0  0  0  0
  -13.6452  -39.5231  -13.2431 C   0  0  0  0  0  0  0  0  0  0  0  0
  -14.6574  -40.2599  -12.6293 C   0  0  0  0  0  0  0  0  0  0  0  0
  -14.8127  -40.2271  -11.2550 C   0  0  0  0  0  0  0  0  0  0  0  0
  -13.9769  -39.4729  -10.4727 C   0  0  0  0  0  0  0  0  0  0  0  0
  -12.9832  -38.7547  -11.1034 C   0  0  0  0  0  0  0  0  0  0  0  0
  -14.0722  -39.3648   -8.9883 C   0  0  0  0  0  0  0  0  0  0  0  0
  -14.0696  -37.8544   -8.7253 C   0  0  0  0  0  0  0  0  0  0  0  0
  -12.8518  -40.0344   -8.4100 C   0  0  0  0  0  0  0  0  0  0  0  0
  -15.2732  -39.9484   -8.4668 N   0  0  0  0  0  0  0  0  0  0  0  0
  -16.3798  -39.5750   -9.3684 C   0  0  0  0  0  0  0  0  0  0  0  0
  -17.3219  -38.7561   -8.5219 C   0  0  1  0  0  0  0  0  0  0  0  0
  -18.2112  -38.1542   -9.4415 O   0  0  0  0  0  0  0  0  0  0  0  0
  -18.0788  -39.5201   -7.4726 C   0  0  2  0  0  0  0  0  0  0  0  0
  -18.7402  -38.6748   -6.4308 C   0  0  0  0  0  0  0  0  0  0  0  0
  -20.1269  -39.0530   -6.0391 C   0  0  0  0  0  0  0  0  0  0  0  0
  -20.1581  -39.5463   -4.7263 C   0  0  0  0  0  0  0  0  0  0  0  0
  -21.2929  -40.0008   -4.0990 C   0  0  0  0  0  0  0  0  0  0  0  0
  -21.2843  -40.6011   -2.4612 Cl  0  0  0  0  0  0  0  0  0  0  0  0
  -22.4227  -39.9377   -4.8655 C   0  0  0  0  0  0  0  0  0  0  0  0
  -23.6028  -40.4009   -4.2352 O   0  0  0  0  0  0  0  0  0  0  0  0
  -22.4460  -39.4477   -6.2000 C   0  0  0  0  0  0  0  0  0  0  0  0
  -23.8417  -39.5461   -6.6932 C   0  0  0  0  0  0  0  0  0  0  0  0
  -24.1669  -39.8794   -8.0778 C   0  0  0  0  0  0  0  0  0  0  0  0
  -23.3307  -40.9644   -8.6883 C   0  0  0  0  0  0  0  0  0  0  0  0
  -23.6274  -42.3375   -8.1412 C   0  0  0  0  0  0  0  0  0  0  0  0
  -22.5634  -43.1583   -7.9151 O   0  0  0  0  0  0  0  0  0  0  0  0
  -21.1966  -43.1369   -8.1497 C   0  0  0  0  0  0  0  0  0  0  0  0
  -20.2093  -42.4554   -7.4502 C   0  0  0  0  0  0  0  0  0  0  0  0
  -18.9132  -42.5839   -7.8705 C   0  0  0  0  0  0  0  0  0  0  0  0
  -18.6699  -43.4125   -8.9962 C   0  0  0  0  0  0  0  0  0  0  0  0
  -19.6393  -44.0896   -9.6919 C   0  0  0  0  0  0  0  0  0  0  0  0
  -19.3253  -44.9492  -10.8678 C   0  0  0  0  0  0  0  0  0  0  0  0
  -20.8678  -43.9128   -9.2236 N   0  0  0  0  0  0  0  0  0  0  0  0
  -17.6528  -42.0098   -7.3970 C   0  0  0  0  0  0  0  0  0  0  0  0
  -16.5928  -42.7660   -7.2892 O   0  0  0  0  0  0  0  0  0  0  0  0
  -17.3407  -40.6627   -7.0020 N   0  0  0  0  0  0  0  0  0  0  0  0
  -21.2927  -38.9988   -6.7959 C   0  0  0  0  0  0  0  0  0  0  0  0
  1  2  1  0
  2  3  1  0
  2  4  1  0
  4  5  2  0
  5  6  1  0
  6  7  2  0
  7  8  1  0
  8  9  2  0
  8 10  1  0
 10 11  1  0
 10 12  1  0
 10 13  1  0
 13 14  1  0
 14 15  1  0
 15 16  1  6
 15 17  1  0
 17 18  1  1
 18 19  1  0
 19 20  1  0
 20 21  2  0
 21 22  1  0
 21 23  1  0
 23 24  1  0
 23 25  2  0
 25 26  1  0
 26 27  1  0
 27 28  1  0
 28 29  1  0
 29 30  1  0
 30 31  1  0
 31 32  1  0
 32 33  2  0
 33 34  1  0
 34 35  2  0
 35 36  1  0
 35 37  1  0
 33 38  1  0
 38 39  2  0
 38 40  1  0
 25 41  1  0
  9  4  1  0
 37 31  2  0
 40 17  1  0
 41 19  2  0
M  END
$$$$
