
     RDKit          3D

 41 44  0  0  0  0  0  0  0  0999 V2000
  -24.2271  -38.5107   -5.2198 C   0  0  0  0  0  0  0  0  0  0  0  0
  -24.1080  -39.6545   -6.1880 C   0  0  0  0  0  0  0  0  0  0  0  0
  -24.6453  -40.9186   -5.5008 C   0  0  0  0  0  0  0  0  0  0  0  0
  -22.6562  -39.9281   -6.4590 C   0  0  0  0  0  0  0  0  0  0  0  0
  -22.2537  -40.1653   -7.7512 C   0  0  0  0  0  0  0  0  0  0  0  0
  -20.9083  -40.4288   -8.0052 C   0  0  0  0  0  0  0  0  0  0  0  0
  -19.9917  -40.4535   -6.9692 C   0  0  0  0  0  0  0  0  0  0  0  0
  -20.3870  -40.2194   -5.6777 C   0  0  0  0  0  0  0  0  0  0  0  0
  -21.7224  -39.9598   -5.4529 C   0  0  0  0  0  0  0  0  0  0  0  0
  -19.4774  -40.2360   -4.4958 C   0  0  0  0  0  0  0  0  0  0  0  0
  -19.0738  -41.7087   -4.3589 C   0  0  0  0  0  0  0  0  0  0  0  0
  -20.2757  -39.7631   -3.3080 C   0  0  0  0  0  0  0  0  0  0  0  0
  -18.3098  -39.4261   -4.6846 N   0  0  0  0  0  0  0  0  0  0  0  0
  -17.5158  -40.0325   -5.7704 C   0  0  0  0  0  0  0  0  0  0  0  0
  -17.5030  -39.0046   -6.8740 C   0  0  1  0  0  0  0  0  0  0  0  0
  -16.1356  -38.8047   -7.1724 O   0  0  0  0  0  0  0  0  0  0  0  0
  -18.2688  -39.3756   -8.1124 C   0  0  2  0  0  0  0  0  0  0  0  0
  -18.7664  -38.2172   -8.9174 C   0  0  0  0  0  0  0  0  0  0  0  0
  -18.6138  -38.3112  -10.3962 C   0  0  0  0  0  0  0  0  0  0  0  0
  -19.8634  -38.4428  -11.0199 C   0  0  0  0  0  0  0  0  0  0  0  0
  -20.0391  -38.5798  -12.3756 C   0  0  0  0  0  0  0  0  0  0  0  0
  -21.6148  -38.7352  -13.1076 Cl  0  0  0  0  0  0  0  0  0  0  0  0
  -18.8776  -38.5797  -13.0960 C   0  0  0  0  0  0  0  0  0  0  0  0
  -19.0389  -38.7188  -14.4958 O   0  0  0  0  0  0  0  0  0  0  0  0
  -17.5868  -38.4503  -12.5142 C   0  0  0  0  0  0  0  0  0  0  0  0
  -16.5894  -38.5026  -13.6112 C   0  0  0  0  0  0  0  0  0  0  0  0
  -15.2832  -39.1388  -13.4594 C   0  0  0  0  0  0  0  0  0  0  0  0
  -15.2871  -40.4373  -12.7090 C   0  0  0  0  0  0  0  0  0  0  0  0
  -15.9091  -41.5771  -13.4750 C   0  0  0  0  0  0  0  0  0  0  0  0
  -16.7034  -42.4347  -12.7746 O   0  0  0  0  0  0  0  0  0  0  0  0
  -17.0545  -42.6400  -11.4485 C   0  0  0  0  0  0  0  0  0  0  0  0
  -17.9581  -41.9262  -10.6724 C   0  0  0  0  0  0  0  0  0  0  0  0
  -18.1426  -42.3144   -9.3730 C   0  0  0  0  0  0  0  0  0  0  0  0
  -17.3945  -43.4277   -8.9107 C   0  0  0  0  0  0  0  0  0  0  0  0
  -16.5007  -44.1385   -9.6712 C   0  0  0  0  0  0  0  0  0  0  0  0
  -15.7430  -45.3030   -9.1329 C   0  0  0  0  0  0  0  0  0  0  0  0
  -16.3780  -43.6998  -10.9171 N   0  0  0  0  0  0  0  0  0  0  0  0
  -18.9776  -41.7947   -8.2890 C   0  0  0  0  0  0  0  0  0  0  0  0
  -19.6527  -42.6203   -7.5343 O   0  0  0  0  0  0  0  0  0  0  0  0
  -19.2067  -40.4394   -7.8663 N   0  0  0  0  0  0  0  0  0  0  0  0
  -17.4477  -38.3127  -11.1546 C   0  0  0  0  0  0  0  0  0  0  0  0
  1  2  1  0
  2  3  1  0
  2  4  1  0
  4  5  2  0
  5  6  1  0
  6  7  2  0
  7  8  1  0
  8  9  2  0
  8 10  1  0
 10 11  1  0
 10 12  1  0
 10 13  1  0
 13 14  1  0
 14 15  1  0
 15 16  1  6
 15 17  1  0
 17 18  1  1
 18 19  1  0
 19 20  1  0
 20 21  2  0
 21 22  1  0
 21 23  1  0
 23 24  1  0
 23 25  2  0
 25 26  1  0
 26 27  1  0
 27 28  1  0
 28 29  1  0
 29 30  1  0
 30 31  1  0
 31 32  1  0
 32 33  2  0
 33 34  1  0
 34 35  2  0
 35 36  1  0
 35 37  1  0
 33 38  1  0
 38 39  2  0
 38 40  1  0
 25 41  1  0
  9  4  1  0
 37 31  2  0
 40 17  1  0
 41 19  2  0
M  END
$$$$
