
     RDKit          3D

 41 44  0  0  0  0  0  0  0  0999 V2000
  -11.5640  -34.9931  -10.6281 C   0  0  0  0  0  0  0  0  0  0  0  0
  -12.2006  -34.6613  -11.9489 C   0  0  0  0  0  0  0  0  0  0  0  0
  -13.1211  -33.4492  -11.7433 C   0  0  0  0  0  0  0  0  0  0  0  0
  -13.1029  -35.7881  -12.3637 C   0  0  0  0  0  0  0  0  0  0  0  0
  -13.5150  -35.8634  -13.6723 C   0  0  0  0  0  0  0  0  0  0  0  0
  -14.3602  -36.9029  -14.0587 C   0  0  0  0  0  0  0  0  0  0  0  0
  -14.7800  -37.8441  -13.1358 C   0  0  0  0  0  0  0  0  0  0  0  0
  -14.3739  -37.7738  -11.8284 C   0  0  0  0  0  0  0  0  0  0  0  0
  -13.5372  -36.7375  -11.4718 C   0  0  0  0  0  0  0  0  0  0  0  0
  -14.7812  -38.7322  -10.7607 C   0  0  0  0  0  0  0  0  0  0  0  0
  -13.7635  -38.4928   -9.6393 C   0  0  0  0  0  0  0  0  0  0  0  0
  -14.6630  -40.1209  -11.3348 C   0  0  0  0  0  0  0  0  0  0  0  0
  -16.1078  -38.4889  -10.2752 N   0  0  0  0  0  0  0  0  0  0  0  0
  -16.3325  -39.3812   -9.1218 C   0  0  0  0  0  0  0  0  0  0  0  0
  -17.7877  -39.7699   -9.1987 C   0  0  1  0  0  0  0  0  0  0  0  0
  -17.8169  -40.9184  -10.0227 O   0  0  0  0  0  0  0  0  0  0  0  0
  -18.4545  -40.0443   -7.8805 C   0  0  2  0  0  0  0  0  0  0  0  0
  -19.2392  -38.9007   -7.3202 C   0  0  0  0  0  0  0  0  0  0  0  0
  -20.5701  -39.2222   -6.7331 C   0  0  0  0  0  0  0  0  0  0  0  0
  -20.5578  -39.0462   -5.3415 C   0  0  0  0  0  0  0  0  0  0  0  0
  -21.6329  -39.2933   -4.5225 C   0  0  0  0  0  0  0  0  0  0  0  0
  -21.5725  -39.0546   -2.7956 Cl  0  0  0  0  0  0  0  0  0  0  0  0
  -22.7482  -39.7362   -5.1768 C   0  0  0  0  0  0  0  0  0  0  0  0
  -23.8672  -39.9952   -4.3489 O   0  0  0  0  0  0  0  0  0  0  0  0
  -22.8136  -39.9320   -6.5834 C   0  0  0  0  0  0  0  0  0  0  0  0
  -24.1756  -40.4222   -6.9085 C   0  0  0  0  0  0  0  0  0  0  0  0
  -24.4307  -41.4000   -7.9634 C   0  0  0  0  0  0  0  0  0  0  0  0
  -23.4484  -42.5307   -8.0391 C   0  0  0  0  0  0  0  0  0  0  0  0
  -23.5701  -43.5153   -6.9039 C   0  0  0  0  0  0  0  0  0  0  0  0
  -22.4110  -43.9962   -6.3729 O   0  0  0  0  0  0  0  0  0  0  0  0
  -21.0552  -43.9164   -6.6545 C   0  0  0  0  0  0  0  0  0  0  0  0
  -20.1785  -42.8704   -6.3984 C   0  0  0  0  0  0  0  0  0  0  0  0
  -18.8699  -43.0173   -6.7713 C   0  0  0  0  0  0  0  0  0  0  0  0
  -18.5004  -44.2374   -7.3939 C   0  0  0  0  0  0  0  0  0  0  0  0
  -19.3600  -45.2757   -7.6496 C   0  0  0  0  0  0  0  0  0  0  0  0
  -18.9155  -46.5375   -8.3055 C   0  0  0  0  0  0  0  0  0  0  0  0
  -20.6089  -45.0556   -7.2597 N   0  0  0  0  0  0  0  0  0  0  0  0
  -17.7045  -42.1365   -6.6781 C   0  0  0  0  0  0  0  0  0  0  0  0
  -16.5559  -42.6165   -6.2815 O   0  0  0  0  0  0  0  0  0  0  0  0
  -17.5798  -40.7336   -6.9685 N   0  0  0  0  0  0  0  0  0  0  0  0
  -21.7200  -39.6729   -7.3730 C   0  0  0  0  0  0  0  0  0  0  0  0
  1  2  1  0
  2  3  1  0
  2  4  1  0
  4  5  2  0
  5  6  1  0
  6  7  2  0
  7  8  1  0
  8  9  2  0
  8 10  1  0
 10 11  1  0
 10 12  1  0
 10 13  1  0
 13 14  1  0
 14 15  1  0
 15 16  1  6
 15 17  1  0
 17 18  1  1
 18 19  1  0
 19 20  1  0
 20 21  2  0
 21 22  1  0
 21 23  1  0
 23 24  1  0
 23 25  2  0
 25 26  1  0
 26 27  1  0
 27 28  1  0
 28 29  1  0
 29 30  1  0
 30 31  1  0
 31 32  1  0
 32 33  2  0
 33 34  1  0
 34 35  2  0
 35 36  1  0
 35 37  1  0
 33 38  1  0
 38 39  2  0
 38 40  1  0
 25 41  1  0
  9  4  1  0
 37 31  2  0
 40 17  1  0
 41 19  2  0
M  END
$$$$
