
     RDKit          3D

 41 44  0  0  0  0  0  0  0  0999 V2000
  -23.7652  -38.2075   -8.8484 C   0  0  0  0  0  0  0  0  0  0  0  0
  -22.6161  -38.8321   -9.5896 C   0  0  0  0  0  0  0  0  0  0  0  0
  -22.8576  -40.3475   -9.6536 C   0  0  0  0  0  0  0  0  0  0  0  0
  -21.3555  -38.6572   -8.7921 C   0  0  0  0  0  0  0  0  0  0  0  0
  -20.2595  -38.0893   -9.3957 C   0  0  0  0  0  0  0  0  0  0  0  0
  -19.0847  -37.9339   -8.6610 C   0  0  0  0  0  0  0  0  0  0  0  0
  -19.0231  -38.3486   -7.3426 C   0  0  0  0  0  0  0  0  0  0  0  0
  -20.1123  -38.9175   -6.7350 C   0  0  0  0  0  0  0  0  0  0  0  0
  -21.2624  -39.0587   -7.4822 C   0  0  0  0  0  0  0  0  0  0  0  0
  -20.1393  -39.4050   -5.3257 C   0  0  0  0  0  0  0  0  0  0  0  0
  -20.7937  -40.7879   -5.4240 C   0  0  0  0  0  0  0  0  0  0  0  0
  -20.9856  -38.4418   -4.5334 C   0  0  0  0  0  0  0  0  0  0  0  0
  -18.8291  -39.5251   -4.7564 N   0  0  0  0  0  0  0  0  0  0  0  0
  -17.9692  -40.1950   -5.7507 C   0  0  0  0  0  0  0  0  0  0  0  0
  -17.4389  -39.0878   -6.6267 C   0  0  1  0  0  0  0  0  0  0  0  0
  -16.0375  -39.1134   -6.4412 O   0  0  0  0  0  0  0  0  0  0  0  0
  -17.7842  -39.1949   -8.0851 C   0  0  2  0  0  0  0  0  0  0  0  0
  -17.8192  -37.8940   -8.8225 C   0  0  0  0  0  0  0  0  0  0  0  0
  -17.1905  -37.8695  -10.1728 C   0  0  0  0  0  0  0  0  0  0  0  0
  -18.1618  -37.7161  -11.1732 C   0  0  0  0  0  0  0  0  0  0  0  0
  -17.8862  -37.6874  -12.5189 C   0  0  0  0  0  0  0  0  0  0  0  0
  -19.1279  -37.4890  -13.7279 Cl  0  0  0  0  0  0  0  0  0  0  0  0
  -16.5610  -37.8235  -12.8246 C   0  0  0  0  0  0  0  0  0  0  0  0
  -16.2575  -37.7952  -14.2072 O   0  0  0  0  0  0  0  0  0  0  0  0
  -15.5376  -37.9823  -11.8506 C   0  0  0  0  0  0  0  0  0  0  0  0
  -14.2452  -38.1040  -12.5688 C   0  0  0  0  0  0  0  0  0  0  0  0
  -13.1658  -38.9735  -12.1076 C   0  0  0  0  0  0  0  0  0  0  0  0
  -13.5984  -40.3174  -11.6015 C   0  0  0  0  0  0  0  0  0  0  0  0
  -14.0735  -41.2489  -12.6875 C   0  0  0  0  0  0  0  0  0  0  0  0
  -15.1659  -42.0159  -12.4130 O   0  0  0  0  0  0  0  0  0  0  0  0
  -15.9684  -42.2833  -11.3138 C   0  0  0  0  0  0  0  0  0  0  0  0
  -16.9757  -41.4994  -10.7667 C   0  0  0  0  0  0  0  0  0  0  0  0
  -17.6387  -41.9729   -9.6671 C   0  0  0  0  0  0  0  0  0  0  0  0
  -17.2486  -43.2409   -9.1641 C   0  0  0  0  0  0  0  0  0  0  0  0
  -16.2555  -44.0217   -9.6992 C   0  0  0  0  0  0  0  0  0  0  0  0
  -15.8889  -45.3489   -9.1298 C   0  0  0  0  0  0  0  0  0  0  0  0
  -15.6611  -43.4929  -10.7608 N   0  0  0  0  0  0  0  0  0  0  0  0
  -18.7122  -41.4211   -8.8392 C   0  0  0  0  0  0  0  0  0  0  0  0
  -19.7076  -42.1831   -8.4711 O   0  0  0  0  0  0  0  0  0  0  0  0
  -18.8850  -40.0942   -8.3124 N   0  0  0  0  0  0  0  0  0  0  0  0
  -15.8485  -38.0043  -10.5128 C   0  0  0  0  0  0  0  0  0  0  0  0
  1  2  1  0
  2  3  1  0
  2  4  1  0
  4  5  2  0
  5  6  1  0
  6  7  2  0
  7  8  1  0
  8  9  2  0
  8 10  1  0
 10 11  1  0
 10 12  1  0
 10 13  1  0
 13 14  1  0
 14 15  1  0
 15 16  1  6
 15 17  1  0
 17 18  1  1
 18 19  1  0
 19 20  1  0
 20 21  2  0
 21 22  1  0
 21 23  1  0
 23 24  1  0
 23 25  2  0
 25 26  1  0
 26 27  1  0
 27 28  1  0
 28 29  1  0
 29 30  1  0
 30 31  1  0
 31 32  1  0
 32 33  2  0
 33 34  1  0
 34 35  2  0
 35 36  1  0
 35 37  1  0
 33 38  1  0
 38 39  2  0
 38 40  1  0
 25 41  1  0
  9  4  1  0
 37 31  2  0
 40 17  1  0
 41 19  2  0
M  END
$$$$
