
     RDKit          3D

 41 44  0  0  0  0  0  0  0  0999 V2000
  -22.0537  -44.5151   -6.5077 C   0  0  0  0  0  0  0  0  0  0  0  0
  -21.0046  -43.7358   -5.7649 C   0  0  0  0  0  0  0  0  0  0  0  0
  -20.9264  -44.2863   -4.3332 C   0  0  0  0  0  0  0  0  0  0  0  0
  -21.4508  -42.3084   -5.6250 C   0  0  0  0  0  0  0  0  0  0  0  0
  -22.7033  -42.0489   -5.1232 C   0  0  0  0  0  0  0  0  0  0  0  0
  -23.1243  -40.7253   -5.0007 C   0  0  0  0  0  0  0  0  0  0  0  0
  -22.2924  -39.6877   -5.3819 C   0  0  0  0  0  0  0  0  0  0  0  0
  -21.0423  -39.9397   -5.8848 C   0  0  0  0  0  0  0  0  0  0  0  0
  -20.6490  -41.2567   -5.9946 C   0  0  0  0  0  0  0  0  0  0  0  0
  -20.0806  -38.8914   -6.3322 C   0  0  0  0  0  0  0  0  0  0  0  0
  -20.9605  -37.6593   -6.5736 C   0  0  0  0  0  0  0  0  0  0  0  0
  -19.4435  -39.3811   -7.6075 C   0  0  0  0  0  0  0  0  0  0  0  0
  -19.0863  -38.5942   -5.3433 N   0  0  0  0  0  0  0  0  0  0  0  0
  -18.0055  -39.5889   -5.4828 C   0  0  0  0  0  0  0  0  0  0  0  0
  -17.0394  -38.9886   -6.4732 C   0  0  1  0  0  0  0  0  0  0  0  0
  -15.8122  -39.6486   -6.2338 O   0  0  0  0  0  0  0  0  0  0  0  0
  -17.4352  -39.1095   -7.9176 C   0  0  2  0  0  0  0  0  0  0  0  0
  -17.6582  -37.8087   -8.6217 C   0  0  0  0  0  0  0  0  0  0  0  0
  -17.0985  -37.6840   -9.9967 C   0  0  0  0  0  0  0  0  0  0  0  0
  -18.1254  -37.6298  -10.9508 C   0  0  0  0  0  0  0  0  0  0  0  0
  -17.9164  -37.5434  -12.3060 C   0  0  0  0  0  0  0  0  0  0  0  0
  -19.2263  -37.4731  -13.4558 Cl  0  0  0  0  0  0  0  0  0  0  0  0
  -16.5996  -37.5138  -12.6711 C   0  0  0  0  0  0  0  0  0  0  0  0
  -16.3645  -37.4237  -14.0644 O   0  0  0  0  0  0  0  0  0  0  0  0
  -15.5216  -37.5666  -11.7457 C   0  0  0  0  0  0  0  0  0  0  0  0
  -14.2577  -37.5190  -12.5212 C   0  0  0  0  0  0  0  0  0  0  0  0
  -13.0627  -38.2611  -12.1273 C   0  0  0  0  0  0  0  0  0  0  0  0
  -13.3089  -39.6563  -11.6353 C   0  0  0  0  0  0  0  0  0  0  0  0
  -13.7182  -40.6178  -12.7219 C   0  0  0  0  0  0  0  0  0  0  0  0
  -14.6980  -41.5153  -12.4192 O   0  0  0  0  0  0  0  0  0  0  0  0
  -15.4124  -41.8974  -11.2934 C   0  0  0  0  0  0  0  0  0  0  0  0
  -16.4801  -41.2502  -10.6854 C   0  0  0  0  0  0  0  0  0  0  0  0
  -17.0316  -41.8202   -9.5700 C   0  0  0  0  0  0  0  0  0  0  0  0
  -16.4709  -43.0413   -9.1144 C   0  0  0  0  0  0  0  0  0  0  0  0
  -15.4171  -43.6873   -9.7098 C   0  0  0  0  0  0  0  0  0  0  0  0
  -14.8697  -44.9712   -9.1883 C   0  0  0  0  0  0  0  0  0  0  0  0
  -14.9386  -43.0714  -10.7830 N   0  0  0  0  0  0  0  0  0  0  0  0
  -18.1246  -41.4166   -8.6841 C   0  0  0  0  0  0  0  0  0  0  0  0
  -19.0045  -42.2993   -8.2920 O   0  0  0  0  0  0  0  0  0  0  0  0
  -18.4301  -40.1300   -8.1190 N   0  0  0  0  0  0  0  0  0  0  0  0
  -15.7668  -37.6505  -10.3968 C   0  0  0  0  0  0  0  0  0  0  0  0
  1  2  1  0
  2  3  1  0
  2  4  1  0
  4  5  2  0
  5  6  1  0
  6  7  2  0
  7  8  1  0
  8  9  2  0
  8 10  1  0
 10 11  1  0
 10 12  1  0
 10 13  1  0
 13 14  1  0
 14 15  1  0
 15 16  1  6
 15 17  1  0
 17 18  1  1
 18 19  1  0
 19 20  1  0
 20 21  2  0
 21 22  1  0
 21 23  1  0
 23 24  1  0
 23 25  2  0
 25 26  1  0
 26 27  1  0
 27 28  1  0
 28 29  1  0
 29 30  1  0
 30 31  1  0
 31 32  1  0
 32 33  2  0
 33 34  1  0
 34 35  2  0
 35 36  1  0
 35 37  1  0
 33 38  1  0
 38 39  2  0
 38 40  1  0
 25 41  1  0
  9  4  1  0
 37 31  2  0
 40 17  1  0
 41 19  2  0
M  END
$$$$
