
     RDKit          3D

 41 44  0  0  0  0  0  0  0  0999 V2000
  -15.7117  -34.2350  -13.1421 C   0  0  0  0  0  0  0  0  0  0  0  0
  -15.8976  -35.0547  -11.8957 C   0  0  0  0  0  0  0  0  0  0  0  0
  -15.5229  -34.1805  -10.6899 C   0  0  0  0  0  0  0  0  0  0  0  0
  -14.9126  -36.1886  -11.8942 C   0  0  0  0  0  0  0  0  0  0  0  0
  -14.1492  -36.4084  -13.0154 C   0  0  0  0  0  0  0  0  0  0  0  0
  -13.2405  -37.4659  -13.0209 C   0  0  0  0  0  0  0  0  0  0  0  0
  -13.1114  -38.2841  -11.9128 C   0  0  0  0  0  0  0  0  0  0  0  0
  -13.8711  -38.0713  -10.7917 C   0  0  0  0  0  0  0  0  0  0  0  0
  -14.7612  -37.0184  -10.8108 C   0  0  0  0  0  0  0  0  0  0  0  0
  -13.8117  -38.9041   -9.5560 C   0  0  0  0  0  0  0  0  0  0  0  0
  -12.7173  -38.2394   -8.7128 C   0  0  0  0  0  0  0  0  0  0  0  0
  -13.4247  -40.2999   -9.9731 C   0  0  0  0  0  0  0  0  0  0  0  0
  -15.0490  -38.9095   -8.8321 N   0  0  0  0  0  0  0  0  0  0  0  0
  -15.5238  -40.3050   -8.7684 C   0  0  0  0  0  0  0  0  0  0  0  0
  -16.9798  -40.2467   -9.1570 C   0  0  1  0  0  0  0  0  0  0  0  0
  -17.1622  -41.3223  -10.0562 O   0  0  0  0  0  0  0  0  0  0  0  0
  -17.9571  -40.3335   -8.0190 C   0  0  2  0  0  0  0  0  0  0  0  0
  -18.6703  -39.0577   -7.7010 C   0  0  0  0  0  0  0  0  0  0  0  0
  -20.1311  -39.1548   -7.4255 C   0  0  0  0  0  0  0  0  0  0  0  0
  -20.4042  -38.8822   -6.0768 C   0  0  0  0  0  0  0  0  0  0  0  0
  -21.6594  -38.9233   -5.5196 C   0  0  0  0  0  0  0  0  0  0  0  0
  -21.9518  -38.5711   -3.8364 Cl  0  0  0  0  0  0  0  0  0  0  0  0
  -22.6530  -39.2587   -6.3961 C   0  0  0  0  0  0  0  0  0  0  0  0
  -23.9542  -39.3050   -5.8400 O   0  0  0  0  0  0  0  0  0  0  0  0
  -22.4307  -39.5447   -7.7709 C   0  0  0  0  0  0  0  0  0  0  0  0
  -23.7426  -39.8700   -8.3826 C   0  0  0  0  0  0  0  0  0  0  0  0
  -23.8965  -40.8783   -9.4284 C   0  0  0  0  0  0  0  0  0  0  0  0
  -23.0992  -42.1330   -9.2302 C   0  0  0  0  0  0  0  0  0  0  0  0
  -23.6148  -43.0080   -8.1160 C   0  0  0  0  0  0  0  0  0  0  0  0
  -22.6871  -43.6004   -7.3127 O   0  0  0  0  0  0  0  0  0  0  0  0
  -21.3060  -43.7236   -7.2760 C   0  0  0  0  0  0  0  0  0  0  0  0
  -20.3647  -42.7888   -6.8655 C   0  0  0  0  0  0  0  0  0  0  0  0
  -19.0420  -43.1363   -6.9195 C   0  0  0  0  0  0  0  0  0  0  0  0
  -18.7263  -44.4366   -7.3911 C   0  0  0  0  0  0  0  0  0  0  0  0
  -19.6502  -45.3659   -7.7975 C   0  0  0  0  0  0  0  0  0  0  0  0
  -19.2608  -46.7199   -8.2825 C   0  0  0  0  0  0  0  0  0  0  0  0
  -20.9082  -44.9529   -7.7161 N   0  0  0  0  0  0  0  0  0  0  0  0
  -17.8105  -42.4153   -6.5941 C   0  0  0  0  0  0  0  0  0  0  0  0
  -16.8628  -43.0151   -5.9240 O   0  0  0  0  0  0  0  0  0  0  0  0
  -17.4193  -41.0664   -6.9029 N   0  0  0  0  0  0  0  0  0  0  0  0
  -21.1625  -39.4921   -8.2957 C   0  0  0  0  0  0  0  0  0  0  0  0
  1  2  1  0
  2  3  1  0
  2  4  1  0
  4  5  2  0
  5  6  1  0
  6  7  2  0
  7  8  1  0
  8  9  2  0
  8 10  1  0
 10 11  1  0
 10 12  1  0
 10 13  1  0
 13 14  1  0
 14 15  1  0
 15 16  1  6
 15 17  1  0
 17 18  1  1
 18 19  1  0
 19 20  1  0
 20 21  2  0
 21 22  1  0
 21 23  1  0
 23 24  1  0
 23 25  2  0
 25 26  1  0
 26 27  1  0
 27 28  1  0
 28 29  1  0
 29 30  1  0
 30 31  1  0
 31 32  1  0
 32 33  2  0
 33 34  1  0
 34 35  2  0
 35 36  1  0
 35 37  1  0
 33 38  1  0
 38 39  2  0
 38 40  1  0
 25 41  1  0
  9  4  1  0
 37 31  2  0
 40 17  1  0
 41 19  2  0
M  END
$$$$
