
     RDKit          3D

 41 44  0  0  0  0  0  0  0  0999 V2000
  -17.1000  -34.2538   -9.9864 C   0  0  0  0  0  0  0  0  0  0  0  0
  -17.0955  -34.5837  -11.4530 C   0  0  0  0  0  0  0  0  0  0  0  0
  -18.5029  -35.0626  -11.8382 C   0  0  0  0  0  0  0  0  0  0  0  0
  -16.1890  -35.7562  -11.6967 C   0  0  0  0  0  0  0  0  0  0  0  0
  -15.6497  -35.9316  -12.9483 C   0  0  0  0  0  0  0  0  0  0  0  0
  -14.8152  -37.0242  -13.1805 C   0  0  0  0  0  0  0  0  0  0  0  0
  -14.5363  -37.9208  -12.1645 C   0  0  0  0  0  0  0  0  0  0  0  0
  -15.0723  -37.7526  -10.9141 C   0  0  0  0  0  0  0  0  0  0  0  0
  -15.8931  -36.6637  -10.7096 C   0  0  0  0  0  0  0  0  0  0  0  0
  -14.8401  -38.6695   -9.7610 C   0  0  0  0  0  0  0  0  0  0  0  0
  -13.3372  -38.9670   -9.8204 C   0  0  0  0  0  0  0  0  0  0  0  0
  -15.6644  -39.9087   -9.9994 C   0  0  0  0  0  0  0  0  0  0  0  0
  -15.1687  -38.0690   -8.5015 N   0  0  0  0  0  0  0  0  0  0  0  0
  -15.0495  -39.1117   -7.4644 C   0  0  0  0  0  0  0  0  0  0  0  0
  -15.9771  -40.2166   -7.9044 C   0  0  1  0  0  0  0  0  0  0  0  0
  -15.8395  -41.2234   -6.9214 O   0  0  0  0  0  0  0  0  0  0  0  0
  -17.4186  -39.8249   -8.0662 C   0  0  2  0  0  0  0  0  0  0  0  0
  -17.8737  -39.6641   -9.4820 C   0  0  0  0  0  0  0  0  0  0  0  0
  -19.2040  -40.2374   -9.8298 C   0  0  0  0  0  0  0  0  0  0  0  0
  -20.1304  -39.2199  -10.1025 C   0  0  0  0  0  0  0  0  0  0  0  0
  -21.4476  -39.4411  -10.4247 C   0  0  0  0  0  0  0  0  0  0  0  0
  -22.5629  -38.1428  -10.7615 Cl  0  0  0  0  0  0  0  0  0  0  0  0
  -21.8037  -40.7601  -10.4615 C   0  0  0  0  0  0  0  0  0  0  0  0
  -23.1577  -41.0078  -10.7930 O   0  0  0  0  0  0  0  0  0  0  0  0
  -20.9054  -41.8290  -10.1931 C   0  0  0  0  0  0  0  0  0  0  0  0
  -21.6615  -43.0986  -10.3245 C   0  0  0  0  0  0  0  0  0  0  0  0
  -21.4116  -44.2571   -9.4705 C   0  0  0  0  0  0  0  0  0  0  0  0
  -21.1814  -43.9463   -8.0215 C   0  0  0  0  0  0  0  0  0  0  0  0
  -22.4242  -43.5017   -7.2930 C   0  0  0  0  0  0  0  0  0  0  0  0
  -22.2882  -42.4813   -6.4001 O   0  0  0  0  0  0  0  0  0  0  0  0
  -21.2495  -41.7435   -5.8517 C   0  0  0  0  0  0  0  0  0  0  0  0
  -20.5317  -40.7018   -6.4245 C   0  0  0  0  0  0  0  0  0  0  0  0
  -19.5378  -40.1186   -5.6862 C   0  0  0  0  0  0  0  0  0  0  0  0
  -19.3132  -40.6218   -4.3789 C   0  0  0  0  0  0  0  0  0  0  0  0
  -20.0183  -41.6497   -3.8056 C   0  0  0  0  0  0  0  0  0  0  0  0
  -19.7403  -42.1365   -2.4251 C   0  0  0  0  0  0  0  0  0  0  0  0
  -20.9622  -42.1618   -4.5846 N   0  0  0  0  0  0  0  0  0  0  0  0
  -18.5912  -39.0389   -5.9703 C   0  0  0  0  0  0  0  0  0  0  0  0
  -18.3647  -38.1184   -5.0711 O   0  0  0  0  0  0  0  0  0  0  0  0
  -17.8007  -38.7871   -7.1449 N   0  0  0  0  0  0  0  0  0  0  0  0
  -19.5938  -41.5718   -9.8761 C   0  0  0  0  0  0  0  0  0  0  0  0
  1  2  1  0
  2  3  1  0
  2  4  1  0
  4  5  2  0
  5  6  1  0
  6  7  2  0
  7  8  1  0
  8  9  2  0
  8 10  1  0
 10 11  1  0
 10 12  1  0
 10 13  1  0
 13 14  1  0
 14 15  1  0
 15 16  1  1
 15 17  1  0
 17 18  1  6
 18 19  1  0
 19 20  1  0
 20 21  2  0
 21 22  1  0
 21 23  1  0
 23 24  1  0
 23 25  2  0
 25 26  1  0
 26 27  1  0
 27 28  1  0
 28 29  1  0
 29 30  1  0
 30 31  1  0
 31 32  1  0
 32 33  2  0
 33 34  1  0
 34 35  2  0
 35 36  1  0
 35 37  1  0
 33 38  1  0
 38 39  2  0
 38 40  1  0
 25 41  1  0
  9  4  1  0
 37 31  2  0
 40 17  1  0
 41 19  2  0
M  END
$$$$
