
     RDKit          3D

 41 44  0  0  0  0  0  0  0  0999 V2000
  -20.8278  -43.4374   -2.1237 C   0  0  0  0  0  0  0  0  0  0  0  0
  -20.7833  -41.9448   -2.2967 C   0  0  0  0  0  0  0  0  0  0  0  0
  -22.1350  -41.3721   -1.8454 C   0  0  0  0  0  0  0  0  0  0  0  0
  -20.6731  -41.6162   -3.7582 C   0  0  0  0  0  0  0  0  0  0  0  0
  -20.7508  -42.6349   -4.6770 C   0  0  0  0  0  0  0  0  0  0  0  0
  -20.6396  -42.3346   -6.0341 C   0  0  0  0  0  0  0  0  0  0  0  0
  -20.4510  -41.0284   -6.4491 C   0  0  0  0  0  0  0  0  0  0  0  0
  -20.3709  -40.0077   -5.5376 C   0  0  0  0  0  0  0  0  0  0  0  0
  -20.4853  -40.3304   -4.2019 C   0  0  0  0  0  0  0  0  0  0  0  0
  -20.1579  -38.5734   -5.8865 C   0  0  0  0  0  0  0  0  0  0  0  0
  -19.7953  -37.9163   -4.5496 C   0  0  0  0  0  0  0  0  0  0  0  0
  -21.4598  -38.0459   -6.4330 C   0  0  0  0  0  0  0  0  0  0  0  0
  -19.0927  -38.3849   -6.8271 N   0  0  0  0  0  0  0  0  0  0  0  0
  -17.8752  -38.9865   -6.2504 C   0  0  0  0  0  0  0  0  0  0  0  0
  -16.7373  -38.4598   -7.0884 C   0  0  1  0  0  0  0  0  0  0  0  0
  -15.6094  -39.2132   -6.6897 O   0  0  0  0  0  0  0  0  0  0  0  0
  -16.9353  -38.5454   -8.5754 C   0  0  2  0  0  0  0  0  0  0  0  0
  -17.7171  -37.4193   -9.1738 C   0  0  0  0  0  0  0  0  0  0  0  0
  -17.2049  -36.8496  -10.4514 C   0  0  0  0  0  0  0  0  0  0  0  0
  -18.0686  -37.1516  -11.5147 C   0  0  0  0  0  0  0  0  0  0  0  0
  -17.8449  -36.7838  -12.8195 C   0  0  0  0  0  0  0  0  0  0  0  0
  -18.9513  -37.1777  -14.1092 Cl  0  0  0  0  0  0  0  0  0  0  0  0
  -16.6879  -36.0832  -13.0158 C   0  0  0  0  0  0  0  0  0  0  0  0
  -16.4408  -35.6945  -14.3546 O   0  0  0  0  0  0  0  0  0  0  0  0
  -15.7785  -35.7516  -11.9744 C   0  0  0  0  0  0  0  0  0  0  0  0
  -14.6511  -35.0017  -12.5808 C   0  0  0  0  0  0  0  0  0  0  0  0
  -13.2729  -35.1382  -12.1162 C   0  0  0  0  0  0  0  0  0  0  0  0
  -12.8418  -36.5380  -11.7940 C   0  0  0  0  0  0  0  0  0  0  0  0
  -12.6662  -37.4122  -13.0096 C   0  0  0  0  0  0  0  0  0  0  0  0
  -13.1047  -38.6991  -12.9167 O   0  0  0  0  0  0  0  0  0  0  0  0
  -13.6120  -39.5302  -11.9289 C   0  0  0  0  0  0  0  0  0  0  0  0
  -14.8945  -39.5593  -11.3973 C   0  0  0  0  0  0  0  0  0  0  0  0
  -15.1680  -40.4752  -10.4177 C   0  0  0  0  0  0  0  0  0  0  0  0
  -14.1150  -41.3368  -10.0158 C   0  0  0  0  0  0  0  0  0  0  0  0
  -12.8458  -41.3150  -10.5365 C   0  0  0  0  0  0  0  0  0  0  0  0
  -11.7779  -42.2470  -10.0771 C   0  0  0  0  0  0  0  0  0  0  0  0
  -12.6609  -40.3997  -11.4789 N   0  0  0  0  0  0  0  0  0  0  0  0
  -16.3717  -40.7678   -9.6381 C   0  0  0  0  0  0  0  0  0  0  0  0
  -16.7357  -42.0073   -9.4432 O   0  0  0  0  0  0  0  0  0  0  0  0
  -17.2965  -39.8744   -8.9942 N   0  0  0  0  0  0  0  0  0  0  0  0
  -16.0345  -36.1334  -10.6801 C   0  0  0  0  0  0  0  0  0  0  0  0
  1  2  1  0
  2  3  1  0
  2  4  1  0
  4  5  2  0
  5  6  1  0
  6  7  2  0
  7  8  1  0
  8  9  2  0
  8 10  1  0
 10 11  1  0
 10 12  1  0
 10 13  1  0
 13 14  1  0
 14 15  1  0
 15 16  1  6
 15 17  1  0
 17 18  1  1
 18 19  1  0
 19 20  1  0
 20 21  2  0
 21 22  1  0
 21 23  1  0
 23 24  1  0
 23 25  2  0
 25 26  1  0
 26 27  1  0
 27 28  1  0
 28 29  1  0
 29 30  1  0
 30 31  1  0
 31 32  1  0
 32 33  2  0
 33 34  1  0
 34 35  2  0
 35 36  1  0
 35 37  1  0
 33 38  1  0
 38 39  2  0
 38 40  1  0
 25 41  1  0
  9  4  1  0
 37 31  2  0
 40 17  1  0
 41 19  2  0
M  END
$$$$
