
     RDKit          3D

 41 44  0  0  0  0  0  0  0  0999 V2000
  -10.2970  -39.5619  -12.2735 C   0  0  0  0  0  0  0  0  0  0  0  0
  -10.9988  -40.5503  -11.3845 C   0  0  0  0  0  0  0  0  0  0  0  0
  -10.6592  -41.9633  -11.8815 C   0  0  0  0  0  0  0  0  0  0  0  0
  -12.4840  -40.4077  -11.5565 C   0  0  0  0  0  0  0  0  0  0  0  0
  -13.1767  -41.3994  -12.2081 C   0  0  0  0  0  0  0  0  0  0  0  0
  -14.5543  -41.2659  -12.3778 C   0  0  0  0  0  0  0  0  0  0  0  0
  -15.2138  -40.1482  -11.8985 C   0  0  0  0  0  0  0  0  0  0  0  0
  -14.5284  -39.1544  -11.2490 C   0  0  0  0  0  0  0  0  0  0  0  0
  -13.1674  -39.3108  -11.0926 C   0  0  0  0  0  0  0  0  0  0  0  0
  -15.1480  -37.9101  -10.7085 C   0  0  0  0  0  0  0  0  0  0  0  0
  -16.4950  -37.8204  -11.4350 C   0  0  0  0  0  0  0  0  0  0  0  0
  -14.2405  -36.7624  -11.0710 C   0  0  0  0  0  0  0  0  0  0  0  0
  -15.3610  -37.9681   -9.2921 N   0  0  0  0  0  0  0  0  0  0  0  0
  -16.8081  -37.8116   -9.0508 C   0  0  0  0  0  0  0  0  0  0  0  0
  -17.0413  -38.3632   -7.6666 C   0  0  1  0  0  0  0  0  0  0  0  0
  -17.8444  -37.3973   -7.0179 O   0  0  0  0  0  0  0  0  0  0  0  0
  -17.6893  -39.7177   -7.6107 C   0  0  2  0  0  0  0  0  0  0  0  0
  -17.2902  -40.5604   -6.4410 C   0  0  0  0  0  0  0  0  0  0  0  0
  -18.3781  -41.3028   -5.7450 C   0  0  0  0  0  0  0  0  0  0  0  0
  -18.2520  -42.6844   -5.9528 C   0  0  0  0  0  0  0  0  0  0  0  0
  -19.1257  -43.6224   -5.4584 C   0  0  0  0  0  0  0  0  0  0  0  0
  -18.9254  -45.3324   -5.7385 Cl  0  0  0  0  0  0  0  0  0  0  0  0
  -20.1572  -43.1008   -4.7290 C   0  0  0  0  0  0  0  0  0  0  0  0
  -21.0677  -44.0529   -4.2101 O   0  0  0  0  0  0  0  0  0  0  0  0
  -20.3316  -41.7104   -4.4891 C   0  0  0  0  0  0  0  0  0  0  0  0
  -21.5582  -41.5433   -3.6714 C   0  0  0  0  0  0  0  0  0  0  0  0
  -22.4676  -40.4121   -3.8364 C   0  0  0  0  0  0  0  0  0  0  0  0
  -22.7405  -40.0119   -5.2558 C   0  0  0  0  0  0  0  0  0  0  0  0
  -23.6027  -40.9945   -6.0066 C   0  0  0  0  0  0  0  0  0  0  0  0
  -23.2653  -41.2529   -7.3013 O   0  0  0  0  0  0  0  0  0  0  0  0
  -22.3554  -40.7689   -8.2295 C   0  0  0  0  0  0  0  0  0  0  0  0
  -20.9947  -41.0295   -8.3244 C   0  0  0  0  0  0  0  0  0  0  0  0
  -20.2903  -40.4307   -9.3335 C   0  0  0  0  0  0  0  0  0  0  0  0
  -21.0068  -39.5837  -10.2179 C   0  0  0  0  0  0  0  0  0  0  0  0
  -22.3508  -39.3219  -10.1315 C   0  0  0  0  0  0  0  0  0  0  0  0
  -23.0528  -38.4241  -11.0913 C   0  0  0  0  0  0  0  0  0  0  0  0
  -22.9609  -39.9382   -9.1276 N   0  0  0  0  0  0  0  0  0  0  0  0
  -18.8771  -40.4610   -9.7136 C   0  0  0  0  0  0  0  0  0  0  0  0
  -18.5437  -40.5901  -10.9702 O   0  0  0  0  0  0  0  0  0  0  0  0
  -17.6973  -40.3636   -8.8971 N   0  0  0  0  0  0  0  0  0  0  0  0
  -19.4374  -40.7998   -4.9968 C   0  0  0  0  0  0  0  0  0  0  0  0
  1  2  1  0
  2  3  1  0
  2  4  1  0
  4  5  2  0
  5  6  1  0
  6  7  2  0
  7  8  1  0
  8  9  2  0
  8 10  1  0
 10 11  1  0
 10 12  1  0
 10 13  1  0
 13 14  1  0
 14 15  1  0
 15 16  1  1
 15 17  1  0
 17 18  1  1
 18 19  1  0
 19 20  1  0
 20 21  2  0
 21 22  1  0
 21 23  1  0
 23 24  1  0
 23 25  2  0
 25 26  1  0
 26 27  1  0
 27 28  1  0
 28 29  1  0
 29 30  1  0
 30 31  1  0
 31 32  1  0
 32 33  2  0
 33 34  1  0
 34 35  2  0
 35 36  1  0
 35 37  1  0
 33 38  1  0
 38 39  2  0
 38 40  1  0
 25 41  1  0
  9  4  1  0
 37 31  2  0
 40 17  1  0
 41 19  2  0
M  END
$$$$
