
     RDKit          3D

 41 44  0  0  0  0  0  0  0  0999 V2000
  -14.8367  -33.9591  -10.0512 C   0  0  0  0  0  0  0  0  0  0  0  0
  -14.4935  -34.3487  -11.4620 C   0  0  0  0  0  0  0  0  0  0  0  0
  -15.8048  -34.5016  -12.2467 C   0  0  0  0  0  0  0  0  0  0  0  0
  -13.8614  -35.7112  -11.4623 C   0  0  0  0  0  0  0  0  0  0  0  0
  -12.7869  -35.9462  -12.2860 C   0  0  0  0  0  0  0  0  0  0  0  0
  -12.2035  -37.2126  -12.2956 C   0  0  0  0  0  0  0  0  0  0  0  0
  -12.7019  -38.2194  -11.4882 C   0  0  0  0  0  0  0  0  0  0  0  0
  -13.7745  -37.9921  -10.6654 C   0  0  0  0  0  0  0  0  0  0  0  0
  -14.3326  -36.7313  -10.6731 C   0  0  0  0  0  0  0  0  0  0  0  0
  -14.3885  -39.0145   -9.7699 C   0  0  0  0  0  0  0  0  0  0  0  0
  -13.1890  -39.6589   -9.0653 C   0  0  0  0  0  0  0  0  0  0  0  0
  -15.1167  -40.0007  -10.6469 C   0  0  0  0  0  0  0  0  0  0  0  0
  -15.2733  -38.4403   -8.7992 N   0  0  0  0  0  0  0  0  0  0  0  0
  -15.1634  -39.2411   -7.5649 C   0  0  0  0  0  0  0  0  0  0  0  0
  -16.0299  -40.4530   -7.8000 C   0  0  1  0  0  0  0  0  0  0  0  0
  -16.2268  -41.0166   -6.5184 O   0  0  0  0  0  0  0  0  0  0  0  0
  -17.3473  -40.1859   -8.4714 C   0  0  2  0  0  0  0  0  0  0  0  0
  -17.4392  -40.6535   -9.8893 C   0  0  0  0  0  0  0  0  0  0  0  0
  -18.7006  -41.3363  -10.2916 C   0  0  0  0  0  0  0  0  0  0  0  0
  -19.4319  -40.5454  -11.1901 C   0  0  0  0  0  0  0  0  0  0  0  0
  -20.6519  -40.8991  -11.7138 C   0  0  0  0  0  0  0  0  0  0  0  0
  -21.5232  -39.8843  -12.8336 Cl  0  0  0  0  0  0  0  0  0  0  0  0
  -21.1179  -42.1105  -11.2855 C   0  0  0  0  0  0  0  0  0  0  0  0
  -22.3739  -42.4926  -11.8157 O   0  0  0  0  0  0  0  0  0  0  0  0
  -20.4177  -42.9500  -10.3765 C   0  0  0  0  0  0  0  0  0  0  0  0
  -21.2434  -44.1621  -10.1532 C   0  0  0  0  0  0  0  0  0  0  0  0
  -21.3166  -44.8391   -8.8608 C   0  0  0  0  0  0  0  0  0  0  0  0
  -21.4035  -43.9340   -7.6681 C   0  0  0  0  0  0  0  0  0  0  0  0
  -22.7323  -43.2347   -7.5346 C   0  0  0  0  0  0  0  0  0  0  0  0
  -22.7097  -41.9284   -7.1473 O   0  0  0  0  0  0  0  0  0  0  0  0
  -21.7611  -41.0144   -6.7129 C   0  0  0  0  0  0  0  0  0  0  0  0
  -20.8297  -40.3106   -7.4650 C   0  0  0  0  0  0  0  0  0  0  0  0
  -19.9843  -39.4553   -6.8118 C   0  0  0  0  0  0  0  0  0  0  0  0
  -20.1237  -39.3462   -5.4042 C   0  0  0  0  0  0  0  0  0  0  0  0
  -21.0415  -40.0371   -4.6541 C   0  0  0  0  0  0  0  0  0  0  0  0
  -21.1448  -39.8812   -3.1760 C   0  0  0  0  0  0  0  0  0  0  0  0
  -21.8221  -40.8451   -5.3598 N   0  0  0  0  0  0  0  0  0  0  0  0
  -18.8956  -38.5907   -7.2697 C   0  0  0  0  0  0  0  0  0  0  0  0
  -18.7968  -37.3708   -6.8124 O   0  0  0  0  0  0  0  0  0  0  0  0
  -17.8306  -38.8577   -8.1984 N   0  0  0  0  0  0  0  0  0  0  0  0
  -19.1984  -42.5661   -9.8738 C   0  0  0  0  0  0  0  0  0  0  0  0
  1  2  1  0
  2  3  1  0
  2  4  1  0
  4  5  2  0
  5  6  1  0
  6  7  2  0
  7  8  1  0
  8  9  2  0
  8 10  1  0
 10 11  1  0
 10 12  1  0
 10 13  1  0
 13 14  1  0
 14 15  1  0
 15 16  1  1
 15 17  1  0
 17 18  1  6
 18 19  1  0
 19 20  1  0
 20 21  2  0
 21 22  1  0
 21 23  1  0
 23 24  1  0
 23 25  2  0
 25 26  1  0
 26 27  1  0
 27 28  1  0
 28 29  1  0
 29 30  1  0
 30 31  1  0
 31 32  1  0
 32 33  2  0
 33 34  1  0
 34 35  2  0
 35 36  1  0
 35 37  1  0
 33 38  1  0
 38 39  2  0
 38 40  1  0
 25 41  1  0
  9  4  1  0
 37 31  2  0
 40 17  1  0
 41 19  2  0
M  END
$$$$
