
     RDKit          3D

 41 44  0  0  0  0  0  0  0  0999 V2000
  -21.1794  -41.9052   -3.1606 C   0  0  0  0  0  0  0  0  0  0  0  0
  -22.4665  -41.2967   -3.6433 C   0  0  0  0  0  0  0  0  0  0  0  0
  -23.4811  -42.4306   -3.8517 C   0  0  0  0  0  0  0  0  0  0  0  0
  -22.2524  -40.6916   -5.0012 C   0  0  0  0  0  0  0  0  0  0  0  0
  -23.2923  -40.6874   -5.8994 C   0  0  0  0  0  0  0  0  0  0  0  0
  -23.0943  -40.1349   -7.1641 C   0  0  0  0  0  0  0  0  0  0  0  0
  -21.8662  -39.6003   -7.5104 C   0  0  0  0  0  0  0  0  0  0  0  0
  -20.8241  -39.6028   -6.6198 C   0  0  0  0  0  0  0  0  0  0  0  0
  -21.0457  -40.1536   -5.3753 C   0  0  0  0  0  0  0  0  0  0  0  0
  -19.4637  -39.0618   -6.9041 C   0  0  0  0  0  0  0  0  0  0  0  0
  -19.0538  -38.3806   -5.5932 C   0  0  0  0  0  0  0  0  0  0  0  0
  -19.6013  -38.0691   -8.0300 C   0  0  0  0  0  0  0  0  0  0  0  0
  -18.5188  -40.0872   -7.2368 N   0  0  0  0  0  0  0  0  0  0  0  0
  -17.4610  -40.0713   -6.2083 C   0  0  0  0  0  0  0  0  0  0  0  0
  -16.3787  -39.1814   -6.7663 C   0  0  1  0  0  0  0  0  0  0  0  0
  -15.1709  -39.8716   -6.5144 O   0  0  0  0  0  0  0  0  0  0  0  0
  -16.5051  -38.8462   -8.2256 C   0  0  2  0  0  0  0  0  0  0  0  0
  -16.5210  -37.3834   -8.5380 C   0  0  0  0  0  0  0  0  0  0  0  0
  -15.7095  -36.9364   -9.7045 C   0  0  0  0  0  0  0  0  0  0  0  0
  -16.5365  -36.5050  -10.7523 C   0  0  0  0  0  0  0  0  0  0  0  0
  -16.0747  -36.0624  -11.9682 C   0  0  0  0  0  0  0  0  0  0  0  0
  -17.1421  -35.5301  -13.2411 Cl  0  0  0  0  0  0  0  0  0  0  0  0
  -14.7135  -36.0723  -12.0903 C   0  0  0  0  0  0  0  0  0  0  0  0
  -14.2188  -35.6182  -13.3368 O   0  0  0  0  0  0  0  0  0  0  0  0
  -13.8308  -36.4996  -11.0608 C   0  0  0  0  0  0  0  0  0  0  0  0
  -12.4442  -36.3709  -11.5722 C   0  0  0  0  0  0  0  0  0  0  0  0
  -11.3861  -37.3178  -11.2289 C   0  0  0  0  0  0  0  0  0  0  0  0
  -11.7963  -38.7603  -11.2199 C   0  0  0  0  0  0  0  0  0  0  0  0
  -12.0491  -39.3261  -12.5942 C   0  0  0  0  0  0  0  0  0  0  0  0
  -13.1162  -40.1621  -12.7342 O   0  0  0  0  0  0  0  0  0  0  0  0
  -14.0475  -40.7676  -11.9037 C   0  0  0  0  0  0  0  0  0  0  0  0
  -15.1721  -40.2078  -11.3118 C   0  0  0  0  0  0  0  0  0  0  0  0
  -15.9520  -41.0070  -10.5205 C   0  0  0  0  0  0  0  0  0  0  0  0
  -15.5543  -42.3598  -10.3637 C   0  0  0  0  0  0  0  0  0  0  0  0
  -14.4455  -42.9205  -10.9457 C   0  0  0  0  0  0  0  0  0  0  0  0
  -14.0765  -44.3504  -10.7476 C   0  0  0  0  0  0  0  0  0  0  0  0
  -13.7425  -42.0817  -11.6954 N   0  0  0  0  0  0  0  0  0  0  0  0
  -17.1666  -40.7551   -9.7435 C   0  0  0  0  0  0  0  0  0  0  0  0
  -18.1515  -41.6129   -9.7788 O   0  0  0  0  0  0  0  0  0  0  0  0
  -17.5002  -39.6554   -8.8790 N   0  0  0  0  0  0  0  0  0  0  0  0
  -14.3268  -36.9342   -9.8559 C   0  0  0  0  0  0  0  0  0  0  0  0
  1  2  1  0
  2  3  1  0
  2  4  1  0
  4  5  2  0
  5  6  1  0
  6  7  2  0
  7  8  1  0
  8  9  2  0
  8 10  1  0
 10 11  1  0
 10 12  1  0
 10 13  1  0
 13 14  1  0
 14 15  1  0
 15 16  1  6
 15 17  1  0
 17 18  1  1
 18 19  1  0
 19 20  1  0
 20 21  2  0
 21 22  1  0
 21 23  1  0
 23 24  1  0
 23 25  2  0
 25 26  1  0
 26 27  1  0
 27 28  1  0
 28 29  1  0
 29 30  1  0
 30 31  1  0
 31 32  1  0
 32 33  2  0
 33 34  1  0
 34 35  2  0
 35 36  1  0
 35 37  1  0
 33 38  1  0
 38 39  2  0
 38 40  1  0
 25 41  1  0
  9  4  1  0
 37 31  2  0
 40 17  1  0
 41 19  2  0
M  END
$$$$
