
     RDKit          3D

 41 44  0  0  0  0  0  0  0  0999 V2000
  -11.1545  -42.6344   -9.6529 C   0  0  0  0  0  0  0  0  0  0  0  0
  -11.3658  -41.3976  -10.4809 C   0  0  0  0  0  0  0  0  0  0  0  0
  -10.1913  -40.4429  -10.2200 C   0  0  0  0  0  0  0  0  0  0  0  0
  -12.5893  -40.6754   -9.9938 C   0  0  0  0  0  0  0  0  0  0  0  0
  -13.0915  -40.9801   -8.7516 C   0  0  0  0  0  0  0  0  0  0  0  0
  -14.2327  -40.3183   -8.3000 C   0  0  0  0  0  0  0  0  0  0  0  0
  -14.8521  -39.3694   -9.0937 C   0  0  0  0  0  0  0  0  0  0  0  0
  -14.3573  -39.0620  -10.3346 C   0  0  0  0  0  0  0  0  0  0  0  0
  -13.2271  -39.7291  -10.7575 C   0  0  0  0  0  0  0  0  0  0  0  0
  -14.9603  -38.0647  -11.2652 C   0  0  0  0  0  0  0  0  0  0  0  0
  -14.2214  -38.2977  -12.5882 C   0  0  0  0  0  0  0  0  0  0  0  0
  -14.6774  -36.6957  -10.7014 C   0  0  0  0  0  0  0  0  0  0  0  0
  -16.3678  -38.2620  -11.4516 N   0  0  0  0  0  0  0  0  0  0  0  0
  -16.6470  -39.6983  -11.2615 C   0  0  0  0  0  0  0  0  0  0  0  0
  -18.1371  -39.7875  -11.0458 C   0  0  1  0  0  0  0  0  0  0  0  0
  -18.5488  -40.9137  -11.7947 O   0  0  0  0  0  0  0  0  0  0  0  0
  -18.5772  -39.9110   -9.6145 C   0  0  2  0  0  0  0  0  0  0  0  0
  -19.1137  -38.6530   -9.0085 C   0  0  0  0  0  0  0  0  0  0  0  0
  -20.3418  -38.7790   -8.1747 C   0  0  0  0  0  0  0  0  0  0  0  0
  -20.0551  -38.5356   -6.8233 C   0  0  0  0  0  0  0  0  0  0  0  0
  -20.9826  -38.6074   -5.8122 C   0  0  0  0  0  0  0  0  0  0  0  0
  -20.5805  -38.2906   -4.1446 Cl  0  0  0  0  0  0  0  0  0  0  0  0
  -22.2411  -38.9431   -6.2263 C   0  0  0  0  0  0  0  0  0  0  0  0
  -23.2111  -39.0209   -5.1979 O   0  0  0  0  0  0  0  0  0  0  0  0
  -22.5847  -39.2004   -7.5817 C   0  0  0  0  0  0  0  0  0  0  0  0
  -24.0291  -39.5361   -7.6258 C   0  0  0  0  0  0  0  0  0  0  0  0
  -24.5804  -40.5275   -8.5461 C   0  0  0  0  0  0  0  0  0  0  0  0
  -23.7605  -41.7724   -8.7120 C   0  0  0  0  0  0  0  0  0  0  0  0
  -23.7809  -42.6758   -7.5053 C   0  0  0  0  0  0  0  0  0  0  0  0
  -22.6048  -43.2674   -7.1534 O   0  0  0  0  0  0  0  0  0  0  0  0
  -21.3233  -43.3685   -7.6743 C   0  0  0  0  0  0  0  0  0  0  0  0
  -20.3037  -42.4260   -7.6525 C   0  0  0  0  0  0  0  0  0  0  0  0
  -19.1103  -42.7507   -8.2385 C   0  0  0  0  0  0  0  0  0  0  0  0
  -18.9992  -44.0368   -8.8270 C   0  0  0  0  0  0  0  0  0  0  0  0
  -20.0012  -44.9737   -8.8519 C   0  0  0  0  0  0  0  0  0  0  0  0
  -19.8277  -46.3121   -9.4833 C   0  0  0  0  0  0  0  0  0  0  0  0
  -21.1251  -44.5830   -8.2651 N   0  0  0  0  0  0  0  0  0  0  0  0
  -17.8570  -42.0156   -8.4156 C   0  0  0  0  0  0  0  0  0  0  0  0
  -16.7157  -42.6118   -8.1939 O   0  0  0  0  0  0  0  0  0  0  0  0
  -17.6324  -40.6550   -8.8235 N   0  0  0  0  0  0  0  0  0  0  0  0
  -21.6324  -39.1174   -8.5681 C   0  0  0  0  0  0  0  0  0  0  0  0
  1  2  1  0
  2  3  1  0
  2  4  1  0
  4  5  2  0
  5  6  1  0
  6  7  2  0
  7  8  1  0
  8  9  2  0
  8 10  1  0
 10 11  1  0
 10 12  1  0
 10 13  1  0
 13 14  1  0
 14 15  1  0
 15 16  1  6
 15 17  1  0
 17 18  1  1
 18 19  1  0
 19 20  1  0
 20 21  2  0
 21 22  1  0
 21 23  1  0
 23 24  1  0
 23 25  2  0
 25 26  1  0
 26 27  1  0
 27 28  1  0
 28 29  1  0
 29 30  1  0
 30 31  1  0
 31 32  1  0
 32 33  2  0
 33 34  1  0
 34 35  2  0
 35 36  1  0
 35 37  1  0
 33 38  1  0
 38 39  2  0
 38 40  1  0
 25 41  1  0
  9  4  1  0
 37 31  2  0
 40 17  1  0
 41 19  2  0
M  END
$$$$
