
     RDKit          3D

 41 44  0  0  0  0  0  0  0  0999 V2000
  -22.1693  -37.0987   -8.2820 C   0  0  0  0  0  0  0  0  0  0  0  0
  -21.9693  -38.5830   -8.4116 C   0  0  0  0  0  0  0  0  0  0  0  0
  -21.4558  -39.1142   -7.0652 C   0  0  0  0  0  0  0  0  0  0  0  0
  -20.8694  -38.8526   -9.3982 C   0  0  0  0  0  0  0  0  0  0  0  0
  -21.1945  -39.0602  -10.7171 C   0  0  0  0  0  0  0  0  0  0  0  0
  -20.1768  -39.3201  -11.6340 C   0  0  0  0  0  0  0  0  0  0  0  0
  -18.8576  -39.3706  -11.2204 C   0  0  0  0  0  0  0  0  0  0  0  0
  -18.5265  -39.1661   -9.9060 C   0  0  0  0  0  0  0  0  0  0  0  0
  -19.5508  -38.9095   -9.0193 C   0  0  0  0  0  0  0  0  0  0  0  0
  -17.1379  -39.2119   -9.3638 C   0  0  0  0  0  0  0  0  0  0  0  0
  -17.3304  -39.5378   -7.8781 C   0  0  0  0  0  0  0  0  0  0  0  0
  -16.5331  -37.8455   -9.5618 C   0  0  0  0  0  0  0  0  0  0  0  0
  -16.3344  -40.2236   -9.9847 N   0  0  0  0  0  0  0  0  0  0  0  0
  -16.1824  -41.3290   -9.0193 C   0  0  0  0  0  0  0  0  0  0  0  0
  -16.9756  -42.4734   -9.5986 C   0  0  1  0  0  0  0  0  0  0  0  0
  -16.2129  -43.6291   -9.3133 O   0  0  0  0  0  0  0  0  0  0  0  0
  -18.3770  -42.6190   -9.0765 C   0  0  2  0  0  0  0  0  0  0  0  0
  -19.4486  -42.1376  -10.0026 C   0  0  0  0  0  0  0  0  0  0  0  0
  -20.6575  -42.9976  -10.1365 C   0  0  0  0  0  0  0  0  0  0  0  0
  -21.7782  -42.3762   -9.5657 C   0  0  0  0  0  0  0  0  0  0  0  0
  -23.0299  -42.9402   -9.5119 C   0  0  0  0  0  0  0  0  0  0  0  0
  -24.3967  -42.1264   -8.7959 Cl  0  0  0  0  0  0  0  0  0  0  0  0
  -23.1100  -44.1857  -10.0688 C   0  0  0  0  0  0  0  0  0  0  0  0
  -24.3931  -44.7826  -10.0236 O   0  0  0  0  0  0  0  0  0  0  0  0
  -22.0062  -44.8599  -10.6591 C   0  0  0  0  0  0  0  0  0  0  0  0
  -22.4868  -46.1784  -11.1404 C   0  0  0  0  0  0  0  0  0  0  0  0
  -21.6634  -47.3839  -11.0902 C   0  0  0  0  0  0  0  0  0  0  0  0
  -20.8605  -47.5588   -9.8356 C   0  0  0  0  0  0  0  0  0  0  0  0
  -21.6929  -47.9081   -8.6281 C   0  0  0  0  0  0  0  0  0  0  0  0
  -21.3582  -47.3106   -7.4500 O   0  0  0  0  0  0  0  0  0  0  0  0
  -20.3422  -46.4920   -6.9794 C   0  0  0  0  0  0  0  0  0  0  0  0
  -20.1735  -45.1266   -7.1687 C   0  0  0  0  0  0  0  0  0  0  0  0
  -19.0811  -44.5256   -6.6046 C   0  0  0  0  0  0  0  0  0  0  0  0
  -18.1955  -45.3459   -5.8591 C   0  0  0  0  0  0  0  0  0  0  0  0
  -18.3555  -46.6949   -5.6667 C   0  0  0  0  0  0  0  0  0  0  0  0
  -17.3932  -47.5079   -4.8710 C   0  0  0  0  0  0  0  0  0  0  0  0
  -19.4363  -47.2018   -6.2454 N   0  0  0  0  0  0  0  0  0  0  0  0
  -18.5886  -43.1472   -6.6145 C   0  0  0  0  0  0  0  0  0  0  0  0
  -18.1537  -42.6034   -5.5090 O   0  0  0  0  0  0  0  0  0  0  0  0
  -18.4834  -42.2104   -7.7004 N   0  0  0  0  0  0  0  0  0  0  0  0
  -20.7685  -44.2655  -10.6979 C   0  0  0  0  0  0  0  0  0  0  0  0
  1  2  1  0
  2  3  1  0
  2  4  1  0
  4  5  2  0
  5  6  1  0
  6  7  2  0
  7  8  1  0
  8  9  2  0
  8 10  1  0
 10 11  1  0
 10 12  1  0
 10 13  1  0
 13 14  1  0
 14 15  1  0
 15 16  1  1
 15 17  1  0
 17 18  1  6
 18 19  1  0
 19 20  1  0
 20 21  2  0
 21 22  1  0
 21 23  1  0
 23 24  1  0
 23 25  2  0
 25 26  1  0
 26 27  1  0
 27 28  1  0
 28 29  1  0
 29 30  1  0
 30 31  1  0
 31 32  1  0
 32 33  2  0
 33 34  1  0
 34 35  2  0
 35 36  1  0
 35 37  1  0
 33 38  1  0
 38 39  2  0
 38 40  1  0
 25 41  1  0
  9  4  1  0
 37 31  2  0
 40 17  1  0
 41 19  2  0
M  END
$$$$
