
     RDKit          3D

 41 44  0  0  0  0  0  0  0  0999 V2000
  -15.0967  -33.8739  -11.1765 C   0  0  0  0  0  0  0  0  0  0  0  0
  -16.1380  -34.8784  -11.5844 C   0  0  0  0  0  0  0  0  0  0  0  0
  -16.9506  -35.2559  -10.3370 C   0  0  0  0  0  0  0  0  0  0  0  0
  -15.4619  -36.1453  -12.0246 C   0  0  0  0  0  0  0  0  0  0  0  0
  -15.2553  -36.3577  -13.3664 C   0  0  0  0  0  0  0  0  0  0  0  0
  -14.6363  -37.5370  -13.7792 C   0  0  0  0  0  0  0  0  0  0  0  0
  -14.2380  -38.4813  -12.8500 C   0  0  0  0  0  0  0  0  0  0  0  0
  -14.4427  -38.2764  -11.5101 C   0  0  0  0  0  0  0  0  0  0  0  0
  -15.0553  -37.1019  -11.1274 C   0  0  0  0  0  0  0  0  0  0  0  0
  -14.0598  -39.2382  -10.4365 C   0  0  0  0  0  0  0  0  0  0  0  0
  -13.3241  -38.3719   -9.4075 C   0  0  0  0  0  0  0  0  0  0  0  0
  -13.1467  -40.2643  -11.0573 C   0  0  0  0  0  0  0  0  0  0  0  0
  -15.1944  -39.8646   -9.8242 N   0  0  0  0  0  0  0  0  0  0  0  0
  -15.2621  -39.3985   -8.4259 C   0  0  0  0  0  0  0  0  0  0  0  0
  -16.6525  -38.8377   -8.2617 C   0  0  1  0  0  0  0  0  0  0  0  0
  -17.1768  -38.7688   -9.5729 O   0  0  0  0  0  0  0  0  0  0  0  0
  -17.5656  -39.6244   -7.3646 C   0  0  2  0  0  0  0  0  0  0  0  0
  -18.5497  -38.8054   -6.5911 C   0  0  0  0  0  0  0  0  0  0  0  0
  -19.9440  -39.3245   -6.5154 C   0  0  0  0  0  0  0  0  0  0  0  0
  -20.2521  -39.7400   -5.2115 C   0  0  0  0  0  0  0  0  0  0  0  0
  -21.4551  -40.2904   -4.8405 C   0  0  0  0  0  0  0  0  0  0  0  0
  -21.7953  -40.7881   -3.2036 Cl  0  0  0  0  0  0  0  0  0  0  0  0
  -22.3574  -40.4093   -5.8601 C   0  0  0  0  0  0  0  0  0  0  0  0
  -23.6039  -40.9736   -5.4964 O   0  0  0  0  0  0  0  0  0  0  0  0
  -22.0960  -40.0049   -7.1978 C   0  0  0  0  0  0  0  0  0  0  0  0
  -23.3062  -40.2998   -8.0037 C   0  0  0  0  0  0  0  0  0  0  0  0
  -23.2387  -40.7506   -9.3916 C   0  0  0  0  0  0  0  0  0  0  0  0
  -22.1697  -41.7608   -9.6851 C   0  0  0  0  0  0  0  0  0  0  0  0
  -22.4517  -43.1251   -9.1090 C   0  0  0  0  0  0  0  0  0  0  0  0
  -21.3999  -43.7969   -8.5619 O   0  0  0  0  0  0  0  0  0  0  0  0
  -20.0274  -43.6245   -8.4596 C   0  0  0  0  0  0  0  0  0  0  0  0
  -19.3218  -42.7890   -7.6039 C   0  0  0  0  0  0  0  0  0  0  0  0
  -17.9556  -42.7846   -7.6852 C   0  0  0  0  0  0  0  0  0  0  0  0
  -17.3548  -43.6424   -8.6423 C   0  0  0  0  0  0  0  0  0  0  0  0
  -18.0446  -44.4712   -9.4906 C   0  0  0  0  0  0  0  0  0  0  0  0
  -17.3600  -45.3542  -10.4763 C   0  0  0  0  0  0  0  0  0  0  0  0
  -19.3628  -44.4167   -9.3506 N   0  0  0  0  0  0  0  0  0  0  0  0
  -16.9195  -42.0357   -6.9724 C   0  0  0  0  0  0  0  0  0  0  0  0
  -15.8486  -42.6509   -6.5461 O   0  0  0  0  0  0  0  0  0  0  0  0
  -16.8558  -40.6400   -6.6320 N   0  0  0  0  0  0  0  0  0  0  0  0
  -20.8826  -39.4559   -7.5336 C   0  0  0  0  0  0  0  0  0  0  0  0
  1  2  1  0
  2  3  1  0
  2  4  1  0
  4  5  2  0
  5  6  1  0
  6  7  2  0
  7  8  1  0
  8  9  2  0
  8 10  1  0
 10 11  1  0
 10 12  1  0
 10 13  1  0
 13 14  1  0
 14 15  1  0
 15 16  1  6
 15 17  1  0
 17 18  1  1
 18 19  1  0
 19 20  1  0
 20 21  2  0
 21 22  1  0
 21 23  1  0
 23 24  1  0
 23 25  2  0
 25 26  1  0
 26 27  1  0
 27 28  1  0
 28 29  1  0
 29 30  1  0
 30 31  1  0
 31 32  1  0
 32 33  2  0
 33 34  1  0
 34 35  2  0
 35 36  1  0
 35 37  1  0
 33 38  1  0
 38 39  2  0
 38 40  1  0
 25 41  1  0
  9  4  1  0
 37 31  2  0
 40 17  1  0
 41 19  2  0
M  END
$$$$
