
     RDKit          3D

 41 44  0  0  0  0  0  0  0  0999 V2000
  -24.1323  -38.5820   -8.3453 C   0  0  0  0  0  0  0  0  0  0  0  0
  -22.9728  -39.2290   -7.6405 C   0  0  0  0  0  0  0  0  0  0  0  0
  -22.8691  -38.6193   -6.2347 C   0  0  0  0  0  0  0  0  0  0  0  0
  -21.6957  -38.8563   -8.3377 C   0  0  0  0  0  0  0  0  0  0  0  0
  -21.7409  -38.5015   -9.6644 C   0  0  0  0  0  0  0  0  0  0  0  0
  -20.5560  -38.1639  -10.3172 C   0  0  0  0  0  0  0  0  0  0  0  0
  -19.3509  -38.1883   -9.6382 C   0  0  0  0  0  0  0  0  0  0  0  0
  -19.2986  -38.5429   -8.3150 C   0  0  0  0  0  0  0  0  0  0  0  0
  -20.4841  -38.8709   -7.6919 C   0  0  0  0  0  0  0  0  0  0  0  0
  -18.0493  -38.6098   -7.5033 C   0  0  0  0  0  0  0  0  0  0  0  0
  -17.9529  -37.2236   -6.8556 C   0  0  0  0  0  0  0  0  0  0  0  0
  -16.9081  -38.8619   -8.4552 C   0  0  0  0  0  0  0  0  0  0  0  0
  -18.1027  -39.6199   -6.4875 N   0  0  0  0  0  0  0  0  0  0  0  0
  -16.7232  -40.0840   -6.2455 C   0  0  0  0  0  0  0  0  0  0  0  0
  -16.3429  -40.8592   -7.4820 C   0  0  1  0  0  0  0  0  0  0  0  0
  -15.4595  -41.8647   -7.0267 O   0  0  0  0  0  0  0  0  0  0  0  0
  -17.4880  -41.4630   -8.2447 C   0  0  2  0  0  0  0  0  0  0  0  0
  -17.5313  -41.1145   -9.6987 C   0  0  0  0  0  0  0  0  0  0  0  0
  -17.8448  -42.2206  -10.6461 C   0  0  0  0  0  0  0  0  0  0  0  0
  -19.1057  -42.0340  -11.2319 C   0  0  0  0  0  0  0  0  0  0  0  0
  -19.6786  -42.9065  -12.1254 C   0  0  0  0  0  0  0  0  0  0  0  0
  -21.2489  -42.6298  -12.8330 Cl  0  0  0  0  0  0  0  0  0  0  0  0
  -18.9126  -44.0015  -12.4121 C   0  0  0  0  0  0  0  0  0  0  0  0
  -19.4863  -44.9117  -13.3324 O   0  0  0  0  0  0  0  0  0  0  0  0
  -17.6300  -44.2386  -11.8465 C   0  0  0  0  0  0  0  0  0  0  0  0
  -17.1252  -45.5220  -12.3934 C   0  0  0  0  0  0  0  0  0  0  0  0
  -16.3273  -46.4563  -11.6033 C   0  0  0  0  0  0  0  0  0  0  0  0
  -16.7818  -46.6472  -10.1868 C   0  0  0  0  0  0  0  0  0  0  0  0
  -18.0682  -47.4235  -10.0634 C   0  0  0  0  0  0  0  0  0  0  0  0
  -18.9664  -46.9919   -9.1339 O   0  0  0  0  0  0  0  0  0  0  0  0
  -19.0069  -46.0390   -8.1269 C   0  0  0  0  0  0  0  0  0  0  0  0
  -19.1882  -44.6669   -8.2408 C   0  0  0  0  0  0  0  0  0  0  0  0
  -19.1900  -43.9175   -7.0957 C   0  0  0  0  0  0  0  0  0  0  0  0
  -19.0085  -44.6017   -5.8661 C   0  0  0  0  0  0  0  0  0  0  0  0
  -18.8297  -45.9566   -5.7450 C   0  0  0  0  0  0  0  0  0  0  0  0
  -18.6458  -46.6231   -4.4252 C   0  0  0  0  0  0  0  0  0  0  0  0
  -18.8393  -46.6111   -6.8989 N   0  0  0  0  0  0  0  0  0  0  0  0
  -19.3303  -42.4819   -6.8471 C   0  0  0  0  0  0  0  0  0  0  0  0
  -20.0998  -42.0611   -5.8787 O   0  0  0  0  0  0  0  0  0  0  0  0
  -18.7283  -41.3632   -7.5211 N   0  0  0  0  0  0  0  0  0  0  0  0
  -17.0859  -43.3439  -10.9576 C   0  0  0  0  0  0  0  0  0  0  0  0
  1  2  1  0
  2  3  1  0
  2  4  1  0
  4  5  2  0
  5  6  1  0
  6  7  2  0
  7  8  1  0
  8  9  2  0
  8 10  1  0
 10 11  1  0
 10 12  1  0
 10 13  1  0
 13 14  1  0
 14 15  1  0
 15 16  1  1
 15 17  1  0
 17 18  1  6
 18 19  1  0
 19 20  1  0
 20 21  2  0
 21 22  1  0
 21 23  1  0
 23 24  1  0
 23 25  2  0
 25 26  1  0
 26 27  1  0
 27 28  1  0
 28 29  1  0
 29 30  1  0
 30 31  1  0
 31 32  1  0
 32 33  2  0
 33 34  1  0
 34 35  2  0
 35 36  1  0
 35 37  1  0
 33 38  1  0
 38 39  2  0
 38 40  1  0
 25 41  1  0
  9  4  1  0
 37 31  2  0
 40 17  1  0
 41 19  2  0
M  END
$$$$
