
     RDKit          3D

 41 44  0  0  0  0  0  0  0  0999 V2000
  -22.9897  -42.0687   -5.4036 C   0  0  0  0  0  0  0  0  0  0  0  0
  -22.5789  -41.9211   -6.8421 C   0  0  0  0  0  0  0  0  0  0  0  0
  -21.4005  -42.8713   -7.1013 C   0  0  0  0  0  0  0  0  0  0  0  0
  -22.0391  -40.5375   -7.0661 C   0  0  0  0  0  0  0  0  0  0  0  0
  -22.8535  -39.5898   -7.6375 C   0  0  0  0  0  0  0  0  0  0  0  0
  -22.3526  -38.3069   -7.8554 C   0  0  0  0  0  0  0  0  0  0  0  0
  -21.0519  -37.9938   -7.5030 C   0  0  0  0  0  0  0  0  0  0  0  0
  -20.2337  -38.9349   -6.9340 C   0  0  0  0  0  0  0  0  0  0  0  0
  -20.7530  -40.1955   -6.7277 C   0  0  0  0  0  0  0  0  0  0  0  0
  -18.8175  -38.6963   -6.5319 C   0  0  0  0  0  0  0  0  0  0  0  0
  -18.8534  -38.7462   -5.0000 C   0  0  0  0  0  0  0  0  0  0  0  0
  -18.4312  -37.3298   -7.0372 C   0  0  0  0  0  0  0  0  0  0  0  0
  -17.9237  -39.6996   -7.0314 N   0  0  0  0  0  0  0  0  0  0  0  0
  -16.7075  -39.6708   -6.1965 C   0  0  0  0  0  0  0  0  0  0  0  0
  -15.7355  -38.7910   -6.9420 C   0  0  1  0  0  0  0  0  0  0  0  0
  -14.4616  -39.3414   -6.6714 O   0  0  0  0  0  0  0  0  0  0  0  0
  -15.9647  -38.6837   -8.4230 C   0  0  2  0  0  0  0  0  0  0  0  0
  -15.9813  -37.2875   -8.9595 C   0  0  0  0  0  0  0  0  0  0  0  0
  -15.2519  -37.0491  -10.2363 C   0  0  0  0  0  0  0  0  0  0  0  0
  -16.1476  -36.7642  -11.2775 C   0  0  0  0  0  0  0  0  0  0  0  0
  -15.7706  -36.5286  -12.5776 C   0  0  0  0  0  0  0  0  0  0  0  0
  -16.9213  -36.1725  -13.8394 Cl  0  0  0  0  0  0  0  0  0  0  0  0
  -14.4225  -36.5938  -12.7927 C   0  0  0  0  0  0  0  0  0  0  0  0
  -14.0148  -36.3525  -14.1270 O   0  0  0  0  0  0  0  0  0  0  0  0
  -13.4726  -36.8791  -11.7741 C   0  0  0  0  0  0  0  0  0  0  0  0
  -12.1258  -36.8686  -12.3964 C   0  0  0  0  0  0  0  0  0  0  0  0
  -11.0598  -37.7785  -11.9844 C   0  0  0  0  0  0  0  0  0  0  0  0
  -11.4903  -39.1906  -11.7199 C   0  0  0  0  0  0  0  0  0  0  0  0
  -11.8529  -39.9564  -12.9668 C   0  0  0  0  0  0  0  0  0  0  0  0
  -12.9401  -40.7751  -12.8977 O   0  0  0  0  0  0  0  0  0  0  0  0
  -13.8164  -41.2189  -11.9184 C   0  0  0  0  0  0  0  0  0  0  0  0
  -14.8853  -40.5440  -11.3436 C   0  0  0  0  0  0  0  0  0  0  0  0
  -15.6165  -41.1892  -10.3833 C   0  0  0  0  0  0  0  0  0  0  0  0
  -15.2289  -42.5113  -10.0446 C   0  0  0  0  0  0  0  0  0  0  0  0
  -14.1751  -43.1852  -10.6082 C   0  0  0  0  0  0  0  0  0  0  0  0
  -13.8143  -44.5762  -10.2147 C   0  0  0  0  0  0  0  0  0  0  0  0
  -13.5169  -42.4922  -11.5284 N   0  0  0  0  0  0  0  0  0  0  0  0
  -16.7661  -40.7872   -9.5714 C   0  0  0  0  0  0  0  0  0  0  0  0
  -17.7639  -41.6134   -9.4016 O   0  0  0  0  0  0  0  0  0  0  0  0
  -17.0177  -39.5578   -8.8690 N   0  0  0  0  0  0  0  0  0  0  0  0
  -13.8843  -37.1076  -10.4838 C   0  0  0  0  0  0  0  0  0  0  0  0
  1  2  1  0
  2  3  1  0
  2  4  1  0
  4  5  2  0
  5  6  1  0
  6  7  2  0
  7  8  1  0
  8  9  2  0
  8 10  1  0
 10 11  1  0
 10 12  1  0
 10 13  1  0
 13 14  1  0
 14 15  1  0
 15 16  1  6
 15 17  1  0
 17 18  1  1
 18 19  1  0
 19 20  1  0
 20 21  2  0
 21 22  1  0
 21 23  1  0
 23 24  1  0
 23 25  2  0
 25 26  1  0
 26 27  1  0
 27 28  1  0
 28 29  1  0
 29 30  1  0
 30 31  1  0
 31 32  1  0
 32 33  2  0
 33 34  1  0
 34 35  2  0
 35 36  1  0
 35 37  1  0
 33 38  1  0
 38 39  2  0
 38 40  1  0
 25 41  1  0
  9  4  1  0
 37 31  2  0
 40 17  1  0
 41 19  2  0
M  END
$$$$
