
     RDKit          3D

 41 44  0  0  0  0  0  0  0  0999 V2000
  -22.5567  -41.3922   -3.1214 C   0  0  0  0  0  0  0  0  0  0  0  0
  -22.1525  -39.9866   -3.4689 C   0  0  0  0  0  0  0  0  0  0  0  0
  -23.3202  -39.0536   -3.1156 C   0  0  0  0  0  0  0  0  0  0  0  0
  -21.9795  -39.8718   -4.9565 C   0  0  0  0  0  0  0  0  0  0  0  0
  -23.0485  -40.1486   -5.7741 C   0  0  0  0  0  0  0  0  0  0  0  0
  -22.8889  -40.0521   -7.1559 C   0  0  0  0  0  0  0  0  0  0  0  0
  -21.6693  -39.6847   -7.6959 C   0  0  0  0  0  0  0  0  0  0  0  0
  -20.5983  -39.4088   -6.8860 C   0  0  0  0  0  0  0  0  0  0  0  0
  -20.7822  -39.5100   -5.5232 C   0  0  0  0  0  0  0  0  0  0  0  0
  -19.2444  -39.0172   -7.3737 C   0  0  0  0  0  0  0  0  0  0  0  0
  -19.4573  -37.6262   -7.9824 C   0  0  0  0  0  0  0  0  0  0  0  0
  -18.8332  -40.0257   -8.4157 C   0  0  0  0  0  0  0  0  0  0  0  0
  -18.2759  -38.9449   -6.3193 N   0  0  0  0  0  0  0  0  0  0  0  0
  -17.2037  -39.9097   -6.6301 C   0  0  0  0  0  0  0  0  0  0  0  0
  -16.0455  -39.0734   -7.1136 C   0  0  1  0  0  0  0  0  0  0  0  0
  -14.8900  -39.7595   -6.6744 O   0  0  0  0  0  0  0  0  0  0  0  0
  -15.9924  -38.8376   -8.5965 C   0  0  2  0  0  0  0  0  0  0  0  0
  -15.7720  -37.4147   -9.0017 C   0  0  0  0  0  0  0  0  0  0  0  0
  -14.8045  -37.1730  -10.1083 C   0  0  0  0  0  0  0  0  0  0  0  0
  -15.4650  -36.7154  -11.2582 C   0  0  0  0  0  0  0  0  0  0  0  0
  -14.8384  -36.4345  -12.4482 C   0  0  0  0  0  0  0  0  0  0  0  0
  -15.7015  -35.8619  -13.8518 Cl  0  0  0  0  0  0  0  0  0  0  0  0
  -13.4871  -36.6384  -12.4342 C   0  0  0  0  0  0  0  0  0  0  0  0
  -12.8238  -36.3530  -13.6520 O   0  0  0  0  0  0  0  0  0  0  0  0
  -12.7695  -37.1010  -11.2973 C   0  0  0  0  0  0  0  0  0  0  0  0
  -11.3386  -37.2015  -11.6762 C   0  0  0  0  0  0  0  0  0  0  0  0
  -10.4611  -38.2539  -11.1701 C   0  0  0  0  0  0  0  0  0  0  0  0
  -11.0717  -39.6224  -11.1098 C   0  0  0  0  0  0  0  0  0  0  0  0
  -11.2790  -40.2528  -12.4634 C   0  0  0  0  0  0  0  0  0  0  0  0
  -12.4375  -40.9444  -12.6546 O   0  0  0  0  0  0  0  0  0  0  0  0
  -13.5158  -41.3522  -11.8834 C   0  0  0  0  0  0  0  0  0  0  0  0
  -14.5974  -40.6011  -11.4425 C   0  0  0  0  0  0  0  0  0  0  0  0
  -15.5505  -41.2237  -10.6829 C   0  0  0  0  0  0  0  0  0  0  0  0
  -15.3650  -42.6018  -10.4016 C   0  0  0  0  0  0  0  0  0  0  0  0
  -14.3000  -43.3510  -10.8340 C   0  0  0  0  0  0  0  0  0  0  0  0
  -14.1575  -44.7982  -10.5096 C   0  0  0  0  0  0  0  0  0  0  0  0
  -13.4208  -42.6755  -11.5625 N   0  0  0  0  0  0  0  0  0  0  0  0
  -16.7812  -40.7502  -10.0475 C   0  0  0  0  0  0  0  0  0  0  0  0
  -17.8711  -41.4665  -10.1253 O   0  0  0  0  0  0  0  0  0  0  0  0
  -17.0304  -39.5521   -9.2922 N   0  0  0  0  0  0  0  0  0  0  0  0
  -13.4276  -37.3702  -10.1221 C   0  0  0  0  0  0  0  0  0  0  0  0
  1  2  1  0
  2  3  1  0
  2  4  1  0
  4  5  2  0
  5  6  1  0
  6  7  2  0
  7  8  1  0
  8  9  2  0
  8 10  1  0
 10 11  1  0
 10 12  1  0
 10 13  1  0
 13 14  1  0
 14 15  1  0
 15 16  1  6
 15 17  1  0
 17 18  1  1
 18 19  1  0
 19 20  1  0
 20 21  2  0
 21 22  1  0
 21 23  1  0
 23 24  1  0
 23 25  2  0
 25 26  1  0
 26 27  1  0
 27 28  1  0
 28 29  1  0
 29 30  1  0
 30 31  1  0
 31 32  1  0
 32 33  2  0
 33 34  1  0
 34 35  2  0
 35 36  1  0
 35 37  1  0
 33 38  1  0
 38 39  2  0
 38 40  1  0
 25 41  1  0
  9  4  1  0
 37 31  2  0
 40 17  1  0
 41 19  2  0
M  END
$$$$
