
     RDKit          3D

 41 44  0  0  0  0  0  0  0  0999 V2000
  -12.1559  -41.3740  -14.1628 C   0  0  0  0  0  0  0  0  0  0  0  0
  -11.2705  -40.1963  -13.8644 C   0  0  0  0  0  0  0  0  0  0  0  0
  -10.2933  -40.6045  -12.7520 C   0  0  0  0  0  0  0  0  0  0  0  0
  -12.0988  -39.0846  -13.2866 C   0  0  0  0  0  0  0  0  0  0  0  0
  -12.2523  -37.9251  -14.0077 C   0  0  0  0  0  0  0  0  0  0  0  0
  -13.0129  -36.8874  -13.4703 C   0  0  0  0  0  0  0  0  0  0  0  0
  -13.6029  -37.0232  -12.2263 C   0  0  0  0  0  0  0  0  0  0  0  0
  -13.4524  -38.1766  -11.5010 C   0  0  0  0  0  0  0  0  0  0  0  0
  -12.6969  -39.1883  -12.0549 C   0  0  0  0  0  0  0  0  0  0  0  0
  -14.0385  -38.4118  -10.1499 C   0  0  0  0  0  0  0  0  0  0  0  0
  -12.9250  -37.9907   -9.1839 C   0  0  0  0  0  0  0  0  0  0  0  0
  -14.3434  -39.8841  -10.0427 C   0  0  0  0  0  0  0  0  0  0  0  0
  -15.2135  -37.6259   -9.9119 N   0  0  0  0  0  0  0  0  0  0  0  0
  -15.7189  -37.9724   -8.5697 C   0  0  0  0  0  0  0  0  0  0  0  0
  -17.2214  -37.9760   -8.7005 C   0  0  1  0  0  0  0  0  0  0  0  0
  -17.4708  -38.3179  -10.0495 O   0  0  0  0  0  0  0  0  0  0  0  0
  -17.9492  -38.9073   -7.7727 C   0  0  2  0  0  0  0  0  0  0  0  0
  -18.6202  -38.2443   -6.6117 C   0  0  0  0  0  0  0  0  0  0  0  0
  -19.9934  -38.7117   -6.2724 C   0  0  0  0  0  0  0  0  0  0  0  0
  -19.9996  -39.3965   -5.0482 C   0  0  0  0  0  0  0  0  0  0  0  0
  -21.1168  -39.9681   -4.4889 C   0  0  0  0  0  0  0  0  0  0  0  0
  -21.0774  -40.8064   -2.9596 Cl  0  0  0  0  0  0  0  0  0  0  0  0
  -22.2554  -39.8196   -5.2301 C   0  0  0  0  0  0  0  0  0  0  0  0
  -23.4178  -40.4014   -4.6688 O   0  0  0  0  0  0  0  0  0  0  0  0
  -22.3039  -39.1361   -6.4759 C   0  0  0  0  0  0  0  0  0  0  0  0
  -23.7017  -39.1947   -6.9694 C   0  0  0  0  0  0  0  0  0  0  0  0
  -24.0328  -39.3251   -8.3862 C   0  0  0  0  0  0  0  0  0  0  0  0
  -23.1770  -40.2851   -9.1577 C   0  0  0  0  0  0  0  0  0  0  0  0
  -23.4352  -41.7317   -8.8206 C   0  0  0  0  0  0  0  0  0  0  0  0
  -22.3497  -42.5501   -8.7269 O   0  0  0  0  0  0  0  0  0  0  0  0
  -20.9862  -42.4594   -8.9643 C   0  0  0  0  0  0  0  0  0  0  0  0
  -20.0085  -41.8656   -8.1769 C   0  0  0  0  0  0  0  0  0  0  0  0
  -18.7140  -41.8971   -8.6199 C   0  0  0  0  0  0  0  0  0  0  0  0
  -18.4622  -42.5414   -9.8586 C   0  0  0  0  0  0  0  0  0  0  0  0
  -19.4221  -43.1310  -10.6418 C   0  0  0  0  0  0  0  0  0  0  0  0
  -19.0994  -43.7967  -11.9351 C   0  0  0  0  0  0  0  0  0  0  0  0
  -20.6498  -43.0572  -10.1444 N   0  0  0  0  0  0  0  0  0  0  0  0
  -17.4630  -41.3687   -8.0737 C   0  0  0  0  0  0  0  0  0  0  0  0
  -16.3842  -42.1056   -8.0872 O   0  0  0  0  0  0  0  0  0  0  0  0
  -17.1793  -40.0885   -7.4833 N   0  0  0  0  0  0  0  0  0  0  0  0
  -21.1678  -38.5742   -7.0051 C   0  0  0  0  0  0  0  0  0  0  0  0
  1  2  1  0
  2  3  1  0
  2  4  1  0
  4  5  2  0
  5  6  1  0
  6  7  2  0
  7  8  1  0
  8  9  2  0
  8 10  1  0
 10 11  1  0
 10 12  1  0
 10 13  1  0
 13 14  1  0
 14 15  1  0
 15 16  1  6
 15 17  1  0
 17 18  1  1
 18 19  1  0
 19 20  1  0
 20 21  2  0
 21 22  1  0
 21 23  1  0
 23 24  1  0
 23 25  2  0
 25 26  1  0
 26 27  1  0
 27 28  1  0
 28 29  1  0
 29 30  1  0
 30 31  1  0
 31 32  1  0
 32 33  2  0
 33 34  1  0
 34 35  2  0
 35 36  1  0
 35 37  1  0
 33 38  1  0
 38 39  2  0
 38 40  1  0
 25 41  1  0
  9  4  1  0
 37 31  2  0
 40 17  1  0
 41 19  2  0
M  END
$$$$
