
     RDKit          3D

 41 44  0  0  0  0  0  0  0  0999 V2000
  -16.0273  -34.6627  -13.5377 C   0  0  0  0  0  0  0  0  0  0  0  0
  -17.2952  -34.1664  -12.9004 C   0  0  0  0  0  0  0  0  0  0  0  0
  -16.9312  -33.0213  -11.9438 C   0  0  0  0  0  0  0  0  0  0  0  0
  -17.8734  -35.2484  -12.0339 C   0  0  0  0  0  0  0  0  0  0  0  0
  -19.2035  -35.5669  -12.1657 C   0  0  0  0  0  0  0  0  0  0  0  0
  -19.7457  -36.5645  -11.3564 C   0  0  0  0  0  0  0  0  0  0  0  0
  -18.9551  -37.2226  -10.4313 C   0  0  0  0  0  0  0  0  0  0  0  0
  -17.6279  -36.9085  -10.2936 C   0  0  0  0  0  0  0  0  0  0  0  0
  -17.1153  -35.9197  -11.1065 C   0  0  0  0  0  0  0  0  0  0  0  0
  -16.7003  -37.5525   -9.3193 C   0  0  0  0  0  0  0  0  0  0  0  0
  -16.1085  -36.3747   -8.5363 C   0  0  0  0  0  0  0  0  0  0  0  0
  -15.6468  -38.2795  -10.1152 C   0  0  0  0  0  0  0  0  0  0  0  0
  -17.3728  -38.4456   -8.4221 N   0  0  0  0  0  0  0  0  0  0  0  0
  -16.5310  -38.5884   -7.2188 C   0  0  0  0  0  0  0  0  0  0  0  0
  -16.4990  -40.0684   -6.9305 C   0  0  1  0  0  0  0  0  0  0  0  0
  -16.9802  -40.1942   -5.6071 O   0  0  0  0  0  0  0  0  0  0  0  0
  -17.2965  -40.9279   -7.8701 C   0  0  2  0  0  0  0  0  0  0  0  0
  -16.4822  -41.7912   -8.7807 C   0  0  0  0  0  0  0  0  0  0  0  0
  -16.9437  -43.1953   -8.9664 C   0  0  0  0  0  0  0  0  0  0  0  0
  -17.4211  -43.3958  -10.2702 C   0  0  0  0  0  0  0  0  0  0  0  0
  -17.9394  -44.5828  -10.7286 C   0  0  0  0  0  0  0  0  0  0  0  0
  -18.5169  -44.7869  -12.3619 Cl  0  0  0  0  0  0  0  0  0  0  0  0
  -17.9590  -45.5843   -9.7987 C   0  0  0  0  0  0  0  0  0  0  0  0
  -18.4890  -46.8159  -10.2535 O   0  0  0  0  0  0  0  0  0  0  0  0
  -17.4887  -45.4341   -8.4655 C   0  0  0  0  0  0  0  0  0  0  0  0
  -17.6830  -46.7296   -7.7691 C   0  0  0  0  0  0  0  0  0  0  0  0
  -18.0542  -46.8188   -6.3591 C   0  0  0  0  0  0  0  0  0  0  0  0
  -19.0910  -45.8341   -5.9066 C   0  0  0  0  0  0  0  0  0  0  0  0
  -20.4732  -46.1256   -6.4333 C   0  0  0  0  0  0  0  0  0  0  0  0
  -21.2209  -45.0600   -6.8362 O   0  0  0  0  0  0  0  0  0  0  0  0
  -21.1147  -43.6773   -6.8107 C   0  0  0  0  0  0  0  0  0  0  0  0
  -20.3622  -42.8520   -7.6359 C   0  0  0  0  0  0  0  0  0  0  0  0
  -20.4125  -41.5015   -7.4196 C   0  0  0  0  0  0  0  0  0  0  0  0
  -21.2381  -41.0390   -6.3625 C   0  0  0  0  0  0  0  0  0  0  0  0
  -21.9850  -41.8475   -5.5435 C   0  0  0  0  0  0  0  0  0  0  0  0
  -22.8377  -41.3056   -4.4484 C   0  0  0  0  0  0  0  0  0  0  0  0
  -21.8815  -43.1416   -5.8166 N   0  0  0  0  0  0  0  0  0  0  0  0
  -19.7524  -40.3658   -8.0652 C   0  0  0  0  0  0  0  0  0  0  0  0
  -20.4375  -39.2901   -8.3491 O   0  0  0  0  0  0  0  0  0  0  0  0
  -18.3832  -40.2011   -8.4726 N   0  0  0  0  0  0  0  0  0  0  0  0
  -16.9742  -44.2333   -8.0409 C   0  0  0  0  0  0  0  0  0  0  0  0
  1  2  1  0
  2  3  1  0
  2  4  1  0
  4  5  2  0
  5  6  1  0
  6  7  2  0
  7  8  1  0
  8  9  2  0
  8 10  1  0
 10 11  1  0
 10 12  1  0
 10 13  1  0
 13 14  1  0
 14 15  1  0
 15 16  1  1
 15 17  1  0
 17 18  1  6
 18 19  1  0
 19 20  1  0
 20 21  2  0
 21 22  1  0
 21 23  1  0
 23 24  1  0
 23 25  2  0
 25 26  1  0
 26 27  1  0
 27 28  1  0
 28 29  1  0
 29 30  1  0
 30 31  1  0
 31 32  1  0
 32 33  2  0
 33 34  1  0
 34 35  2  0
 35 36  1  0
 35 37  1  0
 33 38  1  0
 38 39  2  0
 38 40  1  0
 25 41  1  0
  9  4  1  0
 37 31  2  0
 40 17  1  0
 41 19  2  0
M  END
$$$$
