
     RDKit          3D

 41 44  0  0  0  0  0  0  0  0999 V2000
  -24.4941  -39.6538   -6.7027 C   0  0  0  0  0  0  0  0  0  0  0  0
  -23.7832  -39.1959   -7.9456 C   0  0  0  0  0  0  0  0  0  0  0  0
  -24.3545  -39.9784   -9.1373 C   0  0  0  0  0  0  0  0  0  0  0  0
  -22.3351  -39.5861   -7.8630 C   0  0  0  0  0  0  0  0  0  0  0  0
  -22.0020  -40.9188   -7.8973 C   0  0  0  0  0  0  0  0  0  0  0  0
  -20.6594  -41.2850   -7.8115 C   0  0  0  0  0  0  0  0  0  0  0  0
  -19.6763  -40.3190   -7.6909 C   0  0  0  0  0  0  0  0  0  0  0  0
  -20.0019  -38.9879   -7.6544 C   0  0  0  0  0  0  0  0  0  0  0  0
  -21.3362  -38.6517   -7.7425 C   0  0  0  0  0  0  0  0  0  0  0  0
  -19.0167  -37.8770   -7.5153 C   0  0  0  0  0  0  0  0  0  0  0  0
  -19.1121  -37.4794   -6.0377 C   0  0  0  0  0  0  0  0  0  0  0  0
  -19.4663  -36.7615   -8.4238 C   0  0  0  0  0  0  0  0  0  0  0  0
  -17.6773  -38.2830   -7.8254 N   0  0  0  0  0  0  0  0  0  0  0  0
  -17.1797  -39.0858   -6.6919 C   0  0  0  0  0  0  0  0  0  0  0  0
  -15.8084  -39.5545   -7.1097 C   0  0  1  0  0  0  0  0  0  0  0  0
  -15.5180  -40.6438   -6.2566 O   0  0  0  0  0  0  0  0  0  0  0  0
  -15.6737  -39.9573   -8.5510 C   0  0  2  0  0  0  0  0  0  0  0  0
  -14.8465  -39.0350   -9.3893 C   0  0  0  0  0  0  0  0  0  0  0  0
  -13.8864  -39.6672  -10.3367 C   0  0  0  0  0  0  0  0  0  0  0  0
  -14.2873  -39.4618  -11.6653 C   0  0  0  0  0  0  0  0  0  0  0  0
  -13.6157  -39.9523  -12.7589 C   0  0  0  0  0  0  0  0  0  0  0  0
  -14.1497  -39.6666  -14.3948 Cl  0  0  0  0  0  0  0  0  0  0  0  0
  -12.4972  -40.6762  -12.4540 C   0  0  0  0  0  0  0  0  0  0  0  0
  -11.7911  -41.1890  -13.5689 O   0  0  0  0  0  0  0  0  0  0  0  0
  -12.0477  -40.9143  -11.1264 C   0  0  0  0  0  0  0  0  0  0  0  0
  -10.8166  -41.7384  -11.2072 C   0  0  0  0  0  0  0  0  0  0  0  0
  -10.4947  -42.7728  -10.2274 C   0  0  0  0  0  0  0  0  0  0  0  0
  -11.6509  -43.6219   -9.7896 C   0  0  0  0  0  0  0  0  0  0  0  0
  -12.1342  -44.5791  -10.8493 C   0  0  0  0  0  0  0  0  0  0  0  0
  -13.4817  -44.7410  -10.9709 O   0  0  0  0  0  0  0  0  0  0  0  0
  -14.6192  -44.3296  -10.2922 C   0  0  0  0  0  0  0  0  0  0  0  0
  -15.2467  -43.0912  -10.3264 C   0  0  0  0  0  0  0  0  0  0  0  0
  -16.3681  -42.9131   -9.5624 C   0  0  0  0  0  0  0  0  0  0  0  0
  -16.8135  -44.0151   -8.7879 C   0  0  0  0  0  0  0  0  0  0  0  0
  -16.2000  -45.2417   -8.7493 C   0  0  0  0  0  0  0  0  0  0  0  0
  -16.7142  -46.3661   -7.9177 C   0  0  0  0  0  0  0  0  0  0  0  0
  -15.1207  -45.3336   -9.5152 N   0  0  0  0  0  0  0  0  0  0  0  0
  -17.2505  -41.7658   -9.3439 C   0  0  0  0  0  0  0  0  0  0  0  0
  -18.5463  -41.9325   -9.3411 O   0  0  0  0  0  0  0  0  0  0  0  0
  -16.9298  -40.3836   -9.1099 N   0  0  0  0  0  0  0  0  0  0  0  0
  -12.7424  -40.4069  -10.0557 C   0  0  0  0  0  0  0  0  0  0  0  0
  1  2  1  0
  2  3  1  0
  2  4  1  0
  4  5  2  0
  5  6  1  0
  6  7  2  0
  7  8  1  0
  8  9  2  0
  8 10  1  0
 10 11  1  0
 10 12  1  0
 10 13  1  0
 13 14  1  0
 14 15  1  0
 15 16  1  1
 15 17  1  0
 17 18  1  6
 18 19  1  0
 19 20  1  0
 20 21  2  0
 21 22  1  0
 21 23  1  0
 23 24  1  0
 23 25  2  0
 25 26  1  0
 26 27  1  0
 27 28  1  0
 28 29  1  0
 29 30  1  0
 30 31  1  0
 31 32  1  0
 32 33  2  0
 33 34  1  0
 34 35  2  0
 35 36  1  0
 35 37  1  0
 33 38  1  0
 38 39  2  0
 38 40  1  0
 25 41  1  0
  9  4  1  0
 37 31  2  0
 40 17  1  0
 41 19  2  0
M  END
$$$$
