
     RDKit          3D

 41 44  0  0  0  0  0  0  0  0999 V2000
  -12.4716  -33.6344  -11.0668 C   0  0  0  0  0  0  0  0  0  0  0  0
  -13.7335  -34.0835  -11.7494 C   0  0  0  0  0  0  0  0  0  0  0  0
  -14.9027  -33.2727  -11.1712 C   0  0  0  0  0  0  0  0  0  0  0  0
  -14.0144  -35.5134  -11.3855 C   0  0  0  0  0  0  0  0  0  0  0  0
  -13.0023  -36.4371  -11.4871 C   0  0  0  0  0  0  0  0  0  0  0  0
  -13.2620  -37.7671  -11.1590 C   0  0  0  0  0  0  0  0  0  0  0  0
  -14.5230  -38.1514  -10.7392 C   0  0  0  0  0  0  0  0  0  0  0  0
  -15.5376  -37.2353  -10.6372 C   0  0  0  0  0  0  0  0  0  0  0  0
  -15.2549  -35.9264  -10.9660 C   0  0  0  0  0  0  0  0  0  0  0  0
  -16.9292  -37.5548  -10.2063 C   0  0  0  0  0  0  0  0  0  0  0  0
  -17.7874  -37.1904  -11.4234 C   0  0  0  0  0  0  0  0  0  0  0  0
  -17.2437  -36.6806   -9.0194 C   0  0  0  0  0  0  0  0  0  0  0  0
  -17.1043  -38.9405   -9.8837 N   0  0  0  0  0  0  0  0  0  0  0  0
  -16.5394  -39.1613   -8.5386 C   0  0  0  0  0  0  0  0  0  0  0  0
  -17.3469  -40.2909   -7.9499 C   0  0  1  0  0  0  0  0  0  0  0  0
  -17.0062  -40.3083   -6.5779 O   0  0  0  0  0  0  0  0  0  0  0  0
  -18.8351  -40.1831   -8.1269 C   0  0  2  0  0  0  0  0  0  0  0  0
  -19.3415  -40.5910   -9.4740 C   0  0  0  0  0  0  0  0  0  0  0  0
  -20.5741  -41.4270   -9.5039 C   0  0  0  0  0  0  0  0  0  0  0  0
  -21.6533  -40.7069  -10.0373 C   0  0  0  0  0  0  0  0  0  0  0  0
  -22.9270  -41.2059  -10.1646 C   0  0  0  0  0  0  0  0  0  0  0  0
  -24.2379  -40.2738  -10.8397 Cl  0  0  0  0  0  0  0  0  0  0  0  0
  -23.0746  -42.4905   -9.7216 C   0  0  0  0  0  0  0  0  0  0  0  0
  -24.3808  -43.0224   -9.8458 O   0  0  0  0  0  0  0  0  0  0  0  0
  -22.0153  -43.2637   -9.1727 C   0  0  0  0  0  0  0  0  0  0  0  0
  -22.5677  -44.5906   -8.8052 C   0  0  0  0  0  0  0  0  0  0  0  0
  -22.1216  -45.3319   -7.6283 C   0  0  0  0  0  0  0  0  0  0  0  0
  -21.9098  -44.5063   -6.3942 C   0  0  0  0  0  0  0  0  0  0  0  0
  -23.1897  -44.0112   -5.7702 C   0  0  0  0  0  0  0  0  0  0  0  0
  -23.1938  -42.7350   -5.2924 O   0  0  0  0  0  0  0  0  0  0  0  0
  -22.2702  -41.7166   -5.1089 C   0  0  0  0  0  0  0  0  0  0  0  0
  -21.7362  -40.8520   -6.0552 C   0  0  0  0  0  0  0  0  0  0  0  0
  -20.8285  -39.9167   -5.6376 C   0  0  0  0  0  0  0  0  0  0  0  0
  -20.4990  -39.8959   -4.2578 C   0  0  0  0  0  0  0  0  0  0  0  0
  -21.0226  -40.7458   -3.3166 C   0  0  0  0  0  0  0  0  0  0  0  0
  -20.6412  -40.6768   -1.8779 C   0  0  0  0  0  0  0  0  0  0  0  0
  -21.8929  -41.6224   -3.8004 N   0  0  0  0  0  0  0  0  0  0  0  0
  -20.0678  -38.8846   -6.3436 C   0  0  0  0  0  0  0  0  0  0  0  0
  -19.9669  -37.6863   -5.8328 O   0  0  0  0  0  0  0  0  0  0  0  0
  -19.3528  -38.9522   -7.5895 N   0  0  0  0  0  0  0  0  0  0  0  0
  -20.7528  -42.7339   -9.0622 C   0  0  0  0  0  0  0  0  0  0  0  0
  1  2  1  0
  2  3  1  0
  2  4  1  0
  4  5  2  0
  5  6  1  0
  6  7  2  0
  7  8  1  0
  8  9  2  0
  8 10  1  0
 10 11  1  0
 10 12  1  0
 10 13  1  0
 13 14  1  0
 14 15  1  0
 15 16  1  1
 15 17  1  0
 17 18  1  6
 18 19  1  0
 19 20  1  0
 20 21  2  0
 21 22  1  0
 21 23  1  0
 23 24  1  0
 23 25  2  0
 25 26  1  0
 26 27  1  0
 27 28  1  0
 28 29  1  0
 29 30  1  0
 30 31  1  0
 31 32  1  0
 32 33  2  0
 33 34  1  0
 34 35  2  0
 35 36  1  0
 35 37  1  0
 33 38  1  0
 38 39  2  0
 38 40  1  0
 25 41  1  0
  9  4  1  0
 37 31  2  0
 40 17  1  0
 41 19  2  0
M  END
$$$$
