
     RDKit          3D

 41 44  0  0  0  0  0  0  0  0999 V2000
  -13.3940  -35.4453  -10.6794 C   0  0  0  0  0  0  0  0  0  0  0  0
  -12.8375  -36.0145  -11.9546 C   0  0  0  0  0  0  0  0  0  0  0  0
  -13.8024  -35.6601  -13.0958 C   0  0  0  0  0  0  0  0  0  0  0  0
  -12.8411  -37.5143  -11.8736 C   0  0  0  0  0  0  0  0  0  0  0  0
  -12.0489  -38.2294  -12.7391 C   0  0  0  0  0  0  0  0  0  0  0  0
  -12.0569  -39.6221  -12.6729 C   0  0  0  0  0  0  0  0  0  0  0  0
  -12.8539  -40.2748  -11.7495 C   0  0  0  0  0  0  0  0  0  0  0  0
  -13.6478  -39.5674  -10.8843 C   0  0  0  0  0  0  0  0  0  0  0  0
  -13.6210  -38.1914  -10.9688 C   0  0  0  0  0  0  0  0  0  0  0  0
  -14.5473  -40.1800   -9.8645 C   0  0  0  0  0  0  0  0  0  0  0  0
  -13.7726  -41.4101   -9.3775 C   0  0  0  0  0  0  0  0  0  0  0  0
  -15.8243  -40.5661  -10.5660 C   0  0  0  0  0  0  0  0  0  0  0  0
  -14.8125  -39.3030   -8.7621 N   0  0  0  0  0  0  0  0  0  0  0  0
  -15.8398  -38.3370   -9.1963 C   0  0  0  0  0  0  0  0  0  0  0  0
  -16.8133  -38.2502   -8.0476 C   0  0  1  0  0  0  0  0  0  0  0  0
  -17.6457  -37.1497   -8.3554 O   0  0  0  0  0  0  0  0  0  0  0  0
  -17.6335  -39.4845   -7.8001 C   0  0  2  0  0  0  0  0  0  0  0  0
  -17.8281  -39.8343   -6.3588 C   0  0  0  0  0  0  0  0  0  0  0  0
  -19.1954  -40.2609   -5.9492 C   0  0  0  0  0  0  0  0  0  0  0  0
  -19.2127  -41.6214   -5.6078 C   0  0  0  0  0  0  0  0  0  0  0  0
  -20.3389  -42.3053   -5.2181 C   0  0  0  0  0  0  0  0  0  0  0  0
  -20.3112  -43.9979   -4.7973 Cl  0  0  0  0  0  0  0  0  0  0  0  0
  -21.4749  -41.5461   -5.1858 C   0  0  0  0  0  0  0  0  0  0  0  0
  -22.6459  -42.2338   -4.7852 O   0  0  0  0  0  0  0  0  0  0  0  0
  -21.5124  -40.1652   -5.5223 C   0  0  0  0  0  0  0  0  0  0  0  0
  -22.9137  -39.7015   -5.3727 C   0  0  0  0  0  0  0  0  0  0  0  0
  -23.5145  -38.7088   -6.2599 C   0  0  0  0  0  0  0  0  0  0  0  0
  -23.1790  -38.8630   -7.7135 C   0  0  0  0  0  0  0  0  0  0  0  0
  -23.8410  -40.0507   -8.3647 C   0  0  0  0  0  0  0  0  0  0  0  0
  -23.0922  -40.7726   -9.2451 O   0  0  0  0  0  0  0  0  0  0  0  0
  -21.8414  -40.6714   -9.8360 C   0  0  0  0  0  0  0  0  0  0  0  0
  -20.5987  -40.9541   -9.2846 C   0  0  0  0  0  0  0  0  0  0  0  0
  -19.4890  -40.7756  -10.0655 C   0  0  0  0  0  0  0  0  0  0  0  0
  -19.6901  -40.3146  -11.3921 C   0  0  0  0  0  0  0  0  0  0  0  0
  -20.9143  -40.0340  -11.9444 C   0  0  0  0  0  0  0  0  0  0  0  0
  -21.0666  -39.5538  -13.3467 C   0  0  0  0  0  0  0  0  0  0  0  0
  -21.9383  -40.2311  -11.1244 N   0  0  0  0  0  0  0  0  0  0  0  0
  -18.0576  -40.9506   -9.8141 C   0  0  0  0  0  0  0  0  0  0  0  0
  -17.3069  -41.5383  -10.7075 O   0  0  0  0  0  0  0  0  0  0  0  0
  -17.2633  -40.5617   -8.6802 N   0  0  0  0  0  0  0  0  0  0  0  0
  -20.3667  -39.5118   -5.9058 C   0  0  0  0  0  0  0  0  0  0  0  0
  1  2  1  0
  2  3  1  0
  2  4  1  0
  4  5  2  0
  5  6  1  0
  6  7  2  0
  7  8  1  0
  8  9  2  0
  8 10  1  0
 10 11  1  0
 10 12  1  0
 10 13  1  0
 13 14  1  0
 14 15  1  0
 15 16  1  6
 15 17  1  0
 17 18  1  1
 18 19  1  0
 19 20  1  0
 20 21  2  0
 21 22  1  0
 21 23  1  0
 23 24  1  0
 23 25  2  0
 25 26  1  0
 26 27  1  0
 27 28  1  0
 28 29  1  0
 29 30  1  0
 30 31  1  0
 31 32  1  0
 32 33  2  0
 33 34  1  0
 34 35  2  0
 35 36  1  0
 35 37  1  0
 33 38  1  0
 38 39  2  0
 38 40  1  0
 25 41  1  0
  9  4  1  0
 37 31  2  0
 40 17  1  0
 41 19  2  0
M  END
$$$$
