
     RDKit          3D

 41 44  0  0  0  0  0  0  0  0999 V2000
  -22.7202  -40.5180   -4.3205 C   0  0  0  0  0  0  0  0  0  0  0  0
  -22.6790  -41.1636   -5.6775 C   0  0  0  0  0  0  0  0  0  0  0  0
  -21.5633  -42.2191   -5.6697 C   0  0  0  0  0  0  0  0  0  0  0  0
  -22.2645  -40.1453   -6.7008 C   0  0  0  0  0  0  0  0  0  0  0  0
  -22.8223  -40.1975   -7.9555 C   0  0  0  0  0  0  0  0  0  0  0  0
  -22.4329  -39.2594   -8.9108 C   0  0  0  0  0  0  0  0  0  0  0  0
  -21.4954  -38.2908   -8.5995 C   0  0  0  0  0  0  0  0  0  0  0  0
  -20.9338  -38.2341   -7.3503 C   0  0  0  0  0  0  0  0  0  0  0  0
  -21.3367  -39.1719   -6.4232 C   0  0  0  0  0  0  0  0  0  0  0  0
  -19.9097  -37.2370   -6.9249 C   0  0  0  0  0  0  0  0  0  0  0  0
  -20.4747  -36.6572   -5.6229 C   0  0  0  0  0  0  0  0  0  0  0  0
  -19.8215  -36.1933   -8.0088 C   0  0  0  0  0  0  0  0  0  0  0  0
  -18.6282  -37.8304   -6.6786 N   0  0  0  0  0  0  0  0  0  0  0  0
  -18.8587  -39.1731   -6.1122 C   0  0  0  0  0  0  0  0  0  0  0  0
  -17.6545  -39.9862   -6.5164 C   0  0  1  0  0  0  0  0  0  0  0  0
  -17.8012  -41.2191   -5.8403 O   0  0  0  0  0  0  0  0  0  0  0  0
  -17.4888  -40.2063   -7.9935 C   0  0  2  0  0  0  0  0  0  0  0  0
  -16.9374  -39.0380   -8.7476 C   0  0  0  0  0  0  0  0  0  0  0  0
  -15.8956  -39.3300   -9.7717 C   0  0  0  0  0  0  0  0  0  0  0  0
  -16.3884  -39.1007  -11.0649 C   0  0  0  0  0  0  0  0  0  0  0  0
  -15.6663  -39.3107  -12.2147 C   0  0  0  0  0  0  0  0  0  0  0  0
  -16.3200  -39.0061  -13.8031 Cl  0  0  0  0  0  0  0  0  0  0  0  0
  -14.3972  -39.7728  -12.0053 C   0  0  0  0  0  0  0  0  0  0  0  0
  -13.6371  -39.9940  -13.1792 O   0  0  0  0  0  0  0  0  0  0  0  0
  -13.8495  -40.0221  -10.7172 C   0  0  0  0  0  0  0  0  0  0  0  0
  -12.4635  -40.5174  -10.9037 C   0  0  0  0  0  0  0  0  0  0  0  0
  -11.8667  -41.5338  -10.0407 C   0  0  0  0  0  0  0  0  0  0  0  0
  -12.7715  -42.6715   -9.6716 C   0  0  0  0  0  0  0  0  0  0  0  0
  -13.0594  -43.6111  -10.8148 C   0  0  0  0  0  0  0  0  0  0  0  0
  -14.3349  -44.0772  -10.9285 O   0  0  0  0  0  0  0  0  0  0  0  0
  -15.5081  -44.0152  -10.1911 C   0  0  0  0  0  0  0  0  0  0  0  0
  -16.4102  -42.9646  -10.0874 C   0  0  0  0  0  0  0  0  0  0  0  0
  -17.5094  -43.1323   -9.2894 C   0  0  0  0  0  0  0  0  0  0  0  0
  -17.6504  -44.3773   -8.6239 C   0  0  0  0  0  0  0  0  0  0  0  0
  -16.7643  -45.4203   -8.7218 C   0  0  0  0  0  0  0  0  0  0  0  0
  -16.9645  -46.7086   -8.0006 C   0  0  0  0  0  0  0  0  0  0  0  0
  -15.7265  -45.1790   -9.5121 N   0  0  0  0  0  0  0  0  0  0  0  0
  -18.6271  -42.2546   -8.9391 C   0  0  0  0  0  0  0  0  0  0  0  0
  -19.8461  -42.7248   -8.9304 O   0  0  0  0  0  0  0  0  0  0  0  0
  -18.6313  -40.8645   -8.5707 N   0  0  0  0  0  0  0  0  0  0  0  0
  -14.5990  -39.7990   -9.5880 C   0  0  0  0  0  0  0  0  0  0  0  0
  1  2  1  0
  2  3  1  0
  2  4  1  0
  4  5  2  0
  5  6  1  0
  6  7  2  0
  7  8  1  0
  8  9  2  0
  8 10  1  0
 10 11  1  0
 10 12  1  0
 10 13  1  0
 13 14  1  0
 14 15  1  0
 15 16  1  1
 15 17  1  0
 17 18  1  6
 18 19  1  0
 19 20  1  0
 20 21  2  0
 21 22  1  0
 21 23  1  0
 23 24  1  0
 23 25  2  0
 25 26  1  0
 26 27  1  0
 27 28  1  0
 28 29  1  0
 29 30  1  0
 30 31  1  0
 31 32  1  0
 32 33  2  0
 33 34  1  0
 34 35  2  0
 35 36  1  0
 35 37  1  0
 33 38  1  0
 38 39  2  0
 38 40  1  0
 25 41  1  0
  9  4  1  0
 37 31  2  0
 40 17  1  0
 41 19  2  0
M  END
$$$$
