
     RDKit          3D

 41 44  0  0  0  0  0  0  0  0999 V2000
  -20.1762  -38.7791  -14.1574 C   0  0  0  0  0  0  0  0  0  0  0  0
  -19.0020  -39.2177  -13.3274 C   0  0  0  0  0  0  0  0  0  0  0  0
  -19.5392  -39.9787  -12.1063 C   0  0  0  0  0  0  0  0  0  0  0  0
  -18.3037  -38.0083  -12.7746 C   0  0  0  0  0  0  0  0  0  0  0  0
  -18.5853  -36.7745  -13.3100 C   0  0  0  0  0  0  0  0  0  0  0  0
  -17.9320  -35.6508  -12.8055 C   0  0  0  0  0  0  0  0  0  0  0  0
  -17.0108  -35.7774  -11.7811 C   0  0  0  0  0  0  0  0  0  0  0  0
  -16.7241  -37.0054  -11.2436 C   0  0  0  0  0  0  0  0  0  0  0  0
  -17.3845  -38.1007  -11.7588 C   0  0  0  0  0  0  0  0  0  0  0  0
  -15.7404  -37.2434  -10.1482 C   0  0  0  0  0  0  0  0  0  0  0  0
  -16.1012  -36.1933   -9.0910 C   0  0  0  0  0  0  0  0  0  0  0  0
  -14.3657  -37.0101  -10.7204 C   0  0  0  0  0  0  0  0  0  0  0  0
  -15.8458  -38.5577   -9.5856 N   0  0  0  0  0  0  0  0  0  0  0  0
  -16.0822  -38.4064   -8.1371 C   0  0  0  0  0  0  0  0  0  0  0  0
  -16.4111  -39.7925   -7.6420 C   0  0  1  0  0  0  0  0  0  0  0  0
  -16.6046  -39.6475   -6.2491 O   0  0  0  0  0  0  0  0  0  0  0  0
  -17.6070  -40.4406   -8.2803 C   0  0  2  0  0  0  0  0  0  0  0  0
  -17.3269  -41.7345   -8.9766 C   0  0  0  0  0  0  0  0  0  0  0  0
  -18.3053  -42.8377   -8.7643 C   0  0  0  0  0  0  0  0  0  0  0  0
  -19.0165  -43.1081   -9.9428 C   0  0  0  0  0  0  0  0  0  0  0  0
  -20.0068  -44.0548  -10.0469 C   0  0  0  0  0  0  0  0  0  0  0  0
  -20.8613  -44.3601  -11.5367 Cl  0  0  0  0  0  0  0  0  0  0  0  0
  -20.2591  -44.7344   -8.8883 C   0  0  0  0  0  0  0  0  0  0  0  0
  -21.2763  -45.7153   -8.9766 O   0  0  0  0  0  0  0  0  0  0  0  0
  -19.5687  -44.4994   -7.6679 C   0  0  0  0  0  0  0  0  0  0  0  0
  -20.1270  -45.4210   -6.6481 C   0  0  0  0  0  0  0  0  0  0  0  0
  -20.2840  -45.0434   -5.2458 C   0  0  0  0  0  0  0  0  0  0  0  0
  -20.7918  -43.6519   -5.0106 C   0  0  0  0  0  0  0  0  0  0  0  0
  -22.2451  -43.4696   -5.3675 C   0  0  0  0  0  0  0  0  0  0  0  0
  -22.5893  -42.3092   -5.9935 O   0  0  0  0  0  0  0  0  0  0  0  0
  -21.9682  -41.1170   -6.3355 C   0  0  0  0  0  0  0  0  0  0  0  0
  -21.0964  -40.8662   -7.3869 C   0  0  0  0  0  0  0  0  0  0  0  0
  -20.6013  -39.5982   -7.5280 C   0  0  0  0  0  0  0  0  0  0  0  0
  -21.0199  -38.6240   -6.5853 C   0  0  0  0  0  0  0  0  0  0  0  0
  -21.8813  -38.8635   -5.5446 C   0  0  0  0  0  0  0  0  0  0  0  0
  -22.2890  -37.7997   -4.5844 C   0  0  0  0  0  0  0  0  0  0  0  0
  -22.3153  -40.1153   -5.4757 N   0  0  0  0  0  0  0  0  0  0  0  0
  -19.6697  -38.9950   -8.4824 C   0  0  0  0  0  0  0  0  0  0  0  0
  -19.9346  -37.8248   -8.9997 O   0  0  0  0  0  0  0  0  0  0  0  0
  -18.4188  -39.4885   -8.9920 N   0  0  0  0  0  0  0  0  0  0  0  0
  -18.5820  -43.5463   -7.5998 C   0  0  0  0  0  0  0  0  0  0  0  0
  1  2  1  0
  2  3  1  0
  2  4  1  0
  4  5  2  0
  5  6  1  0
  6  7  2  0
  7  8  1  0
  8  9  2  0
  8 10  1  0
 10 11  1  0
 10 12  1  0
 10 13  1  0
 13 14  1  0
 14 15  1  0
 15 16  1  1
 15 17  1  0
 17 18  1  6
 18 19  1  0
 19 20  1  0
 20 21  2  0
 21 22  1  0
 21 23  1  0
 23 24  1  0
 23 25  2  0
 25 26  1  0
 26 27  1  0
 27 28  1  0
 28 29  1  0
 29 30  1  0
 30 31  1  0
 31 32  1  0
 32 33  2  0
 33 34  1  0
 34 35  2  0
 35 36  1  0
 35 37  1  0
 33 38  1  0
 38 39  2  0
 38 40  1  0
 25 41  1  0
  9  4  1  0
 37 31  2  0
 40 17  1  0
 41 19  2  0
M  END
$$$$
