
     RDKit          3D

 41 44  0  0  0  0  0  0  0  0999 V2000
  -12.6584  -40.1627  -11.0047 C   0  0  0  0  0  0  0  0  0  0  0  0
  -12.3160  -38.9995  -11.8933 C   0  0  0  0  0  0  0  0  0  0  0  0
  -11.1880  -38.2024  -11.2216 C   0  0  0  0  0  0  0  0  0  0  0  0
  -13.4880  -38.0625  -11.9605 C   0  0  0  0  0  0  0  0  0  0  0  0
  -13.8887  -37.5848  -13.1849 C   0  0  0  0  0  0  0  0  0  0  0  0
  -14.9705  -36.7075  -13.2500 C   0  0  0  0  0  0  0  0  0  0  0  0
  -15.6296  -36.3217  -12.0965 C   0  0  0  0  0  0  0  0  0  0  0  0
  -15.2339  -36.7932  -10.8717 C   0  0  0  0  0  0  0  0  0  0  0  0
  -14.1627  -37.6605  -10.8342 C   0  0  0  0  0  0  0  0  0  0  0  0
  -15.8726  -36.4267   -9.5747 C   0  0  0  0  0  0  0  0  0  0  0  0
  -17.3643  -36.6933   -9.8073 C   0  0  0  0  0  0  0  0  0  0  0  0
  -15.5973  -34.9642   -9.3359 C   0  0  0  0  0  0  0  0  0  0  0  0
  -15.3999  -37.2231   -8.4805 N   0  0  0  0  0  0  0  0  0  0  0  0
  -16.5446  -37.4771   -7.5850 C   0  0  0  0  0  0  0  0  0  0  0  0
  -16.4443  -38.9363   -7.2171 C   0  0  1  0  0  0  0  0  0  0  0  0
  -17.0638  -39.0380   -5.9504 O   0  0  0  0  0  0  0  0  0  0  0  0
  -17.0682  -39.8938   -8.1926 C   0  0  2  0  0  0  0  0  0  0  0  0
  -16.1943  -41.0368   -8.6017 C   0  0  0  0  0  0  0  0  0  0  0  0
  -16.8327  -42.3811   -8.6672 C   0  0  0  0  0  0  0  0  0  0  0  0
  -16.9245  -42.8262   -9.9943 C   0  0  0  0  0  0  0  0  0  0  0  0
  -17.4934  -44.0188  -10.3711 C   0  0  0  0  0  0  0  0  0  0  0  0
  -17.5803  -44.5336  -12.0355 Cl  0  0  0  0  0  0  0  0  0  0  0  0
  -17.9787  -44.7632   -9.3327 C   0  0  0  0  0  0  0  0  0  0  0  0
  -18.5679  -45.9967   -9.7017 O   0  0  0  0  0  0  0  0  0  0  0  0
  -17.9118  -44.3588   -7.9713 C   0  0  0  0  0  0  0  0  0  0  0  0
  -18.5453  -45.4215   -7.1526 C   0  0  0  0  0  0  0  0  0  0  0  0
  -19.3333  -45.1314   -5.9572 C   0  0  0  0  0  0  0  0  0  0  0  0
  -20.2547  -43.9533   -6.0683 C   0  0  0  0  0  0  0  0  0  0  0  0
  -21.4434  -44.1970   -6.9630 C   0  0  0  0  0  0  0  0  0  0  0  0
  -21.8222  -43.1765   -7.7829 O   0  0  0  0  0  0  0  0  0  0  0  0
  -21.4718  -41.8490   -7.9802 C   0  0  0  0  0  0  0  0  0  0  0  0
  -20.3655  -41.3357   -8.6443 C   0  0  0  0  0  0  0  0  0  0  0  0
  -20.2250  -39.9761   -8.7116 C   0  0  0  0  0  0  0  0  0  0  0  0
  -21.2285  -39.1837   -8.0967 C   0  0  0  0  0  0  0  0  0  0  0  0
  -22.3246  -39.6830   -7.4396 C   0  0  0  0  0  0  0  0  0  0  0  0
  -23.3500  -38.8020   -6.8132 C   0  0  0  0  0  0  0  0  0  0  0  0
  -22.3878  -41.0079   -7.4173 N   0  0  0  0  0  0  0  0  0  0  0  0
  -19.2011  -39.1101   -9.2982 C   0  0  0  0  0  0  0  0  0  0  0  0
  -19.5551  -38.0591   -9.9890 O   0  0  0  0  0  0  0  0  0  0  0  0
  -17.7672  -39.2076   -9.2474 N   0  0  0  0  0  0  0  0  0  0  0  0
  -17.3338  -43.1605   -7.6297 C   0  0  0  0  0  0  0  0  0  0  0  0
  1  2  1  0
  2  3  1  0
  2  4  1  0
  4  5  2  0
  5  6  1  0
  6  7  2  0
  7  8  1  0
  8  9  2  0
  8 10  1  0
 10 11  1  0
 10 12  1  0
 10 13  1  0
 13 14  1  0
 14 15  1  0
 15 16  1  1
 15 17  1  0
 17 18  1  6
 18 19  1  0
 19 20  1  0
 20 21  2  0
 21 22  1  0
 21 23  1  0
 23 24  1  0
 23 25  2  0
 25 26  1  0
 26 27  1  0
 27 28  1  0
 28 29  1  0
 29 30  1  0
 30 31  1  0
 31 32  1  0
 32 33  2  0
 33 34  1  0
 34 35  2  0
 35 36  1  0
 35 37  1  0
 33 38  1  0
 38 39  2  0
 38 40  1  0
 25 41  1  0
  9  4  1  0
 37 31  2  0
 40 17  1  0
 41 19  2  0
M  END
$$$$
