
     RDKit          3D

 41 44  0  0  0  0  0  0  0  0999 V2000
  -19.4986  -38.5140  -14.8554 C   0  0  0  0  0  0  0  0  0  0  0  0
  -18.9517  -39.2126  -13.6419 C   0  0  0  0  0  0  0  0  0  0  0  0
  -20.0992  -39.9923  -12.9830 C   0  0  0  0  0  0  0  0  0  0  0  0
  -18.5246  -38.1893  -12.6287 C   0  0  0  0  0  0  0  0  0  0  0  0
  -18.7419  -36.8588  -12.8944 C   0  0  0  0  0  0  0  0  0  0  0  0
  -18.3382  -35.9057  -11.9602 C   0  0  0  0  0  0  0  0  0  0  0  0
  -17.7249  -36.2949  -10.7828 C   0  0  0  0  0  0  0  0  0  0  0  0
  -17.5036  -37.6204  -10.5124 C   0  0  0  0  0  0  0  0  0  0  0  0
  -17.9133  -38.5434  -11.4513 C   0  0  0  0  0  0  0  0  0  0  0  0
  -16.8414  -38.1357   -9.2795 C   0  0  0  0  0  0  0  0  0  0  0  0
  -18.0018  -38.3704   -8.3054 C   0  0  0  0  0  0  0  0  0  0  0  0
  -15.9083  -37.0591   -8.7873 C   0  0  0  0  0  0  0  0  0  0  0  0
  -16.1359  -39.3636   -9.5021 N   0  0  0  0  0  0  0  0  0  0  0  0
  -16.4700  -40.2785   -8.3939 C   0  0  0  0  0  0  0  0  0  0  0  0
  -17.4777  -41.2436   -8.9665 C   0  0  1  0  0  0  0  0  0  0  0  0
  -16.8885  -42.5200   -8.8166 O   0  0  0  0  0  0  0  0  0  0  0  0
  -18.8394  -41.2088   -8.3324 C   0  0  2  0  0  0  0  0  0  0  0  0
  -19.9294  -40.6756   -9.2072 C   0  0  0  0  0  0  0  0  0  0  0  0
  -21.2250  -41.4106   -9.1904 C   0  0  0  0  0  0  0  0  0  0  0  0
  -22.2279  -40.6411   -8.5822 C   0  0  0  0  0  0  0  0  0  0  0  0
  -23.5211  -41.0661   -8.3961 C   0  0  0  0  0  0  0  0  0  0  0  0
  -24.7370  -40.0709   -7.6385 Cl  0  0  0  0  0  0  0  0  0  0  0  0
  -23.7701  -42.3283   -8.8574 C   0  0  0  0  0  0  0  0  0  0  0  0
  -25.0984  -42.7833   -8.6752 O   0  0  0  0  0  0  0  0  0  0  0  0
  -22.7908  -43.1497   -9.4800 C   0  0  0  0  0  0  0  0  0  0  0  0
  -23.4381  -44.4376   -9.8312 C   0  0  0  0  0  0  0  0  0  0  0  0
  -22.7379  -45.7175   -9.7587 C   0  0  0  0  0  0  0  0  0  0  0  0
  -21.8571  -45.8981   -8.5583 C   0  0  0  0  0  0  0  0  0  0  0  0
  -22.6192  -46.0831   -7.2708 C   0  0  0  0  0  0  0  0  0  0  0  0
  -22.1318  -45.4525   -6.1654 O   0  0  0  0  0  0  0  0  0  0  0  0
  -21.0043  -44.7176   -5.8300 C   0  0  0  0  0  0  0  0  0  0  0  0
  -20.7161  -43.3918   -6.1260 C   0  0  0  0  0  0  0  0  0  0  0  0
  -19.5269  -42.8751   -5.6881 C   0  0  0  0  0  0  0  0  0  0  0  0
  -18.6699  -43.7364   -4.9555 C   0  0  0  0  0  0  0  0  0  0  0  0
  -18.9476  -45.0467   -4.6582 C   0  0  0  0  0  0  0  0  0  0  0  0
  -18.0097  -45.9056   -3.8819 C   0  0  0  0  0  0  0  0  0  0  0  0
  -20.1171  -45.4720   -5.1180 N   0  0  0  0  0  0  0  0  0  0  0  0
  -18.9018  -41.5593   -5.8306 C   0  0  0  0  0  0  0  0  0  0  0  0
  -18.3263  -40.9971   -4.8012 O   0  0  0  0  0  0  0  0  0  0  0  0
  -18.7922  -40.7074   -6.9840 N   0  0  0  0  0  0  0  0  0  0  0  0
  -21.5072  -42.6920   -9.6523 C   0  0  0  0  0  0  0  0  0  0  0  0
  1  2  1  0
  2  3  1  0
  2  4  1  0
  4  5  2  0
  5  6  1  0
  6  7  2  0
  7  8  1  0
  8  9  2  0
  8 10  1  0
 10 11  1  0
 10 12  1  0
 10 13  1  0
 13 14  1  0
 14 15  1  0
 15 16  1  1
 15 17  1  0
 17 18  1  6
 18 19  1  0
 19 20  1  0
 20 21  2  0
 21 22  1  0
 21 23  1  0
 23 24  1  0
 23 25  2  0
 25 26  1  0
 26 27  1  0
 27 28  1  0
 28 29  1  0
 29 30  1  0
 30 31  1  0
 31 32  1  0
 32 33  2  0
 33 34  1  0
 34 35  2  0
 35 36  1  0
 35 37  1  0
 33 38  1  0
 38 39  2  0
 38 40  1  0
 25 41  1  0
  9  4  1  0
 37 31  2  0
 40 17  1  0
 41 19  2  0
M  END
$$$$
