
     RDKit          3D

 35 36  0  0  0  0  0  0  0  0999 V2000
  -18.8377  -39.4860   -6.7050 C   0  0  0  0  0  0  0  0  0  0  0  0
  -18.2839  -38.3956   -7.5926 C   0  0  2  0  0  0  0  0  0  0  0  0
  -19.2526  -37.6966   -8.4426 C   0  0  0  0  0  0  0  0  0  0  0  0
  -20.6448  -38.2425   -8.4908 C   0  0  0  0  0  0  0  0  0  0  0  0
  -21.5179  -37.7872   -7.3239 C   0  0  0  0  0  0  0  0  0  0  0  0
  -22.6839  -38.7473   -7.1305 C   0  0  0  0  0  0  0  0  0  0  0  0
  -22.4464  -39.8041   -6.1091 C   0  0  0  0  0  0  0  0  0  0  0  0
  -22.3208  -41.1898   -6.7352 C   0  0  0  0  0  0  0  0  0  0  0  0
  -21.4236  -42.0504   -5.9118 C   0  0  0  0  0  0  0  0  0  0  0  0
  -20.8251  -43.2282   -6.6520 C   0  0  0  0  0  0  0  0  0  0  0  0
  -19.3484  -43.1259   -6.6181 C   0  0  0  0  0  0  0  0  0  0  0  0
  -18.9091  -42.5889   -5.5253 O   0  0  0  0  0  0  0  0  0  0  0  0
  -18.3944  -43.5144   -7.5617 N   0  0  0  0  0  0  0  0  0  0  0  0
  -17.3431  -44.4504   -7.0618 C   0  0  0  0  0  0  0  0  0  0  0  0
  -18.2737  -43.1286   -8.9469 C   0  0  1  0  0  0  0  0  0  0  0  0
  -19.0885  -44.1387   -9.8087 C   0  0  0  0  0  0  0  0  0  0  0  0
  -18.7576  -41.7961   -9.2951 C   0  0  0  0  0  0  0  0  0  0  0  0
  -20.0618  -41.8071   -9.4523 O   0  0  0  0  0  0  0  0  0  0  0  0
  -18.1839  -40.5633   -9.4953 N   0  0  0  0  0  0  0  0  0  0  0  0
  -16.9705  -39.9068   -9.2109 C   0  0  1  0  0  0  0  0  0  0  0  0
  -17.0003  -38.8603   -8.1567 C   0  0  0  0  0  0  0  0  0  0  0  0
  -15.8279  -40.8277   -8.9168 C   0  0  2  0  0  0  0  0  0  0  0  0
  -15.4580  -40.7102   -7.5553 O   0  0  0  0  0  0  0  0  0  0  0  0
  -14.5849  -40.5970   -9.7152 C   0  0  0  0  0  0  0  0  0  0  0  0
  -14.3785  -39.3694  -10.3489 N   0  0  0  0  0  0  0  0  0  0  0  0
  -13.1263  -38.7797  -10.4983 C   0  0  0  0  0  0  0  0  0  0  0  0
  -12.0435  -39.6998  -10.9378 C   0  0  0  0  0  0  0  0  0  0  0  0
  -12.6385  -38.0553   -9.2406 C   0  0  0  0  0  0  0  0  0  0  0  0
  -13.2321  -37.6742  -11.5269 C   0  0  0  0  0  0  0  0  0  0  0  0
  -12.3387  -36.6387  -11.4060 C   0  0  0  0  0  0  0  0  0  0  0  0
  -12.4046  -35.6147  -12.3354 C   0  0  0  0  0  0  0  0  0  0  0  0
  -13.3454  -35.6356  -13.3573 C   0  0  0  0  0  0  0  0  0  0  0  0
  -14.2232  -36.6882  -13.4463 C   0  0  0  0  0  0  0  0  0  0  0  0
  -15.5306  -36.7563  -14.8345 Br  0  0  0  0  0  0  0  0  0  0  0  0
  -14.1598  -37.7096  -12.5218 C   0  0  0  0  0  0  0  0  0  0  0  0
  2  1  1  6
  2  3  1  0
  3  4  1  0
  4  5  1  0
  5  6  1  0
  6  7  1  0
  7  8  1  0
  8  9  1  0
  9 10  1  0
 10 11  1  0
 11 12  2  0
 11 13  1  0
 13 14  1  0
 13 15  1  0
 15 16  1  6
 15 17  1  0
 17 18  2  0
 17 19  1  0
 19 20  1  0
 20 21  1  1
 20 22  1  0
 22 23  1  1
 22 24  1  0
 24 25  1  0
 25 26  1  0
 26 27  1  0
 26 28  1  0
 26 29  1  0
 29 30  2  0
 30 31  1  0
 31 32  2  0
 32 33  1  0
 33 34  1  0
 33 35  2  0
 21  2  1  0
 35 29  1  0
M  END
$$$$
