
     RDKit          3D

 35 36  0  0  0  0  0  0  0  0999 V2000
  -19.8996  -39.4885   -6.0737 C   0  0  0  0  0  0  0  0  0  0  0  0
  -19.5399  -38.1804   -6.7393 C   0  0  2  0  0  0  0  0  0  0  0  0
  -20.5974  -37.5420   -7.5288 C   0  0  0  0  0  0  0  0  0  0  0  0
  -21.8541  -38.3223   -7.7532 C   0  0  0  0  0  0  0  0  0  0  0  0
  -22.8376  -38.2408   -6.5881 C   0  0  0  0  0  0  0  0  0  0  0  0
  -23.7997  -39.4205   -6.6254 C   0  0  0  0  0  0  0  0  0  0  0  0
  -23.3948  -40.5706   -5.7713 C   0  0  0  0  0  0  0  0  0  0  0  0
  -22.9807  -41.7832   -6.5996 C   0  0  0  0  0  0  0  0  0  0  0  0
  -21.9607  -42.5869   -5.8665 C   0  0  0  0  0  0  0  0  0  0  0  0
  -21.1199  -43.4907   -6.7436 C   0  0  0  0  0  0  0  0  0  0  0  0
  -19.6934  -43.1215   -6.5982 C   0  0  0  0  0  0  0  0  0  0  0  0
  -19.4038  -42.7033   -5.4079 O   0  0  0  0  0  0  0  0  0  0  0  0
  -18.6512  -43.1608   -7.5275 N   0  0  0  0  0  0  0  0  0  0  0  0
  -17.4548  -43.9543   -7.1151 C   0  0  0  0  0  0  0  0  0  0  0  0
  -18.5620  -42.5320   -8.8232 C   0  0  1  0  0  0  0  0  0  0  0  0
  -19.1351  -43.5171   -9.8853 C   0  0  0  0  0  0  0  0  0  0  0  0
  -19.2846  -41.2741   -8.9864 C   0  0  0  0  0  0  0  0  0  0  0  0
  -20.5557  -41.5020   -9.2277 O   0  0  0  0  0  0  0  0  0  0  0  0
  -18.9560  -39.9401   -8.9511 N   0  0  0  0  0  0  0  0  0  0  0  0
  -17.9040  -39.1257   -8.4880 C   0  0  1  0  0  0  0  0  0  0  0  0
  -18.1722  -38.2956   -7.2854 C   0  0  0  0  0  0  0  0  0  0  0  0
  -16.6142  -39.8531   -8.2700 C   0  0  2  0  0  0  0  0  0  0  0  0
  -15.8332  -39.1637   -7.3115 O   0  0  0  0  0  0  0  0  0  0  0  0
  -15.7504  -40.0213   -9.4790 C   0  0  0  0  0  0  0  0  0  0  0  0
  -14.6117  -39.2285   -9.6405 N   0  0  0  0  0  0  0  0  0  0  0  0
  -14.2700  -38.6046  -10.8372 C   0  0  0  0  0  0  0  0  0  0  0  0
  -14.3272  -37.1186  -10.8132 C   0  0  0  0  0  0  0  0  0  0  0  0
  -15.0982  -39.0824  -12.0332 C   0  0  0  0  0  0  0  0  0  0  0  0
  -12.8557  -39.0015  -11.2027 C   0  0  0  0  0  0  0  0  0  0  0  0
  -12.4072  -40.1982  -10.7008 C   0  0  0  0  0  0  0  0  0  0  0  0
  -11.1200  -40.5937  -11.0221 C   0  0  0  0  0  0  0  0  0  0  0  0
  -10.3089  -39.8035  -11.8270 C   0  0  0  0  0  0  0  0  0  0  0  0
  -10.7919  -38.6123  -12.3107 C   0  0  0  0  0  0  0  0  0  0  0  0
   -9.7113  -37.4972  -13.4198 Br  0  0  0  0  0  0  0  0  0  0  0  0
  -12.0738  -38.2159  -11.9922 C   0  0  0  0  0  0  0  0  0  0  0  0
  2  1  1  6
  2  3  1  0
  3  4  1  0
  4  5  1  0
  5  6  1  0
  6  7  1  0
  7  8  1  0
  8  9  1  0
  9 10  1  0
 10 11  1  0
 11 12  2  0
 11 13  1  0
 13 14  1  0
 13 15  1  0
 15 16  1  6
 15 17  1  0
 17 18  2  0
 17 19  1  0
 19 20  1  0
 20 21  1  1
 20 22  1  0
 22 23  1  1
 22 24  1  0
 24 25  1  0
 25 26  1  0
 26 27  1  0
 26 28  1  0
 26 29  1  0
 29 30  2  0
 30 31  1  0
 31 32  2  0
 32 33  1  0
 33 34  1  0
 33 35  2  0
 21  2  1  0
 35 29  1  0
M  END
$$$$
