
     RDKit          3D

 35 36  0  0  0  0  0  0  0  0999 V2000
  -19.6548  -40.1479   -5.5729 C   0  0  0  0  0  0  0  0  0  0  0  0
  -19.5264  -38.6630   -5.8223 C   0  0  2  0  0  0  0  0  0  0  0  0
  -20.7122  -37.9911   -6.3625 C   0  0  0  0  0  0  0  0  0  0  0  0
  -21.8586  -38.8543   -6.7856 C   0  0  0  0  0  0  0  0  0  0  0  0
  -22.7660  -39.2707   -5.6304 C   0  0  0  0  0  0  0  0  0  0  0  0
  -23.5532  -40.5204   -6.0008 C   0  0  0  0  0  0  0  0  0  0  0  0
  -22.9361  -41.7942   -5.5395 C   0  0  0  0  0  0  0  0  0  0  0  0
  -22.4104  -42.6314   -6.7018 C   0  0  0  0  0  0  0  0  0  0  0  0
  -21.2421  -43.4485   -6.2643 C   0  0  0  0  0  0  0  0  0  0  0  0
  -20.3413  -43.9145   -7.3888 C   0  0  0  0  0  0  0  0  0  0  0  0
  -18.9745  -43.3899   -7.1678 C   0  0  0  0  0  0  0  0  0  0  0  0
  -18.6699  -43.3005   -5.9129 O   0  0  0  0  0  0  0  0  0  0  0  0
  -17.9997  -42.9939   -8.0866 N   0  0  0  0  0  0  0  0  0  0  0  0
  -16.6794  -43.6800   -7.9555 C   0  0  0  0  0  0  0  0  0  0  0  0
  -18.0841  -42.0063   -9.1354 C   0  0  1  0  0  0  0  0  0  0  0  0
  -18.5808  -42.7118  -10.4326 C   0  0  0  0  0  0  0  0  0  0  0  0
  -18.9853  -40.8826   -8.8991 C   0  0  0  0  0  0  0  0  0  0  0  0
  -20.2248  -41.2219   -9.1722 O   0  0  0  0  0  0  0  0  0  0  0  0
  -18.8459  -39.5839   -8.4715 N   0  0  0  0  0  0  0  0  0  0  0  0
  -17.8909  -38.7901   -7.8064 C   0  0  1  0  0  0  0  0  0  0  0  0
  -18.1946  -38.4013   -6.4050 C   0  0  0  0  0  0  0  0  0  0  0  0
  -16.5003  -39.3423   -7.8426 C   0  0  2  0  0  0  0  0  0  0  0  0
  -15.7232  -38.7470   -6.8200 O   0  0  0  0  0  0  0  0  0  0  0  0
  -15.7512  -39.1341   -9.1199 C   0  0  0  0  0  0  0  0  0  0  0  0
  -14.3556  -39.1904   -9.1292 N   0  0  0  0  0  0  0  0  0  0  0  0
  -13.5756  -38.8046  -10.2160 C   0  0  0  0  0  0  0  0  0  0  0  0
  -12.3916  -39.6652  -10.4804 C   0  0  0  0  0  0  0  0  0  0  0  0
  -13.0878  -37.3555  -10.1338 C   0  0  0  0  0  0  0  0  0  0  0  0
  -14.4382  -38.8196  -11.4597 C   0  0  0  0  0  0  0  0  0  0  0  0
  -14.4790  -37.6575  -12.1898 C   0  0  0  0  0  0  0  0  0  0  0  0
  -15.2536  -37.6403  -13.3371 C   0  0  0  0  0  0  0  0  0  0  0  0
  -15.9666  -38.7640  -13.7357 C   0  0  0  0  0  0  0  0  0  0  0  0
  -15.9017  -39.9088  -12.9797 C   0  0  0  0  0  0  0  0  0  0  0  0
  -16.8648  -41.4745  -13.4916 Br  0  0  0  0  0  0  0  0  0  0  0  0
  -15.1308  -39.9288  -11.8363 C   0  0  0  0  0  0  0  0  0  0  0  0
  2  1  1  6
  2  3  1  0
  3  4  1  0
  4  5  1  0
  5  6  1  0
  6  7  1  0
  7  8  1  0
  8  9  1  0
  9 10  1  0
 10 11  1  0
 11 12  2  0
 11 13  1  0
 13 14  1  0
 13 15  1  0
 15 16  1  6
 15 17  1  0
 17 18  2  0
 17 19  1  0
 19 20  1  0
 20 21  1  1
 20 22  1  0
 22 23  1  1
 22 24  1  0
 24 25  1  0
 25 26  1  0
 26 27  1  0
 26 28  1  0
 26 29  1  0
 29 30  2  0
 30 31  1  0
 31 32  2  0
 32 33  1  0
 33 34  1  0
 33 35  2  0
 21  2  1  0
 35 29  1  0
M  END
$$$$
