
     RDKit          3D

 35 36  0  0  0  0  0  0  0  0999 V2000
  -19.6141  -40.1265   -6.2309 C   0  0  0  0  0  0  0  0  0  0  0  0
  -19.2026  -38.6815   -6.3927 C   0  0  2  0  0  0  0  0  0  0  0  0
  -20.1743  -37.7996   -7.0465 C   0  0  0  0  0  0  0  0  0  0  0  0
  -21.3848  -38.4384   -7.6507 C   0  0  0  0  0  0  0  0  0  0  0  0
  -22.4948  -38.7170   -6.6399 C   0  0  0  0  0  0  0  0  0  0  0  0
  -23.4274  -39.8004   -7.1645 C   0  0  0  0  0  0  0  0  0  0  0  0
  -23.1031  -41.1733   -6.6888 C   0  0  0  0  0  0  0  0  0  0  0  0
  -22.5785  -42.0615   -7.8130 C   0  0  0  0  0  0  0  0  0  0  0  0
  -21.6351  -43.0807   -7.2700 C   0  0  0  0  0  0  0  0  0  0  0  0
  -20.6860  -43.6702   -8.2922 C   0  0  0  0  0  0  0  0  0  0  0  0
  -19.2912  -43.3984   -7.8762 C   0  0  0  0  0  0  0  0  0  0  0  0
  -19.1448  -43.3938   -6.5901 O   0  0  0  0  0  0  0  0  0  0  0  0
  -18.1502  -43.1575   -8.6452 N   0  0  0  0  0  0  0  0  0  0  0  0
  -16.9954  -44.0670   -8.3804 C   0  0  0  0  0  0  0  0  0  0  0  0
  -17.9254  -42.1456   -9.6491 C   0  0  1  0  0  0  0  0  0  0  0  0
  -18.3589  -42.7220  -11.0300 C   0  0  0  0  0  0  0  0  0  0  0  0
  -18.6451  -40.8873   -9.4764 C   0  0  0  0  0  0  0  0  0  0  0  0
  -19.8770  -40.9978   -9.9194 O   0  0  0  0  0  0  0  0  0  0  0  0
  -18.3442  -39.6437   -8.9747 N   0  0  0  0  0  0  0  0  0  0  0  0
  -17.3645  -39.0455   -8.1581 C   0  0  1  0  0  0  0  0  0  0  0  0
  -17.7803  -38.6432   -6.7897 C   0  0  0  0  0  0  0  0  0  0  0  0
  -16.0961  -39.8317   -8.0441 C   0  0  2  0  0  0  0  0  0  0  0  0
  -15.2329  -39.2125   -7.1083 O   0  0  0  0  0  0  0  0  0  0  0  0
  -15.3111  -39.9859   -9.3074 C   0  0  0  0  0  0  0  0  0  0  0  0
  -13.9436  -40.2652   -9.2513 N   0  0  0  0  0  0  0  0  0  0  0  0
  -13.0336  -39.8616  -10.2246 C   0  0  0  0  0  0  0  0  0  0  0  0
  -11.6121  -40.1889   -9.9343 C   0  0  0  0  0  0  0  0  0  0  0  0
  -13.1096  -38.3673  -10.5495 C   0  0  0  0  0  0  0  0  0  0  0  0
  -13.3980  -40.5292  -11.5335 C   0  0  0  0  0  0  0  0  0  0  0  0
  -13.5868  -39.6997  -12.6112 C   0  0  0  0  0  0  0  0  0  0  0  0
  -13.9145  -40.2795  -13.8250 C   0  0  0  0  0  0  0  0  0  0  0  0
  -14.0478  -41.6569  -13.9470 C   0  0  0  0  0  0  0  0  0  0  0  0
  -13.8516  -42.4549  -12.8466 C   0  0  0  0  0  0  0  0  0  0  0  0
  -14.0243  -44.3512  -12.9706 Br  0  0  0  0  0  0  0  0  0  0  0  0
  -13.5250  -41.8801  -11.6362 C   0  0  0  0  0  0  0  0  0  0  0  0
  2  1  1  6
  2  3  1  0
  3  4  1  0
  4  5  1  0
  5  6  1  0
  6  7  1  0
  7  8  1  0
  8  9  1  0
  9 10  1  0
 10 11  1  0
 11 12  2  0
 11 13  1  0
 13 14  1  0
 13 15  1  0
 15 16  1  6
 15 17  1  0
 17 18  2  0
 17 19  1  0
 19 20  1  0
 20 21  1  1
 20 22  1  0
 22 23  1  1
 22 24  1  0
 24 25  1  0
 25 26  1  0
 26 27  1  0
 26 28  1  0
 26 29  1  0
 29 30  2  0
 30 31  1  0
 31 32  2  0
 32 33  1  0
 33 34  1  0
 33 35  2  0
 21  2  1  0
 35 29  1  0
M  END
$$$$
