
     RDKit          3D

 35 36  0  0  0  0  0  0  0  0999 V2000
  -19.6824  -40.3577   -5.5867 C   0  0  0  0  0  0  0  0  0  0  0  0
  -19.5289  -38.8680   -5.7882 C   0  0  2  0  0  0  0  0  0  0  0  0
  -20.6709  -38.1738   -6.3908 C   0  0  0  0  0  0  0  0  0  0  0  0
  -21.7904  -39.0175   -6.9137 C   0  0  0  0  0  0  0  0  0  0  0  0
  -22.7773  -39.4565   -5.8345 C   0  0  0  0  0  0  0  0  0  0  0  0
  -23.5442  -40.6906   -6.2903 C   0  0  0  0  0  0  0  0  0  0  0  0
  -22.9674  -41.9802   -5.8209 C   0  0  0  0  0  0  0  0  0  0  0  0
  -22.3678  -42.7914   -6.9657 C   0  0  0  0  0  0  0  0  0  0  0  0
  -21.2369  -43.6279   -6.4704 C   0  0  0  0  0  0  0  0  0  0  0  0
  -20.2636  -44.0718   -7.5423 C   0  0  0  0  0  0  0  0  0  0  0  0
  -18.9123  -43.5630   -7.2146 C   0  0  0  0  0  0  0  0  0  0  0  0
  -18.6941  -43.5078   -5.9399 O   0  0  0  0  0  0  0  0  0  0  0  0
  -17.8745  -43.1511   -8.0539 N   0  0  0  0  0  0  0  0  0  0  0  0
  -16.5702  -43.8500   -7.8504 C   0  0  0  0  0  0  0  0  0  0  0  0
  -17.8811  -42.1365   -9.0801 C   0  0  1  0  0  0  0  0  0  0  0  0
  -18.2915  -42.8051  -10.4261 C   0  0  0  0  0  0  0  0  0  0  0  0
  -18.7901  -41.0125   -8.8771 C   0  0  0  0  0  0  0  0  0  0  0  0
  -20.0098  -41.3356   -9.2432 O   0  0  0  0  0  0  0  0  0  0  0  0
  -18.6731  -39.7262   -8.4074 N   0  0  0  0  0  0  0  0  0  0  0  0
  -17.7616  -38.9566   -7.6581 C   0  0  1  0  0  0  0  0  0  0  0  0
  -18.1587  -38.6014   -6.2713 C   0  0  0  0  0  0  0  0  0  0  0  0
  -16.3750  -39.5180   -7.6133 C   0  0  2  0  0  0  0  0  0  0  0  0
  -15.5250  -38.6352   -6.9046 O   0  0  0  0  0  0  0  0  0  0  0  0
  -15.7271  -39.7568   -8.9397 C   0  0  0  0  0  0  0  0  0  0  0  0
  -14.3350  -39.7310   -9.0527 N   0  0  0  0  0  0  0  0  0  0  0  0
  -13.6604  -39.7172  -10.2704 C   0  0  0  0  0  0  0  0  0  0  0  0
  -12.2695  -39.1933  -10.2157 C   0  0  0  0  0  0  0  0  0  0  0  0
  -14.4020  -38.9531  -11.3707 C   0  0  0  0  0  0  0  0  0  0  0  0
  -13.5948  -41.1327  -10.8028 C   0  0  0  0  0  0  0  0  0  0  0  0
  -12.7811  -42.0048  -10.1227 C   0  0  0  0  0  0  0  0  0  0  0  0
  -12.7041  -43.3092  -10.5800 C   0  0  0  0  0  0  0  0  0  0  0  0
  -13.4277  -43.7212  -11.6920 C   0  0  0  0  0  0  0  0  0  0  0  0
  -14.2312  -42.8204  -12.3471 C   0  0  0  0  0  0  0  0  0  0  0  0
  -15.2423  -43.3449  -13.8781 Br  0  0  0  0  0  0  0  0  0  0  0  0
  -14.3099  -41.5203  -11.8937 C   0  0  0  0  0  0  0  0  0  0  0  0
  2  1  1  6
  2  3  1  0
  3  4  1  0
  4  5  1  0
  5  6  1  0
  6  7  1  0
  7  8  1  0
  8  9  1  0
  9 10  1  0
 10 11  1  0
 11 12  2  0
 11 13  1  0
 13 14  1  0
 13 15  1  0
 15 16  1  6
 15 17  1  0
 17 18  2  0
 17 19  1  0
 19 20  1  0
 20 21  1  1
 20 22  1  0
 22 23  1  1
 22 24  1  0
 24 25  1  0
 25 26  1  0
 26 27  1  0
 26 28  1  0
 26 29  1  0
 29 30  2  0
 30 31  1  0
 31 32  2  0
 32 33  1  0
 33 34  1  0
 33 35  2  0
 21  2  1  0
 35 29  1  0
M  END
$$$$
