
     RDKit          3D

 35 36  0  0  0  0  0  0  0  0999 V2000
  -19.4284  -39.6578   -5.8916 C   0  0  0  0  0  0  0  0  0  0  0  0
  -19.2453  -38.2548   -6.4223 C   0  0  2  0  0  0  0  0  0  0  0  0
  -20.4209  -37.6382   -7.0446 C   0  0  0  0  0  0  0  0  0  0  0  0
  -21.6194  -38.5072   -7.2614 C   0  0  0  0  0  0  0  0  0  0  0  0
  -22.4984  -38.6524   -6.0214 C   0  0  0  0  0  0  0  0  0  0  0  0
  -23.3530  -39.9086   -6.1238 C   0  0  0  0  0  0  0  0  0  0  0  0
  -22.7744  -41.1019   -5.4475 C   0  0  0  0  0  0  0  0  0  0  0  0
  -22.3312  -42.1684   -6.4447 C   0  0  0  0  0  0  0  0  0  0  0  0
  -21.1835  -42.9458   -5.8951 C   0  0  0  0  0  0  0  0  0  0  0  0
  -20.3483  -43.6599   -6.9370 C   0  0  0  0  0  0  0  0  0  0  0  0
  -18.9523  -43.1722   -6.8608 C   0  0  0  0  0  0  0  0  0  0  0  0
  -18.5955  -42.8633   -5.6555 O   0  0  0  0  0  0  0  0  0  0  0  0
  -17.9977  -43.0058   -7.8670 N   0  0  0  0  0  0  0  0  0  0  0  0
  -16.7044  -43.7201   -7.6474 C   0  0  0  0  0  0  0  0  0  0  0  0
  -18.0798  -42.2306   -9.0813 C   0  0  1  0  0  0  0  0  0  0  0  0
  -18.6569  -43.1420  -10.2053 C   0  0  0  0  0  0  0  0  0  0  0  0
  -18.9215  -41.0387   -9.0360 C   0  0  0  0  0  0  0  0  0  0  0  0
  -20.1842  -41.3609   -9.2023 O   0  0  0  0  0  0  0  0  0  0  0  0
  -18.7091  -39.6914   -8.8674 N   0  0  0  0  0  0  0  0  0  0  0  0
  -17.6954  -38.8353   -8.3942 C   0  0  1  0  0  0  0  0  0  0  0  0
  -17.9270  -38.1747   -7.0838 C   0  0  0  0  0  0  0  0  0  0  0  0
  -16.3326  -39.4534   -8.3665 C   0  0  2  0  0  0  0  0  0  0  0  0
  -15.4469  -38.6245   -7.6367 O   0  0  0  0  0  0  0  0  0  0  0  0
  -15.6960  -39.6838   -9.6998 C   0  0  0  0  0  0  0  0  0  0  0  0
  -14.3069  -39.6185   -9.8321 N   0  0  0  0  0  0  0  0  0  0  0  0
  -13.6440  -39.7024  -11.0534 C   0  0  0  0  0  0  0  0  0  0  0  0
  -14.1775  -40.7252  -11.9923 C   0  0  0  0  0  0  0  0  0  0  0  0
  -12.1375  -39.9390  -10.9155 C   0  0  0  0  0  0  0  0  0  0  0  0
  -13.7312  -38.3583  -11.7442 C   0  0  0  0  0  0  0  0  0  0  0  0
  -14.6242  -38.2612  -12.7825 C   0  0  0  0  0  0  0  0  0  0  0  0
  -14.7331  -37.0429  -13.4312 C   0  0  0  0  0  0  0  0  0  0  0  0
  -13.9625  -35.9543  -13.0427 C   0  0  0  0  0  0  0  0  0  0  0  0
  -13.0794  -36.0894  -11.9995 C   0  0  0  0  0  0  0  0  0  0  0  0
  -12.0024  -34.6193  -11.4336 Br  0  0  0  0  0  0  0  0  0  0  0  0
  -12.9689  -37.3018  -11.3515 C   0  0  0  0  0  0  0  0  0  0  0  0
  2  1  1  6
  2  3  1  0
  3  4  1  0
  4  5  1  0
  5  6  1  0
  6  7  1  0
  7  8  1  0
  8  9  1  0
  9 10  1  0
 10 11  1  0
 11 12  2  0
 11 13  1  0
 13 14  1  0
 13 15  1  0
 15 16  1  6
 15 17  1  0
 17 18  2  0
 17 19  1  0
 19 20  1  0
 20 21  1  1
 20 22  1  0
 22 23  1  1
 22 24  1  0
 24 25  1  0
 25 26  1  0
 26 27  1  0
 26 28  1  0
 26 29  1  0
 29 30  2  0
 30 31  1  0
 31 32  2  0
 32 33  1  0
 33 34  1  0
 33 35  2  0
 21  2  1  0
 35 29  1  0
M  END
$$$$
