
     RDKit          3D

 35 36  0  0  0  0  0  0  0  0999 V2000
  -19.7704  -40.2635   -5.2993 C   0  0  0  0  0  0  0  0  0  0  0  0
  -19.4834  -38.8107   -5.6001 C   0  0  2  0  0  0  0  0  0  0  0  0
  -20.5769  -38.0456   -6.2068 C   0  0  0  0  0  0  0  0  0  0  0  0
  -21.7917  -38.8055   -6.6370 C   0  0  0  0  0  0  0  0  0  0  0  0
  -22.7725  -39.0802   -5.4994 C   0  0  0  0  0  0  0  0  0  0  0  0
  -23.6712  -40.2585   -5.8497 C   0  0  0  0  0  0  0  0  0  0  0  0
  -23.2021  -41.5679   -5.3190 C   0  0  0  0  0  0  0  0  0  0  0  0
  -22.7287  -42.5011   -6.4295 C   0  0  0  0  0  0  0  0  0  0  0  0
  -21.6643  -43.4130   -5.9204 C   0  0  0  0  0  0  0  0  0  0  0  0
  -20.7812  -44.0135   -6.9941 C   0  0  0  0  0  0  0  0  0  0  0  0
  -19.3755  -43.6207   -6.7452 C   0  0  0  0  0  0  0  0  0  0  0  0
  -19.1026  -43.5107   -5.4846 O   0  0  0  0  0  0  0  0  0  0  0  0
  -18.3371  -43.3633   -7.6435 N   0  0  0  0  0  0  0  0  0  0  0  0
  -17.0986  -44.1730   -7.4400 C   0  0  0  0  0  0  0  0  0  0  0  0
  -18.2875  -42.4164   -8.7313 C   0  0  1  0  0  0  0  0  0  0  0  0
  -18.8130  -43.1212  -10.0174 C   0  0  0  0  0  0  0  0  0  0  0  0
  -19.0762  -41.1987   -8.5696 C   0  0  0  0  0  0  0  0  0  0  0  0
  -20.3347  -41.4223   -8.8731 O   0  0  0  0  0  0  0  0  0  0  0  0
  -18.8182  -39.9042   -8.1869 N   0  0  0  0  0  0  0  0  0  0  0  0
  -17.8084  -39.1839   -7.5192 C   0  0  1  0  0  0  0  0  0  0  0  0
  -18.1142  -38.7089   -6.1451 C   0  0  0  0  0  0  0  0  0  0  0  0
  -16.4810  -39.8746   -7.4855 C   0  0  2  0  0  0  0  0  0  0  0  0
  -15.5837  -39.1453   -6.6687 O   0  0  0  0  0  0  0  0  0  0  0  0
  -15.8049  -40.0483   -8.8078 C   0  0  0  0  0  0  0  0  0  0  0  0
  -14.4372  -40.3271   -8.8626 N   0  0  0  0  0  0  0  0  0  0  0  0
  -13.5386  -39.6250   -9.6612 C   0  0  0  0  0  0  0  0  0  0  0  0
  -12.1256  -39.6546   -9.1978 C   0  0  0  0  0  0  0  0  0  0  0  0
  -13.9272  -38.1594   -9.8746 C   0  0  0  0  0  0  0  0  0  0  0  0
  -13.5739  -40.2092  -11.0573 C   0  0  0  0  0  0  0  0  0  0  0  0
  -12.3648  -40.5644  -11.6023 C   0  0  0  0  0  0  0  0  0  0  0  0
  -12.3631  -41.1082  -12.8755 C   0  0  0  0  0  0  0  0  0  0  0  0
  -13.5480  -41.2880  -13.5781 C   0  0  0  0  0  0  0  0  0  0  0  0
  -14.7385  -40.9205  -13.0004 C   0  0  0  0  0  0  0  0  0  0  0  0
  -16.3888  -41.1508  -13.9304 Br  0  0  0  0  0  0  0  0  0  0  0  0
  -14.7432  -40.3786  -11.7322 C   0  0  0  0  0  0  0  0  0  0  0  0
  2  1  1  6
  2  3  1  0
  3  4  1  0
  4  5  1  0
  5  6  1  0
  6  7  1  0
  7  8  1  0
  8  9  1  0
  9 10  1  0
 10 11  1  0
 11 12  2  0
 11 13  1  0
 13 14  1  0
 13 15  1  0
 15 16  1  6
 15 17  1  0
 17 18  2  0
 17 19  1  0
 19 20  1  0
 20 21  1  1
 20 22  1  0
 22 23  1  1
 22 24  1  0
 24 25  1  0
 25 26  1  0
 26 27  1  0
 26 28  1  0
 26 29  1  0
 29 30  2  0
 30 31  1  0
 31 32  2  0
 32 33  1  0
 33 34  1  0
 33 35  2  0
 21  2  1  0
 35 29  1  0
M  END
$$$$
