
     RDKit          3D

 35 36  0  0  0  0  0  0  0  0999 V2000
  -19.3289  -39.8449   -5.8932 C   0  0  0  0  0  0  0  0  0  0  0  0
  -19.1355  -38.3718   -6.1694 C   0  0  2  0  0  0  0  0  0  0  0  0
  -20.3052  -37.6479   -6.6765 C   0  0  0  0  0  0  0  0  0  0  0  0
  -21.5083  -38.4575   -7.0448 C   0  0  0  0  0  0  0  0  0  0  0  0
  -22.3923  -38.8120   -5.8513 C   0  0  0  0  0  0  0  0  0  0  0  0
  -23.2542  -40.0250   -6.1742 C   0  0  0  0  0  0  0  0  0  0  0  0
  -22.6852  -41.3223   -5.7163 C   0  0  0  0  0  0  0  0  0  0  0  0
  -22.2454  -42.2003   -6.8841 C   0  0  0  0  0  0  0  0  0  0  0  0
  -21.1042  -43.0697   -6.4767 C   0  0  0  0  0  0  0  0  0  0  0  0
  -20.2700  -43.5956   -7.6260 C   0  0  0  0  0  0  0  0  0  0  0  0
  -18.8714  -43.1381   -7.4625 C   0  0  0  0  0  0  0  0  0  0  0  0
  -18.5166  -43.0476   -6.2209 O   0  0  0  0  0  0  0  0  0  0  0  0
  -17.9125  -42.8043   -8.4218 N   0  0  0  0  0  0  0  0  0  0  0  0
  -16.6243  -43.5546   -8.3281 C   0  0  0  0  0  0  0  0  0  0  0  0
  -17.9858  -41.8277   -9.4817 C   0  0  1  0  0  0  0  0  0  0  0  0
  -18.5648  -42.5242  -10.7492 C   0  0  0  0  0  0  0  0  0  0  0  0
  -18.8202  -40.6566   -9.2299 C   0  0  0  0  0  0  0  0  0  0  0  0
  -20.0844  -40.9363   -9.4529 O   0  0  0  0  0  0  0  0  0  0  0  0
  -18.6002  -39.3611   -8.8273 N   0  0  0  0  0  0  0  0  0  0  0  0
  -17.5827  -38.6080   -8.2092 C   0  0  1  0  0  0  0  0  0  0  0  0
  -17.8146  -38.1857   -6.8038 C   0  0  0  0  0  0  0  0  0  0  0  0
  -16.2239  -39.2304   -8.2873 C   0  0  2  0  0  0  0  0  0  0  0  0
  -15.3596  -38.6094   -7.3538 O   0  0  0  0  0  0  0  0  0  0  0  0
  -15.5446  -39.1438   -9.6167 C   0  0  0  0  0  0  0  0  0  0  0  0
  -14.1869  -38.8233   -9.6886 N   0  0  0  0  0  0  0  0  0  0  0  0
  -13.5770  -38.3017  -10.8263 C   0  0  0  0  0  0  0  0  0  0  0  0
  -12.9732  -36.9530  -10.6568 C   0  0  0  0  0  0  0  0  0  0  0  0
  -14.5028  -38.2466  -12.0446 C   0  0  0  0  0  0  0  0  0  0  0  0
  -12.4749  -39.2446  -11.2593 C   0  0  0  0  0  0  0  0  0  0  0  0
  -11.6471  -38.7992  -12.2601 C   0  0  0  0  0  0  0  0  0  0  0  0
  -10.6244  -39.6352  -12.6747 C   0  0  0  0  0  0  0  0  0  0  0  0
  -10.4429  -40.8848  -12.0956 C   0  0  0  0  0  0  0  0  0  0  0  0
  -11.2910  -41.2965  -11.0970 C   0  0  0  0  0  0  0  0  0  0  0  0
  -11.0766  -43.0050  -10.2745 Br  0  0  0  0  0  0  0  0  0  0  0  0
  -12.3107  -40.4658  -10.6820 C   0  0  0  0  0  0  0  0  0  0  0  0
  2  1  1  6
  2  3  1  0
  3  4  1  0
  4  5  1  0
  5  6  1  0
  6  7  1  0
  7  8  1  0
  8  9  1  0
  9 10  1  0
 10 11  1  0
 11 12  2  0
 11 13  1  0
 13 14  1  0
 13 15  1  0
 15 16  1  6
 15 17  1  0
 17 18  2  0
 17 19  1  0
 19 20  1  0
 20 21  1  1
 20 22  1  0
 22 23  1  1
 22 24  1  0
 24 25  1  0
 25 26  1  0
 26 27  1  0
 26 28  1  0
 26 29  1  0
 29 30  2  0
 30 31  1  0
 31 32  2  0
 32 33  1  0
 33 34  1  0
 33 35  2  0
 21  2  1  0
 35 29  1  0
M  END
$$$$
