
     RDKit          3D

 35 36  0  0  0  0  0  0  0  0999 V2000
  -19.4274  -39.7418   -5.8757 C   0  0  0  0  0  0  0  0  0  0  0  0
  -18.9160  -38.4054   -6.3615 C   0  0  2  0  0  0  0  0  0  0  0  0
  -19.8588  -37.5928   -7.1363 C   0  0  0  0  0  0  0  0  0  0  0  0
  -21.1550  -38.2294   -7.5276 C   0  0  0  0  0  0  0  0  0  0  0  0
  -22.2101  -38.1901   -6.4246 C   0  0  0  0  0  0  0  0  0  0  0  0
  -23.2592  -39.2687   -6.6583 C   0  0  0  0  0  0  0  0  0  0  0  0
  -23.0113  -40.5371   -5.9195 C   0  0  0  0  0  0  0  0  0  0  0  0
  -22.6380  -41.6830   -6.8553 C   0  0  0  0  0  0  0  0  0  0  0  0
  -21.7418  -42.6496   -6.1580 C   0  0  0  0  0  0  0  0  0  0  0  0
  -20.9157  -43.5222   -7.0797 C   0  0  0  0  0  0  0  0  0  0  0  0
  -19.4783  -43.2990   -6.8036 C   0  0  0  0  0  0  0  0  0  0  0  0
  -19.2423  -43.0416   -5.5572 O   0  0  0  0  0  0  0  0  0  0  0  0
  -18.3784  -43.3277   -7.6643 N   0  0  0  0  0  0  0  0  0  0  0  0
  -17.2829  -44.2645   -7.2727 C   0  0  0  0  0  0  0  0  0  0  0  0
  -18.1455  -42.5704   -8.8704 C   0  0  1  0  0  0  0  0  0  0  0  0
  -18.7183  -43.3780  -10.0731 C   0  0  0  0  0  0  0  0  0  0  0  0
  -18.7504  -41.2432   -8.9316 C   0  0  0  0  0  0  0  0  0  0  0  0
  -20.0151  -41.3298   -9.2765 O   0  0  0  0  0  0  0  0  0  0  0  0
  -18.3184  -39.9556   -8.7214 N   0  0  0  0  0  0  0  0  0  0  0  0
  -17.2401  -39.2934   -8.1023 C   0  0  1  0  0  0  0  0  0  0  0  0
  -17.5264  -38.5803   -6.8308 C   0  0  0  0  0  0  0  0  0  0  0  0
  -16.0325  -40.1516   -7.8900 C   0  0  2  0  0  0  0  0  0  0  0  0
  -15.5766  -40.0132   -6.5569 O   0  0  0  0  0  0  0  0  0  0  0  0
  -14.8614  -39.8555   -8.7713 C   0  0  0  0  0  0  0  0  0  0  0  0
  -15.0417  -39.7113  -10.1490 N   0  0  0  0  0  0  0  0  0  0  0  0
  -14.0059  -39.4363  -11.0376 C   0  0  0  0  0  0  0  0  0  0  0  0
  -13.8340  -40.4277  -12.1330 C   0  0  0  0  0  0  0  0  0  0  0  0
  -12.6471  -39.2575  -10.3550 C   0  0  0  0  0  0  0  0  0  0  0  0
  -14.2628  -38.0887  -11.6773 C   0  0  0  0  0  0  0  0  0  0  0  0
  -15.4136  -37.9722  -12.4170 C   0  0  0  0  0  0  0  0  0  0  0  0
  -15.6814  -36.7501  -13.0099 C   0  0  0  0  0  0  0  0  0  0  0  0
  -14.8123  -35.6767  -12.8603 C   0  0  0  0  0  0  0  0  0  0  0  0
  -13.6704  -35.8309  -12.1130 C   0  0  0  0  0  0  0  0  0  0  0  0
  -12.4501  -34.3822  -11.8818 Br  0  0  0  0  0  0  0  0  0  0  0  0
  -13.4010  -37.0472  -11.5213 C   0  0  0  0  0  0  0  0  0  0  0  0
  2  1  1  6
  2  3  1  0
  3  4  1  0
  4  5  1  0
  5  6  1  0
  6  7  1  0
  7  8  1  0
  8  9  1  0
  9 10  1  0
 10 11  1  0
 11 12  2  0
 11 13  1  0
 13 14  1  0
 13 15  1  0
 15 16  1  6
 15 17  1  0
 17 18  2  0
 17 19  1  0
 19 20  1  0
 20 21  1  1
 20 22  1  0
 22 23  1  1
 22 24  1  0
 24 25  1  0
 25 26  1  0
 26 27  1  0
 26 28  1  0
 26 29  1  0
 29 30  2  0
 30 31  1  0
 31 32  2  0
 32 33  1  0
 33 34  1  0
 33 35  2  0
 21  2  1  0
 35 29  1  0
M  END
$$$$
