
     RDKit          3D

 35 36  0  0  0  0  0  0  0  0999 V2000
  -19.8137  -40.3701   -6.5862 C   0  0  0  0  0  0  0  0  0  0  0  0
  -19.3420  -38.9587   -6.3238 C   0  0  2  0  0  0  0  0  0  0  0  0
  -20.1365  -37.8860   -6.9301 C   0  0  0  0  0  0  0  0  0  0  0  0
  -21.2124  -38.2856   -7.8898 C   0  0  0  0  0  0  0  0  0  0  0  0
  -22.5130  -38.7026   -7.2072 C   0  0  0  0  0  0  0  0  0  0  0  0
  -23.3444  -39.5721   -8.1407 C   0  0  0  0  0  0  0  0  0  0  0  0
  -23.1590  -41.0361   -7.9442 C   0  0  0  0  0  0  0  0  0  0  0  0
  -22.4368  -41.6863   -9.1205 C   0  0  0  0  0  0  0  0  0  0  0  0
  -21.6507  -42.8658   -8.6572 C   0  0  0  0  0  0  0  0  0  0  0  0
  -20.5267  -43.2786   -9.5843 C   0  0  0  0  0  0  0  0  0  0  0  0
  -19.2409  -43.2070   -8.8536 C   0  0  0  0  0  0  0  0  0  0  0  0
  -19.3618  -43.4999   -7.5985 O   0  0  0  0  0  0  0  0  0  0  0  0
  -17.9606  -42.8828   -9.3085 N   0  0  0  0  0  0  0  0  0  0  0  0
  -16.9078  -43.9087   -9.0438 C   0  0  0  0  0  0  0  0  0  0  0  0
  -17.5092  -41.6911   -9.9857 C   0  0  1  0  0  0  0  0  0  0  0  0
  -17.6638  -41.9124  -11.5200 C   0  0  0  0  0  0  0  0  0  0  0  0
  -18.2176  -40.4550   -9.6678 C   0  0  0  0  0  0  0  0  0  0  0  0
  -19.3345  -40.3754  -10.3550 O   0  0  0  0  0  0  0  0  0  0  0  0
  -17.9955  -39.3795   -8.8415 N   0  0  0  0  0  0  0  0  0  0  0  0
  -17.1900  -39.0501   -7.7338 C   0  0  1  0  0  0  0  0  0  0  0  0
  -17.8680  -38.9346   -6.4169 C   0  0  0  0  0  0  0  0  0  0  0  0
  -15.9919  -39.9306   -7.5619 C   0  0  2  0  0  0  0  0  0  0  0  0
  -15.1484  -39.3986   -6.5571 O   0  0  0  0  0  0  0  0  0  0  0  0
  -15.1401  -40.1138   -8.7772 C   0  0  0  0  0  0  0  0  0  0  0  0
  -13.7868  -39.7700   -8.7408 N   0  0  0  0  0  0  0  0  0  0  0  0
  -12.7695  -40.5907   -9.2203 C   0  0  0  0  0  0  0  0  0  0  0  0
  -12.4766  -41.7862   -8.3852 C   0  0  0  0  0  0  0  0  0  0  0  0
  -11.4487  -39.8526   -9.4548 C   0  0  0  0  0  0  0  0  0  0  0  0
  -13.1533  -41.0803  -10.6003 C   0  0  0  0  0  0  0  0  0  0  0  0
  -13.8076  -42.2859  -10.6615 C   0  0  0  0  0  0  0  0  0  0  0  0
  -14.1786  -42.7587  -11.9087 C   0  0  0  0  0  0  0  0  0  0  0  0
  -13.8971  -42.0353  -13.0607 C   0  0  0  0  0  0  0  0  0  0  0  0
  -13.2407  -40.8331  -12.9602 C   0  0  0  0  0  0  0  0  0  0  0  0
  -12.8350  -39.8074  -14.5174 Br  0  0  0  0  0  0  0  0  0  0  0  0
  -12.8699  -40.3596  -11.7191 C   0  0  0  0  0  0  0  0  0  0  0  0
  2  1  1  6
  2  3  1  0
  3  4  1  0
  4  5  1  0
  5  6  1  0
  6  7  1  0
  7  8  1  0
  8  9  1  0
  9 10  1  0
 10 11  1  0
 11 12  2  0
 11 13  1  0
 13 14  1  0
 13 15  1  0
 15 16  1  6
 15 17  1  0
 17 18  2  0
 17 19  1  0
 19 20  1  0
 20 21  1  1
 20 22  1  0
 22 23  1  1
 22 24  1  0
 24 25  1  0
 25 26  1  0
 26 27  1  0
 26 28  1  0
 26 29  1  0
 29 30  2  0
 30 31  1  0
 31 32  2  0
 32 33  1  0
 33 34  1  0
 33 35  2  0
 21  2  1  0
 35 29  1  0
M  END
$$$$
