
     RDKit          3D

 35 36  0  0  0  0  0  0  0  0999 V2000
  -19.6723  -40.4719   -6.3896 C   0  0  0  0  0  0  0  0  0  0  0  0
  -19.4649  -38.9962   -6.6404 C   0  0  2  0  0  0  0  0  0  0  0  0
  -20.5178  -38.3127   -7.3977 C   0  0  0  0  0  0  0  0  0  0  0  0
  -21.5908  -39.1616   -8.0031 C   0  0  0  0  0  0  0  0  0  0  0  0
  -22.7004  -39.5319   -7.0217 C   0  0  0  0  0  0  0  0  0  0  0  0
  -23.4390  -40.7734   -7.5034 C   0  0  0  0  0  0  0  0  0  0  0  0
  -22.9460  -42.0486   -6.9143 C   0  0  0  0  0  0  0  0  0  0  0  0
  -22.2415  -42.9234   -7.9469 C   0  0  0  0  0  0  0  0  0  0  0  0
  -21.1909  -43.7541   -7.2910 C   0  0  0  0  0  0  0  0  0  0  0  0
  -20.1150  -44.2649   -8.2263 C   0  0  0  0  0  0  0  0  0  0  0  0
  -18.7974  -43.7637   -7.7736 C   0  0  0  0  0  0  0  0  0  0  0  0
  -18.7203  -43.6514   -6.4864 O   0  0  0  0  0  0  0  0  0  0  0  0
  -17.6643  -43.4097   -8.5099 N   0  0  0  0  0  0  0  0  0  0  0  0
  -16.4062  -44.1198   -8.1305 C   0  0  0  0  0  0  0  0  0  0  0  0
  -17.5352  -42.4454   -9.5756 C   0  0  1  0  0  0  0  0  0  0  0  0
  -17.8088  -43.1705  -10.9270 C   0  0  0  0  0  0  0  0  0  0  0  0
  -18.4362  -41.2979   -9.5267 C   0  0  0  0  0  0  0  0  0  0  0  0
  -19.6147  -41.6177  -10.0114 O   0  0  0  0  0  0  0  0  0  0  0  0
  -18.3437  -39.9928   -9.1061 N   0  0  0  0  0  0  0  0  0  0  0  0
  -17.5041  -39.2036   -8.2957 C   0  0  1  0  0  0  0  0  0  0  0  0
  -18.0441  -38.7760   -6.9794 C   0  0  0  0  0  0  0  0  0  0  0  0
  -16.1435  -39.7853   -8.0710 C   0  0  2  0  0  0  0  0  0  0  0  0
  -15.5017  -39.1030   -7.0096 O   0  0  0  0  0  0  0  0  0  0  0  0
  -15.2106  -39.7267   -9.2381 C   0  0  0  0  0  0  0  0  0  0  0  0
  -13.8410  -39.9263   -9.0493 N   0  0  0  0  0  0  0  0  0  0  0  0
  -12.8614  -39.3827   -9.8759 C   0  0  0  0  0  0  0  0  0  0  0  0
  -12.0574  -40.3747  -10.6387 C   0  0  0  0  0  0  0  0  0  0  0  0
  -11.8854  -38.4599   -9.1408 C   0  0  0  0  0  0  0  0  0  0  0  0
  -13.5292  -38.4672  -10.8794 C   0  0  0  0  0  0  0  0  0  0  0  0
  -14.4109  -39.0557  -11.7521 C   0  0  0  0  0  0  0  0  0  0  0  0
  -15.0439  -38.2446  -12.6785 C   0  0  0  0  0  0  0  0  0  0  0  0
  -14.7938  -36.8788  -12.7225 C   0  0  0  0  0  0  0  0  0  0  0  0
  -13.9051  -36.3255  -11.8336 C   0  0  0  0  0  0  0  0  0  0  0  0
  -13.5332  -34.4541  -11.8595 Br  0  0  0  0  0  0  0  0  0  0  0  0
  -13.2731  -37.1311  -10.9096 C   0  0  0  0  0  0  0  0  0  0  0  0
  2  1  1  6
  2  3  1  0
  3  4  1  0
  4  5  1  0
  5  6  1  0
  6  7  1  0
  7  8  1  0
  8  9  1  0
  9 10  1  0
 10 11  1  0
 11 12  2  0
 11 13  1  0
 13 14  1  0
 13 15  1  0
 15 16  1  6
 15 17  1  0
 17 18  2  0
 17 19  1  0
 19 20  1  0
 20 21  1  1
 20 22  1  0
 22 23  1  1
 22 24  1  0
 24 25  1  0
 25 26  1  0
 26 27  1  0
 26 28  1  0
 26 29  1  0
 29 30  2  0
 30 31  1  0
 31 32  2  0
 32 33  1  0
 33 34  1  0
 33 35  2  0
 21  2  1  0
 35 29  1  0
M  END
$$$$
