
     RDKit          3D

 35 36  0  0  0  0  0  0  0  0999 V2000
  -19.5291  -39.3225   -6.5063 C   0  0  0  0  0  0  0  0  0  0  0  0
  -19.1380  -38.0754   -7.2647 C   0  0  2  0  0  0  0  0  0  0  0  0
  -20.1564  -37.5123   -8.1564 C   0  0  0  0  0  0  0  0  0  0  0  0
  -21.4007  -38.3146   -8.3723 C   0  0  0  0  0  0  0  0  0  0  0  0
  -22.4391  -38.1369   -7.2671 C   0  0  0  0  0  0  0  0  0  0  0  0
  -23.3981  -39.3196   -7.2482 C   0  0  0  0  0  0  0  0  0  0  0  0
  -23.0345  -40.3897   -6.2792 C   0  0  0  0  0  0  0  0  0  0  0  0
  -22.5809  -41.6676   -6.9786 C   0  0  0  0  0  0  0  0  0  0  0  0
  -21.5972  -42.4004   -6.1305 C   0  0  0  0  0  0  0  0  0  0  0  0
  -20.7149  -43.3730   -6.8847 C   0  0  0  0  0  0  0  0  0  0  0  0
  -19.2972  -42.9864   -6.7036 C   0  0  0  0  0  0  0  0  0  0  0  0
  -19.0653  -42.4656   -5.5415 O   0  0  0  0  0  0  0  0  0  0  0  0
  -18.2114  -43.1014   -7.5750 N   0  0  0  0  0  0  0  0  0  0  0  0
  -17.0361  -43.8510   -7.0386 C   0  0  0  0  0  0  0  0  0  0  0  0
  -18.0601  -42.5867   -8.9146 C   0  0  1  0  0  0  0  0  0  0  0  0
  -18.5813  -43.6625   -9.9136 C   0  0  0  0  0  0  0  0  0  0  0  0
  -18.7742  -41.3508   -9.2206 C   0  0  0  0  0  0  0  0  0  0  0  0
  -20.0323  -41.6043   -9.5019 O   0  0  0  0  0  0  0  0  0  0  0  0
  -18.4480  -40.0173   -9.2852 N   0  0  0  0  0  0  0  0  0  0  0  0
  -17.4196  -39.1613   -8.8445 C   0  0  1  0  0  0  0  0  0  0  0  0
  -17.7456  -38.2315   -7.7326 C   0  0  0  0  0  0  0  0  0  0  0  0
  -16.1417  -39.8615   -8.5028 C   0  0  2  0  0  0  0  0  0  0  0  0
  -16.1124  -40.1529   -7.1177 O   0  0  0  0  0  0  0  0  0  0  0  0
  -14.8863  -39.1069   -8.8038 C   0  0  0  0  0  0  0  0  0  0  0  0
  -14.4948  -38.9011  -10.1288 N   0  0  0  0  0  0  0  0  0  0  0  0
  -14.4406  -37.6470  -10.7309 C   0  0  0  0  0  0  0  0  0  0  0  0
  -13.7940  -36.5833   -9.9167 C   0  0  0  0  0  0  0  0  0  0  0  0
  -15.8088  -37.1240  -11.1767 C   0  0  0  0  0  0  0  0  0  0  0  0
  -13.6658  -37.7656  -12.0259 C   0  0  0  0  0  0  0  0  0  0  0  0
  -13.0677  -38.9767  -12.2720 C   0  0  0  0  0  0  0  0  0  0  0  0
  -12.3570  -39.1202  -13.4514 C   0  0  0  0  0  0  0  0  0  0  0  0
  -12.2531  -38.0710  -14.3561 C   0  0  0  0  0  0  0  0  0  0  0  0
  -12.8647  -36.8738  -14.0756 C   0  0  0  0  0  0  0  0  0  0  0  0
  -12.7474  -35.4074  -15.2910 Br  0  0  0  0  0  0  0  0  0  0  0  0
  -13.5734  -36.7281  -12.9015 C   0  0  0  0  0  0  0  0  0  0  0  0
  2  1  1  6
  2  3  1  0
  3  4  1  0
  4  5  1  0
  5  6  1  0
  6  7  1  0
  7  8  1  0
  8  9  1  0
  9 10  1  0
 10 11  1  0
 11 12  2  0
 11 13  1  0
 13 14  1  0
 13 15  1  0
 15 16  1  6
 15 17  1  0
 17 18  2  0
 17 19  1  0
 19 20  1  0
 20 21  1  1
 20 22  1  0
 22 23  1  1
 22 24  1  0
 24 25  1  0
 25 26  1  0
 26 27  1  0
 26 28  1  0
 26 29  1  0
 29 30  2  0
 30 31  1  0
 31 32  2  0
 32 33  1  0
 33 34  1  0
 33 35  2  0
 21  2  1  0
 35 29  1  0
M  END
$$$$
