
     RDKit          3D

 35 36  0  0  0  0  0  0  0  0999 V2000
  -20.0752  -39.9612   -6.0560 C   0  0  0  0  0  0  0  0  0  0  0  0
  -19.9657  -38.5640   -6.6211 C   0  0  2  0  0  0  0  0  0  0  0  0
  -21.1182  -38.0826   -7.3888 C   0  0  0  0  0  0  0  0  0  0  0  0
  -22.2005  -39.0690   -7.6955 C   0  0  0  0  0  0  0  0  0  0  0  0
  -23.1923  -39.2602   -6.5505 C   0  0  0  0  0  0  0  0  0  0  0  0
  -23.9110  -40.5952   -6.6914 C   0  0  0  0  0  0  0  0  0  0  0  0
  -23.3020  -41.7062   -5.9098 C   0  0  0  0  0  0  0  0  0  0  0  0
  -22.6561  -42.7550   -6.8102 C   0  0  0  0  0  0  0  0  0  0  0  0
  -21.5083  -43.4013   -6.1111 C   0  0  0  0  0  0  0  0  0  0  0  0
  -20.5021  -44.0633   -7.0290 C   0  0  0  0  0  0  0  0  0  0  0  0
  -19.1738  -43.4414   -6.8256 C   0  0  0  0  0  0  0  0  0  0  0  0
  -18.9807  -43.0630   -5.6028 O   0  0  0  0  0  0  0  0  0  0  0  0
  -18.1346  -43.2148   -7.7311 N   0  0  0  0  0  0  0  0  0  0  0  0
  -16.8126  -43.7944   -7.3471 C   0  0  0  0  0  0  0  0  0  0  0  0
  -18.1549  -42.4885   -8.9779 C   0  0  1  0  0  0  0  0  0  0  0  0
  -18.5193  -43.4852  -10.1184 C   0  0  0  0  0  0  0  0  0  0  0  0
  -19.1029  -41.3823   -9.0703 C   0  0  0  0  0  0  0  0  0  0  0  0
  -20.3048  -41.8294   -9.3560 O   0  0  0  0  0  0  0  0  0  0  0  0
  -19.0355  -40.0163   -8.9352 N   0  0  0  0  0  0  0  0  0  0  0  0
  -18.1629  -39.0526   -8.3928 C   0  0  1  0  0  0  0  0  0  0  0  0
  -18.5961  -38.3776   -7.1422 C   0  0  0  0  0  0  0  0  0  0  0  0
  -16.7600  -39.5357   -8.1960 C   0  0  2  0  0  0  0  0  0  0  0  0
  -16.1177  -38.7486   -7.2100 O   0  0  0  0  0  0  0  0  0  0  0  0
  -15.8833  -39.4969   -9.4067 C   0  0  0  0  0  0  0  0  0  0  0  0
  -14.5655  -39.9541   -9.3307 N   0  0  0  0  0  0  0  0  0  0  0  0
  -13.6265  -39.7716  -10.3422 C   0  0  0  0  0  0  0  0  0  0  0  0
  -13.6735  -40.7782  -11.4362 C   0  0  0  0  0  0  0  0  0  0  0  0
  -12.1843  -39.7064   -9.8322 C   0  0  0  0  0  0  0  0  0  0  0  0
  -13.8455  -38.4094  -10.9650 C   0  0  0  0  0  0  0  0  0  0  0  0
  -14.2474  -37.4069  -10.1174 C   0  0  0  0  0  0  0  0  0  0  0  0
  -14.4499  -36.1470  -10.6545 C   0  0  0  0  0  0  0  0  0  0  0  0
  -14.2524  -35.9065  -12.0084 C   0  0  0  0  0  0  0  0  0  0  0  0
  -13.8504  -36.9343  -12.8258 C   0  0  0  0  0  0  0  0  0  0  0  0
  -13.5673  -36.6469  -14.6909 Br  0  0  0  0  0  0  0  0  0  0  0  0
  -13.6479  -38.1904  -12.2934 C   0  0  0  0  0  0  0  0  0  0  0  0
  2  1  1  6
  2  3  1  0
  3  4  1  0
  4  5  1  0
  5  6  1  0
  6  7  1  0
  7  8  1  0
  8  9  1  0
  9 10  1  0
 10 11  1  0
 11 12  2  0
 11 13  1  0
 13 14  1  0
 13 15  1  0
 15 16  1  6
 15 17  1  0
 17 18  2  0
 17 19  1  0
 19 20  1  0
 20 21  1  1
 20 22  1  0
 22 23  1  1
 22 24  1  0
 24 25  1  0
 25 26  1  0
 26 27  1  0
 26 28  1  0
 26 29  1  0
 29 30  2  0
 30 31  1  0
 31 32  2  0
 32 33  1  0
 33 34  1  0
 33 35  2  0
 21  2  1  0
 35 29  1  0
M  END
$$$$
