
     RDKit          3D

 35 36  0  0  0  0  0  0  0  0999 V2000
  -19.9300  -39.6543   -5.8729 C   0  0  0  0  0  0  0  0  0  0  0  0
  -19.5779  -38.3995   -6.6379 C   0  0  2  0  0  0  0  0  0  0  0  0
  -20.6512  -37.8074   -7.4421 C   0  0  0  0  0  0  0  0  0  0  0  0
  -21.9196  -38.5890   -7.5781 C   0  0  0  0  0  0  0  0  0  0  0  0
  -22.8707  -38.4166   -6.3960 C   0  0  0  0  0  0  0  0  0  0  0  0
  -23.8428  -39.5865   -6.3252 C   0  0  0  0  0  0  0  0  0  0  0  0
  -23.4243  -40.6780   -5.4035 C   0  0  0  0  0  0  0  0  0  0  0  0
  -23.0425  -41.9496   -6.1554 C   0  0  0  0  0  0  0  0  0  0  0  0
  -22.0096  -42.7102   -5.3949 C   0  0  0  0  0  0  0  0  0  0  0  0
  -21.2000  -43.6813   -6.2283 C   0  0  0  0  0  0  0  0  0  0  0  0
  -19.7672  -43.3170   -6.1468 C   0  0  0  0  0  0  0  0  0  0  0  0
  -19.4422  -42.8195   -4.9967 O   0  0  0  0  0  0  0  0  0  0  0  0
  -18.7507  -43.4314   -7.0981 N   0  0  0  0  0  0  0  0  0  0  0  0
  -17.5500  -44.2059   -6.6628 C   0  0  0  0  0  0  0  0  0  0  0  0
  -18.6915  -42.8955   -8.4367 C   0  0  1  0  0  0  0  0  0  0  0  0
  -19.3009  -43.9467   -9.4116 C   0  0  0  0  0  0  0  0  0  0  0  0
  -19.4081  -41.6451   -8.6686 C   0  0  0  0  0  0  0  0  0  0  0  0
  -20.6871  -41.8767   -8.8597 O   0  0  0  0  0  0  0  0  0  0  0  0
  -19.0680  -40.3151   -8.7354 N   0  0  0  0  0  0  0  0  0  0  0  0
  -17.9973  -39.4808   -8.3584 C   0  0  1  0  0  0  0  0  0  0  0  0
  -18.2264  -38.5661   -7.2104 C   0  0  0  0  0  0  0  0  0  0  0  0
  -16.7080  -40.2039   -8.1241 C   0  0  2  0  0  0  0  0  0  0  0  0
  -16.0437  -39.6455   -7.0056 O   0  0  0  0  0  0  0  0  0  0  0  0
  -15.7311  -40.1743   -9.2557 C   0  0  0  0  0  0  0  0  0  0  0  0
  -15.9683  -39.3567  -10.3632 N   0  0  0  0  0  0  0  0  0  0  0  0
  -15.0702  -38.3953  -10.8184 C   0  0  0  0  0  0  0  0  0  0  0  0
  -14.1775  -38.8379  -11.9227 C   0  0  0  0  0  0  0  0  0  0  0  0
  -14.1868  -37.8124   -9.7118 C   0  0  0  0  0  0  0  0  0  0  0  0
  -15.8533  -37.1990  -11.3155 C   0  0  0  0  0  0  0  0  0  0  0  0
  -15.5095  -35.9799  -10.7856 C   0  0  0  0  0  0  0  0  0  0  0  0
  -16.2023  -34.8645  -11.2245 C   0  0  0  0  0  0  0  0  0  0  0  0
  -17.2130  -34.9768  -12.1709 C   0  0  0  0  0  0  0  0  0  0  0  0
  -17.5293  -36.2132  -12.6783 C   0  0  0  0  0  0  0  0  0  0  0  0
  -18.9104  -36.4118  -13.9801 Br  0  0  0  0  0  0  0  0  0  0  0  0
  -16.8409  -37.3261  -12.2429 C   0  0  0  0  0  0  0  0  0  0  0  0
  2  1  1  6
  2  3  1  0
  3  4  1  0
  4  5  1  0
  5  6  1  0
  6  7  1  0
  7  8  1  0
  8  9  1  0
  9 10  1  0
 10 11  1  0
 11 12  2  0
 11 13  1  0
 13 14  1  0
 13 15  1  0
 15 16  1  6
 15 17  1  0
 17 18  2  0
 17 19  1  0
 19 20  1  0
 20 21  1  1
 20 22  1  0
 22 23  1  1
 22 24  1  0
 24 25  1  0
 25 26  1  0
 26 27  1  0
 26 28  1  0
 26 29  1  0
 29 30  2  0
 30 31  1  0
 31 32  2  0
 32 33  1  0
 33 34  1  0
 33 35  2  0
 21  2  1  0
 35 29  1  0
M  END
$$$$
