
     RDKit          3D

 35 36  0  0  0  0  0  0  0  0999 V2000
  -19.5943  -39.8989   -5.6475 C   0  0  0  0  0  0  0  0  0  0  0  0
  -19.3410  -38.5252   -6.2238 C   0  0  2  0  0  0  0  0  0  0  0  0
  -20.4702  -37.8921   -6.9119 C   0  0  0  0  0  0  0  0  0  0  0  0
  -21.6914  -38.7258   -7.1397 C   0  0  0  0  0  0  0  0  0  0  0  0
  -22.6186  -38.7912   -5.9283 C   0  0  0  0  0  0  0  0  0  0  0  0
  -23.5148  -40.0193   -6.0147 C   0  0  0  0  0  0  0  0  0  0  0  0
  -23.0049  -41.2050   -5.2729 C   0  0  0  0  0  0  0  0  0  0  0  0
  -22.5663  -42.3247   -6.2120 C   0  0  0  0  0  0  0  0  0  0  0  0
  -21.4682  -43.1203   -5.5914 C   0  0  0  0  0  0  0  0  0  0  0  0
  -20.6234  -43.9037   -6.5741 C   0  0  0  0  0  0  0  0  0  0  0  0
  -19.2141  -43.4632   -6.4650 C   0  0  0  0  0  0  0  0  0  0  0  0
  -18.8891  -43.1203   -5.2598 O   0  0  0  0  0  0  0  0  0  0  0  0
  -18.2188  -43.3703   -7.4408 N   0  0  0  0  0  0  0  0  0  0  0  0
  -16.9613  -44.1209   -7.1468 C   0  0  0  0  0  0  0  0  0  0  0  0
  -18.2292  -42.6407   -8.6858 C   0  0  1  0  0  0  0  0  0  0  0  0
  -18.7992  -43.5745   -9.7950 C   0  0  0  0  0  0  0  0  0  0  0  0
  -19.0274  -41.4189   -8.7166 C   0  0  0  0  0  0  0  0  0  0  0  0
  -20.2944  -41.7024   -8.9171 O   0  0  0  0  0  0  0  0  0  0  0  0
  -18.7716  -40.0744   -8.5913 N   0  0  0  0  0  0  0  0  0  0  0  0
  -17.7444  -39.2369   -8.1138 C   0  0  1  0  0  0  0  0  0  0  0  0
  -17.9980  -38.5178   -6.8387 C   0  0  0  0  0  0  0  0  0  0  0  0
  -16.4072  -39.9015   -8.0125 C   0  0  2  0  0  0  0  0  0  0  0  0
  -15.6278  -39.2577   -7.0215 O   0  0  0  0  0  0  0  0  0  0  0  0
  -15.5861  -39.9039   -9.2622 C   0  0  0  0  0  0  0  0  0  0  0  0
  -14.5109  -39.0221   -9.3942 N   0  0  0  0  0  0  0  0  0  0  0  0
  -13.7856  -38.8614  -10.5716 C   0  0  0  0  0  0  0  0  0  0  0  0
  -13.8354  -40.0171  -11.5065 C   0  0  0  0  0  0  0  0  0  0  0  0
  -12.3124  -38.5150  -10.3388 C   0  0  0  0  0  0  0  0  0  0  0  0
  -14.3227  -37.6536  -11.3093 C   0  0  0  0  0  0  0  0  0  0  0  0
  -13.9105  -37.4980  -12.6096 C   0  0  0  0  0  0  0  0  0  0  0  0
  -14.3891  -36.4068  -13.3146 C   0  0  0  0  0  0  0  0  0  0  0  0
  -15.2587  -35.4989  -12.7235 C   0  0  0  0  0  0  0  0  0  0  0  0
  -15.6490  -35.6871  -11.4203 C   0  0  0  0  0  0  0  0  0  0  0  0
  -16.8424  -34.4644  -10.5706 Br  0  0  0  0  0  0  0  0  0  0  0  0
  -15.1738  -36.7733  -10.7157 C   0  0  0  0  0  0  0  0  0  0  0  0
  2  1  1  6
  2  3  1  0
  3  4  1  0
  4  5  1  0
  5  6  1  0
  6  7  1  0
  7  8  1  0
  8  9  1  0
  9 10  1  0
 10 11  1  0
 11 12  2  0
 11 13  1  0
 13 14  1  0
 13 15  1  0
 15 16  1  6
 15 17  1  0
 17 18  2  0
 17 19  1  0
 19 20  1  0
 20 21  1  1
 20 22  1  0
 22 23  1  1
 22 24  1  0
 24 25  1  0
 25 26  1  0
 26 27  1  0
 26 28  1  0
 26 29  1  0
 29 30  2  0
 30 31  1  0
 31 32  2  0
 32 33  1  0
 33 34  1  0
 33 35  2  0
 21  2  1  0
 35 29  1  0
M  END
$$$$
