
     RDKit          3D

 35 36  0  0  0  0  0  0  0  0999 V2000
  -14.9765  -38.3204  -12.2964 C   0  0  0  0  0  0  0  0  0  0  0  0
  -15.8947  -37.2197  -11.8179 C   0  0  2  0  0  0  0  0  0  0  0  0
  -15.2661  -35.9237  -11.5443 C   0  0  0  0  0  0  0  0  0  0  0  0
  -13.7718  -35.8625  -11.5836 C   0  0  0  0  0  0  0  0  0  0  0  0
  -13.2056  -35.7067  -12.9930 C   0  0  0  0  0  0  0  0  0  0  0  0
  -11.7569  -36.1738  -13.0350 C   0  0  0  0  0  0  0  0  0  0  0  0
  -11.5788  -37.5843  -13.4765 C   0  0  0  0  0  0  0  0  0  0  0  0
  -11.1026  -38.4855  -12.3410 C   0  0  0  0  0  0  0  0  0  0  0  0
  -11.5990  -39.8773  -12.5421 C   0  0  0  0  0  0  0  0  0  0  0  0
  -11.6348  -40.7221  -11.2858 C   0  0  0  0  0  0  0  0  0  0  0  0
  -13.0241  -41.1710  -11.0397 C   0  0  0  0  0  0  0  0  0  0  0  0
  -13.6851  -41.3750  -12.1338 O   0  0  0  0  0  0  0  0  0  0  0  0
  -13.6996  -41.4006   -9.8387 N   0  0  0  0  0  0  0  0  0  0  0  0
  -14.2934  -42.7629   -9.6880 C   0  0  0  0  0  0  0  0  0  0  0  0
  -13.9160  -40.5033   -8.7295 C   0  0  1  0  0  0  0  0  0  0  0  0
  -12.7276  -40.6603   -7.7345 C   0  0  0  0  0  0  0  0  0  0  0  0
  -14.0074  -39.0824   -9.0511 C   0  0  0  0  0  0  0  0  0  0  0  0
  -12.8081  -38.5635   -9.1864 O   0  0  0  0  0  0  0  0  0  0  0  0
  -15.0276  -38.1806   -9.2383 N   0  0  0  0  0  0  0  0  0  0  0  0
  -16.4131  -38.1945   -9.4922 C   0  0  1  0  0  0  0  0  0  0  0  0
  -16.8536  -37.7981  -10.8546 C   0  0  0  0  0  0  0  0  0  0  0  0
  -17.0886  -39.4839   -9.1442 C   0  0  2  0  0  0  0  0  0  0  0  0
  -18.0699  -39.7872  -10.1185 O   0  0  0  0  0  0  0  0  0  0  0  0
  -17.7817  -39.5179   -7.8197 C   0  0  0  0  0  0  0  0  0  0  0  0
  -19.1544  -39.2713   -7.7422 N   0  0  0  0  0  0  0  0  0  0  0  0
  -19.8686  -39.2544   -6.5473 C   0  0  0  0  0  0  0  0  0  0  0  0
  -20.1537  -37.9006   -6.0013 C   0  0  0  0  0  0  0  0  0  0  0  0
  -19.2145  -40.0766   -5.4334 C   0  0  0  0  0  0  0  0  0  0  0  0
  -21.1963  -39.9471   -6.7678 C   0  0  0  0  0  0  0  0  0  0  0  0
  -22.3213  -39.1738   -6.6212 C   0  0  0  0  0  0  0  0  0  0  0  0
  -23.5517  -39.7757   -6.8228 C   0  0  0  0  0  0  0  0  0  0  0  0
  -23.6435  -41.1196   -7.1625 C   0  0  0  0  0  0  0  0  0  0  0  0
  -22.4961  -41.8617   -7.3000 C   0  0  0  0  0  0  0  0  0  0  0  0
  -22.5773  -43.7104   -7.7659 Br  0  0  0  0  0  0  0  0  0  0  0  0
  -21.2691  -41.2647   -7.0998 C   0  0  0  0  0  0  0  0  0  0  0  0
  2  1  1  1
  2  3  1  0
  3  4  1  0
  4  5  1  0
  5  6  1  0
  6  7  1  0
  7  8  1  0
  8  9  1  0
  9 10  1  0
 10 11  1  0
 11 12  2  0
 11 13  1  0
 13 14  1  0
 13 15  1  0
 15 16  1  1
 15 17  1  0
 17 18  2  0
 17 19  1  0
 19 20  1  0
 20 21  1  6
 20 22  1  0
 22 23  1  6
 22 24  1  0
 24 25  1  0
 25 26  1  0
 26 27  1  0
 26 28  1  0
 26 29  1  0
 29 30  2  0
 30 31  1  0
 31 32  2  0
 32 33  1  0
 33 34  1  0
 33 35  2  0
 21  2  1  0
 35 29  1  0
M  END
$$$$
