
     RDKit          3D

 35 36  0  0  0  0  0  0  0  0999 V2000
  -19.6508  -40.3194   -5.5944 C   0  0  0  0  0  0  0  0  0  0  0  0
  -19.8453  -38.8646   -5.9538 C   0  0  2  0  0  0  0  0  0  0  0  0
  -21.1603  -38.4989   -6.4891 C   0  0  0  0  0  0  0  0  0  0  0  0
  -22.1099  -39.6124   -6.8002 C   0  0  0  0  0  0  0  0  0  0  0  0
  -22.8775  -40.1167   -5.5804 C   0  0  0  0  0  0  0  0  0  0  0  0
  -23.3930  -41.5281   -5.8271 C   0  0  0  0  0  0  0  0  0  0  0  0
  -22.5088  -42.6053   -5.3034 C   0  0  0  0  0  0  0  0  0  0  0  0
  -21.8500  -43.4031   -6.4247 C   0  0  0  0  0  0  0  0  0  0  0  0
  -20.5243  -43.9221   -5.9808 C   0  0  0  0  0  0  0  0  0  0  0  0
  -19.5762  -44.2770   -7.1070 C   0  0  0  0  0  0  0  0  0  0  0  0
  -18.3453  -43.4635   -6.9827 C   0  0  0  0  0  0  0  0  0  0  0  0
  -18.0326  -43.2144   -5.7515 O   0  0  0  0  0  0  0  0  0  0  0  0
  -17.5012  -42.9465   -7.9683 N   0  0  0  0  0  0  0  0  0  0  0  0
  -16.0628  -43.3301   -7.8455 C   0  0  0  0  0  0  0  0  0  0  0  0
  -17.8203  -42.0836   -9.0800 C   0  0  1  0  0  0  0  0  0  0  0  0
  -18.1919  -42.9766  -10.3012 C   0  0  0  0  0  0  0  0  0  0  0  0
  -18.9316  -41.1572   -8.8856 C   0  0  0  0  0  0  0  0  0  0  0  0
  -20.0785  -41.7675   -9.0805 O   0  0  0  0  0  0  0  0  0  0  0  0
  -19.0577  -39.8285   -8.5577 N   0  0  0  0  0  0  0  0  0  0  0  0
  -18.2740  -38.8035   -7.9923 C   0  0  1  0  0  0  0  0  0  0  0  0
  -18.6149  -38.3778   -6.6103 C   0  0  0  0  0  0  0  0  0  0  0  0
  -16.7998  -39.0551   -8.0488 C   0  0  2  0  0  0  0  0  0  0  0  0
  -16.1302  -38.1709   -7.1690 O   0  0  0  0  0  0  0  0  0  0  0  0
  -16.1618  -38.8823   -9.3901 C   0  0  0  0  0  0  0  0  0  0  0  0
  -14.7838  -38.6748   -9.4875 N   0  0  0  0  0  0  0  0  0  0  0  0
  -14.1408  -38.3077  -10.6665 C   0  0  0  0  0  0  0  0  0  0  0  0
  -14.1319  -39.3469  -11.7306 C   0  0  0  0  0  0  0  0  0  0  0  0
  -12.6963  -37.8457  -10.4559 C   0  0  0  0  0  0  0  0  0  0  0  0
  -14.8276  -37.0823  -11.2304 C   0  0  0  0  0  0  0  0  0  0  0  0
  -15.8802  -37.3088  -12.0824 C   0  0  0  0  0  0  0  0  0  0  0  0
  -16.5344  -36.2088  -12.6103 C   0  0  0  0  0  0  0  0  0  0  0  0
  -16.1371  -34.9173  -12.2873 C   0  0  0  0  0  0  0  0  0  0  0  0
  -15.0794  -34.7298  -11.4316 C   0  0  0  0  0  0  0  0  0  0  0  0
  -14.5017  -32.9729  -10.9615 Br  0  0  0  0  0  0  0  0  0  0  0  0
  -14.4259  -35.8238  -10.9043 C   0  0  0  0  0  0  0  0  0  0  0  0
  2  1  1  6
  2  3  1  0
  3  4  1  0
  4  5  1  0
  5  6  1  0
  6  7  1  0
  7  8  1  0
  8  9  1  0
  9 10  1  0
 10 11  1  0
 11 12  2  0
 11 13  1  0
 13 14  1  0
 13 15  1  0
 15 16  1  6
 15 17  1  0
 17 18  2  0
 17 19  1  0
 19 20  1  0
 20 21  1  1
 20 22  1  0
 22 23  1  1
 22 24  1  0
 24 25  1  0
 25 26  1  0
 26 27  1  0
 26 28  1  0
 26 29  1  0
 29 30  2  0
 30 31  1  0
 31 32  2  0
 32 33  1  0
 33 34  1  0
 33 35  2  0
 21  2  1  0
 35 29  1  0
M  END
$$$$
