
     RDKit          3D

 35 36  0  0  0  0  0  0  0  0999 V2000
  -19.3201  -39.8179   -6.4162 C   0  0  0  0  0  0  0  0  0  0  0  0
  -18.6999  -38.4572   -6.6334 C   0  0  2  0  0  0  0  0  0  0  0  0
  -19.4837  -37.5063   -7.4276 C   0  0  0  0  0  0  0  0  0  0  0  0
  -20.7189  -38.0225   -8.0957 C   0  0  0  0  0  0  0  0  0  0  0  0
  -21.9344  -38.0728   -7.1730 C   0  0  0  0  0  0  0  0  0  0  0  0
  -22.9635  -39.0592   -7.7083 C   0  0  0  0  0  0  0  0  0  0  0  0
  -22.8727  -40.4227   -7.1175 C   0  0  0  0  0  0  0  0  0  0  0  0
  -22.3884  -41.4561   -8.1302 C   0  0  0  0  0  0  0  0  0  0  0  0
  -21.6427  -42.5473   -7.4397 C   0  0  0  0  0  0  0  0  0  0  0  0
  -20.7060  -43.3343   -8.3321 C   0  0  0  0  0  0  0  0  0  0  0  0
  -19.3249  -43.2197   -7.8108 C   0  0  0  0  0  0  0  0  0  0  0  0
  -19.2829  -43.1364   -6.5197 O   0  0  0  0  0  0  0  0  0  0  0  0
  -18.1034  -43.1922   -8.4879 N   0  0  0  0  0  0  0  0  0  0  0  0
  -17.1115  -44.2246   -8.0620 C   0  0  0  0  0  0  0  0  0  0  0  0
  -17.6600  -42.2989   -9.5309 C   0  0  1  0  0  0  0  0  0  0  0  0
  -18.0572  -42.9161  -10.9050 C   0  0  0  0  0  0  0  0  0  0  0  0
  -18.2091  -40.9466   -9.5054 C   0  0  0  0  0  0  0  0  0  0  0  0
  -19.4048  -40.9254  -10.0493 O   0  0  0  0  0  0  0  0  0  0  0  0
  -17.7793  -39.7195   -9.0600 N   0  0  0  0  0  0  0  0  0  0  0  0
  -16.7946  -39.1964   -8.1990 C   0  0  1  0  0  0  0  0  0  0  0  0
  -17.2589  -38.6390   -6.9025 C   0  0  0  0  0  0  0  0  0  0  0  0
  -15.6613  -40.1335   -7.9208 C   0  0  2  0  0  0  0  0  0  0  0  0
  -15.5065  -40.2940   -6.5228 O   0  0  0  0  0  0  0  0  0  0  0  0
  -14.3267  -39.7148   -8.4497 C   0  0  0  0  0  0  0  0  0  0  0  0
  -14.0457  -39.8348   -9.8127 N   0  0  0  0  0  0  0  0  0  0  0  0
  -12.7976  -39.5684  -10.3690 C   0  0  0  0  0  0  0  0  0  0  0  0
  -12.1105  -40.7428  -10.9696 C   0  0  0  0  0  0  0  0  0  0  0  0
  -11.8214  -38.9086   -9.3911 C   0  0  0  0  0  0  0  0  0  0  0  0
  -12.9654  -38.5309  -11.4584 C   0  0  0  0  0  0  0  0  0  0  0  0
  -12.8117  -38.9701  -12.7502 C   0  0  0  0  0  0  0  0  0  0  0  0
  -12.9656  -38.0472  -13.7706 C   0  0  0  0  0  0  0  0  0  0  0  0
  -13.2659  -36.7192  -13.4947 C   0  0  0  0  0  0  0  0  0  0  0  0
  -13.4121  -36.3164  -12.1899 C   0  0  0  0  0  0  0  0  0  0  0  0
  -13.8250  -34.5021  -11.7670 Br  0  0  0  0  0  0  0  0  0  0  0  0
  -13.2594  -37.2337  -11.1713 C   0  0  0  0  0  0  0  0  0  0  0  0
  2  1  1  6
  2  3  1  0
  3  4  1  0
  4  5  1  0
  5  6  1  0
  6  7  1  0
  7  8  1  0
  8  9  1  0
  9 10  1  0
 10 11  1  0
 11 12  2  0
 11 13  1  0
 13 14  1  0
 13 15  1  0
 15 16  1  6
 15 17  1  0
 17 18  2  0
 17 19  1  0
 19 20  1  0
 20 21  1  1
 20 22  1  0
 22 23  1  1
 22 24  1  0
 24 25  1  0
 25 26  1  0
 26 27  1  0
 26 28  1  0
 26 29  1  0
 29 30  2  0
 30 31  1  0
 31 32  2  0
 32 33  1  0
 33 34  1  0
 33 35  2  0
 21  2  1  0
 35 29  1  0
M  END
$$$$
