
     RDKit          3D

 35 36  0  0  0  0  0  0  0  0999 V2000
  -19.3261  -39.9623   -5.8804 C   0  0  0  0  0  0  0  0  0  0  0  0
  -18.9887  -38.5625   -6.3389 C   0  0  2  0  0  0  0  0  0  0  0  0
  -20.0741  -37.8086   -6.9737 C   0  0  0  0  0  0  0  0  0  0  0  0
  -21.3405  -38.5470   -7.2732 C   0  0  0  0  0  0  0  0  0  0  0  0
  -22.2783  -38.6586   -6.0735 C   0  0  0  0  0  0  0  0  0  0  0  0
  -23.2442  -39.8203   -6.2643 C   0  0  0  0  0  0  0  0  0  0  0  0
  -22.8099  -41.0919   -5.6236 C   0  0  0  0  0  0  0  0  0  0  0  0
  -22.4310  -42.1530   -6.6525 C   0  0  0  0  0  0  0  0  0  0  0  0
  -21.3858  -43.0610   -6.0986 C   0  0  0  0  0  0  0  0  0  0  0  0
  -20.5815  -43.8079   -7.1419 C   0  0  0  0  0  0  0  0  0  0  0  0
  -19.1495  -43.4620   -6.9933 C   0  0  0  0  0  0  0  0  0  0  0  0
  -18.8134  -43.2407   -5.7630 O   0  0  0  0  0  0  0  0  0  0  0  0
  -18.1438  -43.3466   -7.9559 N   0  0  0  0  0  0  0  0  0  0  0  0
  -16.9345  -44.1920   -7.7234 C   0  0  0  0  0  0  0  0  0  0  0  0
  -18.1027  -42.5161   -9.1353 C   0  0  1  0  0  0  0  0  0  0  0  0
  -18.7187  -43.3185  -10.3200 C   0  0  0  0  0  0  0  0  0  0  0  0
  -18.8278  -41.2511   -9.0651 C   0  0  0  0  0  0  0  0  0  0  0  0
  -20.1078  -41.4416   -9.2913 O   0  0  0  0  0  0  0  0  0  0  0  0
  -18.4946  -39.9391   -8.8269 N   0  0  0  0  0  0  0  0  0  0  0  0
  -17.4235  -39.2065   -8.2787 C   0  0  1  0  0  0  0  0  0  0  0  0
  -17.6433  -38.5829   -6.9483 C   0  0  0  0  0  0  0  0  0  0  0  0
  -16.1282  -39.9549   -8.2308 C   0  0  2  0  0  0  0  0  0  0  0  0
  -15.6474  -39.9926   -6.8999 O   0  0  0  0  0  0  0  0  0  0  0  0
  -15.0218  -39.3935   -9.0655 C   0  0  0  0  0  0  0  0  0  0  0  0
  -14.2681  -40.2362   -9.8859 N   0  0  0  0  0  0  0  0  0  0  0  0
  -13.1214  -39.8297  -10.5627 C   0  0  0  0  0  0  0  0  0  0  0  0
  -12.4766  -40.8777  -11.3983 C   0  0  0  0  0  0  0  0  0  0  0  0
  -12.0467  -39.2410   -9.6445 C   0  0  0  0  0  0  0  0  0  0  0  0
  -13.4814  -38.6760  -11.4742 C   0  0  0  0  0  0  0  0  0  0  0  0
  -14.3558  -38.9535  -12.4957 C   0  0  0  0  0  0  0  0  0  0  0  0
  -14.7108  -37.9181  -13.3434 C   0  0  0  0  0  0  0  0  0  0  0  0
  -14.1976  -36.6396  -13.1649 C   0  0  0  0  0  0  0  0  0  0  0  0
  -13.3250  -36.3998  -12.1319 C   0  0  0  0  0  0  0  0  0  0  0  0
  -12.5973  -34.6583  -11.8510 Br  0  0  0  0  0  0  0  0  0  0  0  0
  -12.9696  -37.4293  -11.2859 C   0  0  0  0  0  0  0  0  0  0  0  0
  2  1  1  6
  2  3  1  0
  3  4  1  0
  4  5  1  0
  5  6  1  0
  6  7  1  0
  7  8  1  0
  8  9  1  0
  9 10  1  0
 10 11  1  0
 11 12  2  0
 11 13  1  0
 13 14  1  0
 13 15  1  0
 15 16  1  6
 15 17  1  0
 17 18  2  0
 17 19  1  0
 19 20  1  0
 20 21  1  1
 20 22  1  0
 22 23  1  1
 22 24  1  0
 24 25  1  0
 25 26  1  0
 26 27  1  0
 26 28  1  0
 26 29  1  0
 29 30  2  0
 30 31  1  0
 31 32  2  0
 32 33  1  0
 33 34  1  0
 33 35  2  0
 21  2  1  0
 35 29  1  0
M  END
$$$$
