
     RDKit          3D

 35 36  0  0  0  0  0  0  0  0999 V2000
  -19.8587  -39.5391   -5.7381 C   0  0  0  0  0  0  0  0  0  0  0  0
  -19.6501  -38.1802   -6.3652 C   0  0  2  0  0  0  0  0  0  0  0  0
  -20.8368  -37.5446   -6.9457 C   0  0  0  0  0  0  0  0  0  0  0  0
  -22.0849  -38.3654   -7.0292 C   0  0  0  0  0  0  0  0  0  0  0  0
  -22.8825  -38.3948   -5.7275 C   0  0  0  0  0  0  0  0  0  0  0  0
  -23.7973  -39.6117   -5.6958 C   0  0  0  0  0  0  0  0  0  0  0  0
  -23.2276  -40.7902   -4.9867 C   0  0  0  0  0  0  0  0  0  0  0  0
  -22.9019  -41.9335   -5.9432 C   0  0  0  0  0  0  0  0  0  0  0  0
  -21.7550  -42.7324   -5.4233 C   0  0  0  0  0  0  0  0  0  0  0  0
  -21.0259  -43.5460   -6.4719 C   0  0  0  0  0  0  0  0  0  0  0  0
  -19.6077  -43.1233   -6.5179 C   0  0  0  0  0  0  0  0  0  0  0  0
  -19.1556  -42.7620   -5.3600 O   0  0  0  0  0  0  0  0  0  0  0  0
  -18.7178  -43.0628   -7.5929 N   0  0  0  0  0  0  0  0  0  0  0  0
  -17.4457  -43.8251   -7.4152 C   0  0  0  0  0  0  0  0  0  0  0  0
  -18.8483  -42.3569   -8.8448 C   0  0  1  0  0  0  0  0  0  0  0  0
  -19.5411  -43.3034   -9.8699 C   0  0  0  0  0  0  0  0  0  0  0  0
  -19.6308  -41.1248   -8.8178 C   0  0  0  0  0  0  0  0  0  0  0  0
  -20.9151  -41.3943   -8.8806 O   0  0  0  0  0  0  0  0  0  0  0  0
  -19.3474  -39.7819   -8.7469 N   0  0  0  0  0  0  0  0  0  0  0  0
  -18.2664  -38.9499   -8.3952 C   0  0  1  0  0  0  0  0  0  0  0  0
  -18.3780  -38.2032   -7.1156 C   0  0  0  0  0  0  0  0  0  0  0  0
  -16.9339  -39.6310   -8.4190 C   0  0  2  0  0  0  0  0  0  0  0  0
  -15.9904  -38.8599   -7.6984 O   0  0  0  0  0  0  0  0  0  0  0  0
  -16.3460  -39.8619   -9.7744 C   0  0  0  0  0  0  0  0  0  0  0  0
  -14.9816  -39.6537   -9.9896 N   0  0  0  0  0  0  0  0  0  0  0  0
  -14.4021  -39.5841  -11.2535 C   0  0  0  0  0  0  0  0  0  0  0  0
  -15.3587  -39.6455  -12.3908 C   0  0  0  0  0  0  0  0  0  0  0  0
  -13.3275  -40.6484  -11.4921 C   0  0  0  0  0  0  0  0  0  0  0  0
  -13.6420  -38.2799  -11.3657 C   0  0  0  0  0  0  0  0  0  0  0  0
  -12.6066  -38.0976  -10.4827 C   0  0  0  0  0  0  0  0  0  0  0  0
  -11.8867  -36.9177  -10.5635 C   0  0  0  0  0  0  0  0  0  0  0  0
  -12.2033  -35.9499  -11.5085 C   0  0  0  0  0  0  0  0  0  0  0  0
  -13.2463  -36.1674  -12.3751 C   0  0  0  0  0  0  0  0  0  0  0  0
  -13.7142  -34.8644  -13.6884 Br  0  0  0  0  0  0  0  0  0  0  0  0
  -13.9651  -37.3418  -12.2969 C   0  0  0  0  0  0  0  0  0  0  0  0
  2  1  1  6
  2  3  1  0
  3  4  1  0
  4  5  1  0
  5  6  1  0
  6  7  1  0
  7  8  1  0
  8  9  1  0
  9 10  1  0
 10 11  1  0
 11 12  2  0
 11 13  1  0
 13 14  1  0
 13 15  1  0
 15 16  1  6
 15 17  1  0
 17 18  2  0
 17 19  1  0
 19 20  1  0
 20 21  1  1
 20 22  1  0
 22 23  1  1
 22 24  1  0
 24 25  1  0
 25 26  1  0
 26 27  1  0
 26 28  1  0
 26 29  1  0
 29 30  2  0
 30 31  1  0
 31 32  2  0
 32 33  1  0
 33 34  1  0
 33 35  2  0
 21  2  1  0
 35 29  1  0
M  END
$$$$
