
     RDKit          3D

 35 36  0  0  0  0  0  0  0  0999 V2000
  -19.5229  -40.3094   -5.7317 C   0  0  0  0  0  0  0  0  0  0  0  0
  -19.3881  -38.8600   -6.1376 C   0  0  2  0  0  0  0  0  0  0  0  0
  -20.5843  -38.2318   -6.7066 C   0  0  0  0  0  0  0  0  0  0  0  0
  -21.7526  -39.1187   -7.0013 C   0  0  0  0  0  0  0  0  0  0  0  0
  -22.6255  -39.4015   -5.7809 C   0  0  0  0  0  0  0  0  0  0  0  0
  -23.4368  -40.6722   -5.9946 C   0  0  0  0  0  0  0  0  0  0  0  0
  -22.8176  -41.8997   -5.4236 C   0  0  0  0  0  0  0  0  0  0  0  0
  -22.3389  -42.8593   -6.5090 C   0  0  0  0  0  0  0  0  0  0  0  0
  -21.1650  -43.6423   -6.0264 C   0  0  0  0  0  0  0  0  0  0  0  0
  -20.3065  -44.2339   -7.1247 C   0  0  0  0  0  0  0  0  0  0  0  0
  -18.9280  -43.7075   -7.0028 C   0  0  0  0  0  0  0  0  0  0  0  0
  -18.5812  -43.4931   -5.7742 O   0  0  0  0  0  0  0  0  0  0  0  0
  -17.9801  -43.4216   -7.9882 N   0  0  0  0  0  0  0  0  0  0  0  0
  -16.6631  -44.1080   -7.8287 C   0  0  0  0  0  0  0  0  0  0  0  0
  -18.0892  -42.5466   -9.1305 C   0  0  1  0  0  0  0  0  0  0  0  0
  -18.6354  -43.3756  -10.3311 C   0  0  0  0  0  0  0  0  0  0  0  0
  -18.9709  -41.3925   -8.9834 C   0  0  0  0  0  0  0  0  0  0  0  0
  -20.2220  -41.7417   -9.1803 O   0  0  0  0  0  0  0  0  0  0  0  0
  -18.8045  -40.0586   -8.6973 N   0  0  0  0  0  0  0  0  0  0  0  0
  -17.8203  -39.2131   -8.1488 C   0  0  1  0  0  0  0  0  0  0  0  0
  -18.0736  -38.6777   -6.7863 C   0  0  0  0  0  0  0  0  0  0  0  0
  -16.4372  -39.7847   -8.1717 C   0  0  2  0  0  0  0  0  0  0  0  0
  -15.6296  -39.1194   -7.2182 O   0  0  0  0  0  0  0  0  0  0  0  0
  -15.7161  -39.6895   -9.4782 C   0  0  0  0  0  0  0  0  0  0  0  0
  -14.3614  -40.0216   -9.5551 N   0  0  0  0  0  0  0  0  0  0  0  0
  -13.3972  -39.1984  -10.1302 C   0  0  0  0  0  0  0  0  0  0  0  0
  -12.2446  -38.8664   -9.2506 C   0  0  0  0  0  0  0  0  0  0  0  0
  -13.9622  -37.8826  -10.6723 C   0  0  0  0  0  0  0  0  0  0  0  0
  -12.8485  -39.8846  -11.3628 C   0  0  0  0  0  0  0  0  0  0  0  0
  -12.0370  -39.1295  -12.1730 C   0  0  0  0  0  0  0  0  0  0  0  0
  -11.5132  -39.7298  -13.3053 C   0  0  0  0  0  0  0  0  0  0  0  0
  -11.8006  -41.0542  -13.6107 C   0  0  0  0  0  0  0  0  0  0  0  0
  -12.6167  -41.7783  -12.7765 C   0  0  0  0  0  0  0  0  0  0  0  0
  -13.0363  -43.6001  -13.1587 Br  0  0  0  0  0  0  0  0  0  0  0  0
  -13.1399  -41.1828  -11.6479 C   0  0  0  0  0  0  0  0  0  0  0  0
  2  1  1  6
  2  3  1  0
  3  4  1  0
  4  5  1  0
  5  6  1  0
  6  7  1  0
  7  8  1  0
  8  9  1  0
  9 10  1  0
 10 11  1  0
 11 12  2  0
 11 13  1  0
 13 14  1  0
 13 15  1  0
 15 16  1  6
 15 17  1  0
 17 18  2  0
 17 19  1  0
 19 20  1  0
 20 21  1  1
 20 22  1  0
 22 23  1  1
 22 24  1  0
 24 25  1  0
 25 26  1  0
 26 27  1  0
 26 28  1  0
 26 29  1  0
 29 30  2  0
 30 31  1  0
 31 32  2  0
 32 33  1  0
 33 34  1  0
 33 35  2  0
 21  2  1  0
 35 29  1  0
M  END
$$$$
