
     RDKit          3D

 35 36  0  0  0  0  0  0  0  0999 V2000
  -19.5840  -39.5761   -5.9603 C   0  0  0  0  0  0  0  0  0  0  0  0
  -19.2885  -38.1861   -6.4740 C   0  0  2  0  0  0  0  0  0  0  0  0
  -20.3927  -37.4945   -7.1461 C   0  0  0  0  0  0  0  0  0  0  0  0
  -21.6324  -38.2853   -7.4227 C   0  0  0  0  0  0  0  0  0  0  0  0
  -22.5752  -38.3781   -6.2252 C   0  0  0  0  0  0  0  0  0  0  0  0
  -23.5016  -39.5774   -6.3740 C   0  0  0  0  0  0  0  0  0  0  0  0
  -23.0314  -40.8069   -5.6788 C   0  0  0  0  0  0  0  0  0  0  0  0
  -22.6108  -41.8964   -6.6606 C   0  0  0  0  0  0  0  0  0  0  0  0
  -21.5410  -42.7465   -6.0633 C   0  0  0  0  0  0  0  0  0  0  0  0
  -20.7052  -43.5090   -7.0699 C   0  0  0  0  0  0  0  0  0  0  0  0
  -19.2864  -43.1109   -6.9269 C   0  0  0  0  0  0  0  0  0  0  0  0
  -18.9668  -42.8286   -5.7047 O   0  0  0  0  0  0  0  0  0  0  0  0
  -18.2777  -43.0024   -7.8871 N   0  0  0  0  0  0  0  0  0  0  0  0
  -17.0435  -43.7978   -7.6125 C   0  0  0  0  0  0  0  0  0  0  0  0
  -18.2545  -42.2201   -9.0995 C   0  0  1  0  0  0  0  0  0  0  0  0
  -18.8353  -43.0900  -10.2540 C   0  0  0  0  0  0  0  0  0  0  0  0
  -19.0204  -40.9775   -9.0860 C   0  0  0  0  0  0  0  0  0  0  0  0
  -20.2919  -41.2186   -9.3121 O   0  0  0  0  0  0  0  0  0  0  0  0
  -18.7315  -39.6467   -8.9001 N   0  0  0  0  0  0  0  0  0  0  0  0
  -17.6887  -38.8578   -8.3759 C   0  0  1  0  0  0  0  0  0  0  0  0
  -17.9386  -38.1876   -7.0738 C   0  0  0  0  0  0  0  0  0  0  0  0
  -16.3704  -39.5611   -8.2892 C   0  0  2  0  0  0  0  0  0  0  0  0
  -15.5299  -38.8886   -7.3697 O   0  0  0  0  0  0  0  0  0  0  0  0
  -15.6029  -39.6636   -9.5684 C   0  0  0  0  0  0  0  0  0  0  0  0
  -14.2090  -39.5726   -9.5568 N   0  0  0  0  0  0  0  0  0  0  0  0
  -13.4368  -39.4188  -10.7050 C   0  0  0  0  0  0  0  0  0  0  0  0
  -13.3173  -40.6349  -11.5529 C   0  0  0  0  0  0  0  0  0  0  0  0
  -12.0214  -38.9066  -10.4248 C   0  0  0  0  0  0  0  0  0  0  0  0
  -14.0484  -38.3266  -11.5562 C   0  0  0  0  0  0  0  0  0  0  0  0
  -15.1442  -38.6767  -12.3056 C   0  0  0  0  0  0  0  0  0  0  0  0
  -15.7315  -37.6987  -13.0901 C   0  0  0  0  0  0  0  0  0  0  0  0
  -15.2267  -36.4047  -13.1172 C   0  0  0  0  0  0  0  0  0  0  0  0
  -14.1286  -36.0916  -12.3542 C   0  0  0  0  0  0  0  0  0  0  0  0
  -13.4037  -34.3265  -12.3618 Br  0  0  0  0  0  0  0  0  0  0  0  0
  -13.5416  -37.0638  -11.5717 C   0  0  0  0  0  0  0  0  0  0  0  0
  2  1  1  6
  2  3  1  0
  3  4  1  0
  4  5  1  0
  5  6  1  0
  6  7  1  0
  7  8  1  0
  8  9  1  0
  9 10  1  0
 10 11  1  0
 11 12  2  0
 11 13  1  0
 13 14  1  0
 13 15  1  0
 15 16  1  6
 15 17  1  0
 17 18  2  0
 17 19  1  0
 19 20  1  0
 20 21  1  1
 20 22  1  0
 22 23  1  1
 22 24  1  0
 24 25  1  0
 25 26  1  0
 26 27  1  0
 26 28  1  0
 26 29  1  0
 29 30  2  0
 30 31  1  0
 31 32  2  0
 32 33  1  0
 33 34  1  0
 33 35  2  0
 21  2  1  0
 35 29  1  0
M  END
$$$$
