
     RDKit          3D

 36 37  0  0  0  0  0  0  0  0999 V2000
  -20.1914  -37.6699   -6.0603 C   0  0  0  0  0  0  0  0  0  0  0  0
  -19.6190  -38.3232   -7.2993 C   0  0  2  0  0  0  0  0  0  0  0  0
  -20.4736  -39.4790   -7.6855 C   0  0  0  0  0  0  0  0  0  0  0  0
  -21.9431  -39.1044   -7.5179 C   0  0  0  0  0  0  0  0  0  0  0  0
  -22.8380  -40.0734   -8.2527 C   0  0  0  0  0  0  0  0  0  0  0  0
  -23.5803  -41.0211   -7.3354 C   0  0  0  0  0  0  0  0  0  0  0  0
  -23.2236  -42.4427   -7.7069 C   0  0  0  0  0  0  0  0  0  0  0  0
  -22.3593  -43.0296   -6.6283 C   0  0  0  0  0  0  0  0  0  0  0  0
  -21.7441  -44.3444   -6.9341 C   0  0  0  0  0  0  0  0  0  0  0  0
  -21.1302  -44.5012   -8.2813 C   0  0  0  0  0  0  0  0  0  0  0  0
  -19.7643  -45.1065   -8.2654 C   0  0  0  0  0  0  0  0  0  0  0  0
  -19.6502  -46.3052   -8.7366 O   0  0  0  0  0  0  0  0  0  0  0  0
  -18.5933  -44.5085   -7.7916 N   0  0  0  0  0  0  0  0  0  0  0  0
  -17.7786  -45.2797   -6.8328 C   0  0  0  0  0  0  0  0  0  0  0  0
  -18.0584  -43.1917   -8.1390 C   0  0  1  0  0  0  0  0  0  0  0  0
  -18.7131  -42.5937   -9.3312 C   0  0  0  0  0  0  0  0  0  0  0  0
  -18.2084  -42.3050   -6.9906 C   0  0  0  0  0  0  0  0  0  0  0  0
  -18.9019  -42.7308   -6.0015 O   0  0  0  0  0  0  0  0  0  0  0  0
  -17.6684  -41.0372   -6.8636 N   0  0  0  0  0  0  0  0  0  0  0  0
  -17.6935  -39.9091   -7.7402 C   0  0  1  0  0  0  0  0  0  0  0  0
  -18.1858  -38.6665   -7.0300 C   0  0  0  0  0  0  0  0  0  0  0  0
  -16.2613  -39.6493   -8.1894 C   0  0  2  0  0  0  0  0  0  0  0  0
  -16.1054  -38.3021   -8.4859 O   0  0  0  0  0  0  0  0  0  0  0  0
  -15.8467  -40.4802   -9.3375 C   0  0  0  0  0  0  0  0  0  0  0  0
  -14.7688  -41.3516   -8.9911 N   0  0  0  0  0  0  0  0  0  0  0  0
  -13.4440  -40.8690   -9.1724 C   0  0  0  0  0  0  0  0  0  0  0  0
  -13.4830  -39.8336  -10.2663 C   0  0  0  0  0  0  0  0  0  0  0  0
  -13.0779  -38.5272  -10.1498 C   0  0  0  0  0  0  0  0  0  0  0  0
  -13.2885  -37.9383  -11.3867 C   0  0  0  0  0  0  0  0  0  0  0  0
  -13.0037  -36.5168  -11.7692 C   0  0  0  0  0  0  0  0  0  0  0  0
  -11.6985  -36.4077  -12.5289 C   0  0  0  0  0  0  0  0  0  0  0  0
  -11.4057  -34.9930  -12.9563 C   0  0  0  0  0  0  0  0  0  0  0  0
  -11.7766  -37.3493  -13.7117 C   0  0  0  0  0  0  0  0  0  0  0  0
  -10.6047  -36.8536  -11.5736 C   0  0  0  0  0  0  0  0  0  0  0  0
  -13.7821  -38.8583  -12.1528 O   0  0  0  0  0  0  0  0  0  0  0  0
  -13.9112  -39.9918  -11.5256 N   0  0  0  0  0  0  0  0  0  0  0  0
  2  1  1  1
  2  3  1  0
  3  4  1  0
  4  5  1  0
  5  6  1  0
  6  7  1  0
  7  8  1  0
  8  9  1  0
  9 10  1  0
 10 11  1  0
 11 12  2  0
 11 13  1  0
 13 14  1  0
 13 15  1  0
 15 16  1  6
 15 17  1  0
 17 18  2  0
 17 19  1  0
 19 20  1  0
 20 21  1  1
 20 22  1  0
 22 23  1  6
 22 24  1  0
 24 25  1  0
 25 26  1  0
 26 27  1  0
 27 28  1  0
 28 29  2  0
 29 30  1  0
 30 31  1  0
 31 32  1  0
 31 33  1  0
 31 34  1  0
 29 35  1  0
 35 36  1  0
 21  2  1  0
 36 27  2  0
M  END
$$$$
