
     RDKit          3D

 36 37  0  0  0  0  0  0  0  0999 V2000
  -18.8454  -37.0266   -9.5827 C   0  0  0  0  0  0  0  0  0  0  0  0
  -17.4802  -37.2475   -8.9687 C   0  0  2  0  0  0  0  0  0  0  0  0
  -16.4365  -36.7103   -9.8838 C   0  0  0  0  0  0  0  0  0  0  0  0
  -16.9063  -35.3813  -10.4679 C   0  0  0  0  0  0  0  0  0  0  0  0
  -15.7543  -34.6172  -11.0751 C   0  0  0  0  0  0  0  0  0  0  0  0
  -15.7637  -34.6164  -12.5885 C   0  0  0  0  0  0  0  0  0  0  0  0
  -14.4702  -35.2203  -13.0870 C   0  0  0  0  0  0  0  0  0  0  0  0
  -14.7559  -36.5685  -13.6832 C   0  0  0  0  0  0  0  0  0  0  0  0
  -13.5693  -37.3898  -14.0273 C   0  0  0  0  0  0  0  0  0  0  0  0
  -12.4799  -37.4525  -13.0147 C   0  0  0  0  0  0  0  0  0  0  0  0
  -11.9800  -38.8328  -12.7372 C   0  0  0  0  0  0  0  0  0  0  0  0
  -10.7898  -39.1188  -13.1539 O   0  0  0  0  0  0  0  0  0  0  0  0
  -12.6691  -39.8506  -12.0719 N   0  0  0  0  0  0  0  0  0  0  0  0
  -12.7426  -41.1661  -12.7365 C   0  0  0  0  0  0  0  0  0  0  0  0
  -13.3332  -39.7773  -10.7702 C   0  0  1  0  0  0  0  0  0  0  0  0
  -12.9639  -38.5642   -9.9959 C   0  0  0  0  0  0  0  0  0  0  0  0
  -14.7768  -39.8173  -10.9756 C   0  0  0  0  0  0  0  0  0  0  0  0
  -15.2054  -39.7262  -12.1791 O   0  0  0  0  0  0  0  0  0  0  0  0
  -15.7374  -39.9465   -9.9878 N   0  0  0  0  0  0  0  0  0  0  0  0
  -15.9297  -39.2399   -8.7609 C   0  0  1  0  0  0  0  0  0  0  0  0
  -17.3403  -38.7037   -8.6456 C   0  0  0  0  0  0  0  0  0  0  0  0
  -15.7172  -40.2329   -7.6253 C   0  0  2  0  0  0  0  0  0  0  0  0
  -14.6137  -39.8501   -6.8751 O   0  0  0  0  0  0  0  0  0  0  0  0
  -15.5674  -41.6277   -8.0862 C   0  0  0  0  0  0  0  0  0  0  0  0
  -16.8214  -42.3121   -8.1001 N   0  0  0  0  0  0  0  0  0  0  0  0
  -17.1119  -43.1823   -7.0142 C   0  0  0  0  0  0  0  0  0  0  0  0
  -18.4229  -42.7416   -6.4165 C   0  0  0  0  0  0  0  0  0  0  0  0
  -19.1487  -41.6403   -6.7969 C   0  0  0  0  0  0  0  0  0  0  0  0
  -20.2748  -41.6132   -5.9894 C   0  0  0  0  0  0  0  0  0  0  0  0
  -21.3797  -40.6000   -6.0161 C   0  0  0  0  0  0  0  0  0  0  0  0
  -22.4918  -41.0306   -6.9491 C   0  0  0  0  0  0  0  0  0  0  0  0
  -22.7372  -40.0251   -8.0439 C   0  0  0  0  0  0  0  0  0  0  0  0
  -23.7299  -41.2635   -6.1097 C   0  0  0  0  0  0  0  0  0  0  0  0
  -22.0385  -42.3317   -7.5891 C   0  0  0  0  0  0  0  0  0  0  0  0
  -20.1877  -42.6377   -5.2023 O   0  0  0  0  0  0  0  0  0  0  0  0
  -19.1069  -43.3283   -5.4254 N   0  0  0  0  0  0  0  0  0  0  0  0
  2  1  1  6
  2  3  1  0
  3  4  1  0
  4  5  1  0
  5  6  1  0
  6  7  1  0
  7  8  1  0
  8  9  1  0
  9 10  1  0
 10 11  1  0
 11 12  2  0
 11 13  1  0
 13 14  1  0
 13 15  1  0
 15 16  1  6
 15 17  1  0
 17 18  2  0
 17 19  1  0
 19 20  1  0
 20 21  1  6
 20 22  1  0
 22 23  1  6
 22 24  1  0
 24 25  1  0
 25 26  1  0
 26 27  1  0
 27 28  1  0
 28 29  2  0
 29 30  1  0
 30 31  1  0
 31 32  1  0
 31 33  1  0
 31 34  1  0
 29 35  1  0
 35 36  1  0
 21  2  1  0
 36 27  2  0
M  END
$$$$
