
     RDKit          3D

 36 37  0  0  0  0  0  0  0  0999 V2000
  -19.5204  -36.7689   -6.2276 C   0  0  0  0  0  0  0  0  0  0  0  0
  -19.3620  -37.5815   -7.4941 C   0  0  2  0  0  0  0  0  0  0  0  0
  -20.4356  -38.6105   -7.5558 C   0  0  0  0  0  0  0  0  0  0  0  0
  -21.7542  -37.9994   -7.0915 C   0  0  0  0  0  0  0  0  0  0  0  0
  -22.9255  -38.8602   -7.4998 C   0  0  0  0  0  0  0  0  0  0  0  0
  -23.5457  -39.6190   -6.3465 C   0  0  0  0  0  0  0  0  0  0  0  0
  -23.4893  -41.0998   -6.6474 C   0  0  0  0  0  0  0  0  0  0  0  0
  -22.4779  -41.7456   -5.7447 C   0  0  0  0  0  0  0  0  0  0  0  0
  -22.1426  -43.1577   -6.0522 C   0  0  0  0  0  0  0  0  0  0  0  0
  -21.9024  -43.4943   -7.4823 C   0  0  0  0  0  0  0  0  0  0  0  0
  -20.6704  -44.3048   -7.7223 C   0  0  0  0  0  0  0  0  0  0  0  0
  -20.8405  -45.5341   -8.0857 O   0  0  0  0  0  0  0  0  0  0  0  0
  -19.3484  -43.8697   -7.5934 N   0  0  0  0  0  0  0  0  0  0  0  0
  -18.4392  -44.6971   -6.7770 C   0  0  0  0  0  0  0  0  0  0  0  0
  -18.7381  -42.6783   -8.1839 C   0  0  1  0  0  0  0  0  0  0  0  0
  -19.5742  -42.0617   -9.2460 C   0  0  0  0  0  0  0  0  0  0  0  0
  -18.4807  -41.7079   -7.1257 C   0  0  0  0  0  0  0  0  0  0  0  0
  -18.9647  -41.9556   -5.9660 O   0  0  0  0  0  0  0  0  0  0  0  0
  -17.7568  -40.5354   -7.2534 N   0  0  0  0  0  0  0  0  0  0  0  0
  -17.8388  -39.4754   -8.2080 C   0  0  1  0  0  0  0  0  0  0  0  0
  -17.9677  -38.1283   -7.5303 C   0  0  0  0  0  0  0  0  0  0  0  0
  -16.5370  -39.4734   -8.9993 C   0  0  2  0  0  0  0  0  0  0  0  0
  -16.5781  -38.4693   -9.9570 O   0  0  0  0  0  0  0  0  0  0  0  0
  -16.2316  -40.7734   -9.6294 C   0  0  0  0  0  0  0  0  0  0  0  0
  -14.8373  -41.0764   -9.5556 N   0  0  0  0  0  0  0  0  0  0  0  0
  -14.2272  -41.6647  -10.6968 C   0  0  0  0  0  0  0  0  0  0  0  0
  -13.6242  -40.5519  -11.5144 C   0  0  0  0  0  0  0  0  0  0  0  0
  -12.3829  -39.9975  -11.3237 C   0  0  0  0  0  0  0  0  0  0  0  0
  -12.2385  -39.0145  -12.2899 C   0  0  0  0  0  0  0  0  0  0  0  0
  -11.0523  -38.1212  -12.4978 C   0  0  0  0  0  0  0  0  0  0  0  0
  -11.3742  -36.6908  -12.1199 C   0  0  0  0  0  0  0  0  0  0  0  0
  -10.2146  -35.7619  -12.3690 C   0  0  0  0  0  0  0  0  0  0  0  0
  -11.7990  -36.6852  -10.6668 C   0  0  0  0  0  0  0  0  0  0  0  0
  -12.5298  -36.2598  -13.0068 C   0  0  0  0  0  0  0  0  0  0  0  0
  -13.3327  -39.0160  -12.9826 O   0  0  0  0  0  0  0  0  0  0  0  0
  -14.1750  -39.9113  -12.5538 N   0  0  0  0  0  0  0  0  0  0  0  0
  2  1  1  1
  2  3  1  0
  3  4  1  0
  4  5  1  0
  5  6  1  0
  6  7  1  0
  7  8  1  0
  8  9  1  0
  9 10  1  0
 10 11  1  0
 11 12  2  0
 11 13  1  0
 13 14  1  0
 13 15  1  0
 15 16  1  6
 15 17  1  0
 17 18  2  0
 17 19  1  0
 19 20  1  0
 20 21  1  1
 20 22  1  0
 22 23  1  6
 22 24  1  0
 24 25  1  0
 25 26  1  0
 26 27  1  0
 27 28  1  0
 28 29  2  0
 29 30  1  0
 30 31  1  0
 31 32  1  0
 31 33  1  0
 31 34  1  0
 29 35  1  0
 35 36  1  0
 21  2  1  0
 36 27  2  0
M  END
$$$$
