
     RDKit          3D

 36 37  0  0  0  0  0  0  0  0999 V2000
  -20.2061  -37.0062   -6.1942 C   0  0  0  0  0  0  0  0  0  0  0  0
  -19.7510  -37.7398   -7.4368 C   0  0  2  0  0  0  0  0  0  0  0  0
  -20.6871  -38.8630   -7.7154 C   0  0  0  0  0  0  0  0  0  0  0  0
  -22.1213  -38.4034   -7.4710 C   0  0  0  0  0  0  0  0  0  0  0  0
  -23.1110  -39.3525   -8.1029 C   0  0  0  0  0  0  0  0  0  0  0  0
  -23.8381  -40.2203   -7.0985 C   0  0  0  0  0  0  0  0  0  0  0  0
  -23.5797  -41.6732   -7.4282 C   0  0  0  0  0  0  0  0  0  0  0  0
  -22.6768  -42.2605   -6.3820 C   0  0  0  0  0  0  0  0  0  0  0  0
  -22.1509  -43.6180   -6.6675 C   0  0  0  0  0  0  0  0  0  0  0  0
  -21.6364  -43.8630   -8.0428 C   0  0  0  0  0  0  0  0  0  0  0  0
  -20.3051  -44.5396   -8.0874 C   0  0  0  0  0  0  0  0  0  0  0  0
  -20.2836  -45.7612   -8.5108 O   0  0  0  0  0  0  0  0  0  0  0  0
  -19.0763  -43.9863   -7.7167 N   0  0  0  0  0  0  0  0  0  0  0  0
  -18.2402  -44.7599   -6.7785 C   0  0  0  0  0  0  0  0  0  0  0  0
  -18.4993  -42.7156   -8.1562 C   0  0  1  0  0  0  0  0  0  0  0  0
  -19.2003  -42.1330   -9.3295 C   0  0  0  0  0  0  0  0  0  0  0  0
  -18.5275  -41.7754   -7.0413 C   0  0  0  0  0  0  0  0  0  0  0  0
  -19.1747  -42.1222   -5.9918 O   0  0  0  0  0  0  0  0  0  0  0  0
  -17.9165  -40.5343   -7.0059 N   0  0  0  0  0  0  0  0  0  0  0  0
  -17.9422  -39.4436   -7.9287 C   0  0  1  0  0  0  0  0  0  0  0  0
  -18.3225  -38.1482   -7.2447 C   0  0  0  0  0  0  0  0  0  0  0  0
  -16.5315  -39.2799   -8.4798 C   0  0  2  0  0  0  0  0  0  0  0  0
  -16.3411  -37.9655   -8.8837 O   0  0  0  0  0  0  0  0  0  0  0  0
  -16.2225  -40.2081   -9.5859 C   0  0  0  0  0  0  0  0  0  0  0  0
  -15.0213  -40.9399   -9.3353 N   0  0  0  0  0  0  0  0  0  0  0  0
  -13.8663  -40.2044   -8.9536 C   0  0  0  0  0  0  0  0  0  0  0  0
  -13.6741  -39.1032   -9.9638 C   0  0  0  0  0  0  0  0  0  0  0  0
  -13.1940  -39.2597  -11.2402 C   0  0  0  0  0  0  0  0  0  0  0  0
  -13.1809  -37.9977  -11.8131 C   0  0  0  0  0  0  0  0  0  0  0  0
  -12.7382  -37.6414  -13.2006 C   0  0  0  0  0  0  0  0  0  0  0  0
  -11.2902  -37.1990  -13.2141 C   0  0  0  0  0  0  0  0  0  0  0  0
  -10.3883  -38.2238  -13.8515 C   0  0  0  0  0  0  0  0  0  0  0  0
  -10.8875  -36.9049  -11.7847 C   0  0  0  0  0  0  0  0  0  0  0  0
  -11.2343  -35.9301  -14.0474 C   0  0  0  0  0  0  0  0  0  0  0  0
  -13.6271  -37.1806  -10.9130 O   0  0  0  0  0  0  0  0  0  0  0  0
  -13.9291  -37.7975   -9.8071 N   0  0  0  0  0  0  0  0  0  0  0  0
  2  1  1  1
  2  3  1  0
  3  4  1  0
  4  5  1  0
  5  6  1  0
  6  7  1  0
  7  8  1  0
  8  9  1  0
  9 10  1  0
 10 11  1  0
 11 12  2  0
 11 13  1  0
 13 14  1  0
 13 15  1  0
 15 16  1  6
 15 17  1  0
 17 18  2  0
 17 19  1  0
 19 20  1  0
 20 21  1  1
 20 22  1  0
 22 23  1  6
 22 24  1  0
 24 25  1  0
 25 26  1  0
 26 27  1  0
 27 28  1  0
 28 29  2  0
 29 30  1  0
 30 31  1  0
 31 32  1  0
 31 33  1  0
 31 34  1  0
 29 35  1  0
 35 36  1  0
 21  2  1  0
 36 27  2  0
M  END
$$$$
