
     RDKit          3D

 36 37  0  0  0  0  0  0  0  0999 V2000
  -19.6060  -36.7756   -5.4313 C   0  0  0  0  0  0  0  0  0  0  0  0
  -19.2720  -37.6030   -6.6533 C   0  0  2  0  0  0  0  0  0  0  0  0
  -20.3189  -38.6437   -6.8438 C   0  0  0  0  0  0  0  0  0  0  0  0
  -21.6931  -38.0401   -6.5695 C   0  0  0  0  0  0  0  0  0  0  0  0
  -22.7916  -38.9182   -7.1190 C   0  0  0  0  0  0  0  0  0  0  0  0
  -23.5546  -39.6682   -6.0486 C   0  0  0  0  0  0  0  0  0  0  0  0
  -23.4459  -41.1521   -6.3180 C   0  0  0  0  0  0  0  0  0  0  0  0
  -22.5596  -41.7757   -5.2786 C   0  0  0  0  0  0  0  0  0  0  0  0
  -22.1741  -43.1881   -5.5182 C   0  0  0  0  0  0  0  0  0  0  0  0
  -21.7411  -43.5409   -6.8981 C   0  0  0  0  0  0  0  0  0  0  0  0
  -20.4813  -44.3418   -6.9589 C   0  0  0  0  0  0  0  0  0  0  0  0
  -20.5906  -45.5774   -7.3243 O   0  0  0  0  0  0  0  0  0  0  0  0
  -19.1923  -43.8915   -6.6600 N   0  0  0  0  0  0  0  0  0  0  0  0
  -18.3941  -44.6988   -5.7172 C   0  0  0  0  0  0  0  0  0  0  0  0
  -18.5182  -42.7017   -7.1802 C   0  0  1  0  0  0  0  0  0  0  0  0
  -19.2093  -42.1076   -8.3536 C   0  0  0  0  0  0  0  0  0  0  0  0
  -18.4135  -41.7150   -6.1111 C   0  0  0  0  0  0  0  0  0  0  0  0
  -19.0468  -41.9525   -5.0234 O   0  0  0  0  0  0  0  0  0  0  0  0
  -17.6889  -40.5369   -6.1571 N   0  0  0  0  0  0  0  0  0  0  0  0
  -17.6509  -39.4903   -7.1292 C   0  0  1  0  0  0  0  0  0  0  0  0
  -17.8810  -38.1359   -6.4943 C   0  0  0  0  0  0  0  0  0  0  0  0
  -16.2547  -39.4853   -7.7385 C   0  0  2  0  0  0  0  0  0  0  0  0
  -15.9331  -38.1992   -8.1503 O   0  0  0  0  0  0  0  0  0  0  0  0
  -16.0990  -40.4375   -8.8563 C   0  0  0  0  0  0  0  0  0  0  0  0
  -14.7797  -40.3925   -9.4027 N   0  0  0  0  0  0  0  0  0  0  0  0
  -14.6259  -40.6886  -10.7846 C   0  0  0  0  0  0  0  0  0  0  0  0
  -14.3065  -39.3980  -11.4934 C   0  0  0  0  0  0  0  0  0  0  0  0
  -13.1676  -39.1387  -12.2144 C   0  0  0  0  0  0  0  0  0  0  0  0
  -13.2881  -37.8415  -12.6871 C   0  0  0  0  0  0  0  0  0  0  0  0
  -12.2990  -37.0927  -13.5295 C   0  0  0  0  0  0  0  0  0  0  0  0
  -11.4864  -36.1298  -12.6897 C   0  0  0  0  0  0  0  0  0  0  0  0
  -10.8735  -36.8006  -11.4881 C   0  0  0  0  0  0  0  0  0  0  0  0
  -12.3963  -34.9864  -12.2942 C   0  0  0  0  0  0  0  0  0  0  0  0
  -10.3631  -35.6241  -13.5786 C   0  0  0  0  0  0  0  0  0  0  0  0
  -14.4264  -37.3979  -12.2580 O   0  0  0  0  0  0  0  0  0  0  0  0
  -15.0567  -38.2897  -11.5493 N   0  0  0  0  0  0  0  0  0  0  0  0
  2  1  1  1
  2  3  1  0
  3  4  1  0
  4  5  1  0
  5  6  1  0
  6  7  1  0
  7  8  1  0
  8  9  1  0
  9 10  1  0
 10 11  1  0
 11 12  2  0
 11 13  1  0
 13 14  1  0
 13 15  1  0
 15 16  1  6
 15 17  1  0
 17 18  2  0
 17 19  1  0
 19 20  1  0
 20 21  1  1
 20 22  1  0
 22 23  1  6
 22 24  1  0
 24 25  1  0
 25 26  1  0
 26 27  1  0
 27 28  1  0
 28 29  2  0
 29 30  1  0
 30 31  1  0
 31 32  1  0
 31 33  1  0
 31 34  1  0
 29 35  1  0
 35 36  1  0
 21  2  1  0
 36 27  2  0
M  END
$$$$
