
     RDKit          3D

 36 37  0  0  0  0  0  0  0  0999 V2000
  -19.8289  -37.1469   -6.3558 C   0  0  0  0  0  0  0  0  0  0  0  0
  -19.6484  -37.9945   -7.5961 C   0  0  2  0  0  0  0  0  0  0  0  0
  -20.6648  -39.0819   -7.6009 C   0  0  0  0  0  0  0  0  0  0  0  0
  -22.0066  -38.5270   -7.1324 C   0  0  0  0  0  0  0  0  0  0  0  0
  -23.1359  -39.4643   -7.4875 C   0  0  0  0  0  0  0  0  0  0  0  0
  -23.6929  -40.2138   -6.2966 C   0  0  0  0  0  0  0  0  0  0  0  0
  -23.5605  -41.6992   -6.5468 C   0  0  0  0  0  0  0  0  0  0  0  0
  -22.4994  -42.2564   -5.6421 C   0  0  0  0  0  0  0  0  0  0  0  0
  -22.0925  -43.6582   -5.9068 C   0  0  0  0  0  0  0  0  0  0  0  0
  -21.8593  -44.0324   -7.3288 C   0  0  0  0  0  0  0  0  0  0  0  0
  -20.5891  -44.7828   -7.5645 C   0  0  0  0  0  0  0  0  0  0  0  0
  -20.6977  -46.0318   -7.8815 O   0  0  0  0  0  0  0  0  0  0  0  0
  -19.2910  -44.2723   -7.4767 N   0  0  0  0  0  0  0  0  0  0  0  0
  -18.3234  -45.0192   -6.6499 C   0  0  0  0  0  0  0  0  0  0  0  0
  -18.7576  -43.0714   -8.1202 C   0  0  1  0  0  0  0  0  0  0  0  0
  -19.6450  -42.5395   -9.1865 C   0  0  0  0  0  0  0  0  0  0  0  0
  -18.5353  -42.0511   -7.1017 C   0  0  0  0  0  0  0  0  0  0  0  0
  -18.9844  -42.2830   -5.9248 O   0  0  0  0  0  0  0  0  0  0  0  0
  -17.8793  -40.8464   -7.2842 N   0  0  0  0  0  0  0  0  0  0  0  0
  -18.0363  -39.8273   -8.2734 C   0  0  1  0  0  0  0  0  0  0  0  0
  -18.2271  -38.4658   -7.6406 C   0  0  0  0  0  0  0  0  0  0  0  0
  -16.7508  -39.7829   -9.0896 C   0  0  2  0  0  0  0  0  0  0  0  0
  -16.8438  -38.7822  -10.0472 O   0  0  0  0  0  0  0  0  0  0  0  0
  -16.4142  -41.0729   -9.7243 C   0  0  0  0  0  0  0  0  0  0  0  0
  -15.0078  -41.3224   -9.6898 N   0  0  0  0  0  0  0  0  0  0  0  0
  -14.3938  -41.8119  -10.8747 C   0  0  0  0  0  0  0  0  0  0  0  0
  -14.1869  -40.6390  -11.7976 C   0  0  0  0  0  0  0  0  0  0  0  0
  -13.0027  -39.9742  -11.9978 C   0  0  0  0  0  0  0  0  0  0  0  0
  -13.2653  -38.9713  -12.9175 C   0  0  0  0  0  0  0  0  0  0  0  0
  -12.2916  -37.9697  -13.4626 C   0  0  0  0  0  0  0  0  0  0  0  0
  -12.2846  -36.7063  -12.6281 C   0  0  0  0  0  0  0  0  0  0  0  0
  -11.2918  -35.6939  -13.1371 C   0  0  0  0  0  0  0  0  0  0  0  0
  -11.9994  -37.1048  -11.1957 C   0  0  0  0  0  0  0  0  0  0  0  0
  -13.6763  -36.1076  -12.7398 C   0  0  0  0  0  0  0  0  0  0  0  0
  -14.5216  -39.0663  -13.2168 O   0  0  0  0  0  0  0  0  0  0  0  0
  -15.0991  -40.0406  -12.5748 N   0  0  0  0  0  0  0  0  0  0  0  0
  2  1  1  1
  2  3  1  0
  3  4  1  0
  4  5  1  0
  5  6  1  0
  6  7  1  0
  7  8  1  0
  8  9  1  0
  9 10  1  0
 10 11  1  0
 11 12  2  0
 11 13  1  0
 13 14  1  0
 13 15  1  0
 15 16  1  6
 15 17  1  0
 17 18  2  0
 17 19  1  0
 19 20  1  0
 20 21  1  1
 20 22  1  0
 22 23  1  6
 22 24  1  0
 24 25  1  0
 25 26  1  0
 26 27  1  0
 27 28  1  0
 28 29  2  0
 29 30  1  0
 30 31  1  0
 31 32  1  0
 31 33  1  0
 31 34  1  0
 29 35  1  0
 35 36  1  0
 21  2  1  0
 36 27  2  0
M  END
$$$$
