
     RDKit          3D

 36 37  0  0  0  0  0  0  0  0999 V2000
  -19.8555  -37.6715   -6.4211 C   0  0  0  0  0  0  0  0  0  0  0  0
  -20.0744  -38.5584   -7.6273 C   0  0  2  0  0  0  0  0  0  0  0  0
  -20.9013  -39.7311   -7.2319 C   0  0  0  0  0  0  0  0  0  0  0  0
  -22.0138  -39.2763   -6.2919 C   0  0  0  0  0  0  0  0  0  0  0  0
  -23.0925  -40.3266   -6.1787 C   0  0  0  0  0  0  0  0  0  0  0  0
  -23.0775  -41.0647   -4.8575 C   0  0  0  0  0  0  0  0  0  0  0  0
  -22.9008  -42.5426   -5.1236 C   0  0  0  0  0  0  0  0  0  0  0  0
  -21.5255  -42.9586   -4.6875 C   0  0  0  0  0  0  0  0  0  0  0  0
  -21.1101  -44.3296   -5.0729 C   0  0  0  0  0  0  0  0  0  0  0  0
  -21.3973  -44.7496   -6.4720 C   0  0  0  0  0  0  0  0  0  0  0  0
  -20.2427  -45.3941   -7.1674 C   0  0  0  0  0  0  0  0  0  0  0  0
  -20.3368  -46.6616   -7.4057 O   0  0  0  0  0  0  0  0  0  0  0  0
  -19.0669  -44.7661   -7.5878 N   0  0  0  0  0  0  0  0  0  0  0  0
  -17.7880  -45.3830   -7.1858 C   0  0  0  0  0  0  0  0  0  0  0  0
  -18.9415  -43.5548   -8.3988 C   0  0  1  0  0  0  0  0  0  0  0  0
  -20.2159  -43.1563   -9.0505 C   0  0  0  0  0  0  0  0  0  0  0  0
  -18.4537  -42.4709   -7.5533 C   0  0  0  0  0  0  0  0  0  0  0  0
  -18.3970  -42.6849   -6.2918 O   0  0  0  0  0  0  0  0  0  0  0  0
  -18.0412  -41.2226   -7.9853 N   0  0  0  0  0  0  0  0  0  0  0  0
  -18.6636  -40.2704   -8.8500 C   0  0  1  0  0  0  0  0  0  0  0  0
  -18.7364  -38.9025   -8.2066 C   0  0  0  0  0  0  0  0  0  0  0  0
  -17.7953  -40.1509  -10.0960 C   0  0  2  0  0  0  0  0  0  0  0  0
  -18.5481  -39.6250  -11.1371 O   0  0  0  0  0  0  0  0  0  0  0  0
  -17.1748  -41.4274  -10.5033 C   0  0  0  0  0  0  0  0  0  0  0  0
  -15.7691  -41.2829  -10.7135 N   0  0  0  0  0  0  0  0  0  0  0  0
  -15.2982  -41.2777  -12.0547 C   0  0  0  0  0  0  0  0  0  0  0  0
  -14.2714  -40.1812  -12.1719 C   0  0  0  0  0  0  0  0  0  0  0  0
  -14.0189  -39.2142  -11.2310 C   0  0  0  0  0  0  0  0  0  0  0  0
  -13.0076  -38.4187  -11.7462 C   0  0  0  0  0  0  0  0  0  0  0  0
  -12.3786  -37.2241  -11.0938 C   0  0  0  0  0  0  0  0  0  0  0  0
  -12.3109  -36.0529  -12.0511 C   0  0  0  0  0  0  0  0  0  0  0  0
  -13.3990  -36.1051  -13.0917 C   0  0  0  0  0  0  0  0  0  0  0  0
  -10.9322  -36.0513  -12.6765 C   0  0  0  0  0  0  0  0  0  0  0  0
  -12.5100  -34.8002  -11.2150 C   0  0  0  0  0  0  0  0  0  0  0  0
  -12.7092  -38.9090  -12.9070 O   0  0  0  0  0  0  0  0  0  0  0  0
  -13.4351  -39.9513  -13.1926 N   0  0  0  0  0  0  0  0  0  0  0  0
  2  1  1  1
  2  3  1  0
  3  4  1  0
  4  5  1  0
  5  6  1  0
  6  7  1  0
  7  8  1  0
  8  9  1  0
  9 10  1  0
 10 11  1  0
 11 12  2  0
 11 13  1  0
 13 14  1  0
 13 15  1  0
 15 16  1  1
 15 17  1  0
 17 18  2  0
 17 19  1  0
 19 20  1  0
 20 21  1  1
 20 22  1  0
 22 23  1  6
 22 24  1  0
 24 25  1  0
 25 26  1  0
 26 27  1  0
 27 28  1  0
 28 29  2  0
 29 30  1  0
 30 31  1  0
 31 32  1  0
 31 33  1  0
 31 34  1  0
 29 35  1  0
 35 36  1  0
 21  2  1  0
 36 27  2  0
M  END
$$$$
