
     RDKit          3D

 36 37  0  0  0  0  0  0  0  0999 V2000
  -20.2233  -37.4437   -5.9940 C   0  0  0  0  0  0  0  0  0  0  0  0
  -19.8536  -38.0918   -7.3104 C   0  0  2  0  0  0  0  0  0  0  0  0
  -20.6577  -39.3312   -7.4913 C   0  0  0  0  0  0  0  0  0  0  0  0
  -22.0917  -39.0791   -7.0355 C   0  0  0  0  0  0  0  0  0  0  0  0
  -23.0224  -40.1494   -7.5532 C   0  0  0  0  0  0  0  0  0  0  0  0
  -23.4742  -41.1221   -6.4853 C   0  0  0  0  0  0  0  0  0  0  0  0
  -23.0694  -42.5206   -6.8934 C   0  0  0  0  0  0  0  0  0  0  0  0
  -21.9554  -42.9887   -6.0019 C   0  0  0  0  0  0  0  0  0  0  0  0
  -21.2952  -44.2561   -6.4004 C   0  0  0  0  0  0  0  0  0  0  0  0
  -20.9528  -44.4105   -7.8410 C   0  0  0  0  0  0  0  0  0  0  0  0
  -19.5616  -44.8941   -8.0916 C   0  0  0  0  0  0  0  0  0  0  0  0
  -19.4340  -46.0956   -8.5522 O   0  0  0  0  0  0  0  0  0  0  0  0
  -18.3797  -44.1792   -7.8782 N   0  0  0  0  0  0  0  0  0  0  0  0
  -17.3210  -44.8397   -7.0903 C   0  0  0  0  0  0  0  0  0  0  0  0
  -18.0498  -42.8353   -8.3534 C   0  0  1  0  0  0  0  0  0  0  0  0
  -18.9833  -42.3423   -9.3988 C   0  0  0  0  0  0  0  0  0  0  0  0
  -18.0473  -41.9217   -7.2163 C   0  0  0  0  0  0  0  0  0  0  0  0
  -18.4854  -42.3678   -6.0985 O   0  0  0  0  0  0  0  0  0  0  0  0
  -17.6125  -40.6079   -7.2272 N   0  0  0  0  0  0  0  0  0  0  0  0
  -17.9177  -39.5206   -8.1026 C   0  0  1  0  0  0  0  0  0  0  0  0
  -18.3701  -38.2991   -7.3318 C   0  0  0  0  0  0  0  0  0  0  0  0
  -16.6353  -39.1551   -8.8391 C   0  0  2  0  0  0  0  0  0  0  0  0
  -16.8041  -37.9402   -9.4891 O   0  0  0  0  0  0  0  0  0  0  0  0
  -16.1906  -40.1914   -9.7924 C   0  0  0  0  0  0  0  0  0  0  0  0
  -14.8418  -40.5898   -9.5413 N   0  0  0  0  0  0  0  0  0  0  0  0
  -14.0763  -41.0629  -10.6417 C   0  0  0  0  0  0  0  0  0  0  0  0
  -13.9014  -39.9144  -11.6012 C   0  0  0  0  0  0  0  0  0  0  0  0
  -12.7580  -39.1730  -11.7658 C   0  0  0  0  0  0  0  0  0  0  0  0
  -13.0387  -38.2281  -12.7401 C   0  0  0  0  0  0  0  0  0  0  0  0
  -12.1094  -37.1797  -13.2744 C   0  0  0  0  0  0  0  0  0  0  0  0
  -12.4068  -35.8259  -12.6650 C   0  0  0  0  0  0  0  0  0  0  0  0
  -13.8577  -35.4453  -12.8054 C   0  0  0  0  0  0  0  0  0  0  0  0
  -11.4926  -34.8155  -13.3247 C   0  0  0  0  0  0  0  0  0  0  0  0
  -12.0842  -35.9387  -11.1848 C   0  0  0  0  0  0  0  0  0  0  0  0
  -14.2662  -38.4263  -13.1019 O   0  0  0  0  0  0  0  0  0  0  0  0
  -14.8084  -39.4147  -12.4508 N   0  0  0  0  0  0  0  0  0  0  0  0
  2  1  1  1
  2  3  1  0
  3  4  1  0
  4  5  1  0
  5  6  1  0
  6  7  1  0
  7  8  1  0
  8  9  1  0
  9 10  1  0
 10 11  1  0
 11 12  2  0
 11 13  1  0
 13 14  1  0
 13 15  1  0
 15 16  1  6
 15 17  1  0
 17 18  2  0
 17 19  1  0
 19 20  1  0
 20 21  1  1
 20 22  1  0
 22 23  1  6
 22 24  1  0
 24 25  1  0
 25 26  1  0
 26 27  1  0
 27 28  1  0
 28 29  2  0
 29 30  1  0
 30 31  1  0
 31 32  1  0
 31 33  1  0
 31 34  1  0
 29 35  1  0
 35 36  1  0
 21  2  1  0
 36 27  2  0
M  END
$$$$
