
     RDKit          3D

 36 37  0  0  0  0  0  0  0  0999 V2000
  -19.7564  -37.1466   -6.3557 C   0  0  0  0  0  0  0  0  0  0  0  0
  -19.4313  -37.9990   -7.5628 C   0  0  2  0  0  0  0  0  0  0  0  0
  -20.4512  -39.0750   -7.6943 C   0  0  0  0  0  0  0  0  0  0  0  0
  -21.8349  -38.5041   -7.3986 C   0  0  0  0  0  0  0  0  0  0  0  0
  -22.9212  -39.4296   -7.8919 C   0  0  0  0  0  0  0  0  0  0  0  0
  -23.6318  -40.1702   -6.7798 C   0  0  0  0  0  0  0  0  0  0  0  0
  -23.4859  -41.6575   -7.0101 C   0  0  0  0  0  0  0  0  0  0  0  0
  -22.5532  -42.2244   -5.9789 C   0  0  0  0  0  0  0  0  0  0  0  0
  -22.1321  -43.6313   -6.1892 C   0  0  0  0  0  0  0  0  0  0  0  0
  -21.7265  -44.0112   -7.5703 C   0  0  0  0  0  0  0  0  0  0  0  0
  -20.4453  -44.7763   -7.6440 C   0  0  0  0  0  0  0  0  0  0  0  0
  -20.5274  -46.0246   -7.9711 O   0  0  0  0  0  0  0  0  0  0  0  0
  -19.1628  -44.2800   -7.3943 N   0  0  0  0  0  0  0  0  0  0  0  0
  -18.3152  -45.0359   -6.4519 C   0  0  0  0  0  0  0  0  0  0  0  0
  -18.5392  -43.0866   -7.9667 C   0  0  1  0  0  0  0  0  0  0  0  0
  -19.2796  -42.5472   -9.1364 C   0  0  0  0  0  0  0  0  0  0  0  0
  -18.4351  -42.0666   -6.9291 C   0  0  0  0  0  0  0  0  0  0  0  0
  -19.0310  -42.2908   -5.8178 O   0  0  0  0  0  0  0  0  0  0  0  0
  -17.7477  -40.8696   -7.0288 N   0  0  0  0  0  0  0  0  0  0  0  0
  -17.7677  -39.8511   -8.0307 C   0  0  1  0  0  0  0  0  0  0  0  0
  -18.0210  -38.4861   -7.4280 C   0  0  0  0  0  0  0  0  0  0  0  0
  -16.3895  -39.8229   -8.6790 C   0  0  2  0  0  0  0  0  0  0  0  0
  -16.2245  -38.6278   -9.3658 O   0  0  0  0  0  0  0  0  0  0  0  0
  -16.1388  -40.9699   -9.5745 C   0  0  0  0  0  0  0  0  0  0  0  0
  -14.8137  -41.4794   -9.4145 N   0  0  0  0  0  0  0  0  0  0  0  0
  -14.1273  -41.9145  -10.5809 C   0  0  0  0  0  0  0  0  0  0  0  0
  -13.2375  -40.7855  -11.0325 C   0  0  0  0  0  0  0  0  0  0  0  0
  -13.5949  -39.7760  -11.8913 C   0  0  0  0  0  0  0  0  0  0  0  0
  -12.4799  -38.9647  -12.0304 C   0  0  0  0  0  0  0  0  0  0  0  0
  -12.3644  -37.7259  -12.8674 C   0  0  0  0  0  0  0  0  0  0  0  0
  -12.3289  -36.4844  -12.0014 C   0  0  0  0  0  0  0  0  0  0  0  0
  -11.1325  -36.4634  -11.0861 C   0  0  0  0  0  0  0  0  0  0  0  0
  -13.6301  -36.4265  -11.2298 C   0  0  0  0  0  0  0  0  0  0  0  0
  -12.2263  -35.3008  -12.9481 C   0  0  0  0  0  0  0  0  0  0  0  0
  -11.5512  -39.4864  -11.2940 O   0  0  0  0  0  0  0  0  0  0  0  0
  -11.9621  -40.5633  -10.6888 N   0  0  0  0  0  0  0  0  0  0  0  0
  2  1  1  1
  2  3  1  0
  3  4  1  0
  4  5  1  0
  5  6  1  0
  6  7  1  0
  7  8  1  0
  8  9  1  0
  9 10  1  0
 10 11  1  0
 11 12  2  0
 11 13  1  0
 13 14  1  0
 13 15  1  0
 15 16  1  6
 15 17  1  0
 17 18  2  0
 17 19  1  0
 19 20  1  0
 20 21  1  1
 20 22  1  0
 22 23  1  6
 22 24  1  0
 24 25  1  0
 25 26  1  0
 26 27  1  0
 27 28  1  0
 28 29  2  0
 29 30  1  0
 30 31  1  0
 31 32  1  0
 31 33  1  0
 31 34  1  0
 29 35  1  0
 35 36  1  0
 21  2  1  0
 36 27  2  0
M  END
$$$$
