
     RDKit          3D

 36 37  0  0  0  0  0  0  0  0999 V2000
  -16.8914  -36.0460   -9.6376 C   0  0  0  0  0  0  0  0  0  0  0  0
  -16.7204  -37.5453   -9.7483 C   0  0  2  0  0  0  0  0  0  0  0  0
  -17.7097  -38.0826  -10.7220 C   0  0  0  0  0  0  0  0  0  0  0  0
  -17.8077  -37.1427  -11.9198 C   0  0  0  0  0  0  0  0  0  0  0  0
  -18.4807  -37.8209  -13.0889 C   0  0  0  0  0  0  0  0  0  0  0  0
  -19.8928  -37.3353  -13.3349 C   0  0  0  0  0  0  0  0  0  0  0  0
  -20.8381  -38.5122  -13.2469 C   0  0  0  0  0  0  0  0  0  0  0  0
  -21.6554  -38.3923  -11.9930 C   0  0  0  0  0  0  0  0  0  0  0  0
  -22.4827  -39.5730  -11.6430 C   0  0  0  0  0  0  0  0  0  0  0  0
  -21.8296  -40.9063  -11.7521 C   0  0  0  0  0  0  0  0  0  0  0  0
  -22.0386  -41.7898  -10.5656 C   0  0  0  0  0  0  0  0  0  0  0  0
  -22.8026  -42.8200  -10.7306 O   0  0  0  0  0  0  0  0  0  0  0  0
  -21.4920  -41.6165   -9.2909 N   0  0  0  0  0  0  0  0  0  0  0  0
  -22.4194  -41.6617   -8.1439 C   0  0  0  0  0  0  0  0  0  0  0  0
  -20.0876  -41.3997   -8.9427 C   0  0  1  0  0  0  0  0  0  0  0  0
  -19.1586  -41.6854  -10.0664 C   0  0  0  0  0  0  0  0  0  0  0  0
  -19.9210  -40.0210   -8.4964 C   0  0  0  0  0  0  0  0  0  0  0  0
  -20.9142  -39.2266   -8.6477 O   0  0  0  0  0  0  0  0  0  0  0  0
  -18.7843  -39.4828   -7.9189 N   0  0  0  0  0  0  0  0  0  0  0  0
  -17.4138  -39.5201   -8.3214 C   0  0  1  0  0  0  0  0  0  0  0  0
  -16.8137  -38.1317   -8.3728 C   0  0  0  0  0  0  0  0  0  0  0  0
  -16.6517  -40.3157   -7.2693 C   0  0  2  0  0  0  0  0  0  0  0  0
  -15.3005  -40.3293   -7.5871 O   0  0  0  0  0  0  0  0  0  0  0  0
  -17.1540  -41.6936   -7.0979 C   0  0  0  0  0  0  0  0  0  0  0  0
  -16.6659  -42.2827   -5.8914 N   0  0  0  0  0  0  0  0  0  0  0  0
  -16.8594  -43.6796   -5.7121 C   0  0  0  0  0  0  0  0  0  0  0  0
  -18.3440  -43.9370   -5.7149 C   0  0  0  0  0  0  0  0  0  0  0  0
  -19.3251  -42.9769   -5.7147 C   0  0  0  0  0  0  0  0  0  0  0  0
  -20.5357  -43.6517   -5.7160 C   0  0  0  0  0  0  0  0  0  0  0  0
  -21.9068  -43.0447   -5.7157 C   0  0  0  0  0  0  0  0  0  0  0  0
  -22.0120  -41.9363   -4.6896 C   0  0  0  0  0  0  0  0  0  0  0  0
  -22.2874  -42.4660   -3.3064 C   0  0  0  0  0  0  0  0  0  0  0  0
  -23.0926  -40.9831   -5.1538 C   0  0  0  0  0  0  0  0  0  0  0  0
  -20.6646  -41.2349   -4.6724 C   0  0  0  0  0  0  0  0  0  0  0  0
  -20.2525  -44.9153   -5.7171 O   0  0  0  0  0  0  0  0  0  0  0  0
  -18.9673  -45.1226   -5.7168 N   0  0  0  0  0  0  0  0  0  0  0  0
  2  1  1  1
  2  3  1  0
  3  4  1  0
  4  5  1  0
  5  6  1  0
  6  7  1  0
  7  8  1  0
  8  9  1  0
  9 10  1  0
 10 11  1  0
 11 12  2  0
 11 13  1  0
 13 14  1  0
 13 15  1  0
 15 16  1  6
 15 17  1  0
 17 18  2  0
 17 19  1  0
 19 20  1  0
 20 21  1  1
 20 22  1  0
 22 23  1  6
 22 24  1  0
 24 25  1  0
 25 26  1  0
 26 27  1  0
 27 28  1  0
 28 29  2  0
 29 30  1  0
 30 31  1  0
 31 32  1  0
 31 33  1  0
 31 34  1  0
 29 35  1  0
 35 36  1  0
 21  2  1  0
 36 27  2  0
M  END
$$$$
