
     RDKit          3D

 36 37  0  0  0  0  0  0  0  0999 V2000
  -19.3300  -37.1248   -6.1030 C   0  0  0  0  0  0  0  0  0  0  0  0
  -19.1295  -38.1220   -7.2233 C   0  0  2  0  0  0  0  0  0  0  0  0
  -20.2240  -39.1299   -7.1864 C   0  0  0  0  0  0  0  0  0  0  0  0
  -21.5484  -38.4331   -6.8890 C   0  0  0  0  0  0  0  0  0  0  0  0
  -22.7192  -39.3255   -7.2247 C   0  0  0  0  0  0  0  0  0  0  0  0
  -23.4142  -39.8907   -6.0049 C   0  0  0  0  0  0  0  0  0  0  0  0
  -23.3799  -41.4006   -6.0769 C   0  0  0  0  0  0  0  0  0  0  0  0
  -22.4308  -41.9200   -5.0357 C   0  0  0  0  0  0  0  0  0  0  0  0
  -22.1160  -43.3679   -5.1099 C   0  0  0  0  0  0  0  0  0  0  0  0
  -21.8138  -43.9207   -6.4587 C   0  0  0  0  0  0  0  0  0  0  0  0
  -20.5920  -44.7792   -6.5093 C   0  0  0  0  0  0  0  0  0  0  0  0
  -20.7745  -46.0461   -6.6927 O   0  0  0  0  0  0  0  0  0  0  0  0
  -19.2676  -44.3524   -6.3777 N   0  0  0  0  0  0  0  0  0  0  0  0
  -18.4208  -45.0624   -5.3997 C   0  0  0  0  0  0  0  0  0  0  0  0
  -18.5993  -43.2745   -7.1073 C   0  0  1  0  0  0  0  0  0  0  0  0
  -19.3664  -42.8110   -8.2923 C   0  0  0  0  0  0  0  0  0  0  0  0
  -18.3705  -42.1599   -6.1945 C   0  0  0  0  0  0  0  0  0  0  0  0
  -18.9173  -42.2213   -5.0379 O   0  0  0  0  0  0  0  0  0  0  0  0
  -17.6122  -41.0328   -6.4582 N   0  0  0  0  0  0  0  0  0  0  0  0
  -17.6205  -40.1279   -7.5640 C   0  0  1  0  0  0  0  0  0  0  0  0
  -17.7492  -38.6919   -7.1036 C   0  0  0  0  0  0  0  0  0  0  0  0
  -16.2816  -40.2677   -8.2770 C   0  0  2  0  0  0  0  0  0  0  0  0
  -15.5755  -39.0769   -8.1753 O   0  0  0  0  0  0  0  0  0  0  0  0
  -16.4096  -40.6709   -9.6917 C   0  0  0  0  0  0  0  0  0  0  0  0
  -15.1594  -41.1090  -10.2266 N   0  0  0  0  0  0  0  0  0  0  0  0
  -14.0010  -40.3493   -9.9075 C   0  0  0  0  0  0  0  0  0  0  0  0
  -13.9930  -39.1357  -10.8004 C   0  0  0  0  0  0  0  0  0  0  0  0
  -13.6518  -39.1197  -12.1300 C   0  0  0  0  0  0  0  0  0  0  0  0
  -13.7816  -37.8064  -12.5535 C   0  0  0  0  0  0  0  0  0  0  0  0
  -13.5219  -37.2728  -13.9305 C   0  0  0  0  0  0  0  0  0  0  0  0
  -12.3616  -36.3000  -13.9283 C   0  0  0  0  0  0  0  0  0  0  0  0
  -11.0625  -36.9651  -13.5545 C   0  0  0  0  0  0  0  0  0  0  0  0
  -12.7109  -35.1724  -12.9805 C   0  0  0  0  0  0  0  0  0  0  0  0
  -12.2370  -35.7738  -15.3479 C   0  0  0  0  0  0  0  0  0  0  0  0
  -14.1725  -37.1249  -11.5242 O   0  0  0  0  0  0  0  0  0  0  0  0
  -14.3086  -37.8766  -10.4700 N   0  0  0  0  0  0  0  0  0  0  0  0
  2  1  1  1
  2  3  1  0
  3  4  1  0
  4  5  1  0
  5  6  1  0
  6  7  1  0
  7  8  1  0
  8  9  1  0
  9 10  1  0
 10 11  1  0
 11 12  2  0
 11 13  1  0
 13 14  1  0
 13 15  1  0
 15 16  1  6
 15 17  1  0
 17 18  2  0
 17 19  1  0
 19 20  1  0
 20 21  1  1
 20 22  1  0
 22 23  1  6
 22 24  1  0
 24 25  1  0
 25 26  1  0
 26 27  1  0
 27 28  1  0
 28 29  2  0
 29 30  1  0
 30 31  1  0
 31 32  1  0
 31 33  1  0
 31 34  1  0
 29 35  1  0
 35 36  1  0
 21  2  1  0
 36 27  2  0
M  END
$$$$
