
     RDKit          3D

 36 37  0  0  0  0  0  0  0  0999 V2000
  -20.4797  -37.2238   -6.3866 C   0  0  0  0  0  0  0  0  0  0  0  0
  -20.1922  -38.1194   -7.5718 C   0  0  2  0  0  0  0  0  0  0  0  0
  -21.0765  -39.3151   -7.5107 C   0  0  0  0  0  0  0  0  0  0  0  0
  -22.4773  -38.8913   -7.0794 C   0  0  0  0  0  0  0  0  0  0  0  0
  -23.4879  -39.9727   -7.3775 C   0  0  0  0  0  0  0  0  0  0  0  0
  -23.9651  -40.7071   -6.1432 C   0  0  0  0  0  0  0  0  0  0  0  0
  -23.6604  -42.1797   -6.3008 C   0  0  0  0  0  0  0  0  0  0  0  0
  -22.5500  -42.5541   -5.3619 C   0  0  0  0  0  0  0  0  0  0  0  0
  -21.9820  -43.9132   -5.5387 C   0  0  0  0  0  0  0  0  0  0  0  0
  -21.6951  -44.3444   -6.9344 C   0  0  0  0  0  0  0  0  0  0  0  0
  -20.3449  -44.9561   -7.1213 C   0  0  0  0  0  0  0  0  0  0  0  0
  -20.3062  -46.2263   -7.3606 O   0  0  0  0  0  0  0  0  0  0  0  0
  -19.1151  -44.2946   -7.0635 N   0  0  0  0  0  0  0  0  0  0  0  0
  -18.0750  -44.8727   -6.1906 C   0  0  0  0  0  0  0  0  0  0  0  0
  -18.7180  -43.0819   -7.7793 C   0  0  1  0  0  0  0  0  0  0  0  0
  -19.6516  -42.7225   -8.8778 C   0  0  0  0  0  0  0  0  0  0  0  0
  -18.6235  -41.9823   -6.8256 C   0  0  0  0  0  0  0  0  0  0  0  0
  -19.0530  -42.1919   -5.6372 O   0  0  0  0  0  0  0  0  0  0  0  0
  -18.1091  -40.7233   -7.0814 N   0  0  0  0  0  0  0  0  0  0  0  0
  -18.3739  -39.7918   -8.1320 C   0  0  1  0  0  0  0  0  0  0  0  0
  -18.7257  -38.4252   -7.5849 C   0  0  0  0  0  0  0  0  0  0  0  0
  -17.0951  -39.6494   -8.9475 C   0  0  2  0  0  0  0  0  0  0  0  0
  -17.4168  -39.3891  -10.2726 O   0  0  0  0  0  0  0  0  0  0  0  0
  -16.2065  -40.8250   -8.8550 C   0  0  0  0  0  0  0  0  0  0  0  0
  -14.8482  -40.4776   -9.1299 N   0  0  0  0  0  0  0  0  0  0  0  0
  -14.2868  -40.9244  -10.3571 C   0  0  0  0  0  0  0  0  0  0  0  0
  -13.9532  -39.7041  -11.1756 C   0  0  0  0  0  0  0  0  0  0  0  0
  -14.1360  -38.4010  -10.7848 C   0  0  0  0  0  0  0  0  0  0  0  0
  -13.6997  -37.6102  -11.8360 C   0  0  0  0  0  0  0  0  0  0  0  0
  -13.6942  -36.1120  -11.8960 C   0  0  0  0  0  0  0  0  0  0  0  0
  -12.2797  -35.5731  -11.9329 C   0  0  0  0  0  0  0  0  0  0  0  0
  -11.5491  -35.8040  -10.6358 C   0  0  0  0  0  0  0  0  0  0  0  0
  -12.3587  -34.1020  -12.2814 C   0  0  0  0  0  0  0  0  0  0  0  0
  -11.5562  -36.3349  -13.0302 C   0  0  0  0  0  0  0  0  0  0  0  0
  -13.2956  -38.4199  -12.7623 O   0  0  0  0  0  0  0  0  0  0  0  0
  -13.4297  -39.6654  -12.4079 N   0  0  0  0  0  0  0  0  0  0  0  0
  2  1  1  1
  2  3  1  0
  3  4  1  0
  4  5  1  0
  5  6  1  0
  6  7  1  0
  7  8  1  0
  8  9  1  0
  9 10  1  0
 10 11  1  0
 11 12  2  0
 11 13  1  0
 13 14  1  0
 13 15  1  0
 15 16  1  6
 15 17  1  0
 17 18  2  0
 17 19  1  0
 19 20  1  0
 20 21  1  1
 20 22  1  0
 22 23  1  6
 22 24  1  0
 24 25  1  0
 25 26  1  0
 26 27  1  0
 27 28  1  0
 28 29  2  0
 29 30  1  0
 30 31  1  0
 31 32  1  0
 31 33  1  0
 31 34  1  0
 29 35  1  0
 35 36  1  0
 21  2  1  0
 36 27  2  0
M  END
$$$$
