
     RDKit          3D

 36 37  0  0  0  0  0  0  0  0999 V2000
  -17.7560  -35.2674   -8.6089 C   0  0  0  0  0  0  0  0  0  0  0  0
  -17.6638  -36.6379   -9.2434 C   0  0  2  0  0  0  0  0  0  0  0  0
  -18.9987  -37.2944   -9.1924 C   0  0  0  0  0  0  0  0  0  0  0  0
  -20.0822  -36.2715   -9.5205 C   0  0  0  0  0  0  0  0  0  0  0  0
  -21.3853  -36.9521   -9.8650 C   0  0  0  0  0  0  0  0  0  0  0  0
  -22.4296  -36.8392   -8.7754 C   0  0  0  0  0  0  0  0  0  0  0  0
  -22.8396  -38.2291   -8.3437 C   0  0  0  0  0  0  0  0  0  0  0  0
  -22.2989  -38.4952   -6.9683 C   0  0  0  0  0  0  0  0  0  0  0  0
  -22.4273  -39.8901   -6.4798 C   0  0  0  0  0  0  0  0  0  0  0  0
  -22.0641  -40.9721   -7.4357 C   0  0  0  0  0  0  0  0  0  0  0  0
  -21.1705  -42.0226   -6.8612 C   0  0  0  0  0  0  0  0  0  0  0  0
  -21.6897  -43.1913   -6.6694 O   0  0  0  0  0  0  0  0  0  0  0  0
  -19.8267  -41.8715   -6.5078 N   0  0  0  0  0  0  0  0  0  0  0  0
  -19.4276  -42.3112   -5.1569 C   0  0  0  0  0  0  0  0  0  0  0  0
  -18.7427  -41.3291   -7.3273 C   0  0  1  0  0  0  0  0  0  0  0  0
  -19.1036  -41.2077   -8.7634 C   0  0  0  0  0  0  0  0  0  0  0  0
  -18.3598  -40.0251   -6.7975 C   0  0  0  0  0  0  0  0  0  0  0  0
  -19.1018  -39.5162   -5.8859 O   0  0  0  0  0  0  0  0  0  0  0  0
  -17.2620  -39.2776   -7.1865 N   0  0  0  0  0  0  0  0  0  0  0  0
  -16.7943  -38.8914   -8.4803 C   0  0  1  0  0  0  0  0  0  0  0  0
  -16.5661  -37.3976   -8.5636 C   0  0  0  0  0  0  0  0  0  0  0  0
  -15.4531  -39.5783   -8.7034 C   0  0  2  0  0  0  0  0  0  0  0  0
  -14.9635  -39.2430   -9.9584 O   0  0  0  0  0  0  0  0  0  0  0  0
  -15.5127  -41.0457   -8.5495 C   0  0  0  0  0  0  0  0  0  0  0  0
  -14.2076  -41.6268   -8.5601 N   0  0  0  0  0  0  0  0  0  0  0  0
  -14.1024  -43.0210   -8.3031 C   0  0  0  0  0  0  0  0  0  0  0  0
  -14.9555  -43.7361   -9.3184 C   0  0  0  0  0  0  0  0  0  0  0  0
  -16.0312  -44.5417   -9.0384 C   0  0  0  0  0  0  0  0  0  0  0  0
  -16.5153  -44.9893  -10.2574 C   0  0  0  0  0  0  0  0  0  0  0  0
  -17.6849  -45.8997  -10.4842 C   0  0  0  0  0  0  0  0  0  0  0  0
  -17.2707  -47.3531  -10.3906 C   0  0  0  0  0  0  0  0  0  0  0  0
  -18.4196  -48.2903  -10.6575 C   0  0  0  0  0  0  0  0  0  0  0  0
  -16.6723  -47.5715   -9.0173 C   0  0  0  0  0  0  0  0  0  0  0  0
  -16.2176  -47.5715  -11.4635 C   0  0  0  0  0  0  0  0  0  0  0  0
  -15.7576  -44.4668  -11.1683 O   0  0  0  0  0  0  0  0  0  0  0  0
  -14.8250  -43.7199  -10.6514 N   0  0  0  0  0  0  0  0  0  0  0  0
  2  1  1  1
  2  3  1  0
  3  4  1  0
  4  5  1  0
  5  6  1  0
  6  7  1  0
  7  8  1  0
  8  9  1  0
  9 10  1  0
 10 11  1  0
 11 12  2  0
 11 13  1  0
 13 14  1  0
 13 15  1  0
 15 16  1  6
 15 17  1  0
 17 18  2  0
 17 19  1  0
 19 20  1  0
 20 21  1  1
 20 22  1  0
 22 23  1  6
 22 24  1  0
 24 25  1  0
 25 26  1  0
 26 27  1  0
 27 28  1  0
 28 29  2  0
 29 30  1  0
 30 31  1  0
 31 32  1  0
 31 33  1  0
 31 34  1  0
 29 35  1  0
 35 36  1  0
 21  2  1  0
 36 27  2  0
M  END
$$$$
