
     RDKit          3D

 36 37  0  0  0  0  0  0  0  0999 V2000
  -19.7917  -37.2305   -5.7007 C   0  0  0  0  0  0  0  0  0  0  0  0
  -19.2633  -37.9276   -6.9353 C   0  0  2  0  0  0  0  0  0  0  0  0
  -20.2506  -38.9465   -7.3854 C   0  0  0  0  0  0  0  0  0  0  0  0
  -21.6612  -38.3782   -7.2622 C   0  0  0  0  0  0  0  0  0  0  0  0
  -22.6487  -39.1987   -8.0568 C   0  0  0  0  0  0  0  0  0  0  0  0
  -23.5497  -40.0564   -7.1948 C   0  0  0  0  0  0  0  0  0  0  0  0
  -23.3746  -41.5047   -7.5926 C   0  0  0  0  0  0  0  0  0  0  0  0
  -22.6428  -42.2287   -6.4994 C   0  0  0  0  0  0  0  0  0  0  0  0
  -22.2000  -43.6081   -6.8189 C   0  0  0  0  0  0  0  0  0  0  0  0
  -21.5587  -43.8167   -8.1461 C   0  0  0  0  0  0  0  0  0  0  0  0
  -20.2895  -44.6034   -8.0964 C   0  0  0  0  0  0  0  0  0  0  0  0
  -20.3202  -45.7955   -8.5965 O   0  0  0  0  0  0  0  0  0  0  0  0
  -19.0683  -44.1823   -7.5626 N   0  0  0  0  0  0  0  0  0  0  0  0
  -18.4057  -45.0794   -6.5962 C   0  0  0  0  0  0  0  0  0  0  0  0
  -18.3458  -42.9435   -7.8527 C   0  0  1  0  0  0  0  0  0  0  0  0
  -18.8640  -42.2346   -9.0512 C   0  0  0  0  0  0  0  0  0  0  0  0
  -18.4206  -42.0710   -6.6862 C   0  0  0  0  0  0  0  0  0  0  0  0
  -19.2053  -42.4203   -5.7361 O   0  0  0  0  0  0  0  0  0  0  0  0
  -17.7190  -40.8922   -6.5036 N   0  0  0  0  0  0  0  0  0  0  0  0
  -17.5549  -39.7517   -7.3485 C   0  0  1  0  0  0  0  0  0  0  0  0
  -17.9023  -38.4699   -6.6225 C   0  0  0  0  0  0  0  0  0  0  0  0
  -16.0835  -39.6802   -7.7365 C   0  0  2  0  0  0  0  0  0  0  0  0
  -15.8076  -38.4336   -8.2814 O   0  0  0  0  0  0  0  0  0  0  0  0
  -15.6690  -40.7509   -8.6652 C   0  0  0  0  0  0  0  0  0  0  0  0
  -14.2499  -40.7839   -8.8263 N   0  0  0  0  0  0  0  0  0  0  0  0
  -13.7248  -41.5411   -9.9088 C   0  0  0  0  0  0  0  0  0  0  0  0
  -13.7975  -40.6803  -11.1433 C   0  0  0  0  0  0  0  0  0  0  0  0
  -12.7240  -40.2037  -11.8539 C   0  0  0  0  0  0  0  0  0  0  0  0
  -13.2445  -39.4624  -12.9028 C   0  0  0  0  0  0  0  0  0  0  0  0
  -12.4734  -38.7353  -13.9635 C   0  0  0  0  0  0  0  0  0  0  0  0
  -11.8582  -37.4648  -13.4159 C   0  0  0  0  0  0  0  0  0  0  0  0
  -12.8550  -36.3378  -13.3379 C   0  0  0  0  0  0  0  0  0  0  0  0
  -10.6764  -37.1124  -14.2939 C   0  0  0  0  0  0  0  0  0  0  0  0
  -11.3890  -37.7850  -12.0070 C   0  0  0  0  0  0  0  0  0  0  0  0
  -14.5332  -39.5188  -12.7892 O   0  0  0  0  0  0  0  0  0  0  0  0
  -14.8972  -40.2299  -11.7613 N   0  0  0  0  0  0  0  0  0  0  0  0
  2  1  1  1
  2  3  1  0
  3  4  1  0
  4  5  1  0
  5  6  1  0
  6  7  1  0
  7  8  1  0
  8  9  1  0
  9 10  1  0
 10 11  1  0
 11 12  2  0
 11 13  1  0
 13 14  1  0
 13 15  1  0
 15 16  1  6
 15 17  1  0
 17 18  2  0
 17 19  1  0
 19 20  1  0
 20 21  1  1
 20 22  1  0
 22 23  1  6
 22 24  1  0
 24 25  1  0
 25 26  1  0
 26 27  1  0
 27 28  1  0
 28 29  2  0
 29 30  1  0
 30 31  1  0
 31 32  1  0
 31 33  1  0
 31 34  1  0
 29 35  1  0
 35 36  1  0
 21  2  1  0
 36 27  2  0
M  END
$$$$
