
     RDKit          3D

 36 37  0  0  0  0  0  0  0  0999 V2000
  -19.3886  -37.2511   -7.5172 C   0  0  0  0  0  0  0  0  0  0  0  0
  -19.3676  -38.4291   -8.4665 C   0  0  2  0  0  0  0  0  0  0  0  0
  -20.4989  -39.3410   -8.1438 C   0  0  0  0  0  0  0  0  0  0  0  0
  -21.7444  -38.5169   -7.8315 C   0  0  0  0  0  0  0  0  0  0  0  0
  -22.9885  -39.3707   -7.8856 C   0  0  0  0  0  0  0  0  0  0  0  0
  -23.5655  -39.6806   -6.5212 C   0  0  0  0  0  0  0  0  0  0  0  0
  -23.6140  -41.1808   -6.3388 C   0  0  0  0  0  0  0  0  0  0  0  0
  -22.5781  -41.5861   -5.3302 C   0  0  0  0  0  0  0  0  0  0  0  0
  -22.3455  -43.0446   -5.1900 C   0  0  0  0  0  0  0  0  0  0  0  0
  -22.2281  -43.8296   -6.4495 C   0  0  0  0  0  0  0  0  0  0  0  0
  -21.0639  -44.7656   -6.4817 C   0  0  0  0  0  0  0  0  0  0  0  0
  -21.3284  -46.0302   -6.4269 O   0  0  0  0  0  0  0  0  0  0  0  0
  -19.7138  -44.4137   -6.5647 N   0  0  0  0  0  0  0  0  0  0  0  0
  -18.7960  -45.0101   -5.5749 C   0  0  0  0  0  0  0  0  0  0  0  0
  -19.0817  -43.5173   -7.5330 C   0  0  1  0  0  0  0  0  0  0  0  0
  -19.9563  -43.2029   -8.6921 C   0  0  0  0  0  0  0  0  0  0  0  0
  -18.6948  -42.2867   -6.8521 C   0  0  0  0  0  0  0  0  0  0  0  0
  -19.1072  -42.1210   -5.6509 O   0  0  0  0  0  0  0  0  0  0  0  0
  -17.9174  -41.2718   -7.3819 N   0  0  0  0  0  0  0  0  0  0  0  0
  -18.0084  -40.5613   -8.6182 C   0  0  1  0  0  0  0  0  0  0  0  0
  -18.0124  -39.0640   -8.3977 C   0  0  0  0  0  0  0  0  0  0  0  0
  -16.7689  -40.9062   -9.4340 C   0  0  2  0  0  0  0  0  0  0  0  0
  -16.4818  -42.2570   -9.2925 O   0  0  0  0  0  0  0  0  0  0  0  0
  -15.5897  -40.0899   -9.0828 C   0  0  0  0  0  0  0  0  0  0  0  0
  -14.6191  -40.0937  -10.1312 N   0  0  0  0  0  0  0  0  0  0  0  0
  -13.2740  -39.7875   -9.7881 C   0  0  0  0  0  0  0  0  0  0  0  0
  -13.0030  -38.3725  -10.2291 C   0  0  0  0  0  0  0  0  0  0  0  0
  -13.9139  -37.5235  -10.8068 C   0  0  0  0  0  0  0  0  0  0  0  0
  -13.2442  -36.3348  -11.0504 C   0  0  0  0  0  0  0  0  0  0  0  0
  -13.8082  -35.0927  -11.6728 C   0  0  0  0  0  0  0  0  0  0  0  0
  -13.0098  -34.6832  -12.8924 C   0  0  0  0  0  0  0  0  0  0  0  0
  -11.5446  -34.5170  -12.5835 C   0  0  0  0  0  0  0  0  0  0  0  0
  -13.6203  -33.4077  -13.4328 C   0  0  0  0  0  0  0  0  0  0  0  0
  -13.1597  -35.8070  -13.9035 C   0  0  0  0  0  0  0  0  0  0  0  0
  -12.0297  -36.5050  -10.6345 O   0  0  0  0  0  0  0  0  0  0  0  0
  -11.8497  -37.6968  -10.1426 N   0  0  0  0  0  0  0  0  0  0  0  0
  2  1  1  1
  2  3  1  0
  3  4  1  0
  4  5  1  0
  5  6  1  0
  6  7  1  0
  7  8  1  0
  8  9  1  0
  9 10  1  0
 10 11  1  0
 11 12  2  0
 11 13  1  0
 13 14  1  0
 13 15  1  0
 15 16  1  6
 15 17  1  0
 17 18  2  0
 17 19  1  0
 19 20  1  0
 20 21  1  1
 20 22  1  0
 22 23  1  1
 22 24  1  0
 24 25  1  0
 25 26  1  0
 26 27  1  0
 27 28  1  0
 28 29  2  0
 29 30  1  0
 30 31  1  0
 31 32  1  0
 31 33  1  0
 31 34  1  0
 29 35  1  0
 35 36  1  0
 21  2  1  0
 36 27  2  0
M  END
$$$$
