
     RDKit          3D

 36 37  0  0  0  0  0  0  0  0999 V2000
  -19.1237  -36.7121   -6.8727 C   0  0  0  0  0  0  0  0  0  0  0  0
  -19.0083  -37.6469   -8.0569 C   0  0  2  0  0  0  0  0  0  0  0  0
  -20.0688  -38.6875   -7.9673 C   0  0  0  0  0  0  0  0  0  0  0  0
  -21.3749  -38.0456   -7.5089 C   0  0  0  0  0  0  0  0  0  0  0  0
  -22.5502  -38.9548   -7.7765 C   0  0  0  0  0  0  0  0  0  0  0  0
  -23.1093  -39.5993   -6.5265 C   0  0  0  0  0  0  0  0  0  0  0  0
  -23.0448  -41.1022   -6.6791 C   0  0  0  0  0  0  0  0  0  0  0  0
  -21.9864  -41.6435   -5.7617 C   0  0  0  0  0  0  0  0  0  0  0  0
  -21.6445  -43.0760   -5.9402 C   0  0  0  0  0  0  0  0  0  0  0  0
  -21.4611  -43.5531   -7.3384 C   0  0  0  0  0  0  0  0  0  0  0  0
  -20.2292  -44.3715   -7.5499 C   0  0  0  0  0  0  0  0  0  0  0  0
  -20.3971  -45.6328   -7.7800 O   0  0  0  0  0  0  0  0  0  0  0  0
  -18.9092  -43.9126   -7.5240 N   0  0  0  0  0  0  0  0  0  0  0  0
  -17.9540  -44.6441   -6.6695 C   0  0  0  0  0  0  0  0  0  0  0  0
  -18.3419  -42.7809   -8.2577 C   0  0  1  0  0  0  0  0  0  0  0  0
  -19.2317  -42.2831   -9.3384 C   0  0  0  0  0  0  0  0  0  0  0  0
  -18.0532  -41.7061   -7.3149 C   0  0  0  0  0  0  0  0  0  0  0  0
  -18.4833  -41.8400   -6.1159 O   0  0  0  0  0  0  0  0  0  0  0  0
  -17.3523  -40.5454   -7.5916 N   0  0  0  0  0  0  0  0  0  0  0  0
  -17.4904  -39.5881   -8.6434 C   0  0  1  0  0  0  0  0  0  0  0  0
  -17.6092  -38.1808   -8.0995 C   0  0  0  0  0  0  0  0  0  0  0  0
  -16.2240  -39.6533   -9.4876 C   0  0  2  0  0  0  0  0  0  0  0  0
  -16.4257  -38.9708  -10.6795 O   0  0  0  0  0  0  0  0  0  0  0  0
  -15.7674  -41.0318   -9.7549 C   0  0  0  0  0  0  0  0  0  0  0  0
  -14.7794  -41.4486   -8.8109 N   0  0  0  0  0  0  0  0  0  0  0  0
  -13.4551  -40.9604   -8.9806 C   0  0  0  0  0  0  0  0  0  0  0  0
  -13.5336  -39.7192   -9.8312 C   0  0  0  0  0  0  0  0  0  0  0  0
  -12.8460  -38.5515   -9.6125 C   0  0  0  0  0  0  0  0  0  0  0  0
  -13.2155  -37.6816  -10.6263 C   0  0  0  0  0  0  0  0  0  0  0  0
  -12.7362  -36.2752  -10.8275 C   0  0  0  0  0  0  0  0  0  0  0  0
  -11.7034  -36.2041  -11.9324 C   0  0  0  0  0  0  0  0  0  0  0  0
  -11.2318  -34.7949  -12.1804 C   0  0  0  0  0  0  0  0  0  0  0  0
  -12.3155  -36.8201  -13.1724 C   0  0  0  0  0  0  0  0  0  0  0  0
  -10.5160  -37.0295  -11.4669 C   0  0  0  0  0  0  0  0  0  0  0  0
  -14.0600  -38.3218  -11.3706 O   0  0  0  0  0  0  0  0  0  0  0  0
  -14.2725  -39.5290  -10.9321 N   0  0  0  0  0  0  0  0  0  0  0  0
  2  1  1  1
  2  3  1  0
  3  4  1  0
  4  5  1  0
  5  6  1  0
  6  7  1  0
  7  8  1  0
  8  9  1  0
  9 10  1  0
 10 11  1  0
 11 12  2  0
 11 13  1  0
 13 14  1  0
 13 15  1  0
 15 16  1  6
 15 17  1  0
 17 18  2  0
 17 19  1  0
 19 20  1  0
 20 21  1  1
 20 22  1  0
 22 23  1  6
 22 24  1  0
 24 25  1  0
 25 26  1  0
 26 27  1  0
 27 28  1  0
 28 29  2  0
 29 30  1  0
 30 31  1  0
 31 32  1  0
 31 33  1  0
 31 34  1  0
 29 35  1  0
 35 36  1  0
 21  2  1  0
 36 27  2  0
M  END
$$$$
