
     RDKit          3D

 36 37  0  0  0  0  0  0  0  0999 V2000
  -19.4639  -36.9241  -11.2289 C   0  0  0  0  0  0  0  0  0  0  0  0
  -18.5909  -38.1233  -11.5277 C   0  0  2  0  0  0  0  0  0  0  0  0
  -19.4546  -39.3005  -11.8172 C   0  0  0  0  0  0  0  0  0  0  0  0
  -20.6351  -38.8661  -12.6806 C   0  0  0  0  0  0  0  0  0  0  0  0
  -21.3086  -40.0572  -13.3189 C   0  0  0  0  0  0  0  0  0  0  0  0
  -22.6443  -40.3992  -12.6949 C   0  0  0  0  0  0  0  0  0  0  0  0
  -22.5955  -41.8203  -12.1807 C   0  0  0  0  0  0  0  0  0  0  0  0
  -22.5765  -41.7983  -10.6794 C   0  0  0  0  0  0  0  0  0  0  0  0
  -22.3142  -43.0987  -10.0153 C   0  0  0  0  0  0  0  0  0  0  0  0
  -21.2070  -43.9247  -10.5704 C   0  0  0  0  0  0  0  0  0  0  0  0
  -20.2689  -44.4638   -9.5401 C   0  0  0  0  0  0  0  0  0  0  0  0
  -20.3057  -45.7384   -9.3253 O   0  0  0  0  0  0  0  0  0  0  0  0
  -19.3528  -43.7296   -8.7816 N   0  0  0  0  0  0  0  0  0  0  0  0
  -19.3721  -43.9264   -7.3191 C   0  0  0  0  0  0  0  0  0  0  0  0
  -18.3521  -42.7778   -9.2646 C   0  0  1  0  0  0  0  0  0  0  0  0
  -18.1404  -42.8511  -10.7333 C   0  0  0  0  0  0  0  0  0  0  0  0
  -18.7636  -41.4303   -8.8869 C   0  0  0  0  0  0  0  0  0  0  0  0
  -19.9380  -41.2865   -8.3963 O   0  0  0  0  0  0  0  0  0  0  0  0
  -18.0014  -40.2815   -9.0068 N   0  0  0  0  0  0  0  0  0  0  0  0
  -17.2642  -39.7494  -10.1091 C   0  0  1  0  0  0  0  0  0  0  0  0
  -17.6411  -38.3097  -10.3842 C   0  0  0  0  0  0  0  0  0  0  0  0
  -15.7898  -39.7776   -9.7271 C   0  0  2  0  0  0  0  0  0  0  0  0
  -15.0120  -39.7019  -10.8744 O   0  0  0  0  0  0  0  0  0  0  0  0
  -15.4135  -40.9605   -8.9274 C   0  0  0  0  0  0  0  0  0  0  0  0
  -16.4024  -41.2622   -7.9414 N   0  0  0  0  0  0  0  0  0  0  0  0
  -16.0748  -41.0176   -6.5799 C   0  0  0  0  0  0  0  0  0  0  0  0
  -17.1916  -40.2010   -5.9831 C   0  0  0  0  0  0  0  0  0  0  0  0
  -17.9884  -40.5786   -4.9310 C   0  0  0  0  0  0  0  0  0  0  0  0
  -18.8760  -39.5361   -4.7160 C   0  0  0  0  0  0  0  0  0  0  0  0
  -19.9522  -39.4680   -3.6741 C   0  0  0  0  0  0  0  0  0  0  0  0
  -21.2960  -39.8591   -4.2521 C   0  0  0  0  0  0  0  0  0  0  0  0
  -22.0562  -40.7906   -3.3443 C   0  0  0  0  0  0  0  0  0  0  0  0
  -21.0479  -40.4755   -5.6123 C   0  0  0  0  0  0  0  0  0  0  0  0
  -22.0946  -38.5748   -4.3949 C   0  0  0  0  0  0  0  0  0  0  0  0
  -18.5952  -38.6268   -5.5942 O   0  0  0  0  0  0  0  0  0  0  0  0
  -17.6052  -38.9841   -6.3603 N   0  0  0  0  0  0  0  0  0  0  0  0
  2  1  1  1
  2  3  1  0
  3  4  1  0
  4  5  1  0
  5  6  1  0
  6  7  1  0
  7  8  1  0
  8  9  1  0
  9 10  1  0
 10 11  1  0
 11 12  2  0
 11 13  1  0
 13 14  1  0
 13 15  1  0
 15 16  1  6
 15 17  1  0
 17 18  2  0
 17 19  1  0
 19 20  1  0
 20 21  1  1
 20 22  1  0
 22 23  1  6
 22 24  1  0
 24 25  1  0
 25 26  1  0
 26 27  1  0
 27 28  1  0
 28 29  2  0
 29 30  1  0
 30 31  1  0
 31 32  1  0
 31 33  1  0
 31 34  1  0
 29 35  1  0
 35 36  1  0
 21  2  1  0
 36 27  2  0
M  END
$$$$
