
     RDKit          3D

 36 37  0  0  0  0  0  0  0  0999 V2000
  -19.6479  -37.0326   -6.3256 C   0  0  0  0  0  0  0  0  0  0  0  0
  -19.7847  -37.9085   -7.5518 C   0  0  2  0  0  0  0  0  0  0  0  0
  -20.7113  -39.0340   -7.2513 C   0  0  0  0  0  0  0  0  0  0  0  0
  -21.8913  -38.5178   -6.4334 C   0  0  0  0  0  0  0  0  0  0  0  0
  -23.0312  -39.5079   -6.4398 C   0  0  0  0  0  0  0  0  0  0  0  0
  -23.1970  -40.2433   -5.1275 C   0  0  0  0  0  0  0  0  0  0  0  0
  -23.0732  -41.7291   -5.3793 C   0  0  0  0  0  0  0  0  0  0  0  0
  -21.7767  -42.2183   -4.8008 C   0  0  0  0  0  0  0  0  0  0  0  0
  -21.3975  -43.6105   -5.1453 C   0  0  0  0  0  0  0  0  0  0  0  0
  -21.5562  -44.0168   -6.5687 C   0  0  0  0  0  0  0  0  0  0  0  0
  -20.3706  -44.7242   -7.1398 C   0  0  0  0  0  0  0  0  0  0  0  0
  -20.5073  -45.9851   -7.3918 O   0  0  0  0  0  0  0  0  0  0  0  0
  -19.1246  -44.1616   -7.4301 N   0  0  0  0  0  0  0  0  0  0  0  0
  -17.9310  -44.8462   -6.8966 C   0  0  0  0  0  0  0  0  0  0  0  0
  -18.8481  -42.9604   -8.2183 C   0  0  1  0  0  0  0  0  0  0  0  0
  -20.0223  -42.4945   -9.0004 C   0  0  0  0  0  0  0  0  0  0  0  0
  -18.3952  -41.9030   -7.3213 C   0  0  0  0  0  0  0  0  0  0  0  0
  -18.4849  -42.1175   -6.0618 O   0  0  0  0  0  0  0  0  0  0  0  0
  -17.8721  -40.6797   -7.7019 N   0  0  0  0  0  0  0  0  0  0  0  0
  -18.3464  -39.6967   -8.6242 C   0  0  1  0  0  0  0  0  0  0  0  0
  -18.4132  -38.3257   -7.9867 C   0  0  0  0  0  0  0  0  0  0  0  0
  -17.3451  -39.6267   -9.7701 C   0  0  2  0  0  0  0  0  0  0  0  0
  -18.0200  -39.7021  -10.9808 O   0  0  0  0  0  0  0  0  0  0  0  0
  -16.2984  -40.6658   -9.6988 C   0  0  0  0  0  0  0  0  0  0  0  0
  -15.7056  -40.7237   -8.4002 N   0  0  0  0  0  0  0  0  0  0  0  0
  -14.7106  -39.7589   -8.0839 C   0  0  0  0  0  0  0  0  0  0  0  0
  -13.9698  -39.4361   -9.3555 C   0  0  0  0  0  0  0  0  0  0  0  0
  -14.0785  -38.2716  -10.0742 C   0  0  0  0  0  0  0  0  0  0  0  0
  -13.2296  -38.4002  -11.1622 C   0  0  0  0  0  0  0  0  0  0  0  0
  -12.9935  -37.3916  -12.2464 C   0  0  0  0  0  0  0  0  0  0  0  0
  -11.5237  -37.0454  -12.3582 C   0  0  0  0  0  0  0  0  0  0  0  0
  -10.9614  -36.5263  -11.0605 C   0  0  0  0  0  0  0  0  0  0  0  0
  -11.3739  -36.0399  -13.4799 C   0  0  0  0  0  0  0  0  0  0  0  0
  -10.8020  -38.3353  -12.7089 C   0  0  0  0  0  0  0  0  0  0  0  0
  -12.6765  -39.5667  -11.0614 O   0  0  0  0  0  0  0  0  0  0  0  0
  -13.0891  -40.2077  -10.0061 N   0  0  0  0  0  0  0  0  0  0  0  0
  2  1  1  1
  2  3  1  0
  3  4  1  0
  4  5  1  0
  5  6  1  0
  6  7  1  0
  7  8  1  0
  8  9  1  0
  9 10  1  0
 10 11  1  0
 11 12  2  0
 11 13  1  0
 13 14  1  0
 13 15  1  0
 15 16  1  1
 15 17  1  0
 17 18  2  0
 17 19  1  0
 19 20  1  0
 20 21  1  1
 20 22  1  0
 22 23  1  6
 22 24  1  0
 24 25  1  0
 25 26  1  0
 26 27  1  0
 27 28  1  0
 28 29  2  0
 29 30  1  0
 30 31  1  0
 31 32  1  0
 31 33  1  0
 31 34  1  0
 29 35  1  0
 35 36  1  0
 21  2  1  0
 36 27  2  0
M  END
$$$$
