
     RDKit          3D

 36 37  0  0  0  0  0  0  0  0999 V2000
  -19.7977  -37.2045   -6.8582 C   0  0  0  0  0  0  0  0  0  0  0  0
  -20.0154  -38.1952   -7.9809 C   0  0  2  0  0  0  0  0  0  0  0  0
  -20.8488  -39.3246   -7.4856 C   0  0  0  0  0  0  0  0  0  0  0  0
  -21.9632  -38.7831   -6.5952 C   0  0  0  0  0  0  0  0  0  0  0  0
  -23.0468  -39.8150   -6.3930 C   0  0  0  0  0  0  0  0  0  0  0  0
  -23.0402  -40.4316   -5.0109 C   0  0  0  0  0  0  0  0  0  0  0  0
  -22.8685  -41.9281   -5.1427 C   0  0  0  0  0  0  0  0  0  0  0  0
  -21.4968  -42.3085   -4.6648 C   0  0  0  0  0  0  0  0  0  0  0  0
  -21.0856  -43.7101   -4.9239 C   0  0  0  0  0  0  0  0  0  0  0  0
  -21.3688  -44.2528   -6.2809 C   0  0  0  0  0  0  0  0  0  0  0  0
  -20.2140  -44.9615   -6.9106 C   0  0  0  0  0  0  0  0  0  0  0  0
  -20.3124  -46.2448   -7.0347 O   0  0  0  0  0  0  0  0  0  0  0  0
  -19.0339  -44.3781   -7.3803 N   0  0  0  0  0  0  0  0  0  0  0  0
  -17.7593  -44.9613   -6.9190 C   0  0  0  0  0  0  0  0  0  0  0  0
  -18.9002  -43.2450   -8.2962 C   0  0  1  0  0  0  0  0  0  0  0  0
  -20.1701  -42.9017   -8.9867 C   0  0  0  0  0  0  0  0  0  0  0  0
  -18.4113  -42.0914   -7.5492 C   0  0  0  0  0  0  0  0  0  0  0  0
  -18.3607  -42.1917   -6.2733 O   0  0  0  0  0  0  0  0  0  0  0  0
  -17.9918  -40.8885   -8.0895 N   0  0  0  0  0  0  0  0  0  0  0  0
  -18.6067  -40.0154   -9.0389 C   0  0  1  0  0  0  0  0  0  0  0  0
  -18.6764  -38.5950   -8.5211 C   0  0  0  0  0  0  0  0  0  0  0  0
  -17.7328  -40.0114  -10.2867 C   0  0  2  0  0  0  0  0  0  0  0  0
  -18.4935  -40.3831  -11.3867 O   0  0  0  0  0  0  0  0  0  0  0  0
  -16.5402  -40.8743  -10.1704 C   0  0  0  0  0  0  0  0  0  0  0  0
  -15.7452  -40.8316  -11.3567 N   0  0  0  0  0  0  0  0  0  0  0  0
  -14.3577  -41.1151  -11.2333 C   0  0  0  0  0  0  0  0  0  0  0  0
  -13.6284  -39.7982  -11.1689 C   0  0  0  0  0  0  0  0  0  0  0  0
  -12.2696  -39.6377  -11.0594 C   0  0  0  0  0  0  0  0  0  0  0  0
  -12.0357  -38.2719  -11.0326 C   0  0  0  0  0  0  0  0  0  0  0  0
  -10.7069  -37.5861  -10.9218 C   0  0  0  0  0  0  0  0  0  0  0  0
  -10.3967  -36.7929  -12.1736 C   0  0  0  0  0  0  0  0  0  0  0  0
   -9.9014  -37.6696  -13.2943 C   0  0  0  0  0  0  0  0  0  0  0  0
   -9.3870  -35.7277  -11.8028 C   0  0  0  0  0  0  0  0  0  0  0  0
  -11.7016  -36.1503  -12.6117 C   0  0  0  0  0  0  0  0  0  0  0  0
  -13.1935  -37.6986  -11.1220 O   0  0  0  0  0  0  0  0  0  0  0  0
  -14.1585  -38.5686  -11.2045 N   0  0  0  0  0  0  0  0  0  0  0  0
  2  1  1  1
  2  3  1  0
  3  4  1  0
  4  5  1  0
  5  6  1  0
  6  7  1  0
  7  8  1  0
  8  9  1  0
  9 10  1  0
 10 11  1  0
 11 12  2  0
 11 13  1  0
 13 14  1  0
 13 15  1  0
 15 16  1  1
 15 17  1  0
 17 18  2  0
 17 19  1  0
 19 20  1  0
 20 21  1  1
 20 22  1  0
 22 23  1  6
 22 24  1  0
 24 25  1  0
 25 26  1  0
 26 27  1  0
 27 28  1  0
 28 29  2  0
 29 30  1  0
 30 31  1  0
 31 32  1  0
 31 33  1  0
 31 34  1  0
 29 35  1  0
 35 36  1  0
 21  2  1  0
 36 27  2  0
M  END
$$$$
