
     RDKit          3D

 36 37  0  0  0  0  0  0  0  0999 V2000
  -20.8454  -37.1528   -5.8648 C   0  0  0  0  0  0  0  0  0  0  0  0
  -20.3881  -37.7999   -7.1538 C   0  0  2  0  0  0  0  0  0  0  0  0
  -21.2461  -38.9813   -7.4425 C   0  0  0  0  0  0  0  0  0  0  0  0
  -22.6997  -38.6454   -7.1234 C   0  0  0  0  0  0  0  0  0  0  0  0
  -23.6395  -39.6440   -7.7554 C   0  0  0  0  0  0  0  0  0  0  0  0
  -24.2549  -40.6043   -6.7608 C   0  0  0  0  0  0  0  0  0  0  0  0
  -23.8998  -42.0186   -7.1608 C   0  0  0  0  0  0  0  0  0  0  0  0
  -22.9113  -42.5735   -6.1762 C   0  0  0  0  0  0  0  0  0  0  0  0
  -22.2952  -43.8735   -6.5386 C   0  0  0  0  0  0  0  0  0  0  0  0
  -21.8218  -44.0239   -7.9420 C   0  0  0  0  0  0  0  0  0  0  0  0
  -20.4456  -44.5918   -8.0667 C   0  0  0  0  0  0  0  0  0  0  0  0
  -20.3482  -45.7906   -8.5415 O   0  0  0  0  0  0  0  0  0  0  0  0
  -19.2483  -43.9587   -7.7213 N   0  0  0  0  0  0  0  0  0  0  0  0
  -18.3165  -44.7001   -6.8497 C   0  0  0  0  0  0  0  0  0  0  0  0
  -18.7896  -42.6306   -8.1294 C   0  0  1  0  0  0  0  0  0  0  0  0
  -19.5820  -42.0597   -9.2490 C   0  0  0  0  0  0  0  0  0  0  0  0
  -18.8429  -41.7394   -6.9758 C   0  0  0  0  0  0  0  0  0  0  0  0
  -19.4168  -42.1763   -5.9174 O   0  0  0  0  0  0  0  0  0  0  0  0
  -18.3280  -40.4565   -6.9123 N   0  0  0  0  0  0  0  0  0  0  0  0
  -18.4762  -39.3363   -7.7869 C   0  0  1  0  0  0  0  0  0  0  0  0
  -18.9256  -38.1022   -7.0349 C   0  0  0  0  0  0  0  0  0  0  0  0
  -17.1067  -39.0413   -8.3852 C   0  0  2  0  0  0  0  0  0  0  0  0
  -17.2440  -38.1499   -9.4405 O   0  0  0  0  0  0  0  0  0  0  0  0
  -16.3855  -40.2524   -8.8250 C   0  0  0  0  0  0  0  0  0  0  0  0
  -15.7793  -40.0650  -10.1051 N   0  0  0  0  0  0  0  0  0  0  0  0
  -14.5700  -40.7627  -10.3726 C   0  0  0  0  0  0  0  0  0  0  0  0
  -13.4637  -39.7426  -10.4480 C   0  0  0  0  0  0  0  0  0  0  0  0
  -13.1238  -39.0075  -11.5564 C   0  0  0  0  0  0  0  0  0  0  0  0
  -12.0596  -38.2019  -11.1830 C   0  0  0  0  0  0  0  0  0  0  0  0
  -11.3295  -37.2153  -12.0442 C   0  0  0  0  0  0  0  0  0  0  0  0
   -9.9933  -37.7679  -12.4936 C   0  0  0  0  0  0  0  0  0  0  0  0
   -9.0894  -38.0860  -11.3311 C   0  0  0  0  0  0  0  0  0  0  0  0
   -9.3707  -36.7555  -13.4313 C   0  0  0  0  0  0  0  0  0  0  0  0
  -10.2884  -39.0599  -13.2361 C   0  0  0  0  0  0  0  0  0  0  0  0
  -11.8157  -38.4678   -9.9394 O   0  0  0  0  0  0  0  0  0  0  0  0
  -12.6254  -39.3732   -9.4708 N   0  0  0  0  0  0  0  0  0  0  0  0
  2  1  1  1
  2  3  1  0
  3  4  1  0
  4  5  1  0
  5  6  1  0
  6  7  1  0
  7  8  1  0
  8  9  1  0
  9 10  1  0
 10 11  1  0
 11 12  2  0
 11 13  1  0
 13 14  1  0
 13 15  1  0
 15 16  1  6
 15 17  1  0
 17 18  2  0
 17 19  1  0
 19 20  1  0
 20 21  1  1
 20 22  1  0
 22 23  1  6
 22 24  1  0
 24 25  1  0
 25 26  1  0
 26 27  1  0
 27 28  1  0
 28 29  2  0
 29 30  1  0
 30 31  1  0
 31 32  1  0
 31 33  1  0
 31 34  1  0
 29 35  1  0
 35 36  1  0
 21  2  1  0
 36 27  2  0
M  END
$$$$
