
     RDKit          3D

 36 37  0  0  0  0  0  0  0  0999 V2000
  -20.6153  -37.4091   -5.8384 C   0  0  0  0  0  0  0  0  0  0  0  0
  -20.1670  -38.0855   -7.1155 C   0  0  2  0  0  0  0  0  0  0  0  0
  -21.0190  -39.2802   -7.3646 C   0  0  0  0  0  0  0  0  0  0  0  0
  -22.4717  -38.9470   -7.0382 C   0  0  0  0  0  0  0  0  0  0  0  0
  -23.4105  -39.9683   -7.6343 C   0  0  0  0  0  0  0  0  0  0  0  0
  -24.0078  -40.9074   -6.6089 C   0  0  0  0  0  0  0  0  0  0  0  0
  -23.6462  -42.3288   -6.9767 C   0  0  0  0  0  0  0  0  0  0  0  0
  -22.6429  -42.8511   -5.9891 C   0  0  0  0  0  0  0  0  0  0  0  0
  -22.0209  -44.1553   -6.3251 C   0  0  0  0  0  0  0  0  0  0  0  0
  -21.5615  -44.3380   -7.7293 C   0  0  0  0  0  0  0  0  0  0  0  0
  -20.1823  -44.8987   -7.8546 C   0  0  0  0  0  0  0  0  0  0  0  0
  -20.0809  -46.1085   -8.2998 O   0  0  0  0  0  0  0  0  0  0  0  0
  -18.9863  -44.2482   -7.5386 N   0  0  0  0  0  0  0  0  0  0  0  0
  -18.0395  -44.9602   -6.6587 C   0  0  0  0  0  0  0  0  0  0  0  0
  -18.5422  -42.9276   -7.9853 C   0  0  1  0  0  0  0  0  0  0  0  0
  -19.3510  -42.3913   -9.1103 C   0  0  0  0  0  0  0  0  0  0  0  0
  -18.5899  -42.0077   -6.8542 C   0  0  0  0  0  0  0  0  0  0  0  0
  -19.1490  -42.4216   -5.7788 O   0  0  0  0  0  0  0  0  0  0  0  0
  -18.0841  -40.7198   -6.8291 N   0  0  0  0  0  0  0  0  0  0  0  0
  -18.2503  -39.6234   -7.7301 C   0  0  1  0  0  0  0  0  0  0  0  0
  -18.7011  -38.3738   -7.0049 C   0  0  0  0  0  0  0  0  0  0  0  0
  -16.8896  -39.3337   -8.3507 C   0  0  2  0  0  0  0  0  0  0  0  0
  -16.8241  -37.9975   -8.7214 O   0  0  0  0  0  0  0  0  0  0  0  0
  -16.5726  -40.2030   -9.5014 C   0  0  0  0  0  0  0  0  0  0  0  0
  -15.2224  -40.6672   -9.4507 N   0  0  0  0  0  0  0  0  0  0  0  0
  -14.5160  -40.7820  -10.6790 C   0  0  0  0  0  0  0  0  0  0  0  0
  -14.4022  -39.4003  -11.2689 C   0  0  0  0  0  0  0  0  0  0  0  0
  -13.4372  -38.4735  -10.9620 C   0  0  0  0  0  0  0  0  0  0  0  0
  -13.7114  -37.3517  -11.7284 C   0  0  0  0  0  0  0  0  0  0  0  0
  -12.9420  -36.0649  -11.7514 C   0  0  0  0  0  0  0  0  0  0  0  0
  -12.1748  -35.9116  -13.0478 C   0  0  0  0  0  0  0  0  0  0  0  0
  -11.1028  -36.9589  -13.2015 C   0  0  0  0  0  0  0  0  0  0  0  0
  -11.6027  -34.5104  -13.0789 C   0  0  0  0  0  0  0  0  0  0  0  0
  -13.1829  -36.0925  -14.1697 C   0  0  0  0  0  0  0  0  0  0  0  0
  -14.7669  -37.6308  -12.4246 O   0  0  0  0  0  0  0  0  0  0  0  0
  -15.2034  -38.8327  -12.1801 N   0  0  0  0  0  0  0  0  0  0  0  0
  2  1  1  1
  2  3  1  0
  3  4  1  0
  4  5  1  0
  5  6  1  0
  6  7  1  0
  7  8  1  0
  8  9  1  0
  9 10  1  0
 10 11  1  0
 11 12  2  0
 11 13  1  0
 13 14  1  0
 13 15  1  0
 15 16  1  6
 15 17  1  0
 17 18  2  0
 17 19  1  0
 19 20  1  0
 20 21  1  1
 20 22  1  0
 22 23  1  6
 22 24  1  0
 24 25  1  0
 25 26  1  0
 26 27  1  0
 27 28  1  0
 28 29  2  0
 29 30  1  0
 30 31  1  0
 31 32  1  0
 31 33  1  0
 31 34  1  0
 29 35  1  0
 35 36  1  0
 21  2  1  0
 36 27  2  0
M  END
$$$$
