
     RDKit          3D

 36 37  0  0  0  0  0  0  0  0999 V2000
  -19.2002  -37.2705   -5.7925 C   0  0  0  0  0  0  0  0  0  0  0  0
  -18.8721  -38.0902   -7.0213 C   0  0  2  0  0  0  0  0  0  0  0  0
  -19.9734  -39.0588   -7.2748 C   0  0  0  0  0  0  0  0  0  0  0  0
  -21.3170  -38.3764   -7.0360 C   0  0  0  0  0  0  0  0  0  0  0  0
  -22.4462  -39.1717   -7.6461 C   0  0  0  0  0  0  0  0  0  0  0  0
  -23.2940  -39.8957   -6.6226 C   0  0  0  0  0  0  0  0  0  0  0  0
  -23.2671  -41.3772   -6.9236 C   0  0  0  0  0  0  0  0  0  0  0  0
  -22.4609  -42.0778   -5.8682 C   0  0  0  0  0  0  0  0  0  0  0  0
  -22.1547  -43.5060   -6.1277 C   0  0  0  0  0  0  0  0  0  0  0  0
  -21.6926  -43.8549   -7.4992 C   0  0  0  0  0  0  0  0  0  0  0  0
  -20.4833  -44.7316   -7.5336 C   0  0  0  0  0  0  0  0  0  0  0  0
  -20.6549  -45.9496   -7.9325 O   0  0  0  0  0  0  0  0  0  0  0  0
  -19.1811  -44.3697   -7.1773 N   0  0  0  0  0  0  0  0  0  0  0  0
  -18.4705  -45.2458   -6.2260 C   0  0  0  0  0  0  0  0  0  0  0  0
  -18.4156  -43.2133   -7.6438 C   0  0  1  0  0  0  0  0  0  0  0  0
  -19.0239  -42.5515   -8.8267 C   0  0  0  0  0  0  0  0  0  0  0  0
  -18.2905  -42.2588   -6.5479 C   0  0  0  0  0  0  0  0  0  0  0  0
  -18.9779  -42.4799   -5.4900 O   0  0  0  0  0  0  0  0  0  0  0  0
  -17.4933  -41.1277   -6.5391 N   0  0  0  0  0  0  0  0  0  0  0  0
  -17.3539  -40.0645   -7.4836 C   0  0  1  0  0  0  0  0  0  0  0  0
  -17.5237  -38.7126   -6.8248 C   0  0  0  0  0  0  0  0  0  0  0  0
  -15.9381  -40.1336   -8.0415 C   0  0  2  0  0  0  0  0  0  0  0  0
  -15.2752  -38.9439   -7.7727 O   0  0  0  0  0  0  0  0  0  0  0  0
  -15.8911  -40.4338   -9.4865 C   0  0  0  0  0  0  0  0  0  0  0  0
  -14.9214  -41.4409   -9.7809 N   0  0  0  0  0  0  0  0  0  0  0  0
  -14.4158  -41.5043  -11.1080 C   0  0  0  0  0  0  0  0  0  0  0  0
  -13.5126  -40.3149  -11.3076 C   0  0  0  0  0  0  0  0  0  0  0  0
  -13.9063  -39.0703  -11.7322 C   0  0  0  0  0  0  0  0  0  0  0  0
  -12.7621  -38.2895  -11.7763 C   0  0  0  0  0  0  0  0  0  0  0  0
  -12.6682  -36.8487  -12.1807 C   0  0  0  0  0  0  0  0  0  0  0  0
  -11.7647  -36.6779  -13.3836 C   0  0  0  0  0  0  0  0  0  0  0  0
  -12.3792  -35.7913  -14.4352 C   0  0  0  0  0  0  0  0  0  0  0  0
  -11.4525  -38.0580  -13.9219 C   0  0  0  0  0  0  0  0  0  0  0  0
  -10.4962  -36.0113  -12.8793 C   0  0  0  0  0  0  0  0  0  0  0  0
  -11.7836  -39.0492  -11.3990 O   0  0  0  0  0  0  0  0  0  0  0  0
  -12.1887  -40.2531  -11.1136 N   0  0  0  0  0  0  0  0  0  0  0  0
  2  1  1  1
  2  3  1  0
  3  4  1  0
  4  5  1  0
  5  6  1  0
  6  7  1  0
  7  8  1  0
  8  9  1  0
  9 10  1  0
 10 11  1  0
 11 12  2  0
 11 13  1  0
 13 14  1  0
 13 15  1  0
 15 16  1  6
 15 17  1  0
 17 18  2  0
 17 19  1  0
 19 20  1  0
 20 21  1  1
 20 22  1  0
 22 23  1  6
 22 24  1  0
 24 25  1  0
 25 26  1  0
 26 27  1  0
 27 28  1  0
 28 29  2  0
 29 30  1  0
 30 31  1  0
 31 32  1  0
 31 33  1  0
 31 34  1  0
 29 35  1  0
 35 36  1  0
 21  2  1  0
 36 27  2  0
M  END
$$$$
