
     RDKit          3D

 36 37  0  0  0  0  0  0  0  0999 V2000
  -20.2717  -37.3879   -6.3679 C   0  0  0  0  0  0  0  0  0  0  0  0
  -19.7067  -38.1189   -7.5661 C   0  0  2  0  0  0  0  0  0  0  0  0
  -20.5759  -39.2840   -7.8863 C   0  0  0  0  0  0  0  0  0  0  0  0
  -22.0406  -38.8814   -7.7431 C   0  0  0  0  0  0  0  0  0  0  0  0
  -22.9473  -39.8796   -8.4221 C   0  0  0  0  0  0  0  0  0  0  0  0
  -23.7026  -40.7631   -7.4529 C   0  0  0  0  0  0  0  0  0  0  0  0
  -23.3641  -42.2083   -7.7411 C   0  0  0  0  0  0  0  0  0  0  0  0
  -22.5084  -42.7429   -6.6290 C   0  0  0  0  0  0  0  0  0  0  0  0
  -21.9100  -44.0811   -6.8574 C   0  0  0  0  0  0  0  0  0  0  0  0
  -21.2970  -44.3233   -8.1922 C   0  0  0  0  0  0  0  0  0  0  0  0
  -19.9391  -44.9442   -8.1392 C   0  0  0  0  0  0  0  0  0  0  0  0
  -19.8401  -46.1695   -8.5402 O   0  0  0  0  0  0  0  0  0  0  0  0
  -18.7608  -44.3350   -7.6987 N   0  0  0  0  0  0  0  0  0  0  0  0
  -17.9571  -45.0600   -6.6957 C   0  0  0  0  0  0  0  0  0  0  0  0
  -18.2086  -43.0475   -8.1207 C   0  0  1  0  0  0  0  0  0  0  0  0
  -18.8544  -42.5109   -9.3465 C   0  0  0  0  0  0  0  0  0  0  0  0
  -18.3481  -42.0940   -7.0256 C   0  0  0  0  0  0  0  0  0  0  0  0
  -19.0480  -42.4531   -6.0148 O   0  0  0  0  0  0  0  0  0  0  0  0
  -17.7918  -40.8281   -6.9712 N   0  0  0  0  0  0  0  0  0  0  0  0
  -17.8016  -39.7523   -7.9115 C   0  0  1  0  0  0  0  0  0  0  0  0
  -18.2783  -38.4646   -7.2751 C   0  0  0  0  0  0  0  0  0  0  0  0
  -16.3656  -39.5374   -8.3726 C   0  0  2  0  0  0  0  0  0  0  0  0
  -16.1163  -38.1772   -8.4940 O   0  0  0  0  0  0  0  0  0  0  0  0
  -16.0441  -40.2342   -9.6341 C   0  0  0  0  0  0  0  0  0  0  0  0
  -15.0093  -41.2017   -9.4488 N   0  0  0  0  0  0  0  0  0  0  0  0
  -14.3074  -41.6481  -10.6016 C   0  0  0  0  0  0  0  0  0  0  0  0
  -13.8434  -40.4270  -11.3527 C   0  0  0  0  0  0  0  0  0  0  0  0
  -12.6284  -39.8060  -11.2028 C   0  0  0  0  0  0  0  0  0  0  0  0
  -12.6244  -38.7328  -12.0798 C   0  0  0  0  0  0  0  0  0  0  0  0
  -11.5175  -37.7433  -12.2895 C   0  0  0  0  0  0  0  0  0  0  0  0
  -11.9081  -36.3723  -11.7793 C   0  0  0  0  0  0  0  0  0  0  0  0
  -13.2151  -35.9000  -12.3610 C   0  0  0  0  0  0  0  0  0  0  0  0
  -10.7728  -35.4235  -12.0998 C   0  0  0  0  0  0  0  0  0  0  0  0
  -12.0749  -36.5030  -10.2750 C   0  0  0  0  0  0  0  0  0  0  0  0
  -13.7683  -38.7494  -12.6866 O   0  0  0  0  0  0  0  0  0  0  0  0
  -14.5152  -39.7364  -12.2832 N   0  0  0  0  0  0  0  0  0  0  0  0
  2  1  1  1
  2  3  1  0
  3  4  1  0
  4  5  1  0
  5  6  1  0
  6  7  1  0
  7  8  1  0
  8  9  1  0
  9 10  1  0
 10 11  1  0
 11 12  2  0
 11 13  1  0
 13 14  1  0
 13 15  1  0
 15 16  1  6
 15 17  1  0
 17 18  2  0
 17 19  1  0
 19 20  1  0
 20 21  1  1
 20 22  1  0
 22 23  1  6
 22 24  1  0
 24 25  1  0
 25 26  1  0
 26 27  1  0
 27 28  1  0
 28 29  2  0
 29 30  1  0
 30 31  1  0
 31 32  1  0
 31 33  1  0
 31 34  1  0
 29 35  1  0
 35 36  1  0
 21  2  1  0
 36 27  2  0
M  END
$$$$
