
     RDKit          3D

 36 37  0  0  0  0  0  0  0  0999 V2000
  -19.5684  -36.8560   -6.8300 C   0  0  0  0  0  0  0  0  0  0  0  0
  -19.1850  -37.8389   -7.9145 C   0  0  2  0  0  0  0  0  0  0  0  0
  -20.2047  -38.9212   -7.9803 C   0  0  0  0  0  0  0  0  0  0  0  0
  -21.5979  -38.3185   -7.8263 C   0  0  0  0  0  0  0  0  0  0  0  0
  -22.6630  -39.2917   -8.2716 C   0  0  0  0  0  0  0  0  0  0  0  0
  -23.4385  -39.9017   -7.1241 C   0  0  0  0  0  0  0  0  0  0  0  0
  -23.2919  -41.4057   -7.1782 C   0  0  0  0  0  0  0  0  0  0  0  0
  -22.4208  -41.8549   -6.0406 C   0  0  0  0  0  0  0  0  0  0  0  0
  -21.9999  -43.2772   -6.0689 C   0  0  0  0  0  0  0  0  0  0  0  0
  -21.5231  -43.8103   -7.3745 C   0  0  0  0  0  0  0  0  0  0  0  0
  -20.2458  -44.5809   -7.2920 C   0  0  0  0  0  0  0  0  0  0  0  0
  -20.3197  -45.8580   -7.4813 O   0  0  0  0  0  0  0  0  0  0  0  0
  -18.9748  -44.0619   -7.0297 N   0  0  0  0  0  0  0  0  0  0  0  0
  -18.1854  -44.7086   -5.9638 C   0  0  0  0  0  0  0  0  0  0  0  0
  -18.3119  -42.9412   -7.6971 C   0  0  1  0  0  0  0  0  0  0  0  0
  -18.9838  -42.5353   -8.9586 C   0  0  0  0  0  0  0  0  0  0  0  0
  -18.2562  -41.8115   -6.7761 C   0  0  0  0  0  0  0  0  0  0  0  0
  -18.9131  -41.9086   -5.6809 O   0  0  0  0  0  0  0  0  0  0  0  0
  -17.5552  -40.6344   -6.9714 N   0  0  0  0  0  0  0  0  0  0  0  0
  -17.5130  -39.7346   -8.0806 C   0  0  1  0  0  0  0  0  0  0  0  0
  -17.7879  -38.3102   -7.6492 C   0  0  0  0  0  0  0  0  0  0  0  0
  -16.1015  -39.7815   -8.6517 C   0  0  2  0  0  0  0  0  0  0  0  0
  -15.3089  -38.8419   -8.0068 O   0  0  0  0  0  0  0  0  0  0  0  0
  -16.0532  -39.5792  -10.1136 C   0  0  0  0  0  0  0  0  0  0  0  0
  -15.7724  -40.7991  -10.8021 N   0  0  0  0  0  0  0  0  0  0  0  0
  -14.4156  -41.2156  -10.8831 C   0  0  0  0  0  0  0  0  0  0  0  0
  -13.6848  -40.2192  -11.7452 C   0  0  0  0  0  0  0  0  0  0  0  0
  -12.3492  -39.9132  -11.6622 C   0  0  0  0  0  0  0  0  0  0  0  0
  -12.1043  -38.9544  -12.6326 C   0  0  0  0  0  0  0  0  0  0  0  0
  -10.7924  -38.2967  -12.9400 C   0  0  0  0  0  0  0  0  0  0  0  0
  -10.7822  -36.8563  -12.4734 C   0  0  0  0  0  0  0  0  0  0  0  0
   -9.8756  -35.9932  -13.3119 C   0  0  0  0  0  0  0  0  0  0  0  0
  -10.3763  -36.8498  -11.0150 C   0  0  0  0  0  0  0  0  0  0  0  0
  -12.2040  -36.3434  -12.6254 C   0  0  0  0  0  0  0  0  0  0  0  0
  -13.2342  -38.7345  -13.2258 O   0  0  0  0  0  0  0  0  0  0  0  0
  -14.1911  -39.4639  -12.7287 N   0  0  0  0  0  0  0  0  0  0  0  0
  2  1  1  1
  2  3  1  0
  3  4  1  0
  4  5  1  0
  5  6  1  0
  6  7  1  0
  7  8  1  0
  8  9  1  0
  9 10  1  0
 10 11  1  0
 11 12  2  0
 11 13  1  0
 13 14  1  0
 13 15  1  0
 15 16  1  6
 15 17  1  0
 17 18  2  0
 17 19  1  0
 19 20  1  0
 20 21  1  1
 20 22  1  0
 22 23  1  1
 22 24  1  0
 24 25  1  0
 25 26  1  0
 26 27  1  0
 27 28  1  0
 28 29  2  0
 29 30  1  0
 30 31  1  0
 31 32  1  0
 31 33  1  0
 31 34  1  0
 29 35  1  0
 35 36  1  0
 21  2  1  0
 36 27  2  0
M  END
$$$$
