
     RDKit          3D

 36 37  0  0  0  0  0  0  0  0999 V2000
  -20.0781  -37.7429   -5.7506 C   0  0  0  0  0  0  0  0  0  0  0  0
  -19.5672  -38.2707   -7.0734 C   0  0  2  0  0  0  0  0  0  0  0  0
  -20.4569  -39.3681   -7.5418 C   0  0  0  0  0  0  0  0  0  0  0  0
  -21.9117  -38.9932   -7.2754 C   0  0  0  0  0  0  0  0  0  0  0  0
  -22.8522  -39.8680   -8.0691 C   0  0  0  0  0  0  0  0  0  0  0  0
  -23.5741  -40.8963   -7.2253 C   0  0  0  0  0  0  0  0  0  0  0  0
  -23.2578  -42.2760   -7.7570 C   0  0  0  0  0  0  0  0  0  0  0  0
  -22.3618  -42.9840   -6.7820 C   0  0  0  0  0  0  0  0  0  0  0  0
  -21.7826  -44.2679   -7.2481 C   0  0  0  0  0  0  0  0  0  0  0  0
  -21.2258  -44.2912   -8.6285 C   0  0  0  0  0  0  0  0  0  0  0  0
  -19.8713  -44.9132   -8.7323 C   0  0  0  0  0  0  0  0  0  0  0  0
  -19.7974  -46.0575   -9.3298 O   0  0  0  0  0  0  0  0  0  0  0  0
  -18.6719  -44.3839   -8.2479 N   0  0  0  0  0  0  0  0  0  0  0  0
  -17.8335  -45.2620   -7.4090 C   0  0  0  0  0  0  0  0  0  0  0  0
  -18.1280  -43.0453   -8.4785 C   0  0  1  0  0  0  0  0  0  0  0  0
  -18.8189  -42.3171   -9.5738 C   0  0  0  0  0  0  0  0  0  0  0  0
  -18.2163  -42.2816   -7.2389 C   0  0  0  0  0  0  0  0  0  0  0  0
  -18.8774  -42.7991   -6.2715 O   0  0  0  0  0  0  0  0  0  0  0  0
  -17.6493  -41.0414   -7.0033 N   0  0  0  0  0  0  0  0  0  0  0  0
  -17.6893  -39.8276   -7.7562 C   0  0  1  0  0  0  0  0  0  0  0  0
  -18.1308  -38.6596   -6.9009 C   0  0  0  0  0  0  0  0  0  0  0  0
  -16.2717  -39.5417   -8.2349 C   0  0  2  0  0  0  0  0  0  0  0  0
  -15.9451  -38.2218   -7.9550 O   0  0  0  0  0  0  0  0  0  0  0  0
  -16.0675  -39.8293   -9.6688 C   0  0  0  0  0  0  0  0  0  0  0  0
  -15.8350  -41.2206   -9.8958 N   0  0  0  0  0  0  0  0  0  0  0  0
  -14.5724  -41.6020  -10.4260 C   0  0  0  0  0  0  0  0  0  0  0  0
  -14.1685  -40.5580  -11.4346 C   0  0  0  0  0  0  0  0  0  0  0  0
  -12.9311  -39.9718  -11.5313 C   0  0  0  0  0  0  0  0  0  0  0  0
  -13.0014  -39.0765  -12.5870 C   0  0  0  0  0  0  0  0  0  0  0  0
  -11.9034  -38.1888  -13.0917 C   0  0  0  0  0  0  0  0  0  0  0  0
  -11.9685  -36.8206  -12.4465 C   0  0  0  0  0  0  0  0  0  0  0  0
  -10.8952  -35.8973  -12.9613 C   0  0  0  0  0  0  0  0  0  0  0  0
  -11.8736  -37.0154  -10.9482 C   0  0  0  0  0  0  0  0  0  0  0  0
  -13.3202  -36.2335  -12.8154 C   0  0  0  0  0  0  0  0  0  0  0  0
  -14.2060  -39.1546  -13.0558 O   0  0  0  0  0  0  0  0  0  0  0  0
  -14.9247  -40.0199  -12.4004 N   0  0  0  0  0  0  0  0  0  0  0  0
  2  1  1  1
  2  3  1  0
  3  4  1  0
  4  5  1  0
  5  6  1  0
  6  7  1  0
  7  8  1  0
  8  9  1  0
  9 10  1  0
 10 11  1  0
 11 12  2  0
 11 13  1  0
 13 14  1  0
 13 15  1  0
 15 16  1  6
 15 17  1  0
 17 18  2  0
 17 19  1  0
 19 20  1  0
 20 21  1  1
 20 22  1  0
 22 23  1  6
 22 24  1  0
 24 25  1  0
 25 26  1  0
 26 27  1  0
 27 28  1  0
 28 29  2  0
 29 30  1  0
 30 31  1  0
 31 32  1  0
 31 33  1  0
 31 34  1  0
 29 35  1  0
 35 36  1  0
 21  2  1  0
 36 27  2  0
M  END
$$$$
