
     RDKit          3D

 36 37  0  0  0  0  0  0  0  0999 V2000
  -20.0752  -37.3115   -5.9910 C   0  0  0  0  0  0  0  0  0  0  0  0
  -19.3417  -37.8550   -7.1977 C   0  0  2  0  0  0  0  0  0  0  0  0
  -20.1666  -38.9153   -7.8384 C   0  0  0  0  0  0  0  0  0  0  0  0
  -21.6302  -38.4845   -7.8502 C   0  0  0  0  0  0  0  0  0  0  0  0
  -22.4345  -39.3194   -8.8176 C   0  0  0  0  0  0  0  0  0  0  0  0
  -23.3425  -40.3211   -8.1375 C   0  0  0  0  0  0  0  0  0  0  0  0
  -22.9831  -41.7106   -8.6136 C   0  0  0  0  0  0  0  0  0  0  0  0
  -22.3170  -42.4560   -7.4932 C   0  0  0  0  0  0  0  0  0  0  0  0
  -21.7086  -43.7602   -7.8537 C   0  0  0  0  0  0  0  0  0  0  0  0
  -20.8999  -43.8012   -9.1029 C   0  0  0  0  0  0  0  0  0  0  0  0
  -19.5751  -44.4754   -8.9532 C   0  0  0  0  0  0  0  0  0  0  0  0
  -19.4319  -45.6200   -9.5376 O   0  0  0  0  0  0  0  0  0  0  0  0
  -18.4710  -43.9950   -8.2437 N   0  0  0  0  0  0  0  0  0  0  0  0
  -17.8418  -44.9078   -7.2696 C   0  0  0  0  0  0  0  0  0  0  0  0
  -17.8428  -42.6781   -8.3525 C   0  0  1  0  0  0  0  0  0  0  0  0
  -18.2839  -41.9201   -9.5518 C   0  0  0  0  0  0  0  0  0  0  0  0
  -18.1370  -41.9152   -7.1445 C   0  0  0  0  0  0  0  0  0  0  0  0
  -18.9895  -42.4093   -6.3263 O   0  0  0  0  0  0  0  0  0  0  0  0
  -17.5787  -40.6989   -6.7923 N   0  0  0  0  0  0  0  0  0  0  0  0
  -17.4284  -39.4822   -7.5264 C   0  0  1  0  0  0  0  0  0  0  0  0
  -17.9803  -38.3004   -6.7587 C   0  0  0  0  0  0  0  0  0  0  0  0
  -15.9356  -39.2506   -7.7232 C   0  0  2  0  0  0  0  0  0  0  0  0
  -15.6962  -37.8947   -7.9002 O   0  0  0  0  0  0  0  0  0  0  0  0
  -15.3647  -40.0245   -8.8437 C   0  0  0  0  0  0  0  0  0  0  0  0
  -14.7108  -41.2083   -8.3830 N   0  0  0  0  0  0  0  0  0  0  0  0
  -13.3551  -41.4052   -8.7626 C   0  0  0  0  0  0  0  0  0  0  0  0
  -13.2513  -41.1258  -10.2395 C   0  0  0  0  0  0  0  0  0  0  0  0
  -12.1313  -40.6783  -10.8950 C   0  0  0  0  0  0  0  0  0  0  0  0
  -12.4796  -40.5569  -12.2310 C   0  0  0  0  0  0  0  0  0  0  0  0
  -11.5982  -40.1012  -13.3552 C   0  0  0  0  0  0  0  0  0  0  0  0
  -12.1823  -40.4889  -14.6973 C   0  0  0  0  0  0  0  0  0  0  0  0
  -13.6417  -40.8498  -14.5996 C   0  0  0  0  0  0  0  0  0  0  0  0
  -11.3542  -41.6320  -15.2444 C   0  0  0  0  0  0  0  0  0  0  0  0
  -12.0514  -39.2693  -15.5934 C   0  0  0  0  0  0  0  0  0  0  0  0
  -13.7208  -40.9148  -12.3215 O   0  0  0  0  0  0  0  0  0  0  0  0
  -14.2105  -41.2580  -11.1651 N   0  0  0  0  0  0  0  0  0  0  0  0
  2  1  1  1
  2  3  1  0
  3  4  1  0
  4  5  1  0
  5  6  1  0
  6  7  1  0
  7  8  1  0
  8  9  1  0
  9 10  1  0
 10 11  1  0
 11 12  2  0
 11 13  1  0
 13 14  1  0
 13 15  1  0
 15 16  1  6
 15 17  1  0
 17 18  2  0
 17 19  1  0
 19 20  1  0
 20 21  1  1
 20 22  1  0
 22 23  1  6
 22 24  1  0
 24 25  1  0
 25 26  1  0
 26 27  1  0
 27 28  1  0
 28 29  2  0
 29 30  1  0
 30 31  1  0
 31 32  1  0
 31 33  1  0
 31 34  1  0
 29 35  1  0
 35 36  1  0
 21  2  1  0
 36 27  2  0
M  END
$$$$
