
     RDKit          3D

 36 37  0  0  0  0  0  0  0  0999 V2000
  -20.1097  -37.3624   -5.6268 C   0  0  0  0  0  0  0  0  0  0  0  0
  -19.8186  -38.0622   -6.9363 C   0  0  2  0  0  0  0  0  0  0  0  0
  -20.8059  -39.1575   -7.1389 C   0  0  0  0  0  0  0  0  0  0  0  0
  -22.1912  -38.6794   -6.7146 C   0  0  0  0  0  0  0  0  0  0  0  0
  -23.2689  -39.5878   -7.2562 C   0  0  0  0  0  0  0  0  0  0  0  0
  -23.8941  -40.4750   -6.2016 C   0  0  0  0  0  0  0  0  0  0  0  0
  -23.7087  -41.9206   -6.6045 C   0  0  0  0  0  0  0  0  0  0  0  0
  -22.7041  -42.5598   -5.6896 C   0  0  0  0  0  0  0  0  0  0  0  0
  -22.2458  -43.9166   -6.0769 C   0  0  0  0  0  0  0  0  0  0  0  0
  -21.9000  -44.1247   -7.5098 C   0  0  0  0  0  0  0  0  0  0  0  0
  -20.5985  -44.8244   -7.7305 C   0  0  0  0  0  0  0  0  0  0  0  0
  -20.6539  -46.0312   -8.1916 O   0  0  0  0  0  0  0  0  0  0  0  0
  -19.3227  -44.3073   -7.4885 N   0  0  0  0  0  0  0  0  0  0  0  0
  -18.4012  -45.1278   -6.6789 C   0  0  0  0  0  0  0  0  0  0  0  0
  -18.7719  -43.0336   -7.9523 C   0  0  1  0  0  0  0  0  0  0  0  0
  -19.5908  -42.3986   -9.0170 C   0  0  0  0  0  0  0  0  0  0  0  0
  -18.6493  -42.1313   -6.8128 C   0  0  0  0  0  0  0  0  0  0  0  0
  -19.1782  -42.5010   -5.7064 O   0  0  0  0  0  0  0  0  0  0  0  0
  -18.0103  -40.9038   -6.8101 N   0  0  0  0  0  0  0  0  0  0  0  0
  -18.1181  -39.7823   -7.6890 C   0  0  1  0  0  0  0  0  0  0  0  0
  -18.3871  -38.5037   -6.9251 C   0  0  0  0  0  0  0  0  0  0  0  0
  -16.7775  -39.6268   -8.3954 C   0  0  2  0  0  0  0  0  0  0  0  0
  -16.8351  -38.5478   -9.2670 O   0  0  0  0  0  0  0  0  0  0  0  0
  -16.3470  -40.8443   -9.1115 C   0  0  0  0  0  0  0  0  0  0  0  0
  -15.2194  -40.5874   -9.9503 N   0  0  0  0  0  0  0  0  0  0  0  0
  -15.4233  -40.6077  -11.3570 C   0  0  0  0  0  0  0  0  0  0  0  0
  -14.4317  -39.6558  -11.9740 C   0  0  0  0  0  0  0  0  0  0  0  0
  -14.6358  -38.3166  -12.1960 C   0  0  0  0  0  0  0  0  0  0  0  0
  -13.4744  -37.8327  -12.7772 C   0  0  0  0  0  0  0  0  0  0  0  0
  -13.2014  -36.4231  -13.2094 C   0  0  0  0  0  0  0  0  0  0  0  0
  -12.2385  -35.7393  -12.2619 C   0  0  0  0  0  0  0  0  0  0  0  0
  -12.2310  -36.3798  -10.8983 C   0  0  0  0  0  0  0  0  0  0  0  0
  -12.6222  -34.2764  -12.1954 C   0  0  0  0  0  0  0  0  0  0  0  0
  -10.8543  -35.8924  -12.8686 C   0  0  0  0  0  0  0  0  0  0  0  0
  -12.6656  -38.8392  -12.8760 O   0  0  0  0  0  0  0  0  0  0  0  0
  -13.1965  -39.9334  -12.4114 N   0  0  0  0  0  0  0  0  0  0  0  0
  2  1  1  1
  2  3  1  0
  3  4  1  0
  4  5  1  0
  5  6  1  0
  6  7  1  0
  7  8  1  0
  8  9  1  0
  9 10  1  0
 10 11  1  0
 11 12  2  0
 11 13  1  0
 13 14  1  0
 13 15  1  0
 15 16  1  6
 15 17  1  0
 17 18  2  0
 17 19  1  0
 19 20  1  0
 20 21  1  1
 20 22  1  0
 22 23  1  6
 22 24  1  0
 24 25  1  0
 25 26  1  0
 26 27  1  0
 27 28  1  0
 28 29  2  0
 29 30  1  0
 30 31  1  0
 31 32  1  0
 31 33  1  0
 31 34  1  0
 29 35  1  0
 35 36  1  0
 21  2  1  0
 36 27  2  0
M  END
$$$$
