
     RDKit          3D

 36 37  0  0  0  0  0  0  0  0999 V2000
  -17.5359  -35.9591  -10.1101 C   0  0  0  0  0  0  0  0  0  0  0  0
  -16.5210  -36.6707   -9.2422 C   0  0  2  0  0  0  0  0  0  0  0  0
  -15.1998  -36.6682   -9.9276 C   0  0  0  0  0  0  0  0  0  0  0  0
  -14.9652  -35.3075  -10.5766 C   0  0  0  0  0  0  0  0  0  0  0  0
  -13.5107  -35.1205  -10.9361 C   0  0  0  0  0  0  0  0  0  0  0  0
  -13.2401  -35.2221  -12.4216 C   0  0  0  0  0  0  0  0  0  0  0  0
  -12.2417  -36.3317  -12.6632 C   0  0  0  0  0  0  0  0  0  0  0  0
  -12.9413  -37.4866  -13.3201 C   0  0  0  0  0  0  0  0  0  0  0  0
  -12.1563  -38.7403  -13.4339 C   0  0  0  0  0  0  0  0  0  0  0  0
  -11.3959  -39.1680  -12.2276 C   0  0  0  0  0  0  0  0  0  0  0  0
  -11.5684  -40.6093  -11.8739 C   0  0  0  0  0  0  0  0  0  0  0  0
  -10.5466  -41.3816  -12.0517 O   0  0  0  0  0  0  0  0  0  0  0  0
  -12.7246  -41.2110  -11.3694 N   0  0  0  0  0  0  0  0  0  0  0  0
  -13.2086  -42.4269  -12.0514 C   0  0  0  0  0  0  0  0  0  0  0  0
  -13.5271  -40.7838  -10.2230 C   0  0  1  0  0  0  0  0  0  0  0  0
  -12.8412  -39.7734   -9.3767 C   0  0  0  0  0  0  0  0  0  0  0  0
  -14.7945  -40.2495  -10.7088 C   0  0  0  0  0  0  0  0  0  0  0  0
  -14.9180  -40.0772  -11.9720 O   0  0  0  0  0  0  0  0  0  0  0  0
  -15.8871  -39.9086   -9.9310 N   0  0  0  0  0  0  0  0  0  0  0  0
  -15.9942  -39.1006   -8.7574 C   0  0  1  0  0  0  0  0  0  0  0  0
  -17.0544  -38.0320   -8.9155 C   0  0  0  0  0  0  0  0  0  0  0  0
  -16.4220  -40.0122   -7.6143 C   0  0  2  0  0  0  0  0  0  0  0  0
  -15.7994  -39.6081   -6.4412 O   0  0  0  0  0  0  0  0  0  0  0  0
  -16.1552  -41.4413   -7.8725 C   0  0  0  0  0  0  0  0  0  0  0  0
  -17.0821  -42.2803   -7.1809 N   0  0  0  0  0  0  0  0  0  0  0  0
  -17.9760  -43.0625   -7.9618 C   0  0  0  0  0  0  0  0  0  0  0  0
  -19.3665  -42.5299   -7.7312 C   0  0  0  0  0  0  0  0  0  0  0  0
  -20.1393  -41.8755   -8.6579 C   0  0  0  0  0  0  0  0  0  0  0  0
  -21.3326  -41.5640   -8.0255 C   0  0  0  0  0  0  0  0  0  0  0  0
  -22.5071  -40.8450   -8.6187 C   0  0  0  0  0  0  0  0  0  0  0  0
  -22.4361  -39.3591   -8.3360 C   0  0  0  0  0  0  0  0  0  0  0  0
  -21.8389  -39.0652   -6.9845 C   0  0  0  0  0  0  0  0  0  0  0  0
  -23.8369  -38.8002   -8.4671 C   0  0  0  0  0  0  0  0  0  0  0  0
  -21.5300  -38.7606   -9.3983 C   0  0  0  0  0  0  0  0  0  0  0  0
  -21.2368  -42.0163   -6.8159 O   0  0  0  0  0  0  0  0  0  0  0  0
  -20.0891  -42.5936   -6.6051 N   0  0  0  0  0  0  0  0  0  0  0  0
  2  1  1  6
  2  3  1  0
  3  4  1  0
  4  5  1  0
  5  6  1  0
  6  7  1  0
  7  8  1  0
  8  9  1  0
  9 10  1  0
 10 11  1  0
 11 12  2  0
 11 13  1  0
 13 14  1  0
 13 15  1  0
 15 16  1  6
 15 17  1  0
 17 18  2  0
 17 19  1  0
 19 20  1  0
 20 21  1  6
 20 22  1  0
 22 23  1  1
 22 24  1  0
 24 25  1  0
 25 26  1  0
 26 27  1  0
 27 28  1  0
 28 29  2  0
 29 30  1  0
 30 31  1  0
 31 32  1  0
 31 33  1  0
 31 34  1  0
 29 35  1  0
 35 36  1  0
 21  2  1  0
 36 27  2  0
M  END
$$$$
