
     RDKit          3D

 45 49  0  0  0  0  0  0  0  0999 V2000
  -18.2109  -50.3035   -5.7263 C   0  0  0  0  0  0  0  0  0  0  0  0
  -19.1255  -50.1497   -6.7552 O   0  0  0  0  0  0  0  0  0  0  0  0
  -20.2443  -49.4527   -6.3444 C   0  0  0  0  0  0  0  0  0  0  0  0
  -20.3637  -48.1969   -7.1182 C   0  0  0  0  0  0  0  0  0  0  0  0
  -21.1704  -48.0973   -8.2224 C   0  0  0  0  0  0  0  0  0  0  0  0
  -21.3099  -46.9025   -8.9731 C   0  0  0  0  0  0  0  0  0  0  0  0
  -20.6208  -45.7637   -8.6108 C   0  0  0  0  0  0  0  0  0  0  0  0
  -19.8009  -45.8283   -7.5054 C   0  0  0  0  0  0  0  0  0  0  0  0
  -19.6968  -47.0546   -6.7866 C   0  0  0  0  0  0  0  0  0  0  0  0
  -18.9594  -44.8031   -6.8599 C   0  0  0  0  0  0  0  0  0  0  0  0
  -18.8150  -44.8705   -5.5419 O   0  0  0  0  0  0  0  0  0  0  0  0
  -18.2212  -43.6961   -7.3365 N   0  0  0  0  0  0  0  0  0  0  0  0
  -18.7287  -42.6422   -8.2048 C   0  0  1  0  0  0  0  0  0  0  0  0
  -19.7598  -41.7575   -7.5429 C   0  0  0  0  0  0  0  0  0  0  0  0
  -21.1425  -42.3424   -7.5157 C   0  0  0  0  0  0  0  0  0  0  0  0
  -22.0682  -42.4546   -8.5197 C   0  0  0  0  0  0  0  0  0  0  0  0
  -23.2748  -43.0728   -8.2257 C   0  0  0  0  0  0  0  0  0  0  0  0
  -23.5251  -43.5622   -6.9239 C   0  0  0  0  0  0  0  0  0  0  0  0
  -22.6170  -43.4623   -5.8997 C   0  0  0  0  0  0  0  0  0  0  0  0
  -21.4392  -42.8486   -6.2301 C   0  0  0  0  0  0  0  0  0  0  0  0
  -24.3596  -43.3155   -9.0441 O   0  0  0  0  0  0  0  0  0  0  0  0
  -24.6203  -43.9868  -10.2210 C   0  0  0  0  0  0  0  0  0  0  0  0
  -24.0651  -45.3624  -10.3533 C   0  0  0  0  0  0  0  0  0  0  0  0
  -23.1021  -45.5027  -11.5100 C   0  0  0  0  0  0  0  0  0  0  0  0
  -22.2474  -46.7513  -11.4238 C   0  0  0  0  0  0  0  0  0  0  0  0
  -22.2297  -47.1581  -10.0402 N   0  0  0  0  0  0  0  0  0  0  0  0
  -17.5849  -41.7880   -8.7015 C   0  0  2  0  0  0  0  0  0  0  0  0
  -16.3541  -42.3409   -8.3865 O   0  0  0  0  0  0  0  0  0  0  0  0
  -17.6998  -40.4182   -8.1017 C   0  0  0  0  0  0  0  0  0  0  0  0
  -17.3036  -39.3810   -9.0447 N   0  0  0  0  0  0  0  0  0  0  0  0
  -17.3377  -38.1228   -8.3261 C   0  0  1  0  0  0  0  0  0  0  0  0
  -16.4533  -37.1321   -9.0568 C   0  0  0  0  0  0  0  0  0  0  0  0
  -16.8673  -36.8990  -10.4780 C   0  0  0  0  0  0  0  0  0  0  0  0
  -16.1338  -37.7519  -11.4581 C   0  0  0  0  0  0  0  0  0  0  0  0
  -16.5982  -35.4424  -10.8091 C   0  0  0  0  0  0  0  0  0  0  0  0
  -18.2854  -37.0729  -10.6429 O   0  0  0  0  0  0  0  0  0  0  0  0
  -19.1353  -37.0017   -9.5338 C   0  0  0  0  0  0  0  0  0  0  0  0
  -20.3794  -36.4359   -9.5776 C   0  0  0  0  0  0  0  0  0  0  0  0
  -21.2022  -36.3834   -8.4447 C   0  0  0  0  0  0  0  0  0  0  0  0
  -20.7585  -36.9103   -7.2560 C   0  0  0  0  0  0  0  0  0  0  0  0
  -19.5090  -37.4833   -7.1959 C   0  0  0  0  0  0  0  0  0  0  0  0
  -18.7037  -37.5254   -8.3356 C   0  0  0  0  0  0  0  0  0  0  0  0
  -21.5998  -36.8731   -6.0119 C   0  0  0  0  0  0  0  0  0  0  0  0
  -20.8308  -36.3155   -4.8523 C   0  0  0  0  0  0  0  0  0  0  0  0
  -22.1183  -38.2583   -5.6906 C   0  0  0  0  0  0  0  0  0  0  0  0
  1  2  1  0
  2  3  1  0
  3  4  1  0
  4  5  2  0
  5  6  1  0
  6  7  2  0
  7  8  1  0
  8  9  2  0
  8 10  1  0
 10 11  2  0
 10 12  1  0
 12 13  1  0
 13 14  1  1
 14 15  1  0
 15 16  2  0
 16 17  1  0
 17 18  2  0
 18 19  1  0
 19 20  2  0
 17 21  1  0
 21 22  1  0
 22 23  1  0
 23 24  1  0
 24 25  1  0
 25 26  1  0
 13 27  1  0
 27 28  1  1
 27 29  1  0
 29 30  1  0
 31 30  1  6
 31 32  1  0
 32 33  1  0
 33 34  1  0
 33 35  1  0
 33 36  1  0
 36 37  1  0
 37 38  2  0
 38 39  1  0
 39 40  2  0
 40 41  1  0
 41 42  2  0
 40 43  1  0
 43 44  1  0
 43 45  1  0
  9  4  1  0
 20 15  1  0
 26  6  1  0
 42 37  1  0
 42 31  1  0
M  END
$$$$
