
     RDKit          3D

 45 49  0  0  0  0  0  0  0  0999 V2000
  -22.2643  -41.0233  -13.6943 C   0  0  0  0  0  0  0  0  0  0  0  0
  -21.2702  -41.6122  -12.9304 O   0  0  0  0  0  0  0  0  0  0  0  0
  -20.0400  -41.5461  -13.5537 C   0  0  0  0  0  0  0  0  0  0  0  0
  -19.1253  -40.6899  -12.7661 C   0  0  0  0  0  0  0  0  0  0  0  0
  -18.0427  -40.0685  -13.3333 C   0  0  0  0  0  0  0  0  0  0  0  0
  -17.1588  -39.2348  -12.6023 C   0  0  0  0  0  0  0  0  0  0  0  0
  -17.3604  -39.0109  -11.2561 C   0  0  0  0  0  0  0  0  0  0  0  0
  -18.4396  -39.6199  -10.6539 C   0  0  0  0  0  0  0  0  0  0  0  0
  -19.2966  -40.4485  -11.4351 C   0  0  0  0  0  0  0  0  0  0  0  0
  -18.9311  -39.5703   -9.2640 C   0  0  0  0  0  0  0  0  0  0  0  0
  -20.2426  -39.6532   -9.0749 O   0  0  0  0  0  0  0  0  0  0  0  0
  -18.3025  -39.4495   -8.0038 N   0  0  0  0  0  0  0  0  0  0  0  0
  -17.3302  -38.4312   -7.6296 C   0  0  1  0  0  0  0  0  0  0  0  0
  -17.9129  -37.0391   -7.5497 C   0  0  0  0  0  0  0  0  0  0  0  0
  -18.0529  -36.3560   -8.8795 C   0  0  0  0  0  0  0  0  0  0  0  0
  -17.0988  -35.7741   -9.6724 C   0  0  0  0  0  0  0  0  0  0  0  0
  -17.5021  -35.2328  -10.8843 C   0  0  0  0  0  0  0  0  0  0  0  0
  -18.8603  -35.2857  -11.2706 C   0  0  0  0  0  0  0  0  0  0  0  0
  -19.8365  -35.8609  -10.4961 C   0  0  0  0  0  0  0  0  0  0  0  0
  -19.3985  -36.3852   -9.3102 C   0  0  0  0  0  0  0  0  0  0  0  0
  -16.7527  -34.6031  -11.8577 O   0  0  0  0  0  0  0  0  0  0  0  0
  -15.6735  -34.8981  -12.6651 C   0  0  0  0  0  0  0  0  0  0  0  0
  -15.6900  -36.2131  -13.3639 C   0  0  0  0  0  0  0  0  0  0  0  0
  -14.5291  -37.1018  -12.9793 C   0  0  0  0  0  0  0  0  0  0  0  0
  -14.7379  -38.5525  -13.3648 C   0  0  0  0  0  0  0  0  0  0  0  0
  -16.1590  -38.7529  -13.5070 N   0  0  0  0  0  0  0  0  0  0  0  0
  -16.6995  -38.7839   -6.3021 C   0  0  2  0  0  0  0  0  0  0  0  0
  -15.4434  -38.2165   -6.1613 O   0  0  0  0  0  0  0  0  0  0  0  0
  -16.6036  -40.2761   -6.1860 C   0  0  0  0  0  0  0  0  0  0  0  0
  -17.9157  -40.8917   -6.0390 N   0  0  0  0  0  0  0  0  0  0  0  0
  -17.7102  -42.1726   -5.3928 C   0  0  1  0  0  0  0  0  0  0  0  0
  -18.9628  -42.5200   -4.6131 C   0  0  0  0  0  0  0  0  0  0  0  0
  -20.1942  -42.5895   -5.4641 C   0  0  0  0  0  0  0  0  0  0  0  0
  -20.9748  -41.3180   -5.4849 C   0  0  0  0  0  0  0  0  0  0  0  0
  -21.0806  -43.6912   -4.9125 C   0  0  0  0  0  0  0  0  0  0  0  0
  -19.8769  -42.9910   -6.8082 O   0  0  0  0  0  0  0  0  0  0  0  0
  -18.6722  -43.6490   -7.0786 C   0  0  0  0  0  0  0  0  0  0  0  0
  -18.5578  -44.6572   -7.9952 C   0  0  0  0  0  0  0  0  0  0  0  0
  -17.3329  -45.2925   -8.2385 C   0  0  0  0  0  0  0  0  0  0  0  0
  -16.2132  -44.9007   -7.5455 C   0  0  0  0  0  0  0  0  0  0  0  0
  -16.3120  -43.8873   -6.6199 C   0  0  0  0  0  0  0  0  0  0  0  0
  -17.5417  -43.2671   -6.3912 C   0  0  0  0  0  0  0  0  0  0  0  0
  -14.8785  -45.5544   -7.7652 C   0  0  0  0  0  0  0  0  0  0  0  0
  -13.7578  -44.5753   -7.5864 C   0  0  0  0  0  0  0  0  0  0  0  0
  -14.8242  -46.1805   -9.1421 C   0  0  0  0  0  0  0  0  0  0  0  0
  1  2  1  0
  2  3  1  0
  3  4  1  0
  4  5  2  0
  5  6  1  0
  6  7  2  0
  7  8  1  0
  8  9  2  0
  8 10  1  0
 10 11  2  0
 10 12  1  0
 12 13  1  0
 13 14  1  1
 14 15  1  0
 15 16  2  0
 16 17  1  0
 17 18  2  0
 18 19  1  0
 19 20  2  0
 17 21  1  0
 21 22  1  0
 22 23  1  0
 23 24  1  0
 24 25  1  0
 25 26  1  0
 13 27  1  0
 27 28  1  6
 27 29  1  0
 29 30  1  0
 31 30  1  6
 31 32  1  0
 32 33  1  0
 33 34  1  0
 33 35  1  0
 33 36  1  0
 36 37  1  0
 37 38  2  0
 38 39  1  0
 39 40  2  0
 40 41  1  0
 41 42  2  0
 40 43  1  0
 43 44  1  0
 43 45  1  0
  9  4  1  0
 20 15  1  0
 26  6  1  0
 42 37  1  0
 42 31  1  0
M  END
$$$$
