
     RDKit          3D

 45 49  0  0  0  0  0  0  0  0999 V2000
  -20.1989  -40.2475  -14.5539 C   0  0  0  0  0  0  0  0  0  0  0  0
  -20.4779  -40.9591  -13.3986 O   0  0  0  0  0  0  0  0  0  0  0  0
  -21.5417  -40.4143  -12.7073 C   0  0  0  0  0  0  0  0  0  0  0  0
  -21.1973  -40.2936  -11.2731 C   0  0  0  0  0  0  0  0  0  0  0  0
  -22.1139  -39.8892  -10.3370 C   0  0  0  0  0  0  0  0  0  0  0  0
  -21.8112  -39.7766   -8.9563 C   0  0  0  0  0  0  0  0  0  0  0  0
  -20.5486  -40.0784   -8.4897 C   0  0  0  0  0  0  0  0  0  0  0  0
  -19.6025  -40.4886   -9.4036 C   0  0  0  0  0  0  0  0  0  0  0  0
  -19.9597  -40.5842  -10.7800 C   0  0  0  0  0  0  0  0  0  0  0  0
  -18.1949  -40.8933   -9.2280 C   0  0  0  0  0  0  0  0  0  0  0  0
  -17.7189  -41.8243  -10.0460 O   0  0  0  0  0  0  0  0  0  0  0  0
  -17.1640  -40.5032   -8.3433 N   0  0  0  0  0  0  0  0  0  0  0  0
  -17.2625  -40.4453   -6.8910 C   0  0  1  0  0  0  0  0  0  0  0  0
  -17.4023  -41.8019   -6.2399 C   0  0  0  0  0  0  0  0  0  0  0  0
  -18.7978  -42.3554   -6.2700 C   0  0  0  0  0  0  0  0  0  0  0  0
  -19.8914  -42.0210   -5.5151 C   0  0  0  0  0  0  0  0  0  0  0  0
  -21.0852  -42.6789   -5.7726 C   0  0  0  0  0  0  0  0  0  0  0  0
  -21.1514  -43.6637   -6.7839 C   0  0  0  0  0  0  0  0  0  0  0  0
  -20.0722  -44.0190   -7.5538 C   0  0  0  0  0  0  0  0  0  0  0  0
  -18.9145  -43.3463   -7.2708 C   0  0  0  0  0  0  0  0  0  0  0  0
  -22.3181  -42.5295   -5.1699 O   0  0  0  0  0  0  0  0  0  0  0  0
  -23.2386  -41.5224   -4.9648 C   0  0  0  0  0  0  0  0  0  0  0  0
  -23.5770  -40.6656   -6.1350 C   0  0  0  0  0  0  0  0  0  0  0  0
  -23.2419  -39.2077   -5.9171 C   0  0  0  0  0  0  0  0  0  0  0  0
  -23.2101  -38.4065   -7.2031 C   0  0  0  0  0  0  0  0  0  0  0  0
  -22.9959  -39.3417   -8.2800 N   0  0  0  0  0  0  0  0  0  0  0  0
  -16.0531  -39.7413   -6.3200 C   0  0  2  0  0  0  0  0  0  0  0  0
  -16.3649  -39.0296   -5.1728 O   0  0  0  0  0  0  0  0  0  0  0  0
  -15.4879  -38.8180   -7.3580 C   0  0  0  0  0  0  0  0  0  0  0  0
  -14.9255  -39.5513   -8.4841 N   0  0  0  0  0  0  0  0  0  0  0  0
  -14.0421  -38.6387   -9.1822 C   0  0  1  0  0  0  0  0  0  0  0  0
  -12.9274  -39.4461   -9.8172 C   0  0  0  0  0  0  0  0  0  0  0  0
  -13.4179  -40.4875  -10.7765 C   0  0  0  0  0  0  0  0  0  0  0  0
  -13.5767  -41.8364  -10.1590 C   0  0  0  0  0  0  0  0  0  0  0  0
  -12.4115  -40.5899  -11.9081 C   0  0  0  0  0  0  0  0  0  0  0  0
  -14.6513  -40.0849  -11.3970 O   0  0  0  0  0  0  0  0  0  0  0  0
  -15.0215  -38.7358  -11.4135 C   0  0  0  0  0  0  0  0  0  0  0  0
  -15.6518  -38.1441  -12.4729 C   0  0  0  0  0  0  0  0  0  0  0  0
  -16.0071  -36.7889  -12.4520 C   0  0  0  0  0  0  0  0  0  0  0  0
  -15.7204  -36.0268  -11.3453 C   0  0  0  0  0  0  0  0  0  0  0  0
  -15.0865  -36.6078  -10.2711 C   0  0  0  0  0  0  0  0  0  0  0  0
  -14.7401  -37.9597  -10.3113 C   0  0  0  0  0  0  0  0  0  0  0  0
  -16.0747  -34.5685  -11.2763 C   0  0  0  0  0  0  0  0  0  0  0  0
  -17.4678  -34.3236  -11.7723 C   0  0  0  0  0  0  0  0  0  0  0  0
  -15.0762  -33.7507  -12.0670 C   0  0  0  0  0  0  0  0  0  0  0  0
  1  2  1  0
  2  3  1  0
  3  4  1  0
  4  5  2  0
  5  6  1  0
  6  7  2  0
  7  8  1  0
  8  9  2  0
  8 10  1  0
 10 11  2  0
 10 12  1  0
 12 13  1  0
 13 14  1  1
 14 15  1  0
 15 16  2  0
 16 17  1  0
 17 18  2  0
 18 19  1  0
 19 20  2  0
 17 21  1  0
 21 22  1  0
 22 23  1  0
 23 24  1  0
 24 25  1  0
 25 26  1  0
 13 27  1  0
 27 28  1  1
 27 29  1  0
 29 30  1  0
 31 30  1  6
 31 32  1  0
 32 33  1  0
 33 34  1  0
 33 35  1  0
 33 36  1  0
 36 37  1  0
 37 38  2  0
 38 39  1  0
 39 40  2  0
 40 41  1  0
 41 42  2  0
 40 43  1  0
 43 44  1  0
 43 45  1  0
  9  4  1  0
 20 15  1  0
 26  6  1  0
 42 37  1  0
 42 31  1  0
M  END
$$$$
