
     RDKit          3D

 45 49  0  0  0  0  0  0  0  0999 V2000
  -22.2702  -40.0877   -2.7702 C   0  0  0  0  0  0  0  0  0  0  0  0
  -22.7097  -41.3994   -2.8404 O   0  0  0  0  0  0  0  0  0  0  0  0
  -21.6729  -42.2724   -3.1036 C   0  0  0  0  0  0  0  0  0  0  0  0
  -21.5212  -42.4429   -4.5658 C   0  0  0  0  0  0  0  0  0  0  0  0
  -22.3218  -43.2920   -5.2855 C   0  0  0  0  0  0  0  0  0  0  0  0
  -22.2032  -43.4638   -6.6880 C   0  0  0  0  0  0  0  0  0  0  0  0
  -21.2521  -42.7639   -7.4011 C   0  0  0  0  0  0  0  0  0  0  0  0
  -20.4304  -41.9012   -6.7090 C   0  0  0  0  0  0  0  0  0  0  0  0
  -20.5920  -41.7663   -5.2994 C   0  0  0  0  0  0  0  0  0  0  0  0
  -19.3477  -41.0121   -7.1706 C   0  0  0  0  0  0  0  0  0  0  0  0
  -19.1747  -39.8684   -6.5189 O   0  0  0  0  0  0  0  0  0  0  0  0
  -18.3873  -41.0893   -8.2047 N   0  0  0  0  0  0  0  0  0  0  0  0
  -18.6636  -41.3759   -9.6060 C   0  0  1  0  0  0  0  0  0  0  0  0
  -19.4319  -40.2796  -10.3073 C   0  0  0  0  0  0  0  0  0  0  0  0
  -20.9115  -40.3092  -10.0535 C   0  0  0  0  0  0  0  0  0  0  0  0
  -21.8740  -41.1383  -10.5672 C   0  0  0  0  0  0  0  0  0  0  0  0
  -23.1806  -40.9642  -10.1350 C   0  0  0  0  0  0  0  0  0  0  0  0
  -23.4911  -39.9547   -9.1962 C   0  0  0  0  0  0  0  0  0  0  0  0
  -22.5479  -39.1100   -8.6665 C   0  0  0  0  0  0  0  0  0  0  0  0
  -21.2716  -39.3151   -9.1159 C   0  0  0  0  0  0  0  0  0  0  0  0
  -24.3214  -41.6577  -10.4857 O   0  0  0  0  0  0  0  0  0  0  0  0
  -24.7763  -42.9598  -10.4486 C   0  0  0  0  0  0  0  0  0  0  0  0
  -24.5664  -43.7146   -9.1821 C   0  0  0  0  0  0  0  0  0  0  0  0
  -23.7069  -44.9450   -9.3624 C   0  0  0  0  0  0  0  0  0  0  0  0
  -23.1682  -45.4906   -8.0551 C   0  0  0  0  0  0  0  0  0  0  0  0
  -23.1960  -44.4093   -7.1011 N   0  0  0  0  0  0  0  0  0  0  0  0
  -17.3698  -41.6284  -10.3453 C   0  0  2  0  0  0  0  0  0  0  0  0
  -16.9611  -42.9476  -10.2334 O   0  0  0  0  0  0  0  0  0  0  0  0
  -16.3097  -40.7160   -9.8040 C   0  0  0  0  0  0  0  0  0  0  0  0
  -16.2255  -39.4757  -10.5634 N   0  0  0  0  0  0  0  0  0  0  0  0
  -15.4439  -38.5481   -9.7702 C   0  0  1  0  0  0  0  0  0  0  0  0
  -14.0657  -38.4336  -10.3906 C   0  0  0  0  0  0  0  0  0  0  0  0
  -14.0899  -37.9657  -11.8139 C   0  0  0  0  0  0  0  0  0  0  0  0
  -14.0668  -39.0798  -12.8062 C   0  0  0  0  0  0  0  0  0  0  0  0
  -12.8683  -37.0934  -12.0388 C   0  0  0  0  0  0  0  0  0  0  0  0
  -15.2203  -37.1121  -12.0627 O   0  0  0  0  0  0  0  0  0  0  0  0
  -15.8747  -36.4849  -10.9970 C   0  0  0  0  0  0  0  0  0  0  0  0
  -16.3811  -35.2169  -11.0697 C   0  0  0  0  0  0  0  0  0  0  0  0
  -17.0308  -34.6223   -9.9800 C   0  0  0  0  0  0  0  0  0  0  0  0
  -17.1683  -35.3212   -8.8051 C   0  0  0  0  0  0  0  0  0  0  0  0
  -16.6642  -36.5984   -8.7163 C   0  0  0  0  0  0  0  0  0  0  0  0
  -16.0195  -37.1733   -9.8131 C   0  0  0  0  0  0  0  0  0  0  0  0
  -17.8508  -34.7260   -7.6064 C   0  0  0  0  0  0  0  0  0  0  0  0
  -17.3681  -33.3316   -7.3428 C   0  0  0  0  0  0  0  0  0  0  0  0
  -17.6331  -35.6035   -6.3926 C   0  0  0  0  0  0  0  0  0  0  0  0
  1  2  1  0
  2  3  1  0
  3  4  1  0
  4  5  2  0
  5  6  1  0
  6  7  2  0
  7  8  1  0
  8  9  2  0
  8 10  1  0
 10 11  2  0
 10 12  1  0
 12 13  1  0
 13 14  1  6
 14 15  1  0
 15 16  2  0
 16 17  1  0
 17 18  2  0
 18 19  1  0
 19 20  2  0
 17 21  1  0
 21 22  1  0
 22 23  1  0
 23 24  1  0
 24 25  1  0
 25 26  1  0
 13 27  1  0
 27 28  1  1
 27 29  1  0
 29 30  1  0
 31 30  1  6
 31 32  1  0
 32 33  1  0
 33 34  1  0
 33 35  1  0
 33 36  1  0
 36 37  1  0
 37 38  2  0
 38 39  1  0
 39 40  2  0
 40 41  1  0
 41 42  2  0
 40 43  1  0
 43 44  1  0
 43 45  1  0
  9  4  1  0
 20 15  1  0
 26  6  1  0
 42 37  1  0
 42 31  1  0
M  END
$$$$
