
     RDKit          3D

 45 49  0  0  0  0  0  0  0  0999 V2000
  -13.4485  -41.1445  -16.1396 C   0  0  0  0  0  0  0  0  0  0  0  0
  -12.1762  -40.9604  -15.6238 O   0  0  0  0  0  0  0  0  0  0  0  0
  -12.0219  -41.5933  -14.4065 C   0  0  0  0  0  0  0  0  0  0  0  0
  -12.4639  -40.6956  -13.3161 C   0  0  0  0  0  0  0  0  0  0  0  0
  -11.7090  -39.6286  -12.9020 C   0  0  0  0  0  0  0  0  0  0  0  0
  -12.1160  -38.7482  -11.8678 C   0  0  0  0  0  0  0  0  0  0  0  0
  -13.3201  -38.9366  -11.2216 C   0  0  0  0  0  0  0  0  0  0  0  0
  -14.1044  -39.9998  -11.6129 C   0  0  0  0  0  0  0  0  0  0  0  0
  -13.6475  -40.8544  -12.6579 C   0  0  0  0  0  0  0  0  0  0  0  0
  -15.4265  -40.4551  -11.1434 C   0  0  0  0  0  0  0  0  0  0  0  0
  -16.2327  -41.0180  -12.0354 O   0  0  0  0  0  0  0  0  0  0  0  0
  -16.0840  -40.4370   -9.8923 N   0  0  0  0  0  0  0  0  0  0  0  0
  -16.2498  -39.2728   -9.0324 C   0  0  1  0  0  0  0  0  0  0  0  0
  -17.1696  -38.2213   -9.6089 C   0  0  0  0  0  0  0  0  0  0  0  0
  -16.5178  -37.3263  -10.6231 C   0  0  0  0  0  0  0  0  0  0  0  0
  -15.6465  -36.2841  -10.4433 C   0  0  0  0  0  0  0  0  0  0  0  0
  -15.1669  -35.6353  -11.5717 C   0  0  0  0  0  0  0  0  0  0  0  0
  -15.5788  -36.0479  -12.8590 C   0  0  0  0  0  0  0  0  0  0  0  0
  -16.4507  -37.0871  -13.0681 C   0  0  0  0  0  0  0  0  0  0  0  0
  -16.8990  -37.7024  -11.9309 C   0  0  0  0  0  0  0  0  0  0  0  0
  -14.2881  -34.5751  -11.6683 O   0  0  0  0  0  0  0  0  0  0  0  0
  -12.9929  -34.2854  -11.2912 C   0  0  0  0  0  0  0  0  0  0  0  0
  -11.9586  -35.3195  -11.5718 C   0  0  0  0  0  0  0  0  0  0  0  0
  -11.2783  -35.8299  -10.3221 C   0  0  0  0  0  0  0  0  0  0  0  0
  -10.5273  -37.1277  -10.5419 C   0  0  0  0  0  0  0  0  0  0  0  0
  -11.0972  -37.7548  -11.7090 N   0  0  0  0  0  0  0  0  0  0  0  0
  -16.7696  -39.7012   -7.6794 C   0  0  2  0  0  0  0  0  0  0  0  0
  -16.0337  -39.1459   -6.6451 O   0  0  0  0  0  0  0  0  0  0  0  0
  -16.7299  -41.1978   -7.5904 C   0  0  0  0  0  0  0  0  0  0  0  0
  -18.0503  -41.7590   -7.3383 N   0  0  0  0  0  0  0  0  0  0  0  0
  -18.9466  -41.1862   -8.3228 C   0  0  1  0  0  0  0  0  0  0  0  0
  -18.8184  -41.9836   -9.6056 C   0  0  0  0  0  0  0  0  0  0  0  0
  -19.1364  -43.4382   -9.4372 C   0  0  0  0  0  0  0  0  0  0  0  0
  -17.9323  -44.2856   -9.1955 C   0  0  0  0  0  0  0  0  0  0  0  0
  -19.8166  -43.9168  -10.7069 C   0  0  0  0  0  0  0  0  0  0  0  0
  -20.0980  -43.6434   -8.3877 O   0  0  0  0  0  0  0  0  0  0  0  0
  -20.9105  -42.5865   -7.9632 C   0  0  0  0  0  0  0  0  0  0  0  0
  -22.2188  -42.7458   -7.5991 C   0  0  0  0  0  0  0  0  0  0  0  0
  -23.0010  -41.6620   -7.1789 C   0  0  0  0  0  0  0  0  0  0  0  0
  -22.4504  -40.4043   -7.1274 C   0  0  0  0  0  0  0  0  0  0  0  0
  -21.1350  -40.2277   -7.4904 C   0  0  0  0  0  0  0  0  0  0  0  0
  -20.3721  -41.3203   -7.9070 C   0  0  0  0  0  0  0  0  0  0  0  0
  -23.2487  -39.2091   -6.6902 C   0  0  0  0  0  0  0  0  0  0  0  0
  -22.6833  -37.9414   -7.2559 C   0  0  0  0  0  0  0  0  0  0  0  0
  -23.3016  -39.1410   -5.1791 C   0  0  0  0  0  0  0  0  0  0  0  0
  1  2  1  0
  2  3  1  0
  3  4  1  0
  4  5  2  0
  5  6  1  0
  6  7  2  0
  7  8  1  0
  8  9  2  0
  8 10  1  0
 10 11  2  0
 10 12  1  0
 12 13  1  0
 13 14  1  6
 14 15  1  0
 15 16  2  0
 16 17  1  0
 17 18  2  0
 18 19  1  0
 19 20  2  0
 17 21  1  0
 21 22  1  0
 22 23  1  0
 23 24  1  0
 24 25  1  0
 25 26  1  0
 13 27  1  0
 27 28  1  1
 27 29  1  0
 29 30  1  0
 31 30  1  1
 31 32  1  0
 32 33  1  0
 33 34  1  0
 33 35  1  0
 33 36  1  0
 36 37  1  0
 37 38  2  0
 38 39  1  0
 39 40  2  0
 40 41  1  0
 41 42  2  0
 40 43  1  0
 43 44  1  0
 43 45  1  0
  9  4  1  0
 20 15  1  0
 26  6  1  0
 42 37  1  0
 42 31  1  0
M  END
$$$$
