
     RDKit          3D

 45 49  0  0  0  0  0  0  0  0999 V2000
  -19.3713  -46.5457   -3.4580 C   0  0  0  0  0  0  0  0  0  0  0  0
  -19.9082  -46.8423   -4.6999 O   0  0  0  0  0  0  0  0  0  0  0  0
  -19.0910  -46.4112   -5.7260 C   0  0  0  0  0  0  0  0  0  0  0  0
  -19.6948  -45.2316   -6.3848 C   0  0  0  0  0  0  0  0  0  0  0  0
  -21.0195  -45.1942   -6.7365 C   0  0  0  0  0  0  0  0  0  0  0  0
  -21.6233  -44.0718   -7.3580 C   0  0  0  0  0  0  0  0  0  0  0  0
  -20.8806  -42.9440   -7.6397 C   0  0  0  0  0  0  0  0  0  0  0  0
  -19.5455  -42.9473   -7.2993 C   0  0  0  0  0  0  0  0  0  0  0  0
  -18.9888  -44.1021   -6.6765 C   0  0  0  0  0  0  0  0  0  0  0  0
  -18.5037  -41.9135   -7.4467 C   0  0  0  0  0  0  0  0  0  0  0  0
  -17.5574  -41.8608   -6.5170 O   0  0  0  0  0  0  0  0  0  0  0  0
  -18.2528  -40.9013   -8.4008 N   0  0  0  0  0  0  0  0  0  0  0  0
  -19.2134  -39.9097   -8.8653 C   0  0  1  0  0  0  0  0  0  0  0  0
  -19.6093  -38.9082   -7.8050 C   0  0  0  0  0  0  0  0  0  0  0  0
  -20.6528  -39.4087   -6.8483 C   0  0  0  0  0  0  0  0  0  0  0  0
  -22.0027  -39.5652   -7.0245 C   0  0  0  0  0  0  0  0  0  0  0  0
  -22.7405  -40.0829   -5.9700 C   0  0  0  0  0  0  0  0  0  0  0  0
  -22.1027  -40.4289   -4.7574 C   0  0  0  0  0  0  0  0  0  0  0  0
  -20.7535  -40.2816   -4.5532 C   0  0  0  0  0  0  0  0  0  0  0  0
  -20.0610  -39.7703   -5.6171 C   0  0  0  0  0  0  0  0  0  0  0  0
  -24.0939  -40.3422   -5.8889 O   0  0  0  0  0  0  0  0  0  0  0  0
  -25.0280  -41.1086   -6.5550 C   0  0  0  0  0  0  0  0  0  0  0  0
  -24.6572  -42.5197   -6.8541 C   0  0  0  0  0  0  0  0  0  0  0  0
  -24.6401  -42.8256   -8.3343 C   0  0  0  0  0  0  0  0  0  0  0  0
  -23.9015  -44.1062   -8.6681 C   0  0  0  0  0  0  0  0  0  0  0  0
  -23.0059  -44.3773   -7.5706 N   0  0  0  0  0  0  0  0  0  0  0  0
  -18.6565  -39.1736  -10.0622 C   0  0  2  0  0  0  0  0  0  0  0  0
  -19.5692  -39.1173  -11.1031 O   0  0  0  0  0  0  0  0  0  0  0  0
  -17.4015  -39.8569  -10.5175 C   0  0  0  0  0  0  0  0  0  0  0  0
  -16.2124  -39.0928  -10.1651 N   0  0  0  0  0  0  0  0  0  0  0  0
  -15.6110  -38.6521  -11.4079 C   0  0  1  0  0  0  0  0  0  0  0  0
  -15.9436  -37.1865  -11.6053 C   0  0  0  0  0  0  0  0  0  0  0  0
  -15.4636  -36.3108  -10.4881 C   0  0  0  0  0  0  0  0  0  0  0  0
  -16.5017  -36.0515   -9.4483 C   0  0  0  0  0  0  0  0  0  0  0  0
  -15.0377  -34.9826  -11.0868 C   0  0  0  0  0  0  0  0  0  0  0  0
  -14.2802  -36.8506   -9.8744 O   0  0  0  0  0  0  0  0  0  0  0  0
  -13.4954  -37.7827  -10.5619 C   0  0  0  0  0  0  0  0  0  0  0  0
  -12.1301  -37.8099  -10.4925 C   0  0  0  0  0  0  0  0  0  0  0  0
  -11.3781  -38.7599  -11.1962 C   0  0  0  0  0  0  0  0  0  0  0  0
  -12.0176  -39.6915  -11.9777 C   0  0  0  0  0  0  0  0  0  0  0  0
  -13.3912  -39.6773  -12.0578 C   0  0  0  0  0  0  0  0  0  0  0  0
  -14.1228  -38.7222  -11.3494 C   0  0  0  0  0  0  0  0  0  0  0  0
  -11.2565  -40.7264  -12.7566 C   0  0  0  0  0  0  0  0  0  0  0  0
  -10.5609  -40.1163  -13.9358 C   0  0  0  0  0  0  0  0  0  0  0  0
  -12.1874  -41.8339  -13.2015 C   0  0  0  0  0  0  0  0  0  0  0  0
  1  2  1  0
  2  3  1  0
  3  4  1  0
  4  5  2  0
  5  6  1  0
  6  7  2  0
  7  8  1  0
  8  9  2  0
  8 10  1  0
 10 11  2  0
 10 12  1  0
 12 13  1  0
 13 14  1  1
 14 15  1  0
 15 16  2  0
 16 17  1  0
 17 18  2  0
 18 19  1  0
 19 20  2  0
 17 21  1  0
 21 22  1  0
 22 23  1  0
 23 24  1  0
 24 25  1  0
 25 26  1  0
 13 27  1  0
 27 28  1  6
 27 29  1  0
 29 30  1  0
 31 30  1  1
 31 32  1  0
 32 33  1  0
 33 34  1  0
 33 35  1  0
 33 36  1  0
 36 37  1  0
 37 38  2  0
 38 39  1  0
 39 40  2  0
 40 41  1  0
 41 42  2  0
 40 43  1  0
 43 44  1  0
 43 45  1  0
  9  4  1  0
 20 15  1  0
 26  6  1  0
 42 37  1  0
 42 31  1  0
M  END
$$$$
