
     RDKit          3D

 45 49  0  0  0  0  0  0  0  0999 V2000
  -25.5884  -45.6562   -7.1494 C   0  0  0  0  0  0  0  0  0  0  0  0
  -24.5326  -44.9196   -6.6382 O   0  0  0  0  0  0  0  0  0  0  0  0
  -23.8558  -44.2396   -7.6311 C   0  0  0  0  0  0  0  0  0  0  0  0
  -22.3974  -44.4199   -7.4565 C   0  0  0  0  0  0  0  0  0  0  0  0
  -21.8705  -45.5233   -6.8361 C   0  0  0  0  0  0  0  0  0  0  0  0
  -20.4771  -45.7239   -6.6670 C   0  0  0  0  0  0  0  0  0  0  0  0
  -19.5739  -44.7912   -7.1332 C   0  0  0  0  0  0  0  0  0  0  0  0
  -20.0692  -43.6698   -7.7623 C   0  0  0  0  0  0  0  0  0  0  0  0
  -21.4790  -43.5176   -7.9056 C   0  0  0  0  0  0  0  0  0  0  0  0
  -19.3818  -42.5181   -8.3761 C   0  0  0  0  0  0  0  0  0  0  0  0
  -19.9547  -41.9554   -9.4333 O   0  0  0  0  0  0  0  0  0  0  0  0
  -18.1843  -41.8234   -8.0914 N   0  0  0  0  0  0  0  0  0  0  0  0
  -16.8716  -42.4268   -7.9050 C   0  0  1  0  0  0  0  0  0  0  0  0
  -16.3008  -43.0343   -9.1656 C   0  0  0  0  0  0  0  0  0  0  0  0
  -16.8363  -44.4003   -9.4847 C   0  0  0  0  0  0  0  0  0  0  0  0
  -16.5422  -45.6129   -8.9185 C   0  0  0  0  0  0  0  0  0  0  0  0
  -17.2135  -46.7312   -9.3910 C   0  0  0  0  0  0  0  0  0  0  0  0
  -18.1653  -46.6047  -10.4278 C   0  0  0  0  0  0  0  0  0  0  0  0
  -18.4784  -45.4035  -11.0134 C   0  0  0  0  0  0  0  0  0  0  0  0
  -17.7969  -44.3249  -10.5184 C   0  0  0  0  0  0  0  0  0  0  0  0
  -17.1098  -48.0498   -8.9959 O   0  0  0  0  0  0  0  0  0  0  0  0
  -17.2715  -48.7845   -7.8393 C   0  0  0  0  0  0  0  0  0  0  0  0
  -18.4948  -48.5176   -7.0329 C   0  0  0  0  0  0  0  0  0  0  0  0
  -18.1871  -48.0266   -5.6367 C   0  0  0  0  0  0  0  0  0  0  0  0
  -19.3808  -47.3892   -4.9543 C   0  0  0  0  0  0  0  0  0  0  0  0
  -20.2908  -46.9735   -5.9932 N   0  0  0  0  0  0  0  0  0  0  0  0
  -15.9037  -41.3991   -7.3652 C   0  0  2  0  0  0  0  0  0  0  0  0
  -15.2085  -41.8737   -6.2647 O   0  0  0  0  0  0  0  0  0  0  0  0
  -16.6614  -40.1584   -6.9965 C   0  0  0  0  0  0  0  0  0  0  0  0
  -17.1102  -39.4295   -8.1752 N   0  0  0  0  0  0  0  0  0  0  0  0
  -17.6108  -38.1499   -7.7141 C   0  0  1  0  0  0  0  0  0  0  0  0
  -17.0243  -37.0634   -8.5933 C   0  0  0  0  0  0  0  0  0  0  0  0
  -17.3561  -37.2279  -10.0453 C   0  0  0  0  0  0  0  0  0  0  0  0
  -16.3006  -37.9449  -10.8185 C   0  0  0  0  0  0  0  0  0  0  0  0
  -17.5358  -35.8440  -10.6422 C   0  0  0  0  0  0  0  0  0  0  0  0
  -18.6227  -37.8867  -10.2190 O   0  0  0  0  0  0  0  0  0  0  0  0
  -19.5508  -37.9113   -9.1723 C   0  0  0  0  0  0  0  0  0  0  0  0
  -20.9005  -37.8053   -9.3643 C   0  0  0  0  0  0  0  0  0  0  0  0
  -21.7993  -37.8343   -8.2898 C   0  0  0  0  0  0  0  0  0  0  0  0
  -21.3240  -37.9726   -7.0082 C   0  0  0  0  0  0  0  0  0  0  0  0
  -19.9684  -38.0807   -6.7986 C   0  0  0  0  0  0  0  0  0  0  0  0
  -19.0889  -38.0490   -7.8824 C   0  0  0  0  0  0  0  0  0  0  0  0
  -22.2457  -38.0028   -5.8222 C   0  0  0  0  0  0  0  0  0  0  0  0
  -21.4802  -37.9140   -4.5365 C   0  0  0  0  0  0  0  0  0  0  0  0
  -23.0937  -39.2562   -5.8518 C   0  0  0  0  0  0  0  0  0  0  0  0
  1  2  1  0
  2  3  1  0
  3  4  1  0
  4  5  2  0
  5  6  1  0
  6  7  2  0
  7  8  1  0
  8  9  2  0
  8 10  1  0
 10 11  2  0
 10 12  1  0
 12 13  1  0
 13 14  1  6
 14 15  1  0
 15 16  2  0
 16 17  1  0
 17 18  2  0
 18 19  1  0
 19 20  2  0
 17 21  1  0
 21 22  1  0
 22 23  1  0
 23 24  1  0
 24 25  1  0
 25 26  1  0
 13 27  1  0
 27 28  1  1
 27 29  1  0
 29 30  1  0
 31 30  1  6
 31 32  1  0
 32 33  1  0
 33 34  1  0
 33 35  1  0
 33 36  1  0
 36 37  1  0
 37 38  2  0
 38 39  1  0
 39 40  2  0
 40 41  1  0
 41 42  2  0
 40 43  1  0
 43 44  1  0
 43 45  1  0
  9  4  1  0
 20 15  1  0
 26  6  1  0
 42 37  1  0
 42 31  1  0
M  END
$$$$
