
     RDKit          3D

 45 49  0  0  0  0  0  0  0  0999 V2000
  -15.4311  -44.8107  -12.5158 C   0  0  0  0  0  0  0  0  0  0  0  0
  -16.7520  -44.5683  -12.8553 O   0  0  0  0  0  0  0  0  0  0  0  0
  -16.8899  -43.3905  -13.5626 C   0  0  0  0  0  0  0  0  0  0  0  0
  -16.4412  -42.2517  -12.7307 C   0  0  0  0  0  0  0  0  0  0  0  0
  -15.2800  -41.5720  -12.9944 C   0  0  0  0  0  0  0  0  0  0  0  0
  -14.8350  -40.4713  -12.2191 C   0  0  0  0  0  0  0  0  0  0  0  0
  -15.5739  -40.0303  -11.1409 C   0  0  0  0  0  0  0  0  0  0  0  0
  -16.7470  -40.6908  -10.8474 C   0  0  0  0  0  0  0  0  0  0  0  0
  -17.1479  -41.7915  -11.6592 C   0  0  0  0  0  0  0  0  0  0  0  0
  -17.7530  -40.4604   -9.7936 C   0  0  0  0  0  0  0  0  0  0  0  0
  -19.0191  -40.7332  -10.0855 O   0  0  0  0  0  0  0  0  0  0  0  0
  -17.6904  -39.9903   -8.4621 N   0  0  0  0  0  0  0  0  0  0  0  0
  -17.0387  -38.7650   -8.0197 C   0  0  1  0  0  0  0  0  0  0  0  0
  -17.7223  -37.5074   -8.5046 C   0  0  0  0  0  0  0  0  0  0  0  0
  -17.3799  -37.1292   -9.9168 C   0  0  0  0  0  0  0  0  0  0  0  0
  -16.2430  -36.5537  -10.4205 C   0  0  0  0  0  0  0  0  0  0  0  0
  -16.1758  -36.3357  -11.7889 C   0  0  0  0  0  0  0  0  0  0  0  0
  -17.2582  -36.6990  -12.6214 C   0  0  0  0  0  0  0  0  0  0  0  0
  -18.4086  -37.2755  -12.1440 C   0  0  0  0  0  0  0  0  0  0  0  0
  -18.4352  -37.4759  -10.7904 C   0  0  0  0  0  0  0  0  0  0  0  0
  -15.1581  -35.7847  -12.5415 O   0  0  0  0  0  0  0  0  0  0  0  0
  -13.8258  -36.0367  -12.7965 C   0  0  0  0  0  0  0  0  0  0  0  0
  -13.4499  -37.4442  -13.1058 C   0  0  0  0  0  0  0  0  0  0  0  0
  -12.4662  -38.0248  -12.1157 C   0  0  0  0  0  0  0  0  0  0  0  0
  -12.3789  -39.5364  -12.1813 C   0  0  0  0  0  0  0  0  0  0  0  0
  -13.6033  -40.0060  -12.7817 N   0  0  0  0  0  0  0  0  0  0  0  0
  -16.9603  -38.7387   -6.5105 C   0  0  2  0  0  0  0  0  0  0  0  0
  -16.2731  -39.8332   -6.0110 O   0  0  0  0  0  0  0  0  0  0  0  0
  -18.3502  -38.7061   -5.9480 C   0  0  0  0  0  0  0  0  0  0  0  0
  -19.0416  -39.9734   -6.1435 N   0  0  0  0  0  0  0  0  0  0  0  0
  -20.4137  -39.7743   -5.7212 C   0  0  1  0  0  0  0  0  0  0  0  0
  -21.3108  -39.9094   -6.9355 C   0  0  0  0  0  0  0  0  0  0  0  0
  -21.1934  -41.2381   -7.6183 C   0  0  0  0  0  0  0  0  0  0  0  0
  -20.2305  -41.2375   -8.7579 C   0  0  0  0  0  0  0  0  0  0  0  0
  -22.5660  -41.6139   -8.1461 C   0  0  0  0  0  0  0  0  0  0  0  0
  -20.8458  -42.2750   -6.6842 O   0  0  0  0  0  0  0  0  0  0  0  0
  -21.0648  -42.0891   -5.3150 C   0  0  0  0  0  0  0  0  0  0  0  0
  -21.4795  -43.0888   -4.4793 C   0  0  0  0  0  0  0  0  0  0  0  0
  -21.6880  -42.8635   -3.1122 C   0  0  0  0  0  0  0  0  0  0  0  0
  -21.4733  -41.6119   -2.5879 C   0  0  0  0  0  0  0  0  0  0  0  0
  -21.0557  -40.5954   -3.4159 C   0  0  0  0  0  0  0  0  0  0  0  0
  -20.8541  -40.8397   -4.7756 C   0  0  0  0  0  0  0  0  0  0  0  0
  -21.6888  -41.3178   -1.1305 C   0  0  0  0  0  0  0  0  0  0  0  0
  -20.6782  -42.0242   -0.2782 C   0  0  0  0  0  0  0  0  0  0  0  0
  -23.0939  -41.7047   -0.7220 C   0  0  0  0  0  0  0  0  0  0  0  0
  1  2  1  0
  2  3  1  0
  3  4  1  0
  4  5  2  0
  5  6  1  0
  6  7  2  0
  7  8  1  0
  8  9  2  0
  8 10  1  0
 10 11  2  0
 10 12  1  0
 12 13  1  0
 13 14  1  1
 14 15  1  0
 15 16  2  0
 16 17  1  0
 17 18  2  0
 18 19  1  0
 19 20  2  0
 17 21  1  0
 21 22  1  0
 22 23  1  0
 23 24  1  0
 24 25  1  0
 25 26  1  0
 13 27  1  0
 27 28  1  1
 27 29  1  0
 29 30  1  0
 31 30  1  6
 31 32  1  0
 32 33  1  0
 33 34  1  0
 33 35  1  0
 33 36  1  0
 36 37  1  0
 37 38  2  0
 38 39  1  0
 39 40  2  0
 40 41  1  0
 41 42  2  0
 40 43  1  0
 43 44  1  0
 43 45  1  0
  9  4  1  0
 20 15  1  0
 26  6  1  0
 42 37  1  0
 42 31  1  0
M  END
$$$$
