
     RDKit          3D

 45 49  0  0  0  0  0  0  0  0999 V2000
  -20.2773  -47.3066   -3.9183 C   0  0  0  0  0  0  0  0  0  0  0  0
  -21.0516  -47.0666   -5.0416 O   0  0  0  0  0  0  0  0  0  0  0  0
  -20.2743  -46.8732   -6.1662 C   0  0  0  0  0  0  0  0  0  0  0  0
  -20.5267  -45.5256   -6.7233 C   0  0  0  0  0  0  0  0  0  0  0  0
  -21.5843  -45.2704   -7.5577 C   0  0  0  0  0  0  0  0  0  0  0  0
  -21.8533  -43.9860   -8.0948 C   0  0  0  0  0  0  0  0  0  0  0  0
  -21.0392  -42.9150   -7.7895 C   0  0  0  0  0  0  0  0  0  0  0  0
  -19.9668  -43.1359   -6.9531 C   0  0  0  0  0  0  0  0  0  0  0  0
  -19.7417  -44.4469   -6.4412 C   0  0  0  0  0  0  0  0  0  0  0  0
  -18.9383  -42.2169   -6.4302 C   0  0  0  0  0  0  0  0  0  0  0  0
  -18.4633  -42.4575   -5.2141 O   0  0  0  0  0  0  0  0  0  0  0  0
  -18.2940  -41.0690   -6.9450 N   0  0  0  0  0  0  0  0  0  0  0  0
  -18.9553  -39.9032   -7.5157 C   0  0  1  0  0  0  0  0  0  0  0  0
  -19.7368  -39.0961   -6.5049 C   0  0  0  0  0  0  0  0  0  0  0  0
  -21.0930  -39.6576   -6.1886 C   0  0  0  0  0  0  0  0  0  0  0  0
  -22.2501  -39.6235   -6.9217 C   0  0  0  0  0  0  0  0  0  0  0  0
  -23.3694  -40.2556   -6.4001 C   0  0  0  0  0  0  0  0  0  0  0  0
  -23.3003  -40.9063   -5.1476 C   0  0  0  0  0  0  0  0  0  0  0  0
  -22.1555  -40.9550   -4.3920 C   0  0  0  0  0  0  0  0  0  0  0  0
  -21.0736  -40.3222   -4.9416 C   0  0  0  0  0  0  0  0  0  0  0  0
  -24.6387  -40.3726   -6.9298 O   0  0  0  0  0  0  0  0  0  0  0  0
  -25.2259  -40.8807   -8.0703 C   0  0  0  0  0  0  0  0  0  0  0  0
  -24.7917  -42.2360   -8.5093 C   0  0  0  0  0  0  0  0  0  0  0  0
  -24.1665  -42.2397   -9.8856 C   0  0  0  0  0  0  0  0  0  0  0  0
  -23.3809  -43.5022  -10.1782 C   0  0  0  0  0  0  0  0  0  0  0  0
  -23.0280  -44.0859   -8.9074 N   0  0  0  0  0  0  0  0  0  0  0  0
  -17.9372  -39.0098   -8.1862 C   0  0  2  0  0  0  0  0  0  0  0  0
  -18.5163  -37.8569   -8.6914 O   0  0  0  0  0  0  0  0  0  0  0  0
  -17.2671  -39.7726   -9.2900 C   0  0  0  0  0  0  0  0  0  0  0  0
  -15.9673  -40.2865   -8.8794 N   0  0  0  0  0  0  0  0  0  0  0  0
  -15.0836  -39.1448   -8.7529 C   0  0  1  0  0  0  0  0  0  0  0  0
  -13.6781  -39.6548   -8.5038 C   0  0  0  0  0  0  0  0  0  0  0  0
  -13.1692  -40.5537   -9.5893 C   0  0  0  0  0  0  0  0  0  0  0  0
  -13.3758  -42.0039   -9.3056 C   0  0  0  0  0  0  0  0  0  0  0  0
  -11.6810  -40.2996   -9.7457 C   0  0  0  0  0  0  0  0  0  0  0  0
  -13.7504  -40.2160  -10.8607 O   0  0  0  0  0  0  0  0  0  0  0  0
  -14.3178  -38.9528  -11.0603 C   0  0  0  0  0  0  0  0  0  0  0  0
  -14.2205  -38.2646  -12.2378 C   0  0  0  0  0  0  0  0  0  0  0  0
  -14.8028  -37.0005  -12.3995 C   0  0  0  0  0  0  0  0  0  0  0  0
  -15.4908  -36.4293  -11.3564 C   0  0  0  0  0  0  0  0  0  0  0  0
  -15.5977  -37.1095  -10.1650 C   0  0  0  0  0  0  0  0  0  0  0  0
  -15.0099  -38.3679  -10.0234 C   0  0  0  0  0  0  0  0  0  0  0  0
  -16.1274  -35.0740  -11.4772 C   0  0  0  0  0  0  0  0  0  0  0  0
  -17.0015  -34.9904  -12.6920 C   0  0  0  0  0  0  0  0  0  0  0  0
  -15.0630  -33.9985  -11.5118 C   0  0  0  0  0  0  0  0  0  0  0  0
  1  2  1  0
  2  3  1  0
  3  4  1  0
  4  5  2  0
  5  6  1  0
  6  7  2  0
  7  8  1  0
  8  9  2  0
  8 10  1  0
 10 11  2  0
 10 12  1  0
 12 13  1  0
 13 14  1  1
 14 15  1  0
 15 16  2  0
 16 17  1  0
 17 18  2  0
 18 19  1  0
 19 20  2  0
 17 21  1  0
 21 22  1  0
 22 23  1  0
 23 24  1  0
 24 25  1  0
 25 26  1  0
 13 27  1  0
 27 28  1  6
 27 29  1  0
 29 30  1  0
 31 30  1  6
 31 32  1  0
 32 33  1  0
 33 34  1  0
 33 35  1  0
 33 36  1  0
 36 37  1  0
 37 38  2  0
 38 39  1  0
 39 40  2  0
 40 41  1  0
 41 42  2  0
 40 43  1  0
 43 44  1  0
 43 45  1  0
  9  4  1  0
 20 15  1  0
 26  6  1  0
 42 37  1  0
 42 31  1  0
M  END
$$$$
