
     RDKit          3D

 45 49  0  0  0  0  0  0  0  0999 V2000
  -24.5639  -41.0338   -6.0465 C   0  0  0  0  0  0  0  0  0  0  0  0
  -24.1169  -42.3341   -6.2140 O   0  0  0  0  0  0  0  0  0  0  0  0
  -23.6233  -42.5448   -7.4862 C   0  0  0  0  0  0  0  0  0  0  0  0
  -22.1710  -42.8211   -7.4200 C   0  0  0  0  0  0  0  0  0  0  0  0
  -21.6772  -44.0003   -6.9246 C   0  0  0  0  0  0  0  0  0  0  0  0
  -20.2911  -44.2926   -6.8614 C   0  0  0  0  0  0  0  0  0  0  0  0
  -19.3615  -43.3768   -7.3085 C   0  0  0  0  0  0  0  0  0  0  0  0
  -19.8232  -42.1807   -7.8132 C   0  0  0  0  0  0  0  0  0  0  0  0
  -21.2270  -41.9377   -7.8535 C   0  0  0  0  0  0  0  0  0  0  0  0
  -19.1038  -41.0224   -8.3759 C   0  0  0  0  0  0  0  0  0  0  0  0
  -19.7025  -40.3421   -9.3460 O   0  0  0  0  0  0  0  0  0  0  0  0
  -17.8511  -40.4225   -8.1137 N   0  0  0  0  0  0  0  0  0  0  0  0
  -16.5693  -41.1125   -8.0603 C   0  0  1  0  0  0  0  0  0  0  0  0
  -16.1123  -41.6439   -9.3992 C   0  0  0  0  0  0  0  0  0  0  0  0
  -16.7488  -42.9461   -9.7914 C   0  0  0  0  0  0  0  0  0  0  0  0
  -16.4968  -44.2165   -9.3437 C   0  0  0  0  0  0  0  0  0  0  0  0
  -17.2623  -45.2518   -9.8600 C   0  0  0  0  0  0  0  0  0  0  0  0
  -18.2640  -44.9857  -10.8205 C   0  0  0  0  0  0  0  0  0  0  0  0
  -18.5368  -43.7242  -11.2872 C   0  0  0  0  0  0  0  0  0  0  0  0
  -17.7623  -42.7307  -10.7523 C   0  0  0  0  0  0  0  0  0  0  0  0
  -17.2167  -46.6025   -9.5788 O   0  0  0  0  0  0  0  0  0  0  0  0
  -17.3545  -47.4208   -8.4765 C   0  0  0  0  0  0  0  0  0  0  0  0
  -18.5093  -47.1534   -7.5749 C   0  0  0  0  0  0  0  0  0  0  0  0
  -18.0902  -46.7987   -6.1665 C   0  0  0  0  0  0  0  0  0  0  0  0
  -19.2001  -46.1541   -5.3606 C   0  0  0  0  0  0  0  0  0  0  0  0
  -20.1426  -45.6025   -6.3027 N   0  0  0  0  0  0  0  0  0  0  0  0
  -15.5099  -40.1896   -7.5032 C   0  0  2  0  0  0  0  0  0  0  0  0
  -14.4493  -40.8933   -6.9559 O   0  0  0  0  0  0  0  0  0  0  0  0
  -16.1289  -39.3045   -6.4626 C   0  0  0  0  0  0  0  0  0  0  0  0
  -16.7632  -38.1352   -7.0563 N   0  0  0  0  0  0  0  0  0  0  0  0
  -17.5730  -38.6102   -8.1605 C   0  0  1  0  0  0  0  0  0  0  0  0
  -18.8798  -39.1371   -7.6015 C   0  0  0  0  0  0  0  0  0  0  0  0
  -19.6533  -38.1128   -6.8283 C   0  0  0  0  0  0  0  0  0  0  0  0
  -19.4021  -38.1633   -5.3585 C   0  0  0  0  0  0  0  0  0  0  0  0
  -21.1304  -38.3603   -7.0745 C   0  0  0  0  0  0  0  0  0  0  0  0
  -19.4003  -36.7861   -7.3228 O   0  0  0  0  0  0  0  0  0  0  0  0
  -18.8833  -36.6031   -8.6099 C   0  0  0  0  0  0  0  0  0  0  0  0
  -19.2598  -35.5760   -9.4302 C   0  0  0  0  0  0  0  0  0  0  0  0
  -18.7190  -35.4258  -10.7140 C   0  0  0  0  0  0  0  0  0  0  0  0
  -17.7868  -36.3263  -11.1698 C   0  0  0  0  0  0  0  0  0  0  0  0
  -17.3974  -37.3653  -10.3560 C   0  0  0  0  0  0  0  0  0  0  0  0
  -17.9485  -37.4983   -9.0802 C   0  0  0  0  0  0  0  0  0  0  0  0
  -17.1820  -36.2127  -12.5403 C   0  0  0  0  0  0  0  0  0  0  0  0
  -15.9564  -35.3500  -12.5237 C   0  0  0  0  0  0  0  0  0  0  0  0
  -18.2023  -35.6700  -13.5178 C   0  0  0  0  0  0  0  0  0  0  0  0
  1  2  1  0
  2  3  1  0
  3  4  1  0
  4  5  2  0
  5  6  1  0
  6  7  2  0
  7  8  1  0
  8  9  2  0
  8 10  1  0
 10 11  2  0
 10 12  1  0
 12 13  1  0
 13 14  1  6
 14 15  1  0
 15 16  2  0
 16 17  1  0
 17 18  2  0
 18 19  1  0
 19 20  2  0
 17 21  1  0
 21 22  1  0
 22 23  1  0
 23 24  1  0
 24 25  1  0
 25 26  1  0
 13 27  1  0
 27 28  1  1
 27 29  1  0
 29 30  1  0
 31 30  1  1
 31 32  1  0
 32 33  1  0
 33 34  1  0
 33 35  1  0
 33 36  1  0
 36 37  1  0
 37 38  2  0
 38 39  1  0
 39 40  2  0
 40 41  1  0
 41 42  2  0
 40 43  1  0
 43 44  1  0
 43 45  1  0
  9  4  1  0
 20 15  1  0
 26  6  1  0
 42 37  1  0
 42 31  1  0
M  END
$$$$
