
     RDKit          3D

 45 49  0  0  0  0  0  0  0  0999 V2000
  -24.7879  -40.8893  -12.0651 C   0  0  0  0  0  0  0  0  0  0  0  0
  -23.4242  -40.6527  -12.0110 O   0  0  0  0  0  0  0  0  0  0  0  0
  -23.1402  -39.4291  -11.4379 C   0  0  0  0  0  0  0  0  0  0  0  0
  -22.3230  -39.6246  -10.2197 C   0  0  0  0  0  0  0  0  0  0  0  0
  -22.8609  -39.5369   -8.9616 C   0  0  0  0  0  0  0  0  0  0  0  0
  -22.1012  -39.7313   -7.7803 C   0  0  0  0  0  0  0  0  0  0  0  0
  -20.7552  -40.0245   -7.8539 C   0  0  0  0  0  0  0  0  0  0  0  0
  -20.1819  -40.1204   -9.1032 C   0  0  0  0  0  0  0  0  0  0  0  0
  -20.9913  -39.9155  -10.2582 C   0  0  0  0  0  0  0  0  0  0  0  0
  -18.8001  -40.4310   -9.5156 C   0  0  0  0  0  0  0  0  0  0  0  0
  -18.6353  -41.0946  -10.6535 O   0  0  0  0  0  0  0  0  0  0  0  0
  -17.5274  -40.1749   -8.9566 N   0  0  0  0  0  0  0  0  0  0  0  0
  -17.1198  -40.4743   -7.5905 C   0  0  1  0  0  0  0  0  0  0  0  0
  -17.0272  -41.9540   -7.2976 C   0  0  0  0  0  0  0  0  0  0  0  0
  -18.3479  -42.6038   -7.0006 C   0  0  0  0  0  0  0  0  0  0  0  0
  -19.1144  -42.5560   -5.8658 C   0  0  0  0  0  0  0  0  0  0  0  0
  -20.3242  -43.2350   -5.8691 C   0  0  0  0  0  0  0  0  0  0  0  0
  -20.7349  -43.9518   -7.0156 C   0  0  0  0  0  0  0  0  0  0  0  0
  -19.9870  -44.0175   -8.1645 C   0  0  0  0  0  0  0  0  0  0  0  0
  -18.8024  -43.3334   -8.1222 C   0  0  0  0  0  0  0  0  0  0  0  0
  -21.2740  -43.3419   -4.8732 O   0  0  0  0  0  0  0  0  0  0  0  0
  -22.0672  -42.4972   -4.1243 C   0  0  0  0  0  0  0  0  0  0  0  0
  -22.7876  -41.4187   -4.8563 C   0  0  0  0  0  0  0  0  0  0  0  0
  -22.3975  -40.0314   -4.3995 C   0  0  0  0  0  0  0  0  0  0  0  0
  -22.8103  -38.9468   -5.3741 C   0  0  0  0  0  0  0  0  0  0  0  0
  -22.9803  -39.5755   -6.6609 N   0  0  0  0  0  0  0  0  0  0  0  0
  -15.7874  -39.8242   -7.2960 C   0  0  2  0  0  0  0  0  0  0  0  0
  -15.6496  -39.5171   -5.9519 O   0  0  0  0  0  0  0  0  0  0  0  0
  -15.6562  -38.5793   -8.1220 C   0  0  0  0  0  0  0  0  0  0  0  0
  -15.4572  -38.8856   -9.5322 N   0  0  0  0  0  0  0  0  0  0  0  0
  -14.1313  -38.4165   -9.8823 C   0  0  1  0  0  0  0  0  0  0  0  0
  -13.2639  -39.6217  -10.1866 C   0  0  0  0  0  0  0  0  0  0  0  0
  -13.7952  -40.4726  -11.2998 C   0  0  0  0  0  0  0  0  0  0  0  0
  -14.6240  -41.6197  -10.8273 C   0  0  0  0  0  0  0  0  0  0  0  0
  -12.6104  -41.0198  -12.0747 C   0  0  0  0  0  0  0  0  0  0  0  0
  -14.5410  -39.6869  -12.2458 O   0  0  0  0  0  0  0  0  0  0  0  0
  -14.3570  -38.3013  -12.3078 C   0  0  0  0  0  0  0  0  0  0  0  0
  -14.3709  -37.5947  -13.4783 C   0  0  0  0  0  0  0  0  0  0  0  0
  -14.1828  -36.2064  -13.4999 C   0  0  0  0  0  0  0  0  0  0  0  0
  -13.9789  -35.5285  -12.3224 C   0  0  0  0  0  0  0  0  0  0  0  0
  -13.9623  -36.2255  -11.1361 C   0  0  0  0  0  0  0  0  0  0  0  0
  -14.1511  -37.6088  -11.1355 C   0  0  0  0  0  0  0  0  0  0  0  0
  -13.7658  -34.0417  -12.2928 C   0  0  0  0  0  0  0  0  0  0  0  0
  -12.3146  -33.7037  -12.1297 C   0  0  0  0  0  0  0  0  0  0  0  0
  -14.5858  -33.4188  -11.1836 C   0  0  0  0  0  0  0  0  0  0  0  0
  1  2  1  0
  2  3  1  0
  3  4  1  0
  4  5  2  0
  5  6  1  0
  6  7  2  0
  7  8  1  0
  8  9  2  0
  8 10  1  0
 10 11  2  0
 10 12  1  0
 12 13  1  0
 13 14  1  6
 14 15  1  0
 15 16  2  0
 16 17  1  0
 17 18  2  0
 18 19  1  0
 19 20  2  0
 17 21  1  0
 21 22  1  0
 22 23  1  0
 23 24  1  0
 24 25  1  0
 25 26  1  0
 13 27  1  0
 27 28  1  1
 27 29  1  0
 29 30  1  0
 31 30  1  6
 31 32  1  0
 32 33  1  0
 33 34  1  0
 33 35  1  0
 33 36  1  0
 36 37  1  0
 37 38  2  0
 38 39  1  0
 39 40  2  0
 40 41  1  0
 41 42  2  0
 40 43  1  0
 43 44  1  0
 43 45  1  0
  9  4  1  0
 20 15  1  0
 26  6  1  0
 42 37  1  0
 42 31  1  0
M  END
$$$$
