
     RDKit          3D

 45 49  0  0  0  0  0  0  0  0999 V2000
  -21.3175  -41.7236   -0.5265 C   0  0  0  0  0  0  0  0  0  0  0  0
  -21.7370  -42.3283   -1.6999 O   0  0  0  0  0  0  0  0  0  0  0  0
  -22.4249  -41.4478   -2.5110 C   0  0  0  0  0  0  0  0  0  0  0  0
  -21.9033  -41.5291   -3.8935 C   0  0  0  0  0  0  0  0  0  0  0  0
  -22.3694  -42.4529   -4.7931 C   0  0  0  0  0  0  0  0  0  0  0  0
  -21.8937  -42.5430   -6.1259 C   0  0  0  0  0  0  0  0  0  0  0  0
  -20.9176  -41.6808   -6.5805 C   0  0  0  0  0  0  0  0  0  0  0  0
  -20.4267  -40.7392   -5.7024 C   0  0  0  0  0  0  0  0  0  0  0  0
  -20.9397  -40.6923   -4.3736 C   0  0  0  0  0  0  0  0  0  0  0  0
  -19.4133  -39.6821   -5.8796 C   0  0  0  0  0  0  0  0  0  0  0  0
  -19.5776  -38.5557   -5.1965 O   0  0  0  0  0  0  0  0  0  0  0  0
  -18.2329  -39.5724   -6.6494 N   0  0  0  0  0  0  0  0  0  0  0  0
  -18.1188  -39.8334   -8.0780 C   0  0  1  0  0  0  0  0  0  0  0  0
  -18.8544  -38.8307   -8.9366 C   0  0  0  0  0  0  0  0  0  0  0  0
  -20.3295  -39.0870   -9.0509 C   0  0  0  0  0  0  0  0  0  0  0  0
  -21.0032  -40.0238   -9.7899 C   0  0  0  0  0  0  0  0  0  0  0  0
  -22.3861  -40.0614   -9.6875 C   0  0  0  0  0  0  0  0  0  0  0  0
  -23.0623  -39.1508   -8.8446 C   0  0  0  0  0  0  0  0  0  0  0  0
  -22.4133  -38.2021   -8.0946 C   0  0  0  0  0  0  0  0  0  0  0  0
  -21.0506  -38.1988   -8.2214 C   0  0  0  0  0  0  0  0  0  0  0  0
  -23.2905  -40.8975  -10.3108 O   0  0  0  0  0  0  0  0  0  0  0  0
  -23.5373  -42.2523  -10.3957 C   0  0  0  0  0  0  0  0  0  0  0  0
  -23.5244  -43.0241   -9.1221 C   0  0  0  0  0  0  0  0  0  0  0  0
  -22.4698  -44.1068   -9.0974 C   0  0  0  0  0  0  0  0  0  0  0  0
  -22.1833  -44.6258   -7.7026 C   0  0  0  0  0  0  0  0  0  0  0  0
  -22.6029  -43.6037   -6.7756 N   0  0  0  0  0  0  0  0  0  0  0  0
  -16.6626  -39.8615   -8.4821 C   0  0  2  0  0  0  0  0  0  0  0  0
  -16.0705  -41.0800   -8.1917 O   0  0  0  0  0  0  0  0  0  0  0  0
  -15.9360  -38.7570   -7.7739 C   0  0  0  0  0  0  0  0  0  0  0  0
  -15.1855  -37.9223   -8.7024 N   0  0  0  0  0  0  0  0  0  0  0  0
  -15.6868  -38.2136  -10.0307 C   0  0  1  0  0  0  0  0  0  0  0  0
  -16.8770  -37.3142  -10.2991 C   0  0  0  0  0  0  0  0  0  0  0  0
  -16.5541  -35.8540  -10.2037 C   0  0  0  0  0  0  0  0  0  0  0  0
  -16.8489  -35.2665   -8.8643 C   0  0  0  0  0  0  0  0  0  0  0  0
  -17.3835  -35.1241  -11.2444 C   0  0  0  0  0  0  0  0  0  0  0  0
  -15.1840  -35.5991  -10.5592 O   0  0  0  0  0  0  0  0  0  0  0  0
  -14.4683  -36.5352  -11.3134 C   0  0  0  0  0  0  0  0  0  0  0  0
  -13.5617  -36.1871  -12.2760 C   0  0  0  0  0  0  0  0  0  0  0  0
  -12.8637  -37.1545  -13.0111 C   0  0  0  0  0  0  0  0  0  0  0  0
  -13.0876  -38.4878  -12.7668 C   0  0  0  0  0  0  0  0  0  0  0  0
  -13.9967  -38.8541  -11.8010 C   0  0  0  0  0  0  0  0  0  0  0  0
  -14.6827  -37.8752  -11.0797 C   0  0  0  0  0  0  0  0  0  0  0  0
  -12.3697  -39.5631  -13.5319 C   0  0  0  0  0  0  0  0  0  0  0  0
  -13.2956  -40.6863  -13.8893 C   0  0  0  0  0  0  0  0  0  0  0  0
  -11.1931  -40.0771  -12.7306 C   0  0  0  0  0  0  0  0  0  0  0  0
  1  2  1  0
  2  3  1  0
  3  4  1  0
  4  5  2  0
  5  6  1  0
  6  7  2  0
  7  8  1  0
  8  9  2  0
  8 10  1  0
 10 11  2  0
 10 12  1  0
 12 13  1  0
 13 14  1  6
 14 15  1  0
 15 16  2  0
 16 17  1  0
 17 18  2  0
 18 19  1  0
 19 20  2  0
 17 21  1  0
 21 22  1  0
 22 23  1  0
 23 24  1  0
 24 25  1  0
 25 26  1  0
 13 27  1  0
 27 28  1  1
 27 29  1  0
 29 30  1  0
 31 30  1  1
 31 32  1  0
 32 33  1  0
 33 34  1  0
 33 35  1  0
 33 36  1  0
 36 37  1  0
 37 38  2  0
 38 39  1  0
 39 40  2  0
 40 41  1  0
 41 42  2  0
 40 43  1  0
 43 44  1  0
 43 45  1  0
  9  4  1  0
 20 15  1  0
 26  6  1  0
 42 37  1  0
 42 31  1  0
M  END
$$$$
