
     RDKit          3D

 45 49  0  0  0  0  0  0  0  0999 V2000
  -22.4880  -39.8785  -13.3510 C   0  0  0  0  0  0  0  0  0  0  0  0
  -23.0302  -39.9640  -12.0793 O   0  0  0  0  0  0  0  0  0  0  0  0
  -22.7405  -38.8451  -11.3240 C   0  0  0  0  0  0  0  0  0  0  0  0
  -21.9997  -39.2417  -10.1058 C   0  0  0  0  0  0  0  0  0  0  0  0
  -22.6095  -39.3305   -8.8809 C   0  0  0  0  0  0  0  0  0  0  0  0
  -21.9239  -39.7189   -7.7021 C   0  0  0  0  0  0  0  0  0  0  0  0
  -20.5809  -40.0311   -7.7440 C   0  0  0  0  0  0  0  0  0  0  0  0
  -19.9365  -39.9527   -8.9593 C   0  0  0  0  0  0  0  0  0  0  0  0
  -20.6730  -39.5565  -10.1134 C   0  0  0  0  0  0  0  0  0  0  0  0
  -18.5381  -40.2321   -9.3362 C   0  0  0  0  0  0  0  0  0  0  0  0
  -18.3172  -40.7212  -10.5505 O   0  0  0  0  0  0  0  0  0  0  0  0
  -17.2966  -40.0947   -8.6747 N   0  0  0  0  0  0  0  0  0  0  0  0
  -16.9750  -40.6059   -7.3491 C   0  0  1  0  0  0  0  0  0  0  0  0
  -16.9239  -42.1146   -7.2787 C   0  0  0  0  0  0  0  0  0  0  0  0
  -18.2702  -42.7685   -7.1578 C   0  0  0  0  0  0  0  0  0  0  0  0
  -19.1014  -42.8726   -6.0734 C   0  0  0  0  0  0  0  0  0  0  0  0
  -20.3197  -43.5130   -6.2470 C   0  0  0  0  0  0  0  0  0  0  0  0
  -20.6736  -44.0391   -7.5098 C   0  0  0  0  0  0  0  0  0  0  0  0
  -19.8605  -43.9502   -8.6119 C   0  0  0  0  0  0  0  0  0  0  0  0
  -18.6695  -43.3099   -8.4005 C   0  0  0  0  0  0  0  0  0  0  0  0
  -21.3281  -43.7446   -5.3333 O   0  0  0  0  0  0  0  0  0  0  0  0
  -22.1503  -43.0024   -4.5106 C   0  0  0  0  0  0  0  0  0  0  0  0
  -22.8088  -41.8086   -5.1100 C   0  0  0  0  0  0  0  0  0  0  0  0
  -22.4238  -40.5158   -4.4275 C   0  0  0  0  0  0  0  0  0  0  0  0
  -22.7608  -39.2871   -5.2482 C   0  0  0  0  0  0  0  0  0  0  0  0
  -22.8649  -39.7111   -6.6229 N   0  0  0  0  0  0  0  0  0  0  0  0
  -15.6520  -40.0408   -6.8856 C   0  0  2  0  0  0  0  0  0  0  0  0
  -15.7591  -39.4261   -5.6485 O   0  0  0  0  0  0  0  0  0  0  0  0
  -15.1546  -39.0588   -7.9043 C   0  0  0  0  0  0  0  0  0  0  0  0
  -14.8076  -39.7120   -9.1594 N   0  0  0  0  0  0  0  0  0  0  0  0
  -13.6025  -39.0722   -9.6482 C   0  0  1  0  0  0  0  0  0  0  0  0
  -12.5553  -40.1429   -9.8819 C   0  0  0  0  0  0  0  0  0  0  0  0
  -12.9858  -41.1944  -10.8588 C   0  0  0  0  0  0  0  0  0  0  0  0
  -13.5782  -42.4008  -10.2109 C   0  0  0  0  0  0  0  0  0  0  0  0
  -11.7642  -41.6227  -11.6513 C   0  0  0  0  0  0  0  0  0  0  0  0
  -13.9029  -40.6599  -11.8292 O   0  0  0  0  0  0  0  0  0  0  0  0
  -13.9656  -39.2799  -12.0507 C   0  0  0  0  0  0  0  0  0  0  0  0
  -14.1605  -38.7268  -13.2860 C   0  0  0  0  0  0  0  0  0  0  0  0
  -14.2176  -37.3387  -13.4680 C   0  0  0  0  0  0  0  0  0  0  0  0
  -14.0759  -36.5037  -12.3862 C   0  0  0  0  0  0  0  0  0  0  0  0
  -13.8793  -37.0451  -11.1365 C   0  0  0  0  0  0  0  0  0  0  0  0
  -13.8248  -38.4309  -10.9757 C   0  0  0  0  0  0  0  0  0  0  0  0
  -14.1229  -35.0090  -12.5296 C   0  0  0  0  0  0  0  0  0  0  0  0
  -12.8731  -34.3726  -12.0008 C   0  0  0  0  0  0  0  0  0  0  0  0
  -15.3423  -34.4551  -11.8245 C   0  0  0  0  0  0  0  0  0  0  0  0
  1  2  1  0
  2  3  1  0
  3  4  1  0
  4  5  2  0
  5  6  1  0
  6  7  2  0
  7  8  1  0
  8  9  2  0
  8 10  1  0
 10 11  2  0
 10 12  1  0
 12 13  1  0
 13 14  1  6
 14 15  1  0
 15 16  2  0
 16 17  1  0
 17 18  2  0
 18 19  1  0
 19 20  2  0
 17 21  1  0
 21 22  1  0
 22 23  1  0
 23 24  1  0
 24 25  1  0
 25 26  1  0
 13 27  1  0
 27 28  1  1
 27 29  1  0
 29 30  1  0
 31 30  1  6
 31 32  1  0
 32 33  1  0
 33 34  1  0
 33 35  1  0
 33 36  1  0
 36 37  1  0
 37 38  2  0
 38 39  1  0
 39 40  2  0
 40 41  1  0
 41 42  2  0
 40 43  1  0
 43 44  1  0
 43 45  1  0
  9  4  1  0
 20 15  1  0
 26  6  1  0
 42 37  1  0
 42 31  1  0
M  END
$$$$
