
     RDKit          3D

 45 49  0  0  0  0  0  0  0  0999 V2000
  -19.9401  -48.2647   -9.6551 C   0  0  0  0  0  0  0  0  0  0  0  0
  -19.3970  -47.0078   -9.4451 O   0  0  0  0  0  0  0  0  0  0  0  0
  -19.7294  -46.5089   -8.2013 C   0  0  0  0  0  0  0  0  0  0  0  0
  -19.9307  -45.0452   -8.2868 C   0  0  0  0  0  0  0  0  0  0  0  0
  -20.9978  -44.4957   -8.9495 C   0  0  0  0  0  0  0  0  0  0  0  0
  -21.2182  -43.0976   -9.0355 C   0  0  0  0  0  0  0  0  0  0  0  0
  -20.3437  -42.2131   -8.4391 C   0  0  0  0  0  0  0  0  0  0  0  0
  -19.2600  -42.7314   -7.7641 C   0  0  0  0  0  0  0  0  0  0  0  0
  -19.0855  -44.1448   -7.7085 C   0  0  0  0  0  0  0  0  0  0  0  0
  -18.1727  -42.0686   -7.0195 C   0  0  0  0  0  0  0  0  0  0  0  0
  -17.6756  -42.7051   -5.9658 O   0  0  0  0  0  0  0  0  0  0  0  0
  -17.4874  -40.8413   -7.1673 N   0  0  0  0  0  0  0  0  0  0  0  0
  -18.1063  -39.5299   -7.3062 C   0  0  1  0  0  0  0  0  0  0  0  0
  -18.8176  -39.0617   -6.0578 C   0  0  0  0  0  0  0  0  0  0  0  0
  -20.1903  -39.6436   -5.8797 C   0  0  0  0  0  0  0  0  0  0  0  0
  -21.3649  -39.3320   -6.5130 C   0  0  0  0  0  0  0  0  0  0  0  0
  -22.4987  -40.0556   -6.1733 C   0  0  0  0  0  0  0  0  0  0  0  0
  -22.4260  -41.0765   -5.1988 C   0  0  0  0  0  0  0  0  0  0  0  0
  -21.2639  -41.4085   -4.5485 C   0  0  0  0  0  0  0  0  0  0  0  0
  -20.1682  -40.6739   -4.9128 C   0  0  0  0  0  0  0  0  0  0  0  0
  -23.7869  -39.9482   -6.6575 O   0  0  0  0  0  0  0  0  0  0  0  0
  -24.4309  -40.0403   -7.8742 C   0  0  0  0  0  0  0  0  0  0  0  0
  -24.0770  -41.1979   -8.7418 C   0  0  0  0  0  0  0  0  0  0  0  0
  -23.4925  -40.7826  -10.0726 C   0  0  0  0  0  0  0  0  0  0  0  0
  -22.7790  -41.9127  -10.7871 C   0  0  0  0  0  0  0  0  0  0  0  0
  -22.4191  -42.8867   -9.7861 N   0  0  0  0  0  0  0  0  0  0  0  0
  -17.0648  -38.5074   -7.6990 C   0  0  2  0  0  0  0  0  0  0  0  0
  -17.6394  -37.3012   -8.0659 O   0  0  0  0  0  0  0  0  0  0  0  0
  -16.2470  -39.0512   -8.8325 C   0  0  0  0  0  0  0  0  0  0  0  0
  -15.1965  -39.9434   -8.3610 N   0  0  0  0  0  0  0  0  0  0  0  0
  -13.9327  -39.2925   -8.6431 C   0  0  1  0  0  0  0  0  0  0  0  0
  -12.8295  -40.3266   -8.5370 C   0  0  0  0  0  0  0  0  0  0  0  0
  -13.0064  -41.4847   -9.4712 C   0  0  0  0  0  0  0  0  0  0  0  0
  -13.6909  -42.6536   -8.8456 C   0  0  0  0  0  0  0  0  0  0  0  0
  -11.6297  -41.9234   -9.9361 C   0  0  0  0  0  0  0  0  0  0  0  0
  -13.7050  -41.0896  -10.6646 O   0  0  0  0  0  0  0  0  0  0  0  0
  -13.7575  -39.7411  -11.0338 C   0  0  0  0  0  0  0  0  0  0  0  0
  -13.6943  -39.3160  -12.3319 C   0  0  0  0  0  0  0  0  0  0  0  0
  -13.7502  -37.9555  -12.6622 C   0  0  0  0  0  0  0  0  0  0  0  0
  -13.8716  -37.0173  -11.6659 C   0  0  0  0  0  0  0  0  0  0  0  0
  -13.9366  -37.4293  -10.3547 C   0  0  0  0  0  0  0  0  0  0  0  0
  -13.8787  -38.7896  -10.0457 C   0  0  0  0  0  0  0  0  0  0  0  0
  -13.9291  -35.5467  -11.9676 C   0  0  0  0  0  0  0  0  0  0  0  0
  -15.1340  -35.2078  -12.7924 C   0  0  0  0  0  0  0  0  0  0  0  0
  -12.6622  -35.1079  -12.6699 C   0  0  0  0  0  0  0  0  0  0  0  0
  1  2  1  0
  2  3  1  0
  3  4  1  0
  4  5  2  0
  5  6  1  0
  6  7  2  0
  7  8  1  0
  8  9  2  0
  8 10  1  0
 10 11  2  0
 10 12  1  0
 12 13  1  0
 13 14  1  1
 14 15  1  0
 15 16  2  0
 16 17  1  0
 17 18  2  0
 18 19  1  0
 19 20  2  0
 17 21  1  0
 21 22  1  0
 22 23  1  0
 23 24  1  0
 24 25  1  0
 25 26  1  0
 13 27  1  0
 27 28  1  6
 27 29  1  0
 29 30  1  0
 31 30  1  6
 31 32  1  0
 32 33  1  0
 33 34  1  0
 33 35  1  0
 33 36  1  0
 36 37  1  0
 37 38  2  0
 38 39  1  0
 39 40  2  0
 40 41  1  0
 41 42  2  0
 40 43  1  0
 43 44  1  0
 43 45  1  0
  9  4  1  0
 20 15  1  0
 26  6  1  0
 42 37  1  0
 42 31  1  0
M  END
$$$$
