
     RDKit          3D

 45 49  0  0  0  0  0  0  0  0999 V2000
  -22.7340  -35.7517   -9.1332 C   0  0  0  0  0  0  0  0  0  0  0  0
  -22.5880  -37.1289   -9.1064 O   0  0  0  0  0  0  0  0  0  0  0  0
  -22.7718  -37.6376   -7.8361 C   0  0  0  0  0  0  0  0  0  0  0  0
  -21.8339  -38.7589   -7.6055 C   0  0  0  0  0  0  0  0  0  0  0  0
  -22.1062  -39.7623   -6.7117 C   0  0  0  0  0  0  0  0  0  0  0  0
  -21.2290  -40.8523   -6.4817 C   0  0  0  0  0  0  0  0  0  0  0  0
  -20.0359  -40.9475   -7.1676 C   0  0  0  0  0  0  0  0  0  0  0  0
  -19.7305  -39.9559   -8.0743 C   0  0  0  0  0  0  0  0  0  0  0  0
  -20.6477  -38.8822   -8.2668 C   0  0  0  0  0  0  0  0  0  0  0  0
  -18.5663  -39.7778   -8.9624 C   0  0  0  0  0  0  0  0  0  0  0  0
  -18.7751  -39.1934  -10.1360 O   0  0  0  0  0  0  0  0  0  0  0  0
  -17.1937  -40.0984   -8.8582 N   0  0  0  0  0  0  0  0  0  0  0  0
  -16.6463  -41.4018   -8.5066 C   0  0  1  0  0  0  0  0  0  0  0  0
  -16.8850  -42.4614   -9.5573 C   0  0  0  0  0  0  0  0  0  0  0  0
  -18.2559  -43.0722   -9.5115 C   0  0  0  0  0  0  0  0  0  0  0  0
  -18.7772  -43.9956   -8.6436 C   0  0  0  0  0  0  0  0  0  0  0  0
  -20.1018  -44.3714   -8.8122 C   0  0  0  0  0  0  0  0  0  0  0  0
  -20.8732  -43.8114   -9.8554 C   0  0  0  0  0  0  0  0  0  0  0  0
  -20.3768  -42.8862  -10.7392 C   0  0  0  0  0  0  0  0  0  0  0  0
  -19.0680  -42.5401  -10.5384 C   0  0  0  0  0  0  0  0  0  0  0  0
  -20.8608  -45.2649   -8.0834 O   0  0  0  0  0  0  0  0  0  0  0  0
  -21.2708  -45.4272   -6.7760 C   0  0  0  0  0  0  0  0  0  0  0  0
  -21.8075  -44.2246   -6.0805 C   0  0  0  0  0  0  0  0  0  0  0  0
  -21.0038  -43.8398   -4.8594 C   0  0  0  0  0  0  0  0  0  0  0  0
  -21.2881  -42.4303   -4.3806 C   0  0  0  0  0  0  0  0  0  0  0  0
  -21.8324  -41.7037   -5.5013 N   0  0  0  0  0  0  0  0  0  0  0  0
  -15.1621  -41.2844   -8.2461 C   0  0  2  0  0  0  0  0  0  0  0  0
  -14.7812  -41.9813   -7.1108 O   0  0  0  0  0  0  0  0  0  0  0  0
  -14.8028  -39.8354   -8.1025 C   0  0  0  0  0  0  0  0  0  0  0  0
  -15.0549  -39.0923   -9.3298 N   0  0  0  0  0  0  0  0  0  0  0  0
  -15.3609  -37.7297   -8.9422 C   0  0  1  0  0  0  0  0  0  0  0  0
  -14.0760  -36.9260   -8.9698 C   0  0  0  0  0  0  0  0  0  0  0  0
  -13.4066  -36.9183  -10.3104 C   0  0  0  0  0  0  0  0  0  0  0  0
  -12.3514  -37.9633  -10.4538 C   0  0  0  0  0  0  0  0  0  0  0  0
  -12.7664  -35.5558  -10.5040 C   0  0  0  0  0  0  0  0  0  0  0  0
  -14.3674  -37.0437  -11.3733 O   0  0  0  0  0  0  0  0  0  0  0  0
  -15.7134  -36.7396  -11.1428 C   0  0  0  0  0  0  0  0  0  0  0  0
  -16.5124  -36.1256  -12.0671 C   0  0  0  0  0  0  0  0  0  0  0  0
  -17.8571  -35.8373  -11.7991 C   0  0  0  0  0  0  0  0  0  0  0  0
  -18.3964  -36.1755  -10.5816 C   0  0  0  0  0  0  0  0  0  0  0  0
  -17.6052  -36.7941   -9.6409 C   0  0  0  0  0  0  0  0  0  0  0  0
  -16.2673  -37.0724   -9.9268 C   0  0  0  0  0  0  0  0  0  0  0  0
  -19.8304  -35.8822  -10.2432 C   0  0  0  0  0  0  0  0  0  0  0  0
  -20.7615  -36.7882  -10.9909 C   0  0  0  0  0  0  0  0  0  0  0  0
  -20.1496  -34.4318  -10.5353 C   0  0  0  0  0  0  0  0  0  0  0  0
  1  2  1  0
  2  3  1  0
  3  4  1  0
  4  5  2  0
  5  6  1  0
  6  7  2  0
  7  8  1  0
  8  9  2  0
  8 10  1  0
 10 11  2  0
 10 12  1  0
 12 13  1  0
 13 14  1  6
 14 15  1  0
 15 16  2  0
 16 17  1  0
 17 18  2  0
 18 19  1  0
 19 20  2  0
 17 21  1  0
 21 22  1  0
 22 23  1  0
 23 24  1  0
 24 25  1  0
 25 26  1  0
 13 27  1  0
 27 28  1  1
 27 29  1  0
 29 30  1  0
 31 30  1  6
 31 32  1  0
 32 33  1  0
 33 34  1  0
 33 35  1  0
 33 36  1  0
 36 37  1  0
 37 38  2  0
 38 39  1  0
 39 40  2  0
 40 41  1  0
 41 42  2  0
 40 43  1  0
 43 44  1  0
 43 45  1  0
  9  4  1  0
 20 15  1  0
 26  6  1  0
 42 37  1  0
 42 31  1  0
M  END
$$$$
