
     RDKit          3D

 45 49  0  0  0  0  0  0  0  0999 V2000
  -24.4978  -38.6779  -11.7104 C   0  0  0  0  0  0  0  0  0  0  0  0
  -23.9580  -39.9311  -11.4721 O   0  0  0  0  0  0  0  0  0  0  0  0
  -22.5904  -39.9429  -11.6619 C   0  0  0  0  0  0  0  0  0  0  0  0
  -21.9074  -40.1598  -10.3671 C   0  0  0  0  0  0  0  0  0  0  0  0
  -22.6032  -40.3499   -9.2011 C   0  0  0  0  0  0  0  0  0  0  0  0
  -21.9718  -40.5707   -7.9508 C   0  0  0  0  0  0  0  0  0  0  0  0
  -20.5958  -40.6040   -7.8577 C   0  0  0  0  0  0  0  0  0  0  0  0
  -19.8651  -40.4169   -9.0107 C   0  0  0  0  0  0  0  0  0  0  0  0
  -20.5502  -40.1984  -10.2413 C   0  0  0  0  0  0  0  0  0  0  0  0
  -18.4091  -40.4125   -9.2471 C   0  0  0  0  0  0  0  0  0  0  0  0
  -17.9773  -40.8671  -10.4173 O   0  0  0  0  0  0  0  0  0  0  0  0
  -17.2909  -40.0143   -8.4797 N   0  0  0  0  0  0  0  0  0  0  0  0
  -17.0040  -40.4268   -7.1124 C   0  0  1  0  0  0  0  0  0  0  0  0
  -16.6581  -41.8922   -6.9828 C   0  0  0  0  0  0  0  0  0  0  0  0
  -17.8509  -42.8040   -6.9624 C   0  0  0  0  0  0  0  0  0  0  0  0
  -18.7459  -43.0565   -5.9559 C   0  0  0  0  0  0  0  0  0  0  0  0
  -19.7880  -43.9340   -6.2173 C   0  0  0  0  0  0  0  0  0  0  0  0
  -19.9044  -44.5425   -7.4874 C   0  0  0  0  0  0  0  0  0  0  0  0
  -19.0222  -44.3089   -8.5125 C   0  0  0  0  0  0  0  0  0  0  0  0
  -18.0104  -43.4363   -8.2160 C   0  0  0  0  0  0  0  0  0  0  0  0
  -20.8135  -44.3502   -5.3924 O   0  0  0  0  0  0  0  0  0  0  0  0
  -21.8441  -43.7768   -4.6763 C   0  0  0  0  0  0  0  0  0  0  0  0
  -22.6672  -42.7522   -5.3768 C   0  0  0  0  0  0  0  0  0  0  0  0
  -22.6180  -41.3968   -4.7093 C   0  0  0  0  0  0  0  0  0  0  0  0
  -23.1132  -40.2764   -5.6017 C   0  0  0  0  0  0  0  0  0  0  0  0
  -22.9957  -40.7360   -6.9637 N   0  0  0  0  0  0  0  0  0  0  0  0
  -15.8729  -39.5967   -6.5501 C   0  0  2  0  0  0  0  0  0  0  0  0
  -16.1090  -39.2264   -5.2360 O   0  0  0  0  0  0  0  0  0  0  0  0
  -15.6908  -38.3756   -7.4017 C   0  0  0  0  0  0  0  0  0  0  0  0
  -15.7127  -38.6994   -8.8218 N   0  0  0  0  0  0  0  0  0  0  0  0
  -15.4049  -37.4773   -9.5375 C   0  0  1  0  0  0  0  0  0  0  0  0
  -14.0806  -37.6632  -10.2512 C   0  0  0  0  0  0  0  0  0  0  0  0
  -14.0785  -38.8116  -11.2138 C   0  0  0  0  0  0  0  0  0  0  0  0
  -13.5478  -40.0770  -10.6279 C   0  0  0  0  0  0  0  0  0  0  0  0
  -13.2102  -38.4262  -12.3976 C   0  0  0  0  0  0  0  0  0  0  0  0
  -15.3901  -39.0370  -11.7590 O   0  0  0  0  0  0  0  0  0  0  0  0
  -16.3517  -38.0216  -11.7180 C   0  0  0  0  0  0  0  0  0  0  0  0
  -17.2469  -37.7954  -12.7265 C   0  0  0  0  0  0  0  0  0  0  0  0
  -18.1960  -36.7677  -12.6487 C   0  0  0  0  0  0  0  0  0  0  0  0
  -18.2375  -35.9619  -11.5367 C   0  0  0  0  0  0  0  0  0  0  0  0
  -17.3434  -36.1770  -10.5132 C   0  0  0  0  0  0  0  0  0  0  0  0
  -16.4047  -37.2059  -10.6098 C   0  0  0  0  0  0  0  0  0  0  0  0
  -19.2315  -34.8428  -11.4081 C   0  0  0  0  0  0  0  0  0  0  0  0
  -18.6758  -33.5580  -11.9440 C   0  0  0  0  0  0  0  0  0  0  0  0
  -19.6504  -34.6802   -9.9627 C   0  0  0  0  0  0  0  0  0  0  0  0
  1  2  1  0
  2  3  1  0
  3  4  1  0
  4  5  2  0
  5  6  1  0
  6  7  2  0
  7  8  1  0
  8  9  2  0
  8 10  1  0
 10 11  2  0
 10 12  1  0
 12 13  1  0
 13 14  1  6
 14 15  1  0
 15 16  2  0
 16 17  1  0
 17 18  2  0
 18 19  1  0
 19 20  2  0
 17 21  1  0
 21 22  1  0
 22 23  1  0
 23 24  1  0
 24 25  1  0
 25 26  1  0
 13 27  1  0
 27 28  1  1
 27 29  1  0
 29 30  1  0
 31 30  1  6
 31 32  1  0
 32 33  1  0
 33 34  1  0
 33 35  1  0
 33 36  1  0
 36 37  1  0
 37 38  2  0
 38 39  1  0
 39 40  2  0
 40 41  1  0
 41 42  2  0
 40 43  1  0
 43 44  1  0
 43 45  1  0
  9  4  1  0
 20 15  1  0
 26  6  1  0
 42 37  1  0
 42 31  1  0
M  END
$$$$
