
     RDKit          3D

 45 49  0  0  0  0  0  0  0  0999 V2000
  -15.8518  -46.0591  -14.7641 C   0  0  0  0  0  0  0  0  0  0  0  0
  -16.4099  -45.3022  -13.7471 O   0  0  0  0  0  0  0  0  0  0  0  0
  -15.8538  -45.6053  -12.5203 C   0  0  0  0  0  0  0  0  0  0  0  0
  -15.3945  -44.3639  -11.8585 C   0  0  0  0  0  0  0  0  0  0  0  0
  -14.0681  -44.0229  -11.7933 C   0  0  0  0  0  0  0  0  0  0  0  0
  -13.6046  -42.8340  -11.1749 C   0  0  0  0  0  0  0  0  0  0  0  0
  -14.4950  -41.9510  -10.6001 C   0  0  0  0  0  0  0  0  0  0  0  0
  -15.8364  -42.2625  -10.6478 C   0  0  0  0  0  0  0  0  0  0  0  0
  -16.2483  -43.4708  -11.2815 C   0  0  0  0  0  0  0  0  0  0  0  0
  -17.0199  -41.5351  -10.1519 C   0  0  0  0  0  0  0  0  0  0  0  0
  -18.1458  -41.6523  -10.8456 O   0  0  0  0  0  0  0  0  0  0  0  0
  -17.2606  -40.6904   -9.0445 N   0  0  0  0  0  0  0  0  0  0  0  0
  -16.4674  -39.5271   -8.6706 C   0  0  1  0  0  0  0  0  0  0  0  0
  -16.5706  -38.3836   -9.6533 C   0  0  0  0  0  0  0  0  0  0  0  0
  -15.6975  -38.5363  -10.8652 C   0  0  0  0  0  0  0  0  0  0  0  0
  -14.3449  -38.3634  -11.0003 C   0  0  0  0  0  0  0  0  0  0  0  0
  -13.7798  -38.6019  -12.2446 C   0  0  0  0  0  0  0  0  0  0  0  0
  -14.5908  -39.0062  -13.3289 C   0  0  0  0  0  0  0  0  0  0  0  0
  -15.9473  -39.1858  -13.2223 C   0  0  0  0  0  0  0  0  0  0  0  0
  -16.4659  -38.9430  -11.9793 C   0  0  0  0  0  0  0  0  0  0  0  0
  -12.4614  -38.5084  -12.6429 O   0  0  0  0  0  0  0  0  0  0  0  0
  -11.2478  -39.0641  -12.2935 C   0  0  0  0  0  0  0  0  0  0  0  0
  -11.2081  -40.5411  -12.1063 C   0  0  0  0  0  0  0  0  0  0  0  0
  -10.8052  -40.9493  -10.7076 C   0  0  0  0  0  0  0  0  0  0  0  0
  -11.1344  -42.3946  -10.3922 C   0  0  0  0  0  0  0  0  0  0  0  0
  -12.1788  -42.7994  -11.3007 N   0  0  0  0  0  0  0  0  0  0  0  0
  -16.8773  -39.0431   -7.2987 C   0  0  2  0  0  0  0  0  0  0  0  0
  -15.7862  -38.8912   -6.4584 O   0  0  0  0  0  0  0  0  0  0  0  0
  -17.8494  -40.0188   -6.7049 C   0  0  0  0  0  0  0  0  0  0  0  0
  -19.0144  -40.2076   -7.5587 N   0  0  0  0  0  0  0  0  0  0  0  0
  -19.9947  -39.2176   -7.1592 C   0  0  1  0  0  0  0  0  0  0  0  0
  -20.8504  -38.8804   -8.3641 C   0  0  0  0  0  0  0  0  0  0  0  0
  -21.5574  -40.0676   -8.9439 C   0  0  0  0  0  0  0  0  0  0  0  0
  -20.8216  -40.7029  -10.0758 C   0  0  0  0  0  0  0  0  0  0  0  0
  -22.9115  -39.6032   -9.4483 C   0  0  0  0  0  0  0  0  0  0  0  0
  -21.8422  -41.0496   -7.9326 O   0  0  0  0  0  0  0  0  0  0  0  0
  -21.8562  -40.6836   -6.5823 C   0  0  0  0  0  0  0  0  0  0  0  0
  -22.7419  -41.1964   -5.6755 C   0  0  0  0  0  0  0  0  0  0  0  0
  -22.7246  -40.8047   -4.3303 C   0  0  0  0  0  0  0  0  0  0  0  0
  -21.7995  -39.8841   -3.9010 C   0  0  0  0  0  0  0  0  0  0  0  0
  -20.9013  -39.3590   -4.8015 C   0  0  0  0  0  0  0  0  0  0  0  0
  -20.9350  -39.7615   -6.1379 C   0  0  0  0  0  0  0  0  0  0  0  0
  -21.7441  -39.4269   -2.4711 C   0  0  0  0  0  0  0  0  0  0  0  0
  -20.9223  -40.3598   -1.6336 C   0  0  0  0  0  0  0  0  0  0  0  0
  -23.1436  -39.2993   -1.9091 C   0  0  0  0  0  0  0  0  0  0  0  0
  1  2  1  0
  2  3  1  0
  3  4  1  0
  4  5  2  0
  5  6  1  0
  6  7  2  0
  7  8  1  0
  8  9  2  0
  8 10  1  0
 10 11  2  0
 10 12  1  0
 12 13  1  0
 13 14  1  6
 14 15  1  0
 15 16  2  0
 16 17  1  0
 17 18  2  0
 18 19  1  0
 19 20  2  0
 17 21  1  0
 21 22  1  0
 22 23  1  0
 23 24  1  0
 24 25  1  0
 25 26  1  0
 13 27  1  0
 27 28  1  1
 27 29  1  0
 29 30  1  0
 31 30  1  6
 31 32  1  0
 32 33  1  0
 33 34  1  0
 33 35  1  0
 33 36  1  0
 36 37  1  0
 37 38  2  0
 38 39  1  0
 39 40  2  0
 40 41  1  0
 41 42  2  0
 40 43  1  0
 43 44  1  0
 43 45  1  0
  9  4  1  0
 20 15  1  0
 26  6  1  0
 42 37  1  0
 42 31  1  0
M  END
$$$$
