
     RDKit          3D

 45 49  0  0  0  0  0  0  0  0999 V2000
  -19.8723  -47.6759   -8.6200 C   0  0  0  0  0  0  0  0  0  0  0  0
  -19.2991  -47.1189   -7.4887 O   0  0  0  0  0  0  0  0  0  0  0  0
  -20.2284  -46.4384   -6.7273 C   0  0  0  0  0  0  0  0  0  0  0  0
  -20.3026  -45.0283   -7.1705 C   0  0  0  0  0  0  0  0  0  0  0  0
  -21.3114  -44.5729   -7.9797 C   0  0  0  0  0  0  0  0  0  0  0  0
  -21.4101  -43.2248   -8.4082 C   0  0  0  0  0  0  0  0  0  0  0  0
  -20.4696  -42.2950   -8.0162 C   0  0  0  0  0  0  0  0  0  0  0  0
  -19.4418  -42.7186   -7.2022 C   0  0  0  0  0  0  0  0  0  0  0  0
  -19.3897  -44.0852   -6.8009 C   0  0  0  0  0  0  0  0  0  0  0  0
  -18.3100  -41.9841   -6.6062 C   0  0  0  0  0  0  0  0  0  0  0  0
  -17.8808  -42.3825   -5.4147 O   0  0  0  0  0  0  0  0  0  0  0  0
  -17.5204  -40.8891   -7.0249 N   0  0  0  0  0  0  0  0  0  0  0  0
  -18.0230  -39.6057   -7.4962 C   0  0  1  0  0  0  0  0  0  0  0  0
  -18.7052  -38.7916   -6.4211 C   0  0  0  0  0  0  0  0  0  0  0  0
  -20.1246  -39.2001   -6.1509 C   0  0  0  0  0  0  0  0  0  0  0  0
  -21.2612  -38.9588   -6.8773 C   0  0  0  0  0  0  0  0  0  0  0  0
  -22.4564  -39.4842   -6.4085 C   0  0  0  0  0  0  0  0  0  0  0  0
  -22.4822  -40.2392   -5.2143 C   0  0  0  0  0  0  0  0  0  0  0  0
  -21.3600  -40.4952   -4.4667 C   0  0  0  0  0  0  0  0  0  0  0  0
  -20.2015  -39.9621   -4.9632 C   0  0  0  0  0  0  0  0  0  0  0  0
  -23.7253  -39.3947   -6.9446 O   0  0  0  0  0  0  0  0  0  0  0  0
  -24.3615  -39.7284   -8.1226 C   0  0  0  0  0  0  0  0  0  0  0  0
  -24.0987  -41.0871   -8.6728 C   0  0  0  0  0  0  0  0  0  0  0  0
  -23.4662  -41.0570  -10.0455 C   0  0  0  0  0  0  0  0  0  0  0  0
  -22.8444  -42.3808  -10.4426 C   0  0  0  0  0  0  0  0  0  0  0  0
  -22.5803  -43.1072   -9.2249 N   0  0  0  0  0  0  0  0  0  0  0  0
  -16.8935  -38.7969   -8.0917 C   0  0  2  0  0  0  0  0  0  0  0  0
  -17.3382  -37.5876   -8.6012 O   0  0  0  0  0  0  0  0  0  0  0  0
  -16.2349  -39.5982   -9.1750 C   0  0  0  0  0  0  0  0  0  0  0  0
  -15.0141  -40.2397   -8.7058 N   0  0  0  0  0  0  0  0  0  0  0  0
  -13.9773  -39.2270   -8.7103 C   0  0  1  0  0  0  0  0  0  0  0  0
  -12.6939  -39.8561   -8.2058 C   0  0  0  0  0  0  0  0  0  0  0  0
  -12.2422  -41.0271   -9.0244 C   0  0  0  0  0  0  0  0  0  0  0  0
  -12.6946  -42.3413   -8.4819 C   0  0  0  0  0  0  0  0  0  0  0  0
  -10.7248  -41.0150   -9.0580 C   0  0  0  0  0  0  0  0  0  0  0  0
  -12.6560  -40.8950  -10.3955 O   0  0  0  0  0  0  0  0  0  0  0  0
  -13.0016  -39.6394  -10.9069 C   0  0  0  0  0  0  0  0  0  0  0  0
  -12.7008  -39.2394  -12.1794 C   0  0  0  0  0  0  0  0  0  0  0  0
  -13.0641  -37.9728  -12.6558 C   0  0  0  0  0  0  0  0  0  0  0  0
  -13.7394  -37.1039  -11.8334 C   0  0  0  0  0  0  0  0  0  0  0  0
  -14.0495  -37.4918  -10.5501 C   0  0  0  0  0  0  0  0  0  0  0  0
  -13.6783  -38.7579  -10.0937 C   0  0  0  0  0  0  0  0  0  0  0  0
  -14.1454  -35.7329  -12.2945 C   0  0  0  0  0  0  0  0  0  0  0  0
  -15.5886  -35.7004  -12.6979 C   0  0  0  0  0  0  0  0  0  0  0  0
  -13.2622  -35.2843  -13.4388 C   0  0  0  0  0  0  0  0  0  0  0  0
  1  2  1  0
  2  3  1  0
  3  4  1  0
  4  5  2  0
  5  6  1  0
  6  7  2  0
  7  8  1  0
  8  9  2  0
  8 10  1  0
 10 11  2  0
 10 12  1  0
 12 13  1  0
 13 14  1  1
 14 15  1  0
 15 16  2  0
 16 17  1  0
 17 18  2  0
 18 19  1  0
 19 20  2  0
 17 21  1  0
 21 22  1  0
 22 23  1  0
 23 24  1  0
 24 25  1  0
 25 26  1  0
 13 27  1  0
 27 28  1  6
 27 29  1  0
 29 30  1  0
 31 30  1  6
 31 32  1  0
 32 33  1  0
 33 34  1  0
 33 35  1  0
 33 36  1  0
 36 37  1  0
 37 38  2  0
 38 39  1  0
 39 40  2  0
 40 41  1  0
 41 42  2  0
 40 43  1  0
 43 44  1  0
 43 45  1  0
  9  4  1  0
 20 15  1  0
 26  6  1  0
 42 37  1  0
 42 31  1  0
M  END
$$$$
