
     RDKit          3D

 45 49  0  0  0  0  0  0  0  0999 V2000
  -21.4962  -39.8576  -13.9113 C   0  0  0  0  0  0  0  0  0  0  0  0
  -20.9334  -41.0883  -13.6159 O   0  0  0  0  0  0  0  0  0  0  0  0
  -21.6278  -41.7412  -12.6169 C   0  0  0  0  0  0  0  0  0  0  0  0
  -21.1951  -41.2365  -11.2947 C   0  0  0  0  0  0  0  0  0  0  0  0
  -21.9965  -40.4327  -10.5256 C   0  0  0  0  0  0  0  0  0  0  0  0
  -21.6089  -39.9461   -9.2514 C   0  0  0  0  0  0  0  0  0  0  0  0
  -20.3773  -40.2722   -8.7226 C   0  0  0  0  0  0  0  0  0  0  0  0
  -19.5462  -41.0789   -9.4690 C   0  0  0  0  0  0  0  0  0  0  0  0
  -19.9852  -41.5403  -10.7440 C   0  0  0  0  0  0  0  0  0  0  0  0
  -18.2008  -41.6128   -9.1855 C   0  0  0  0  0  0  0  0  0  0  0  0
  -17.9015  -42.8101   -9.6747 O   0  0  0  0  0  0  0  0  0  0  0  0
  -17.0807  -41.1256   -8.4742 N   0  0  0  0  0  0  0  0  0  0  0  0
  -17.0938  -40.6091   -7.1121 C   0  0  1  0  0  0  0  0  0  0  0  0
  -17.3850  -41.6628   -6.0686 C   0  0  0  0  0  0  0  0  0  0  0  0
  -18.8431  -41.9863   -5.9146 C   0  0  0  0  0  0  0  0  0  0  0  0
  -19.8388  -41.2780   -5.2944 C   0  0  0  0  0  0  0  0  0  0  0  0
  -21.1240  -41.7995   -5.3252 C   0  0  0  0  0  0  0  0  0  0  0  0
  -21.3785  -43.0270   -5.9774 C   0  0  0  0  0  0  0  0  0  0  0  0
  -20.4007  -43.7574   -6.6051 C   0  0  0  0  0  0  0  0  0  0  0  0
  -19.1480  -43.2088   -6.5546 C   0  0  0  0  0  0  0  0  0  0  0  0
  -22.2909  -41.2914   -4.7908 O   0  0  0  0  0  0  0  0  0  0  0  0
  -23.0516  -40.1459   -4.9044 C   0  0  0  0  0  0  0  0  0  0  0  0
  -23.3295  -39.6514   -6.2815 C   0  0  0  0  0  0  0  0  0  0  0  0
  -22.7855  -38.2636   -6.5325 C   0  0  0  0  0  0  0  0  0  0  0  0
  -22.7111  -37.9116   -8.0047 C   0  0  0  0  0  0  0  0  0  0  0  0
  -22.6850  -39.1540   -8.7367 N   0  0  0  0  0  0  0  0  0  0  0  0
  -15.7704  -39.9499   -6.7981 C   0  0  2  0  0  0  0  0  0  0  0  0
  -15.8590  -39.1152   -5.6958 O   0  0  0  0  0  0  0  0  0  0  0  0
  -15.3147  -39.1704   -7.9957 C   0  0  0  0  0  0  0  0  0  0  0  0
  -14.7290  -40.0347   -9.0116 N   0  0  0  0  0  0  0  0  0  0  0  0
  -13.3475  -39.6250   -9.1678 C   0  0  1  0  0  0  0  0  0  0  0  0
  -12.5138  -40.8583   -9.4534 C   0  0  0  0  0  0  0  0  0  0  0  0
  -12.9490  -41.6010  -10.6798 C   0  0  0  0  0  0  0  0  0  0  0  0
  -13.8882  -42.7241  -10.3924 C   0  0  0  0  0  0  0  0  0  0  0  0
  -11.7087  -42.1674  -11.3467 C   0  0  0  0  0  0  0  0  0  0  0  0
  -13.5315  -40.7116  -11.6484 O   0  0  0  0  0  0  0  0  0  0  0  0
  -13.2691  -39.3387  -11.5884 C   0  0  0  0  0  0  0  0  0  0  0  0
  -13.1030  -38.5578  -12.6984 C   0  0  0  0  0  0  0  0  0  0  0  0
  -12.8412  -37.1850  -12.5977 C   0  0  0  0  0  0  0  0  0  0  0  0
  -12.7474  -36.5988  -11.3587 C   0  0  0  0  0  0  0  0  0  0  0  0
  -12.9123  -37.3714  -10.2320 C   0  0  0  0  0  0  0  0  0  0  0  0
  -13.1719  -38.7378  -10.3532 C   0  0  0  0  0  0  0  0  0  0  0  0
  -12.4620  -35.1328  -11.1972 C   0  0  0  0  0  0  0  0  0  0  0  0
  -13.0192  -34.3413  -12.3417 C   0  0  0  0  0  0  0  0  0  0  0  0
  -10.9719  -34.9024  -11.0657 C   0  0  0  0  0  0  0  0  0  0  0  0
  1  2  1  0
  2  3  1  0
  3  4  1  0
  4  5  2  0
  5  6  1  0
  6  7  2  0
  7  8  1  0
  8  9  2  0
  8 10  1  0
 10 11  2  0
 10 12  1  0
 12 13  1  0
 13 14  1  1
 14 15  1  0
 15 16  2  0
 16 17  1  0
 17 18  2  0
 18 19  1  0
 19 20  2  0
 17 21  1  0
 21 22  1  0
 22 23  1  0
 23 24  1  0
 24 25  1  0
 25 26  1  0
 13 27  1  0
 27 28  1  1
 27 29  1  0
 29 30  1  0
 31 30  1  6
 31 32  1  0
 32 33  1  0
 33 34  1  0
 33 35  1  0
 33 36  1  0
 36 37  1  0
 37 38  2  0
 38 39  1  0
 39 40  2  0
 40 41  1  0
 41 42  2  0
 40 43  1  0
 43 44  1  0
 43 45  1  0
  9  4  1  0
 20 15  1  0
 26  6  1  0
 42 37  1  0
 42 31  1  0
M  END
$$$$
