
     RDKit          3D

 45 49  0  0  0  0  0  0  0  0999 V2000
  -24.1035  -41.4888   -5.1172 C   0  0  0  0  0  0  0  0  0  0  0  0
  -23.5937  -42.7766   -5.1363 O   0  0  0  0  0  0  0  0  0  0  0  0
  -23.4766  -43.2608   -6.4240 C   0  0  0  0  0  0  0  0  0  0  0  0
  -22.0668  -43.6181   -6.6981 C   0  0  0  0  0  0  0  0  0  0  0  0
  -21.5419  -44.8328   -6.3392 C   0  0  0  0  0  0  0  0  0  0  0  0
  -20.1982  -45.2024   -6.6008 C   0  0  0  0  0  0  0  0  0  0  0  0
  -19.3449  -44.3302   -7.2443 C   0  0  0  0  0  0  0  0  0  0  0  0
  -19.8398  -43.1003   -7.6195 C   0  0  0  0  0  0  0  0  0  0  0  0
  -21.1984  -42.7794   -7.3319 C   0  0  0  0  0  0  0  0  0  0  0  0
  -19.2033  -41.9720   -8.3250 C   0  0  0  0  0  0  0  0  0  0  0  0
  -19.9689  -41.2398   -9.1251 O   0  0  0  0  0  0  0  0  0  0  0  0
  -17.8910  -41.4477   -8.3557 N   0  0  0  0  0  0  0  0  0  0  0  0
  -16.6741  -42.2084   -8.6057 C   0  0  1  0  0  0  0  0  0  0  0  0
  -16.5703  -42.7364  -10.0179 C   0  0  0  0  0  0  0  0  0  0  0  0
  -17.3551  -43.9931  -10.2615 C   0  0  0  0  0  0  0  0  0  0  0  0
  -17.0814  -45.2844   -9.8937 C   0  0  0  0  0  0  0  0  0  0  0  0
  -18.0045  -46.2650  -10.2263 C   0  0  0  0  0  0  0  0  0  0  0  0
  -19.1836  -45.9242  -10.9267 C   0  0  0  0  0  0  0  0  0  0  0  0
  -19.4824  -44.6402  -11.3083 C   0  0  0  0  0  0  0  0  0  0  0  0
  -18.5487  -43.7022  -10.9600 C   0  0  0  0  0  0  0  0  0  0  0  0
  -17.9743  -47.6217   -9.9733 O   0  0  0  0  0  0  0  0  0  0  0  0
  -17.9017  -48.4537   -8.8751 C   0  0  0  0  0  0  0  0  0  0  0  0
  -18.7996  -48.1418   -7.7286 C   0  0  0  0  0  0  0  0  0  0  0  0
  -18.0467  -47.8400   -6.4529 C   0  0  0  0  0  0  0  0  0  0  0  0
  -18.9010  -47.1519   -5.4072 C   0  0  0  0  0  0  0  0  0  0  0  0
  -20.0016  -46.5298   -6.1013 N   0  0  0  0  0  0  0  0  0  0  0  0
  -15.4626  -41.3571   -8.3022 C   0  0  2  0  0  0  0  0  0  0  0  0
  -14.5747  -42.0059   -7.4594 O   0  0  0  0  0  0  0  0  0  0  0  0
  -15.9122  -40.0690   -7.6793 C   0  0  0  0  0  0  0  0  0  0  0  0
  -16.4441  -39.1456   -8.6726 N   0  0  0  0  0  0  0  0  0  0  0  0
  -16.9195  -37.9807   -7.9531 C   0  0  1  0  0  0  0  0  0  0  0  0
  -16.3057  -36.7469   -8.5845 C   0  0  0  0  0  0  0  0  0  0  0  0
  -16.6341  -36.5956  -10.0387 C   0  0  0  0  0  0  0  0  0  0  0  0
  -15.5905  -37.1572  -10.9451 C   0  0  0  0  0  0  0  0  0  0  0  0
  -16.7815  -35.1137  -10.3317 C   0  0  0  0  0  0  0  0  0  0  0  0
  -17.9137  -37.1755  -10.3471 O   0  0  0  0  0  0  0  0  0  0  0  0
  -18.8470  -37.3990   -9.3291 C   0  0  0  0  0  0  0  0  0  0  0  0
  -20.1932  -37.2256   -9.4947 C   0  0  0  0  0  0  0  0  0  0  0  0
  -21.0974  -37.4600   -8.4504 C   0  0  0  0  0  0  0  0  0  0  0  0
  -20.6313  -37.8746   -7.2263 C   0  0  0  0  0  0  0  0  0  0  0  0
  -19.2793  -38.0538   -7.0439 C   0  0  0  0  0  0  0  0  0  0  0  0
  -18.3942  -37.8145   -8.0968 C   0  0  0  0  0  0  0  0  0  0  0  0
  -21.5591  -38.1329   -6.0733 C   0  0  0  0  0  0  0  0  0  0  0  0
  -21.2528  -37.2303   -4.9165 C   0  0  0  0  0  0  0  0  0  0  0  0
  -21.4772  -39.5845   -5.6525 C   0  0  0  0  0  0  0  0  0  0  0  0
  1  2  1  0
  2  3  1  0
  3  4  1  0
  4  5  2  0
  5  6  1  0
  6  7  2  0
  7  8  1  0
  8  9  2  0
  8 10  1  0
 10 11  2  0
 10 12  1  0
 12 13  1  0
 13 14  1  6
 14 15  1  0
 15 16  2  0
 16 17  1  0
 17 18  2  0
 18 19  1  0
 19 20  2  0
 17 21  1  0
 21 22  1  0
 22 23  1  0
 23 24  1  0
 24 25  1  0
 25 26  1  0
 13 27  1  0
 27 28  1  1
 27 29  1  0
 29 30  1  0
 31 30  1  6
 31 32  1  0
 32 33  1  0
 33 34  1  0
 33 35  1  0
 33 36  1  0
 36 37  1  0
 37 38  2  0
 38 39  1  0
 39 40  2  0
 40 41  1  0
 41 42  2  0
 40 43  1  0
 43 44  1  0
 43 45  1  0
  9  4  1  0
 20 15  1  0
 26  6  1  0
 42 37  1  0
 42 31  1  0
M  END
$$$$
