
     RDKit          3D

 45 49  0  0  0  0  0  0  0  0999 V2000
  -18.6832  -47.7302   -5.2116 C   0  0  0  0  0  0  0  0  0  0  0  0
  -18.8599  -47.0168   -6.3858 O   0  0  0  0  0  0  0  0  0  0  0  0
  -20.1801  -46.6584   -6.5723 C   0  0  0  0  0  0  0  0  0  0  0  0
  -20.2570  -45.2556   -7.0373 C   0  0  0  0  0  0  0  0  0  0  0  0
  -21.2645  -44.8156   -7.8566 C   0  0  0  0  0  0  0  0  0  0  0  0
  -21.3658  -43.4746   -8.3061 C   0  0  0  0  0  0  0  0  0  0  0  0
  -20.4293  -42.5360   -7.9254 C   0  0  0  0  0  0  0  0  0  0  0  0
  -19.4029  -42.9441   -7.1017 C   0  0  0  0  0  0  0  0  0  0  0  0
  -19.3481  -44.3042   -6.6793 C   0  0  0  0  0  0  0  0  0  0  0  0
  -18.2751  -42.1972   -6.5134 C   0  0  0  0  0  0  0  0  0  0  0  0
  -17.8486  -42.5760   -5.3146 O   0  0  0  0  0  0  0  0  0  0  0  0
  -17.4874  -41.1064   -6.9463 N   0  0  0  0  0  0  0  0  0  0  0  0
  -17.9922  -39.8318   -7.4389 C   0  0  1  0  0  0  0  0  0  0  0  0
  -18.6803  -39.0034   -6.3786 C   0  0  0  0  0  0  0  0  0  0  0  0
  -20.0993  -39.4119   -6.1067 C   0  0  0  0  0  0  0  0  0  0  0  0
  -21.2342  -39.1852   -6.8404 C   0  0  0  0  0  0  0  0  0  0  0  0
  -22.4295  -39.7068   -6.3674 C   0  0  0  0  0  0  0  0  0  0  0  0
  -22.4569  -40.4435   -5.1618 C   0  0  0  0  0  0  0  0  0  0  0  0
  -21.3364  -40.6847   -4.4068 C   0  0  0  0  0  0  0  0  0  0  0  0
  -20.1778  -40.1558   -4.9077 C   0  0  0  0  0  0  0  0  0  0  0  0
  -23.6969  -39.6293   -6.9089 O   0  0  0  0  0  0  0  0  0  0  0  0
  -24.3283  -39.9829   -8.0836 C   0  0  0  0  0  0  0  0  0  0  0  0
  -24.0597  -41.3491   -8.6121 C   0  0  0  0  0  0  0  0  0  0  0  0
  -23.4228  -41.3382   -9.9830 C   0  0  0  0  0  0  0  0  0  0  0  0
  -22.7959  -42.6661  -10.3578 C   0  0  0  0  0  0  0  0  0  0  0  0
  -22.5336  -43.3730   -9.1283 N   0  0  0  0  0  0  0  0  0  0  0  0
  -16.8631  -39.0289   -8.0431 C   0  0  2  0  0  0  0  0  0  0  0  0
  -17.2788  -37.7650   -8.4298 O   0  0  0  0  0  0  0  0  0  0  0  0
  -16.3116  -39.7706   -9.2242 C   0  0  0  0  0  0  0  0  0  0  0  0
  -15.0895  -40.4886   -8.8883 N   0  0  0  0  0  0  0  0  0  0  0  0
  -14.0360  -39.4992   -8.7791 C   0  0  1  0  0  0  0  0  0  0  0  0
  -12.7184  -40.2244   -8.5903 C   0  0  0  0  0  0  0  0  0  0  0  0
  -12.3929  -41.1694   -9.7068 C   0  0  0  0  0  0  0  0  0  0  0  0
  -12.8112  -42.5757   -9.4360 C   0  0  0  0  0  0  0  0  0  0  0  0
  -10.8897  -41.1443   -9.9156 C   0  0  0  0  0  0  0  0  0  0  0  0
  -12.9592  -40.7211  -10.9506 O   0  0  0  0  0  0  0  0  0  0  0  0
  -13.3311  -39.3820  -11.1107 C   0  0  0  0  0  0  0  0  0  0  0  0
  -13.1699  -38.6938  -12.2813 C   0  0  0  0  0  0  0  0  0  0  0  0
  -13.5551  -37.3522  -12.4030 C   0  0  0  0  0  0  0  0  0  0  0  0
  -14.1095  -36.7026  -11.3268 C   0  0  0  0  0  0  0  0  0  0  0  0
  -14.2785  -37.3816  -10.1420 C   0  0  0  0  0  0  0  0  0  0  0  0
  -13.8877  -38.7180  -10.0404 C   0  0  0  0  0  0  0  0  0  0  0  0
  -14.5328  -35.2632  -11.4044 C   0  0  0  0  0  0  0  0  0  0  0  0
  -15.8958  -35.1296  -12.0136 C   0  0  0  0  0  0  0  0  0  0  0  0
  -13.5172  -34.4621  -12.1903 C   0  0  0  0  0  0  0  0  0  0  0  0
  1  2  1  0
  2  3  1  0
  3  4  1  0
  4  5  2  0
  5  6  1  0
  6  7  2  0
  7  8  1  0
  8  9  2  0
  8 10  1  0
 10 11  2  0
 10 12  1  0
 12 13  1  0
 13 14  1  1
 14 15  1  0
 15 16  2  0
 16 17  1  0
 17 18  2  0
 18 19  1  0
 19 20  2  0
 17 21  1  0
 21 22  1  0
 22 23  1  0
 23 24  1  0
 24 25  1  0
 25 26  1  0
 13 27  1  0
 27 28  1  6
 27 29  1  0
 29 30  1  0
 31 30  1  6
 31 32  1  0
 32 33  1  0
 33 34  1  0
 33 35  1  0
 33 36  1  0
 36 37  1  0
 37 38  2  0
 38 39  1  0
 39 40  2  0
 40 41  1  0
 41 42  2  0
 40 43  1  0
 43 44  1  0
 43 45  1  0
  9  4  1  0
 20 15  1  0
 26  6  1  0
 42 37  1  0
 42 31  1  0
M  END
$$$$
