
     RDKit          3D

 45 49  0  0  0  0  0  0  0  0999 V2000
  -23.6846  -40.5591   -3.2425 C   0  0  0  0  0  0  0  0  0  0  0  0
  -23.1037  -41.1488   -4.3532 O   0  0  0  0  0  0  0  0  0  0  0  0
  -22.0621  -41.9843   -4.0021 C   0  0  0  0  0  0  0  0  0  0  0  0
  -21.4698  -42.5840   -5.2185 C   0  0  0  0  0  0  0  0  0  0  0  0
  -21.5685  -43.9243   -5.4902 C   0  0  0  0  0  0  0  0  0  0  0  0
  -21.0194  -44.5201   -6.6538 C   0  0  0  0  0  0  0  0  0  0  0  0
  -20.3470  -43.7528   -7.5824 C   0  0  0  0  0  0  0  0  0  0  0  0
  -20.2293  -42.4014   -7.3409 C   0  0  0  0  0  0  0  0  0  0  0  0
  -20.7998  -41.8538   -6.1552 C   0  0  0  0  0  0  0  0  0  0  0  0
  -19.5985  -41.3259   -8.1292 C   0  0  0  0  0  0  0  0  0  0  0  0
  -20.1496  -40.1196   -8.0702 O   0  0  0  0  0  0  0  0  0  0  0  0
  -18.4762  -41.2655   -8.9862 N   0  0  0  0  0  0  0  0  0  0  0  0
  -18.2096  -42.1571  -10.1069 C   0  0  1  0  0  0  0  0  0  0  0  0
  -19.1805  -41.9942  -11.2535 C   0  0  0  0  0  0  0  0  0  0  0  0
  -20.4884  -42.7044  -11.0548 C   0  0  0  0  0  0  0  0  0  0  0  0
  -20.7879  -44.0377  -11.1570 C   0  0  0  0  0  0  0  0  0  0  0  0
  -22.0898  -44.4342  -10.8886 C   0  0  0  0  0  0  0  0  0  0  0  0
  -23.0648  -43.4777  -10.5261 C   0  0  0  0  0  0  0  0  0  0  0  0
  -22.7930  -42.1367  -10.4173 C   0  0  0  0  0  0  0  0  0  0  0  0
  -21.4980  -41.7863  -10.6877 C   0  0  0  0  0  0  0  0  0  0  0  0
  -22.6459  -45.6974  -10.9130 O   0  0  0  0  0  0  0  0  0  0  0  0
  -22.4425  -46.9143  -10.2953 C   0  0  0  0  0  0  0  0  0  0  0  0
  -22.2510  -46.9004   -8.8184 C   0  0  0  0  0  0  0  0  0  0  0  0
  -20.9088  -47.4488   -8.3909 C   0  0  0  0  0  0  0  0  0  0  0  0
  -20.5455  -47.0865   -6.9649 C   0  0  0  0  0  0  0  0  0  0  0  0
  -21.3176  -45.9199   -6.6142 N   0  0  0  0  0  0  0  0  0  0  0  0
  -16.8015  -41.9425  -10.6126 C   0  0  2  0  0  0  0  0  0  0  0  0
  -16.1681  -43.1413  -10.8982 O   0  0  0  0  0  0  0  0  0  0  0  0
  -16.0206  -41.1834   -9.5814 C   0  0  0  0  0  0  0  0  0  0  0  0
  -16.0780  -39.7460   -9.8109 N   0  0  0  0  0  0  0  0  0  0  0  0
  -16.2961  -39.1218   -8.5211 C   0  0  1  0  0  0  0  0  0  0  0  0
  -15.1867  -38.1165   -8.2841 C   0  0  0  0  0  0  0  0  0  0  0  0
  -15.1096  -37.0546   -9.3385 C   0  0  0  0  0  0  0  0  0  0  0  0
  -14.1305  -37.3625  -10.4215 C   0  0  0  0  0  0  0  0  0  0  0  0
  -14.6939  -35.7590   -8.6659 C   0  0  0  0  0  0  0  0  0  0  0  0
  -16.4034  -36.7914   -9.9088 O   0  0  0  0  0  0  0  0  0  0  0  0
  -17.5632  -37.1580   -9.2175 C   0  0  0  0  0  0  0  0  0  0  0  0
  -18.7043  -36.4046   -9.2147 C   0  0  0  0  0  0  0  0  0  0  0  0
  -19.8469  -36.8054   -8.5098 C   0  0  0  0  0  0  0  0  0  0  0  0
  -19.8317  -37.9823   -7.8011 C   0  0  0  0  0  0  0  0  0  0  0  0
  -18.6910  -38.7518   -7.7943 C   0  0  0  0  0  0  0  0  0  0  0  0
  -17.5624  -38.3349   -8.5025 C   0  0  0  0  0  0  0  0  0  0  0  0
  -21.0283  -38.4526   -7.0240 C   0  0  0  0  0  0  0  0  0  0  0  0
  -22.2993  -38.1992   -7.7770 C   0  0  0  0  0  0  0  0  0  0  0  0
  -21.0685  -37.7793   -5.6691 C   0  0  0  0  0  0  0  0  0  0  0  0
  1  2  1  0
  2  3  1  0
  3  4  1  0
  4  5  2  0
  5  6  1  0
  6  7  2  0
  7  8  1  0
  8  9  2  0
  8 10  1  0
 10 11  2  0
 10 12  1  0
 12 13  1  0
 13 14  1  6
 14 15  1  0
 15 16  2  0
 16 17  1  0
 17 18  2  0
 18 19  1  0
 19 20  2  0
 17 21  1  0
 21 22  1  0
 22 23  1  0
 23 24  1  0
 24 25  1  0
 25 26  1  0
 13 27  1  0
 27 28  1  1
 27 29  1  0
 29 30  1  0
 31 30  1  6
 31 32  1  0
 32 33  1  0
 33 34  1  0
 33 35  1  0
 33 36  1  0
 36 37  1  0
 37 38  2  0
 38 39  1  0
 39 40  2  0
 40 41  1  0
 41 42  2  0
 40 43  1  0
 43 44  1  0
 43 45  1  0
  9  4  1  0
 20 15  1  0
 26  6  1  0
 42 37  1  0
 42 31  1  0
M  END
$$$$
