
     RDKit          3D

 45 49  0  0  0  0  0  0  0  0999 V2000
  -18.0062  -46.9203   -9.7778 C   0  0  0  0  0  0  0  0  0  0  0  0
  -17.8219  -46.3825   -8.5147 O   0  0  0  0  0  0  0  0  0  0  0  0
  -19.0202  -46.0126   -7.9370 C   0  0  0  0  0  0  0  0  0  0  0  0
  -19.2440  -44.5630   -8.1335 C   0  0  0  0  0  0  0  0  0  0  0  0
  -20.2321  -44.0849   -8.9551 C   0  0  0  0  0  0  0  0  0  0  0  0
  -20.4732  -42.7013   -9.1507 C   0  0  0  0  0  0  0  0  0  0  0  0
  -19.7020  -41.7581   -8.5038 C   0  0  0  0  0  0  0  0  0  0  0  0
  -18.6998  -42.2039   -7.6699 C   0  0  0  0  0  0  0  0  0  0  0  0
  -18.5001  -43.6058   -7.5092 C   0  0  0  0  0  0  0  0  0  0  0  0
  -17.7310  -41.4670   -6.8366 C   0  0  0  0  0  0  0  0  0  0  0  0
  -17.3554  -42.0278   -5.6934 O   0  0  0  0  0  0  0  0  0  0  0  0
  -17.0620  -40.2292   -6.9707 N   0  0  0  0  0  0  0  0  0  0  0  0
  -17.6897  -38.9475   -7.2630 C   0  0  1  0  0  0  0  0  0  0  0  0
  -18.5634  -38.4325   -6.1426 C   0  0  0  0  0  0  0  0  0  0  0  0
  -19.9333  -39.0460   -6.1023 C   0  0  0  0  0  0  0  0  0  0  0  0
  -21.0260  -38.8070   -6.8939 C   0  0  0  0  0  0  0  0  0  0  0  0
  -22.1758  -39.5454   -6.6554 C   0  0  0  0  0  0  0  0  0  0  0  0
  -22.2020  -40.5074   -5.6206 C   0  0  0  0  0  0  0  0  0  0  0  0
  -21.1234  -40.7663   -4.8123 C   0  0  0  0  0  0  0  0  0  0  0  0
  -20.0085  -40.0194   -5.0806 C   0  0  0  0  0  0  0  0  0  0  0  0
  -23.3951  -39.5053   -7.3014 O   0  0  0  0  0  0  0  0  0  0  0  0
  -23.8785  -39.6853   -8.5810 C   0  0  0  0  0  0  0  0  0  0  0  0
  -23.3907  -40.8780   -9.3277 C   0  0  0  0  0  0  0  0  0  0  0  0
  -22.6535  -40.5197  -10.5979 C   0  0  0  0  0  0  0  0  0  0  0  0
  -21.8290  -41.6653  -11.1498 C   0  0  0  0  0  0  0  0  0  0  0  0
  -21.5748  -42.5702  -10.0559 N   0  0  0  0  0  0  0  0  0  0  0  0
  -16.6318  -37.9166   -7.5833 C   0  0  2  0  0  0  0  0  0  0  0  0
  -16.7732  -37.4145   -8.8669 O   0  0  0  0  0  0  0  0  0  0  0  0
  -15.2766  -38.5389   -7.4230 C   0  0  0  0  0  0  0  0  0  0  0  0
  -14.8861  -39.2944   -8.6057 N   0  0  0  0  0  0  0  0  0  0  0  0
  -13.5992  -38.7792   -9.0290 C   0  0  1  0  0  0  0  0  0  0  0  0
  -12.5556  -39.8538   -8.7974 C   0  0  0  0  0  0  0  0  0  0  0  0
  -12.8409  -41.1293   -9.5305 C   0  0  0  0  0  0  0  0  0  0  0  0
  -13.5658  -42.1393   -8.7057 C   0  0  0  0  0  0  0  0  0  0  0  0
  -11.5138  -41.7237   -9.9656 C   0  0  0  0  0  0  0  0  0  0  0  0
  -13.5655  -40.8799  -10.7475 O   0  0  0  0  0  0  0  0  0  0  0  0
  -13.5539  -39.6048  -11.3232 C   0  0  0  0  0  0  0  0  0  0  0  0
  -13.5215  -39.3920  -12.6735 C   0  0  0  0  0  0  0  0  0  0  0  0
  -13.5109  -38.0988  -13.2127 C   0  0  0  0  0  0  0  0  0  0  0  0
  -13.5336  -37.0111  -12.3737 C   0  0  0  0  0  0  0  0  0  0  0  0
  -13.5664  -37.2089  -11.0124 C   0  0  0  0  0  0  0  0  0  0  0  0
  -13.5759  -38.5053  -10.4944 C   0  0  0  0  0  0  0  0  0  0  0  0
  -13.5168  -35.6048  -12.9019 C   0  0  0  0  0  0  0  0  0  0  0  0
  -12.3105  -34.8573  -12.4195 C   0  0  0  0  0  0  0  0  0  0  0  0
  -14.7857  -34.8823  -12.5033 C   0  0  0  0  0  0  0  0  0  0  0  0
  1  2  1  0
  2  3  1  0
  3  4  1  0
  4  5  2  0
  5  6  1  0
  6  7  2  0
  7  8  1  0
  8  9  2  0
  8 10  1  0
 10 11  2  0
 10 12  1  0
 12 13  1  0
 13 14  1  1
 14 15  1  0
 15 16  2  0
 16 17  1  0
 17 18  2  0
 18 19  1  0
 19 20  2  0
 17 21  1  0
 21 22  1  0
 22 23  1  0
 23 24  1  0
 24 25  1  0
 25 26  1  0
 13 27  1  0
 27 28  1  6
 27 29  1  0
 29 30  1  0
 31 30  1  6
 31 32  1  0
 32 33  1  0
 33 34  1  0
 33 35  1  0
 33 36  1  0
 36 37  1  0
 37 38  2  0
 38 39  1  0
 39 40  2  0
 40 41  1  0
 41 42  2  0
 40 43  1  0
 43 44  1  0
 43 45  1  0
  9  4  1  0
 20 15  1  0
 26  6  1  0
 42 37  1  0
 42 31  1  0
M  END
$$$$
