
     RDKit          3D

 45 49  0  0  0  0  0  0  0  0999 V2000
  -20.7399  -42.7826   -0.1809 C   0  0  0  0  0  0  0  0  0  0  0  0
  -20.3749  -42.3069   -1.4296 O   0  0  0  0  0  0  0  0  0  0  0  0
  -21.4700  -41.8793   -2.1536 C   0  0  0  0  0  0  0  0  0  0  0  0
  -21.3173  -42.2737   -3.5718 C   0  0  0  0  0  0  0  0  0  0  0  0
  -21.6359  -43.5316   -4.0148 C   0  0  0  0  0  0  0  0  0  0  0  0
  -21.5089  -43.9296   -5.3698 C   0  0  0  0  0  0  0  0  0  0  0  0
  -21.0478  -43.0420   -6.3198 C   0  0  0  0  0  0  0  0  0  0  0  0
  -20.7186  -41.7686   -5.9091 C   0  0  0  0  0  0  0  0  0  0  0  0
  -20.8649  -41.4208   -4.5347 C   0  0  0  0  0  0  0  0  0  0  0  0
  -20.2235  -40.6027   -6.6649 C   0  0  0  0  0  0  0  0  0  0  0  0
  -20.5989  -39.3990   -6.2491 O   0  0  0  0  0  0  0  0  0  0  0  0
  -19.3912  -40.4474   -7.7967 N   0  0  0  0  0  0  0  0  0  0  0  0
  -19.5536  -41.1273   -9.0748 C   0  0  1  0  0  0  0  0  0  0  0  0
  -20.7861  -40.6972   -9.8362 C   0  0  0  0  0  0  0  0  0  0  0  0
  -22.0535  -41.3559   -9.3731 C   0  0  0  0  0  0  0  0  0  0  0  0
  -22.5144  -42.6270   -9.5956 C   0  0  0  0  0  0  0  0  0  0  0  0
  -23.7218  -42.9915   -9.0179 C   0  0  0  0  0  0  0  0  0  0  0  0
  -24.4423  -42.0653   -8.2305 C   0  0  0  0  0  0  0  0  0  0  0  0
  -24.0052  -40.7863   -7.9923 C   0  0  0  0  0  0  0  0  0  0  0  0
  -22.8100  -40.4663   -8.5772 C   0  0  0  0  0  0  0  0  0  0  0  0
  -24.3973  -44.1938   -9.0792 O   0  0  0  0  0  0  0  0  0  0  0  0
  -24.1619  -45.5144   -8.7562 C   0  0  0  0  0  0  0  0  0  0  0  0
  -23.5585  -45.7881   -7.4224 C   0  0  0  0  0  0  0  0  0  0  0  0
  -22.2189  -46.4829   -7.5107 C   0  0  0  0  0  0  0  0  0  0  0  0
  -21.4279  -46.4153   -6.2197 C   0  0  0  0  0  0  0  0  0  0  0  0
  -21.9355  -45.2927   -5.4700 N   0  0  0  0  0  0  0  0  0  0  0  0
  -18.3325  -40.9030   -9.9368 C   0  0  2  0  0  0  0  0  0  0  0  0
  -18.1629  -41.9181  -10.8645 O   0  0  0  0  0  0  0  0  0  0  0  0
  -17.1221  -40.8061   -9.0564 C   0  0  0  0  0  0  0  0  0  0  0  0
  -16.2529  -39.7064   -9.4528 N   0  0  0  0  0  0  0  0  0  0  0  0
  -16.7382  -38.5205   -8.7756 C   0  0  1  0  0  0  0  0  0  0  0  0
  -15.7172  -38.1164   -7.7306 C   0  0  0  0  0  0  0  0  0  0  0  0
  -14.3597  -37.8374   -8.3005 C   0  0  0  0  0  0  0  0  0  0  0  0
  -13.4402  -39.0112   -8.2475 C   0  0  0  0  0  0  0  0  0  0  0  0
  -13.7425  -36.7041   -7.5015 C   0  0  0  0  0  0  0  0  0  0  0  0
  -14.4515  -37.3481   -9.6499 O   0  0  0  0  0  0  0  0  0  0  0  0
  -15.6503  -36.7994  -10.1179 C   0  0  0  0  0  0  0  0  0  0  0  0
  -15.7041  -35.7279  -10.9656 C   0  0  0  0  0  0  0  0  0  0  0  0
  -16.9252  -35.2063  -11.4129 C   0  0  0  0  0  0  0  0  0  0  0  0
  -18.1031  -35.7778  -10.9964 C   0  0  0  0  0  0  0  0  0  0  0  0
  -18.0656  -36.8569  -10.1435 C   0  0  0  0  0  0  0  0  0  0  0  0
  -16.8388  -37.3617   -9.7084 C   0  0  0  0  0  0  0  0  0  0  0  0
  -19.4379  -35.2519  -11.4422 C   0  0  0  0  0  0  0  0  0  0  0  0
  -20.2575  -36.3275  -12.0888 C   0  0  0  0  0  0  0  0  0  0  0  0
  -19.2499  -34.0846  -12.3873 C   0  0  0  0  0  0  0  0  0  0  0  0
  1  2  1  0
  2  3  1  0
  3  4  1  0
  4  5  2  0
  5  6  1  0
  6  7  2  0
  7  8  1  0
  8  9  2  0
  8 10  1  0
 10 11  2  0
 10 12  1  0
 12 13  1  0
 13 14  1  6
 14 15  1  0
 15 16  2  0
 16 17  1  0
 17 18  2  0
 18 19  1  0
 19 20  2  0
 17 21  1  0
 21 22  1  0
 22 23  1  0
 23 24  1  0
 24 25  1  0
 25 26  1  0
 13 27  1  0
 27 28  1  6
 27 29  1  0
 29 30  1  0
 31 30  1  6
 31 32  1  0
 32 33  1  0
 33 34  1  0
 33 35  1  0
 33 36  1  0
 36 37  1  0
 37 38  2  0
 38 39  1  0
 39 40  2  0
 40 41  1  0
 41 42  2  0
 40 43  1  0
 43 44  1  0
 43 45  1  0
  9  4  1  0
 20 15  1  0
 26  6  1  0
 42 37  1  0
 42 31  1  0
M  END
$$$$
