
     RDKit          3D

 45 49  0  0  0  0  0  0  0  0999 V2000
  -15.7203  -48.9277   -8.4433 C   0  0  0  0  0  0  0  0  0  0  0  0
  -16.6719  -47.9533   -8.1909 O   0  0  0  0  0  0  0  0  0  0  0  0
  -17.7858  -48.1071   -8.9921 C   0  0  0  0  0  0  0  0  0  0  0  0
  -18.7878  -47.0698   -8.6606 C   0  0  0  0  0  0  0  0  0  0  0  0
  -20.1275  -47.2547   -8.8863 C   0  0  0  0  0  0  0  0  0  0  0  0
  -21.1074  -46.2808   -8.5671 C   0  0  0  0  0  0  0  0  0  0  0  0
  -20.7399  -45.0775   -8.0014 C   0  0  0  0  0  0  0  0  0  0  0  0
  -19.4011  -44.8583   -7.7605 C   0  0  0  0  0  0  0  0  0  0  0  0
  -18.4577  -45.8709   -8.1010 C   0  0  0  0  0  0  0  0  0  0  0  0
  -18.6982  -43.7076   -7.1626 C   0  0  0  0  0  0  0  0  0  0  0  0
  -17.6047  -43.9593   -6.4532 O   0  0  0  0  0  0  0  0  0  0  0  0
  -18.9213  -42.3119   -7.1640 N   0  0  0  0  0  0  0  0  0  0  0  0
  -20.1708  -41.6473   -6.8188 C   0  0  1  0  0  0  0  0  0  0  0  0
  -20.5402  -41.7747   -5.3589 C   0  0  0  0  0  0  0  0  0  0  0  0
  -21.1865  -43.0822   -5.0020 C   0  0  0  0  0  0  0  0  0  0  0  0
  -22.4635  -43.5223   -5.2329 C   0  0  0  0  0  0  0  0  0  0  0  0
  -22.7947  -44.8038   -4.8177 C   0  0  0  0  0  0  0  0  0  0  0  0
  -21.8325  -45.6146   -4.1745 C   0  0  0  0  0  0  0  0  0  0  0  0
  -20.5475  -45.1992   -3.9296 C   0  0  0  0  0  0  0  0  0  0  0  0
  -20.2596  -43.9310   -4.3559 C   0  0  0  0  0  0  0  0  0  0  0  0
  -23.9916  -45.4821   -4.9317 O   0  0  0  0  0  0  0  0  0  0  0  0
  -24.8431  -45.8876   -5.9388 C   0  0  0  0  0  0  0  0  0  0  0  0
  -24.2252  -46.5422   -7.1253 C   0  0  0  0  0  0  0  0  0  0  0  0
  -24.4753  -45.7902   -8.4127 C   0  0  0  0  0  0  0  0  0  0  0  0
  -23.5494  -46.2110   -9.5363 C   0  0  0  0  0  0  0  0  0  0  0  0
  -22.3881  -46.8106   -8.9264 N   0  0  0  0  0  0  0  0  0  0  0  0
  -20.0950  -40.1834   -7.1872 C   0  0  2  0  0  0  0  0  0  0  0  0
  -21.3511  -39.6022   -7.2509 O   0  0  0  0  0  0  0  0  0  0  0  0
  -19.3992  -40.0460   -8.5087 C   0  0  0  0  0  0  0  0  0  0  0  0
  -17.9502  -40.0503   -8.3590 N   0  0  0  0  0  0  0  0  0  0  0  0
  -17.4969  -38.6961   -8.6066 C   0  0  1  0  0  0  0  0  0  0  0  0
  -16.0043  -38.7330   -8.8680 C   0  0  0  0  0  0  0  0  0  0  0  0
  -15.6240  -39.5998  -10.0296 C   0  0  0  0  0  0  0  0  0  0  0  0
  -15.2410  -40.9870   -9.6356 C   0  0  0  0  0  0  0  0  0  0  0  0
  -14.4419  -38.9522  -10.7274 C   0  0  0  0  0  0  0  0  0  0  0  0
  -16.6723  -39.6422  -11.0134 O   0  0  0  0  0  0  0  0  0  0  0  0
  -17.6515  -38.6432  -11.0398 C   0  0  0  0  0  0  0  0  0  0  0  0
  -18.1818  -38.1435  -12.1968 C   0  0  0  0  0  0  0  0  0  0  0  0
  -19.1619  -37.1423  -12.1826 C   0  0  0  0  0  0  0  0  0  0  0  0
  -19.6083  -36.6434  -10.9828 C   0  0  0  0  0  0  0  0  0  0  0  0
  -19.0844  -37.1362   -9.8097 C   0  0  0  0  0  0  0  0  0  0  0  0
  -18.1081  -38.1335   -9.8448 C   0  0  0  0  0  0  0  0  0  0  0  0
  -20.6524  -35.5654  -10.9142 C   0  0  0  0  0  0  0  0  0  0  0  0
  -20.2349  -34.4625   -9.9891 C   0  0  0  0  0  0  0  0  0  0  0  0
  -21.9792  -36.1506  -10.4808 C   0  0  0  0  0  0  0  0  0  0  0  0
  1  2  1  0
  2  3  1  0
  3  4  1  0
  4  5  2  0
  5  6  1  0
  6  7  2  0
  7  8  1  0
  8  9  2  0
  8 10  1  0
 10 11  2  0
 10 12  1  0
 12 13  1  0
 13 14  1  1
 14 15  1  0
 15 16  2  0
 16 17  1  0
 17 18  2  0
 18 19  1  0
 19 20  2  0
 17 21  1  0
 21 22  1  0
 22 23  1  0
 23 24  1  0
 24 25  1  0
 25 26  1  0
 13 27  1  0
 27 28  1  6
 27 29  1  0
 29 30  1  0
 31 30  1  6
 31 32  1  0
 32 33  1  0
 33 34  1  0
 33 35  1  0
 33 36  1  0
 36 37  1  0
 37 38  2  0
 38 39  1  0
 39 40  2  0
 40 41  1  0
 41 42  2  0
 40 43  1  0
 43 44  1  0
 43 45  1  0
  9  4  1  0
 20 15  1  0
 26  6  1  0
 42 37  1  0
 42 31  1  0
M  END
$$$$
