
     RDKit          3D

 45 49  0  0  0  0  0  0  0  0999 V2000
  -15.8724  -34.4092  -13.0576 C   0  0  0  0  0  0  0  0  0  0  0  0
  -15.2473  -35.1747  -14.0281 O   0  0  0  0  0  0  0  0  0  0  0  0
  -13.9915  -35.5838  -13.6258 C   0  0  0  0  0  0  0  0  0  0  0  0
  -14.0754  -36.9288  -13.0141 C   0  0  0  0  0  0  0  0  0  0  0  0
  -13.9053  -38.0736  -13.7492 C   0  0  0  0  0  0  0  0  0  0  0  0
  -13.9699  -39.3724  -13.1840 C   0  0  0  0  0  0  0  0  0  0  0  0
  -14.2126  -39.5380  -11.8362 C   0  0  0  0  0  0  0  0  0  0  0  0
  -14.3882  -38.4082  -11.0673 C   0  0  0  0  0  0  0  0  0  0  0  0
  -14.3135  -37.1265  -11.6861 C   0  0  0  0  0  0  0  0  0  0  0  0
  -14.6410  -38.2467   -9.6230 C   0  0  0  0  0  0  0  0  0  0  0  0
  -14.1326  -37.1741   -9.0286 O   0  0  0  0  0  0  0  0  0  0  0  0
  -15.3399  -39.0064   -8.6575 N   0  0  0  0  0  0  0  0  0  0  0  0
  -15.1670  -40.4304   -8.4038 C   0  0  1  0  0  0  0  0  0  0  0  0
  -13.8233  -40.7794   -7.8065 C   0  0  0  0  0  0  0  0  0  0  0  0
  -12.7102  -40.8664   -8.8105 C   0  0  0  0  0  0  0  0  0  0  0  0
  -12.4211  -41.8521   -9.7175 C   0  0  0  0  0  0  0  0  0  0  0  0
  -11.3344  -41.6632  -10.5588 C   0  0  0  0  0  0  0  0  0  0  0  0
  -10.5586  -40.4857  -10.4660 C   0  0  0  0  0  0  0  0  0  0  0  0
  -10.8247  -39.4835   -9.5668 C   0  0  0  0  0  0  0  0  0  0  0  0
  -11.9051  -39.7063   -8.7569 C   0  0  0  0  0  0  0  0  0  0  0  0
  -10.8378  -42.4856  -11.5501 O   0  0  0  0  0  0  0  0  0  0  0  0
  -11.2896  -43.0626  -12.7191 C   0  0  0  0  0  0  0  0  0  0  0  0
  -12.0404  -42.1863  -13.6606 C   0  0  0  0  0  0  0  0  0  0  0  0
  -13.4538  -42.6608  -13.9105 C   0  0  0  0  0  0  0  0  0  0  0  0
  -14.3362  -41.5978  -14.5336 C   0  0  0  0  0  0  0  0  0  0  0  0
  -13.7385  -40.3204  -14.2318 N   0  0  0  0  0  0  0  0  0  0  0  0
  -16.2627  -40.9278   -7.4892 C   0  0  2  0  0  0  0  0  0  0  0  0
  -17.1846  -41.7092   -8.1668 O   0  0  0  0  0  0  0  0  0  0  0  0
  -16.9502  -39.7512   -6.8629 C   0  0  0  0  0  0  0  0  0  0  0  0
  -18.2177  -39.4554   -7.5172 N   0  0  0  0  0  0  0  0  0  0  0  0
  -19.0111  -38.6931   -6.5738 C   0  0  1  0  0  0  0  0  0  0  0  0
  -19.1992  -37.2952   -7.1289 C   0  0  0  0  0  0  0  0  0  0  0  0
  -19.8696  -37.2712   -8.4688 C   0  0  0  0  0  0  0  0  0  0  0  0
  -18.9116  -37.2242   -9.6117 C   0  0  0  0  0  0  0  0  0  0  0  0
  -20.7515  -36.0373   -8.5269 C   0  0  0  0  0  0  0  0  0  0  0  0
  -20.7630  -38.3875   -8.6245 O   0  0  0  0  0  0  0  0  0  0  0  0
  -21.2356  -39.0711   -7.4991 C   0  0  0  0  0  0  0  0  0  0  0  0
  -22.5063  -39.5664   -7.4014 C   0  0  0  0  0  0  0  0  0  0  0  0
  -22.9432  -40.2462   -6.2568 C   0  0  0  0  0  0  0  0  0  0  0  0
  -22.0823  -40.4255   -5.2012 C   0  0  0  0  0  0  0  0  0  0  0  0
  -20.8002  -39.9330   -5.2843 C   0  0  0  0  0  0  0  0  0  0  0  0
  -20.3839  -39.2578   -6.4332 C   0  0  0  0  0  0  0  0  0  0  0  0
  -22.5043  -41.1415   -3.9497 C   0  0  0  0  0  0  0  0  0  0  0  0
  -22.9504  -42.5410   -4.2484 C   0  0  0  0  0  0  0  0  0  0  0  0
  -23.6034  -40.3696   -3.2520 C   0  0  0  0  0  0  0  0  0  0  0  0
  1  2  1  0
  2  3  1  0
  3  4  1  0
  4  5  2  0
  5  6  1  0
  6  7  2  0
  7  8  1  0
  8  9  2  0
  8 10  1  0
 10 11  2  0
 10 12  1  0
 12 13  1  0
 13 14  1  1
 14 15  1  0
 15 16  2  0
 16 17  1  0
 17 18  2  0
 18 19  1  0
 19 20  2  0
 17 21  1  0
 21 22  1  0
 22 23  1  0
 23 24  1  0
 24 25  1  0
 25 26  1  0
 13 27  1  0
 27 28  1  6
 27 29  1  0
 29 30  1  0
 31 30  1  6
 31 32  1  0
 32 33  1  0
 33 34  1  0
 33 35  1  0
 33 36  1  0
 36 37  1  0
 37 38  2  0
 38 39  1  0
 39 40  2  0
 40 41  1  0
 41 42  2  0
 40 43  1  0
 43 44  1  0
 43 45  1  0
  9  4  1  0
 20 15  1  0
 26  6  1  0
 42 37  1  0
 42 31  1  0
M  END
$$$$
