
     RDKit          3D

 45 49  0  0  0  0  0  0  0  0999 V2000
  -18.0517  -48.1020   -7.6125 C   0  0  0  0  0  0  0  0  0  0  0  0
  -18.9893  -47.4562   -8.4016 O   0  0  0  0  0  0  0  0  0  0  0  0
  -19.9952  -46.8926   -7.6421 C   0  0  0  0  0  0  0  0  0  0  0  0
  -20.0040  -45.4251   -7.8331 C   0  0  0  0  0  0  0  0  0  0  0  0
  -20.7951  -44.8194   -8.7750 C   0  0  0  0  0  0  0  0  0  0  0  0
  -20.8293  -43.4152   -8.9692 C   0  0  0  0  0  0  0  0  0  0  0  0
  -20.0470  -42.5824   -8.1963 C   0  0  0  0  0  0  0  0  0  0  0  0
  -19.2397  -43.1579   -7.2394 C   0  0  0  0  0  0  0  0  0  0  0  0
  -19.2434  -44.5749   -7.0862 C   0  0  0  0  0  0  0  0  0  0  0  0
  -18.3162  -42.5562   -6.2591 C   0  0  0  0  0  0  0  0  0  0  0  0
  -18.1830  -43.1674   -5.0881 O   0  0  0  0  0  0  0  0  0  0  0  0
  -17.4844  -41.4136   -6.2665 N   0  0  0  0  0  0  0  0  0  0  0  0
  -17.8968  -40.0603   -6.6138 C   0  0  1  0  0  0  0  0  0  0  0  0
  -18.8511  -39.4443   -5.6169 C   0  0  0  0  0  0  0  0  0  0  0  0
  -20.2788  -39.8774   -5.7868 C   0  0  0  0  0  0  0  0  0  0  0  0
  -21.2070  -39.4957   -6.7198 C   0  0  0  0  0  0  0  0  0  0  0  0
  -22.4630  -40.0821   -6.6654 C   0  0  0  0  0  0  0  0  0  0  0  0
  -22.7590  -41.0390   -5.6686 C   0  0  0  0  0  0  0  0  0  0  0  0
  -21.8495  -41.4388   -4.7216 C   0  0  0  0  0  0  0  0  0  0  0  0
  -20.6224  -40.8393   -4.8103 C   0  0  0  0  0  0  0  0  0  0  0  0
  -23.5614  -39.8823   -7.4771 O   0  0  0  0  0  0  0  0  0  0  0  0
  -23.8741  -39.9912   -8.8165 C   0  0  0  0  0  0  0  0  0  0  0  0
  -23.4378  -41.2321   -9.5150 C   0  0  0  0  0  0  0  0  0  0  0  0
  -22.4859  -40.9636  -10.6583 C   0  0  0  0  0  0  0  0  0  0  0  0
  -21.7413  -42.2021  -11.1150 C   0  0  0  0  0  0  0  0  0  0  0  0
  -21.7635  -43.1386  -10.0184 N   0  0  0  0  0  0  0  0  0  0  0  0
  -16.6825  -39.1716   -6.7552 C   0  0  2  0  0  0  0  0  0  0  0  0
  -17.0046  -37.9429   -7.3086 O   0  0  0  0  0  0  0  0  0  0  0  0
  -15.6632  -39.8663   -7.6083 C   0  0  0  0  0  0  0  0  0  0  0  0
  -15.6483  -39.3415   -8.9671 N   0  0  0  0  0  0  0  0  0  0  0  0
  -14.6411  -38.3001   -9.0056 C   0  0  1  0  0  0  0  0  0  0  0  0
  -13.2795  -38.9474   -8.8483 C   0  0  0  0  0  0  0  0  0  0  0  0
  -12.9773  -39.9644   -9.9065 C   0  0  0  0  0  0  0  0  0  0  0  0
  -13.3067  -41.3615   -9.4994 C   0  0  0  0  0  0  0  0  0  0  0  0
  -11.4932  -39.8887  -10.2156 C   0  0  0  0  0  0  0  0  0  0  0  0
  -13.6418  -39.6448  -11.1413 O   0  0  0  0  0  0  0  0  0  0  0  0
  -14.0898  -38.3412  -11.3808 C   0  0  0  0  0  0  0  0  0  0  0  0
  -14.0366  -37.7439  -12.6097 C   0  0  0  0  0  0  0  0  0  0  0  0
  -14.4956  -36.4354  -12.8103 C   0  0  0  0  0  0  0  0  0  0  0  0
  -15.0137  -35.7261  -11.7539 C   0  0  0  0  0  0  0  0  0  0  0  0
  -15.0741  -36.3134  -10.5110 C   0  0  0  0  0  0  0  0  0  0  0  0
  -14.6111  -37.6182  -10.3312 C   0  0  0  0  0  0  0  0  0  0  0  0
  -15.5127  -34.3183  -11.9157 C   0  0  0  0  0  0  0  0  0  0  0  0
  -16.4005  -34.1911  -13.1167 C   0  0  0  0  0  0  0  0  0  0  0  0
  -14.3462  -33.3587  -12.0114 C   0  0  0  0  0  0  0  0  0  0  0  0
  1  2  1  0
  2  3  1  0
  3  4  1  0
  4  5  2  0
  5  6  1  0
  6  7  2  0
  7  8  1  0
  8  9  2  0
  8 10  1  0
 10 11  2  0
 10 12  1  0
 12 13  1  0
 13 14  1  1
 14 15  1  0
 15 16  2  0
 16 17  1  0
 17 18  2  0
 18 19  1  0
 19 20  2  0
 17 21  1  0
 21 22  1  0
 22 23  1  0
 23 24  1  0
 24 25  1  0
 25 26  1  0
 13 27  1  0
 27 28  1  6
 27 29  1  0
 29 30  1  0
 31 30  1  6
 31 32  1  0
 32 33  1  0
 33 34  1  0
 33 35  1  0
 33 36  1  0
 36 37  1  0
 37 38  2  0
 38 39  1  0
 39 40  2  0
 40 41  1  0
 41 42  2  0
 40 43  1  0
 43 44  1  0
 43 45  1  0
  9  4  1  0
 20 15  1  0
 26  6  1  0
 42 37  1  0
 42 31  1  0
M  END
$$$$
