
     RDKit          3D

 44 48  0  0  0  0  0  0  0  0999 V2000
  -23.7165  -39.0754  -13.6711 C   0  0  0  0  0  0  0  0  0  0  0  0
  -22.7761  -38.3160  -14.5289 C   0  0  0  0  0  0  0  0  0  0  0  0
  -23.1506  -38.0306  -15.6573 O   0  0  0  0  0  0  0  0  0  0  0  0
  -21.4223  -37.8820  -14.1076 C   0  0  0  0  0  0  0  0  0  0  0  0
  -21.4465  -37.0748  -12.9833 O   0  0  0  0  0  0  0  0  0  0  0  0
  -21.0428  -37.4434  -11.6992 C   0  0  0  0  0  0  0  0  0  0  0  0
  -21.7419  -37.1005  -10.5766 C   0  0  0  0  0  0  0  0  0  0  0  0
  -21.3267  -37.4744   -9.2843 C   0  0  0  0  0  0  0  0  0  0  0  0
  -20.1675  -38.2195   -9.1123 C   0  0  0  0  0  0  0  0  0  0  0  0
  -19.4381  -38.5849  -10.2136 C   0  0  0  0  0  0  0  0  0  0  0  0
  -19.9102  -38.1760  -11.4916 C   0  0  0  0  0  0  0  0  0  0  0  0
  -18.1854  -39.3762  -10.3255 C   0  0  0  0  0  0  0  0  0  0  0  0
  -17.9739  -39.9246  -11.5092 O   0  0  0  0  0  0  0  0  0  0  0  0
  -17.1495  -39.6860   -9.4538 N   0  0  0  0  0  0  0  0  0  0  0  0
  -17.2512  -40.2894   -8.1441 C   0  0  1  0  0  0  0  0  0  0  0  0
  -18.0252  -41.5328   -8.0757 C   0  0  0  0  0  0  0  0  0  0  0  0
  -19.4381  -41.5296   -7.6066 C   0  0  0  0  0  0  0  0  0  0  0  0
  -20.0541  -40.9532   -6.5198 C   0  0  0  0  0  0  0  0  0  0  0  0
  -21.3999  -41.1370   -6.3675 C   0  0  0  0  0  0  0  0  0  0  0  0
  -22.3165  -40.6174   -5.3154 C   0  0  0  0  0  0  0  0  0  0  0  0
  -22.7816  -39.1892   -5.5556 C   0  0  0  0  0  0  0  0  0  0  0  0
  -22.8670  -38.8865   -7.0349 C   0  0  0  0  0  0  0  0  0  0  0  0
  -23.0110  -37.4169   -7.3128 C   0  0  0  0  0  0  0  0  0  0  0  0
  -22.2017  -37.0020   -8.3327 O   0  0  0  0  0  0  0  0  0  0  0  0
  -22.1322  -41.9035   -7.3097 C   0  0  0  0  0  0  0  0  0  0  0  0
  -21.5632  -42.4945   -8.4020 C   0  0  0  0  0  0  0  0  0  0  0  0
  -20.2136  -42.2878   -8.5215 C   0  0  0  0  0  0  0  0  0  0  0  0
  -15.9831  -40.3834   -7.3917 C   0  0  2  0  0  0  0  0  0  0  0  0
  -15.8320  -39.2775   -6.4998 O   0  0  0  0  0  0  0  0  0  0  0  0
  -14.7047  -40.5101   -8.1193 C   0  0  0  0  0  0  0  0  0  0  0  0
  -14.5930  -39.8581   -9.3801 N   0  0  0  0  0  0  0  0  0  0  0  0
  -14.4637  -40.8196  -10.4805 C   0  0  0  0  0  0  0  0  0  0  0  0
  -15.6642  -41.5637  -10.9195 C   0  0  0  0  0  0  0  0  0  0  0  0
  -15.1198  -40.4348  -11.8087 C   0  0  0  0  0  0  0  0  0  0  0  0
  -13.1140  -41.4066  -10.6058 C   0  0  0  0  0  0  0  0  0  0  0  0
  -12.2922  -41.6538   -9.5481 C   0  0  0  0  0  0  0  0  0  0  0  0
  -11.0456  -42.1983   -9.7454 C   0  0  0  0  0  0  0  0  0  0  0  0
  -10.6340  -42.4916  -11.0108 C   0  0  0  0  0  0  0  0  0  0  0  0
  -11.4731  -42.2388  -12.0834 C   0  0  0  0  0  0  0  0  0  0  0  0
  -12.6765  -41.7088  -11.8476 N   0  0  0  0  0  0  0  0  0  0  0  0
  -10.1559  -42.4660   -8.5941 C   0  0  0  0  0  0  0  0  0  0  0  0
  -10.1574  -43.9117   -8.1740 C   0  0  0  0  0  0  0  0  0  0  0  0
   -8.7503  -42.0318   -8.9156 C   0  0  0  0  0  0  0  0  0  0  0  0
  -10.6346  -41.6260   -7.4167 C   0  0  0  0  0  0  0  0  0  0  0  0
  1  2  1  0
  2  3  2  0
  2  4  1  0
  4  5  1  0
  5  6  1  0
  6  7  2  0
  7  8  1  0
  8  9  2  0
  9 10  1  0
 10 11  2  0
 10 12  1  0
 12 13  2  0
 12 14  1  0
 14 15  1  0
 15 16  1  6
 16 17  1  0
 17 18  1  0
 18 19  2  0
 19 20  1  0
 20 21  1  0
 21 22  1  0
 22 23  1  0
 23 24  1  0
 19 25  1  0
 25 26  2  0
 26 27  1  0
 15 28  1  0
 28 29  1  6
 28 30  1  0
 30 31  1  0
 31 32  1  0
 32 33  1  0
 33 34  1  0
 32 35  1  0
 35 36  2  0
 36 37  1  0
 37 38  2  0
 38 39  1  0
 39 40  2  0
 37 41  1  0
 41 42  1  0
 41 43  1  0
 41 44  1  0
 11  6  1  0
 24  8  1  0
 27 17  2  0
 34 32  1  0
 40 35  1  0
M  END
$$$$
