
     RDKit          3D

 44 48  0  0  0  0  0  0  0  0999 V2000
  -19.5503  -44.4792  -14.7305 C   0  0  0  0  0  0  0  0  0  0  0  0
  -20.4074  -43.3218  -15.0806 C   0  0  0  0  0  0  0  0  0  0  0  0
  -20.5036  -43.0317  -16.2645 O   0  0  0  0  0  0  0  0  0  0  0  0
  -21.1514  -42.5019  -14.0941 C   0  0  0  0  0  0  0  0  0  0  0  0
  -20.8541  -42.8413  -12.7855 O   0  0  0  0  0  0  0  0  0  0  0  0
  -20.5941  -41.9486  -11.7446 C   0  0  0  0  0  0  0  0  0  0  0  0
  -21.5252  -41.0645  -11.2780 C   0  0  0  0  0  0  0  0  0  0  0  0
  -21.2542  -40.1654  -10.2290 C   0  0  0  0  0  0  0  0  0  0  0  0
  -20.0031  -40.1532   -9.6263 C   0  0  0  0  0  0  0  0  0  0  0  0
  -19.0415  -41.0257  -10.0646 C   0  0  0  0  0  0  0  0  0  0  0  0
  -19.3772  -41.9086  -11.1282 C   0  0  0  0  0  0  0  0  0  0  0  0
  -17.6440  -41.2358   -9.6055 C   0  0  0  0  0  0  0  0  0  0  0  0
  -17.1265  -42.4134   -9.9089 O   0  0  0  0  0  0  0  0  0  0  0  0
  -16.7217  -40.4635   -8.9113 N   0  0  0  0  0  0  0  0  0  0  0  0
  -16.9000  -39.8183   -7.6301 C   0  0  1  0  0  0  0  0  0  0  0  0
  -17.3811  -40.6803   -6.5460 C   0  0  0  0  0  0  0  0  0  0  0  0
  -18.8170  -40.6859   -6.1528 C   0  0  0  0  0  0  0  0  0  0  0  0
  -19.7138  -39.6740   -5.8989 C   0  0  0  0  0  0  0  0  0  0  0  0
  -20.9922  -40.0150   -5.5560 C   0  0  0  0  0  0  0  0  0  0  0  0
  -22.1600  -39.1416   -5.2549 C   0  0  0  0  0  0  0  0  0  0  0  0
  -22.8832  -38.6333   -6.4927 C   0  0  0  0  0  0  0  0  0  0  0  0
  -22.7908  -39.6315   -7.6250 C   0  0  0  0  0  0  0  0  0  0  0  0
  -23.2083  -39.0443   -8.9436 C   0  0  0  0  0  0  0  0  0  0  0  0
  -22.3552  -39.3862   -9.9549 O   0  0  0  0  0  0  0  0  0  0  0  0
  -21.3735  -41.3782   -5.4667 C   0  0  0  0  0  0  0  0  0  0  0  0
  -20.5177  -42.4150   -5.7087 C   0  0  0  0  0  0  0  0  0  0  0  0
  -19.2461  -42.0345   -6.0500 C   0  0  0  0  0  0  0  0  0  0  0  0
  -15.7827  -38.9540   -7.1971 C   0  0  2  0  0  0  0  0  0  0  0  0
  -16.2666  -37.7499   -6.5992 O   0  0  0  0  0  0  0  0  0  0  0  0
  -14.7470  -38.5501   -8.1688 C   0  0  0  0  0  0  0  0  0  0  0  0
  -13.5627  -39.3373   -8.2396 N   0  0  0  0  0  0  0  0  0  0  0  0
  -13.6247  -40.3167   -9.3301 C   0  0  0  0  0  0  0  0  0  0  0  0
  -12.8739  -41.5834   -9.1919 C   0  0  0  0  0  0  0  0  0  0  0  0
  -14.4040  -41.6044   -9.0524 C   0  0  0  0  0  0  0  0  0  0  0  0
  -13.8740  -39.7184  -10.6575 C   0  0  0  0  0  0  0  0  0  0  0  0
  -13.8507  -38.3788  -10.9031 C   0  0  0  0  0  0  0  0  0  0  0  0
  -14.0981  -37.8967  -12.1664 C   0  0  0  0  0  0  0  0  0  0  0  0
  -14.3677  -38.7698  -13.1770 C   0  0  0  0  0  0  0  0  0  0  0  0
  -14.3900  -40.1312  -12.9228 C   0  0  0  0  0  0  0  0  0  0  0  0
  -14.1442  -40.5576  -11.6809 N   0  0  0  0  0  0  0  0  0  0  0  0
  -14.0714  -36.4411  -12.4296 C   0  0  0  0  0  0  0  0  0  0  0  0
  -15.1145  -35.6839  -11.6517 C   0  0  0  0  0  0  0  0  0  0  0  0
  -12.7059  -35.8856  -12.1226 C   0  0  0  0  0  0  0  0  0  0  0  0
  -14.3299  -36.2208  -13.9149 C   0  0  0  0  0  0  0  0  0  0  0  0
  1  2  1  0
  2  3  2  0
  2  4  1  0
  4  5  1  0
  5  6  1  0
  6  7  2  0
  7  8  1  0
  8  9  2  0
  9 10  1  0
 10 11  2  0
 10 12  1  0
 12 13  2  0
 12 14  1  0
 14 15  1  0
 15 16  1  1
 16 17  1  0
 17 18  1  0
 18 19  2  0
 19 20  1  0
 20 21  1  0
 21 22  1  0
 22 23  1  0
 23 24  1  0
 19 25  1  0
 25 26  2  0
 26 27  1  0
 15 28  1  0
 28 29  1  6
 28 30  1  0
 30 31  1  0
 31 32  1  0
 32 33  1  0
 33 34  1  0
 32 35  1  0
 35 36  2  0
 36 37  1  0
 37 38  2  0
 38 39  1  0
 39 40  2  0
 37 41  1  0
 41 42  1  0
 41 43  1  0
 41 44  1  0
 11  6  1  0
 24  8  1  0
 27 17  2  0
 34 32  1  0
 40 35  1  0
M  END
$$$$
