
     RDKit          3D

 44 48  0  0  0  0  0  0  0  0999 V2000
  -20.3445  -48.1031  -11.0841 C   0  0  0  0  0  0  0  0  0  0  0  0
  -19.6311  -46.8426  -10.7693 C   0  0  0  0  0  0  0  0  0  0  0  0
  -19.2686  -46.6759   -9.6135 O   0  0  0  0  0  0  0  0  0  0  0  0
  -19.3295  -45.7810  -11.7598 C   0  0  0  0  0  0  0  0  0  0  0  0
  -17.9723  -45.6363  -11.9903 O   0  0  0  0  0  0  0  0  0  0  0  0
  -17.1104  -44.7778  -11.3062 C   0  0  0  0  0  0  0  0  0  0  0  0
  -15.8101  -45.0968  -11.0344 C   0  0  0  0  0  0  0  0  0  0  0  0
  -14.9475  -44.2260  -10.3416 C   0  0  0  0  0  0  0  0  0  0  0  0
  -15.4067  -42.9900   -9.9057 C   0  0  0  0  0  0  0  0  0  0  0  0
  -16.7049  -42.6316  -10.1598 C   0  0  0  0  0  0  0  0  0  0  0  0
  -17.5260  -43.5555  -10.8638 C   0  0  0  0  0  0  0  0  0  0  0  0
  -17.4489  -41.3896   -9.8253 C   0  0  0  0  0  0  0  0  0  0  0  0
  -18.5175  -41.1603  -10.5684 O   0  0  0  0  0  0  0  0  0  0  0  0
  -17.2836  -40.3798   -8.8863 N   0  0  0  0  0  0  0  0  0  0  0  0
  -16.1066  -39.5718   -8.6598 C   0  0  1  0  0  0  0  0  0  0  0  0
  -15.5498  -38.9135   -9.8457 C   0  0  0  0  0  0  0  0  0  0  0  0
  -14.3760  -39.4876  -10.5592 C   0  0  0  0  0  0  0  0  0  0  0  0
  -13.1647  -39.9673  -10.1172 C   0  0  0  0  0  0  0  0  0  0  0  0
  -12.2804  -40.4418  -11.0453 C   0  0  0  0  0  0  0  0  0  0  0  0
  -10.9278  -41.0336  -10.8528 C   0  0  0  0  0  0  0  0  0  0  0  0
  -10.9492  -42.5063  -10.4726 C   0  0  0  0  0  0  0  0  0  0  0  0
  -12.1461  -43.2065  -11.0762 C   0  0  0  0  0  0  0  0  0  0  0  0
  -12.3795  -44.5644  -10.4766 C   0  0  0  0  0  0  0  0  0  0  0  0
  -13.6986  -44.7861  -10.1969 O   0  0  0  0  0  0  0  0  0  0  0  0
  -12.6122  -40.4346  -12.4242 C   0  0  0  0  0  0  0  0  0  0  0  0
  -13.8011  -39.9676  -12.9084 C   0  0  0  0  0  0  0  0  0  0  0  0
  -14.6615  -39.5011  -11.9490 C   0  0  0  0  0  0  0  0  0  0  0  0
  -16.1814  -38.6573   -7.5017 C   0  0  2  0  0  0  0  0  0  0  0  0
  -15.2299  -39.0193   -6.4992 O   0  0  0  0  0  0  0  0  0  0  0  0
  -17.4674  -38.4591   -6.8040 C   0  0  0  0  0  0  0  0  0  0  0  0
  -18.1929  -39.6193   -6.4106 N   0  0  0  0  0  0  0  0  0  0  0  0
  -19.6374  -39.4484   -6.6016 C   0  0  0  0  0  0  0  0  0  0  0  0
  -20.5557  -40.4465   -6.0116 C   0  0  0  0  0  0  0  0  0  0  0  0
  -20.4512  -39.0559   -5.3662 C   0  0  0  0  0  0  0  0  0  0  0  0
  -19.9950  -38.7174   -7.8343 C   0  0  0  0  0  0  0  0  0  0  0  0
  -19.3172  -38.8337   -9.0100 C   0  0  0  0  0  0  0  0  0  0  0  0
  -19.7081  -38.1154  -10.1149 C   0  0  0  0  0  0  0  0  0  0  0  0
  -20.7829  -37.2826  -10.0280 C   0  0  0  0  0  0  0  0  0  0  0  0
  -21.4695  -37.1676   -8.8305 C   0  0  0  0  0  0  0  0  0  0  0  0
  -21.0563  -37.8833   -7.7810 N   0  0  0  0  0  0  0  0  0  0  0  0
  -18.9698  -38.2449  -11.3903 C   0  0  0  0  0  0  0  0  0  0  0  0
  -17.4805  -38.3540  -11.1989 C   0  0  0  0  0  0  0  0  0  0  0  0
  -19.4720  -39.4383  -12.1592 C   0  0  0  0  0  0  0  0  0  0  0  0
  -19.2536  -37.0074  -12.2327 C   0  0  0  0  0  0  0  0  0  0  0  0
  1  2  1  0
  2  3  2  0
  2  4  1  0
  4  5  1  0
  5  6  1  0
  6  7  2  0
  7  8  1  0
  8  9  2  0
  9 10  1  0
 10 11  2  0
 10 12  1  0
 12 13  2  0
 12 14  1  0
 14 15  1  0
 15 16  1  6
 16 17  1  0
 17 18  1  0
 18 19  2  0
 19 20  1  0
 20 21  1  0
 21 22  1  0
 22 23  1  0
 23 24  1  0
 19 25  1  0
 25 26  2  0
 26 27  1  0
 15 28  1  0
 28 29  1  1
 28 30  1  0
 30 31  1  0
 31 32  1  0
 32 33  1  0
 33 34  1  0
 32 35  1  0
 35 36  2  0
 36 37  1  0
 37 38  2  0
 38 39  1  0
 39 40  2  0
 37 41  1  0
 41 42  1  0
 41 43  1  0
 41 44  1  0
 11  6  1  0
 24  8  1  0
 27 17  2  0
 34 32  1  0
 40 35  1  0
M  END
$$$$
