
     RDKit          3D

 44 48  0  0  0  0  0  0  0  0999 V2000
  -18.4564  -41.6826   -0.8213 C   0  0  0  0  0  0  0  0  0  0  0  0
  -19.7507  -40.9622   -0.8719 C   0  0  0  0  0  0  0  0  0  0  0  0
  -20.6251  -41.3231   -0.0971 O   0  0  0  0  0  0  0  0  0  0  0  0
  -20.0488  -39.8392   -1.7933 C   0  0  0  0  0  0  0  0  0  0  0  0
  -21.1172  -40.1062   -2.6319 O   0  0  0  0  0  0  0  0  0  0  0  0
  -21.0419  -40.6921   -3.8964 C   0  0  0  0  0  0  0  0  0  0  0  0
  -21.9048  -41.6658   -4.3134 C   0  0  0  0  0  0  0  0  0  0  0  0
  -21.8206  -42.2536   -5.5900 C   0  0  0  0  0  0  0  0  0  0  0  0
  -20.8346  -41.8495   -6.4805 C   0  0  0  0  0  0  0  0  0  0  0  0
  -19.9500  -40.8741   -6.1008 C   0  0  0  0  0  0  0  0  0  0  0  0
  -20.0874  -40.3200   -4.7979 C   0  0  0  0  0  0  0  0  0  0  0  0
  -18.8210  -40.2512   -6.8392 C   0  0  0  0  0  0  0  0  0  0  0  0
  -18.4460  -39.0656   -6.3915 O   0  0  0  0  0  0  0  0  0  0  0  0
  -18.0398  -40.6312   -7.9228 N   0  0  0  0  0  0  0  0  0  0  0  0
  -18.4914  -41.0400   -9.2338 C   0  0  1  0  0  0  0  0  0  0  0  0
  -19.4248  -40.1251   -9.8982 C   0  0  0  0  0  0  0  0  0  0  0  0
  -20.8904  -40.3871   -9.8885 C   0  0  0  0  0  0  0  0  0  0  0  0
  -21.6333  -41.5152  -10.1490 C   0  0  0  0  0  0  0  0  0  0  0  0
  -22.9938  -41.4302  -10.0480 C   0  0  0  0  0  0  0  0  0  0  0  0
  -24.0287  -42.4822  -10.2465 C   0  0  0  0  0  0  0  0  0  0  0  0
  -24.2350  -43.3783   -9.0348 C   0  0  0  0  0  0  0  0  0  0  0  0
  -23.9706  -42.6253   -7.7501 C   0  0  0  0  0  0  0  0  0  0  0  0
  -23.8525  -43.5389   -6.5631 C   0  0  0  0  0  0  0  0  0  0  0  0
  -22.8009  -43.2053   -5.7567 O   0  0  0  0  0  0  0  0  0  0  0  0
  -23.6128  -40.2070   -9.6844 C   0  0  0  0  0  0  0  0  0  0  0  0
  -22.9161  -39.0626   -9.4180 C   0  0  0  0  0  0  0  0  0  0  0  0
  -21.5558  -39.1866   -9.5287 C   0  0  0  0  0  0  0  0  0  0  0  0
  -17.4313  -41.5115  -10.1485 C   0  0  2  0  0  0  0  0  0  0  0  0
  -16.8171  -42.7023   -9.6525 O   0  0  0  0  0  0  0  0  0  0  0  0
  -16.3318  -40.6027  -10.5294 C   0  0  0  0  0  0  0  0  0  0  0  0
  -15.6085  -39.9635   -9.4828 N   0  0  0  0  0  0  0  0  0  0  0  0
  -14.5570  -39.0845  -10.0061 C   0  0  0  0  0  0  0  0  0  0  0  0
  -13.2206  -39.1195   -9.3732 C   0  0  0  0  0  0  0  0  0  0  0  0
  -13.4076  -39.7613  -10.7569 C   0  0  0  0  0  0  0  0  0  0  0  0
  -15.0685  -37.8528  -10.6410 C   0  0  0  0  0  0  0  0  0  0  0  0
  -16.3440  -37.3973  -10.4964 C   0  0  0  0  0  0  0  0  0  0  0  0
  -16.7481  -36.2431  -11.1240 C   0  0  0  0  0  0  0  0  0  0  0  0
  -15.8618  -35.5530  -11.8952 C   0  0  0  0  0  0  0  0  0  0  0  0
  -14.5657  -36.0197  -12.0392 C   0  0  0  0  0  0  0  0  0  0  0  0
  -14.2142  -37.1456  -11.4121 N   0  0  0  0  0  0  0  0  0  0  0  0
  -18.1341  -35.7510  -10.9641 C   0  0  0  0  0  0  0  0  0  0  0  0
  -18.6336  -35.8514   -9.5474 C   0  0  0  0  0  0  0  0  0  0  0  0
  -18.2340  -34.3252  -11.4382 C   0  0  0  0  0  0  0  0  0  0  0  0
  -19.0435  -36.5915  -11.8518 C   0  0  0  0  0  0  0  0  0  0  0  0
  1  2  1  0
  2  3  2  0
  2  4  1  0
  4  5  1  0
  5  6  1  0
  6  7  2  0
  7  8  1  0
  8  9  2  0
  9 10  1  0
 10 11  2  0
 10 12  1  0
 12 13  2  0
 12 14  1  0
 14 15  1  0
 15 16  1  6
 16 17  1  0
 17 18  1  0
 18 19  2  0
 19 20  1  0
 20 21  1  0
 21 22  1  0
 22 23  1  0
 23 24  1  0
 19 25  1  0
 25 26  2  0
 26 27  1  0
 15 28  1  0
 28 29  1  1
 28 30  1  0
 30 31  1  0
 31 32  1  0
 32 33  1  0
 33 34  1  0
 32 35  1  0
 35 36  2  0
 36 37  1  0
 37 38  2  0
 38 39  1  0
 39 40  2  0
 37 41  1  0
 41 42  1  0
 41 43  1  0
 41 44  1  0
 11  6  1  0
 24  8  1  0
 27 17  2  0
 34 32  1  0
 40 35  1  0
M  END
$$$$
