
     RDKit          3D

 44 48  0  0  0  0  0  0  0  0999 V2000
  -21.0217  -47.9707   -8.6607 C   0  0  0  0  0  0  0  0  0  0  0  0
  -19.7409  -47.6738   -9.3449 C   0  0  0  0  0  0  0  0  0  0  0  0
  -18.7533  -48.2977   -8.9836 O   0  0  0  0  0  0  0  0  0  0  0  0
  -19.5834  -46.6783  -10.4325 C   0  0  0  0  0  0  0  0  0  0  0  0
  -20.6431  -45.7902  -10.5006 O   0  0  0  0  0  0  0  0  0  0  0  0
  -20.6183  -44.4510  -10.1083 C   0  0  0  0  0  0  0  0  0  0  0  0
  -21.6879  -43.6151  -10.2618 C   0  0  0  0  0  0  0  0  0  0  0  0
  -21.6542  -42.2645   -9.8656 C   0  0  0  0  0  0  0  0  0  0  0  0
  -20.5050  -41.7335   -9.2945 C   0  0  0  0  0  0  0  0  0  0  0  0
  -19.4104  -42.5398   -9.1220 C   0  0  0  0  0  0  0  0  0  0  0  0
  -19.5075  -43.8950   -9.5432 C   0  0  0  0  0  0  0  0  0  0  0  0
  -18.0751  -42.2469   -8.5396 C   0  0  0  0  0  0  0  0  0  0  0  0
  -17.4063  -43.3043   -8.1138 O   0  0  0  0  0  0  0  0  0  0  0  0
  -17.3382  -41.0885   -8.3300 N   0  0  0  0  0  0  0  0  0  0  0  0
  -17.7537  -39.8952   -7.6279 C   0  0  1  0  0  0  0  0  0  0  0  0
  -18.2907  -40.1055   -6.2799 C   0  0  0  0  0  0  0  0  0  0  0  0
  -19.7592  -40.1268   -6.0359 C   0  0  0  0  0  0  0  0  0  0  0  0
  -20.7785  -39.2934   -6.4347 C   0  0  0  0  0  0  0  0  0  0  0  0
  -22.0516  -39.5949   -6.0388 C   0  0  0  0  0  0  0  0  0  0  0  0
  -23.3306  -38.8940   -6.3386 C   0  0  0  0  0  0  0  0  0  0  0  0
  -23.9243  -39.2499   -7.6930 C   0  0  0  0  0  0  0  0  0  0  0  0
  -23.5786  -40.6699   -8.0822 C   0  0  0  0  0  0  0  0  0  0  0  0
  -23.8678  -40.9553   -9.5288 C   0  0  0  0  0  0  0  0  0  0  0  0
  -22.8543  -41.6456  -10.1320 O   0  0  0  0  0  0  0  0  0  0  0  0
  -22.3039  -40.7380   -5.2381 C   0  0  0  0  0  0  0  0  0  0  0  0
  -21.3241  -41.5922   -4.8182 C   0  0  0  0  0  0  0  0  0  0  0  0
  -20.0620  -41.2582   -5.2349 C   0  0  0  0  0  0  0  0  0  0  0  0
  -16.7979  -38.7695   -7.6748 C   0  0  2  0  0  0  0  0  0  0  0  0
  -17.4680  -37.5378   -7.9493 O   0  0  0  0  0  0  0  0  0  0  0  0
  -15.6395  -38.8268   -8.5884 C   0  0  0  0  0  0  0  0  0  0  0  0
  -15.1954  -40.1106   -9.0147 N   0  0  0  0  0  0  0  0  0  0  0  0
  -13.8557  -40.0531   -9.6097 C   0  0  0  0  0  0  0  0  0  0  0  0
  -12.6895  -40.4065   -8.7714 C   0  0  0  0  0  0  0  0  0  0  0  0
  -13.1555  -41.3919   -9.8545 C   0  0  0  0  0  0  0  0  0  0  0  0
  -13.7341  -39.0815  -10.7157 C   0  0  0  0  0  0  0  0  0  0  0  0
  -12.9061  -38.0003  -10.6890 C   0  0  0  0  0  0  0  0  0  0  0  0
  -12.8517  -37.1366  -11.7570 C   0  0  0  0  0  0  0  0  0  0  0  0
  -13.6337  -37.3689  -12.8484 C   0  0  0  0  0  0  0  0  0  0  0  0
  -14.4740  -38.4698  -12.8713 C   0  0  0  0  0  0  0  0  0  0  0  0
  -14.4964  -39.2838  -11.8123 N   0  0  0  0  0  0  0  0  0  0  0  0
  -11.9507  -35.9637  -11.7249 C   0  0  0  0  0  0  0  0  0  0  0  0
  -10.5527  -36.3084  -11.2852 C   0  0  0  0  0  0  0  0  0  0  0  0
  -11.9099  -35.3063  -13.0790 C   0  0  0  0  0  0  0  0  0  0  0  0
  -12.5238  -34.9496  -10.7428 C   0  0  0  0  0  0  0  0  0  0  0  0
  1  2  1  0
  2  3  2  0
  2  4  1  0
  4  5  1  0
  5  6  1  0
  6  7  2  0
  7  8  1  0
  8  9  2  0
  9 10  1  0
 10 11  2  0
 10 12  1  0
 12 13  2  0
 12 14  1  0
 14 15  1  0
 15 16  1  1
 16 17  1  0
 17 18  1  0
 18 19  2  0
 19 20  1  0
 20 21  1  0
 21 22  1  0
 22 23  1  0
 23 24  1  0
 19 25  1  0
 25 26  2  0
 26 27  1  0
 15 28  1  0
 28 29  1  6
 28 30  1  0
 30 31  1  0
 31 32  1  0
 32 33  1  0
 33 34  1  0
 32 35  1  0
 35 36  2  0
 36 37  1  0
 37 38  2  0
 38 39  1  0
 39 40  2  0
 37 41  1  0
 41 42  1  0
 41 43  1  0
 41 44  1  0
 11  6  1  0
 24  8  1  0
 27 17  2  0
 34 32  1  0
 40 35  1  0
M  END
$$$$
