
     RDKit          3D

 44 48  0  0  0  0  0  0  0  0999 V2000
  -17.3525  -48.0170   -7.9343 C   0  0  0  0  0  0  0  0  0  0  0  0
  -18.6919  -48.0241   -7.2996 C   0  0  0  0  0  0  0  0  0  0  0  0
  -19.5928  -48.5973   -7.8953 O   0  0  0  0  0  0  0  0  0  0  0  0
  -19.0050  -47.3875   -5.9975 C   0  0  0  0  0  0  0  0  0  0  0  0
  -20.1696  -46.6401   -6.0352 O   0  0  0  0  0  0  0  0  0  0  0  0
  -20.3305  -45.4017   -6.6584 C   0  0  0  0  0  0  0  0  0  0  0  0
  -21.4165  -45.0968   -7.4293 C   0  0  0  0  0  0  0  0  0  0  0  0
  -21.5703  -43.8459   -8.0567 C   0  0  0  0  0  0  0  0  0  0  0  0
  -20.5988  -42.8652   -7.9050 C   0  0  0  0  0  0  0  0  0  0  0  0
  -19.4945  -43.1312   -7.1383 C   0  0  0  0  0  0  0  0  0  0  0  0
  -19.3975  -44.4140   -6.5313 C   0  0  0  0  0  0  0  0  0  0  0  0
  -18.3235  -42.2810   -6.8005 C   0  0  0  0  0  0  0  0  0  0  0  0
  -17.6633  -42.6440   -5.7147 O   0  0  0  0  0  0  0  0  0  0  0  0
  -17.7381  -41.1596   -7.3736 N   0  0  0  0  0  0  0  0  0  0  0  0
  -18.3768  -39.9070   -7.7093 C   0  0  1  0  0  0  0  0  0  0  0  0
  -19.1417  -39.2744   -6.6301 C   0  0  0  0  0  0  0  0  0  0  0  0
  -20.6229  -39.4079   -6.5622 C   0  0  0  0  0  0  0  0  0  0  0  0
  -21.6127  -39.2568   -7.5057 C   0  0  0  0  0  0  0  0  0  0  0  0
  -22.9086  -39.4572   -7.1200 C   0  0  0  0  0  0  0  0  0  0  0  0
  -24.1604  -39.3867   -7.9232 C   0  0  0  0  0  0  0  0  0  0  0  0
  -24.4536  -40.6504   -8.7175 C   0  0  0  0  0  0  0  0  0  0  0  0
  -23.9243  -41.8753   -8.0057 C   0  0  0  0  0  0  0  0  0  0  0  0
  -23.9078  -43.0905   -8.8892 C   0  0  0  0  0  0  0  0  0  0  0  0
  -22.7445  -43.7982   -8.7732 O   0  0  0  0  0  0  0  0  0  0  0  0
  -23.2139  -39.8105   -5.7808 C   0  0  0  0  0  0  0  0  0  0  0  0
  -22.2651  -39.9703   -4.8111 C   0  0  0  0  0  0  0  0  0  0  0  0
  -20.9786  -39.7620   -5.2350 C   0  0  0  0  0  0  0  0  0  0  0  0
  -17.5257  -38.9366   -8.4283 C   0  0  2  0  0  0  0  0  0  0  0  0
  -18.3183  -38.0226   -9.1884 O   0  0  0  0  0  0  0  0  0  0  0  0
  -16.4636  -39.4198   -9.3329 C   0  0  0  0  0  0  0  0  0  0  0  0
  -15.2114  -39.7732   -8.7546 N   0  0  0  0  0  0  0  0  0  0  0  0
  -14.2919  -40.3357   -9.7496 C   0  0  0  0  0  0  0  0  0  0  0  0
  -13.4742  -41.5109   -9.3781 C   0  0  0  0  0  0  0  0  0  0  0  0
  -14.6634  -41.7014  -10.3326 C   0  0  0  0  0  0  0  0  0  0  0  0
  -13.8087  -39.3524  -10.7403 C   0  0  0  0  0  0  0  0  0  0  0  0
  -13.5502  -38.0468  -10.4507 C   0  0  0  0  0  0  0  0  0  0  0  0
  -13.1069  -37.1895  -11.4294 C   0  0  0  0  0  0  0  0  0  0  0  0
  -12.9259  -37.6545  -12.6973 C   0  0  0  0  0  0  0  0  0  0  0  0
  -13.1897  -38.9830  -12.9873 C   0  0  0  0  0  0  0  0  0  0  0  0
  -13.6191  -39.7823  -12.0068 N   0  0  0  0  0  0  0  0  0  0  0  0
  -12.8265  -35.7722  -11.1110 C   0  0  0  0  0  0  0  0  0  0  0  0
  -12.0774  -35.5978   -9.8167 C   0  0  0  0  0  0  0  0  0  0  0  0
  -12.0546  -35.1331  -12.2349 C   0  0  0  0  0  0  0  0  0  0  0  0
  -14.1564  -35.0377  -10.9957 C   0  0  0  0  0  0  0  0  0  0  0  0
  1  2  1  0
  2  3  2  0
  2  4  1  0
  4  5  1  0
  5  6  1  0
  6  7  2  0
  7  8  1  0
  8  9  2  0
  9 10  1  0
 10 11  2  0
 10 12  1  0
 12 13  2  0
 12 14  1  0
 14 15  1  0
 15 16  1  1
 16 17  1  0
 17 18  1  0
 18 19  2  0
 19 20  1  0
 20 21  1  0
 21 22  1  0
 22 23  1  0
 23 24  1  0
 19 25  1  0
 25 26  2  0
 26 27  1  0
 15 28  1  0
 28 29  1  6
 28 30  1  0
 30 31  1  0
 31 32  1  0
 32 33  1  0
 33 34  1  0
 32 35  1  0
 35 36  2  0
 36 37  1  0
 37 38  2  0
 38 39  1  0
 39 40  2  0
 37 41  1  0
 41 42  1  0
 41 43  1  0
 41 44  1  0
 11  6  1  0
 24  8  1  0
 27 17  2  0
 34 32  1  0
 40 35  1  0
M  END
$$$$
