
     RDKit          3D

 44 48  0  0  0  0  0  0  0  0999 V2000
  -21.9233  -39.1048  -15.9905 C   0  0  0  0  0  0  0  0  0  0  0  0
  -20.5167  -39.5704  -16.0277 C   0  0  0  0  0  0  0  0  0  0  0  0
  -19.8176  -39.1729  -16.9487 O   0  0  0  0  0  0  0  0  0  0  0  0
  -19.9081  -40.4781  -15.0254 C   0  0  0  0  0  0  0  0  0  0  0  0
  -20.6759  -40.5997  -13.8799 O   0  0  0  0  0  0  0  0  0  0  0  0
  -20.3570  -40.0909  -12.6201 C   0  0  0  0  0  0  0  0  0  0  0  0
  -21.1268  -39.1603  -11.9814 C   0  0  0  0  0  0  0  0  0  0  0  0
  -20.7969  -38.6501  -10.7112 C   0  0  0  0  0  0  0  0  0  0  0  0
  -19.6529  -39.0900  -10.0583 C   0  0  0  0  0  0  0  0  0  0  0  0
  -18.8545  -40.0242  -10.6649 C   0  0  0  0  0  0  0  0  0  0  0  0
  -19.2419  -40.5001  -11.9483 C   0  0  0  0  0  0  0  0  0  0  0  0
  -17.5988  -40.6705  -10.2027 C   0  0  0  0  0  0  0  0  0  0  0  0
  -17.3122  -41.8195  -10.7894 O   0  0  0  0  0  0  0  0  0  0  0  0
  -16.6223  -40.3433   -9.2710 N   0  0  0  0  0  0  0  0  0  0  0  0
  -16.8099  -40.0236   -7.8738 C   0  0  1  0  0  0  0  0  0  0  0  0
  -17.5894  -40.9941   -7.0990 C   0  0  0  0  0  0  0  0  0  0  0  0
  -19.0298  -40.7586   -6.8051 C   0  0  0  0  0  0  0  0  0  0  0  0
  -19.7136  -39.6621   -6.3332 C   0  0  0  0  0  0  0  0  0  0  0  0
  -21.0669  -39.7655   -6.1712 C   0  0  0  0  0  0  0  0  0  0  0  0
  -22.0487  -38.7464   -5.7078 C   0  0  0  0  0  0  0  0  0  0  0  0
  -22.4942  -37.7819   -6.7963 C   0  0  0  0  0  0  0  0  0  0  0  0
  -22.4829  -38.4500   -8.1530 C   0  0  0  0  0  0  0  0  0  0  0  0
  -22.6055  -37.4636   -9.2798 C   0  0  0  0  0  0  0  0  0  0  0  0
  -21.7308  -37.7283  -10.2959 O   0  0  0  0  0  0  0  0  0  0  0  0
  -21.7382  -40.9752   -6.4836 C   0  0  0  0  0  0  0  0  0  0  0  0
  -21.1008  -42.0884   -6.9533 C   0  0  0  0  0  0  0  0  0  0  0  0
  -19.7459  -41.9467   -7.1032 C   0  0  0  0  0  0  0  0  0  0  0  0
  -15.5935  -39.5898   -7.1561 C   0  0  2  0  0  0  0  0  0  0  0  0
  -15.8273  -38.3791   -6.4343 O   0  0  0  0  0  0  0  0  0  0  0  0
  -14.3323  -39.3957   -7.8986 C   0  0  0  0  0  0  0  0  0  0  0  0
  -14.4156  -38.8695   -9.2191 N   0  0  0  0  0  0  0  0  0  0  0  0
  -14.4738  -39.9344  -10.2264 C   0  0  0  0  0  0  0  0  0  0  0  0
  -15.7968  -40.4503  -10.6403 C   0  0  0  0  0  0  0  0  0  0  0  0
  -15.0138  -39.5461  -11.6050 C   0  0  0  0  0  0  0  0  0  0  0  0
  -13.2756  -40.7978  -10.2535 C   0  0  0  0  0  0  0  0  0  0  0  0
  -12.6272  -41.2322   -9.1372 C   0  0  0  0  0  0  0  0  0  0  0  0
  -11.5134  -42.0307   -9.2435 C   0  0  0  0  0  0  0  0  0  0  0  0
  -11.0590  -42.3879  -10.4774 C   0  0  0  0  0  0  0  0  0  0  0  0
  -11.7217  -41.9441  -11.6099 C   0  0  0  0  0  0  0  0  0  0  0  0
  -12.8000  -41.1696  -11.4619 N   0  0  0  0  0  0  0  0  0  0  0  0
  -10.8121  -42.5012   -8.0288 C   0  0  0  0  0  0  0  0  0  0  0  0
  -11.6562  -43.4132   -7.1789 C   0  0  0  0  0  0  0  0  0  0  0  0
   -9.5334  -43.1999   -8.4085 C   0  0  0  0  0  0  0  0  0  0  0  0
  -10.4357  -41.2834   -7.1942 C   0  0  0  0  0  0  0  0  0  0  0  0
  1  2  1  0
  2  3  2  0
  2  4  1  0
  4  5  1  0
  5  6  1  0
  6  7  2  0
  7  8  1  0
  8  9  2  0
  9 10  1  0
 10 11  2  0
 10 12  1  0
 12 13  2  0
 12 14  1  0
 14 15  1  0
 15 16  1  1
 16 17  1  0
 17 18  1  0
 18 19  2  0
 19 20  1  0
 20 21  1  0
 21 22  1  0
 22 23  1  0
 23 24  1  0
 19 25  1  0
 25 26  2  0
 26 27  1  0
 15 28  1  0
 28 29  1  6
 28 30  1  0
 30 31  1  0
 31 32  1  0
 32 33  1  0
 33 34  1  0
 32 35  1  0
 35 36  2  0
 36 37  1  0
 37 38  2  0
 38 39  1  0
 39 40  2  0
 37 41  1  0
 41 42  1  0
 41 43  1  0
 41 44  1  0
 11  6  1  0
 24  8  1  0
 27 17  2  0
 34 32  1  0
 40 35  1  0
M  END
$$$$
