
     RDKit          3D

 44 48  0  0  0  0  0  0  0  0999 V2000
  -20.8183  -37.3565  -13.9718 C   0  0  0  0  0  0  0  0  0  0  0  0
  -21.9070  -36.6962  -13.2132 C   0  0  0  0  0  0  0  0  0  0  0  0
  -22.9683  -36.5183  -13.7937 O   0  0  0  0  0  0  0  0  0  0  0  0
  -21.7922  -36.2440  -11.8057 C   0  0  0  0  0  0  0  0  0  0  0  0
  -22.3807  -37.1231  -10.9130 O   0  0  0  0  0  0  0  0  0  0  0  0
  -21.7618  -37.7065   -9.8064 C   0  0  0  0  0  0  0  0  0  0  0  0
  -22.4020  -37.8948   -8.6143 C   0  0  0  0  0  0  0  0  0  0  0  0
  -21.7697  -38.4820   -7.5018 C   0  0  0  0  0  0  0  0  0  0  0  0
  -20.4467  -38.8952   -7.5888 C   0  0  0  0  0  0  0  0  0  0  0  0
  -19.7696  -38.7251   -8.7681 C   0  0  0  0  0  0  0  0  0  0  0  0
  -20.4639  -38.1252   -9.8551 C   0  0  0  0  0  0  0  0  0  0  0  0
  -18.3751  -39.0763   -9.1424 C   0  0  0  0  0  0  0  0  0  0  0  0
  -18.1573  -39.1949  -10.4405 O   0  0  0  0  0  0  0  0  0  0  0  0
  -17.2078  -39.3167   -8.4294 N   0  0  0  0  0  0  0  0  0  0  0  0
  -17.0115  -40.2627   -7.3542 C   0  0  1  0  0  0  0  0  0  0  0  0
  -17.4290  -41.6398   -7.6353 C   0  0  0  0  0  0  0  0  0  0  0  0
  -18.7374  -42.1571   -7.1483 C   0  0  0  0  0  0  0  0  0  0  0  0
  -19.3612  -42.0977   -5.9236 C   0  0  0  0  0  0  0  0  0  0  0  0
  -20.5909  -42.6808   -5.7962 C   0  0  0  0  0  0  0  0  0  0  0  0
  -21.4928  -42.7470   -4.6132 C   0  0  0  0  0  0  0  0  0  0  0  0
  -22.3312  -41.4946   -4.4082 C   0  0  0  0  0  0  0  0  0  0  0  0
  -22.6483  -40.8300   -5.7292 C   0  0  0  0  0  0  0  0  0  0  0  0
  -23.1929  -39.4403   -5.5566 C   0  0  0  0  0  0  0  0  0  0  0  0
  -22.6303  -38.5524   -6.4299 O   0  0  0  0  0  0  0  0  0  0  0  0
  -21.1982  -43.3276   -6.9027 C   0  0  0  0  0  0  0  0  0  0  0  0
  -20.6162  -43.4119   -8.1357 C   0  0  0  0  0  0  0  0  0  0  0  0
  -19.3854  -42.8158   -8.2251 C   0  0  0  0  0  0  0  0  0  0  0  0
  -15.6891  -40.2073   -6.6975 C   0  0  2  0  0  0  0  0  0  0  0  0
  -15.6207  -39.1216   -5.7712 O   0  0  0  0  0  0  0  0  0  0  0  0
  -14.4639  -40.1333   -7.5180 C   0  0  0  0  0  0  0  0  0  0  0  0
  -14.5803  -40.4156   -8.9087 N   0  0  0  0  0  0  0  0  0  0  0  0
  -13.2675  -40.5099   -9.5565 C   0  0  0  0  0  0  0  0  0  0  0  0
  -12.1141  -40.9833   -8.7607 C   0  0  0  0  0  0  0  0  0  0  0  0
  -12.7285  -41.9193   -9.8131 C   0  0  0  0  0  0  0  0  0  0  0  0
  -13.0849  -39.5656  -10.6776 C   0  0  0  0  0  0  0  0  0  0  0  0
  -13.3250  -38.2277  -10.5903 C   0  0  0  0  0  0  0  0  0  0  0  0
  -13.1363  -37.4123  -11.6807 C   0  0  0  0  0  0  0  0  0  0  0  0
  -12.7052  -37.9517  -12.8554 C   0  0  0  0  0  0  0  0  0  0  0  0
  -12.4620  -39.3127  -12.9395 C   0  0  0  0  0  0  0  0  0  0  0  0
  -12.6582  -40.0692  -11.8562 N   0  0  0  0  0  0  0  0  0  0  0  0
  -13.3974  -35.9595  -11.5820 C   0  0  0  0  0  0  0  0  0  0  0  0
  -13.2199  -35.2401  -12.8926 C   0  0  0  0  0  0  0  0  0  0  0  0
  -14.7872  -35.7191  -11.0546 C   0  0  0  0  0  0  0  0  0  0  0  0
  -12.4190  -35.3669  -10.5756 C   0  0  0  0  0  0  0  0  0  0  0  0
  1  2  1  0
  2  3  2  0
  2  4  1  0
  4  5  1  0
  5  6  1  0
  6  7  2  0
  7  8  1  0
  8  9  2  0
  9 10  1  0
 10 11  2  0
 10 12  1  0
 12 13  2  0
 12 14  1  0
 14 15  1  0
 15 16  1  6
 16 17  1  0
 17 18  1  0
 18 19  2  0
 19 20  1  0
 20 21  1  0
 21 22  1  0
 22 23  1  0
 23 24  1  0
 19 25  1  0
 25 26  2  0
 26 27  1  0
 15 28  1  0
 28 29  1  1
 28 30  1  0
 30 31  1  0
 31 32  1  0
 32 33  1  0
 33 34  1  0
 32 35  1  0
 35 36  2  0
 36 37  1  0
 37 38  2  0
 38 39  1  0
 39 40  2  0
 37 41  1  0
 41 42  1  0
 41 43  1  0
 41 44  1  0
 11  6  1  0
 24  8  1  0
 27 17  2  0
 34 32  1  0
 40 35  1  0
M  END
$$$$
