
     RDKit          3D

 44 48  0  0  0  0  0  0  0  0999 V2000
  -16.8610  -46.2389  -11.4122 C   0  0  0  0  0  0  0  0  0  0  0  0
  -18.2912  -46.6221  -11.4795 C   0  0  0  0  0  0  0  0  0  0  0  0
  -18.5563  -47.7250  -11.9360 O   0  0  0  0  0  0  0  0  0  0  0  0
  -19.4112  -45.7608  -11.0295 C   0  0  0  0  0  0  0  0  0  0  0  0
  -19.5666  -44.6328  -11.8168 O   0  0  0  0  0  0  0  0  0  0  0  0
  -19.0796  -43.3571  -11.5286 C   0  0  0  0  0  0  0  0  0  0  0  0
  -18.3397  -42.6293  -12.4171 C   0  0  0  0  0  0  0  0  0  0  0  0
  -17.8499  -41.3437  -12.1178 C   0  0  0  0  0  0  0  0  0  0  0  0
  -18.1123  -40.7675  -10.8818 C   0  0  0  0  0  0  0  0  0  0  0  0
  -18.8523  -41.4647   -9.9629 C   0  0  0  0  0  0  0  0  0  0  0  0
  -19.3180  -42.7589  -10.3254 C   0  0  0  0  0  0  0  0  0  0  0  0
  -19.2867  -41.0963   -8.5904 C   0  0  0  0  0  0  0  0  0  0  0  0
  -20.3309  -41.7665   -8.1353 O   0  0  0  0  0  0  0  0  0  0  0  0
  -18.8413  -40.1863   -7.6405 N   0  0  0  0  0  0  0  0  0  0  0  0
  -18.6389  -38.7649   -7.8095 C   0  0  1  0  0  0  0  0  0  0  0  0
  -19.7754  -38.0226   -8.3636 C   0  0  0  0  0  0  0  0  0  0  0  0
  -19.8198  -37.6558   -9.8058 C   0  0  0  0  0  0  0  0  0  0  0  0
  -18.8922  -37.0872  -10.6479 C   0  0  0  0  0  0  0  0  0  0  0  0
  -19.2464  -36.8771  -11.9512 C   0  0  0  0  0  0  0  0  0  0  0  0
  -18.4481  -36.3097  -13.0728 C   0  0  0  0  0  0  0  0  0  0  0  0
  -17.5205  -37.3152  -13.7377 C   0  0  0  0  0  0  0  0  0  0  0  0
  -18.0992  -38.7112  -13.6782 C   0  0  0  0  0  0  0  0  0  0  0  0
  -17.0899  -39.7667  -14.0317 C   0  0  0  0  0  0  0  0  0  0  0  0
  -17.1358  -40.8325  -13.1776 O   0  0  0  0  0  0  0  0  0  0  0  0
  -20.5379  -37.2384  -12.4127 C   0  0  0  0  0  0  0  0  0  0  0  0
  -21.4903  -37.8040  -11.6132 C   0  0  0  0  0  0  0  0  0  0  0  0
  -21.0989  -37.9997  -10.3145 C   0  0  0  0  0  0  0  0  0  0  0  0
  -18.0337  -38.0712   -6.6539 C   0  0  2  0  0  0  0  0  0  0  0  0
  -16.9117  -37.2840   -7.0573 O   0  0  0  0  0  0  0  0  0  0  0  0
  -17.5965  -38.8483   -5.4771 C   0  0  0  0  0  0  0  0  0  0  0  0
  -18.5888  -39.2313   -4.5306 N   0  0  0  0  0  0  0  0  0  0  0  0
  -18.5675  -40.6755   -4.2740 C   0  0  0  0  0  0  0  0  0  0  0  0
  -17.5207  -41.4971   -4.9197 C   0  0  0  0  0  0  0  0  0  0  0  0
  -17.4155  -41.2029   -3.4152 C   0  0  0  0  0  0  0  0  0  0  0  0
  -19.8911  -41.2444   -3.9481 C   0  0  0  0  0  0  0  0  0  0  0  0
  -20.2061  -41.7916   -2.7412 C   0  0  0  0  0  0  0  0  0  0  0  0
  -21.4604  -42.3065   -2.5146 C   0  0  0  0  0  0  0  0  0  0  0  0
  -22.3919  -42.2661   -3.5081 C   0  0  0  0  0  0  0  0  0  0  0  0
  -22.0673  -41.7084   -4.7337 C   0  0  0  0  0  0  0  0  0  0  0  0
  -20.8370  -41.2195   -4.9122 N   0  0  0  0  0  0  0  0  0  0  0  0
  -21.7992  -42.8994   -1.2022 C   0  0  0  0  0  0  0  0  0  0  0  0
  -23.2447  -43.3069   -1.0971 C   0  0  0  0  0  0  0  0  0  0  0  0
  -20.9153  -44.0874   -0.9284 C   0  0  0  0  0  0  0  0  0  0  0  0
  -21.5158  -41.8618   -0.1232 C   0  0  0  0  0  0  0  0  0  0  0  0
  1  2  1  0
  2  3  2  0
  2  4  1  0
  4  5  1  0
  5  6  1  0
  6  7  2  0
  7  8  1  0
  8  9  2  0
  9 10  1  0
 10 11  2  0
 10 12  1  0
 12 13  2  0
 12 14  1  0
 14 15  1  0
 15 16  1  1
 16 17  1  0
 17 18  1  0
 18 19  2  0
 19 20  1  0
 20 21  1  0
 21 22  1  0
 22 23  1  0
 23 24  1  0
 19 25  1  0
 25 26  2  0
 26 27  1  0
 15 28  1  0
 28 29  1  6
 28 30  1  0
 30 31  1  0
 31 32  1  0
 32 33  1  0
 33 34  1  0
 32 35  1  0
 35 36  2  0
 36 37  1  0
 37 38  2  0
 38 39  1  0
 39 40  2  0
 37 41  1  0
 41 42  1  0
 41 43  1  0
 41 44  1  0
 11  6  1  0
 24  8  1  0
 27 17  2  0
 34 32  1  0
 40 35  1  0
M  END
$$$$
