
     RDKit          3D

 44 48  0  0  0  0  0  0  0  0999 V2000
  -21.3141  -39.5971  -15.9612 C   0  0  0  0  0  0  0  0  0  0  0  0
  -22.1035  -40.5755  -15.1761 C   0  0  0  0  0  0  0  0  0  0  0  0
  -23.2652  -40.7581  -15.5112 O   0  0  0  0  0  0  0  0  0  0  0  0
  -21.5771  -41.3422  -14.0212 C   0  0  0  0  0  0  0  0  0  0  0  0
  -22.3143  -41.1417  -12.8668 O   0  0  0  0  0  0  0  0  0  0  0  0
  -21.8359  -40.6068  -11.6698 C   0  0  0  0  0  0  0  0  0  0  0  0
  -22.5976  -39.8176  -10.8552 C   0  0  0  0  0  0  0  0  0  0  0  0
  -22.1068  -39.2798   -9.6502 C   0  0  0  0  0  0  0  0  0  0  0  0
  -20.8040  -39.5436   -9.2480 C   0  0  0  0  0  0  0  0  0  0  0  0
  -20.0077  -40.3323  -10.0368 C   0  0  0  0  0  0  0  0  0  0  0  0
  -20.5620  -40.8451  -11.2422 C   0  0  0  0  0  0  0  0  0  0  0  0
  -18.6028  -40.7797   -9.8521 C   0  0  0  0  0  0  0  0  0  0  0  0
  -18.2660  -41.8611  -10.5331 O   0  0  0  0  0  0  0  0  0  0  0  0
  -17.5238  -40.3162   -9.1106 N   0  0  0  0  0  0  0  0  0  0  0  0
  -17.4806  -40.0496   -7.6905 C   0  0  1  0  0  0  0  0  0  0  0  0
  -17.9374  -41.1412   -6.8248 C   0  0  0  0  0  0  0  0  0  0  0  0
  -19.3112  -41.1390   -6.2510 C   0  0  0  0  0  0  0  0  0  0  0  0
  -20.0474  -40.1702   -5.6090 C   0  0  0  0  0  0  0  0  0  0  0  0
  -21.3113  -40.4871   -5.1962 C   0  0  0  0  0  0  0  0  0  0  0  0
  -22.3261  -39.6415   -4.5090 C   0  0  0  0  0  0  0  0  0  0  0  0
  -23.1167  -38.7438   -5.4485 C   0  0  0  0  0  0  0  0  0  0  0  0
  -23.2701  -39.3828   -6.8107 C   0  0  0  0  0  0  0  0  0  0  0  0
  -23.7586  -38.4123   -7.8485 C   0  0  0  0  0  0  0  0  0  0  0  0
  -23.0699  -38.5220   -9.0237 O   0  0  0  0  0  0  0  0  0  0  0  0
  -21.8398  -41.7828   -5.4277 C   0  0  0  0  0  0  0  0  0  0  0  0
  -21.1456  -42.7753   -6.0594 C   0  0  0  0  0  0  0  0  0  0  0  0
  -19.8836  -42.4206   -6.4590 C   0  0  0  0  0  0  0  0  0  0  0  0
  -16.2273  -39.4401   -7.2000 C   0  0  2  0  0  0  0  0  0  0  0  0
  -16.4830  -38.1966   -6.5444 O   0  0  0  0  0  0  0  0  0  0  0  0
  -15.1130  -39.1960   -8.1373 C   0  0  0  0  0  0  0  0  0  0  0  0
  -15.3602  -39.3940   -9.5255 N   0  0  0  0  0  0  0  0  0  0  0  0
  -14.3402  -40.2483  -10.1434 C   0  0  0  0  0  0  0  0  0  0  0  0
  -14.3095  -41.6853   -9.7944 C   0  0  0  0  0  0  0  0  0  0  0  0
  -14.8308  -41.2646  -11.1774 C   0  0  0  0  0  0  0  0  0  0  0  0
  -13.1071  -39.5286  -10.5220 C   0  0  0  0  0  0  0  0  0  0  0  0
  -13.0170  -38.1726  -10.6138 C   0  0  0  0  0  0  0  0  0  0  0  0
  -11.8339  -37.5749  -10.9779 C   0  0  0  0  0  0  0  0  0  0  0  0
  -10.7459  -38.3495  -11.2475 C   0  0  0  0  0  0  0  0  0  0  0  0
  -10.8419  -39.7280  -11.1527 C   0  0  0  0  0  0  0  0  0  0  0  0
  -12.0104  -40.2683  -10.7957 N   0  0  0  0  0  0  0  0  0  0  0  0
  -11.7396  -36.1017  -11.0758 C   0  0  0  0  0  0  0  0  0  0  0  0
  -11.0903  -35.6380  -12.3525 C   0  0  0  0  0  0  0  0  0  0  0  0
  -13.1084  -35.4869  -10.9495 C   0  0  0  0  0  0  0  0  0  0  0  0
  -10.9041  -35.5990   -9.9051 C   0  0  0  0  0  0  0  0  0  0  0  0
  1  2  1  0
  2  3  2  0
  2  4  1  0
  4  5  1  0
  5  6  1  0
  6  7  2  0
  7  8  1  0
  8  9  2  0
  9 10  1  0
 10 11  2  0
 10 12  1  0
 12 13  2  0
 12 14  1  0
 14 15  1  0
 15 16  1  1
 16 17  1  0
 17 18  1  0
 18 19  2  0
 19 20  1  0
 20 21  1  0
 21 22  1  0
 22 23  1  0
 23 24  1  0
 19 25  1  0
 25 26  2  0
 26 27  1  0
 15 28  1  0
 28 29  1  6
 28 30  1  0
 30 31  1  0
 31 32  1  0
 32 33  1  0
 33 34  1  0
 32 35  1  0
 35 36  2  0
 36 37  1  0
 37 38  2  0
 38 39  1  0
 39 40  2  0
 37 41  1  0
 41 42  1  0
 41 43  1  0
 41 44  1  0
 11  6  1  0
 24  8  1  0
 27 17  2  0
 34 32  1  0
 40 35  1  0
M  END
$$$$
