
     RDKit          3D

 44 48  0  0  0  0  0  0  0  0999 V2000
  -16.4298  -43.8052  -13.3363 C   0  0  0  0  0  0  0  0  0  0  0  0
  -17.7230  -44.4953  -13.1171 C   0  0  0  0  0  0  0  0  0  0  0  0
  -17.6948  -45.5691  -12.5329 O   0  0  0  0  0  0  0  0  0  0  0  0
  -19.0382  -43.9689  -13.5553 C   0  0  0  0  0  0  0  0  0  0  0  0
  -19.9597  -43.9092  -12.5241 O   0  0  0  0  0  0  0  0  0  0  0  0
  -20.1022  -42.8643  -11.6099 C   0  0  0  0  0  0  0  0  0  0  0  0
  -21.2803  -42.1973  -11.4262 C   0  0  0  0  0  0  0  0  0  0  0  0
  -21.4152  -41.1425  -10.5034 C   0  0  0  0  0  0  0  0  0  0  0  0
  -20.3283  -40.7425   -9.7372 C   0  0  0  0  0  0  0  0  0  0  0  0
  -19.1287  -41.3873   -9.8908 C   0  0  0  0  0  0  0  0  0  0  0  0
  -19.0568  -42.4447  -10.8395 C   0  0  0  0  0  0  0  0  0  0  0  0
  -17.8248  -41.1803   -9.2089 C   0  0  0  0  0  0  0  0  0  0  0  0
  -17.0034  -42.2150   -9.2464 O   0  0  0  0  0  0  0  0  0  0  0  0
  -17.2445  -40.1234   -8.5198 N   0  0  0  0  0  0  0  0  0  0  0  0
  -17.7916  -39.3993   -7.3946 C   0  0  1  0  0  0  0  0  0  0  0  0
  -18.2446  -40.2222   -6.2689 C   0  0  0  0  0  0  0  0  0  0  0  0
  -19.6866  -40.5462   -6.0895 C   0  0  0  0  0  0  0  0  0  0  0  0
  -20.8236  -39.7727   -6.1287 C   0  0  0  0  0  0  0  0  0  0  0  0
  -22.0285  -40.3847   -5.9232 C   0  0  0  0  0  0  0  0  0  0  0  0
  -23.4010  -39.8075   -5.9334 C   0  0  0  0  0  0  0  0  0  0  0  0
  -23.9908  -39.6480   -7.3264 C   0  0  0  0  0  0  0  0  0  0  0  0
  -23.4705  -40.7154   -8.2629 C   0  0  0  0  0  0  0  0  0  0  0  0
  -23.7718  -40.4120   -9.7033 C   0  0  0  0  0  0  0  0  0  0  0  0
  -22.6973  -40.6419  -10.5157 O   0  0  0  0  0  0  0  0  0  0  0  0
  -22.0936  -41.7799   -5.6766 C   0  0  0  0  0  0  0  0  0  0  0  0
  -20.9921  -42.5863   -5.6277 C   0  0  0  0  0  0  0  0  0  0  0  0
  -19.8033  -41.9380   -5.8388 C   0  0  0  0  0  0  0  0  0  0  0  0
  -16.9997  -38.2350   -6.9472 C   0  0  2  0  0  0  0  0  0  0  0  0
  -17.8442  -37.1186   -6.6612 O   0  0  0  0  0  0  0  0  0  0  0  0
  -15.9037  -37.7229   -7.7935 C   0  0  0  0  0  0  0  0  0  0  0  0
  -15.1692  -38.6655   -8.5677 N   0  0  0  0  0  0  0  0  0  0  0  0
  -14.9933  -38.2132   -9.9521 C   0  0  0  0  0  0  0  0  0  0  0  0
  -16.1921  -38.0356  -10.8000 C   0  0  0  0  0  0  0  0  0  0  0  0
  -15.4596  -36.7914  -10.2740 C   0  0  0  0  0  0  0  0  0  0  0  0
  -13.6903  -38.5838  -10.5411 C   0  0  0  0  0  0  0  0  0  0  0  0
  -12.8566  -37.7002  -11.1571 C   0  0  0  0  0  0  0  0  0  0  0  0
  -11.6602  -38.1224  -11.6862 C   0  0  0  0  0  0  0  0  0  0  0  0
  -11.3103  -39.4357  -11.5906 C   0  0  0  0  0  0  0  0  0  0  0  0
  -12.1610  -40.3307  -10.9630 C   0  0  0  0  0  0  0  0  0  0  0  0
  -13.3143  -39.8788  -10.4626 N   0  0  0  0  0  0  0  0  0  0  0  0
  -10.7569  -37.1597  -12.3540 C   0  0  0  0  0  0  0  0  0  0  0  0
  -10.6153  -37.4141  -13.8311 C   0  0  0  0  0  0  0  0  0  0  0  0
  -11.2412  -35.7524  -12.1250 C   0  0  0  0  0  0  0  0  0  0  0  0
   -9.3788  -37.2774  -11.7149 C   0  0  0  0  0  0  0  0  0  0  0  0
  1  2  1  0
  2  3  2  0
  2  4  1  0
  4  5  1  0
  5  6  1  0
  6  7  2  0
  7  8  1  0
  8  9  2  0
  9 10  1  0
 10 11  2  0
 10 12  1  0
 12 13  2  0
 12 14  1  0
 14 15  1  0
 15 16  1  1
 16 17  1  0
 17 18  1  0
 18 19  2  0
 19 20  1  0
 20 21  1  0
 21 22  1  0
 22 23  1  0
 23 24  1  0
 19 25  1  0
 25 26  2  0
 26 27  1  0
 15 28  1  0
 28 29  1  6
 28 30  1  0
 30 31  1  0
 31 32  1  0
 32 33  1  0
 33 34  1  0
 32 35  1  0
 35 36  2  0
 36 37  1  0
 37 38  2  0
 38 39  1  0
 39 40  2  0
 37 41  1  0
 41 42  1  0
 41 43  1  0
 41 44  1  0
 11  6  1  0
 24  8  1  0
 27 17  2  0
 34 32  1  0
 40 35  1  0
M  END
$$$$
