
     RDKit          3D

 44 48  0  0  0  0  0  0  0  0999 V2000
  -24.8019  -45.5665  -13.3147 C   0  0  0  0  0  0  0  0  0  0  0  0
  -23.9905  -45.0267  -12.1980 C   0  0  0  0  0  0  0  0  0  0  0  0
  -24.4403  -45.1469  -11.0674 O   0  0  0  0  0  0  0  0  0  0  0  0
  -22.6773  -44.3581  -12.3638 C   0  0  0  0  0  0  0  0  0  0  0  0
  -22.7794  -42.9777  -12.3785 O   0  0  0  0  0  0  0  0  0  0  0  0
  -22.3029  -42.1087  -11.3958 C   0  0  0  0  0  0  0  0  0  0  0  0
  -23.1058  -41.2139  -10.7469 C   0  0  0  0  0  0  0  0  0  0  0  0
  -22.6169  -40.3389   -9.7582 C   0  0  0  0  0  0  0  0  0  0  0  0
  -21.2733  -40.3627   -9.4080 C   0  0  0  0  0  0  0  0  0  0  0  0
  -20.4348  -41.2471  -10.0349 C   0  0  0  0  0  0  0  0  0  0  0  0
  -20.9895  -42.1044  -11.0252 C   0  0  0  0  0  0  0  0  0  0  0  0
  -18.9803  -41.4938   -9.8566 C   0  0  0  0  0  0  0  0  0  0  0  0
  -18.5587  -42.6763  -10.2695 O   0  0  0  0  0  0  0  0  0  0  0  0
  -17.9238  -40.7527   -9.3434 N   0  0  0  0  0  0  0  0  0  0  0  0
  -17.8369  -40.1263   -8.0435 C   0  0  1  0  0  0  0  0  0  0  0  0
  -18.1203  -40.9969   -6.8983 C   0  0  0  0  0  0  0  0  0  0  0  0
  -19.4534  -40.9799   -6.2357 C   0  0  0  0  0  0  0  0  0  0  0  0
  -20.2605  -39.9543   -5.8004 C   0  0  0  0  0  0  0  0  0  0  0  0
  -21.4567  -40.2749   -5.2218 C   0  0  0  0  0  0  0  0  0  0  0  0
  -22.5238  -39.3831   -4.6898 C   0  0  0  0  0  0  0  0  0  0  0  0
  -23.4597  -38.8386   -5.7582 C   0  0  0  0  0  0  0  0  0  0  0  0
  -23.6104  -39.8188   -6.9000 C   0  0  0  0  0  0  0  0  0  0  0  0
  -24.2601  -39.2004   -8.1055 C   0  0  0  0  0  0  0  0  0  0  0  0
  -23.6259  -39.5421   -9.2668 O   0  0  0  0  0  0  0  0  0  0  0  0
  -21.8455  -41.6313   -5.0785 C   0  0  0  0  0  0  0  0  0  0  0  0
  -21.0769  -42.6811   -5.4946 C   0  0  0  0  0  0  0  0  0  0  0  0
  -19.8862  -42.3209   -6.0697 C   0  0  0  0  0  0  0  0  0  0  0  0
  -16.6371  -39.2927   -7.8229 C   0  0  2  0  0  0  0  0  0  0  0  0
  -16.9977  -37.9458   -7.5112 O   0  0  0  0  0  0  0  0  0  0  0  0
  -15.5948  -39.2147   -8.8657 C   0  0  0  0  0  0  0  0  0  0  0  0
  -14.4566  -40.0591   -8.7286 N   0  0  0  0  0  0  0  0  0  0  0  0
  -13.7651  -40.2522  -10.0079 C   0  0  0  0  0  0  0  0  0  0  0  0
  -12.4170  -40.8607  -10.0028 C   0  0  0  0  0  0  0  0  0  0  0  0
  -13.6103  -41.6956  -10.4932 C   0  0  0  0  0  0  0  0  0  0  0  0
  -14.1634  -39.2885  -11.0541 C   0  0  0  0  0  0  0  0  0  0  0  0
  -14.8818  -38.1572  -10.8107 C   0  0  0  0  0  0  0  0  0  0  0  0
  -15.2194  -37.3102  -11.8393 C   0  0  0  0  0  0  0  0  0  0  0  0
  -14.8293  -37.6090  -13.1102 C   0  0  0  0  0  0  0  0  0  0  0  0
  -14.0986  -38.7604  -13.3531 C   0  0  0  0  0  0  0  0  0  0  0  0
  -13.7918  -39.5562  -12.3249 N   0  0  0  0  0  0  0  0  0  0  0  0
  -15.9992  -36.0819  -11.5711 C   0  0  0  0  0  0  0  0  0  0  0  0
  -15.1738  -34.8272  -11.6758 C   0  0  0  0  0  0  0  0  0  0  0  0
  -17.1718  -35.9987  -12.5122 C   0  0  0  0  0  0  0  0  0  0  0  0
  -16.5559  -36.1706  -10.1557 C   0  0  0  0  0  0  0  0  0  0  0  0
  1  2  1  0
  2  3  2  0
  2  4  1  0
  4  5  1  0
  5  6  1  0
  6  7  2  0
  7  8  1  0
  8  9  2  0
  9 10  1  0
 10 11  2  0
 10 12  1  0
 12 13  2  0
 12 14  1  0
 14 15  1  0
 15 16  1  1
 16 17  1  0
 17 18  1  0
 18 19  2  0
 19 20  1  0
 20 21  1  0
 21 22  1  0
 22 23  1  0
 23 24  1  0
 19 25  1  0
 25 26  2  0
 26 27  1  0
 15 28  1  0
 28 29  1  6
 28 30  1  0
 30 31  1  0
 31 32  1  0
 32 33  1  0
 33 34  1  0
 32 35  1  0
 35 36  2  0
 36 37  1  0
 37 38  2  0
 38 39  1  0
 39 40  2  0
 37 41  1  0
 41 42  1  0
 41 43  1  0
 41 44  1  0
 11  6  1  0
 24  8  1  0
 27 17  2  0
 34 32  1  0
 40 35  1  0
M  END
$$$$
