
     RDKit          3D

 44 48  0  0  0  0  0  0  0  0999 V2000
  -17.9641  -48.9382   -8.3757 C   0  0  0  0  0  0  0  0  0  0  0  0
  -19.3228  -48.4293   -8.0731 C   0  0  0  0  0  0  0  0  0  0  0  0
  -19.8704  -48.8543   -7.0658 O   0  0  0  0  0  0  0  0  0  0  0  0
  -20.0529  -47.4436   -8.9063 C   0  0  0  0  0  0  0  0  0  0  0  0
  -20.7208  -46.4961   -8.1499 O   0  0  0  0  0  0  0  0  0  0  0  0
  -20.6261  -45.1115   -8.2982 C   0  0  0  0  0  0  0  0  0  0  0  0
  -21.5857  -44.3669   -8.9237 C   0  0  0  0  0  0  0  0  0  0  0  0
  -21.4815  -42.9706   -9.0713 C   0  0  0  0  0  0  0  0  0  0  0  0
  -20.3740  -42.2971   -8.5731 C   0  0  0  0  0  0  0  0  0  0  0  0
  -19.3895  -43.0079   -7.9376 C   0  0  0  0  0  0  0  0  0  0  0  0
  -19.5533  -44.4161   -7.8209 C   0  0  0  0  0  0  0  0  0  0  0  0
  -18.1214  -42.5551   -7.3092 C   0  0  0  0  0  0  0  0  0  0  0  0
  -17.6134  -43.3841   -6.4141 O   0  0  0  0  0  0  0  0  0  0  0  0
  -17.3161  -41.4316   -7.4438 N   0  0  0  0  0  0  0  0  0  0  0  0
  -17.7100  -40.0460   -7.3231 C   0  0  1  0  0  0  0  0  0  0  0  0
  -18.4365  -39.6963   -6.0985 C   0  0  0  0  0  0  0  0  0  0  0  0
  -19.9201  -39.5724   -6.0980 C   0  0  0  0  0  0  0  0  0  0  0  0
  -20.7980  -38.9275   -6.9382 C   0  0  0  0  0  0  0  0  0  0  0  0
  -22.1342  -39.0087   -6.6619 C   0  0  0  0  0  0  0  0  0  0  0  0
  -23.2936  -38.4385   -7.4021 C   0  0  0  0  0  0  0  0  0  0  0  0
  -23.7338  -39.2747   -8.5940 C   0  0  0  0  0  0  0  0  0  0  0  0
  -23.4707  -40.7445   -8.3541 C   0  0  0  0  0  0  0  0  0  0  0  0
  -23.5918  -41.5618   -9.6092 C   0  0  0  0  0  0  0  0  0  0  0  0
  -22.5749  -42.4656   -9.7376 O   0  0  0  0  0  0  0  0  0  0  0  0
  -22.5927  -39.7401   -5.5366 C   0  0  0  0  0  0  0  0  0  0  0  0
  -21.7585  -40.3947   -4.6754 C   0  0  0  0  0  0  0  0  0  0  0  0
  -20.4274  -40.2913   -4.9848 C   0  0  0  0  0  0  0  0  0  0  0  0
  -16.6579  -39.0598   -7.6447 C   0  0  2  0  0  0  0  0  0  0  0  0
  -17.2223  -37.8661   -8.1903 O   0  0  0  0  0  0  0  0  0  0  0  0
  -15.5430  -39.4389   -8.5352 C   0  0  0  0  0  0  0  0  0  0  0  0
  -14.7283  -40.5393   -8.1446 N   0  0  0  0  0  0  0  0  0  0  0  0
  -13.3761  -40.4412   -8.7049 C   0  0  0  0  0  0  0  0  0  0  0  0
  -12.2184  -40.5294   -7.7886 C   0  0  0  0  0  0  0  0  0  0  0  0
  -12.5381  -41.7220   -8.7034 C   0  0  0  0  0  0  0  0  0  0  0  0
  -13.3023  -39.6567   -9.9543 C   0  0  0  0  0  0  0  0  0  0  0  0
  -13.5492  -38.3191  -10.0268 C   0  0  0  0  0  0  0  0  0  0  0  0
  -13.4651  -37.6582  -11.2292 C   0  0  0  0  0  0  0  0  0  0  0  0
  -13.1314  -38.3512  -12.3539 C   0  0  0  0  0  0  0  0  0  0  0  0
  -12.8808  -39.7112  -12.2755 C   0  0  0  0  0  0  0  0  0  0  0  0
  -12.9737  -40.3147  -11.0873 N   0  0  0  0  0  0  0  0  0  0  0  0
  -13.7334  -36.2053  -11.3041 C   0  0  0  0  0  0  0  0  0  0  0  0
  -13.2592  -35.4566  -10.0870 C   0  0  0  0  0  0  0  0  0  0  0  0
  -13.0950  -35.6250  -12.5383 C   0  0  0  0  0  0  0  0  0  0  0  0
  -15.2383  -36.0046  -11.4319 C   0  0  0  0  0  0  0  0  0  0  0  0
  1  2  1  0
  2  3  2  0
  2  4  1  0
  4  5  1  0
  5  6  1  0
  6  7  2  0
  7  8  1  0
  8  9  2  0
  9 10  1  0
 10 11  2  0
 10 12  1  0
 12 13  2  0
 12 14  1  0
 14 15  1  0
 15 16  1  1
 16 17  1  0
 17 18  1  0
 18 19  2  0
 19 20  1  0
 20 21  1  0
 21 22  1  0
 22 23  1  0
 23 24  1  0
 19 25  1  0
 25 26  2  0
 26 27  1  0
 15 28  1  0
 28 29  1  6
 28 30  1  0
 30 31  1  0
 31 32  1  0
 32 33  1  0
 33 34  1  0
 32 35  1  0
 35 36  2  0
 36 37  1  0
 37 38  2  0
 38 39  1  0
 39 40  2  0
 37 41  1  0
 41 42  1  0
 41 43  1  0
 41 44  1  0
 11  6  1  0
 24  8  1  0
 27 17  2  0
 34 32  1  0
 40 35  1  0
M  END
$$$$
