
     RDKit          3D

 44 48  0  0  0  0  0  0  0  0999 V2000
  -18.7649  -50.0989   -8.6206 C   0  0  0  0  0  0  0  0  0  0  0  0
  -19.0959  -48.8702   -7.8607 C   0  0  0  0  0  0  0  0  0  0  0  0
  -18.9987  -48.9196   -6.6428 O   0  0  0  0  0  0  0  0  0  0  0  0
  -19.5313  -47.5947   -8.4791 C   0  0  0  0  0  0  0  0  0  0  0  0
  -19.6229  -46.5612   -7.5627 O   0  0  0  0  0  0  0  0  0  0  0  0
  -19.8428  -45.2159   -7.8618 C   0  0  0  0  0  0  0  0  0  0  0  0
  -20.9577  -44.7762   -8.5176 C   0  0  0  0  0  0  0  0  0  0  0  0
  -21.1710  -43.4173   -8.8178 C   0  0  0  0  0  0  0  0  0  0  0  0
  -20.2310  -42.4649   -8.4463 C   0  0  0  0  0  0  0  0  0  0  0  0
  -19.0992  -42.8652   -7.7853 C   0  0  0  0  0  0  0  0  0  0  0  0
  -18.9421  -44.2522   -7.5118 C   0  0  0  0  0  0  0  0  0  0  0  0
  -17.9506  -42.0766   -7.2684 C   0  0  0  0  0  0  0  0  0  0  0  0
  -17.2511  -42.6663   -6.3147 O   0  0  0  0  0  0  0  0  0  0  0  0
  -17.4194  -40.8268   -7.5592 N   0  0  0  0  0  0  0  0  0  0  0  0
  -18.1099  -39.5568   -7.5685 C   0  0  1  0  0  0  0  0  0  0  0  0
  -18.8693  -39.2374   -6.3556 C   0  0  0  0  0  0  0  0  0  0  0  0
  -20.3428  -39.4427   -6.2992 C   0  0  0  0  0  0  0  0  0  0  0  0
  -21.3605  -39.1062   -7.1615 C   0  0  0  0  0  0  0  0  0  0  0  0
  -22.6386  -39.4464   -6.8162 C   0  0  0  0  0  0  0  0  0  0  0  0
  -23.9118  -39.2326   -7.5580 C   0  0  0  0  0  0  0  0  0  0  0  0
  -24.1802  -40.2754   -8.6323 C   0  0  0  0  0  0  0  0  0  0  0  0
  -23.5906  -41.6146   -8.2498 C   0  0  0  0  0  0  0  0  0  0  0  0
  -23.5536  -42.5763   -9.4037 C   0  0  0  0  0  0  0  0  0  0  0  0
  -22.3637  -43.2437   -9.4824 O   0  0  0  0  0  0  0  0  0  0  0  0
  -22.8977  -40.1272   -5.5992 C   0  0  0  0  0  0  0  0  0  0  0  0
  -21.9199  -40.4802   -4.7131 C   0  0  0  0  0  0  0  0  0  0  0  0
  -20.6525  -40.1234   -5.0933 C   0  0  0  0  0  0  0  0  0  0  0  0
  -17.3116  -38.4072   -8.0419 C   0  0  2  0  0  0  0  0  0  0  0  0
  -18.0240  -37.6587   -9.0286 O   0  0  0  0  0  0  0  0  0  0  0  0
  -15.9560  -38.6274   -8.5837 C   0  0  0  0  0  0  0  0  0  0  0  0
  -15.0308  -39.3511   -7.7790 N   0  0  0  0  0  0  0  0  0  0  0  0
  -13.9024  -39.8567   -8.5684 C   0  0  0  0  0  0  0  0  0  0  0  0
  -12.9791  -40.8305   -7.9464 C   0  0  0  0  0  0  0  0  0  0  0  0
  -13.9746  -41.3206   -9.0094 C   0  0  0  0  0  0  0  0  0  0  0  0
  -13.4349  -38.9203   -9.6107 C   0  0  0  0  0  0  0  0  0  0  0  0
  -13.0797  -39.3008  -10.8694 C   0  0  0  0  0  0  0  0  0  0  0  0
  -12.6488  -38.3699  -11.7844 C   0  0  0  0  0  0  0  0  0  0  0  0
  -12.5788  -37.0576  -11.4244 C   0  0  0  0  0  0  0  0  0  0  0  0
  -12.9411  -36.6751  -10.1434 C   0  0  0  0  0  0  0  0  0  0  0  0
  -13.3542  -37.6118   -9.2852 N   0  0  0  0  0  0  0  0  0  0  0  0
  -12.2646  -38.7868  -13.1509 C   0  0  0  0  0  0  0  0  0  0  0  0
  -13.0765  -39.9473  -13.6613 C   0  0  0  0  0  0  0  0  0  0  0  0
  -12.3880  -37.6240  -14.0996 C   0  0  0  0  0  0  0  0  0  0  0  0
  -10.7991  -39.2027  -13.1276 C   0  0  0  0  0  0  0  0  0  0  0  0
  1  2  1  0
  2  3  2  0
  2  4  1  0
  4  5  1  0
  5  6  1  0
  6  7  2  0
  7  8  1  0
  8  9  2  0
  9 10  1  0
 10 11  2  0
 10 12  1  0
 12 13  2  0
 12 14  1  0
 14 15  1  0
 15 16  1  1
 16 17  1  0
 17 18  1  0
 18 19  2  0
 19 20  1  0
 20 21  1  0
 21 22  1  0
 22 23  1  0
 23 24  1  0
 19 25  1  0
 25 26  2  0
 26 27  1  0
 15 28  1  0
 28 29  1  6
 28 30  1  0
 30 31  1  0
 31 32  1  0
 32 33  1  0
 33 34  1  0
 32 35  1  0
 35 36  2  0
 36 37  1  0
 37 38  2  0
 38 39  1  0
 39 40  2  0
 37 41  1  0
 41 42  1  0
 41 43  1  0
 41 44  1  0
 11  6  1  0
 24  8  1  0
 27 17  2  0
 34 32  1  0
 40 35  1  0
M  END
$$$$
