
     RDKit          3D

 44 48  0  0  0  0  0  0  0  0999 V2000
  -21.5013  -39.4034  -14.8197 C   0  0  0  0  0  0  0  0  0  0  0  0
  -20.4674  -38.4978  -14.2650 C   0  0  0  0  0  0  0  0  0  0  0  0
  -19.3329  -38.6016  -14.7092 O   0  0  0  0  0  0  0  0  0  0  0  0
  -20.7204  -37.4804  -13.2163 C   0  0  0  0  0  0  0  0  0  0  0  0
  -21.5732  -37.9360  -12.2256 O   0  0  0  0  0  0  0  0  0  0  0  0
  -21.2326  -38.1685  -10.8923 C   0  0  0  0  0  0  0  0  0  0  0  0
  -22.0394  -37.8113   -9.8493 C   0  0  0  0  0  0  0  0  0  0  0  0
  -21.6874  -38.0473   -8.5066 C   0  0  0  0  0  0  0  0  0  0  0  0
  -20.4818  -38.6644   -8.1996 C   0  0  0  0  0  0  0  0  0  0  0  0
  -19.6446  -39.0395   -9.2177 C   0  0  0  0  0  0  0  0  0  0  0  0
  -20.0571  -38.7730  -10.5527 C   0  0  0  0  0  0  0  0  0  0  0  0
  -18.3213  -39.7146   -9.1832 C   0  0  0  0  0  0  0  0  0  0  0  0
  -17.9761  -40.3267  -10.3025 O   0  0  0  0  0  0  0  0  0  0  0  0
  -17.3280  -39.8594   -8.2234 N   0  0  0  0  0  0  0  0  0  0  0  0
  -17.4702  -40.3711   -6.8789 C   0  0  1  0  0  0  0  0  0  0  0  0
  -18.1329  -41.6738   -6.7615 C   0  0  0  0  0  0  0  0  0  0  0  0
  -19.5708  -41.7698   -6.3878 C   0  0  0  0  0  0  0  0  0  0  0  0
  -20.3131  -41.1755   -5.3937 C   0  0  0  0  0  0  0  0  0  0  0  0
  -21.6447  -41.4743   -5.3156 C   0  0  0  0  0  0  0  0  0  0  0  0
  -22.6782  -40.9674   -4.3711 C   0  0  0  0  0  0  0  0  0  0  0  0
  -23.2504  -39.6115   -4.7554 C   0  0  0  0  0  0  0  0  0  0  0  0
  -23.2548  -39.4286   -6.2567 C   0  0  0  0  0  0  0  0  0  0  0  0
  -23.5091  -38.0039   -6.6608 C   0  0  0  0  0  0  0  0  0  0  0  0
  -22.6681  -37.5908   -7.6556 O   0  0  0  0  0  0  0  0  0  0  0  0
  -22.2350  -42.3744   -6.2392 C   0  0  0  0  0  0  0  0  0  0  0  0
  -21.5375  -42.9881   -7.2406 C   0  0  0  0  0  0  0  0  0  0  0  0
  -20.2068  -42.6638   -7.2877 C   0  0  0  0  0  0  0  0  0  0  0  0
  -16.2569  -40.2884   -6.0398 C   0  0  2  0  0  0  0  0  0  0  0  0
  -16.3039  -39.1485   -5.1798 O   0  0  0  0  0  0  0  0  0  0  0  0
  -14.9240  -40.2772   -6.6747 C   0  0  0  0  0  0  0  0  0  0  0  0
  -14.5103  -39.0800   -7.3248 N   0  0  0  0  0  0  0  0  0  0  0  0
  -13.7655  -39.3596   -8.5574 C   0  0  0  0  0  0  0  0  0  0  0  0
  -12.6112  -40.2823   -8.4969 C   0  0  0  0  0  0  0  0  0  0  0  0
  -13.9175  -40.7637   -9.1474 C   0  0  0  0  0  0  0  0  0  0  0  0
  -13.8164  -38.2650   -9.5479 C   0  0  0  0  0  0  0  0  0  0  0  0
  -14.4201  -38.3691  -10.7644 C   0  0  0  0  0  0  0  0  0  0  0  0
  -14.4215  -37.3061  -11.6360 C   0  0  0  0  0  0  0  0  0  0  0  0
  -13.8134  -36.1415  -11.2749 C   0  0  0  0  0  0  0  0  0  0  0  0
  -13.2009  -36.0400  -10.0367 C   0  0  0  0  0  0  0  0  0  0  0  0
  -13.2224  -37.0969   -9.2200 N   0  0  0  0  0  0  0  0  0  0  0  0
  -15.0789  -37.4226  -12.9562 C   0  0  0  0  0  0  0  0  0  0  0  0
  -14.6911  -36.3200  -13.9051 C   0  0  0  0  0  0  0  0  0  0  0  0
  -14.7635  -38.7591  -13.5741 C   0  0  0  0  0  0  0  0  0  0  0  0
  -16.5865  -37.3624  -12.7447 C   0  0  0  0  0  0  0  0  0  0  0  0
  1  2  1  0
  2  3  2  0
  2  4  1  0
  4  5  1  0
  5  6  1  0
  6  7  2  0
  7  8  1  0
  8  9  2  0
  9 10  1  0
 10 11  2  0
 10 12  1  0
 12 13  2  0
 12 14  1  0
 14 15  1  0
 15 16  1  6
 16 17  1  0
 17 18  1  0
 18 19  2  0
 19 20  1  0
 20 21  1  0
 21 22  1  0
 22 23  1  0
 23 24  1  0
 19 25  1  0
 25 26  2  0
 26 27  1  0
 15 28  1  0
 28 29  1  6
 28 30  1  0
 30 31  1  0
 31 32  1  0
 32 33  1  0
 33 34  1  0
 32 35  1  0
 35 36  2  0
 36 37  1  0
 37 38  2  0
 38 39  1  0
 39 40  2  0
 37 41  1  0
 41 42  1  0
 41 43  1  0
 41 44  1  0
 11  6  1  0
 24  8  1  0
 27 17  2  0
 34 32  1  0
 40 35  1  0
M  END
$$$$
