
     RDKit          3D

 44 48  0  0  0  0  0  0  0  0999 V2000
  -18.2755  -31.4647   -9.5881 C   0  0  0  0  0  0  0  0  0  0  0  0
  -18.5228  -32.1893  -10.8572 C   0  0  0  0  0  0  0  0  0  0  0  0
  -18.3638  -31.5687  -11.8986 O   0  0  0  0  0  0  0  0  0  0  0  0
  -18.9446  -33.6083  -10.9429 C   0  0  0  0  0  0  0  0  0  0  0  0
  -19.5162  -34.0670   -9.7686 O   0  0  0  0  0  0  0  0  0  0  0  0
  -19.4841  -35.3807   -9.2983 C   0  0  0  0  0  0  0  0  0  0  0  0
  -20.5238  -35.9488   -8.6180 C   0  0  0  0  0  0  0  0  0  0  0  0
  -20.4825  -37.2741   -8.1447 C   0  0  0  0  0  0  0  0  0  0  0  0
  -19.3569  -38.0579   -8.3621 C   0  0  0  0  0  0  0  0  0  0  0  0
  -18.2927  -37.5252   -9.0418 C   0  0  0  0  0  0  0  0  0  0  0  0
  -18.3958  -36.1805   -9.4938 C   0  0  0  0  0  0  0  0  0  0  0  0
  -16.9873  -38.1263   -9.4197 C   0  0  0  0  0  0  0  0  0  0  0  0
  -16.3685  -37.5330  -10.4256 O   0  0  0  0  0  0  0  0  0  0  0  0
  -16.2378  -39.1977   -8.9515 N   0  0  0  0  0  0  0  0  0  0  0  0
  -16.6664  -40.5688   -8.7903 C   0  0  1  0  0  0  0  0  0  0  0  0
  -17.2856  -41.1837   -9.9685 C   0  0  0  0  0  0  0  0  0  0  0  0
  -18.7659  -41.2866  -10.0890 C   0  0  0  0  0  0  0  0  0  0  0  0
  -19.7412  -41.7091   -9.2154 C   0  0  0  0  0  0  0  0  0  0  0  0
  -21.0417  -41.6781   -9.6351 C   0  0  0  0  0  0  0  0  0  0  0  0
  -22.2849  -42.0476   -8.9037 C   0  0  0  0  0  0  0  0  0  0  0  0
  -22.8065  -40.9531   -7.9853 C   0  0  0  0  0  0  0  0  0  0  0  0
  -22.4710  -39.5819   -8.5280 C   0  0  0  0  0  0  0  0  0  0  0  0
  -22.6818  -38.4950   -7.5121 C   0  0  0  0  0  0  0  0  0  0  0  0
  -21.6508  -37.5982   -7.4932 O   0  0  0  0  0  0  0  0  0  0  0  0
  -21.3661  -41.2215  -10.9381 C   0  0  0  0  0  0  0  0  0  0  0  0
  -20.4320  -40.7940  -11.8386 C   0  0  0  0  0  0  0  0  0  0  0  0
  -19.1405  -40.8389  -11.3823 C   0  0  0  0  0  0  0  0  0  0  0  0
  -15.6843  -41.4663   -8.1478 C   0  0  2  0  0  0  0  0  0  0  0  0
  -15.6351  -41.2479   -6.7367 O   0  0  0  0  0  0  0  0  0  0  0  0
  -14.2844  -41.4796   -8.6168 C   0  0  0  0  0  0  0  0  0  0  0  0
  -14.0415  -41.8677   -9.9650 N   0  0  0  0  0  0  0  0  0  0  0  0
  -12.6103  -41.8510  -10.2866 C   0  0  0  0  0  0  0  0  0  0  0  0
  -11.7373  -42.8907   -9.6996 C   0  0  0  0  0  0  0  0  0  0  0  0
  -12.0970  -42.9739  -11.1912 C   0  0  0  0  0  0  0  0  0  0  0  0
  -12.0862  -40.5086  -10.6110 C   0  0  0  0  0  0  0  0  0  0  0  0
  -12.6201  -39.6948  -11.5639 C   0  0  0  0  0  0  0  0  0  0  0  0
  -12.0726  -38.4588  -11.8125 C   0  0  0  0  0  0  0  0  0  0  0  0
  -10.9877  -38.0491  -11.0971 C   0  0  0  0  0  0  0  0  0  0  0  0
  -10.4482  -38.8798  -10.1288 C   0  0  0  0  0  0  0  0  0  0  0  0
  -11.0109  -40.0731   -9.9191 N   0  0  0  0  0  0  0  0  0  0  0  0
  -12.6556  -37.5773  -12.8478 C   0  0  0  0  0  0  0  0  0  0  0  0
  -13.9630  -38.0913  -13.3889 C   0  0  0  0  0  0  0  0  0  0  0  0
  -12.8444  -36.1885  -12.2972 C   0  0  0  0  0  0  0  0  0  0  0  0
  -11.6663  -37.4794  -14.0024 C   0  0  0  0  0  0  0  0  0  0  0  0
  1  2  1  0
  2  3  2  0
  2  4  1  0
  4  5  1  0
  5  6  1  0
  6  7  2  0
  7  8  1  0
  8  9  2  0
  9 10  1  0
 10 11  2  0
 10 12  1  0
 12 13  2  0
 12 14  1  0
 14 15  1  0
 15 16  1  6
 16 17  1  0
 17 18  1  0
 18 19  2  0
 19 20  1  0
 20 21  1  0
 21 22  1  0
 22 23  1  0
 23 24  1  0
 19 25  1  0
 25 26  2  0
 26 27  1  0
 15 28  1  0
 28 29  1  1
 28 30  1  0
 30 31  1  0
 31 32  1  0
 32 33  1  0
 33 34  1  0
 32 35  1  0
 35 36  2  0
 36 37  1  0
 37 38  2  0
 38 39  1  0
 39 40  2  0
 37 41  1  0
 41 42  1  0
 41 43  1  0
 41 44  1  0
 11  6  1  0
 24  8  1  0
 27 17  2  0
 34 32  1  0
 40 35  1  0
M  END
$$$$
