
     RDKit          3D

 44 48  0  0  0  0  0  0  0  0999 V2000
  -22.8557  -42.7547  -14.2990 C   0  0  0  0  0  0  0  0  0  0  0  0
  -23.7281  -41.7725  -13.6127 C   0  0  0  0  0  0  0  0  0  0  0  0
  -24.4375  -41.0652  -14.3138 O   0  0  0  0  0  0  0  0  0  0  0  0
  -23.7964  -41.5969  -12.1419 C   0  0  0  0  0  0  0  0  0  0  0  0
  -23.2859  -40.3794  -11.7256 O   0  0  0  0  0  0  0  0  0  0  0  0
  -22.5653  -40.1492  -10.5528 C   0  0  0  0  0  0  0  0  0  0  0  0
  -23.1630  -39.8177   -9.3699 C   0  0  0  0  0  0  0  0  0  0  0  0
  -22.4286  -39.5847   -8.1915 C   0  0  0  0  0  0  0  0  0  0  0  0
  -21.0438  -39.6882   -8.2006 C   0  0  0  0  0  0  0  0  0  0  0  0
  -20.4060  -40.0201   -9.3673 C   0  0  0  0  0  0  0  0  0  0  0  0
  -21.2041  -40.2426  -10.5236 C   0  0  0  0  0  0  0  0  0  0  0  0
  -18.9614  -40.2075   -9.6608 C   0  0  0  0  0  0  0  0  0  0  0  0
  -18.6979  -40.9380  -10.7302 O   0  0  0  0  0  0  0  0  0  0  0  0
  -17.7836  -39.7830   -9.0594 N   0  0  0  0  0  0  0  0  0  0  0  0
  -17.3855  -39.9588   -7.6810 C   0  0  1  0  0  0  0  0  0  0  0  0
  -17.4550  -41.3312   -7.1695 C   0  0  0  0  0  0  0  0  0  0  0  0
  -18.6095  -41.7828   -6.3451 C   0  0  0  0  0  0  0  0  0  0  0  0
  -19.2515  -41.2264   -5.2631 C   0  0  0  0  0  0  0  0  0  0  0  0
  -20.3074  -41.9037   -4.7200 C   0  0  0  0  0  0  0  0  0  0  0  0
  -21.1883  -41.5322   -3.5785 C   0  0  0  0  0  0  0  0  0  0  0  0
  -22.3065  -40.5711   -3.9520 C   0  0  0  0  0  0  0  0  0  0  0  0
  -22.7498  -40.7819   -5.3825 C   0  0  0  0  0  0  0  0  0  0  0  0
  -23.6152  -39.6617   -5.8864 C   0  0  0  0  0  0  0  0  0  0  0  0
  -23.2664  -39.2659   -7.1470 O   0  0  0  0  0  0  0  0  0  0  0  0
  -20.7214  -43.1461   -5.2646 C   0  0  0  0  0  0  0  0  0  0  0  0
  -20.1139  -43.7364   -6.3363 C   0  0  0  0  0  0  0  0  0  0  0  0
  -19.0608  -43.0283   -6.8538 C   0  0  0  0  0  0  0  0  0  0  0  0
  -16.1273  -39.2867   -7.2962 C   0  0  2  0  0  0  0  0  0  0  0  0
  -16.3640  -38.2772   -6.3131 O   0  0  0  0  0  0  0  0  0  0  0  0
  -15.2780  -38.6678   -8.3333 C   0  0  0  0  0  0  0  0  0  0  0  0
  -15.7484  -38.6944   -9.6769 N   0  0  0  0  0  0  0  0  0  0  0  0
  -14.8882  -39.5129  -10.5384 C   0  0  0  0  0  0  0  0  0  0  0  0
  -14.9497  -40.9853  -10.4119 C   0  0  0  0  0  0  0  0  0  0  0  0
  -15.5848  -40.3151  -11.6402 C   0  0  0  0  0  0  0  0  0  0  0  0
  -13.6457  -38.8346  -10.9603 C   0  0  0  0  0  0  0  0  0  0  0  0
  -13.4692  -37.4843  -10.9282 C   0  0  0  0  0  0  0  0  0  0  0  0
  -12.2837  -36.9256  -11.3427 C   0  0  0  0  0  0  0  0  0  0  0  0
  -11.2806  -37.7332  -11.7879 C   0  0  0  0  0  0  0  0  0  0  0  0
  -11.4644  -39.1057  -11.8186 C   0  0  0  0  0  0  0  0  0  0  0  0
  -12.6320  -39.6076  -11.4069 N   0  0  0  0  0  0  0  0  0  0  0  0
  -12.0953  -35.4587  -11.3058 C   0  0  0  0  0  0  0  0  0  0  0  0
  -11.3715  -34.9901  -10.0716 C   0  0  0  0  0  0  0  0  0  0  0  0
  -11.3534  -35.0020  -12.5340 C   0  0  0  0  0  0  0  0  0  0  0  0
  -13.4693  -34.8010  -11.3322 C   0  0  0  0  0  0  0  0  0  0  0  0
  1  2  1  0
  2  3  2  0
  2  4  1  0
  4  5  1  0
  5  6  1  0
  6  7  2  0
  7  8  1  0
  8  9  2  0
  9 10  1  0
 10 11  2  0
 10 12  1  0
 12 13  2  0
 12 14  1  0
 14 15  1  0
 15 16  1  6
 16 17  1  0
 17 18  1  0
 18 19  2  0
 19 20  1  0
 20 21  1  0
 21 22  1  0
 22 23  1  0
 23 24  1  0
 19 25  1  0
 25 26  2  0
 26 27  1  0
 15 28  1  0
 28 29  1  1
 28 30  1  0
 30 31  1  0
 31 32  1  0
 32 33  1  0
 33 34  1  0
 32 35  1  0
 35 36  2  0
 36 37  1  0
 37 38  2  0
 38 39  1  0
 39 40  2  0
 37 41  1  0
 41 42  1  0
 41 43  1  0
 41 44  1  0
 11  6  1  0
 24  8  1  0
 27 17  2  0
 34 32  1  0
 40 35  1  0
M  END
$$$$
