
     RDKit          3D

 44 48  0  0  0  0  0  0  0  0999 V2000
  -18.6437  -42.2100    0.5191 C   0  0  0  0  0  0  0  0  0  0  0  0
  -19.6100  -42.0457   -0.5927 C   0  0  0  0  0  0  0  0  0  0  0  0
  -20.6830  -42.6237   -0.4943 O   0  0  0  0  0  0  0  0  0  0  0  0
  -19.3608  -41.2294   -1.8052 C   0  0  0  0  0  0  0  0  0  0  0  0
  -20.4907  -41.0828   -2.5914 O   0  0  0  0  0  0  0  0  0  0  0  0
  -20.5962  -41.4049   -3.9453 C   0  0  0  0  0  0  0  0  0  0  0  0
  -21.6525  -42.1018   -4.4600 C   0  0  0  0  0  0  0  0  0  0  0  0
  -21.7504  -42.4248   -5.8269 C   0  0  0  0  0  0  0  0  0  0  0  0
  -20.7517  -42.0342   -6.7093 C   0  0  0  0  0  0  0  0  0  0  0  0
  -19.6757  -41.3320   -6.2326 C   0  0  0  0  0  0  0  0  0  0  0  0
  -19.6351  -41.0372   -4.8417 C   0  0  0  0  0  0  0  0  0  0  0  0
  -18.4864  -40.7875   -6.9378 C   0  0  0  0  0  0  0  0  0  0  0  0
  -17.8651  -39.8046   -6.3097 O   0  0  0  0  0  0  0  0  0  0  0  0
  -17.8512  -41.0756   -8.1387 N   0  0  0  0  0  0  0  0  0  0  0  0
  -18.4407  -41.1225   -9.4578 C   0  0  1  0  0  0  0  0  0  0  0  0
  -19.2109  -39.9388   -9.8520 C   0  0  0  0  0  0  0  0  0  0  0  0
  -20.6969  -39.9279   -9.7616 C   0  0  0  0  0  0  0  0  0  0  0  0
  -21.6579  -40.8267  -10.1631 C   0  0  0  0  0  0  0  0  0  0  0  0
  -22.9687  -40.5192   -9.9273 C   0  0  0  0  0  0  0  0  0  0  0  0
  -24.1975  -41.3046  -10.2278 C   0  0  0  0  0  0  0  0  0  0  0  0
  -24.5118  -42.3746   -9.1934 C   0  0  0  0  0  0  0  0  0  0  0  0
  -24.0399  -41.9572   -7.8184 C   0  0  0  0  0  0  0  0  0  0  0  0
  -24.0411  -43.0978   -6.8403 C   0  0  0  0  0  0  0  0  0  0  0  0
  -22.9046  -43.1299   -6.0822 O   0  0  0  0  0  0  0  0  0  0  0  0
  -23.3179  -39.3033   -9.2859 C   0  0  0  0  0  0  0  0  0  0  0  0
  -22.3987  -38.3817   -8.8715 C   0  0  0  0  0  0  0  0  0  0  0  0
  -21.0962  -38.7247   -9.1241 C   0  0  0  0  0  0  0  0  0  0  0  0
  -17.5413  -41.5832  -10.5357 C   0  0  2  0  0  0  0  0  0  0  0  0
  -16.1974  -41.7051  -10.0662 O   0  0  0  0  0  0  0  0  0  0  0  0
  -17.4730  -40.8340  -11.8060 C   0  0  0  0  0  0  0  0  0  0  0  0
  -17.0685  -39.4700  -11.7493 N   0  0  0  0  0  0  0  0  0  0  0  0
  -15.6454  -39.3108  -12.0680 C   0  0  0  0  0  0  0  0  0  0  0  0
  -14.7548  -40.4859  -11.9517 C   0  0  0  0  0  0  0  0  0  0  0  0
  -15.1497  -39.9849  -13.3497 C   0  0  0  0  0  0  0  0  0  0  0  0
  -15.1342  -37.9417  -11.8533 C   0  0  0  0  0  0  0  0  0  0  0  0
  -15.8309  -36.9630  -11.2114 C   0  0  0  0  0  0  0  0  0  0  0  0
  -15.2894  -35.7093  -11.0544 C   0  0  0  0  0  0  0  0  0  0  0  0
  -14.0455  -35.4493  -11.5461 C   0  0  0  0  0  0  0  0  0  0  0  0
  -13.3405  -36.4476  -12.1979 C   0  0  0  0  0  0  0  0  0  0  0  0
  -13.9036  -37.6519  -12.3290 N   0  0  0  0  0  0  0  0  0  0  0  0
  -16.0487  -34.6490  -10.3561 C   0  0  0  0  0  0  0  0  0  0  0  0
  -17.0864  -33.9965  -11.2302 C   0  0  0  0  0  0  0  0  0  0  0  0
  -16.7040  -35.2102   -9.1219 C   0  0  0  0  0  0  0  0  0  0  0  0
  -15.0644  -33.5780   -9.9027 C   0  0  0  0  0  0  0  0  0  0  0  0
  1  2  1  0
  2  3  2  0
  2  4  1  0
  4  5  1  0
  5  6  1  0
  6  7  2  0
  7  8  1  0
  8  9  2  0
  9 10  1  0
 10 11  2  0
 10 12  1  0
 12 13  2  0
 12 14  1  0
 14 15  1  0
 15 16  1  6
 16 17  1  0
 17 18  1  0
 18 19  2  0
 19 20  1  0
 20 21  1  0
 21 22  1  0
 22 23  1  0
 23 24  1  0
 19 25  1  0
 25 26  2  0
 26 27  1  0
 15 28  1  0
 28 29  1  1
 28 30  1  0
 30 31  1  0
 31 32  1  0
 32 33  1  0
 33 34  1  0
 32 35  1  0
 35 36  2  0
 36 37  1  0
 37 38  2  0
 38 39  1  0
 39 40  2  0
 37 41  1  0
 41 42  1  0
 41 43  1  0
 41 44  1  0
 11  6  1  0
 24  8  1  0
 27 17  2  0
 34 32  1  0
 40 35  1  0
M  END
$$$$
