
     RDKit          3D

 44 48  0  0  0  0  0  0  0  0999 V2000
  -17.7520  -44.0021   -1.8385 C   0  0  0  0  0  0  0  0  0  0  0  0
  -18.9615  -43.1507   -1.7436 C   0  0  0  0  0  0  0  0  0  0  0  0
  -19.8702  -43.5437   -1.0261 O   0  0  0  0  0  0  0  0  0  0  0  0
  -19.1365  -41.8619   -2.4558 C   0  0  0  0  0  0  0  0  0  0  0  0
  -20.3462  -41.7813   -3.1239 O   0  0  0  0  0  0  0  0  0  0  0  0
  -20.5199  -41.7664   -4.5086 C   0  0  0  0  0  0  0  0  0  0  0  0
  -21.6991  -42.1042   -5.1102 C   0  0  0  0  0  0  0  0  0  0  0  0
  -21.8655  -42.0888   -6.5082 C   0  0  0  0  0  0  0  0  0  0  0  0
  -20.8101  -41.7211   -7.3324 C   0  0  0  0  0  0  0  0  0  0  0  0
  -19.6106  -41.3738   -6.7678 C   0  0  0  0  0  0  0  0  0  0  0  0
  -19.5060  -41.4098   -5.3496 C   0  0  0  0  0  0  0  0  0  0  0  0
  -18.3363  -40.9370   -7.3950 C   0  0  0  0  0  0  0  0  0  0  0  0
  -17.5232  -40.2640   -6.5997 O   0  0  0  0  0  0  0  0  0  0  0  0
  -17.7779  -41.0728   -8.6594 N   0  0  0  0  0  0  0  0  0  0  0  0
  -18.3680  -40.7056   -9.9269 C   0  0  1  0  0  0  0  0  0  0  0  0
  -18.8774  -39.3338  -10.0171 C   0  0  0  0  0  0  0  0  0  0  0  0
  -20.3287  -39.0443   -9.8542 C   0  0  0  0  0  0  0  0  0  0  0  0
  -21.4561  -39.6192  -10.3938 C   0  0  0  0  0  0  0  0  0  0  0  0
  -22.6742  -39.1143  -10.0334 C   0  0  0  0  0  0  0  0  0  0  0  0
  -24.0398  -39.5494  -10.4369 C   0  0  0  0  0  0  0  0  0  0  0  0
  -24.5660  -40.7368   -9.6451 C   0  0  0  0  0  0  0  0  0  0  0  0
  -24.0141  -40.7393   -8.2370 C   0  0  0  0  0  0  0  0  0  0  0  0
  -24.2488  -42.0446   -7.5307 C   0  0  0  0  0  0  0  0  0  0  0  0
  -23.1414  -42.4724   -6.8539 O   0  0  0  0  0  0  0  0  0  0  0  0
  -22.7622  -38.0267   -9.1274 C   0  0  0  0  0  0  0  0  0  0  0  0
  -21.6710  -37.4246   -8.5681 C   0  0  0  0  0  0  0  0  0  0  0  0
  -20.4684  -37.9579   -8.9523 C   0  0  0  0  0  0  0  0  0  0  0  0
  -17.5865  -41.0866  -11.1215 C   0  0  2  0  0  0  0  0  0  0  0  0
  -17.7597  -42.4712  -11.4285 O   0  0  0  0  0  0  0  0  0  0  0  0
  -16.1332  -40.8292  -11.1616 C   0  0  0  0  0  0  0  0  0  0  0  0
  -15.6335  -39.7347  -10.4003 N   0  0  0  0  0  0  0  0  0  0  0  0
  -14.1762  -39.8007  -10.2443 C   0  0  0  0  0  0  0  0  0  0  0  0
  -13.6077  -40.7612   -9.2738 C   0  0  0  0  0  0  0  0  0  0  0  0
  -13.4855  -41.0587  -10.7765 C   0  0  0  0  0  0  0  0  0  0  0  0
  -13.4832  -38.5352  -10.5607 C   0  0  0  0  0  0  0  0  0  0  0  0
  -14.1180  -37.3402  -10.7163 C   0  0  0  0  0  0  0  0  0  0  0  0
  -13.4038  -36.2045  -11.0158 C   0  0  0  0  0  0  0  0  0  0  0  0
  -12.0506  -36.2804  -11.1565 C   0  0  0  0  0  0  0  0  0  0  0  0
  -11.4093  -37.4976  -10.9971 C   0  0  0  0  0  0  0  0  0  0  0  0
  -12.1410  -38.5769  -10.7066 N   0  0  0  0  0  0  0  0  0  0  0  0
  -14.0965  -34.9081  -11.1833 C   0  0  0  0  0  0  0  0  0  0  0  0
  -14.0276  -34.0417   -9.9540 C   0  0  0  0  0  0  0  0  0  0  0  0
  -13.5241  -34.1650  -12.3614 C   0  0  0  0  0  0  0  0  0  0  0  0
  -15.5627  -35.1874  -11.4891 C   0  0  0  0  0  0  0  0  0  0  0  0
  1  2  1  0
  2  3  2  0
  2  4  1  0
  4  5  1  0
  5  6  1  0
  6  7  2  0
  7  8  1  0
  8  9  2  0
  9 10  1  0
 10 11  2  0
 10 12  1  0
 12 13  2  0
 12 14  1  0
 14 15  1  0
 15 16  1  1
 16 17  1  0
 17 18  1  0
 18 19  2  0
 19 20  1  0
 20 21  1  0
 21 22  1  0
 22 23  1  0
 23 24  1  0
 19 25  1  0
 25 26  2  0
 26 27  1  0
 15 28  1  0
 28 29  1  1
 28 30  1  0
 30 31  1  0
 31 32  1  0
 32 33  1  0
 33 34  1  0
 32 35  1  0
 35 36  2  0
 36 37  1  0
 37 38  2  0
 38 39  1  0
 39 40  2  0
 37 41  1  0
 41 42  1  0
 41 43  1  0
 41 44  1  0
 11  6  1  0
 24  8  1  0
 27 17  2  0
 34 32  1  0
 40 35  1  0
M  END
$$$$
