
     RDKit          3D

 44 48  0  0  0  0  0  0  0  0999 V2000
  -17.1172  -35.7720  -13.0096 C   0  0  0  0  0  0  0  0  0  0  0  0
  -18.1175  -36.1262  -14.0443 C   0  0  0  0  0  0  0  0  0  0  0  0
  -18.1746  -35.4149  -15.0372 O   0  0  0  0  0  0  0  0  0  0  0  0
  -19.0438  -37.2805  -13.9534 C   0  0  0  0  0  0  0  0  0  0  0  0
  -19.9781  -37.1367  -12.9421 O   0  0  0  0  0  0  0  0  0  0  0  0
  -19.8171  -37.5320  -11.6133 C   0  0  0  0  0  0  0  0  0  0  0  0
  -20.7866  -37.3577  -10.6667 C   0  0  0  0  0  0  0  0  0  0  0  0
  -20.6155  -37.7571   -9.3276 C   0  0  0  0  0  0  0  0  0  0  0  0
  -19.4279  -38.3531   -8.9236 C   0  0  0  0  0  0  0  0  0  0  0  0
  -18.4307  -38.5470   -9.8435 C   0  0  0  0  0  0  0  0  0  0  0  0
  -18.6648  -38.1213  -11.1804 C   0  0  0  0  0  0  0  0  0  0  0  0
  -17.0841  -39.1578   -9.6964 C   0  0  0  0  0  0  0  0  0  0  0  0
  -16.5426  -39.5955  -10.8197 O   0  0  0  0  0  0  0  0  0  0  0  0
  -16.2309  -39.3849   -8.6243 N   0  0  0  0  0  0  0  0  0  0  0  0
  -16.5298  -40.0805   -7.3928 C   0  0  1  0  0  0  0  0  0  0  0  0
  -17.1145  -41.4166   -7.5434 C   0  0  0  0  0  0  0  0  0  0  0  0
  -18.5815  -41.6296   -7.4058 C   0  0  0  0  0  0  0  0  0  0  0  0
  -19.4962  -41.2112   -6.4672 C   0  0  0  0  0  0  0  0  0  0  0  0
  -20.8025  -41.5798   -6.6292 C   0  0  0  0  0  0  0  0  0  0  0  0
  -21.9917  -41.2546   -5.7943 C   0  0  0  0  0  0  0  0  0  0  0  0
  -22.5917  -39.8874   -6.0845 C   0  0  0  0  0  0  0  0  0  0  0  0
  -22.3934  -39.5028   -7.5337 C   0  0  0  0  0  0  0  0  0  0  0  0
  -22.6812  -38.0500   -7.7867 C   0  0  0  0  0  0  0  0  0  0  0  0
  -21.7359  -37.4668   -8.5827 O   0  0  0  0  0  0  0  0  0  0  0  0
  -21.1936  -42.3728   -7.7381 C   0  0  0  0  0  0  0  0  0  0  0  0
  -20.3209  -42.8115   -8.6930 C   0  0  0  0  0  0  0  0  0  0  0  0
  -19.0216  -42.4220   -8.4975 C   0  0  0  0  0  0  0  0  0  0  0  0
  -15.4572  -40.0558   -6.3771 C   0  0  2  0  0  0  0  0  0  0  0  0
  -15.7804  -39.1620   -5.3103 O   0  0  0  0  0  0  0  0  0  0  0  0
  -14.0717  -39.7416   -6.7790 C   0  0  0  0  0  0  0  0  0  0  0  0
  -13.8796  -39.0528   -8.0103 N   0  0  0  0  0  0  0  0  0  0  0  0
  -13.5077  -39.9689   -9.0940 C   0  0  0  0  0  0  0  0  0  0  0  0
  -12.9160  -41.2791   -8.7461 C   0  0  0  0  0  0  0  0  0  0  0  0
  -14.3654  -41.2265   -9.2540 C   0  0  0  0  0  0  0  0  0  0  0  0
  -13.1661  -39.2895  -10.3603 C   0  0  0  0  0  0  0  0  0  0  0  0
  -13.5553  -38.0217  -10.6709 C   0  0  0  0  0  0  0  0  0  0  0  0
  -13.2017  -37.4581  -11.8737 C   0  0  0  0  0  0  0  0  0  0  0  0
  -12.4558  -38.1775  -12.7584 C   0  0  0  0  0  0  0  0  0  0  0  0
  -12.0620  -39.4663  -12.4383 C   0  0  0  0  0  0  0  0  0  0  0  0
  -12.4272  -39.9761  -11.2588 N   0  0  0  0  0  0  0  0  0  0  0  0
  -13.6257  -36.0806  -12.2074 C   0  0  0  0  0  0  0  0  0  0  0  0
  -13.0532  -35.5888  -13.5100 C   0  0  0  0  0  0  0  0  0  0  0  0
  -15.1287  -35.9985  -12.2497 C   0  0  0  0  0  0  0  0  0  0  0  0
  -13.1495  -35.1533  -11.0961 C   0  0  0  0  0  0  0  0  0  0  0  0
  1  2  1  0
  2  3  2  0
  2  4  1  0
  4  5  1  0
  5  6  1  0
  6  7  2  0
  7  8  1  0
  8  9  2  0
  9 10  1  0
 10 11  2  0
 10 12  1  0
 12 13  2  0
 12 14  1  0
 14 15  1  0
 15 16  1  6
 16 17  1  0
 17 18  1  0
 18 19  2  0
 19 20  1  0
 20 21  1  0
 21 22  1  0
 22 23  1  0
 23 24  1  0
 19 25  1  0
 25 26  2  0
 26 27  1  0
 15 28  1  0
 28 29  1  1
 28 30  1  0
 30 31  1  0
 31 32  1  0
 32 33  1  0
 33 34  1  0
 32 35  1  0
 35 36  2  0
 36 37  1  0
 37 38  2  0
 38 39  1  0
 39 40  2  0
 37 41  1  0
 41 42  1  0
 41 43  1  0
 41 44  1  0
 11  6  1  0
 24  8  1  0
 27 17  2  0
 34 32  1  0
 40 35  1  0
M  END
$$$$
