
     RDKit          3D

 44 48  0  0  0  0  0  0  0  0999 V2000
  -21.0251  -44.2458   -1.6296 C   0  0  0  0  0  0  0  0  0  0  0  0
  -20.1876  -43.1464   -1.0942 C   0  0  0  0  0  0  0  0  0  0  0  0
  -19.7244  -43.2886    0.0284 O   0  0  0  0  0  0  0  0  0  0  0  0
  -19.8763  -41.8966   -1.8290 C   0  0  0  0  0  0  0  0  0  0  0  0
  -20.9311  -41.4615   -2.6128 O   0  0  0  0  0  0  0  0  0  0  0  0
  -20.9802  -41.4811   -4.0074 C   0  0  0  0  0  0  0  0  0  0  0  0
  -22.0874  -41.8764   -4.7034 C   0  0  0  0  0  0  0  0  0  0  0  0
  -22.1282  -41.8955   -6.1106 C   0  0  0  0  0  0  0  0  0  0  0  0
  -21.0173  -41.5037   -6.8461 C   0  0  0  0  0  0  0  0  0  0  0  0
  -19.8870  -41.0988   -6.1853 C   0  0  0  0  0  0  0  0  0  0  0  0
  -19.9088  -41.1023   -4.7630 C   0  0  0  0  0  0  0  0  0  0  0  0
  -18.5785  -40.6255   -6.7069 C   0  0  0  0  0  0  0  0  0  0  0  0
  -17.8654  -39.9057   -5.8584 O   0  0  0  0  0  0  0  0  0  0  0  0
  -17.9042  -40.7648   -7.9130 N   0  0  0  0  0  0  0  0  0  0  0  0
  -18.3913  -40.4463   -9.2362 C   0  0  1  0  0  0  0  0  0  0  0  0
  -18.9409  -39.0973   -9.4034 C   0  0  0  0  0  0  0  0  0  0  0  0
  -20.4106  -38.8612   -9.3771 C   0  0  0  0  0  0  0  0  0  0  0  0
  -21.4631  -39.4901  -10.0012 C   0  0  0  0  0  0  0  0  0  0  0  0
  -22.7263  -39.0258   -9.7624 C   0  0  0  0  0  0  0  0  0  0  0  0
  -24.0333  -39.5216  -10.2754 C   0  0  0  0  0  0  0  0  0  0  0  0
  -24.5843  -40.7124   -9.5061 C   0  0  0  0  0  0  0  0  0  0  0  0
  -24.1613  -40.6653   -8.0548 C   0  0  0  0  0  0  0  0  0  0  0  0
  -24.4100  -41.9643   -7.3418 C   0  0  0  0  0  0  0  0  0  0  0  0
  -23.3529  -42.3351   -6.5593 O   0  0  0  0  0  0  0  0  0  0  0  0
  -22.9354  -37.9245   -8.8936 C   0  0  0  0  0  0  0  0  0  0  0  0
  -21.9217  -37.2694   -8.2537 C   0  0  0  0  0  0  0  0  0  0  0  0
  -20.6707  -37.7632   -8.5168 C   0  0  0  0  0  0  0  0  0  0  0  0
  -17.4923  -40.8205  -10.3474 C   0  0  2  0  0  0  0  0  0  0  0  0
  -17.9263  -42.0286  -10.9747 O   0  0  0  0  0  0  0  0  0  0  0  0
  -16.0448  -40.9752  -10.1010 C   0  0  0  0  0  0  0  0  0  0  0  0
  -15.4954  -40.3307   -8.9564 N   0  0  0  0  0  0  0  0  0  0  0  0
  -14.4281  -39.3923   -9.3202 C   0  0  0  0  0  0  0  0  0  0  0  0
  -13.1391  -39.4669   -8.5987 C   0  0  0  0  0  0  0  0  0  0  0  0
  -13.2150  -39.9804  -10.0451 C   0  0  0  0  0  0  0  0  0  0  0  0
  -14.9191  -38.1145   -9.8751 C   0  0  0  0  0  0  0  0  0  0  0  0
  -14.1237  -37.2025  -10.5002 C   0  0  0  0  0  0  0  0  0  0  0  0
  -14.6539  -36.0314  -10.9869 C   0  0  0  0  0  0  0  0  0  0  0  0
  -15.9862  -35.7862  -10.8405 C   0  0  0  0  0  0  0  0  0  0  0  0
  -16.7915  -36.7166  -10.2044 C   0  0  0  0  0  0  0  0  0  0  0  0
  -16.2358  -37.8416   -9.7462 N   0  0  0  0  0  0  0  0  0  0  0  0
  -13.7871  -35.0434  -11.6659 C   0  0  0  0  0  0  0  0  0  0  0  0
  -14.5503  -33.8607  -12.1998 C   0  0  0  0  0  0  0  0  0  0  0  0
  -12.7089  -34.5705  -10.7270 C   0  0  0  0  0  0  0  0  0  0  0  0
  -13.1007  -35.7367  -12.8362 C   0  0  0  0  0  0  0  0  0  0  0  0
  1  2  1  0
  2  3  2  0
  2  4  1  0
  4  5  1  0
  5  6  1  0
  6  7  2  0
  7  8  1  0
  8  9  2  0
  9 10  1  0
 10 11  2  0
 10 12  1  0
 12 13  2  0
 12 14  1  0
 14 15  1  0
 15 16  1  1
 16 17  1  0
 17 18  1  0
 18 19  2  0
 19 20  1  0
 20 21  1  0
 21 22  1  0
 22 23  1  0
 23 24  1  0
 19 25  1  0
 25 26  2  0
 26 27  1  0
 15 28  1  0
 28 29  1  1
 28 30  1  0
 30 31  1  0
 31 32  1  0
 32 33  1  0
 33 34  1  0
 32 35  1  0
 35 36  2  0
 36 37  1  0
 37 38  2  0
 38 39  1  0
 39 40  2  0
 37 41  1  0
 41 42  1  0
 41 43  1  0
 41 44  1  0
 11  6  1  0
 24  8  1  0
 27 17  2  0
 34 32  1  0
 40 35  1  0
M  END
$$$$
