
     RDKit          3D

 44 48  0  0  0  0  0  0  0  0999 V2000
  -22.3695  -33.3856  -11.7923 C   0  0  0  0  0  0  0  0  0  0  0  0
  -21.0958  -34.1157  -11.5888 C   0  0  0  0  0  0  0  0  0  0  0  0
  -20.2407  -33.5732  -10.9036 O   0  0  0  0  0  0  0  0  0  0  0  0
  -20.7968  -35.4525  -12.1566 C   0  0  0  0  0  0  0  0  0  0  0  0
  -21.4856  -36.4697  -11.5185 O   0  0  0  0  0  0  0  0  0  0  0  0
  -21.0693  -37.1505  -10.3734 C   0  0  0  0  0  0  0  0  0  0  0  0
  -21.8885  -37.3651   -9.3013 C   0  0  0  0  0  0  0  0  0  0  0  0
  -21.4602  -38.0509   -8.1487 C   0  0  0  0  0  0  0  0  0  0  0  0
  -20.1625  -38.5390   -8.0692 C   0  0  0  0  0  0  0  0  0  0  0  0
  -19.3097  -38.3455   -9.1244 C   0  0  0  0  0  0  0  0  0  0  0  0
  -19.8024  -37.6448  -10.2600 C   0  0  0  0  0  0  0  0  0  0  0  0
  -17.8955  -38.7604   -9.3141 C   0  0  0  0  0  0  0  0  0  0  0  0
  -17.4939  -38.8198  -10.5718 O   0  0  0  0  0  0  0  0  0  0  0  0
  -16.8613  -39.1112   -8.4561 N   0  0  0  0  0  0  0  0  0  0  0  0
  -16.8768  -40.1258   -7.4266 C   0  0  1  0  0  0  0  0  0  0  0  0
  -17.3198  -41.4569   -7.8528 C   0  0  0  0  0  0  0  0  0  0  0  0
  -18.7113  -41.9192   -7.5949 C   0  0  0  0  0  0  0  0  0  0  0  0
  -19.5061  -41.8897   -6.4724 C   0  0  0  0  0  0  0  0  0  0  0  0
  -20.7700  -42.4024   -6.5623 C   0  0  0  0  0  0  0  0  0  0  0  0
  -21.8398  -42.4788   -5.5295 C   0  0  0  0  0  0  0  0  0  0  0  0
  -22.6324  -41.1906   -5.3685 C   0  0  0  0  0  0  0  0  0  0  0  0
  -22.7144  -40.4354   -6.6763 C   0  0  0  0  0  0  0  0  0  0  0  0
  -23.2049  -39.0266   -6.4960 C   0  0  0  0  0  0  0  0  0  0  0  0
  -22.4729  -38.1278   -7.2197 O   0  0  0  0  0  0  0  0  0  0  0  0
  -21.2393  -42.9482   -7.7844 C   0  0  0  0  0  0  0  0  0  0  0  0
  -20.4859  -42.9994   -8.9227 C   0  0  0  0  0  0  0  0  0  0  0  0
  -19.2259  -42.4760   -8.7943 C   0  0  0  0  0  0  0  0  0  0  0  0
  -15.6656  -40.1882   -6.5828 C   0  0  2  0  0  0  0  0  0  0  0  0
  -15.9495  -39.7739   -5.2452 O   0  0  0  0  0  0  0  0  0  0  0  0
  -14.4460  -39.4645   -6.9936 C   0  0  0  0  0  0  0  0  0  0  0  0
  -13.3803  -40.2264   -7.5515 N   0  0  0  0  0  0  0  0  0  0  0  0
  -13.7526  -40.8203   -8.8402 C   0  0  0  0  0  0  0  0  0  0  0  0
  -13.2605  -42.1763   -9.1669 C   0  0  0  0  0  0  0  0  0  0  0  0
  -14.7403  -41.9889   -8.7974 C   0  0  0  0  0  0  0  0  0  0  0  0
  -14.0163  -39.8278   -9.9019 C   0  0  0  0  0  0  0  0  0  0  0  0
  -13.6330  -38.5226   -9.8335 C   0  0  0  0  0  0  0  0  0  0  0  0
  -13.9196  -37.6564  -10.8616 C   0  0  0  0  0  0  0  0  0  0  0  0
  -14.5919  -38.1123  -11.9555 C   0  0  0  0  0  0  0  0  0  0  0  0
  -14.9795  -39.4405  -12.0210 C   0  0  0  0  0  0  0  0  0  0  0  0
  -14.6811  -40.2485  -11.0000 N   0  0  0  0  0  0  0  0  0  0  0  0
  -13.5011  -36.2395  -10.7841 C   0  0  0  0  0  0  0  0  0  0  0  0
  -12.2310  -36.0439   -9.9999 C   0  0  0  0  0  0  0  0  0  0  0  0
  -13.3352  -35.6733  -12.1695 C   0  0  0  0  0  0  0  0  0  0  0  0
  -14.6112  -35.4517  -10.0996 C   0  0  0  0  0  0  0  0  0  0  0  0
  1  2  1  0
  2  3  2  0
  2  4  1  0
  4  5  1  0
  5  6  1  0
  6  7  2  0
  7  8  1  0
  8  9  2  0
  9 10  1  0
 10 11  2  0
 10 12  1  0
 12 13  2  0
 12 14  1  0
 14 15  1  0
 15 16  1  6
 16 17  1  0
 17 18  1  0
 18 19  2  0
 19 20  1  0
 20 21  1  0
 21 22  1  0
 22 23  1  0
 23 24  1  0
 19 25  1  0
 25 26  2  0
 26 27  1  0
 15 28  1  0
 28 29  1  1
 28 30  1  0
 30 31  1  0
 31 32  1  0
 32 33  1  0
 33 34  1  0
 32 35  1  0
 35 36  2  0
 36 37  1  0
 37 38  2  0
 38 39  1  0
 39 40  2  0
 37 41  1  0
 41 42  1  0
 41 43  1  0
 41 44  1  0
 11  6  1  0
 24  8  1  0
 27 17  2  0
 34 32  1  0
 40 35  1  0
M  END
$$$$
