
     RDKit          3D

 38 40  0  0  0  0  0  0  0  0999 V2000
  -14.2203  -37.6448  -12.3120 C   0  0  0  0  0  0  0  0  0  0  0  0
  -14.9047  -36.7212  -13.0763 O   0  0  0  0  0  0  0  0  0  0  0  0
  -15.8466  -36.0370  -12.3612 C   0  0  0  0  0  0  0  0  0  0  0  0
  -16.3458  -36.8394  -11.2202 C   0  0  0  0  0  0  0  0  0  0  0  0
  -15.9568  -36.6142   -9.9273 C   0  0  0  0  0  0  0  0  0  0  0  0
  -16.4485  -37.3723   -8.8316 C   0  0  0  0  0  0  0  0  0  0  0  0
  -17.3578  -38.3856   -9.0237 C   0  0  0  0  0  0  0  0  0  0  0  0
  -17.7711  -38.6404  -10.3199 C   0  0  0  0  0  0  0  0  0  0  0  0
  -17.2479  -37.8541  -11.3783 C   0  0  0  0  0  0  0  0  0  0  0  0
  -18.7038  -39.6482  -10.8580 C   0  0  0  0  0  0  0  0  0  0  0  0
  -19.4650  -39.2001  -11.8380 O   0  0  0  0  0  0  0  0  0  0  0  0
  -18.9885  -40.9881  -10.5847 N   0  0  0  0  0  0  0  0  0  0  0  0
  -18.1413  -42.0745  -10.2187 C   0  0  1  0  0  0  0  0  0  0  0  0
  -17.1083  -42.4981  -11.2074 C   0  0  0  0  0  0  0  0  0  0  0  0
  -15.9349  -41.6142  -11.3847 C   0  0  2  0  0  0  0  0  0  0  0  0
  -15.8993  -41.2238  -12.8717 C   0  0  0  0  0  0  0  0  0  0  0  0
  -14.6466  -42.4191  -11.1588 C   0  0  0  0  0  0  0  0  0  0  0  0
  -13.6714  -41.6203  -10.3170 C   0  0  0  0  0  0  0  0  0  0  0  0
  -14.3189  -40.8951   -9.3449 O   0  0  0  0  0  0  0  0  0  0  0  0
  -13.6230  -39.8337   -8.8263 C   0  0  0  0  0  0  0  0  0  0  0  0
  -13.9193  -39.5867   -7.3652 C   0  0  0  0  0  0  0  0  0  0  0  0
  -13.8633  -38.1606   -6.9480 C   0  0  0  0  0  0  0  0  0  0  0  0
  -15.2002  -37.5917   -6.5402 C   0  0  0  0  0  0  0  0  0  0  0  0
  -15.8076  -36.8800   -7.6323 N   0  0  0  0  0  0  0  0  0  0  0  0
  -17.5737  -42.0075   -8.8219 C   0  0  2  0  0  0  0  0  0  0  0  0
  -16.6325  -43.0632   -8.7447 O   0  0  0  0  0  0  0  0  0  0  0  0
  -18.6900  -42.3888   -7.8707 C   0  0  0  0  0  0  0  0  0  0  0  0
  -19.4044  -43.5047   -8.5119 N   0  0  0  0  0  0  0  0  0  0  0  0
  -20.2165  -43.0221   -9.6100 C   0  0  0  0  0  0  0  0  0  0  0  0
  -21.4245  -42.3840   -9.0288 C   0  0  0  0  0  0  0  0  0  0  0  0
  -22.7043  -42.8453   -9.2980 C   0  0  0  0  0  0  0  0  0  0  0  0
  -23.8335  -42.2758   -8.7768 C   0  0  0  0  0  0  0  0  0  0  0  0
  -23.6922  -41.1877   -7.9410 C   0  0  0  0  0  0  0  0  0  0  0  0
  -22.4530  -40.6904   -7.6408 C   0  0  0  0  0  0  0  0  0  0  0  0
  -21.3444  -41.2941   -8.1873 C   0  0  0  0  0  0  0  0  0  0  0  0
  -25.2037  -42.7790   -9.0720 C   0  0  0  0  0  0  0  0  0  0  0  0
  -26.0503  -41.7349   -9.7754 C   0  0  0  0  0  0  0  0  0  0  0  0
  -25.9046  -43.2405   -7.8128 C   0  0  0  0  0  0  0  0  0  0  0  0
  1  2  1  0
  2  3  1  0
  3  4  1  0
  4  5  2  0
  5  6  1  0
  6  7  2  0
  7  8  1  0
  8  9  2  0
  8 10  1  0
 10 11  2  0
 10 12  1  0
 12 13  1  0
 13 14  1  6
 14 15  1  0
 15 16  1  6
 15 17  1  0
 17 18  1  0
 18 19  1  0
 19 20  1  0
 20 21  1  0
 21 22  1  0
 22 23  1  0
 23 24  1  0
 13 25  1  0
 25 26  1  6
 25 27  1  0
 27 28  1  0
 28 29  1  0
 29 30  1  0
 30 31  2  0
 31 32  1  0
 32 33  2  0
 33 34  1  0
 34 35  2  0
 32 36  1  0
 36 37  1  0
 36 38  1  0
  9  4  1  0
 24  6  1  0
 35 30  1  0
M  END
$$$$
