
     RDKit          3D

 38 40  0  0  0  0  0  0  0  0999 V2000
  -12.4835  -43.6892  -13.2629 C   0  0  0  0  0  0  0  0  0  0  0  0
  -12.3270  -42.3791  -13.6690 O   0  0  0  0  0  0  0  0  0  0  0  0
  -13.4640  -41.8558  -14.2166 C   0  0  0  0  0  0  0  0  0  0  0  0
  -14.0184  -40.7702  -13.3744 C   0  0  0  0  0  0  0  0  0  0  0  0
  -13.7393  -39.4476  -13.5890 C   0  0  0  0  0  0  0  0  0  0  0  0
  -14.2843  -38.4059  -12.7921 C   0  0  0  0  0  0  0  0  0  0  0  0
  -15.1362  -38.6847  -11.7495 C   0  0  0  0  0  0  0  0  0  0  0  0
  -15.4381  -40.0131  -11.5045 C   0  0  0  0  0  0  0  0  0  0  0  0
  -14.8657  -41.0146  -12.3299 C   0  0  0  0  0  0  0  0  0  0  0  0
  -16.2869  -40.6385  -10.4731 C   0  0  0  0  0  0  0  0  0  0  0  0
  -16.9869  -41.6673  -10.9113 O   0  0  0  0  0  0  0  0  0  0  0  0
  -16.5398  -40.4100   -9.1185 N   0  0  0  0  0  0  0  0  0  0  0  0
  -15.6820  -39.9969   -8.0576 C   0  0  1  0  0  0  0  0  0  0  0  0
  -14.5602  -40.9091   -7.6919 C   0  0  0  0  0  0  0  0  0  0  0  0
  -13.4116  -40.9801   -8.6222 C   0  0  2  0  0  0  0  0  0  0  0  0
  -13.2765  -42.4532   -9.0423 C   0  0  0  0  0  0  0  0  0  0  0  0
  -12.1145  -40.6677   -7.8617 C   0  0  0  0  0  0  0  0  0  0  0  0
  -11.2387  -39.7397   -8.6801 C   0  0  0  0  0  0  0  0  0  0  0  0
  -11.9868  -38.8093   -9.3618 O   0  0  0  0  0  0  0  0  0  0  0  0
  -11.3746  -38.2208  -10.4382 C   0  0  0  0  0  0  0  0  0  0  0  0
  -11.7920  -36.7834  -10.6458 C   0  0  0  0  0  0  0  0  0  0  0  0
  -11.8235  -36.3399  -12.0647 C   0  0  0  0  0  0  0  0  0  0  0  0
  -13.2089  -36.0281  -12.5754 C   0  0  0  0  0  0  0  0  0  0  0  0
  -13.7574  -37.1525  -13.2848 N   0  0  0  0  0  0  0  0  0  0  0  0
  -15.2268  -38.5593   -8.1189 C   0  0  2  0  0  0  0  0  0  0  0  0
  -14.4187  -38.3688   -6.9713 O   0  0  0  0  0  0  0  0  0  0  0  0
  -16.4528  -37.6961   -7.8995 C   0  0  0  0  0  0  0  0  0  0  0  0
  -17.4334  -38.5530   -7.2133 N   0  0  0  0  0  0  0  0  0  0  0  0
  -18.6635  -37.8258   -6.9759 C   0  0  0  0  0  0  0  0  0  0  0  0
  -19.7798  -38.6441   -7.5130 C   0  0  0  0  0  0  0  0  0  0  0  0
  -20.3593  -39.6711   -6.7831 C   0  0  0  0  0  0  0  0  0  0  0  0
  -21.3876  -40.4403   -7.2540 C   0  0  0  0  0  0  0  0  0  0  0  0
  -21.8730  -40.1815   -8.5189 C   0  0  0  0  0  0  0  0  0  0  0  0
  -21.3388  -39.1800   -9.2835 C   0  0  0  0  0  0  0  0  0  0  0  0
  -20.3056  -38.4311   -8.7702 C   0  0  0  0  0  0  0  0  0  0  0  0
  -22.0032  -41.5409   -6.4619 C   0  0  0  0  0  0  0  0  0  0  0  0
  -22.8808  -41.0106   -5.3438 C   0  0  0  0  0  0  0  0  0  0  0  0
  -20.9497  -42.4642   -5.8896 C   0  0  0  0  0  0  0  0  0  0  0  0
  1  2  1  0
  2  3  1  0
  3  4  1  0
  4  5  2  0
  5  6  1  0
  6  7  2  0
  7  8  1  0
  8  9  2  0
  8 10  1  0
 10 11  2  0
 10 12  1  0
 12 13  1  0
 13 14  1  6
 14 15  1  0
 15 16  1  1
 15 17  1  0
 17 18  1  0
 18 19  1  0
 19 20  1  0
 20 21  1  0
 21 22  1  0
 22 23  1  0
 23 24  1  0
 13 25  1  0
 25 26  1  1
 25 27  1  0
 27 28  1  0
 28 29  1  0
 29 30  1  0
 30 31  2  0
 31 32  1  0
 32 33  2  0
 33 34  1  0
 34 35  2  0
 32 36  1  0
 36 37  1  0
 36 38  1  0
  9  4  1  0
 24  6  1  0
 35 30  1  0
M  END
$$$$
