
     RDKit          3D

 38 40  0  0  0  0  0  0  0  0999 V2000
  -22.5787  -42.0288   -0.7480 C   0  0  0  0  0  0  0  0  0  0  0  0
  -21.6723  -41.7454   -1.7499 O   0  0  0  0  0  0  0  0  0  0  0  0
  -21.7917  -42.5821   -2.8232 C   0  0  0  0  0  0  0  0  0  0  0  0
  -21.5611  -41.8618   -4.0972 C   0  0  0  0  0  0  0  0  0  0  0  0
  -22.5417  -41.6773   -5.0341 C   0  0  0  0  0  0  0  0  0  0  0  0
  -22.3250  -40.9719   -6.2477 C   0  0  0  0  0  0  0  0  0  0  0  0
  -21.0962  -40.4294   -6.5408 C   0  0  0  0  0  0  0  0  0  0  0  0
  -20.0816  -40.5992   -5.6146 C   0  0  0  0  0  0  0  0  0  0  0  0
  -20.3511  -41.3131   -4.4189 C   0  0  0  0  0  0  0  0  0  0  0  0
  -18.6721  -40.1655   -5.6325 C   0  0  0  0  0  0  0  0  0  0  0  0
  -18.2250  -39.7588   -4.4599 O   0  0  0  0  0  0  0  0  0  0  0  0
  -17.6696  -40.0768   -6.6013 N   0  0  0  0  0  0  0  0  0  0  0  0
  -17.3467  -40.9234   -7.7017 C   0  0  1  0  0  0  0  0  0  0  0  0
  -16.9172  -42.3168   -7.3882 C   0  0  0  0  0  0  0  0  0  0  0  0
  -17.9609  -43.2641   -6.9374 C   0  0  2  0  0  0  0  0  0  0  0  0
  -17.5195  -43.7806   -5.5578 C   0  0  0  0  0  0  0  0  0  0  0  0
  -17.9538  -44.5049   -7.8423 C   0  0  0  0  0  0  0  0  0  0  0  0
  -19.3733  -44.9042   -8.1938 C   0  0  0  0  0  0  0  0  0  0  0  0
  -20.1754  -43.8041   -8.3844 O   0  0  0  0  0  0  0  0  0  0  0  0
  -21.5247  -44.0204   -8.2744 C   0  0  0  0  0  0  0  0  0  0  0  0
  -22.3429  -43.1490   -9.1990 C   0  0  0  0  0  0  0  0  0  0  0  0
  -23.6743  -42.7521   -8.6691 C   0  0  0  0  0  0  0  0  0  0  0  0
  -23.8030  -41.2750   -8.3879 C   0  0  0  0  0  0  0  0  0  0  0  0
  -23.5611  -40.9961   -6.9980 N   0  0  0  0  0  0  0  0  0  0  0  0
  -18.3274  -40.8929   -8.8483 C   0  0  2  0  0  0  0  0  0  0  0  0
  -17.7078  -41.6176   -9.8959 O   0  0  0  0  0  0  0  0  0  0  0  0
  -18.3981  -39.4591   -9.3335 C   0  0  0  0  0  0  0  0  0  0  0  0
  -17.4935  -38.6919   -8.4619 N   0  0  0  0  0  0  0  0  0  0  0  0
  -16.2318  -38.4480   -9.1304 C   0  0  0  0  0  0  0  0  0  0  0  0
  -16.4913  -37.5091  -10.2509 C   0  0  0  0  0  0  0  0  0  0  0  0
  -17.7653  -37.0480  -10.5469 C   0  0  0  0  0  0  0  0  0  0  0  0
  -18.0321  -36.1841  -11.5731 C   0  0  0  0  0  0  0  0  0  0  0  0
  -16.9809  -35.7492  -12.3532 C   0  0  0  0  0  0  0  0  0  0  0  0
  -15.7029  -36.1718  -12.1063 C   0  0  0  0  0  0  0  0  0  0  0  0
  -15.4801  -37.0410  -11.0637 C   0  0  0  0  0  0  0  0  0  0  0  0
  -19.4041  -35.6945  -11.8827 C   0  0  0  0  0  0  0  0  0  0  0  0
  -19.6860  -35.7069  -13.3733 C   0  0  0  0  0  0  0  0  0  0  0  0
  -19.6302  -34.3032  -11.3322 C   0  0  0  0  0  0  0  0  0  0  0  0
  1  2  1  0
  2  3  1  0
  3  4  1  0
  4  5  2  0
  5  6  1  0
  6  7  2  0
  7  8  1  0
  8  9  2  0
  8 10  1  0
 10 11  2  0
 10 12  1  0
 12 13  1  0
 13 14  1  1
 14 15  1  0
 15 16  1  1
 15 17  1  0
 17 18  1  0
 18 19  1  0
 19 20  1  0
 20 21  1  0
 21 22  1  0
 22 23  1  0
 23 24  1  0
 13 25  1  0
 25 26  1  6
 25 27  1  0
 27 28  1  0
 28 29  1  0
 29 30  1  0
 30 31  2  0
 31 32  1  0
 32 33  2  0
 33 34  1  0
 34 35  2  0
 32 36  1  0
 36 37  1  0
 36 38  1  0
  9  4  1  0
 24  6  1  0
 35 30  1  0
M  END
$$$$
