
     RDKit          3D

 38 40  0  0  0  0  0  0  0  0999 V2000
  -25.6941  -42.9574  -11.3259 C   0  0  0  0  0  0  0  0  0  0  0  0
  -24.6177  -42.1380  -11.6006 O   0  0  0  0  0  0  0  0  0  0  0  0
  -24.2698  -41.3488  -10.5410 C   0  0  0  0  0  0  0  0  0  0  0  0
  -22.9692  -41.7622   -9.9644 C   0  0  0  0  0  0  0  0  0  0  0  0
  -22.8429  -42.8087   -9.0912 C   0  0  0  0  0  0  0  0  0  0  0  0
  -21.5936  -43.2157   -8.5519 C   0  0  0  0  0  0  0  0  0  0  0  0
  -20.4308  -42.5652   -8.8915 C   0  0  0  0  0  0  0  0  0  0  0  0
  -20.5238  -41.5011   -9.7717 C   0  0  0  0  0  0  0  0  0  0  0  0
  -21.7964  -41.1350  -10.2801 C   0  0  0  0  0  0  0  0  0  0  0  0
  -19.4895  -40.6000  -10.3135 C   0  0  0  0  0  0  0  0  0  0  0  0
  -19.6707  -40.2823  -11.5811 O   0  0  0  0  0  0  0  0  0  0  0  0
  -18.3417  -39.9841   -9.8092 N   0  0  0  0  0  0  0  0  0  0  0  0
  -18.0618  -39.4175   -8.5315 C   0  0  1  0  0  0  0  0  0  0  0  0
  -18.8746  -38.2388   -8.1143 C   0  0  0  0  0  0  0  0  0  0  0  0
  -20.2793  -38.4873   -7.7207 C   0  0  2  0  0  0  0  0  0  0  0  0
  -21.1542  -37.6250   -8.6458 C   0  0  0  0  0  0  0  0  0  0  0  0
  -20.5251  -37.9265   -6.3123 C   0  0  0  0  0  0  0  0  0  0  0  0
  -21.3314  -38.9122   -5.4901 C   0  0  0  0  0  0  0  0  0  0  0  0
  -20.9703  -40.2108   -5.7607 O   0  0  0  0  0  0  0  0  0  0  0  0
  -21.8905  -41.1704   -5.4261 C   0  0  0  0  0  0  0  0  0  0  0  0
  -21.2587  -42.4677   -4.9771 C   0  0  0  0  0  0  0  0  0  0  0  0
  -22.0303  -43.6913   -5.3214 C   0  0  0  0  0  0  0  0  0  0  0  0
  -21.3455  -44.5800   -6.3306 C   0  0  0  0  0  0  0  0  0  0  0  0
  -21.8405  -44.3241   -7.6564 N   0  0  0  0  0  0  0  0  0  0  0  0
  -17.9106  -40.4103   -7.4049 C   0  0  2  0  0  0  0  0  0  0  0  0
  -18.1258  -39.6700   -6.2165 O   0  0  0  0  0  0  0  0  0  0  0  0
  -16.4524  -40.8211   -7.3684 C   0  0  0  0  0  0  0  0  0  0  0  0
  -15.7054  -39.7175   -7.9933 N   0  0  0  0  0  0  0  0  0  0  0  0
  -15.5323  -39.9613   -9.4107 C   0  0  0  0  0  0  0  0  0  0  0  0
  -15.3016  -38.6499  -10.0672 C   0  0  0  0  0  0  0  0  0  0  0  0
  -16.2543  -38.0541  -10.8800 C   0  0  0  0  0  0  0  0  0  0  0  0
  -16.0673  -36.8479  -11.4972 C   0  0  0  0  0  0  0  0  0  0  0  0
  -14.8706  -36.1906  -11.3013 C   0  0  0  0  0  0  0  0  0  0  0  0
  -13.8948  -36.7320  -10.5091 C   0  0  0  0  0  0  0  0  0  0  0  0
  -14.1254  -37.9474   -9.9077 C   0  0  0  0  0  0  0  0  0  0  0  0
  -17.0971  -36.2164  -12.3682 C   0  0  0  0  0  0  0  0  0  0  0  0
  -17.4455  -34.8139  -11.9063 C   0  0  0  0  0  0  0  0  0  0  0  0
  -18.3529  -37.0580  -12.4361 C   0  0  0  0  0  0  0  0  0  0  0  0
  1  2  1  0
  2  3  1  0
  3  4  1  0
  4  5  2  0
  5  6  1  0
  6  7  2  0
  7  8  1  0
  8  9  2  0
  8 10  1  0
 10 11  2  0
 10 12  1  0
 12 13  1  0
 13 14  1  1
 14 15  1  0
 15 16  1  6
 15 17  1  0
 17 18  1  0
 18 19  1  0
 19 20  1  0
 20 21  1  0
 21 22  1  0
 22 23  1  0
 23 24  1  0
 13 25  1  0
 25 26  1  1
 25 27  1  0
 27 28  1  0
 28 29  1  0
 29 30  1  0
 30 31  2  0
 31 32  1  0
 32 33  2  0
 33 34  1  0
 34 35  2  0
 32 36  1  0
 36 37  1  0
 36 38  1  0
  9  4  1  0
 24  6  1  0
 35 30  1  0
M  END
$$$$
