
     RDKit          3D

 38 40  0  0  0  0  0  0  0  0999 V2000
   -9.7355  -44.6827  -10.0300 C   0  0  0  0  0  0  0  0  0  0  0  0
  -10.3834  -43.4710  -10.1632 O   0  0  0  0  0  0  0  0  0  0  0  0
  -11.3936  -43.5096  -11.0822 C   0  0  0  0  0  0  0  0  0  0  0  0
  -12.6462  -42.9418  -10.5312 C   0  0  0  0  0  0  0  0  0  0  0  0
  -13.8651  -43.1119  -11.1301 C   0  0  0  0  0  0  0  0  0  0  0  0
  -15.0683  -42.5819  -10.5927 C   0  0  0  0  0  0  0  0  0  0  0  0
  -15.0630  -41.8617   -9.4215 C   0  0  0  0  0  0  0  0  0  0  0  0
  -13.8459  -41.6701   -8.7908 C   0  0  0  0  0  0  0  0  0  0  0  0
  -12.6740  -42.2198   -9.3708 C   0  0  0  0  0  0  0  0  0  0  0  0
  -13.5001  -40.9442   -7.5544 C   0  0  0  0  0  0  0  0  0  0  0  0
  -12.5744  -41.5405   -6.8278 O   0  0  0  0  0  0  0  0  0  0  0  0
  -13.9155  -39.7567   -6.9474 N   0  0  0  0  0  0  0  0  0  0  0  0
  -14.2780  -38.4938   -7.5002 C   0  0  1  0  0  0  0  0  0  0  0  0
  -13.2221  -37.7437   -8.2396 C   0  0  0  0  0  0  0  0  0  0  0  0
  -12.8436  -38.2461   -9.5790 C   0  0  2  0  0  0  0  0  0  0  0  0
  -11.3339  -38.5344   -9.5301 C   0  0  0  0  0  0  0  0  0  0  0  0
  -12.9954  -37.1198  -10.6119 C   0  0  0  0  0  0  0  0  0  0  0  0
  -13.6551  -37.6489  -11.8699 C   0  0  0  0  0  0  0  0  0  0  0  0
  -14.6268  -38.5769  -11.5791 O   0  0  0  0  0  0  0  0  0  0  0  0
  -14.9747  -39.4206  -12.6023 C   0  0  0  0  0  0  0  0  0  0  0  0
  -16.4331  -39.8155  -12.5763 C   0  0  0  0  0  0  0  0  0  0  0  0
  -16.7192  -41.1856  -13.0782 C   0  0  0  0  0  0  0  0  0  0  0  0
  -17.2204  -42.1320  -12.0150 C   0  0  0  0  0  0  0  0  0  0  0  0
  -16.1445  -42.9312  -11.4933 N   0  0  0  0  0  0  0  0  0  0  0  0
  -15.5938  -38.4669   -8.2388 C   0  0  2  0  0  0  0  0  0  0  0  0
  -16.2724  -37.3187   -7.7615 O   0  0  0  0  0  0  0  0  0  0  0  0
  -16.4029  -39.6500   -7.7468 C   0  0  0  0  0  0  0  0  0  0  0  0
  -17.8016  -39.3589   -8.1011 N   0  0  0  0  0  0  0  0  0  0  0  0
  -18.5138  -38.8269   -6.9574 C   0  0  0  0  0  0  0  0  0  0  0  0
  -19.9665  -38.9246   -7.2476 C   0  0  0  0  0  0  0  0  0  0  0  0
  -20.9304  -38.6435   -6.2910 C   0  0  0  0  0  0  0  0  0  0  0  0
  -22.2743  -38.7263   -6.5315 C   0  0  0  0  0  0  0  0  0  0  0  0
  -22.6923  -39.1087   -7.7891 C   0  0  0  0  0  0  0  0  0  0  0  0
  -21.7846  -39.3980   -8.7717 C   0  0  0  0  0  0  0  0  0  0  0  0
  -20.4426  -39.3016   -8.4860 C   0  0  0  0  0  0  0  0  0  0  0  0
  -23.3017  -38.4219   -5.4972 C   0  0  0  0  0  0  0  0  0  0  0  0
  -24.1299  -39.6435   -5.1461 C   0  0  0  0  0  0  0  0  0  0  0  0
  -24.2129  -37.2976   -5.9395 C   0  0  0  0  0  0  0  0  0  0  0  0
  1  2  1  0
  2  3  1  0
  3  4  1  0
  4  5  2  0
  5  6  1  0
  6  7  2  0
  7  8  1  0
  8  9  2  0
  8 10  1  0
 10 11  2  0
 10 12  1  0
 12 13  1  0
 13 14  1  6
 14 15  1  0
 15 16  1  1
 15 17  1  0
 17 18  1  0
 18 19  1  0
 19 20  1  0
 20 21  1  0
 21 22  1  0
 22 23  1  0
 23 24  1  0
 13 25  1  0
 25 26  1  1
 25 27  1  0
 27 28  1  0
 28 29  1  0
 29 30  1  0
 30 31  2  0
 31 32  1  0
 32 33  2  0
 33 34  1  0
 34 35  2  0
 32 36  1  0
 36 37  1  0
 36 38  1  0
  9  4  1  0
 24  6  1  0
 35 30  1  0
M  END
$$$$
