
     RDKit          3D

 38 40  0  0  0  0  0  0  0  0999 V2000
  -18.4845  -36.9436  -15.5177 C   0  0  0  0  0  0  0  0  0  0  0  0
  -17.8506  -38.0250  -14.9394 O   0  0  0  0  0  0  0  0  0  0  0  0
  -18.6564  -39.1247  -14.8504 C   0  0  0  0  0  0  0  0  0  0  0  0
  -18.6792  -39.6666  -13.4717 C   0  0  0  0  0  0  0  0  0  0  0  0
  -19.8389  -39.8806  -12.7768 C   0  0  0  0  0  0  0  0  0  0  0  0
  -19.8615  -40.4161  -11.4615 C   0  0  0  0  0  0  0  0  0  0  0  0
  -18.6959  -40.7529  -10.8148 C   0  0  0  0  0  0  0  0  0  0  0  0
  -17.5047  -40.5476  -11.4892 C   0  0  0  0  0  0  0  0  0  0  0  0
  -17.5383  -40.0090  -12.8010 C   0  0  0  0  0  0  0  0  0  0  0  0
  -16.1075  -40.7823  -11.0795 C   0  0  0  0  0  0  0  0  0  0  0  0
  -15.3399  -41.2480  -12.0460 O   0  0  0  0  0  0  0  0  0  0  0  0
  -15.3771  -40.6303   -9.8985 N   0  0  0  0  0  0  0  0  0  0  0  0
  -15.4316  -39.6348   -8.8797 C   0  0  1  0  0  0  0  0  0  0  0  0
  -15.0856  -38.2378   -9.2708 C   0  0  0  0  0  0  0  0  0  0  0  0
  -16.0757  -37.4942  -10.0809 C   0  0  2  0  0  0  0  0  0  0  0  0
  -15.3584  -37.0735  -11.3745 C   0  0  0  0  0  0  0  0  0  0  0  0
  -16.4263  -36.1740   -9.3788 C   0  0  0  0  0  0  0  0  0  0  0  0
  -17.9224  -35.9351   -9.4309 C   0  0  0  0  0  0  0  0  0  0  0  0
  -18.6268  -37.1067   -9.2862 O   0  0  0  0  0  0  0  0  0  0  0  0
  -19.9202  -37.0879   -9.7406 C   0  0  0  0  0  0  0  0  0  0  0  0
  -20.8485  -37.9579   -8.9251 C   0  0  0  0  0  0  0  0  0  0  0  0
  -21.9548  -38.5857   -9.6951 C   0  0  0  0  0  0  0  0  0  0  0  0
  -21.8532  -40.0881   -9.7935 C   0  0  0  0  0  0  0  0  0  0  0  0
  -21.2419  -40.4791  -11.0352 N   0  0  0  0  0  0  0  0  0  0  0  0
  -16.6602  -39.6746   -8.0043 C   0  0  2  0  0  0  0  0  0  0  0  0
  -16.1767  -39.6712   -6.6729 O   0  0  0  0  0  0  0  0  0  0  0  0
  -17.3004  -41.0342   -8.1999 C   0  0  0  0  0  0  0  0  0  0  0  0
  -16.7657  -41.8909   -7.1290 N   0  0  0  0  0  0  0  0  0  0  0  0
  -17.2864  -41.4776   -5.8420 C   0  0  0  0  0  0  0  0  0  0  0  0
  -18.6910  -41.9502   -5.7529 C   0  0  0  0  0  0  0  0  0  0  0  0
  -19.7149  -41.1372   -5.2902 C   0  0  0  0  0  0  0  0  0  0  0  0
  -21.0164  -41.5474   -5.1972 C   0  0  0  0  0  0  0  0  0  0  0  0
  -21.3265  -42.8349   -5.5832 C   0  0  0  0  0  0  0  0  0  0  0  0
  -20.3558  -43.6805   -6.0476 C   0  0  0  0  0  0  0  0  0  0  0  0
  -19.0598  -43.2263   -6.1245 C   0  0  0  0  0  0  0  0  0  0  0  0
  -22.1088  -40.6664   -4.6991 C   0  0  0  0  0  0  0  0  0  0  0  0
  -23.4211  -40.9348   -5.4116 C   0  0  0  0  0  0  0  0  0  0  0  0
  -21.7436  -39.2043   -4.8362 C   0  0  0  0  0  0  0  0  0  0  0  0
  1  2  1  0
  2  3  1  0
  3  4  1  0
  4  5  2  0
  5  6  1  0
  6  7  2  0
  7  8  1  0
  8  9  2  0
  8 10  1  0
 10 11  2  0
 10 12  1  0
 12 13  1  0
 13 14  1  6
 14 15  1  0
 15 16  1  6
 15 17  1  0
 17 18  1  0
 18 19  1  0
 19 20  1  0
 20 21  1  0
 21 22  1  0
 22 23  1  0
 23 24  1  0
 13 25  1  0
 25 26  1  1
 25 27  1  0
 27 28  1  0
 28 29  1  0
 29 30  1  0
 30 31  2  0
 31 32  1  0
 32 33  2  0
 33 34  1  0
 34 35  2  0
 32 36  1  0
 36 37  1  0
 36 38  1  0
  9  4  1  0
 24  6  1  0
 35 30  1  0
M  END
$$$$
