
     RDKit          3D

 38 40  0  0  0  0  0  0  0  0999 V2000
  -19.1905  -41.4556  -16.5078 C   0  0  0  0  0  0  0  0  0  0  0  0
  -18.0522  -41.6052  -15.7413 O   0  0  0  0  0  0  0  0  0  0  0  0
  -17.6103  -40.4244  -15.2148 C   0  0  0  0  0  0  0  0  0  0  0  0
  -18.1142  -40.2264  -13.8357 C   0  0  0  0  0  0  0  0  0  0  0  0
  -19.0826  -39.3111  -13.5231 C   0  0  0  0  0  0  0  0  0  0  0  0
  -19.5778  -39.1332  -12.2038 C   0  0  0  0  0  0  0  0  0  0  0  0
  -19.0987  -39.8898  -11.1605 C   0  0  0  0  0  0  0  0  0  0  0  0
  -18.1172  -40.8242  -11.4424 C   0  0  0  0  0  0  0  0  0  0  0  0
  -17.6570  -40.9606  -12.7772 C   0  0  0  0  0  0  0  0  0  0  0  0
  -17.3943  -41.7634  -10.5646 C   0  0  0  0  0  0  0  0  0  0  0  0
  -17.1770  -42.9440  -11.1117 O   0  0  0  0  0  0  0  0  0  0  0  0
  -16.8693  -41.7144   -9.2710 N   0  0  0  0  0  0  0  0  0  0  0  0
  -16.2223  -40.6639   -8.5572 C   0  0  1  0  0  0  0  0  0  0  0  0
  -14.9249  -40.1676   -9.0999 C   0  0  0  0  0  0  0  0  0  0  0  0
  -14.9738  -39.3360  -10.3229 C   0  0  2  0  0  0  0  0  0  0  0  0
  -14.1068  -40.0487  -11.3742 C   0  0  0  0  0  0  0  0  0  0  0  0
  -14.2603  -38.0007  -10.0650 C   0  0  0  0  0  0  0  0  0  0  0  0
  -15.0669  -36.8559  -10.6454 C   0  0  0  0  0  0  0  0  0  0  0  0
  -16.4177  -37.0609  -10.4928 O   0  0  0  0  0  0  0  0  0  0  0  0
  -17.2308  -36.3449  -11.3329 C   0  0  0  0  0  0  0  0  0  0  0  0
  -18.5444  -35.9535  -10.6967 C   0  0  0  0  0  0  0  0  0  0  0  0
  -19.6985  -35.8911  -11.6321 C   0  0  0  0  0  0  0  0  0  0  0  0
  -20.7494  -36.9431  -11.3748 C   0  0  0  0  0  0  0  0  0  0  0  0
  -20.5628  -38.0752  -12.2419 N   0  0  0  0  0  0  0  0  0  0  0  0
  -17.1169  -39.5235   -8.1366 C   0  0  2  0  0  0  0  0  0  0  0  0
  -16.3645  -38.7794   -7.1951 O   0  0  0  0  0  0  0  0  0  0  0  0
  -18.2651  -40.1264   -7.3527 C   0  0  0  0  0  0  0  0  0  0  0  0
  -17.9670  -41.5634   -7.2391 N   0  0  0  0  0  0  0  0  0  0  0  0
  -19.1913  -42.3258   -7.1047 C   0  0  0  0  0  0  0  0  0  0  0  0
  -20.2242  -41.4211   -6.5401 C   0  0  0  0  0  0  0  0  0  0  0  0
  -20.1281  -40.9011   -5.2581 C   0  0  0  0  0  0  0  0  0  0  0  0
  -21.0652  -40.0667   -4.7135 C   0  0  0  0  0  0  0  0  0  0  0  0
  -22.1613  -39.7251   -5.4779 C   0  0  0  0  0  0  0  0  0  0  0  0
  -22.3074  -40.2091   -6.7497 C   0  0  0  0  0  0  0  0  0  0  0  0
  -21.3406  -41.0455   -7.2576 C   0  0  0  0  0  0  0  0  0  0  0  0
  -20.9526  -39.5132   -3.3355 C   0  0  0  0  0  0  0  0  0  0  0  0
  -21.5987  -40.4218   -2.3066 C   0  0  0  0  0  0  0  0  0  0  0  0
  -21.5583  -38.1293   -3.2461 C   0  0  0  0  0  0  0  0  0  0  0  0
  1  2  1  0
  2  3  1  0
  3  4  1  0
  4  5  2  0
  5  6  1  0
  6  7  2  0
  7  8  1  0
  8  9  2  0
  8 10  1  0
 10 11  2  0
 10 12  1  0
 12 13  1  0
 13 14  1  6
 14 15  1  0
 15 16  1  6
 15 17  1  0
 17 18  1  0
 18 19  1  0
 19 20  1  0
 20 21  1  0
 21 22  1  0
 22 23  1  0
 23 24  1  0
 13 25  1  0
 25 26  1  1
 25 27  1  0
 27 28  1  0
 28 29  1  0
 29 30  1  0
 30 31  2  0
 31 32  1  0
 32 33  2  0
 33 34  1  0
 34 35  2  0
 32 36  1  0
 36 37  1  0
 36 38  1  0
  9  4  1  0
 24  6  1  0
 35 30  1  0
M  END
$$$$
