
     RDKit          3D

 38 40  0  0  0  0  0  0  0  0999 V2000
  -24.2092  -40.9864  -13.5019 C   0  0  0  0  0  0  0  0  0  0  0  0
  -23.2982  -40.3662  -12.6707 O   0  0  0  0  0  0  0  0  0  0  0  0
  -22.9865  -41.1177  -11.5731 C   0  0  0  0  0  0  0  0  0  0  0  0
  -21.5227  -41.1661  -11.3503 C   0  0  0  0  0  0  0  0  0  0  0  0
  -20.7843  -42.3075  -11.5105 C   0  0  0  0  0  0  0  0  0  0  0  0
  -19.3784  -42.3498  -11.3135 C   0  0  0  0  0  0  0  0  0  0  0  0
  -18.6812  -41.2225  -10.9479 C   0  0  0  0  0  0  0  0  0  0  0  0
  -19.3983  -40.0512  -10.7760 C   0  0  0  0  0  0  0  0  0  0  0  0
  -20.8014  -40.0641  -10.9845 C   0  0  0  0  0  0  0  0  0  0  0  0
  -18.9633  -38.6995  -10.3775 C   0  0  0  0  0  0  0  0  0  0  0  0
  -19.5831  -37.7290  -11.0213 O   0  0  0  0  0  0  0  0  0  0  0  0
  -18.0399  -38.1781   -9.4683 N   0  0  0  0  0  0  0  0  0  0  0  0
  -17.6610  -38.6053   -8.1623 C   0  0  1  0  0  0  0  0  0  0  0  0
  -18.7120  -38.5822   -7.1045 C   0  0  0  0  0  0  0  0  0  0  0  0
  -19.7601  -39.6251   -7.1654 C   0  0  2  0  0  0  0  0  0  0  0  0
  -21.1077  -38.8896   -7.2521 C   0  0  0  0  0  0  0  0  0  0  0  0
  -19.8104  -40.3814   -5.8297 C   0  0  0  0  0  0  0  0  0  0  0  0
  -19.9363  -41.8717   -6.0767 C   0  0  0  0  0  0  0  0  0  0  0  0
  -19.2020  -42.2667   -7.1697 O   0  0  0  0  0  0  0  0  0  0  0  0
  -19.5695  -43.4586   -7.7392 C   0  0  0  0  0  0  0  0  0  0  0  0
  -18.4024  -44.2253   -8.3168 C   0  0  0  0  0  0  0  0  0  0  0  0
  -18.7212  -45.0353   -9.5222 C   0  0  0  0  0  0  0  0  0  0  0  0
  -18.0513  -44.5436  -10.7819 C   0  0  0  0  0  0  0  0  0  0  0  0
  -18.9421  -43.7093  -11.5426 N   0  0  0  0  0  0  0  0  0  0  0  0
  -16.8527  -39.8787   -8.1095 C   0  0  2  0  0  0  0  0  0  0  0  0
  -16.5602  -40.0849   -6.7390 O   0  0  0  0  0  0  0  0  0  0  0  0
  -15.5202  -39.5859   -8.7691 C   0  0  0  0  0  0  0  0  0  0  0  0
  -15.4759  -40.4217   -9.9800 N   0  0  0  0  0  0  0  0  0  0  0  0
  -15.6683  -39.6093  -11.1637 C   0  0  0  0  0  0  0  0  0  0  0  0
  -14.4024  -38.8756  -11.4157 C   0  0  0  0  0  0  0  0  0  0  0  0
  -14.3396  -37.4902  -11.4127 C   0  0  0  0  0  0  0  0  0  0  0  0
  -13.1875  -36.7898  -11.6425 C   0  0  0  0  0  0  0  0  0  0  0  0
  -12.0294  -37.4970  -11.8899 C   0  0  0  0  0  0  0  0  0  0  0  0
  -12.0332  -38.8655  -11.9048 C   0  0  0  0  0  0  0  0  0  0  0  0
  -13.2146  -39.5294  -11.6685 C   0  0  0  0  0  0  0  0  0  0  0  0
  -13.1305  -35.3017  -11.6369 C   0  0  0  0  0  0  0  0  0  0  0  0
  -14.0607  -34.6961  -12.6711 C   0  0  0  0  0  0  0  0  0  0  0  0
  -11.7200  -34.8033  -11.8652 C   0  0  0  0  0  0  0  0  0  0  0  0
  1  2  1  0
  2  3  1  0
  3  4  1  0
  4  5  2  0
  5  6  1  0
  6  7  2  0
  7  8  1  0
  8  9  2  0
  8 10  1  0
 10 11  2  0
 10 12  1  0
 12 13  1  0
 13 14  1  1
 14 15  1  0
 15 16  1  1
 15 17  1  0
 17 18  1  0
 18 19  1  0
 19 20  1  0
 20 21  1  0
 21 22  1  0
 22 23  1  0
 23 24  1  0
 13 25  1  0
 25 26  1  1
 25 27  1  0
 27 28  1  0
 28 29  1  0
 29 30  1  0
 30 31  2  0
 31 32  1  0
 32 33  2  0
 33 34  1  0
 34 35  2  0
 32 36  1  0
 36 37  1  0
 36 38  1  0
  9  4  1  0
 24  6  1  0
 35 30  1  0
M  END
$$$$
