
     RDKit          3D

 38 40  0  0  0  0  0  0  0  0999 V2000
  -13.4967  -43.2570  -15.6767 C   0  0  0  0  0  0  0  0  0  0  0  0
  -13.1575  -41.9422  -15.4279 O   0  0  0  0  0  0  0  0  0  0  0  0
  -12.4574  -41.7876  -14.2649 C   0  0  0  0  0  0  0  0  0  0  0  0
  -13.0989  -40.7895  -13.3776 C   0  0  0  0  0  0  0  0  0  0  0  0
  -12.6208  -39.5163  -13.2240 C   0  0  0  0  0  0  0  0  0  0  0  0
  -13.2457  -38.5543  -12.3865 C   0  0  0  0  0  0  0  0  0  0  0  0
  -14.3837  -38.8643  -11.6800 C   0  0  0  0  0  0  0  0  0  0  0  0
  -14.8928  -40.1446  -11.8118 C   0  0  0  0  0  0  0  0  0  0  0  0
  -14.2291  -41.0672  -12.6606 C   0  0  0  0  0  0  0  0  0  0  0  0
  -16.0644  -40.7892  -11.1897 C   0  0  0  0  0  0  0  0  0  0  0  0
  -16.7252  -41.5913  -12.0023 O   0  0  0  0  0  0  0  0  0  0  0  0
  -16.6620  -40.7635   -9.9274 N   0  0  0  0  0  0  0  0  0  0  0  0
  -16.0977  -40.6947   -8.6202 C   0  0  1  0  0  0  0  0  0  0  0  0
  -15.2373  -41.8334   -8.1871 C   0  0  0  0  0  0  0  0  0  0  0  0
  -13.8887  -41.9326   -8.7880 C   0  0  2  0  0  0  0  0  0  0  0  0
  -13.8102  -43.3100   -9.4672 C   0  0  0  0  0  0  0  0  0  0  0  0
  -12.8325  -41.9829   -7.6741 C   0  0  0  0  0  0  0  0  0  0  0  0
  -11.6608  -41.0869   -8.0233 C   0  0  0  0  0  0  0  0  0  0  0  0
  -12.0737  -39.9381   -8.6556 O   0  0  0  0  0  0  0  0  0  0  0  0
  -11.1189  -39.2814   -9.3882 C   0  0  0  0  0  0  0  0  0  0  0  0
  -11.2929  -37.7803   -9.3802 C   0  0  0  0  0  0  0  0  0  0  0  0
  -10.8709  -37.0950  -10.6305 C   0  0  0  0  0  0  0  0  0  0  0  0
  -12.0101  -36.4685  -11.3967 C   0  0  0  0  0  0  0  0  0  0  0  0
  -12.4608  -37.3412  -12.4472 N   0  0  0  0  0  0  0  0  0  0  0  0
  -15.4820  -39.3668   -8.2526 C   0  0  2  0  0  0  0  0  0  0  0  0
  -15.6017  -39.2709   -6.8445 O   0  0  0  0  0  0  0  0  0  0  0  0
  -16.3879  -38.2881   -8.8112 C   0  0  0  0  0  0  0  0  0  0  0  0
  -17.7489  -38.8479   -8.7826 N   0  0  0  0  0  0  0  0  0  0  0  0
  -18.7315  -37.7870   -8.6968 C   0  0  0  0  0  0  0  0  0  0  0  0
  -20.0365  -38.4096   -8.3597 C   0  0  0  0  0  0  0  0  0  0  0  0
  -20.1719  -39.7748   -8.1567 C   0  0  0  0  0  0  0  0  0  0  0  0
  -21.3617  -40.3739   -7.8462 C   0  0  0  0  0  0  0  0  0  0  0  0
  -22.4837  -39.5802   -7.7290 C   0  0  0  0  0  0  0  0  0  0  0  0
  -22.4081  -38.2269   -7.9187 C   0  0  0  0  0  0  0  0  0  0  0  0
  -21.1910  -37.6664   -8.2296 C   0  0  0  0  0  0  0  0  0  0  0  0
  -21.4967  -41.8411   -7.6298 C   0  0  0  0  0  0  0  0  0  0  0  0
  -21.8400  -42.1711   -6.1894 C   0  0  0  0  0  0  0  0  0  0  0  0
  -20.2377  -42.5762   -8.0355 C   0  0  0  0  0  0  0  0  0  0  0  0
  1  2  1  0
  2  3  1  0
  3  4  1  0
  4  5  2  0
  5  6  1  0
  6  7  2  0
  7  8  1  0
  8  9  2  0
  8 10  1  0
 10 11  2  0
 10 12  1  0
 12 13  1  0
 13 14  1  6
 14 15  1  0
 15 16  1  1
 15 17  1  0
 17 18  1  0
 18 19  1  0
 19 20  1  0
 20 21  1  0
 21 22  1  0
 22 23  1  0
 23 24  1  0
 13 25  1  0
 25 26  1  1
 25 27  1  0
 27 28  1  0
 28 29  1  0
 29 30  1  0
 30 31  2  0
 31 32  1  0
 32 33  2  0
 33 34  1  0
 34 35  2  0
 32 36  1  0
 36 37  1  0
 36 38  1  0
  9  4  1  0
 24  6  1  0
 35 30  1  0
M  END
$$$$
