
     RDKit          3D

 38 40  0  0  0  0  0  0  0  0999 V2000
  -21.0440  -48.0326   -8.3779 C   0  0  0  0  0  0  0  0  0  0  0  0
  -20.6293  -46.7237   -8.5211 O   0  0  0  0  0  0  0  0  0  0  0  0
  -21.5166  -45.8274   -7.9960 C   0  0  0  0  0  0  0  0  0  0  0  0
  -20.8179  -44.7125   -7.3149 C   0  0  0  0  0  0  0  0  0  0  0  0
  -21.0910  -44.3418   -6.0259 C   0  0  0  0  0  0  0  0  0  0  0  0
  -20.4093  -43.2841   -5.3674 C   0  0  0  0  0  0  0  0  0  0  0  0
  -19.4223  -42.5720   -6.0072 C   0  0  0  0  0  0  0  0  0  0  0  0
  -19.1224  -42.9206   -7.3128 C   0  0  0  0  0  0  0  0  0  0  0  0
  -19.8344  -43.9844   -7.9240 C   0  0  0  0  0  0  0  0  0  0  0  0
  -18.1492  -42.3559   -8.2662 C   0  0  0  0  0  0  0  0  0  0  0  0
  -17.5470  -43.2620   -9.0123 O   0  0  0  0  0  0  0  0  0  0  0  0
  -17.6963  -41.0734   -8.5849 N   0  0  0  0  0  0  0  0  0  0  0  0
  -18.3798  -39.8246   -8.6559 C   0  0  1  0  0  0  0  0  0  0  0  0
  -19.4598  -39.6942   -9.6762 C   0  0  0  0  0  0  0  0  0  0  0  0
  -20.7328  -40.4009   -9.4119 C   0  0  2  0  0  0  0  0  0  0  0  0
  -20.9655  -41.3471  -10.6016 C   0  0  0  0  0  0  0  0  0  0  0  0
  -21.8971  -39.4012   -9.4714 C   0  0  0  0  0  0  0  0  0  0  0  0
  -22.8583  -39.6488   -8.3256 C   0  0  0  0  0  0  0  0  0  0  0  0
  -22.1935  -40.0048   -7.1761 O   0  0  0  0  0  0  0  0  0  0  0  0
  -22.9402  -40.6590   -6.2306 C   0  0  0  0  0  0  0  0  0  0  0  0
  -22.5205  -40.3365   -4.8152 C   0  0  0  0  0  0  0  0  0  0  0  0
  -22.6841  -41.4511   -3.8448 C   0  0  0  0  0  0  0  0  0  0  0  0
  -21.3801  -41.9892   -3.3088 C   0  0  0  0  0  0  0  0  0  0  0  0
  -20.9697  -43.1575   -4.0403 N   0  0  0  0  0  0  0  0  0  0  0  0
  -18.8019  -39.2440   -7.3283 C   0  0  2  0  0  0  0  0  0  0  0  0
  -19.8949  -38.3910   -7.6184 O   0  0  0  0  0  0  0  0  0  0  0  0
  -17.6844  -38.3294   -6.8688 C   0  0  0  0  0  0  0  0  0  0  0  0
  -16.4345  -39.0741   -7.0920 N   0  0  0  0  0  0  0  0  0  0  0  0
  -15.4422  -38.2231   -7.7161 C   0  0  0  0  0  0  0  0  0  0  0  0
  -16.1070  -37.4996   -8.8291 C   0  0  0  0  0  0  0  0  0  0  0  0
  -15.6177  -37.5320  -10.1263 C   0  0  0  0  0  0  0  0  0  0  0  0
  -16.2097  -36.8744  -11.1693 C   0  0  0  0  0  0  0  0  0  0  0  0
  -17.3512  -36.1418  -10.9184 C   0  0  0  0  0  0  0  0  0  0  0  0
  -17.8782  -36.0749   -9.6571 C   0  0  0  0  0  0  0  0  0  0  0  0
  -17.2501  -36.7519   -8.6377 C   0  0  0  0  0  0  0  0  0  0  0  0
  -15.6764  -36.9157  -12.5592 C   0  0  0  0  0  0  0  0  0  0  0  0
  -16.5011  -37.8210  -13.4547 C   0  0  0  0  0  0  0  0  0  0  0  0
  -14.2291  -37.3570  -12.5814 C   0  0  0  0  0  0  0  0  0  0  0  0
  1  2  1  0
  2  3  1  0
  3  4  1  0
  4  5  2  0
  5  6  1  0
  6  7  2  0
  7  8  1  0
  8  9  2  0
  8 10  1  0
 10 11  2  0
 10 12  1  0
 12 13  1  0
 13 14  1  6
 14 15  1  0
 15 16  1  6
 15 17  1  0
 17 18  1  0
 18 19  1  0
 19 20  1  0
 20 21  1  0
 21 22  1  0
 22 23  1  0
 23 24  1  0
 13 25  1  0
 25 26  1  6
 25 27  1  0
 27 28  1  0
 28 29  1  0
 29 30  1  0
 30 31  2  0
 31 32  1  0
 32 33  2  0
 33 34  1  0
 34 35  2  0
 32 36  1  0
 36 37  1  0
 36 38  1  0
  9  4  1  0
 24  6  1  0
 35 30  1  0
M  END
$$$$
