
     RDKit          3D

 38 40  0  0  0  0  0  0  0  0999 V2000
  -14.6429  -37.5469  -16.0668 C   0  0  0  0  0  0  0  0  0  0  0  0
  -15.3210  -37.9922  -14.9499 O   0  0  0  0  0  0  0  0  0  0  0  0
  -16.1970  -37.0659  -14.4588 C   0  0  0  0  0  0  0  0  0  0  0  0
  -16.5337  -37.3397  -13.0422 C   0  0  0  0  0  0  0  0  0  0  0  0
  -16.4065  -36.4014  -12.0538 C   0  0  0  0  0  0  0  0  0  0  0  0
  -16.7456  -36.6588  -10.6988 C   0  0  0  0  0  0  0  0  0  0  0  0
  -17.2291  -37.8862  -10.3115 C   0  0  0  0  0  0  0  0  0  0  0  0
  -17.3686  -38.8585  -11.2867 C   0  0  0  0  0  0  0  0  0  0  0  0
  -17.0142  -38.5495  -12.6250 C   0  0  0  0  0  0  0  0  0  0  0  0
  -17.8330  -40.2557  -11.2011 C   0  0  0  0  0  0  0  0  0  0  0  0
  -18.5731  -40.6348  -12.2253 O   0  0  0  0  0  0  0  0  0  0  0  0
  -17.6810  -41.3015  -10.2876 N   0  0  0  0  0  0  0  0  0  0  0  0
  -16.5695  -41.6991   -9.4886 C   0  0  1  0  0  0  0  0  0  0  0  0
  -15.3403  -42.1482  -10.2037 C   0  0  0  0  0  0  0  0  0  0  0  0
  -14.5209  -41.1084  -10.8650 C   0  0  2  0  0  0  0  0  0  0  0  0
  -14.4352  -41.4952  -12.3509 C   0  0  0  0  0  0  0  0  0  0  0  0
  -13.0753  -41.1911  -10.3533 C   0  0  0  0  0  0  0  0  0  0  0  0
  -12.5384  -39.8011  -10.0751 C   0  0  0  0  0  0  0  0  0  0  0  0
  -13.5073  -38.9814   -9.5466 O   0  0  0  0  0  0  0  0  0  0  0  0
  -13.2797  -37.6343   -9.6607 C   0  0  0  0  0  0  0  0  0  0  0  0
  -13.8203  -36.8401   -8.4942 C   0  0  0  0  0  0  0  0  0  0  0  0
  -14.3001  -35.4748   -8.8358 C   0  0  0  0  0  0  0  0  0  0  0  0
  -15.7901  -35.2949   -8.6779 C   0  0  0  0  0  0  0  0  0  0  0  0
  -16.4617  -35.4617   -9.9387 N   0  0  0  0  0  0  0  0  0  0  0  0
  -16.2352  -40.7748   -8.3434 C   0  0  2  0  0  0  0  0  0  0  0  0
  -14.9491  -41.1704   -7.9007 O   0  0  0  0  0  0  0  0  0  0  0  0
  -17.1782  -41.1169   -7.2075 C   0  0  0  0  0  0  0  0  0  0  0  0
  -18.5339  -40.8414   -7.7103 N   0  0  0  0  0  0  0  0  0  0  0  0
  -19.3364  -42.0471   -7.6902 C   0  0  0  0  0  0  0  0  0  0  0  0
  -20.6099  -41.7276   -6.9971 C   0  0  0  0  0  0  0  0  0  0  0  0
  -20.9243  -40.4403   -6.5883 C   0  0  0  0  0  0  0  0  0  0  0  0
  -22.0892  -40.1188   -5.9475 C   0  0  0  0  0  0  0  0  0  0  0  0
  -22.9973  -41.1259   -5.6952 C   0  0  0  0  0  0  0  0  0  0  0  0
  -22.7390  -42.4146   -6.0765 C   0  0  0  0  0  0  0  0  0  0  0  0
  -21.5547  -42.6930   -6.7184 C   0  0  0  0  0  0  0  0  0  0  0  0
  -22.4176  -38.7329   -5.5127 C   0  0  0  0  0  0  0  0  0  0  0  0
  -21.1715  -37.8868   -5.3311 C   0  0  0  0  0  0  0  0  0  0  0  0
  -23.2250  -38.7335   -4.2327 C   0  0  0  0  0  0  0  0  0  0  0  0
  1  2  1  0
  2  3  1  0
  3  4  1  0
  4  5  2  0
  5  6  1  0
  6  7  2  0
  7  8  1  0
  8  9  2  0
  8 10  1  0
 10 11  2  0
 10 12  1  0
 12 13  1  0
 13 14  1  6
 14 15  1  0
 15 16  1  6
 15 17  1  0
 17 18  1  0
 18 19  1  0
 19 20  1  0
 20 21  1  0
 21 22  1  0
 22 23  1  0
 23 24  1  0
 13 25  1  0
 25 26  1  1
 25 27  1  0
 27 28  1  0
 28 29  1  0
 29 30  1  0
 30 31  2  0
 31 32  1  0
 32 33  2  0
 33 34  1  0
 34 35  2  0
 32 36  1  0
 36 37  1  0
 36 38  1  0
  9  4  1  0
 24  6  1  0
 35 30  1  0
M  END
$$$$
