
     RDKit          3D

 38 40  0  0  0  0  0  0  0  0999 V2000
  -23.3850  -42.6329   -9.2977 C   0  0  0  0  0  0  0  0  0  0  0  0
  -23.6663  -42.7722  -10.6420 O   0  0  0  0  0  0  0  0  0  0  0  0
  -22.6858  -43.4384  -11.3213 C   0  0  0  0  0  0  0  0  0  0  0  0
  -21.3411  -43.0931  -10.8040 C   0  0  0  0  0  0  0  0  0  0  0  0
  -20.6279  -43.9200   -9.9787 C   0  0  0  0  0  0  0  0  0  0  0  0
  -19.3317  -43.5964   -9.4966 C   0  0  0  0  0  0  0  0  0  0  0  0
  -18.7214  -42.4150   -9.8464 C   0  0  0  0  0  0  0  0  0  0  0  0
  -19.4164  -41.5550  -10.6790 C   0  0  0  0  0  0  0  0  0  0  0  0
  -20.7087  -41.9262  -11.1311 C   0  0  0  0  0  0  0  0  0  0  0  0
  -19.0593  -40.2288  -11.2164 C   0  0  0  0  0  0  0  0  0  0  0  0
  -19.4449  -40.0378  -12.4635 O   0  0  0  0  0  0  0  0  0  0  0  0
  -18.4016  -39.0990  -10.7243 N   0  0  0  0  0  0  0  0  0  0  0  0
  -18.4092  -38.4929   -9.4342 C   0  0  1  0  0  0  0  0  0  0  0  0
  -19.7077  -37.9478   -8.9434 C   0  0  0  0  0  0  0  0  0  0  0  0
  -20.7354  -38.9228   -8.5156 C   0  0  2  0  0  0  0  0  0  0  0  0
  -21.9813  -38.6544   -9.3762 C   0  0  0  0  0  0  0  0  0  0  0  0
  -21.1754  -38.6079   -7.0783 C   0  0  0  0  0  0  0  0  0  0  0  0
  -21.2817  -39.8869   -6.2716 C   0  0  0  0  0  0  0  0  0  0  0  0
  -20.2912  -40.7795   -6.6065 O   0  0  0  0  0  0  0  0  0  0  0  0
  -20.5310  -42.0898   -6.2821 C   0  0  0  0  0  0  0  0  0  0  0  0
  -19.2784  -42.8472   -5.9069 C   0  0  0  0  0  0  0  0  0  0  0  0
  -19.2842  -44.2876   -6.2760 C   0  0  0  0  0  0  0  0  0  0  0  0
  -18.2787  -44.6479   -7.3420 C   0  0  0  0  0  0  0  0  0  0  0  0
  -18.8977  -44.6775   -8.6398 N   0  0  0  0  0  0  0  0  0  0  0  0
  -17.6916  -39.2656   -8.3545 C   0  0  2  0  0  0  0  0  0  0  0  0
  -18.1424  -38.7133   -7.1305 O   0  0  0  0  0  0  0  0  0  0  0  0
  -16.2240  -38.9001   -8.4483 C   0  0  0  0  0  0  0  0  0  0  0  0
  -15.4797  -40.1325   -8.1420 N   0  0  0  0  0  0  0  0  0  0  0  0
  -15.1540  -40.8440   -9.3610 C   0  0  0  0  0  0  0  0  0  0  0  0
  -14.6407  -39.8504  -10.3375 C   0  0  0  0  0  0  0  0  0  0  0  0
  -14.8130  -38.4857  -10.1609 C   0  0  0  0  0  0  0  0  0  0  0  0
  -14.3512  -37.5495  -11.0448 C   0  0  0  0  0  0  0  0  0  0  0  0
  -13.6802  -37.9846  -12.1686 C   0  0  0  0  0  0  0  0  0  0  0  0
  -13.4815  -39.3198  -12.3935 C   0  0  0  0  0  0  0  0  0  0  0  0
  -13.9629  -40.2268  -11.4782 C   0  0  0  0  0  0  0  0  0  0  0  0
  -14.5412  -36.0859  -10.8460 C   0  0  0  0  0  0  0  0  0  0  0  0
  -14.3150  -35.3069  -12.1280 C   0  0  0  0  0  0  0  0  0  0  0  0
  -13.6321  -35.5547   -9.7590 C   0  0  0  0  0  0  0  0  0  0  0  0
  1  2  1  0
  2  3  1  0
  3  4  1  0
  4  5  2  0
  5  6  1  0
  6  7  2  0
  7  8  1  0
  8  9  2  0
  8 10  1  0
 10 11  2  0
 10 12  1  0
 12 13  1  0
 13 14  1  1
 14 15  1  0
 15 16  1  6
 15 17  1  0
 17 18  1  0
 18 19  1  0
 19 20  1  0
 20 21  1  0
 21 22  1  0
 22 23  1  0
 23 24  1  0
 13 25  1  0
 25 26  1  1
 25 27  1  0
 27 28  1  0
 28 29  1  0
 29 30  1  0
 30 31  2  0
 31 32  1  0
 32 33  2  0
 33 34  1  0
 34 35  2  0
 32 36  1  0
 36 37  1  0
 36 38  1  0
  9  4  1  0
 24  6  1  0
 35 30  1  0
M  END
$$$$
