
     RDKit          3D

 38 40  0  0  0  0  0  0  0  0999 V2000
  -12.1284  -35.4059  -12.0084 C   0  0  0  0  0  0  0  0  0  0  0  0
  -13.4905  -35.4185  -11.7844 O   0  0  0  0  0  0  0  0  0  0  0  0
  -13.8104  -35.2852  -10.4629 C   0  0  0  0  0  0  0  0  0  0  0  0
  -14.5027  -36.4909   -9.9510 C   0  0  0  0  0  0  0  0  0  0  0  0
  -14.2086  -37.0586   -8.7408 C   0  0  0  0  0  0  0  0  0  0  0  0
  -14.8842  -38.2044   -8.2427 C   0  0  0  0  0  0  0  0  0  0  0  0
  -15.8861  -38.8056   -8.9673 C   0  0  0  0  0  0  0  0  0  0  0  0
  -16.2074  -38.2570  -10.1968 C   0  0  0  0  0  0  0  0  0  0  0  0
  -15.5008  -37.1127  -10.6479 C   0  0  0  0  0  0  0  0  0  0  0  0
  -17.2005  -38.6639  -11.2085 C   0  0  0  0  0  0  0  0  0  0  0  0
  -17.8110  -37.6510  -11.7931 O   0  0  0  0  0  0  0  0  0  0  0  0
  -17.6658  -39.8798  -11.7147 N   0  0  0  0  0  0  0  0  0  0  0  0
  -16.9902  -41.1040  -11.9919 C   0  0  1  0  0  0  0  0  0  0  0  0
  -15.9294  -41.0764  -13.0398 C   0  0  0  0  0  0  0  0  0  0  0  0
  -14.6481  -40.4227  -12.6923 C   0  0  2  0  0  0  0  0  0  0  0  0
  -14.4317  -39.3032  -13.7241 C   0  0  0  0  0  0  0  0  0  0  0  0
  -13.4903  -41.4038  -12.9282 C   0  0  0  0  0  0  0  0  0  0  0  0
  -12.5076  -41.3401  -11.7757 C   0  0  0  0  0  0  0  0  0  0  0  0
  -13.1499  -41.1660  -10.5728 O   0  0  0  0  0  0  0  0  0  0  0  0
  -12.3830  -40.6690   -9.5508 C   0  0  0  0  0  0  0  0  0  0  0  0
  -12.7791  -41.2072   -8.1954 C   0  0  0  0  0  0  0  0  0  0  0  0
  -12.5923  -40.2578   -7.0664 C   0  0  0  0  0  0  0  0  0  0  0  0
  -13.8837  -39.8066   -6.4292 C   0  0  0  0  0  0  0  0  0  0  0  0
  -14.3008  -38.5376   -6.9620 N   0  0  0  0  0  0  0  0  0  0  0  0
  -16.5477  -41.8854  -10.7790 C   0  0  2  0  0  0  0  0  0  0  0  0
  -15.7901  -42.9707  -11.2836 O   0  0  0  0  0  0  0  0  0  0  0  0
  -17.7906  -42.5054  -10.1730 C   0  0  0  0  0  0  0  0  0  0  0  0
  -18.0660  -41.7419   -8.9451 N   0  0  0  0  0  0  0  0  0  0  0  0
  -18.9950  -42.4619   -8.0984 C   0  0  0  0  0  0  0  0  0  0  0  0
  -20.2803  -41.7189   -8.1083 C   0  0  0  0  0  0  0  0  0  0  0  0
  -20.4832  -40.5855   -7.3353 C   0  0  0  0  0  0  0  0  0  0  0  0
  -21.6568  -39.8831   -7.3250 C   0  0  0  0  0  0  0  0  0  0  0  0
  -22.6911  -40.3243   -8.1239 C   0  0  0  0  0  0  0  0  0  0  0  0
  -22.5463  -41.4371   -8.9073 C   0  0  0  0  0  0  0  0  0  0  0  0
  -21.3485  -42.1131   -8.8867 C   0  0  0  0  0  0  0  0  0  0  0  0
  -21.8646  -38.6668   -6.4913 C   0  0  0  0  0  0  0  0  0  0  0  0
  -22.1783  -39.0167   -5.0488 C   0  0  0  0  0  0  0  0  0  0  0  0
  -22.9641  -37.7932   -7.0552 C   0  0  0  0  0  0  0  0  0  0  0  0
  1  2  1  0
  2  3  1  0
  3  4  1  0
  4  5  2  0
  5  6  1  0
  6  7  2  0
  7  8  1  0
  8  9  2  0
  8 10  1  0
 10 11  2  0
 10 12  1  0
 12 13  1  0
 13 14  1  6
 14 15  1  0
 15 16  1  6
 15 17  1  0
 17 18  1  0
 18 19  1  0
 19 20  1  0
 20 21  1  0
 21 22  1  0
 22 23  1  0
 23 24  1  0
 13 25  1  0
 25 26  1  6
 25 27  1  0
 27 28  1  0
 28 29  1  0
 29 30  1  0
 30 31  2  0
 31 32  1  0
 32 33  2  0
 33 34  1  0
 34 35  2  0
 32 36  1  0
 36 37  1  0
 36 38  1  0
  9  4  1  0
 24  6  1  0
 35 30  1  0
M  END
$$$$
