
     RDKit          3D

 38 40  0  0  0  0  0  0  0  0999 V2000
  -25.4041  -41.8451  -12.5626 C   0  0  0  0  0  0  0  0  0  0  0  0
  -24.0663  -42.0679  -12.3052 O   0  0  0  0  0  0  0  0  0  0  0  0
  -23.7390  -41.8651  -10.9944 C   0  0  0  0  0  0  0  0  0  0  0  0
  -22.2740  -41.9394  -10.7864 C   0  0  0  0  0  0  0  0  0  0  0  0
  -21.6455  -43.0643  -10.3246 C   0  0  0  0  0  0  0  0  0  0  0  0
  -20.2392  -43.1411  -10.1414 C   0  0  0  0  0  0  0  0  0  0  0  0
  -19.4289  -42.0679  -10.4280 C   0  0  0  0  0  0  0  0  0  0  0  0
  -20.0331  -40.9137  -10.8957 C   0  0  0  0  0  0  0  0  0  0  0  0
  -21.4419  -40.8899  -11.0595 C   0  0  0  0  0  0  0  0  0  0  0  0
  -19.4627  -39.6066  -11.2714 C   0  0  0  0  0  0  0  0  0  0  0  0
  -20.0343  -39.0594  -12.3270 O   0  0  0  0  0  0  0  0  0  0  0  0
  -18.4473  -38.7841  -10.7778 N   0  0  0  0  0  0  0  0  0  0  0  0
  -18.0307  -38.5002   -9.4444 C   0  0  1  0  0  0  0  0  0  0  0  0
  -19.0129  -37.8189   -8.5526 C   0  0  0  0  0  0  0  0  0  0  0  0
  -20.1473  -38.6252   -8.0499 C   0  0  2  0  0  0  0  0  0  0  0  0
  -21.4306  -37.9103   -8.5049 C   0  0  0  0  0  0  0  0  0  0  0  0
  -20.1839  -38.5600   -6.5160 C   0  0  0  0  0  0  0  0  0  0  0  0
  -20.4498  -39.9368   -5.9400 C   0  0  0  0  0  0  0  0  0  0  0  0
  -19.8163  -40.9187   -6.6643 O   0  0  0  0  0  0  0  0  0  0  0  0
  -20.3158  -42.1871   -6.5185 C   0  0  0  0  0  0  0  0  0  0  0  0
  -19.2533  -43.2577   -6.6109 C   0  0  0  0  0  0  0  0  0  0  0  0
  -19.7090  -44.5414   -7.2070 C   0  0  0  0  0  0  0  0  0  0  0  0
  -19.0741  -44.8541   -8.5398 C   0  0  0  0  0  0  0  0  0  0  0  0
  -19.9337  -44.4556   -9.6218 N   0  0  0  0  0  0  0  0  0  0  0  0
  -17.3316  -39.6324   -8.7324 C   0  0  2  0  0  0  0  0  0  0  0  0
  -17.6338  -39.4601   -7.3593 O   0  0  0  0  0  0  0  0  0  0  0  0
  -15.8422  -39.3808   -8.8546 C   0  0  0  0  0  0  0  0  0  0  0  0
  -15.2496  -40.6591   -9.2805 N   0  0  0  0  0  0  0  0  0  0  0  0
  -14.1755  -40.4300  -10.2250 C   0  0  0  0  0  0  0  0  0  0  0  0
  -14.4218  -39.1184  -10.8758 C   0  0  0  0  0  0  0  0  0  0  0  0
  -13.7749  -37.9607  -10.4702 C   0  0  0  0  0  0  0  0  0  0  0  0
  -13.9837  -36.7403  -11.0515 C   0  0  0  0  0  0  0  0  0  0  0  0
  -14.8832  -36.6566  -12.0938 C   0  0  0  0  0  0  0  0  0  0  0  0
  -15.5501  -37.7672  -12.5352 C   0  0  0  0  0  0  0  0  0  0  0  0
  -15.3094  -38.9746  -11.9216 C   0  0  0  0  0  0  0  0  0  0  0  0
  -13.2836  -35.5027  -10.6087 C   0  0  0  0  0  0  0  0  0  0  0  0
  -13.6849  -34.2981  -11.4389 C   0  0  0  0  0  0  0  0  0  0  0  0
  -11.7807  -35.6743  -10.6517 C   0  0  0  0  0  0  0  0  0  0  0  0
  1  2  1  0
  2  3  1  0
  3  4  1  0
  4  5  2  0
  5  6  1  0
  6  7  2  0
  7  8  1  0
  8  9  2  0
  8 10  1  0
 10 11  2  0
 10 12  1  0
 12 13  1  0
 13 14  1  1
 14 15  1  0
 15 16  1  6
 15 17  1  0
 17 18  1  0
 18 19  1  0
 19 20  1  0
 20 21  1  0
 21 22  1  0
 22 23  1  0
 23 24  1  0
 13 25  1  0
 25 26  1  1
 25 27  1  0
 27 28  1  0
 28 29  1  0
 29 30  1  0
 30 31  2  0
 31 32  1  0
 32 33  2  0
 33 34  1  0
 34 35  2  0
 32 36  1  0
 36 37  1  0
 36 38  1  0
  9  4  1  0
 24  6  1  0
 35 30  1  0
M  END
$$$$
