
     RDKit          3D

 38 40  0  0  0  0  0  0  0  0999 V2000
  -22.6726  -41.8714   -1.5904 C   0  0  0  0  0  0  0  0  0  0  0  0
  -22.0982  -41.2150   -2.6604 O   0  0  0  0  0  0  0  0  0  0  0  0
  -22.3967  -41.7967   -3.8600 C   0  0  0  0  0  0  0  0  0  0  0  0
  -21.8969  -40.9837   -4.9932 C   0  0  0  0  0  0  0  0  0  0  0  0
  -22.6866  -40.6165   -6.0490 C   0  0  0  0  0  0  0  0  0  0  0  0
  -22.2119  -39.8227   -7.1269 C   0  0  0  0  0  0  0  0  0  0  0  0
  -20.9119  -39.3762   -7.1576 C   0  0  0  0  0  0  0  0  0  0  0  0
  -20.0858  -39.7311   -6.1052 C   0  0  0  0  0  0  0  0  0  0  0  0
  -20.6101  -40.5266   -5.0543 C   0  0  0  0  0  0  0  0  0  0  0  0
  -18.6637  -39.4362   -5.8490 C   0  0  0  0  0  0  0  0  0  0  0  0
  -18.3908  -39.1886   -4.5822 O   0  0  0  0  0  0  0  0  0  0  0  0
  -17.5076  -39.3529   -6.6287 N   0  0  0  0  0  0  0  0  0  0  0  0
  -17.0713  -40.1177   -7.7496 C   0  0  1  0  0  0  0  0  0  0  0  0
  -16.8136  -41.5697   -7.5269 C   0  0  0  0  0  0  0  0  0  0  0  0
  -17.9906  -42.4502   -7.3565 C   0  0  2  0  0  0  0  0  0  0  0  0
  -17.8321  -43.1365   -5.9894 C   0  0  0  0  0  0  0  0  0  0  0  0
  -17.9291  -43.5938   -8.3797 C   0  0  0  0  0  0  0  0  0  0  0  0
  -19.2957  -43.8184   -8.9961 C   0  0  0  0  0  0  0  0  0  0  0  0
  -19.9636  -42.6326   -9.1904 O   0  0  0  0  0  0  0  0  0  0  0  0
  -21.3250  -42.7268   -9.3227 C   0  0  0  0  0  0  0  0  0  0  0  0
  -21.9025  -41.6959  -10.2647 C   0  0  0  0  0  0  0  0  0  0  0  0
  -23.2686  -41.2244   -9.9146 C   0  0  0  0  0  0  0  0  0  0  0  0
  -23.3250  -39.7755   -9.4967 C   0  0  0  0  0  0  0  0  0  0  0  0
  -23.3008  -39.6553   -8.0637 N   0  0  0  0  0  0  0  0  0  0  0  0
  -17.8379  -39.8831   -9.0282 C   0  0  2  0  0  0  0  0  0  0  0  0
  -17.2574  -40.7537   -9.9829 O   0  0  0  0  0  0  0  0  0  0  0  0
  -17.4993  -38.4826   -9.4977 C   0  0  0  0  0  0  0  0  0  0  0  0
  -16.5839  -37.9275   -8.4875 N   0  0  0  0  0  0  0  0  0  0  0  0
  -15.4900  -37.2250   -9.1264 C   0  0  0  0  0  0  0  0  0  0  0  0
  -16.0702  -36.3495  -10.1757 C   0  0  0  0  0  0  0  0  0  0  0  0
  -16.1938  -34.9786  -10.0071 C   0  0  0  0  0  0  0  0  0  0  0  0
  -16.7251  -34.1496  -10.9566 C   0  0  0  0  0  0  0  0  0  0  0  0
  -17.1598  -34.7052  -12.1419 C   0  0  0  0  0  0  0  0  0  0  0  0
  -17.0620  -36.0524  -12.3621 C   0  0  0  0  0  0  0  0  0  0  0  0
  -16.5212  -36.8489  -11.3797 C   0  0  0  0  0  0  0  0  0  0  0  0
  -16.8533  -32.6783  -10.7659 C   0  0  0  0  0  0  0  0  0  0  0  0
  -17.2191  -32.3229   -9.3371 C   0  0  0  0  0  0  0  0  0  0  0  0
  -17.8717  -32.0860  -11.7158 C   0  0  0  0  0  0  0  0  0  0  0  0
  1  2  1  0
  2  3  1  0
  3  4  1  0
  4  5  2  0
  5  6  1  0
  6  7  2  0
  7  8  1  0
  8  9  2  0
  8 10  1  0
 10 11  2  0
 10 12  1  0
 12 13  1  0
 13 14  1  1
 14 15  1  0
 15 16  1  1
 15 17  1  0
 17 18  1  0
 18 19  1  0
 19 20  1  0
 20 21  1  0
 21 22  1  0
 22 23  1  0
 23 24  1  0
 13 25  1  0
 25 26  1  6
 25 27  1  0
 27 28  1  0
 28 29  1  0
 29 30  1  0
 30 31  2  0
 31 32  1  0
 32 33  2  0
 33 34  1  0
 34 35  2  0
 32 36  1  0
 36 37  1  0
 36 38  1  0
  9  4  1  0
 24  6  1  0
 35 30  1  0
M  END
$$$$
