
     RDKit          3D

 38 40  0  0  0  0  0  0  0  0999 V2000
  -24.5562  -40.2620   -9.8806 C   0  0  0  0  0  0  0  0  0  0  0  0
  -24.1988  -41.5667   -9.6052 O   0  0  0  0  0  0  0  0  0  0  0  0
  -23.4873  -42.1452  -10.6179 C   0  0  0  0  0  0  0  0  0  0  0  0
  -22.0493  -42.2482  -10.2766 C   0  0  0  0  0  0  0  0  0  0  0  0
  -21.4544  -43.4265   -9.9144 C   0  0  0  0  0  0  0  0  0  0  0  0
  -20.0722  -43.5284   -9.6038 C   0  0  0  0  0  0  0  0  0  0  0  0
  -19.2523  -42.4260   -9.6565 C   0  0  0  0  0  0  0  0  0  0  0  0
  -19.8228  -41.2178  -10.0181 C   0  0  0  0  0  0  0  0  0  0  0  0
  -21.2086  -41.1711  -10.3172 C   0  0  0  0  0  0  0  0  0  0  0  0
  -19.2359  -39.8713  -10.1502 C   0  0  0  0  0  0  0  0  0  0  0  0
  -19.7075  -39.1825  -11.1718 O   0  0  0  0  0  0  0  0  0  0  0  0
  -18.2858  -39.1257   -9.4484 N   0  0  0  0  0  0  0  0  0  0  0  0
  -18.0074  -39.0301   -8.0537 C   0  0  1  0  0  0  0  0  0  0  0  0
  -19.0824  -38.4792   -7.1790 C   0  0  0  0  0  0  0  0  0  0  0  0
  -20.2499  -39.3473   -6.9088 C   0  0  2  0  0  0  0  0  0  0  0  0
  -21.4914  -38.5758   -7.3866 C   0  0  0  0  0  0  0  0  0  0  0  0
  -20.4394  -39.4961   -5.3920 C   0  0  0  0  0  0  0  0  0  0  0  0
  -20.7421  -40.9395   -5.0417 C   0  0  0  0  0  0  0  0  0  0  0  0
  -20.0266  -41.8112   -5.8278 O   0  0  0  0  0  0  0  0  0  0  0  0
  -20.5207  -43.0875   -5.9097 C   0  0  0  0  0  0  0  0  0  0  0  0
  -19.4398  -44.1351   -6.0425 C   0  0  0  0  0  0  0  0  0  0  0  0
  -19.8166  -45.3233   -6.8532 C   0  0  0  0  0  0  0  0  0  0  0  0
  -19.0484  -45.4478   -8.1462 C   0  0  0  0  0  0  0  0  0  0  0  0
  -19.8018  -44.9025   -9.2431 N   0  0  0  0  0  0  0  0  0  0  0  0
  -17.3669  -40.2505   -7.4388 C   0  0  2  0  0  0  0  0  0  0  0  0
  -17.2169  -39.9469   -6.0634 O   0  0  0  0  0  0  0  0  0  0  0  0
  -15.9584  -40.3379   -7.9908 C   0  0  0  0  0  0  0  0  0  0  0  0
  -15.5901  -38.9666   -8.3789 N   0  0  0  0  0  0  0  0  0  0  0  0
  -14.3357  -38.9645   -9.1032 C   0  0  0  0  0  0  0  0  0  0  0  0
  -14.6145  -38.4931  -10.4832 C   0  0  0  0  0  0  0  0  0  0  0  0
  -15.0341  -37.1984  -10.7497 C   0  0  0  0  0  0  0  0  0  0  0  0
  -15.2986  -36.7388  -12.0105 C   0  0  0  0  0  0  0  0  0  0  0  0
  -15.1399  -37.6067  -13.0707 C   0  0  0  0  0  0  0  0  0  0  0  0
  -14.7281  -38.8957  -12.8659 C   0  0  0  0  0  0  0  0  0  0  0  0
  -14.4733  -39.3158  -11.5811 C   0  0  0  0  0  0  0  0  0  0  0  0
  -15.7485  -35.3462  -12.2862 C   0  0  0  0  0  0  0  0  0  0  0  0
  -16.5940  -35.2635  -13.5432 C   0  0  0  0  0  0  0  0  0  0  0  0
  -14.5735  -34.3993  -12.3984 C   0  0  0  0  0  0  0  0  0  0  0  0
  1  2  1  0
  2  3  1  0
  3  4  1  0
  4  5  2  0
  5  6  1  0
  6  7  2  0
  7  8  1  0
  8  9  2  0
  8 10  1  0
 10 11  2  0
 10 12  1  0
 12 13  1  0
 13 14  1  1
 14 15  1  0
 15 16  1  1
 15 17  1  0
 17 18  1  0
 18 19  1  0
 19 20  1  0
 20 21  1  0
 21 22  1  0
 22 23  1  0
 23 24  1  0
 13 25  1  0
 25 26  1  1
 25 27  1  0
 27 28  1  0
 28 29  1  0
 29 30  1  0
 30 31  2  0
 31 32  1  0
 32 33  2  0
 33 34  1  0
 34 35  2  0
 32 36  1  0
 36 37  1  0
 36 38  1  0
  9  4  1  0
 24  6  1  0
 35 30  1  0
M  END
$$$$
