
     RDKit          3D

 38 40  0  0  0  0  0  0  0  0999 V2000
  -21.3158  -42.5191   -2.1790 C   0  0  0  0  0  0  0  0  0  0  0  0
  -21.2178  -42.9295   -3.4935 O   0  0  0  0  0  0  0  0  0  0  0  0
  -22.2312  -42.4498   -4.2742 C   0  0  0  0  0  0  0  0  0  0  0  0
  -21.7076  -41.6552   -5.4097 C   0  0  0  0  0  0  0  0  0  0  0  0
  -22.4316  -41.4185   -6.5469 C   0  0  0  0  0  0  0  0  0  0  0  0
  -21.9361  -40.6424   -7.6283 C   0  0  0  0  0  0  0  0  0  0  0  0
  -20.6823  -40.0803   -7.5795 C   0  0  0  0  0  0  0  0  0  0  0  0
  -19.9230  -40.3016   -6.4435 C   0  0  0  0  0  0  0  0  0  0  0  0
  -20.4652  -41.0853   -5.3928 C   0  0  0  0  0  0  0  0  0  0  0  0
  -18.5597  -39.8639   -6.0901 C   0  0  0  0  0  0  0  0  0  0  0  0
  -18.4206  -39.5257   -4.8225 O   0  0  0  0  0  0  0  0  0  0  0  0
  -17.3520  -39.7158   -6.7762 N   0  0  0  0  0  0  0  0  0  0  0  0
  -16.7548  -40.4953   -7.8094 C   0  0  1  0  0  0  0  0  0  0  0  0
  -16.3917  -41.9036   -7.4790 C   0  0  0  0  0  0  0  0  0  0  0  0
  -17.4977  -42.8785   -7.3526 C   0  0  2  0  0  0  0  0  0  0  0  0
  -17.3993  -43.4741   -5.9383 C   0  0  0  0  0  0  0  0  0  0  0  0
  -17.2479  -44.0640   -8.2965 C   0  0  0  0  0  0  0  0  0  0  0  0
  -18.5309  -44.4457   -9.0079 C   0  0  0  0  0  0  0  0  0  0  0  0
  -19.2803  -43.3384   -9.3275 O   0  0  0  0  0  0  0  0  0  0  0  0
  -20.6116  -43.5643   -9.5648 C   0  0  0  0  0  0  0  0  0  0  0  0
  -21.1929  -42.6422  -10.6114 C   0  0  0  0  0  0  0  0  0  0  0  0
  -22.6201  -42.2807  -10.4034 C   0  0  0  0  0  0  0  0  0  0  0  0
  -22.8389  -40.8230  -10.0797 C   0  0  0  0  0  0  0  0  0  0  0  0
  -22.9499  -40.6257   -8.6595 N   0  0  0  0  0  0  0  0  0  0  0  0
  -17.4249  -40.4001   -9.1583 C   0  0  2  0  0  0  0  0  0  0  0  0
  -16.8878  -41.4640   -9.9238 O   0  0  0  0  0  0  0  0  0  0  0  0
  -16.9196  -39.1318   -9.8160 C   0  0  0  0  0  0  0  0  0  0  0  0
  -16.9837  -38.0865   -8.7816 N   0  0  0  0  0  0  0  0  0  0  0  0
  -16.0146  -37.0447   -9.0533 C   0  0  0  0  0  0  0  0  0  0  0  0
  -16.5574  -36.2005  -10.1473 C   0  0  0  0  0  0  0  0  0  0  0  0
  -17.6551  -35.3729   -9.9651 C   0  0  0  0  0  0  0  0  0  0  0  0
  -18.1756  -34.5860  -10.9554 C   0  0  0  0  0  0  0  0  0  0  0  0
  -17.5784  -34.6170  -12.1984 C   0  0  0  0  0  0  0  0  0  0  0  0
  -16.4922  -35.4153  -12.4346 C   0  0  0  0  0  0  0  0  0  0  0  0
  -16.0017  -36.1905  -11.4096 C   0  0  0  0  0  0  0  0  0  0  0  0
  -19.3550  -33.7004  -10.7495 C   0  0  0  0  0  0  0  0  0  0  0  0
  -20.3345  -33.7851  -11.9049 C   0  0  0  0  0  0  0  0  0  0  0  0
  -18.9343  -32.2617  -10.5417 C   0  0  0  0  0  0  0  0  0  0  0  0
  1  2  1  0
  2  3  1  0
  3  4  1  0
  4  5  2  0
  5  6  1  0
  6  7  2  0
  7  8  1  0
  8  9  2  0
  8 10  1  0
 10 11  2  0
 10 12  1  0
 12 13  1  0
 13 14  1  1
 14 15  1  0
 15 16  1  1
 15 17  1  0
 17 18  1  0
 18 19  1  0
 19 20  1  0
 20 21  1  0
 21 22  1  0
 22 23  1  0
 23 24  1  0
 13 25  1  0
 25 26  1  6
 25 27  1  0
 27 28  1  0
 28 29  1  0
 29 30  1  0
 30 31  2  0
 31 32  1  0
 32 33  2  0
 33 34  1  0
 34 35  2  0
 32 36  1  0
 36 37  1  0
 36 38  1  0
  9  4  1  0
 24  6  1  0
 35 30  1  0
M  END
$$$$
