
     RDKit          3D

 38 40  0  0  0  0  0  0  0  0999 V2000
  -23.5177  -42.0647   -3.4889 C   0  0  0  0  0  0  0  0  0  0  0  0
  -22.2153  -42.4432   -3.2317 O   0  0  0  0  0  0  0  0  0  0  0  0
  -21.3094  -41.4714   -3.5503 C   0  0  0  0  0  0  0  0  0  0  0  0
  -20.7065  -41.7116   -4.8822 C   0  0  0  0  0  0  0  0  0  0  0  0
  -19.9763  -42.8314   -5.1759 C   0  0  0  0  0  0  0  0  0  0  0  0
  -19.4128  -43.0696   -6.4578 C   0  0  0  0  0  0  0  0  0  0  0  0
  -19.5812  -42.1689   -7.4829 C   0  0  0  0  0  0  0  0  0  0  0  0
  -20.3137  -41.0246   -7.2187 C   0  0  0  0  0  0  0  0  0  0  0  0
  -20.8537  -40.8351   -5.9208 C   0  0  0  0  0  0  0  0  0  0  0  0
  -20.6568  -39.8753   -8.0769 C   0  0  0  0  0  0  0  0  0  0  0  0
  -21.8791  -39.4161   -7.8888 O   0  0  0  0  0  0  0  0  0  0  0  0
  -19.9966  -39.1341   -9.0598 N   0  0  0  0  0  0  0  0  0  0  0  0
  -18.6379  -38.7175   -9.1705 C   0  0  1  0  0  0  0  0  0  0  0  0
  -18.1217  -37.7870   -8.1256 C   0  0  0  0  0  0  0  0  0  0  0  0
  -17.8622  -38.3509   -6.7823 C   0  0  2  0  0  0  0  0  0  0  0  0
  -18.7197  -37.5436   -5.7934 C   0  0  0  0  0  0  0  0  0  0  0  0
  -16.4110  -38.0581   -6.3738 C   0  0  0  0  0  0  0  0  0  0  0  0
  -15.7866  -39.2875   -5.7440 C   0  0  0  0  0  0  0  0  0  0  0  0
  -16.2050  -40.4409   -6.3640 O   0  0  0  0  0  0  0  0  0  0  0  0
  -16.0669  -41.5954   -5.6374 C   0  0  0  0  0  0  0  0  0  0  0  0
  -15.7553  -42.8015   -6.4930 C   0  0  0  0  0  0  0  0  0  0  0  0
  -16.3138  -44.0851   -5.9916 C   0  0  0  0  0  0  0  0  0  0  0  0
  -17.3848  -44.6717   -6.8783 C   0  0  0  0  0  0  0  0  0  0  0  0
  -18.6945  -44.3232   -6.3972 N   0  0  0  0  0  0  0  0  0  0  0  0
  -17.6482  -39.8174   -9.4678 C   0  0  2  0  0  0  0  0  0  0  0  0
  -16.4865  -39.1626   -9.9454 O   0  0  0  0  0  0  0  0  0  0  0  0
  -18.1908  -40.5947  -10.6501 C   0  0  0  0  0  0  0  0  0  0  0  0
  -18.2403  -39.6428  -11.7717 N   0  0  0  0  0  0  0  0  0  0  0  0
  -18.5910  -40.3252  -13.0003 C   0  0  0  0  0  0  0  0  0  0  0  0
  -20.0704  -40.4425  -13.0424 C   0  0  0  0  0  0  0  0  0  0  0  0
  -20.7271  -41.6169  -12.7065 C   0  0  0  0  0  0  0  0  0  0  0  0
  -22.0878  -41.7522  -12.7374 C   0  0  0  0  0  0  0  0  0  0  0  0
  -22.8455  -40.6657  -13.1222 C   0  0  0  0  0  0  0  0  0  0  0  0
  -22.2502  -39.4818  -13.4644 C   0  0  0  0  0  0  0  0  0  0  0  0
  -20.8785  -39.3902  -13.4191 C   0  0  0  0  0  0  0  0  0  0  0  0
  -22.7836  -43.0179  -12.3744 C   0  0  0  0  0  0  0  0  0  0  0  0
  -22.0868  -43.7401  -11.2366 C   0  0  0  0  0  0  0  0  0  0  0  0
  -22.9049  -43.9418  -13.5668 C   0  0  0  0  0  0  0  0  0  0  0  0
  1  2  1  0
  2  3  1  0
  3  4  1  0
  4  5  2  0
  5  6  1  0
  6  7  2  0
  7  8  1  0
  8  9  2  0
  8 10  1  0
 10 11  2  0
 10 12  1  0
 12 13  1  0
 13 14  1  1
 14 15  1  0
 15 16  1  1
 15 17  1  0
 17 18  1  0
 18 19  1  0
 19 20  1  0
 20 21  1  0
 21 22  1  0
 22 23  1  0
 23 24  1  0
 13 25  1  0
 25 26  1  6
 25 27  1  0
 27 28  1  0
 28 29  1  0
 29 30  1  0
 30 31  2  0
 31 32  1  0
 32 33  2  0
 33 34  1  0
 34 35  2  0
 32 36  1  0
 36 37  1  0
 36 38  1  0
  9  4  1  0
 24  6  1  0
 35 30  1  0
M  END
$$$$
