
     RDKit          3D

 38 40  0  0  0  0  0  0  0  0999 V2000
   -8.7480  -37.9133  -11.8968 C   0  0  0  0  0  0  0  0  0  0  0  0
  -10.0403  -38.2363  -11.5347 O   0  0  0  0  0  0  0  0  0  0  0  0
  -10.3319  -39.5558  -11.7361 C   0  0  0  0  0  0  0  0  0  0  0  0
  -11.3963  -40.0197  -10.8159 C   0  0  0  0  0  0  0  0  0  0  0  0
  -11.8635  -41.3062  -10.8091 C   0  0  0  0  0  0  0  0  0  0  0  0
  -12.8719  -41.7551   -9.9154 C   0  0  0  0  0  0  0  0  0  0  0  0
  -13.4339  -40.9008   -8.9963 C   0  0  0  0  0  0  0  0  0  0  0  0
  -12.9847  -39.5917   -8.9776 C   0  0  0  0  0  0  0  0  0  0  0  0
  -11.9763  -39.1950   -9.8929 C   0  0  0  0  0  0  0  0  0  0  0  0
  -13.3854  -38.4427   -8.1443 C   0  0  0  0  0  0  0  0  0  0  0  0
  -12.3791  -37.6697   -7.7834 O   0  0  0  0  0  0  0  0  0  0  0  0
  -14.5902  -37.9566   -7.6312 N   0  0  0  0  0  0  0  0  0  0  0  0
  -15.9022  -37.9170   -8.1872 C   0  0  1  0  0  0  0  0  0  0  0  0
  -16.0979  -37.0970   -9.4175 C   0  0  0  0  0  0  0  0  0  0  0  0
  -15.5533  -37.6328  -10.6847 C   0  0  2  0  0  0  0  0  0  0  0  0
  -14.5769  -36.5750  -11.2257 C   0  0  0  0  0  0  0  0  0  0  0  0
  -16.6724  -37.7076  -11.7339 C   0  0  0  0  0  0  0  0  0  0  0  0
  -16.5953  -39.0202  -12.4882 C   0  0  0  0  0  0  0  0  0  0  0  0
  -16.2290  -40.0568  -11.6629 O   0  0  0  0  0  0  0  0  0  0  0  0
  -15.7138  -41.1645  -12.2852 C   0  0  0  0  0  0  0  0  0  0  0  0
  -16.0625  -42.4561  -11.5825 C   0  0  0  0  0  0  0  0  0  0  0  0
  -15.0264  -43.5186  -11.6762 C   0  0  0  0  0  0  0  0  0  0  0  0
  -14.3752  -43.8533  -10.3567 C   0  0  0  0  0  0  0  0  0  0  0  0
  -13.1310  -43.1476  -10.2070 N   0  0  0  0  0  0  0  0  0  0  0  0
  -16.5963  -39.2525   -8.2979 C   0  0  2  0  0  0  0  0  0  0  0  0
  -17.9229  -38.9577   -8.6973 O   0  0  0  0  0  0  0  0  0  0  0  0
  -16.7100  -39.8110   -6.8938 C   0  0  0  0  0  0  0  0  0  0  0  0
  -18.0979  -40.2814   -6.7567 N   0  0  0  0  0  0  0  0  0  0  0  0
  -18.8675  -39.3602   -5.9459 C   0  0  0  0  0  0  0  0  0  0  0  0
  -20.2983  -39.5373   -6.3002 C   0  0  0  0  0  0  0  0  0  0  0  0
  -21.1205  -40.4275   -5.6259 C   0  0  0  0  0  0  0  0  0  0  0  0
  -22.4409  -40.6106   -5.9322 C   0  0  0  0  0  0  0  0  0  0  0  0
  -22.9824  -39.8725   -6.9640 C   0  0  0  0  0  0  0  0  0  0  0  0
  -22.2172  -38.9792   -7.6637 C   0  0  0  0  0  0  0  0  0  0  0  0
  -20.8936  -38.8270   -7.3218 C   0  0  0  0  0  0  0  0  0  0  0  0
  -23.3157  -41.5692   -5.2017 C   0  0  0  0  0  0  0  0  0  0  0  0
  -24.7585  -41.1019   -5.1631 C   0  0  0  0  0  0  0  0  0  0  0  0
  -22.8180  -41.8056   -3.7922 C   0  0  0  0  0  0  0  0  0  0  0  0
  1  2  1  0
  2  3  1  0
  3  4  1  0
  4  5  2  0
  5  6  1  0
  6  7  2  0
  7  8  1  0
  8  9  2  0
  8 10  1  0
 10 11  2  0
 10 12  1  0
 12 13  1  0
 13 14  1  6
 14 15  1  0
 15 16  1  6
 15 17  1  0
 17 18  1  0
 18 19  1  0
 19 20  1  0
 20 21  1  0
 21 22  1  0
 22 23  1  0
 23 24  1  0
 13 25  1  0
 25 26  1  1
 25 27  1  0
 27 28  1  0
 28 29  1  0
 29 30  1  0
 30 31  2  0
 31 32  1  0
 32 33  2  0
 33 34  1  0
 34 35  2  0
 32 36  1  0
 36 37  1  0
 36 38  1  0
  9  4  1  0
 24  6  1  0
 35 30  1  0
M  END
$$$$
