
     RDKit          3D

 38 40  0  0  0  0  0  0  0  0999 V2000
  -22.4079  -43.9601   -4.0883 C   0  0  0  0  0  0  0  0  0  0  0  0
  -21.0470  -43.9833   -4.3189 O   0  0  0  0  0  0  0  0  0  0  0  0
  -20.7119  -44.6950   -5.4360 C   0  0  0  0  0  0  0  0  0  0  0  0
  -20.3586  -43.7983   -6.5612 C   0  0  0  0  0  0  0  0  0  0  0  0
  -20.4855  -44.1675   -7.8731 C   0  0  0  0  0  0  0  0  0  0  0  0
  -20.1629  -43.3017   -8.9518 C   0  0  0  0  0  0  0  0  0  0  0  0
  -19.7017  -42.0270   -8.7222 C   0  0  0  0  0  0  0  0  0  0  0  0
  -19.5604  -41.6224   -7.4060 C   0  0  0  0  0  0  0  0  0  0  0  0
  -19.8957  -42.5270   -6.3662 C   0  0  0  0  0  0  0  0  0  0  0  0
  -19.0834  -40.3513   -6.8301 C   0  0  0  0  0  0  0  0  0  0  0  0
  -19.7512  -39.9680   -5.7588 O   0  0  0  0  0  0  0  0  0  0  0  0
  -18.0787  -39.4319   -7.1409 N   0  0  0  0  0  0  0  0  0  0  0  0
  -16.7572  -39.6157   -7.6425 C   0  0  1  0  0  0  0  0  0  0  0  0
  -15.7990  -40.3684   -6.7825 C   0  0  0  0  0  0  0  0  0  0  0  0
  -15.9863  -41.8325   -6.6774 C   0  0  2  0  0  0  0  0  0  0  0  0
  -16.1729  -42.1458   -5.1834 C   0  0  0  0  0  0  0  0  0  0  0  0
  -14.6841  -42.5464   -7.0690 C   0  0  0  0  0  0  0  0  0  0  0  0
  -14.9865  -43.7338   -7.9615 C   0  0  0  0  0  0  0  0  0  0  0  0
  -16.0197  -43.4651   -8.8276 O   0  0  0  0  0  0  0  0  0  0  0  0
  -16.6559  -44.5574   -9.3583 C   0  0  0  0  0  0  0  0  0  0  0  0
  -17.1480  -44.3305  -10.7689 C   0  0  0  0  0  0  0  0  0  0  0  0
  -18.4013  -45.0506  -11.1176 C   0  0  0  0  0  0  0  0  0  0  0  0
  -19.5795  -44.1401  -11.3630 C   0  0  0  0  0  0  0  0  0  0  0  0
  -20.3925  -44.0264  -10.1821 N   0  0  0  0  0  0  0  0  0  0  0  0
  -16.6697  -40.0566   -9.0831 C   0  0  2  0  0  0  0  0  0  0  0  0
  -15.5247  -40.8874   -9.1559 O   0  0  0  0  0  0  0  0  0  0  0  0
  -16.3321  -38.8279   -9.9033 C   0  0  0  0  0  0  0  0  0  0  0  0
  -16.8085  -37.6758   -9.1209 N   0  0  0  0  0  0  0  0  0  0  0  0
  -18.0572  -37.9941   -8.4593 C   0  0  0  0  0  0  0  0  0  0  0  0
  -19.1565  -37.7217   -9.4192 C   0  0  0  0  0  0  0  0  0  0  0  0
  -18.9209  -37.1954  -10.6805 C   0  0  0  0  0  0  0  0  0  0  0  0
  -19.9146  -36.9342  -11.5833 C   0  0  0  0  0  0  0  0  0  0  0  0
  -21.2170  -37.2082  -11.2213 C   0  0  0  0  0  0  0  0  0  0  0  0
  -21.5076  -37.7285   -9.9892 C   0  0  0  0  0  0  0  0  0  0  0  0
  -20.4770  -37.9756   -9.1123 C   0  0  0  0  0  0  0  0  0  0  0  0
  -19.6511  -36.3690  -12.9357 C   0  0  0  0  0  0  0  0  0  0  0  0
  -20.2652  -34.9918  -13.1026 C   0  0  0  0  0  0  0  0  0  0  0  0
  -20.1570  -37.2888  -14.0257 C   0  0  0  0  0  0  0  0  0  0  0  0
  1  2  1  0
  2  3  1  0
  3  4  1  0
  4  5  2  0
  5  6  1  0
  6  7  2  0
  7  8  1  0
  8  9  2  0
  8 10  1  0
 10 11  2  0
 10 12  1  0
 12 13  1  0
 13 14  1  1
 14 15  1  0
 15 16  1  1
 15 17  1  0
 17 18  1  0
 18 19  1  0
 19 20  1  0
 20 21  1  0
 21 22  1  0
 22 23  1  0
 23 24  1  0
 13 25  1  0
 25 26  1  1
 25 27  1  0
 27 28  1  0
 28 29  1  0
 29 30  1  0
 30 31  2  0
 31 32  1  0
 32 33  2  0
 33 34  1  0
 34 35  2  0
 32 36  1  0
 36 37  1  0
 36 38  1  0
  9  4  1  0
 24  6  1  0
 35 30  1  0
M  END
$$$$
