
     RDKit          3D

 38 40  0  0  0  0  0  0  0  0999 V2000
  -24.9756  -36.5586   -8.1751 C   0  0  0  0  0  0  0  0  0  0  0  0
  -24.4367  -37.6787   -8.7756 O   0  0  0  0  0  0  0  0  0  0  0  0
  -24.1792  -38.6834   -7.8862 C   0  0  0  0  0  0  0  0  0  0  0  0
  -22.9735  -39.4518   -8.2745 C   0  0  0  0  0  0  0  0  0  0  0  0
  -22.9867  -40.8068   -8.4675 C   0  0  0  0  0  0  0  0  0  0  0  0
  -21.8347  -41.5410   -8.8564 C   0  0  0  0  0  0  0  0  0  0  0  0
  -20.6305  -40.9104   -9.0632 C   0  0  0  0  0  0  0  0  0  0  0  0
  -20.5825  -39.5400   -8.8750 C   0  0  0  0  0  0  0  0  0  0  0  0
  -21.7619  -38.8551   -8.4854 C   0  0  0  0  0  0  0  0  0  0  0  0
  -19.4649  -38.5851   -8.9950 C   0  0  0  0  0  0  0  0  0  0  0  0
  -19.8082  -37.4271   -9.5257 O   0  0  0  0  0  0  0  0  0  0  0  0
  -18.1042  -38.5997   -8.6793 N   0  0  0  0  0  0  0  0  0  0  0  0
  -17.3988  -39.1747   -7.5822 C   0  0  1  0  0  0  0  0  0  0  0  0
  -17.7065  -38.6483   -6.2212 C   0  0  0  0  0  0  0  0  0  0  0  0
  -19.0018  -39.0360   -5.6198 C   0  0  2  0  0  0  0  0  0  0  0  0
  -19.7507  -37.7294   -5.3086 C   0  0  0  0  0  0  0  0  0  0  0  0
  -18.7581  -39.6852   -4.2495 C   0  0  0  0  0  0  0  0  0  0  0  0
  -19.6298  -40.9153   -4.0909 C   0  0  0  0  0  0  0  0  0  0  0  0
  -19.7465  -41.6079   -5.2727 O   0  0  0  0  0  0  0  0  0  0  0  0
  -20.8203  -42.4551   -5.3669 C   0  0  0  0  0  0  0  0  0  0  0  0
  -20.5311  -43.6912   -6.1867 C   0  0  0  0  0  0  0  0  0  0  0  0
  -21.6924  -44.2226   -6.9481 C   0  0  0  0  0  0  0  0  0  0  0  0
  -21.5424  -44.1106   -8.4456 C   0  0  0  0  0  0  0  0  0  0  0  0
  -22.2084  -42.9355   -8.9397 N   0  0  0  0  0  0  0  0  0  0  0  0
  -17.3183  -40.6817   -7.5860 C   0  0  2  0  0  0  0  0  0  0  0  0
  -16.9051  -41.0420   -6.2799 O   0  0  0  0  0  0  0  0  0  0  0  0
  -16.1671  -41.0622   -8.4950 C   0  0  0  0  0  0  0  0  0  0  0  0
  -15.2547  -39.9071   -8.4974 N   0  0  0  0  0  0  0  0  0  0  0  0
  -15.5569  -39.0249   -9.6059 C   0  0  0  0  0  0  0  0  0  0  0  0
  -16.0482  -39.8647  -10.7273 C   0  0  0  0  0  0  0  0  0  0  0  0
  -16.0456  -41.2502  -10.6674 C   0  0  0  0  0  0  0  0  0  0  0  0
  -16.4914  -42.0472  -11.6857 C   0  0  0  0  0  0  0  0  0  0  0  0
  -16.9677  -41.4424  -12.8303 C   0  0  0  0  0  0  0  0  0  0  0  0
  -16.9935  -40.0788  -12.9438 C   0  0  0  0  0  0  0  0  0  0  0  0
  -16.5353  -39.3158  -11.8950 C   0  0  0  0  0  0  0  0  0  0  0  0
  -16.4846  -43.5346  -11.6115 C   0  0  0  0  0  0  0  0  0  0  0  0
  -16.5374  -44.0295  -10.1784 C   0  0  0  0  0  0  0  0  0  0  0  0
  -15.2732  -44.1157  -12.3078 C   0  0  0  0  0  0  0  0  0  0  0  0
  1  2  1  0
  2  3  1  0
  3  4  1  0
  4  5  2  0
  5  6  1  0
  6  7  2  0
  7  8  1  0
  8  9  2  0
  8 10  1  0
 10 11  2  0
 10 12  1  0
 12 13  1  0
 13 14  1  1
 14 15  1  0
 15 16  1  1
 15 17  1  0
 17 18  1  0
 18 19  1  0
 19 20  1  0
 20 21  1  0
 21 22  1  0
 22 23  1  0
 23 24  1  0
 13 25  1  0
 25 26  1  1
 25 27  1  0
 27 28  1  0
 28 29  1  0
 29 30  1  0
 30 31  2  0
 31 32  1  0
 32 33  2  0
 33 34  1  0
 34 35  2  0
 32 36  1  0
 36 37  1  0
 36 38  1  0
  9  4  1  0
 24  6  1  0
 35 30  1  0
M  END
$$$$
