
     RDKit          3D

 38 40  0  0  0  0  0  0  0  0999 V2000
  -23.8739  -41.9930   -4.8521 C   0  0  0  0  0  0  0  0  0  0  0  0
  -22.8415  -41.1175   -5.1228 O   0  0  0  0  0  0  0  0  0  0  0  0
  -23.0410  -40.4032   -6.2702 C   0  0  0  0  0  0  0  0  0  0  0  0
  -21.9182  -40.5833   -7.2200 C   0  0  0  0  0  0  0  0  0  0  0  0
  -21.7971  -41.6822   -8.0270 C   0  0  0  0  0  0  0  0  0  0  0  0
  -20.7299  -41.8467   -8.9497 C   0  0  0  0  0  0  0  0  0  0  0  0
  -19.7519  -40.8889   -9.0782 C   0  0  0  0  0  0  0  0  0  0  0  0
  -19.8440  -39.7652   -8.2752 C   0  0  0  0  0  0  0  0  0  0  0  0
  -20.9297  -39.6511   -7.3696 C   0  0  0  0  0  0  0  0  0  0  0  0
  -18.9668  -38.5855   -8.1571 C   0  0  0  0  0  0  0  0  0  0  0  0
  -19.6191  -37.4514   -7.9875 O   0  0  0  0  0  0  0  0  0  0  0  0
  -17.5878  -38.3636   -8.1791 N   0  0  0  0  0  0  0  0  0  0  0  0
  -16.5028  -39.1307   -7.6632 C   0  0  1  0  0  0  0  0  0  0  0  0
  -16.4455  -39.3251   -6.1857 C   0  0  0  0  0  0  0  0  0  0  0  0
  -17.4216  -40.2615   -5.5855 C   0  0  2  0  0  0  0  0  0  0  0  0
  -18.2156  -39.4591   -4.5411 C   0  0  0  0  0  0  0  0  0  0  0  0
  -16.6755  -41.3314   -4.7749 C   0  0  0  0  0  0  0  0  0  0  0  0
  -17.2703  -42.6998   -5.0424 C   0  0  0  0  0  0  0  0  0  0  0  0
  -17.6472  -42.8389   -6.3572 O   0  0  0  0  0  0  0  0  0  0  0  0
  -18.5650  -43.8239   -6.6161 C   0  0  0  0  0  0  0  0  0  0  0  0
  -18.3707  -44.4764   -7.9652 C   0  0  0  0  0  0  0  0  0  0  0  0
  -19.6225  -44.9324   -8.6256 C   0  0  0  0  0  0  0  0  0  0  0  0
  -19.9614  -44.1696   -9.8828 C   0  0  0  0  0  0  0  0  0  0  0  0
  -20.9081  -43.1228   -9.6063 N   0  0  0  0  0  0  0  0  0  0  0  0
  -16.2133  -40.4153   -8.4005 C   0  0  2  0  0  0  0  0  0  0  0  0
  -14.8127  -40.4230   -8.6122 O   0  0  0  0  0  0  0  0  0  0  0  0
  -16.8310  -40.2850   -9.7781 C   0  0  0  0  0  0  0  0  0  0  0  0
  -15.7354  -39.8864  -10.6767 N   0  0  0  0  0  0  0  0  0  0  0  0
  -16.2176  -39.7550  -12.0363 C   0  0  0  0  0  0  0  0  0  0  0  0
  -16.7499  -38.3779  -12.1930 C   0  0  0  0  0  0  0  0  0  0  0  0
  -18.0570  -38.1327  -12.5859 C   0  0  0  0  0  0  0  0  0  0  0  0
  -18.5723  -36.8749  -12.7387 C   0  0  0  0  0  0  0  0  0  0  0  0
  -17.7504  -35.7956  -12.4893 C   0  0  0  0  0  0  0  0  0  0  0  0
  -16.4516  -35.9790  -12.0987 C   0  0  0  0  0  0  0  0  0  0  0  0
  -15.9748  -37.2616  -11.9576 C   0  0  0  0  0  0  0  0  0  0  0  0
  -19.9779  -36.6221  -13.1610 C   0  0  0  0  0  0  0  0  0  0  0  0
  -20.2748  -37.2180  -14.5242 C   0  0  0  0  0  0  0  0  0  0  0  0
  -20.2924  -35.1418  -13.1717 C   0  0  0  0  0  0  0  0  0  0  0  0
  1  2  1  0
  2  3  1  0
  3  4  1  0
  4  5  2  0
  5  6  1  0
  6  7  2  0
  7  8  1  0
  8  9  2  0
  8 10  1  0
 10 11  2  0
 10 12  1  0
 12 13  1  0
 13 14  1  1
 14 15  1  0
 15 16  1  1
 15 17  1  0
 17 18  1  0
 18 19  1  0
 19 20  1  0
 20 21  1  0
 21 22  1  0
 22 23  1  0
 23 24  1  0
 13 25  1  0
 25 26  1  6
 25 27  1  0
 27 28  1  0
 28 29  1  0
 29 30  1  0
 30 31  2  0
 31 32  1  0
 32 33  2  0
 33 34  1  0
 34 35  2  0
 32 36  1  0
 36 37  1  0
 36 38  1  0
  9  4  1  0
 24  6  1  0
 35 30  1  0
M  END
$$$$
