
     RDKit          3D

 38 40  0  0  0  0  0  0  0  0999 V2000
  -21.8697  -47.2123   -7.1063 C   0  0  0  0  0  0  0  0  0  0  0  0
  -20.9044  -46.5316   -6.3918 O   0  0  0  0  0  0  0  0  0  0  0  0
  -19.7682  -46.3091   -7.1171 C   0  0  0  0  0  0  0  0  0  0  0  0
  -19.6287  -44.8784   -7.4758 C   0  0  0  0  0  0  0  0  0  0  0  0
  -20.2236  -44.3278   -8.5787 C   0  0  0  0  0  0  0  0  0  0  0  0
  -20.1038  -42.9526   -8.9131 C   0  0  0  0  0  0  0  0  0  0  0  0
  -19.3721  -42.0945   -8.1266 C   0  0  0  0  0  0  0  0  0  0  0  0
  -18.7561  -42.6198   -7.0038 C   0  0  0  0  0  0  0  0  0  0  0  0
  -18.9069  -44.0006   -6.7162 C   0  0  0  0  0  0  0  0  0  0  0  0
  -17.9022  -41.9854   -5.9823 C   0  0  0  0  0  0  0  0  0  0  0  0
  -18.1211  -42.4243   -4.7576 O   0  0  0  0  0  0  0  0  0  0  0  0
  -16.8966  -41.0159   -5.9871 N   0  0  0  0  0  0  0  0  0  0  0  0
  -15.8539  -40.7460   -6.9208 C   0  0  1  0  0  0  0  0  0  0  0  0
  -14.8272  -41.8085   -7.1237 C   0  0  0  0  0  0  0  0  0  0  0  0
  -15.2329  -43.0076   -7.8900 C   0  0  2  0  0  0  0  0  0  0  0  0
  -14.9964  -44.2176   -6.9708 C   0  0  0  0  0  0  0  0  0  0  0  0
  -14.2694  -43.2148   -9.0679 C   0  0  0  0  0  0  0  0  0  0  0  0
  -15.0443  -43.5704  -10.3213 C   0  0  0  0  0  0  0  0  0  0  0  0
  -16.2302  -42.8790  -10.3957 O   0  0  0  0  0  0  0  0  0  0  0  0
  -17.1862  -43.4164  -11.2184 C   0  0  0  0  0  0  0  0  0  0  0  0
  -18.0451  -42.3714  -11.8921 C   0  0  0  0  0  0  0  0  0  0  0  0
  -19.4528  -42.7824  -12.1380 C   0  0  0  0  0  0  0  0  0  0  0  0
  -20.4642  -42.0082  -11.3287 C   0  0  0  0  0  0  0  0  0  0  0  0
  -20.8329  -42.7331  -10.1426 N   0  0  0  0  0  0  0  0  0  0  0  0
  -16.3019  -40.1534   -8.2344 C   0  0  2  0  0  0  0  0  0  0  0  0
  -15.3385  -39.1647   -8.5520 O   0  0  0  0  0  0  0  0  0  0  0  0
  -17.5864  -39.3961   -7.9642 C   0  0  0  0  0  0  0  0  0  0  0  0
  -17.7221  -38.4249   -9.0620 N   0  0  0  0  0  0  0  0  0  0  0  0
  -18.6086  -37.3459   -8.6773 C   0  0  0  0  0  0  0  0  0  0  0  0
  -19.9998  -37.7911   -8.9431 C   0  0  0  0  0  0  0  0  0  0  0  0
  -20.4741  -38.0009  -10.2293 C   0  0  0  0  0  0  0  0  0  0  0  0
  -21.7505  -38.4099  -10.5020 C   0  0  0  0  0  0  0  0  0  0  0  0
  -22.6095  -38.6248   -9.4444 C   0  0  0  0  0  0  0  0  0  0  0  0
  -22.1948  -38.4333   -8.1543 C   0  0  0  0  0  0  0  0  0  0  0  0
  -20.9024  -38.0215   -7.9259 C   0  0  0  0  0  0  0  0  0  0  0  0
  -22.2502  -38.6327  -11.8871 C   0  0  0  0  0  0  0  0  0  0  0  0
  -23.7606  -38.7693  -11.9283 C   0  0  0  0  0  0  0  0  0  0  0  0
  -21.6103  -39.8520  -12.5146 C   0  0  0  0  0  0  0  0  0  0  0  0
  1  2  1  0
  2  3  1  0
  3  4  1  0
  4  5  2  0
  5  6  1  0
  6  7  2  0
  7  8  1  0
  8  9  2  0
  8 10  1  0
 10 11  2  0
 10 12  1  0
 12 13  1  0
 13 14  1  6
 14 15  1  0
 15 16  1  1
 15 17  1  0
 17 18  1  0
 18 19  1  0
 19 20  1  0
 20 21  1  0
 21 22  1  0
 22 23  1  0
 23 24  1  0
 13 25  1  0
 25 26  1  1
 25 27  1  0
 27 28  1  0
 28 29  1  0
 29 30  1  0
 30 31  2  0
 31 32  1  0
 32 33  2  0
 33 34  1  0
 34 35  2  0
 32 36  1  0
 36 37  1  0
 36 38  1  0
  9  4  1  0
 24  6  1  0
 35 30  1  0
M  END
$$$$
