
     RDKit          3D

 38 40  0  0  0  0  0  0  0  0999 V2000
  -23.1734  -45.7183  -11.7855 C   0  0  0  0  0  0  0  0  0  0  0  0
  -22.5180  -44.6374  -12.3402 O   0  0  0  0  0  0  0  0  0  0  0  0
  -22.5103  -43.5453  -11.5193 C   0  0  0  0  0  0  0  0  0  0  0  0
  -21.2059  -43.3956  -10.8328 C   0  0  0  0  0  0  0  0  0  0  0  0
  -20.7896  -44.2376   -9.8373 C   0  0  0  0  0  0  0  0  0  0  0  0
  -19.5318  -44.1043   -9.1911 C   0  0  0  0  0  0  0  0  0  0  0  0
  -18.6570  -43.1045   -9.5454 C   0  0  0  0  0  0  0  0  0  0  0  0
  -19.0481  -42.2344  -10.5483 C   0  0  0  0  0  0  0  0  0  0  0  0
  -20.3155  -42.4114  -11.1602 C   0  0  0  0  0  0  0  0  0  0  0  0
  -18.3648  -41.0686  -11.1391 C   0  0  0  0  0  0  0  0  0  0  0  0
  -18.5331  -40.9567  -12.4428 O   0  0  0  0  0  0  0  0  0  0  0  0
  -17.5675  -40.0296  -10.6532 N   0  0  0  0  0  0  0  0  0  0  0  0
  -17.6279  -39.2862   -9.4384 C   0  0  1  0  0  0  0  0  0  0  0  0
  -18.8458  -38.4578   -9.2046 C   0  0  0  0  0  0  0  0  0  0  0  0
  -20.0952  -39.1701   -8.8564 C   0  0  2  0  0  0  0  0  0  0  0  0
  -21.1351  -38.7792   -9.9197 C   0  0  0  0  0  0  0  0  0  0  0  0
  -20.6531  -38.6140   -7.5380 C   0  0  0  0  0  0  0  0  0  0  0  0
  -21.1197  -39.7486   -6.6475 C   0  0  0  0  0  0  0  0  0  0  0  0
  -20.2911  -40.8411   -6.7449 O   0  0  0  0  0  0  0  0  0  0  0  0
  -20.8286  -42.0379   -6.3468 C   0  0  0  0  0  0  0  0  0  0  0  0
  -19.8142  -42.9640   -5.7168 C   0  0  0  0  0  0  0  0  0  0  0  0
  -20.0572  -44.4118   -5.9535 C   0  0  0  0  0  0  0  0  0  0  0  0
  -19.0094  -45.0730   -6.8150 C   0  0  0  0  0  0  0  0  0  0  0  0
  -19.4414  -45.1393   -8.1852 N   0  0  0  0  0  0  0  0  0  0  0  0
  -17.2307  -40.0463   -8.1967 C   0  0  2  0  0  0  0  0  0  0  0  0
  -17.4145  -39.1406   -7.1233 O   0  0  0  0  0  0  0  0  0  0  0  0
  -15.7357  -40.2800   -8.2788 C   0  0  0  0  0  0  0  0  0  0  0  0
  -15.1567  -39.6127   -7.1015 N   0  0  0  0  0  0  0  0  0  0  0  0
  -14.1815  -38.6222   -7.5090 C   0  0  0  0  0  0  0  0  0  0  0  0
  -14.1874  -38.5699   -8.9927 C   0  0  0  0  0  0  0  0  0  0  0  0
  -14.4133  -37.3916   -9.6884 C   0  0  0  0  0  0  0  0  0  0  0  0
  -14.4250  -37.3157  -11.0540 C   0  0  0  0  0  0  0  0  0  0  0  0
  -14.2007  -38.4694  -11.7760 C   0  0  0  0  0  0  0  0  0  0  0  0
  -13.9722  -39.6603  -11.1415 C   0  0  0  0  0  0  0  0  0  0  0  0
  -13.9693  -39.6908   -9.7663 C   0  0  0  0  0  0  0  0  0  0  0  0
  -14.6684  -36.0452  -11.7917 C   0  0  0  0  0  0  0  0  0  0  0  0
  -14.6017  -36.2421  -13.2945 C   0  0  0  0  0  0  0  0  0  0  0  0
  -13.6898  -34.9691  -11.3741 C   0  0  0  0  0  0  0  0  0  0  0  0
  1  2  1  0
  2  3  1  0
  3  4  1  0
  4  5  2  0
  5  6  1  0
  6  7  2  0
  7  8  1  0
  8  9  2  0
  8 10  1  0
 10 11  2  0
 10 12  1  0
 12 13  1  0
 13 14  1  1
 14 15  1  0
 15 16  1  6
 15 17  1  0
 17 18  1  0
 18 19  1  0
 19 20  1  0
 20 21  1  0
 21 22  1  0
 22 23  1  0
 23 24  1  0
 13 25  1  0
 25 26  1  1
 25 27  1  0
 27 28  1  0
 28 29  1  0
 29 30  1  0
 30 31  2  0
 31 32  1  0
 32 33  2  0
 33 34  1  0
 34 35  2  0
 32 36  1  0
 36 37  1  0
 36 38  1  0
  9  4  1  0
 24  6  1  0
 35 30  1  0
M  END
$$$$
