
     RDKit          3D

 38 40  0  0  0  0  0  0  0  0999 V2000
  -25.2841  -40.3959  -10.4508 C   0  0  0  0  0  0  0  0  0  0  0  0
  -24.3421  -41.0498   -9.6823 O   0  0  0  0  0  0  0  0  0  0  0  0
  -23.8125  -42.1415  -10.3103 C   0  0  0  0  0  0  0  0  0  0  0  0
  -22.3954  -42.3478   -9.9304 C   0  0  0  0  0  0  0  0  0  0  0  0
  -21.9965  -43.3141   -9.0469 C   0  0  0  0  0  0  0  0  0  0  0  0
  -20.6362  -43.5229   -8.6958 C   0  0  0  0  0  0  0  0  0  0  0  0
  -19.6383  -42.7498   -9.2407 C   0  0  0  0  0  0  0  0  0  0  0  0
  -20.0080  -41.7621  -10.1372 C   0  0  0  0  0  0  0  0  0  0  0  0
  -21.3809  -41.5950  -10.4524 C   0  0  0  0  0  0  0  0  0  0  0  0
  -19.2008  -40.7699  -10.8713 C   0  0  0  0  0  0  0  0  0  0  0  0
  -19.6133  -40.5560  -12.1060 O   0  0  0  0  0  0  0  0  0  0  0  0
  -18.0851  -39.9815  -10.5798 N   0  0  0  0  0  0  0  0  0  0  0  0
  -17.6954  -39.3068   -9.3862 C   0  0  1  0  0  0  0  0  0  0  0  0
  -18.5894  -38.2196   -8.8934 C   0  0  0  0  0  0  0  0  0  0  0  0
  -19.8710  -38.6228   -8.2732 C   0  0  2  0  0  0  0  0  0  0  0  0
  -20.9855  -37.9384   -9.0822 C   0  0  0  0  0  0  0  0  0  0  0  0
  -19.9754  -38.0136   -6.8673 C   0  0  0  0  0  0  0  0  0  0  0  0
  -20.5055  -39.0432   -5.8891 C   0  0  0  0  0  0  0  0  0  0  0  0
  -20.0152  -40.2984   -6.1611 O   0  0  0  0  0  0  0  0  0  0  0  0
  -20.7341  -41.3466   -5.6470 C   0  0  0  0  0  0  0  0  0  0  0  0
  -19.8701  -42.5217   -5.2519 C   0  0  0  0  0  0  0  0  0  0  0  0
  -20.5100  -43.8532   -5.4205 C   0  0  0  0  0  0  0  0  0  0  0  0
  -19.8706  -44.7061   -6.4888 C   0  0  0  0  0  0  0  0  0  0  0  0
  -20.5907  -44.5974   -7.7289 N   0  0  0  0  0  0  0  0  0  0  0  0
  -17.2411  -40.2013   -8.2587 C   0  0  2  0  0  0  0  0  0  0  0  0
  -17.4741  -39.4632   -7.0725 O   0  0  0  0  0  0  0  0  0  0  0  0
  -15.7350  -40.3252   -8.3702 C   0  0  0  0  0  0  0  0  0  0  0  0
  -15.4884  -41.3767   -9.3703 N   0  0  0  0  0  0  0  0  0  0  0  0
  -14.1339  -41.2874   -9.8760 C   0  0  0  0  0  0  0  0  0  0  0  0
  -14.1057  -40.2099  -10.8969 C   0  0  0  0  0  0  0  0  0  0  0  0
  -13.6044  -38.9464  -10.6221 C   0  0  0  0  0  0  0  0  0  0  0  0
  -13.5674  -37.9360  -11.5433 C   0  0  0  0  0  0  0  0  0  0  0  0
  -14.0531  -38.1862  -12.8098 C   0  0  0  0  0  0  0  0  0  0  0  0
  -14.5595  -39.4151  -13.1363 C   0  0  0  0  0  0  0  0  0  0  0  0
  -14.5774  -40.4023  -12.1786 C   0  0  0  0  0  0  0  0  0  0  0  0
  -13.0266  -36.5823  -11.2383 C   0  0  0  0  0  0  0  0  0  0  0  0
  -13.2360  -35.6170  -12.3898 C   0  0  0  0  0  0  0  0  0  0  0  0
  -11.5566  -36.6429  -10.8841 C   0  0  0  0  0  0  0  0  0  0  0  0
  1  2  1  0
  2  3  1  0
  3  4  1  0
  4  5  2  0
  5  6  1  0
  6  7  2  0
  7  8  1  0
  8  9  2  0
  8 10  1  0
 10 11  2  0
 10 12  1  0
 12 13  1  0
 13 14  1  1
 14 15  1  0
 15 16  1  6
 15 17  1  0
 17 18  1  0
 18 19  1  0
 19 20  1  0
 20 21  1  0
 21 22  1  0
 22 23  1  0
 23 24  1  0
 13 25  1  0
 25 26  1  1
 25 27  1  0
 27 28  1  0
 28 29  1  0
 29 30  1  0
 30 31  2  0
 31 32  1  0
 32 33  2  0
 33 34  1  0
 34 35  2  0
 32 36  1  0
 36 37  1  0
 36 38  1  0
  9  4  1  0
 24  6  1  0
 35 30  1  0
M  END
$$$$
