
     RDKit          3D

 38 40  0  0  0  0  0  0  0  0999 V2000
  -21.8817  -40.4723   -1.7214 C   0  0  0  0  0  0  0  0  0  0  0  0
  -22.6747  -40.4743   -2.8514 O   0  0  0  0  0  0  0  0  0  0  0  0
  -22.5053  -41.5950   -3.6143 C   0  0  0  0  0  0  0  0  0  0  0  0
  -21.9532  -41.2614   -4.9480 C   0  0  0  0  0  0  0  0  0  0  0  0
  -22.7293  -41.1724   -6.0720 C   0  0  0  0  0  0  0  0  0  0  0  0
  -22.2026  -40.8358   -7.3474 C   0  0  0  0  0  0  0  0  0  0  0  0
  -20.8626  -40.5764   -7.5133 C   0  0  0  0  0  0  0  0  0  0  0  0
  -20.0492  -40.6593   -6.3964 C   0  0  0  0  0  0  0  0  0  0  0  0
  -20.6262  -41.0005   -5.1463 C   0  0  0  0  0  0  0  0  0  0  0  0
  -18.5960  -40.4621   -6.2406 C   0  0  0  0  0  0  0  0  0  0  0  0
  -18.2586  -39.8461   -5.1238 O   0  0  0  0  0  0  0  0  0  0  0  0
  -17.4622  -40.7723   -6.9953 N   0  0  0  0  0  0  0  0  0  0  0  0
  -17.1480  -41.9071   -7.7988 C   0  0  1  0  0  0  0  0  0  0  0  0
  -17.0463  -43.2253   -7.1087 C   0  0  0  0  0  0  0  0  0  0  0  0
  -18.3080  -43.8599   -6.6671 C   0  0  2  0  0  0  0  0  0  0  0  0
  -18.1849  -44.0736   -5.1492 C   0  0  0  0  0  0  0  0  0  0  0  0
  -18.4052  -45.2747   -7.2565 C   0  0  0  0  0  0  0  0  0  0  0  0
  -19.8064  -45.5303   -7.7751 C   0  0  0  0  0  0  0  0  0  0  0  0
  -20.3443  -44.4053   -8.3540 O   0  0  0  0  0  0  0  0  0  0  0  0
  -21.7111  -44.3806   -8.4583 C   0  0  0  0  0  0  0  0  0  0  0  0
  -22.1992  -43.6563   -9.6915 C   0  0  0  0  0  0  0  0  0  0  0  0
  -23.4931  -42.9425   -9.5266 C   0  0  0  0  0  0  0  0  0  0  0  0
  -23.3756  -41.4403   -9.6092 C   0  0  0  0  0  0  0  0  0  0  0  0
  -23.2943  -40.8607   -8.2954 N   0  0  0  0  0  0  0  0  0  0  0  0
  -17.9225  -42.0180   -9.0892 C   0  0  2  0  0  0  0  0  0  0  0  0
  -17.5103  -43.2403   -9.6744 O   0  0  0  0  0  0  0  0  0  0  0  0
  -17.4058  -40.9322  -10.0114 C   0  0  0  0  0  0  0  0  0  0  0  0
  -18.4232  -39.8686   -9.9940 N   0  0  0  0  0  0  0  0  0  0  0  0
  -18.0706  -38.8458   -9.0307 C   0  0  0  0  0  0  0  0  0  0  0  0
  -17.5030  -37.6978   -9.7818 C   0  0  0  0  0  0  0  0  0  0  0  0
  -18.2687  -36.5974  -10.1367 C   0  0  0  0  0  0  0  0  0  0  0  0
  -17.7715  -35.5276  -10.8289 C   0  0  0  0  0  0  0  0  0  0  0  0
  -16.4410  -35.5438  -11.1922 C   0  0  0  0  0  0  0  0  0  0  0  0
  -15.6386  -36.6041  -10.8682 C   0  0  0  0  0  0  0  0  0  0  0  0
  -16.1804  -37.6590  -10.1714 C   0  0  0  0  0  0  0  0  0  0  0  0
  -18.6023  -34.3503  -11.2051 C   0  0  0  0  0  0  0  0  0  0  0  0
  -19.8421  -34.2329  -10.3387 C   0  0  0  0  0  0  0  0  0  0  0  0
  -19.0021  -34.4013  -12.6637 C   0  0  0  0  0  0  0  0  0  0  0  0
  1  2  1  0
  2  3  1  0
  3  4  1  0
  4  5  2  0
  5  6  1  0
  6  7  2  0
  7  8  1  0
  8  9  2  0
  8 10  1  0
 10 11  2  0
 10 12  1  0
 12 13  1  0
 13 14  1  1
 14 15  1  0
 15 16  1  1
 15 17  1  0
 17 18  1  0
 18 19  1  0
 19 20  1  0
 20 21  1  0
 21 22  1  0
 22 23  1  0
 23 24  1  0
 13 25  1  0
 25 26  1  6
 25 27  1  0
 27 28  1  0
 28 29  1  0
 29 30  1  0
 30 31  2  0
 31 32  1  0
 32 33  2  0
 33 34  1  0
 34 35  2  0
 32 36  1  0
 36 37  1  0
 36 38  1  0
  9  4  1  0
 24  6  1  0
 35 30  1  0
M  END
$$$$
