
     RDKit          3D

 38 40  0  0  0  0  0  0  0  0999 V2000
  -24.2069  -44.8392  -10.9226 C   0  0  0  0  0  0  0  0  0  0  0  0
  -23.1498  -44.9223  -10.0387 O   0  0  0  0  0  0  0  0  0  0  0  0
  -23.1191  -43.8835   -9.1519 C   0  0  0  0  0  0  0  0  0  0  0  0
  -21.7277  -43.4815   -8.8398 C   0  0  0  0  0  0  0  0  0  0  0  0
  -21.1344  -43.7350   -7.6327 C   0  0  0  0  0  0  0  0  0  0  0  0
  -19.7949  -43.3648   -7.3396 C   0  0  0  0  0  0  0  0  0  0  0  0
  -19.0172  -42.7242   -8.2752 C   0  0  0  0  0  0  0  0  0  0  0  0
  -19.5876  -42.4514   -9.5064 C   0  0  0  0  0  0  0  0  0  0  0  0
  -20.9299  -42.8418   -9.7469 C   0  0  0  0  0  0  0  0  0  0  0  0
  -19.0413  -41.7751  -10.6978 C   0  0  0  0  0  0  0  0  0  0  0  0
  -19.4168  -42.3201  -11.8389 O   0  0  0  0  0  0  0  0  0  0  0  0
  -18.2086  -40.6769  -10.9254 N   0  0  0  0  0  0  0  0  0  0  0  0
  -18.0983  -39.4243  -10.2541 C   0  0  1  0  0  0  0  0  0  0  0  0
  -19.2881  -38.5256  -10.2856 C   0  0  0  0  0  0  0  0  0  0  0  0
  -20.4450  -38.9004   -9.4425 C   0  0  2  0  0  0  0  0  0  0  0  0
  -21.6511  -39.0373  -10.3867 C   0  0  0  0  0  0  0  0  0  0  0  0
  -20.8039  -37.7313   -8.5136 C   0  0  0  0  0  0  0  0  0  0  0  0
  -21.0899  -38.2427   -7.1155 C   0  0  0  0  0  0  0  0  0  0  0  0
  -20.2548  -39.2807   -6.7763 O   0  0  0  0  0  0  0  0  0  0  0  0
  -20.6868  -40.0880   -5.7558 C   0  0  0  0  0  0  0  0  0  0  0  0
  -19.5585  -40.6289   -4.9086 C   0  0  0  0  0  0  0  0  0  0  0  0
  -19.7925  -41.9860   -4.3477 C   0  0  0  0  0  0  0  0  0  0  0  0
  -18.8749  -43.0443   -4.9090 C   0  0  0  0  0  0  0  0  0  0  0  0
  -19.5158  -43.7625   -5.9775 N   0  0  0  0  0  0  0  0  0  0  0  0
  -17.4875  -39.4830   -8.8753 C   0  0  2  0  0  0  0  0  0  0  0  0
  -17.9667  -38.3341   -8.1996 O   0  0  0  0  0  0  0  0  0  0  0  0
  -15.9971  -39.2641   -9.0408 C   0  0  0  0  0  0  0  0  0  0  0  0
  -15.3565  -40.5312   -8.6525 N   0  0  0  0  0  0  0  0  0  0  0  0
  -14.7388  -41.1598   -9.8020 C   0  0  0  0  0  0  0  0  0  0  0  0
  -14.6277  -40.1338  -10.8694 C   0  0  0  0  0  0  0  0  0  0  0  0
  -13.7622  -39.0550  -10.7684 C   0  0  0  0  0  0  0  0  0  0  0  0
  -13.6409  -38.0958  -11.7358 C   0  0  0  0  0  0  0  0  0  0  0  0
  -14.4187  -38.2070  -12.8695 C   0  0  0  0  0  0  0  0  0  0  0  0
  -15.2901  -39.2512  -13.0222 C   0  0  0  0  0  0  0  0  0  0  0  0
  -15.3798  -40.1933  -12.0240 C   0  0  0  0  0  0  0  0  0  0  0  0
  -12.7081  -36.9409  -11.6179 C   0  0  0  0  0  0  0  0  0  0  0  0
  -11.3735  -37.3503  -11.0238 C   0  0  0  0  0  0  0  0  0  0  0  0
  -13.3131  -35.8256  -10.7932 C   0  0  0  0  0  0  0  0  0  0  0  0
  1  2  1  0
  2  3  1  0
  3  4  1  0
  4  5  2  0
  5  6  1  0
  6  7  2  0
  7  8  1  0
  8  9  2  0
  8 10  1  0
 10 11  2  0
 10 12  1  0
 12 13  1  0
 13 14  1  1
 14 15  1  0
 15 16  1  6
 15 17  1  0
 17 18  1  0
 18 19  1  0
 19 20  1  0
 20 21  1  0
 21 22  1  0
 22 23  1  0
 23 24  1  0
 13 25  1  0
 25 26  1  1
 25 27  1  0
 27 28  1  0
 28 29  1  0
 29 30  1  0
 30 31  2  0
 31 32  1  0
 32 33  2  0
 33 34  1  0
 34 35  2  0
 32 36  1  0
 36 37  1  0
 36 38  1  0
  9  4  1  0
 24  6  1  0
 35 30  1  0
M  END
$$$$
