
     RDKit          3D

 38 40  0  0  0  0  0  0  0  0999 V2000
  -15.4220  -46.6215  -13.5939 C   0  0  0  0  0  0  0  0  0  0  0  0
  -15.9974  -45.4746  -13.0847 O   0  0  0  0  0  0  0  0  0  0  0  0
  -15.1526  -44.4012  -13.1139 C   0  0  0  0  0  0  0  0  0  0  0  0
  -15.7343  -43.2374  -12.4051 C   0  0  0  0  0  0  0  0  0  0  0  0
  -16.0286  -42.0571  -13.0324 C   0  0  0  0  0  0  0  0  0  0  0  0
  -16.6021  -40.9473  -12.3565 C   0  0  0  0  0  0  0  0  0  0  0  0
  -16.8957  -41.0110  -11.0148 C   0  0  0  0  0  0  0  0  0  0  0  0
  -16.6090  -42.1906  -10.3498 C   0  0  0  0  0  0  0  0  0  0  0  0
  -16.0354  -43.2682  -11.0722 C   0  0  0  0  0  0  0  0  0  0  0  0
  -16.7818  -42.5709   -8.9354 C   0  0  0  0  0  0  0  0  0  0  0  0
  -17.1787  -43.8172   -8.7635 O   0  0  0  0  0  0  0  0  0  0  0  0
  -16.6256  -41.9282   -7.7050 N   0  0  0  0  0  0  0  0  0  0  0  0
  -15.6640  -40.9768   -7.2555 C   0  0  1  0  0  0  0  0  0  0  0  0
  -14.2402  -41.4174   -7.2034 C   0  0  0  0  0  0  0  0  0  0  0  0
  -13.5265  -41.5629   -8.4915 C   0  0  2  0  0  0  0  0  0  0  0  0
  -13.0319  -43.0174   -8.5583 C   0  0  0  0  0  0  0  0  0  0  0  0
  -12.2473  -40.7134   -8.4688 C   0  0  0  0  0  0  0  0  0  0  0  0
  -12.0856  -39.9759   -9.7832 C   0  0  0  0  0  0  0  0  0  0  0  0
  -13.2963  -39.5501  -10.2761 O   0  0  0  0  0  0  0  0  0  0  0  0
  -13.3323  -39.2724  -11.6183 C   0  0  0  0  0  0  0  0  0  0  0  0
  -14.2727  -38.1416  -11.9655 C   0  0  0  0  0  0  0  0  0  0  0  0
  -14.9353  -38.2638  -13.2910 C   0  0  0  0  0  0  0  0  0  0  0  0
  -16.4269  -38.4778  -13.2096 C   0  0  0  0  0  0  0  0  0  0  0  0
  -16.7495  -39.8753  -13.3159 N   0  0  0  0  0  0  0  0  0  0  0  0
  -15.7933  -39.5973   -7.8538 C   0  0  2  0  0  0  0  0  0  0  0  0
  -14.6792  -38.8688   -7.3697 O   0  0  0  0  0  0  0  0  0  0  0  0
  -17.0078  -38.9505   -7.2190 C   0  0  0  0  0  0  0  0  0  0  0  0
  -17.7848  -40.0485   -6.6211 N   0  0  0  0  0  0  0  0  0  0  0  0
  -19.0806  -40.1581   -7.2591 C   0  0  0  0  0  0  0  0  0  0  0  0
  -19.4150  -38.8284   -7.8285 C   0  0  0  0  0  0  0  0  0  0  0  0
  -18.6557  -38.2430   -8.8305 C   0  0  0  0  0  0  0  0  0  0  0  0
  -18.9408  -37.0196   -9.3718 C   0  0  0  0  0  0  0  0  0  0  0  0
  -20.0391  -36.3333   -8.8972 C   0  0  0  0  0  0  0  0  0  0  0  0
  -20.8239  -36.8634   -7.9092 C   0  0  0  0  0  0  0  0  0  0  0  0
  -20.5003  -38.0969   -7.3934 C   0  0  0  0  0  0  0  0  0  0  0  0
  -18.1191  -36.3996  -10.4480 C   0  0  0  0  0  0  0  0  0  0  0  0
  -16.6898  -36.9079  -10.4321 C   0  0  0  0  0  0  0  0  0  0  0  0
  -18.1250  -34.8898  -10.3454 C   0  0  0  0  0  0  0  0  0  0  0  0
  1  2  1  0
  2  3  1  0
  3  4  1  0
  4  5  2  0
  5  6  1  0
  6  7  2  0
  7  8  1  0
  8  9  2  0
  8 10  1  0
 10 11  2  0
 10 12  1  0
 12 13  1  0
 13 14  1  6
 14 15  1  0
 15 16  1  1
 15 17  1  0
 17 18  1  0
 18 19  1  0
 19 20  1  0
 20 21  1  0
 21 22  1  0
 22 23  1  0
 23 24  1  0
 13 25  1  0
 25 26  1  1
 25 27  1  0
 27 28  1  0
 28 29  1  0
 29 30  1  0
 30 31  2  0
 31 32  1  0
 32 33  2  0
 33 34  1  0
 34 35  2  0
 32 36  1  0
 36 37  1  0
 36 38  1  0
  9  4  1  0
 24  6  1  0
 35 30  1  0
M  END
$$$$
