
     RDKit          3D

 38 40  0  0  0  0  0  0  0  0999 V2000
  -25.0966  -44.4068   -8.6970 C   0  0  0  0  0  0  0  0  0  0  0  0
  -24.0280  -44.8099   -7.9215 O   0  0  0  0  0  0  0  0  0  0  0  0
  -22.9604  -45.2242   -8.6665 C   0  0  0  0  0  0  0  0  0  0  0  0
  -21.7087  -44.5627   -8.2299 C   0  0  0  0  0  0  0  0  0  0  0  0
  -21.1373  -44.7879   -7.0067 C   0  0  0  0  0  0  0  0  0  0  0  0
  -19.9282  -44.1668   -6.5948 C   0  0  0  0  0  0  0  0  0  0  0  0
  -19.2623  -43.2956   -7.4243 C   0  0  0  0  0  0  0  0  0  0  0  0
  -19.8143  -43.0447   -8.6686 C   0  0  0  0  0  0  0  0  0  0  0  0
  -21.0244  -43.6906   -9.0297 C   0  0  0  0  0  0  0  0  0  0  0  0
  -19.3685  -42.1658   -9.7659 C   0  0  0  0  0  0  0  0  0  0  0  0
  -19.5562  -42.6769  -10.9675 O   0  0  0  0  0  0  0  0  0  0  0  0
  -18.7855  -40.8994   -9.8533 N   0  0  0  0  0  0  0  0  0  0  0  0
  -18.9868  -39.7157   -9.0851 C   0  0  1  0  0  0  0  0  0  0  0  0
  -20.3411  -39.0929   -9.1325 C   0  0  0  0  0  0  0  0  0  0  0  0
  -21.4299  -39.7786   -8.4016 C   0  0  2  0  0  0  0  0  0  0  0  0
  -22.5265  -40.0873   -9.4347 C   0  0  0  0  0  0  0  0  0  0  0  0
  -22.0834  -38.7989   -7.4158 C   0  0  0  0  0  0  0  0  0  0  0  0
  -22.3223  -39.4796   -6.0826 C   0  0  0  0  0  0  0  0  0  0  0  0
  -21.2990  -40.3407   -5.7641 O   0  0  0  0  0  0  0  0  0  0  0  0
  -21.5960  -41.3075   -4.8385 C   0  0  0  0  0  0  0  0  0  0  0  0
  -20.4219  -41.6665   -3.9576 C   0  0  0  0  0  0  0  0  0  0  0  0
  -20.3820  -43.0858   -3.5162 C   0  0  0  0  0  0  0  0  0  0  0  0
  -19.2273  -43.8704   -4.0893 C   0  0  0  0  0  0  0  0  0  0  0  0
  -19.6396  -44.6130   -5.2499 N   0  0  0  0  0  0  0  0  0  0  0  0
  -18.4499  -39.7626   -7.6755 C   0  0  2  0  0  0  0  0  0  0  0  0
  -18.7879  -38.5132   -7.0998 O   0  0  0  0  0  0  0  0  0  0  0  0
  -16.9379  -39.7667   -7.7767 C   0  0  0  0  0  0  0  0  0  0  0  0
  -16.5227  -38.3572   -7.6908 N   0  0  0  0  0  0  0  0  0  0  0  0
  -16.6764  -37.7046   -8.9748 C   0  0  0  0  0  0  0  0  0  0  0  0
  -16.2462  -38.6656  -10.0215 C   0  0  0  0  0  0  0  0  0  0  0  0
  -15.1427  -39.4895   -9.8578 C   0  0  0  0  0  0  0  0  0  0  0  0
  -14.7244  -40.3824  -10.8057 C   0  0  0  0  0  0  0  0  0  0  0  0
  -15.4361  -40.4681  -11.9841 C   0  0  0  0  0  0  0  0  0  0  0  0
  -16.5334  -39.6790  -12.1994 C   0  0  0  0  0  0  0  0  0  0  0  0
  -16.9187  -38.7947  -11.2188 C   0  0  0  0  0  0  0  0  0  0  0  0
  -13.5379  -41.2631  -10.6200 C   0  0  0  0  0  0  0  0  0  0  0  0
  -13.9295  -42.6427  -10.1250 C   0  0  0  0  0  0  0  0  0  0  0  0
  -12.5361  -40.6451   -9.6690 C   0  0  0  0  0  0  0  0  0  0  0  0
  1  2  1  0
  2  3  1  0
  3  4  1  0
  4  5  2  0
  5  6  1  0
  6  7  2  0
  7  8  1  0
  8  9  2  0
  8 10  1  0
 10 11  2  0
 10 12  1  0
 12 13  1  0
 13 14  1  1
 14 15  1  0
 15 16  1  6
 15 17  1  0
 17 18  1  0
 18 19  1  0
 19 20  1  0
 20 21  1  0
 21 22  1  0
 22 23  1  0
 23 24  1  0
 13 25  1  0
 25 26  1  1
 25 27  1  0
 27 28  1  0
 28 29  1  0
 29 30  1  0
 30 31  2  0
 31 32  1  0
 32 33  2  0
 33 34  1  0
 34 35  2  0
 32 36  1  0
 36 37  1  0
 36 38  1  0
  9  4  1  0
 24  6  1  0
 35 30  1  0
M  END
$$$$
