
     RDKit          3D

 38 40  0  0  0  0  0  0  0  0999 V2000
  -13.0662  -41.4310  -14.9826 C   0  0  0  0  0  0  0  0  0  0  0  0
  -14.3126  -41.7737  -14.4983 O   0  0  0  0  0  0  0  0  0  0  0  0
  -15.2670  -40.8394  -14.7860 C   0  0  0  0  0  0  0  0  0  0  0  0
  -15.8478  -40.2632  -13.5508 C   0  0  0  0  0  0  0  0  0  0  0  0
  -16.3054  -38.9754  -13.4758 C   0  0  0  0  0  0  0  0  0  0  0  0
  -16.8777  -38.4285  -12.2966 C   0  0  0  0  0  0  0  0  0  0  0  0
  -17.0028  -39.1842  -11.1548 C   0  0  0  0  0  0  0  0  0  0  0  0
  -16.5482  -40.4909  -11.1964 C   0  0  0  0  0  0  0  0  0  0  0  0
  -15.9838  -40.9873  -12.3994 C   0  0  0  0  0  0  0  0  0  0  0  0
  -16.5203  -41.5395  -10.1597 C   0  0  0  0  0  0  0  0  0  0  0  0
  -16.7964  -42.7464  -10.6152 O   0  0  0  0  0  0  0  0  0  0  0  0
  -16.2680  -41.5757   -8.7862 N   0  0  0  0  0  0  0  0  0  0  0  0
  -15.3359  -40.8579   -7.9814 C   0  0  1  0  0  0  0  0  0  0  0  0
  -13.8863  -41.0817   -8.2511 C   0  0  0  0  0  0  0  0  0  0  0  0
  -13.3231  -40.4790   -9.4796 C   0  0  2  0  0  0  0  0  0  0  0  0
  -12.7291  -41.6338  -10.3034 C   0  0  0  0  0  0  0  0  0  0  0  0
  -12.1198  -39.5975   -9.1142 C   0  0  0  0  0  0  0  0  0  0  0  0
  -12.1742  -38.2926   -9.8838 C   0  0  0  0  0  0  0  0  0  0  0  0
  -13.4644  -37.8364  -10.0147 O   0  0  0  0  0  0  0  0  0  0  0  0
  -13.6823  -36.9384  -11.0275 C   0  0  0  0  0  0  0  0  0  0  0  0
  -14.7421  -35.9139  -10.6946 C   0  0  0  0  0  0  0  0  0  0  0  0
  -15.5473  -35.4474  -11.8544 C   0  0  0  0  0  0  0  0  0  0  0  0
  -16.9974  -35.8610  -11.7957 C   0  0  0  0  0  0  0  0  0  0  0  0
  -17.2214  -37.0510  -12.5717 N   0  0  0  0  0  0  0  0  0  0  0  0
  -15.6421  -39.3923   -7.7916 C   0  0  2  0  0  0  0  0  0  0  0  0
  -14.8026  -38.9640   -6.7342 O   0  0  0  0  0  0  0  0  0  0  0  0
  -17.0547  -39.3007   -7.2506 C   0  0  0  0  0  0  0  0  0  0  0  0
  -17.8450  -38.6287   -8.2948 N   0  0  0  0  0  0  0  0  0  0  0  0
  -18.8868  -37.8178   -7.6986 C   0  0  0  0  0  0  0  0  0  0  0  0
  -20.0831  -38.6797   -7.5253 C   0  0  0  0  0  0  0  0  0  0  0  0
  -20.3919  -39.2780   -6.3129 C   0  0  0  0  0  0  0  0  0  0  0  0
  -21.4864  -40.0767   -6.1262 C   0  0  0  0  0  0  0  0  0  0  0  0
  -22.3258  -40.2984   -7.1980 C   0  0  0  0  0  0  0  0  0  0  0  0
  -22.0696  -39.7332   -8.4178 C   0  0  0  0  0  0  0  0  0  0  0  0
  -20.9573  -38.9366   -8.5607 C   0  0  0  0  0  0  0  0  0  0  0  0
  -21.8094  -40.7145   -4.8198 C   0  0  0  0  0  0  0  0  0  0  0  0
  -21.8804  -42.2259   -4.9305 C   0  0  0  0  0  0  0  0  0  0  0  0
  -23.1079  -40.1829   -4.2529 C   0  0  0  0  0  0  0  0  0  0  0  0
  1  2  1  0
  2  3  1  0
  3  4  1  0
  4  5  2  0
  5  6  1  0
  6  7  2  0
  7  8  1  0
  8  9  2  0
  8 10  1  0
 10 11  2  0
 10 12  1  0
 12 13  1  0
 13 14  1  6
 14 15  1  0
 15 16  1  6
 15 17  1  0
 17 18  1  0
 18 19  1  0
 19 20  1  0
 20 21  1  0
 21 22  1  0
 22 23  1  0
 23 24  1  0
 13 25  1  0
 25 26  1  1
 25 27  1  0
 27 28  1  0
 28 29  1  0
 29 30  1  0
 30 31  2  0
 31 32  1  0
 32 33  2  0
 33 34  1  0
 34 35  2  0
 32 36  1  0
 36 37  1  0
 36 38  1  0
  9  4  1  0
 24  6  1  0
 35 30  1  0
M  END
$$$$
