
     RDKit          3D

 38 40  0  0  0  0  0  0  0  0999 V2000
   -9.6841  -40.5428  -11.3563 C   0  0  0  0  0  0  0  0  0  0  0  0
  -10.7537  -41.0506  -12.0661 O   0  0  0  0  0  0  0  0  0  0  0  0
  -11.4031  -42.0513  -11.4002 C   0  0  0  0  0  0  0  0  0  0  0  0
  -12.5954  -41.5387  -10.6856 C   0  0  0  0  0  0  0  0  0  0  0  0
  -12.6077  -41.2994   -9.3380 C   0  0  0  0  0  0  0  0  0  0  0  0
  -13.7454  -40.7918   -8.6559 C   0  0  0  0  0  0  0  0  0  0  0  0
  -14.9085  -40.5099   -9.3327 C   0  0  0  0  0  0  0  0  0  0  0  0
  -14.9301  -40.7421  -10.6971 C   0  0  0  0  0  0  0  0  0  0  0  0
  -13.7666  -41.2509  -11.3290 C   0  0  0  0  0  0  0  0  0  0  0  0
  -16.0042  -40.5653  -11.6921 C   0  0  0  0  0  0  0  0  0  0  0  0
  -15.5829  -40.1059  -12.8548 O   0  0  0  0  0  0  0  0  0  0  0  0
  -17.3861  -40.7680  -11.7126 N   0  0  0  0  0  0  0  0  0  0  0  0
  -18.1972  -41.7826  -11.1256 C   0  0  1  0  0  0  0  0  0  0  0  0
  -17.9873  -43.1821  -11.5963 C   0  0  0  0  0  0  0  0  0  0  0  0
  -16.7587  -43.8732  -11.1461 C   0  0  2  0  0  0  0  0  0  0  0  0
  -15.9986  -44.2907  -12.4160 C   0  0  0  0  0  0  0  0  0  0  0  0
  -17.1347  -45.1950  -10.4606 C   0  0  0  0  0  0  0  0  0  0  0  0
  -16.3172  -45.3805   -9.1976 C   0  0  0  0  0  0  0  0  0  0  0  0
  -16.1243  -44.1883   -8.5408 O   0  0  0  0  0  0  0  0  0  0  0  0
  -15.0727  -44.1521   -7.6618 C   0  0  0  0  0  0  0  0  0  0  0  0
  -15.3307  -43.2681   -6.4637 C   0  0  0  0  0  0  0  0  0  0  0  0
  -14.1270  -42.5856   -5.9192 C   0  0  0  0  0  0  0  0  0  0  0  0
  -14.1490  -41.0859   -6.0853 C   0  0  0  0  0  0  0  0  0  0  0  0
  -13.4089  -40.6899   -7.2531 N   0  0  0  0  0  0  0  0  0  0  0  0
  -18.3231  -41.7188   -9.6231 C   0  0  2  0  0  0  0  0  0  0  0  0
  -18.6748  -43.0293   -9.2166 O   0  0  0  0  0  0  0  0  0  0  0  0
  -19.5334  -40.8602   -9.3154 C   0  0  0  0  0  0  0  0  0  0  0  0
  -19.5056  -40.6276   -7.8623 N   0  0  0  0  0  0  0  0  0  0  0  0
  -19.7642  -39.2332   -7.5673 C   0  0  0  0  0  0  0  0  0  0  0  0
  -20.7655  -38.7447   -8.5485 C   0  0  0  0  0  0  0  0  0  0  0  0
  -20.3966  -38.1106   -9.7254 C   0  0  0  0  0  0  0  0  0  0  0  0
  -21.2980  -37.6504  -10.6455 C   0  0  0  0  0  0  0  0  0  0  0  0
  -22.6421  -37.8260  -10.3901 C   0  0  0  0  0  0  0  0  0  0  0  0
  -23.0630  -38.4452   -9.2445 C   0  0  0  0  0  0  0  0  0  0  0  0
  -22.1219  -38.8924   -8.3465 C   0  0  0  0  0  0  0  0  0  0  0  0
  -20.8915  -36.9708  -11.9067 C   0  0  0  0  0  0  0  0  0  0  0  0
  -20.1316  -35.6858  -11.6372 C   0  0  0  0  0  0  0  0  0  0  0  0
  -22.0879  -36.6810  -12.7870 C   0  0  0  0  0  0  0  0  0  0  0  0
  1  2  1  0
  2  3  1  0
  3  4  1  0
  4  5  2  0
  5  6  1  0
  6  7  2  0
  7  8  1  0
  8  9  2  0
  8 10  1  0
 10 11  2  0
 10 12  1  0
 12 13  1  0
 13 14  1  1
 14 15  1  0
 15 16  1  6
 15 17  1  0
 17 18  1  0
 18 19  1  0
 19 20  1  0
 20 21  1  0
 21 22  1  0
 22 23  1  0
 23 24  1  0
 13 25  1  0
 25 26  1  6
 25 27  1  0
 27 28  1  0
 28 29  1  0
 29 30  1  0
 30 31  2  0
 31 32  1  0
 32 33  2  0
 33 34  1  0
 34 35  2  0
 32 36  1  0
 36 37  1  0
 36 38  1  0
  9  4  1  0
 24  6  1  0
 35 30  1  0
M  END
$$$$
