
     RDKit          3D

 26 28  0  0  0  0  0  0  0  0999 V2000
  -16.6770  -35.8619  -13.0858 C   0  0  0  0  0  0  0  0  0  0  0  0
  -17.4423  -37.0445  -13.2148 O   0  0  0  0  0  0  0  0  0  0  0  0
  -18.2526  -37.4166  -12.1585 C   0  0  0  0  0  0  0  0  0  0  0  0
  -19.5901  -37.6526  -12.3136 C   0  0  0  0  0  0  0  0  0  0  0  0
  -20.4399  -38.0360  -11.2406 C   0  0  0  0  0  0  0  0  0  0  0  0
  -19.9336  -38.1865   -9.9651 C   0  0  0  0  0  0  0  0  0  0  0  0
  -18.5919  -37.9559   -9.7849 C   0  0  0  0  0  0  0  0  0  0  0  0
  -17.7814  -37.5760  -10.8855 C   0  0  0  0  0  0  0  0  0  0  0  0
  -17.7416  -38.0511   -8.5789 C   0  0  0  0  0  0  0  0  0  0  0  0
  -17.9814  -37.7381   -7.3575 N   0  0  0  0  0  0  0  0  0  0  0  0
  -17.5819  -38.8600   -6.4932 C   0  0  1  0  0  0  0  0  0  0  0  0
  -18.5419  -39.9962   -6.7205 C   0  0  0  0  0  0  0  0  0  0  0  0
  -19.7783  -39.9512   -5.8358 C   0  0  2  0  0  0  0  0  0  0  0  0
  -19.8012  -41.1813   -4.9629 C   0  0  0  0  0  0  0  0  0  0  0  0
  -21.0330  -39.8691   -6.6832 C   0  0  0  0  0  0  0  0  0  0  0  0
  -22.1971  -40.6438   -6.1991 C   0  0  0  0  0  0  0  0  0  0  0  0
  -23.1624  -40.9137   -7.3160 C   0  0  0  0  0  0  0  0  0  0  0  0
  -22.9024  -40.0434   -8.4922 C   0  0  0  0  0  0  0  0  0  0  0  0
  -24.0566  -39.9269   -9.4705 C   0  0  0  0  0  0  0  0  0  0  0  0
  -23.6631  -38.7753  -10.4117 C   0  0  0  0  0  0  0  0  0  0  0  0
  -22.7589  -39.2402  -11.5316 C   0  0  0  0  0  0  0  0  0  0  0  0
  -21.7675  -38.2167  -11.7601 N   0  0  0  0  0  0  0  0  0  0  0  0
  -16.2940  -39.2494   -7.1994 C   0  0  2  0  0  0  0  0  0  0  0  0
  -15.0796  -38.7271   -6.4609 C   0  0  0  0  0  0  0  0  0  0  0  0
  -14.3580  -37.8247   -7.2407 O   0  0  0  0  0  0  0  0  0  0  0  0
  -16.3873  -38.5201   -8.4061 O   0  0  0  0  0  0  0  0  0  0  0  0
  1  2  1  0
  2  3  1  0
  3  4  2  0
  4  5  1  0
  5  6  2  0
  6  7  1  0
  7  8  2  0
  7  9  1  0
  9 10  2  0
 10 11  1  0
 11 12  1  6
 12 13  1  0
 13 14  1  6
 13 15  1  0
 15 16  1  0
 16 17  1  0
 17 18  1  0
 18 19  1  0
 19 20  1  0
 20 21  1  0
 21 22  1  0
 11 23  1  0
 23 24  1  1
 24 25  1  0
 23 26  1  0
  8  3  1  0
 22  5  1  0
 26  9  1  0
M  END
$$$$
