
     RDKit          3D

 26 28  0  0  0  0  0  0  0  0999 V2000
  -15.4747  -33.3786  -11.4611 C   0  0  0  0  0  0  0  0  0  0  0  0
  -15.2949  -34.7806  -11.4080 O   0  0  0  0  0  0  0  0  0  0  0  0
  -16.1948  -35.5271  -10.6708 C   0  0  0  0  0  0  0  0  0  0  0  0
  -17.5096  -35.1733  -10.5503 C   0  0  0  0  0  0  0  0  0  0  0  0
  -18.4503  -35.9272   -9.7973 C   0  0  0  0  0  0  0  0  0  0  0  0
  -18.0608  -37.0762   -9.1385 C   0  0  0  0  0  0  0  0  0  0  0  0
  -16.7445  -37.4527   -9.2459 C   0  0  0  0  0  0  0  0  0  0  0  0
  -15.8409  -36.6698  -10.0095 C   0  0  0  0  0  0  0  0  0  0  0  0
  -16.0183  -38.6187   -8.6989 C   0  0  0  0  0  0  0  0  0  0  0  0
  -16.1176  -39.2115   -7.5648 N   0  0  0  0  0  0  0  0  0  0  0  0
  -16.2220  -40.6611   -7.7948 C   0  0  1  0  0  0  0  0  0  0  0  0
  -17.5626  -40.9453   -8.4161 C   0  0  0  0  0  0  0  0  0  0  0  0
  -18.6778  -41.1768   -7.4080 C   0  0  2  0  0  0  0  0  0  0  0  0
  -19.2118  -42.5770   -7.5811 C   0  0  0  0  0  0  0  0  0  0  0  0
  -19.7809  -40.1533   -7.5946 C   0  0  0  0  0  0  0  0  0  0  0  0
  -21.1645  -40.6486   -7.4208 C   0  0  0  0  0  0  0  0  0  0  0  0
  -22.1466  -39.7457   -8.1084 C   0  0  0  0  0  0  0  0  0  0  0  0
  -21.5422  -38.4319   -8.4503 C   0  0  0  0  0  0  0  0  0  0  0  0
  -22.5385  -37.3234   -8.7357 C   0  0  0  0  0  0  0  0  0  0  0  0
  -21.6986  -36.0348   -8.7678 C   0  0  0  0  0  0  0  0  0  0  0  0
  -21.0570  -35.8080  -10.1187 C   0  0  0  0  0  0  0  0  0  0  0  0
  -19.7305  -35.2828   -9.9013 N   0  0  0  0  0  0  0  0  0  0  0  0
  -15.2029  -40.7921   -8.9143 C   0  0  2  0  0  0  0  0  0  0  0  0
  -13.8870  -41.3388   -8.4021 C   0  0  0  0  0  0  0  0  0  0  0  0
  -12.8136  -40.8818   -9.1650 O   0  0  0  0  0  0  0  0  0  0  0  0
  -14.9784  -39.4426   -9.2680 O   0  0  0  0  0  0  0  0  0  0  0  0
  1  2  1  0
  2  3  1  0
  3  4  2  0
  4  5  1  0
  5  6  2  0
  6  7  1  0
  7  8  2  0
  7  9  1  0
  9 10  2  0
 10 11  1  0
 11 12  1  6
 12 13  1  0
 13 14  1  6
 13 15  1  0
 15 16  1  0
 16 17  1  0
 17 18  1  0
 18 19  1  0
 19 20  1  0
 20 21  1  0
 21 22  1  0
 11 23  1  0
 23 24  1  1
 24 25  1  0
 23 26  1  0
  8  3  1  0
 22  5  1  0
 26  9  1  0
M  END
$$$$
