
     RDKit          3D

 26 28  0  0  0  0  0  0  0  0999 V2000
  -15.5305  -35.1438  -13.7824 C   0  0  0  0  0  0  0  0  0  0  0  0
  -15.1325  -35.8337  -12.6134 O   0  0  0  0  0  0  0  0  0  0  0  0
  -16.1174  -36.3021  -11.7641 C   0  0  0  0  0  0  0  0  0  0  0  0
  -17.4481  -36.1329  -12.0273 C   0  0  0  0  0  0  0  0  0  0  0  0
  -18.4756  -36.6070  -11.1671 C   0  0  0  0  0  0  0  0  0  0  0  0
  -18.1603  -37.2728   -9.9995 C   0  0  0  0  0  0  0  0  0  0  0  0
  -16.8295  -37.4559   -9.7143 C   0  0  0  0  0  0  0  0  0  0  0  0
  -15.8378  -36.9665  -10.6028 C   0  0  0  0  0  0  0  0  0  0  0  0
  -16.1613  -38.1358   -8.5840 C   0  0  0  0  0  0  0  0  0  0  0  0
  -16.4560  -38.1726   -7.3353 N   0  0  0  0  0  0  0  0  0  0  0  0
  -16.4206  -39.5716   -6.8807 C   0  0  1  0  0  0  0  0  0  0  0  0
  -17.5836  -40.2988   -7.4993 C   0  0  0  0  0  0  0  0  0  0  0  0
  -18.8666  -40.2242   -6.6859 C   0  0  2  0  0  0  0  0  0  0  0  0
  -19.2655  -41.6187   -6.2711 C   0  0  0  0  0  0  0  0  0  0  0  0
  -19.9685  -39.5672   -7.4941 C   0  0  0  0  0  0  0  0  0  0  0  0
  -21.3247  -40.1354   -7.3280 C   0  0  0  0  0  0  0  0  0  0  0  0
  -22.1974  -39.7888   -8.4987 C   0  0  0  0  0  0  0  0  0  0  0  0
  -21.6180  -38.6881   -9.3119 C   0  0  0  0  0  0  0  0  0  0  0  0
  -22.6004  -37.9838  -10.2291 C   0  0  0  0  0  0  0  0  0  0  0  0
  -21.8535  -36.7330  -10.7236 C   0  0  0  0  0  0  0  0  0  0  0  0
  -20.9618  -37.0345  -11.9077 C   0  0  0  0  0  0  0  0  0  0  0  0
  -19.7440  -36.2752  -11.7553 N   0  0  0  0  0  0  0  0  0  0  0  0
  -15.1860  -40.0304   -7.6384 C   0  0  2  0  0  0  0  0  0  0  0  0
  -13.9732  -40.0898   -6.7338 C   0  0  0  0  0  0  0  0  0  0  0  0
  -12.7881  -40.0402   -7.4662 O   0  0  0  0  0  0  0  0  0  0  0  0
  -14.9772  -38.9603   -8.5374 O   0  0  0  0  0  0  0  0  0  0  0  0
  1  2  1  0
  2  3  1  0
  3  4  2  0
  4  5  1  0
  5  6  2  0
  6  7  1  0
  7  8  2  0
  7  9  1  0
  9 10  2  0
 10 11  1  0
 11 12  1  6
 12 13  1  0
 13 14  1  6
 13 15  1  0
 15 16  1  0
 16 17  1  0
 17 18  1  0
 18 19  1  0
 19 20  1  0
 20 21  1  0
 21 22  1  0
 11 23  1  0
 23 24  1  1
 24 25  1  0
 23 26  1  0
  8  3  1  0
 22  5  1  0
 26  9  1  0
M  END
$$$$
