
     RDKit          3D

 26 28  0  0  0  0  0  0  0  0999 V2000
  -12.9655  -36.7197  -12.4525 C   0  0  0  0  0  0  0  0  0  0  0  0
  -14.1817  -36.2476  -12.9992 O   0  0  0  0  0  0  0  0  0  0  0  0
  -15.3466  -36.4688  -12.2887 C   0  0  0  0  0  0  0  0  0  0  0  0
  -16.5748  -36.1151  -12.7736 C   0  0  0  0  0  0  0  0  0  0  0  0
  -17.7837  -36.3340  -12.0588 C   0  0  0  0  0  0  0  0  0  0  0  0
  -17.7632  -36.9265  -10.8120 C   0  0  0  0  0  0  0  0  0  0  0  0
  -16.5406  -37.2918  -10.3044 C   0  0  0  0  0  0  0  0  0  0  0  0
  -15.3597  -37.0548  -11.0539 C   0  0  0  0  0  0  0  0  0  0  0  0
  -16.1733  -37.9582   -9.0366 C   0  0  0  0  0  0  0  0  0  0  0  0
  -16.6501  -37.8273   -7.8521 N   0  0  0  0  0  0  0  0  0  0  0  0
  -16.9241  -39.1638   -7.3009 C   0  0  1  0  0  0  0  0  0  0  0  0
  -18.0917  -39.7517   -8.0461 C   0  0  0  0  0  0  0  0  0  0  0  0
  -19.4478  -39.3952   -7.4569 C   0  0  2  0  0  0  0  0  0  0  0  0
  -20.1382  -40.6616   -7.0151 C   0  0  0  0  0  0  0  0  0  0  0  0
  -20.2887  -38.6511   -8.4758 C   0  0  0  0  0  0  0  0  0  0  0  0
  -21.7322  -38.9766   -8.4906 C   0  0  0  0  0  0  0  0  0  0  0  0
  -22.3504  -38.6088   -9.8078 C   0  0  0  0  0  0  0  0  0  0  0  0
  -21.4764  -37.6981  -10.5922 C   0  0  0  0  0  0  0  0  0  0  0  0
  -22.1768  -36.9371  -11.7026 C   0  0  0  0  0  0  0  0  0  0  0  0
  -21.1605  -35.8751  -12.1568 C   0  0  0  0  0  0  0  0  0  0  0  0
  -20.1703  -36.4275  -13.1580 C   0  0  0  0  0  0  0  0  0  0  0  0
  -18.8754  -35.8617  -12.8651 N   0  0  0  0  0  0  0  0  0  0  0  0
  -15.6897  -39.8847   -7.8162 C   0  0  2  0  0  0  0  0  0  0  0  0
  -14.6516  -40.0502   -6.7264 C   0  0  0  0  0  0  0  0  0  0  0  0
  -14.0453  -38.8352   -6.4113 O   0  0  0  0  0  0  0  0  0  0  0  0
  -15.1694  -38.9530   -8.7425 O   0  0  0  0  0  0  0  0  0  0  0  0
  1  2  1  0
  2  3  1  0
  3  4  2  0
  4  5  1  0
  5  6  2  0
  6  7  1  0
  7  8  2  0
  7  9  1  0
  9 10  2  0
 10 11  1  0
 11 12  1  6
 12 13  1  0
 13 14  1  6
 13 15  1  0
 15 16  1  0
 16 17  1  0
 17 18  1  0
 18 19  1  0
 19 20  1  0
 20 21  1  0
 21 22  1  0
 11 23  1  0
 23 24  1  1
 24 25  1  0
 23 26  1  0
  8  3  1  0
 22  5  1  0
 26  9  1  0
M  END
$$$$
