
     RDKit          3D

 26 28  0  0  0  0  0  0  0  0999 V2000
  -15.8547  -34.1340  -11.9385 C   0  0  0  0  0  0  0  0  0  0  0  0
  -15.8468  -35.5480  -11.9726 O   0  0  0  0  0  0  0  0  0  0  0  0
  -16.6936  -36.2268  -11.1164 C   0  0  0  0  0  0  0  0  0  0  0  0
  -18.0283  -35.9433  -11.0346 C   0  0  0  0  0  0  0  0  0  0  0  0
  -18.9152  -36.6295  -10.1612 C   0  0  0  0  0  0  0  0  0  0  0  0
  -18.4493  -37.6347   -9.3375 C   0  0  0  0  0  0  0  0  0  0  0  0
  -17.1116  -37.9383   -9.4029 C   0  0  0  0  0  0  0  0  0  0  0  0
  -16.2636  -37.2276  -10.2907 C   0  0  0  0  0  0  0  0  0  0  0  0
  -16.3090  -38.9561   -8.6915 C   0  0  0  0  0  0  0  0  0  0  0  0
  -16.3656  -39.3703   -7.4779 N   0  0  0  0  0  0  0  0  0  0  0  0
  -16.3759  -40.8417   -7.4790 C   0  0  1  0  0  0  0  0  0  0  0  0
  -17.6971  -41.3043   -8.0306 C   0  0  0  0  0  0  0  0  0  0  0  0
  -18.7915  -41.4470   -6.9839 C   0  0  2  0  0  0  0  0  0  0  0  0
  -19.2335  -42.8884   -6.9305 C   0  0  0  0  0  0  0  0  0  0  0  0
  -19.9597  -40.5377   -7.3121 C   0  0  0  0  0  0  0  0  0  0  0  0
  -21.3074  -41.0874   -7.0450 C   0  0  0  0  0  0  0  0  0  0  0  0
  -22.3486  -40.3673   -7.8510 C   0  0  0  0  0  0  0  0  0  0  0  0
  -21.8324  -39.0867   -8.4006 C   0  0  0  0  0  0  0  0  0  0  0  0
  -22.8999  -38.1022   -8.8410 C   0  0  0  0  0  0  0  0  0  0  0  0
  -22.1461  -36.7832   -9.0838 C   0  0  0  0  0  0  0  0  0  0  0  0
  -21.5252  -36.7288  -10.4621 C   0  0  0  0  0  0  0  0  0  0  0  0
  -20.2351  -36.0925  -10.3467 N   0  0  0  0  0  0  0  0  0  0  0  0
  -15.3541  -41.0799   -8.5783 C   0  0  2  0  0  0  0  0  0  0  0  0
  -14.0037  -41.4549   -8.0052 C   0  0  0  0  0  0  0  0  0  0  0  0
  -12.9848  -41.2700   -8.9384 O   0  0  0  0  0  0  0  0  0  0  0  0
  -15.2194  -39.7902   -9.1399 O   0  0  0  0  0  0  0  0  0  0  0  0
  1  2  1  0
  2  3  1  0
  3  4  2  0
  4  5  1  0
  5  6  2  0
  6  7  1  0
  7  8  2  0
  7  9  1  0
  9 10  2  0
 10 11  1  0
 11 12  1  6
 12 13  1  0
 13 14  1  6
 13 15  1  0
 15 16  1  0
 16 17  1  0
 17 18  1  0
 18 19  1  0
 19 20  1  0
 20 21  1  0
 21 22  1  0
 11 23  1  0
 23 24  1  1
 24 25  1  0
 23 26  1  0
  8  3  1  0
 22  5  1  0
 26  9  1  0
M  END
$$$$
