
     RDKit          3D

 26 28  0  0  0  0  0  0  0  0999 V2000
  -17.5520  -46.9824   -6.7116 C   0  0  0  0  0  0  0  0  0  0  0  0
  -17.4071  -46.1586   -7.8523 O   0  0  0  0  0  0  0  0  0  0  0  0
  -18.1228  -44.9770   -7.8998 C   0  0  0  0  0  0  0  0  0  0  0  0
  -19.3500  -44.8437   -7.3126 C   0  0  0  0  0  0  0  0  0  0  0  0
  -20.1014  -43.6377   -7.3502 C   0  0  0  0  0  0  0  0  0  0  0  0
  -19.6079  -42.5247   -8.0011 C   0  0  0  0  0  0  0  0  0  0  0  0
  -18.3759  -42.6341   -8.5978 C   0  0  0  0  0  0  0  0  0  0  0  0
  -17.6609  -43.8577   -8.5339 C   0  0  0  0  0  0  0  0  0  0  0  0
  -17.5626  -41.6464   -9.3389 C   0  0  0  0  0  0  0  0  0  0  0  0
  -17.9076  -40.7310  -10.1699 N   0  0  0  0  0  0  0  0  0  0  0  0
  -17.2567  -39.4694   -9.7829 C   0  0  1  0  0  0  0  0  0  0  0  0
  -17.8859  -38.9861   -8.5044 C   0  0  0  0  0  0  0  0  0  0  0  0
  -19.1158  -38.1147   -8.7080 C   0  0  2  0  0  0  0  0  0  0  0  0
  -18.8454  -36.7446   -8.1375 C   0  0  0  0  0  0  0  0  0  0  0  0
  -20.3261  -38.7441   -8.0460 C   0  0  0  0  0  0  0  0  0  0  0  0
  -21.2648  -37.8109   -7.3842 C   0  0  0  0  0  0  0  0  0  0  0  0
  -22.0978  -38.5258   -6.3609 C   0  0  0  0  0  0  0  0  0  0  0  0
  -22.0385  -40.0006   -6.5339 C   0  0  0  0  0  0  0  0  0  0  0  0
  -23.1570  -40.7704   -5.8565 C   0  0  0  0  0  0  0  0  0  0  0  0
  -23.0475  -42.2003   -6.4137 C   0  0  0  0  0  0  0  0  0  0  0  0
  -22.0243  -43.0252   -5.6650 C   0  0  0  0  0  0  0  0  0  0  0  0
  -21.3234  -43.8457   -6.6233 N   0  0  0  0  0  0  0  0  0  0  0  0
  -15.8934  -40.0201   -9.3992 C   0  0  2  0  0  0  0  0  0  0  0  0
  -14.8744  -39.7840  -10.4941 C   0  0  0  0  0  0  0  0  0  0  0  0
  -14.2782  -40.9765  -10.9012 O   0  0  0  0  0  0  0  0  0  0  0  0
  -16.1384  -41.4111   -9.3576 O   0  0  0  0  0  0  0  0  0  0  0  0
  1  2  1  0
  2  3  1  0
  3  4  2  0
  4  5  1  0
  5  6  2  0
  6  7  1  0
  7  8  2  0
  7  9  1  0
  9 10  2  0
 10 11  1  0
 11 12  1  1
 12 13  1  0
 13 14  1  1
 13 15  1  0
 15 16  1  0
 16 17  1  0
 17 18  1  0
 18 19  1  0
 19 20  1  0
 20 21  1  0
 21 22  1  0
 11 23  1  0
 23 24  1  6
 24 25  1  0
 23 26  1  0
  8  3  1  0
 22  5  1  0
 26  9  1  0
M  END
$$$$
