
     RDKit          3D

 26 28  0  0  0  0  0  0  0  0999 V2000
  -12.8130  -39.7747   -8.0847 C   0  0  0  0  0  0  0  0  0  0  0  0
  -13.9845  -39.8798   -7.2989 O   0  0  0  0  0  0  0  0  0  0  0  0
  -15.1768  -39.4387   -7.8417 C   0  0  0  0  0  0  0  0  0  0  0  0
  -15.2417  -38.3611   -8.6803 C   0  0  0  0  0  0  0  0  0  0  0  0
  -16.4572  -37.8922   -9.2486 C   0  0  0  0  0  0  0  0  0  0  0  0
  -17.6522  -38.5230   -8.9656 C   0  0  0  0  0  0  0  0  0  0  0  0
  -17.6120  -39.6091   -8.1262 C   0  0  0  0  0  0  0  0  0  0  0  0
  -16.3753  -40.0426   -7.5829 C   0  0  0  0  0  0  0  0  0  0  0  0
  -18.6829  -40.5096   -7.6482 C   0  0  0  0  0  0  0  0  0  0  0  0
  -19.8949  -40.2625   -7.3055 N   0  0  0  0  0  0  0  0  0  0  0  0
  -20.7839  -41.2187   -7.9841 C   0  0  1  0  0  0  0  0  0  0  0  0
  -20.7994  -40.8891   -9.4522 C   0  0  0  0  0  0  0  0  0  0  0  0
  -21.8497  -39.8624   -9.8473 C   0  0  2  0  0  0  0  0  0  0  0  0
  -22.8189  -40.4992  -10.8120 C   0  0  0  0  0  0  0  0  0  0  0  0
  -21.1928  -38.6454  -10.4690 C   0  0  0  0  0  0  0  0  0  0  0  0
  -21.9082  -38.0309  -11.6094 C   0  0  0  0  0  0  0  0  0  0  0  0
  -20.9733  -37.2090  -12.4477 C   0  0  0  0  0  0  0  0  0  0  0  0
  -19.7012  -36.9219  -11.7351 C   0  0  0  0  0  0  0  0  0  0  0  0
  -18.8977  -35.7652  -12.2998 C   0  0  0  0  0  0  0  0  0  0  0  0
  -17.8132  -35.4844  -11.2452 C   0  0  0  0  0  0  0  0  0  0  0  0
  -16.6163  -36.3955  -11.4043 C   0  0  0  0  0  0  0  0  0  0  0  0
  -16.1568  -36.7644  -10.0869 N   0  0  0  0  0  0  0  0  0  0  0  0
  -19.9316  -42.4687   -7.8423 C   0  0  2  0  0  0  0  0  0  0  0  0
  -20.4351  -43.3564   -6.7237 C   0  0  0  0  0  0  0  0  0  0  0  0
  -19.4837  -44.3086   -6.3612 O   0  0  0  0  0  0  0  0  0  0  0  0
  -18.6936  -41.9348   -7.4188 O   0  0  0  0  0  0  0  0  0  0  0  0
  1  2  1  0
  2  3  1  0
  3  4  2  0
  4  5  1  0
  5  6  2  0
  6  7  1  0
  7  8  2  0
  7  9  1  0
  9 10  2  0
 10 11  1  0
 11 12  1  6
 12 13  1  0
 13 14  1  6
 13 15  1  0
 15 16  1  0
 16 17  1  0
 17 18  1  0
 18 19  1  0
 19 20  1  0
 20 21  1  0
 21 22  1  0
 11 23  1  0
 23 24  1  1
 24 25  1  0
 23 26  1  0
  8  3  1  0
 22  5  1  0
 26  9  1  0
M  END
$$$$
