
     RDKit          3D

 26 28  0  0  0  0  0  0  0  0999 V2000
  -22.4550  -41.3005   -3.3365 C   0  0  0  0  0  0  0  0  0  0  0  0
  -21.4414  -40.3738   -3.6749 O   0  0  0  0  0  0  0  0  0  0  0  0
  -21.1681  -40.1648   -5.0137 C   0  0  0  0  0  0  0  0  0  0  0  0
  -22.1548  -39.9428   -5.9334 C   0  0  0  0  0  0  0  0  0  0  0  0
  -21.8944  -39.7258   -7.3137 C   0  0  0  0  0  0  0  0  0  0  0  0
  -20.5994  -39.7333   -7.7922 C   0  0  0  0  0  0  0  0  0  0  0  0
  -19.5908  -39.9531   -6.8866 C   0  0  0  0  0  0  0  0  0  0  0  0
  -19.8975  -40.1640   -5.5177 C   0  0  0  0  0  0  0  0  0  0  0  0
  -18.1227  -39.9979   -7.0571 C   0  0  0  0  0  0  0  0  0  0  0  0
  -17.4034  -40.4757   -8.0067 N   0  0  0  0  0  0  0  0  0  0  0  0
  -16.4040  -39.4688   -8.3972 C   0  0  1  0  0  0  0  0  0  0  0  0
  -17.1181  -38.3362   -9.0837 C   0  0  0  0  0  0  0  0  0  0  0  0
  -17.2903  -38.5281  -10.5827 C   0  0  2  0  0  0  0  0  0  0  0  0
  -16.5571  -37.4254  -11.3053 C   0  0  0  0  0  0  0  0  0  0  0  0
  -18.7612  -38.5276  -10.9510 C   0  0  0  0  0  0  0  0  0  0  0  0
  -19.1143  -37.8524  -12.2196 C   0  0  0  0  0  0  0  0  0  0  0  0
  -20.5629  -37.4604  -12.2322 C   0  0  0  0  0  0  0  0  0  0  0  0
  -21.3330  -38.1606  -11.1715 C   0  0  0  0  0  0  0  0  0  0  0  0
  -22.8367  -38.1745  -11.3752 C   0  0  0  0  0  0  0  0  0  0  0  0
  -23.3671  -39.1813  -10.3399 C   0  0  0  0  0  0  0  0  0  0  0  0
  -23.5559  -38.5503   -8.9782 C   0  0  0  0  0  0  0  0  0  0  0  0
  -23.1491  -39.5101   -7.9802 N   0  0  0  0  0  0  0  0  0  0  0  0
  -16.0366  -38.9581   -7.0140 C   0  0  2  0  0  0  0  0  0  0  0  0
  -14.7234  -39.5440   -6.5398 C   0  0  0  0  0  0  0  0  0  0  0  0
  -14.6956  -39.6760   -5.1524 O   0  0  0  0  0  0  0  0  0  0  0  0
  -17.0533  -39.5231   -6.2116 O   0  0  0  0  0  0  0  0  0  0  0  0
  1  2  1  0
  2  3  1  0
  3  4  2  0
  4  5  1  0
  5  6  2  0
  6  7  1  0
  7  8  2  0
  7  9  1  0
  9 10  2  0
 10 11  1  0
 11 12  1  6
 12 13  1  0
 13 14  1  6
 13 15  1  0
 15 16  1  0
 16 17  1  0
 17 18  1  0
 18 19  1  0
 19 20  1  0
 20 21  1  0
 21 22  1  0
 11 23  1  0
 23 24  1  1
 24 25  1  0
 23 26  1  0
  8  3  1  0
 22  5  1  0
 26  9  1  0
M  END
$$$$
