
     RDKit          3D

 26 28  0  0  0  0  0  0  0  0999 V2000
  -20.8849  -42.2501   -2.6494 C   0  0  0  0  0  0  0  0  0  0  0  0
  -19.8853  -41.4570   -3.2598 O   0  0  0  0  0  0  0  0  0  0  0  0
  -20.0660  -41.0779   -4.5768 C   0  0  0  0  0  0  0  0  0  0  0  0
  -21.3061  -40.8619   -5.1098 C   0  0  0  0  0  0  0  0  0  0  0  0
  -21.5128  -40.4719   -6.4609 C   0  0  0  0  0  0  0  0  0  0  0  0
  -20.4395  -40.2936   -7.3108 C   0  0  0  0  0  0  0  0  0  0  0  0
  -19.1832  -40.5037   -6.7974 C   0  0  0  0  0  0  0  0  0  0  0  0
  -19.0245  -40.8912   -5.4420 C   0  0  0  0  0  0  0  0  0  0  0  0
  -17.8459  -40.3774   -7.4155 C   0  0  0  0  0  0  0  0  0  0  0  0
  -17.4366  -40.6731   -8.5955 N   0  0  0  0  0  0  0  0  0  0  0  0
  -16.6805  -39.5318   -9.1350 C   0  0  1  0  0  0  0  0  0  0  0  0
  -17.6475  -38.4121   -9.4095 C   0  0  0  0  0  0  0  0  0  0  0  0
  -18.2746  -38.4586  -10.7944 C   0  0  2  0  0  0  0  0  0  0  0  0
  -17.8821  -37.2145  -11.5520 C   0  0  0  0  0  0  0  0  0  0  0  0
  -19.7831  -38.5710  -10.6890 C   0  0  0  0  0  0  0  0  0  0  0  0
  -20.5640  -37.8036  -11.6845 C   0  0  0  0  0  0  0  0  0  0  0  0
  -21.9636  -37.5648  -11.1982 C   0  0  0  0  0  0  0  0  0  0  0  0
  -22.3096  -38.4511  -10.0567 C   0  0  0  0  0  0  0  0  0  0  0  0
  -23.7958  -38.5989   -9.7880 C   0  0  0  0  0  0  0  0  0  0  0  0
  -23.9032  -39.7608   -8.7853 C   0  0  0  0  0  0  0  0  0  0  0  0
  -23.6895  -39.3028   -7.3596 C   0  0  0  0  0  0  0  0  0  0  0  0
  -22.9254  -40.3170   -6.6739 N   0  0  0  0  0  0  0  0  0  0  0  0
  -15.9262  -39.1375   -7.8762 C   0  0  2  0  0  0  0  0  0  0  0  0
  -14.4954  -39.6316   -7.9122 C   0  0  0  0  0  0  0  0  0  0  0  0
  -14.0674  -40.0460   -6.6519 O   0  0  0  0  0  0  0  0  0  0  0  0
  -16.5962  -39.8880   -6.8838 O   0  0  0  0  0  0  0  0  0  0  0  0
  1  2  1  0
  2  3  1  0
  3  4  2  0
  4  5  1  0
  5  6  2  0
  6  7  1  0
  7  8  2  0
  7  9  1  0
  9 10  2  0
 10 11  1  0
 11 12  1  1
 12 13  1  0
 13 14  1  1
 13 15  1  0
 15 16  1  0
 16 17  1  0
 17 18  1  0
 18 19  1  0
 19 20  1  0
 20 21  1  0
 21 22  1  0
 11 23  1  0
 23 24  1  6
 24 25  1  0
 23 26  1  0
  8  3  1  0
 22  5  1  0
 26  9  1  0
M  END
$$$$
