
     RDKit          3D

 26 28  0  0  0  0  0  0  0  0999 V2000
  -15.3456  -37.9229   -8.2731 C   0  0  0  0  0  0  0  0  0  0  0  0
  -15.8027  -39.2614   -8.2892 O   0  0  0  0  0  0  0  0  0  0  0  0
  -17.1558  -39.4916   -8.1251 C   0  0  0  0  0  0  0  0  0  0  0  0
  -18.1056  -38.7308   -8.7477 C   0  0  0  0  0  0  0  0  0  0  0  0
  -19.5011  -38.9514   -8.5920 C   0  0  0  0  0  0  0  0  0  0  0  0
  -19.9636  -39.9692   -7.7818 C   0  0  0  0  0  0  0  0  0  0  0  0
  -19.0277  -40.7480   -7.1466 C   0  0  0  0  0  0  0  0  0  0  0  0
  -17.6449  -40.4919   -7.3323 C   0  0  0  0  0  0  0  0  0  0  0  0
  -19.1790  -41.9125   -6.2480 C   0  0  0  0  0  0  0  0  0  0  0  0
  -20.0372  -42.1524   -5.3243 N   0  0  0  0  0  0  0  0  0  0  0  0
  -20.5735  -43.5092   -5.5161 C   0  0  1  0  0  0  0  0  0  0  0  0
  -21.4336  -43.5069   -6.7507 C   0  0  0  0  0  0  0  0  0  0  0  0
  -22.8853  -43.1313   -6.4957 C   0  0  2  0  0  0  0  0  0  0  0  0
  -23.7663  -44.2961   -6.8734 C   0  0  0  0  0  0  0  0  0  0  0  0
  -23.2593  -41.8943   -7.2889 C   0  0  0  0  0  0  0  0  0  0  0  0
  -24.6202  -41.8804   -7.8697 C   0  0  0  0  0  0  0  0  0  0  0  0
  -24.7040  -40.9130   -9.0140 C   0  0  0  0  0  0  0  0  0  0  0  0
  -23.5523  -39.9740   -9.0280 C   0  0  0  0  0  0  0  0  0  0  0  0
  -23.7616  -38.7158   -9.8500 C   0  0  0  0  0  0  0  0  0  0  0  0
  -22.5853  -37.7978   -9.4752 C   0  0  0  0  0  0  0  0  0  0  0  0
  -21.3403  -38.1143  -10.2740 C   0  0  0  0  0  0  0  0  0  0  0  0
  -20.2017  -37.9885   -9.3962 N   0  0  0  0  0  0  0  0  0  0  0  0
  -19.2847  -44.2155   -5.9022 C   0  0  2  0  0  0  0  0  0  0  0  0
  -18.7157  -45.0009   -4.7393 C   0  0  0  0  0  0  0  0  0  0  0  0
  -17.3764  -45.3250   -4.9500 O   0  0  0  0  0  0  0  0  0  0  0  0
  -18.4108  -43.1292   -6.1324 O   0  0  0  0  0  0  0  0  0  0  0  0
  1  2  1  0
  2  3  1  0
  3  4  2  0
  4  5  1  0
  5  6  2  0
  6  7  1  0
  7  8  2  0
  7  9  1  0
  9 10  2  0
 10 11  1  0
 11 12  1  6
 12 13  1  0
 13 14  1  6
 13 15  1  0
 15 16  1  0
 16 17  1  0
 17 18  1  0
 18 19  1  0
 19 20  1  0
 20 21  1  0
 21 22  1  0
 11 23  1  0
 23 24  1  1
 24 25  1  0
 23 26  1  0
  8  3  1  0
 22  5  1  0
 26  9  1  0
M  END
$$$$
