
     RDKit          3D

 26 28  0  0  0  0  0  0  0  0999 V2000
  -14.2048  -34.9495  -12.2300 C   0  0  0  0  0  0  0  0  0  0  0  0
  -15.2055  -35.8089  -12.7408 O   0  0  0  0  0  0  0  0  0  0  0  0
  -16.2479  -36.1661  -11.9062 C   0  0  0  0  0  0  0  0  0  0  0  0
  -17.5534  -35.9082  -12.2188 C   0  0  0  0  0  0  0  0  0  0  0  0
  -18.6391  -36.2674  -11.3745 C   0  0  0  0  0  0  0  0  0  0  0  0
  -18.4101  -36.9062  -10.1722 C   0  0  0  0  0  0  0  0  0  0  0  0
  -17.1062  -37.1772   -9.8371 C   0  0  0  0  0  0  0  0  0  0  0  0
  -16.0543  -36.8011  -10.7114 C   0  0  0  0  0  0  0  0  0  0  0  0
  -16.5255  -37.8581   -8.6601 C   0  0  0  0  0  0  0  0  0  0  0  0
  -16.8588  -37.8208   -7.4211 N   0  0  0  0  0  0  0  0  0  0  0  0
  -16.9440  -39.1985   -6.9113 C   0  0  1  0  0  0  0  0  0  0  0  0
  -18.1406  -39.8610   -7.5385 C   0  0  0  0  0  0  0  0  0  0  0  0
  -19.4375  -39.6563   -6.7706 C   0  0  2  0  0  0  0  0  0  0  0  0
  -19.9541  -40.9984   -6.3148 C   0  0  0  0  0  0  0  0  0  0  0  0
  -20.4616  -38.9521   -7.6392 C   0  0  0  0  0  0  0  0  0  0  0  0
  -21.8617  -39.4091   -7.4951 C   0  0  0  0  0  0  0  0  0  0  0  0
  -22.6705  -39.0465   -8.7061 C   0  0  0  0  0  0  0  0  0  0  0  0
  -21.9848  -38.0272   -9.5424 C   0  0  0  0  0  0  0  0  0  0  0  0
  -22.8830  -37.2894  -10.5178 C   0  0  0  0  0  0  0  0  0  0  0  0
  -22.0282  -36.1200  -11.0363 C   0  0  0  0  0  0  0  0  0  0  0  0
  -21.1279  -36.5365  -12.1782 C   0  0  0  0  0  0  0  0  0  0  0  0
  -19.8605  -35.8656  -12.0160 N   0  0  0  0  0  0  0  0  0  0  0  0
  -15.7264  -39.7801   -7.6101 C   0  0  2  0  0  0  0  0  0  0  0  0
  -14.5488  -39.8932   -6.6650 C   0  0  0  0  0  0  0  0  0  0  0  0
  -13.5208  -39.0233   -7.0251 O   0  0  0  0  0  0  0  0  0  0  0  0
  -15.4100  -38.7669   -8.5429 O   0  0  0  0  0  0  0  0  0  0  0  0
  1  2  1  0
  2  3  1  0
  3  4  2  0
  4  5  1  0
  5  6  2  0
  6  7  1  0
  7  8  2  0
  7  9  1  0
  9 10  2  0
 10 11  1  0
 11 12  1  6
 12 13  1  0
 13 14  1  6
 13 15  1  0
 15 16  1  0
 16 17  1  0
 17 18  1  0
 18 19  1  0
 19 20  1  0
 20 21  1  0
 21 22  1  0
 11 23  1  0
 23 24  1  1
 24 25  1  0
 23 26  1  0
  8  3  1  0
 22  5  1  0
 26  9  1  0
M  END
$$$$
