
     RDKit          3D

 26 28  0  0  0  0  0  0  0  0999 V2000
  -19.7510  -43.4144   -2.2154 C   0  0  0  0  0  0  0  0  0  0  0  0
  -18.9076  -42.4473   -2.8105 O   0  0  0  0  0  0  0  0  0  0  0  0
  -19.3258  -41.8499   -3.9848 C   0  0  0  0  0  0  0  0  0  0  0  0
  -20.6385  -41.5543   -4.2253 C   0  0  0  0  0  0  0  0  0  0  0  0
  -21.0885  -40.9404   -5.4257 C   0  0  0  0  0  0  0  0  0  0  0  0
  -20.1923  -40.6122   -6.4234 C   0  0  0  0  0  0  0  0  0  0  0  0
  -18.8673  -40.8985   -6.2040 C   0  0  0  0  0  0  0  0  0  0  0  0
  -18.4636  -41.5110   -4.9898 C   0  0  0  0  0  0  0  0  0  0  0  0
  -17.6693  -40.6594   -7.0371 C   0  0  0  0  0  0  0  0  0  0  0  0
  -17.5002  -40.7462   -8.3064 N   0  0  0  0  0  0  0  0  0  0  0  0
  -16.8309  -39.5244   -8.7803 C   0  0  1  0  0  0  0  0  0  0  0  0
  -17.8026  -38.3809   -8.6707 C   0  0  0  0  0  0  0  0  0  0  0  0
  -18.6831  -38.1941   -9.8968 C   0  0  2  0  0  0  0  0  0  0  0  0
  -18.4094  -36.8362  -10.4942 C   0  0  0  0  0  0  0  0  0  0  0  0
  -20.1463  -38.3330   -9.5240 C   0  0  0  0  0  0  0  0  0  0  0  0
  -21.0821  -37.4120  -10.2066 C   0  0  0  0  0  0  0  0  0  0  0  0
  -22.3566  -37.2694   -9.4272 C   0  0  0  0  0  0  0  0  0  0  0  0
  -22.5021  -38.3401   -8.4070 C   0  0  0  0  0  0  0  0  0  0  0  0
  -23.9132  -38.5416   -7.8867 C   0  0  0  0  0  0  0  0  0  0  0  0
  -23.8583  -39.8586   -7.0932 C   0  0  0  0  0  0  0  0  0  0  0  0
  -23.3650  -39.6497   -5.6786 C   0  0  0  0  0  0  0  0  0  0  0  0
  -22.5112  -40.7610   -5.3340 N   0  0  0  0  0  0  0  0  0  0  0  0
  -15.8406  -39.3461   -7.6418 C   0  0  2  0  0  0  0  0  0  0  0  0
  -14.4563  -39.8171   -8.0350 C   0  0  0  0  0  0  0  0  0  0  0  0
  -14.1099  -40.9925   -7.3705 O   0  0  0  0  0  0  0  0  0  0  0  0
  -16.3288  -40.2596   -6.6806 O   0  0  0  0  0  0  0  0  0  0  0  0
  1  2  1  0
  2  3  1  0
  3  4  2  0
  4  5  1  0
  5  6  2  0
  6  7  1  0
  7  8  2  0
  7  9  1  0
  9 10  2  0
 10 11  1  0
 11 12  1  1
 12 13  1  0
 13 14  1  1
 13 15  1  0
 15 16  1  0
 16 17  1  0
 17 18  1  0
 18 19  1  0
 19 20  1  0
 20 21  1  0
 21 22  1  0
 11 23  1  0
 23 24  1  6
 24 25  1  0
 23 26  1  0
  8  3  1  0
 22  5  1  0
 26  9  1  0
M  END
$$$$
