
     RDKit          3D

 26 28  0  0  0  0  0  0  0  0999 V2000
  -13.0193  -39.0423   -8.2771 C   0  0  0  0  0  0  0  0  0  0  0  0
  -13.9024  -39.4862   -9.2890 O   0  0  0  0  0  0  0  0  0  0  0  0
  -15.2508  -39.5590   -8.9934 C   0  0  0  0  0  0  0  0  0  0  0  0
  -16.0203  -38.4427   -8.8192 C   0  0  0  0  0  0  0  0  0  0  0  0
  -17.4078  -38.4964   -8.5151 C   0  0  0  0  0  0  0  0  0  0  0  0
  -18.0485  -39.7116   -8.3778 C   0  0  0  0  0  0  0  0  0  0  0  0
  -17.2960  -40.8474   -8.5495 C   0  0  0  0  0  0  0  0  0  0  0  0
  -15.9141  -40.7458   -8.8534 C   0  0  0  0  0  0  0  0  0  0  0  0
  -17.6677  -42.2777   -8.4990 C   0  0  0  0  0  0  0  0  0  0  0  0
  -18.4795  -42.9060   -7.7285 N   0  0  0  0  0  0  0  0  0  0  0  0
  -19.3615  -43.7468   -8.5534 C   0  0  1  0  0  0  0  0  0  0  0  0
  -20.2907  -42.8457   -9.3207 C   0  0  0  0  0  0  0  0  0  0  0  0
  -21.5703  -42.4949   -8.5770 C   0  0  2  0  0  0  0  0  0  0  0  0
  -22.7500  -43.0201   -9.3569 C   0  0  0  0  0  0  0  0  0  0  0  0
  -21.6768  -40.9945   -8.3853 C   0  0  0  0  0  0  0  0  0  0  0  0
  -23.0313  -40.4151   -8.5247 C   0  0  0  0  0  0  0  0  0  0  0  0
  -22.9570  -38.9475   -8.8295 C   0  0  0  0  0  0  0  0  0  0  0  0
  -21.6073  -38.3933   -8.5475 C   0  0  0  0  0  0  0  0  0  0  0  0
  -21.5522  -36.8838   -8.4027 C   0  0  0  0  0  0  0  0  0  0  0  0
  -20.1522  -36.5912   -7.8358 C   0  0  0  0  0  0  0  0  0  0  0  0
  -19.1013  -36.5269   -8.9219 C   0  0  0  0  0  0  0  0  0  0  0  0
  -17.9003  -37.1499   -8.4196 N   0  0  0  0  0  0  0  0  0  0  0  0
  -18.3348  -44.2452   -9.5567 C   0  0  2  0  0  0  0  0  0  0  0  0
  -17.8935  -45.6585   -9.2394 C   0  0  0  0  0  0  0  0  0  0  0  0
  -16.6724  -45.9584   -9.8412 O   0  0  0  0  0  0  0  0  0  0  0  0
  -17.2324  -43.4009   -9.2944 O   0  0  0  0  0  0  0  0  0  0  0  0
  1  2  1  0
  2  3  1  0
  3  4  2  0
  4  5  1  0
  5  6  2  0
  6  7  1  0
  7  8  2  0
  7  9  1  0
  9 10  2  0
 10 11  1  0
 11 12  1  6
 12 13  1  0
 13 14  1  6
 13 15  1  0
 15 16  1  0
 16 17  1  0
 17 18  1  0
 18 19  1  0
 19 20  1  0
 20 21  1  0
 21 22  1  0
 11 23  1  0
 23 24  1  1
 24 25  1  0
 23 26  1  0
  8  3  1  0
 22  5  1  0
 26  9  1  0
M  END
$$$$
