
     RDKit          3D

 26 28  0  0  0  0  0  0  0  0999 V2000
  -19.4131  -43.6398   -2.3396 C   0  0  0  0  0  0  0  0  0  0  0  0
  -18.7222  -42.5526   -2.9238 O   0  0  0  0  0  0  0  0  0  0  0  0
  -19.2398  -41.9936   -4.0773 C   0  0  0  0  0  0  0  0  0  0  0  0
  -20.5760  -41.7518   -4.2343 C   0  0  0  0  0  0  0  0  0  0  0  0
  -21.1277  -41.1780   -5.4119 C   0  0  0  0  0  0  0  0  0  0  0  0
  -20.3128  -40.8356   -6.4725 C   0  0  0  0  0  0  0  0  0  0  0  0
  -18.9661  -41.0680   -6.3375 C   0  0  0  0  0  0  0  0  0  0  0  0
  -18.4597  -41.6419   -5.1431 C   0  0  0  0  0  0  0  0  0  0  0  0
  -17.8360  -40.8002   -7.2526 C   0  0  0  0  0  0  0  0  0  0  0  0
  -17.7480  -40.9048   -8.5288 N   0  0  0  0  0  0  0  0  0  0  0  0
  -17.1591  -39.6681   -9.0664 C   0  0  1  0  0  0  0  0  0  0  0  0
  -18.1647  -38.5597   -8.9109 C   0  0  0  0  0  0  0  0  0  0  0  0
  -19.1309  -38.4292  -10.0783 C   0  0  2  0  0  0  0  0  0  0  0  0
  -18.9498  -37.0736  -10.7149 C   0  0  0  0  0  0  0  0  0  0  0  0
  -20.5598  -38.6155   -9.6063 C   0  0  0  0  0  0  0  0  0  0  0  0
  -21.5734  -37.7432  -10.2399 C   0  0  0  0  0  0  0  0  0  0  0  0
  -22.7981  -37.6334   -9.3795 C   0  0  0  0  0  0  0  0  0  0  0  0
  -22.8345  -38.6893   -8.3344 C   0  0  0  0  0  0  0  0  0  0  0  0
  -24.1993  -38.9334   -7.7177 C   0  0  0  0  0  0  0  0  0  0  0  0
  -24.0413  -40.2321   -6.9081 C   0  0  0  0  0  0  0  0  0  0  0  0
  -23.4639  -39.9781   -5.5332 C   0  0  0  0  0  0  0  0  0  0  0  0
  -22.5471  -41.0501   -5.2282 N   0  0  0  0  0  0  0  0  0  0  0  0
  -16.1032  -39.4313   -7.9997 C   0  0  2  0  0  0  0  0  0  0  0  0
  -14.7308  -39.8577   -8.4768 C   0  0  0  0  0  0  0  0  0  0  0  0
  -14.0650  -40.6079   -7.5087 O   0  0  0  0  0  0  0  0  0  0  0  0
  -16.4912  -40.3440   -6.9931 O   0  0  0  0  0  0  0  0  0  0  0  0
  1  2  1  0
  2  3  1  0
  3  4  2  0
  4  5  1  0
  5  6  2  0
  6  7  1  0
  7  8  2  0
  7  9  1  0
  9 10  2  0
 10 11  1  0
 11 12  1  1
 12 13  1  0
 13 14  1  1
 13 15  1  0
 15 16  1  0
 16 17  1  0
 17 18  1  0
 18 19  1  0
 19 20  1  0
 20 21  1  0
 21 22  1  0
 11 23  1  0
 23 24  1  6
 24 25  1  0
 23 26  1  0
  8  3  1  0
 22  5  1  0
 26  9  1  0
M  END
$$$$
