
     RDKit          3D

 26 28  0  0  0  0  0  0  0  0999 V2000
  -14.1618  -36.8735  -10.4438 C   0  0  0  0  0  0  0  0  0  0  0  0
  -15.3988  -36.6841  -11.1031 O   0  0  0  0  0  0  0  0  0  0  0  0
  -16.5440  -37.1593  -10.4922 C   0  0  0  0  0  0  0  0  0  0  0  0
  -17.7668  -36.5788  -10.6832 C   0  0  0  0  0  0  0  0  0  0  0  0
  -18.9557  -37.0521  -10.0645 C   0  0  0  0  0  0  0  0  0  0  0  0
  -18.9197  -38.1452   -9.2218 C   0  0  0  0  0  0  0  0  0  0  0  0
  -17.7023  -38.7461   -9.0155 C   0  0  0  0  0  0  0  0  0  0  0  0
  -16.5417  -38.2398   -9.6551 C   0  0  0  0  0  0  0  0  0  0  0  0
  -17.3243  -39.9274   -8.2104 C   0  0  0  0  0  0  0  0  0  0  0  0
  -17.7410  -40.3292   -7.0649 N   0  0  0  0  0  0  0  0  0  0  0  0
  -18.0756  -41.7591   -7.1568 C   0  0  1  0  0  0  0  0  0  0  0  0
  -19.3087  -41.9019   -8.0071 C   0  0  0  0  0  0  0  0  0  0  0  0
  -20.6132  -41.8004   -7.2316 C   0  0  2  0  0  0  0  0  0  0  0  0
  -21.3632  -43.1028   -7.3617 C   0  0  0  0  0  0  0  0  0  0  0  0
  -21.4479  -40.6448   -7.7484 C   0  0  0  0  0  0  0  0  0  0  0  0
  -22.9084  -40.8741   -7.8118 C   0  0  0  0  0  0  0  0  0  0  0  0
  -23.5575  -39.9272   -8.7784 C   0  0  0  0  0  0  0  0  0  0  0  0
  -22.6616  -38.7935   -9.1257 C   0  0  0  0  0  0  0  0  0  0  0  0
  -23.3590  -37.5867   -9.7257 C   0  0  0  0  0  0  0  0  0  0  0  0
  -22.2977  -36.4729   -9.7203 C   0  0  0  0  0  0  0  0  0  0  0  0
  -21.3880  -36.5488  -10.9265 C   0  0  0  0  0  0  0  0  0  0  0  0
  -20.0485  -36.2256  -10.4974 N   0  0  0  0  0  0  0  0  0  0  0  0
  -16.9124  -42.2142   -8.0222 C   0  0  2  0  0  0  0  0  0  0  0  0
  -15.8415  -42.8937   -7.1951 C   0  0  0  0  0  0  0  0  0  0  0  0
  -14.5659  -42.6106   -7.6809 O   0  0  0  0  0  0  0  0  0  0  0  0
  -16.3740  -40.9843   -8.4629 O   0  0  0  0  0  0  0  0  0  0  0  0
  1  2  1  0
  2  3  1  0
  3  4  2  0
  4  5  1  0
  5  6  2  0
  6  7  1  0
  7  8  2  0
  7  9  1  0
  9 10  2  0
 10 11  1  0
 11 12  1  6
 12 13  1  0
 13 14  1  6
 13 15  1  0
 15 16  1  0
 16 17  1  0
 17 18  1  0
 18 19  1  0
 19 20  1  0
 20 21  1  0
 21 22  1  0
 11 23  1  0
 23 24  1  1
 24 25  1  0
 23 26  1  0
  8  3  1  0
 22  5  1  0
 26  9  1  0
M  END
$$$$
