
     RDKit          3D

 26 28  0  0  0  0  0  0  0  0999 V2000
  -11.6309  -36.8234  -11.1376 C   0  0  0  0  0  0  0  0  0  0  0  0
  -12.6843  -36.7822  -12.0806 O   0  0  0  0  0  0  0  0  0  0  0  0
  -13.9838  -36.8089  -11.6100 C   0  0  0  0  0  0  0  0  0  0  0  0
  -15.0210  -36.2467  -12.3004 C   0  0  0  0  0  0  0  0  0  0  0  0
  -16.3635  -36.2636  -11.8337 C   0  0  0  0  0  0  0  0  0  0  0  0
  -16.6797  -36.8632  -10.6310 C   0  0  0  0  0  0  0  0  0  0  0  0
  -15.6541  -37.4361   -9.9198 C   0  0  0  0  0  0  0  0  0  0  0  0
  -14.3292  -37.3962  -10.4251 C   0  0  0  0  0  0  0  0  0  0  0  0
  -15.6510  -38.1676   -8.6348 C   0  0  0  0  0  0  0  0  0  0  0  0
  -16.3171  -37.9691   -7.5557 N   0  0  0  0  0  0  0  0  0  0  0  0
  -16.9083  -39.2449   -7.1220 C   0  0  1  0  0  0  0  0  0  0  0  0
  -17.9927  -39.6182   -8.0961 C   0  0  0  0  0  0  0  0  0  0  0  0
  -19.3586  -39.0420   -7.7558 C   0  0  2  0  0  0  0  0  0  0  0  0
  -20.3202  -40.1767   -7.5043 C   0  0  0  0  0  0  0  0  0  0  0  0
  -19.8546  -38.1557   -8.8817 C   0  0  0  0  0  0  0  0  0  0  0  0
  -21.3023  -38.2307   -9.1794 C   0  0  0  0  0  0  0  0  0  0  0  0
  -21.5879  -37.7503  -10.5722 C   0  0  0  0  0  0  0  0  0  0  0  0
  -20.4420  -36.9940  -11.1407 C   0  0  0  0  0  0  0  0  0  0  0  0
  -20.7818  -36.1141  -12.3294 C   0  0  0  0  0  0  0  0  0  0  0  0
  -19.5363  -35.2361  -12.5409 C   0  0  0  0  0  0  0  0  0  0  0  0
  -18.4781  -35.9390  -13.3620 C   0  0  0  0  0  0  0  0  0  0  0  0
  -17.1877  -35.6046  -12.8091 N   0  0  0  0  0  0  0  0  0  0  0  0
  -15.7345  -40.1602   -7.4276 C   0  0  2  0  0  0  0  0  0  0  0  0
  -14.9656  -40.5105   -6.1710 C   0  0  0  0  0  0  0  0  0  0  0  0
  -13.6669  -40.9219   -6.4662 O   0  0  0  0  0  0  0  0  0  0  0  0
  -14.9002  -39.3216   -8.2005 O   0  0  0  0  0  0  0  0  0  0  0  0
  1  2  1  0
  2  3  1  0
  3  4  2  0
  4  5  1  0
  5  6  2  0
  6  7  1  0
  7  8  2  0
  7  9  1  0
  9 10  2  0
 10 11  1  0
 11 12  1  6
 12 13  1  0
 13 14  1  6
 13 15  1  0
 15 16  1  0
 16 17  1  0
 17 18  1  0
 18 19  1  0
 19 20  1  0
 20 21  1  0
 21 22  1  0
 11 23  1  0
 23 24  1  1
 24 25  1  0
 23 26  1  0
  8  3  1  0
 22  5  1  0
 26  9  1  0
M  END
$$$$
