
     RDKit          3D

 26 28  0  0  0  0  0  0  0  0999 V2000
  -21.0935  -41.8539   -3.2580 C   0  0  0  0  0  0  0  0  0  0  0  0
  -20.4819  -40.6240   -3.5959 O   0  0  0  0  0  0  0  0  0  0  0  0
  -20.4084  -40.2762   -4.9317 C   0  0  0  0  0  0  0  0  0  0  0  0
  -21.5091  -39.8968   -5.6480 C   0  0  0  0  0  0  0  0  0  0  0  0
  -21.4544  -39.5356   -7.0216 C   0  0  0  0  0  0  0  0  0  0  0  0
  -20.2547  -39.5569   -7.7045 C   0  0  0  0  0  0  0  0  0  0  0  0
  -19.1344  -39.9337   -7.0053 C   0  0  0  0  0  0  0  0  0  0  0  0
  -19.2362  -40.2850   -5.6347 C   0  0  0  0  0  0  0  0  0  0  0  0
  -17.7185  -40.0369   -7.4186 C   0  0  0  0  0  0  0  0  0  0  0  0
  -17.1935  -40.4392   -8.5186 N   0  0  0  0  0  0  0  0  0  0  0  0
  -16.1987  -39.4488   -8.9594 C   0  0  1  0  0  0  0  0  0  0  0  0
  -16.9291  -38.2077   -9.3957 C   0  0  0  0  0  0  0  0  0  0  0  0
  -17.3483  -38.2153  -10.8577 C   0  0  2  0  0  0  0  0  0  0  0  0
  -16.6610  -37.0771  -11.5704 C   0  0  0  0  0  0  0  0  0  0  0  0
  -18.8550  -38.0935  -10.9771 C   0  0  0  0  0  0  0  0  0  0  0  0
  -19.3541  -37.2580  -12.0919 C   0  0  0  0  0  0  0  0  0  0  0  0
  -20.7549  -36.7903  -11.8247 C   0  0  0  0  0  0  0  0  0  0  0  0
  -21.3966  -37.5664  -10.7320 C   0  0  0  0  0  0  0  0  0  0  0  0
  -22.9107  -37.4762  -10.6860 C   0  0  0  0  0  0  0  0  0  0  0  0
  -23.3422  -38.5664   -9.6899 C   0  0  0  0  0  0  0  0  0  0  0  0
  -23.2687  -38.0881   -8.2567 C   0  0  0  0  0  0  0  0  0  0  0  0
  -22.7796  -39.1774   -7.4462 N   0  0  0  0  0  0  0  0  0  0  0  0
  -15.5827  -39.1221   -7.6093 C   0  0  2  0  0  0  0  0  0  0  0  0
  -14.2564  -39.8283   -7.4220 C   0  0  0  0  0  0  0  0  0  0  0  0
  -13.9409  -39.9704   -6.0716 O   0  0  0  0  0  0  0  0  0  0  0  0
  -16.4982  -39.7211   -6.7149 O   0  0  0  0  0  0  0  0  0  0  0  0
  1  2  1  0
  2  3  1  0
  3  4  2  0
  4  5  1  0
  5  6  2  0
  6  7  1  0
  7  8  2  0
  7  9  1  0
  9 10  2  0
 10 11  1  0
 11 12  1  1
 12 13  1  0
 13 14  1  6
 13 15  1  0
 15 16  1  0
 16 17  1  0
 17 18  1  0
 18 19  1  0
 19 20  1  0
 20 21  1  0
 21 22  1  0
 11 23  1  0
 23 24  1  6
 24 25  1  0
 23 26  1  0
  8  3  1  0
 22  5  1  0
 26  9  1  0
M  END
$$$$
