
     RDKit          3D

 26 28  0  0  0  0  0  0  0  0999 V2000
  -16.5137  -45.8522   -5.5535 C   0  0  0  0  0  0  0  0  0  0  0  0
  -17.7734  -45.9898   -6.1821 O   0  0  0  0  0  0  0  0  0  0  0  0
  -18.4593  -44.8409   -6.5287 C   0  0  0  0  0  0  0  0  0  0  0  0
  -19.7569  -44.6260   -6.1563 C   0  0  0  0  0  0  0  0  0  0  0  0
  -20.4793  -43.4518   -6.5024 C   0  0  0  0  0  0  0  0  0  0  0  0
  -19.8824  -42.4569   -7.2508 C   0  0  0  0  0  0  0  0  0  0  0  0
  -18.5784  -42.6498   -7.6357 C   0  0  0  0  0  0  0  0  0  0  0  0
  -17.8960  -43.8374   -7.2662 C   0  0  0  0  0  0  0  0  0  0  0  0
  -17.6535  -41.7899   -8.4048 C   0  0  0  0  0  0  0  0  0  0  0  0
  -17.8626  -41.0295   -9.4175 N   0  0  0  0  0  0  0  0  0  0  0  0
  -17.2585  -39.7137   -9.1553 C   0  0  1  0  0  0  0  0  0  0  0  0
  -18.0602  -39.0318   -8.0800 C   0  0  0  0  0  0  0  0  0  0  0  0
  -19.2362  -38.2206   -8.6019 C   0  0  2  0  0  0  0  0  0  0  0  0
  -19.0338  -36.7717   -8.2340 C   0  0  0  0  0  0  0  0  0  0  0  0
  -20.5377  -38.7450   -8.0273 C   0  0  0  0  0  0  0  0  0  0  0  0
  -21.5503  -37.7257   -7.6731 C   0  0  0  0  0  0  0  0  0  0  0  0
  -22.5321  -38.2699   -6.6770 C   0  0  0  0  0  0  0  0  0  0  0  0
  -22.4673  -39.7522   -6.5920 C   0  0  0  0  0  0  0  0  0  0  0  0
  -23.6821  -40.4115   -5.9657 C   0  0  0  0  0  0  0  0  0  0  0  0
  -23.5113  -41.9127   -6.2556 C   0  0  0  0  0  0  0  0  0  0  0  0
  -22.6182  -42.5898   -5.2397 C   0  0  0  0  0  0  0  0  0  0  0  0
  -21.7963  -43.5500   -5.9363 N   0  0  0  0  0  0  0  0  0  0  0  0
  -15.9724  -40.1771   -8.4917 C   0  0  2  0  0  0  0  0  0  0  0  0
  -14.8025  -40.1147   -9.4510 C   0  0  0  0  0  0  0  0  0  0  0  0
  -13.9045  -41.1573   -9.2281 O   0  0  0  0  0  0  0  0  0  0  0  0
  -16.2388  -41.5446   -8.2555 O   0  0  0  0  0  0  0  0  0  0  0  0
  1  2  1  0
  2  3  1  0
  3  4  2  0
  4  5  1  0
  5  6  2  0
  6  7  1  0
  7  8  2  0
  7  9  1  0
  9 10  2  0
 10 11  1  0
 11 12  1  1
 12 13  1  0
 13 14  1  1
 13 15  1  0
 15 16  1  0
 16 17  1  0
 17 18  1  0
 18 19  1  0
 19 20  1  0
 20 21  1  0
 21 22  1  0
 11 23  1  0
 23 24  1  6
 24 25  1  0
 23 26  1  0
  8  3  1  0
 22  5  1  0
 26  9  1  0
M  END
$$$$
