
     RDKit          3D

 26 28  0  0  0  0  0  0  0  0999 V2000
  -21.3330  -42.9267   -3.3464 C   0  0  0  0  0  0  0  0  0  0  0  0
  -20.6738  -41.6912   -3.5461 O   0  0  0  0  0  0  0  0  0  0  0  0
  -20.6471  -41.1642   -4.8236 C   0  0  0  0  0  0  0  0  0  0  0  0
  -21.7865  -40.8071   -5.4890 C   0  0  0  0  0  0  0  0  0  0  0  0
  -21.7802  -40.2636   -6.8024 C   0  0  0  0  0  0  0  0  0  0  0  0
  -20.5903  -40.0725   -7.4759 C   0  0  0  0  0  0  0  0  0  0  0  0
  -19.4318  -40.4228   -6.8270 C   0  0  0  0  0  0  0  0  0  0  0  0
  -19.4860  -40.9608   -5.5156 C   0  0  0  0  0  0  0  0  0  0  0  0
  -18.0162  -40.3260   -7.2430 C   0  0  0  0  0  0  0  0  0  0  0  0
  -17.4624  -40.5239   -8.3839 N   0  0  0  0  0  0  0  0  0  0  0  0
  -16.5767  -39.3880   -8.6846 C   0  0  1  0  0  0  0  0  0  0  0  0
  -17.4328  -38.1808   -8.9563 C   0  0  0  0  0  0  0  0  0  0  0  0
  -17.8613  -38.0373  -10.4086 C   0  0  2  0  0  0  0  0  0  0  0  0
  -17.2989  -36.7510  -10.9607 C   0  0  0  0  0  0  0  0  0  0  0  0
  -19.3736  -38.0544  -10.5186 C   0  0  0  0  0  0  0  0  0  0  0  0
  -19.9641  -37.1338  -11.5154 C   0  0  0  0  0  0  0  0  0  0  0  0
  -21.4027  -36.8503  -11.1959 C   0  0  0  0  0  0  0  0  0  0  0  0
  -21.9533  -37.8253  -10.2189 C   0  0  0  0  0  0  0  0  0  0  0  0
  -23.4683  -37.8961  -10.1691 C   0  0  0  0  0  0  0  0  0  0  0  0
  -23.7788  -39.1466   -9.3284 C   0  0  0  0  0  0  0  0  0  0  0  0
  -23.7421  -38.8572   -7.8442 C   0  0  0  0  0  0  0  0  0  0  0  0
  -23.1384  -39.9888   -7.1826 N   0  0  0  0  0  0  0  0  0  0  0  0
  -15.9858  -39.1819   -7.2999 C   0  0  2  0  0  0  0  0  0  0  0  0
  -14.5932  -39.7684   -7.2010 C   0  0  0  0  0  0  0  0  0  0  0  0
  -14.5415  -40.8044   -6.2698 O   0  0  0  0  0  0  0  0  0  0  0  0
  -16.8283  -39.9839   -6.4975 O   0  0  0  0  0  0  0  0  0  0  0  0
  1  2  1  0
  2  3  1  0
  3  4  2  0
  4  5  1  0
  5  6  2  0
  6  7  1  0
  7  8  2  0
  7  9  1  0
  9 10  2  0
 10 11  1  0
 11 12  1  1
 12 13  1  0
 13 14  1  1
 13 15  1  0
 15 16  1  0
 16 17  1  0
 17 18  1  0
 18 19  1  0
 19 20  1  0
 20 21  1  0
 21 22  1  0
 11 23  1  0
 23 24  1  6
 24 25  1  0
 23 26  1  0
  8  3  1  0
 22  5  1  0
 26  9  1  0
M  END
$$$$
