
     RDKit          3D

 26 28  0  0  0  0  0  0  0  0999 V2000
  -12.9315  -39.4084   -8.7717 C   0  0  0  0  0  0  0  0  0  0  0  0
  -13.8134  -40.3450   -8.1837 O   0  0  0  0  0  0  0  0  0  0  0  0
  -15.1585  -40.0311   -8.1297 C   0  0  0  0  0  0  0  0  0  0  0  0
  -15.6780  -38.9373   -8.7640 C   0  0  0  0  0  0  0  0  0  0  0  0
  -17.0575  -38.5975   -8.7207 C   0  0  0  0  0  0  0  0  0  0  0  0
  -17.9499  -39.3795   -8.0149 C   0  0  0  0  0  0  0  0  0  0  0  0
  -17.4514  -40.4848   -7.3702 C   0  0  0  0  0  0  0  0  0  0  0  0
  -16.0670  -40.7859   -7.4418 C   0  0  0  0  0  0  0  0  0  0  0  0
  -18.1234  -41.5268   -6.5646 C   0  0  0  0  0  0  0  0  0  0  0  0
  -19.0869  -41.4426   -5.7208 N   0  0  0  0  0  0  0  0  0  0  0  0
  -20.0883  -42.4723   -6.0402 C   0  0  1  0  0  0  0  0  0  0  0  0
  -20.7649  -42.0896   -7.3285 C   0  0  0  0  0  0  0  0  0  0  0  0
  -21.9734  -41.1833   -7.1502 C   0  0  2  0  0  0  0  0  0  0  0  0
  -23.1997  -41.8948   -7.6656 C   0  0  0  0  0  0  0  0  0  0  0  0
  -21.7644  -39.8720   -7.8824 C   0  0  0  0  0  0  0  0  0  0  0  0
  -22.9548  -39.3048   -8.5540 C   0  0  0  0  0  0  0  0  0  0  0  0
  -22.5527  -38.3430   -9.6337 C   0  0  0  0  0  0  0  0  0  0  0  0
  -21.1306  -37.9317   -9.5045 C   0  0  0  0  0  0  0  0  0  0  0  0
  -20.7598  -36.6646  -10.2525 C   0  0  0  0  0  0  0  0  0  0  0  0
  -19.3583  -36.2958   -9.7361 C   0  0  0  0  0  0  0  0  0  0  0  0
  -18.2675  -37.0477  -10.4661 C   0  0  0  0  0  0  0  0  0  0  0  0
  -17.2535  -37.4096   -9.5050 N   0  0  0  0  0  0  0  0  0  0  0  0
  -19.1459  -43.6140   -6.3826 C   0  0  2  0  0  0  0  0  0  0  0  0
  -19.0338  -44.5996   -5.2385 C   0  0  0  0  0  0  0  0  0  0  0  0
  -17.9210  -45.4262   -5.3851 O   0  0  0  0  0  0  0  0  0  0  0  0
  -17.9018  -42.9507   -6.4780 O   0  0  0  0  0  0  0  0  0  0  0  0
  1  2  1  0
  2  3  1  0
  3  4  2  0
  4  5  1  0
  5  6  2  0
  6  7  1  0
  7  8  2  0
  7  9  1  0
  9 10  2  0
 10 11  1  0
 11 12  1  6
 12 13  1  0
 13 14  1  6
 13 15  1  0
 15 16  1  0
 16 17  1  0
 17 18  1  0
 18 19  1  0
 19 20  1  0
 20 21  1  0
 21 22  1  0
 11 23  1  0
 23 24  1  1
 24 25  1  0
 23 26  1  0
  8  3  1  0
 22  5  1  0
 26  9  1  0
M  END
$$$$
