
     RDKit          3D

 26 28  0  0  0  0  0  0  0  0999 V2000
  -14.6463  -35.6570  -10.4210 C   0  0  0  0  0  0  0  0  0  0  0  0
  -15.0584  -36.9599  -10.7862 O   0  0  0  0  0  0  0  0  0  0  0  0
  -16.1381  -37.5133  -10.1237 C   0  0  0  0  0  0  0  0  0  0  0  0
  -17.2705  -36.7981   -9.8506 C   0  0  0  0  0  0  0  0  0  0  0  0
  -18.3909  -37.3486   -9.1709 C   0  0  0  0  0  0  0  0  0  0  0  0
  -18.3771  -38.6623   -8.7468 C   0  0  0  0  0  0  0  0  0  0  0  0
  -17.2502  -39.4014   -9.0110 C   0  0  0  0  0  0  0  0  0  0  0  0
  -16.1559  -38.8105   -9.6935 C   0  0  0  0  0  0  0  0  0  0  0  0
  -16.9241  -40.8148   -8.7238 C   0  0  0  0  0  0  0  0  0  0  0  0
  -17.1902  -41.5456   -7.7028 N   0  0  0  0  0  0  0  0  0  0  0  0
  -17.7529  -42.8232   -8.1677 C   0  0  1  0  0  0  0  0  0  0  0  0
  -19.1233  -42.5588   -8.7301 C   0  0  0  0  0  0  0  0  0  0  0  0
  -20.2395  -42.6148   -7.6985 C   0  0  2  0  0  0  0  0  0  0  0  0
  -21.1931  -43.7238   -8.0681 C   0  0  0  0  0  0  0  0  0  0  0  0
  -20.9629  -41.2840   -7.6285 C   0  0  0  0  0  0  0  0  0  0  0  0
  -22.4295  -41.3495   -7.4423 C   0  0  0  0  0  0  0  0  0  0  0  0
  -23.0838  -40.0766   -7.8939 C   0  0  0  0  0  0  0  0  0  0  0  0
  -22.0984  -38.9753   -8.0502 C   0  0  0  0  0  0  0  0  0  0  0  0
  -22.6950  -37.5802   -8.0706 C   0  0  0  0  0  0  0  0  0  0  0  0
  -21.4899  -36.6323   -7.9436 C   0  0  0  0  0  0  0  0  0  0  0  0
  -20.8291  -36.3709   -9.2789 C   0  0  0  0  0  0  0  0  0  0  0  0
  -19.4015  -36.3319   -9.0715 N   0  0  0  0  0  0  0  0  0  0  0  0
  -16.8446  -43.0551   -9.3636 C   0  0  2  0  0  0  0  0  0  0  0  0
  -15.7632  -44.0669   -9.0478 C   0  0  0  0  0  0  0  0  0  0  0  0
  -14.6047  -43.8210   -9.7830 O   0  0  0  0  0  0  0  0  0  0  0  0
  -16.2082  -41.8006   -9.4980 O   0  0  0  0  0  0  0  0  0  0  0  0
  1  2  1  0
  2  3  1  0
  3  4  2  0
  4  5  1  0
  5  6  2  0
  6  7  1  0
  7  8  2  0
  7  9  1  0
  9 10  2  0
 10 11  1  0
 11 12  1  6
 12 13  1  0
 13 14  1  6
 13 15  1  0
 15 16  1  0
 16 17  1  0
 17 18  1  0
 18 19  1  0
 19 20  1  0
 20 21  1  0
 21 22  1  0
 11 23  1  0
 23 24  1  1
 24 25  1  0
 23 26  1  0
  8  3  1  0
 22  5  1  0
 26  9  1  0
M  END
$$$$
