
     RDKit          3D

 26 28  0  0  0  0  0  0  0  0999 V2000
  -18.8434  -38.1484  -15.0913 C   0  0  0  0  0  0  0  0  0  0  0  0
  -18.9503  -39.3995  -14.4399 O   0  0  0  0  0  0  0  0  0  0  0  0
  -19.0756  -39.4105  -13.0633 C   0  0  0  0  0  0  0  0  0  0  0  0
  -19.3283  -38.2753  -12.3450 C   0  0  0  0  0  0  0  0  0  0  0  0
  -19.4606  -38.2658  -10.9298 C   0  0  0  0  0  0  0  0  0  0  0  0
  -19.3333  -39.4347  -10.2063 C   0  0  0  0  0  0  0  0  0  0  0  0
  -19.0805  -40.5887  -10.9064 C   0  0  0  0  0  0  0  0  0  0  0  0
  -18.9572  -40.5509  -12.3191 C   0  0  0  0  0  0  0  0  0  0  0  0
  -18.9172  -41.9863  -10.4522 C   0  0  0  0  0  0  0  0  0  0  0  0
  -18.3430  -42.4673   -9.4100 N   0  0  0  0  0  0  0  0  0  0  0  0
  -19.2524  -43.4305   -8.7693 C   0  0  1  0  0  0  0  0  0  0  0  0
  -20.4025  -42.6674   -8.1701 C   0  0  0  0  0  0  0  0  0  0  0  0
  -20.1546  -42.1848   -6.7491 C   0  0  2  0  0  0  0  0  0  0  0  0
  -21.1641  -42.8271   -5.8304 C   0  0  0  0  0  0  0  0  0  0  0  0
  -20.2488  -40.6730   -6.6794 C   0  0  0  0  0  0  0  0  0  0  0  0
  -20.8890  -40.1161   -5.4670 C   0  0  0  0  0  0  0  0  0  0  0  0
  -21.3880  -38.7230   -5.7171 C   0  0  0  0  0  0  0  0  0  0  0  0
  -20.7979  -38.1386   -6.9495 C   0  0  0  0  0  0  0  0  0  0  0  0
  -20.8880  -36.6271   -7.0482 C   0  0  0  0  0  0  0  0  0  0  0  0
  -19.9732  -36.2521   -8.2270 C   0  0  0  0  0  0  0  0  0  0  0  0
  -20.6793  -36.3826   -9.5583 C   0  0  0  0  0  0  0  0  0  0  0  0
  -19.7390  -36.9192  -10.5126 N   0  0  0  0  0  0  0  0  0  0  0  0
  -19.7978  -44.1010  -10.0191 C   0  0  2  0  0  0  0  0  0  0  0  0
  -19.1373  -45.4423  -10.2592 C   0  0  0  0  0  0  0  0  0  0  0  0
  -19.0499  -45.7311  -11.6201 O   0  0  0  0  0  0  0  0  0  0  0  0
  -19.3489  -43.2324  -11.0394 O   0  0  0  0  0  0  0  0  0  0  0  0
  1  2  1  0
  2  3  1  0
  3  4  2  0
  4  5  1  0
  5  6  2  0
  6  7  1  0
  7  8  2  0
  7  9  1  0
  9 10  2  0
 10 11  1  0
 11 12  1  6
 12 13  1  0
 13 14  1  1
 13 15  1  0
 15 16  1  0
 16 17  1  0
 17 18  1  0
 18 19  1  0
 19 20  1  0
 20 21  1  0
 21 22  1  0
 11 23  1  0
 23 24  1  6
 24 25  1  0
 23 26  1  0
  8  3  1  0
 22  5  1  0
 26  9  1  0
M  END
$$$$
