
     RDKit          3D

 26 28  0  0  0  0  0  0  0  0999 V2000
  -20.8710  -41.9837   -2.1901 C   0  0  0  0  0  0  0  0  0  0  0  0
  -19.7819  -41.8867   -3.0874 O   0  0  0  0  0  0  0  0  0  0  0  0
  -20.0133  -41.3498   -4.3399 C   0  0  0  0  0  0  0  0  0  0  0  0
  -21.2017  -40.7623   -4.6732 C   0  0  0  0  0  0  0  0  0  0  0  0
  -21.4592  -40.2046   -5.9550 C   0  0  0  0  0  0  0  0  0  0  0  0
  -20.4929  -40.2378   -6.9405 C   0  0  0  0  0  0  0  0  0  0  0  0
  -19.2898  -40.8220   -6.6286 C   0  0  0  0  0  0  0  0  0  0  0  0
  -19.0769  -41.3649   -5.3355 C   0  0  0  0  0  0  0  0  0  0  0  0
  -18.0574  -40.9973   -7.4267 C   0  0  0  0  0  0  0  0  0  0  0  0
  -17.8959  -41.2774   -8.6688 N   0  0  0  0  0  0  0  0  0  0  0  0
  -16.9273  -40.3320   -9.2461 C   0  0  1  0  0  0  0  0  0  0  0  0
  -17.5737  -38.9748   -9.3118 C   0  0  0  0  0  0  0  0  0  0  0  0
  -18.3565  -38.7209  -10.5909 C   0  0  2  0  0  0  0  0  0  0  0  0
  -17.7331  -37.5596  -11.3246 C   0  0  0  0  0  0  0  0  0  0  0  0
  -19.8120  -38.4381  -10.2734 C   0  0  0  0  0  0  0  0  0  0  0  0
  -20.4682  -37.3996  -11.0986 C   0  0  0  0  0  0  0  0  0  0  0  0
  -21.6755  -36.8451  -10.4006 C   0  0  0  0  0  0  0  0  0  0  0  0
  -22.1080  -37.7121   -9.2738 C   0  0  0  0  0  0  0  0  0  0  0  0
  -23.5316  -37.4846   -8.8004 C   0  0  0  0  0  0  0  0  0  0  0  0
  -23.8302  -38.6662   -7.8614 C   0  0  0  0  0  0  0  0  0  0  0  0
  -23.3225  -38.4193   -6.4580 C   0  0  0  0  0  0  0  0  0  0  0  0
  -22.7891  -39.6606   -5.9506 N   0  0  0  0  0  0  0  0  0  0  0  0
  -15.9428  -40.2739   -8.0900 C   0  0  2  0  0  0  0  0  0  0  0  0
  -14.7202  -41.1246   -8.3625 C   0  0  0  0  0  0  0  0  0  0  0  0
  -14.2432  -41.7200   -7.1958 O   0  0  0  0  0  0  0  0  0  0  0  0
  -16.6651  -40.9103   -7.0555 O   0  0  0  0  0  0  0  0  0  0  0  0
  1  2  1  0
  2  3  1  0
  3  4  2  0
  4  5  1  0
  5  6  2  0
  6  7  1  0
  7  8  2  0
  7  9  1  0
  9 10  2  0
 10 11  1  0
 11 12  1  1
 12 13  1  0
 13 14  1  1
 13 15  1  0
 15 16  1  0
 16 17  1  0
 17 18  1  0
 18 19  1  0
 19 20  1  0
 20 21  1  0
 21 22  1  0
 11 23  1  0
 23 24  1  6
 24 25  1  0
 23 26  1  0
  8  3  1  0
 22  5  1  0
 26  9  1  0
M  END
$$$$
