
     RDKit          3D

 26 28  0  0  0  0  0  0  0  0999 V2000
  -21.1301  -43.4581   -2.4151 C   0  0  0  0  0  0  0  0  0  0  0  0
  -19.9805  -43.0793   -3.1471 O   0  0  0  0  0  0  0  0  0  0  0  0
  -20.1501  -42.2794   -4.2616 C   0  0  0  0  0  0  0  0  0  0  0  0
  -21.3410  -41.6734   -4.5499 C   0  0  0  0  0  0  0  0  0  0  0  0
  -21.5355  -40.8476   -5.6902 C   0  0  0  0  0  0  0  0  0  0  0  0
  -20.5011  -40.6213   -6.5762 C   0  0  0  0  0  0  0  0  0  0  0  0
  -19.2943  -41.2187   -6.3068 C   0  0  0  0  0  0  0  0  0  0  0  0
  -19.1457  -42.0344   -5.1557 C   0  0  0  0  0  0  0  0  0  0  0  0
  -18.0008  -41.1642   -7.0210 C   0  0  0  0  0  0  0  0  0  0  0  0
  -17.7368  -41.1479   -8.2770 N   0  0  0  0  0  0  0  0  0  0  0  0
  -16.7805  -40.0625   -8.5465 C   0  0  1  0  0  0  0  0  0  0  0  0
  -17.4909  -38.7496   -8.3580 C   0  0  0  0  0  0  0  0  0  0  0  0
  -18.1931  -38.2383   -9.6067 C   0  0  2  0  0  0  0  0  0  0  0  0
  -17.5808  -36.9192  -10.0077 C   0  0  0  0  0  0  0  0  0  0  0  0
  -19.6803  -38.0865   -9.3531 C   0  0  0  0  0  0  0  0  0  0  0  0
  -20.3297  -36.9109   -9.9745 C   0  0  0  0  0  0  0  0  0  0  0  0
  -21.6111  -36.5727   -9.2702 C   0  0  0  0  0  0  0  0  0  0  0  0
  -22.0765  -37.6884   -8.4058 C   0  0  0  0  0  0  0  0  0  0  0  0
  -23.5402  -37.6248   -8.0107 C   0  0  0  0  0  0  0  0  0  0  0  0
  -23.8424  -38.9990   -7.3885 C   0  0  0  0  0  0  0  0  0  0  0  0
  -23.4495  -39.0610   -5.9291 C   0  0  0  0  0  0  0  0  0  0  0  0
  -22.8892  -40.3658   -5.6717 N   0  0  0  0  0  0  0  0  0  0  0  0
  -15.8852  -40.2351   -7.3309 C   0  0  2  0  0  0  0  0  0  0  0  0
  -14.6033  -40.9579   -7.6873 C   0  0  0  0  0  0  0  0  0  0  0  0
  -14.1997  -41.8143   -6.6642 O   0  0  0  0  0  0  0  0  0  0  0  0
  -16.6448  -41.1155   -6.5280 O   0  0  0  0  0  0  0  0  0  0  0  0
  1  2  1  0
  2  3  1  0
  3  4  2  0
  4  5  1  0
  5  6  2  0
  6  7  1  0
  7  8  2  0
  7  9  1  0
  9 10  2  0
 10 11  1  0
 11 12  1  1
 12 13  1  0
 13 14  1  1
 13 15  1  0
 15 16  1  0
 16 17  1  0
 17 18  1  0
 18 19  1  0
 19 20  1  0
 20 21  1  0
 21 22  1  0
 11 23  1  0
 23 24  1  6
 24 25  1  0
 23 26  1  0
  8  3  1  0
 22  5  1  0
 26  9  1  0
M  END
$$$$
