
     RDKit          3D

 26 28  0  0  0  0  0  0  0  0999 V2000
  -18.6289  -47.1325   -5.4571 C   0  0  0  0  0  0  0  0  0  0  0  0
  -17.8582  -46.1845   -6.1701 O   0  0  0  0  0  0  0  0  0  0  0  0
  -18.4775  -45.0223   -6.5901 C   0  0  0  0  0  0  0  0  0  0  0  0
  -19.8065  -44.7855   -6.3750 C   0  0  0  0  0  0  0  0  0  0  0  0
  -20.4616  -43.5974   -6.7989 C   0  0  0  0  0  0  0  0  0  0  0  0
  -19.7619  -42.6108   -7.4645 C   0  0  0  0  0  0  0  0  0  0  0  0
  -18.4246  -42.8257   -7.6911 C   0  0  0  0  0  0  0  0  0  0  0  0
  -17.8123  -44.0265   -7.2490 C   0  0  0  0  0  0  0  0  0  0  0  0
  -17.3993  -41.9797   -8.3387 C   0  0  0  0  0  0  0  0  0  0  0  0
  -17.4718  -41.2122   -9.3649 N   0  0  0  0  0  0  0  0  0  0  0  0
  -16.8809  -39.9083   -9.0247 C   0  0  1  0  0  0  0  0  0  0  0  0
  -17.7941  -39.2160   -8.0496 C   0  0  0  0  0  0  0  0  0  0  0  0
  -18.8845  -38.3821   -8.7045 C   0  0  2  0  0  0  0  0  0  0  0  0
  -18.7027  -36.9383   -8.3068 C   0  0  0  0  0  0  0  0  0  0  0  0
  -20.2546  -38.8851   -8.2933 C   0  0  0  0  0  0  0  0  0  0  0  0
  -21.2846  -37.8490   -8.0577 C   0  0  0  0  0  0  0  0  0  0  0  0
  -22.3882  -38.3791   -7.1898 C   0  0  0  0  0  0  0  0  0  0  0  0
  -22.3599  -39.8625   -7.1059 C   0  0  0  0  0  0  0  0  0  0  0  0
  -23.6524  -40.5021   -6.6337 C   0  0  0  0  0  0  0  0  0  0  0  0
  -23.4741  -42.0052   -6.9094 C   0  0  0  0  0  0  0  0  0  0  0  0
  -22.7215  -42.7016   -5.7974 C   0  0  0  0  0  0  0  0  0  0  0  0
  -21.8386  -43.6740   -6.3956 N   0  0  0  0  0  0  0  0  0  0  0  0
  -15.6921  -40.3970   -8.2140 C   0  0  2  0  0  0  0  0  0  0  0  0
  -14.4145  -40.3522   -9.0254 C   0  0  0  0  0  0  0  0  0  0  0  0
  -14.6101  -40.8518  -10.3121 O   0  0  0  0  0  0  0  0  0  0  0  0
  -16.0087  -41.7603   -8.0191 O   0  0  0  0  0  0  0  0  0  0  0  0
  1  2  1  0
  2  3  1  0
  3  4  2  0
  4  5  1  0
  5  6  2  0
  6  7  1  0
  7  8  2  0
  7  9  1  0
  9 10  2  0
 10 11  1  0
 11 12  1  1
 12 13  1  0
 13 14  1  1
 13 15  1  0
 15 16  1  0
 16 17  1  0
 17 18  1  0
 18 19  1  0
 19 20  1  0
 20 21  1  0
 21 22  1  0
 11 23  1  0
 23 24  1  6
 24 25  1  0
 23 26  1  0
  8  3  1  0
 22  5  1  0
 26  9  1  0
M  END
$$$$
