
     RDKit          3D

 26 28  0  0  0  0  0  0  0  0999 V2000
  -18.6253  -46.9284   -5.5579 C   0  0  0  0  0  0  0  0  0  0  0  0
  -17.8452  -45.8441   -6.0233 O   0  0  0  0  0  0  0  0  0  0  0  0
  -18.5005  -44.7090   -6.4624 C   0  0  0  0  0  0  0  0  0  0  0  0
  -19.8122  -44.4635   -6.1657 C   0  0  0  0  0  0  0  0  0  0  0  0
  -20.5036  -43.3028   -6.6075 C   0  0  0  0  0  0  0  0  0  0  0  0
  -19.8598  -42.3538   -7.3762 C   0  0  0  0  0  0  0  0  0  0  0  0
  -18.5409  -42.5780   -7.6862 C   0  0  0  0  0  0  0  0  0  0  0  0
  -17.8908  -43.7505   -7.2225 C   0  0  0  0  0  0  0  0  0  0  0  0
  -17.5702  -41.7676   -8.4525 C   0  0  0  0  0  0  0  0  0  0  0  0
  -17.7212  -41.0596   -9.5124 N   0  0  0  0  0  0  0  0  0  0  0  0
  -17.1157  -39.7372   -9.2895 C   0  0  1  0  0  0  0  0  0  0  0  0
  -17.9610  -38.9929   -8.2917 C   0  0  0  0  0  0  0  0  0  0  0  0
  -19.1010  -38.1999   -8.9122 C   0  0  2  0  0  0  0  0  0  0  0  0
  -18.9004  -36.7355   -8.6105 C   0  0  0  0  0  0  0  0  0  0  0  0
  -20.4347  -38.6821   -8.3756 C   0  0  0  0  0  0  0  0  0  0  0  0
  -21.4517  -37.6368   -8.1250 C   0  0  0  0  0  0  0  0  0  0  0  0
  -22.4868  -38.1195   -7.1514 C   0  0  0  0  0  0  0  0  0  0  0  0
  -22.4430  -39.5957   -6.9865 C   0  0  0  0  0  0  0  0  0  0  0  0
  -23.6941  -40.2106   -6.3871 C   0  0  0  0  0  0  0  0  0  0  0  0
  -23.5264  -41.7265   -6.5899 C   0  0  0  0  0  0  0  0  0  0  0  0
  -22.6914  -42.3571   -5.4977 C   0  0  0  0  0  0  0  0  0  0  0  0
  -21.8476  -43.3597   -6.1023 N   0  0  0  0  0  0  0  0  0  0  0  0
  -15.8688  -40.1764   -8.5404 C   0  0  2  0  0  0  0  0  0  0  0  0
  -14.6530  -40.1746   -9.4431 C   0  0  0  0  0  0  0  0  0  0  0  0
  -13.8753  -41.3157   -9.2529 O   0  0  0  0  0  0  0  0  0  0  0  0
  -16.1617  -41.5272   -8.2468 O   0  0  0  0  0  0  0  0  0  0  0  0
  1  2  1  0
  2  3  1  0
  3  4  2  0
  4  5  1  0
  5  6  2  0
  6  7  1  0
  7  8  2  0
  7  9  1  0
  9 10  2  0
 10 11  1  0
 11 12  1  1
 12 13  1  0
 13 14  1  1
 13 15  1  0
 15 16  1  0
 16 17  1  0
 17 18  1  0
 18 19  1  0
 19 20  1  0
 20 21  1  0
 21 22  1  0
 11 23  1  0
 23 24  1  6
 24 25  1  0
 23 26  1  0
  8  3  1  0
 22  5  1  0
 26  9  1  0
M  END
$$$$
