
     RDKit          3D

 26 28  0  0  0  0  0  0  0  0999 V2000
  -17.8725  -46.6989   -5.5963 C   0  0  0  0  0  0  0  0  0  0  0  0
  -18.8355  -46.5715   -6.6245 O   0  0  0  0  0  0  0  0  0  0  0  0
  -19.3374  -45.3127   -6.8970 C   0  0  0  0  0  0  0  0  0  0  0  0
  -20.5903  -44.9276   -6.5088 C   0  0  0  0  0  0  0  0  0  0  0  0
  -21.1244  -43.6384   -6.7791 C   0  0  0  0  0  0  0  0  0  0  0  0
  -20.3787  -42.7007   -7.4651 C   0  0  0  0  0  0  0  0  0  0  0  0
  -19.1161  -43.0643   -7.8644 C   0  0  0  0  0  0  0  0  0  0  0  0
  -18.6237  -44.3621   -7.5716 C   0  0  0  0  0  0  0  0  0  0  0  0
  -18.0665  -42.3080   -8.5803 C   0  0  0  0  0  0  0  0  0  0  0  0
  -18.1510  -41.4632   -9.5430 N   0  0  0  0  0  0  0  0  0  0  0  0
  -17.3568  -40.2728   -9.2004 C   0  0  1  0  0  0  0  0  0  0  0  0
  -18.0539  -39.5457   -8.0826 C   0  0  0  0  0  0  0  0  0  0  0  0
  -19.0901  -38.5351   -8.5500 C   0  0  2  0  0  0  0  0  0  0  0  0
  -18.6737  -37.1592   -8.0926 C   0  0  0  0  0  0  0  0  0  0  0  0
  -20.4600  -38.8913   -8.0062 C   0  0  0  0  0  0  0  0  0  0  0  0
  -21.3094  -37.7546   -7.5866 C   0  0  0  0  0  0  0  0  0  0  0  0
  -22.3692  -38.2049   -6.6242 C   0  0  0  0  0  0  0  0  0  0  0  0
  -22.5298  -39.6823   -6.6323 C   0  0  0  0  0  0  0  0  0  0  0  0
  -23.8347  -40.1879   -6.0456 C   0  0  0  0  0  0  0  0  0  0  0  0
  -23.8907  -41.6768   -6.4293 C   0  0  0  0  0  0  0  0  0  0  0  0
  -23.1175  -42.5430   -5.4598 C   0  0  0  0  0  0  0  0  0  0  0  0
  -22.4452  -43.5713   -6.2171 N   0  0  0  0  0  0  0  0  0  0  0  0
  -16.1603  -40.9658   -8.5701 C   0  0  2  0  0  0  0  0  0  0  0  0
  -14.9876  -41.0215   -9.5263 C   0  0  0  0  0  0  0  0  0  0  0  0
  -15.0668  -42.1316  -10.3658 O   0  0  0  0  0  0  0  0  0  0  0  0
  -16.6320  -42.2893   -8.4192 O   0  0  0  0  0  0  0  0  0  0  0  0
  1  2  1  0
  2  3  1  0
  3  4  2  0
  4  5  1  0
  5  6  2  0
  6  7  1  0
  7  8  2  0
  7  9  1  0
  9 10  2  0
 10 11  1  0
 11 12  1  1
 12 13  1  0
 13 14  1  1
 13 15  1  0
 15 16  1  0
 16 17  1  0
 17 18  1  0
 18 19  1  0
 19 20  1  0
 20 21  1  0
 21 22  1  0
 11 23  1  0
 23 24  1  6
 24 25  1  0
 23 26  1  0
  8  3  1  0
 22  5  1  0
 26  9  1  0
M  END
$$$$
