
     RDKit          3D

 41 44  0  0  0  0  0  0  0  0999 V2000
  -16.9342  -35.4424  -12.8787 C   0  0  0  0  0  0  0  0  0  0  0  0
  -15.6891  -35.1454  -12.0603 C   0  0  0  0  0  0  0  0  0  0  0  0
  -15.4116  -33.6599  -12.2228 C   0  0  0  0  0  0  0  0  0  0  0  0
  -16.0159  -35.4832  -10.6233 C   0  0  0  0  0  0  0  0  0  0  0  0
  -14.5732  -35.9844  -12.6084 C   0  0  0  0  0  0  0  0  0  0  0  0
  -14.5210  -37.3350  -12.0220 C   0  0  0  0  0  0  0  0  0  0  0  0
  -13.4599  -37.7948  -11.2203 C   0  0  0  0  0  0  0  0  0  0  0  0
  -13.7291  -39.0782  -10.8465 C   0  0  0  0  0  0  0  0  0  0  0  0
  -14.9087  -39.3745  -11.4056 N   0  0  0  0  0  0  0  0  0  0  0  0
  -15.3442  -38.3356  -12.0849 O   0  0  0  0  0  0  0  0  0  0  0  0
  -12.9448  -40.0429   -9.9886 C   0  0  0  0  0  0  0  0  0  0  0  0
  -12.9443  -41.3847  -10.7233 C   0  0  0  0  0  0  0  0  0  0  0  0
  -11.5332  -39.5488   -9.9288 C   0  0  0  0  0  0  0  0  0  0  0  0
  -13.6447  -40.1355   -8.7585 N   0  0  0  0  0  0  0  0  0  0  0  0
  -14.8628  -40.8405   -8.6841 C   0  0  0  0  0  0  0  0  0  0  0  0
  -15.6190  -40.5608   -7.4488 C   0  0  1  0  0  0  0  0  0  0  0  0
  -15.0528  -39.5846   -6.6382 O   0  0  0  0  0  0  0  0  0  0  0  0
  -17.1006  -40.2288   -7.7196 C   0  0  2  0  0  0  0  0  0  0  0  0
  -17.9643  -41.4148   -7.8821 C   0  0  0  0  0  0  0  0  0  0  0  0
  -18.9151  -41.7066   -6.7541 C   0  0  0  0  0  0  0  0  0  0  0  0
  -19.9118  -40.9416   -6.2082 C   0  0  0  0  0  0  0  0  0  0  0  0
  -20.6736  -41.4845   -5.1817 C   0  0  0  0  0  0  0  0  0  0  0  0
  -20.4162  -42.7894   -4.7184 C   0  0  0  0  0  0  0  0  0  0  0  0
  -19.4258  -43.5776   -5.2438 C   0  0  0  0  0  0  0  0  0  0  0  0
  -18.6984  -43.0159   -6.2511 C   0  0  0  0  0  0  0  0  0  0  0  0
  -21.7233  -40.9123   -4.4866 O   0  0  0  0  0  0  0  0  0  0  0  0
  -22.9764  -40.3966   -4.8122 C   0  0  0  0  0  0  0  0  0  0  0  0
  -23.3197  -40.4452   -6.2785 C   0  0  0  0  0  0  0  0  0  0  0  0
  -24.1739  -39.2635   -6.6072 C   0  0  0  0  0  0  0  0  0  0  0  0
  -23.3039  -38.1239   -7.0350 C   0  0  0  0  0  0  0  0  0  0  0  0
  -22.9225  -38.1282   -8.3789 O   0  0  0  0  0  0  0  0  0  0  0  0
  -21.8594  -38.6818   -9.0832 C   0  0  0  0  0  0  0  0  0  0  0  0
  -22.3304  -39.5810  -10.0591 C   0  0  0  0  0  0  0  0  0  0  0  0
  -21.4940  -40.2689  -10.8911 C   0  0  0  0  0  0  0  0  0  0  0  0
  -22.0630  -41.3871  -12.1065 Cl  0  0  0  0  0  0  0  0  0  0  0  0
  -20.1574  -40.0285  -10.7165 C   0  0  0  0  0  0  0  0  0  0  0  0
  -19.6396  -39.1300   -9.7449 C   0  0  0  0  0  0  0  0  0  0  0  0
  -20.5059  -38.4488   -8.9222 C   0  0  0  0  0  0  0  0  0  0  0  0
  -18.1634  -39.1442   -9.8072 C   0  0  0  0  0  0  0  0  0  0  0  0
  -17.7155  -39.0513  -11.0399 O   0  0  0  0  0  0  0  0  0  0  0  0
  -17.1964  -39.2421   -8.7716 N   0  0  0  0  0  0  0  0  0  0  0  0
  1  2  1  0
  2  3  1  0
  2  4  1  0
  2  5  1  0
  5  6  1  0
  6  7  2  0
  7  8  1  0
  8  9  2  0
  9 10  1  0
  8 11  1  0
 11 12  1  0
 11 13  1  0
 11 14  1  0
 14 15  1  0
 15 16  1  0
 16 17  1  6
 16 18  1  0
 18 19  1  6
 19 20  1  0
 20 21  2  0
 21 22  1  0
 22 23  2  0
 23 24  1  0
 24 25  2  0
 22 26  1  0
 26 27  1  0
 27 28  1  0
 28 29  1  0
 29 30  1  0
 30 31  1  0
 31 32  1  0
 32 33  2  0
 33 34  1  0
 34 35  1  0
 34 36  2  0
 36 37  1  0
 37 38  2  0
 37 39  1  0
 39 40  2  0
 39 41  1  0
 10  6  1  0
 25 20  1  0
 38 32  1  0
 41 18  1  0
M  END
$$$$
