
     RDKit          3D

 41 44  0  0  0  0  0  0  0  0999 V2000
  -10.6856  -36.2238  -13.6672 C   0  0  0  0  0  0  0  0  0  0  0  0
  -11.8049  -36.4119  -14.6772 C   0  0  0  0  0  0  0  0  0  0  0  0
  -11.7403  -35.2197  -15.6180 C   0  0  0  0  0  0  0  0  0  0  0  0
  -11.5212  -37.7013  -15.4138 C   0  0  0  0  0  0  0  0  0  0  0  0
  -13.0988  -36.4553  -13.9200 C   0  0  0  0  0  0  0  0  0  0  0  0
  -13.3698  -37.7684  -13.3093 C   0  0  0  0  0  0  0  0  0  0  0  0
  -13.4393  -37.9810  -11.9201 C   0  0  0  0  0  0  0  0  0  0  0  0
  -13.7041  -39.3005  -11.7004 C   0  0  0  0  0  0  0  0  0  0  0  0
  -13.7892  -39.8561  -12.9153 N   0  0  0  0  0  0  0  0  0  0  0  0
  -13.5894  -38.9349  -13.8327 O   0  0  0  0  0  0  0  0  0  0  0  0
  -13.8882  -40.0708  -10.4142 C   0  0  0  0  0  0  0  0  0  0  0  0
  -14.7074  -41.3155  -10.7602 C   0  0  0  0  0  0  0  0  0  0  0  0
  -12.5348  -40.5206   -9.9599 C   0  0  0  0  0  0  0  0  0  0  0  0
  -14.6061  -39.2145   -9.5408 N   0  0  0  0  0  0  0  0  0  0  0  0
  -15.9721  -38.9509   -9.7665 C   0  0  0  0  0  0  0  0  0  0  0  0
  -16.7236  -38.6871   -8.5249 C   0  0  1  0  0  0  0  0  0  0  0  0
  -17.3577  -37.4511   -8.4899 O   0  0  0  0  0  0  0  0  0  0  0  0
  -17.7293  -39.8067   -8.1879 C   0  0  2  0  0  0  0  0  0  0  0  0
  -18.4048  -39.6387   -6.8863 C   0  0  0  0  0  0  0  0  0  0  0  0
  -19.8562  -39.2481   -6.9338 C   0  0  0  0  0  0  0  0  0  0  0  0
  -20.9287  -39.8730   -7.5135 C   0  0  0  0  0  0  0  0  0  0  0  0
  -22.1851  -39.2994   -7.3675 C   0  0  0  0  0  0  0  0  0  0  0  0
  -22.3404  -38.1021   -6.6423 C   0  0  0  0  0  0  0  0  0  0  0  0
  -21.2867  -37.4538   -6.0526 C   0  0  0  0  0  0  0  0  0  0  0  0
  -20.0681  -38.0442   -6.2128 C   0  0  0  0  0  0  0  0  0  0  0  0
  -23.4015  -39.7435   -7.8529 O   0  0  0  0  0  0  0  0  0  0  0  0
  -24.1791  -40.8906   -7.7062 C   0  0  0  0  0  0  0  0  0  0  0  0
  -23.5877  -41.9460   -6.8080 C   0  0  0  0  0  0  0  0  0  0  0  0
  -23.9991  -43.2898   -7.3169 C   0  0  0  0  0  0  0  0  0  0  0  0
  -22.9715  -43.7932   -8.2809 C   0  0  0  0  0  0  0  0  0  0  0  0
  -21.8684  -44.4305   -7.7077 O   0  0  0  0  0  0  0  0  0  0  0  0
  -20.6346  -43.9964   -7.2365 C   0  0  0  0  0  0  0  0  0  0  0  0
  -20.4933  -44.3046   -5.8698 C   0  0  0  0  0  0  0  0  0  0  0  0
  -19.3745  -43.9849   -5.1550 C   0  0  0  0  0  0  0  0  0  0  0  0
  -19.1842  -44.3608   -3.4598 Cl  0  0  0  0  0  0  0  0  0  0  0  0
  -18.3899  -43.3403   -5.8549 C   0  0  0  0  0  0  0  0  0  0  0  0
  -18.4911  -43.0105   -7.2335 C   0  0  0  0  0  0  0  0  0  0  0  0
  -19.6289  -43.3473   -7.9289 C   0  0  0  0  0  0  0  0  0  0  0  0
  -17.2709  -42.2900   -7.6520 C   0  0  0  0  0  0  0  0  0  0  0  0
  -16.1740  -42.8825   -7.2344 O   0  0  0  0  0  0  0  0  0  0  0  0
  -17.1163  -41.0972   -8.4074 N   0  0  0  0  0  0  0  0  0  0  0  0
  1  2  1  0
  2  3  1  0
  2  4  1  0
  2  5  1  0
  5  6  1  0
  6  7  2  0
  7  8  1  0
  8  9  2  0
  9 10  1  0
  8 11  1  0
 11 12  1  0
 11 13  1  0
 11 14  1  0
 14 15  1  0
 15 16  1  0
 16 17  1  6
 16 18  1  0
 18 19  1  1
 19 20  1  0
 20 21  2  0
 21 22  1  0
 22 23  2  0
 23 24  1  0
 24 25  2  0
 22 26  1  0
 26 27  1  0
 27 28  1  0
 28 29  1  0
 29 30  1  0
 30 31  1  0
 31 32  1  0
 32 33  2  0
 33 34  1  0
 34 35  1  0
 34 36  2  0
 36 37  1  0
 37 38  2  0
 37 39  1  0
 39 40  2  0
 39 41  1  0
 10  6  1  0
 25 20  1  0
 38 32  1  0
 41 18  1  0
M  END
$$$$
