
     RDKit          3D

 41 44  0  0  0  0  0  0  0  0999 V2000
  -23.3650  -40.7815   -9.4065 C   0  0  0  0  0  0  0  0  0  0  0  0
  -23.0405  -41.9988  -10.2558 C   0  0  0  0  0  0  0  0  0  0  0  0
  -24.1900  -42.9750  -10.0656 C   0  0  0  0  0  0  0  0  0  0  0  0
  -22.9603  -41.5265  -11.6897 C   0  0  0  0  0  0  0  0  0  0  0  0
  -21.7415  -42.5642   -9.7634 C   0  0  0  0  0  0  0  0  0  0  0  0
  -20.9827  -41.6247   -8.9195 C   0  0  0  0  0  0  0  0  0  0  0  0
  -21.4333  -41.1640   -7.6687 C   0  0  0  0  0  0  0  0  0  0  0  0
  -20.4954  -40.3144   -7.1607 C   0  0  0  0  0  0  0  0  0  0  0  0
  -19.5196  -40.2691   -8.0760 N   0  0  0  0  0  0  0  0  0  0  0  0
  -19.8347  -41.0451   -9.0903 O   0  0  0  0  0  0  0  0  0  0  0  0
  -20.4588  -39.5456   -5.8610 C   0  0  0  0  0  0  0  0  0  0  0  0
  -21.8141  -38.8498   -5.7232 C   0  0  0  0  0  0  0  0  0  0  0  0
  -20.3363  -40.5418   -4.7507 C   0  0  0  0  0  0  0  0  0  0  0  0
  -19.4107  -38.5990   -5.9921 N   0  0  0  0  0  0  0  0  0  0  0  0
  -18.0661  -39.0214   -5.9913 C   0  0  0  0  0  0  0  0  0  0  0  0
  -17.2152  -38.2461   -6.9136 C   0  0  1  0  0  0  0  0  0  0  0  0
  -16.0688  -37.7197   -6.3309 O   0  0  0  0  0  0  0  0  0  0  0  0
  -16.8468  -39.0330   -8.1878 C   0  0  2  0  0  0  0  0  0  0  0  0
  -17.2693  -38.3806   -9.4427 C   0  0  0  0  0  0  0  0  0  0  0  0
  -16.1757  -37.7837  -10.2848 C   0  0  0  0  0  0  0  0  0  0  0  0
  -15.0700  -38.3621  -10.8502 C   0  0  0  0  0  0  0  0  0  0  0  0
  -14.2329  -37.5689  -11.6242 C   0  0  0  0  0  0  0  0  0  0  0  0
  -14.5216  -36.2034  -11.8132 C   0  0  0  0  0  0  0  0  0  0  0  0
  -15.6189  -35.5970  -11.2597 C   0  0  0  0  0  0  0  0  0  0  0  0
  -16.4209  -36.4038  -10.5079 C   0  0  0  0  0  0  0  0  0  0  0  0
  -13.0752  -37.9254  -12.2912 O   0  0  0  0  0  0  0  0  0  0  0  0
  -12.7364  -38.8321  -13.2939 C   0  0  0  0  0  0  0  0  0  0  0  0
  -13.8830  -39.6616  -13.8112 C   0  0  0  0  0  0  0  0  0  0  0  0
  -13.3602  -41.0068  -14.2002 C   0  0  0  0  0  0  0  0  0  0  0  0
  -13.4546  -41.9350  -13.0306 C   0  0  0  0  0  0  0  0  0  0  0  0
  -14.6948  -42.5519  -12.8492 O   0  0  0  0  0  0  0  0  0  0  0  0
  -15.8558  -42.2119  -12.1642 C   0  0  0  0  0  0  0  0  0  0  0  0
  -16.9445  -42.1256  -13.0531 C   0  0  0  0  0  0  0  0  0  0  0  0
  -18.2063  -41.8027  -12.6424 C   0  0  0  0  0  0  0  0  0  0  0  0
  -19.5666  -41.6920  -13.7326 Cl  0  0  0  0  0  0  0  0  0  0  0  0
  -18.3490  -41.5657  -11.3014 C   0  0  0  0  0  0  0  0  0  0  0  0
  -17.2782  -41.6420  -10.3702 C   0  0  0  0  0  0  0  0  0  0  0  0
  -16.0183  -41.9721  -10.8121 C   0  0  0  0  0  0  0  0  0  0  0  0
  -17.7778  -41.2906   -9.0248 C   0  0  0  0  0  0  0  0  0  0  0  0
  -18.9001  -41.9098   -8.7323 O   0  0  0  0  0  0  0  0  0  0  0  0
  -17.2451  -40.4148   -8.0417 N   0  0  0  0  0  0  0  0  0  0  0  0
  1  2  1  0
  2  3  1  0
  2  4  1  0
  2  5  1  0
  5  6  1  0
  6  7  2  0
  7  8  1  0
  8  9  2  0
  9 10  1  0
  8 11  1  0
 11 12  1  0
 11 13  1  0
 11 14  1  0
 14 15  1  0
 15 16  1  0
 16 17  1  1
 16 18  1  0
 18 19  1  6
 19 20  1  0
 20 21  2  0
 21 22  1  0
 22 23  2  0
 23 24  1  0
 24 25  2  0
 22 26  1  0
 26 27  1  0
 27 28  1  0
 28 29  1  0
 29 30  1  0
 30 31  1  0
 31 32  1  0
 32 33  2  0
 33 34  1  0
 34 35  1  0
 34 36  2  0
 36 37  1  0
 37 38  2  0
 37 39  1  0
 39 40  2  0
 39 41  1  0
 10  6  1  0
 25 20  1  0
 38 32  1  0
 41 18  1  0
M  END
$$$$
