
     RDKit          3D

 41 44  0  0  0  0  0  0  0  0999 V2000
  -19.5361  -38.5187  -14.2377 C   0  0  0  0  0  0  0  0  0  0  0  0
  -18.8110  -38.4048  -12.9075 C   0  0  0  0  0  0  0  0  0  0  0  0
  -19.2762  -37.1038  -12.2739 C   0  0  0  0  0  0  0  0  0  0  0  0
  -19.2297  -39.5950  -12.0745 C   0  0  0  0  0  0  0  0  0  0  0  0
  -17.3383  -38.3915  -13.1914 C   0  0  0  0  0  0  0  0  0  0  0  0
  -16.5140  -38.2829  -11.9751 C   0  0  0  0  0  0  0  0  0  0  0  0
  -15.3793  -39.0781  -11.7304 C   0  0  0  0  0  0  0  0  0  0  0  0
  -14.8565  -38.7203  -10.5229 C   0  0  0  0  0  0  0  0  0  0  0  0
  -15.6512  -37.7464  -10.0626 N   0  0  0  0  0  0  0  0  0  0  0  0
  -16.6090  -37.5147  -10.9340 O   0  0  0  0  0  0  0  0  0  0  0  0
  -13.6487  -39.2363   -9.7769 C   0  0  0  0  0  0  0  0  0  0  0  0
  -13.3682  -40.6416  -10.3120 C   0  0  0  0  0  0  0  0  0  0  0  0
  -12.4877  -38.3640  -10.1396 C   0  0  0  0  0  0  0  0  0  0  0  0
  -14.0179  -39.2762   -8.4080 N   0  0  0  0  0  0  0  0  0  0  0  0
  -14.3341  -40.5037   -7.7919 C   0  0  0  0  0  0  0  0  0  0  0  0
  -15.5430  -40.4341   -6.9495 C   0  0  1  0  0  0  0  0  0  0  0  0
  -15.5359  -39.4011   -6.0200 O   0  0  0  0  0  0  0  0  0  0  0  0
  -16.8439  -40.3916   -7.7768 C   0  0  2  0  0  0  0  0  0  0  0  0
  -18.0089  -40.9946   -7.0999 C   0  0  0  0  0  0  0  0  0  0  0  0
  -19.0628  -40.0403   -6.6099 C   0  0  0  0  0  0  0  0  0  0  0  0
  -19.8175  -39.1207   -7.2893 C   0  0  0  0  0  0  0  0  0  0  0  0
  -20.7598  -38.3868   -6.5805 C   0  0  0  0  0  0  0  0  0  0  0  0
  -20.9240  -38.5887   -5.1963 C   0  0  0  0  0  0  0  0  0  0  0  0
  -20.1833  -39.5000   -4.4898 C   0  0  0  0  0  0  0  0  0  0  0  0
  -19.2693  -40.2051   -5.2156 C   0  0  0  0  0  0  0  0  0  0  0  0
  -21.6300  -37.4173   -7.0443 O   0  0  0  0  0  0  0  0  0  0  0  0
  -22.6558  -37.3609   -7.9860 C   0  0  0  0  0  0  0  0  0  0  0  0
  -22.9185  -38.6534   -8.7144 C   0  0  0  0  0  0  0  0  0  0  0  0
  -23.3672  -38.3345  -10.1040 C   0  0  0  0  0  0  0  0  0  0  0  0
  -22.1781  -38.2769  -11.0103 C   0  0  0  0  0  0  0  0  0  0  0  0
  -21.7430  -39.5057  -11.5126 O   0  0  0  0  0  0  0  0  0  0  0  0
  -20.8541  -40.4762  -11.0647 C   0  0  0  0  0  0  0  0  0  0  0  0
  -21.5160  -41.7066  -10.8892 C   0  0  0  0  0  0  0  0  0  0  0  0
  -20.8760  -42.8309  -10.4516 C   0  0  0  0  0  0  0  0  0  0  0  0
  -21.6831  -44.3641  -10.2293 Cl  0  0  0  0  0  0  0  0  0  0  0  0
  -19.5395  -42.6870  -10.1916 C   0  0  0  0  0  0  0  0  0  0  0  0
  -18.8329  -41.4649  -10.3552 C   0  0  0  0  0  0  0  0  0  0  0  0
  -19.5028  -40.3492  -10.7999 C   0  0  0  0  0  0  0  0  0  0  0  0
  -17.4254  -41.6589   -9.9493 C   0  0  0  0  0  0  0  0  0  0  0  0
  -16.9042  -42.7510  -10.4635 O   0  0  0  0  0  0  0  0  0  0  0  0
  -16.5876  -40.8706   -9.1163 N   0  0  0  0  0  0  0  0  0  0  0  0
  1  2  1  0
  2  3  1  0
  2  4  1  0
  2  5  1  0
  5  6  1  0
  6  7  2  0
  7  8  1  0
  8  9  2  0
  9 10  1  0
  8 11  1  0
 11 12  1  0
 11 13  1  0
 11 14  1  0
 14 15  1  0
 15 16  1  0
 16 17  1  6
 16 18  1  0
 18 19  1  1
 19 20  1  0
 20 21  2  0
 21 22  1  0
 22 23  2  0
 23 24  1  0
 24 25  2  0
 22 26  1  0
 26 27  1  0
 27 28  1  0
 28 29  1  0
 29 30  1  0
 30 31  1  0
 31 32  1  0
 32 33  2  0
 33 34  1  0
 34 35  1  0
 34 36  2  0
 36 37  1  0
 37 38  2  0
 37 39  1  0
 39 40  2  0
 39 41  1  0
 10  6  1  0
 25 20  1  0
 38 32  1  0
 41 18  1  0
M  END
$$$$
