
     RDKit          3D

 41 44  0  0  0  0  0  0  0  0999 V2000
   -9.2667  -43.2925  -10.8990 C   0  0  0  0  0  0  0  0  0  0  0  0
  -10.6836  -42.7491  -10.9720 C   0  0  0  0  0  0  0  0  0  0  0  0
  -10.5634  -41.2860  -11.3660 C   0  0  0  0  0  0  0  0  0  0  0  0
  -11.4046  -43.5416  -12.0387 C   0  0  0  0  0  0  0  0  0  0  0  0
  -11.3043  -42.9124   -9.6165 C   0  0  0  0  0  0  0  0  0  0  0  0
  -12.7406  -42.5855   -9.5929 C   0  0  0  0  0  0  0  0  0  0  0  0
  -13.3020  -41.4953  -10.2829 C   0  0  0  0  0  0  0  0  0  0  0  0
  -14.6451  -41.4838  -10.0477 C   0  0  0  0  0  0  0  0  0  0  0  0
  -14.8774  -42.5298   -9.2453 N   0  0  0  0  0  0  0  0  0  0  0  0
  -13.7451  -43.1521   -8.9988 O   0  0  0  0  0  0  0  0  0  0  0  0
  -15.7264  -40.5499  -10.5378 C   0  0  0  0  0  0  0  0  0  0  0  0
  -15.0194  -39.3816  -11.2274 C   0  0  0  0  0  0  0  0  0  0  0  0
  -16.5216  -41.2835  -11.5721 C   0  0  0  0  0  0  0  0  0  0  0  0
  -16.4241  -40.1134   -9.3827 N   0  0  0  0  0  0  0  0  0  0  0  0
  -16.0341  -38.9326   -8.7196 C   0  0  0  0  0  0  0  0  0  0  0  0
  -17.0776  -38.4004   -7.8231 C   0  0  1  0  0  0  0  0  0  0  0  0
  -17.6613  -37.2176   -8.2606 O   0  0  0  0  0  0  0  0  0  0  0  0
  -18.1697  -39.4396   -7.4972 C   0  0  2  0  0  0  0  0  0  0  0  0
  -19.1683  -38.9765   -6.5138 C   0  0  0  0  0  0  0  0  0  0  0  0
  -20.5400  -38.6715   -7.0497 C   0  0  0  0  0  0  0  0  0  0  0  0
  -21.4324  -39.4668   -7.7189 C   0  0  0  0  0  0  0  0  0  0  0  0
  -22.6637  -38.9279   -8.0688 C   0  0  0  0  0  0  0  0  0  0  0  0
  -22.9749  -37.5937   -7.7419 C   0  0  0  0  0  0  0  0  0  0  0  0
  -22.1025  -36.7742   -7.0745 C   0  0  0  0  0  0  0  0  0  0  0  0
  -20.9042  -37.3345   -6.7437 C   0  0  0  0  0  0  0  0  0  0  0  0
  -23.7148  -39.5306   -8.7353 O   0  0  0  0  0  0  0  0  0  0  0  0
  -24.5366  -40.6349   -8.5175 C   0  0  0  0  0  0  0  0  0  0  0  0
  -24.2431  -41.4035   -7.2552 C   0  0  0  0  0  0  0  0  0  0  0  0
  -24.5401  -42.8482   -7.4972 C   0  0  0  0  0  0  0  0  0  0  0  0
  -23.3044  -43.5354   -7.9865 C   0  0  0  0  0  0  0  0  0  0  0  0
  -22.4180  -43.9606   -6.9940 O   0  0  0  0  0  0  0  0  0  0  0  0
  -21.3466  -43.3704   -6.3334 C   0  0  0  0  0  0  0  0  0  0  0  0
  -21.5914  -43.3173   -4.9477 C   0  0  0  0  0  0  0  0  0  0  0  0
  -20.7001  -42.7809   -4.0629 C   0  0  0  0  0  0  0  0  0  0  0  0
  -20.9892  -42.7081   -2.3417 Cl  0  0  0  0  0  0  0  0  0  0  0  0
  -19.5437  -42.2935   -4.6106 C   0  0  0  0  0  0  0  0  0  0  0  0
  -19.2565  -42.3273   -6.0020 C   0  0  0  0  0  0  0  0  0  0  0  0
  -20.1718  -42.8759   -6.8696 C   0  0  0  0  0  0  0  0  0  0  0  0
  -17.9478  -41.6855   -6.2441 C   0  0  0  0  0  0  0  0  0  0  0  0
  -17.0238  -42.1070   -5.4091 O   0  0  0  0  0  0  0  0  0  0  0  0
  -17.5584  -40.7169   -7.2071 N   0  0  0  0  0  0  0  0  0  0  0  0
  1  2  1  0
  2  3  1  0
  2  4  1  0
  2  5  1  0
  5  6  1  0
  6  7  2  0
  7  8  1  0
  8  9  2  0
  9 10  1  0
  8 11  1  0
 11 12  1  0
 11 13  1  0
 11 14  1  0
 14 15  1  0
 15 16  1  0
 16 17  1  6
 16 18  1  0
 18 19  1  1
 19 20  1  0
 20 21  2  0
 21 22  1  0
 22 23  2  0
 23 24  1  0
 24 25  2  0
 22 26  1  0
 26 27  1  0
 27 28  1  0
 28 29  1  0
 29 30  1  0
 30 31  1  0
 31 32  1  0
 32 33  2  0
 33 34  1  0
 34 35  1  0
 34 36  2  0
 36 37  1  0
 37 38  2  0
 37 39  1  0
 39 40  2  0
 39 41  1  0
 10  6  1  0
 25 20  1  0
 38 32  1  0
 41 18  1  0
M  END
$$$$
