
     RDKit          3D

 41 44  0  0  0  0  0  0  0  0999 V2000
  -10.1884  -38.9617  -13.7848 C   0  0  0  0  0  0  0  0  0  0  0  0
   -9.9688  -38.9401  -12.2816 C   0  0  0  0  0  0  0  0  0  0  0  0
   -8.4675  -39.0379  -12.0647 C   0  0  0  0  0  0  0  0  0  0  0  0
  -10.5059  -37.6200  -11.7771 C   0  0  0  0  0  0  0  0  0  0  0  0
  -10.6942  -40.1163  -11.6987 C   0  0  0  0  0  0  0  0  0  0  0  0
  -12.1601  -39.9837  -11.7628 C   0  0  0  0  0  0  0  0  0  0  0  0
  -12.9024  -39.1360  -10.9200 C   0  0  0  0  0  0  0  0  0  0  0  0
  -14.2213  -39.2548  -11.2453 C   0  0  0  0  0  0  0  0  0  0  0  0
  -14.2651  -40.1424  -12.2463 N   0  0  0  0  0  0  0  0  0  0  0  0
  -13.0453  -40.5486  -12.5246 O   0  0  0  0  0  0  0  0  0  0  0  0
  -15.4450  -38.5780  -10.6740 C   0  0  0  0  0  0  0  0  0  0  0  0
  -15.3736  -37.1097  -11.0973 C   0  0  0  0  0  0  0  0  0  0  0  0
  -16.6450  -39.1889  -11.3275 C   0  0  0  0  0  0  0  0  0  0  0  0
  -15.3460  -38.7079   -9.2651 N   0  0  0  0  0  0  0  0  0  0  0  0
  -16.1212  -37.8898   -8.4189 C   0  0  0  0  0  0  0  0  0  0  0  0
  -16.7719  -38.6384   -7.3271 C   0  0  1  0  0  0  0  0  0  0  0  0
  -17.2621  -37.8428   -6.2987 O   0  0  0  0  0  0  0  0  0  0  0  0
  -17.8764  -39.5889   -7.8323 C   0  0  2  0  0  0  0  0  0  0  0  0
  -18.6197  -40.2749   -6.7573 C   0  0  0  0  0  0  0  0  0  0  0  0
  -20.0327  -39.8150   -6.5254 C   0  0  0  0  0  0  0  0  0  0  0  0
  -21.1087  -39.7797   -7.3726 C   0  0  0  0  0  0  0  0  0  0  0  0
  -22.3265  -39.3346   -6.8748 C   0  0  0  0  0  0  0  0  0  0  0  0
  -22.4398  -38.9281   -5.5311 C   0  0  0  0  0  0  0  0  0  0  0  0
  -21.3814  -38.9512   -4.6607 C   0  0  0  0  0  0  0  0  0  0  0  0
  -20.2015  -39.3954   -5.1802 C   0  0  0  0  0  0  0  0  0  0  0  0
  -23.5385  -39.2160   -7.5300 O   0  0  0  0  0  0  0  0  0  0  0  0
  -24.4059  -40.0810   -8.1946 C   0  0  0  0  0  0  0  0  0  0  0  0
  -23.9521  -41.5168   -8.2460 C   0  0  0  0  0  0  0  0  0  0  0  0
  -24.4274  -42.1211   -9.5278 C   0  0  0  0  0  0  0  0  0  0  0  0
  -23.3797  -41.9426  -10.5810 C   0  0  0  0  0  0  0  0  0  0  0  0
  -22.3652  -42.9030  -10.5909 O   0  0  0  0  0  0  0  0  0  0  0  0
  -21.1357  -43.0210   -9.9530 C   0  0  0  0  0  0  0  0  0  0  0  0
  -21.1052  -44.1796   -9.1534 C   0  0  0  0  0  0  0  0  0  0  0  0
  -20.0140  -44.5343   -8.4126 C   0  0  0  0  0  0  0  0  0  0  0  0
  -19.9608  -45.9681   -7.4164 Cl  0  0  0  0  0  0  0  0  0  0  0  0
  -18.9421  -43.6865   -8.4958 C   0  0  0  0  0  0  0  0  0  0  0  0
  -18.9304  -42.5080   -9.2898 C   0  0  0  0  0  0  0  0  0  0  0  0
  -20.0428  -42.1770  -10.0277 C   0  0  0  0  0  0  0  0  0  0  0  0
  -17.6364  -41.8164   -9.1148 C   0  0  0  0  0  0  0  0  0  0  0  0
  -16.6148  -42.6388   -9.2092 O   0  0  0  0  0  0  0  0  0  0  0  0
  -17.3467  -40.4482   -8.8669 N   0  0  0  0  0  0  0  0  0  0  0  0
  1  2  1  0
  2  3  1  0
  2  4  1  0
  2  5  1  0
  5  6  1  0
  6  7  2  0
  7  8  1  0
  8  9  2  0
  9 10  1  0
  8 11  1  0
 11 12  1  0
 11 13  1  0
 11 14  1  0
 14 15  1  0
 15 16  1  0
 16 17  1  1
 16 18  1  0
 18 19  1  1
 19 20  1  0
 20 21  2  0
 21 22  1  0
 22 23  2  0
 23 24  1  0
 24 25  2  0
 22 26  1  0
 26 27  1  0
 27 28  1  0
 28 29  1  0
 29 30  1  0
 30 31  1  0
 31 32  1  0
 32 33  2  0
 33 34  1  0
 34 35  1  0
 34 36  2  0
 36 37  1  0
 37 38  2  0
 37 39  1  0
 39 40  2  0
 39 41  1  0
 10  6  1  0
 25 20  1  0
 38 32  1  0
 41 18  1  0
M  END
$$$$
