
     RDKit          3D

 41 44  0  0  0  0  0  0  0  0999 V2000
  -12.5573  -43.5521  -12.3928 C   0  0  0  0  0  0  0  0  0  0  0  0
  -12.6629  -42.7062  -13.6504 C   0  0  0  0  0  0  0  0  0  0  0  0
  -11.5199  -41.7059  -13.5933 C   0  0  0  0  0  0  0  0  0  0  0  0
  -12.5062  -43.6438  -14.8261 C   0  0  0  0  0  0  0  0  0  0  0  0
  -13.9999  -42.0269  -13.6312 C   0  0  0  0  0  0  0  0  0  0  0  0
  -14.3163  -41.4055  -12.3333 C   0  0  0  0  0  0  0  0  0  0  0  0
  -13.7689  -40.1833  -11.9016 C   0  0  0  0  0  0  0  0  0  0  0  0
  -14.2700  -39.9013  -10.6653 C   0  0  0  0  0  0  0  0  0  0  0  0
  -15.0872  -40.9192  -10.3689 N   0  0  0  0  0  0  0  0  0  0  0  0
  -15.0920  -41.7802  -11.3634 O   0  0  0  0  0  0  0  0  0  0  0  0
  -14.0306  -38.7267   -9.7461 C   0  0  0  0  0  0  0  0  0  0  0  0
  -12.5918  -38.8493   -9.2412 C   0  0  0  0  0  0  0  0  0  0  0  0
  -14.1258  -37.4814  -10.5711 C   0  0  0  0  0  0  0  0  0  0  0  0
  -14.9579  -38.8634   -8.6817 N   0  0  0  0  0  0  0  0  0  0  0  0
  -16.2725  -38.3734   -8.8158 C   0  0  0  0  0  0  0  0  0  0  0  0
  -17.0738  -38.5217   -7.5862 C   0  0  1  0  0  0  0  0  0  0  0  0
  -17.7066  -37.3567   -7.1699 O   0  0  0  0  0  0  0  0  0  0  0  0
  -18.0945  -39.6745   -7.6758 C   0  0  2  0  0  0  0  0  0  0  0  0
  -18.6332  -40.1055   -6.3709 C   0  0  0  0  0  0  0  0  0  0  0  0
  -20.0624  -39.7354   -6.0845 C   0  0  0  0  0  0  0  0  0  0  0  0
  -21.2139  -40.0362   -6.7629 C   0  0  0  0  0  0  0  0  0  0  0  0
  -22.4219  -39.5887   -6.2439 C   0  0  0  0  0  0  0  0  0  0  0  0
  -22.4500  -38.8410   -5.0506 C   0  0  0  0  0  0  0  0  0  0  0  0
  -21.3151  -38.5237   -4.3510 C   0  0  0  0  0  0  0  0  0  0  0  0
  -20.1468  -38.9800   -4.8860 C   0  0  0  0  0  0  0  0  0  0  0  0
  -23.6989  -39.7699   -6.7427 O   0  0  0  0  0  0  0  0  0  0  0  0
  -24.5124  -40.8622   -7.0382 C   0  0  0  0  0  0  0  0  0  0  0  0
  -23.8882  -42.2073   -6.7708 C   0  0  0  0  0  0  0  0  0  0  0  0
  -24.4097  -43.1828   -7.7761 C   0  0  0  0  0  0  0  0  0  0  0  0
  -23.5043  -43.2025   -8.9671 C   0  0  0  0  0  0  0  0  0  0  0  0
  -22.3827  -44.0282   -8.8580 O   0  0  0  0  0  0  0  0  0  0  0  0
  -21.0903  -43.8495   -8.3781 C   0  0  0  0  0  0  0  0  0  0  0  0
  -20.8333  -44.7354   -7.3142 C   0  0  0  0  0  0  0  0  0  0  0  0
  -19.6371  -44.7679   -6.6560 C   0  0  0  0  0  0  0  0  0  0  0  0
  -19.3032  -45.8609   -5.3350 Cl  0  0  0  0  0  0  0  0  0  0  0  0
  -18.6948  -43.8782   -7.0979 C   0  0  0  0  0  0  0  0  0  0  0  0
  -18.9121  -42.9678   -8.1672 C   0  0  0  0  0  0  0  0  0  0  0  0
  -20.1260  -42.9592   -8.8136 C   0  0  0  0  0  0  0  0  0  0  0  0
  -17.7049  -42.1356   -8.3503 C   0  0  0  0  0  0  0  0  0  0  0  0
  -16.6023  -42.8518   -8.3591 O   0  0  0  0  0  0  0  0  0  0  0  0
  -17.5671  -40.7310   -8.5094 N   0  0  0  0  0  0  0  0  0  0  0  0
  1  2  1  0
  2  3  1  0
  2  4  1  0
  2  5  1  0
  5  6  1  0
  6  7  2  0
  7  8  1  0
  8  9  2  0
  9 10  1  0
  8 11  1  0
 11 12  1  0
 11 13  1  0
 11 14  1  0
 14 15  1  0
 15 16  1  0
 16 17  1  6
 16 18  1  0
 18 19  1  1
 19 20  1  0
 20 21  2  0
 21 22  1  0
 22 23  2  0
 23 24  1  0
 24 25  2  0
 22 26  1  0
 26 27  1  0
 27 28  1  0
 28 29  1  0
 29 30  1  0
 30 31  1  0
 31 32  1  0
 32 33  2  0
 33 34  1  0
 34 35  1  0
 34 36  2  0
 36 37  1  0
 37 38  2  0
 37 39  1  0
 39 40  2  0
 39 41  1  0
 10  6  1  0
 25 20  1  0
 38 32  1  0
 41 18  1  0
M  END
$$$$
