
     RDKit          3D

 41 44  0  0  0  0  0  0  0  0999 V2000
  -10.5951  -36.9250  -12.5349 C   0  0  0  0  0  0  0  0  0  0  0  0
  -11.9580  -36.9338  -13.2064 C   0  0  0  0  0  0  0  0  0  0  0  0
  -12.7727  -35.8368  -12.5407 C   0  0  0  0  0  0  0  0  0  0  0  0
  -11.7298  -36.6295  -14.6696 C   0  0  0  0  0  0  0  0  0  0  0  0
  -12.5639  -38.2885  -12.9888 C   0  0  0  0  0  0  0  0  0  0  0  0
  -12.8372  -38.5808  -11.5709 C   0  0  0  0  0  0  0  0  0  0  0  0
  -13.5255  -39.7265  -11.1311 C   0  0  0  0  0  0  0  0  0  0  0  0
  -13.6032  -39.6849   -9.7704 C   0  0  0  0  0  0  0  0  0  0  0  0
  -12.9838  -38.5541   -9.4104 N   0  0  0  0  0  0  0  0  0  0  0  0
  -12.5480  -37.9328  -10.4848 O   0  0  0  0  0  0  0  0  0  0  0  0
  -14.2211  -40.6494   -8.7857 C   0  0  0  0  0  0  0  0  0  0  0  0
  -15.0273  -41.6586   -9.6053 C   0  0  0  0  0  0  0  0  0  0  0  0
  -13.1045  -41.3866   -8.1149 C   0  0  0  0  0  0  0  0  0  0  0  0
  -15.0692  -39.8746   -7.9538 N   0  0  0  0  0  0  0  0  0  0  0  0
  -16.1383  -39.1444   -8.5107 C   0  0  0  0  0  0  0  0  0  0  0  0
  -17.0896  -38.6481   -7.4985 C   0  0  1  0  0  0  0  0  0  0  0  0
  -17.5576  -37.3609   -7.7335 O   0  0  0  0  0  0  0  0  0  0  0  0
  -18.2752  -39.6085   -7.2738 C   0  0  2  0  0  0  0  0  0  0  0  0
  -19.2650  -39.1250   -6.2913 C   0  0  0  0  0  0  0  0  0  0  0  0
  -20.5871  -38.6704   -6.8453 C   0  0  0  0  0  0  0  0  0  0  0  0
  -21.5192  -39.3424   -7.5911 C   0  0  0  0  0  0  0  0  0  0  0  0
  -22.6884  -38.6791   -7.9402 C   0  0  0  0  0  0  0  0  0  0  0  0
  -22.8982  -37.3466   -7.5351 C   0  0  0  0  0  0  0  0  0  0  0  0
  -21.9840  -36.6486   -6.7900 C   0  0  0  0  0  0  0  0  0  0  0  0
  -20.8488  -37.3292   -6.4623 C   0  0  0  0  0  0  0  0  0  0  0  0
  -23.7626  -39.1462   -8.6752 O   0  0  0  0  0  0  0  0  0  0  0  0
  -24.6807  -40.1877   -8.5547 C   0  0  0  0  0  0  0  0  0  0  0  0
  -24.4961  -41.0570   -7.3379 C   0  0  0  0  0  0  0  0  0  0  0  0
  -24.9042  -42.4528   -7.6832 C   0  0  0  0  0  0  0  0  0  0  0  0
  -23.7141  -43.2108   -8.1808 C   0  0  0  0  0  0  0  0  0  0  0  0
  -22.9010  -43.7723   -7.1933 O   0  0  0  0  0  0  0  0  0  0  0  0
  -21.8074  -43.3190   -6.4645 C   0  0  0  0  0  0  0  0  0  0  0  0
  -22.0945  -43.3330   -5.0860 C   0  0  0  0  0  0  0  0  0  0  0  0
  -21.1926  -42.9319   -4.1422 C   0  0  0  0  0  0  0  0  0  0  0  0
  -21.5336  -42.9438   -2.4291 Cl  0  0  0  0  0  0  0  0  0  0  0  0
  -19.9814  -42.5115   -4.6228 C   0  0  0  0  0  0  0  0  0  0  0  0
  -19.6502  -42.4815   -6.0045 C   0  0  0  0  0  0  0  0  0  0  0  0
  -20.5777  -42.8939   -6.9326 C   0  0  0  0  0  0  0  0  0  0  0  0
  -18.2849  -41.9401   -6.1657 C   0  0  0  0  0  0  0  0  0  0  0  0
  -17.4286  -42.4911   -5.3339 O   0  0  0  0  0  0  0  0  0  0  0  0
  -17.7831  -40.9492   -7.0510 N   0  0  0  0  0  0  0  0  0  0  0  0
  1  2  1  0
  2  3  1  0
  2  4  1  0
  2  5  1  0
  5  6  1  0
  6  7  2  0
  7  8  1  0
  8  9  2  0
  9 10  1  0
  8 11  1  0
 11 12  1  0
 11 13  1  0
 11 14  1  0
 14 15  1  0
 15 16  1  0
 16 17  1  6
 16 18  1  0
 18 19  1  1
 19 20  1  0
 20 21  2  0
 21 22  1  0
 22 23  2  0
 23 24  1  0
 24 25  2  0
 22 26  1  0
 26 27  1  0
 27 28  1  0
 28 29  1  0
 29 30  1  0
 30 31  1  0
 31 32  1  0
 32 33  2  0
 33 34  1  0
 34 35  1  0
 34 36  2  0
 36 37  1  0
 37 38  2  0
 37 39  1  0
 39 40  2  0
 39 41  1  0
 10  6  1  0
 25 20  1  0
 38 32  1  0
 41 18  1  0
M  END
$$$$
