
     RDKit          3D

 41 44  0  0  0  0  0  0  0  0999 V2000
   -9.4927  -36.2041  -13.5026 C   0  0  0  0  0  0  0  0  0  0  0  0
  -10.5233  -37.2879  -13.2356 C   0  0  0  0  0  0  0  0  0  0  0  0
  -11.2217  -37.5530  -14.5594 C   0  0  0  0  0  0  0  0  0  0  0  0
   -9.7661  -38.5095  -12.7666 C   0  0  0  0  0  0  0  0  0  0  0  0
  -11.4733  -36.7672  -12.1983 C   0  0  0  0  0  0  0  0  0  0  0  0
  -12.5898  -37.6874  -11.9202 C   0  0  0  0  0  0  0  0  0  0  0  0
  -12.6575  -38.5059  -10.7778 C   0  0  0  0  0  0  0  0  0  0  0  0
  -13.8143  -39.2258  -10.8333 C   0  0  0  0  0  0  0  0  0  0  0  0
  -14.4157  -38.8508  -11.9689 N   0  0  0  0  0  0  0  0  0  0  0  0
  -13.6752  -37.9516  -12.5799 O   0  0  0  0  0  0  0  0  0  0  0  0
  -14.3922  -40.2430   -9.8778 C   0  0  0  0  0  0  0  0  0  0  0  0
  -15.3089  -41.1492  -10.7015 C   0  0  0  0  0  0  0  0  0  0  0  0
  -13.2590  -41.0758   -9.3656 C   0  0  0  0  0  0  0  0  0  0  0  0
  -15.1321  -39.5065   -8.9177 N   0  0  0  0  0  0  0  0  0  0  0  0
  -15.0043  -39.7976   -7.5447 C   0  0  0  0  0  0  0  0  0  0  0  0
  -16.2593  -39.6071   -6.7932 C   0  0  1  0  0  0  0  0  0  0  0  0
  -16.5576  -38.2816   -6.5013 O   0  0  0  0  0  0  0  0  0  0  0  0
  -17.4681  -40.2839   -7.4710 C   0  0  2  0  0  0  0  0  0  0  0  0
  -18.6548  -40.4085   -6.6021 C   0  0  0  0  0  0  0  0  0  0  0  0
  -19.8135  -39.5050   -6.9225 C   0  0  0  0  0  0  0  0  0  0  0  0
  -20.5525  -39.3760   -8.0688 C   0  0  0  0  0  0  0  0  0  0  0  0
  -21.6086  -38.4740   -8.0754 C   0  0  0  0  0  0  0  0  0  0  0  0
  -21.9010  -37.7128   -6.9270 C   0  0  0  0  0  0  0  0  0  0  0  0
  -21.1791  -37.8192   -5.7669 C   0  0  0  0  0  0  0  0  0  0  0  0
  -20.1513  -38.7149   -5.7930 C   0  0  0  0  0  0  0  0  0  0  0  0
  -22.4876  -38.1774   -9.1009 O   0  0  0  0  0  0  0  0  0  0  0  0
  -23.4125  -38.8884   -9.8634 C   0  0  0  0  0  0  0  0  0  0  0  0
  -23.5141  -40.3544   -9.5307 C   0  0  0  0  0  0  0  0  0  0  0  0
  -23.8371  -41.1056  -10.7819 C   0  0  0  0  0  0  0  0  0  0  0  0
  -22.5672  -41.5313  -11.4489 C   0  0  0  0  0  0  0  0  0  0  0  0
  -22.0036  -42.7170  -10.9711 O   0  0  0  0  0  0  0  0  0  0  0  0
  -21.1042  -43.0228   -9.9561 C   0  0  0  0  0  0  0  0  0  0  0  0
  -21.6992  -43.8840   -9.0142 C   0  0  0  0  0  0  0  0  0  0  0  0
  -21.0358  -44.3386   -7.9104 C   0  0  0  0  0  0  0  0  0  0  0  0
  -21.7598  -45.4072   -6.7336 Cl  0  0  0  0  0  0  0  0  0  0  0  0
  -19.7453  -43.9016   -7.7745 C   0  0  0  0  0  0  0  0  0  0  0  0
  -19.1067  -43.0332   -8.7006 C   0  0  0  0  0  0  0  0  0  0  0  0
  -19.7986  -42.5932   -9.8048 C   0  0  0  0  0  0  0  0  0  0  0  0
  -17.7389  -42.7374   -8.2264 C   0  0  0  0  0  0  0  0  0  0  0  0
  -17.0975  -43.8208   -7.8474 O   0  0  0  0  0  0  0  0  0  0  0  0
  -17.0445  -41.5028   -8.1222 N   0  0  0  0  0  0  0  0  0  0  0  0
  1  2  1  0
  2  3  1  0
  2  4  1  0
  2  5  1  0
  5  6  1  0
  6  7  2  0
  7  8  1  0
  8  9  2  0
  9 10  1  0
  8 11  1  0
 11 12  1  0
 11 13  1  0
 11 14  1  0
 14 15  1  0
 15 16  1  0
 16 17  1  6
 16 18  1  0
 18 19  1  1
 19 20  1  0
 20 21  2  0
 21 22  1  0
 22 23  2  0
 23 24  1  0
 24 25  2  0
 22 26  1  0
 26 27  1  0
 27 28  1  0
 28 29  1  0
 29 30  1  0
 30 31  1  0
 31 32  1  0
 32 33  2  0
 33 34  1  0
 34 35  1  0
 34 36  2  0
 36 37  1  0
 37 38  2  0
 37 39  1  0
 39 40  2  0
 39 41  1  0
 10  6  1  0
 25 20  1  0
 38 32  1  0
 41 18  1  0
M  END
$$$$
