
     RDKit          3D

 41 44  0  0  0  0  0  0  0  0999 V2000
  -21.6104  -42.2671   -6.6692 C   0  0  0  0  0  0  0  0  0  0  0  0
  -22.2101  -42.0679   -5.2876 C   0  0  0  0  0  0  0  0  0  0  0  0
  -23.6953  -42.3648   -5.4164 C   0  0  0  0  0  0  0  0  0  0  0  0
  -21.5355  -43.0600   -4.3676 C   0  0  0  0  0  0  0  0  0  0  0  0
  -21.9587  -40.6457   -4.8829 C   0  0  0  0  0  0  0  0  0  0  0  0
  -20.8353  -40.0264   -5.6074 C   0  0  0  0  0  0  0  0  0  0  0  0
  -19.4870  -40.1925   -5.2411 C   0  0  0  0  0  0  0  0  0  0  0  0
  -18.7142  -39.4890   -6.1171 C   0  0  0  0  0  0  0  0  0  0  0  0
  -19.5708  -38.9225   -6.9757 N   0  0  0  0  0  0  0  0  0  0  0  0
  -20.8010  -39.2560   -6.6506 O   0  0  0  0  0  0  0  0  0  0  0  0
  -17.2152  -39.3219   -6.1991 C   0  0  0  0  0  0  0  0  0  0  0  0
  -16.6981  -39.2778   -4.7601 C   0  0  0  0  0  0  0  0  0  0  0  0
  -16.6594  -40.5487   -6.8519 C   0  0  0  0  0  0  0  0  0  0  0  0
  -16.9916  -38.0867   -6.8593 N   0  0  0  0  0  0  0  0  0  0  0  0
  -16.4266  -38.0619   -8.1502 C   0  0  0  0  0  0  0  0  0  0  0  0
  -17.4176  -37.8001   -9.2110 C   0  0  1  0  0  0  0  0  0  0  0  0
  -16.8658  -37.5269  -10.4568 O   0  0  0  0  0  0  0  0  0  0  0  0
  -18.4696  -38.9213   -9.3333 C   0  0  2  0  0  0  0  0  0  0  0  0
  -19.6489  -38.5558  -10.1423 C   0  0  0  0  0  0  0  0  0  0  0  0
  -19.7568  -39.2046  -11.4947 C   0  0  0  0  0  0  0  0  0  0  0  0
  -19.8107  -40.5275  -11.8466 C   0  0  0  0  0  0  0  0  0  0  0  0
  -19.9504  -40.8478  -13.1908 C   0  0  0  0  0  0  0  0  0  0  0  0
  -20.0297  -39.8292  -14.1602 C   0  0  0  0  0  0  0  0  0  0  0  0
  -19.9775  -38.4980  -13.8386 C   0  0  0  0  0  0  0  0  0  0  0  0
  -19.8424  -38.2178  -12.5110 C   0  0  0  0  0  0  0  0  0  0  0  0
  -20.0311  -42.0965  -13.7795 O   0  0  0  0  0  0  0  0  0  0  0  0
  -20.8823  -43.1957  -13.6824 C   0  0  0  0  0  0  0  0  0  0  0  0
  -22.0113  -43.0373  -12.6972 C   0  0  0  0  0  0  0  0  0  0  0  0
  -22.3159  -44.3745  -12.1027 C   0  0  0  0  0  0  0  0  0  0  0  0
  -21.5018  -44.5648  -10.8619 C   0  0  0  0  0  0  0  0  0  0  0  0
  -22.0377  -44.0082   -9.6980 O   0  0  0  0  0  0  0  0  0  0  0  0
  -21.9456  -42.7626   -9.0877 C   0  0  0  0  0  0  0  0  0  0  0  0
  -23.2191  -42.1712   -8.9810 C   0  0  0  0  0  0  0  0  0  0  0  0
  -23.4147  -40.9405   -8.4223 C   0  0  0  0  0  0  0  0  0  0  0  0
  -24.9878  -40.1941   -8.2826 Cl  0  0  0  0  0  0  0  0  0  0  0  0
  -22.2866  -40.3113   -7.9683 C   0  0  0  0  0  0  0  0  0  0  0  0
  -20.9836  -40.8715   -8.0558 C   0  0  0  0  0  0  0  0  0  0  0  0
  -20.8168  -42.1141   -8.6212 C   0  0  0  0  0  0  0  0  0  0  0  0
  -20.0034  -39.9110   -7.5081 C   0  0  0  0  0  0  0  0  0  0  0  0
  -20.3875  -39.4098   -6.3548 O   0  0  0  0  0  0  0  0  0  0  0  0
  -18.7580  -39.4661   -8.0259 N   0  0  0  0  0  0  0  0  0  0  0  0
  1  2  1  0
  2  3  1  0
  2  4  1  0
  2  5  1  0
  5  6  1  0
  6  7  2  0
  7  8  1  0
  8  9  2  0
  9 10  1  0
  8 11  1  0
 11 12  1  0
 11 13  1  0
 11 14  1  0
 14 15  1  0
 15 16  1  0
 16 17  1  6
 16 18  1  0
 18 19  1  1
 19 20  1  0
 20 21  2  0
 21 22  1  0
 22 23  2  0
 23 24  1  0
 24 25  2  0
 22 26  1  0
 26 27  1  0
 27 28  1  0
 28 29  1  0
 29 30  1  0
 30 31  1  0
 31 32  1  0
 32 33  2  0
 33 34  1  0
 34 35  1  0
 34 36  2  0
 36 37  1  0
 37 38  2  0
 37 39  1  0
 39 40  2  0
 39 41  1  0
 10  6  1  0
 25 20  1  0
 38 32  1  0
 41 18  1  0
M  END
$$$$
