
     RDKit          3D

 41 44  0  0  0  0  0  0  0  0999 V2000
   -9.4069  -38.0912  -14.3051 C   0  0  0  0  0  0  0  0  0  0  0  0
  -10.3751  -37.7501  -13.1850 C   0  0  0  0  0  0  0  0  0  0  0  0
   -9.5466  -37.6550  -11.9142 C   0  0  0  0  0  0  0  0  0  0  0  0
  -10.9954  -36.4154  -13.5305 C   0  0  0  0  0  0  0  0  0  0  0  0
  -11.3891  -38.8526  -13.1084 C   0  0  0  0  0  0  0  0  0  0  0  0
  -12.2188  -38.7941  -11.8923 C   0  0  0  0  0  0  0  0  0  0  0  0
  -13.6198  -38.6657  -11.9115 C   0  0  0  0  0  0  0  0  0  0  0  0
  -14.0667  -38.6437  -10.6234 C   0  0  0  0  0  0  0  0  0  0  0  0
  -12.9713  -38.7545   -9.8620 N   0  0  0  0  0  0  0  0  0  0  0  0
  -11.9092  -38.8405  -10.6333 O   0  0  0  0  0  0  0  0  0  0  0  0
  -15.4654  -38.5304  -10.0643 C   0  0  0  0  0  0  0  0  0  0  0  0
  -16.1382  -37.3668  -10.7947 C   0  0  0  0  0  0  0  0  0  0  0  0
  -16.1977  -39.7856  -10.4227 C   0  0  0  0  0  0  0  0  0  0  0  0
  -15.3160  -38.2471   -8.6826 N   0  0  0  0  0  0  0  0  0  0  0  0
  -15.4508  -39.2742   -7.7270 C   0  0  0  0  0  0  0  0  0  0  0  0
  -16.6961  -39.1754   -6.9426 C   0  0  1  0  0  0  0  0  0  0  0  0
  -17.2547  -37.9034   -6.9108 O   0  0  0  0  0  0  0  0  0  0  0  0
  -17.7568  -40.2076   -7.3763 C   0  0  2  0  0  0  0  0  0  0  0  0
  -18.8254  -40.4281   -6.3822 C   0  0  0  0  0  0  0  0  0  0  0  0
  -20.1791  -39.8687   -6.7232 C   0  0  0  0  0  0  0  0  0  0  0  0
  -20.9989  -40.1098   -7.7939 C   0  0  0  0  0  0  0  0  0  0  0  0
  -22.2327  -39.4735   -7.8371 C   0  0  0  0  0  0  0  0  0  0  0  0
  -22.6193  -38.6005   -6.8018 C   0  0  0  0  0  0  0  0  0  0  0  0
  -21.8204  -38.3390   -5.7194 C   0  0  0  0  0  0  0  0  0  0  0  0
  -20.6177  -38.9811   -5.7064 C   0  0  0  0  0  0  0  0  0  0  0  0
  -23.2195  -39.5625   -8.8018 O   0  0  0  0  0  0  0  0  0  0  0  0
  -24.0020  -40.5813   -9.3422 C   0  0  0  0  0  0  0  0  0  0  0  0
  -23.7417  -41.9508   -8.7703 C   0  0  0  0  0  0  0  0  0  0  0  0
  -23.9615  -42.9656   -9.8455 C   0  0  0  0  0  0  0  0  0  0  0  0
  -22.6725  -43.2192  -10.5617 C   0  0  0  0  0  0  0  0  0  0  0  0
  -21.8217  -44.1498   -9.9603 O   0  0  0  0  0  0  0  0  0  0  0  0
  -20.8137  -44.0672   -9.0065 C   0  0  0  0  0  0  0  0  0  0  0  0
  -21.1333  -44.8538   -7.8831 C   0  0  0  0  0  0  0  0  0  0  0  0
  -20.3145  -44.9491   -6.7943 C   0  0  0  0  0  0  0  0  0  0  0  0
  -20.6968  -45.9206   -5.3938 Cl  0  0  0  0  0  0  0  0  0  0  0  0
  -19.1535  -44.2264   -6.8625 C   0  0  0  0  0  0  0  0  0  0  0  0
  -18.7922  -43.4207   -7.9760 C   0  0  0  0  0  0  0  0  0  0  0  0
  -19.6353  -43.3456   -9.0600 C   0  0  0  0  0  0  0  0  0  0  0  0
  -17.5022  -42.7563   -7.6973 C   0  0  0  0  0  0  0  0  0  0  0  0
  -16.6057  -43.5897   -7.2171 O   0  0  0  0  0  0  0  0  0  0  0  0
  -17.1058  -41.4026   -7.8636 N   0  0  0  0  0  0  0  0  0  0  0  0
  1  2  1  0
  2  3  1  0
  2  4  1  0
  2  5  1  0
  5  6  1  0
  6  7  2  0
  7  8  1  0
  8  9  2  0
  9 10  1  0
  8 11  1  0
 11 12  1  0
 11 13  1  0
 11 14  1  0
 14 15  1  0
 15 16  1  0
 16 17  1  6
 16 18  1  0
 18 19  1  1
 19 20  1  0
 20 21  2  0
 21 22  1  0
 22 23  2  0
 23 24  1  0
 24 25  2  0
 22 26  1  0
 26 27  1  0
 27 28  1  0
 28 29  1  0
 29 30  1  0
 30 31  1  0
 31 32  1  0
 32 33  2  0
 33 34  1  0
 34 35  1  0
 34 36  2  0
 36 37  1  0
 37 38  2  0
 37 39  1  0
 39 40  2  0
 39 41  1  0
 10  6  1  0
 25 20  1  0
 38 32  1  0
 41 18  1  0
M  END
$$$$
