
     RDKit          3D

 41 44  0  0  0  0  0  0  0  0999 V2000
  -15.0714  -34.2019  -13.8224 C   0  0  0  0  0  0  0  0  0  0  0  0
  -14.2030  -35.3125  -13.2562 C   0  0  0  0  0  0  0  0  0  0  0  0
  -13.6909  -36.1074  -14.4462 C   0  0  0  0  0  0  0  0  0  0  0  0
  -13.0645  -34.6474  -12.5165 C   0  0  0  0  0  0  0  0  0  0  0  0
  -15.0629  -36.1486  -12.3555 C   0  0  0  0  0  0  0  0  0  0  0  0
  -14.3270  -37.2482  -11.7076 C   0  0  0  0  0  0  0  0  0  0  0  0
  -14.8535  -38.5416  -11.5352 C   0  0  0  0  0  0  0  0  0  0  0  0
  -13.9167  -39.3061  -10.9050 C   0  0  0  0  0  0  0  0  0  0  0  0
  -12.8681  -38.4977  -10.7075 N   0  0  0  0  0  0  0  0  0  0  0  0
  -13.1398  -37.3036  -11.1876 O   0  0  0  0  0  0  0  0  0  0  0  0
  -13.9459  -40.7558  -10.4816 C   0  0  0  0  0  0  0  0  0  0  0  0
  -14.6481  -41.5269  -11.6007 C   0  0  0  0  0  0  0  0  0  0  0  0
  -12.5293  -41.2337  -10.4102 C   0  0  0  0  0  0  0  0  0  0  0  0
  -14.6994  -40.8009   -9.2808 N   0  0  0  0  0  0  0  0  0  0  0  0
  -14.9151  -39.6268   -8.5316 C   0  0  0  0  0  0  0  0  0  0  0  0
  -15.7711  -39.8432   -7.3499 C   0  0  1  0  0  0  0  0  0  0  0  0
  -15.9984  -38.7026   -6.5895 O   0  0  0  0  0  0  0  0  0  0  0  0
  -17.1117  -40.5199   -7.7012 C   0  0  2  0  0  0  0  0  0  0  0  0
  -17.8950  -40.9518   -6.5271 C   0  0  0  0  0  0  0  0  0  0  0  0
  -19.1304  -40.1516   -6.2188 C   0  0  0  0  0  0  0  0  0  0  0  0
  -20.2402  -39.8967   -6.9805 C   0  0  0  0  0  0  0  0  0  0  0  0
  -21.2660  -39.1454   -6.4218 C   0  0  0  0  0  0  0  0  0  0  0  0
  -21.1554  -38.6592   -5.1045 C   0  0  0  0  0  0  0  0  0  0  0  0
  -20.0576  -38.8969   -4.3193 C   0  0  0  0  0  0  0  0  0  0  0  0
  -19.0703  -39.6391   -4.8967 C   0  0  0  0  0  0  0  0  0  0  0  0
  -22.4698  -38.7674   -6.9877 O   0  0  0  0  0  0  0  0  0  0  0  0
  -23.5754  -39.4266   -7.5220 C   0  0  0  0  0  0  0  0  0  0  0  0
  -23.4832  -40.9305   -7.5092 C   0  0  0  0  0  0  0  0  0  0  0  0
  -24.2043  -41.4622   -8.7056 C   0  0  0  0  0  0  0  0  0  0  0  0
  -23.2454  -41.5947   -9.8466 C   0  0  0  0  0  0  0  0  0  0  0  0
  -22.4941  -42.7723   -9.8688 O   0  0  0  0  0  0  0  0  0  0  0  0
  -21.2748  -43.1548   -9.3213 C   0  0  0  0  0  0  0  0  0  0  0  0
  -21.4478  -44.2461   -8.4485 C   0  0  0  0  0  0  0  0  0  0  0  0
  -20.4092  -44.8192   -7.7718 C   0  0  0  0  0  0  0  0  0  0  0  0
  -20.6076  -46.1732   -6.6862 Cl  0  0  0  0  0  0  0  0  0  0  0  0
  -19.1785  -44.2625   -7.9960 C   0  0  0  0  0  0  0  0  0  0  0  0
  -18.9595  -43.1619   -8.8680 C   0  0  0  0  0  0  0  0  0  0  0  0
  -20.0241  -42.6064   -9.5385 C   0  0  0  0  0  0  0  0  0  0  0  0
  -17.5276  -42.7981   -8.8417 C   0  0  0  0  0  0  0  0  0  0  0  0
  -16.7443  -43.8477   -8.9580 O   0  0  0  0  0  0  0  0  0  0  0  0
  -16.8991  -41.5311   -8.7120 N   0  0  0  0  0  0  0  0  0  0  0  0
  1  2  1  0
  2  3  1  0
  2  4  1  0
  2  5  1  0
  5  6  1  0
  6  7  2  0
  7  8  1  0
  8  9  2  0
  9 10  1  0
  8 11  1  0
 11 12  1  0
 11 13  1  0
 11 14  1  0
 14 15  1  0
 15 16  1  0
 16 17  1  6
 16 18  1  0
 18 19  1  1
 19 20  1  0
 20 21  2  0
 21 22  1  0
 22 23  2  0
 23 24  1  0
 24 25  2  0
 22 26  1  0
 26 27  1  0
 27 28  1  0
 28 29  1  0
 29 30  1  0
 30 31  1  0
 31 32  1  0
 32 33  2  0
 33 34  1  0
 34 35  1  0
 34 36  2  0
 36 37  1  0
 37 38  2  0
 37 39  1  0
 39 40  2  0
 39 41  1  0
 10  6  1  0
 25 20  1  0
 38 32  1  0
 41 18  1  0
M  END
$$$$
