
     RDKit          3D

 41 44  0  0  0  0  0  0  0  0999 V2000
  -18.7106  -42.6993  -10.1347 C   0  0  0  0  0  0  0  0  0  0  0  0
  -18.9951  -42.3236  -11.5791 C   0  0  0  0  0  0  0  0  0  0  0  0
  -19.6663  -43.5309  -12.2135 C   0  0  0  0  0  0  0  0  0  0  0  0
  -19.9296  -41.1356  -11.5491 C   0  0  0  0  0  0  0  0  0  0  0  0
  -17.6834  -42.0067  -12.2339 C   0  0  0  0  0  0  0  0  0  0  0  0
  -16.6015  -41.7451  -11.2687 C   0  0  0  0  0  0  0  0  0  0  0  0
  -15.8579  -40.5510  -11.2380 C   0  0  0  0  0  0  0  0  0  0  0  0
  -14.9445  -40.6397  -10.2295 C   0  0  0  0  0  0  0  0  0  0  0  0
  -15.1355  -41.8443   -9.6778 N   0  0  0  0  0  0  0  0  0  0  0  0
  -16.1099  -42.4643  -10.3074 O   0  0  0  0  0  0  0  0  0  0  0  0
  -13.9045  -39.6554   -9.7484 C   0  0  0  0  0  0  0  0  0  0  0  0
  -12.7080  -40.4790   -9.2686 C   0  0  0  0  0  0  0  0  0  0  0  0
  -13.4656  -38.8490  -10.9305 C   0  0  0  0  0  0  0  0  0  0  0  0
  -14.4996  -38.9467   -8.6736 N   0  0  0  0  0  0  0  0  0  0  0  0
  -15.2524  -39.6323   -7.6992 C   0  0  0  0  0  0  0  0  0  0  0  0
  -16.4508  -38.8898   -7.2652 C   0  0  1  0  0  0  0  0  0  0  0  0
  -16.6800  -37.7112   -7.9648 O   0  0  0  0  0  0  0  0  0  0  0  0
  -17.7237  -39.7606   -7.2655 C   0  0  2  0  0  0  0  0  0  0  0  0
  -18.7957  -39.2617   -6.3819 C   0  0  0  0  0  0  0  0  0  0  0  0
  -19.9958  -38.6629   -7.0623 C   0  0  0  0  0  0  0  0  0  0  0  0
  -20.8687  -39.2043   -7.9687 C   0  0  0  0  0  0  0  0  0  0  0  0
  -21.9291  -38.4242   -8.4112 C   0  0  0  0  0  0  0  0  0  0  0  0
  -22.0909  -37.1083   -7.9358 C   0  0  0  0  0  0  0  0  0  0  0  0
  -21.2336  -36.5395   -7.0304 C   0  0  0  0  0  0  0  0  0  0  0  0
  -20.2053  -37.3326   -6.6147 C   0  0  0  0  0  0  0  0  0  0  0  0
  -22.9287  -38.7507   -9.3093 O   0  0  0  0  0  0  0  0  0  0  0  0
  -23.9295  -39.7176   -9.3850 C   0  0  0  0  0  0  0  0  0  0  0  0
  -23.9720  -40.6773   -8.2243 C   0  0  0  0  0  0  0  0  0  0  0  0
  -24.4336  -42.0085   -8.7233 C   0  0  0  0  0  0  0  0  0  0  0  0
  -23.2479  -42.8289   -9.1229 C   0  0  0  0  0  0  0  0  0  0  0  0
  -22.6161  -43.5199   -8.0861 O   0  0  0  0  0  0  0  0  0  0  0  0
  -21.5975  -43.2083   -7.1927 C   0  0  0  0  0  0  0  0  0  0  0  0
  -22.0641  -43.2888   -5.8666 C   0  0  0  0  0  0  0  0  0  0  0  0
  -21.2672  -43.0273   -4.7888 C   0  0  0  0  0  0  0  0  0  0  0  0
  -21.8312  -43.1232   -3.1383 Cl  0  0  0  0  0  0  0  0  0  0  0  0
  -19.9754  -42.6789   -5.0793 C   0  0  0  0  0  0  0  0  0  0  0  0
  -19.4636  -42.5859   -6.4018 C   0  0  0  0  0  0  0  0  0  0  0  0
  -20.2886  -42.8575   -7.4682 C   0  0  0  0  0  0  0  0  0  0  0  0
  -18.0526  -42.1510   -6.3478 C   0  0  0  0  0  0  0  0  0  0  0  0
  -17.3568  -42.8250   -5.4589 O   0  0  0  0  0  0  0  0  0  0  0  0
  -17.3662  -41.1495   -7.0849 N   0  0  0  0  0  0  0  0  0  0  0  0
  1  2  1  0
  2  3  1  0
  2  4  1  0
  2  5  1  0
  5  6  1  0
  6  7  2  0
  7  8  1  0
  8  9  2  0
  9 10  1  0
  8 11  1  0
 11 12  1  0
 11 13  1  0
 11 14  1  0
 14 15  1  0
 15 16  1  0
 16 17  1  6
 16 18  1  0
 18 19  1  1
 19 20  1  0
 20 21  2  0
 21 22  1  0
 22 23  2  0
 23 24  1  0
 24 25  2  0
 22 26  1  0
 26 27  1  0
 27 28  1  0
 28 29  1  0
 29 30  1  0
 30 31  1  0
 31 32  1  0
 32 33  2  0
 33 34  1  0
 34 35  1  0
 34 36  2  0
 36 37  1  0
 37 38  2  0
 37 39  1  0
 39 40  2  0
 39 41  1  0
 10  6  1  0
 25 20  1  0
 38 32  1  0
 41 18  1  0
M  END
$$$$
