
     RDKit          3D

 41 44  0  0  0  0  0  0  0  0999 V2000
  -10.7831  -36.2759  -11.0503 C   0  0  0  0  0  0  0  0  0  0  0  0
  -11.2267  -36.6859  -12.4444 C   0  0  0  0  0  0  0  0  0  0  0  0
  -10.7030  -35.6202  -13.3933 C   0  0  0  0  0  0  0  0  0  0  0  0
  -10.5927  -38.0280  -12.7313 C   0  0  0  0  0  0  0  0  0  0  0  0
  -12.7254  -36.7461  -12.4459 C   0  0  0  0  0  0  0  0  0  0  0  0
  -13.2660  -37.7643  -11.5286 C   0  0  0  0  0  0  0  0  0  0  0  0
  -14.4511  -38.4820  -11.7738 C   0  0  0  0  0  0  0  0  0  0  0  0
  -14.6589  -39.3366  -10.7318 C   0  0  0  0  0  0  0  0  0  0  0  0
  -13.6345  -39.1360   -9.8938 N   0  0  0  0  0  0  0  0  0  0  0  0
  -12.8394  -38.2120  -10.3882 O   0  0  0  0  0  0  0  0  0  0  0  0
  -15.7621  -40.3370  -10.4789 C   0  0  0  0  0  0  0  0  0  0  0  0
  -16.9602  -39.8927  -11.3200 C   0  0  0  0  0  0  0  0  0  0  0  0
  -15.2984  -41.6615  -10.9995 C   0  0  0  0  0  0  0  0  0  0  0  0
  -16.0550  -40.2593   -9.0933 N   0  0  0  0  0  0  0  0  0  0  0  0
  -15.9109  -39.0392   -8.4029 C   0  0  0  0  0  0  0  0  0  0  0  0
  -17.1970  -38.4712   -7.9565 C   0  0  1  0  0  0  0  0  0  0  0  0
  -17.8103  -37.6398   -8.8858 O   0  0  0  0  0  0  0  0  0  0  0  0
  -18.1896  -39.5493   -7.4758 C   0  0  2  0  0  0  0  0  0  0  0  0
  -19.1214  -39.0869   -6.4286 C   0  0  0  0  0  0  0  0  0  0  0  0
  -20.5521  -38.8906   -6.8486 C   0  0  0  0  0  0  0  0  0  0  0  0
  -21.4512  -39.7718   -7.3887 C   0  0  0  0  0  0  0  0  0  0  0  0
  -22.7397  -39.3238   -7.6493 C   0  0  0  0  0  0  0  0  0  0  0  0
  -23.1009  -37.9925   -7.3649 C   0  0  0  0  0  0  0  0  0  0  0  0
  -22.2233  -37.0882   -6.8260 C   0  0  0  0  0  0  0  0  0  0  0  0
  -20.9680  -37.5606   -6.5802 C   0  0  0  0  0  0  0  0  0  0  0  0
  -23.8081  -40.0218   -8.1819 O   0  0  0  0  0  0  0  0  0  0  0  0
  -24.5377  -41.1560   -7.8305 C   0  0  0  0  0  0  0  0  0  0  0  0
  -24.0848  -41.8328   -6.5629 C   0  0  0  0  0  0  0  0  0  0  0  0
  -24.3137  -43.3035   -6.7000 C   0  0  0  0  0  0  0  0  0  0  0  0
  -23.0877  -43.9475   -7.2664 C   0  0  0  0  0  0  0  0  0  0  0  0
  -22.0909  -44.2645   -6.3405 O   0  0  0  0  0  0  0  0  0  0  0  0
  -21.0020  -43.5781   -5.8151 C   0  0  0  0  0  0  0  0  0  0  0  0
  -21.1231  -43.4588   -4.4173 C   0  0  0  0  0  0  0  0  0  0  0  0
  -20.1898  -42.8232   -3.6492 C   0  0  0  0  0  0  0  0  0  0  0  0
  -20.3258  -42.6675   -1.9147 Cl  0  0  0  0  0  0  0  0  0  0  0  0
  -19.1197  -42.3043   -4.3277 C   0  0  0  0  0  0  0  0  0  0  0  0
  -18.9582  -42.4022   -5.7362 C   0  0  0  0  0  0  0  0  0  0  0  0
  -19.9130  -43.0504   -6.4843 C   0  0  0  0  0  0  0  0  0  0  0  0
  -17.7183  -41.7032   -6.1332 C   0  0  0  0  0  0  0  0  0  0  0  0
  -16.6985  -42.0234   -5.3676 O   0  0  0  0  0  0  0  0  0  0  0  0
  -17.4777  -40.7715   -7.1778 N   0  0  0  0  0  0  0  0  0  0  0  0
  1  2  1  0
  2  3  1  0
  2  4  1  0
  2  5  1  0
  5  6  1  0
  6  7  2  0
  7  8  1  0
  8  9  2  0
  9 10  1  0
  8 11  1  0
 11 12  1  0
 11 13  1  0
 11 14  1  0
 14 15  1  0
 15 16  1  0
 16 17  1  6
 16 18  1  0
 18 19  1  1
 19 20  1  0
 20 21  2  0
 21 22  1  0
 22 23  2  0
 23 24  1  0
 24 25  2  0
 22 26  1  0
 26 27  1  0
 27 28  1  0
 28 29  1  0
 29 30  1  0
 30 31  1  0
 31 32  1  0
 32 33  2  0
 33 34  1  0
 34 35  1  0
 34 36  2  0
 36 37  1  0
 37 38  2  0
 37 39  1  0
 39 40  2  0
 39 41  1  0
 10  6  1  0
 25 20  1  0
 38 32  1  0
 41 18  1  0
M  END
$$$$
