
     RDKit          3D

 41 44  0  0  0  0  0  0  0  0999 V2000
  -12.0053  -33.9975  -12.8548 C   0  0  0  0  0  0  0  0  0  0  0  0
  -12.8940  -35.1915  -12.5499 C   0  0  0  0  0  0  0  0  0  0  0  0
  -13.6173  -34.8692  -11.2524 C   0  0  0  0  0  0  0  0  0  0  0  0
  -13.8689  -35.3193  -13.6983 C   0  0  0  0  0  0  0  0  0  0  0  0
  -12.0086  -36.3942  -12.4109 C   0  0  0  0  0  0  0  0  0  0  0  0
  -12.7397  -37.6097  -12.0126 C   0  0  0  0  0  0  0  0  0  0  0  0
  -12.7380  -38.1250  -10.7033 C   0  0  0  0  0  0  0  0  0  0  0  0
  -13.5096  -39.2491  -10.6833 C   0  0  0  0  0  0  0  0  0  0  0  0
  -13.9558  -39.4000  -11.9363 N   0  0  0  0  0  0  0  0  0  0  0  0
  -13.4884  -38.4265  -12.6874 O   0  0  0  0  0  0  0  0  0  0  0  0
  -13.8581  -40.1886   -9.5530 C   0  0  0  0  0  0  0  0  0  0  0  0
  -13.8736  -41.5999  -10.1430 C   0  0  0  0  0  0  0  0  0  0  0  0
  -12.7489  -40.1196   -8.5505 C   0  0  0  0  0  0  0  0  0  0  0  0
  -15.1498  -39.8079   -9.1077 N   0  0  0  0  0  0  0  0  0  0  0  0
  -16.2526  -40.6620   -9.3098 C   0  0  0  0  0  0  0  0  0  0  0  0
  -17.5391  -39.9426   -9.3673 C   0  0  1  0  0  0  0  0  0  0  0  0
  -18.0481  -39.7790  -10.6499 O   0  0  0  0  0  0  0  0  0  0  0  0
  -18.6107  -40.5643   -8.4487 C   0  0  2  0  0  0  0  0  0  0  0  0
  -19.4315  -39.5744   -7.7240 C   0  0  0  0  0  0  0  0  0  0  0  0
  -20.8546  -39.4222   -8.1858 C   0  0  0  0  0  0  0  0  0  0  0  0
  -21.8683  -40.3402   -8.2664 C   0  0  0  0  0  0  0  0  0  0  0  0
  -23.1155  -39.9100   -8.7004 C   0  0  0  0  0  0  0  0  0  0  0  0
  -23.3206  -38.5612   -9.0502 C   0  0  0  0  0  0  0  0  0  0  0  0
  -22.3260  -37.6208   -8.9809 C   0  0  0  0  0  0  0  0  0  0  0  0
  -21.1151  -38.0753   -8.5491 C   0  0  0  0  0  0  0  0  0  0  0  0
  -24.2779  -40.6425   -8.8573 O   0  0  0  0  0  0  0  0  0  0  0  0
  -25.1013  -41.4029   -8.0290 C   0  0  0  0  0  0  0  0  0  0  0  0
  -24.6531  -41.4843   -6.5927 C   0  0  0  0  0  0  0  0  0  0  0  0
  -25.0406  -42.8211   -6.0478 C   0  0  0  0  0  0  0  0  0  0  0  0
  -23.9206  -43.7898   -6.2621 C   0  0  0  0  0  0  0  0  0  0  0  0
  -22.9134  -43.7702   -5.2943 O   0  0  0  0  0  0  0  0  0  0  0  0
  -21.7323  -43.0536   -5.1385 C   0  0  0  0  0  0  0  0  0  0  0  0
  -21.7645  -42.3046   -3.9466 C   0  0  0  0  0  0  0  0  0  0  0  0
  -20.7301  -41.5054   -3.5513 C   0  0  0  0  0  0  0  0  0  0  0  0
  -20.7550  -40.5707   -2.0758 Cl  0  0  0  0  0  0  0  0  0  0  0  0
  -19.6502  -41.4768   -4.3926 C   0  0  0  0  0  0  0  0  0  0  0  0
  -19.5761  -42.2165   -5.6037 C   0  0  0  0  0  0  0  0  0  0  0  0
  -20.6322  -43.0153   -5.9754 C   0  0  0  0  0  0  0  0  0  0  0  0
  -18.2938  -41.9217   -6.2760 C   0  0  0  0  0  0  0  0  0  0  0  0
  -17.2728  -41.9799   -5.4496 O   0  0  0  0  0  0  0  0  0  0  0  0
  -18.0145  -41.5954   -7.6298 N   0  0  0  0  0  0  0  0  0  0  0  0
  1  2  1  0
  2  3  1  0
  2  4  1  0
  2  5  1  0
  5  6  1  0
  6  7  2  0
  7  8  1  0
  8  9  2  0
  9 10  1  0
  8 11  1  0
 11 12  1  0
 11 13  1  0
 11 14  1  0
 14 15  1  0
 15 16  1  0
 16 17  1  6
 16 18  1  0
 18 19  1  1
 19 20  1  0
 20 21  2  0
 21 22  1  0
 22 23  2  0
 23 24  1  0
 24 25  2  0
 22 26  1  0
 26 27  1  0
 27 28  1  0
 28 29  1  0
 29 30  1  0
 30 31  1  0
 31 32  1  0
 32 33  2  0
 33 34  1  0
 34 35  1  0
 34 36  2  0
 36 37  1  0
 37 38  2  0
 37 39  1  0
 39 40  2  0
 39 41  1  0
 10  6  1  0
 25 20  1  0
 38 32  1  0
 41 18  1  0
M  END
$$$$
