
     RDKit          3D

 41 44  0  0  0  0  0  0  0  0999 V2000
  -11.2282  -35.6005  -11.6962 C   0  0  0  0  0  0  0  0  0  0  0  0
  -10.4883  -36.3204  -12.8109 C   0  0  0  0  0  0  0  0  0  0  0  0
  -11.2488  -36.0243  -14.0933 C   0  0  0  0  0  0  0  0  0  0  0  0
   -9.0933  -35.7398  -12.8599 C   0  0  0  0  0  0  0  0  0  0  0  0
  -10.4903  -37.7849  -12.4869 C   0  0  0  0  0  0  0  0  0  0  0  0
  -11.8403  -38.3244  -12.2484 C   0  0  0  0  0  0  0  0  0  0  0  0
  -12.1720  -39.1315  -11.1445 C   0  0  0  0  0  0  0  0  0  0  0  0
  -13.4942  -39.4535  -11.2299 C   0  0  0  0  0  0  0  0  0  0  0  0
  -13.9363  -38.8602  -12.3455 N   0  0  0  0  0  0  0  0  0  0  0  0
  -12.9463  -38.2091  -12.9165 O   0  0  0  0  0  0  0  0  0  0  0  0
  -14.3703  -40.2826  -10.3206 C   0  0  0  0  0  0  0  0  0  0  0  0
  -14.0053  -41.7465  -10.5728 C   0  0  0  0  0  0  0  0  0  0  0  0
  -13.9979  -39.9505   -8.9095 C   0  0  0  0  0  0  0  0  0  0  0  0
  -15.7076  -40.0160  -10.7108 N   0  0  0  0  0  0  0  0  0  0  0  0
  -16.7487  -40.8823  -10.3210 C   0  0  0  0  0  0  0  0  0  0  0  0
  -18.0459  -40.1967  -10.1688 C   0  0  1  0  0  0  0  0  0  0  0  0
  -18.8734  -40.2809  -11.2820 O   0  0  0  0  0  0  0  0  0  0  0  0
  -18.8112  -40.6432   -8.9065 C   0  0  2  0  0  0  0  0  0  0  0  0
  -19.1686  -39.5380   -7.9956 C   0  0  0  0  0  0  0  0  0  0  0  0
  -20.6231  -39.1588   -7.9460 C   0  0  0  0  0  0  0  0  0  0  0  0
  -21.7275  -39.9030   -7.6250 C   0  0  0  0  0  0  0  0  0  0  0  0
  -22.9676  -39.2775   -7.6243 C   0  0  0  0  0  0  0  0  0  0  0  0
  -23.0755  -37.9118   -7.9513 C   0  0  0  0  0  0  0  0  0  0  0  0
  -21.9893  -37.1425   -8.2777 C   0  0  0  0  0  0  0  0  0  0  0  0
  -20.7872  -37.7861   -8.2666 C   0  0  0  0  0  0  0  0  0  0  0  0
  -24.2082  -39.8145   -7.3330 O   0  0  0  0  0  0  0  0  0  0  0  0
  -24.7962  -40.4372   -6.2336 C   0  0  0  0  0  0  0  0  0  0  0  0
  -23.8936  -40.5950   -5.0375 C   0  0  0  0  0  0  0  0  0  0  0  0
  -24.2641  -41.8551   -4.3241 C   0  0  0  0  0  0  0  0  0  0  0  0
  -23.4488  -42.9892   -4.8606 C   0  0  0  0  0  0  0  0  0  0  0  0
  -22.1769  -43.1346   -4.3014 O   0  0  0  0  0  0  0  0  0  0  0  0
  -20.9219  -42.6162   -4.5993 C   0  0  0  0  0  0  0  0  0  0  0  0
  -20.4234  -41.8766   -3.5098 C   0  0  0  0  0  0  0  0  0  0  0  0
  -19.2080  -41.2543   -3.5370 C   0  0  0  0  0  0  0  0  0  0  0  0
  -18.5760  -40.3338   -2.1937 Cl  0  0  0  0  0  0  0  0  0  0  0  0
  -18.4977  -41.3950   -4.6990 C   0  0  0  0  0  0  0  0  0  0  0  0
  -18.9628  -42.1319   -5.8216 C   0  0  0  0  0  0  0  0  0  0  0  0
  -20.1899  -42.7505   -5.7648 C   0  0  0  0  0  0  0  0  0  0  0  0
  -17.9661  -42.0428   -6.9087 C   0  0  0  0  0  0  0  0  0  0  0  0
  -16.7425  -42.2666   -6.4829 O   0  0  0  0  0  0  0  0  0  0  0  0
  -18.1301  -41.7596   -8.2908 N   0  0  0  0  0  0  0  0  0  0  0  0
  1  2  1  0
  2  3  1  0
  2  4  1  0
  2  5  1  0
  5  6  1  0
  6  7  2  0
  7  8  1  0
  8  9  2  0
  9 10  1  0
  8 11  1  0
 11 12  1  0
 11 13  1  0
 11 14  1  0
 14 15  1  0
 15 16  1  0
 16 17  1  6
 16 18  1  0
 18 19  1  1
 19 20  1  0
 20 21  2  0
 21 22  1  0
 22 23  2  0
 23 24  1  0
 24 25  2  0
 22 26  1  0
 26 27  1  0
 27 28  1  0
 28 29  1  0
 29 30  1  0
 30 31  1  0
 31 32  1  0
 32 33  2  0
 33 34  1  0
 34 35  1  0
 34 36  2  0
 36 37  1  0
 37 38  2  0
 37 39  1  0
 39 40  2  0
 39 41  1  0
 10  6  1  0
 25 20  1  0
 38 32  1  0
 41 18  1  0
M  END
$$$$
