
     RDKit          3D

 41 44  0  0  0  0  0  0  0  0999 V2000
  -11.8427  -35.9951  -12.9776 C   0  0  0  0  0  0  0  0  0  0  0  0
  -13.1100  -36.4914  -13.6527 C   0  0  0  0  0  0  0  0  0  0  0  0
  -13.5990  -35.3563  -14.5375 C   0  0  0  0  0  0  0  0  0  0  0  0
  -12.7253  -37.6976  -14.4790 C   0  0  0  0  0  0  0  0  0  0  0  0
  -14.0991  -36.8245  -12.5755 C   0  0  0  0  0  0  0  0  0  0  0  0
  -13.5963  -37.8216  -11.6144 C   0  0  0  0  0  0  0  0  0  0  0  0
  -14.4151  -38.7760  -10.9831 C   0  0  0  0  0  0  0  0  0  0  0  0
  -13.6348  -39.5360  -10.1629 C   0  0  0  0  0  0  0  0  0  0  0  0
  -12.3941  -39.0523  -10.2991 N   0  0  0  0  0  0  0  0  0  0  0  0
  -12.4058  -38.0523  -11.1536 O   0  0  0  0  0  0  0  0  0  0  0  0
  -13.9854  -40.6961   -9.2612 C   0  0  0  0  0  0  0  0  0  0  0  0
  -14.9721  -41.5722  -10.0351 C   0  0  0  0  0  0  0  0  0  0  0  0
  -12.7361  -41.4908   -9.0419 C   0  0  0  0  0  0  0  0  0  0  0  0
  -14.5967  -40.1320   -8.1124 N   0  0  0  0  0  0  0  0  0  0  0  0
  -15.3066  -38.9182   -8.2077 C   0  0  0  0  0  0  0  0  0  0  0  0
  -16.2553  -38.7137   -7.0968 C   0  0  1  0  0  0  0  0  0  0  0  0
  -16.6201  -37.3888   -6.8904 O   0  0  0  0  0  0  0  0  0  0  0  0
  -17.5146  -39.5957   -7.2189 C   0  0  2  0  0  0  0  0  0  0  0  0
  -18.6611  -39.1239   -6.4177 C   0  0  0  0  0  0  0  0  0  0  0  0
  -19.8071  -38.5226   -7.1835 C   0  0  0  0  0  0  0  0  0  0  0  0
  -20.5965  -39.0537   -8.1692 C   0  0  0  0  0  0  0  0  0  0  0  0
  -21.6250  -38.2745   -8.6830 C   0  0  0  0  0  0  0  0  0  0  0  0
  -21.8393  -36.9698   -8.1977 C   0  0  0  0  0  0  0  0  0  0  0  0
  -21.0657  -36.4114   -7.2139 C   0  0  0  0  0  0  0  0  0  0  0  0
  -20.0669  -37.2032   -6.7297 C   0  0  0  0  0  0  0  0  0  0  0  0
  -22.5436  -38.5921   -9.6667 O   0  0  0  0  0  0  0  0  0  0  0  0
  -23.5244  -39.5662   -9.8433 C   0  0  0  0  0  0  0  0  0  0  0  0
  -23.6525  -40.5490   -8.7084 C   0  0  0  0  0  0  0  0  0  0  0  0
  -24.0573  -41.8741   -9.2691 C   0  0  0  0  0  0  0  0  0  0  0  0
  -22.8340  -42.6759   -9.5846 C   0  0  0  0  0  0  0  0  0  0  0  0
  -22.2827  -43.3816   -8.5124 O   0  0  0  0  0  0  0  0  0  0  0  0
  -21.3447  -43.0786   -7.5321 C   0  0  0  0  0  0  0  0  0  0  0  0
  -21.9183  -43.1894   -6.2509 C   0  0  0  0  0  0  0  0  0  0  0  0
  -21.2159  -42.9422   -5.1061 C   0  0  0  0  0  0  0  0  0  0  0  0
  -21.9131  -43.0757   -3.5101 Cl  0  0  0  0  0  0  0  0  0  0  0  0
  -19.9082  -42.5766   -5.2821 C   0  0  0  0  0  0  0  0  0  0  0  0
  -19.2901  -42.4529   -6.5558 C   0  0  0  0  0  0  0  0  0  0  0  0
  -20.0213  -42.7108   -7.6917 C   0  0  0  0  0  0  0  0  0  0  0  0
  -17.8929  -42.0065   -6.3770 C   0  0  0  0  0  0  0  0  0  0  0  0
  -17.2658  -42.6917   -5.4465 O   0  0  0  0  0  0  0  0  0  0  0  0
  -17.1586  -40.9846   -7.0356 N   0  0  0  0  0  0  0  0  0  0  0  0
  1  2  1  0
  2  3  1  0
  2  4  1  0
  2  5  1  0
  5  6  1  0
  6  7  2  0
  7  8  1  0
  8  9  2  0
  9 10  1  0
  8 11  1  0
 11 12  1  0
 11 13  1  0
 11 14  1  0
 14 15  1  0
 15 16  1  0
 16 17  1  6
 16 18  1  0
 18 19  1  1
 19 20  1  0
 20 21  2  0
 21 22  1  0
 22 23  2  0
 23 24  1  0
 24 25  2  0
 22 26  1  0
 26 27  1  0
 27 28  1  0
 28 29  1  0
 29 30  1  0
 30 31  1  0
 31 32  1  0
 32 33  2  0
 33 34  1  0
 34 35  1  0
 34 36  2  0
 36 37  1  0
 37 38  2  0
 37 39  1  0
 39 40  2  0
 39 41  1  0
 10  6  1  0
 25 20  1  0
 38 32  1  0
 41 18  1  0
M  END
$$$$
