
     RDKit          3D

 41 44  0  0  0  0  0  0  0  0999 V2000
  -12.9465  -35.3833  -12.2878 C   0  0  0  0  0  0  0  0  0  0  0  0
  -14.2794  -35.4320  -13.0154 C   0  0  0  0  0  0  0  0  0  0  0  0
  -15.2501  -34.6021  -12.1911 C   0  0  0  0  0  0  0  0  0  0  0  0
  -14.0596  -34.8162  -14.3785 C   0  0  0  0  0  0  0  0  0  0  0  0
  -14.7023  -36.8688  -13.0952 C   0  0  0  0  0  0  0  0  0  0  0  0
  -14.8057  -37.5171  -11.7763 C   0  0  0  0  0  0  0  0  0  0  0  0
  -13.8653  -38.4432  -11.2885 C   0  0  0  0  0  0  0  0  0  0  0  0
  -14.2613  -38.8437  -10.0467 C   0  0  0  0  0  0  0  0  0  0  0  0
  -15.3982  -38.1807   -9.8019 N   0  0  0  0  0  0  0  0  0  0  0  0
  -15.6884  -37.4148  -10.8311 O   0  0  0  0  0  0  0  0  0  0  0  0
  -13.6306  -39.8099   -9.0719 C   0  0  0  0  0  0  0  0  0  0  0  0
  -14.0874  -41.2108   -9.4833 C   0  0  0  0  0  0  0  0  0  0  0  0
  -12.1474  -39.7349   -9.2579 C   0  0  0  0  0  0  0  0  0  0  0  0
  -14.1349  -39.4646   -7.7921 N   0  0  0  0  0  0  0  0  0  0  0  0
  -15.1453  -40.2424   -7.1917 C   0  0  0  0  0  0  0  0  0  0  0  0
  -16.3990  -39.4958   -6.9755 C   0  0  1  0  0  0  0  0  0  0  0  0
  -16.4334  -38.2450   -7.5799 O   0  0  0  0  0  0  0  0  0  0  0  0
  -17.6506  -40.3070   -7.3680 C   0  0  2  0  0  0  0  0  0  0  0  0
  -18.6085  -40.5098   -6.2635 C   0  0  0  0  0  0  0  0  0  0  0  0
  -19.8925  -39.7309   -6.3430 C   0  0  0  0  0  0  0  0  0  0  0  0
  -20.8661  -39.7137   -7.3066 C   0  0  0  0  0  0  0  0  0  0  0  0
  -21.9838  -38.9151   -7.1016 C   0  0  0  0  0  0  0  0  0  0  0  0
  -22.1008  -38.1428   -5.9296 C   0  0  0  0  0  0  0  0  0  0  0  0
  -21.1432  -38.1386   -4.9492 C   0  0  0  0  0  0  0  0  0  0  0  0
  -20.0605  -38.9347   -5.1803 C   0  0  0  0  0  0  0  0  0  0  0  0
  -23.0847  -38.7398   -7.9199 O   0  0  0  0  0  0  0  0  0  0  0  0
  -24.0747  -39.5616   -8.4554 C   0  0  0  0  0  0  0  0  0  0  0  0
  -23.9579  -41.0175   -8.0852 C   0  0  0  0  0  0  0  0  0  0  0  0
  -24.4621  -41.8411   -9.2261 C   0  0  0  0  0  0  0  0  0  0  0  0
  -23.3261  -42.1706  -10.1424 C   0  0  0  0  0  0  0  0  0  0  0  0
  -22.5596  -43.2801   -9.7773 O   0  0  0  0  0  0  0  0  0  0  0  0
  -21.4403  -43.4630   -8.9734 C   0  0  0  0  0  0  0  0  0  0  0  0
  -21.7344  -44.3408   -7.9123 C   0  0  0  0  0  0  0  0  0  0  0  0
  -20.8110  -44.6905   -6.9689 C   0  0  0  0  0  0  0  0  0  0  0  0
  -21.1604  -45.7781   -5.6474 Cl  0  0  0  0  0  0  0  0  0  0  0  0
  -19.5708  -44.1303   -7.1193 C   0  0  0  0  0  0  0  0  0  0  0  0
  -19.2316  -43.2407   -8.1743 C   0  0  0  0  0  0  0  0  0  0  0  0
  -20.1813  -42.9082   -9.1119 C   0  0  0  0  0  0  0  0  0  0  0  0
  -17.8306  -42.8013   -8.0085 C   0  0  0  0  0  0  0  0  0  0  0  0
  -17.0195  -43.8054   -7.7581 O   0  0  0  0  0  0  0  0  0  0  0  0
  -17.2556  -41.5043   -8.0751 N   0  0  0  0  0  0  0  0  0  0  0  0
  1  2  1  0
  2  3  1  0
  2  4  1  0
  2  5  1  0
  5  6  1  0
  6  7  2  0
  7  8  1  0
  8  9  2  0
  9 10  1  0
  8 11  1  0
 11 12  1  0
 11 13  1  0
 11 14  1  0
 14 15  1  0
 15 16  1  0
 16 17  1  6
 16 18  1  0
 18 19  1  1
 19 20  1  0
 20 21  2  0
 21 22  1  0
 22 23  2  0
 23 24  1  0
 24 25  2  0
 22 26  1  0
 26 27  1  0
 27 28  1  0
 28 29  1  0
 29 30  1  0
 30 31  1  0
 31 32  1  0
 32 33  2  0
 33 34  1  0
 34 35  1  0
 34 36  2  0
 36 37  1  0
 37 38  2  0
 37 39  1  0
 39 40  2  0
 39 41  1  0
 10  6  1  0
 25 20  1  0
 38 32  1  0
 41 18  1  0
M  END
$$$$
