
     RDKit          3D

 41 44  0  0  0  0  0  0  0  0999 V2000
  -12.2176  -40.6312  -14.4161 C   0  0  0  0  0  0  0  0  0  0  0  0
  -13.1473  -41.8313  -14.3539 C   0  0  0  0  0  0  0  0  0  0  0  0
  -14.5518  -41.3002  -14.5898 C   0  0  0  0  0  0  0  0  0  0  0  0
  -12.7283  -42.7707  -15.4619 C   0  0  0  0  0  0  0  0  0  0  0  0
  -13.0051  -42.4471  -12.9937 C   0  0  0  0  0  0  0  0  0  0  0  0
  -13.4352  -41.5533  -11.9043 C   0  0  0  0  0  0  0  0  0  0  0  0
  -12.6435  -41.2622  -10.7782 C   0  0  0  0  0  0  0  0  0  0  0  0
  -13.3386  -40.4084   -9.9737 C   0  0  0  0  0  0  0  0  0  0  0  0
  -14.5042  -40.1975  -10.5972 N   0  0  0  0  0  0  0  0  0  0  0  0
  -14.5289  -40.8801  -11.7213 O   0  0  0  0  0  0  0  0  0  0  0  0
  -12.9695  -39.7728   -8.6540 C   0  0  0  0  0  0  0  0  0  0  0  0
  -11.8496  -40.6245   -8.0535 C   0  0  0  0  0  0  0  0  0  0  0  0
  -12.4106  -38.4157   -8.9474 C   0  0  0  0  0  0  0  0  0  0  0  0
  -14.1371  -39.8258   -7.8505 N   0  0  0  0  0  0  0  0  0  0  0  0
  -15.0248  -38.7318   -7.8123 C   0  0  0  0  0  0  0  0  0  0  0  0
  -16.1441  -38.9271   -6.8715 C   0  0  1  0  0  0  0  0  0  0  0  0
  -16.7803  -37.7536   -6.4853 O   0  0  0  0  0  0  0  0  0  0  0  0
  -17.1816  -39.9469   -7.3836 C   0  0  2  0  0  0  0  0  0  0  0  0
  -18.3452  -40.1223   -6.4925 C   0  0  0  0  0  0  0  0  0  0  0  0
  -19.6469  -39.5431   -6.9739 C   0  0  0  0  0  0  0  0  0  0  0  0
  -20.3658  -39.7918   -8.1132 C   0  0  0  0  0  0  0  0  0  0  0  0
  -21.5749  -39.1312   -8.2882 C   0  0  0  0  0  0  0  0  0  0  0  0
  -22.0389  -38.2268   -7.3133 C   0  0  0  0  0  0  0  0  0  0  0  0
  -21.3416  -37.9570   -6.1648 C   0  0  0  0  0  0  0  0  0  0  0  0
  -20.1605  -38.6235   -6.0228 C   0  0  0  0  0  0  0  0  0  0  0  0
  -22.4666  -39.2219   -9.3413 O   0  0  0  0  0  0  0  0  0  0  0  0
  -23.2168  -40.2365   -9.9331 C   0  0  0  0  0  0  0  0  0  0  0  0
  -23.0437  -41.5975   -9.3103 C   0  0  0  0  0  0  0  0  0  0  0  0
  -23.1826  -42.6321  -10.3802 C   0  0  0  0  0  0  0  0  0  0  0  0
  -21.8371  -42.9287  -10.9636 C   0  0  0  0  0  0  0  0  0  0  0  0
  -21.0692  -43.8626  -10.2638 O   0  0  0  0  0  0  0  0  0  0  0  0
  -20.1556  -43.7789   -9.2193 C   0  0  0  0  0  0  0  0  0  0  0  0
  -20.5990  -44.5327   -8.1157 C   0  0  0  0  0  0  0  0  0  0  0  0
  -19.8906  -44.6198   -6.9514 C   0  0  0  0  0  0  0  0  0  0  0  0
  -20.4273  -45.5508   -5.5742 Cl  0  0  0  0  0  0  0  0  0  0  0  0
  -18.7123  -43.9231   -6.9227 C   0  0  0  0  0  0  0  0  0  0  0  0
  -18.2278  -43.1509   -8.0129 C   0  0  0  0  0  0  0  0  0  0  0  0
  -18.9613  -43.0833   -9.1743 C   0  0  0  0  0  0  0  0  0  0  0  0
  -16.9555  -42.5071   -7.6253 C   0  0  0  0  0  0  0  0  0  0  0  0
  -16.1284  -43.3475   -7.0437 O   0  0  0  0  0  0  0  0  0  0  0  0
  -16.5143  -41.1660   -7.7809 N   0  0  0  0  0  0  0  0  0  0  0  0
  1  2  1  0
  2  3  1  0
  2  4  1  0
  2  5  1  0
  5  6  1  0
  6  7  2  0
  7  8  1  0
  8  9  2  0
  9 10  1  0
  8 11  1  0
 11 12  1  0
 11 13  1  0
 11 14  1  0
 14 15  1  0
 15 16  1  0
 16 17  1  6
 16 18  1  0
 18 19  1  1
 19 20  1  0
 20 21  2  0
 21 22  1  0
 22 23  2  0
 23 24  1  0
 24 25  2  0
 22 26  1  0
 26 27  1  0
 27 28  1  0
 28 29  1  0
 29 30  1  0
 30 31  1  0
 31 32  1  0
 32 33  2  0
 33 34  1  0
 34 35  1  0
 34 36  2  0
 36 37  1  0
 37 38  2  0
 37 39  1  0
 39 40  2  0
 39 41  1  0
 10  6  1  0
 25 20  1  0
 38 32  1  0
 41 18  1  0
M  END
$$$$
