
     RDKit          3D

 41 44  0  0  0  0  0  0  0  0999 V2000
  -16.2030  -34.0941  -14.5360 C   0  0  0  0  0  0  0  0  0  0  0  0
  -15.8749  -34.2109  -13.0571 C   0  0  0  0  0  0  0  0  0  0  0  0
  -14.3732  -34.4271  -12.9654 C   0  0  0  0  0  0  0  0  0  0  0  0
  -16.2761  -32.9035  -12.4126 C   0  0  0  0  0  0  0  0  0  0  0  0
  -16.6410  -35.3794  -12.5118 C   0  0  0  0  0  0  0  0  0  0  0  0
  -16.4280  -35.5905  -11.0694 C   0  0  0  0  0  0  0  0  0  0  0  0
  -17.0400  -36.6231  -10.3353 C   0  0  0  0  0  0  0  0  0  0  0  0
  -16.6282  -36.5305   -9.0387 C   0  0  0  0  0  0  0  0  0  0  0  0
  -15.8001  -35.4795   -8.9998 N   0  0  0  0  0  0  0  0  0  0  0  0
  -15.7046  -34.9530  -10.2014 O   0  0  0  0  0  0  0  0  0  0  0  0
  -16.9628  -37.3762   -7.8326 C   0  0  0  0  0  0  0  0  0  0  0  0
  -17.3382  -36.4096   -6.7079 C   0  0  0  0  0  0  0  0  0  0  0  0
  -18.1763  -38.1845   -8.1708 C   0  0  0  0  0  0  0  0  0  0  0  0
  -15.7818  -38.0944   -7.5146 N   0  0  0  0  0  0  0  0  0  0  0  0
  -15.7877  -39.0513   -6.4799 C   0  0  0  0  0  0  0  0  0  0  0  0
  -15.7662  -40.4404   -6.9759 C   0  0  1  0  0  0  0  0  0  0  0  0
  -15.0894  -41.3327   -6.1533 O   0  0  0  0  0  0  0  0  0  0  0  0
  -17.1748  -40.9806   -7.2958 C   0  0  2  0  0  0  0  0  0  0  0  0
  -17.3233  -41.5015   -8.6689 C   0  0  0  0  0  0  0  0  0  0  0  0
  -17.4336  -42.9949   -8.8071 C   0  0  0  0  0  0  0  0  0  0  0  0
  -18.3403  -43.8744   -8.2770 C   0  0  0  0  0  0  0  0  0  0  0  0
  -18.2260  -45.2189   -8.6060 C   0  0  0  0  0  0  0  0  0  0  0  0
  -17.1965  -45.6567   -9.4616 C   0  0  0  0  0  0  0  0  0  0  0  0
  -16.2746  -44.8010  -10.0058 C   0  0  0  0  0  0  0  0  0  0  0  0
  -16.4163  -43.4884   -9.6649 C   0  0  0  0  0  0  0  0  0  0  0  0
  -19.0162  -46.2794   -8.2021 O   0  0  0  0  0  0  0  0  0  0  0  0
  -20.3631  -46.6213   -8.3080 C   0  0  0  0  0  0  0  0  0  0  0  0
  -21.2178  -45.6119   -9.0299 C   0  0  0  0  0  0  0  0  0  0  0  0
  -22.5867  -45.6310   -8.4301 C   0  0  0  0  0  0  0  0  0  0  0  0
  -22.6587  -44.6285   -7.3217 C   0  0  0  0  0  0  0  0  0  0  0  0
  -22.9296  -43.3152   -7.7134 O   0  0  0  0  0  0  0  0  0  0  0  0
  -22.1420  -42.2370   -8.1005 C   0  0  0  0  0  0  0  0  0  0  0  0
  -22.4724  -41.8301   -9.4074 C   0  0  0  0  0  0  0  0  0  0  0  0
  -21.8461  -40.7917  -10.0355 C   0  0  0  0  0  0  0  0  0  0  0  0
  -22.2447  -40.2751  -11.6558 Cl  0  0  0  0  0  0  0  0  0  0  0  0
  -20.8685  -40.1650   -9.3100 C   0  0  0  0  0  0  0  0  0  0  0  0
  -20.5039  -40.5427   -7.9895 C   0  0  0  0  0  0  0  0  0  0  0  0
  -21.1537  -41.5909   -7.3808 C   0  0  0  0  0  0  0  0  0  0  0  0
  -19.3947  -39.6833   -7.5266 C   0  0  0  0  0  0  0  0  0  0  0  0
  -19.6155  -38.4101   -7.7695 O   0  0  0  0  0  0  0  0  0  0  0  0
  -18.1725  -40.0186   -6.8853 N   0  0  0  0  0  0  0  0  0  0  0  0
  1  2  1  0
  2  3  1  0
  2  4  1  0
  2  5  1  0
  5  6  1  0
  6  7  2  0
  7  8  1  0
  8  9  2  0
  9 10  1  0
  8 11  1  0
 11 12  1  0
 11 13  1  0
 11 14  1  0
 14 15  1  0
 15 16  1  0
 16 17  1  1
 16 18  1  0
 18 19  1  6
 19 20  1  0
 20 21  2  0
 21 22  1  0
 22 23  2  0
 23 24  1  0
 24 25  2  0
 22 26  1  0
 26 27  1  0
 27 28  1  0
 28 29  1  0
 29 30  1  0
 30 31  1  0
 31 32  1  0
 32 33  2  0
 33 34  1  0
 34 35  1  0
 34 36  2  0
 36 37  1  0
 37 38  2  0
 37 39  1  0
 39 40  2  0
 39 41  1  0
 10  6  1  0
 25 20  1  0
 38 32  1  0
 41 18  1  0
M  END
$$$$
