
     RDKit          3D

 41 44  0  0  0  0  0  0  0  0999 V2000
  -12.1222  -42.8576  -14.5173 C   0  0  0  0  0  0  0  0  0  0  0  0
  -13.5579  -42.3900  -14.6861 C   0  0  0  0  0  0  0  0  0  0  0  0
  -13.4898  -40.9188  -15.0622 C   0  0  0  0  0  0  0  0  0  0  0  0
  -14.1592  -43.2097  -15.8051 C   0  0  0  0  0  0  0  0  0  0  0  0
  -14.2616  -42.5992  -13.3782 C   0  0  0  0  0  0  0  0  0  0  0  0
  -14.2735  -41.3967  -12.5270 C   0  0  0  0  0  0  0  0  0  0  0  0
  -13.3672  -41.1805  -11.4727 C   0  0  0  0  0  0  0  0  0  0  0  0
  -13.6564  -39.9785  -10.8975 C   0  0  0  0  0  0  0  0  0  0  0  0
  -14.6988  -39.4943  -11.5838 N   0  0  0  0  0  0  0  0  0  0  0  0
  -15.0346  -40.3461  -12.5282 O   0  0  0  0  0  0  0  0  0  0  0  0
  -13.0065  -39.2535   -9.7427 C   0  0  0  0  0  0  0  0  0  0  0  0
  -12.4130  -40.3263   -8.8278 C   0  0  0  0  0  0  0  0  0  0  0  0
  -11.8768  -38.4431  -10.2970 C   0  0  0  0  0  0  0  0  0  0  0  0
  -14.0450  -38.5430   -9.0883 N   0  0  0  0  0  0  0  0  0  0  0  0
  -15.3853  -38.7115   -9.4901 C   0  0  0  0  0  0  0  0  0  0  0  0
  -16.3460  -38.5547   -8.3818 C   0  0  1  0  0  0  0  0  0  0  0  0
  -17.0028  -37.3303   -8.3609 O   0  0  0  0  0  0  0  0  0  0  0  0
  -17.3708  -39.7053   -8.3145 C   0  0  2  0  0  0  0  0  0  0  0  0
  -18.2558  -39.6562   -7.1342 C   0  0  0  0  0  0  0  0  0  0  0  0
  -19.6870  -39.2711   -7.3896 C   0  0  0  0  0  0  0  0  0  0  0  0
  -20.6357  -39.8488   -8.1915 C   0  0  0  0  0  0  0  0  0  0  0  0
  -21.9103  -39.2974   -8.2085 C   0  0  0  0  0  0  0  0  0  0  0  0
  -22.2078  -38.1693   -7.4195 C   0  0  0  0  0  0  0  0  0  0  0  0
  -21.2796  -37.5693   -6.6090 C   0  0  0  0  0  0  0  0  0  0  0  0
  -20.0396  -38.1364   -6.6137 C   0  0  0  0  0  0  0  0  0  0  0  0
  -23.0201  -39.7040   -8.9263 O   0  0  0  0  0  0  0  0  0  0  0  0
  -23.7880  -40.8641   -9.0101 C   0  0  0  0  0  0  0  0  0  0  0  0
  -23.3323  -41.9908   -8.1196 C   0  0  0  0  0  0  0  0  0  0  0  0
  -23.6264  -43.2871   -8.8033 C   0  0  0  0  0  0  0  0  0  0  0  0
  -22.4433  -43.6980   -9.6218 C   0  0  0  0  0  0  0  0  0  0  0  0
  -21.4377  -44.3769   -8.9293 O   0  0  0  0  0  0  0  0  0  0  0  0
  -20.3081  -43.9788   -8.2235 C   0  0  0  0  0  0  0  0  0  0  0  0
  -20.3890  -44.4051   -6.8839 C   0  0  0  0  0  0  0  0  0  0  0  0
  -19.4108  -44.1430   -5.9677 C   0  0  0  0  0  0  0  0  0  0  0  0
  -19.4965  -44.6653   -4.3030 Cl  0  0  0  0  0  0  0  0  0  0  0  0
  -18.3371  -43.4339   -6.4357 C   0  0  0  0  0  0  0  0  0  0  0  0
  -18.2152  -42.9849   -7.7785 C   0  0  0  0  0  0  0  0  0  0  0  0
  -19.2149  -43.2657   -8.6802 C   0  0  0  0  0  0  0  0  0  0  0  0
  -16.9573  -42.2234   -7.9243 C   0  0  0  0  0  0  0  0  0  0  0  0
  -15.9331  -42.8441   -7.3818 O   0  0  0  0  0  0  0  0  0  0  0  0
  -16.7038  -40.9680   -8.5383 N   0  0  0  0  0  0  0  0  0  0  0  0
  1  2  1  0
  2  3  1  0
  2  4  1  0
  2  5  1  0
  5  6  1  0
  6  7  2  0
  7  8  1  0
  8  9  2  0
  9 10  1  0
  8 11  1  0
 11 12  1  0
 11 13  1  0
 11 14  1  0
 14 15  1  0
 15 16  1  0
 16 17  1  6
 16 18  1  0
 18 19  1  1
 19 20  1  0
 20 21  2  0
 21 22  1  0
 22 23  2  0
 23 24  1  0
 24 25  2  0
 22 26  1  0
 26 27  1  0
 27 28  1  0
 28 29  1  0
 29 30  1  0
 30 31  1  0
 31 32  1  0
 32 33  2  0
 33 34  1  0
 34 35  1  0
 34 36  2  0
 36 37  1  0
 37 38  2  0
 37 39  1  0
 39 40  2  0
 39 41  1  0
 10  6  1  0
 25 20  1  0
 38 32  1  0
 41 18  1  0
M  END
$$$$
