
     RDKit          3D

 41 44  0  0  0  0  0  0  0  0999 V2000
  -19.7165  -44.3444   -7.9297 C   0  0  0  0  0  0  0  0  0  0  0  0
  -19.1678  -44.8430   -9.2558 C   0  0  0  0  0  0  0  0  0  0  0  0
  -19.9154  -46.1273   -9.5751 C   0  0  0  0  0  0  0  0  0  0  0  0
  -19.4610  -43.7737  -10.2836 C   0  0  0  0  0  0  0  0  0  0  0  0
  -17.6978  -45.0827   -9.0790 C   0  0  0  0  0  0  0  0  0  0  0  0
  -16.8632  -44.0017   -9.6318 C   0  0  0  0  0  0  0  0  0  0  0  0
  -16.0099  -43.2005   -8.8508 C   0  0  0  0  0  0  0  0  0  0  0  0
  -15.3903  -42.3057   -9.6722 C   0  0  0  0  0  0  0  0  0  0  0  0
  -15.8573  -42.5631  -10.9000 N   0  0  0  0  0  0  0  0  0  0  0  0
  -16.7150  -43.5587  -10.8420 O   0  0  0  0  0  0  0  0  0  0  0  0
  -14.3788  -41.2247   -9.3723 C   0  0  0  0  0  0  0  0  0  0  0  0
  -13.1403  -41.9248   -8.8098 C   0  0  0  0  0  0  0  0  0  0  0  0
  -13.9987  -40.5888  -10.6729 C   0  0  0  0  0  0  0  0  0  0  0  0
  -14.9762  -40.3848   -8.3980 N   0  0  0  0  0  0  0  0  0  0  0  0
  -15.8582  -39.3573   -8.7887 C   0  0  0  0  0  0  0  0  0  0  0  0
  -16.7390  -38.9037   -7.6959 C   0  0  1  0  0  0  0  0  0  0  0  0
  -17.0650  -37.5538   -7.7446 O   0  0  0  0  0  0  0  0  0  0  0  0
  -18.0206  -39.7528   -7.5723 C   0  0  2  0  0  0  0  0  0  0  0  0
  -19.0239  -39.1981   -6.6425 C   0  0  0  0  0  0  0  0  0  0  0  0
  -20.2590  -38.6102   -7.2676 C   0  0  0  0  0  0  0  0  0  0  0  0
  -21.1981  -39.1765   -8.0887 C   0  0  0  0  0  0  0  0  0  0  0  0
  -22.2753  -38.3993   -8.4941 C   0  0  0  0  0  0  0  0  0  0  0  0
  -22.3872  -37.0614   -8.0685 C   0  0  0  0  0  0  0  0  0  0  0  0
  -21.4634  -36.4675   -7.2487 C   0  0  0  0  0  0  0  0  0  0  0  0
  -20.4200  -37.2583   -6.8672 C   0  0  0  0  0  0  0  0  0  0  0  0
  -23.3373  -38.7486   -9.3080 O   0  0  0  0  0  0  0  0  0  0  0  0
  -24.3538  -39.7014   -9.2735 C   0  0  0  0  0  0  0  0  0  0  0  0
  -24.3309  -40.6084   -8.0706 C   0  0  0  0  0  0  0  0  0  0  0  0
  -24.8428  -41.9524   -8.4776 C   0  0  0  0  0  0  0  0  0  0  0  0
  -23.6977  -42.8089   -8.9179 C   0  0  0  0  0  0  0  0  0  0  0  0
  -23.0069  -43.4640   -7.8956 O   0  0  0  0  0  0  0  0  0  0  0  0
  -21.9265  -43.1302   -7.0869 C   0  0  0  0  0  0  0  0  0  0  0  0
  -22.3038  -43.1448   -5.7304 C   0  0  0  0  0  0  0  0  0  0  0  0
  -21.4329  -42.8493   -4.7209 C   0  0  0  0  0  0  0  0  0  0  0  0
  -21.8857  -42.8634   -3.0339 Cl  0  0  0  0  0  0  0  0  0  0  0  0
  -20.1589  -42.5351   -5.1122 C   0  0  0  0  0  0  0  0  0  0  0  0
  -19.7361  -42.5087   -6.4687 C   0  0  0  0  0  0  0  0  0  0  0  0
  -20.6345  -42.8133   -7.4645 C   0  0  0  0  0  0  0  0  0  0  0  0
  -18.3189  -42.0949   -6.5284 C   0  0  0  0  0  0  0  0  0  0  0  0
  -17.5739  -42.7405   -5.6584 O   0  0  0  0  0  0  0  0  0  0  0  0
  -17.6703  -41.1380   -7.3537 N   0  0  0  0  0  0  0  0  0  0  0  0
  1  2  1  0
  2  3  1  0
  2  4  1  0
  2  5  1  0
  5  6  1  0
  6  7  2  0
  7  8  1  0
  8  9  2  0
  9 10  1  0
  8 11  1  0
 11 12  1  0
 11 13  1  0
 11 14  1  0
 14 15  1  0
 15 16  1  0
 16 17  1  6
 16 18  1  0
 18 19  1  1
 19 20  1  0
 20 21  2  0
 21 22  1  0
 22 23  2  0
 23 24  1  0
 24 25  2  0
 22 26  1  0
 26 27  1  0
 27 28  1  0
 28 29  1  0
 29 30  1  0
 30 31  1  0
 31 32  1  0
 32 33  2  0
 33 34  1  0
 34 35  1  0
 34 36  2  0
 36 37  1  0
 37 38  2  0
 37 39  1  0
 39 40  2  0
 39 41  1  0
 10  6  1  0
 25 20  1  0
 38 32  1  0
 41 18  1  0
M  END
$$$$
