
     RDKit          3D

 35 37  0  0  0  0  0  0  0  0999 V2000
  -23.7254  -41.6147   -5.6903 C   0  0  0  0  0  0  0  0  0  0  0  0
  -23.8986  -40.5699   -6.7613 C   0  0  0  0  0  0  0  0  0  0  0  0
  -24.7386  -39.4189   -6.1986 C   0  0  0  0  0  0  0  0  0  0  0  0
  -22.6051  -40.0350   -7.2614 C   0  0  0  0  0  0  0  0  0  0  0  0
  -22.4109  -39.8068   -8.6083 C   0  0  0  0  0  0  0  0  0  0  0  0
  -21.1927  -39.3075   -9.0791 C   0  0  0  0  0  0  0  0  0  0  0  0
  -20.1740  -39.0373   -8.2115 C   0  0  0  0  0  0  0  0  0  0  0  0
  -20.3690  -39.2659   -6.8637 C   0  0  0  0  0  0  0  0  0  0  0  0
  -19.2634  -38.9814   -5.9299 C   0  0  0  0  0  0  0  0  0  0  0  0
  -18.0420  -38.7174   -6.6768 N   0  0  0  0  0  0  0  0  0  0  0  0
  -17.3110  -39.9048   -6.9812 C   0  0  0  0  0  0  0  0  0  0  0  0
  -15.8520  -39.6751   -7.1704 C   0  0  1  0  0  0  0  0  0  0  0  0
  -15.0851  -40.4764   -6.3598 O   0  0  0  0  0  0  0  0  0  0  0  0
  -15.3989  -39.6814   -8.6262 C   0  0  2  0  0  0  0  0  0  0  0  0
  -14.6666  -38.4355   -8.9440 C   0  0  0  0  0  0  0  0  0  0  0  0
  -13.2250  -38.5576   -9.3144 C   0  0  2  0  0  0  0  0  0  0  0  0
  -12.9482  -37.5942  -10.4487 C   0  0  0  0  0  0  0  0  0  0  0  0
  -12.8838  -39.9722   -9.6591 C   0  0  0  0  0  0  0  0  0  0  0  0
  -11.4853  -40.1450  -10.1842 C   0  0  0  0  0  0  0  0  0  0  0  0
  -11.0324  -41.4013  -10.2951 O   0  0  0  0  0  0  0  0  0  0  0  0
  -11.6615  -42.3188  -11.0528 C   0  0  0  0  0  0  0  0  0  0  0  0
  -12.0796  -43.5800  -10.3351 C   0  0  0  0  0  0  0  0  0  0  0  0
  -12.5722  -44.5396  -11.3731 C   0  0  0  0  0  0  0  0  0  0  0  0
  -13.9430  -44.5860  -11.5283 O   0  0  0  0  0  0  0  0  0  0  0  0
  -15.0092  -44.0101  -10.8167 C   0  0  0  0  0  0  0  0  0  0  0  0
  -15.4291  -42.6931  -10.8092 C   0  0  0  0  0  0  0  0  0  0  0  0
  -16.5001  -42.3738  -10.0195 C   0  0  0  0  0  0  0  0  0  0  0  0
  -17.1119  -43.4131   -9.2671 C   0  0  0  0  0  0  0  0  0  0  0  0
  -16.6962  -44.7206   -9.2778 C   0  0  0  0  0  0  0  0  0  0  0  0
  -17.3863  -45.7615   -8.4705 C   0  0  0  0  0  0  0  0  0  0  0  0
  -15.6563  -44.9631  -10.0560 N   0  0  0  0  0  0  0  0  0  0  0  0
  -17.1727  -41.1055   -9.7421 C   0  0  0  0  0  0  0  0  0  0  0  0
  -18.4790  -41.0252   -9.7364 O   0  0  0  0  0  0  0  0  0  0  0  0
  -16.6104  -39.8119   -9.4433 N   0  0  0  0  0  0  0  0  0  0  0  0
  -21.5603  -39.7549   -6.3970 C   0  0  0  0  0  0  0  0  0  0  0  0
  1  2  1  0
  2  3  1  0
  2  4  1  0
  4  5  2  0
  5  6  1  0
  6  7  2  0
  7  8  1  0
  8  9  1  0
  9 10  1  0
 10 11  1  0
 11 12  1  0
 12 13  1  1
 12 14  1  0
 14 15  1  6
 15 16  1  0
 16 17  1  6
 16 18  1  0
 18 19  1  0
 19 20  1  0
 20 21  1  0
 21 22  1  0
 22 23  1  0
 23 24  1  0
 24 25  1  0
 25 26  1  0
 26 27  2  0
 27 28  1  0
 28 29  2  0
 29 30  1  0
 29 31  1  0
 27 32  1  0
 32 33  2  0
 32 34  1  0
  8 35  2  0
 31 25  2  0
 34 14  1  0
 35  4  1  0
M  END
$$$$
