
     RDKit          3D

 35 37  0  0  0  0  0  0  0  0999 V2000
  -21.1810  -38.7486   -4.1386 C   0  0  0  0  0  0  0  0  0  0  0  0
  -21.8429  -39.6127   -5.1797 C   0  0  0  0  0  0  0  0  0  0  0  0
  -23.3418  -39.6956   -4.8738 C   0  0  0  0  0  0  0  0  0  0  0  0
  -21.6514  -39.1012   -6.5621 C   0  0  0  0  0  0  0  0  0  0  0  0
  -22.0219  -37.8143   -6.8946 C   0  0  0  0  0  0  0  0  0  0  0  0
  -21.8454  -37.3346   -8.1960 C   0  0  0  0  0  0  0  0  0  0  0  0
  -21.3024  -38.1339   -9.1604 C   0  0  0  0  0  0  0  0  0  0  0  0
  -20.9317  -39.4216   -8.8269 C   0  0  0  0  0  0  0  0  0  0  0  0
  -20.3536  -40.2855   -9.8732 C   0  0  0  0  0  0  0  0  0  0  0  0
  -19.2248  -41.0286   -9.3319 N   0  0  0  0  0  0  0  0  0  0  0  0
  -18.7846  -40.5266   -8.0705 C   0  0  0  0  0  0  0  0  0  0  0  0
  -17.4824  -39.8075   -8.1361 C   0  0  1  0  0  0  0  0  0  0  0  0
  -16.7999  -39.8478   -6.9445 O   0  0  0  0  0  0  0  0  0  0  0  0
  -16.6198  -40.1789   -9.3372 C   0  0  2  0  0  0  0  0  0  0  0  0
  -15.9414  -38.9793   -9.8760 C   0  0  0  0  0  0  0  0  0  0  0  0
  -14.4499  -38.9417   -9.8098 C   0  0  2  0  0  0  0  0  0  0  0  0
  -13.9373  -38.3417  -11.1016 C   0  0  0  0  0  0  0  0  0  0  0  0
  -13.8962  -40.3054   -9.5443 C   0  0  0  0  0  0  0  0  0  0  0  0
  -12.3953  -40.3708   -9.6112 C   0  0  0  0  0  0  0  0  0  0  0  0
  -11.8188  -41.4939   -9.1617 O   0  0  0  0  0  0  0  0  0  0  0  0
  -12.1101  -42.6998   -9.6838 C   0  0  0  0  0  0  0  0  0  0  0  0
  -12.6068  -43.7324   -8.7001 C   0  0  0  0  0  0  0  0  0  0  0  0
  -12.6815  -45.0389   -9.4269 C   0  0  0  0  0  0  0  0  0  0  0  0
  -13.9349  -45.3828   -9.8919 O   0  0  0  0  0  0  0  0  0  0  0  0
  -15.2112  -44.8224   -9.7141 C   0  0  0  0  0  0  0  0  0  0  0  0
  -15.7312  -43.6685  -10.2701 C   0  0  0  0  0  0  0  0  0  0  0  0
  -17.0121  -43.3243   -9.9336 C   0  0  0  0  0  0  0  0  0  0  0  0
  -17.7233  -44.1748   -9.0440 C   0  0  0  0  0  0  0  0  0  0  0  0
  -17.2073  -45.3216   -8.4953 C   0  0  0  0  0  0  0  0  0  0  0  0
  -18.0090  -46.1711   -7.5750 C   0  0  0  0  0  0  0  0  0  0  0  0
  -15.9661  -45.5963   -8.8558 N   0  0  0  0  0  0  0  0  0  0  0  0
  -17.8480  -42.1791  -10.2915 C   0  0  0  0  0  0  0  0  0  0  0  0
  -19.0990  -42.3432  -10.6390 O   0  0  0  0  0  0  0  0  0  0  0  0
  -17.5181  -40.7761  -10.3317 N   0  0  0  0  0  0  0  0  0  0  0  0
  -21.1024  -39.8967   -7.5537 C   0  0  0  0  0  0  0  0  0  0  0  0
  1  2  1  0
  2  3  1  0
  2  4  1  0
  4  5  2  0
  5  6  1  0
  6  7  2  0
  7  8  1  0
  8  9  1  0
  9 10  1  0
 10 11  1  0
 11 12  1  0
 12 13  1  1
 12 14  1  0
 14 15  1  6
 15 16  1  0
 16 17  1  6
 16 18  1  0
 18 19  1  0
 19 20  1  0
 20 21  1  0
 21 22  1  0
 22 23  1  0
 23 24  1  0
 24 25  1  0
 25 26  1  0
 26 27  2  0
 27 28  1  0
 28 29  2  0
 29 30  1  0
 29 31  1  0
 27 32  1  0
 32 33  2  0
 32 34  1  0
  8 35  2  0
 31 25  2  0
 34 14  1  0
 35  4  1  0
M  END
$$$$
