
     RDKit          3D

 35 37  0  0  0  0  0  0  0  0999 V2000
  -13.9961  -34.1908  -10.8177 C   0  0  0  0  0  0  0  0  0  0  0  0
  -15.1220  -34.8960  -11.5275 C   0  0  0  0  0  0  0  0  0  0  0  0
  -15.2142  -34.3633  -12.9609 C   0  0  0  0  0  0  0  0  0  0  0  0
  -14.9487  -36.3719  -11.5622 C   0  0  0  0  0  0  0  0  0  0  0  0
  -14.8805  -37.0448  -12.7649 C   0  0  0  0  0  0  0  0  0  0  0  0
  -14.7216  -38.4336  -12.7974 C   0  0  0  0  0  0  0  0  0  0  0  0
  -14.6312  -39.1471  -11.6371 C   0  0  0  0  0  0  0  0  0  0  0  0
  -14.6995  -38.4730  -10.4339 C   0  0  0  0  0  0  0  0  0  0  0  0
  -14.6105  -39.2477   -9.1820 C   0  0  0  0  0  0  0  0  0  0  0  0
  -15.6753  -38.8442   -8.2751 N   0  0  0  0  0  0  0  0  0  0  0  0
  -16.8755  -39.5938   -8.4611 C   0  0  0  0  0  0  0  0  0  0  0  0
  -18.0821  -38.9419   -7.8811 C   0  0  1  0  0  0  0  0  0  0  0  0
  -18.9654  -38.5203   -8.8451 O   0  0  0  0  0  0  0  0  0  0  0  0
  -18.7463  -39.7340   -6.7604 C   0  0  2  0  0  0  0  0  0  0  0  0
  -19.4812  -38.8259   -5.8522 C   0  0  0  0  0  0  0  0  0  0  0  0
  -20.9648  -38.9790   -5.7751 C   0  0  2  0  0  0  0  0  0  0  0  0
  -21.3789  -38.8196   -4.3279 C   0  0  0  0  0  0  0  0  0  0  0  0
  -21.3942  -40.2866   -6.3602 C   0  0  0  0  0  0  0  0  0  0  0  0
  -22.8597  -40.5745   -6.1838 C   0  0  0  0  0  0  0  0  0  0  0  0
  -23.3602  -41.6069   -6.8760 O   0  0  0  0  0  0  0  0  0  0  0  0
  -22.8775  -42.8557   -6.7375 C   0  0  0  0  0  0  0  0  0  0  0  0
  -22.3942  -43.5117   -8.0090 C   0  0  0  0  0  0  0  0  0  0  0  0
  -22.0893  -44.9407   -7.6838 C   0  0  0  0  0  0  0  0  0  0  0  0
  -20.7586  -45.2185   -7.4438 O   0  0  0  0  0  0  0  0  0  0  0  0
  -19.5824  -44.4600   -7.5692 C   0  0  0  0  0  0  0  0  0  0  0  0
  -19.1279  -43.4342   -6.7616 C   0  0  0  0  0  0  0  0  0  0  0  0
  -17.9428  -42.8393   -7.0993 C   0  0  0  0  0  0  0  0  0  0  0  0
  -17.2564  -43.3167   -8.2489 C   0  0  0  0  0  0  0  0  0  0  0  0
  -17.7069  -44.3370   -9.0478 C   0  0  0  0  0  0  0  0  0  0  0  0
  -16.9350  -44.7929  -10.2343 C   0  0  0  0  0  0  0  0  0  0  0  0
  -18.8574  -44.8665   -8.6713 N   0  0  0  0  0  0  0  0  0  0  0  0
  -17.1999  -41.7255   -6.5111 C   0  0  0  0  0  0  0  0  0  0  0  0
  -15.9055  -41.8011   -6.3334 O   0  0  0  0  0  0  0  0  0  0  0  0
  -17.6738  -40.4430   -6.0535 N   0  0  0  0  0  0  0  0  0  0  0  0
  -14.8551  -37.1127  -10.3961 C   0  0  0  0  0  0  0  0  0  0  0  0
  1  2  1  0
  2  3  1  0
  2  4  1  0
  4  5  2  0
  5  6  1  0
  6  7  2  0
  7  8  1  0
  8  9  1  0
  9 10  1  0
 10 11  1  0
 11 12  1  0
 12 13  1  6
 12 14  1  0
 14 15  1  1
 15 16  1  0
 16 17  1  1
 16 18  1  0
 18 19  1  0
 19 20  1  0
 20 21  1  0
 21 22  1  0
 22 23  1  0
 23 24  1  0
 24 25  1  0
 25 26  1  0
 26 27  2  0
 27 28  1  0
 28 29  2  0
 29 30  1  0
 29 31  1  0
 27 32  1  0
 32 33  2  0
 32 34  1  0
  8 35  2  0
 31 25  2  0
 34 14  1  0
 35  4  1  0
M  END
$$$$
