
     RDKit          3D

 35 37  0  0  0  0  0  0  0  0999 V2000
  -24.6971  -40.5566   -5.7671 C   0  0  0  0  0  0  0  0  0  0  0  0
  -23.6650  -41.0781   -6.7323 C   0  0  0  0  0  0  0  0  0  0  0  0
  -24.3409  -41.3509   -8.0798 C   0  0  0  0  0  0  0  0  0  0  0  0
  -22.5329  -40.1360   -6.9326 C   0  0  0  0  0  0  0  0  0  0  0  0
  -22.5461  -39.2301   -7.9733 C   0  0  0  0  0  0  0  0  0  0  0  0
  -21.4792  -38.3467   -8.1640 C   0  0  0  0  0  0  0  0  0  0  0  0
  -20.4053  -38.3667   -7.3214 C   0  0  0  0  0  0  0  0  0  0  0  0
  -20.3928  -39.2734   -6.2800 C   0  0  0  0  0  0  0  0  0  0  0  0
  -19.2270  -39.2985   -5.3768 C   0  0  0  0  0  0  0  0  0  0  0  0
  -18.0650  -38.7427   -6.0551 N   0  0  0  0  0  0  0  0  0  0  0  0
  -17.4079  -39.6907   -6.8956 C   0  0  0  0  0  0  0  0  0  0  0  0
  -16.1401  -39.1835   -7.4895 C   0  0  1  0  0  0  0  0  0  0  0  0
  -15.0510  -39.4268   -6.6883 O   0  0  0  0  0  0  0  0  0  0  0  0
  -15.9213  -39.5889   -8.9429 C   0  0  2  0  0  0  0  0  0  0  0  0
  -14.9337  -38.6937   -9.5852 C   0  0  0  0  0  0  0  0  0  0  0  0
  -13.6480  -39.2999  -10.0435 C   0  0  2  0  0  0  0  0  0  0  0  0
  -13.2885  -38.6851  -11.3792 C   0  0  0  0  0  0  0  0  0  0  0  0
  -13.7555  -40.7905  -10.1017 C   0  0  0  0  0  0  0  0  0  0  0  0
  -12.5471  -41.4599  -10.6957 C   0  0  0  0  0  0  0  0  0  0  0  0
  -12.4715  -42.7920  -10.5705 O   0  0  0  0  0  0  0  0  0  0  0  0
  -13.4280  -43.6061  -11.0542 C   0  0  0  0  0  0  0  0  0  0  0  0
  -14.0628  -44.5351  -10.0469 C   0  0  0  0  0  0  0  0  0  0  0  0
  -14.9413  -45.4803  -10.8057 C   0  0  0  0  0  0  0  0  0  0  0  0
  -16.2811  -45.1489  -10.8281 O   0  0  0  0  0  0  0  0  0  0  0  0
  -17.0373  -44.1649  -10.1688 C   0  0  0  0  0  0  0  0  0  0  0  0
  -17.0800  -42.8046  -10.4106 C   0  0  0  0  0  0  0  0  0  0  0  0
  -17.8988  -42.0456   -9.6193 C   0  0  0  0  0  0  0  0  0  0  0  0
  -18.6530  -42.7030   -8.6096 C   0  0  0  0  0  0  0  0  0  0  0  0
  -18.6122  -44.0538   -8.3726 C   0  0  0  0  0  0  0  0  0  0  0  0
  -19.4335  -44.6796   -7.3024 C   0  0  0  0  0  0  0  0  0  0  0  0
  -17.8006  -44.7295   -9.1667 N   0  0  0  0  0  0  0  0  0  0  0  0
  -18.1561  -40.6072   -9.5662 C   0  0  0  0  0  0  0  0  0  0  0  0
  -19.3770  -40.1466   -9.4651 O   0  0  0  0  0  0  0  0  0  0  0  0
  -17.2281  -39.5044   -9.6046 N   0  0  0  0  0  0  0  0  0  0  0  0
  -21.4351  -40.1411   -6.0886 C   0  0  0  0  0  0  0  0  0  0  0  0
  1  2  1  0
  2  3  1  0
  2  4  1  0
  4  5  2  0
  5  6  1  0
  6  7  2  0
  7  8  1  0
  8  9  1  0
  9 10  1  0
 10 11  1  0
 11 12  1  0
 12 13  1  1
 12 14  1  0
 14 15  1  6
 15 16  1  0
 16 17  1  6
 16 18  1  0
 18 19  1  0
 19 20  1  0
 20 21  1  0
 21 22  1  0
 22 23  1  0
 23 24  1  0
 24 25  1  0
 25 26  1  0
 26 27  2  0
 27 28  1  0
 28 29  2  0
 29 30  1  0
 29 31  1  0
 27 32  1  0
 32 33  2  0
 32 34  1  0
  8 35  2  0
 31 25  2  0
 34 14  1  0
 35  4  1  0
M  END
$$$$
