
     RDKit          3D

 35 37  0  0  0  0  0  0  0  0999 V2000
  -24.8027  -40.1254   -7.5043 C   0  0  0  0  0  0  0  0  0  0  0  0
  -23.8602  -40.9549   -6.6723 C   0  0  0  0  0  0  0  0  0  0  0  0
  -23.3793  -42.1454   -7.5080 C   0  0  0  0  0  0  0  0  0  0  0  0
  -22.6831  -40.1848   -6.1917 C   0  0  0  0  0  0  0  0  0  0  0  0
  -22.4754  -39.9849   -4.8424 C   0  0  0  0  0  0  0  0  0  0  0  0
  -21.3703  -39.2570   -4.3907 C   0  0  0  0  0  0  0  0  0  0  0  0
  -20.4776  -38.7316   -5.2797 C   0  0  0  0  0  0  0  0  0  0  0  0
  -20.6860  -38.9321   -6.6300 C   0  0  0  0  0  0  0  0  0  0  0  0
  -19.7245  -38.3555   -7.5883 C   0  0  0  0  0  0  0  0  0  0  0  0
  -18.3771  -38.4326   -7.0425 N   0  0  0  0  0  0  0  0  0  0  0  0
  -17.9850  -39.7666   -6.7207 C   0  0  0  0  0  0  0  0  0  0  0  0
  -16.5676  -40.0704   -7.0610 C   0  0  1  0  0  0  0  0  0  0  0  0
  -15.9484  -40.8314   -6.0994 O   0  0  0  0  0  0  0  0  0  0  0  0
  -16.3614  -40.6021   -8.4751 C   0  0  2  0  0  0  0  0  0  0  0  0
  -15.3076  -39.8287   -9.1685 C   0  0  0  0  0  0  0  0  0  0  0  0
  -14.0618  -40.5547   -9.5577 C   0  0  2  0  0  0  0  0  0  0  0  0
  -13.6463  -40.0719  -10.9309 C   0  0  0  0  0  0  0  0  0  0  0  0
  -14.2709  -42.0345   -9.5023 C   0  0  0  0  0  0  0  0  0  0  0  0
  -13.1050  -42.8287  -10.0232 C   0  0  0  0  0  0  0  0  0  0  0  0
  -13.1227  -44.1489   -9.7942 O   0  0  0  0  0  0  0  0  0  0  0  0
  -14.1276  -44.9317  -10.2290 C   0  0  0  0  0  0  0  0  0  0  0  0
  -14.8358  -45.7339   -9.1634 C   0  0  0  0  0  0  0  0  0  0  0  0
  -15.7689  -46.6738   -9.8611 C   0  0  0  0  0  0  0  0  0  0  0  0
  -17.0824  -46.2552   -9.9307 O   0  0  0  0  0  0  0  0  0  0  0  0
  -17.7762  -45.1737   -9.3617 C   0  0  0  0  0  0  0  0  0  0  0  0
  -17.7226  -43.8367   -9.7085 C   0  0  0  0  0  0  0  0  0  0  0  0
  -18.4957  -42.9645   -8.9916 C   0  0  0  0  0  0  0  0  0  0  0  0
  -19.3044  -43.4883   -7.9465 C   0  0  0  0  0  0  0  0  0  0  0  0
  -19.3592  -44.8160   -7.6052 C   0  0  0  0  0  0  0  0  0  0  0  0
  -20.2331  -45.2992   -6.5034 C   0  0  0  0  0  0  0  0  0  0  0  0
  -18.5874  -45.6052   -8.3315 N   0  0  0  0  0  0  0  0  0  0  0  0
  -18.6541  -41.5122   -9.0540 C   0  0  0  0  0  0  0  0  0  0  0  0
  -19.8414  -40.9634   -9.0086 O   0  0  0  0  0  0  0  0  0  0  0  0
  -17.6520  -40.4812   -9.1623 N   0  0  0  0  0  0  0  0  0  0  0  0
  -21.7668  -39.6443   -7.0780 C   0  0  0  0  0  0  0  0  0  0  0  0
  1  2  1  0
  2  3  1  0
  2  4  1  0
  4  5  2  0
  5  6  1  0
  6  7  2  0
  7  8  1  0
  8  9  1  0
  9 10  1  0
 10 11  1  0
 11 12  1  0
 12 13  1  1
 12 14  1  0
 14 15  1  6
 15 16  1  0
 16 17  1  6
 16 18  1  0
 18 19  1  0
 19 20  1  0
 20 21  1  0
 21 22  1  0
 22 23  1  0
 23 24  1  0
 24 25  1  0
 25 26  1  0
 26 27  2  0
 27 28  1  0
 28 29  2  0
 29 30  1  0
 29 31  1  0
 27 32  1  0
 32 33  2  0
 32 34  1  0
  8 35  2  0
 31 25  2  0
 34 14  1  0
 35  4  1  0
M  END
$$$$
