
     RDKit          3D

 35 37  0  0  0  0  0  0  0  0999 V2000
  -24.3405  -40.8951   -5.4812 C   0  0  0  0  0  0  0  0  0  0  0  0
  -23.6408  -39.5621   -5.5286 C   0  0  0  0  0  0  0  0  0  0  0  0
  -23.1449  -39.2132   -4.1217 C   0  0  0  0  0  0  0  0  0  0  0  0
  -22.4924  -39.5455   -6.4723 C   0  0  0  0  0  0  0  0  0  0  0  0
  -22.6468  -39.0783   -7.7613 C   0  0  0  0  0  0  0  0  0  0  0  0
  -21.5675  -39.0666   -8.6501 C   0  0  0  0  0  0  0  0  0  0  0  0
  -20.3412  -39.5182   -8.2554 C   0  0  0  0  0  0  0  0  0  0  0  0
  -20.1874  -39.9855   -6.9652 C   0  0  0  0  0  0  0  0  0  0  0  0
  -18.8634  -40.4811   -6.5446 C   0  0  0  0  0  0  0  0  0  0  0  0
  -17.8308  -39.5416   -6.9572 N   0  0  0  0  0  0  0  0  0  0  0  0
  -16.6354  -40.1882   -7.3930 C   0  0  0  0  0  0  0  0  0  0  0  0
  -15.5777  -39.2435   -7.8470 C   0  0  1  0  0  0  0  0  0  0  0  0
  -14.3407  -39.5565   -7.3378 O   0  0  0  0  0  0  0  0  0  0  0  0
  -15.5640  -38.9918   -9.3507 C   0  0  2  0  0  0  0  0  0  0  0  0
  -15.7988  -37.5590   -9.6361 C   0  0  0  0  0  0  0  0  0  0  0  0
  -14.6950  -36.7960  -10.2918 C   0  0  2  0  0  0  0  0  0  0  0  0
  -15.3098  -35.8707  -11.3201 C   0  0  0  0  0  0  0  0  0  0  0  0
  -13.6836  -37.7269  -10.8809 C   0  0  0  0  0  0  0  0  0  0  0  0
  -12.6200  -37.0319  -11.6854 C   0  0  0  0  0  0  0  0  0  0  0  0
  -11.5597  -37.7668  -12.0478 O   0  0  0  0  0  0  0  0  0  0  0  0
  -11.6895  -38.8860  -12.7842 C   0  0  0  0  0  0  0  0  0  0  0  0
  -11.1079  -40.1385  -12.1731 C   0  0  0  0  0  0  0  0  0  0  0  0
  -11.1728  -41.2124  -13.2139 C   0  0  0  0  0  0  0  0  0  0  0  0
  -12.2465  -42.0731  -13.1052 O   0  0  0  0  0  0  0  0  0  0  0  0
  -13.2440  -42.2444  -12.1303 C   0  0  0  0  0  0  0  0  0  0  0  0
  -14.3386  -41.4423  -11.8668 C   0  0  0  0  0  0  0  0  0  0  0  0
  -15.1714  -41.8209  -10.8491 C   0  0  0  0  0  0  0  0  0  0  0  0
  -14.8619  -43.0117  -10.1372 C   0  0  0  0  0  0  0  0  0  0  0  0
  -13.7770  -43.8087  -10.4018 C   0  0  0  0  0  0  0  0  0  0  0  0
  -13.5145  -45.0472   -9.6216 C   0  0  0  0  0  0  0  0  0  0  0  0
  -13.0104  -43.3872  -11.3921 N   0  0  0  0  0  0  0  0  0  0  0  0
  -16.3703  -41.2065  -10.2807 C   0  0  0  0  0  0  0  0  0  0  0  0
  -17.4302  -41.9255  -10.0112 O   0  0  0  0  0  0  0  0  0  0  0  0
  -16.6202  -39.8311   -9.9274 N   0  0  0  0  0  0  0  0  0  0  0  0
  -21.2412  -39.9994   -6.0904 C   0  0  0  0  0  0  0  0  0  0  0  0
  1  2  1  0
  2  3  1  0
  2  4  1  0
  4  5  2  0
  5  6  1  0
  6  7  2  0
  7  8  1  0
  8  9  1  0
  9 10  1  0
 10 11  1  0
 11 12  1  0
 12 13  1  6
 12 14  1  0
 14 15  1  1
 15 16  1  0
 16 17  1  6
 16 18  1  0
 18 19  1  0
 19 20  1  0
 20 21  1  0
 21 22  1  0
 22 23  1  0
 23 24  1  0
 24 25  1  0
 25 26  1  0
 26 27  2  0
 27 28  1  0
 28 29  2  0
 29 30  1  0
 29 31  1  0
 27 32  1  0
 32 33  2  0
 32 34  1  0
  8 35  2  0
 31 25  2  0
 34 14  1  0
 35  4  1  0
M  END
$$$$
