
     RDKit          3D

 35 37  0  0  0  0  0  0  0  0999 V2000
  -22.9641  -40.2625   -2.0219 C   0  0  0  0  0  0  0  0  0  0  0  0
  -22.7123  -39.1643   -3.0215 C   0  0  0  0  0  0  0  0  0  0  0  0
  -21.3943  -38.4673   -2.6693 C   0  0  0  0  0  0  0  0  0  0  0  0
  -22.6466  -39.6607   -4.4211 C   0  0  0  0  0  0  0  0  0  0  0  0
  -23.5964  -39.2824   -5.3478 C   0  0  0  0  0  0  0  0  0  0  0  0
  -23.5369  -39.7526   -6.6632 C   0  0  0  0  0  0  0  0  0  0  0  0
  -22.5357  -40.5952   -7.0522 C   0  0  0  0  0  0  0  0  0  0  0  0
  -21.5855  -40.9733   -6.1243 C   0  0  0  0  0  0  0  0  0  0  0  0
  -20.5103  -41.8909   -6.5453 C   0  0  0  0  0  0  0  0  0  0  0  0
  -19.2603  -41.1572   -6.6811 N   0  0  0  0  0  0  0  0  0  0  0  0
  -19.0776  -40.6104   -7.9867 C   0  0  0  0  0  0  0  0  0  0  0  0
  -17.8364  -39.7996   -8.1257 C   0  0  1  0  0  0  0  0  0  0  0  0
  -16.7192  -40.4717   -7.6928 O   0  0  0  0  0  0  0  0  0  0  0  0
  -17.6581  -39.1542   -9.4955 C   0  0  2  0  0  0  0  0  0  0  0  0
  -18.1522  -37.7596   -9.4770 C   0  0  0  0  0  0  0  0  0  0  0  0
  -17.1554  -36.6711   -9.7054 C   0  0  2  0  0  0  0  0  0  0  0  0
  -17.7985  -35.6228  -10.5879 C   0  0  0  0  0  0  0  0  0  0  0  0
  -15.8922  -37.2221  -10.2863 C   0  0  0  0  0  0  0  0  0  0  0  0
  -14.8978  -36.1650  -10.6802 C   0  0  0  0  0  0  0  0  0  0  0  0
  -13.6627  -36.5826  -10.9896 O   0  0  0  0  0  0  0  0  0  0  0  0
  -13.4392  -37.4675  -11.9789 C   0  0  0  0  0  0  0  0  0  0  0  0
  -12.6967  -38.7196  -11.5769 C   0  0  0  0  0  0  0  0  0  0  0  0
  -12.3758  -39.4686  -12.8326 C   0  0  0  0  0  0  0  0  0  0  0  0
  -13.2427  -40.4974  -13.1419 O   0  0  0  0  0  0  0  0  0  0  0  0
  -14.3111  -41.0926  -12.4498 C   0  0  0  0  0  0  0  0  0  0  0  0
  -15.5794  -40.5905  -12.2255 C   0  0  0  0  0  0  0  0  0  0  0  0
  -16.4503  -41.3655  -11.5091 C   0  0  0  0  0  0  0  0  0  0  0  0
  -15.9985  -42.6328  -11.0501 C   0  0  0  0  0  0  0  0  0  0  0  0
  -14.7405  -43.1314  -11.2761 C   0  0  0  0  0  0  0  0  0  0  0  0
  -14.3338  -44.4702  -10.7725 C   0  0  0  0  0  0  0  0  0  0  0  0
  -13.9469  -42.3344  -11.9694 N   0  0  0  0  0  0  0  0  0  0  0  0
  -17.8233  -41.1412  -11.0590 C   0  0  0  0  0  0  0  0  0  0  0  0
  -18.7308  -42.0766  -11.1793 O   0  0  0  0  0  0  0  0  0  0  0  0
  -18.4128  -39.9753  -10.4489 N   0  0  0  0  0  0  0  0  0  0  0  0
  -21.6390  -40.5158   -4.8344 C   0  0  0  0  0  0  0  0  0  0  0  0
  1  2  1  0
  2  3  1  0
  2  4  1  0
  4  5  2  0
  5  6  1  0
  6  7  2  0
  7  8  1  0
  8  9  1  0
  9 10  1  0
 10 11  1  0
 11 12  1  0
 12 13  1  6
 12 14  1  0
 14 15  1  1
 15 16  1  0
 16 17  1  6
 16 18  1  0
 18 19  1  0
 19 20  1  0
 20 21  1  0
 21 22  1  0
 22 23  1  0
 23 24  1  0
 24 25  1  0
 25 26  1  0
 26 27  2  0
 27 28  1  0
 28 29  2  0
 29 30  1  0
 29 31  1  0
 27 32  1  0
 32 33  2  0
 32 34  1  0
  8 35  2  0
 31 25  2  0
 34 14  1  0
 35  4  1  0
M  END
$$$$
