
     RDKit          3D

 35 37  0  0  0  0  0  0  0  0999 V2000
  -11.6982  -34.2815  -10.5499 C   0  0  0  0  0  0  0  0  0  0  0  0
  -12.9212  -34.8898  -11.1849 C   0  0  0  0  0  0  0  0  0  0  0  0
  -12.9674  -34.4815  -12.6608 C   0  0  0  0  0  0  0  0  0  0  0  0
  -12.9476  -36.3726  -11.0844 C   0  0  0  0  0  0  0  0  0  0  0  0
  -11.9160  -37.0556  -10.4736 C   0  0  0  0  0  0  0  0  0  0  0  0
  -11.9390  -38.4507  -10.3828 C   0  0  0  0  0  0  0  0  0  0  0  0
  -12.9850  -39.1604  -10.8982 C   0  0  0  0  0  0  0  0  0  0  0  0
  -14.0172  -38.4762  -11.5093 C   0  0  0  0  0  0  0  0  0  0  0  0
  -15.1415  -39.2465  -12.0731 C   0  0  0  0  0  0  0  0  0  0  0  0
  -16.3827  -38.8592  -11.4184 N   0  0  0  0  0  0  0  0  0  0  0  0
  -16.5816  -39.5230  -10.1706 C   0  0  0  0  0  0  0  0  0  0  0  0
  -18.0106  -39.8163   -9.8720 C   0  0  1  0  0  0  0  0  0  0  0  0
  -18.4630  -40.9388  -10.5221 O   0  0  0  0  0  0  0  0  0  0  0  0
  -18.3584  -39.7985   -8.3876 C   0  0  2  0  0  0  0  0  0  0  0  0
  -18.5946  -38.4115   -7.9296 C   0  0  0  0  0  0  0  0  0  0  0  0
  -19.9668  -38.0668   -7.4514 C   0  0  2  0  0  0  0  0  0  0  0  0
  -19.8304  -37.1732   -6.2372 C   0  0  0  0  0  0  0  0  0  0  0  0
  -20.7584  -39.3049   -7.1739 C   0  0  0  0  0  0  0  0  0  0  0  0
  -22.0995  -39.0363   -6.5487 C   0  0  0  0  0  0  0  0  0  0  0  0
  -22.9534  -40.0670   -6.4842 O   0  0  0  0  0  0  0  0  0  0  0  0
  -22.6417  -41.2084   -5.8426 C   0  0  0  0  0  0  0  0  0  0  0  0
  -22.7266  -42.4665   -6.6736 C   0  0  0  0  0  0  0  0  0  0  0  0
  -22.5423  -43.6260   -5.7450 C   0  0  0  0  0  0  0  0  0  0  0  0
  -21.2664  -44.1514   -5.7058 O   0  0  0  0  0  0  0  0  0  0  0  0
  -20.1068  -43.9126   -6.4627 C   0  0  0  0  0  0  0  0  0  0  0  0
  -19.2570  -42.8232   -6.4177 C   0  0  0  0  0  0  0  0  0  0  0  0
  -18.1862  -42.8191   -7.2696 C   0  0  0  0  0  0  0  0  0  0  0  0
  -18.0146  -43.9325   -8.1364 C   0  0  0  0  0  0  0  0  0  0  0  0
  -18.8569  -45.0147   -8.1779 C   0  0  0  0  0  0  0  0  0  0  0  0
  -18.6155  -46.1515   -9.1058 C   0  0  0  0  0  0  0  0  0  0  0  0
  -19.8727  -44.9566   -7.3350 N   0  0  0  0  0  0  0  0  0  0  0  0
  -17.1313  -41.8371   -7.5169 C   0  0  0  0  0  0  0  0  0  0  0  0
  -15.8806  -42.2076   -7.6242 O   0  0  0  0  0  0  0  0  0  0  0  0
  -17.2251  -40.4080   -7.6827 N   0  0  0  0  0  0  0  0  0  0  0  0
  -13.9997  -37.1098  -11.6011 C   0  0  0  0  0  0  0  0  0  0  0  0
  1  2  1  0
  2  3  1  0
  2  4  1  0
  4  5  2  0
  5  6  1  0
  6  7  2  0
  7  8  1  0
  8  9  1  0
  9 10  1  0
 10 11  1  0
 11 12  1  0
 12 13  1  1
 12 14  1  0
 14 15  1  1
 15 16  1  0
 16 17  1  1
 16 18  1  0
 18 19  1  0
 19 20  1  0
 20 21  1  0
 21 22  1  0
 22 23  1  0
 23 24  1  0
 24 25  1  0
 25 26  1  0
 26 27  2  0
 27 28  1  0
 28 29  2  0
 29 30  1  0
 29 31  1  0
 27 32  1  0
 32 33  2  0
 32 34  1  0
  8 35  2  0
 31 25  2  0
 34 14  1  0
 35  4  1  0
M  END
$$$$
