
     RDKit          3D

 35 37  0  0  0  0  0  0  0  0999 V2000
  -22.5952  -36.5383   -9.1258 C   0  0  0  0  0  0  0  0  0  0  0  0
  -22.0132  -37.0659   -7.8406 C   0  0  0  0  0  0  0  0  0  0  0  0
  -22.9744  -36.7420   -6.6924 C   0  0  0  0  0  0  0  0  0  0  0  0
  -21.7670  -38.5313   -7.8763 C   0  0  0  0  0  0  0  0  0  0  0  0
  -22.8039  -39.4145   -8.0967 C   0  0  0  0  0  0  0  0  0  0  0  0
  -22.5729  -40.7932   -8.1262 C   0  0  0  0  0  0  0  0  0  0  0  0
  -21.3148  -41.2882   -7.9371 C   0  0  0  0  0  0  0  0  0  0  0  0
  -20.2775  -40.4037   -7.7167 C   0  0  0  0  0  0  0  0  0  0  0  0
  -18.9209  -40.9420   -7.5038 C   0  0  0  0  0  0  0  0  0  0  0  0
  -17.9844  -39.8487   -7.2871 N   0  0  0  0  0  0  0  0  0  0  0  0
  -17.4467  -39.3304   -8.5033 C   0  0  0  0  0  0  0  0  0  0  0  0
  -15.9632  -39.2021   -8.4928 C   0  0  1  0  0  0  0  0  0  0  0  0
  -15.3444  -40.3085   -7.9636 O   0  0  0  0  0  0  0  0  0  0  0  0
  -15.3624  -38.7529   -9.8202 C   0  0  2  0  0  0  0  0  0  0  0  0
  -15.2599  -37.2776   -9.8672 C   0  0  0  0  0  0  0  0  0  0  0  0
  -13.8922  -36.6828   -9.9457 C   0  0  2  0  0  0  0  0  0  0  0  0
  -13.9423  -35.5148  -10.9072 C   0  0  0  0  0  0  0  0  0  0  0  0
  -12.8863  -37.7164  -10.3413 C   0  0  0  0  0  0  0  0  0  0  0  0
  -11.5111  -37.1584  -10.5842 C   0  0  0  0  0  0  0  0  0  0  0  0
  -10.5140  -38.0440  -10.7146 O   0  0  0  0  0  0  0  0  0  0  0  0
  -10.5303  -38.9970  -11.6650 C   0  0  0  0  0  0  0  0  0  0  0  0
  -10.4067  -40.4168  -11.1656 C   0  0  0  0  0  0  0  0  0  0  0  0
  -10.2451  -41.2975  -12.3652 C   0  0  0  0  0  0  0  0  0  0  0  0
  -11.3995  -41.9172  -12.7999 O   0  0  0  0  0  0  0  0  0  0  0  0
  -12.6982  -42.0063  -12.2709 C   0  0  0  0  0  0  0  0  0  0  0  0
  -13.6806  -41.0346  -12.2290 C   0  0  0  0  0  0  0  0  0  0  0  0
  -14.8747  -41.3652  -11.6482 C   0  0  0  0  0  0  0  0  0  0  0  0
  -15.0287  -42.6815  -11.1341 C   0  0  0  0  0  0  0  0  0  0  0  0
  -14.0541  -43.6460  -11.1791 C   0  0  0  0  0  0  0  0  0  0  0  0
  -14.2833  -45.0080  -10.6277 C   0  0  0  0  0  0  0  0  0  0  0  0
  -12.9245  -43.2637  -11.7480 N   0  0  0  0  0  0  0  0  0  0  0  0
  -16.0925  -40.5951  -11.3991 C   0  0  0  0  0  0  0  0  0  0  0  0
  -17.2719  -41.1031  -11.6522 O   0  0  0  0  0  0  0  0  0  0  0  0
  -16.2464  -39.2606  -10.8753 N   0  0  0  0  0  0  0  0  0  0  0  0
  -20.4981  -39.0522   -7.6867 C   0  0  0  0  0  0  0  0  0  0  0  0
  1  2  1  0
  2  3  1  0
  2  4  1  0
  4  5  2  0
  5  6  1  0
  6  7  2  0
  7  8  1  0
  8  9  1  0
  9 10  1  0
 10 11  1  0
 11 12  1  0
 12 13  1  6
 12 14  1  0
 14 15  1  1
 15 16  1  0
 16 17  1  6
 16 18  1  0
 18 19  1  0
 19 20  1  0
 20 21  1  0
 21 22  1  0
 22 23  1  0
 23 24  1  0
 24 25  1  0
 25 26  1  0
 26 27  2  0
 27 28  1  0
 28 29  2  0
 29 30  1  0
 29 31  1  0
 27 32  1  0
 32 33  2  0
 32 34  1  0
  8 35  2  0
 31 25  2  0
 34 14  1  0
 35  4  1  0
M  END
$$$$
