
     RDKit          3D

 35 37  0  0  0  0  0  0  0  0999 V2000
   -8.4384  -40.9925  -11.0489 C   0  0  0  0  0  0  0  0  0  0  0  0
   -9.7022  -41.8063  -11.1455 C   0  0  0  0  0  0  0  0  0  0  0  0
   -9.6485  -42.9291  -10.1046 C   0  0  0  0  0  0  0  0  0  0  0  0
  -10.9294  -40.9957  -10.9307 C   0  0  0  0  0  0  0  0  0  0  0  0
  -11.4849  -40.2710  -11.9651 C   0  0  0  0  0  0  0  0  0  0  0  0
  -12.6370  -39.5053  -11.7619 C   0  0  0  0  0  0  0  0  0  0  0  0
  -13.2317  -39.4626  -10.5339 C   0  0  0  0  0  0  0  0  0  0  0  0
  -12.6754  -40.1882   -9.4991 C   0  0  0  0  0  0  0  0  0  0  0  0
  -13.3152  -40.1329   -8.1713 C   0  0  0  0  0  0  0  0  0  0  0  0
  -14.6729  -40.6512   -8.2557 N   0  0  0  0  0  0  0  0  0  0  0  0
  -15.5641  -39.7635   -8.9300 C   0  0  0  0  0  0  0  0  0  0  0  0
  -16.4172  -38.9617   -8.0099 C   0  0  1  0  0  0  0  0  0  0  0  0
  -16.5461  -37.6562   -8.4176 O   0  0  0  0  0  0  0  0  0  0  0  0
  -17.7480  -39.6167   -7.6568 C   0  0  2  0  0  0  0  0  0  0  0  0
  -18.4109  -38.8789   -6.5588 C   0  0  0  0  0  0  0  0  0  0  0  0
  -19.7143  -38.2155   -6.8614 C   0  0  2  0  0  0  0  0  0  0  0  0
  -20.6307  -38.4167   -5.6735 C   0  0  0  0  0  0  0  0  0  0  0  0
  -20.2937  -38.7412   -8.1360 C   0  0  0  0  0  0  0  0  0  0  0  0
  -21.6761  -38.2263   -8.4280 C   0  0  0  0  0  0  0  0  0  0  0  0
  -22.1642  -38.4667   -9.6526 O   0  0  0  0  0  0  0  0  0  0  0  0
  -22.2948  -39.7175  -10.1322 C   0  0  0  0  0  0  0  0  0  0  0  0
  -21.5839  -39.9925  -11.4359 C   0  0  0  0  0  0  0  0  0  0  0  0
  -22.0090  -41.3521  -11.8959 C   0  0  0  0  0  0  0  0  0  0  0  0
  -21.1304  -42.3748  -11.6000 O   0  0  0  0  0  0  0  0  0  0  0  0
  -19.8319  -42.3989  -11.0634 C   0  0  0  0  0  0  0  0  0  0  0  0
  -19.4347  -42.1819   -9.7571 C   0  0  0  0  0  0  0  0  0  0  0  0
  -18.0963  -42.2534   -9.4815 C   0  0  0  0  0  0  0  0  0  0  0  0
  -17.2066  -42.5511  -10.5494 C   0  0  0  0  0  0  0  0  0  0  0  0
  -17.6023  -42.7694  -11.8448 C   0  0  0  0  0  0  0  0  0  0  0  0
  -16.6185  -43.0835  -12.9149 C   0  0  0  0  0  0  0  0  0  0  0  0
  -18.9052  -42.6823  -12.0465 N   0  0  0  0  0  0  0  0  0  0  0  0
  -17.3341  -42.0447   -8.2512 C   0  0  0  0  0  0  0  0  0  0  0  0
  -16.3825  -42.8726   -7.9020 O   0  0  0  0  0  0  0  0  0  0  0  0
  -17.4462  -40.9983   -7.2657 N   0  0  0  0  0  0  0  0  0  0  0  0
  -11.5469  -40.9399   -9.6925 C   0  0  0  0  0  0  0  0  0  0  0  0
  1  2  1  0
  2  3  1  0
  2  4  1  0
  4  5  2  0
  5  6  1  0
  6  7  2  0
  7  8  1  0
  8  9  1  0
  9 10  1  0
 10 11  1  0
 11 12  1  0
 12 13  1  6
 12 14  1  0
 14 15  1  1
 15 16  1  0
 16 17  1  1
 16 18  1  0
 18 19  1  0
 19 20  1  0
 20 21  1  0
 21 22  1  0
 22 23  1  0
 23 24  1  0
 24 25  1  0
 25 26  1  0
 26 27  2  0
 27 28  1  0
 28 29  2  0
 29 30  1  0
 29 31  1  0
 27 32  1  0
 32 33  2  0
 32 34  1  0
  8 35  2  0
 31 25  2  0
 34 14  1  0
 35  4  1  0
M  END
$$$$
