
     RDKit          3D

 35 37  0  0  0  0  0  0  0  0999 V2000
  -23.0773  -40.4979   -3.9540 C   0  0  0  0  0  0  0  0  0  0  0  0
  -22.9600  -41.0445   -5.3527 C   0  0  0  0  0  0  0  0  0  0  0  0
  -24.3513  -41.4629   -5.8388 C   0  0  0  0  0  0  0  0  0  0  0  0
  -22.3795  -40.0656   -6.3088 C   0  0  0  0  0  0  0  0  0  0  0  0
  -23.0165  -39.7812   -7.4993 C   0  0  0  0  0  0  0  0  0  0  0  0
  -22.4683  -38.8635   -8.4005 C   0  0  0  0  0  0  0  0  0  0  0  0
  -21.2915  -38.2329   -8.1160 C   0  0  0  0  0  0  0  0  0  0  0  0
  -20.6545  -38.5179   -6.9243 C   0  0  0  0  0  0  0  0  0  0  0  0
  -19.3787  -37.8417   -6.6239 C   0  0  0  0  0  0  0  0  0  0  0  0
  -18.3822  -38.2016   -7.6223 N   0  0  0  0  0  0  0  0  0  0  0  0
  -17.8151  -39.4921   -7.3991 C   0  0  0  0  0  0  0  0  0  0  0  0
  -16.3276  -39.4865   -7.3309 C   0  0  1  0  0  0  0  0  0  0  0  0
  -15.8403  -40.3977   -6.4257 O   0  0  0  0  0  0  0  0  0  0  0  0
  -15.6365  -39.5569   -8.6882 C   0  0  2  0  0  0  0  0  0  0  0  0
  -14.7130  -38.4132   -8.8568 C   0  0  0  0  0  0  0  0  0  0  0  0
  -13.2553  -38.7152   -8.9780 C   0  0  2  0  0  0  0  0  0  0  0  0
  -12.6722  -37.7998  -10.0332 C   0  0  0  0  0  0  0  0  0  0  0  0
  -13.0371  -40.1631   -9.2819 C   0  0  0  0  0  0  0  0  0  0  0  0
  -11.6015  -40.5109   -9.5638 C   0  0  0  0  0  0  0  0  0  0  0  0
  -11.2945  -41.8143   -9.6158 O   0  0  0  0  0  0  0  0  0  0  0  0
  -11.8929  -42.6508  -10.4840 C   0  0  0  0  0  0  0  0  0  0  0  0
  -12.5796  -43.8464   -9.8681 C   0  0  0  0  0  0  0  0  0  0  0  0
  -13.0018  -44.7433  -10.9899 C   0  0  0  0  0  0  0  0  0  0  0  0
  -14.3210  -44.6201  -11.3771 O   0  0  0  0  0  0  0  0  0  0  0  0
  -15.4140  -43.9125  -10.8485 C   0  0  0  0  0  0  0  0  0  0  0  0
  -15.6636  -42.5536  -10.8918 C   0  0  0  0  0  0  0  0  0  0  0  0
  -16.8062  -42.0996  -10.2911 C   0  0  0  0  0  0  0  0  0  0  0  0
  -17.6610  -43.0508   -9.6705 C   0  0  0  0  0  0  0  0  0  0  0  0
  -17.4138  -44.3998   -9.6309 C   0  0  0  0  0  0  0  0  0  0  0  0
  -18.3546  -45.3426   -8.9696 C   0  0  0  0  0  0  0  0  0  0  0  0
  -16.2940  -44.7737  -10.2243 N   0  0  0  0  0  0  0  0  0  0  0  0
  -17.3550  -40.7561  -10.1124 C   0  0  0  0  0  0  0  0  0  0  0  0
  -18.6231  -40.5144  -10.3280 O   0  0  0  0  0  0  0  0  0  0  0  0
  -16.6972  -39.5406   -9.7017 N   0  0  0  0  0  0  0  0  0  0  0  0
  -21.1870  -39.4161   -6.0379 C   0  0  0  0  0  0  0  0  0  0  0  0
  1  2  1  0
  2  3  1  0
  2  4  1  0
  4  5  2  0
  5  6  1  0
  6  7  2  0
  7  8  1  0
  8  9  1  0
  9 10  1  0
 10 11  1  0
 11 12  1  0
 12 13  1  1
 12 14  1  0
 14 15  1  6
 15 16  1  0
 16 17  1  6
 16 18  1  0
 18 19  1  0
 19 20  1  0
 20 21  1  0
 21 22  1  0
 22 23  1  0
 23 24  1  0
 24 25  1  0
 25 26  1  0
 26 27  2  0
 27 28  1  0
 28 29  2  0
 29 30  1  0
 29 31  1  0
 27 32  1  0
 32 33  2  0
 32 34  1  0
  8 35  2  0
 31 25  2  0
 34 14  1  0
 35  4  1  0
M  END
$$$$
