
     RDKit          3D

 35 37  0  0  0  0  0  0  0  0999 V2000
  -21.7493  -37.3246  -11.2413 C   0  0  0  0  0  0  0  0  0  0  0  0
  -21.4708  -38.7905  -11.4476 C   0  0  0  0  0  0  0  0  0  0  0  0
  -22.3396  -39.3015  -12.6014 C   0  0  0  0  0  0  0  0  0  0  0  0
  -20.0422  -39.0708  -11.7471 C   0  0  0  0  0  0  0  0  0  0  0  0
  -19.6447  -39.4174  -13.0222 C   0  0  0  0  0  0  0  0  0  0  0  0
  -18.3014  -39.6850  -13.3029 C   0  0  0  0  0  0  0  0  0  0  0  0
  -17.3598  -39.6073  -12.3175 C   0  0  0  0  0  0  0  0  0  0  0  0
  -17.7582  -39.2603  -11.0417 C   0  0  0  0  0  0  0  0  0  0  0  0
  -16.7399  -39.1860   -9.9773 C   0  0  0  0  0  0  0  0  0  0  0  0
  -16.2632  -40.5235   -9.6560 N   0  0  0  0  0  0  0  0  0  0  0  0
  -17.0877  -41.1911   -8.7013 C   0  0  0  0  0  0  0  0  0  0  0  0
  -17.6755  -40.2805   -7.6802 C   0  0  1  0  0  0  0  0  0  0  0  0
  -18.5373  -39.3626   -8.2296 O   0  0  0  0  0  0  0  0  0  0  0  0
  -18.2508  -40.9924   -6.4608 C   0  0  2  0  0  0  0  0  0  0  0  0
  -18.3248  -40.0658   -5.3096 C   0  0  0  0  0  0  0  0  0  0  0  0
  -19.6800  -39.7339   -4.7768 C   0  0  2  0  0  0  0  0  0  0  0  0
  -19.5956  -39.7013   -3.2658 C   0  0  0  0  0  0  0  0  0  0  0  0
  -20.7001  -40.7051   -5.2795 C   0  0  0  0  0  0  0  0  0  0  0  0
  -22.0613  -40.5217   -4.6672 C   0  0  0  0  0  0  0  0  0  0  0  0
  -23.0732  -41.1954   -5.2309 O   0  0  0  0  0  0  0  0  0  0  0  0
  -23.0628  -42.5374   -5.3339 C   0  0  0  0  0  0  0  0  0  0  0  0
  -23.2195  -43.0843   -6.7328 C   0  0  0  0  0  0  0  0  0  0  0  0
  -23.3824  -44.5676   -6.6146 C   0  0  0  0  0  0  0  0  0  0  0  0
  -22.2345  -45.3044   -6.8269 O   0  0  0  0  0  0  0  0  0  0  0  0
  -20.9445  -44.9648   -7.2687 C   0  0  0  0  0  0  0  0  0  0  0  0
  -19.9446  -44.3021   -6.5817 C   0  0  0  0  0  0  0  0  0  0  0  0
  -18.7644  -44.0804   -7.2379 C   0  0  0  0  0  0  0  0  0  0  0  0
  -18.6418  -44.5494   -8.5742 C   0  0  0  0  0  0  0  0  0  0  0  0
  -19.6338  -45.2099   -9.2539 C   0  0  0  0  0  0  0  0  0  0  0  0
  -19.4373  -45.6805  -10.6508 C   0  0  0  0  0  0  0  0  0  0  0  0
  -20.7486  -45.3889   -8.5677 N   0  0  0  0  0  0  0  0  0  0  0  0
  -17.5355  -43.3927   -6.8442 C   0  0  0  0  0  0  0  0  0  0  0  0
  -16.3628  -43.9189   -7.0908 O   0  0  0  0  0  0  0  0  0  0  0  0
  -17.3632  -42.1258   -6.1777 N   0  0  0  0  0  0  0  0  0  0  0  0
  -19.0728  -38.9972  -10.7611 C   0  0  0  0  0  0  0  0  0  0  0  0
  1  2  1  0
  2  3  1  0
  2  4  1  0
  4  5  2  0
  5  6  1  0
  6  7  2  0
  7  8  1  0
  8  9  1  0
  9 10  1  0
 10 11  1  0
 11 12  1  0
 12 13  1  6
 12 14  1  0
 14 15  1  1
 15 16  1  0
 16 17  1  1
 16 18  1  0
 18 19  1  0
 19 20  1  0
 20 21  1  0
 21 22  1  0
 22 23  1  0
 23 24  1  0
 24 25  1  0
 25 26  1  0
 26 27  2  0
 27 28  1  0
 28 29  2  0
 29 30  1  0
 29 31  1  0
 27 32  1  0
 32 33  2  0
 32 34  1  0
  8 35  2  0
 31 25  2  0
 34 14  1  0
 35  4  1  0
M  END
$$$$
