
     RDKit          3D

 35 37  0  0  0  0  0  0  0  0999 V2000
  -22.3731  -43.0594   -5.7761 C   0  0  0  0  0  0  0  0  0  0  0  0
  -23.0992  -41.7459   -5.6484 C   0  0  0  0  0  0  0  0  0  0  0  0
  -22.9115  -41.2131   -4.2243 C   0  0  0  0  0  0  0  0  0  0  0  0
  -22.6249  -40.7265   -6.6206 C   0  0  0  0  0  0  0  0  0  0  0  0
  -23.3350  -40.4710   -7.7758 C   0  0  0  0  0  0  0  0  0  0  0  0
  -22.8866  -39.5150   -8.6923 C   0  0  0  0  0  0  0  0  0  0  0  0
  -21.7366  -38.8177   -8.4579 C   0  0  0  0  0  0  0  0  0  0  0  0
  -21.0266  -39.0738   -7.3015 C   0  0  0  0  0  0  0  0  0  0  0  0
  -19.7799  -38.3251   -7.0555 C   0  0  0  0  0  0  0  0  0  0  0  0
  -18.7985  -39.1947   -6.4231 N   0  0  0  0  0  0  0  0  0  0  0  0
  -17.9643  -39.8669   -7.3660 C   0  0  0  0  0  0  0  0  0  0  0  0
  -16.7034  -39.1370   -7.6738 C   0  0  1  0  0  0  0  0  0  0  0  0
  -15.7420  -39.3205   -6.7098 O   0  0  0  0  0  0  0  0  0  0  0  0
  -16.1839  -39.3511   -9.0911 C   0  0  2  0  0  0  0  0  0  0  0  0
  -15.7435  -38.0666   -9.6788 C   0  0  0  0  0  0  0  0  0  0  0  0
  -14.2950  -37.9204  -10.0117 C   0  0  2  0  0  0  0  0  0  0  0  0
  -14.1880  -37.1885  -11.3324 C   0  0  0  0  0  0  0  0  0  0  0  0
  -13.6181  -39.2538  -10.0315 C   0  0  0  0  0  0  0  0  0  0  0  0
  -12.1914  -39.1995  -10.5040 C   0  0  0  0  0  0  0  0  0  0  0  0
  -11.4552  -40.3057  -10.3311 O   0  0  0  0  0  0  0  0  0  0  0  0
  -11.8137  -41.4880  -10.8651 C   0  0  0  0  0  0  0  0  0  0  0  0
  -11.9667  -42.6259   -9.8841 C   0  0  0  0  0  0  0  0  0  0  0  0
  -12.1677  -43.8765  -10.6817 C   0  0  0  0  0  0  0  0  0  0  0  0
  -13.4804  -44.2794  -10.8234 O   0  0  0  0  0  0  0  0  0  0  0  0
  -14.6874  -43.8327  -10.2590 C   0  0  0  0  0  0  0  0  0  0  0  0
  -15.4002  -42.6836  -10.5462 C   0  0  0  0  0  0  0  0  0  0  0  0
  -16.5566  -42.4641   -9.8484 C   0  0  0  0  0  0  0  0  0  0  0  0
  -16.9510  -43.4303   -8.8832 C   0  0  0  0  0  0  0  0  0  0  0  0
  -16.2444  -44.5720   -8.6013 C   0  0  0  0  0  0  0  0  0  0  0  0
  -16.7174  -45.5463   -7.5823 C   0  0  0  0  0  0  0  0  0  0  0  0
  -15.1364  -44.7237   -9.3050 N   0  0  0  0  0  0  0  0  0  0  0  0
  -17.5181  -41.3625   -9.8617 C   0  0  0  0  0  0  0  0  0  0  0  0
  -18.8060  -41.5953   -9.8748 O   0  0  0  0  0  0  0  0  0  0  0  0
  -17.2869  -39.9394   -9.8592 N   0  0  0  0  0  0  0  0  0  0  0  0
  -21.4612  -40.0092   -6.4004 C   0  0  0  0  0  0  0  0  0  0  0  0
  1  2  1  0
  2  3  1  0
  2  4  1  0
  4  5  2  0
  5  6  1  0
  6  7  2  0
  7  8  1  0
  8  9  1  0
  9 10  1  0
 10 11  1  0
 11 12  1  0
 12 13  1  1
 12 14  1  0
 14 15  1  6
 15 16  1  0
 16 17  1  6
 16 18  1  0
 18 19  1  0
 19 20  1  0
 20 21  1  0
 21 22  1  0
 22 23  1  0
 23 24  1  0
 24 25  1  0
 25 26  1  0
 26 27  2  0
 27 28  1  0
 28 29  2  0
 29 30  1  0
 29 31  1  0
 27 32  1  0
 32 33  2  0
 32 34  1  0
  8 35  2  0
 31 25  2  0
 34 14  1  0
 35  4  1  0
M  END
$$$$
