
     RDKit          3D

 35 37  0  0  0  0  0  0  0  0999 V2000
  -13.2100  -35.9012  -13.1773 C   0  0  0  0  0  0  0  0  0  0  0  0
  -13.7509  -35.6451  -11.7951 C   0  0  0  0  0  0  0  0  0  0  0  0
  -13.4265  -34.2019  -11.3963 C   0  0  0  0  0  0  0  0  0  0  0  0
  -15.2180  -35.8631  -11.6991 C   0  0  0  0  0  0  0  0  0  0  0  0
  -16.0562  -35.4763  -12.7246 C   0  0  0  0  0  0  0  0  0  0  0  0
  -17.4367  -35.6778  -12.6324 C   0  0  0  0  0  0  0  0  0  0  0  0
  -17.9782  -36.2618  -11.5238 C   0  0  0  0  0  0  0  0  0  0  0  0
  -17.1389  -36.6488  -10.4978 C   0  0  0  0  0  0  0  0  0  0  0  0
  -17.7279  -37.2714   -9.2975 C   0  0  0  0  0  0  0  0  0  0  0  0
  -17.0308  -38.5125   -8.9926 N   0  0  0  0  0  0  0  0  0  0  0  0
  -17.0490  -38.8310   -7.6015 C   0  0  0  0  0  0  0  0  0  0  0  0
  -16.5189  -40.1879   -7.2931 C   0  0  1  0  0  0  0  0  0  0  0  0
  -16.4242  -40.4199   -5.9424 O   0  0  0  0  0  0  0  0  0  0  0  0
  -17.2062  -41.3179   -8.0517 C   0  0  2  0  0  0  0  0  0  0  0  0
  -16.2017  -42.2477   -8.6137 C   0  0  0  0  0  0  0  0  0  0  0  0
  -16.1968  -43.6506   -8.1014 C   0  0  2  0  0  0  0  0  0  0  0  0
  -15.9552  -44.5778   -9.2732 C   0  0  0  0  0  0  0  0  0  0  0  0
  -17.4680  -43.9541   -7.3744 C   0  0  0  0  0  0  0  0  0  0  0  0
  -17.5964  -45.3936   -6.9585 C   0  0  0  0  0  0  0  0  0  0  0  0
  -18.5896  -45.6909   -6.1095 O   0  0  0  0  0  0  0  0  0  0  0  0
  -19.8776  -45.4372   -6.4064 C   0  0  0  0  0  0  0  0  0  0  0  0
  -20.6153  -44.5685   -5.4156 C   0  0  0  0  0  0  0  0  0  0  0  0
  -22.0588  -44.5695   -5.8118 C   0  0  0  0  0  0  0  0  0  0  0  0
  -22.4673  -43.4765   -6.5493 O   0  0  0  0  0  0  0  0  0  0  0  0
  -21.8395  -42.2711   -6.9064 C   0  0  0  0  0  0  0  0  0  0  0  0
  -20.8449  -42.0617   -7.8434 C   0  0  0  0  0  0  0  0  0  0  0  0
  -20.3865  -40.7827   -8.0060 C   0  0  0  0  0  0  0  0  0  0  0  0
  -20.9645  -39.7569   -7.2097 C   0  0  0  0  0  0  0  0  0  0  0  0
  -21.9539  -39.9654   -6.2824 C   0  0  0  0  0  0  0  0  0  0  0  0
  -22.5204  -38.8446   -5.4858 C   0  0  0  0  0  0  0  0  0  0  0  0
  -22.3498  -41.2210   -6.1700 N   0  0  0  0  0  0  0  0  0  0  0  0
  -19.3407  -40.2144   -8.8554 C   0  0  0  0  0  0  0  0  0  0  0  0
  -19.5460  -39.1086   -9.5247 O   0  0  0  0  0  0  0  0  0  0  0  0
  -18.0036  -40.6895   -9.1109 N   0  0  0  0  0  0  0  0  0  0  0  0
  -15.7858  -36.4538  -10.5828 C   0  0  0  0  0  0  0  0  0  0  0  0
  1  2  1  0
  2  3  1  0
  2  4  1  0
  4  5  2  0
  5  6  1  0
  6  7  2  0
  7  8  1  0
  8  9  1  0
  9 10  1  0
 10 11  1  0
 11 12  1  0
 12 13  1  1
 12 14  1  0
 14 15  1  6
 15 16  1  0
 16 17  1  6
 16 18  1  0
 18 19  1  0
 19 20  1  0
 20 21  1  0
 21 22  1  0
 22 23  1  0
 23 24  1  0
 24 25  1  0
 25 26  1  0
 26 27  2  0
 27 28  1  0
 28 29  2  0
 29 30  1  0
 29 31  1  0
 27 32  1  0
 32 33  2  0
 32 34  1  0
  8 35  2  0
 31 25  2  0
 34 14  1  0
 35  4  1  0
M  END
$$$$
