
     RDKit          3D

 35 37  0  0  0  0  0  0  0  0999 V2000
  -20.5612  -34.9153   -9.4412 C   0  0  0  0  0  0  0  0  0  0  0  0
  -20.7352  -36.1449  -10.2936 C   0  0  0  0  0  0  0  0  0  0  0  0
  -19.5014  -36.3060  -11.1874 C   0  0  0  0  0  0  0  0  0  0  0  0
  -20.9255  -37.3818   -9.4916 C   0  0  0  0  0  0  0  0  0  0  0  0
  -21.8648  -38.3228   -9.8605 C   0  0  0  0  0  0  0  0  0  0  0  0
  -22.0466  -39.4844   -9.1037 C   0  0  0  0  0  0  0  0  0  0  0  0
  -21.2958  -39.7062   -7.9855 C   0  0  0  0  0  0  0  0  0  0  0  0
  -20.3558  -38.7642   -7.6169 C   0  0  0  0  0  0  0  0  0  0  0  0
  -19.5524  -39.0026   -6.4032 C   0  0  0  0  0  0  0  0  0  0  0  0
  -18.1394  -38.8214   -6.7031 N   0  0  0  0  0  0  0  0  0  0  0  0
  -17.4928  -40.0364   -7.0808 C   0  0  0  0  0  0  0  0  0  0  0  0
  -16.0148  -39.9105   -7.2099 C   0  0  1  0  0  0  0  0  0  0  0  0
  -15.3407  -40.6570   -6.2742 O   0  0  0  0  0  0  0  0  0  0  0  0
  -15.4894  -40.1050   -8.6280 C   0  0  2  0  0  0  0  0  0  0  0  0
  -14.5414  -39.0248   -8.9797 C   0  0  0  0  0  0  0  0  0  0  0  0
  -13.1226  -39.4101   -9.2427 C   0  0  2  0  0  0  0  0  0  0  0  0
  -12.6253  -38.5971  -10.4187 C   0  0  0  0  0  0  0  0  0  0  0  0
  -13.0061  -40.8842   -9.4664 C   0  0  0  0  0  0  0  0  0  0  0  0
  -11.6298  -41.3245   -9.8829 C   0  0  0  0  0  0  0  0  0  0  0  0
  -11.3896  -42.6428   -9.8771 O   0  0  0  0  0  0  0  0  0  0  0  0
  -12.1214  -43.5013  -10.6114 C   0  0  0  0  0  0  0  0  0  0  0  0
  -12.7849  -44.6167   -9.8393 C   0  0  0  0  0  0  0  0  0  0  0  0
  -13.3740  -45.5611  -10.8404 C   0  0  0  0  0  0  0  0  0  0  0  0
  -14.7223  -45.3941  -11.0844 O   0  0  0  0  0  0  0  0  0  0  0  0
  -15.7139  -44.5973  -10.4872 C   0  0  0  0  0  0  0  0  0  0  0  0
  -15.9058  -43.2328  -10.5979 C   0  0  0  0  0  0  0  0  0  0  0  0
  -16.9497  -42.6814   -9.9059 C   0  0  0  0  0  0  0  0  0  0  0  0
  -17.7684  -43.5442   -9.1275 C   0  0  0  0  0  0  0  0  0  0  0  0
  -17.5789  -44.8988   -9.0210 C   0  0  0  0  0  0  0  0  0  0  0  0
  -18.4780  -45.7460   -8.1932 C   0  0  0  0  0  0  0  0  0  0  0  0
  -16.5533  -45.3687   -9.7089 N   0  0  0  0  0  0  0  0  0  0  0  0
  -17.4134  -41.3022   -9.7616 C   0  0  0  0  0  0  0  0  0  0  0  0
  -18.6858  -41.0087   -9.8495 O   0  0  0  0  0  0  0  0  0  0  0  0
  -16.6586  -40.0988   -9.5143 N   0  0  0  0  0  0  0  0  0  0  0  0
  -20.1736  -37.6245   -8.3545 C   0  0  0  0  0  0  0  0  0  0  0  0
  1  2  1  0
  2  3  1  0
  2  4  1  0
  4  5  2  0
  5  6  1  0
  6  7  2  0
  7  8  1  0
  8  9  1  0
  9 10  1  0
 10 11  1  0
 11 12  1  0
 12 13  1  1
 12 14  1  0
 14 15  1  6
 15 16  1  0
 16 17  1  6
 16 18  1  0
 18 19  1  0
 19 20  1  0
 20 21  1  0
 21 22  1  0
 22 23  1  0
 23 24  1  0
 24 25  1  0
 25 26  1  0
 26 27  2  0
 27 28  1  0
 28 29  2  0
 29 30  1  0
 29 31  1  0
 27 32  1  0
 32 33  2  0
 32 34  1  0
  8 35  2  0
 31 25  2  0
 34 14  1  0
 35  4  1  0
M  END
$$$$
