
     RDKit          3D

 35 37  0  0  0  0  0  0  0  0999 V2000
  -21.9862  -37.3545   -7.3282 C   0  0  0  0  0  0  0  0  0  0  0  0
  -21.9406  -37.3773   -8.8336 C   0  0  0  0  0  0  0  0  0  0  0  0
  -22.9082  -36.3195   -9.3740 C   0  0  0  0  0  0  0  0  0  0  0  0
  -20.5801  -37.1204   -9.3744 C   0  0  0  0  0  0  0  0  0  0  0  0
  -20.3977  -36.8214  -10.7090 C   0  0  0  0  0  0  0  0  0  0  0  0
  -19.1174  -36.5838  -11.2185 C   0  0  0  0  0  0  0  0  0  0  0  0
  -18.0255  -36.6440  -10.4015 C   0  0  0  0  0  0  0  0  0  0  0  0
  -18.2088  -36.9431   -9.0659 C   0  0  0  0  0  0  0  0  0  0  0  0
  -17.0261  -37.0161   -8.1877 C   0  0  0  0  0  0  0  0  0  0  0  0
  -16.2676  -38.2237   -8.4807 N   0  0  0  0  0  0  0  0  0  0  0  0
  -16.7372  -39.3619   -7.7591 C   0  0  0  0  0  0  0  0  0  0  0  0
  -15.8310  -40.5401   -7.8478 C   0  0  1  0  0  0  0  0  0  0  0  0
  -15.5095  -41.0490   -6.6129 O   0  0  0  0  0  0  0  0  0  0  0  0
  -16.2824  -41.6063   -8.8398 C   0  0  2  0  0  0  0  0  0  0  0  0
  -15.1185  -42.1628   -9.5643 C   0  0  0  0  0  0  0  0  0  0  0  0
  -14.8032  -43.6079   -9.3574 C   0  0  2  0  0  0  0  0  0  0  0  0
  -14.4008  -44.1967  -10.6926 C   0  0  0  0  0  0  0  0  0  0  0  0
  -15.9620  -44.3198   -8.7355 C   0  0  0  0  0  0  0  0  0  0  0  0
  -15.7715  -45.8081   -8.6332 C   0  0  0  0  0  0  0  0  0  0  0  0
  -16.6569  -46.4805   -7.8851 O   0  0  0  0  0  0  0  0  0  0  0  0
  -17.9767  -46.4501   -8.1476 C   0  0  0  0  0  0  0  0  0  0  0  0
  -18.8559  -45.9848   -7.0114 C   0  0  0  0  0  0  0  0  0  0  0  0
  -20.2762  -46.2099   -7.4274 C   0  0  0  0  0  0  0  0  0  0  0  0
  -20.9260  -45.0993   -7.9273 O   0  0  0  0  0  0  0  0  0  0  0  0
  -20.5773  -43.7406   -8.0113 C   0  0  0  0  0  0  0  0  0  0  0  0
  -19.6742  -43.1335   -8.8638 C   0  0  0  0  0  0  0  0  0  0  0  0
  -19.5017  -41.7812   -8.7456 C   0  0  0  0  0  0  0  0  0  0  0  0
  -20.2633  -41.0913   -7.7634 C   0  0  0  0  0  0  0  0  0  0  0  0
  -21.1617  -41.6945   -6.9201 C   0  0  0  0  0  0  0  0  0  0  0  0
  -21.9322  -40.9116   -5.9176 C   0  0  0  0  0  0  0  0  0  0  0  0
  -21.2795  -43.0006   -7.0812 N   0  0  0  0  0  0  0  0  0  0  0  0
  -18.6223  -40.8389   -9.4362 C   0  0  0  0  0  0  0  0  0  0  0  0
  -19.0746  -39.6871   -9.8627 O   0  0  0  0  0  0  0  0  0  0  0  0
  -17.2219  -40.9547   -9.7592 N   0  0  0  0  0  0  0  0  0  0  0  0
  -19.4606  -37.1768   -8.5615 C   0  0  0  0  0  0  0  0  0  0  0  0
  1  2  1  0
  2  3  1  0
  2  4  1  0
  4  5  2  0
  5  6  1  0
  6  7  2  0
  7  8  1  0
  8  9  1  0
  9 10  1  0
 10 11  1  0
 11 12  1  0
 12 13  1  1
 12 14  1  0
 14 15  1  6
 15 16  1  0
 16 17  1  6
 16 18  1  0
 18 19  1  0
 19 20  1  0
 20 21  1  0
 21 22  1  0
 22 23  1  0
 23 24  1  0
 24 25  1  0
 25 26  1  0
 26 27  2  0
 27 28  1  0
 28 29  2  0
 29 30  1  0
 29 31  1  0
 27 32  1  0
 32 33  2  0
 32 34  1  0
  8 35  2  0
 31 25  2  0
 34 14  1  0
 35  4  1  0
M  END
$$$$
