
     RDKit          3D

 35 37  0  0  0  0  0  0  0  0999 V2000
  -23.6020  -41.7305   -5.7890 C   0  0  0  0  0  0  0  0  0  0  0  0
  -23.4768  -40.2354   -5.6564 C   0  0  0  0  0  0  0  0  0  0  0  0
  -22.8250  -39.9110   -4.3085 C   0  0  0  0  0  0  0  0  0  0  0  0
  -22.6762  -39.6233   -6.7490 C   0  0  0  0  0  0  0  0  0  0  0  0
  -23.0429  -39.7891   -8.0688 C   0  0  0  0  0  0  0  0  0  0  0  0
  -22.2875  -39.2167   -9.0967 C   0  0  0  0  0  0  0  0  0  0  0  0
  -21.1726  -38.4830   -8.8099 C   0  0  0  0  0  0  0  0  0  0  0  0
  -20.8062  -38.3173   -7.4888 C   0  0  0  0  0  0  0  0  0  0  0  0
  -19.5961  -37.5315   -7.1828 C   0  0  0  0  0  0  0  0  0  0  0  0
  -18.4984  -37.9632   -8.0359 N   0  0  0  0  0  0  0  0  0  0  0  0
  -18.1122  -39.3167   -7.7997 C   0  0  0  0  0  0  0  0  0  0  0  0
  -16.6392  -39.5069   -7.6927 C   0  0  1  0  0  0  0  0  0  0  0  0
  -16.2688  -40.0754   -6.4982 O   0  0  0  0  0  0  0  0  0  0  0  0
  -16.0035  -40.1810   -8.9035 C   0  0  2  0  0  0  0  0  0  0  0  0
  -14.8890  -39.3594   -9.4254 C   0  0  0  0  0  0  0  0  0  0  0  0
  -13.5151  -39.9419   -9.3652 C   0  0  2  0  0  0  0  0  0  0  0  0
  -12.7969  -39.5852  -10.6491 C   0  0  0  0  0  0  0  0  0  0  0  0
  -13.5742  -41.4167   -9.1245 C   0  0  0  0  0  0  0  0  0  0  0  0
  -12.2339  -42.0946   -9.1990 C   0  0  0  0  0  0  0  0  0  0  0  0
  -12.1736  -43.3628   -8.7705 O   0  0  0  0  0  0  0  0  0  0  0  0
  -12.9352  -44.3321   -9.3111 C   0  0  0  0  0  0  0  0  0  0  0  0
  -13.8165  -45.0840   -8.3424 C   0  0  0  0  0  0  0  0  0  0  0  0
  -14.4217  -46.2309   -9.0902 C   0  0  0  0  0  0  0  0  0  0  0  0
  -15.7040  -46.0190   -9.5554 O   0  0  0  0  0  0  0  0  0  0  0  0
  -16.6358  -44.9849   -9.3628 C   0  0  0  0  0  0  0  0  0  0  0  0
  -16.6316  -43.7101   -9.8975 C   0  0  0  0  0  0  0  0  0  0  0  0
  -17.6573  -42.8737   -9.5498 C   0  0  0  0  0  0  0  0  0  0  0  0
  -18.6586  -43.3697   -8.6711 C   0  0  0  0  0  0  0  0  0  0  0  0
  -18.6633  -44.6362   -8.1437 C   0  0  0  0  0  0  0  0  0  0  0  0
  -19.7468  -45.0944   -7.2339 C   0  0  0  0  0  0  0  0  0  0  0  0
  -17.6452  -45.3925   -8.5140 N   0  0  0  0  0  0  0  0  0  0  0  0
  -17.9450  -41.4798   -9.8851 C   0  0  0  0  0  0  0  0  0  0  0  0
  -19.1513  -41.1071  -10.2298 O   0  0  0  0  0  0  0  0  0  0  0  0
  -17.0654  -40.3375   -9.9037 N   0  0  0  0  0  0  0  0  0  0  0  0
  -21.5425  -38.8758   -6.4780 C   0  0  0  0  0  0  0  0  0  0  0  0
  1  2  1  0
  2  3  1  0
  2  4  1  0
  4  5  2  0
  5  6  1  0
  6  7  2  0
  7  8  1  0
  8  9  1  0
  9 10  1  0
 10 11  1  0
 11 12  1  0
 12 13  1  1
 12 14  1  0
 14 15  1  6
 15 16  1  0
 16 17  1  6
 16 18  1  0
 18 19  1  0
 19 20  1  0
 20 21  1  0
 21 22  1  0
 22 23  1  0
 23 24  1  0
 24 25  1  0
 25 26  1  0
 26 27  2  0
 27 28  1  0
 28 29  2  0
 29 30  1  0
 29 31  1  0
 27 32  1  0
 32 33  2  0
 32 34  1  0
  8 35  2  0
 31 25  2  0
 34 14  1  0
 35  4  1  0
M  END
$$$$
