
     RDKit          3D

 35 37  0  0  0  0  0  0  0  0999 V2000
  -16.3102  -35.4030  -14.0437 C   0  0  0  0  0  0  0  0  0  0  0  0
  -16.6062  -34.7145  -12.7372 C   0  0  0  0  0  0  0  0  0  0  0  0
  -17.0369  -33.2726  -13.0240 C   0  0  0  0  0  0  0  0  0  0  0  0
  -17.6676  -35.3971  -11.9518 C   0  0  0  0  0  0  0  0  0  0  0  0
  -18.9366  -35.5542  -12.4703 C   0  0  0  0  0  0  0  0  0  0  0  0
  -19.9361  -36.1927  -11.7298 C   0  0  0  0  0  0  0  0  0  0  0  0
  -19.6714  -36.6717  -10.4792 C   0  0  0  0  0  0  0  0  0  0  0  0
  -18.4012  -36.5142   -9.9608 C   0  0  0  0  0  0  0  0  0  0  0  0
  -18.1209  -37.0249   -8.6059 C   0  0  0  0  0  0  0  0  0  0  0  0
  -17.7000  -38.4166   -8.6802 N   0  0  0  0  0  0  0  0  0  0  0  0
  -17.3650  -38.9631   -7.4050 C   0  0  0  0  0  0  0  0  0  0  0  0
  -16.4832  -40.1604   -7.4821 C   0  0  1  0  0  0  0  0  0  0  0  0
  -16.0183  -40.5501   -6.2495 O   0  0  0  0  0  0  0  0  0  0  0  0
  -17.0572  -41.3114   -8.3008 C   0  0  2  0  0  0  0  0  0  0  0  0
  -16.0110  -41.9025   -9.1642 C   0  0  0  0  0  0  0  0  0  0  0  0
  -15.6200  -43.3200   -8.9029 C   0  0  2  0  0  0  0  0  0  0  0  0
  -15.4239  -44.0069  -10.2374 C   0  0  0  0  0  0  0  0  0  0  0  0
  -16.6376  -44.0012   -8.0443 C   0  0  0  0  0  0  0  0  0  0  0  0
  -16.3855  -45.4725   -7.8617 C   0  0  0  0  0  0  0  0  0  0  0  0
  -17.1141  -46.0989   -6.9277 O   0  0  0  0  0  0  0  0  0  0  0  0
  -18.4593  -46.1146   -6.9686 C   0  0  0  0  0  0  0  0  0  0  0  0
  -19.1544  -45.5759   -5.7409 C   0  0  0  0  0  0  0  0  0  0  0  0
  -20.6157  -45.8605   -5.8965 C   0  0  0  0  0  0  0  0  0  0  0  0
  -21.3739  -44.8063   -6.3647 O   0  0  0  0  0  0  0  0  0  0  0  0
  -21.0873  -43.4524   -6.6091 C   0  0  0  0  0  0  0  0  0  0  0  0
  -20.3564  -42.8991   -7.6437 C   0  0  0  0  0  0  0  0  0  0  0  0
  -20.2100  -41.5387   -7.6595 C   0  0  0  0  0  0  0  0  0  0  0  0
  -20.8215  -40.7863   -6.6200 C   0  0  0  0  0  0  0  0  0  0  0  0
  -21.5495  -41.3364   -5.5954 C   0  0  0  0  0  0  0  0  0  0  0  0
  -22.1694  -40.4899   -4.5415 C   0  0  0  0  0  0  0  0  0  0  0  0
  -21.6504  -42.6532   -5.6345 N   0  0  0  0  0  0  0  0  0  0  0  0
  -19.4866  -40.6387   -8.5567 C   0  0  0  0  0  0  0  0  0  0  0  0
  -20.0393  -39.5338   -8.9887 O   0  0  0  0  0  0  0  0  0  0  0  0
  -18.1553  -40.7538   -9.0983 N   0  0  0  0  0  0  0  0  0  0  0  0
  -17.4184  -35.8896  -10.6818 C   0  0  0  0  0  0  0  0  0  0  0  0
  1  2  1  0
  2  3  1  0
  2  4  1  0
  4  5  2  0
  5  6  1  0
  6  7  2  0
  7  8  1  0
  8  9  1  0
  9 10  1  0
 10 11  1  0
 11 12  1  0
 12 13  1  1
 12 14  1  0
 14 15  1  6
 15 16  1  0
 16 17  1  6
 16 18  1  0
 18 19  1  0
 19 20  1  0
 20 21  1  0
 21 22  1  0
 22 23  1  0
 23 24  1  0
 24 25  1  0
 25 26  1  0
 26 27  2  0
 27 28  1  0
 28 29  2  0
 29 30  1  0
 29 31  1  0
 27 32  1  0
 32 33  2  0
 32 34  1  0
  8 35  2  0
 31 25  2  0
 34 14  1  0
 35  4  1  0
M  END
$$$$
