
     RDKit          3D

 35 37  0  0  0  0  0  0  0  0999 V2000
  -25.8771  -39.8159   -7.3186 C   0  0  0  0  0  0  0  0  0  0  0  0
  -24.7129  -39.0480   -6.7496 C   0  0  0  0  0  0  0  0  0  0  0  0
  -24.3064  -39.6821   -5.4155 C   0  0  0  0  0  0  0  0  0  0  0  0
  -23.5377  -39.0220   -7.6593 C   0  0  0  0  0  0  0  0  0  0  0  0
  -23.5339  -38.2202   -8.7822 C   0  0  0  0  0  0  0  0  0  0  0  0
  -22.4300  -38.1989   -9.6401 C   0  0  0  0  0  0  0  0  0  0  0  0
  -21.3361  -38.9730   -9.3795 C   0  0  0  0  0  0  0  0  0  0  0  0
  -21.3406  -39.7751   -8.2554 C   0  0  0  0  0  0  0  0  0  0  0  0
  -20.1609  -40.6169   -7.9815 C   0  0  0  0  0  0  0  0  0  0  0  0
  -19.6481  -41.1685   -9.2273 N   0  0  0  0  0  0  0  0  0  0  0  0
  -18.3641  -40.6515   -9.5753 C   0  0  0  0  0  0  0  0  0  0  0  0
  -17.5647  -41.5681  -10.4344 C   0  0  1  0  0  0  0  0  0  0  0  0
  -17.4739  -41.1254  -11.7318 O   0  0  0  0  0  0  0  0  0  0  0  0
  -16.2200  -41.9724   -9.8403 C   0  0  2  0  0  0  0  0  0  0  0  0
  -16.1013  -43.4463   -9.7880 C   0  0  0  0  0  0  0  0  0  0  0  0
  -15.0374  -44.0830  -10.6208 C   0  0  2  0  0  0  0  0  0  0  0  0
  -14.4138  -45.2005   -9.8122 C   0  0  0  0  0  0  0  0  0  0  0  0
  -14.0377  -43.0664  -11.0721 C   0  0  0  0  0  0  0  0  0  0  0  0
  -12.8573  -43.6587  -11.7914 C   0  0  0  0  0  0  0  0  0  0  0  0
  -12.0425  -42.8024  -12.4226 O   0  0  0  0  0  0  0  0  0  0  0  0
  -11.4181  -41.8043  -11.7703 C   0  0  0  0  0  0  0  0  0  0  0  0
  -11.6766  -40.4156  -12.3042 C   0  0  0  0  0  0  0  0  0  0  0  0
  -10.7520  -39.4836  -11.5851 C   0  0  0  0  0  0  0  0  0  0  0  0
  -11.3113  -38.8043  -10.5215 O   0  0  0  0  0  0  0  0  0  0  0  0
  -12.6257  -38.6966  -10.0362 C   0  0  0  0  0  0  0  0  0  0  0  0
  -13.3690  -39.6351   -9.3449 C   0  0  0  0  0  0  0  0  0  0  0  0
  -14.6433  -39.2925   -8.9827 C   0  0  0  0  0  0  0  0  0  0  0  0
  -15.1152  -37.9983   -9.3334 C   0  0  0  0  0  0  0  0  0  0  0  0
  -14.3754  -37.0666  -10.0168 C   0  0  0  0  0  0  0  0  0  0  0  0
  -14.9282  -35.7260  -10.3467 C   0  0  0  0  0  0  0  0  0  0  0  0
  -13.1561  -37.4592  -10.3410 N   0  0  0  0  0  0  0  0  0  0  0  0
  -15.7018  -40.0316   -8.2961 C   0  0  0  0  0  0  0  0  0  0  0  0
  -16.4017  -39.4718   -7.3423 O   0  0  0  0  0  0  0  0  0  0  0  0
  -16.1594  -41.3839   -8.4976 N   0  0  0  0  0  0  0  0  0  0  0  0
  -22.4192  -39.7999   -7.4117 C   0  0  0  0  0  0  0  0  0  0  0  0
  1  2  1  0
  2  3  1  0
  2  4  1  0
  4  5  2  0
  5  6  1  0
  6  7  2  0
  7  8  1  0
  8  9  1  0
  9 10  1  0
 10 11  1  0
 11 12  1  0
 12 13  1  6
 12 14  1  0
 14 15  1  1
 15 16  1  0
 16 17  1  1
 16 18  1  0
 18 19  1  0
 19 20  1  0
 20 21  1  0
 21 22  1  0
 22 23  1  0
 23 24  1  0
 24 25  1  0
 25 26  1  0
 26 27  2  0
 27 28  1  0
 28 29  2  0
 29 30  1  0
 29 31  1  0
 27 32  1  0
 32 33  2  0
 32 34  1  0
  8 35  2  0
 31 25  2  0
 34 14  1  0
 35  4  1  0
M  END
$$$$
