
     RDKit          3D

 35 37  0  0  0  0  0  0  0  0999 V2000
  -22.3612  -40.1476   -5.5545 C   0  0  0  0  0  0  0  0  0  0  0  0
  -22.9841  -39.4588   -6.7403 C   0  0  0  0  0  0  0  0  0  0  0  0
  -23.7123  -38.2011   -6.2558 C   0  0  0  0  0  0  0  0  0  0  0  0
  -21.9888  -39.0811   -7.7777 C   0  0  0  0  0  0  0  0  0  0  0  0
  -22.1406  -39.4980   -9.0843 C   0  0  0  0  0  0  0  0  0  0  0  0
  -21.2021  -39.1460  -10.0592 C   0  0  0  0  0  0  0  0  0  0  0  0
  -20.1185  -38.3826   -9.7328 C   0  0  0  0  0  0  0  0  0  0  0  0
  -19.9673  -37.9656   -8.4251 C   0  0  0  0  0  0  0  0  0  0  0  0
  -18.7908  -37.1484   -8.0738 C   0  0  0  0  0  0  0  0  0  0  0  0
  -17.9409  -37.8801   -7.1455 N   0  0  0  0  0  0  0  0  0  0  0  0
  -17.9655  -39.2900   -7.3652 C   0  0  0  0  0  0  0  0  0  0  0  0
  -16.6211  -39.9272   -7.3021 C   0  0  1  0  0  0  0  0  0  0  0  0
  -16.4605  -40.7038   -6.1804 O   0  0  0  0  0  0  0  0  0  0  0  0
  -16.1985  -40.6304   -8.5872 C   0  0  2  0  0  0  0  0  0  0  0  0
  -15.0569  -39.9246   -9.2101 C   0  0  0  0  0  0  0  0  0  0  0  0
  -13.7613  -40.6610   -9.3096 C   0  0  2  0  0  0  0  0  0  0  0  0
  -13.1451  -40.3477  -10.6562 C   0  0  0  0  0  0  0  0  0  0  0  0
  -13.9662  -42.1265   -9.0927 C   0  0  0  0  0  0  0  0  0  0  0  0
  -12.7291  -42.9496   -9.3243 C   0  0  0  0  0  0  0  0  0  0  0  0
  -12.7723  -44.2294   -8.9296 O   0  0  0  0  0  0  0  0  0  0  0  0
  -13.6939  -45.0882   -9.4037 C   0  0  0  0  0  0  0  0  0  0  0  0
  -14.5504  -45.7655   -8.3605 C   0  0  0  0  0  0  0  0  0  0  0  0
  -15.3599  -46.8119   -9.0609 C   0  0  0  0  0  0  0  0  0  0  0  0
  -16.6504  -46.4409   -9.3810 O   0  0  0  0  0  0  0  0  0  0  0  0
  -17.4302  -45.3142   -9.0691 C   0  0  0  0  0  0  0  0  0  0  0  0
  -17.3338  -44.0319   -9.5762 C   0  0  0  0  0  0  0  0  0  0  0  0
  -18.2130  -43.0958   -9.1038 C   0  0  0  0  0  0  0  0  0  0  0  0
  -19.1676  -43.5024   -8.1322 C   0  0  0  0  0  0  0  0  0  0  0  0
  -19.2644  -44.7763   -7.6320 C   0  0  0  0  0  0  0  0  0  0  0  0
  -20.2925  -45.1371   -6.6199 C   0  0  0  0  0  0  0  0  0  0  0  0
  -18.3857  -45.6313   -8.1246 N   0  0  0  0  0  0  0  0  0  0  0  0
  -18.3701  -41.6683   -9.3790 C   0  0  0  0  0  0  0  0  0  0  0  0
  -19.5543  -41.1502   -9.5844 O   0  0  0  0  0  0  0  0  0  0  0  0
  -17.3703  -40.6333   -9.4701 N   0  0  0  0  0  0  0  0  0  0  0  0
  -20.8834  -38.3075   -7.4660 C   0  0  0  0  0  0  0  0  0  0  0  0
  1  2  1  0
  2  3  1  0
  2  4  1  0
  4  5  2  0
  5  6  1  0
  6  7  2  0
  7  8  1  0
  8  9  1  0
  9 10  1  0
 10 11  1  0
 11 12  1  0
 12 13  1  1
 12 14  1  0
 14 15  1  6
 15 16  1  0
 16 17  1  6
 16 18  1  0
 18 19  1  0
 19 20  1  0
 20 21  1  0
 21 22  1  0
 22 23  1  0
 23 24  1  0
 24 25  1  0
 25 26  1  0
 26 27  2  0
 27 28  1  0
 28 29  2  0
 29 30  1  0
 29 31  1  0
 27 32  1  0
 32 33  2  0
 32 34  1  0
  8 35  2  0
 31 25  2  0
 34 14  1  0
 35  4  1  0
M  END
$$$$
