
     RDKit          3D

 35 37  0  0  0  0  0  0  0  0999 V2000
  -24.7896  -41.2596   -4.7134 C   0  0  0  0  0  0  0  0  0  0  0  0
  -23.2926  -41.0934   -4.7260 C   0  0  0  0  0  0  0  0  0  0  0  0
  -22.6404  -42.4787   -4.6751 C   0  0  0  0  0  0  0  0  0  0  0  0
  -22.8022  -40.3634   -5.9243 C   0  0  0  0  0  0  0  0  0  0  0  0
  -23.3789  -40.5713   -7.1605 C   0  0  0  0  0  0  0  0  0  0  0  0
  -22.9148  -39.8876   -8.2884 C   0  0  0  0  0  0  0  0  0  0  0  0
  -21.8815  -39.0016   -8.1840 C   0  0  0  0  0  0  0  0  0  0  0  0
  -21.3049  -38.7940   -6.9465 C   0  0  0  0  0  0  0  0  0  0  0  0
  -20.1829  -37.8429   -6.8387 C   0  0  0  0  0  0  0  0  0  0  0  0
  -19.0352  -38.3475   -7.5786 N   0  0  0  0  0  0  0  0  0  0  0  0
  -18.2187  -39.2251   -6.8040 C   0  0  0  0  0  0  0  0  0  0  0  0
  -16.7920  -39.2438   -7.2299 C   0  0  1  0  0  0  0  0  0  0  0  0
  -16.0453  -40.1554   -6.5237 O   0  0  0  0  0  0  0  0  0  0  0  0
  -16.5880  -39.3373   -8.7380 C   0  0  2  0  0  0  0  0  0  0  0  0
  -16.3165  -37.9982   -9.3059 C   0  0  0  0  0  0  0  0  0  0  0  0
  -14.9789  -37.7715   -9.9302 C   0  0  2  0  0  0  0  0  0  0  0  0
  -15.1790  -36.9453  -11.1827 C   0  0  0  0  0  0  0  0  0  0  0  0
  -14.2911  -39.0723  -10.1977 C   0  0  0  0  0  0  0  0  0  0  0  0
  -13.0029  -38.9282  -10.9603 C   0  0  0  0  0  0  0  0  0  0  0  0
  -12.2207  -40.0136  -11.0355 O   0  0  0  0  0  0  0  0  0  0  0  0
  -12.6586  -41.1690  -11.5693 C   0  0  0  0  0  0  0  0  0  0  0  0
  -12.5676  -42.3779  -10.6689 C   0  0  0  0  0  0  0  0  0  0  0  0
  -12.9075  -43.5767  -11.4985 C   0  0  0  0  0  0  0  0  0  0  0  0
  -14.2097  -44.0205  -11.3852 O   0  0  0  0  0  0  0  0  0  0  0  0
  -15.2753  -43.6629  -10.5418 C   0  0  0  0  0  0  0  0  0  0  0  0
  -16.0606  -42.5259  -10.5797 C   0  0  0  0  0  0  0  0  0  0  0  0
  -17.0425  -42.4020   -9.6348 C   0  0  0  0  0  0  0  0  0  0  0  0
  -17.1946  -43.4483   -8.6846 C   0  0  0  0  0  0  0  0  0  0  0  0
  -16.4167  -44.5779   -8.6500 C   0  0  0  0  0  0  0  0  0  0  0  0
  -16.6337  -45.6393   -7.6313 C   0  0  0  0  0  0  0  0  0  0  0  0
  -15.4850  -44.6357   -9.5851 N   0  0  0  0  0  0  0  0  0  0  0  0
  -18.0098  -41.3414   -9.3562 C   0  0  0  0  0  0  0  0  0  0  0  0
  -19.2638  -41.6237   -9.1099 O   0  0  0  0  0  0  0  0  0  0  0  0
  -17.8174  -39.9138   -9.2938 N   0  0  0  0  0  0  0  0  0  0  0  0
  -21.7555  -39.4611   -5.8384 C   0  0  0  0  0  0  0  0  0  0  0  0
  1  2  1  0
  2  3  1  0
  2  4  1  0
  4  5  2  0
  5  6  1  0
  6  7  2  0
  7  8  1  0
  8  9  1  0
  9 10  1  0
 10 11  1  0
 11 12  1  0
 12 13  1  1
 12 14  1  0
 14 15  1  6
 15 16  1  0
 16 17  1  6
 16 18  1  0
 18 19  1  0
 19 20  1  0
 20 21  1  0
 21 22  1  0
 22 23  1  0
 23 24  1  0
 24 25  1  0
 25 26  1  0
 26 27  2  0
 27 28  1  0
 28 29  2  0
 29 30  1  0
 29 31  1  0
 27 32  1  0
 32 33  2  0
 32 34  1  0
  8 35  2  0
 31 25  2  0
 34 14  1  0
 35  4  1  0
M  END
$$$$
