
     RDKit          3D

 35 37  0  0  0  0  0  0  0  0999 V2000
  -24.5238  -37.6658   -6.6287 C   0  0  0  0  0  0  0  0  0  0  0  0
  -24.1980  -38.6319   -7.7374 C   0  0  0  0  0  0  0  0  0  0  0  0
  -23.6742  -37.8440   -8.9423 C   0  0  0  0  0  0  0  0  0  0  0  0
  -23.1897  -39.6491   -7.3398 C   0  0  0  0  0  0  0  0  0  0  0  0
  -23.3620  -40.9779   -7.6693 C   0  0  0  0  0  0  0  0  0  0  0  0
  -22.4155  -41.9352   -7.2917 C   0  0  0  0  0  0  0  0  0  0  0  0
  -21.3034  -41.5694   -6.5895 C   0  0  0  0  0  0  0  0  0  0  0  0
  -21.1316  -40.2394   -6.2601 C   0  0  0  0  0  0  0  0  0  0  0  0
  -19.9336  -39.8487   -5.4937 C   0  0  0  0  0  0  0  0  0  0  0  0
  -18.9826  -39.1810   -6.3706 N   0  0  0  0  0  0  0  0  0  0  0  0
  -18.0569  -40.0840   -6.9744 C   0  0  0  0  0  0  0  0  0  0  0  0
  -16.8232  -39.4227   -7.4821 C   0  0  1  0  0  0  0  0  0  0  0  0
  -15.6775  -40.0334   -7.0329 O   0  0  0  0  0  0  0  0  0  0  0  0
  -16.8204  -39.1682   -8.9854 C   0  0  2  0  0  0  0  0  0  0  0  0
  -17.1816  -37.7621   -9.2713 C   0  0  0  0  0  0  0  0  0  0  0  0
  -16.1463  -36.9011   -9.9174 C   0  0  2  0  0  0  0  0  0  0  0  0
  -16.8342  -36.0337  -10.9497 C   0  0  0  0  0  0  0  0  0  0  0  0
  -15.0502  -37.7357  -10.4992 C   0  0  0  0  0  0  0  0  0  0  0  0
  -14.0475  -36.9459  -11.2944 C   0  0  0  0  0  0  0  0  0  0  0  0
  -12.9221  -37.5811  -11.6489 O   0  0  0  0  0  0  0  0  0  0  0  0
  -12.9442  -38.7062  -12.3874 C   0  0  0  0  0  0  0  0  0  0  0  0
  -12.2565  -39.9020  -11.7728 C   0  0  0  0  0  0  0  0  0  0  0  0
  -12.2155  -40.9756  -12.8152 C   0  0  0  0  0  0  0  0  0  0  0  0
  -13.2077  -41.9302  -12.7160 O   0  0  0  0  0  0  0  0  0  0  0  0
  -14.1933  -42.1927  -11.7493 C   0  0  0  0  0  0  0  0  0  0  0  0
  -15.3581  -41.4934  -11.4939 C   0  0  0  0  0  0  0  0  0  0  0  0
  -16.1613  -41.9476  -10.4834 C   0  0  0  0  0  0  0  0  0  0  0  0
  -15.7509  -43.1067   -9.7701 C   0  0  0  0  0  0  0  0  0  0  0  0
  -14.5962  -43.8018  -10.0267 C   0  0  0  0  0  0  0  0  0  0  0  0
  -14.2289  -45.0127   -9.2456 C   0  0  0  0  0  0  0  0  0  0  0  0
  -13.8631  -43.3109  -11.0103 N   0  0  0  0  0  0  0  0  0  0  0  0
  -17.4154  -41.4452   -9.9240 C   0  0  0  0  0  0  0  0  0  0  0  0
  -18.4079  -42.2578   -9.6637 O   0  0  0  0  0  0  0  0  0  0  0  0
  -17.7916  -40.0987   -9.5715 N   0  0  0  0  0  0  0  0  0  0  0  0
  -22.0556  -39.2974   -6.6274 C   0  0  0  0  0  0  0  0  0  0  0  0
  1  2  1  0
  2  3  1  0
  2  4  1  0
  4  5  2  0
  5  6  1  0
  6  7  2  0
  7  8  1  0
  8  9  1  0
  9 10  1  0
 10 11  1  0
 11 12  1  0
 12 13  1  6
 12 14  1  0
 14 15  1  1
 15 16  1  0
 16 17  1  6
 16 18  1  0
 18 19  1  0
 19 20  1  0
 20 21  1  0
 21 22  1  0
 22 23  1  0
 23 24  1  0
 24 25  1  0
 25 26  1  0
 26 27  2  0
 27 28  1  0
 28 29  2  0
 29 30  1  0
 29 31  1  0
 27 32  1  0
 32 33  2  0
 32 34  1  0
  8 35  2  0
 31 25  2  0
 34 14  1  0
 35  4  1  0
M  END
$$$$
