
     RDKit          3D

 35 37  0  0  0  0  0  0  0  0999 V2000
  -23.7843  -36.6802   -8.5621 C   0  0  0  0  0  0  0  0  0  0  0  0
  -22.9022  -37.5181   -7.6741 C   0  0  0  0  0  0  0  0  0  0  0  0
  -23.4068  -38.9644   -7.6981 C   0  0  0  0  0  0  0  0  0  0  0  0
  -21.4741  -37.4894   -8.0855 C   0  0  0  0  0  0  0  0  0  0  0  0
  -21.1259  -37.4739   -9.4206 C   0  0  0  0  0  0  0  0  0  0  0  0
  -19.7825  -37.4510   -9.8074 C   0  0  0  0  0  0  0  0  0  0  0  0
  -18.7920  -37.4436   -8.8681 C   0  0  0  0  0  0  0  0  0  0  0  0
  -19.1411  -37.4590   -7.5321 C   0  0  0  0  0  0  0  0  0  0  0  0
  -18.0685  -37.4600   -6.5198 C   0  0  0  0  0  0  0  0  0  0  0  0
  -16.8377  -37.9717   -7.1052 N   0  0  0  0  0  0  0  0  0  0  0  0
  -17.0715  -38.8795   -8.1813 C   0  0  0  0  0  0  0  0  0  0  0  0
  -16.3783  -40.1874   -8.0197 C   0  0  1  0  0  0  0  0  0  0  0  0
  -16.9179  -40.9462   -7.0096 O   0  0  0  0  0  0  0  0  0  0  0  0
  -16.1880  -40.9620   -9.3192 C   0  0  2  0  0  0  0  0  0  0  0  0
  -15.1649  -40.3079  -10.1647 C   0  0  0  0  0  0  0  0  0  0  0  0
  -13.9114  -41.0698  -10.4452 C   0  0  2  0  0  0  0  0  0  0  0  0
  -13.5332  -40.8356  -11.8921 C   0  0  0  0  0  0  0  0  0  0  0  0
  -14.0871  -42.5187  -10.1192 C   0  0  0  0  0  0  0  0  0  0  0  0
  -12.9145  -43.3729  -10.5151 C   0  0  0  0  0  0  0  0  0  0  0  0
  -12.8990  -44.6301  -10.0516 O   0  0  0  0  0  0  0  0  0  0  0  0
  -13.8948  -45.4965  -10.3149 C   0  0  0  0  0  0  0  0  0  0  0  0
  -14.5646  -46.1056   -9.1062 C   0  0  0  0  0  0  0  0  0  0  0  0
  -15.4903  -47.1726   -9.6014 C   0  0  0  0  0  0  0  0  0  0  0  0
  -16.8138  -46.7971   -9.7151 O   0  0  0  0  0  0  0  0  0  0  0  0
  -17.5198  -45.6432   -9.3345 C   0  0  0  0  0  0  0  0  0  0  0  0
  -17.5021  -44.3901   -9.9178 C   0  0  0  0  0  0  0  0  0  0  0  0
  -18.2800  -43.4167   -9.3522 C   0  0  0  0  0  0  0  0  0  0  0  0
  -19.0567  -43.7575   -8.2115 C   0  0  0  0  0  0  0  0  0  0  0  0
  -19.0759  -45.0025   -7.6354 C   0  0  0  0  0  0  0  0  0  0  0  0
  -19.9176  -45.2943   -6.4447 C   0  0  0  0  0  0  0  0  0  0  0  0
  -18.3013  -45.8960   -8.2250 N   0  0  0  0  0  0  0  0  0  0  0  0
  -18.4711  -42.0026   -9.6717 C   0  0  0  0  0  0  0  0  0  0  0  0
  -19.6690  -41.4761   -9.6986 O   0  0  0  0  0  0  0  0  0  0  0  0
  -17.4940  -40.9904   -9.9871 N   0  0  0  0  0  0  0  0  0  0  0  0
  -20.4555  -37.4815   -7.1475 C   0  0  0  0  0  0  0  0  0  0  0  0
  1  2  1  0
  2  3  1  0
  2  4  1  0
  4  5  2  0
  5  6  1  0
  6  7  2  0
  7  8  1  0
  8  9  1  0
  9 10  1  0
 10 11  1  0
 11 12  1  0
 12 13  1  1
 12 14  1  0
 14 15  1  6
 15 16  1  0
 16 17  1  6
 16 18  1  0
 18 19  1  0
 19 20  1  0
 20 21  1  0
 21 22  1  0
 22 23  1  0
 23 24  1  0
 24 25  1  0
 25 26  1  0
 26 27  2  0
 27 28  1  0
 28 29  2  0
 29 30  1  0
 29 31  1  0
 27 32  1  0
 32 33  2  0
 32 34  1  0
  8 35  2  0
 31 25  2  0
 34 14  1  0
 35  4  1  0
M  END
$$$$
