
     RDKit          3D

 35 37  0  0  0  0  0  0  0  0999 V2000
  -24.3626  -40.8545   -5.0711 C   0  0  0  0  0  0  0  0  0  0  0  0
  -22.8760  -41.0668   -5.1878 C   0  0  0  0  0  0  0  0  0  0  0  0
  -22.6117  -42.5350   -5.5363 C   0  0  0  0  0  0  0  0  0  0  0  0
  -22.2470  -40.1970   -6.2160 C   0  0  0  0  0  0  0  0  0  0  0  0
  -22.7557  -40.1403   -7.4974 C   0  0  0  0  0  0  0  0  0  0  0  0
  -22.1614  -39.3252   -8.4656 C   0  0  0  0  0  0  0  0  0  0  0  0
  -21.0661  -38.5710   -8.1576 C   0  0  0  0  0  0  0  0  0  0  0  0
  -20.5575  -38.6282   -6.8750 C   0  0  0  0  0  0  0  0  0  0  0  0
  -19.3686  -37.8190   -6.5478 C   0  0  0  0  0  0  0  0  0  0  0  0
  -18.2584  -38.6926   -6.1963 N   0  0  0  0  0  0  0  0  0  0  0  0
  -17.7644  -39.4362   -7.3098 C   0  0  0  0  0  0  0  0  0  0  0  0
  -16.4712  -38.9248   -7.8422 C   0  0  1  0  0  0  0  0  0  0  0  0
  -15.3872  -39.5650   -7.2922 O   0  0  0  0  0  0  0  0  0  0  0  0
  -16.4098  -38.8349   -9.3631 C   0  0  2  0  0  0  0  0  0  0  0  0
  -16.6725  -37.4487   -9.8090 C   0  0  0  0  0  0  0  0  0  0  0  0
  -15.5666  -36.7267  -10.5062 C   0  0  2  0  0  0  0  0  0  0  0  0
  -16.1684  -35.9359  -11.6481 C   0  0  0  0  0  0  0  0  0  0  0  0
  -14.5099  -37.6839  -10.9576 C   0  0  0  0  0  0  0  0  0  0  0  0
  -13.4370  -37.0466  -11.7967 C   0  0  0  0  0  0  0  0  0  0  0  0
  -12.3448  -37.7832  -12.0424 O   0  0  0  0  0  0  0  0  0  0  0  0
  -12.4177  -38.9781  -12.6576 C   0  0  0  0  0  0  0  0  0  0  0  0
  -11.8252  -40.1398  -11.8960 C   0  0  0  0  0  0  0  0  0  0  0  0
  -11.8234  -41.3203  -12.8165 C   0  0  0  0  0  0  0  0  0  0  0  0
  -12.8768  -42.1969  -12.6512 O   0  0  0  0  0  0  0  0  0  0  0  0
  -13.9040  -42.2934  -11.6971 C   0  0  0  0  0  0  0  0  0  0  0  0
  -15.0286  -41.5016  -11.5581 C   0  0  0  0  0  0  0  0  0  0  0  0
  -15.8873  -41.7946  -10.5337 C   0  0  0  0  0  0  0  0  0  0  0  0
  -15.5719  -42.8925   -9.6876 C   0  0  0  0  0  0  0  0  0  0  0  0
  -14.4571  -43.6796   -9.8286 C   0  0  0  0  0  0  0  0  0  0  0  0
  -14.1898  -44.8190   -8.9110 C   0  0  0  0  0  0  0  0  0  0  0  0
  -13.6668  -43.3431  -10.8326 N   0  0  0  0  0  0  0  0  0  0  0  0
  -17.1221  -41.1600  -10.0748 C   0  0  0  0  0  0  0  0  0  0  0  0
  -18.1713  -41.8782   -9.7646 O   0  0  0  0  0  0  0  0  0  0  0  0
  -17.4215  -39.7630   -9.8805 N   0  0  0  0  0  0  0  0  0  0  0  0
  -21.1356  -39.4249   -5.9226 C   0  0  0  0  0  0  0  0  0  0  0  0
  1  2  1  0
  2  3  1  0
  2  4  1  0
  4  5  2  0
  5  6  1  0
  6  7  2  0
  7  8  1  0
  8  9  1  0
  9 10  1  0
 10 11  1  0
 11 12  1  0
 12 13  1  6
 12 14  1  0
 14 15  1  1
 15 16  1  0
 16 17  1  6
 16 18  1  0
 18 19  1  0
 19 20  1  0
 20 21  1  0
 21 22  1  0
 22 23  1  0
 23 24  1  0
 24 25  1  0
 25 26  1  0
 26 27  2  0
 27 28  1  0
 28 29  2  0
 29 30  1  0
 29 31  1  0
 27 32  1  0
 32 33  2  0
 32 34  1  0
  8 35  2  0
 31 25  2  0
 34 14  1  0
 35  4  1  0
M  END
$$$$
