
     RDKit          3D

 35 37  0  0  0  0  0  0  0  0999 V2000
  -22.1557  -40.1404   -3.1718 C   0  0  0  0  0  0  0  0  0  0  0  0
  -21.9581  -40.9131   -4.4495 C   0  0  0  0  0  0  0  0  0  0  0  0
  -23.0152  -42.0194   -4.5272 C   0  0  0  0  0  0  0  0  0  0  0  0
  -22.0516  -40.0585   -5.6621 C   0  0  0  0  0  0  0  0  0  0  0  0
  -23.1972  -39.3373   -5.9289 C   0  0  0  0  0  0  0  0  0  0  0  0
  -23.2865  -38.5366   -7.0716 C   0  0  0  0  0  0  0  0  0  0  0  0
  -22.2390  -38.4557   -7.9433 C   0  0  0  0  0  0  0  0  0  0  0  0
  -21.0927  -39.1777   -7.6757 C   0  0  0  0  0  0  0  0  0  0  0  0
  -19.9662  -39.0952   -8.6241 C   0  0  0  0  0  0  0  0  0  0  0  0
  -18.7419  -38.7654   -7.9088 N   0  0  0  0  0  0  0  0  0  0  0  0
  -17.9252  -39.9074   -7.6523 C   0  0  0  0  0  0  0  0  0  0  0  0
  -16.4918  -39.5762   -7.4223 C   0  0  1  0  0  0  0  0  0  0  0  0
  -15.9246  -40.3527   -6.4411 O   0  0  0  0  0  0  0  0  0  0  0  0
  -15.6524  -39.5031   -8.6931 C   0  0  2  0  0  0  0  0  0  0  0  0
  -14.9274  -38.2149   -8.7590 C   0  0  0  0  0  0  0  0  0  0  0  0
  -13.4352  -38.2598   -8.7150 C   0  0  2  0  0  0  0  0  0  0  0  0
  -12.9053  -37.2395   -9.6997 C   0  0  0  0  0  0  0  0  0  0  0  0
  -12.9378  -39.6431   -8.9896 C   0  0  0  0  0  0  0  0  0  0  0  0
  -11.4413  -39.7341   -9.1075 C   0  0  0  0  0  0  0  0  0  0  0  0
  -10.9100  -40.9642   -9.1221 O   0  0  0  0  0  0  0  0  0  0  0  0
  -11.2547  -41.8757  -10.0505 C   0  0  0  0  0  0  0  0  0  0  0  0
  -11.7887  -43.1822   -9.5133 C   0  0  0  0  0  0  0  0  0  0  0  0
  -11.9223  -44.1185  -10.6737 C   0  0  0  0  0  0  0  0  0  0  0  0
  -13.1917  -44.2170  -11.2070 O   0  0  0  0  0  0  0  0  0  0  0  0
  -14.4424  -43.7172  -10.8061 C   0  0  0  0  0  0  0  0  0  0  0  0
  -14.9165  -42.4208  -10.8799 C   0  0  0  0  0  0  0  0  0  0  0  0
  -16.1800  -42.1805  -10.4124 C   0  0  0  0  0  0  0  0  0  0  0  0
  -16.9211  -43.2752   -9.8900 C   0  0  0  0  0  0  0  0  0  0  0  0
  -16.4506  -44.5621   -9.8202 C   0  0  0  0  0  0  0  0  0  0  0  0
  -17.2820  -45.6640   -9.2670 C   0  0  0  0  0  0  0  0  0  0  0  0
  -15.2242  -44.7276  -10.2832 N   0  0  0  0  0  0  0  0  0  0  0  0
  -16.9690  -40.9546  -10.2991 C   0  0  0  0  0  0  0  0  0  0  0  0
  -18.2278  -40.9307  -10.6565 O   0  0  0  0  0  0  0  0  0  0  0  0
  -16.5807  -39.6515   -9.8195 N   0  0  0  0  0  0  0  0  0  0  0  0
  -20.9999  -39.9637   -6.5578 C   0  0  0  0  0  0  0  0  0  0  0  0
  1  2  1  0
  2  3  1  0
  2  4  1  0
  4  5  2  0
  5  6  1  0
  6  7  2  0
  7  8  1  0
  8  9  1  0
  9 10  1  0
 10 11  1  0
 11 12  1  0
 12 13  1  1
 12 14  1  0
 14 15  1  6
 15 16  1  0
 16 17  1  6
 16 18  1  0
 18 19  1  0
 19 20  1  0
 20 21  1  0
 21 22  1  0
 22 23  1  0
 23 24  1  0
 24 25  1  0
 25 26  1  0
 26 27  2  0
 27 28  1  0
 28 29  2  0
 29 30  1  0
 29 31  1  0
 27 32  1  0
 32 33  2  0
 32 34  1  0
  8 35  2  0
 31 25  2  0
 34 14  1  0
 35  4  1  0
M  END
$$$$
