
     RDKit          3D

 35 37  0  0  0  0  0  0  0  0999 V2000
  -22.9606  -42.0158   -4.4717 C   0  0  0  0  0  0  0  0  0  0  0  0
  -23.3698  -40.5671   -4.4206 C   0  0  0  0  0  0  0  0  0  0  0  0
  -22.9052  -39.9683   -3.0892 C   0  0  0  0  0  0  0  0  0  0  0  0
  -22.8082  -39.7681   -5.5411 C   0  0  0  0  0  0  0  0  0  0  0  0
  -23.6388  -39.0731   -6.3961 C   0  0  0  0  0  0  0  0  0  0  0  0
  -23.1106  -38.3248   -7.4525 C   0  0  0  0  0  0  0  0  0  0  0  0
  -21.7617  -38.2699   -7.6550 C   0  0  0  0  0  0  0  0  0  0  0  0
  -20.9310  -38.9656   -6.7989 C   0  0  0  0  0  0  0  0  0  0  0  0
  -19.4747  -38.9115   -7.0257 C   0  0  0  0  0  0  0  0  0  0  0  0
  -19.1596  -39.4510   -8.3407 N   0  0  0  0  0  0  0  0  0  0  0  0
  -18.2284  -40.5313   -8.2879 C   0  0  0  0  0  0  0  0  0  0  0  0
  -16.8206  -40.0957   -8.0748 C   0  0  1  0  0  0  0  0  0  0  0  0
  -16.2249  -40.7431   -7.0197 O   0  0  0  0  0  0  0  0  0  0  0  0
  -15.9668  -40.0905   -9.3380 C   0  0  2  0  0  0  0  0  0  0  0  0
  -15.4530  -38.7294   -9.6079 C   0  0  0  0  0  0  0  0  0  0  0  0
  -13.9745  -38.5261   -9.5522 C   0  0  2  0  0  0  0  0  0  0  0  0
  -13.5842  -37.6027  -10.6864 C   0  0  0  0  0  0  0  0  0  0  0  0
  -13.2567  -39.8373   -9.5992 C   0  0  0  0  0  0  0  0  0  0  0  0
  -11.7619  -39.7039   -9.6960 C   0  0  0  0  0  0  0  0  0  0  0  0
  -11.0426  -40.8192   -9.5108 O   0  0  0  0  0  0  0  0  0  0  0  0
  -11.2116  -41.9096  -10.2817 C   0  0  0  0  0  0  0  0  0  0  0  0
  -11.5476  -43.1833   -9.5433 C   0  0  0  0  0  0  0  0  0  0  0  0
  -11.4977  -44.3005  -10.5384 C   0  0  0  0  0  0  0  0  0  0  0  0
  -12.7194  -44.6850  -11.0531 O   0  0  0  0  0  0  0  0  0  0  0  0
  -14.0445  -44.3357  -10.7419 C   0  0  0  0  0  0  0  0  0  0  0  0
  -14.7154  -43.1606  -11.0248 C   0  0  0  0  0  0  0  0  0  0  0  0
  -16.0140  -43.0557  -10.6062 C   0  0  0  0  0  0  0  0  0  0  0  0
  -16.5876  -44.1587   -9.9170 C   0  0  0  0  0  0  0  0  0  0  0  0
  -15.9216  -45.3257   -9.6396 C   0  0  0  0  0  0  0  0  0  0  0  0
  -16.5840  -46.4454   -8.9192 C   0  0  0  0  0  0  0  0  0  0  0  0
  -14.6716  -45.3630  -10.0659 N   0  0  0  0  0  0  0  0  0  0  0  0
  -16.9899  -41.9704  -10.6941 C   0  0  0  0  0  0  0  0  0  0  0  0
  -18.2258  -42.2060  -11.0548 O   0  0  0  0  0  0  0  0  0  0  0  0
  -16.8268  -40.5625  -10.4290 N   0  0  0  0  0  0  0  0  0  0  0  0
  -21.4430  -39.7002   -5.7625 C   0  0  0  0  0  0  0  0  0  0  0  0
  1  2  1  0
  2  3  1  0
  2  4  1  0
  4  5  2  0
  5  6  1  0
  6  7  2  0
  7  8  1  0
  8  9  1  0
  9 10  1  0
 10 11  1  0
 11 12  1  0
 12 13  1  1
 12 14  1  0
 14 15  1  6
 15 16  1  0
 16 17  1  6
 16 18  1  0
 18 19  1  0
 19 20  1  0
 20 21  1  0
 21 22  1  0
 22 23  1  0
 23 24  1  0
 24 25  1  0
 25 26  1  0
 26 27  2  0
 27 28  1  0
 28 29  2  0
 29 30  1  0
 29 31  1  0
 27 32  1  0
 32 33  2  0
 32 34  1  0
  8 35  2  0
 31 25  2  0
 34 14  1  0
 35  4  1  0
M  END
$$$$
