
     RDKit          3D

 37 40  0  0  0  0  0  0  0  0999 V2000
  -19.6633  -42.4650   -6.3389 C   0  0  0  0  0  0  0  0  0  0  0  0
  -18.8043  -41.9293   -7.4904 C   0  0  1  0  0  0  0  0  0  0  0  0
  -17.5224  -41.4485   -6.9205 C   0  0  0  0  0  0  0  0  0  0  0  0
  -17.0393  -42.1736   -5.9827 O   0  0  0  0  0  0  0  0  0  0  0  0
  -16.8118  -40.3045   -7.3048 N   0  0  0  0  0  0  0  0  0  0  0  0
  -17.3679  -38.9913   -7.5569 C   0  0  1  0  0  0  0  0  0  0  0  0
  -18.2626  -38.4617   -6.5177 C   0  0  0  0  0  0  0  0  0  0  0  0
  -19.7223  -38.7435   -6.5414 C   0  0  0  0  0  0  0  0  0  0  0  0
  -20.1335  -39.1488   -5.2470 C   0  0  0  0  0  0  0  0  0  0  0  0
  -21.4142  -39.4946   -4.9122 C   0  0  0  0  0  0  0  0  0  0  0  0
  -22.3128  -39.4235   -5.9458 C   0  0  0  0  0  0  0  0  0  0  0  0
  -21.9579  -39.0278   -7.2517 C   0  0  0  0  0  0  0  0  0  0  0  0
  -20.6500  -38.6842   -7.5449 C   0  0  0  0  0  0  0  0  0  0  0  0
  -23.0600  -39.0532   -8.0787 O   0  0  0  0  0  0  0  0  0  0  0  0
  -23.4258  -39.5973   -9.2866 C   0  0  0  0  0  0  0  0  0  0  0  0
  -23.4712  -41.0840   -9.2380 C   0  0  0  0  0  0  0  0  0  0  0  0
  -22.8102  -41.7628  -10.4000 C   0  0  0  0  0  0  0  0  0  0  0  0
  -21.3372  -42.0096  -10.1982 C   0  0  0  0  0  0  0  0  0  0  0  0
  -21.0301  -43.1463   -9.2762 C   0  0  0  0  0  0  0  0  0  0  0  0
  -19.5773  -43.4360   -9.3537 C   0  0  0  0  0  0  0  0  0  0  0  0
  -19.1768  -44.0796  -10.3764 O   0  0  0  0  0  0  0  0  0  0  0  0
  -18.6239  -43.0609   -8.4009 N   0  0  0  0  0  0  0  0  0  0  0  0
  -17.3885  -43.8057   -8.2842 C   0  0  0  0  0  0  0  0  0  0  0  0
  -16.2734  -37.9870   -7.9382 C   0  0  2  0  0  0  0  0  0  0  0  0
  -16.8569  -36.8005   -8.3747 O   0  0  0  0  0  0  0  0  0  0  0  0
  -15.4002  -38.5509   -9.0430 C   0  0  0  0  0  0  0  0  0  0  0  0
  -14.2803  -39.2278   -8.4289 N   0  0  0  0  0  0  0  0  0  0  0  0
  -13.3997  -39.8488   -9.3870 C   0  0  0  0  0  0  0  0  0  0  0  0
  -12.3421  -40.8070   -8.9640 C   0  0  0  0  0  0  0  0  0  0  0  0
  -13.6041  -41.2751   -9.6662 C   0  0  0  0  0  0  0  0  0  0  0  0
  -12.9903  -38.9707  -10.5366 C   0  0  0  0  0  0  0  0  0  0  0  0
  -11.7934  -39.1846  -11.1682 C   0  0  0  0  0  0  0  0  0  0  0  0
  -11.4142  -38.3705  -12.2298 C   0  0  0  0  0  0  0  0  0  0  0  0
  -12.2105  -37.3427  -12.6748 C   0  0  0  0  0  0  0  0  0  0  0  0
  -13.4100  -37.1275  -12.0427 C   0  0  0  0  0  0  0  0  0  0  0  0
  -14.5538  -35.7122  -12.6220 Br  0  0  0  0  0  0  0  0  0  0  0  0
  -13.7946  -37.9434  -10.9755 C   0  0  0  0  0  0  0  0  0  0  0  0
  2  1  1  1
  2  3  1  0
  3  4  2  0
  3  5  1  0
  5  6  1  0
  6  7  1  1
  7  8  1  0
  8  9  1  0
  9 10  2  0
 10 11  1  0
 11 12  2  0
 12 13  1  0
 12 14  1  0
 14 15  1  0
 15 16  1  0
 16 17  1  0
 17 18  1  0
 18 19  1  0
 19 20  1  0
 20 21  2  0
 20 22  1  0
 22 23  1  0
  6 24  1  0
 24 25  1  6
 24 26  1  0
 26 27  1  0
 27 28  1  0
 28 29  1  0
 29 30  1  0
 28 31  1  0
 31 32  2  0
 32 33  1  0
 33 34  2  0
 34 35  1  0
 35 36  1  0
 35 37  2  0
 13  8  2  0
 22  2  1  0
 30 28  1  0
 37 31  1  0
M  END
$$$$
