
     RDKit          3D

 37 40  0  0  0  0  0  0  0  0999 V2000
  -20.7905  -42.2736   -5.7359 C   0  0  0  0  0  0  0  0  0  0  0  0
  -19.8361  -42.0812   -6.9204 C   0  0  1  0  0  0  0  0  0  0  0  0
  -18.4907  -41.7709   -6.3790 C   0  0  0  0  0  0  0  0  0  0  0  0
  -18.1619  -42.4294   -5.3317 O   0  0  0  0  0  0  0  0  0  0  0  0
  -17.5726  -40.8482   -6.8957 N   0  0  0  0  0  0  0  0  0  0  0  0
  -17.8668  -39.5051   -7.3502 C   0  0  1  0  0  0  0  0  0  0  0  0
  -18.6527  -38.6722   -6.4286 C   0  0  0  0  0  0  0  0  0  0  0  0
  -20.1391  -38.6764   -6.4640 C   0  0  0  0  0  0  0  0  0  0  0  0
  -20.6303  -38.8051   -5.1407 C   0  0  0  0  0  0  0  0  0  0  0  0
  -21.9560  -38.8529   -4.8061 C   0  0  0  0  0  0  0  0  0  0  0  0
  -22.8164  -38.7660   -5.8705 C   0  0  0  0  0  0  0  0  0  0  0  0
  -22.3822  -38.6379   -7.2058 C   0  0  0  0  0  0  0  0  0  0  0  0
  -21.0305  -38.5913   -7.4980 C   0  0  0  0  0  0  0  0  0  0  0  0
  -23.4624  -38.5767   -8.0595 O   0  0  0  0  0  0  0  0  0  0  0  0
  -23.9153  -39.2125   -9.1907 C   0  0  0  0  0  0  0  0  0  0  0  0
  -24.2430  -40.6414   -8.9342 C   0  0  0  0  0  0  0  0  0  0  0  0
  -23.7138  -41.5934   -9.9645 C   0  0  0  0  0  0  0  0  0  0  0  0
  -22.3162  -42.0793   -9.6778 C   0  0  0  0  0  0  0  0  0  0  0  0
  -22.2383  -43.1070   -8.5942 C   0  0  0  0  0  0  0  0  0  0  0  0
  -20.8665  -43.6714   -8.5784 C   0  0  0  0  0  0  0  0  0  0  0  0
  -20.5875  -44.5203   -9.4851 O   0  0  0  0  0  0  0  0  0  0  0  0
  -19.8668  -43.3467   -7.6549 N   0  0  0  0  0  0  0  0  0  0  0  0
  -18.7966  -44.2844   -7.3905 C   0  0  0  0  0  0  0  0  0  0  0  0
  -16.5982  -38.7895   -7.8305 C   0  0  2  0  0  0  0  0  0  0  0  0
  -16.9387  -37.5710   -8.4120 O   0  0  0  0  0  0  0  0  0  0  0  0
  -15.8639  -39.6415   -8.8483 C   0  0  0  0  0  0  0  0  0  0  0  0
  -14.4447  -39.4382   -8.6638 N   0  0  0  0  0  0  0  0  0  0  0  0
  -13.6664  -40.6278   -8.9048 C   0  0  0  0  0  0  0  0  0  0  0  0
  -12.3777  -40.8698   -8.2005 C   0  0  0  0  0  0  0  0  0  0  0  0
  -13.6357  -41.6409   -7.8433 C   0  0  0  0  0  0  0  0  0  0  0  0
  -13.6751  -41.1159  -10.3267 C   0  0  0  0  0  0  0  0  0  0  0  0
  -12.9653  -40.4421  -11.2856 C   0  0  0  0  0  0  0  0  0  0  0  0
  -12.9757  -40.8927  -12.6010 C   0  0  0  0  0  0  0  0  0  0  0  0
  -13.6842  -42.0079  -12.9791 C   0  0  0  0  0  0  0  0  0  0  0  0
  -14.3958  -42.6839  -12.0192 C   0  0  0  0  0  0  0  0  0  0  0  0
  -15.3973  -44.2396  -12.4920 Br  0  0  0  0  0  0  0  0  0  0  0  0
  -14.3877  -42.2342  -10.6962 C   0  0  0  0  0  0  0  0  0  0  0  0
  2  1  1  1
  2  3  1  0
  3  4  2  0
  3  5  1  0
  5  6  1  0
  6  7  1  1
  7  8  1  0
  8  9  1  0
  9 10  2  0
 10 11  1  0
 11 12  2  0
 12 13  1  0
 12 14  1  0
 14 15  1  0
 15 16  1  0
 16 17  1  0
 17 18  1  0
 18 19  1  0
 19 20  1  0
 20 21  2  0
 20 22  1  0
 22 23  1  0
  6 24  1  0
 24 25  1  6
 24 26  1  0
 26 27  1  0
 27 28  1  0
 28 29  1  0
 29 30  1  0
 28 31  1  0
 31 32  2  0
 32 33  1  0
 33 34  2  0
 34 35  1  0
 35 36  1  0
 35 37  2  0
 13  8  2  0
 22  2  1  0
 30 28  1  0
 37 31  1  0
M  END
$$$$
