
     RDKit          3D

 37 40  0  0  0  0  0  0  0  0999 V2000
  -20.3646  -43.3844   -9.8715 C   0  0  0  0  0  0  0  0  0  0  0  0
  -19.6208  -43.2150   -8.5415 C   0  0  1  0  0  0  0  0  0  0  0  0
  -20.0230  -41.9139   -7.9542 C   0  0  0  0  0  0  0  0  0  0  0  0
  -21.2600  -41.6151   -8.0925 O   0  0  0  0  0  0  0  0  0  0  0  0
  -19.1949  -41.0075   -7.2803 N   0  0  0  0  0  0  0  0  0  0  0  0
  -17.8699  -40.5875   -7.6868 C   0  0  1  0  0  0  0  0  0  0  0  0
  -17.7353  -40.1463   -9.0826 C   0  0  0  0  0  0  0  0  0  0  0  0
  -17.4244  -41.1126  -10.1691 C   0  0  0  0  0  0  0  0  0  0  0  0
  -18.3058  -40.8828  -11.2550 C   0  0  0  0  0  0  0  0  0  0  0  0
  -18.3050  -41.5995  -12.4204 C   0  0  0  0  0  0  0  0  0  0  0  0
  -17.3628  -42.5944  -12.4773 C   0  0  0  0  0  0  0  0  0  0  0  0
  -16.4627  -42.8665  -11.4268 C   0  0  0  0  0  0  0  0  0  0  0  0
  -16.4977  -42.1140  -10.2662 C   0  0  0  0  0  0  0  0  0  0  0  0
  -15.6368  -43.9182  -11.7606 O   0  0  0  0  0  0  0  0  0  0  0  0
  -15.2480  -45.1265  -11.2337 C   0  0  0  0  0  0  0  0  0  0  0  0
  -16.3806  -46.0882  -11.1481 C   0  0  0  0  0  0  0  0  0  0  0  0
  -16.4777  -46.8167   -9.8413 C   0  0  0  0  0  0  0  0  0  0  0  0
  -17.2910  -46.0886   -8.8020 C   0  0  0  0  0  0  0  0  0  0  0  0
  -18.7681  -46.1583   -9.0249 C   0  0  0  0  0  0  0  0  0  0  0  0
  -19.4514  -45.6219   -7.8223 C   0  0  0  0  0  0  0  0  0  0  0  0
  -19.5085  -46.3887   -6.8078 O   0  0  0  0  0  0  0  0  0  0  0  0
  -20.0313  -44.3529   -7.7178 N   0  0  0  0  0  0  0  0  0  0  0  0
  -21.0898  -44.1200   -6.7587 C   0  0  0  0  0  0  0  0  0  0  0  0
  -17.2832  -39.5674   -6.7034 C   0  0  2  0  0  0  0  0  0  0  0  0
  -15.9793  -39.9290   -6.3749 O   0  0  0  0  0  0  0  0  0  0  0  0
  -18.1198  -39.5101   -5.4394 C   0  0  0  0  0  0  0  0  0  0  0  0
  -18.5907  -38.1535   -5.2738 N   0  0  0  0  0  0  0  0  0  0  0  0
  -19.9515  -37.9690   -5.7132 C   0  0  0  0  0  0  0  0  0  0  0  0
  -21.1049  -38.3217   -4.8409 C   0  0  0  0  0  0  0  0  0  0  0  0
  -20.7167  -36.8770   -5.0999 C   0  0  0  0  0  0  0  0  0  0  0  0
  -20.1924  -38.2490   -7.1705 C   0  0  0  0  0  0  0  0  0  0  0  0
  -19.1595  -38.1526   -8.0655 C   0  0  0  0  0  0  0  0  0  0  0  0
  -19.3836  -38.4094   -9.4136 C   0  0  0  0  0  0  0  0  0  0  0  0
  -20.6245  -38.7620   -9.8873 C   0  0  0  0  0  0  0  0  0  0  0  0
  -21.6602  -38.8590   -8.9914 C   0  0  0  0  0  0  0  0  0  0  0  0
  -23.4045  -39.3456   -9.5979 Br  0  0  0  0  0  0  0  0  0  0  0  0
  -21.4390  -38.6018   -7.6359 C   0  0  0  0  0  0  0  0  0  0  0  0
  2  1  1  6
  2  3  1  0
  3  4  2  0
  3  5  1  0
  5  6  1  0
  6  7  1  6
  7  8  1  0
  8  9  1  0
  9 10  2  0
 10 11  1  0
 11 12  2  0
 12 13  1  0
 12 14  1  0
 14 15  1  0
 15 16  1  0
 16 17  1  0
 17 18  1  0
 18 19  1  0
 19 20  1  0
 20 21  2  0
 20 22  1  0
 22 23  1  0
  6 24  1  0
 24 25  1  1
 24 26  1  0
 26 27  1  0
 27 28  1  0
 28 29  1  0
 29 30  1  0
 28 31  1  0
 31 32  2  0
 32 33  1  0
 33 34  2  0
 34 35  1  0
 35 36  1  0
 35 37  2  0
 13  8  2  0
 22  2  1  0
 30 28  1  0
 37 31  1  0
M  END
$$$$
