
     RDKit          3D

 37 40  0  0  0  0  0  0  0  0999 V2000
  -15.6307  -41.7668  -12.2883 C   0  0  0  0  0  0  0  0  0  0  0  0
  -15.9002  -41.8282  -10.7802 C   0  0  1  0  0  0  0  0  0  0  0  0
  -17.0878  -40.9878  -10.4925 C   0  0  0  0  0  0  0  0  0  0  0  0
  -18.0253  -41.0572  -11.3613 O   0  0  0  0  0  0  0  0  0  0  0  0
  -17.2715  -40.1484   -9.3866 N   0  0  0  0  0  0  0  0  0  0  0  0
  -16.2981  -39.2302   -8.8331 C   0  0  1  0  0  0  0  0  0  0  0  0
  -15.6426  -38.3317   -9.7943 C   0  0  0  0  0  0  0  0  0  0  0  0
  -14.3990  -38.7360  -10.5019 C   0  0  0  0  0  0  0  0  0  0  0  0
  -14.5386  -38.4423  -11.8814 C   0  0  0  0  0  0  0  0  0  0  0  0
  -13.5843  -38.6936  -12.8290 C   0  0  0  0  0  0  0  0  0  0  0  0
  -12.4382  -39.2708  -12.3451 C   0  0  0  0  0  0  0  0  0  0  0  0
  -12.2471  -39.5846  -10.9839 C   0  0  0  0  0  0  0  0  0  0  0  0
  -13.2392  -39.3104  -10.0592 C   0  0  0  0  0  0  0  0  0  0  0  0
  -11.0080  -40.1562  -10.7909 O   0  0  0  0  0  0  0  0  0  0  0  0
  -10.4762  -41.2884  -10.2213 C   0  0  0  0  0  0  0  0  0  0  0  0
  -10.8961  -42.5234  -10.9377 C   0  0  0  0  0  0  0  0  0  0  0  0
  -11.3479  -43.6369  -10.0411 C   0  0  0  0  0  0  0  0  0  0  0  0
  -12.8159  -43.5842   -9.7041 C   0  0  0  0  0  0  0  0  0  0  0  0
  -13.7129  -44.0280  -10.8153 C   0  0  0  0  0  0  0  0  0  0  0  0
  -15.0914  -44.1602  -10.2833 C   0  0  0  0  0  0  0  0  0  0  0  0
  -15.3389  -45.1984   -9.5894 O   0  0  0  0  0  0  0  0  0  0  0  0
  -16.1288  -43.2428  -10.4826 N   0  0  0  0  0  0  0  0  0  0  0  0
  -17.5056  -43.6804  -10.3965 C   0  0  0  0  0  0  0  0  0  0  0  0
  -16.8723  -38.4666   -7.6334 C   0  0  2  0  0  0  0  0  0  0  0  0
  -15.8886  -38.3146   -6.6597 O   0  0  0  0  0  0  0  0  0  0  0  0
  -18.0491  -39.2192   -7.0420 C   0  0  0  0  0  0  0  0  0  0  0  0
  -19.1152  -39.2242   -8.0182 N   0  0  0  0  0  0  0  0  0  0  0  0
  -20.2099  -38.3547   -7.6653 C   0  0  0  0  0  0  0  0  0  0  0  0
  -20.7396  -38.2962   -6.2755 C   0  0  0  0  0  0  0  0  0  0  0  0
  -19.8982  -37.1724   -6.8534 C   0  0  0  0  0  0  0  0  0  0  0  0
  -21.2716  -38.2093   -8.7197 C   0  0  0  0  0  0  0  0  0  0  0  0
  -22.5910  -38.1391   -8.3568 C   0  0  0  0  0  0  0  0  0  0  0  0
  -23.5726  -38.0071   -9.3327 C   0  0  0  0  0  0  0  0  0  0  0  0
  -23.2610  -37.9435  -10.6697 C   0  0  0  0  0  0  0  0  0  0  0  0
  -21.9394  -38.0136  -11.0344 C   0  0  0  0  0  0  0  0  0  0  0  0
  -21.4526  -37.9300  -12.8791 Br  0  0  0  0  0  0  0  0  0  0  0  0
  -20.9500  -38.1463  -10.0567 C   0  0  0  0  0  0  0  0  0  0  0  0
  2  1  1  6
  2  3  1  0
  3  4  2  0
  3  5  1  0
  5  6  1  0
  6  7  1  6
  7  8  1  0
  8  9  1  0
  9 10  2  0
 10 11  1  0
 11 12  2  0
 12 13  1  0
 12 14  1  0
 14 15  1  0
 15 16  1  0
 16 17  1  0
 17 18  1  0
 18 19  1  0
 19 20  1  0
 20 21  2  0
 20 22  1  0
 22 23  1  0
  6 24  1  0
 24 25  1  1
 24 26  1  0
 26 27  1  0
 27 28  1  0
 28 29  1  0
 29 30  1  0
 28 31  1  0
 31 32  2  0
 32 33  1  0
 33 34  2  0
 34 35  1  0
 35 36  1  0
 35 37  2  0
 13  8  2  0
 22  2  1  0
 30 28  1  0
 37 31  1  0
M  END
$$$$
