
     RDKit          3D

 37 40  0  0  0  0  0  0  0  0999 V2000
  -19.9873  -42.6389   -6.3757 C   0  0  0  0  0  0  0  0  0  0  0  0
  -19.1174  -42.1609   -7.5443 C   0  0  1  0  0  0  0  0  0  0  0  0
  -17.7977  -41.7603   -6.9990 C   0  0  0  0  0  0  0  0  0  0  0  0
  -17.3443  -42.5123   -6.0675 O   0  0  0  0  0  0  0  0  0  0  0  0
  -17.0238  -40.6641   -7.3998 N   0  0  0  0  0  0  0  0  0  0  0  0
  -17.5008  -39.3192   -7.6463 C   0  0  1  0  0  0  0  0  0  0  0  0
  -18.3414  -38.7320   -6.5930 C   0  0  0  0  0  0  0  0  0  0  0  0
  -19.8162  -38.9215   -6.5897 C   0  0  0  0  0  0  0  0  0  0  0  0
  -20.2286  -39.2974   -5.2868 C   0  0  0  0  0  0  0  0  0  0  0  0
  -21.5222  -39.5612   -4.9280 C   0  0  0  0  0  0  0  0  0  0  0  0
  -22.4331  -39.4361   -5.9455 C   0  0  0  0  0  0  0  0  0  0  0  0
  -22.0777  -39.0664   -7.2589 C   0  0  0  0  0  0  0  0  0  0  0  0
  -20.7563  -38.8064   -7.5766 C   0  0  0  0  0  0  0  0  0  0  0  0
  -23.1940  -39.0243   -8.0660 O   0  0  0  0  0  0  0  0  0  0  0  0
  -23.6150  -39.5470   -9.2653 C   0  0  0  0  0  0  0  0  0  0  0  0
  -23.7528  -41.0279   -9.2109 C   0  0  0  0  0  0  0  0  0  0  0  0
  -23.1568  -41.7494  -10.3822 C   0  0  0  0  0  0  0  0  0  0  0  0
  -21.6988  -42.0879  -10.2060 C   0  0  0  0  0  0  0  0  0  0  0  0
  -21.4472  -43.2395   -9.2858 C   0  0  0  0  0  0  0  0  0  0  0  0
  -20.0170  -43.6202   -9.3883 C   0  0  0  0  0  0  0  0  0  0  0  0
  -19.6762  -44.2900  -10.4158 O   0  0  0  0  0  0  0  0  0  0  0  0
  -19.0248  -43.3036   -8.4540 N   0  0  0  0  0  0  0  0  0  0  0  0
  -17.8368  -44.1243   -8.3569 C   0  0  0  0  0  0  0  0  0  0  0  0
  -16.3523  -38.3865   -8.0504 C   0  0  2  0  0  0  0  0  0  0  0  0
  -16.8700  -37.1934   -8.5477 O   0  0  0  0  0  0  0  0  0  0  0  0
  -15.4905  -39.0396   -9.1143 C   0  0  0  0  0  0  0  0  0  0  0  0
  -14.2075  -39.3494   -8.5250 N   0  0  0  0  0  0  0  0  0  0  0  0
  -13.5195  -40.4225   -9.1987 C   0  0  0  0  0  0  0  0  0  0  0  0
  -12.0403  -40.4147   -9.3647 C   0  0  0  0  0  0  0  0  0  0  0  0
  -12.7239  -41.3381   -8.3724 C   0  0  0  0  0  0  0  0  0  0  0  0
  -14.2529  -41.0101  -10.3722 C   0  0  0  0  0  0  0  0  0  0  0  0
  -13.7409  -42.1028  -11.0213 C   0  0  0  0  0  0  0  0  0  0  0  0
  -14.4185  -42.6442  -12.1082 C   0  0  0  0  0  0  0  0  0  0  0  0
  -15.6024  -42.1135  -12.5612 C   0  0  0  0  0  0  0  0  0  0  0  0
  -16.1163  -41.0188  -11.9116 C   0  0  0  0  0  0  0  0  0  0  0  0
  -17.7586  -40.2428  -12.5012 Br  0  0  0  0  0  0  0  0  0  0  0  0
  -15.4384  -40.4718  -10.8190 C   0  0  0  0  0  0  0  0  0  0  0  0
  2  1  1  1
  2  3  1  0
  3  4  2  0
  3  5  1  0
  5  6  1  0
  6  7  1  1
  7  8  1  0
  8  9  1  0
  9 10  2  0
 10 11  1  0
 11 12  2  0
 12 13  1  0
 12 14  1  0
 14 15  1  0
 15 16  1  0
 16 17  1  0
 17 18  1  0
 18 19  1  0
 19 20  1  0
 20 21  2  0
 20 22  1  0
 22 23  1  0
  6 24  1  0
 24 25  1  6
 24 26  1  0
 26 27  1  0
 27 28  1  0
 28 29  1  0
 29 30  1  0
 28 31  1  0
 31 32  2  0
 32 33  1  0
 33 34  2  0
 34 35  1  0
 35 36  1  0
 35 37  2  0
 13  8  2  0
 22  2  1  0
 30 28  1  0
 37 31  1  0
M  END
$$$$
