
     RDKit          3D

 37 40  0  0  0  0  0  0  0  0999 V2000
  -16.0540  -41.9067  -11.7205 C   0  0  0  0  0  0  0  0  0  0  0  0
  -16.2084  -41.9537  -10.1958 C   0  0  1  0  0  0  0  0  0  0  0  0
  -17.2724  -40.9940   -9.8133 C   0  0  0  0  0  0  0  0  0  0  0  0
  -18.2777  -40.9541  -10.6048 O   0  0  0  0  0  0  0  0  0  0  0  0
  -17.2769  -40.1505   -8.6953 N   0  0  0  0  0  0  0  0  0  0  0  0
  -16.1698  -39.3472   -8.2199 C   0  0  1  0  0  0  0  0  0  0  0  0
  -15.4997  -38.5146   -9.2292 C   0  0  0  0  0  0  0  0  0  0  0  0
  -14.3665  -39.0426  -10.0341 C   0  0  0  0  0  0  0  0  0  0  0  0
  -14.5825  -38.7223  -11.3978 C   0  0  0  0  0  0  0  0  0  0  0  0
  -13.7386  -39.0649  -12.4186 C   0  0  0  0  0  0  0  0  0  0  0  0
  -12.6265  -39.7660  -12.0283 C   0  0  0  0  0  0  0  0  0  0  0  0
  -12.3631  -40.1118  -10.6870 C   0  0  0  0  0  0  0  0  0  0  0  0
  -13.2438  -39.7421   -9.6859 C   0  0  0  0  0  0  0  0  0  0  0  0
  -11.1812  -40.8146  -10.5941 O   0  0  0  0  0  0  0  0  0  0  0  0
  -10.7308  -42.0026  -10.0701 C   0  0  0  0  0  0  0  0  0  0  0  0
  -11.3362  -43.1786  -10.7523 C   0  0  0  0  0  0  0  0  0  0  0  0
  -11.8327  -44.2461   -9.8240 C   0  0  0  0  0  0  0  0  0  0  0  0
  -13.2553  -44.0400   -9.3710 C   0  0  0  0  0  0  0  0  0  0  0  0
  -14.2798  -44.3743  -10.4078 C   0  0  0  0  0  0  0  0  0  0  0  0
  -15.6181  -44.3636   -9.7678 C   0  0  0  0  0  0  0  0  0  0  0  0
  -15.9200  -45.3760   -9.0577 O   0  0  0  0  0  0  0  0  0  0  0  0
  -16.5634  -43.3386   -9.8827 N   0  0  0  0  0  0  0  0  0  0  0  0
  -17.9682  -43.6272   -9.6877 C   0  0  0  0  0  0  0  0  0  0  0  0
  -16.5620  -38.5384   -6.9773 C   0  0  2  0  0  0  0  0  0  0  0  0
  -15.8874  -39.0325   -5.8639 O   0  0  0  0  0  0  0  0  0  0  0  0
  -18.0570  -38.6297   -6.7374 C   0  0  0  0  0  0  0  0  0  0  0  0
  -18.7241  -37.8585   -7.7620 N   0  0  0  0  0  0  0  0  0  0  0  0
  -20.1510  -37.7784   -7.5713 C   0  0  0  0  0  0  0  0  0  0  0  0
  -20.8055  -36.5209   -7.1176 C   0  0  0  0  0  0  0  0  0  0  0  0
  -20.9207  -37.0041   -8.5521 C   0  0  0  0  0  0  0  0  0  0  0  0
  -20.7891  -39.0218   -7.0171 C   0  0  0  0  0  0  0  0  0  0  0  0
  -21.4227  -39.8985   -7.8581 C   0  0  0  0  0  0  0  0  0  0  0  0
  -22.0148  -41.0471   -7.3446 C   0  0  0  0  0  0  0  0  0  0  0  0
  -21.9863  -41.3383   -6.0018 C   0  0  0  0  0  0  0  0  0  0  0  0
  -21.3517  -40.4607   -5.1583 C   0  0  0  0  0  0  0  0  0  0  0  0
  -21.2836  -40.8185   -3.2837 Br  0  0  0  0  0  0  0  0  0  0  0  0
  -20.7555  -39.3054   -5.6705 C   0  0  0  0  0  0  0  0  0  0  0  0
  2  1  1  6
  2  3  1  0
  3  4  2  0
  3  5  1  0
  5  6  1  0
  6  7  1  6
  7  8  1  0
  8  9  1  0
  9 10  2  0
 10 11  1  0
 11 12  2  0
 12 13  1  0
 12 14  1  0
 14 15  1  0
 15 16  1  0
 16 17  1  0
 17 18  1  0
 18 19  1  0
 19 20  1  0
 20 21  2  0
 20 22  1  0
 22 23  1  0
  6 24  1  0
 24 25  1  1
 24 26  1  0
 26 27  1  0
 27 28  1  0
 28 29  1  0
 29 30  1  0
 28 31  1  0
 31 32  2  0
 32 33  1  0
 33 34  2  0
 34 35  1  0
 35 36  1  0
 35 37  2  0
 13  8  2  0
 22  2  1  0
 30 28  1  0
 37 31  1  0
M  END
$$$$
