
     RDKit          3D

 37 40  0  0  0  0  0  0  0  0999 V2000
  -19.8313  -42.6595  -10.2787 C   0  0  0  0  0  0  0  0  0  0  0  0
  -19.5416  -41.6895   -9.1273 C   0  0  1  0  0  0  0  0  0  0  0  0
  -18.7828  -40.5398   -9.6767 C   0  0  0  0  0  0  0  0  0  0  0  0
  -19.1629  -40.1408  -10.8321 O   0  0  0  0  0  0  0  0  0  0  0  0
  -17.7173  -39.8694   -9.0629 N   0  0  0  0  0  0  0  0  0  0  0  0
  -16.5949  -40.4808   -8.3821 C   0  0  1  0  0  0  0  0  0  0  0  0
  -15.9023  -41.5496   -9.1161 C   0  0  0  0  0  0  0  0  0  0  0  0
  -16.3403  -42.9664   -9.0086 C   0  0  0  0  0  0  0  0  0  0  0  0
  -16.4164  -43.5242  -10.3093 C   0  0  0  0  0  0  0  0  0  0  0  0
  -16.7967  -44.8099  -10.5814 C   0  0  0  0  0  0  0  0  0  0  0  0
  -17.1137  -45.5570   -9.4759 C   0  0  0  0  0  0  0  0  0  0  0  0
  -17.0563  -45.0524   -8.1606 C   0  0  0  0  0  0  0  0  0  0  0  0
  -16.6635  -43.7455   -7.9318 C   0  0  0  0  0  0  0  0  0  0  0  0
  -17.4311  -46.0223   -7.2560 O   0  0  0  0  0  0  0  0  0  0  0  0
  -18.3242  -46.1730   -6.2224 C   0  0  0  0  0  0  0  0  0  0  0  0
  -19.7354  -46.1140   -6.6913 C   0  0  0  0  0  0  0  0  0  0  0  0
  -20.6302  -45.2475   -5.8568 C   0  0  0  0  0  0  0  0  0  0  0  0
  -20.6464  -43.8032   -6.2873 C   0  0  0  0  0  0  0  0  0  0  0  0
  -21.4434  -43.5452   -7.5261 C   0  0  0  0  0  0  0  0  0  0  0  0
  -21.5797  -42.0784   -7.7010 C   0  0  0  0  0  0  0  0  0  0  0  0
  -22.4315  -41.4912   -6.9593 O   0  0  0  0  0  0  0  0  0  0  0  0
  -20.8529  -41.2990   -8.6076 N   0  0  0  0  0  0  0  0  0  0  0  0
  -21.3944  -40.0403   -9.0735 C   0  0  0  0  0  0  0  0  0  0  0  0
  -15.6193  -39.4213   -7.8551 C   0  0  2  0  0  0  0  0  0  0  0  0
  -15.5323  -39.5122   -6.4684 O   0  0  0  0  0  0  0  0  0  0  0  0
  -16.0920  -38.0312   -8.2365 C   0  0  0  0  0  0  0  0  0  0  0  0
  -16.1653  -37.9618   -9.6784 N   0  0  0  0  0  0  0  0  0  0  0  0
  -16.6400  -36.6886  -10.1604 C   0  0  0  0  0  0  0  0  0  0  0  0
  -18.0505  -36.4991  -10.5968 C   0  0  0  0  0  0  0  0  0  0  0  0
  -17.5407  -35.9287   -9.2854 C   0  0  0  0  0  0  0  0  0  0  0  0
  -15.6482  -35.9081  -10.9773 C   0  0  0  0  0  0  0  0  0  0  0  0
  -14.4711  -36.4923  -11.3651 C   0  0  0  0  0  0  0  0  0  0  0  0
  -13.5531  -35.7691  -12.1186 C   0  0  0  0  0  0  0  0  0  0  0  0
  -13.7888  -34.4683  -12.4940 C   0  0  0  0  0  0  0  0  0  0  0  0
  -14.9679  -33.8819  -12.1061 C   0  0  0  0  0  0  0  0  0  0  0  0
  -15.3444  -32.0764  -12.6014 Br  0  0  0  0  0  0  0  0  0  0  0  0
  -15.8929  -34.6054  -11.3488 C   0  0  0  0  0  0  0  0  0  0  0  0
  2  1  1  6
  2  3  1  0
  3  4  2  0
  3  5  1  0
  5  6  1  0
  6  7  1  6
  7  8  1  0
  8  9  1  0
  9 10  2  0
 10 11  1  0
 11 12  2  0
 12 13  1  0
 12 14  1  0
 14 15  1  0
 15 16  1  0
 16 17  1  0
 17 18  1  0
 18 19  1  0
 19 20  1  0
 20 21  2  0
 20 22  1  0
 22 23  1  0
  6 24  1  0
 24 25  1  1
 24 26  1  0
 26 27  1  0
 27 28  1  0
 28 29  1  0
 29 30  1  0
 28 31  1  0
 31 32  2  0
 32 33  1  0
 33 34  2  0
 34 35  1  0
 35 36  1  0
 35 37  2  0
 13  8  2  0
 22  2  1  0
 30 28  1  0
 37 31  1  0
M  END
$$$$
