
     RDKit          3D

 37 40  0  0  0  0  0  0  0  0999 V2000
  -20.0944  -42.4440   -5.5309 C   0  0  0  0  0  0  0  0  0  0  0  0
  -19.3688  -42.1526   -6.8497 C   0  0  1  0  0  0  0  0  0  0  0  0
  -17.9848  -41.7283   -6.5271 C   0  0  0  0  0  0  0  0  0  0  0  0
  -17.4317  -42.3664   -5.5651 O   0  0  0  0  0  0  0  0  0  0  0  0
  -17.2483  -40.7206   -7.1622 N   0  0  0  0  0  0  0  0  0  0  0  0
  -17.7294  -39.4044   -7.5273 C   0  0  1  0  0  0  0  0  0  0  0  0
  -18.4222  -38.6565   -6.4683 C   0  0  0  0  0  0  0  0  0  0  0  0
  -19.8881  -38.7945   -6.2608 C   0  0  0  0  0  0  0  0  0  0  0  0
  -20.1413  -38.9824   -4.8790 C   0  0  0  0  0  0  0  0  0  0  0  0
  -21.3844  -39.1535   -4.3340 C   0  0  0  0  0  0  0  0  0  0  0  0
  -22.4127  -39.1325   -5.2411 C   0  0  0  0  0  0  0  0  0  0  0  0
  -22.2174  -38.9502   -6.6255 C   0  0  0  0  0  0  0  0  0  0  0  0
  -20.9417  -38.7783   -7.1330 C   0  0  0  0  0  0  0  0  0  0  0  0
  -23.4247  -38.9769   -7.2897 O   0  0  0  0  0  0  0  0  0  0  0  0
  -24.0007  -39.6379   -8.3481 C   0  0  0  0  0  0  0  0  0  0  0  0
  -24.1558  -41.0934   -8.0791 C   0  0  0  0  0  0  0  0  0  0  0  0
  -23.7227  -41.9818   -9.2066 C   0  0  0  0  0  0  0  0  0  0  0  0
  -22.2600  -42.3428   -9.1646 C   0  0  0  0  0  0  0  0  0  0  0  0
  -21.9153  -43.3717   -8.1355 C   0  0  0  0  0  0  0  0  0  0  0  0
  -20.5158  -43.8100   -8.3586 C   0  0  0  0  0  0  0  0  0  0  0  0
  -20.3170  -44.6197   -9.3206 O   0  0  0  0  0  0  0  0  0  0  0  0
  -19.4097  -43.4071   -7.6024 N   0  0  0  0  0  0  0  0  0  0  0  0
  -18.2329  -44.2473   -7.5407 C   0  0  0  0  0  0  0  0  0  0  0  0
  -16.6246  -38.5716   -8.1891 C   0  0  2  0  0  0  0  0  0  0  0  0
  -17.1960  -37.5749   -8.9757 O   0  0  0  0  0  0  0  0  0  0  0  0
  -15.7471  -39.4527   -9.0578 C   0  0  0  0  0  0  0  0  0  0  0  0
  -14.5095  -39.6912   -8.3499 N   0  0  0  0  0  0  0  0  0  0  0  0
  -13.4604  -40.1983   -9.1990 C   0  0  0  0  0  0  0  0  0  0  0  0
  -12.4275  -39.2982   -9.7807 C   0  0  0  0  0  0  0  0  0  0  0  0
  -12.1041  -40.2469   -8.6404 C   0  0  0  0  0  0  0  0  0  0  0  0
  -13.8704  -41.3154  -10.1179 C   0  0  0  0  0  0  0  0  0  0  0  0
  -14.4398  -41.0294  -11.3309 C   0  0  0  0  0  0  0  0  0  0  0  0
  -14.8210  -42.0631  -12.1791 C   0  0  0  0  0  0  0  0  0  0  0  0
  -14.6438  -43.3825  -11.8382 C   0  0  0  0  0  0  0  0  0  0  0  0
  -14.0733  -43.6704  -10.6232 C   0  0  0  0  0  0  0  0  0  0  0  0
  -13.8049  -45.4876  -10.1011 Br  0  0  0  0  0  0  0  0  0  0  0  0
  -13.6889  -42.6343   -9.7679 C   0  0  0  0  0  0  0  0  0  0  0  0
  2  1  1  1
  2  3  1  0
  3  4  2  0
  3  5  1  0
  5  6  1  0
  6  7  1  1
  7  8  1  0
  8  9  1  0
  9 10  2  0
 10 11  1  0
 11 12  2  0
 12 13  1  0
 12 14  1  0
 14 15  1  0
 15 16  1  0
 16 17  1  0
 17 18  1  0
 18 19  1  0
 19 20  1  0
 20 21  2  0
 20 22  1  0
 22 23  1  0
  6 24  1  0
 24 25  1  6
 24 26  1  0
 26 27  1  0
 27 28  1  0
 28 29  1  0
 29 30  1  0
 28 31  1  0
 31 32  2  0
 32 33  1  0
 33 34  2  0
 34 35  1  0
 35 36  1  0
 35 37  2  0
 13  8  2  0
 22  2  1  0
 30 28  1  0
 37 31  1  0
M  END
$$$$
