
     RDKit          3D

 37 40  0  0  0  0  0  0  0  0999 V2000
  -19.7183  -42.8320   -6.8704 C   0  0  0  0  0  0  0  0  0  0  0  0
  -19.0538  -41.9011   -7.8915 C   0  0  1  0  0  0  0  0  0  0  0  0
  -17.7627  -41.4442   -7.3225 C   0  0  0  0  0  0  0  0  0  0  0  0
  -17.1082  -42.3351   -6.6772 O   0  0  0  0  0  0  0  0  0  0  0  0
  -17.2098  -40.1615   -7.4246 N   0  0  0  0  0  0  0  0  0  0  0  0
  -17.9091  -38.9068   -7.2412 C   0  0  1  0  0  0  0  0  0  0  0  0
  -18.7193  -38.7949   -6.0198 C   0  0  0  0  0  0  0  0  0  0  0  0
  -20.1398  -39.2334   -5.9950 C   0  0  0  0  0  0  0  0  0  0  0  0
  -20.3566  -40.0252   -4.8396 C   0  0  0  0  0  0  0  0  0  0  0  0
  -21.5519  -40.6015   -4.5067 C   0  0  0  0  0  0  0  0  0  0  0  0
  -22.5690  -40.3584   -5.3940 C   0  0  0  0  0  0  0  0  0  0  0  0
  -22.4083  -39.5796   -6.5582 C   0  0  0  0  0  0  0  0  0  0  0  0
  -21.1810  -39.0134   -6.8544 C   0  0  0  0  0  0  0  0  0  0  0  0
  -23.5935  -39.5097   -7.2581 O   0  0  0  0  0  0  0  0  0  0  0  0
  -24.0482  -39.7412   -8.5342 C   0  0  0  0  0  0  0  0  0  0  0  0
  -23.9519  -41.1784   -8.9087 C   0  0  0  0  0  0  0  0  0  0  0  0
  -23.3736  -41.4269  -10.2695 C   0  0  0  0  0  0  0  0  0  0  0  0
  -21.8708  -41.5400  -10.2765 C   0  0  0  0  0  0  0  0  0  0  0  0
  -21.3547  -42.8404   -9.7484 C   0  0  0  0  0  0  0  0  0  0  0  0
  -19.9008  -42.9201  -10.0325 C   0  0  0  0  0  0  0  0  0  0  0  0
  -19.5669  -43.2049  -11.2273 O   0  0  0  0  0  0  0  0  0  0  0  0
  -18.8797  -42.7088   -9.0995 N   0  0  0  0  0  0  0  0  0  0  0  0
  -17.5765  -43.3022   -9.3092 C   0  0  0  0  0  0  0  0  0  0  0  0
  -16.9634  -37.7119   -7.4139 C   0  0  2  0  0  0  0  0  0  0  0  0
  -17.6961  -36.5279   -7.4000 O   0  0  0  0  0  0  0  0  0  0  0  0
  -16.2109  -37.8189   -8.7267 C   0  0  0  0  0  0  0  0  0  0  0  0
  -15.1550  -38.7921   -8.5610 N   0  0  0  0  0  0  0  0  0  0  0  0
  -14.2188  -38.8037   -9.6574 C   0  0  0  0  0  0  0  0  0  0  0  0
  -12.7742  -38.5114   -9.4495 C   0  0  0  0  0  0  0  0  0  0  0  0
  -13.2688  -39.9206   -9.7220 C   0  0  0  0  0  0  0  0  0  0  0  0
  -14.7572  -38.2775  -10.9587 C   0  0  0  0  0  0  0  0  0  0  0  0
  -13.8970  -37.7947  -11.9097 C   0  0  0  0  0  0  0  0  0  0  0  0
  -14.3959  -37.3058  -13.1120 C   0  0  0  0  0  0  0  0  0  0  0  0
  -15.7428  -37.2899  -13.3844 C   0  0  0  0  0  0  0  0  0  0  0  0
  -16.6056  -37.7735  -12.4324 C   0  0  0  0  0  0  0  0  0  0  0  0
  -18.4868  -37.7738  -12.7610 Br  0  0  0  0  0  0  0  0  0  0  0  0
  -16.1081  -38.2655  -11.2229 C   0  0  0  0  0  0  0  0  0  0  0  0
  2  1  1  1
  2  3  1  0
  3  4  2  0
  3  5  1  0
  5  6  1  0
  6  7  1  1
  7  8  1  0
  8  9  1  0
  9 10  2  0
 10 11  1  0
 11 12  2  0
 12 13  1  0
 12 14  1  0
 14 15  1  0
 15 16  1  0
 16 17  1  0
 17 18  1  0
 18 19  1  0
 19 20  1  0
 20 21  2  0
 20 22  1  0
 22 23  1  0
  6 24  1  0
 24 25  1  6
 24 26  1  0
 26 27  1  0
 27 28  1  0
 28 29  1  0
 29 30  1  0
 28 31  1  0
 31 32  2  0
 32 33  1  0
 33 34  2  0
 34 35  1  0
 35 36  1  0
 35 37  2  0
 13  8  2  0
 22  2  1  0
 30 28  1  0
 37 31  1  0
M  END
$$$$
