
     RDKit          3D

 37 40  0  0  0  0  0  0  0  0999 V2000
  -20.8902  -42.5239   -9.0999 C   0  0  0  0  0  0  0  0  0  0  0  0
  -19.9399  -42.5278   -7.8967 C   0  0  1  0  0  0  0  0  0  0  0  0
  -19.6766  -41.1187   -7.5163 C   0  0  0  0  0  0  0  0  0  0  0  0
  -20.6886  -40.3383   -7.5900 O   0  0  0  0  0  0  0  0  0  0  0  0
  -18.4546  -40.5793   -7.0953 N   0  0  0  0  0  0  0  0  0  0  0  0
  -17.1573  -40.8205   -7.6919 C   0  0  1  0  0  0  0  0  0  0  0  0
  -17.0794  -40.6542   -9.1504 C   0  0  0  0  0  0  0  0  0  0  0  0
  -17.3680  -41.7856  -10.0710 C   0  0  0  0  0  0  0  0  0  0  0  0
  -18.2401  -41.3355  -11.0935 C   0  0  0  0  0  0  0  0  0  0  0  0
  -18.7181  -42.1203  -12.1071 C   0  0  0  0  0  0  0  0  0  0  0  0
  -18.2864  -43.4215  -12.0730 C   0  0  0  0  0  0  0  0  0  0  0  0
  -17.4204  -43.9219  -11.0792 C   0  0  0  0  0  0  0  0  0  0  0  0
  -16.9592  -43.0910  -10.0735 C   0  0  0  0  0  0  0  0  0  0  0  0
  -17.1606  -45.2580  -11.2953 O   0  0  0  0  0  0  0  0  0  0  0  0
  -17.2200  -46.4418  -10.5995 C   0  0  0  0  0  0  0  0  0  0  0  0
  -18.6167  -46.8073  -10.2384 C   0  0  0  0  0  0  0  0  0  0  0  0
  -18.7924  -47.2578   -8.8192 C   0  0  0  0  0  0  0  0  0  0  0  0
  -19.0601  -46.1303   -7.8555 C   0  0  0  0  0  0  0  0  0  0  0  0
  -20.4519  -45.5874   -7.9238 C   0  0  0  0  0  0  0  0  0  0  0  0
  -20.6549  -44.6672   -6.7781 C   0  0  0  0  0  0  0  0  0  0  0  0
  -20.8569  -45.2049   -5.6421 O   0  0  0  0  0  0  0  0  0  0  0  0
  -20.6416  -43.2698   -6.8484 N   0  0  0  0  0  0  0  0  0  0  0  0
  -21.3446  -42.4904   -5.8520 C   0  0  0  0  0  0  0  0  0  0  0  0
  -16.0564  -40.0380   -6.9655 C   0  0  2  0  0  0  0  0  0  0  0  0
  -16.2769  -40.0840   -5.5914 O   0  0  0  0  0  0  0  0  0  0  0  0
  -16.0469  -38.5915   -7.4223 C   0  0  0  0  0  0  0  0  0  0  0  0
  -15.6836  -38.5647   -8.8211 N   0  0  0  0  0  0  0  0  0  0  0  0
  -15.7851  -37.2513   -9.4072 C   0  0  0  0  0  0  0  0  0  0  0  0
  -14.8440  -36.1594   -9.0362 C   0  0  0  0  0  0  0  0  0  0  0  0
  -14.7548  -36.8639  -10.3780 C   0  0  0  0  0  0  0  0  0  0  0  0
  -17.1883  -36.7750   -9.6608 C   0  0  0  0  0  0  0  0  0  0  0  0
  -17.9868  -37.4425  -10.5520 C   0  0  0  0  0  0  0  0  0  0  0  0
  -19.2837  -36.9999  -10.7879 C   0  0  0  0  0  0  0  0  0  0  0  0
  -19.8009  -35.8990  -10.1483 C   0  0  0  0  0  0  0  0  0  0  0  0
  -19.0019  -35.2294   -9.2551 C   0  0  0  0  0  0  0  0  0  0  0  0
  -19.6723  -33.6934   -8.3397 Br  0  0  0  0  0  0  0  0  0  0  0  0
  -17.6980  -35.6711   -9.0154 C   0  0  0  0  0  0  0  0  0  0  0  0
  2  1  1  6
  2  3  1  0
  3  4  2  0
  3  5  1  0
  5  6  1  0
  6  7  1  6
  7  8  1  0
  8  9  1  0
  9 10  2  0
 10 11  1  0
 11 12  2  0
 12 13  1  0
 12 14  1  0
 14 15  1  0
 15 16  1  0
 16 17  1  0
 17 18  1  0
 18 19  1  0
 19 20  1  0
 20 21  2  0
 20 22  1  0
 22 23  1  0
  6 24  1  0
 24 25  1  1
 24 26  1  0
 26 27  1  0
 27 28  1  0
 28 29  1  0
 29 30  1  0
 28 31  1  0
 31 32  2  0
 32 33  1  0
 33 34  2  0
 34 35  1  0
 35 36  1  0
 35 37  2  0
 13  8  2  0
 22  2  1  0
 30 28  1  0
 37 31  1  0
M  END
$$$$
