
     RDKit          3D

 37 40  0  0  0  0  0  0  0  0999 V2000
  -20.1842  -41.8997   -5.8506 C   0  0  0  0  0  0  0  0  0  0  0  0
  -19.4367  -41.8185   -7.1868 C   0  0  1  0  0  0  0  0  0  0  0  0
  -18.0940  -41.2450   -6.9265 C   0  0  0  0  0  0  0  0  0  0  0  0
  -17.5323  -41.6456   -5.8483 O   0  0  0  0  0  0  0  0  0  0  0  0
  -17.4038  -40.3300   -7.7314 N   0  0  0  0  0  0  0  0  0  0  0  0
  -17.9566  -39.1456   -8.3548 C   0  0  1  0  0  0  0  0  0  0  0  0
  -18.7299  -38.2574   -7.4751 C   0  0  0  0  0  0  0  0  0  0  0  0
  -20.1897  -38.4542   -7.2728 C   0  0  0  0  0  0  0  0  0  0  0  0
  -20.4747  -38.3890   -5.8860 C   0  0  0  0  0  0  0  0  0  0  0  0
  -21.7212  -38.5377   -5.3419 C   0  0  0  0  0  0  0  0  0  0  0  0
  -22.7189  -38.7634   -6.2553 C   0  0  0  0  0  0  0  0  0  0  0  0
  -22.4913  -38.8385   -7.6447 C   0  0  0  0  0  0  0  0  0  0  0  0
  -21.2135  -38.6796   -8.1514 C   0  0  0  0  0  0  0  0  0  0  0  0
  -23.6723  -39.0765   -8.3140 O   0  0  0  0  0  0  0  0  0  0  0  0
  -24.1701  -39.9676   -9.2343 C   0  0  0  0  0  0  0  0  0  0  0  0
  -24.2398  -41.3511   -8.6902 C   0  0  0  0  0  0  0  0  0  0  0  0
  -23.7143  -42.4080   -9.6148 C   0  0  0  0  0  0  0  0  0  0  0  0
  -22.2336  -42.6517   -9.4753 C   0  0  0  0  0  0  0  0  0  0  0  0
  -21.8567  -43.4364   -8.2592 C   0  0  0  0  0  0  0  0  0  0  0  0
  -20.4254  -43.8114   -8.3659 C   0  0  0  0  0  0  0  0  0  0  0  0
  -20.1441  -44.7756   -9.1479 O   0  0  0  0  0  0  0  0  0  0  0  0
  -19.3725  -43.1944   -7.6815 N   0  0  0  0  0  0  0  0  0  0  0  0
  -18.1467  -43.9232   -7.4351 C   0  0  0  0  0  0  0  0  0  0  0  0
  -16.8869  -38.3815   -9.1448 C   0  0  2  0  0  0  0  0  0  0  0  0
  -17.4405  -37.8800  -10.3199 O   0  0  0  0  0  0  0  0  0  0  0  0
  -15.7286  -39.2984   -9.4893 C   0  0  0  0  0  0  0  0  0  0  0  0
  -14.4985  -38.5879   -9.2216 N   0  0  0  0  0  0  0  0  0  0  0  0
  -13.3971  -39.0359  -10.0371 C   0  0  0  0  0  0  0  0  0  0  0  0
  -13.2217  -38.5600  -11.4365 C   0  0  0  0  0  0  0  0  0  0  0  0
  -12.3254  -38.0718  -10.3126 C   0  0  0  0  0  0  0  0  0  0  0  0
  -13.0007  -40.4722   -9.8366 C   0  0  0  0  0  0  0  0  0  0  0  0
  -12.9677  -41.3283  -10.9058 C   0  0  0  0  0  0  0  0  0  0  0  0
  -12.6034  -42.6572  -10.7193 C   0  0  0  0  0  0  0  0  0  0  0  0
  -12.2699  -43.1498   -9.4805 C   0  0  0  0  0  0  0  0  0  0  0  0
  -12.3024  -42.2929   -8.4084 C   0  0  0  0  0  0  0  0  0  0  0  0
  -11.8480  -42.9270   -6.6653 Br  0  0  0  0  0  0  0  0  0  0  0  0
  -12.6681  -40.9568   -8.5918 C   0  0  0  0  0  0  0  0  0  0  0  0
  2  1  1  1
  2  3  1  0
  3  4  2  0
  3  5  1  0
  5  6  1  0
  6  7  1  1
  7  8  1  0
  8  9  1  0
  9 10  2  0
 10 11  1  0
 11 12  2  0
 12 13  1  0
 12 14  1  0
 14 15  1  0
 15 16  1  0
 16 17  1  0
 17 18  1  0
 18 19  1  0
 19 20  1  0
 20 21  2  0
 20 22  1  0
 22 23  1  0
  6 24  1  0
 24 25  1  6
 24 26  1  0
 26 27  1  0
 27 28  1  0
 28 29  1  0
 29 30  1  0
 28 31  1  0
 31 32  2  0
 32 33  1  0
 33 34  2  0
 34 35  1  0
 35 36  1  0
 35 37  2  0
 13  8  2  0
 22  2  1  0
 30 28  1  0
 37 31  1  0
M  END
$$$$
