
     RDKit          3D

 37 40  0  0  0  0  0  0  0  0999 V2000
  -19.3586  -42.9473   -6.7800 C   0  0  0  0  0  0  0  0  0  0  0  0
  -18.6702  -42.0250   -7.7931 C   0  0  1  0  0  0  0  0  0  0  0  0
  -17.4016  -41.5485   -7.1905 C   0  0  0  0  0  0  0  0  0  0  0  0
  -16.7602  -42.4242   -6.5121 O   0  0  0  0  0  0  0  0  0  0  0  0
  -16.8568  -40.2624   -7.2936 N   0  0  0  0  0  0  0  0  0  0  0  0
  -17.5722  -39.0116   -7.1504 C   0  0  1  0  0  0  0  0  0  0  0  0
  -18.4215  -38.8897   -5.9567 C   0  0  0  0  0  0  0  0  0  0  0  0
  -19.8383  -39.3406   -5.9703 C   0  0  0  0  0  0  0  0  0  0  0  0
  -20.0846  -40.1179   -4.8110 C   0  0  0  0  0  0  0  0  0  0  0  0
  -21.2848  -40.7002   -4.5075 C   0  0  0  0  0  0  0  0  0  0  0  0
  -22.2755  -40.4788   -5.4297 C   0  0  0  0  0  0  0  0  0  0  0  0
  -22.0848  -39.7151   -6.5994 C   0  0  0  0  0  0  0  0  0  0  0  0
  -20.8536  -39.1421   -6.8650 C   0  0  0  0  0  0  0  0  0  0  0  0
  -23.2479  -39.6658   -7.3372 O   0  0  0  0  0  0  0  0  0  0  0  0
  -23.6602  -39.9195   -8.6235 C   0  0  0  0  0  0  0  0  0  0  0  0
  -23.5397  -41.3608   -8.9740 C   0  0  0  0  0  0  0  0  0  0  0  0
  -22.9167  -41.6234  -10.3122 C   0  0  0  0  0  0  0  0  0  0  0  0
  -21.4135  -41.7230  -10.2704 C   0  0  0  0  0  0  0  0  0  0  0  0
  -20.9032  -43.0112   -9.7076 C   0  0  0  0  0  0  0  0  0  0  0  0
  -19.4405  -43.0818   -9.9446 C   0  0  0  0  0  0  0  0  0  0  0  0
  -19.0666  -43.3804  -11.1242 O   0  0  0  0  0  0  0  0  0  0  0  0
  -18.4512  -42.8481   -8.9832 N   0  0  0  0  0  0  0  0  0  0  0  0
  -17.1369  -43.4327   -9.1433 C   0  0  0  0  0  0  0  0  0  0  0  0
  -16.6318  -37.8108   -7.3105 C   0  0  2  0  0  0  0  0  0  0  0  0
  -17.3761  -36.6349   -7.3568 O   0  0  0  0  0  0  0  0  0  0  0  0
  -15.8217  -37.9403   -8.5865 C   0  0  0  0  0  0  0  0  0  0  0  0
  -15.2091  -39.2495   -8.5984 N   0  0  0  0  0  0  0  0  0  0  0  0
  -13.8776  -39.2464   -9.1517 C   0  0  0  0  0  0  0  0  0  0  0  0
  -12.6726  -39.2205   -8.2783 C   0  0  0  0  0  0  0  0  0  0  0  0
  -13.0893  -40.4774   -9.0208 C   0  0  0  0  0  0  0  0  0  0  0  0
  -13.7180  -38.4544  -10.4196 C   0  0  0  0  0  0  0  0  0  0  0  0
  -12.9129  -38.9252  -11.4234 C   0  0  0  0  0  0  0  0  0  0  0  0
  -12.7638  -38.1910  -12.5948 C   0  0  0  0  0  0  0  0  0  0  0  0
  -13.4057  -36.9908  -12.7841 C   0  0  0  0  0  0  0  0  0  0  0  0
  -14.2126  -36.5181  -11.7791 C   0  0  0  0  0  0  0  0  0  0  0  0
  -15.1273  -34.8552  -11.9916 Br  0  0  0  0  0  0  0  0  0  0  0  0
  -14.3651  -37.2530  -10.6004 C   0  0  0  0  0  0  0  0  0  0  0  0
  2  1  1  1
  2  3  1  0
  3  4  2  0
  3  5  1  0
  5  6  1  0
  6  7  1  1
  7  8  1  0
  8  9  1  0
  9 10  2  0
 10 11  1  0
 11 12  2  0
 12 13  1  0
 12 14  1  0
 14 15  1  0
 15 16  1  0
 16 17  1  0
 17 18  1  0
 18 19  1  0
 19 20  1  0
 20 21  2  0
 20 22  1  0
 22 23  1  0
  6 24  1  0
 24 25  1  6
 24 26  1  0
 26 27  1  0
 27 28  1  0
 28 29  1  0
 29 30  1  0
 28 31  1  0
 31 32  2  0
 32 33  1  0
 33 34  2  0
 34 35  1  0
 35 36  1  0
 35 37  2  0
 13  8  2  0
 22  2  1  0
 30 28  1  0
 37 31  1  0
M  END
$$$$
