
     RDKit          3D

 37 40  0  0  0  0  0  0  0  0999 V2000
  -19.8719  -42.6438   -6.1044 C   0  0  0  0  0  0  0  0  0  0  0  0
  -19.1671  -42.2618   -7.4114 C   0  0  1  0  0  0  0  0  0  0  0  0
  -17.7696  -41.8873   -7.0857 C   0  0  0  0  0  0  0  0  0  0  0  0
  -17.2095  -42.6081   -6.1883 O   0  0  0  0  0  0  0  0  0  0  0  0
  -17.0274  -40.8451   -7.6553 N   0  0  0  0  0  0  0  0  0  0  0  0
  -17.4915  -39.4965   -7.9062 C   0  0  1  0  0  0  0  0  0  0  0  0
  -18.1496  -38.8227   -6.7776 C   0  0  0  0  0  0  0  0  0  0  0  0
  -19.6134  -38.9522   -6.5509 C   0  0  0  0  0  0  0  0  0  0  0  0
  -19.8428  -39.2438   -5.1830 C   0  0  0  0  0  0  0  0  0  0  0  0
  -21.0779  -39.4365   -4.6270 C   0  0  0  0  0  0  0  0  0  0  0  0
  -22.1233  -39.3271   -5.5079 C   0  0  0  0  0  0  0  0  0  0  0  0
  -21.9519  -39.0399   -6.8776 C   0  0  0  0  0  0  0  0  0  0  0  0
  -20.6834  -38.8500   -7.3968 C   0  0  0  0  0  0  0  0  0  0  0  0
  -23.1723  -38.9942   -7.5164 O   0  0  0  0  0  0  0  0  0  0  0  0
  -23.7808  -39.5604   -8.6109 C   0  0  0  0  0  0  0  0  0  0  0  0
  -23.9572  -41.0297   -8.4534 C   0  0  0  0  0  0  0  0  0  0  0  0
  -23.5625  -41.8338   -9.6558 C   0  0  0  0  0  0  0  0  0  0  0  0
  -22.1062  -42.2213   -9.6728 C   0  0  0  0  0  0  0  0  0  0  0  0
  -21.7602  -43.3335   -8.7348 C   0  0  0  0  0  0  0  0  0  0  0  0
  -20.3735  -43.7762   -9.0208 C   0  0  0  0  0  0  0  0  0  0  0  0
  -20.2085  -44.5110  -10.0471 O   0  0  0  0  0  0  0  0  0  0  0  0
  -19.2457  -43.4524   -8.2588 N   0  0  0  0  0  0  0  0  0  0  0  0
  -18.0834  -44.3143   -8.2878 C   0  0  0  0  0  0  0  0  0  0  0  0
  -16.3848  -38.6329   -8.5238 C   0  0  2  0  0  0  0  0  0  0  0  0
  -16.9396  -37.4757   -9.0642 O   0  0  0  0  0  0  0  0  0  0  0  0
  -15.6641  -39.3993   -9.6166 C   0  0  0  0  0  0  0  0  0  0  0  0
  -14.5800  -40.1365   -9.0078 N   0  0  0  0  0  0  0  0  0  0  0  0
  -13.2819  -39.7370   -9.4917 C   0  0  0  0  0  0  0  0  0  0  0  0
  -12.1330  -39.5419   -8.5655 C   0  0  0  0  0  0  0  0  0  0  0  0
  -12.2180  -40.7480   -9.4836 C   0  0  0  0  0  0  0  0  0  0  0  0
  -13.3023  -38.7637  -10.6373 C   0  0  0  0  0  0  0  0  0  0  0  0
  -12.8600  -37.4801  -10.4523 C   0  0  0  0  0  0  0  0  0  0  0  0
  -12.8815  -36.5797  -11.5116 C   0  0  0  0  0  0  0  0  0  0  0  0
  -13.3381  -36.9377  -12.7574 C   0  0  0  0  0  0  0  0  0  0  0  0
  -13.7815  -38.2234  -12.9439 C   0  0  0  0  0  0  0  0  0  0  0  0
  -14.4263  -38.7720  -14.6558 Br  0  0  0  0  0  0  0  0  0  0  0  0
  -13.7615  -39.1312  -11.8818 C   0  0  0  0  0  0  0  0  0  0  0  0
  2  1  1  1
  2  3  1  0
  3  4  2  0
  3  5  1  0
  5  6  1  0
  6  7  1  1
  7  8  1  0
  8  9  1  0
  9 10  2  0
 10 11  1  0
 11 12  2  0
 12 13  1  0
 12 14  1  0
 14 15  1  0
 15 16  1  0
 16 17  1  0
 17 18  1  0
 18 19  1  0
 19 20  1  0
 20 21  2  0
 20 22  1  0
 22 23  1  0
  6 24  1  0
 24 25  1  6
 24 26  1  0
 26 27  1  0
 27 28  1  0
 28 29  1  0
 29 30  1  0
 28 31  1  0
 31 32  2  0
 32 33  1  0
 33 34  2  0
 34 35  1  0
 35 36  1  0
 35 37  2  0
 13  8  2  0
 22  2  1  0
 30 28  1  0
 37 31  1  0
M  END
$$$$
