
     RDKit          3D

 37 40  0  0  0  0  0  0  0  0999 V2000
  -19.2990  -42.0381   -6.5082 C   0  0  0  0  0  0  0  0  0  0  0  0
  -18.4500  -41.5794   -7.6997 C   0  0  1  0  0  0  0  0  0  0  0  0
  -17.1583  -41.0744   -7.1743 C   0  0  0  0  0  0  0  0  0  0  0  0
  -16.6692  -41.7450   -6.1998 O   0  0  0  0  0  0  0  0  0  0  0  0
  -16.4447  -39.9610   -7.6352 N   0  0  0  0  0  0  0  0  0  0  0  0
  -16.9950  -38.6615   -7.9602 C   0  0  1  0  0  0  0  0  0  0  0  0
  -17.8739  -38.0634   -6.9450 C   0  0  0  0  0  0  0  0  0  0  0  0
  -19.3357  -38.3353   -6.9352 C   0  0  0  0  0  0  0  0  0  0  0  0
  -19.7344  -38.6586   -5.6141 C   0  0  0  0  0  0  0  0  0  0  0  0
  -21.0134  -38.9740   -5.2447 C   0  0  0  0  0  0  0  0  0  0  0  0
  -21.9235  -38.9590   -6.2705 C   0  0  0  0  0  0  0  0  0  0  0  0
  -21.5812  -38.6457   -7.6018 C   0  0  0  0  0  0  0  0  0  0  0  0
  -20.2745  -38.3301   -7.9300 C   0  0  0  0  0  0  0  0  0  0  0  0
  -22.6930  -38.7130   -8.4134 O   0  0  0  0  0  0  0  0  0  0  0  0
  -23.0764  -39.3265   -9.5820 C   0  0  0  0  0  0  0  0  0  0  0  0
  -23.1312  -40.8072   -9.4428 C   0  0  0  0  0  0  0  0  0  0  0  0
  -22.4883  -41.5598  -10.5689 C   0  0  0  0  0  0  0  0  0  0  0  0
  -21.0147  -41.8048  -10.3691 C   0  0  0  0  0  0  0  0  0  0  0  0
  -20.7045  -42.8858   -9.3834 C   0  0  0  0  0  0  0  0  0  0  0  0
  -19.2546  -43.1904   -9.4595 C   0  0  0  0  0  0  0  0  0  0  0  0
  -18.8703  -43.8976  -10.4457 O   0  0  0  0  0  0  0  0  0  0  0  0
  -18.2877  -42.7653   -8.5419 N   0  0  0  0  0  0  0  0  0  0  0  0
  -17.0560  -43.5107   -8.3941 C   0  0  0  0  0  0  0  0  0  0  0  0
  -15.8982  -37.6902   -8.4138 C   0  0  2  0  0  0  0  0  0  0  0  0
  -16.4545  -36.6947   -9.2128 O   0  0  0  0  0  0  0  0  0  0  0  0
  -14.8326  -38.4272   -9.2026 C   0  0  0  0  0  0  0  0  0  0  0  0
  -15.1212  -38.2629  -10.6094 N   0  0  0  0  0  0  0  0  0  0  0  0
  -13.9371  -38.2460  -11.4319 C   0  0  0  0  0  0  0  0  0  0  0  0
  -13.8891  -37.4853  -12.7104 C   0  0  0  0  0  0  0  0  0  0  0  0
  -13.1593  -37.0020  -11.4700 C   0  0  0  0  0  0  0  0  0  0  0  0
  -13.1736  -39.5405  -11.4739 C   0  0  0  0  0  0  0  0  0  0  0  0
  -13.4226  -40.5120  -10.5403 C   0  0  0  0  0  0  0  0  0  0  0  0
  -12.7144  -41.7080  -10.5782 C   0  0  0  0  0  0  0  0  0  0  0  0
  -11.7584  -41.9538  -11.5343 C   0  0  0  0  0  0  0  0  0  0  0  0
  -11.5082  -40.9812  -12.4703 C   0  0  0  0  0  0  0  0  0  0  0  0
  -10.1896  -41.2725  -13.8206 Br  0  0  0  0  0  0  0  0  0  0  0  0
  -12.2178  -39.7780  -12.4356 C   0  0  0  0  0  0  0  0  0  0  0  0
  2  1  1  1
  2  3  1  0
  3  4  2  0
  3  5  1  0
  5  6  1  0
  6  7  1  1
  7  8  1  0
  8  9  1  0
  9 10  2  0
 10 11  1  0
 11 12  2  0
 12 13  1  0
 12 14  1  0
 14 15  1  0
 15 16  1  0
 16 17  1  0
 17 18  1  0
 18 19  1  0
 19 20  1  0
 20 21  2  0
 20 22  1  0
 22 23  1  0
  6 24  1  0
 24 25  1  6
 24 26  1  0
 26 27  1  0
 27 28  1  0
 28 29  1  0
 29 30  1  0
 28 31  1  0
 31 32  2  0
 32 33  1  0
 33 34  2  0
 34 35  1  0
 35 36  1  0
 35 37  2  0
 13  8  2  0
 22  2  1  0
 30 28  1  0
 37 31  1  0
M  END
$$$$
