
     RDKit          3D

 37 40  0  0  0  0  0  0  0  0999 V2000
  -15.1446  -39.3489  -12.9283 C   0  0  0  0  0  0  0  0  0  0  0  0
  -14.7431  -39.7348  -11.4998 C   0  0  1  0  0  0  0  0  0  0  0  0
  -15.9808  -40.0457  -10.7443 C   0  0  0  0  0  0  0  0  0  0  0  0
  -16.8732  -40.6844  -11.4034 O   0  0  0  0  0  0  0  0  0  0  0  0
  -16.2543  -39.7132   -9.4116 N   0  0  0  0  0  0  0  0  0  0  0  0
  -16.0049  -38.4363   -8.7756 C   0  0  1  0  0  0  0  0  0  0  0  0
  -16.4986  -37.2528   -9.4942 C   0  0  0  0  0  0  0  0  0  0  0  0
  -15.6587  -36.5613  -10.5078 C   0  0  0  0  0  0  0  0  0  0  0  0
  -16.4386  -36.3248  -11.6673 C   0  0  0  0  0  0  0  0  0  0  0  0
  -15.9777  -35.7138  -12.8014 C   0  0  0  0  0  0  0  0  0  0  0  0
  -14.6625  -35.3290  -12.7475 C   0  0  0  0  0  0  0  0  0  0  0  0
  -13.8417  -35.5404  -11.6209 C   0  0  0  0  0  0  0  0  0  0  0  0
  -14.3510  -36.1607  -10.4937 C   0  0  0  0  0  0  0  0  0  0  0  0
  -12.5724  -35.0558  -11.8522 O   0  0  0  0  0  0  0  0  0  0  0  0
  -11.2744  -35.5030  -11.7880 C   0  0  0  0  0  0  0  0  0  0  0  0
  -11.0060  -36.5808  -12.7785 C   0  0  0  0  0  0  0  0  0  0  0  0
  -10.2593  -37.7580  -12.2266 C   0  0  0  0  0  0  0  0  0  0  0  0
  -11.1526  -38.8155  -11.6308 C   0  0  0  0  0  0  0  0  0  0  0  0
  -11.8606  -39.6573  -12.6440 C   0  0  0  0  0  0  0  0  0  0  0  0
  -12.5034  -40.7960  -11.9435 C   0  0  0  0  0  0  0  0  0  0  0  0
  -11.7423  -41.7540  -11.5923 O   0  0  0  0  0  0  0  0  0  0  0  0
  -13.8660  -40.8976  -11.6422 N   0  0  0  0  0  0  0  0  0  0  0  0
  -14.4685  -42.2001  -11.4552 C   0  0  0  0  0  0  0  0  0  0  0  0
  -16.4558  -38.4470   -7.3098 C   0  0  2  0  0  0  0  0  0  0  0  0
  -15.3668  -38.7197   -6.4861 O   0  0  0  0  0  0  0  0  0  0  0  0
  -17.5234  -39.5026   -7.0929 C   0  0  0  0  0  0  0  0  0  0  0  0
  -18.8061  -38.9151   -7.4075 N   0  0  0  0  0  0  0  0  0  0  0  0
  -19.8203  -39.8958   -7.7050 C   0  0  0  0  0  0  0  0  0  0  0  0
  -19.7360  -40.7592   -8.9146 C   0  0  0  0  0  0  0  0  0  0  0  0
  -19.4662  -41.3088   -7.5254 C   0  0  0  0  0  0  0  0  0  0  0  0
  -21.2238  -39.4848   -7.3566 C   0  0  0  0  0  0  0  0  0  0  0  0
  -22.2056  -39.5260   -8.3115 C   0  0  0  0  0  0  0  0  0  0  0  0
  -23.5030  -39.1433   -7.9891 C   0  0  0  0  0  0  0  0  0  0  0  0
  -23.8404  -38.7187   -6.7265 C   0  0  0  0  0  0  0  0  0  0  0  0
  -22.8575  -38.6771   -5.7689 C   0  0  0  0  0  0  0  0  0  0  0  0
  -23.2736  -38.0944   -3.9985 Br  0  0  0  0  0  0  0  0  0  0  0  0
  -21.5526  -39.0608   -6.0889 C   0  0  0  0  0  0  0  0  0  0  0  0
  2  1  1  6
  2  3  1  0
  3  4  2  0
  3  5  1  0
  5  6  1  0
  6  7  1  6
  7  8  1  0
  8  9  1  0
  9 10  2  0
 10 11  1  0
 11 12  2  0
 12 13  1  0
 12 14  1  0
 14 15  1  0
 15 16  1  0
 16 17  1  0
 17 18  1  0
 18 19  1  0
 19 20  1  0
 20 21  2  0
 20 22  1  0
 22 23  1  0
  6 24  1  0
 24 25  1  1
 24 26  1  0
 26 27  1  0
 27 28  1  0
 28 29  1  0
 29 30  1  0
 28 31  1  0
 31 32  2  0
 32 33  1  0
 33 34  2  0
 34 35  1  0
 35 36  1  0
 35 37  2  0
 13  8  2  0
 22  2  1  0
 30 28  1  0
 37 31  1  0
M  END
$$$$
