
     RDKit          3D

 37 40  0  0  0  0  0  0  0  0999 V2000
  -16.7313  -43.2155  -11.5513 C   0  0  0  0  0  0  0  0  0  0  0  0
  -16.8584  -42.8740  -10.0620 C   0  0  1  0  0  0  0  0  0  0  0  0
  -17.7907  -41.7279   -9.9328 C   0  0  0  0  0  0  0  0  0  0  0  0
  -18.8001  -41.7579  -10.7194 O   0  0  0  0  0  0  0  0  0  0  0  0
  -17.6702  -40.6455   -9.0523 N   0  0  0  0  0  0  0  0  0  0  0  0
  -16.4646  -39.8924   -8.7757 C   0  0  1  0  0  0  0  0  0  0  0  0
  -15.7202  -39.4161   -9.9504 C   0  0  0  0  0  0  0  0  0  0  0  0
  -14.6760  -40.2571  -10.5934 C   0  0  0  0  0  0  0  0  0  0  0  0
  -14.8803  -40.2514  -11.9959 C   0  0  0  0  0  0  0  0  0  0  0  0
  -14.1053  -40.9306  -12.8958 C   0  0  0  0  0  0  0  0  0  0  0  0
  -13.0779  -41.6471  -12.3374 C   0  0  0  0  0  0  0  0  0  0  0  0
  -12.8302  -41.6884  -10.9500 C   0  0  0  0  0  0  0  0  0  0  0  0
  -13.6388  -40.9834  -10.0761 C   0  0  0  0  0  0  0  0  0  0  0  0
  -11.7399  -42.4867  -10.6792 O   0  0  0  0  0  0  0  0  0  0  0  0
  -11.4251  -43.5590   -9.8791 C   0  0  0  0  0  0  0  0  0  0  0  0
  -12.1820  -44.7819  -10.2617 C   0  0  0  0  0  0  0  0  0  0  0  0
  -12.7840  -45.5250   -9.1071 C   0  0  0  0  0  0  0  0  0  0  0  0
  -14.1616  -45.0437   -8.7303 C   0  0  0  0  0  0  0  0  0  0  0  0
  -15.2404  -45.4909   -9.6644 C   0  0  0  0  0  0  0  0  0  0  0  0
  -16.5540  -45.1628   -9.0581 C   0  0  0  0  0  0  0  0  0  0  0  0
  -16.9608  -45.9293   -8.1268 O   0  0  0  0  0  0  0  0  0  0  0  0
  -17.3711  -44.0883   -9.4262 N   0  0  0  0  0  0  0  0  0  0  0  0
  -18.7960  -44.1478   -9.1798 C   0  0  0  0  0  0  0  0  0  0  0  0
  -16.7304  -38.7660   -7.7694 C   0  0  2  0  0  0  0  0  0  0  0  0
  -16.8570  -39.3004   -6.4898 O   0  0  0  0  0  0  0  0  0  0  0  0
  -18.0038  -38.0247   -8.1300 C   0  0  0  0  0  0  0  0  0  0  0  0
  -18.9581  -38.2264   -7.0632 N   0  0  0  0  0  0  0  0  0  0  0  0
  -20.3109  -37.9064   -7.4459 C   0  0  0  0  0  0  0  0  0  0  0  0
  -21.4664  -38.2386   -6.5684 C   0  0  0  0  0  0  0  0  0  0  0  0
  -20.9743  -36.8114   -6.7284 C   0  0  0  0  0  0  0  0  0  0  0  0
  -20.6082  -38.0527   -8.9123 C   0  0  0  0  0  0  0  0  0  0  0  0
  -21.4199  -39.0670   -9.3478 C   0  0  0  0  0  0  0  0  0  0  0  0
  -21.6925  -39.2032  -10.7045 C   0  0  0  0  0  0  0  0  0  0  0  0
  -21.1680  -38.3425  -11.6387 C   0  0  0  0  0  0  0  0  0  0  0  0
  -20.3546  -37.3258  -11.2035 C   0  0  0  0  0  0  0  0  0  0  0  0
  -19.6001  -36.1023  -12.4607 Br  0  0  0  0  0  0  0  0  0  0  0  0
  -20.0784  -37.1856   -9.8409 C   0  0  0  0  0  0  0  0  0  0  0  0
  2  1  1  6
  2  3  1  0
  3  4  2  0
  3  5  1  0
  5  6  1  0
  6  7  1  6
  7  8  1  0
  8  9  1  0
  9 10  2  0
 10 11  1  0
 11 12  2  0
 12 13  1  0
 12 14  1  0
 14 15  1  0
 15 16  1  0
 16 17  1  0
 17 18  1  0
 18 19  1  0
 19 20  1  0
 20 21  2  0
 20 22  1  0
 22 23  1  0
  6 24  1  0
 24 25  1  1
 24 26  1  0
 26 27  1  0
 27 28  1  0
 28 29  1  0
 29 30  1  0
 28 31  1  0
 31 32  2  0
 32 33  1  0
 33 34  2  0
 34 35  1  0
 35 36  1  0
 35 37  2  0
 13  8  2  0
 22  2  1  0
 30 28  1  0
 37 31  1  0
M  END
$$$$
