
     RDKit          3D

 37 40  0  0  0  0  0  0  0  0999 V2000
  -18.4141  -41.1876   -5.7359 C   0  0  0  0  0  0  0  0  0  0  0  0
  -18.1924  -41.5637   -7.2056 C   0  0  1  0  0  0  0  0  0  0  0  0
  -17.1333  -40.6796   -7.7499 C   0  0  0  0  0  0  0  0  0  0  0  0
  -16.1646  -40.4365   -6.9493 O   0  0  0  0  0  0  0  0  0  0  0  0
  -17.0979  -40.1026   -9.0255 N   0  0  0  0  0  0  0  0  0  0  0  0
  -18.2000  -39.4572   -9.7080 C   0  0  1  0  0  0  0  0  0  0  0  0
  -18.9310  -38.4439   -8.9335 C   0  0  0  0  0  0  0  0  0  0  0  0
  -20.0867  -38.8163   -8.0754 C   0  0  0  0  0  0  0  0  0  0  0  0
  -19.9373  -38.1979   -6.8089 C   0  0  0  0  0  0  0  0  0  0  0  0
  -20.8174  -38.3333   -5.7703 C   0  0  0  0  0  0  0  0  0  0  0  0
  -21.8964  -39.1364   -6.0381 C   0  0  0  0  0  0  0  0  0  0  0  0
  -22.0936  -39.7761   -7.2790 C   0  0  0  0  0  0  0  0  0  0  0  0
  -21.1781  -39.6088   -8.3030 C   0  0  0  0  0  0  0  0  0  0  0  0
  -23.2552  -40.5175   -7.2592 O   0  0  0  0  0  0  0  0  0  0  0  0
  -23.6571  -41.8047   -7.5248 C   0  0  0  0  0  0  0  0  0  0  0  0
  -23.0572  -42.7833   -6.5775 C   0  0  0  0  0  0  0  0  0  0  0  0
  -22.4983  -44.0131   -7.2279 C   0  0  0  0  0  0  0  0  0  0  0  0
  -21.0620  -43.8685   -7.6609 C   0  0  0  0  0  0  0  0  0  0  0  0
  -20.0768  -43.9359   -6.5378 C   0  0  0  0  0  0  0  0  0  0  0  0
  -18.7124  -44.0255   -7.1133 C   0  0  0  0  0  0  0  0  0  0  0  0
  -18.3584  -45.1595   -7.5705 O   0  0  0  0  0  0  0  0  0  0  0  0
  -17.7948  -42.9721   -7.1917 N   0  0  0  0  0  0  0  0  0  0  0  0
  -16.3771  -43.2539   -7.2648 C   0  0  0  0  0  0  0  0  0  0  0  0
  -17.7712  -38.9295  -11.0827 C   0  0  2  0  0  0  0  0  0  0  0  0
  -18.2484  -39.7762  -12.0798 O   0  0  0  0  0  0  0  0  0  0  0  0
  -16.2588  -38.8547  -11.1719 C   0  0  0  0  0  0  0  0  0  0  0  0
  -15.8247  -37.6753  -10.4577 N   0  0  0  0  0  0  0  0  0  0  0  0
  -14.4373  -37.3550  -10.6843 C   0  0  0  0  0  0  0  0  0  0  0  0
  -13.3551  -37.9593   -9.8601 C   0  0  0  0  0  0  0  0  0  0  0  0
  -13.5964  -38.3910  -11.2955 C   0  0  0  0  0  0  0  0  0  0  0  0
  -14.1698  -35.9279  -11.0745 C   0  0  0  0  0  0  0  0  0  0  0  0
  -13.0183  -35.6061  -11.7437 C   0  0  0  0  0  0  0  0  0  0  0  0
  -12.7704  -34.2856  -12.1021 C   0  0  0  0  0  0  0  0  0  0  0  0
  -13.6539  -33.2761  -11.8040 C   0  0  0  0  0  0  0  0  0  0  0  0
  -14.8080  -33.5974  -11.1335 C   0  0  0  0  0  0  0  0  0  0  0  0
  -16.0689  -32.2318  -10.6950 Br  0  0  0  0  0  0  0  0  0  0  0  0
  -15.0607  -34.9232  -10.7716 C   0  0  0  0  0  0  0  0  0  0  0  0
  2  1  1  1
  2  3  1  0
  3  4  2  0
  3  5  1  0
  5  6  1  0
  6  7  1  1
  7  8  1  0
  8  9  1  0
  9 10  2  0
 10 11  1  0
 11 12  2  0
 12 13  1  0
 12 14  1  0
 14 15  1  0
 15 16  1  0
 16 17  1  0
 17 18  1  0
 18 19  1  0
 19 20  1  0
 20 21  2  0
 20 22  1  0
 22 23  1  0
  6 24  1  0
 24 25  1  6
 24 26  1  0
 26 27  1  0
 27 28  1  0
 28 29  1  0
 29 30  1  0
 28 31  1  0
 31 32  2  0
 32 33  1  0
 33 34  2  0
 34 35  1  0
 35 36  1  0
 35 37  2  0
 13  8  2  0
 22  2  1  0
 30 28  1  0
 37 31  1  0
M  END
$$$$
