
     RDKit          3D

 37 40  0  0  0  0  0  0  0  0999 V2000
  -15.2764  -39.8809  -12.4906 C   0  0  0  0  0  0  0  0  0  0  0  0
  -14.8320  -40.0225  -11.0300 C   0  0  1  0  0  0  0  0  0  0  0  0
  -16.0015  -40.4732  -10.2370 C   0  0  0  0  0  0  0  0  0  0  0  0
  -16.7486  -41.3373  -10.8147 O   0  0  0  0  0  0  0  0  0  0  0  0
  -16.3527  -40.0508   -8.9488 N   0  0  0  0  0  0  0  0  0  0  0  0
  -16.3560  -38.6868   -8.4623 C   0  0  1  0  0  0  0  0  0  0  0  0
  -17.0508  -37.7046   -9.3069 C   0  0  0  0  0  0  0  0  0  0  0  0
  -16.3392  -36.9859  -10.3968 C   0  0  0  0  0  0  0  0  0  0  0  0
  -17.1316  -37.0308  -11.5711 C   0  0  0  0  0  0  0  0  0  0  0  0
  -16.7754  -36.4751  -12.7695 C   0  0  0  0  0  0  0  0  0  0  0  0
  -15.5562  -35.8472  -12.7671 C   0  0  0  0  0  0  0  0  0  0  0  0
  -14.7278  -35.7738  -11.6286 C   0  0  0  0  0  0  0  0  0  0  0  0
  -15.1296  -36.3485  -10.4357 C   0  0  0  0  0  0  0  0  0  0  0  0
  -13.5679  -35.0891  -11.9204 O   0  0  0  0  0  0  0  0  0  0  0  0
  -12.2104  -35.2753  -11.8138 C   0  0  0  0  0  0  0  0  0  0  0  0
  -11.7302  -36.3878  -12.6780 C   0  0  0  0  0  0  0  0  0  0  0  0
  -10.7855  -37.3350  -12.0013 C   0  0  0  0  0  0  0  0  0  0  0  0
  -11.4747  -38.4677  -11.2848 C   0  0  0  0  0  0  0  0  0  0  0  0
  -11.9974  -39.5351  -12.1925 C   0  0  0  0  0  0  0  0  0  0  0  0
  -12.4270  -40.6885  -11.3643 C   0  0  0  0  0  0  0  0  0  0  0  0
  -11.5059  -41.4416  -10.9118 O   0  0  0  0  0  0  0  0  0  0  0  0
  -13.7511  -41.0091  -11.0455 N   0  0  0  0  0  0  0  0  0  0  0  0
  -14.1028  -42.3721  -10.7093 C   0  0  0  0  0  0  0  0  0  0  0  0
  -16.8194  -38.6178   -7.0020 C   0  0  2  0  0  0  0  0  0  0  0  0
  -15.7229  -38.7550   -6.1549 O   0  0  0  0  0  0  0  0  0  0  0  0
  -17.8172  -39.7227   -6.7113 C   0  0  0  0  0  0  0  0  0  0  0  0
  -18.5304  -40.0166   -7.9338 N   0  0  0  0  0  0  0  0  0  0  0  0
  -19.7980  -40.6655   -7.7076 C   0  0  0  0  0  0  0  0  0  0  0  0
  -20.3217  -41.6968   -8.6445 C   0  0  0  0  0  0  0  0  0  0  0  0
  -19.7709  -42.0691   -7.2796 C   0  0  0  0  0  0  0  0  0  0  0  0
  -20.8677  -39.7851   -7.1240 C   0  0  0  0  0  0  0  0  0  0  0  0
  -21.3658  -38.7381   -7.8542 C   0  0  0  0  0  0  0  0  0  0  0  0
  -22.3534  -37.9227   -7.3128 C   0  0  0  0  0  0  0  0  0  0  0  0
  -22.8555  -38.1333   -6.0511 C   0  0  0  0  0  0  0  0  0  0  0  0
  -22.3573  -39.1820   -5.3185 C   0  0  0  0  0  0  0  0  0  0  0  0
  -23.0209  -39.5182   -3.5596 Br  0  0  0  0  0  0  0  0  0  0  0  0
  -21.3648  -40.0038   -5.8591 C   0  0  0  0  0  0  0  0  0  0  0  0
  2  1  1  6
  2  3  1  0
  3  4  2  0
  3  5  1  0
  5  6  1  0
  6  7  1  6
  7  8  1  0
  8  9  1  0
  9 10  2  0
 10 11  1  0
 11 12  2  0
 12 13  1  0
 12 14  1  0
 14 15  1  0
 15 16  1  0
 16 17  1  0
 17 18  1  0
 18 19  1  0
 19 20  1  0
 20 21  2  0
 20 22  1  0
 22 23  1  0
  6 24  1  0
 24 25  1  1
 24 26  1  0
 26 27  1  0
 27 28  1  0
 28 29  1  0
 29 30  1  0
 28 31  1  0
 31 32  2  0
 32 33  1  0
 33 34  2  0
 34 35  1  0
 35 36  1  0
 35 37  2  0
 13  8  2  0
 22  2  1  0
 30 28  1  0
 37 31  1  0
M  END
$$$$
