
     RDKit          3D

 37 40  0  0  0  0  0  0  0  0999 V2000
  -19.1957  -42.5389   -5.7341 C   0  0  0  0  0  0  0  0  0  0  0  0
  -18.8759  -42.2032   -7.1955 C   0  0  1  0  0  0  0  0  0  0  0  0
  -17.6027  -41.4431   -7.2229 C   0  0  0  0  0  0  0  0  0  0  0  0
  -16.7102  -41.8493   -6.4001 O   0  0  0  0  0  0  0  0  0  0  0  0
  -17.2967  -40.3513   -8.0449 N   0  0  0  0  0  0  0  0  0  0  0  0
  -18.1553  -39.2195   -8.3259 C   0  0  1  0  0  0  0  0  0  0  0  0
  -18.7575  -38.5633   -7.1563 C   0  0  0  0  0  0  0  0  0  0  0  0
  -20.0604  -39.0190   -6.6036 C   0  0  0  0  0  0  0  0  0  0  0  0
  -19.9460  -39.1393   -5.1960 C   0  0  0  0  0  0  0  0  0  0  0  0
  -20.9557  -39.5459   -4.3672 C   0  0  0  0  0  0  0  0  0  0  0  0
  -22.1327  -39.8430   -5.0053 C   0  0  0  0  0  0  0  0  0  0  0  0
  -22.3009  -39.7417   -6.4015 C   0  0  0  0  0  0  0  0  0  0  0  0
  -21.2523  -39.3236   -7.2016 C   0  0  0  0  0  0  0  0  0  0  0  0
  -23.5810  -40.1055   -6.7598 O   0  0  0  0  0  0  0  0  0  0  0  0
  -24.1972  -40.9717   -7.6310 C   0  0  0  0  0  0  0  0  0  0  0  0
  -23.9259  -42.3943   -7.2885 C   0  0  0  0  0  0  0  0  0  0  0  0
  -23.5495  -43.2527   -8.4587 C   0  0  0  0  0  0  0  0  0  0  0  0
  -22.0715  -43.2596   -8.7531 C   0  0  0  0  0  0  0  0  0  0  0  0
  -21.2646  -44.0869   -7.8039 C   0  0  0  0  0  0  0  0  0  0  0  0
  -19.8859  -44.2064   -8.3385 C   0  0  0  0  0  0  0  0  0  0  0  0
  -19.7132  -45.0286   -9.2948 O   0  0  0  0  0  0  0  0  0  0  0  0
  -18.7733  -43.4937   -7.8783 N   0  0  0  0  0  0  0  0  0  0  0  0
  -17.4428  -44.0294   -8.0713 C   0  0  0  0  0  0  0  0  0  0  0  0
  -17.4647  -38.2141   -9.2556 C   0  0  2  0  0  0  0  0  0  0  0  0
  -17.7068  -38.5596  -10.5826 O   0  0  0  0  0  0  0  0  0  0  0  0
  -15.9685  -38.2050   -9.0062 C   0  0  0  0  0  0  0  0  0  0  0  0
  -15.3066  -38.5907  -10.2320 N   0  0  0  0  0  0  0  0  0  0  0  0
  -13.9396  -38.1381  -10.3038 C   0  0  0  0  0  0  0  0  0  0  0  0
  -12.9943  -38.3366   -9.1712 C   0  0  0  0  0  0  0  0  0  0  0  0
  -12.8963  -39.1611  -10.4422 C   0  0  0  0  0  0  0  0  0  0  0  0
  -13.7371  -36.8403  -11.0352 C   0  0  0  0  0  0  0  0  0  0  0  0
  -12.7302  -36.7246  -11.9572 C   0  0  0  0  0  0  0  0  0  0  0  0
  -12.5419  -35.5232  -12.6315 C   0  0  0  0  0  0  0  0  0  0  0  0
  -13.3431  -34.4305  -12.4020 C   0  0  0  0  0  0  0  0  0  0  0  0
  -14.3523  -34.5453  -11.4785 C   0  0  0  0  0  0  0  0  0  0  0  0
  -15.4941  -33.0565  -11.1221 Br  0  0  0  0  0  0  0  0  0  0  0  0
  -14.5447  -35.7509  -10.7988 C   0  0  0  0  0  0  0  0  0  0  0  0
  2  1  1  1
  2  3  1  0
  3  4  2  0
  3  5  1  0
  5  6  1  0
  6  7  1  1
  7  8  1  0
  8  9  1  0
  9 10  2  0
 10 11  1  0
 11 12  2  0
 12 13  1  0
 12 14  1  0
 14 15  1  0
 15 16  1  0
 16 17  1  0
 17 18  1  0
 18 19  1  0
 19 20  1  0
 20 21  2  0
 20 22  1  0
 22 23  1  0
  6 24  1  0
 24 25  1  6
 24 26  1  0
 26 27  1  0
 27 28  1  0
 28 29  1  0
 29 30  1  0
 28 31  1  0
 31 32  2  0
 32 33  1  0
 33 34  2  0
 34 35  1  0
 35 36  1  0
 35 37  2  0
 13  8  2  0
 22  2  1  0
 30 28  1  0
 37 31  1  0
M  END
$$$$
