
     RDKit          3D

 37 40  0  0  0  0  0  0  0  0999 V2000
  -20.0860  -43.3859   -5.0654 C   0  0  0  0  0  0  0  0  0  0  0  0
  -19.6968  -43.1817   -6.5343 C   0  0  1  0  0  0  0  0  0  0  0  0
  -18.4399  -42.3952   -6.5701 C   0  0  0  0  0  0  0  0  0  0  0  0
  -17.5837  -42.6987   -5.6682 O   0  0  0  0  0  0  0  0  0  0  0  0
  -18.1139  -41.3784   -7.4763 N   0  0  0  0  0  0  0  0  0  0  0  0
  -18.9798  -40.3006   -7.9072 C   0  0  1  0  0  0  0  0  0  0  0  0
  -19.6561  -39.5526   -6.8376 C   0  0  0  0  0  0  0  0  0  0  0  0
  -20.9766  -39.9872   -6.3102 C   0  0  0  0  0  0  0  0  0  0  0  0
  -20.9339  -39.9710   -4.8936 C   0  0  0  0  0  0  0  0  0  0  0  0
  -21.9771  -40.3233   -4.0816 C   0  0  0  0  0  0  0  0  0  0  0  0
  -23.1125  -40.7094   -4.7469 C   0  0  0  0  0  0  0  0  0  0  0  0
  -23.2091  -40.7449   -6.1530 C   0  0  0  0  0  0  0  0  0  0  0  0
  -22.1288  -40.3774   -6.9356 C   0  0  0  0  0  0  0  0  0  0  0  0
  -24.4608  -41.1735   -6.5390 O   0  0  0  0  0  0  0  0  0  0  0  0
  -25.0122  -42.1337   -7.3532 C   0  0  0  0  0  0  0  0  0  0  0  0
  -24.7299  -43.5102   -6.8629 C   0  0  0  0  0  0  0  0  0  0  0  0
  -24.2747  -44.4654   -7.9252 C   0  0  0  0  0  0  0  0  0  0  0  0
  -22.7834  -44.4622   -8.1427 C   0  0  0  0  0  0  0  0  0  0  0  0
  -22.0106  -45.1750   -7.0792 C   0  0  0  0  0  0  0  0  0  0  0  0
  -20.6035  -45.3092   -7.5297 C   0  0  0  0  0  0  0  0  0  0  0  0
  -20.3637  -46.2133   -8.3931 O   0  0  0  0  0  0  0  0  0  0  0  0
  -19.5317  -44.5278   -7.0844 N   0  0  0  0  0  0  0  0  0  0  0  0
  -18.1820  -45.0451   -7.1579 C   0  0  0  0  0  0  0  0  0  0  0  0
  -18.2622  -39.3702   -8.8928 C   0  0  2  0  0  0  0  0  0  0  0  0
  -17.9131  -40.0802  -10.0386 O   0  0  0  0  0  0  0  0  0  0  0  0
  -17.0095  -38.7948   -8.2601 C   0  0  0  0  0  0  0  0  0  0  0  0
  -16.6551  -37.5920   -8.9792 N   0  0  0  0  0  0  0  0  0  0  0  0
  -15.5394  -37.7753   -9.8739 C   0  0  0  0  0  0  0  0  0  0  0  0
  -15.4548  -37.0489  -11.1703 C   0  0  0  0  0  0  0  0  0  0  0  0
  -14.5783  -36.6722   -9.9894 C   0  0  0  0  0  0  0  0  0  0  0  0
  -14.9955  -39.1756   -9.9331 C   0  0  0  0  0  0  0  0  0  0  0  0
  -15.2149  -39.9484  -11.0431 C   0  0  0  0  0  0  0  0  0  0  0  0
  -14.7136  -41.2443  -11.0961 C   0  0  0  0  0  0  0  0  0  0  0  0
  -13.9943  -41.7858  -10.0578 C   0  0  0  0  0  0  0  0  0  0  0  0
  -13.7737  -41.0124   -8.9452 C   0  0  0  0  0  0  0  0  0  0  0  0
  -12.7803  -41.7172   -7.4744 Br  0  0  0  0  0  0  0  0  0  0  0  0
  -14.2759  -39.7097   -8.8881 C   0  0  0  0  0  0  0  0  0  0  0  0
  2  1  1  1
  2  3  1  0
  3  4  2  0
  3  5  1  0
  5  6  1  0
  6  7  1  1
  7  8  1  0
  8  9  1  0
  9 10  2  0
 10 11  1  0
 11 12  2  0
 12 13  1  0
 12 14  1  0
 14 15  1  0
 15 16  1  0
 16 17  1  0
 17 18  1  0
 18 19  1  0
 19 20  1  0
 20 21  2  0
 20 22  1  0
 22 23  1  0
  6 24  1  0
 24 25  1  6
 24 26  1  0
 26 27  1  0
 27 28  1  0
 28 29  1  0
 29 30  1  0
 28 31  1  0
 31 32  2  0
 32 33  1  0
 33 34  2  0
 34 35  1  0
 35 36  1  0
 35 37  2  0
 13  8  2  0
 22  2  1  0
 30 28  1  0
 37 31  1  0
M  END
$$$$
