
     RDKit          3D

 37 40  0  0  0  0  0  0  0  0999 V2000
  -21.6866  -43.0252   -7.4296 C   0  0  0  0  0  0  0  0  0  0  0  0
  -20.1550  -43.0389   -7.4981 C   0  0  1  0  0  0  0  0  0  0  0  0
  -19.6619  -41.7375   -6.9857 C   0  0  0  0  0  0  0  0  0  0  0  0
  -20.3003  -41.2738   -5.9778 O   0  0  0  0  0  0  0  0  0  0  0  0
  -18.5902  -40.9905   -7.4907 N   0  0  0  0  0  0  0  0  0  0  0  0
  -18.3134  -40.7191   -8.8859 C   0  0  1  0  0  0  0  0  0  0  0  0
  -19.4421  -40.2098   -9.6781 C   0  0  0  0  0  0  0  0  0  0  0  0
  -20.3805  -41.1360  -10.3654 C   0  0  0  0  0  0  0  0  0  0  0  0
  -21.7104  -40.7253  -10.0979 C   0  0  0  0  0  0  0  0  0  0  0  0
  -22.8280  -41.3596  -10.5676 C   0  0  0  0  0  0  0  0  0  0  0  0
  -22.5746  -42.4617  -11.3435 C   0  0  0  0  0  0  0  0  0  0  0  0
  -21.2727  -42.9143  -11.6401 C   0  0  0  0  0  0  0  0  0  0  0  0
  -20.1704  -42.2400  -11.1452 C   0  0  0  0  0  0  0  0  0  0  0  0
  -21.3234  -44.0398  -12.4340 O   0  0  0  0  0  0  0  0  0  0  0  0
  -20.8222  -45.3195  -12.4354 C   0  0  0  0  0  0  0  0  0  0  0  0
  -21.3611  -46.1310  -11.3103 C   0  0  0  0  0  0  0  0  0  0  0  0
  -20.3279  -46.9237  -10.5672 C   0  0  0  0  0  0  0  0  0  0  0  0
  -19.6824  -46.1656   -9.4358 C   0  0  0  0  0  0  0  0  0  0  0  0
  -20.5454  -46.0302   -8.2220 C   0  0  0  0  0  0  0  0  0  0  0  0
  -19.7193  -45.4890   -7.1151 C   0  0  0  0  0  0  0  0  0  0  0  0
  -18.9323  -46.3058   -6.5373 O   0  0  0  0  0  0  0  0  0  0  0  0
  -19.7377  -44.1653   -6.6621 N   0  0  0  0  0  0  0  0  0  0  0  0
  -19.3297  -43.8605   -5.3074 C   0  0  0  0  0  0  0  0  0  0  0  0
  -17.0611  -39.8483   -9.0458 C   0  0  2  0  0  0  0  0  0  0  0  0
  -16.1091  -40.5299   -9.7995 O   0  0  0  0  0  0  0  0  0  0  0  0
  -16.4755  -39.5103   -7.6880 C   0  0  0  0  0  0  0  0  0  0  0  0
  -16.3202  -38.0752   -7.6106 N   0  0  0  0  0  0  0  0  0  0  0  0
  -17.5712  -37.3646   -7.7054 C   0  0  0  0  0  0  0  0  0  0  0  0
  -18.7339  -37.9319   -8.4415 C   0  0  0  0  0  0  0  0  0  0  0  0
  -18.7016  -37.8808   -6.9245 C   0  0  0  0  0  0  0  0  0  0  0  0
  -17.4461  -35.8723   -7.8377 C   0  0  0  0  0  0  0  0  0  0  0  0
  -18.5699  -35.1018   -7.9822 C   0  0  0  0  0  0  0  0  0  0  0  0
  -18.4533  -33.7218   -8.1071 C   0  0  0  0  0  0  0  0  0  0  0  0
  -17.2312  -33.0936   -8.0902 C   0  0  0  0  0  0  0  0  0  0  0  0
  -16.1045  -33.8646   -7.9454 C   0  0  0  0  0  0  0  0  0  0  0  0
  -14.3817  -33.0412   -7.9158 Br  0  0  0  0  0  0  0  0  0  0  0  0
  -16.2175  -35.2516   -7.8196 C   0  0  0  0  0  0  0  0  0  0  0  0
  2  1  1  1
  2  3  1  0
  3  4  2  0
  3  5  1  0
  5  6  1  0
  6  7  1  1
  7  8  1  0
  8  9  1  0
  9 10  2  0
 10 11  1  0
 11 12  2  0
 12 13  1  0
 12 14  1  0
 14 15  1  0
 15 16  1  0
 16 17  1  0
 17 18  1  0
 18 19  1  0
 19 20  1  0
 20 21  2  0
 20 22  1  0
 22 23  1  0
  6 24  1  0
 24 25  1  6
 24 26  1  0
 26 27  1  0
 27 28  1  0
 28 29  1  0
 29 30  1  0
 28 31  1  0
 31 32  2  0
 32 33  1  0
 33 34  2  0
 34 35  1  0
 35 36  1  0
 35 37  2  0
 13  8  2  0
 22  2  1  0
 30 28  1  0
 37 31  1  0
M  END
$$$$
