
     RDKit          3D

 37 40  0  0  0  0  0  0  0  0999 V2000
  -19.7167  -42.6557   -6.1753 C   0  0  0  0  0  0  0  0  0  0  0  0
  -18.9230  -41.9841   -7.3022 C   0  0  1  0  0  0  0  0  0  0  0  0
  -17.6751  -41.4345   -6.7191 C   0  0  0  0  0  0  0  0  0  0  0  0
  -17.1195  -42.1718   -5.8325 O   0  0  0  0  0  0  0  0  0  0  0  0
  -17.0661  -40.2153   -7.0418 N   0  0  0  0  0  0  0  0  0  0  0  0
  -17.7310  -38.9396   -7.2077 C   0  0  1  0  0  0  0  0  0  0  0  0
  -18.6485  -38.5475   -6.1281 C   0  0  0  0  0  0  0  0  0  0  0  0
  -20.0807  -38.9461   -6.1520 C   0  0  0  0  0  0  0  0  0  0  0  0
  -20.4364  -39.4598   -4.8798 C   0  0  0  0  0  0  0  0  0  0  0  0
  -21.6791  -39.9286   -4.5518 C   0  0  0  0  0  0  0  0  0  0  0  0
  -22.5974  -39.8703   -5.5687 C   0  0  0  0  0  0  0  0  0  0  0  0
  -22.2972  -39.3701   -6.8523 C   0  0  0  0  0  0  0  0  0  0  0  0
  -21.0265  -38.9037   -7.1393 C   0  0  0  0  0  0  0  0  0  0  0  0
  -23.4071  -39.4367   -7.6667 O   0  0  0  0  0  0  0  0  0  0  0  0
  -23.7473  -39.9364   -8.9009 C   0  0  0  0  0  0  0  0  0  0  0  0
  -23.6712  -41.4221   -8.9417 C   0  0  0  0  0  0  0  0  0  0  0  0
  -22.9764  -41.9743  -10.1501 C   0  0  0  0  0  0  0  0  0  0  0  0
  -21.4851  -42.1111   -9.9806 C   0  0  0  0  0  0  0  0  0  0  0  0
  -21.0718  -43.2714   -9.1325 C   0  0  0  0  0  0  0  0  0  0  0  0
  -19.6017  -43.4360   -9.2441 C   0  0  0  0  0  0  0  0  0  0  0  0
  -19.1671  -43.9829  -10.3083 O   0  0  0  0  0  0  0  0  0  0  0  0
  -18.6663  -43.0411   -8.2814 N   0  0  0  0  0  0  0  0  0  0  0  0
  -17.3728  -43.6878   -8.2241 C   0  0  0  0  0  0  0  0  0  0  0  0
  -16.7279  -37.8281   -7.5401 C   0  0  2  0  0  0  0  0  0  0  0  0
  -17.4125  -36.6768   -7.9203 O   0  0  0  0  0  0  0  0  0  0  0  0
  -15.8133  -38.2621   -8.6698 C   0  0  0  0  0  0  0  0  0  0  0  0
  -15.0375  -39.3920   -8.2106 N   0  0  0  0  0  0  0  0  0  0  0  0
  -13.9897  -39.7689   -9.1265 C   0  0  0  0  0  0  0  0  0  0  0  0
  -12.5898  -39.9746   -8.6644 C   0  0  0  0  0  0  0  0  0  0  0  0
  -13.4819  -41.1434   -9.0426 C   0  0  0  0  0  0  0  0  0  0  0  0
  -14.0866  -39.1496  -10.4930 C   0  0  0  0  0  0  0  0  0  0  0  0
  -14.5496  -39.8905  -11.5485 C   0  0  0  0  0  0  0  0  0  0  0  0
  -14.6366  -39.3178  -12.8126 C   0  0  0  0  0  0  0  0  0  0  0  0
  -14.2687  -38.0141  -13.0441 C   0  0  0  0  0  0  0  0  0  0  0  0
  -13.8047  -37.2708  -11.9873 C   0  0  0  0  0  0  0  0  0  0  0  0
  -13.2802  -35.4542  -12.2552 Br  0  0  0  0  0  0  0  0  0  0  0  0
  -13.7158  -37.8427  -10.7155 C   0  0  0  0  0  0  0  0  0  0  0  0
  2  1  1  1
  2  3  1  0
  3  4  2  0
  3  5  1  0
  5  6  1  0
  6  7  1  1
  7  8  1  0
  8  9  1  0
  9 10  2  0
 10 11  1  0
 11 12  2  0
 12 13  1  0
 12 14  1  0
 14 15  1  0
 15 16  1  0
 16 17  1  0
 17 18  1  0
 18 19  1  0
 19 20  1  0
 20 21  2  0
 20 22  1  0
 22 23  1  0
  6 24  1  0
 24 25  1  6
 24 26  1  0
 26 27  1  0
 27 28  1  0
 28 29  1  0
 29 30  1  0
 28 31  1  0
 31 32  2  0
 32 33  1  0
 33 34  2  0
 34 35  1  0
 35 36  1  0
 35 37  2  0
 13  8  2  0
 22  2  1  0
 30 28  1  0
 37 31  1  0
M  END
$$$$
