
     RDKit          3D

 37 40  0  0  0  0  0  0  0  0999 V2000
  -19.9344  -43.2192   -6.7865 C   0  0  0  0  0  0  0  0  0  0  0  0
  -19.0818  -42.5238   -7.8543 C   0  0  1  0  0  0  0  0  0  0  0  0
  -17.7774  -42.1729   -7.2420 C   0  0  0  0  0  0  0  0  0  0  0  0
  -17.2976  -43.0523   -6.4452 O   0  0  0  0  0  0  0  0  0  0  0  0
  -17.0431  -40.9988   -7.4510 N   0  0  0  0  0  0  0  0  0  0  0  0
  -17.5678  -39.6493   -7.4743 C   0  0  1  0  0  0  0  0  0  0  0  0
  -18.4293  -39.2748   -6.3436 C   0  0  0  0  0  0  0  0  0  0  0  0
  -19.8963  -39.5141   -6.3808 C   0  0  0  0  0  0  0  0  0  0  0  0
  -20.2953  -40.1149   -5.1607 C   0  0  0  0  0  0  0  0  0  0  0  0
  -21.5788  -40.4799   -4.8586 C   0  0  0  0  0  0  0  0  0  0  0  0
  -22.4933  -40.2201   -5.8470 C   0  0  0  0  0  0  0  0  0  0  0  0
  -22.1509  -39.6256   -7.0788 C   0  0  0  0  0  0  0  0  0  0  0  0
  -20.8396  -39.2701   -7.3408 C   0  0  0  0  0  0  0  0  0  0  0  0
  -23.2678  -39.4897   -7.8747 O   0  0  0  0  0  0  0  0  0  0  0  0
  -23.6695  -39.8210   -9.1466 C   0  0  0  0  0  0  0  0  0  0  0  0
  -23.7543  -41.2943   -9.3390 C   0  0  0  0  0  0  0  0  0  0  0  0
  -23.1326  -41.7902  -10.6099 C   0  0  0  0  0  0  0  0  0  0  0  0
  -21.6634  -42.1017  -10.4831 C   0  0  0  0  0  0  0  0  0  0  0  0
  -21.3710  -43.3803   -9.7648 C   0  0  0  0  0  0  0  0  0  0  0  0
  -19.9281  -43.6881   -9.9201 C   0  0  0  0  0  0  0  0  0  0  0  0
  -19.5633  -44.1659  -11.0422 O   0  0  0  0  0  0  0  0  0  0  0  0
  -18.9482  -43.4960   -8.9401 N   0  0  0  0  0  0  0  0  0  0  0  0
  -17.7315  -44.2790   -8.9729 C   0  0  0  0  0  0  0  0  0  0  0  0
  -16.4534  -38.6227   -7.7113 C   0  0  2  0  0  0  0  0  0  0  0  0
  -16.9950  -37.4584   -8.2499 O   0  0  0  0  0  0  0  0  0  0  0  0
  -15.4157  -39.1801   -8.6670 C   0  0  0  0  0  0  0  0  0  0  0  0
  -14.1197  -38.6849   -8.2614 N   0  0  0  0  0  0  0  0  0  0  0  0
  -13.1322  -38.7586   -9.3094 C   0  0  0  0  0  0  0  0  0  0  0  0
  -11.8344  -39.4587   -9.1071 C   0  0  0  0  0  0  0  0  0  0  0  0
  -12.9362  -40.0584   -9.9621 C   0  0  0  0  0  0  0  0  0  0  0  0
  -13.0246  -37.5298  -10.1689 C   0  0  0  0  0  0  0  0  0  0  0  0
  -12.1364  -36.5400   -9.8392 C   0  0  0  0  0  0  0  0  0  0  0  0
  -12.0392  -35.4027  -10.6333 C   0  0  0  0  0  0  0  0  0  0  0  0
  -12.8148  -35.2340  -11.7550 C   0  0  0  0  0  0  0  0  0  0  0  0
  -13.7050  -36.2251  -12.0865 C   0  0  0  0  0  0  0  0  0  0  0  0
  -14.8066  -36.0400  -13.6354 Br  0  0  0  0  0  0  0  0  0  0  0  0
  -13.8057  -37.3695  -11.2910 C   0  0  0  0  0  0  0  0  0  0  0  0
  2  1  1  1
  2  3  1  0
  3  4  2  0
  3  5  1  0
  5  6  1  0
  6  7  1  1
  7  8  1  0
  8  9  1  0
  9 10  2  0
 10 11  1  0
 11 12  2  0
 12 13  1  0
 12 14  1  0
 14 15  1  0
 15 16  1  0
 16 17  1  0
 17 18  1  0
 18 19  1  0
 19 20  1  0
 20 21  2  0
 20 22  1  0
 22 23  1  0
  6 24  1  0
 24 25  1  6
 24 26  1  0
 26 27  1  0
 27 28  1  0
 28 29  1  0
 29 30  1  0
 28 31  1  0
 31 32  2  0
 32 33  1  0
 33 34  2  0
 34 35  1  0
 35 36  1  0
 35 37  2  0
 13  8  2  0
 22  2  1  0
 30 28  1  0
 37 31  1  0
M  END
$$$$
