
     RDKit          3D

 42 46  0  0  0  0  0  0  0  0999 V2000
  -23.8998  -38.5858   -6.4592 C   0  0  0  0  0  0  0  0  0  0  0  0
  -22.8107  -39.6493   -6.6288 C   0  0  0  0  0  0  0  0  0  0  0  0
  -23.4992  -40.9761   -6.7844 C   0  0  0  0  0  0  0  0  0  0  0  0
  -21.9402  -39.6175   -5.4137 C   0  0  0  0  0  0  0  0  0  0  0  0
  -20.8469  -38.7688   -5.3351 C   0  0  0  0  0  0  0  0  0  0  0  0
  -20.0310  -38.7308   -4.2248 C   0  0  0  0  0  0  0  0  0  0  0  0
  -18.8807  -37.7934   -4.2194 C   0  0  0  0  0  0  0  0  0  0  0  0
  -17.6831  -38.5371   -4.3668 N   0  0  0  0  0  0  0  0  0  0  0  0
  -17.6666  -39.5962   -5.2790 C   0  0  0  0  0  0  0  0  0  0  0  0
  -17.5764  -39.2861   -6.7361 C   0  0  1  0  0  0  0  0  0  0  0  0
  -16.2910  -39.7460   -7.1336 O   0  0  0  0  0  0  0  0  0  0  0  0
  -18.6224  -40.0789   -7.5405 C   0  0  2  0  0  0  0  0  0  0  0  0
  -19.3080  -39.2724   -8.5719 C   0  0  0  0  0  0  0  0  0  0  0  0
  -18.9051  -39.3337  -10.0037 C   0  0  0  0  0  0  0  0  0  0  0  0
  -18.6579  -40.3936  -10.8254 C   0  0  0  0  0  0  0  0  0  0  0  0
  -18.3450  -40.1605  -12.1417 C   0  0  0  0  0  0  0  0  0  0  0  0
  -18.0589  -41.1271  -13.2496 C   0  0  0  0  0  0  0  0  0  0  0  0
  -19.2780  -41.7536  -13.8751 C   0  0  0  0  0  0  0  0  0  0  0  0
  -19.8490  -42.9148  -13.1530 C   0  0  0  0  0  0  0  0  0  0  0  0
  -21.1729  -42.7292  -12.5107 C   0  0  0  0  0  0  0  0  0  0  0  0
  -21.4485  -43.5258  -11.3915 O   0  0  0  0  0  0  0  0  0  0  0  0
  -20.9558  -43.5476  -10.0927 C   0  0  0  0  0  0  0  0  0  0  0  0
  -20.9247  -42.5324   -9.1523 C   0  0  0  0  0  0  0  0  0  0  0  0
  -20.3658  -42.8176   -7.9296 C   0  0  0  0  0  0  0  0  0  0  0  0
  -19.8549  -44.1184   -7.6730 C   0  0  0  0  0  0  0  0  0  0  0  0
  -19.8771  -45.1383   -8.5844 C   0  0  0  0  0  0  0  0  0  0  0  0
  -20.4384  -44.8223   -9.7979 C   0  0  0  0  0  0  0  0  0  0  0  0
  -19.3518  -46.4112   -8.2880 N   0  0  0  0  0  0  0  0  0  0  0  0
  -18.2682  -47.0844   -8.9634 C   0  0  0  0  0  0  0  0  0  0  0  0
  -18.4402  -48.5578   -8.6755 C   0  0  0  0  0  0  0  0  0  0  0  0
  -19.6188  -48.7027   -7.7397 C   0  0  0  0  0  0  0  0  0  0  0  0
  -19.7834  -47.2979   -7.2641 C   0  0  0  0  0  0  0  0  0  0  0  0
  -20.2387  -47.0210   -6.1255 O   0  0  0  0  0  0  0  0  0  0  0  0
  -20.1179  -41.9717   -6.7460 C   0  0  0  0  0  0  0  0  0  0  0  0
  -20.4225  -42.5062   -5.6037 O   0  0  0  0  0  0  0  0  0  0  0  0
  -19.5961  -40.6621   -6.6331 N   0  0  0  0  0  0  0  0  0  0  0  0
  -18.2831  -38.8337  -12.6197 C   0  0  0  0  0  0  0  0  0  0  0  0
  -18.5200  -37.7328  -11.8414 C   0  0  0  0  0  0  0  0  0  0  0  0
  -18.8276  -38.0259  -10.5416 C   0  0  0  0  0  0  0  0  0  0  0  0
  -20.3495  -39.5597   -3.2174 N   0  0  0  0  0  0  0  0  0  0  0  0
  -21.4014  -40.3967   -3.2556 C   0  0  0  0  0  0  0  0  0  0  0  0
  -22.2341  -40.4541   -4.3575 C   0  0  0  0  0  0  0  0  0  0  0  0
  1  2  1  0
  2  3  1  0
  2  4  1  0
  4  5  2  0
  5  6  1  0
  6  7  1  0
  7  8  1  0
  8  9  1  0
  9 10  1  0
 10 11  1  6
 10 12  1  0
 12 13  1  6
 13 14  1  0
 14 15  1  0
 15 16  2  0
 16 17  1  0
 17 18  1  0
 18 19  1  0
 19 20  1  0
 20 21  1  0
 21 22  1  0
 22 23  1  0
 23 24  2  0
 24 25  1  0
 25 26  2  0
 26 27  1  0
 26 28  1  0
 28 29  1  0
 29 30  1  0
 30 31  1  0
 31 32  1  0
 32 33  2  0
 24 34  1  0
 34 35  2  0
 34 36  1  0
 16 37  1  0
 37 38  2  0
 38 39  1  0
  6 40  2  0
 40 41  1  0
 41 42  2  0
 27 22  2  0
 32 28  1  0
 36 12  1  0
 39 14  2  0
 42  4  1  0
M  END
$$$$
