
     RDKit          3D

 42 46  0  0  0  0  0  0  0  0999 V2000
  -10.6184  -35.4791  -11.0794 C   0  0  0  0  0  0  0  0  0  0  0  0
  -11.9663  -35.8568  -11.7013 C   0  0  0  0  0  0  0  0  0  0  0  0
  -13.0103  -34.9702  -11.0827 C   0  0  0  0  0  0  0  0  0  0  0  0
  -12.2226  -37.3002  -11.4079 C   0  0  0  0  0  0  0  0  0  0  0  0
  -12.8218  -37.6970  -10.2224 C   0  0  0  0  0  0  0  0  0  0  0  0
  -13.0603  -39.0236   -9.9338 C   0  0  0  0  0  0  0  0  0  0  0  0
  -13.7067  -39.3652   -8.6425 C   0  0  0  0  0  0  0  0  0  0  0  0
  -14.8196  -38.5096   -8.4468 N   0  0  0  0  0  0  0  0  0  0  0  0
  -16.0762  -38.9448   -8.8777 C   0  0  0  0  0  0  0  0  0  0  0  0
  -17.2930  -38.3913   -8.2139 C   0  0  1  0  0  0  0  0  0  0  0  0
  -18.1584  -38.0185   -9.2787 O   0  0  0  0  0  0  0  0  0  0  0  0
  -18.0146  -39.4691   -7.3848 C   0  0  2  0  0  0  0  0  0  0  0  0
  -19.0466  -38.9230   -6.4787 C   0  0  0  0  0  0  0  0  0  0  0  0
  -20.4915  -38.9531   -6.8359 C   0  0  0  0  0  0  0  0  0  0  0  0
  -21.2782  -39.9545   -7.3236 C   0  0  0  0  0  0  0  0  0  0  0  0
  -22.6161  -39.7179   -7.5210 C   0  0  0  0  0  0  0  0  0  0  0  0
  -23.6943  -40.6343   -8.0123 C   0  0  0  0  0  0  0  0  0  0  0  0
  -24.2364  -41.5871   -6.9787 C   0  0  0  0  0  0  0  0  0  0  0  0
  -23.4407  -42.8169   -6.7546 C   0  0  0  0  0  0  0  0  0  0  0  0
  -22.7468  -42.9469   -5.4503 C   0  0  0  0  0  0  0  0  0  0  0  0
  -21.5837  -43.7277   -5.4293 O   0  0  0  0  0  0  0  0  0  0  0  0
  -20.3089  -43.5528   -5.9535 C   0  0  0  0  0  0  0  0  0  0  0  0
  -19.4146  -42.5163   -5.7498 C   0  0  0  0  0  0  0  0  0  0  0  0
  -18.2078  -42.5824   -6.4041 C   0  0  0  0  0  0  0  0  0  0  0  0
  -17.9203  -43.6912   -7.2448 C   0  0  0  0  0  0  0  0  0  0  0  0
  -18.7859  -44.7285   -7.4592 C   0  0  0  0  0  0  0  0  0  0  0  0
  -19.9847  -44.6329   -6.7949 C   0  0  0  0  0  0  0  0  0  0  0  0
  -18.4605  -45.8045   -8.3078 N   0  0  0  0  0  0  0  0  0  0  0  0
  -18.0891  -45.7329   -9.7009 C   0  0  0  0  0  0  0  0  0  0  0  0
  -18.3756  -47.0963  -10.2861 C   0  0  0  0  0  0  0  0  0  0  0  0
  -18.8509  -47.9835   -9.1579 C   0  0  0  0  0  0  0  0  0  0  0  0
  -18.4345  -47.1848   -7.9683 C   0  0  0  0  0  0  0  0  0  0  0  0
  -18.1247  -47.7185   -6.8731 O   0  0  0  0  0  0  0  0  0  0  0  0
  -17.0735  -41.6400   -6.4620 C   0  0  0  0  0  0  0  0  0  0  0  0
  -15.8969  -42.1744   -6.3454 O   0  0  0  0  0  0  0  0  0  0  0  0
  -17.0399  -40.2360   -6.6276 N   0  0  0  0  0  0  0  0  0  0  0  0
  -23.1519  -38.4474   -7.2187 C   0  0  0  0  0  0  0  0  0  0  0  0
  -22.4107  -37.4060   -6.7289 C   0  0  0  0  0  0  0  0  0  0  0  0
  -21.0870  -37.7000   -6.5517 C   0  0  0  0  0  0  0  0  0  0  0  0
  -12.6828  -39.9171  -10.8624 N   0  0  0  0  0  0  0  0  0  0  0  0
  -12.0996  -39.5718  -12.0240 C   0  0  0  0  0  0  0  0  0  0  0  0
  -11.8492  -38.2488  -12.3366 C   0  0  0  0  0  0  0  0  0  0  0  0
  1  2  1  0
  2  3  1  0
  2  4  1  0
  4  5  2  0
  5  6  1  0
  6  7  1  0
  7  8  1  0
  8  9  1  0
  9 10  1  0
 10 11  1  6
 10 12  1  0
 12 13  1  1
 13 14  1  0
 14 15  1  0
 15 16  2  0
 16 17  1  0
 17 18  1  0
 18 19  1  0
 19 20  1  0
 20 21  1  0
 21 22  1  0
 22 23  1  0
 23 24  2  0
 24 25  1  0
 25 26  2  0
 26 27  1  0
 26 28  1  0
 28 29  1  0
 29 30  1  0
 30 31  1  0
 31 32  1  0
 32 33  2  0
 24 34  1  0
 34 35  2  0
 34 36  1  0
 16 37  1  0
 37 38  2  0
 38 39  1  0
  6 40  2  0
 40 41  1  0
 41 42  2  0
 27 22  2  0
 32 28  1  0
 36 12  1  0
 39 14  2  0
 42  4  1  0
M  END
$$$$
