
     RDKit          3D

 42 46  0  0  0  0  0  0  0  0999 V2000
  -13.1027  -36.5554  -13.3421 C   0  0  0  0  0  0  0  0  0  0  0  0
  -13.1626  -36.9204  -11.8557 C   0  0  0  0  0  0  0  0  0  0  0  0
  -11.8258  -36.5841  -11.2567 C   0  0  0  0  0  0  0  0  0  0  0  0
  -13.4639  -38.3809  -11.7501 C   0  0  0  0  0  0  0  0  0  0  0  0
  -13.6935  -38.9802  -10.5212 C   0  0  0  0  0  0  0  0  0  0  0  0
  -13.9672  -40.3261  -10.4055 C   0  0  0  0  0  0  0  0  0  0  0  0
  -14.2017  -40.8904   -9.0533 C   0  0  0  0  0  0  0  0  0  0  0  0
  -15.2836  -40.2010   -8.4506 N   0  0  0  0  0  0  0  0  0  0  0  0
  -15.8963  -39.1693   -9.1677 C   0  0  0  0  0  0  0  0  0  0  0  0
  -17.1098  -38.5186   -8.5922 C   0  0  1  0  0  0  0  0  0  0  0  0
  -17.9410  -38.2314   -9.7095 O   0  0  0  0  0  0  0  0  0  0  0  0
  -17.8806  -39.4871   -7.6769 C   0  0  2  0  0  0  0  0  0  0  0  0
  -18.8319  -38.8104   -6.7705 C   0  0  0  0  0  0  0  0  0  0  0  0
  -20.2873  -38.7456   -7.0765 C   0  0  0  0  0  0  0  0  0  0  0  0
  -21.1672  -39.7072   -7.4773 C   0  0  0  0  0  0  0  0  0  0  0  0
  -22.4893  -39.3765   -7.6432 C   0  0  0  0  0  0  0  0  0  0  0  0
  -23.6532  -40.2306   -8.0429 C   0  0  0  0  0  0  0  0  0  0  0  0
  -24.2276  -41.0774   -6.9370 C   0  0  0  0  0  0  0  0  0  0  0  0
  -23.5215  -42.3519   -6.6673 C   0  0  0  0  0  0  0  0  0  0  0  0
  -22.7905  -42.4628   -5.3816 C   0  0  0  0  0  0  0  0  0  0  0  0
  -21.6913  -43.3312   -5.3535 O   0  0  0  0  0  0  0  0  0  0  0  0
  -20.4278  -43.2881   -5.9297 C   0  0  0  0  0  0  0  0  0  0  0  0
  -19.4488  -42.3161   -5.8181 C   0  0  0  0  0  0  0  0  0  0  0  0
  -18.2766  -42.5147   -6.5075 C   0  0  0  0  0  0  0  0  0  0  0  0
  -18.1081  -43.6886   -7.2901 C   0  0  0  0  0  0  0  0  0  0  0  0
  -19.0590  -44.6642   -7.4135 C   0  0  0  0  0  0  0  0  0  0  0  0
  -20.2206  -44.4363   -6.7160 C   0  0  0  0  0  0  0  0  0  0  0  0
  -18.8505  -45.8089   -8.2073 N   0  0  0  0  0  0  0  0  0  0  0  0
  -19.0563  -45.9302   -9.6309 C   0  0  0  0  0  0  0  0  0  0  0  0
  -19.2368  -47.4045   -9.9085 C   0  0  0  0  0  0  0  0  0  0  0  0
  -19.0462  -48.1391   -8.6009 C   0  0  0  0  0  0  0  0  0  0  0  0
  -18.3979  -47.0834   -7.7693 C   0  0  0  0  0  0  0  0  0  0  0  0
  -17.5901  -47.3550   -6.8451 O   0  0  0  0  0  0  0  0  0  0  0  0
  -17.0758  -41.6704   -6.6592 C   0  0  0  0  0  0  0  0  0  0  0  0
  -15.9405  -42.2891   -6.5508 O   0  0  0  0  0  0  0  0  0  0  0  0
  -16.9399  -40.2851   -6.9088 N   0  0  0  0  0  0  0  0  0  0  0  0
  -22.9132  -38.0523   -7.3989 C   0  0  0  0  0  0  0  0  0  0  0  0
  -22.0755  -37.0472   -6.9969 C   0  0  0  0  0  0  0  0  0  0  0  0
  -20.7727  -37.4351   -6.8473 C   0  0  0  0  0  0  0  0  0  0  0  0
  -14.0016  -41.0318  -11.5475 N   0  0  0  0  0  0  0  0  0  0  0  0
  -13.7849  -40.4872  -12.7578 C   0  0  0  0  0  0  0  0  0  0  0  0
  -13.5081  -39.1404  -12.9003 C   0  0  0  0  0  0  0  0  0  0  0  0
  1  2  1  0
  2  3  1  0
  2  4  1  0
  4  5  2  0
  5  6  1  0
  6  7  1  0
  7  8  1  0
  8  9  1  0
  9 10  1  0
 10 11  1  6
 10 12  1  0
 12 13  1  1
 13 14  1  0
 14 15  1  0
 15 16  2  0
 16 17  1  0
 17 18  1  0
 18 19  1  0
 19 20  1  0
 20 21  1  0
 21 22  1  0
 22 23  1  0
 23 24  2  0
 24 25  1  0
 25 26  2  0
 26 27  1  0
 26 28  1  0
 28 29  1  0
 29 30  1  0
 30 31  1  0
 31 32  1  0
 32 33  2  0
 24 34  1  0
 34 35  2  0
 34 36  1  0
 16 37  1  0
 37 38  2  0
 38 39  1  0
  6 40  2  0
 40 41  1  0
 41 42  2  0
 27 22  2  0
 32 28  1  0
 36 12  1  0
 39 14  2  0
 42  4  1  0
M  END
$$$$
