
     RDKit          3D

 42 46  0  0  0  0  0  0  0  0999 V2000
  -12.9320  -35.4035  -10.4650 C   0  0  0  0  0  0  0  0  0  0  0  0
  -11.8478  -36.4507  -10.7371 C   0  0  0  0  0  0  0  0  0  0  0  0
  -11.6577  -36.5235  -12.2262 C   0  0  0  0  0  0  0  0  0  0  0  0
  -12.3137  -37.7553  -10.1750 C   0  0  0  0  0  0  0  0  0  0  0  0
  -13.2733  -38.5161  -10.8249 C   0  0  0  0  0  0  0  0  0  0  0  0
  -13.7179  -39.7182  -10.3178 C   0  0  0  0  0  0  0  0  0  0  0  0
  -14.7473  -40.4723  -11.0752 C   0  0  0  0  0  0  0  0  0  0  0  0
  -15.9019  -39.6613  -11.2107 N   0  0  0  0  0  0  0  0  0  0  0  0
  -17.1312  -40.1804  -10.7941 C   0  0  0  0  0  0  0  0  0  0  0  0
  -18.0215  -39.3275   -9.9530 C   0  0  1  0  0  0  0  0  0  0  0  0
  -19.2079  -39.1626  -10.7192 O   0  0  0  0  0  0  0  0  0  0  0  0
  -18.4083  -40.0441   -8.6467 C   0  0  2  0  0  0  0  0  0  0  0  0
  -18.9446  -39.1351   -7.6121 C   0  0  0  0  0  0  0  0  0  0  0  0
  -20.4083  -39.0012   -7.3759 C   0  0  0  0  0  0  0  0  0  0  0  0
  -21.3866  -39.9398   -7.2292 C   0  0  0  0  0  0  0  0  0  0  0  0
  -22.6709  -39.5317   -6.9670 C   0  0  0  0  0  0  0  0  0  0  0  0
  -23.9109  -40.3402   -6.7378 C   0  0  0  0  0  0  0  0  0  0  0  0
  -24.0429  -40.9202   -5.3535 C   0  0  0  0  0  0  0  0  0  0  0  0
  -23.3038  -42.1810   -5.1091 C   0  0  0  0  0  0  0  0  0  0  0  0
  -22.1480  -42.1202   -4.1817 C   0  0  0  0  0  0  0  0  0  0  0  0
  -21.1289  -43.0608   -4.3810 O   0  0  0  0  0  0  0  0  0  0  0  0
  -20.1705  -43.2319   -5.3722 C   0  0  0  0  0  0  0  0  0  0  0  0
  -19.2078  -42.3440   -5.8201 C   0  0  0  0  0  0  0  0  0  0  0  0
  -18.3795  -42.7646   -6.8329 C   0  0  0  0  0  0  0  0  0  0  0  0
  -18.5300  -44.0707   -7.3716 C   0  0  0  0  0  0  0  0  0  0  0  0
  -19.4710  -44.9667   -6.9438 C   0  0  0  0  0  0  0  0  0  0  0  0
  -20.2860  -44.5169   -5.9334 C   0  0  0  0  0  0  0  0  0  0  0  0
  -19.5881  -46.2499   -7.5130 N   0  0  0  0  0  0  0  0  0  0  0  0
  -20.2977  -46.6058   -8.7186 C   0  0  0  0  0  0  0  0  0  0  0  0
  -20.5975  -48.0831   -8.6129 C   0  0  0  0  0  0  0  0  0  0  0  0
  -19.9620  -48.5848   -7.3361 C   0  0  0  0  0  0  0  0  0  0  0  0
  -19.0345  -47.4608   -7.0149 C   0  0  0  0  0  0  0  0  0  0  0  0
  -17.9530  -47.6350   -6.3983 O   0  0  0  0  0  0  0  0  0  0  0  0
  -17.3108  -42.0685   -7.5754 C   0  0  0  0  0  0  0  0  0  0  0  0
  -16.2250  -42.7531   -7.7646 O   0  0  0  0  0  0  0  0  0  0  0  0
  -17.2597  -40.7682   -8.1290 N   0  0  0  0  0  0  0  0  0  0  0  0
  -22.9561  -38.1536   -6.8558 C   0  0  0  0  0  0  0  0  0  0  0  0
  -22.0158  -37.1685   -6.9947 C   0  0  0  0  0  0  0  0  0  0  0  0
  -20.7563  -37.6340   -7.2534 C   0  0  0  0  0  0  0  0  0  0  0  0
  -13.1724  -40.1188   -9.1580 N   0  0  0  0  0  0  0  0  0  0  0  0
  -12.2395  -39.4098   -8.4980 C   0  0  0  0  0  0  0  0  0  0  0  0
  -11.7777  -38.2014   -8.9853 C   0  0  0  0  0  0  0  0  0  0  0  0
  1  2  1  0
  2  3  1  0
  2  4  1  0
  4  5  2  0
  5  6  1  0
  6  7  1  0
  7  8  1  0
  8  9  1  0
  9 10  1  0
 10 11  1  6
 10 12  1  0
 12 13  1  1
 13 14  1  0
 14 15  1  0
 15 16  2  0
 16 17  1  0
 17 18  1  0
 18 19  1  0
 19 20  1  0
 20 21  1  0
 21 22  1  0
 22 23  1  0
 23 24  2  0
 24 25  1  0
 25 26  2  0
 26 27  1  0
 26 28  1  0
 28 29  1  0
 29 30  1  0
 30 31  1  0
 31 32  1  0
 32 33  2  0
 24 34  1  0
 34 35  2  0
 34 36  1  0
 16 37  1  0
 37 38  2  0
 38 39  1  0
  6 40  2  0
 40 41  1  0
 41 42  2  0
 27 22  2  0
 32 28  1  0
 36 12  1  0
 39 14  2  0
 42  4  1  0
M  END
$$$$
