
     RDKit          3D

 42 46  0  0  0  0  0  0  0  0999 V2000
  -13.2759  -35.1289  -12.7949 C   0  0  0  0  0  0  0  0  0  0  0  0
  -14.7105  -35.5790  -12.5028 C   0  0  0  0  0  0  0  0  0  0  0  0
  -15.2091  -34.7641  -11.3425 C   0  0  0  0  0  0  0  0  0  0  0  0
  -14.6806  -37.0386  -12.1807 C   0  0  0  0  0  0  0  0  0  0  0  0
  -14.2997  -37.4900  -10.9264 C   0  0  0  0  0  0  0  0  0  0  0  0
  -14.2613  -38.8320  -10.6145 C   0  0  0  0  0  0  0  0  0  0  0  0
  -13.8428  -39.2329   -9.2484 C   0  0  0  0  0  0  0  0  0  0  0  0
  -14.5777  -38.4744   -8.3032 N   0  0  0  0  0  0  0  0  0  0  0  0
  -15.3680  -39.1567   -7.3738 C   0  0  0  0  0  0  0  0  0  0  0  0
  -16.7908  -38.7408   -7.2001 C   0  0  1  0  0  0  0  0  0  0  0  0
  -17.2543  -38.4499   -8.5125 O   0  0  0  0  0  0  0  0  0  0  0  0
  -17.6464  -39.8967   -6.6511 C   0  0  2  0  0  0  0  0  0  0  0  0
  -18.7812  -39.4462   -5.8183 C   0  0  0  0  0  0  0  0  0  0  0  0
  -20.1626  -39.3579   -6.3662 C   0  0  0  0  0  0  0  0  0  0  0  0
  -20.8974  -40.2390   -7.1033 C   0  0  0  0  0  0  0  0  0  0  0  0
  -22.1887  -39.9159   -7.4394 C   0  0  0  0  0  0  0  0  0  0  0  0
  -23.2095  -40.6994   -8.2060 C   0  0  0  0  0  0  0  0  0  0  0  0
  -23.9129  -41.7705   -7.4135 C   0  0  0  0  0  0  0  0  0  0  0  0
  -23.1858  -43.0544   -7.2768 C   0  0  0  0  0  0  0  0  0  0  0  0
  -22.6837  -43.4085   -5.9269 C   0  0  0  0  0  0  0  0  0  0  0  0
  -21.5538  -44.2351   -5.8707 O   0  0  0  0  0  0  0  0  0  0  0  0
  -20.2147  -44.0413   -6.1861 C   0  0  0  0  0  0  0  0  0  0  0  0
  -19.3329  -43.0878   -5.7073 C   0  0  0  0  0  0  0  0  0  0  0  0
  -18.0487  -43.1096   -6.1962 C   0  0  0  0  0  0  0  0  0  0  0  0
  -17.6734  -44.0923   -7.1514 C   0  0  0  0  0  0  0  0  0  0  0  0
  -18.5253  -45.0462   -7.6370 C   0  0  0  0  0  0  0  0  0  0  0  0
  -19.8023  -44.9971   -7.1326 C   0  0  0  0  0  0  0  0  0  0  0  0
  -18.1107  -45.9971   -8.5898 N   0  0  0  0  0  0  0  0  0  0  0  0
  -17.5114  -45.7355   -9.8767 C   0  0  0  0  0  0  0  0  0  0  0  0
  -17.7556  -46.9683  -10.7159 C   0  0  0  0  0  0  0  0  0  0  0  0
  -18.4485  -47.9852   -9.8374 C   0  0  0  0  0  0  0  0  0  0  0  0
  -18.2004  -47.4118   -8.4823 C   0  0  0  0  0  0  0  0  0  0  0  0
  -18.0991  -48.1294   -7.4551 O   0  0  0  0  0  0  0  0  0  0  0  0
  -16.8951  -42.2210   -5.9558 C   0  0  0  0  0  0  0  0  0  0  0  0
  -15.7594  -42.8190   -5.7663 O   0  0  0  0  0  0  0  0  0  0  0  0
  -16.8052  -40.8109   -5.8973 N   0  0  0  0  0  0  0  0  0  0  0  0
  -22.7309  -38.6819   -7.0197 C   0  0  0  0  0  0  0  0  0  0  0  0
  -22.0405  -37.7596   -6.2805 C   0  0  0  0  0  0  0  0  0  0  0  0
  -20.7617  -38.1358   -5.9749 C   0  0  0  0  0  0  0  0  0  0  0  0
  -14.6136  -39.6851  -11.5899 N   0  0  0  0  0  0  0  0  0  0  0  0
  -14.9892  -39.2866  -12.8181 C   0  0  0  0  0  0  0  0  0  0  0  0
  -15.0353  -37.9469  -13.1558 C   0  0  0  0  0  0  0  0  0  0  0  0
  1  2  1  0
  2  3  1  0
  2  4  1  0
  4  5  2  0
  5  6  1  0
  6  7  1  0
  7  8  1  0
  8  9  1  0
  9 10  1  0
 10 11  1  6
 10 12  1  0
 12 13  1  1
 13 14  1  0
 14 15  1  0
 15 16  2  0
 16 17  1  0
 17 18  1  0
 18 19  1  0
 19 20  1  0
 20 21  1  0
 21 22  1  0
 22 23  1  0
 23 24  2  0
 24 25  1  0
 25 26  2  0
 26 27  1  0
 26 28  1  0
 28 29  1  0
 29 30  1  0
 30 31  1  0
 31 32  1  0
 32 33  2  0
 24 34  1  0
 34 35  2  0
 34 36  1  0
 16 37  1  0
 37 38  2  0
 38 39  1  0
  6 40  2  0
 40 41  1  0
 41 42  2  0
 27 22  2  0
 32 28  1  0
 36 12  1  0
 39 14  2  0
 42  4  1  0
M  END
$$$$
