
     RDKit          3D

 42 46  0  0  0  0  0  0  0  0999 V2000
  -11.9130  -39.1998  -14.5265 C   0  0  0  0  0  0  0  0  0  0  0  0
  -12.2971  -38.2269  -13.4076 C   0  0  0  0  0  0  0  0  0  0  0  0
  -11.3441  -37.0667  -13.4748 C   0  0  0  0  0  0  0  0  0  0  0  0
  -12.1912  -38.9544  -12.1058 C   0  0  0  0  0  0  0  0  0  0  0  0
  -13.3181  -39.4384  -11.4594 C   0  0  0  0  0  0  0  0  0  0  0  0
  -13.2388  -40.1063  -10.2563 C   0  0  0  0  0  0  0  0  0  0  0  0
  -14.4925  -40.5935   -9.6294 C   0  0  0  0  0  0  0  0  0  0  0  0
  -15.3084  -39.4791   -9.3110 N   0  0  0  0  0  0  0  0  0  0  0  0
  -16.6774  -39.5589   -9.5820 C   0  0  0  0  0  0  0  0  0  0  0  0
  -17.6290  -38.8405   -8.6843 C   0  0  1  0  0  0  0  0  0  0  0  0
  -18.6152  -38.2946   -9.5510 O   0  0  0  0  0  0  0  0  0  0  0  0
  -18.3393  -39.8169   -7.7293 C   0  0  2  0  0  0  0  0  0  0  0  0
  -19.2933  -39.1567   -6.8137 C   0  0  0  0  0  0  0  0  0  0  0  0
  -20.7572  -39.1537   -7.0839 C   0  0  0  0  0  0  0  0  0  0  0  0
  -21.6092  -40.1566   -7.4417 C   0  0  0  0  0  0  0  0  0  0  0  0
  -22.9467  -39.8798   -7.5810 C   0  0  0  0  0  0  0  0  0  0  0  0
  -24.0865  -40.7859   -7.9327 C   0  0  0  0  0  0  0  0  0  0  0  0
  -24.6006  -41.6291   -6.7949 C   0  0  0  0  0  0  0  0  0  0  0  0
  -23.8398  -42.8697   -6.5161 C   0  0  0  0  0  0  0  0  0  0  0  0
  -23.0738  -42.9244   -5.2474 C   0  0  0  0  0  0  0  0  0  0  0  0
  -21.9418  -43.7497   -5.2287 O   0  0  0  0  0  0  0  0  0  0  0  0
  -20.6954  -43.6718   -5.8376 C   0  0  0  0  0  0  0  0  0  0  0  0
  -19.7519  -42.6612   -5.7715 C   0  0  0  0  0  0  0  0  0  0  0  0
  -18.5902  -42.8307   -6.4861 C   0  0  0  0  0  0  0  0  0  0  0  0
  -18.3961  -44.0144   -7.2477 C   0  0  0  0  0  0  0  0  0  0  0  0
  -19.3117  -45.0277   -7.3261 C   0  0  0  0  0  0  0  0  0  0  0  0
  -20.4636  -44.8284   -6.6044 C   0  0  0  0  0  0  0  0  0  0  0  0
  -19.0790  -46.1811   -8.1004 N   0  0  0  0  0  0  0  0  0  0  0  0
  -19.3209  -46.3437   -9.5142 C   0  0  0  0  0  0  0  0  0  0  0  0
  -19.4480  -47.8303   -9.7537 C   0  0  0  0  0  0  0  0  0  0  0  0
  -19.1891  -48.5259   -8.4366 C   0  0  0  0  0  0  0  0  0  0  0  0
  -18.5612  -47.4255   -7.6482 C   0  0  0  0  0  0  0  0  0  0  0  0
  -17.7163  -47.6424   -6.7430 O   0  0  0  0  0  0  0  0  0  0  0  0
  -17.4267  -41.9451   -6.6862 C   0  0  0  0  0  0  0  0  0  0  0  0
  -16.2663  -42.5180   -6.5935 O   0  0  0  0  0  0  0  0  0  0  0  0
  -17.3502  -40.5615   -6.9686 N   0  0  0  0  0  0  0  0  0  0  0  0
  -23.4150  -38.5676   -7.3542 C   0  0  0  0  0  0  0  0  0  0  0  0
  -22.6067  -37.5228   -6.9950 C   0  0  0  0  0  0  0  0  0  0  0  0
  -21.2867  -37.8578   -6.8703 C   0  0  0  0  0  0  0  0  0  0  0  0
  -12.0100  -40.2669   -9.7389 N   0  0  0  0  0  0  0  0  0  0  0  0
  -10.8936  -39.8127  -10.3353 C   0  0  0  0  0  0  0  0  0  0  0  0
  -10.9466  -39.1396  -11.5415 C   0  0  0  0  0  0  0  0  0  0  0  0
  1  2  1  0
  2  3  1  0
  2  4  1  0
  4  5  2  0
  5  6  1  0
  6  7  1  0
  7  8  1  0
  8  9  1  0
  9 10  1  0
 10 11  1  6
 10 12  1  0
 12 13  1  1
 13 14  1  0
 14 15  1  0
 15 16  2  0
 16 17  1  0
 17 18  1  0
 18 19  1  0
 19 20  1  0
 20 21  1  0
 21 22  1  0
 22 23  1  0
 23 24  2  0
 24 25  1  0
 25 26  2  0
 26 27  1  0
 26 28  1  0
 28 29  1  0
 29 30  1  0
 30 31  1  0
 31 32  1  0
 32 33  2  0
 24 34  1  0
 34 35  2  0
 34 36  1  0
 16 37  1  0
 37 38  2  0
 38 39  1  0
  6 40  2  0
 40 41  1  0
 41 42  2  0
 27 22  2  0
 32 28  1  0
 36 12  1  0
 39 14  2  0
 42  4  1  0
M  END
$$$$
