
     RDKit          3D

 42 46  0  0  0  0  0  0  0  0999 V2000
  -12.1804  -36.4629  -14.2849 C   0  0  0  0  0  0  0  0  0  0  0  0
  -11.8392  -37.7373  -13.5067 C   0  0  0  0  0  0  0  0  0  0  0  0
  -12.5826  -38.8715  -14.1546 C   0  0  0  0  0  0  0  0  0  0  0  0
  -12.2622  -37.5390  -12.0865 C   0  0  0  0  0  0  0  0  0  0  0  0
  -13.2819  -38.2944  -11.5284 C   0  0  0  0  0  0  0  0  0  0  0  0
  -13.6878  -38.1207  -10.2226 C   0  0  0  0  0  0  0  0  0  0  0  0
  -14.7867  -38.9704   -9.7006 C   0  0  0  0  0  0  0  0  0  0  0  0
  -15.9386  -38.7734  -10.5027 N   0  0  0  0  0  0  0  0  0  0  0  0
  -16.8052  -39.8528  -10.6974 C   0  0  0  0  0  0  0  0  0  0  0  0
  -18.2543  -39.6733  -10.3888 C   0  0  1  0  0  0  0  0  0  0  0  0
  -18.9352  -40.5279  -11.2987 O   0  0  0  0  0  0  0  0  0  0  0  0
  -18.5846  -40.1545   -8.9643 C   0  0  2  0  0  0  0  0  0  0  0  0
  -19.2685  -39.1350   -8.1414 C   0  0  0  0  0  0  0  0  0  0  0  0
  -20.7438  -39.1554   -7.9435 C   0  0  0  0  0  0  0  0  0  0  0  0
  -21.5941  -40.1681   -7.6104 C   0  0  0  0  0  0  0  0  0  0  0  0
  -22.9287  -39.8929   -7.4430 C   0  0  0  0  0  0  0  0  0  0  0  0
  -24.0580  -40.7982   -7.0570 C   0  0  0  0  0  0  0  0  0  0  0  0
  -24.1563  -41.0964   -5.5834 C   0  0  0  0  0  0  0  0  0  0  0  0
  -23.2656  -42.1690   -5.0814 C   0  0  0  0  0  0  0  0  0  0  0  0
  -22.1579  -41.7646   -4.1820 C   0  0  0  0  0  0  0  0  0  0  0  0
  -21.0179  -42.5791   -4.1791 O   0  0  0  0  0  0  0  0  0  0  0  0
  -20.0144  -42.8172   -5.1101 C   0  0  0  0  0  0  0  0  0  0  0  0
  -19.1634  -41.9171   -5.7275 C   0  0  0  0  0  0  0  0  0  0  0  0
  -18.2552  -42.4190   -6.6287 C   0  0  0  0  0  0  0  0  0  0  0  0
  -18.2151  -43.8155   -6.8871 C   0  0  0  0  0  0  0  0  0  0  0  0
  -19.0430  -44.7247   -6.2876 C   0  0  0  0  0  0  0  0  0  0  0  0
  -19.9418  -44.1931   -5.3948 C   0  0  0  0  0  0  0  0  0  0  0  0
  -18.9719  -46.1006   -6.5805 N   0  0  0  0  0  0  0  0  0  0  0  0
  -17.8029  -46.9449   -6.5164 C   0  0  0  0  0  0  0  0  0  0  0  0
  -18.0855  -48.1281   -7.4129 C   0  0  0  0  0  0  0  0  0  0  0  0
  -19.4964  -47.9756   -7.9341 C   0  0  0  0  0  0  0  0  0  0  0  0
  -20.0370  -46.9416   -7.0039 C   0  0  0  0  0  0  0  0  0  0  0  0
  -21.2534  -46.8862   -6.6915 O   0  0  0  0  0  0  0  0  0  0  0  0
  -17.2645  -41.7505   -7.4945 C   0  0  0  0  0  0  0  0  0  0  0  0
  -16.0925  -42.3058   -7.5343 O   0  0  0  0  0  0  0  0  0  0  0  0
  -17.3676  -40.5956   -8.3040 N   0  0  0  0  0  0  0  0  0  0  0  0
  -23.3963  -38.5727   -7.6193 C   0  0  0  0  0  0  0  0  0  0  0  0
  -22.5902  -37.5185   -7.9546 C   0  0  0  0  0  0  0  0  0  0  0  0
  -21.2727  -37.8518   -8.1069 C   0  0  0  0  0  0  0  0  0  0  0  0
  -13.0432  -37.1797   -9.5139 N   0  0  0  0  0  0  0  0  0  0  0  0
  -12.0496  -36.4274  -10.0192 C   0  0  0  0  0  0  0  0  0  0  0  0
  -11.6247  -36.5819  -11.3254 C   0  0  0  0  0  0  0  0  0  0  0  0
  1  2  1  0
  2  3  1  0
  2  4  1  0
  4  5  2  0
  5  6  1  0
  6  7  1  0
  7  8  1  0
  8  9  1  0
  9 10  1  0
 10 11  1  6
 10 12  1  0
 12 13  1  1
 13 14  1  0
 14 15  1  0
 15 16  2  0
 16 17  1  0
 17 18  1  0
 18 19  1  0
 19 20  1  0
 20 21  1  0
 21 22  1  0
 22 23  1  0
 23 24  2  0
 24 25  1  0
 25 26  2  0
 26 27  1  0
 26 28  1  0
 28 29  1  0
 29 30  1  0
 30 31  1  0
 31 32  1  0
 32 33  2  0
 24 34  1  0
 34 35  2  0
 34 36  1  0
 16 37  1  0
 37 38  2  0
 38 39  1  0
  6 40  2  0
 40 41  1  0
 41 42  2  0
 27 22  2  0
 32 28  1  0
 36 12  1  0
 39 14  2  0
 42  4  1  0
M  END
$$$$
