
     RDKit          3D

 42 46  0  0  0  0  0  0  0  0999 V2000
  -14.4134  -36.1965  -13.9904 C   0  0  0  0  0  0  0  0  0  0  0  0
  -14.4299  -36.2404  -12.4594 C   0  0  0  0  0  0  0  0  0  0  0  0
  -13.9051  -34.9209  -11.9669 C   0  0  0  0  0  0  0  0  0  0  0  0
  -13.5649  -37.3779  -12.0201 C   0  0  0  0  0  0  0  0  0  0  0  0
  -13.9833  -38.2605  -11.0363 C   0  0  0  0  0  0  0  0  0  0  0  0
  -13.1963  -39.3110  -10.6158 C   0  0  0  0  0  0  0  0  0  0  0  0
  -13.7178  -40.2112   -9.5577 C   0  0  0  0  0  0  0  0  0  0  0  0
  -14.7084  -39.5203   -8.8158 N   0  0  0  0  0  0  0  0  0  0  0  0
  -16.0502  -39.7173   -9.1544 C   0  0  0  0  0  0  0  0  0  0  0  0
  -17.0935  -38.9227   -8.4419 C   0  0  1  0  0  0  0  0  0  0  0  0
  -18.0203  -38.5401   -9.4501 O   0  0  0  0  0  0  0  0  0  0  0  0
  -17.8513  -39.7881   -7.4190 C   0  0  2  0  0  0  0  0  0  0  0  0
  -18.7693  -39.0142   -6.5571 C   0  0  0  0  0  0  0  0  0  0  0  0
  -20.2315  -38.9568   -6.8304 C   0  0  0  0  0  0  0  0  0  0  0  0
  -21.1339  -39.9388   -7.1149 C   0  0  0  0  0  0  0  0  0  0  0  0
  -22.4557  -39.6056   -7.2777 C   0  0  0  0  0  0  0  0  0  0  0  0
  -23.6406  -40.4761   -7.5640 C   0  0  0  0  0  0  0  0  0  0  0  0
  -24.1955  -41.2053   -6.3680 C   0  0  0  0  0  0  0  0  0  0  0  0
  -23.4984  -42.4589   -5.9962 C   0  0  0  0  0  0  0  0  0  0  0  0
  -22.7344  -42.4582   -4.7250 C   0  0  0  0  0  0  0  0  0  0  0  0
  -21.6459  -43.3364   -4.6424 O   0  0  0  0  0  0  0  0  0  0  0  0
  -20.3979  -43.3673   -5.2523 C   0  0  0  0  0  0  0  0  0  0  0  0
  -19.4042  -42.4039   -5.2591 C   0  0  0  0  0  0  0  0  0  0  0  0
  -18.2536  -42.6847   -5.9563 C   0  0  0  0  0  0  0  0  0  0  0  0
  -18.1210  -43.9300   -6.6275 C   0  0  0  0  0  0  0  0  0  0  0  0
  -19.0870  -44.8985   -6.6327 C   0  0  0  0  0  0  0  0  0  0  0  0
  -20.2264  -44.5879   -5.9307 C   0  0  0  0  0  0  0  0  0  0  0  0
  -18.9144  -46.1165   -7.3189 N   0  0  0  0  0  0  0  0  0  0  0  0
  -19.0005  -46.3328   -8.7434 C   0  0  0  0  0  0  0  0  0  0  0  0
  -19.2910  -47.8037   -8.9315 C   0  0  0  0  0  0  0  0  0  0  0  0
  -19.2886  -48.4454   -7.5626 C   0  0  0  0  0  0  0  0  0  0  0  0
  -18.6233  -47.3860   -6.7491 C   0  0  0  0  0  0  0  0  0  0  0  0
  -17.9313  -47.6512   -5.7336 O   0  0  0  0  0  0  0  0  0  0  0  0
  -17.0468  -41.8768   -6.2186 C   0  0  0  0  0  0  0  0  0  0  0  0
  -15.9169  -42.4994   -6.0809 O   0  0  0  0  0  0  0  0  0  0  0  0
  -16.9004  -40.5236   -6.6026 N   0  0  0  0  0  0  0  0  0  0  0  0
  -22.8563  -38.2580   -7.1500 C   0  0  0  0  0  0  0  0  0  0  0  0
  -21.9954  -37.2319   -6.8673 C   0  0  0  0  0  0  0  0  0  0  0  0
  -20.6941  -37.6233   -6.7148 C   0  0  0  0  0  0  0  0  0  0  0  0
  -11.9986  -39.4388  -11.2096 N   0  0  0  0  0  0  0  0  0  0  0  0
  -11.5575  -38.6041  -12.1673 C   0  0  0  0  0  0  0  0  0  0  0  0
  -12.3274  -37.5431  -12.6058 C   0  0  0  0  0  0  0  0  0  0  0  0
  1  2  1  0
  2  3  1  0
  2  4  1  0
  4  5  2  0
  5  6  1  0
  6  7  1  0
  7  8  1  0
  8  9  1  0
  9 10  1  0
 10 11  1  6
 10 12  1  0
 12 13  1  1
 13 14  1  0
 14 15  1  0
 15 16  2  0
 16 17  1  0
 17 18  1  0
 18 19  1  0
 19 20  1  0
 20 21  1  0
 21 22  1  0
 22 23  1  0
 23 24  2  0
 24 25  1  0
 25 26  2  0
 26 27  1  0
 26 28  1  0
 28 29  1  0
 29 30  1  0
 30 31  1  0
 31 32  1  0
 32 33  2  0
 24 34  1  0
 34 35  2  0
 34 36  1  0
 16 37  1  0
 37 38  2  0
 38 39  1  0
  6 40  2  0
 40 41  1  0
 41 42  2  0
 27 22  2  0
 32 28  1  0
 36 12  1  0
 39 14  2  0
 42  4  1  0
M  END
$$$$
