
     RDKit          3D

 42 46  0  0  0  0  0  0  0  0999 V2000
  -23.8836  -38.4608   -5.6027 C   0  0  0  0  0  0  0  0  0  0  0  0
  -22.7954  -39.0936   -6.4753 C   0  0  0  0  0  0  0  0  0  0  0  0
  -23.4699  -40.0731   -7.3942 C   0  0  0  0  0  0  0  0  0  0  0  0
  -21.8134  -39.7689   -5.5725 C   0  0  0  0  0  0  0  0  0  0  0  0
  -20.5127  -39.3049   -5.4504 C   0  0  0  0  0  0  0  0  0  0  0  0
  -19.5934  -39.9187   -4.6270 C   0  0  0  0  0  0  0  0  0  0  0  0
  -18.2210  -39.3594   -4.5520 C   0  0  0  0  0  0  0  0  0  0  0  0
  -17.3260  -40.2549   -5.1892 N   0  0  0  0  0  0  0  0  0  0  0  0
  -16.1186  -39.7502   -5.6807 C   0  0  0  0  0  0  0  0  0  0  0  0
  -16.1528  -38.8138   -6.8423 C   0  0  1  0  0  0  0  0  0  0  0  0
  -14.9201  -39.0200   -7.5205 O   0  0  0  0  0  0  0  0  0  0  0  0
  -17.2862  -39.1776   -7.8184 C   0  0  2  0  0  0  0  0  0  0  0  0
  -17.8808  -38.0056   -8.4945 C   0  0  0  0  0  0  0  0  0  0  0  0
  -17.4946  -37.6279   -9.8817 C   0  0  0  0  0  0  0  0  0  0  0  0
  -17.3737  -38.3728  -11.0176 C   0  0  0  0  0  0  0  0  0  0  0  0
  -17.0429  -37.7484  -12.1947 C   0  0  0  0  0  0  0  0  0  0  0  0
  -16.8743  -38.3145  -13.5712 C   0  0  0  0  0  0  0  0  0  0  0  0
  -18.1599  -38.5639  -14.3162 C   0  0  0  0  0  0  0  0  0  0  0  0
  -18.8558  -39.8322  -13.9953 C   0  0  0  0  0  0  0  0  0  0  0  0
  -20.1466  -39.7328  -13.2719 C   0  0  0  0  0  0  0  0  0  0  0  0
  -20.5055  -40.8233  -12.4687 O   0  0  0  0  0  0  0  0  0  0  0  0
  -20.0120  -41.3290  -11.2725 C   0  0  0  0  0  0  0  0  0  0  0  0
  -19.8609  -40.6950  -10.0514 C   0  0  0  0  0  0  0  0  0  0  0  0
  -19.3319  -41.4292   -9.0170 C   0  0  0  0  0  0  0  0  0  0  0  0
  -18.9712  -42.7873   -9.2274 C   0  0  0  0  0  0  0  0  0  0  0  0
  -19.1138  -43.4363  -10.4231 C   0  0  0  0  0  0  0  0  0  0  0  0
  -19.6416  -42.6762  -11.4385 C   0  0  0  0  0  0  0  0  0  0  0  0
  -18.7353  -44.7831  -10.5873 N   0  0  0  0  0  0  0  0  0  0  0  0
  -19.3022  -45.9335   -9.9249 C   0  0  0  0  0  0  0  0  0  0  0  0
  -18.2537  -47.0196   -9.9912 C   0  0  0  0  0  0  0  0  0  0  0  0
  -17.0895  -46.4783  -10.7895 C   0  0  0  0  0  0  0  0  0  0  0  0
  -17.7133  -45.2874  -11.4371 C   0  0  0  0  0  0  0  0  0  0  0  0
  -17.3403  -44.8572  -12.5579 O   0  0  0  0  0  0  0  0  0  0  0  0
  -18.9834  -41.0578   -7.6319 C   0  0  0  0  0  0  0  0  0  0  0  0
  -19.3411  -41.9074   -6.7189 O   0  0  0  0  0  0  0  0  0  0  0  0
  -18.3154  -39.9238   -7.1144 N   0  0  0  0  0  0  0  0  0  0  0  0
  -16.8329  -36.3525  -12.2089 C   0  0  0  0  0  0  0  0  0  0  0  0
  -16.9390  -35.5558  -11.1008 C   0  0  0  0  0  0  0  0  0  0  0  0
  -17.2714  -36.2316   -9.9594 C   0  0  0  0  0  0  0  0  0  0  0  0
  -20.0220  -40.9930   -3.9448 N   0  0  0  0  0  0  0  0  0  0  0  0
  -21.2749  -41.4729   -4.0360 C   0  0  0  0  0  0  0  0  0  0  0  0
  -22.2150  -40.8758   -4.8548 C   0  0  0  0  0  0  0  0  0  0  0  0
  1  2  1  0
  2  3  1  0
  2  4  1  0
  4  5  2  0
  5  6  1  0
  6  7  1  0
  7  8  1  0
  8  9  1  0
  9 10  1  0
 10 11  1  6
 10 12  1  0
 12 13  1  1
 13 14  1  0
 14 15  1  0
 15 16  2  0
 16 17  1  0
 17 18  1  0
 18 19  1  0
 19 20  1  0
 20 21  1  0
 21 22  1  0
 22 23  1  0
 23 24  2  0
 24 25  1  0
 25 26  2  0
 26 27  1  0
 26 28  1  0
 28 29  1  0
 29 30  1  0
 30 31  1  0
 31 32  1  0
 32 33  2  0
 24 34  1  0
 34 35  2  0
 34 36  1  0
 16 37  1  0
 37 38  2  0
 38 39  1  0
  6 40  2  0
 40 41  1  0
 41 42  2  0
 27 22  2  0
 32 28  1  0
 36 12  1  0
 39 14  2  0
 42  4  1  0
M  END
$$$$
