
     RDKit          3D

 42 46  0  0  0  0  0  0  0  0999 V2000
  -23.0014  -41.0152   -4.4439 C   0  0  0  0  0  0  0  0  0  0  0  0
  -21.9459  -40.0232   -3.9460 C   0  0  0  0  0  0  0  0  0  0  0  0
  -22.6608  -38.7522   -3.5820 C   0  0  0  0  0  0  0  0  0  0  0  0
  -20.9592  -39.8061   -5.0480 C   0  0  0  0  0  0  0  0  0  0  0  0
  -19.6082  -39.6454   -4.7815 C   0  0  0  0  0  0  0  0  0  0  0  0
  -18.6861  -39.4390   -5.7850 C   0  0  0  0  0  0  0  0  0  0  0  0
  -17.2580  -39.2768   -5.4160 C   0  0  0  0  0  0  0  0  0  0  0  0
  -16.5056  -40.3074   -6.0330 N   0  0  0  0  0  0  0  0  0  0  0  0
  -15.9518  -40.0626   -7.2930 C   0  0  0  0  0  0  0  0  0  0  0  0
  -16.8003  -39.4135   -8.3351 C   0  0  1  0  0  0  0  0  0  0  0  0
  -16.0678  -39.5494   -9.5463 O   0  0  0  0  0  0  0  0  0  0  0  0
  -18.1342  -40.1611   -8.5130 C   0  0  2  0  0  0  0  0  0  0  0  0
  -19.1783  -39.3536   -9.1780 C   0  0  0  0  0  0  0  0  0  0  0  0
  -19.4803  -39.5121  -10.6271 C   0  0  0  0  0  0  0  0  0  0  0  0
  -19.6868  -40.6248  -11.3878 C   0  0  0  0  0  0  0  0  0  0  0  0
  -20.0021  -40.4779  -12.7159 C   0  0  0  0  0  0  0  0  0  0  0  0
  -20.3012  -41.5140  -13.7555 C   0  0  0  0  0  0  0  0  0  0  0  0
  -21.6990  -42.0744  -13.7084 C   0  0  0  0  0  0  0  0  0  0  0  0
  -21.9284  -43.1538  -12.7195 C   0  0  0  0  0  0  0  0  0  0  0  0
  -22.8000  -42.8382  -11.5617 C   0  0  0  0  0  0  0  0  0  0  0  0
  -22.5682  -43.5584  -10.3825 O   0  0  0  0  0  0  0  0  0  0  0  0
  -21.5362  -43.5571   -9.4523 C   0  0  0  0  0  0  0  0  0  0  0  0
  -21.0303  -42.5045   -8.7094 C   0  0  0  0  0  0  0  0  0  0  0  0
  -19.9868  -42.7742   -7.8567 C   0  0  0  0  0  0  0  0  0  0  0  0
  -19.4761  -44.0967   -7.7621 C   0  0  0  0  0  0  0  0  0  0  0  0
  -19.9610  -45.1533   -8.4830 C   0  0  0  0  0  0  0  0  0  0  0  0
  -21.0011  -44.8525   -9.3287 C   0  0  0  0  0  0  0  0  0  0  0  0
  -19.4179  -46.4473   -8.3617 N   0  0  0  0  0  0  0  0  0  0  0  0
  -18.7988  -47.2325   -9.4027 C   0  0  0  0  0  0  0  0  0  0  0  0
  -18.8872  -48.6733   -8.9557 C   0  0  0  0  0  0  0  0  0  0  0  0
  -19.5090  -48.6834   -7.5776 C   0  0  0  0  0  0  0  0  0  0  0  0
  -19.3711  -47.2494   -7.1889 C   0  0  0  0  0  0  0  0  0  0  0  0
  -19.2386  -46.8852   -5.9930 O   0  0  0  0  0  0  0  0  0  0  0  0
  -19.1846  -41.8954   -6.9836 C   0  0  0  0  0  0  0  0  0  0  0  0
  -18.9559  -42.3513   -5.7907 O   0  0  0  0  0  0  0  0  0  0  0  0
  -18.6091  -40.6255   -7.2206 N   0  0  0  0  0  0  0  0  0  0  0  0
  -20.1049  -39.1834  -13.2694 C   0  0  0  0  0  0  0  0  0  0  0  0
  -19.9072  -38.0325  -12.5551 C   0  0  0  0  0  0  0  0  0  0  0  0
  -19.5975  -38.2405  -11.2394 C   0  0  0  0  0  0  0  0  0  0  0  0
  -19.1629  -39.4020   -7.0398 N   0  0  0  0  0  0  0  0  0  0  0  0
  -20.4652  -39.5539   -7.3387 C   0  0  0  0  0  0  0  0  0  0  0  0
  -21.4095  -39.7615   -6.3507 C   0  0  0  0  0  0  0  0  0  0  0  0
  1  2  1  0
  2  3  1  0
  2  4  1  0
  4  5  2  0
  5  6  1  0
  6  7  1  0
  7  8  1  0
  8  9  1  0
  9 10  1  0
 10 11  1  6
 10 12  1  0
 12 13  1  1
 13 14  1  0
 14 15  1  0
 15 16  2  0
 16 17  1  0
 17 18  1  0
 18 19  1  0
 19 20  1  0
 20 21  1  0
 21 22  1  0
 22 23  1  0
 23 24  2  0
 24 25  1  0
 25 26  2  0
 26 27  1  0
 26 28  1  0
 28 29  1  0
 29 30  1  0
 30 31  1  0
 31 32  1  0
 32 33  2  0
 24 34  1  0
 34 35  2  0
 34 36  1  0
 16 37  1  0
 37 38  2  0
 38 39  1  0
  6 40  2  0
 40 41  1  0
 41 42  2  0
 27 22  2  0
 32 28  1  0
 36 12  1  0
 39 14  2  0
 42  4  1  0
M  END
$$$$
