
     RDKit          3D

 42 46  0  0  0  0  0  0  0  0999 V2000
  -11.6122  -41.2984  -13.0512 C   0  0  0  0  0  0  0  0  0  0  0  0
  -12.9145  -40.5799  -13.4170 C   0  0  0  0  0  0  0  0  0  0  0  0
  -12.7091  -39.9335  -14.7582 C   0  0  0  0  0  0  0  0  0  0  0  0
  -13.1988  -39.5682  -12.3536 C   0  0  0  0  0  0  0  0  0  0  0  0
  -13.2647  -39.9299  -11.0170 C   0  0  0  0  0  0  0  0  0  0  0  0
  -13.5312  -39.0110  -10.0247 C   0  0  0  0  0  0  0  0  0  0  0  0
  -13.5841  -39.4792   -8.6176 C   0  0  0  0  0  0  0  0  0  0  0  0
  -14.7972  -40.1836   -8.4145 N   0  0  0  0  0  0  0  0  0  0  0  0
  -15.9511  -39.7168   -9.0506 C   0  0  0  0  0  0  0  0  0  0  0  0
  -16.9697  -38.9852   -8.2415 C   0  0  1  0  0  0  0  0  0  0  0  0
  -17.8497  -38.4018   -9.1939 O   0  0  0  0  0  0  0  0  0  0  0  0
  -17.7968  -39.9547   -7.3780 C   0  0  2  0  0  0  0  0  0  0  0  0
  -18.7474  -39.2743   -6.4736 C   0  0  0  0  0  0  0  0  0  0  0  0
  -20.1913  -39.1484   -6.8132 C   0  0  0  0  0  0  0  0  0  0  0  0
  -21.0932  -40.0650   -7.2672 C   0  0  0  0  0  0  0  0  0  0  0  0
  -22.3983  -39.6827   -7.4548 C   0  0  0  0  0  0  0  0  0  0  0  0
  -23.5802  -40.4819   -7.9111 C   0  0  0  0  0  0  0  0  0  0  0  0
  -24.2119  -41.3430   -6.8483 C   0  0  0  0  0  0  0  0  0  0  0  0
  -23.5574  -42.6496   -6.6033 C   0  0  0  0  0  0  0  0  0  0  0  0
  -22.8642  -42.8274   -5.3043 C   0  0  0  0  0  0  0  0  0  0  0  0
  -21.7967  -43.7345   -5.2776 O   0  0  0  0  0  0  0  0  0  0  0  0
  -20.5180  -43.7176   -5.8206 C   0  0  0  0  0  0  0  0  0  0  0  0
  -19.5093  -42.7848   -5.6528 C   0  0  0  0  0  0  0  0  0  0  0  0
  -18.3272  -43.0025   -6.3191 C   0  0  0  0  0  0  0  0  0  0  0  0
  -18.1790  -44.1559   -7.1356 C   0  0  0  0  0  0  0  0  0  0  0  0
  -19.1595  -45.0929   -7.3146 C   0  0  0  0  0  0  0  0  0  0  0  0
  -20.3301  -44.8466   -6.6390 C   0  0  0  0  0  0  0  0  0  0  0  0
  -18.9701  -46.2182   -8.1403 N   0  0  0  0  0  0  0  0  0  0  0  0
  -19.3228  -46.3441   -9.5343 C   0  0  0  0  0  0  0  0  0  0  0  0
  -19.4427  -47.8252   -9.8086 C   0  0  0  0  0  0  0  0  0  0  0  0
  -19.0658  -48.5538   -8.5386 C   0  0  0  0  0  0  0  0  0  0  0  0
  -18.3955  -47.4646   -7.7698 C   0  0  0  0  0  0  0  0  0  0  0  0
  -17.4764  -47.6910   -6.9426 O   0  0  0  0  0  0  0  0  0  0  0  0
  -17.0944  -42.1966   -6.4132 C   0  0  0  0  0  0  0  0  0  0  0  0
  -15.9844  -42.8582   -6.2971 O   0  0  0  0  0  0  0  0  0  0  0  0
  -16.9044  -40.8097   -6.6135 N   0  0  0  0  0  0  0  0  0  0  0  0
  -22.7825  -38.3530   -7.1776 C   0  0  0  0  0  0  0  0  0  0  0  0
  -21.9213  -37.3914   -6.7220 C   0  0  0  0  0  0  0  0  0  0  0  0
  -20.6370  -37.8296   -6.5530 C   0  0  0  0  0  0  0  0  0  0  0  0
  -13.7237  -37.7417  -10.4182 N   0  0  0  0  0  0  0  0  0  0  0  0
  -13.6675  -37.3516  -11.7040 C   0  0  0  0  0  0  0  0  0  0  0  0
  -13.4026  -38.2537  -12.7174 C   0  0  0  0  0  0  0  0  0  0  0  0
  1  2  1  0
  2  3  1  0
  2  4  1  0
  4  5  2  0
  5  6  1  0
  6  7  1  0
  7  8  1  0
  8  9  1  0
  9 10  1  0
 10 11  1  6
 10 12  1  0
 12 13  1  1
 13 14  1  0
 14 15  1  0
 15 16  2  0
 16 17  1  0
 17 18  1  0
 18 19  1  0
 19 20  1  0
 20 21  1  0
 21 22  1  0
 22 23  1  0
 23 24  2  0
 24 25  1  0
 25 26  2  0
 26 27  1  0
 26 28  1  0
 28 29  1  0
 29 30  1  0
 30 31  1  0
 31 32  1  0
 32 33  2  0
 24 34  1  0
 34 35  2  0
 34 36  1  0
 16 37  1  0
 37 38  2  0
 38 39  1  0
  6 40  2  0
 40 41  1  0
 41 42  2  0
 27 22  2  0
 32 28  1  0
 36 12  1  0
 39 14  2  0
 42  4  1  0
M  END
$$$$
