
     RDKit          3D

 42 46  0  0  0  0  0  0  0  0999 V2000
  -18.3831  -36.6733  -11.8980 C   0  0  0  0  0  0  0  0  0  0  0  0
  -19.6792  -36.1348  -11.2846 C   0  0  0  0  0  0  0  0  0  0  0  0
  -19.4868  -34.6628  -11.0495 C   0  0  0  0  0  0  0  0  0  0  0  0
  -19.9268  -36.8708  -10.0071 C   0  0  0  0  0  0  0  0  0  0  0  0
  -18.8772  -37.2889   -9.2037 C   0  0  0  0  0  0  0  0  0  0  0  0
  -19.0875  -37.9732   -8.0258 C   0  0  0  0  0  0  0  0  0  0  0  0
  -17.9097  -38.3853   -7.2228 C   0  0  0  0  0  0  0  0  0  0  0  0
  -16.7925  -37.6063   -7.6151 N   0  0  0  0  0  0  0  0  0  0  0  0
  -15.5234  -38.1897   -7.5603 C   0  0  0  0  0  0  0  0  0  0  0  0
  -15.4205  -39.6637   -7.3500 C   0  0  1  0  0  0  0  0  0  0  0  0
  -15.5273  -39.8454   -5.9438 O   0  0  0  0  0  0  0  0  0  0  0  0
  -16.6008  -40.4039   -8.0047 C   0  0  2  0  0  0  0  0  0  0  0  0
  -16.3998  -40.6781   -9.4431 C   0  0  0  0  0  0  0  0  0  0  0  0
  -15.9541  -42.0137   -9.9264 C   0  0  0  0  0  0  0  0  0  0  0  0
  -16.3859  -43.2713   -9.6241 C   0  0  0  0  0  0  0  0  0  0  0  0
  -15.8200  -44.3450  -10.2657 C   0  0  0  0  0  0  0  0  0  0  0  0
  -16.1206  -45.8075  -10.1450 C   0  0  0  0  0  0  0  0  0  0  0  0
  -17.3366  -46.2696  -10.9052 C   0  0  0  0  0  0  0  0  0  0  0  0
  -18.6388  -46.0550  -10.2314 C   0  0  0  0  0  0  0  0  0  0  0  0
  -19.5514  -45.0481  -10.8254 C   0  0  0  0  0  0  0  0  0  0  0  0
  -20.4478  -44.4165   -9.9533 O   0  0  0  0  0  0  0  0  0  0  0  0
  -20.2889  -43.4915   -8.9289 C   0  0  0  0  0  0  0  0  0  0  0  0
  -19.7042  -42.2375   -8.9664 C   0  0  0  0  0  0  0  0  0  0  0  0
  -19.6670  -41.5200   -7.7949 C   0  0  0  0  0  0  0  0  0  0  0  0
  -20.2234  -42.0732   -6.6102 C   0  0  0  0  0  0  0  0  0  0  0  0
  -20.8089  -43.3079   -6.5489 C   0  0  0  0  0  0  0  0  0  0  0  0
  -20.8282  -44.0025   -7.7341 C   0  0  0  0  0  0  0  0  0  0  0  0
  -21.3414  -43.8190   -5.3492 N   0  0  0  0  0  0  0  0  0  0  0  0
  -22.4421  -43.2803   -4.5864 C   0  0  0  0  0  0  0  0  0  0  0  0
  -22.2795  -43.8063   -3.1791 C   0  0  0  0  0  0  0  0  0  0  0  0
  -21.0873  -44.7360   -3.1772 C   0  0  0  0  0  0  0  0  0  0  0  0
  -20.9017  -44.9695   -4.6392 C   0  0  0  0  0  0  0  0  0  0  0  0
  -20.4254  -46.0397   -5.0956 O   0  0  0  0  0  0  0  0  0  0  0  0
  -19.0758  -40.2074   -7.4699 C   0  0  0  0  0  0  0  0  0  0  0  0
  -19.8174  -39.4237   -6.7493 O   0  0  0  0  0  0  0  0  0  0  0  0
  -17.8234  -39.6438   -7.8069 N   0  0  0  0  0  0  0  0  0  0  0  0
  -14.8041  -44.1301  -11.2220 C   0  0  0  0  0  0  0  0  0  0  0  0
  -14.3308  -42.8920  -11.5640 C   0  0  0  0  0  0  0  0  0  0  0  0
  -14.9316  -41.8621  -10.8945 C   0  0  0  0  0  0  0  0  0  0  0  0
  -20.3657  -38.2153   -7.6925 N   0  0  0  0  0  0  0  0  0  0  0  0
  -21.4104  -37.8259   -8.4445 C   0  0  0  0  0  0  0  0  0  0  0  0
  -21.2258  -37.1390   -9.6298 C   0  0  0  0  0  0  0  0  0  0  0  0
  1  2  1  0
  2  3  1  0
  2  4  1  0
  4  5  2  0
  5  6  1  0
  6  7  1  0
  7  8  1  0
  8  9  1  0
  9 10  1  0
 10 11  1  1
 10 12  1  0
 12 13  1  6
 13 14  1  0
 14 15  1  0
 15 16  2  0
 16 17  1  0
 17 18  1  0
 18 19  1  0
 19 20  1  0
 20 21  1  0
 21 22  1  0
 22 23  1  0
 23 24  2  0
 24 25  1  0
 25 26  2  0
 26 27  1  0
 26 28  1  0
 28 29  1  0
 29 30  1  0
 30 31  1  0
 31 32  1  0
 32 33  2  0
 24 34  1  0
 34 35  2  0
 34 36  1  0
 16 37  1  0
 37 38  2  0
 38 39  1  0
  6 40  2  0
 40 41  1  0
 41 42  2  0
 27 22  2  0
 32 28  1  0
 36 12  1  0
 39 14  2  0
 42  4  1  0
M  END
$$$$
