
     RDKit          3D

 42 46  0  0  0  0  0  0  0  0999 V2000
  -10.8590  -35.8795  -11.4686 C   0  0  0  0  0  0  0  0  0  0  0  0
  -10.1764  -37.2275  -11.2175 C   0  0  0  0  0  0  0  0  0  0  0  0
   -9.5189  -37.6441  -12.5032 C   0  0  0  0  0  0  0  0  0  0  0  0
  -11.2248  -38.2043  -10.7911 C   0  0  0  0  0  0  0  0  0  0  0  0
  -12.5072  -38.1566  -11.3157 C   0  0  0  0  0  0  0  0  0  0  0  0
  -13.4871  -39.0458  -10.9296 C   0  0  0  0  0  0  0  0  0  0  0  0
  -14.8347  -38.9277  -11.5393 C   0  0  0  0  0  0  0  0  0  0  0  0
  -15.7072  -38.3131  -10.6066 N   0  0  0  0  0  0  0  0  0  0  0  0
  -16.8413  -39.0181  -10.1931 C   0  0  0  0  0  0  0  0  0  0  0  0
  -17.7473  -38.3915   -9.1862 C   0  0  1  0  0  0  0  0  0  0  0  0
  -18.9393  -38.0873   -9.8993 O   0  0  0  0  0  0  0  0  0  0  0  0
  -18.1147  -39.3871   -8.0710 C   0  0  2  0  0  0  0  0  0  0  0  0
  -18.8950  -38.7800   -6.9724 C   0  0  0  0  0  0  0  0  0  0  0  0
  -20.3741  -38.9280   -6.8933 C   0  0  0  0  0  0  0  0  0  0  0  0
  -21.1780  -40.0221   -7.0207 C   0  0  0  0  0  0  0  0  0  0  0  0
  -22.5328  -39.8800   -6.8498 C   0  0  0  0  0  0  0  0  0  0  0  0
  -23.6237  -40.9050   -6.9062 C   0  0  0  0  0  0  0  0  0  0  0  0
  -23.7729  -41.7413   -5.6618 C   0  0  0  0  0  0  0  0  0  0  0  0
  -22.8451  -42.8904   -5.5418 C   0  0  0  0  0  0  0  0  0  0  0  0
  -21.8062  -42.8153   -4.4861 C   0  0  0  0  0  0  0  0  0  0  0  0
  -20.6217  -43.5280   -4.7145 O   0  0  0  0  0  0  0  0  0  0  0  0
  -19.5637  -43.3594   -5.5991 C   0  0  0  0  0  0  0  0  0  0  0  0
  -18.7391  -42.2620   -5.7769 C   0  0  0  0  0  0  0  0  0  0  0  0
  -17.7620  -42.3524   -6.7391 C   0  0  0  0  0  0  0  0  0  0  0  0
  -17.6280  -43.5452   -7.4993 C   0  0  0  0  0  0  0  0  0  0  0  0
  -18.4280  -44.6433   -7.3400 C   0  0  0  0  0  0  0  0  0  0  0  0
  -19.3971  -44.5221   -6.3738 C   0  0  0  0  0  0  0  0  0  0  0  0
  -18.2626  -45.8030   -8.1223 N   0  0  0  0  0  0  0  0  0  0  0  0
  -17.0769  -46.6191   -8.2290 C   0  0  0  0  0  0  0  0  0  0  0  0
  -17.1933  -47.3661   -9.5374 C   0  0  0  0  0  0  0  0  0  0  0  0
  -18.5317  -47.0115  -10.1447 C   0  0  0  0  0  0  0  0  0  0  0  0
  -19.2291  -46.4071   -8.9721 C   0  0  0  0  0  0  0  0  0  0  0  0
  -20.4766  -46.4632   -8.8275 O   0  0  0  0  0  0  0  0  0  0  0  0
  -16.7730  -41.3703   -7.2243 C   0  0  0  0  0  0  0  0  0  0  0  0
  -15.5699  -41.8258   -7.3928 O   0  0  0  0  0  0  0  0  0  0  0  0
  -16.9060  -39.9997   -7.5464 N   0  0  0  0  0  0  0  0  0  0  0  0
  -23.0685  -38.6092   -6.5482 C   0  0  0  0  0  0  0  0  0  0  0  0
  -22.3109  -37.4775   -6.4102 C   0  0  0  0  0  0  0  0  0  0  0  0
  -20.9704  -37.6798   -6.5900 C   0  0  0  0  0  0  0  0  0  0  0  0
  -13.1364  -39.9659  -10.0165 N   0  0  0  0  0  0  0  0  0  0  0  0
  -11.9037  -40.0448   -9.4848 C   0  0  0  0  0  0  0  0  0  0  0  0
  -10.9041  -39.1647   -9.8549 C   0  0  0  0  0  0  0  0  0  0  0  0
  1  2  1  0
  2  3  1  0
  2  4  1  0
  4  5  2  0
  5  6  1  0
  6  7  1  0
  7  8  1  0
  8  9  1  0
  9 10  1  0
 10 11  1  6
 10 12  1  0
 12 13  1  1
 13 14  1  0
 14 15  1  0
 15 16  2  0
 16 17  1  0
 17 18  1  0
 18 19  1  0
 19 20  1  0
 20 21  1  0
 21 22  1  0
 22 23  1  0
 23 24  2  0
 24 25  1  0
 25 26  2  0
 26 27  1  0
 26 28  1  0
 28 29  1  0
 29 30  1  0
 30 31  1  0
 31 32  1  0
 32 33  2  0
 24 34  1  0
 34 35  2  0
 34 36  1  0
 16 37  1  0
 37 38  2  0
 38 39  1  0
  6 40  2  0
 40 41  1  0
 41 42  2  0
 27 22  2  0
 32 28  1  0
 36 12  1  0
 39 14  2  0
 42  4  1  0
M  END
$$$$
