
     RDKit          3D

 42 46  0  0  0  0  0  0  0  0999 V2000
  -21.8371  -36.9301   -7.8777 C   0  0  0  0  0  0  0  0  0  0  0  0
  -21.7447  -37.6692   -9.2161 C   0  0  0  0  0  0  0  0  0  0  0  0
  -21.9379  -39.1329   -8.9349 C   0  0  0  0  0  0  0  0  0  0  0  0
  -20.3986  -37.3926   -9.8050 C   0  0  0  0  0  0  0  0  0  0  0  0
  -19.2956  -37.1593   -8.9982 C   0  0  0  0  0  0  0  0  0  0  0  0
  -18.0489  -36.8974   -9.5246 C   0  0  0  0  0  0  0  0  0  0  0  0
  -16.9192  -36.6588   -8.5925 C   0  0  0  0  0  0  0  0  0  0  0  0
  -16.9994  -37.5907   -7.5276 N   0  0  0  0  0  0  0  0  0  0  0  0
  -15.9065  -38.4310   -7.2962 C   0  0  0  0  0  0  0  0  0  0  0  0
  -15.3853  -39.2564   -8.4251 C   0  0  1  0  0  0  0  0  0  0  0  0
  -14.3033  -39.9963   -7.8740 O   0  0  0  0  0  0  0  0  0  0  0  0
  -16.4400  -40.2677   -8.9096 C   0  0  2  0  0  0  0  0  0  0  0  0
  -16.0472  -40.9848  -10.1409 C   0  0  0  0  0  0  0  0  0  0  0  0
  -15.4860  -42.3628  -10.0941 C   0  0  0  0  0  0  0  0  0  0  0  0
  -15.8972  -43.4809   -9.4304 C   0  0  0  0  0  0  0  0  0  0  0  0
  -15.2083  -44.6551   -9.6079 C   0  0  0  0  0  0  0  0  0  0  0  0
  -15.4576  -46.0149   -9.0311 C   0  0  0  0  0  0  0  0  0  0  0  0
  -16.5464  -46.8026   -9.7121 C   0  0  0  0  0  0  0  0  0  0  0  0
  -17.9314  -46.4868   -9.2904 C   0  0  0  0  0  0  0  0  0  0  0  0
  -18.8048  -45.8134  -10.2820 C   0  0  0  0  0  0  0  0  0  0  0  0
  -19.8310  -45.0061   -9.7738 O   0  0  0  0  0  0  0  0  0  0  0  0
  -19.8433  -43.7842   -9.1126 C   0  0  0  0  0  0  0  0  0  0  0  0
  -19.3140  -42.5690   -9.5114 C   0  0  0  0  0  0  0  0  0  0  0  0
  -19.4564  -41.5037   -8.6550 C   0  0  0  0  0  0  0  0  0  0  0  0
  -20.1332  -41.6780   -7.4179 C   0  0  0  0  0  0  0  0  0  0  0  0
  -20.6672  -42.8672   -7.0033 C   0  0  0  0  0  0  0  0  0  0  0  0
  -20.5063  -43.9140   -7.8784 C   0  0  0  0  0  0  0  0  0  0  0  0
  -21.3241  -42.9949   -5.7638 N   0  0  0  0  0  0  0  0  0  0  0  0
  -22.4715  -42.2484   -5.3060 C   0  0  0  0  0  0  0  0  0  0  0  0
  -22.4562  -42.3315   -3.7972 C   0  0  0  0  0  0  0  0  0  0  0  0
  -21.3007  -43.2236   -3.4037 C   0  0  0  0  0  0  0  0  0  0  0  0
  -20.9897  -43.8833   -4.7055 C   0  0  0  0  0  0  0  0  0  0  0  0
  -20.5094  -45.0429   -4.7755 O   0  0  0  0  0  0  0  0  0  0  0  0
  -18.9689  -40.1129   -8.7340 C   0  0  0  0  0  0  0  0  0  0  0  0
  -19.8291  -39.1999   -8.4028 O   0  0  0  0  0  0  0  0  0  0  0  0
  -17.7098  -39.5900   -9.1095 N   0  0  0  0  0  0  0  0  0  0  0  0
  -14.0902  -44.6847  -10.4690 C   0  0  0  0  0  0  0  0  0  0  0  0
  -13.6321  -43.5947  -11.1588 C   0  0  0  0  0  0  0  0  0  0  0  0
  -14.3571  -42.4553  -10.9442 C   0  0  0  0  0  0  0  0  0  0  0  0
  -17.9546  -36.8802  -10.8641 N   0  0  0  0  0  0  0  0  0  0  0  0
  -19.0004  -37.1020  -11.6799 C   0  0  0  0  0  0  0  0  0  0  0  0
  -20.2605  -37.3662  -11.1768 C   0  0  0  0  0  0  0  0  0  0  0  0
  1  2  1  0
  2  3  1  0
  2  4  1  0
  4  5  2  0
  5  6  1  0
  6  7  1  0
  7  8  1  0
  8  9  1  0
  9 10  1  0
 10 11  1  1
 10 12  1  0
 12 13  1  6
 13 14  1  0
 14 15  1  0
 15 16  2  0
 16 17  1  0
 17 18  1  0
 18 19  1  0
 19 20  1  0
 20 21  1  0
 21 22  1  0
 22 23  1  0
 23 24  2  0
 24 25  1  0
 25 26  2  0
 26 27  1  0
 26 28  1  0
 28 29  1  0
 29 30  1  0
 30 31  1  0
 31 32  1  0
 32 33  2  0
 24 34  1  0
 34 35  2  0
 34 36  1  0
 16 37  1  0
 37 38  2  0
 38 39  1  0
  6 40  2  0
 40 41  1  0
 41 42  2  0
 27 22  2  0
 32 28  1  0
 36 12  1  0
 39 14  2  0
 42  4  1  0
M  END
$$$$
