
     RDKit          3D

 42 46  0  0  0  0  0  0  0  0999 V2000
  -13.3750  -36.8740  -12.9866 C   0  0  0  0  0  0  0  0  0  0  0  0
  -12.5535  -37.1783  -11.7301 C   0  0  0  0  0  0  0  0  0  0  0  0
  -11.1074  -36.9579  -12.0749 C   0  0  0  0  0  0  0  0  0  0  0  0
  -12.8181  -38.5962  -11.3369 C   0  0  0  0  0  0  0  0  0  0  0  0
  -13.6378  -38.9027  -10.2617 C   0  0  0  0  0  0  0  0  0  0  0  0
  -13.8878  -40.2041   -9.8824 C   0  0  0  0  0  0  0  0  0  0  0  0
  -14.7774  -40.4476   -8.7200 C   0  0  0  0  0  0  0  0  0  0  0  0
  -15.5336  -39.2756   -8.4685 N   0  0  0  0  0  0  0  0  0  0  0  0
  -16.4200  -38.8324   -9.4544 C   0  0  0  0  0  0  0  0  0  0  0  0
  -17.8046  -38.4466   -9.0526 C   0  0  1  0  0  0  0  0  0  0  0  0
  -18.6070  -38.7007  -10.1987 O   0  0  0  0  0  0  0  0  0  0  0  0
  -18.3246  -39.3427   -7.9140 C   0  0  2  0  0  0  0  0  0  0  0  0
  -19.2298  -38.6420   -6.9790 C   0  0  0  0  0  0  0  0  0  0  0  0
  -20.7089  -38.7783   -7.0776 C   0  0  0  0  0  0  0  0  0  0  0  0
  -21.5051  -39.8769   -7.2144 C   0  0  0  0  0  0  0  0  0  0  0  0
  -22.8686  -39.7167   -7.2307 C   0  0  0  0  0  0  0  0  0  0  0  0
  -23.9575  -40.7395   -7.3399 C   0  0  0  0  0  0  0  0  0  0  0  0
  -24.2752  -41.4665   -6.0590 C   0  0  0  0  0  0  0  0  0  0  0  0
  -23.3863  -42.6041   -5.7253 C   0  0  0  0  0  0  0  0  0  0  0  0
  -22.4891  -42.4425   -4.5555 C   0  0  0  0  0  0  0  0  0  0  0  0
  -21.2951  -43.1756   -4.5699 O   0  0  0  0  0  0  0  0  0  0  0  0
  -20.1309  -43.0861   -5.3229 C   0  0  0  0  0  0  0  0  0  0  0  0
  -19.2754  -42.0102   -5.4853 C   0  0  0  0  0  0  0  0  0  0  0  0
  -18.1852  -42.1850   -6.3037 C   0  0  0  0  0  0  0  0  0  0  0  0
  -17.9721  -43.4386   -6.9376 C   0  0  0  0  0  0  0  0  0  0  0  0
  -18.8010  -44.5168   -6.7903 C   0  0  0  0  0  0  0  0  0  0  0  0
  -19.8834  -44.3109   -5.9695 C   0  0  0  0  0  0  0  0  0  0  0  0
  -18.5536  -45.7392   -7.4449 N   0  0  0  0  0  0  0  0  0  0  0  0
  -18.6515  -46.0039   -8.8605 C   0  0  0  0  0  0  0  0  0  0  0  0
  -18.8377  -47.4969   -9.0002 C   0  0  0  0  0  0  0  0  0  0  0  0
  -18.7621  -48.0953   -7.6138 C   0  0  0  0  0  0  0  0  0  0  0  0
  -18.1600  -46.9667   -6.8454 C   0  0  0  0  0  0  0  0  0  0  0  0
  -17.4309  -47.1507   -5.8380 O   0  0  0  0  0  0  0  0  0  0  0  0
  -17.1290  -41.2507   -6.7392 C   0  0  0  0  0  0  0  0  0  0  0  0
  -15.9207  -41.7225   -6.7136 O   0  0  0  0  0  0  0  0  0  0  0  0
  -17.2010  -39.9121   -7.1895 N   0  0  0  0  0  0  0  0  0  0  0  0
  -23.4206  -38.4233   -7.1079 C   0  0  0  0  0  0  0  0  0  0  0  0
  -22.6711  -37.2862   -6.9697 C   0  0  0  0  0  0  0  0  0  0  0  0
  -21.3216  -37.5071   -6.9589 C   0  0  0  0  0  0  0  0  0  0  0  0
  -13.2962  -41.1654  -10.6100 N   0  0  0  0  0  0  0  0  0  0  0  0
  -12.4954  -40.9085  -11.6594 C   0  0  0  0  0  0  0  0  0  0  0  0
  -12.2287  -39.6124  -12.0592 C   0  0  0  0  0  0  0  0  0  0  0  0
  1  2  1  0
  2  3  1  0
  2  4  1  0
  4  5  2  0
  5  6  1  0
  6  7  1  0
  7  8  1  0
  8  9  1  0
  9 10  1  0
 10 11  1  6
 10 12  1  0
 12 13  1  1
 13 14  1  0
 14 15  1  0
 15 16  2  0
 16 17  1  0
 17 18  1  0
 18 19  1  0
 19 20  1  0
 20 21  1  0
 21 22  1  0
 22 23  1  0
 23 24  2  0
 24 25  1  0
 25 26  2  0
 26 27  1  0
 26 28  1  0
 28 29  1  0
 29 30  1  0
 30 31  1  0
 31 32  1  0
 32 33  2  0
 24 34  1  0
 34 35  2  0
 34 36  1  0
 16 37  1  0
 37 38  2  0
 38 39  1  0
  6 40  2  0
 40 41  1  0
 41 42  2  0
 27 22  2  0
 32 28  1  0
 36 12  1  0
 39 14  2  0
 42  4  1  0
M  END
$$$$
