
     RDKit          3D

 42 46  0  0  0  0  0  0  0  0999 V2000
  -12.5443  -42.5954   -8.3605 C   0  0  0  0  0  0  0  0  0  0  0  0
  -12.1171  -42.9640   -9.7846 C   0  0  0  0  0  0  0  0  0  0  0  0
  -10.6688  -42.5898   -9.9298 C   0  0  0  0  0  0  0  0  0  0  0  0
  -12.9825  -42.2044  -10.7381 C   0  0  0  0  0  0  0  0  0  0  0  0
  -13.2812  -40.8670  -10.5282 C   0  0  0  0  0  0  0  0  0  0  0  0
  -14.0816  -40.1534  -11.3942 C   0  0  0  0  0  0  0  0  0  0  0  0
  -14.3530  -38.7249  -11.0982 C   0  0  0  0  0  0  0  0  0  0  0  0
  -15.6824  -38.6001  -10.6227 N   0  0  0  0  0  0  0  0  0  0  0  0
  -15.9757  -39.0689   -9.3388 C   0  0  0  0  0  0  0  0  0  0  0  0
  -17.1174  -38.4585   -8.5963 C   0  0  1  0  0  0  0  0  0  0  0  0
  -18.0742  -38.1282   -9.5949 O   0  0  0  0  0  0  0  0  0  0  0  0
  -17.7717  -39.4767   -7.6451 C   0  0  2  0  0  0  0  0  0  0  0  0
  -18.6439  -38.8557   -6.6263 C   0  0  0  0  0  0  0  0  0  0  0  0
  -20.1236  -38.8188   -6.7857 C   0  0  0  0  0  0  0  0  0  0  0  0
  -21.0167  -39.7891   -7.1324 C   0  0  0  0  0  0  0  0  0  0  0  0
  -22.3559  -39.4878   -7.1562 C   0  0  0  0  0  0  0  0  0  0  0  0
  -23.5339  -40.3582   -7.4701 C   0  0  0  0  0  0  0  0  0  0  0  0
  -23.9768  -41.2560   -6.3442 C   0  0  0  0  0  0  0  0  0  0  0  0
  -23.2188  -42.5200   -6.1907 C   0  0  0  0  0  0  0  0  0  0  0  0
  -22.3620  -42.6545   -4.9876 C   0  0  0  0  0  0  0  0  0  0  0  0
  -21.2460  -43.4943   -5.0983 O   0  0  0  0  0  0  0  0  0  0  0  0
  -20.0469  -43.3991   -5.7936 C   0  0  0  0  0  0  0  0  0  0  0  0
  -19.0840  -42.4061   -5.7438 C   0  0  0  0  0  0  0  0  0  0  0  0
  -17.9814  -42.5510   -6.5513 C   0  0  0  0  0  0  0  0  0  0  0  0
  -17.8645  -43.6933   -7.3882 C   0  0  0  0  0  0  0  0  0  0  0  0
  -18.8005  -44.6888   -7.4525 C   0  0  0  0  0  0  0  0  0  0  0  0
  -19.8923  -44.5146   -6.6370 C   0  0  0  0  0  0  0  0  0  0  0  0
  -18.6455  -45.8006   -8.3033 N   0  0  0  0  0  0  0  0  0  0  0  0
  -19.1330  -45.9368   -9.6551 C   0  0  0  0  0  0  0  0  0  0  0  0
  -19.2127  -47.4207   -9.9290 C   0  0  0  0  0  0  0  0  0  0  0  0
  -18.6748  -48.1365   -8.7107 C   0  0  0  0  0  0  0  0  0  0  0  0
  -17.9798  -47.0207   -8.0046 C   0  0  0  0  0  0  0  0  0  0  0  0
  -16.9714  -47.2077   -7.2776 O   0  0  0  0  0  0  0  0  0  0  0  0
  -16.8209  -41.6709   -6.7898 C   0  0  0  0  0  0  0  0  0  0  0  0
  -15.6668  -42.2631   -6.8152 O   0  0  0  0  0  0  0  0  0  0  0  0
  -16.7419  -40.2750   -7.0018 N   0  0  0  0  0  0  0  0  0  0  0  0
  -22.7836  -38.1840   -6.8244 C   0  0  0  0  0  0  0  0  0  0  0  0
  -21.9333  -37.1713   -6.4707 C   0  0  0  0  0  0  0  0  0  0  0  0
  -20.6136  -37.5298   -6.4634 C   0  0  0  0  0  0  0  0  0  0  0  0
  -14.5596  -40.8205  -12.4571 N   0  0  0  0  0  0  0  0  0  0  0  0
  -14.2924  -42.1168  -12.6955 C   0  0  0  0  0  0  0  0  0  0  0  0
  -13.4931  -42.8541  -11.8421 C   0  0  0  0  0  0  0  0  0  0  0  0
  1  2  1  0
  2  3  1  0
  2  4  1  0
  4  5  2  0
  5  6  1  0
  6  7  1  0
  7  8  1  0
  8  9  1  0
  9 10  1  0
 10 11  1  6
 10 12  1  0
 12 13  1  1
 13 14  1  0
 14 15  1  0
 15 16  2  0
 16 17  1  0
 17 18  1  0
 18 19  1  0
 19 20  1  0
 20 21  1  0
 21 22  1  0
 22 23  1  0
 23 24  2  0
 24 25  1  0
 25 26  2  0
 26 27  1  0
 26 28  1  0
 28 29  1  0
 29 30  1  0
 30 31  1  0
 31 32  1  0
 32 33  2  0
 24 34  1  0
 34 35  2  0
 34 36  1  0
 16 37  1  0
 37 38  2  0
 38 39  1  0
  6 40  2  0
 40 41  1  0
 41 42  2  0
 27 22  2  0
 32 28  1  0
 36 12  1  0
 39 14  2  0
 42  4  1  0
M  END
$$$$
