
     RDKit          3D

 42 46  0  0  0  0  0  0  0  0999 V2000
  -11.1749  -43.5013   -9.8536 C   0  0  0  0  0  0  0  0  0  0  0  0
  -12.5930  -43.7771   -9.3446 C   0  0  0  0  0  0  0  0  0  0  0  0
  -12.8960  -45.2229   -9.6215 C   0  0  0  0  0  0  0  0  0  0  0  0
  -13.5303  -42.8669  -10.0715 C   0  0  0  0  0  0  0  0  0  0  0  0
  -13.8002  -41.5904   -9.6028 C   0  0  0  0  0  0  0  0  0  0  0  0
  -14.6657  -40.7406  -10.2576 C   0  0  0  0  0  0  0  0  0  0  0  0
  -14.9004  -39.3895   -9.6906 C   0  0  0  0  0  0  0  0  0  0  0  0
  -16.2624  -39.2814   -9.3133 N   0  0  0  0  0  0  0  0  0  0  0  0
  -16.9185  -38.0668   -9.5333 C   0  0  0  0  0  0  0  0  0  0  0  0
  -18.2307  -37.8292   -8.8633 C   0  0  1  0  0  0  0  0  0  0  0  0
  -19.2040  -37.9925   -9.8869 O   0  0  0  0  0  0  0  0  0  0  0  0
  -18.5071  -38.8933   -7.7858 C   0  0  2  0  0  0  0  0  0  0  0  0
  -19.3200  -38.3926   -6.6576 C   0  0  0  0  0  0  0  0  0  0  0  0
  -20.7822  -38.6588   -6.5727 C   0  0  0  0  0  0  0  0  0  0  0  0
  -21.4999  -39.8066   -6.7371 C   0  0  0  0  0  0  0  0  0  0  0  0
  -22.8597  -39.7777   -6.5499 C   0  0  0  0  0  0  0  0  0  0  0  0
  -23.8680  -40.8818   -6.6383 C   0  0  0  0  0  0  0  0  0  0  0  0
  -23.9378  -41.7752   -5.4272 C   0  0  0  0  0  0  0  0  0  0  0  0
  -22.9222  -42.8521   -5.3605 C   0  0  0  0  0  0  0  0  0  0  0  0
  -21.8806  -42.7373   -4.3109 C   0  0  0  0  0  0  0  0  0  0  0  0
  -20.6468  -43.3457   -4.5770 O   0  0  0  0  0  0  0  0  0  0  0  0
  -19.6150  -43.0605   -5.4626 C   0  0  0  0  0  0  0  0  0  0  0  0
  -18.8804  -41.8958   -5.6031 C   0  0  0  0  0  0  0  0  0  0  0  0
  -17.9100  -41.8718   -6.5760 C   0  0  0  0  0  0  0  0  0  0  0  0
  -17.6919  -43.0199   -7.3842 C   0  0  0  0  0  0  0  0  0  0  0  0
  -18.4022  -44.1826   -7.2623 C   0  0  0  0  0  0  0  0  0  0  0  0
  -19.3671  -44.1753   -6.2843 C   0  0  0  0  0  0  0  0  0  0  0  0
  -18.1558  -45.2942   -8.0915 N   0  0  0  0  0  0  0  0  0  0  0  0
  -18.1846  -45.3272   -9.5343 C   0  0  0  0  0  0  0  0  0  0  0  0
  -18.4069  -46.7712   -9.9204 C   0  0  0  0  0  0  0  0  0  0  0  0
  -18.4241  -47.5842   -8.6458 C   0  0  0  0  0  0  0  0  0  0  0  0
  -17.8315  -46.6152   -7.6781 C   0  0  0  0  0  0  0  0  0  0  0  0
  -17.1638  -46.9839   -6.6788 O   0  0  0  0  0  0  0  0  0  0  0  0
  -17.0058  -40.7971   -7.0295 C   0  0  0  0  0  0  0  0  0  0  0  0
  -15.7729  -41.1502   -7.2257 O   0  0  0  0  0  0  0  0  0  0  0  0
  -17.2486  -39.4296   -7.2957 N   0  0  0  0  0  0  0  0  0  0  0  0
  -23.4892  -38.5654   -6.1937 C   0  0  0  0  0  0  0  0  0  0  0  0
  -22.8205  -37.3842   -6.0167 C   0  0  0  0  0  0  0  0  0  0  0  0
  -21.4705  -37.4739   -6.2151 C   0  0  0  0  0  0  0  0  0  0  0  0
  -15.2367  -41.2120  -11.3779 N   0  0  0  0  0  0  0  0  0  0  0  0
  -15.0002  -42.4432  -11.8644 C   0  0  0  0  0  0  0  0  0  0  0  0
  -14.1371  -43.3142  -11.2262 C   0  0  0  0  0  0  0  0  0  0  0  0
  1  2  1  0
  2  3  1  0
  2  4  1  0
  4  5  2  0
  5  6  1  0
  6  7  1  0
  7  8  1  0
  8  9  1  0
  9 10  1  0
 10 11  1  6
 10 12  1  0
 12 13  1  1
 13 14  1  0
 14 15  1  0
 15 16  2  0
 16 17  1  0
 17 18  1  0
 18 19  1  0
 19 20  1  0
 20 21  1  0
 21 22  1  0
 22 23  1  0
 23 24  2  0
 24 25  1  0
 25 26  2  0
 26 27  1  0
 26 28  1  0
 28 29  1  0
 29 30  1  0
 30 31  1  0
 31 32  1  0
 32 33  2  0
 24 34  1  0
 34 35  2  0
 34 36  1  0
 16 37  1  0
 37 38  2  0
 38 39  1  0
  6 40  2  0
 40 41  1  0
 41 42  2  0
 27 22  2  0
 32 28  1  0
 36 12  1  0
 39 14  2  0
 42  4  1  0
M  END
$$$$
