
     RDKit          3D

 42 46  0  0  0  0  0  0  0  0999 V2000
  -12.5302  -36.6957  -13.4349 C   0  0  0  0  0  0  0  0  0  0  0  0
  -13.6890  -37.1105  -12.5231 C   0  0  0  0  0  0  0  0  0  0  0  0
  -14.2266  -35.8611  -11.8838 C   0  0  0  0  0  0  0  0  0  0  0  0
  -13.1564  -38.0671  -11.5050 C   0  0  0  0  0  0  0  0  0  0  0  0
  -14.0020  -38.9072  -10.7970 C   0  0  0  0  0  0  0  0  0  0  0  0
  -13.5283  -39.7910   -9.8512 C   0  0  0  0  0  0  0  0  0  0  0  0
  -14.4994  -40.6564   -9.1372 C   0  0  0  0  0  0  0  0  0  0  0  0
  -15.7626  -40.0136   -9.1242 N   0  0  0  0  0  0  0  0  0  0  0  0
  -15.8651  -38.7622   -8.5096 C   0  0  0  0  0  0  0  0  0  0  0  0
  -17.1989  -38.3157   -8.0107 C   0  0  1  0  0  0  0  0  0  0  0  0
  -17.9456  -38.0027   -9.1797 O   0  0  0  0  0  0  0  0  0  0  0  0
  -17.9325  -39.4568   -7.2830 C   0  0  2  0  0  0  0  0  0  0  0  0
  -19.0067  -38.9875   -6.3829 C   0  0  0  0  0  0  0  0  0  0  0  0
  -20.4365  -39.0147   -6.7964 C   0  0  0  0  0  0  0  0  0  0  0  0
  -21.1873  -39.9926   -7.3791 C   0  0  0  0  0  0  0  0  0  0  0  0
  -22.5207  -39.7630   -7.6115 C   0  0  0  0  0  0  0  0  0  0  0  0
  -23.5640  -40.6602   -8.2033 C   0  0  0  0  0  0  0  0  0  0  0  0
  -24.1279  -41.6876   -7.2565 C   0  0  0  0  0  0  0  0  0  0  0  0
  -23.3202  -42.9179   -7.0838 C   0  0  0  0  0  0  0  0  0  0  0  0
  -22.6734  -43.1244   -5.7653 C   0  0  0  0  0  0  0  0  0  0  0  0
  -21.4986  -43.8879   -5.7514 O   0  0  0  0  0  0  0  0  0  0  0  0
  -20.2084  -43.6599   -6.2137 C   0  0  0  0  0  0  0  0  0  0  0  0
  -19.3401  -42.6263   -5.9079 C   0  0  0  0  0  0  0  0  0  0  0  0
  -18.1088  -42.6310   -6.5184 C   0  0  0  0  0  0  0  0  0  0  0  0
  -17.7713  -43.6769   -7.4189 C   0  0  0  0  0  0  0  0  0  0  0  0
  -18.6105  -44.7101   -7.7344 C   0  0  0  0  0  0  0  0  0  0  0  0
  -19.8347  -44.6765   -7.1116 C   0  0  0  0  0  0  0  0  0  0  0  0
  -18.2353  -45.7223   -8.6392 N   0  0  0  0  0  0  0  0  0  0  0  0
  -18.0439  -45.5892  -10.0637 C   0  0  0  0  0  0  0  0  0  0  0  0
  -18.1979  -46.9762  -10.6431 C   0  0  0  0  0  0  0  0  0  0  0  0
  -18.4051  -47.9299   -9.4884 C   0  0  0  0  0  0  0  0  0  0  0  0
  -17.9715  -47.0861   -8.3366 C   0  0  0  0  0  0  0  0  0  0  0  0
  -17.4620  -47.5756   -7.2968 O   0  0  0  0  0  0  0  0  0  0  0  0
  -16.9894  -41.6705   -6.4703 C   0  0  0  0  0  0  0  0  0  0  0  0
  -15.8091  -42.1942   -6.3443 O   0  0  0  0  0  0  0  0  0  0  0  0
  -16.9736  -40.2582   -6.5414 N   0  0  0  0  0  0  0  0  0  0  0  0
  -23.0891  -38.5234   -7.2466 C   0  0  0  0  0  0  0  0  0  0  0  0
  -22.3846  -37.5063   -6.6610 C   0  0  0  0  0  0  0  0  0  0  0  0
  -21.0635  -37.7921   -6.4531 C   0  0  0  0  0  0  0  0  0  0  0  0
  -12.2008  -39.7990   -9.6490 N   0  0  0  0  0  0  0  0  0  0  0  0
  -11.3484  -39.0004  -10.3155 C   0  0  0  0  0  0  0  0  0  0  0  0
  -11.7985  -38.1055  -11.2681 C   0  0  0  0  0  0  0  0  0  0  0  0
  1  2  1  0
  2  3  1  0
  2  4  1  0
  4  5  2  0
  5  6  1  0
  6  7  1  0
  7  8  1  0
  8  9  1  0
  9 10  1  0
 10 11  1  6
 10 12  1  0
 12 13  1  1
 13 14  1  0
 14 15  1  0
 15 16  2  0
 16 17  1  0
 17 18  1  0
 18 19  1  0
 19 20  1  0
 20 21  1  0
 21 22  1  0
 22 23  1  0
 23 24  2  0
 24 25  1  0
 25 26  2  0
 26 27  1  0
 26 28  1  0
 28 29  1  0
 29 30  1  0
 30 31  1  0
 31 32  1  0
 32 33  2  0
 24 34  1  0
 34 35  2  0
 34 36  1  0
 16 37  1  0
 37 38  2  0
 38 39  1  0
  6 40  2  0
 40 41  1  0
 41 42  2  0
 27 22  2  0
 32 28  1  0
 36 12  1  0
 39 14  2  0
 42  4  1  0
M  END
$$$$
