
     RDKit          3D

 42 46  0  0  0  0  0  0  0  0999 V2000
  -17.6912  -45.8974   -7.6360 C   0  0  0  0  0  0  0  0  0  0  0  0
  -17.5058  -44.7267   -8.6062 C   0  0  0  0  0  0  0  0  0  0  0  0
  -16.0972  -44.7933   -9.1260 C   0  0  0  0  0  0  0  0  0  0  0  0
  -17.7582  -43.4591   -7.8547 C   0  0  0  0  0  0  0  0  0  0  0  0
  -16.8217  -42.4371   -7.8346 C   0  0  0  0  0  0  0  0  0  0  0  0
  -17.0361  -41.2646   -7.1425 C   0  0  0  0  0  0  0  0  0  0  0  0
  -15.9835  -40.2191   -7.1715 C   0  0  0  0  0  0  0  0  0  0  0  0
  -15.0545  -40.5328   -8.1950 N   0  0  0  0  0  0  0  0  0  0  0  0
  -15.2073  -39.9195   -9.4419 C   0  0  0  0  0  0  0  0  0  0  0  0
  -16.4775  -39.1917   -9.7320 C   0  0  1  0  0  0  0  0  0  0  0  0
  -16.9179  -39.7005  -10.9846 O   0  0  0  0  0  0  0  0  0  0  0  0
  -17.5605  -39.5233   -8.6895 C   0  0  2  0  0  0  0  0  0  0  0  0
  -18.1515  -38.3276   -8.0527 C   0  0  0  0  0  0  0  0  0  0  0  0
  -19.4631  -37.7785   -8.4935 C   0  0  0  0  0  0  0  0  0  0  0  0
  -20.6586  -38.3876   -8.7371 C   0  0  0  0  0  0  0  0  0  0  0  0
  -21.7402  -37.6200   -9.0920 C   0  0  0  0  0  0  0  0  0  0  0  0
  -23.1529  -38.0227   -9.3847 C   0  0  0  0  0  0  0  0  0  0  0  0
  -24.0051  -38.2757   -8.1682 C   0  0  0  0  0  0  0  0  0  0  0  0
  -23.8643  -39.6145   -7.5490 C   0  0  0  0  0  0  0  0  0  0  0  0
  -23.2238  -39.6793   -6.2129 C   0  0  0  0  0  0  0  0  0  0  0  0
  -22.5631  -40.8710   -5.8868 O   0  0  0  0  0  0  0  0  0  0  0  0
  -21.3945  -41.4682   -6.3427 C   0  0  0  0  0  0  0  0  0  0  0  0
  -20.1073  -40.9602   -6.3728 C   0  0  0  0  0  0  0  0  0  0  0  0
  -19.1203  -41.7642   -6.8905 C   0  0  0  0  0  0  0  0  0  0  0  0
  -19.4440  -43.0650   -7.3618 C   0  0  0  0  0  0  0  0  0  0  0  0
  -20.7070  -43.5900   -7.3397 C   0  0  0  0  0  0  0  0  0  0  0  0
  -21.6725  -42.7622   -6.8201 C   0  0  0  0  0  0  0  0  0  0  0  0
  -20.9826  -44.8833   -7.8251 N   0  0  0  0  0  0  0  0  0  0  0  0
  -21.1708  -45.2746   -9.2017 C   0  0  0  0  0  0  0  0  0  0  0  0
  -21.9569  -46.5647   -9.1715 C   0  0  0  0  0  0  0  0  0  0  0  0
  -22.1458  -46.9471   -7.7210 C   0  0  0  0  0  0  0  0  0  0  0  0
  -21.1364  -46.0705   -7.0582 C   0  0  0  0  0  0  0  0  0  0  0  0
  -20.5561  -46.3976   -5.9921 O   0  0  0  0  0  0  0  0  0  0  0  0
  -17.6838  -41.5212   -7.1264 C   0  0  0  0  0  0  0  0  0  0  0  0
  -16.8894  -42.4857   -6.7772 O   0  0  0  0  0  0  0  0  0  0  0  0
  -17.0085  -40.4074   -7.6770 N   0  0  0  0  0  0  0  0  0  0  0  0
  -21.5966  -36.2198   -9.1997 C   0  0  0  0  0  0  0  0  0  0  0  0
  -20.4224  -35.5554   -8.9686 C   0  0  0  0  0  0  0  0  0  0  0  0
  -19.3816  -36.3702   -8.6181 C   0  0  0  0  0  0  0  0  0  0  0  0
  -18.2030  -41.1599   -6.4861 N   0  0  0  0  0  0  0  0  0  0  0  0
  -19.1362  -42.1281   -6.4820 C   0  0  0  0  0  0  0  0  0  0  0  0
  -18.9449  -43.3131   -7.1676 C   0  0  0  0  0  0  0  0  0  0  0  0
  1  2  1  0
  2  3  1  0
  2  4  1  0
  4  5  2  0
  5  6  1  0
  6  7  1  0
  7  8  1  0
  8  9  1  0
  9 10  1  0
 10 11  1  6
 10 12  1  0
 12 13  1  1
 13 14  1  0
 14 15  1  0
 15 16  2  0
 16 17  1  0
 17 18  1  0
 18 19  1  0
 19 20  1  0
 20 21  1  0
 21 22  1  0
 22 23  1  0
 23 24  2  0
 24 25  1  0
 25 26  2  0
 26 27  1  0
 26 28  1  0
 28 29  1  0
 29 30  1  0
 30 31  1  0
 31 32  1  0
 32 33  2  0
 24 34  1  0
 34 35  2  0
 34 36  1  0
 16 37  1  0
 37 38  2  0
 38 39  1  0
  6 40  2  0
 40 41  1  0
 41 42  2  0
 27 22  2  0
 32 28  1  0
 36 12  1  0
 39 14  2  0
 42  4  1  0
M  END
$$$$
