
     RDKit          3D

 42 46  0  0  0  0  0  0  0  0999 V2000
  -13.6931  -36.0726  -12.4895 C   0  0  0  0  0  0  0  0  0  0  0  0
  -12.6578  -37.0853  -11.9908 C   0  0  0  0  0  0  0  0  0  0  0  0
  -11.5214  -37.0868  -12.9744 C   0  0  0  0  0  0  0  0  0  0  0  0
  -13.3209  -38.4228  -11.9104 C   0  0  0  0  0  0  0  0  0  0  0  0
  -13.9174  -38.8597  -10.7376 C   0  0  0  0  0  0  0  0  0  0  0  0
  -14.5281  -40.0919  -10.6447 C   0  0  0  0  0  0  0  0  0  0  0  0
  -15.1440  -40.4846   -9.3531 C   0  0  0  0  0  0  0  0  0  0  0  0
  -15.5222  -39.3129   -8.6509 N   0  0  0  0  0  0  0  0  0  0  0  0
  -16.3074  -38.3652   -9.3137 C   0  0  0  0  0  0  0  0  0  0  0  0
  -17.7661  -38.3003   -9.0047 C   0  0  1  0  0  0  0  0  0  0  0  0
  -18.4176  -38.6555  -10.2176 O   0  0  0  0  0  0  0  0  0  0  0  0
  -18.1582  -39.3447   -7.9440 C   0  0  2  0  0  0  0  0  0  0  0  0
  -19.0366  -38.8072   -6.8839 C   0  0  0  0  0  0  0  0  0  0  0  0
  -20.5091  -39.0246   -6.9080 C   0  0  0  0  0  0  0  0  0  0  0  0
  -21.2502  -40.1498   -7.1183 C   0  0  0  0  0  0  0  0  0  0  0  0
  -22.6185  -40.0747   -7.0346 C   0  0  0  0  0  0  0  0  0  0  0  0
  -23.6535  -41.1461   -7.1915 C   0  0  0  0  0  0  0  0  0  0  0  0
  -23.8441  -42.0254   -5.9830 C   0  0  0  0  0  0  0  0  0  0  0  0
  -22.8727  -43.1343   -5.8324 C   0  0  0  0  0  0  0  0  0  0  0  0
  -21.9099  -43.0439   -4.7080 C   0  0  0  0  0  0  0  0  0  0  0  0
  -20.6806  -43.6947   -4.8759 O   0  0  0  0  0  0  0  0  0  0  0  0
  -19.5761  -43.4516   -5.6829 C   0  0  0  0  0  0  0  0  0  0  0  0
  -18.7946  -42.3130   -5.7754 C   0  0  0  0  0  0  0  0  0  0  0  0
  -17.7534  -42.3297   -6.6723 C   0  0  0  0  0  0  0  0  0  0  0  0
  -17.5134  -43.4918   -7.4539 C   0  0  0  0  0  0  0  0  0  0  0  0
  -18.2692  -44.6295   -7.3781 C   0  0  0  0  0  0  0  0  0  0  0  0
  -19.3042  -44.5816   -6.4759 C   0  0  0  0  0  0  0  0  0  0  0  0
  -17.9982  -45.7562   -8.1788 N   0  0  0  0  0  0  0  0  0  0  0  0
  -17.8250  -45.7846   -9.6115 C   0  0  0  0  0  0  0  0  0  0  0  0
  -18.1060  -47.2049  -10.0440 C   0  0  0  0  0  0  0  0  0  0  0  0
  -18.3689  -48.0158   -8.7953 C   0  0  0  0  0  0  0  0  0  0  0  0
  -17.8432  -47.0999   -7.7411 C   0  0  0  0  0  0  0  0  0  0  0  0
  -17.3557  -47.5234   -6.6625 O   0  0  0  0  0  0  0  0  0  0  0  0
  -16.7823  -41.2895   -7.0635 C   0  0  0  0  0  0  0  0  0  0  0  0
  -15.5506  -41.6845   -7.1635 O   0  0  0  0  0  0  0  0  0  0  0  0
  -16.9587  -39.9173   -7.3565 N   0  0  0  0  0  0  0  0  0  0  0  0
  -23.2323  -38.8393   -6.7352 C   0  0  0  0  0  0  0  0  0  0  0  0
  -22.5399  -37.6790   -6.5163 C   0  0  0  0  0  0  0  0  0  0  0  0
  -21.1824  -37.8146   -6.6114 C   0  0  0  0  0  0  0  0  0  0  0  0
  -14.5178  -40.8518  -11.7518 N   0  0  0  0  0  0  0  0  0  0  0  0
  -13.9504  -40.4634  -12.9076 C   0  0  0  0  0  0  0  0  0  0  0  0
  -13.3313  -39.2332  -13.0261 C   0  0  0  0  0  0  0  0  0  0  0  0
  1  2  1  0
  2  3  1  0
  2  4  1  0
  4  5  2  0
  5  6  1  0
  6  7  1  0
  7  8  1  0
  8  9  1  0
  9 10  1  0
 10 11  1  6
 10 12  1  0
 12 13  1  1
 13 14  1  0
 14 15  1  0
 15 16  2  0
 16 17  1  0
 17 18  1  0
 18 19  1  0
 19 20  1  0
 20 21  1  0
 21 22  1  0
 22 23  1  0
 23 24  2  0
 24 25  1  0
 25 26  2  0
 26 27  1  0
 26 28  1  0
 28 29  1  0
 29 30  1  0
 30 31  1  0
 31 32  1  0
 32 33  2  0
 24 34  1  0
 34 35  2  0
 34 36  1  0
 16 37  1  0
 37 38  2  0
 38 39  1  0
  6 40  2  0
 40 41  1  0
 41 42  2  0
 27 22  2  0
 32 28  1  0
 36 12  1  0
 39 14  2  0
 42  4  1  0
M  END
$$$$
