
     RDKit          3D

 42 46  0  0  0  0  0  0  0  0999 V2000
  -11.8359  -36.4196  -11.7977 C   0  0  0  0  0  0  0  0  0  0  0  0
  -12.6995  -37.0669  -12.8845 C   0  0  0  0  0  0  0  0  0  0  0  0
  -13.8167  -36.1118  -13.1983 C   0  0  0  0  0  0  0  0  0  0  0  0
  -13.2155  -38.3654  -12.3527 C   0  0  0  0  0  0  0  0  0  0  0  0
  -13.9408  -38.4210  -11.1725 C   0  0  0  0  0  0  0  0  0  0  0  0
  -14.4191  -39.6101  -10.6653 C   0  0  0  0  0  0  0  0  0  0  0  0
  -15.1874  -39.5841   -9.3961 C   0  0  0  0  0  0  0  0  0  0  0  0
  -15.9842  -38.4122   -9.3670 N   0  0  0  0  0  0  0  0  0  0  0  0
  -17.2663  -38.4665   -9.9212 C   0  0  0  0  0  0  0  0  0  0  0  0
  -18.4358  -38.1311   -9.0568 C   0  0  1  0  0  0  0  0  0  0  0  0
  -19.5554  -38.1282   -9.9334 O   0  0  0  0  0  0  0  0  0  0  0  0
  -18.6778  -39.2224   -7.9984 C   0  0  2  0  0  0  0  0  0  0  0  0
  -19.5105  -38.7695   -6.8644 C   0  0  0  0  0  0  0  0  0  0  0  0
  -20.9628  -39.0878   -6.7887 C   0  0  0  0  0  0  0  0  0  0  0  0
  -21.6396  -40.2570   -6.9748 C   0  0  0  0  0  0  0  0  0  0  0  0
  -23.0000  -40.2786   -6.7914 C   0  0  0  0  0  0  0  0  0  0  0  0
  -23.9691  -41.4155   -6.9017 C   0  0  0  0  0  0  0  0  0  0  0  0
  -24.0108  -42.3313   -5.7061 C   0  0  0  0  0  0  0  0  0  0  0  0
  -22.9584  -43.3732   -5.6544 C   0  0  0  0  0  0  0  0  0  0  0  0
  -21.9242  -43.2401   -4.5998 C   0  0  0  0  0  0  0  0  0  0  0  0
  -20.6693  -43.8005   -4.8722 O   0  0  0  0  0  0  0  0  0  0  0  0
  -19.6457  -43.4645   -5.7496 C   0  0  0  0  0  0  0  0  0  0  0  0
  -18.9518  -42.2728   -5.8680 C   0  0  0  0  0  0  0  0  0  0  0  0
  -17.9803  -42.1984   -6.8372 C   0  0  0  0  0  0  0  0  0  0  0  0
  -17.7203  -43.3243   -7.6641 C   0  0  0  0  0  0  0  0  0  0  0  0
  -18.3900  -44.5129   -7.5642 C   0  0  0  0  0  0  0  0  0  0  0  0
  -19.3570  -44.5560   -6.5892 C   0  0  0  0  0  0  0  0  0  0  0  0
  -18.1028  -45.6011   -8.4113 N   0  0  0  0  0  0  0  0  0  0  0  0
  -17.1968  -45.6139   -9.5349 C   0  0  0  0  0  0  0  0  0  0  0  0
  -17.6319  -46.7614  -10.4166 C   0  0  0  0  0  0  0  0  0  0  0  0
  -18.7748  -47.4623   -9.7178 C   0  0  0  0  0  0  0  0  0  0  0  0
  -18.6496  -46.9112   -8.3368 C   0  0  0  0  0  0  0  0  0  0  0  0
  -18.9942  -47.5618   -7.3179 O   0  0  0  0  0  0  0  0  0  0  0  0
  -17.1130  -41.0854   -7.2697 C   0  0  0  0  0  0  0  0  0  0  0  0
  -15.8680  -41.3919   -7.4679 O   0  0  0  0  0  0  0  0  0  0  0  0
  -17.4026  -39.7228   -7.5134 N   0  0  0  0  0  0  0  0  0  0  0  0
  -23.6723  -39.0952   -6.4167 C   0  0  0  0  0  0  0  0  0  0  0  0
  -23.0457  -37.8946   -6.2176 C   0  0  0  0  0  0  0  0  0  0  0  0
  -21.6928  -37.9339   -6.4132 C   0  0  0  0  0  0  0  0  0  0  0  0
  -14.1474  -40.7175  -11.3747 N   0  0  0  0  0  0  0  0  0  0  0  0
  -13.4481  -40.7046  -12.5233 C   0  0  0  0  0  0  0  0  0  0  0  0
  -12.9574  -39.5254  -13.0522 C   0  0  0  0  0  0  0  0  0  0  0  0
  1  2  1  0
  2  3  1  0
  2  4  1  0
  4  5  2  0
  5  6  1  0
  6  7  1  0
  7  8  1  0
  8  9  1  0
  9 10  1  0
 10 11  1  6
 10 12  1  0
 12 13  1  1
 13 14  1  0
 14 15  1  0
 15 16  2  0
 16 17  1  0
 17 18  1  0
 18 19  1  0
 19 20  1  0
 20 21  1  0
 21 22  1  0
 22 23  1  0
 23 24  2  0
 24 25  1  0
 25 26  2  0
 26 27  1  0
 26 28  1  0
 28 29  1  0
 29 30  1  0
 30 31  1  0
 31 32  1  0
 32 33  2  0
 24 34  1  0
 34 35  2  0
 34 36  1  0
 16 37  1  0
 37 38  2  0
 38 39  1  0
  6 40  2  0
 40 41  1  0
 41 42  2  0
 27 22  2  0
 32 28  1  0
 36 12  1  0
 39 14  2  0
 42  4  1  0
M  END
$$$$
