
     RDKit          3D

 36 38  0  0  0  0  0  0  0  0999 V2000
  -11.8190  -35.6895  -14.8225 C   0  0  0  0  0  0  0  0  0  0  0  0
  -12.7639  -36.8004  -14.3557 C   0  0  0  0  0  0  0  0  0  0  0  0
  -12.4430  -37.1133  -12.8957 C   0  0  0  0  0  0  0  0  0  0  0  0
  -13.6146  -36.8599  -12.0040 C   0  0  0  0  0  0  0  0  0  0  0  0
  -13.5210  -37.5113  -10.7174 N   0  0  0  0  0  0  0  0  0  0  0  0
  -13.9519  -38.8569  -10.5601 C   0  0  0  0  0  0  0  0  0  0  0  0
  -14.6423  -39.3535  -11.4864 O   0  0  0  0  0  0  0  0  0  0  0  0
  -13.6011  -39.6521   -9.3450 C   0  0  2  0  0  0  0  0  0  0  0  0
  -12.6245  -40.7230   -9.7479 C   0  0  0  0  0  0  0  0  0  0  0  0
  -14.8420  -40.3586   -8.7799 C   0  0  0  0  0  0  0  0  0  0  0  0
  -15.8357  -39.2958   -8.4419 C   0  0  2  0  0  0  0  0  0  0  0  0
  -15.3810  -38.5709   -7.3552 O   0  0  0  0  0  0  0  0  0  0  0  0
  -17.2322  -39.7605   -8.2590 C   0  0  2  0  0  0  0  0  0  0  0  0
  -18.1243  -38.5232   -8.0320 C   0  0  0  0  0  0  0  0  0  0  0  0
  -19.5535  -38.8217   -7.7865 C   0  0  0  0  0  0  0  0  0  0  0  0
  -20.3623  -38.5584   -8.9392 C   0  0  0  0  0  0  0  0  0  0  0  0
  -21.7091  -38.7648   -8.9732 C   0  0  0  0  0  0  0  0  0  0  0  0
  -22.3022  -39.2441   -7.8546 C   0  0  0  0  0  0  0  0  0  0  0  0
  -23.7353  -39.4686   -7.8712 O   0  0  0  0  0  0  0  0  0  0  0  0
  -21.5762  -39.5304   -6.6770 C   0  0  0  0  0  0  0  0  0  0  0  0
  -22.5410  -40.0331   -5.6678 C   0  0  0  0  0  0  0  0  0  0  0  0
  -22.1073  -41.0150   -4.6546 C   0  0  0  0  0  0  0  0  0  0  0  0
  -21.5853  -40.5224   -3.4663 C   0  0  0  0  0  0  0  0  0  0  0  0
  -21.1434  -41.2765   -2.4092 C   0  0  0  0  0  0  0  0  0  0  0  0
  -21.2175  -42.6426   -2.5205 C   0  0  0  0  0  0  0  0  0  0  0  0
  -21.7309  -43.1593   -3.6881 C   0  0  0  0  0  0  0  0  0  0  0  0
  -22.1806  -42.4042   -4.7653 C   0  0  0  0  0  0  0  0  0  0  0  0
  -22.6539  -43.0843   -5.8365 O   0  0  0  0  0  0  0  0  0  0  0  0
  -22.4355  -43.1096   -7.2099 C   0  0  0  0  0  0  0  0  0  0  0  0
  -21.1315  -43.7304   -7.6390 C   0  0  0  0  0  0  0  0  0  0  0  0
  -19.9139  -43.2618   -6.9574 C   0  0  0  0  0  0  0  0  0  0  0  0
  -18.8921  -42.6122   -7.9033 C   0  0  0  0  0  0  0  0  0  0  0  0
  -17.7582  -42.0115   -7.1646 C   0  0  0  0  0  0  0  0  0  0  0  0
  -17.0805  -42.8324   -6.4491 O   0  0  0  0  0  0  0  0  0  0  0  0
  -17.3493  -40.6909   -7.1545 N   0  0  0  0  0  0  0  0  0  0  0  0
  -20.2238  -39.3105   -6.6748 C   0  0  0  0  0  0  0  0  0  0  0  0
  1  2  1  0
  2  3  1  0
  3  4  1  0
  4  5  1  0
  5  6  1  0
  6  7  2  0
  6  8  1  0
  8  9  1  6
  8 10  1  0
 10 11  1  0
 11 12  1  1
 11 13  1  0
 13 14  1  1
 14 15  1  0
 15 16  2  0
 16 17  1  0
 17 18  2  0
 18 19  1  0
 18 20  1  0
 20 21  1  0
 21 22  1  0
 22 23  2  0
 23 24  1  0
 24 25  2  0
 25 26  1  0
 26 27  2  0
 27 28  1  0
 28 29  1  0
 29 30  1  0
 30 31  1  0
 31 32  1  0
 32 33  1  0
 33 34  2  0
 33 35  1  0
 20 36  2  0
 27 22  1  0
 35 13  1  0
 36 15  1  0
M  END
$$$$
