
     RDKit          3D

 36 38  0  0  0  0  0  0  0  0999 V2000
  -12.9998  -36.9976  -15.9016 C   0  0  0  0  0  0  0  0  0  0  0  0
  -11.7100  -36.8580  -15.0882 C   0  0  0  0  0  0  0  0  0  0  0  0
  -12.0896  -36.4737  -13.6597 C   0  0  0  0  0  0  0  0  0  0  0  0
  -12.6011  -37.6460  -12.8876 C   0  0  0  0  0  0  0  0  0  0  0  0
  -13.0900  -37.3094  -11.5701 N   0  0  0  0  0  0  0  0  0  0  0  0
  -13.4706  -38.3341  -10.6613 C   0  0  0  0  0  0  0  0  0  0  0  0
  -13.1441  -39.5133  -10.9517 O   0  0  0  0  0  0  0  0  0  0  0  0
  -14.2281  -38.0269   -9.4107 C   0  0  2  0  0  0  0  0  0  0  0  0
  -13.2450  -37.5916   -8.3587 C   0  0  0  0  0  0  0  0  0  0  0  0
  -14.9345  -39.2829   -8.8799 C   0  0  0  0  0  0  0  0  0  0  0  0
  -15.9247  -38.8300   -7.8574 C   0  0  2  0  0  0  0  0  0  0  0  0
  -15.4339  -39.0986   -6.5924 O   0  0  0  0  0  0  0  0  0  0  0  0
  -17.3078  -39.3338   -8.0388 C   0  0  2  0  0  0  0  0  0  0  0  0
  -18.2842  -38.1886   -7.7020 C   0  0  0  0  0  0  0  0  0  0  0  0
  -19.7183  -38.5455   -7.7917 C   0  0  0  0  0  0  0  0  0  0  0  0
  -20.3265  -38.0282   -8.9812 C   0  0  0  0  0  0  0  0  0  0  0  0
  -21.6354  -38.2303   -9.3029 C   0  0  0  0  0  0  0  0  0  0  0  0
  -22.3899  -38.9593   -8.4473 C   0  0  0  0  0  0  0  0  0  0  0  0
  -23.7859  -39.1836   -8.7719 O   0  0  0  0  0  0  0  0  0  0  0  0
  -21.8664  -39.5053   -7.2542 C   0  0  0  0  0  0  0  0  0  0  0  0
  -22.9663  -40.2344   -6.5755 C   0  0  0  0  0  0  0  0  0  0  0  0
  -22.6683  -41.4211   -5.7498 C   0  0  0  0  0  0  0  0  0  0  0  0
  -22.3848  -41.2132   -4.4068 C   0  0  0  0  0  0  0  0  0  0  0  0
  -22.0973  -42.1883   -3.4861 C   0  0  0  0  0  0  0  0  0  0  0  0
  -22.0851  -43.4921   -3.9152 C   0  0  0  0  0  0  0  0  0  0  0  0
  -22.3626  -43.7282   -5.2423 C   0  0  0  0  0  0  0  0  0  0  0  0
  -22.6544  -42.7475   -6.1835 C   0  0  0  0  0  0  0  0  0  0  0  0
  -22.9013  -43.1645   -7.4480 O   0  0  0  0  0  0  0  0  0  0  0  0
  -22.4468  -42.8699   -8.7291 C   0  0  0  0  0  0  0  0  0  0  0  0
  -21.0599  -43.3657   -9.0457 C   0  0  0  0  0  0  0  0  0  0  0  0
  -20.0030  -43.0593   -8.0681 C   0  0  0  0  0  0  0  0  0  0  0  0
  -18.8650  -42.2017   -8.6426 C   0  0  0  0  0  0  0  0  0  0  0  0
  -17.9068  -41.7804   -7.5954 C   0  0  0  0  0  0  0  0  0  0  0  0
  -17.3249  -42.7400   -6.9744 O   0  0  0  0  0  0  0  0  0  0  0  0
  -17.5699  -40.4953   -7.2132 N   0  0  0  0  0  0  0  0  0  0  0  0
  -20.5470  -39.2827   -6.9589 C   0  0  0  0  0  0  0  0  0  0  0  0
  1  2  1  0
  2  3  1  0
  3  4  1  0
  4  5  1  0
  5  6  1  0
  6  7  2  0
  6  8  1  0
  8  9  1  1
  8 10  1  0
 10 11  1  0
 11 12  1  1
 11 13  1  0
 13 14  1  1
 14 15  1  0
 15 16  2  0
 16 17  1  0
 17 18  2  0
 18 19  1  0
 18 20  1  0
 20 21  1  0
 21 22  1  0
 22 23  2  0
 23 24  1  0
 24 25  2  0
 25 26  1  0
 26 27  2  0
 27 28  1  0
 28 29  1  0
 29 30  1  0
 30 31  1  0
 31 32  1  0
 32 33  1  0
 33 34  2  0
 33 35  1  0
 20 36  2  0
 27 22  1  0
 35 13  1  0
 36 15  1  0
M  END
$$$$
