
     RDKit          3D

 36 38  0  0  0  0  0  0  0  0999 V2000
  -14.8193  -35.3871  -13.4947 C   0  0  0  0  0  0  0  0  0  0  0  0
  -14.7474  -36.0556  -12.1189 C   0  0  0  0  0  0  0  0  0  0  0  0
  -13.2864  -36.3965  -11.8333 C   0  0  0  0  0  0  0  0  0  0  0  0
  -13.1213  -37.0589  -10.5043 C   0  0  0  0  0  0  0  0  0  0  0  0
  -12.8216  -38.4700  -10.5883 N   0  0  0  0  0  0  0  0  0  0  0  0
  -13.7349  -39.4305  -10.0740 C   0  0  0  0  0  0  0  0  0  0  0  0
  -14.5550  -39.9369  -10.8818 O   0  0  0  0  0  0  0  0  0  0  0  0
  -13.7242  -39.8250   -8.6331 C   0  0  2  0  0  0  0  0  0  0  0  0
  -12.6401  -40.8484   -8.4323 C   0  0  0  0  0  0  0  0  0  0  0  0
  -15.0526  -40.4878   -8.2405 C   0  0  0  0  0  0  0  0  0  0  0  0
  -16.0379  -39.3899   -8.0060 C   0  0  2  0  0  0  0  0  0  0  0  0
  -15.7554  -38.7686   -6.8029 O   0  0  0  0  0  0  0  0  0  0  0  0
  -17.4655  -39.7776   -8.1130 C   0  0  2  0  0  0  0  0  0  0  0  0
  -18.3120  -38.4890   -8.1460 C   0  0  0  0  0  0  0  0  0  0  0  0
  -19.7753  -38.7059   -8.2069 C   0  0  0  0  0  0  0  0  0  0  0  0
  -20.2979  -38.4730   -9.5203 C   0  0  0  0  0  0  0  0  0  0  0  0
  -21.6149  -38.6182   -9.8399 C   0  0  0  0  0  0  0  0  0  0  0  0
  -22.4635  -39.0032   -8.8579 C   0  0  0  0  0  0  0  0  0  0  0  0
  -23.8694  -39.1613   -9.1787 O   0  0  0  0  0  0  0  0  0  0  0  0
  -22.0283  -39.2537   -7.5374 C   0  0  0  0  0  0  0  0  0  0  0  0
  -23.2168  -39.6511   -6.7426 C   0  0  0  0  0  0  0  0  0  0  0  0
  -23.0712  -40.5913   -5.6140 C   0  0  0  0  0  0  0  0  0  0  0  0
  -22.7918  -40.0550   -4.3644 C   0  0  0  0  0  0  0  0  0  0  0  0
  -22.6346  -40.7657   -3.2020 C   0  0  0  0  0  0  0  0  0  0  0  0
  -22.7621  -42.1311   -3.2627 C   0  0  0  0  0  0  0  0  0  0  0  0
  -23.0390  -42.6907   -4.4891 C   0  0  0  0  0  0  0  0  0  0  0  0
  -23.1995  -41.9797   -5.6730 C   0  0  0  0  0  0  0  0  0  0  0  0
  -23.4676  -42.6984   -6.7889 O   0  0  0  0  0  0  0  0  0  0  0  0
  -22.9581  -42.8140   -8.0780 C   0  0  0  0  0  0  0  0  0  0  0  0
  -21.6305  -43.5188   -8.1803 C   0  0  0  0  0  0  0  0  0  0  0  0
  -20.5647  -43.0683   -7.2705 C   0  0  0  0  0  0  0  0  0  0  0  0
  -19.3259  -42.5234   -7.9979 C   0  0  0  0  0  0  0  0  0  0  0  0
  -18.3465  -41.9340   -7.0569 C   0  0  0  0  0  0  0  0  0  0  0  0
  -17.8892  -42.7423   -6.1723 O   0  0  0  0  0  0  0  0  0  0  0  0
  -17.8734  -40.6355   -7.0190 N   0  0  0  0  0  0  0  0  0  0  0  0
  -20.6982  -39.0971   -7.2482 C   0  0  0  0  0  0  0  0  0  0  0  0
  1  2  1  0
  2  3  1  0
  3  4  1  0
  4  5  1  0
  5  6  1  0
  6  7  2  0
  6  8  1  0
  8  9  1  6
  8 10  1  0
 10 11  1  0
 11 12  1  1
 11 13  1  0
 13 14  1  1
 14 15  1  0
 15 16  2  0
 16 17  1  0
 17 18  2  0
 18 19  1  0
 18 20  1  0
 20 21  1  0
 21 22  1  0
 22 23  2  0
 23 24  1  0
 24 25  2  0
 25 26  1  0
 26 27  2  0
 27 28  1  0
 28 29  1  0
 29 30  1  0
 30 31  1  0
 31 32  1  0
 32 33  1  0
 33 34  2  0
 33 35  1  0
 20 36  2  0
 27 22  1  0
 35 13  1  0
 36 15  1  0
M  END
$$$$
