
     RDKit          3D

 36 38  0  0  0  0  0  0  0  0999 V2000
  -12.4607  -37.0249  -15.2812 C   0  0  0  0  0  0  0  0  0  0  0  0
  -11.9980  -36.6818  -13.8624 C   0  0  0  0  0  0  0  0  0  0  0  0
  -13.0646  -35.8003  -13.2161 C   0  0  0  0  0  0  0  0  0  0  0  0
  -14.0036  -36.5965  -12.3698 C   0  0  0  0  0  0  0  0  0  0  0  0
  -13.5443  -36.7929  -11.0138 N   0  0  0  0  0  0  0  0  0  0  0  0
  -13.6211  -38.0766  -10.4078 C   0  0  0  0  0  0  0  0  0  0  0  0
  -13.7594  -39.0671  -11.1703 O   0  0  0  0  0  0  0  0  0  0  0  0
  -13.5413  -38.2465   -8.9257 C   0  0  2  0  0  0  0  0  0  0  0  0
  -12.1262  -38.6104   -8.5681 C   0  0  0  0  0  0  0  0  0  0  0  0
  -14.4386  -39.4029   -8.4613 C   0  0  0  0  0  0  0  0  0  0  0  0
  -15.5320  -38.8059   -7.6371 C   0  0  2  0  0  0  0  0  0  0  0  0
  -15.1842  -38.8665   -6.2997 O   0  0  0  0  0  0  0  0  0  0  0  0
  -16.8899  -39.3475   -7.8865 C   0  0  2  0  0  0  0  0  0  0  0  0
  -17.8973  -38.1843   -7.7840 C   0  0  0  0  0  0  0  0  0  0  0  0
  -19.3152  -38.5699   -7.9653 C   0  0  0  0  0  0  0  0  0  0  0  0
  -19.8084  -38.2073   -9.2605 C   0  0  0  0  0  0  0  0  0  0  0  0
  -21.0800  -38.4650   -9.6778 C   0  0  0  0  0  0  0  0  0  0  0  0
  -21.9108  -39.0973   -8.8160 C   0  0  0  0  0  0  0  0  0  0  0  0
  -23.2687  -39.3786   -9.2417 O   0  0  0  0  0  0  0  0  0  0  0  0
  -21.5022  -39.4891   -7.5216 C   0  0  0  0  0  0  0  0  0  0  0  0
  -22.6599  -40.1473   -6.8671 C   0  0  0  0  0  0  0  0  0  0  0  0
  -22.4389  -41.2224   -5.8801 C   0  0  0  0  0  0  0  0  0  0  0  0
  -22.2856  -40.8514   -4.5511 C   0  0  0  0  0  0  0  0  0  0  0  0
  -22.0848  -41.7051   -3.4967 C   0  0  0  0  0  0  0  0  0  0  0  0
  -22.0279  -43.0506   -3.7626 C   0  0  0  0  0  0  0  0  0  0  0  0
  -22.1766  -43.4476   -5.0718 C   0  0  0  0  0  0  0  0  0  0  0  0
  -22.3798  -42.5908   -6.1476 C   0  0  0  0  0  0  0  0  0  0  0  0
  -22.5035  -43.1595   -7.3703 O   0  0  0  0  0  0  0  0  0  0  0  0
  -21.9295  -43.0139   -8.6289 C   0  0  0  0  0  0  0  0  0  0  0  0
  -20.5173  -43.5241   -8.7508 C   0  0  0  0  0  0  0  0  0  0  0  0
  -19.5596  -43.0879   -7.7217 C   0  0  0  0  0  0  0  0  0  0  0  0
  -18.3742  -42.2889   -8.2851 C   0  0  0  0  0  0  0  0  0  0  0  0
  -17.5217  -41.7318   -7.2103 C   0  0  0  0  0  0  0  0  0  0  0  0
  -16.9991  -42.6018   -6.4260 O   0  0  0  0  0  0  0  0  0  0  0  0
  -17.2265  -40.4055   -6.9555 N   0  0  0  0  0  0  0  0  0  0  0  0
  -20.2177  -39.2139   -7.1318 C   0  0  0  0  0  0  0  0  0  0  0  0
  1  2  1  0
  2  3  1  0
  3  4  1  0
  4  5  1  0
  5  6  1  0
  6  7  2  0
  6  8  1  0
  8  9  1  6
  8 10  1  0
 10 11  1  0
 11 12  1  1
 11 13  1  0
 13 14  1  1
 14 15  1  0
 15 16  2  0
 16 17  1  0
 17 18  2  0
 18 19  1  0
 18 20  1  0
 20 21  1  0
 21 22  1  0
 22 23  2  0
 23 24  1  0
 24 25  2  0
 25 26  1  0
 26 27  2  0
 27 28  1  0
 28 29  1  0
 29 30  1  0
 30 31  1  0
 31 32  1  0
 32 33  1  0
 33 34  2  0
 33 35  1  0
 20 36  2  0
 27 22  1  0
 35 13  1  0
 36 15  1  0
M  END
$$$$
