
     RDKit          3D

 36 38  0  0  0  0  0  0  0  0999 V2000
  -15.8239  -34.3388  -11.5226 C   0  0  0  0  0  0  0  0  0  0  0  0
  -14.4900  -34.9513  -11.0864 C   0  0  0  0  0  0  0  0  0  0  0  0
  -14.2791  -36.2406  -11.8774 C   0  0  0  0  0  0  0  0  0  0  0  0
  -13.0149  -36.9323  -11.4832 C   0  0  0  0  0  0  0  0  0  0  0  0
  -13.1064  -37.6473  -10.2307 N   0  0  0  0  0  0  0  0  0  0  0  0
  -13.7697  -38.9030  -10.1668 C   0  0  0  0  0  0  0  0  0  0  0  0
  -14.5768  -39.1768  -11.0915 O   0  0  0  0  0  0  0  0  0  0  0  0
  -13.5209  -39.8615   -9.0481 C   0  0  2  0  0  0  0  0  0  0  0  0
  -12.6023  -40.9425   -9.5486 C   0  0  0  0  0  0  0  0  0  0  0  0
  -14.8274  -40.5413   -8.6133 C   0  0  0  0  0  0  0  0  0  0  0  0
  -15.7812  -39.4562   -8.2339 C   0  0  2  0  0  0  0  0  0  0  0  0
  -15.3717  -38.8799   -7.0450 O   0  0  0  0  0  0  0  0  0  0  0  0
  -17.2124  -39.8440   -8.2031 C   0  0  2  0  0  0  0  0  0  0  0  0
  -18.0475  -38.5772   -7.9273 C   0  0  0  0  0  0  0  0  0  0  0  0
  -19.5067  -38.8035   -7.8209 C   0  0  0  0  0  0  0  0  0  0  0  0
  -20.2021  -38.3847   -9.0014 C   0  0  0  0  0  0  0  0  0  0  0  0
  -21.5512  -38.4994   -9.1574 C   0  0  0  0  0  0  0  0  0  0  0  0
  -22.2604  -39.0389   -8.1382 C   0  0  0  0  0  0  0  0  0  0  0  0
  -23.6979  -39.1675   -8.2852 O   0  0  0  0  0  0  0  0  0  0  0  0
  -21.6508  -39.4775   -6.9416 C   0  0  0  0  0  0  0  0  0  0  0  0
  -22.7222  -40.0062   -6.0615 C   0  0  0  0  0  0  0  0  0  0  0  0
  -22.4300  -41.1022   -5.1169 C   0  0  0  0  0  0  0  0  0  0  0  0
  -21.9796  -40.7545   -3.8506 C   0  0  0  0  0  0  0  0  0  0  0  0
  -21.6697  -41.6285   -2.8400 C   0  0  0  0  0  0  0  0  0  0  0  0
  -21.8128  -42.9712   -3.0869 C   0  0  0  0  0  0  0  0  0  0  0  0
  -22.2578  -43.3453   -4.3343 C   0  0  0  0  0  0  0  0  0  0  0  0
  -22.5737  -42.4679   -5.3654 C   0  0  0  0  0  0  0  0  0  0  0  0
  -22.9960  -43.0156   -6.5296 O   0  0  0  0  0  0  0  0  0  0  0  0
  -22.6677  -42.9302   -7.8785 C   0  0  0  0  0  0  0  0  0  0  0  0
  -21.3709  -43.5926   -8.2645 C   0  0  0  0  0  0  0  0  0  0  0  0
  -20.1882  -43.2678   -7.4506 C   0  0  0  0  0  0  0  0  0  0  0  0
  -19.0568  -42.6026   -8.2494 C   0  0  0  0  0  0  0  0  0  0  0  0
  -17.9546  -42.1463   -7.3724 C   0  0  0  0  0  0  0  0  0  0  0  0
  -17.3860  -43.0711   -6.6893 O   0  0  0  0  0  0  0  0  0  0  0  0
  -17.4727  -40.8614   -7.2048 N   0  0  0  0  0  0  0  0  0  0  0  0
  -20.2927  -39.3468   -6.8154 C   0  0  0  0  0  0  0  0  0  0  0  0
  1  2  1  0
  2  3  1  0
  3  4  1  0
  4  5  1  0
  5  6  1  0
  6  7  2  0
  6  8  1  0
  8  9  1  6
  8 10  1  0
 10 11  1  0
 11 12  1  1
 11 13  1  0
 13 14  1  1
 14 15  1  0
 15 16  2  0
 16 17  1  0
 17 18  2  0
 18 19  1  0
 18 20  1  0
 20 21  1  0
 21 22  1  0
 22 23  2  0
 23 24  1  0
 24 25  2  0
 25 26  1  0
 26 27  2  0
 27 28  1  0
 28 29  1  0
 29 30  1  0
 30 31  1  0
 31 32  1  0
 32 33  1  0
 33 34  2  0
 33 35  1  0
 20 36  2  0
 27 22  1  0
 35 13  1  0
 36 15  1  0
M  END
$$$$
