
     RDKit          3D

 36 38  0  0  0  0  0  0  0  0999 V2000
   -9.1262  -36.2878  -12.0421 C   0  0  0  0  0  0  0  0  0  0  0  0
  -10.1338  -37.3186  -11.5253 C   0  0  0  0  0  0  0  0  0  0  0  0
  -11.3924  -37.2237  -12.3851 C   0  0  0  0  0  0  0  0  0  0  0  0
  -12.6233  -37.5507  -11.6041 C   0  0  0  0  0  0  0  0  0  0  0  0
  -12.6351  -38.8922  -11.0671 N   0  0  0  0  0  0  0  0  0  0  0  0
  -13.3748  -39.1885   -9.8897 C   0  0  0  0  0  0  0  0  0  0  0  0
  -12.9893  -38.6569   -8.8172 O   0  0  0  0  0  0  0  0  0  0  0  0
  -14.5624  -40.0943   -9.9210 C   0  0  2  0  0  0  0  0  0  0  0  0
  -15.6441  -39.4263  -10.7250 C   0  0  0  0  0  0  0  0  0  0  0  0
  -15.1176  -40.3128   -8.5060 C   0  0  0  0  0  0  0  0  0  0  0  0
  -16.0075  -39.1527   -8.2002 C   0  0  2  0  0  0  0  0  0  0  0  0
  -15.5954  -38.5559   -7.0224 O   0  0  0  0  0  0  0  0  0  0  0  0
  -17.4617  -39.4444   -8.1999 C   0  0  2  0  0  0  0  0  0  0  0  0
  -18.2161  -38.1250   -7.9382 C   0  0  0  0  0  0  0  0  0  0  0  0
  -19.6891  -38.2537   -7.8626 C   0  0  0  0  0  0  0  0  0  0  0  0
  -20.3303  -37.7882   -9.0561 C   0  0  0  0  0  0  0  0  0  0  0  0
  -21.6806  -37.8126   -9.2402 C   0  0  0  0  0  0  0  0  0  0  0  0
  -22.4451  -38.3048   -8.2372 C   0  0  0  0  0  0  0  0  0  0  0  0
  -23.8846  -38.3372   -8.4142 O   0  0  0  0  0  0  0  0  0  0  0  0
  -21.8911  -38.7843   -7.0294 C   0  0  0  0  0  0  0  0  0  0  0  0
  -23.0134  -39.2413   -6.1728 C   0  0  0  0  0  0  0  0  0  0  0  0
  -22.8145  -40.3554   -5.2251 C   0  0  0  0  0  0  0  0  0  0  0  0
  -22.3682  -40.0398   -3.9489 C   0  0  0  0  0  0  0  0  0  0  0  0
  -22.1383  -40.9336   -2.9343 C   0  0  0  0  0  0  0  0  0  0  0  0
  -22.3654  -42.2635   -3.1874 C   0  0  0  0  0  0  0  0  0  0  0  0
  -22.8083  -42.6058   -4.4446 C   0  0  0  0  0  0  0  0  0  0  0  0
  -23.0436  -41.7082   -5.4798 C   0  0  0  0  0  0  0  0  0  0  0  0
  -23.4771  -42.2254   -6.6538 O   0  0  0  0  0  0  0  0  0  0  0  0
  -23.1160  -42.1605   -7.9954 C   0  0  0  0  0  0  0  0  0  0  0  0
  -21.8584  -42.9075   -8.3563 C   0  0  0  0  0  0  0  0  0  0  0  0
  -20.6739  -42.6631   -7.5173 C   0  0  0  0  0  0  0  0  0  0  0  0
  -19.4843  -42.0739   -8.2910 C   0  0  0  0  0  0  0  0  0  0  0  0
  -18.3726  -41.6930   -7.3903 C   0  0  0  0  0  0  0  0  0  0  0  0
  -17.8812  -42.6543   -6.6979 O   0  0  0  0  0  0  0  0  0  0  0  0
  -17.8098  -40.4433   -7.2097 N   0  0  0  0  0  0  0  0  0  0  0  0
  -20.5302  -38.7445   -6.8748 C   0  0  0  0  0  0  0  0  0  0  0  0
  1  2  1  0
  2  3  1  0
  3  4  1  0
  4  5  1  0
  5  6  1  0
  6  7  2  0
  6  8  1  0
  8  9  1  6
  8 10  1  0
 10 11  1  0
 11 12  1  1
 11 13  1  0
 13 14  1  1
 14 15  1  0
 15 16  2  0
 16 17  1  0
 17 18  2  0
 18 19  1  0
 18 20  1  0
 20 21  1  0
 21 22  1  0
 22 23  2  0
 23 24  1  0
 24 25  2  0
 25 26  1  0
 26 27  2  0
 27 28  1  0
 28 29  1  0
 29 30  1  0
 30 31  1  0
 31 32  1  0
 32 33  1  0
 33 34  2  0
 33 35  1  0
 20 36  2  0
 27 22  1  0
 35 13  1  0
 36 15  1  0
M  END
$$$$
