
     RDKit          3D

 36 38  0  0  0  0  0  0  0  0999 V2000
  -12.0961  -35.6946  -13.9845 C   0  0  0  0  0  0  0  0  0  0  0  0
  -12.1590  -35.1832  -12.5425 C   0  0  0  0  0  0  0  0  0  0  0  0
  -13.0561  -36.1263  -11.7437 C   0  0  0  0  0  0  0  0  0  0  0  0
  -12.4804  -37.5025  -11.6622 C   0  0  0  0  0  0  0  0  0  0  0  0
  -12.6548  -38.1332  -10.3738 N   0  0  0  0  0  0  0  0  0  0  0  0
  -13.4874  -39.2779  -10.2407 C   0  0  0  0  0  0  0  0  0  0  0  0
  -14.3427  -39.4767  -11.1409 O   0  0  0  0  0  0  0  0  0  0  0  0
  -13.3549  -40.2092   -9.0801 C   0  0  2  0  0  0  0  0  0  0  0  0
  -12.6016  -41.4284   -9.5372 C   0  0  0  0  0  0  0  0  0  0  0  0
  -14.7353  -40.6815   -8.6010 C   0  0  0  0  0  0  0  0  0  0  0  0
  -15.6868  -39.5518   -8.8233 C   0  0  2  0  0  0  0  0  0  0  0  0
  -15.3200  -38.4796   -8.0301 O   0  0  0  0  0  0  0  0  0  0  0  0
  -17.1241  -39.8878   -8.6789 C   0  0  2  0  0  0  0  0  0  0  0  0
  -17.9179  -38.5695   -8.5778 C   0  0  0  0  0  0  0  0  0  0  0  0
  -19.3764  -38.7334   -8.3835 C   0  0  0  0  0  0  0  0  0  0  0  0
  -20.1094  -38.4863   -9.5893 C   0  0  0  0  0  0  0  0  0  0  0  0
  -21.4661  -38.5847   -9.6756 C   0  0  0  0  0  0  0  0  0  0  0  0
  -22.1454  -38.9354   -8.5583 C   0  0  0  0  0  0  0  0  0  0  0  0
  -23.5902  -39.0435   -8.6303 O   0  0  0  0  0  0  0  0  0  0  0  0
  -21.4979  -39.1968   -7.3303 C   0  0  0  0  0  0  0  0  0  0  0  0
  -22.5444  -39.5482   -6.3386 C   0  0  0  0  0  0  0  0  0  0  0  0
  -22.2393  -40.4891   -5.2430 C   0  0  0  0  0  0  0  0  0  0  0  0
  -21.7297  -39.9589   -4.0655 C   0  0  0  0  0  0  0  0  0  0  0  0
  -21.3992  -40.6708   -2.9408 C   0  0  0  0  0  0  0  0  0  0  0  0
  -21.5831  -42.0309   -2.9654 C   0  0  0  0  0  0  0  0  0  0  0  0
  -22.0871  -42.5843   -4.1203 C   0  0  0  0  0  0  0  0  0  0  0  0
  -22.4245  -41.8721   -5.2656 C   0  0  0  0  0  0  0  0  0  0  0  0
  -22.9063  -42.5845   -6.3115 O   0  0  0  0  0  0  0  0  0  0  0  0
  -22.6315  -42.7230   -7.6679 C   0  0  0  0  0  0  0  0  0  0  0  0
  -21.3670  -43.4758   -7.9908 C   0  0  0  0  0  0  0  0  0  0  0  0
  -20.1450  -43.0611   -7.2828 C   0  0  0  0  0  0  0  0  0  0  0  0
  -19.0320  -42.5640   -8.2181 C   0  0  0  0  0  0  0  0  0  0  0  0
  -17.8848  -42.0071   -7.4658 C   0  0  0  0  0  0  0  0  0  0  0  0
  -17.3103  -42.8285   -6.6655 O   0  0  0  0  0  0  0  0  0  0  0  0
  -17.3669  -40.7266   -7.5226 N   0  0  0  0  0  0  0  0  0  0  0  0
  -20.1331  -39.0876   -7.2762 C   0  0  0  0  0  0  0  0  0  0  0  0
  1  2  1  0
  2  3  1  0
  3  4  1  0
  4  5  1  0
  5  6  1  0
  6  7  2  0
  6  8  1  0
  8  9  1  6
  8 10  1  0
 10 11  1  0
 11 12  1  1
 11 13  1  0
 13 14  1  1
 14 15  1  0
 15 16  2  0
 16 17  1  0
 17 18  2  0
 18 19  1  0
 18 20  1  0
 20 21  1  0
 21 22  1  0
 22 23  2  0
 23 24  1  0
 24 25  2  0
 25 26  1  0
 26 27  2  0
 27 28  1  0
 28 29  1  0
 29 30  1  0
 30 31  1  0
 31 32  1  0
 32 33  1  0
 33 34  2  0
 33 35  1  0
 20 36  2  0
 27 22  1  0
 35 13  1  0
 36 15  1  0
M  END
$$$$
