
     RDKit          3D

 36 38  0  0  0  0  0  0  0  0999 V2000
  -10.1624  -35.0770  -11.8469 C   0  0  0  0  0  0  0  0  0  0  0  0
  -10.8882  -36.4231  -11.7691 C   0  0  0  0  0  0  0  0  0  0  0  0
  -12.3913  -36.1532  -11.7898 C   0  0  0  0  0  0  0  0  0  0  0  0
  -13.1823  -37.4205  -11.7745 C   0  0  0  0  0  0  0  0  0  0  0  0
  -13.3206  -38.0068  -10.4609 N   0  0  0  0  0  0  0  0  0  0  0  0
  -14.0005  -39.2441  -10.2942 C   0  0  0  0  0  0  0  0  0  0  0  0
  -14.8672  -39.5465  -11.1538 O   0  0  0  0  0  0  0  0  0  0  0  0
  -13.7007  -40.1513   -9.1456 C   0  0  2  0  0  0  0  0  0  0  0  0
  -12.9522  -41.3457   -9.6708 C   0  0  0  0  0  0  0  0  0  0  0  0
  -14.9982  -40.6720   -8.5103 C   0  0  0  0  0  0  0  0  0  0  0  0
  -15.9772  -39.5439   -8.5252 C   0  0  2  0  0  0  0  0  0  0  0  0
  -15.6355  -38.6265   -7.5480 O   0  0  0  0  0  0  0  0  0  0  0  0
  -17.4057  -39.9353   -8.4493 C   0  0  2  0  0  0  0  0  0  0  0  0
  -18.2507  -38.6499   -8.3389 C   0  0  0  0  0  0  0  0  0  0  0  0
  -19.7087  -38.8717   -8.2086 C   0  0  0  0  0  0  0  0  0  0  0  0
  -20.4026  -38.6114   -9.4345 C   0  0  0  0  0  0  0  0  0  0  0  0
  -21.7503  -38.7550   -9.5784 C   0  0  0  0  0  0  0  0  0  0  0  0
  -22.4594  -39.1660   -8.5009 C   0  0  0  0  0  0  0  0  0  0  0  0
  -23.8954  -39.3229   -8.6342 O   0  0  0  0  0  0  0  0  0  0  0  0
  -21.8512  -39.4445   -7.2566 C   0  0  0  0  0  0  0  0  0  0  0  0
  -22.9220  -39.8651   -6.3193 C   0  0  0  0  0  0  0  0  0  0  0  0
  -22.6256  -40.8300   -5.2424 C   0  0  0  0  0  0  0  0  0  0  0  0
  -22.1822  -40.3210   -4.0293 C   0  0  0  0  0  0  0  0  0  0  0  0
  -21.8699  -41.0573   -2.9151 C   0  0  0  0  0  0  0  0  0  0  0  0
  -22.0026  -42.4215   -2.9898 C   0  0  0  0  0  0  0  0  0  0  0  0
  -22.4404  -42.9543   -4.1808 C   0  0  0  0  0  0  0  0  0  0  0  0
  -22.7588  -42.2173   -5.3158 C   0  0  0  0  0  0  0  0  0  0  0  0
  -23.1729  -42.9115   -6.4021 O   0  0  0  0  0  0  0  0  0  0  0  0
  -22.8404  -42.9956   -7.7500 C   0  0  0  0  0  0  0  0  0  0  0  0
  -21.5375  -43.6921   -8.0453 C   0  0  0  0  0  0  0  0  0  0  0  0
  -20.3601  -43.2578   -7.2760 C   0  0  0  0  0  0  0  0  0  0  0  0
  -19.2305  -42.6911   -8.1498 C   0  0  0  0  0  0  0  0  0  0  0  0
  -18.1347  -42.1189   -7.3349 C   0  0  0  0  0  0  0  0  0  0  0  0
  -17.5621  -42.9451   -6.5383 O   0  0  0  0  0  0  0  0  0  0  0  0
  -17.6625  -40.8196   -7.3306 N   0  0  0  0  0  0  0  0  0  0  0  0
  -20.4945  -39.2887   -7.1443 C   0  0  0  0  0  0  0  0  0  0  0  0
  1  2  1  0
  2  3  1  0
  3  4  1  0
  4  5  1  0
  5  6  1  0
  6  7  2  0
  6  8  1  0
  8  9  1  6
  8 10  1  0
 10 11  1  0
 11 12  1  1
 11 13  1  0
 13 14  1  1
 14 15  1  0
 15 16  2  0
 16 17  1  0
 17 18  2  0
 18 19  1  0
 18 20  1  0
 20 21  1  0
 21 22  1  0
 22 23  2  0
 23 24  1  0
 24 25  2  0
 25 26  1  0
 26 27  2  0
 27 28  1  0
 28 29  1  0
 29 30  1  0
 30 31  1  0
 31 32  1  0
 32 33  1  0
 33 34  2  0
 33 35  1  0
 20 36  2  0
 27 22  1  0
 35 13  1  0
 36 15  1  0
M  END
$$$$
