
     RDKit          3D

 36 38  0  0  0  0  0  0  0  0999 V2000
  -10.6027  -34.9819  -13.2827 C   0  0  0  0  0  0  0  0  0  0  0  0
  -11.7226  -36.0040  -13.4974 C   0  0  0  0  0  0  0  0  0  0  0  0
  -12.2684  -36.4039  -12.1283 C   0  0  0  0  0  0  0  0  0  0  0  0
  -13.4798  -37.2703  -12.2460 C   0  0  0  0  0  0  0  0  0  0  0  0
  -14.1600  -37.4969  -10.9913 N   0  0  0  0  0  0  0  0  0  0  0  0
  -14.5698  -38.8072  -10.6224 C   0  0  0  0  0  0  0  0  0  0  0  0
  -15.2134  -39.4716  -11.4743 O   0  0  0  0  0  0  0  0  0  0  0  0
  -14.2509  -39.3756   -9.2780 C   0  0  2  0  0  0  0  0  0  0  0  0
  -13.1812  -40.4193   -9.4488 C   0  0  0  0  0  0  0  0  0  0  0  0
  -15.4783  -40.0773   -8.6788 C   0  0  0  0  0  0  0  0  0  0  0  0
  -16.5007  -39.0213   -8.4125 C   0  0  2  0  0  0  0  0  0  0  0  0
  -16.1157  -38.2766   -7.3123 O   0  0  0  0  0  0  0  0  0  0  0  0
  -17.9003  -39.4991   -8.3019 C   0  0  2  0  0  0  0  0  0  0  0  0
  -18.8150  -38.2699   -8.1261 C   0  0  0  0  0  0  0  0  0  0  0  0
  -20.2521  -38.5817   -7.9552 C   0  0  0  0  0  0  0  0  0  0  0  0
  -21.0016  -38.3293   -9.1498 C   0  0  0  0  0  0  0  0  0  0  0  0
  -22.3427  -38.5489   -9.2540 C   0  0  0  0  0  0  0  0  0  0  0  0
  -22.9893  -39.0311   -8.1667 C   0  0  0  0  0  0  0  0  0  0  0  0
  -24.4173  -39.2695   -8.2580 O   0  0  0  0  0  0  0  0  0  0  0  0
  -22.3236  -39.3072   -6.9516 C   0  0  0  0  0  0  0  0  0  0  0  0
  -23.3354  -39.8166   -5.9930 C   0  0  0  0  0  0  0  0  0  0  0  0
  -22.9463  -40.7917   -4.9553 C   0  0  0  0  0  0  0  0  0  0  0  0
  -22.4923  -40.2909   -3.7427 C   0  0  0  0  0  0  0  0  0  0  0  0
  -22.0996  -41.0378   -2.6615 C   0  0  0  0  0  0  0  0  0  0  0  0
  -22.1546  -42.4049   -2.7723 C   0  0  0  0  0  0  0  0  0  0  0  0
  -22.6008  -42.9296   -3.9637 C   0  0  0  0  0  0  0  0  0  0  0  0
  -23.0004  -42.1818   -5.0655 C   0  0  0  0  0  0  0  0  0  0  0  0
  -23.4099  -42.8692   -6.1579 O   0  0  0  0  0  0  0  0  0  0  0  0
  -23.1192  -42.8960   -7.5178 C   0  0  0  0  0  0  0  0  0  0  0  0
  -21.7886  -43.5051   -7.8757 C   0  0  0  0  0  0  0  0  0  0  0  0
  -20.6132  -43.0229   -7.1325 C   0  0  0  0  0  0  0  0  0  0  0  0
  -19.5492  -42.3659   -8.0252 C   0  0  0  0  0  0  0  0  0  0  0  0
  -18.4616  -41.7523   -7.2297 C   0  0  0  0  0  0  0  0  0  0  0  0
  -17.8147  -42.5647   -6.4770 O   0  0  0  0  0  0  0  0  0  0  0  0
  -18.0665  -40.4277   -7.2022 N   0  0  0  0  0  0  0  0  0  0  0  0
  -20.9754  -39.0741   -6.8789 C   0  0  0  0  0  0  0  0  0  0  0  0
  1  2  1  0
  2  3  1  0
  3  4  1  0
  4  5  1  0
  5  6  1  0
  6  7  2  0
  6  8  1  0
  8  9  1  6
  8 10  1  0
 10 11  1  0
 11 12  1  1
 11 13  1  0
 13 14  1  1
 14 15  1  0
 15 16  2  0
 16 17  1  0
 17 18  2  0
 18 19  1  0
 18 20  1  0
 20 21  1  0
 21 22  1  0
 22 23  2  0
 23 24  1  0
 24 25  2  0
 25 26  1  0
 26 27  2  0
 27 28  1  0
 28 29  1  0
 29 30  1  0
 30 31  1  0
 31 32  1  0
 32 33  1  0
 33 34  2  0
 33 35  1  0
 20 36  2  0
 27 22  1  0
 35 13  1  0
 36 15  1  0
M  END
$$$$
