
     RDKit          3D

 36 38  0  0  0  0  0  0  0  0999 V2000
   -9.7626  -35.7424  -12.5468 C   0  0  0  0  0  0  0  0  0  0  0  0
  -10.4358  -36.8048  -13.4203 C   0  0  0  0  0  0  0  0  0  0  0  0
  -11.5880  -37.4131  -12.6236 C   0  0  0  0  0  0  0  0  0  0  0  0
  -11.3382  -38.8493  -12.2963 C   0  0  0  0  0  0  0  0  0  0  0  0
  -12.4477  -39.4996  -11.6372 N   0  0  0  0  0  0  0  0  0  0  0  0
  -12.8742  -39.0667  -10.3521 C   0  0  0  0  0  0  0  0  0  0  0  0
  -12.0117  -39.0386   -9.4373 O   0  0  0  0  0  0  0  0  0  0  0  0
  -14.2887  -38.6606  -10.0944 C   0  0  2  0  0  0  0  0  0  0  0  0
  -14.2787  -37.3085   -9.4354 C   0  0  0  0  0  0  0  0  0  0  0  0
  -14.9659  -39.6356   -9.1202 C   0  0  0  0  0  0  0  0  0  0  0  0
  -15.9447  -38.8435   -8.3167 C   0  0  2  0  0  0  0  0  0  0  0  0
  -15.4427  -38.6501   -7.0424 O   0  0  0  0  0  0  0  0  0  0  0  0
  -17.3311  -39.3698   -8.2973 C   0  0  2  0  0  0  0  0  0  0  0  0
  -18.2777  -38.2155   -7.9099 C   0  0  0  0  0  0  0  0  0  0  0  0
  -19.7059  -38.5902   -7.8019 C   0  0  0  0  0  0  0  0  0  0  0  0
  -20.4632  -38.1501   -8.9355 C   0  0  0  0  0  0  0  0  0  0  0  0
  -21.7982  -38.3828   -9.0816 C   0  0  0  0  0  0  0  0  0  0  0  0
  -22.4305  -39.0666   -8.0991 C   0  0  0  0  0  0  0  0  0  0  0  0
  -23.8519  -39.3223   -8.2361 O   0  0  0  0  0  0  0  0  0  0  0  0
  -21.7563  -39.5359   -6.9497 C   0  0  0  0  0  0  0  0  0  0  0  0
  -22.7531  -40.2333   -6.0999 C   0  0  0  0  0  0  0  0  0  0  0  0
  -22.3372  -41.3660   -5.2499 C   0  0  0  0  0  0  0  0  0  0  0  0
  -21.8951  -41.0761   -3.9662 C   0  0  0  0  0  0  0  0  0  0  0  0
  -21.4815  -41.9921   -3.0329 C   0  0  0  0  0  0  0  0  0  0  0  0
  -21.5005  -43.3190   -3.3841 C   0  0  0  0  0  0  0  0  0  0  0  0
  -21.9342  -43.6360   -4.6511 C   0  0  0  0  0  0  0  0  0  0  0  0
  -22.3547  -42.7157   -5.6045 C   0  0  0  0  0  0  0  0  0  0  0  0
  -22.7473  -43.2093   -6.8028 O   0  0  0  0  0  0  0  0  0  0  0  0
  -22.4576  -42.9873   -8.1449 C   0  0  0  0  0  0  0  0  0  0  0  0
  -21.1119  -43.4884   -8.6003 C   0  0  0  0  0  0  0  0  0  0  0  0
  -19.9486  -43.1148   -7.7794 C   0  0  0  0  0  0  0  0  0  0  0  0
  -18.9034  -42.2825   -8.5381 C   0  0  0  0  0  0  0  0  0  0  0  0
  -17.8315  -41.7911   -7.6427 C   0  0  0  0  0  0  0  0  0  0  0  0
  -17.1625  -42.7067   -7.0434 O   0  0  0  0  0  0  0  0  0  0  0  0
  -17.4714  -40.4825   -7.3799 N   0  0  0  0  0  0  0  0  0  0  0  0
  -20.4146  -39.2841   -6.8322 C   0  0  0  0  0  0  0  0  0  0  0  0
  1  2  1  0
  2  3  1  0
  3  4  1  0
  4  5  1  0
  5  6  1  0
  6  7  2  0
  6  8  1  0
  8  9  1  1
  8 10  1  0
 10 11  1  0
 11 12  1  1
 11 13  1  0
 13 14  1  1
 14 15  1  0
 15 16  2  0
 16 17  1  0
 17 18  2  0
 18 19  1  0
 18 20  1  0
 20 21  1  0
 21 22  1  0
 22 23  2  0
 23 24  1  0
 24 25  2  0
 25 26  1  0
 26 27  2  0
 27 28  1  0
 28 29  1  0
 29 30  1  0
 30 31  1  0
 31 32  1  0
 32 33  1  0
 33 34  2  0
 33 35  1  0
 20 36  2  0
 27 22  1  0
 35 13  1  0
 36 15  1  0
M  END
$$$$
