
     RDKit          3D

 36 38  0  0  0  0  0  0  0  0999 V2000
  -13.9297  -34.8389  -12.3102 C   0  0  0  0  0  0  0  0  0  0  0  0
  -12.9721  -35.9172  -11.7953 C   0  0  0  0  0  0  0  0  0  0  0  0
  -13.5115  -37.2778  -12.2312 C   0  0  0  0  0  0  0  0  0  0  0  0
  -12.5801  -38.3868  -11.8644 C   0  0  0  0  0  0  0  0  0  0  0  0
  -12.6145  -38.7392  -10.4634 N   0  0  0  0  0  0  0  0  0  0  0  0
  -13.5190  -39.7303   -9.9936 C   0  0  0  0  0  0  0  0  0  0  0  0
  -14.4196  -40.1106  -10.7846 O   0  0  0  0  0  0  0  0  0  0  0  0
  -13.4076  -40.2994   -8.6168 C   0  0  2  0  0  0  0  0  0  0  0  0
  -12.5044  -41.5009   -8.6746 C   0  0  0  0  0  0  0  0  0  0  0  0
  -14.7761  -40.7837   -8.1158 C   0  0  0  0  0  0  0  0  0  0  0  0
  -15.6771  -39.5928   -8.0814 C   0  0  2  0  0  0  0  0  0  0  0  0
  -15.3315  -38.7863   -7.0120 O   0  0  0  0  0  0  0  0  0  0  0  0
  -17.1300  -39.8885   -8.1117 C   0  0  2  0  0  0  0  0  0  0  0  0
  -17.8876  -38.5572   -8.2902 C   0  0  0  0  0  0  0  0  0  0  0  0
  -19.3634  -38.6757   -8.2957 C   0  0  0  0  0  0  0  0  0  0  0  0
  -19.9052  -38.5710   -9.6178 C   0  0  0  0  0  0  0  0  0  0  0  0
  -21.2373  -38.6610   -9.8915 C   0  0  0  0  0  0  0  0  0  0  0  0
  -22.0826  -38.8601   -8.8530 C   0  0  0  0  0  0  0  0  0  0  0  0
  -23.5044  -38.9567   -9.1245 O   0  0  0  0  0  0  0  0  0  0  0  0
  -21.6290  -38.9751   -7.5200 C   0  0  0  0  0  0  0  0  0  0  0  0
  -22.8193  -39.1856   -6.6591 C   0  0  0  0  0  0  0  0  0  0  0  0
  -22.7068  -39.9865   -5.4242 C   0  0  0  0  0  0  0  0  0  0  0  0
  -22.3570  -39.3205   -4.2574 C   0  0  0  0  0  0  0  0  0  0  0  0
  -22.2163  -39.8909   -3.0181 C   0  0  0  0  0  0  0  0  0  0  0  0
  -22.4380  -41.2407   -2.9044 C   0  0  0  0  0  0  0  0  0  0  0  0
  -22.7861  -41.9271   -4.0453 C   0  0  0  0  0  0  0  0  0  0  0  0
  -22.9306  -41.3588   -5.3059 C   0  0  0  0  0  0  0  0  0  0  0  0
  -23.2778  -42.1895   -6.3174 O   0  0  0  0  0  0  0  0  0  0  0  0
  -22.8133  -42.5000   -7.5911 C   0  0  0  0  0  0  0  0  0  0  0  0
  -21.5401  -43.3044   -7.6293 C   0  0  0  0  0  0  0  0  0  0  0  0
  -20.4213  -42.8213   -6.8036 C   0  0  0  0  0  0  0  0  0  0  0  0
  -19.1690  -42.4600   -7.6171 C   0  0  0  0  0  0  0  0  0  0  0  0
  -18.1260  -41.8293   -6.7764 C   0  0  0  0  0  0  0  0  0  0  0  0
  -17.7004  -42.5521   -5.8061 O   0  0  0  0  0  0  0  0  0  0  0  0
  -17.5649  -40.5730   -6.9110 N   0  0  0  0  0  0  0  0  0  0  0  0
  -20.2838  -38.8786   -7.2780 C   0  0  0  0  0  0  0  0  0  0  0  0
  1  2  1  0
  2  3  1  0
  3  4  1  0
  4  5  1  0
  5  6  1  0
  6  7  2  0
  6  8  1  0
  8  9  1  6
  8 10  1  0
 10 11  1  0
 11 12  1  1
 11 13  1  0
 13 14  1  1
 14 15  1  0
 15 16  2  0
 16 17  1  0
 17 18  2  0
 18 19  1  0
 18 20  1  0
 20 21  1  0
 21 22  1  0
 22 23  2  0
 23 24  1  0
 24 25  2  0
 25 26  1  0
 26 27  2  0
 27 28  1  0
 28 29  1  0
 29 30  1  0
 30 31  1  0
 31 32  1  0
 32 33  1  0
 33 34  2  0
 33 35  1  0
 20 36  2  0
 27 22  1  0
 35 13  1  0
 36 15  1  0
M  END
$$$$
