
     RDKit          3D

 36 38  0  0  0  0  0  0  0  0999 V2000
  -11.2536  -34.7430  -12.7402 C   0  0  0  0  0  0  0  0  0  0  0  0
  -11.8007  -35.9661  -13.4814 C   0  0  0  0  0  0  0  0  0  0  0  0
  -12.9795  -36.5170  -12.6819 C   0  0  0  0  0  0  0  0  0  0  0  0
  -12.5352  -37.1485  -11.4029 C   0  0  0  0  0  0  0  0  0  0  0  0
  -13.6234  -37.5751  -10.5532 N   0  0  0  0  0  0  0  0  0  0  0  0
  -13.9303  -38.9566  -10.4176 C   0  0  0  0  0  0  0  0  0  0  0  0
  -14.4995  -39.5189  -11.3878 O   0  0  0  0  0  0  0  0  0  0  0  0
  -13.5923  -39.7132   -9.1746 C   0  0  2  0  0  0  0  0  0  0  0  0
  -12.6464  -40.8240   -9.5410 C   0  0  0  0  0  0  0  0  0  0  0  0
  -14.8474  -40.3646   -8.5757 C   0  0  0  0  0  0  0  0  0  0  0  0
  -15.8558  -39.2795   -8.3844 C   0  0  2  0  0  0  0  0  0  0  0  0
  -15.5321  -38.5452   -7.2577 O   0  0  0  0  0  0  0  0  0  0  0  0
  -17.2730  -39.7167   -8.3783 C   0  0  2  0  0  0  0  0  0  0  0  0
  -18.1625  -38.4614   -8.2724 C   0  0  0  0  0  0  0  0  0  0  0  0
  -19.6168  -38.7315   -8.2092 C   0  0  0  0  0  0  0  0  0  0  0  0
  -20.2674  -38.4614   -9.4566 C   0  0  0  0  0  0  0  0  0  0  0  0
  -21.6028  -38.6430   -9.6606 C   0  0  0  0  0  0  0  0  0  0  0  0
  -22.3423  -39.1032   -8.6243 C   0  0  0  0  0  0  0  0  0  0  0  0
  -23.7658  -39.3010   -8.8219 O   0  0  0  0  0  0  0  0  0  0  0  0
  -21.7775  -39.3945   -7.3626 C   0  0  0  0  0  0  0  0  0  0  0  0
  -22.8722  -39.8719   -6.4818 C   0  0  0  0  0  0  0  0  0  0  0  0
  -22.5898  -40.8546   -5.4171 C   0  0  0  0  0  0  0  0  0  0  0  0
  -22.2135  -40.3633   -4.1744 C   0  0  0  0  0  0  0  0  0  0  0  0
  -21.9242  -41.1179   -3.0662 C   0  0  0  0  0  0  0  0  0  0  0  0
  -22.0100  -42.4832   -3.1796 C   0  0  0  0  0  0  0  0  0  0  0  0
  -22.3808  -42.9985   -4.4006 C   0  0  0  0  0  0  0  0  0  0  0  0
  -22.6754  -42.2429   -5.5298 C   0  0  0  0  0  0  0  0  0  0  0  0
  -23.0218  -42.9216   -6.6492 O   0  0  0  0  0  0  0  0  0  0  0  0
  -22.6312  -42.9608   -7.9835 C   0  0  0  0  0  0  0  0  0  0  0  0
  -21.2957  -43.6088   -8.2404 C   0  0  0  0  0  0  0  0  0  0  0  0
  -20.1656  -43.1581   -7.4118 C   0  0  0  0  0  0  0  0  0  0  0  0
  -19.0195  -42.5345   -8.2232 C   0  0  0  0  0  0  0  0  0  0  0  0
  -17.9773  -41.9497   -7.3491 C   0  0  0  0  0  0  0  0  0  0  0  0
  -17.4120  -42.7780   -6.5494 O   0  0  0  0  0  0  0  0  0  0  0  0
  -17.5474  -40.6369   -7.2933 N   0  0  0  0  0  0  0  0  0  0  0  0
  -20.4322  -39.1998   -7.1894 C   0  0  0  0  0  0  0  0  0  0  0  0
  1  2  1  0
  2  3  1  0
  3  4  1  0
  4  5  1  0
  5  6  1  0
  6  7  2  0
  6  8  1  0
  8  9  1  6
  8 10  1  0
 10 11  1  0
 11 12  1  1
 11 13  1  0
 13 14  1  1
 14 15  1  0
 15 16  2  0
 16 17  1  0
 17 18  2  0
 18 19  1  0
 18 20  1  0
 20 21  1  0
 21 22  1  0
 22 23  2  0
 23 24  1  0
 24 25  2  0
 25 26  1  0
 26 27  2  0
 27 28  1  0
 28 29  1  0
 29 30  1  0
 30 31  1  0
 31 32  1  0
 32 33  1  0
 33 34  2  0
 33 35  1  0
 20 36  2  0
 27 22  1  0
 35 13  1  0
 36 15  1  0
M  END
$$$$
