
     RDKit          3D

 36 38  0  0  0  0  0  0  0  0999 V2000
  -11.1443  -43.8331  -10.8477 C   0  0  0  0  0  0  0  0  0  0  0  0
  -11.3459  -43.5411   -9.3581 C   0  0  0  0  0  0  0  0  0  0  0  0
  -11.4332  -42.0269   -9.1794 C   0  0  0  0  0  0  0  0  0  0  0  0
  -12.6655  -41.6267   -8.4355 C   0  0  0  0  0  0  0  0  0  0  0  0
  -12.7749  -40.2036   -8.2093 N   0  0  0  0  0  0  0  0  0  0  0  0
  -13.9041  -39.4846   -8.6878 C   0  0  0  0  0  0  0  0  0  0  0  0
  -14.4775  -38.7083   -7.8817 O   0  0  0  0  0  0  0  0  0  0  0  0
  -14.3929  -39.6420  -10.0908 C   0  0  2  0  0  0  0  0  0  0  0  0
  -13.2973  -39.2042  -11.0240 C   0  0  0  0  0  0  0  0  0  0  0  0
  -15.6019  -38.7316  -10.3512 C   0  0  0  0  0  0  0  0  0  0  0  0
  -16.2263  -38.4420   -9.0255 C   0  0  2  0  0  0  0  0  0  0  0  0
  -15.3959  -38.8977   -8.0175 O   0  0  0  0  0  0  0  0  0  0  0  0
  -17.6213  -38.9168   -8.8579 C   0  0  2  0  0  0  0  0  0  0  0  0
  -18.4619  -37.7506   -8.2995 C   0  0  0  0  0  0  0  0  0  0  0  0
  -19.8808  -38.0774   -8.0316 C   0  0  0  0  0  0  0  0  0  0  0  0
  -20.7523  -37.5496   -9.0387 C   0  0  0  0  0  0  0  0  0  0  0  0
  -22.1039  -37.7246   -9.0273 C   0  0  0  0  0  0  0  0  0  0  0  0
  -22.6393  -38.4359   -8.0075 C   0  0  0  0  0  0  0  0  0  0  0  0
  -24.0765  -38.6312   -7.9775 O   0  0  0  0  0  0  0  0  0  0  0  0
  -21.8495  -38.9905   -6.9758 C   0  0  0  0  0  0  0  0  0  0  0  0
  -22.7632  -39.6949   -6.0424 C   0  0  0  0  0  0  0  0  0  0  0  0
  -22.2952  -40.8861   -5.3070 C   0  0  0  0  0  0  0  0  0  0  0  0
  -21.6860  -40.6816   -4.0763 C   0  0  0  0  0  0  0  0  0  0  0  0
  -21.2006  -41.6608   -3.2477 C   0  0  0  0  0  0  0  0  0  0  0  0
  -21.3204  -42.9654   -3.6574 C   0  0  0  0  0  0  0  0  0  0  0  0
  -21.9203  -43.1981   -4.8739 C   0  0  0  0  0  0  0  0  0  0  0  0
  -22.4149  -42.2132   -5.7214 C   0  0  0  0  0  0  0  0  0  0  0  0
  -22.9733  -42.6273   -6.8835 O   0  0  0  0  0  0  0  0  0  0  0  0
  -22.8420  -42.3449   -8.2390 C   0  0  0  0  0  0  0  0  0  0  0  0
  -21.5857  -42.8706   -8.8833 C   0  0  0  0  0  0  0  0  0  0  0  0
  -20.3150  -42.5846   -8.1976 C   0  0  0  0  0  0  0  0  0  0  0  0
  -19.3362  -41.7523   -9.0402 C   0  0  0  0  0  0  0  0  0  0  0  0
  -18.1417  -41.3494   -8.2636 C   0  0  0  0  0  0  0  0  0  0  0  0
  -17.4443  -42.3199   -7.7979 O   0  0  0  0  0  0  0  0  0  0  0  0
  -17.6955  -40.0709   -7.9850 N   0  0  0  0  0  0  0  0  0  0  0  0
  -20.4939  -38.7953   -7.0153 C   0  0  0  0  0  0  0  0  0  0  0  0
  1  2  1  0
  2  3  1  0
  3  4  1  0
  4  5  1  0
  5  6  1  0
  6  7  2  0
  6  8  1  0
  8  9  1  6
  8 10  1  0
 10 11  1  0
 11 12  1  1
 11 13  1  0
 13 14  1  1
 14 15  1  0
 15 16  2  0
 16 17  1  0
 17 18  2  0
 18 19  1  0
 18 20  1  0
 20 21  1  0
 21 22  1  0
 22 23  2  0
 23 24  1  0
 24 25  2  0
 25 26  1  0
 26 27  2  0
 27 28  1  0
 28 29  1  0
 29 30  1  0
 30 31  1  0
 31 32  1  0
 32 33  1  0
 33 34  2  0
 33 35  1  0
 20 36  2  0
 27 22  1  0
 35 13  1  0
 36 15  1  0
M  END
$$$$
