
     RDKit          3D

 36 38  0  0  0  0  0  0  0  0999 V2000
  -16.8988  -35.0433  -13.4864 C   0  0  0  0  0  0  0  0  0  0  0  0
  -16.1750  -36.3452  -13.1315 C   0  0  0  0  0  0  0  0  0  0  0  0
  -15.4327  -36.1310  -11.8141 C   0  0  0  0  0  0  0  0  0  0  0  0
  -13.9676  -36.3871  -11.9554 C   0  0  0  0  0  0  0  0  0  0  0  0
  -13.6186  -37.7893  -11.9712 N   0  0  0  0  0  0  0  0  0  0  0  0
  -14.3198  -38.7137  -11.1497 C   0  0  0  0  0  0  0  0  0  0  0  0
  -14.9613  -39.6278  -11.7278 O   0  0  0  0  0  0  0  0  0  0  0  0
  -14.2981  -38.6069   -9.6597 C   0  0  2  0  0  0  0  0  0  0  0  0
  -12.8892  -38.3034   -9.2289 C   0  0  0  0  0  0  0  0  0  0  0  0
  -14.6930  -39.9424   -9.0126 C   0  0  0  0  0  0  0  0  0  0  0  0
  -15.5227  -39.6202   -7.8131 C   0  0  2  0  0  0  0  0  0  0  0  0
  -14.9368  -40.1716   -6.6879 O   0  0  0  0  0  0  0  0  0  0  0  0
  -16.9616  -39.9638   -7.9192 C   0  0  2  0  0  0  0  0  0  0  0  0
  -17.7829  -38.7145   -7.5410 C   0  0  0  0  0  0  0  0  0  0  0  0
  -19.2509  -38.9062   -7.5541 C   0  0  0  0  0  0  0  0  0  0  0  0
  -19.8576  -38.3248   -8.7144 C   0  0  0  0  0  0  0  0  0  0  0  0
  -21.1959  -38.3772   -8.9666 C   0  0  0  0  0  0  0  0  0  0  0  0
  -21.9827  -39.0146   -8.0680 C   0  0  0  0  0  0  0  0  0  0  0  0
  -23.4101  -39.0791   -8.3185 O   0  0  0  0  0  0  0  0  0  0  0  0
  -21.4631  -39.6148   -6.8994 C   0  0  0  0  0  0  0  0  0  0  0  0
  -22.6019  -40.2130   -6.1595 C   0  0  0  0  0  0  0  0  0  0  0  0
  -22.3979  -41.4247   -5.3416 C   0  0  0  0  0  0  0  0  0  0  0  0
  -22.0230  -41.2485   -4.0165 C   0  0  0  0  0  0  0  0  0  0  0  0
  -21.8005  -42.2485   -3.1047 C   0  0  0  0  0  0  0  0  0  0  0  0
  -21.9587  -43.5459   -3.5243 C   0  0  0  0  0  0  0  0  0  0  0  0
  -22.3299  -43.7509   -4.8335 C   0  0  0  0  0  0  0  0  0  0  0  0
  -22.5571  -42.7447   -5.7656 C   0  0  0  0  0  0  0  0  0  0  0  0
  -22.9151  -43.1328   -7.0126 O   0  0  0  0  0  0  0  0  0  0  0  0
  -22.4976  -42.8937   -8.3176 C   0  0  0  0  0  0  0  0  0  0  0  0
  -21.1942  -43.5445   -8.7016 C   0  0  0  0  0  0  0  0  0  0  0  0
  -20.0599  -43.3587   -7.7820 C   0  0  0  0  0  0  0  0  0  0  0  0
  -18.8634  -42.6369   -8.4207 C   0  0  0  0  0  0  0  0  0  0  0  0
  -17.8104  -42.3258   -7.4274 C   0  0  0  0  0  0  0  0  0  0  0  0
  -17.3095  -43.3444   -6.8302 O   0  0  0  0  0  0  0  0  0  0  0  0
  -17.3104  -41.0867   -7.0726 N   0  0  0  0  0  0  0  0  0  0  0  0
  -20.1134  -39.5432   -6.6741 C   0  0  0  0  0  0  0  0  0  0  0  0
  1  2  1  0
  2  3  1  0
  3  4  1  0
  4  5  1  0
  5  6  1  0
  6  7  2  0
  6  8  1  0
  8  9  1  1
  8 10  1  0
 10 11  1  0
 11 12  1  1
 11 13  1  0
 13 14  1  1
 14 15  1  0
 15 16  2  0
 16 17  1  0
 17 18  2  0
 18 19  1  0
 18 20  1  0
 20 21  1  0
 21 22  1  0
 22 23  2  0
 23 24  1  0
 24 25  2  0
 25 26  1  0
 26 27  2  0
 27 28  1  0
 28 29  1  0
 29 30  1  0
 30 31  1  0
 31 32  1  0
 32 33  1  0
 33 34  2  0
 33 35  1  0
 20 36  2  0
 27 22  1  0
 35 13  1  0
 36 15  1  0
M  END
$$$$
