
     RDKit          3D

 36 38  0  0  0  0  0  0  0  0999 V2000
  -14.3965  -35.0696  -14.1529 C   0  0  0  0  0  0  0  0  0  0  0  0
  -13.2016  -35.1619  -13.1997 C   0  0  0  0  0  0  0  0  0  0  0  0
  -13.3251  -36.4627  -12.4092 C   0  0  0  0  0  0  0  0  0  0  0  0
  -14.0463  -36.2596  -11.1167 C   0  0  0  0  0  0  0  0  0  0  0  0
  -13.5880  -37.1206  -10.0505 N   0  0  0  0  0  0  0  0  0  0  0  0
  -13.8907  -38.5095  -10.0680 C   0  0  0  0  0  0  0  0  0  0  0  0
  -14.3658  -38.9830  -11.1317 O   0  0  0  0  0  0  0  0  0  0  0  0
  -13.6554  -39.3751   -8.8733 C   0  0  2  0  0  0  0  0  0  0  0  0
  -12.5826  -40.3720   -9.2169 C   0  0  0  0  0  0  0  0  0  0  0  0
  -14.9200  -40.1721   -8.5212 C   0  0  0  0  0  0  0  0  0  0  0  0
  -15.9184  -39.1975   -7.9881 C   0  0  2  0  0  0  0  0  0  0  0  0
  -15.5039  -38.7478   -6.7474 O   0  0  0  0  0  0  0  0  0  0  0  0
  -17.3251  -39.6672   -7.9710 C   0  0  2  0  0  0  0  0  0  0  0  0
  -18.2366  -38.4455   -7.7368 C   0  0  0  0  0  0  0  0  0  0  0  0
  -19.6819  -38.7540   -7.6482 C   0  0  0  0  0  0  0  0  0  0  0  0
  -20.3802  -38.4018   -8.8485 C   0  0  0  0  0  0  0  0  0  0  0  0
  -21.7176  -38.5981   -9.0230 C   0  0  0  0  0  0  0  0  0  0  0  0
  -22.4116  -39.1560   -8.0032 C   0  0  0  0  0  0  0  0  0  0  0  0
  -23.8365  -39.3711   -8.1698 O   0  0  0  0  0  0  0  0  0  0  0  0
  -21.7980  -39.5325   -6.7877 C   0  0  0  0  0  0  0  0  0  0  0  0
  -22.8518  -40.1036   -5.9127 C   0  0  0  0  0  0  0  0  0  0  0  0
  -22.5127  -41.1602   -4.9393 C   0  0  0  0  0  0  0  0  0  0  0  0
  -22.1046  -40.7598   -3.6743 C   0  0  0  0  0  0  0  0  0  0  0  0
  -21.7619  -41.5923   -2.6397 C   0  0  0  0  0  0  0  0  0  0  0  0
  -21.8229  -42.9461   -2.8585 C   0  0  0  0  0  0  0  0  0  0  0  0
  -22.2243  -43.3721   -4.1040 C   0  0  0  0  0  0  0  0  0  0  0  0
  -22.5730  -42.5370   -5.1593 C   0  0  0  0  0  0  0  0  0  0  0  0
  -22.9431  -43.1333   -6.3174 O   0  0  0  0  0  0  0  0  0  0  0  0
  -22.5975  -43.0578   -7.6626 C   0  0  0  0  0  0  0  0  0  0  0  0
  -21.2582  -43.6518   -8.0133 C   0  0  0  0  0  0  0  0  0  0  0  0
  -20.1103  -43.2414   -7.1885 C   0  0  0  0  0  0  0  0  0  0  0  0
  -19.0058  -42.5288   -7.9842 C   0  0  0  0  0  0  0  0  0  0  0  0
  -17.9469  -41.9904   -7.1006 C   0  0  0  0  0  0  0  0  0  0  0  0
  -17.3374  -42.8656   -6.3881 O   0  0  0  0  0  0  0  0  0  0  0  0
  -17.5430  -40.6763   -6.9544 N   0  0  0  0  0  0  0  0  0  0  0  0
  -20.4521  -39.3203   -6.6432 C   0  0  0  0  0  0  0  0  0  0  0  0
  1  2  1  0
  2  3  1  0
  3  4  1  0
  4  5  1  0
  5  6  1  0
  6  7  2  0
  6  8  1  0
  8  9  1  6
  8 10  1  0
 10 11  1  0
 11 12  1  1
 11 13  1  0
 13 14  1  1
 14 15  1  0
 15 16  2  0
 16 17  1  0
 17 18  2  0
 18 19  1  0
 18 20  1  0
 20 21  1  0
 21 22  1  0
 22 23  2  0
 23 24  1  0
 24 25  2  0
 25 26  1  0
 26 27  2  0
 27 28  1  0
 28 29  1  0
 29 30  1  0
 30 31  1  0
 31 32  1  0
 32 33  1  0
 33 34  2  0
 33 35  1  0
 20 36  2  0
 27 22  1  0
 35 13  1  0
 36 15  1  0
M  END
$$$$
