
     RDKit          3D

 36 38  0  0  0  0  0  0  0  0999 V2000
  -14.0071  -33.4825  -13.1172 C   0  0  0  0  0  0  0  0  0  0  0  0
  -13.5250  -34.2681  -11.8944 C   0  0  0  0  0  0  0  0  0  0  0  0
  -13.6578  -35.7575  -12.2051 C   0  0  0  0  0  0  0  0  0  0  0  0
  -13.1892  -36.6051  -11.0676 C   0  0  0  0  0  0  0  0  0  0  0  0
  -13.0094  -37.9970  -11.4117 N   0  0  0  0  0  0  0  0  0  0  0  0
  -13.8120  -38.9981  -10.7996 C   0  0  0  0  0  0  0  0  0  0  0  0
  -14.7764  -39.4521  -11.4669 O   0  0  0  0  0  0  0  0  0  0  0  0
  -13.5248  -39.4935   -9.4197 C   0  0  2  0  0  0  0  0  0  0  0  0
  -12.3958  -40.4844   -9.4997 C   0  0  0  0  0  0  0  0  0  0  0  0
  -14.7399  -40.2352   -8.8439 C   0  0  0  0  0  0  0  0  0  0  0  0
  -15.7455  -39.1989   -8.4617 C   0  0  2  0  0  0  0  0  0  0  0  0
  -15.3588  -38.5988   -7.2770 O   0  0  0  0  0  0  0  0  0  0  0  0
  -17.1548  -39.6591   -8.4211 C   0  0  2  0  0  0  0  0  0  0  0  0
  -18.0656  -38.4151   -8.3883 C   0  0  0  0  0  0  0  0  0  0  0  0
  -19.5147  -38.7056   -8.3007 C   0  0  0  0  0  0  0  0  0  0  0  0
  -20.1752  -38.5244   -9.5590 C   0  0  0  0  0  0  0  0  0  0  0  0
  -21.5080  -38.7410   -9.7443 C   0  0  0  0  0  0  0  0  0  0  0  0
  -22.2351  -39.1488   -8.6776 C   0  0  0  0  0  0  0  0  0  0  0  0
  -23.6557  -39.3827   -8.8550 O   0  0  0  0  0  0  0  0  0  0  0  0
  -21.6599  -39.3518   -7.4033 C   0  0  0  0  0  0  0  0  0  0  0  0
  -22.7424  -39.7925   -6.4889 C   0  0  0  0  0  0  0  0  0  0  0  0
  -22.4384  -40.7024   -5.3671 C   0  0  0  0  0  0  0  0  0  0  0  0
  -22.0655  -40.1288   -4.1591 C   0  0  0  0  0  0  0  0  0  0  0  0
  -21.7584  -40.8083   -3.0080 C   0  0  0  0  0  0  0  0  0  0  0  0
  -21.8209  -42.1793   -3.0363 C   0  0  0  0  0  0  0  0  0  0  0  0
  -22.1879  -42.7755   -4.2212 C   0  0  0  0  0  0  0  0  0  0  0  0
  -22.5003  -42.0963   -5.3933 C   0  0  0  0  0  0  0  0  0  0  0  0
  -22.8396  -42.8488   -6.4667 O   0  0  0  0  0  0  0  0  0  0  0  0
  -22.4541  -42.9637   -7.7982 C   0  0  0  0  0  0  0  0  0  0  0  0
  -21.1086  -43.6034   -8.0217 C   0  0  0  0  0  0  0  0  0  0  0  0
  -19.9830  -43.0831   -7.2285 C   0  0  0  0  0  0  0  0  0  0  0  0
  -18.8514  -42.4913   -8.0829 C   0  0  0  0  0  0  0  0  0  0  0  0
  -17.8158  -41.8359   -7.2521 C   0  0  0  0  0  0  0  0  0  0  0  0
  -17.2328  -42.6033   -6.4058 O   0  0  0  0  0  0  0  0  0  0  0  0
  -17.4086  -40.5150   -7.2798 N   0  0  0  0  0  0  0  0  0  0  0  0
  -20.3175  -39.1237   -7.2497 C   0  0  0  0  0  0  0  0  0  0  0  0
  1  2  1  0
  2  3  1  0
  3  4  1  0
  4  5  1  0
  5  6  1  0
  6  7  2  0
  6  8  1  0
  8  9  1  6
  8 10  1  0
 10 11  1  0
 11 12  1  1
 11 13  1  0
 13 14  1  1
 14 15  1  0
 15 16  2  0
 16 17  1  0
 17 18  2  0
 18 19  1  0
 18 20  1  0
 20 21  1  0
 21 22  1  0
 22 23  2  0
 23 24  1  0
 24 25  2  0
 25 26  1  0
 26 27  2  0
 27 28  1  0
 28 29  1  0
 29 30  1  0
 30 31  1  0
 31 32  1  0
 32 33  1  0
 33 34  2  0
 33 35  1  0
 20 36  2  0
 27 22  1  0
 35 13  1  0
 36 15  1  0
M  END
$$$$
