
     RDKit          3D

 36 38  0  0  0  0  0  0  0  0999 V2000
  -12.8921  -33.9201  -11.9901 C   0  0  0  0  0  0  0  0  0  0  0  0
  -13.2462  -35.2701  -11.3601 C   0  0  0  0  0  0  0  0  0  0  0  0
  -12.3798  -36.3421  -12.0179 C   0  0  0  0  0  0  0  0  0  0  0  0
  -13.0128  -37.6930  -11.9372 C   0  0  0  0  0  0  0  0  0  0  0  0
  -12.5987  -38.4643  -10.7875 N   0  0  0  0  0  0  0  0  0  0  0  0
  -13.3656  -39.5814  -10.3574 C   0  0  0  0  0  0  0  0  0  0  0  0
  -14.1039  -40.1370  -11.2105 O   0  0  0  0  0  0  0  0  0  0  0  0
  -13.3000  -40.0784   -8.9500 C   0  0  2  0  0  0  0  0  0  0  0  0
  -12.3386  -41.2344   -8.9023 C   0  0  0  0  0  0  0  0  0  0  0  0
  -14.6682  -40.6066   -8.4951 C   0  0  0  0  0  0  0  0  0  0  0  0
  -15.6010  -39.4403   -8.4659 C   0  0  2  0  0  0  0  0  0  0  0  0
  -15.2253  -38.5772   -7.4524 O   0  0  0  0  0  0  0  0  0  0  0  0
  -17.0443  -39.7765   -8.4073 C   0  0  2  0  0  0  0  0  0  0  0  0
  -17.8402  -38.4599   -8.3001 C   0  0  0  0  0  0  0  0  0  0  0  0
  -19.3070  -38.6258   -8.1866 C   0  0  0  0  0  0  0  0  0  0  0  0
  -19.9769  -38.3336   -9.4188 C   0  0  0  0  0  0  0  0  0  0  0  0
  -21.3275  -38.4244   -9.5779 C   0  0  0  0  0  0  0  0  0  0  0  0
  -22.0637  -38.8122   -8.5101 C   0  0  0  0  0  0  0  0  0  0  0  0
  -23.5031  -38.9129   -8.6597 O   0  0  0  0  0  0  0  0  0  0  0  0
  -21.4804  -39.1192   -7.2606 C   0  0  0  0  0  0  0  0  0  0  0  0
  -22.5769  -39.5020   -6.3369 C   0  0  0  0  0  0  0  0  0  0  0  0
  -22.3298  -40.4823   -5.2613 C   0  0  0  0  0  0  0  0  0  0  0  0
  -21.8804  -39.9959   -4.0411 C   0  0  0  0  0  0  0  0  0  0  0  0
  -21.6091  -40.7483   -2.9270 C   0  0  0  0  0  0  0  0  0  0  0  0
  -21.7936  -42.1061   -3.0095 C   0  0  0  0  0  0  0  0  0  0  0  0
  -22.2385  -42.6165   -4.2076 C   0  0  0  0  0  0  0  0  0  0  0  0
  -22.5157  -41.8630   -5.3425 C   0  0  0  0  0  0  0  0  0  0  0  0
  -22.9443  -42.5362   -6.4365 O   0  0  0  0  0  0  0  0  0  0  0  0
  -22.6005  -42.6274   -7.7811 C   0  0  0  0  0  0  0  0  0  0  0  0
  -21.3223  -43.3724   -8.0655 C   0  0  0  0  0  0  0  0  0  0  0  0
  -20.1376  -42.9872   -7.2815 C   0  0  0  0  0  0  0  0  0  0  0  0
  -18.9774  -42.4609   -8.1403 C   0  0  0  0  0  0  0  0  0  0  0  0
  -17.8693  -41.9350   -7.3110 C   0  0  0  0  0  0  0  0  0  0  0  0
  -17.3379  -42.7861   -6.5121 O   0  0  0  0  0  0  0  0  0  0  0  0
  -17.3473  -40.6549   -7.2955 N   0  0  0  0  0  0  0  0  0  0  0  0
  -20.1200  -39.0165   -7.1329 C   0  0  0  0  0  0  0  0  0  0  0  0
  1  2  1  0
  2  3  1  0
  3  4  1  0
  4  5  1  0
  5  6  1  0
  6  7  2  0
  6  8  1  0
  8  9  1  6
  8 10  1  0
 10 11  1  0
 11 12  1  1
 11 13  1  0
 13 14  1  1
 14 15  1  0
 15 16  2  0
 16 17  1  0
 17 18  2  0
 18 19  1  0
 18 20  1  0
 20 21  1  0
 21 22  1  0
 22 23  2  0
 23 24  1  0
 24 25  2  0
 25 26  1  0
 26 27  2  0
 27 28  1  0
 28 29  1  0
 29 30  1  0
 30 31  1  0
 31 32  1  0
 32 33  1  0
 33 34  2  0
 33 35  1  0
 20 36  2  0
 27 22  1  0
 35 13  1  0
 36 15  1  0
M  END
$$$$
