
     RDKit          3D

 34 34  0  0  0  0  0  0  0  0999 V2000
  -13.4711  -34.8573  -13.3890 C   0  0  0  0  0  0  0  0  0  0  0  0
  -12.3528  -35.2833  -12.4569 C   0  0  0  0  0  0  0  0  0  0  0  0
  -12.8570  -36.2107  -11.3754 C   0  0  0  0  0  0  0  0  0  0  0  0
  -12.6311  -37.6605  -11.7067 C   0  0  0  0  0  0  0  0  0  0  0  0
  -12.7544  -38.5274  -10.5735 N   0  0  0  0  0  0  0  0  0  0  0  0
  -13.9540  -39.2796  -10.4135 C   0  0  0  0  0  0  0  0  0  0  0  0
  -14.8398  -39.1496  -11.2795 O   0  0  0  0  0  0  0  0  0  0  0  0
  -14.0890  -40.1528   -9.2628 C   0  0  2  0  0  0  0  0  0  0  0  0
  -13.3534  -41.4787   -9.5427 C   0  0  0  0  0  0  0  0  0  0  0  0
  -15.4356  -40.4472   -8.7430 C   0  0  0  0  0  0  0  0  0  0  0  0
  -16.1146  -39.4355   -7.9056 C   0  0  2  0  0  0  0  0  0  0  0  0
  -15.5761  -39.1405   -6.6890 O   0  0  0  0  0  0  0  0  0  0  0  0
  -17.6096  -39.8163   -7.7708 C   0  0  2  0  0  0  0  0  0  0  0  0
  -18.1024  -39.4602   -6.4248 C   0  0  0  0  0  0  0  0  0  0  0  0
  -19.2308  -38.4748   -6.3853 C   0  0  2  0  0  0  0  0  0  0  0  0
  -19.9081  -38.6356   -5.0239 C   0  0  0  0  0  0  0  0  0  0  0  0
  -20.2510  -38.5722   -7.4420 C   0  0  0  0  0  0  0  0  0  0  0  0
  -21.6846  -38.7621   -6.9227 C   0  0  0  0  0  0  0  0  0  0  0  0
  -22.5097  -39.1937   -8.1160 C   0  0  0  0  0  0  0  0  0  0  0  0
  -23.6116  -40.1679   -7.7247 C   0  0  0  0  0  0  0  0  0  0  0  0
  -23.5261  -41.4391   -8.5177 C   0  0  0  0  0  0  0  0  0  0  0  0
  -24.1814  -42.6155   -7.8936 C   0  0  2  0  0  0  0  0  0  0  0  0
  -25.6995  -42.5077   -8.0563 C   0  0  0  0  0  0  0  0  0  0  0  0
  -23.8864  -42.8404   -6.4579 C   0  0  0  0  0  0  0  0  0  0  0  0
  -22.4153  -42.9809   -6.1532 C   0  0  0  0  0  0  0  0  0  0  0  0
  -21.6674  -43.7359   -7.1554 C   0  0  0  0  0  0  0  0  0  0  0  0
  -22.1229  -44.8052   -7.6310 O   0  0  0  0  0  0  0  0  0  0  0  0
  -20.3924  -43.3069   -7.6453 N   0  0  0  0  0  0  0  0  0  0  0  0
  -19.9050  -43.8474   -8.8879 C   0  0  0  0  0  0  0  0  0  0  0  0
  -19.6242  -42.3238   -6.8575 C   0  0  1  0  0  0  0  0  0  0  0  0
  -19.5627  -42.9211   -5.4491 C   0  0  0  0  0  0  0  0  0  0  0  0
  -18.2508  -42.2714   -7.4168 C   0  0  0  0  0  0  0  0  0  0  0  0
  -17.5706  -43.3402   -7.1934 O   0  0  0  0  0  0  0  0  0  0  0  0
  -17.6703  -41.2085   -8.1292 N   0  0  0  0  0  0  0  0  0  0  0  0
  1  2  1  0
  2  3  1  0
  3  4  1  0
  4  5  1  0
  5  6  1  0
  6  7  2  0
  6  8  1  0
  8  9  1  6
  8 10  1  0
 10 11  1  0
 11 12  1  1
 11 13  1  0
 13 14  1  1
 14 15  1  0
 15 16  1  1
 15 17  1  0
 17 18  1  0
 18 19  1  0
 19 20  1  0
 20 21  1  0
 21 22  1  0
 22 23  1  1
 22 24  1  0
 24 25  1  0
 25 26  1  0
 26 27  2  0
 26 28  1  0
 28 29  1  0
 28 30  1  0
 30 31  1  1
 30 32  1  0
 32 33  2  0
 32 34  1  0
 34 13  1  0
M  END
$$$$
