
     RDKit          3D

 34 34  0  0  0  0  0  0  0  0999 V2000
  -11.9383  -34.9704  -12.7700 C   0  0  0  0  0  0  0  0  0  0  0  0
  -11.5727  -36.4398  -12.6794 C   0  0  0  0  0  0  0  0  0  0  0  0
  -12.0169  -37.0405  -11.3657 C   0  0  0  0  0  0  0  0  0  0  0  0
  -11.8195  -38.5309  -11.3165 C   0  0  0  0  0  0  0  0  0  0  0  0
  -12.2297  -39.1170  -10.0759 N   0  0  0  0  0  0  0  0  0  0  0  0
  -13.5992  -39.4714   -9.9052 C   0  0  0  0  0  0  0  0  0  0  0  0
  -14.2760  -39.6806  -10.9298 O   0  0  0  0  0  0  0  0  0  0  0  0
  -14.1381  -39.5717   -8.5619 C   0  0  2  0  0  0  0  0  0  0  0  0
  -13.2957  -40.5764   -7.7506 C   0  0  0  0  0  0  0  0  0  0  0  0
  -15.5667  -39.8857   -8.3866 C   0  0  0  0  0  0  0  0  0  0  0  0
  -16.5252  -38.7746   -8.2069 C   0  0  2  0  0  0  0  0  0  0  0  0
  -16.2919  -37.8787   -7.2069 O   0  0  0  0  0  0  0  0  0  0  0  0
  -17.9564  -39.3571   -8.1046 C   0  0  2  0  0  0  0  0  0  0  0  0
  -18.5320  -39.0534   -6.7788 C   0  0  0  0  0  0  0  0  0  0  0  0
  -19.7866  -38.2337   -6.7871 C   0  0  2  0  0  0  0  0  0  0  0  0
  -20.4738  -38.4672   -5.4413 C   0  0  0  0  0  0  0  0  0  0  0  0
  -20.7528  -38.4871   -7.8683 C   0  0  0  0  0  0  0  0  0  0  0  0
  -22.1607  -38.8665   -7.3835 C   0  0  0  0  0  0  0  0  0  0  0  0
  -22.8836  -39.4258   -8.5900 C   0  0  0  0  0  0  0  0  0  0  0  0
  -23.8508  -40.5377   -8.2101 C   0  0  0  0  0  0  0  0  0  0  0  0
  -23.5676  -41.7961   -8.9771 C   0  0  0  0  0  0  0  0  0  0  0  0
  -24.0715  -43.0429   -8.3490 C   0  0  2  0  0  0  0  0  0  0  0  0
  -25.5846  -43.1492   -8.5536 C   0  0  0  0  0  0  0  0  0  0  0  0
  -23.7894  -43.2038   -6.9022 C   0  0  0  0  0  0  0  0  0  0  0  0
  -22.3223  -43.1343   -6.5563 C   0  0  0  0  0  0  0  0  0  0  0  0
  -21.4488  -43.7927   -7.5245 C   0  0  0  0  0  0  0  0  0  0  0  0
  -21.7382  -44.9217   -7.9922 O   0  0  0  0  0  0  0  0  0  0  0  0
  -20.2319  -43.1980   -7.9884 N   0  0  0  0  0  0  0  0  0  0  0  0
  -19.6392  -43.6836   -9.2076 C   0  0  0  0  0  0  0  0  0  0  0  0
  -19.6301  -42.1065   -7.1988 C   0  0  1  0  0  0  0  0  0  0  0  0
  -19.5268  -42.6689   -5.7786 C   0  0  0  0  0  0  0  0  0  0  0  0
  -18.2617  -41.8721   -7.7226 C   0  0  0  0  0  0  0  0  0  0  0  0
  -17.4468  -42.8327   -7.4618 O   0  0  0  0  0  0  0  0  0  0  0  0
  -17.8137  -40.7494   -8.4389 N   0  0  0  0  0  0  0  0  0  0  0  0
  1  2  1  0
  2  3  1  0
  3  4  1  0
  4  5  1  0
  5  6  1  0
  6  7  2  0
  6  8  1  0
  8  9  1  1
  8 10  1  0
 10 11  1  0
 11 12  1  1
 11 13  1  0
 13 14  1  1
 14 15  1  0
 15 16  1  1
 15 17  1  0
 17 18  1  0
 18 19  1  0
 19 20  1  0
 20 21  1  0
 21 22  1  0
 22 23  1  1
 22 24  1  0
 24 25  1  0
 25 26  1  0
 26 27  2  0
 26 28  1  0
 28 29  1  0
 28 30  1  0
 30 31  1  1
 30 32  1  0
 32 33  2  0
 32 34  1  0
 34 13  1  0
M  END
$$$$
