
     RDKit          3D

 34 34  0  0  0  0  0  0  0  0999 V2000
  -14.6882  -35.2938  -12.9875 C   0  0  0  0  0  0  0  0  0  0  0  0
  -13.1961  -35.2099  -13.2480 C   0  0  0  0  0  0  0  0  0  0  0  0
  -12.4662  -36.4017  -12.6729 C   0  0  0  0  0  0  0  0  0  0  0  0
  -13.2911  -37.1512  -11.6627 C   0  0  0  0  0  0  0  0  0  0  0  0
  -13.1209  -38.5714  -11.7325 N   0  0  0  0  0  0  0  0  0  0  0  0
  -13.7864  -39.3892  -10.7740 C   0  0  0  0  0  0  0  0  0  0  0  0
  -14.4612  -40.3467  -11.1977 O   0  0  0  0  0  0  0  0  0  0  0  0
  -13.6504  -39.0743   -9.3644 C   0  0  2  0  0  0  0  0  0  0  0  0
  -12.4199  -39.8096   -8.7965 C   0  0  0  0  0  0  0  0  0  0  0  0
  -14.7998  -39.2921   -8.4692 C   0  0  0  0  0  0  0  0  0  0  0  0
  -15.9021  -38.3070   -8.4698 C   0  0  2  0  0  0  0  0  0  0  0  0
  -15.7868  -37.2115   -7.6674 O   0  0  0  0  0  0  0  0  0  0  0  0
  -17.2372  -39.0465   -8.2073 C   0  0  2  0  0  0  0  0  0  0  0  0
  -17.5404  -39.0442   -6.7618 C   0  0  0  0  0  0  0  0  0  0  0  0
  -18.8210  -38.3732   -6.3673 C   0  0  2  0  0  0  0  0  0  0  0  0
  -19.1927  -38.9119   -4.9854 C   0  0  0  0  0  0  0  0  0  0  0  0
  -19.9736  -38.5325   -7.2690 C   0  0  0  0  0  0  0  0  0  0  0  0
  -21.2192  -39.1383   -6.6038 C   0  0  0  0  0  0  0  0  0  0  0  0
  -22.1402  -39.5490   -7.7326 C   0  0  0  0  0  0  0  0  0  0  0  0
  -22.9286  -40.8066   -7.3959 C   0  0  0  0  0  0  0  0  0  0  0  0
  -22.7288  -41.8727   -8.4330 C   0  0  0  0  0  0  0  0  0  0  0  0
  -23.0041  -43.2569   -7.9737 C   0  0  2  0  0  0  0  0  0  0  0  0
  -24.5157  -43.4849   -7.8979 C   0  0  0  0  0  0  0  0  0  0  0  0
  -22.4139  -43.6400   -6.6684 C   0  0  0  0  0  0  0  0  0  0  0  0
  -20.9150  -43.4778   -6.6066 C   0  0  0  0  0  0  0  0  0  0  0  0
  -20.2222  -43.8589   -7.8349 C   0  0  0  0  0  0  0  0  0  0  0  0
  -20.5265  -44.9117   -8.4480 O   0  0  0  0  0  0  0  0  0  0  0  0
  -19.1729  -43.0663   -8.4012 N   0  0  0  0  0  0  0  0  0  0  0  0
  -18.8183  -43.2636   -9.7828 C   0  0  0  0  0  0  0  0  0  0  0  0
  -18.4936  -42.0739   -7.5464 C   0  0  1  0  0  0  0  0  0  0  0  0
  -18.0564  -42.8641   -6.3101 C   0  0  0  0  0  0  0  0  0  0  0  0
  -17.2849  -41.6073   -8.2697 C   0  0  0  0  0  0  0  0  0  0  0  0
  -16.3705  -42.5073   -8.3636 O   0  0  0  0  0  0  0  0  0  0  0  0
  -17.0743  -40.3348   -8.8270 N   0  0  0  0  0  0  0  0  0  0  0  0
  1  2  1  0
  2  3  1  0
  3  4  1  0
  4  5  1  0
  5  6  1  0
  6  7  2  0
  6  8  1  0
  8  9  1  1
  8 10  1  0
 10 11  1  0
 11 12  1  1
 11 13  1  0
 13 14  1  1
 14 15  1  0
 15 16  1  1
 15 17  1  0
 17 18  1  0
 18 19  1  0
 19 20  1  0
 20 21  1  0
 21 22  1  0
 22 23  1  1
 22 24  1  0
 24 25  1  0
 25 26  1  0
 26 27  2  0
 26 28  1  0
 28 29  1  0
 28 30  1  0
 30 31  1  1
 30 32  1  0
 32 33  2  0
 32 34  1  0
 34 13  1  0
M  END
$$$$
