
     RDKit          3D

 34 34  0  0  0  0  0  0  0  0999 V2000
  -12.7207  -34.7144  -13.7726 C   0  0  0  0  0  0  0  0  0  0  0  0
  -12.6665  -35.5496  -12.5074 C   0  0  0  0  0  0  0  0  0  0  0  0
  -13.0562  -36.9850  -12.7750 C   0  0  0  0  0  0  0  0  0  0  0  0
  -12.2041  -37.9654  -12.0163 C   0  0  0  0  0  0  0  0  0  0  0  0
  -12.6347  -38.1645  -10.6650 N   0  0  0  0  0  0  0  0  0  0  0  0
  -13.7683  -38.9928  -10.4221 C   0  0  0  0  0  0  0  0  0  0  0  0
  -14.4683  -39.3189  -11.3995 O   0  0  0  0  0  0  0  0  0  0  0  0
  -14.0538  -39.4146   -9.0636 C   0  0  2  0  0  0  0  0  0  0  0  0
  -13.0301  -40.4866   -8.6392 C   0  0  0  0  0  0  0  0  0  0  0  0
  -15.4103  -39.8824   -8.7305 C   0  0  0  0  0  0  0  0  0  0  0  0
  -16.4329  -38.8883   -8.3411 C   0  0  2  0  0  0  0  0  0  0  0  0
  -16.1343  -38.0176   -7.3361 O   0  0  0  0  0  0  0  0  0  0  0  0
  -17.7661  -39.6234   -8.0576 C   0  0  2  0  0  0  0  0  0  0  0  0
  -17.9797  -39.7390   -6.6008 C   0  0  0  0  0  0  0  0  0  0  0  0
  -19.2177  -39.0813   -6.0710 C   0  0  2  0  0  0  0  0  0  0  0  0
  -19.5160  -39.7293   -4.7186 C   0  0  0  0  0  0  0  0  0  0  0  0
  -20.4269  -39.1423   -6.9082 C   0  0  0  0  0  0  0  0  0  0  0  0
  -21.6430  -39.7802   -6.2187 C   0  0  0  0  0  0  0  0  0  0  0  0
  -22.6410  -40.0765   -7.3174 C   0  0  0  0  0  0  0  0  0  0  0  0
  -23.4363  -41.3438   -7.0384 C   0  0  0  0  0  0  0  0  0  0  0  0
  -23.3255  -42.3209   -8.1721 C   0  0  0  0  0  0  0  0  0  0  0  0
  -23.6041  -43.7341   -7.8143 C   0  0  2  0  0  0  0  0  0  0  0  0
  -25.1131  -43.9405   -7.6624 C   0  0  0  0  0  0  0  0  0  0  0  0
  -22.9438  -44.2378   -6.5858 C   0  0  0  0  0  0  0  0  0  0  0  0
  -21.4406  -44.1084   -6.6056 C   0  0  0  0  0  0  0  0  0  0  0  0
  -20.8337  -44.3956   -7.9029 C   0  0  0  0  0  0  0  0  0  0  0  0
  -21.1997  -45.3866   -8.5819 O   0  0  0  0  0  0  0  0  0  0  0  0
  -19.8032  -43.5766   -8.4659 N   0  0  0  0  0  0  0  0  0  0  0  0
  -19.5389  -43.6616   -9.8789 C   0  0  0  0  0  0  0  0  0  0  0  0
  -19.0496  -42.6731   -7.5754 C   0  0  1  0  0  0  0  0  0  0  0  0
  -18.5556  -43.5737   -6.4400 C   0  0  0  0  0  0  0  0  0  0  0  0
  -17.8772  -42.1683   -8.3320 C   0  0  0  0  0  0  0  0  0  0  0  0
  -16.9915  -43.0732   -8.5589 O   0  0  0  0  0  0  0  0  0  0  0  0
  -17.6717  -40.8569   -8.7926 N   0  0  0  0  0  0  0  0  0  0  0  0
  1  2  1  0
  2  3  1  0
  3  4  1  0
  4  5  1  0
  5  6  1  0
  6  7  2  0
  6  8  1  0
  8  9  1  6
  8 10  1  0
 10 11  1  0
 11 12  1  1
 11 13  1  0
 13 14  1  1
 14 15  1  0
 15 16  1  1
 15 17  1  0
 17 18  1  0
 18 19  1  0
 19 20  1  0
 20 21  1  0
 21 22  1  0
 22 23  1  1
 22 24  1  0
 24 25  1  0
 25 26  1  0
 26 27  2  0
 26 28  1  0
 28 29  1  0
 28 30  1  0
 30 31  1  1
 30 32  1  0
 32 33  2  0
 32 34  1  0
 34 13  1  0
M  END
$$$$
