
     RDKit          3D

 34 34  0  0  0  0  0  0  0  0999 V2000
  -11.7980  -37.3496  -15.9220 C   0  0  0  0  0  0  0  0  0  0  0  0
  -12.5595  -36.8125  -14.7250 C   0  0  0  0  0  0  0  0  0  0  0  0
  -12.2838  -37.6277  -13.4827 C   0  0  0  0  0  0  0  0  0  0  0  0
  -12.8539  -36.9982  -12.2411 C   0  0  0  0  0  0  0  0  0  0  0  0
  -12.5737  -37.7403  -11.0487 N   0  0  0  0  0  0  0  0  0  0  0  0
  -13.2832  -38.9535  -10.8141 C   0  0  0  0  0  0  0  0  0  0  0  0
  -13.6887  -39.5891  -11.8056 O   0  0  0  0  0  0  0  0  0  0  0  0
  -13.4993  -39.3895   -9.4473 C   0  0  2  0  0  0  0  0  0  0  0  0
  -12.5682  -40.5795   -9.1408 C   0  0  0  0  0  0  0  0  0  0  0  0
  -14.8667  -39.7201   -9.0102 C   0  0  0  0  0  0  0  0  0  0  0  0
  -15.7671  -38.6247   -8.5918 C   0  0  2  0  0  0  0  0  0  0  0  0
  -15.3670  -37.8179   -7.5690 O   0  0  0  0  0  0  0  0  0  0  0  0
  -17.1748  -39.2087   -8.3170 C   0  0  2  0  0  0  0  0  0  0  0  0
  -17.4379  -39.2310   -6.8639 C   0  0  0  0  0  0  0  0  0  0  0  0
  -18.6168  -38.4281   -6.4042 C   0  0  2  0  0  0  0  0  0  0  0  0
  -19.0151  -38.9762   -5.0335 C   0  0  0  0  0  0  0  0  0  0  0  0
  -19.8032  -38.4092   -7.2754 C   0  0  0  0  0  0  0  0  0  0  0  0
  -21.0955  -38.8883   -6.5960 C   0  0  0  0  0  0  0  0  0  0  0  0
  -22.0886  -39.1371   -7.7109 C   0  0  0  0  0  0  0  0  0  0  0  0
  -23.0150  -40.3037   -7.3991 C   0  0  0  0  0  0  0  0  0  0  0  0
  -22.9731  -41.3413   -8.4825 C   0  0  0  0  0  0  0  0  0  0  0  0
  -23.4026  -42.7005   -8.0691 C   0  0  2  0  0  0  0  0  0  0  0  0
  -24.9282  -42.7478   -7.9555 C   0  0  0  0  0  0  0  0  0  0  0  0
  -22.8297  -43.2067   -6.7986 C   0  0  0  0  0  0  0  0  0  0  0  0
  -21.3211  -43.2289   -6.7769 C   0  0  0  0  0  0  0  0  0  0  0  0
  -20.7118  -43.6382   -8.0398 C   0  0  0  0  0  0  0  0  0  0  0  0
  -21.1577  -44.6199   -8.6837 O   0  0  0  0  0  0  0  0  0  0  0  0
  -19.5891  -42.9545   -8.6071 N   0  0  0  0  0  0  0  0  0  0  0  0
  -19.2971  -43.1344  -10.0057 C   0  0  0  0  0  0  0  0  0  0  0  0
  -18.7722  -42.0880   -7.7357 C   0  0  1  0  0  0  0  0  0  0  0  0
  -18.4023  -42.9767   -6.5452 C   0  0  0  0  0  0  0  0  0  0  0  0
  -17.5350  -41.7402   -8.4774 C   0  0  0  0  0  0  0  0  0  0  0  0
  -16.7395  -42.7389   -8.6344 O   0  0  0  0  0  0  0  0  0  0  0  0
  -17.1858  -40.4798   -8.9911 N   0  0  0  0  0  0  0  0  0  0  0  0
  1  2  1  0
  2  3  1  0
  3  4  1  0
  4  5  1  0
  5  6  1  0
  6  7  2  0
  6  8  1  0
  8  9  1  6
  8 10  1  0
 10 11  1  0
 11 12  1  1
 11 13  1  0
 13 14  1  1
 14 15  1  0
 15 16  1  1
 15 17  1  0
 17 18  1  0
 18 19  1  0
 19 20  1  0
 20 21  1  0
 21 22  1  0
 22 23  1  1
 22 24  1  0
 24 25  1  0
 25 26  1  0
 26 27  2  0
 26 28  1  0
 28 29  1  0
 28 30  1  0
 30 31  1  1
 30 32  1  0
 32 33  2  0
 32 34  1  0
 34 13  1  0
M  END
$$$$
