
     RDKit          3D

 34 34  0  0  0  0  0  0  0  0999 V2000
  -13.8670  -34.3711  -12.8391 C   0  0  0  0  0  0  0  0  0  0  0  0
  -13.0171  -35.3840  -12.0958 C   0  0  0  0  0  0  0  0  0  0  0  0
  -13.3421  -36.7973  -12.5210 C   0  0  0  0  0  0  0  0  0  0  0  0
  -12.5443  -37.8251  -11.7660 C   0  0  0  0  0  0  0  0  0  0  0  0
  -13.0443  -38.0753  -10.4476 N   0  0  0  0  0  0  0  0  0  0  0  0
  -13.9362  -39.1687  -10.2490 C   0  0  0  0  0  0  0  0  0  0  0  0
  -14.6082  -39.5533  -11.2247 O   0  0  0  0  0  0  0  0  0  0  0  0
  -14.0211  -39.7780   -8.9351 C   0  0  2  0  0  0  0  0  0  0  0  0
  -13.1603  -41.0570   -8.9121 C   0  0  0  0  0  0  0  0  0  0  0  0
  -15.3484  -40.0781   -8.3708 C   0  0  0  0  0  0  0  0  0  0  0  0
  -16.2019  -38.9586   -7.9191 C   0  0  2  0  0  0  0  0  0  0  0  0
  -15.7896  -38.2275   -6.8455 O   0  0  0  0  0  0  0  0  0  0  0  0
  -17.6456  -39.4793   -7.7119 C   0  0  2  0  0  0  0  0  0  0  0  0
  -18.0340  -39.3410   -6.2937 C   0  0  0  0  0  0  0  0  0  0  0  0
  -19.2228  -38.4684   -6.0274 C   0  0  2  0  0  0  0  0  0  0  0  0
  -19.7551  -38.8585   -4.6481 C   0  0  0  0  0  0  0  0  0  0  0  0
  -20.3282  -38.5168   -6.9983 C   0  0  0  0  0  0  0  0  0  0  0  0
  -21.6887  -38.8927   -6.3908 C   0  0  0  0  0  0  0  0  0  0  0  0
  -22.5887  -39.2373   -7.5580 C   0  0  0  0  0  0  0  0  0  0  0  0
  -23.5743  -40.3437   -7.2103 C   0  0  0  0  0  0  0  0  0  0  0  0
  -23.4710  -41.4915   -8.1716 C   0  0  0  0  0  0  0  0  0  0  0  0
  -23.9765  -42.7893   -7.6588 C   0  0  2  0  0  0  0  0  0  0  0  0
  -25.5069  -42.7912   -7.6777 C   0  0  0  0  0  0  0  0  0  0  0  0
  -23.5316  -43.1695   -6.2963 C   0  0  0  0  0  0  0  0  0  0  0  0
  -22.0320  -43.2219   -6.1378 C   0  0  0  0  0  0  0  0  0  0  0  0
  -21.3286  -43.7765   -7.2916 C   0  0  0  0  0  0  0  0  0  0  0  0
  -21.7473  -44.8113   -7.8670 O   0  0  0  0  0  0  0  0  0  0  0  0
  -20.1404  -43.1816   -7.8245 N   0  0  0  0  0  0  0  0  0  0  0  0
  -19.7342  -43.5158   -9.1650 C   0  0  0  0  0  0  0  0  0  0  0  0
  -19.3756  -42.2452   -6.9787 C   0  0  1  0  0  0  0  0  0  0  0  0
  -19.1378  -43.0097   -5.6737 C   0  0  0  0  0  0  0  0  0  0  0  0
  -18.0687  -42.0051   -7.6390 C   0  0  0  0  0  0  0  0  0  0  0  0
  -17.2939  -43.0319   -7.6194 O   0  0  0  0  0  0  0  0  0  0  0  0
  -17.6375  -40.8146   -8.2481 N   0  0  0  0  0  0  0  0  0  0  0  0
  1  2  1  0
  2  3  1  0
  3  4  1  0
  4  5  1  0
  5  6  1  0
  6  7  2  0
  6  8  1  0
  8  9  1  6
  8 10  1  0
 10 11  1  0
 11 12  1  1
 11 13  1  0
 13 14  1  1
 14 15  1  0
 15 16  1  1
 15 17  1  0
 17 18  1  0
 18 19  1  0
 19 20  1  0
 20 21  1  0
 21 22  1  0
 22 23  1  1
 22 24  1  0
 24 25  1  0
 25 26  1  0
 26 27  2  0
 26 28  1  0
 28 29  1  0
 28 30  1  0
 30 31  1  1
 30 32  1  0
 32 33  2  0
 32 34  1  0
 34 13  1  0
M  END
$$$$
