
     RDKit          3D

 34 34  0  0  0  0  0  0  0  0999 V2000
  -11.3846  -35.0756  -12.5563 C   0  0  0  0  0  0  0  0  0  0  0  0
  -12.8788  -35.2905  -12.7055 C   0  0  0  0  0  0  0  0  0  0  0  0
  -13.4541  -36.0224  -11.5151 C   0  0  0  0  0  0  0  0  0  0  0  0
  -12.7915  -37.3522  -11.2798 C   0  0  0  0  0  0  0  0  0  0  0  0
  -13.1452  -37.9486  -10.0267 N   0  0  0  0  0  0  0  0  0  0  0  0
  -14.1355  -38.9729  -10.0106 C   0  0  0  0  0  0  0  0  0  0  0  0
  -14.8630  -39.0919  -11.0148 O   0  0  0  0  0  0  0  0  0  0  0  0
  -14.2515  -39.8216   -8.8397 C   0  0  2  0  0  0  0  0  0  0  0  0
  -13.4618  -41.1244   -9.0768 C   0  0  0  0  0  0  0  0  0  0  0  0
  -15.5923  -40.1549   -8.3284 C   0  0  0  0  0  0  0  0  0  0  0  0
  -16.6331  -39.1050   -8.3160 C   0  0  2  0  0  0  0  0  0  0  0  0
  -16.4139  -37.9904   -7.5633 O   0  0  0  0  0  0  0  0  0  0  0  0
  -17.9950  -39.7518   -7.9625 C   0  0  2  0  0  0  0  0  0  0  0  0
  -18.2849  -39.5665   -6.5263 C   0  0  0  0  0  0  0  0  0  0  0  0
  -19.5332  -38.8006   -6.2085 C   0  0  2  0  0  0  0  0  0  0  0  0
  -19.9143  -39.1568   -4.7712 C   0  0  0  0  0  0  0  0  0  0  0  0
  -20.6994  -39.0166   -7.0804 C   0  0  0  0  0  0  0  0  0  0  0  0
  -21.9629  -39.4870   -6.3432 C   0  0  0  0  0  0  0  0  0  0  0  0
  -22.9101  -39.9889   -7.4119 C   0  0  0  0  0  0  0  0  0  0  0  0
  -23.7466  -41.1638   -6.9258 C   0  0  0  0  0  0  0  0  0  0  0  0
  -23.6001  -42.3521   -7.8306 C   0  0  0  0  0  0  0  0  0  0  0  0
  -23.9280  -43.6598   -7.2100 C   0  0  2  0  0  0  0  0  0  0  0  0
  -25.4470  -43.8137   -7.1016 C   0  0  0  0  0  0  0  0  0  0  0  0
  -23.3424  -43.9109   -5.8710 C   0  0  0  0  0  0  0  0  0  0  0  0
  -21.8376  -43.8056   -5.8349 C   0  0  0  0  0  0  0  0  0  0  0  0
  -21.1721  -44.3574   -7.0123 C   0  0  0  0  0  0  0  0  0  0  0  0
  -21.5251  -45.4614   -7.4956 O   0  0  0  0  0  0  0  0  0  0  0  0
  -20.0962  -43.6818   -7.6726 N   0  0  0  0  0  0  0  0  0  0  0  0
  -19.7625  -44.0552   -9.0227 C   0  0  0  0  0  0  0  0  0  0  0  0
  -19.3690  -42.6249   -6.9437 C   0  0  1  0  0  0  0  0  0  0  0  0
  -18.9536  -43.2816   -5.6245 C   0  0  0  0  0  0  0  0  0  0  0  0
  -18.1487  -42.2979   -7.7219 C   0  0  0  0  0  0  0  0  0  0  0  0
  -17.2730  -43.2402   -7.7126 O   0  0  0  0  0  0  0  0  0  0  0  0
  -17.8908  -41.1099   -8.4265 N   0  0  0  0  0  0  0  0  0  0  0  0
  1  2  1  0
  2  3  1  0
  3  4  1  0
  4  5  1  0
  5  6  1  0
  6  7  2  0
  6  8  1  0
  8  9  1  6
  8 10  1  0
 10 11  1  0
 11 12  1  1
 11 13  1  0
 13 14  1  1
 14 15  1  0
 15 16  1  1
 15 17  1  0
 17 18  1  0
 18 19  1  0
 19 20  1  0
 20 21  1  0
 21 22  1  0
 22 23  1  1
 22 24  1  0
 24 25  1  0
 25 26  1  0
 26 27  2  0
 26 28  1  0
 28 29  1  0
 28 30  1  0
 30 31  1  1
 30 32  1  0
 32 33  2  0
 32 34  1  0
 34 13  1  0
M  END
$$$$
