
     RDKit          3D

 34 34  0  0  0  0  0  0  0  0999 V2000
  -12.2043  -35.8328  -14.0956 C   0  0  0  0  0  0  0  0  0  0  0  0
  -13.5517  -36.3220  -13.5996 C   0  0  0  0  0  0  0  0  0  0  0  0
  -13.4003  -37.4710  -12.6296 C   0  0  0  0  0  0  0  0  0  0  0  0
  -13.0813  -37.0098  -11.2338 C   0  0  0  0  0  0  0  0  0  0  0  0
  -12.8622  -38.0873  -10.3163 N   0  0  0  0  0  0  0  0  0  0  0  0
  -13.8785  -39.0743  -10.1632 C   0  0  0  0  0  0  0  0  0  0  0  0
  -14.6860  -39.2251  -11.0995 O   0  0  0  0  0  0  0  0  0  0  0  0
  -13.9272  -39.8503   -8.9383 C   0  0  2  0  0  0  0  0  0  0  0  0
  -13.1836  -41.1839   -9.1524 C   0  0  0  0  0  0  0  0  0  0  0  0
  -15.2343  -40.1201   -8.3146 C   0  0  0  0  0  0  0  0  0  0  0  0
  -16.2273  -39.0276   -8.2367 C   0  0  2  0  0  0  0  0  0  0  0  0
  -16.0214  -38.0343   -7.3267 O   0  0  0  0  0  0  0  0  0  0  0  0
  -17.6392  -39.6427   -8.0737 C   0  0  2  0  0  0  0  0  0  0  0  0
  -18.0574  -39.5802   -6.6587 C   0  0  0  0  0  0  0  0  0  0  0  0
  -19.3018  -38.7920   -6.3828 C   0  0  2  0  0  0  0  0  0  0  0  0
  -19.8304  -39.2640   -5.0279 C   0  0  0  0  0  0  0  0  0  0  0  0
  -20.3868  -38.8722   -7.3743 C   0  0  0  0  0  0  0  0  0  0  0  0
  -21.7309  -39.3523   -6.8048 C   0  0  0  0  0  0  0  0  0  0  0  0
  -22.5897  -39.7084   -7.9993 C   0  0  0  0  0  0  0  0  0  0  0  0
  -23.5105  -40.8848   -7.7087 C   0  0  0  0  0  0  0  0  0  0  0  0
  -23.3217  -41.9883   -8.7081 C   0  0  0  0  0  0  0  0  0  0  0  0
  -23.7542  -43.3324   -8.2508 C   0  0  2  0  0  0  0  0  0  0  0  0
  -25.2812  -43.4270   -8.2969 C   0  0  0  0  0  0  0  0  0  0  0  0
  -23.3081  -43.7342   -6.8949 C   0  0  0  0  0  0  0  0  0  0  0  0
  -21.8107  -43.7008   -6.7117 C   0  0  0  0  0  0  0  0  0  0  0  0
  -21.0566  -44.1690   -7.8718 C   0  0  0  0  0  0  0  0  0  0  0  0
  -21.4017  -45.2057   -8.4909 O   0  0  0  0  0  0  0  0  0  0  0  0
  -19.8992  -43.4836   -8.3620 N   0  0  0  0  0  0  0  0  0  0  0  0
  -19.4523  -43.7433   -9.7061 C   0  0  0  0  0  0  0  0  0  0  0  0
  -19.2068  -42.5338   -7.4701 C   0  0  1  0  0  0  0  0  0  0  0  0
  -18.9427  -43.3295   -6.1890 C   0  0  0  0  0  0  0  0  0  0  0  0
  -17.9070  -42.1905   -8.0981 C   0  0  0  0  0  0  0  0  0  0  0  0
  -17.0708  -43.1681   -8.1011 O   0  0  0  0  0  0  0  0  0  0  0  0
  -17.5405  -40.9545   -8.6568 N   0  0  0  0  0  0  0  0  0  0  0  0
  1  2  1  0
  2  3  1  0
  3  4  1  0
  4  5  1  0
  5  6  1  0
  6  7  2  0
  6  8  1  0
  8  9  1  6
  8 10  1  0
 10 11  1  0
 11 12  1  1
 11 13  1  0
 13 14  1  1
 14 15  1  0
 15 16  1  1
 15 17  1  0
 17 18  1  0
 18 19  1  0
 19 20  1  0
 20 21  1  0
 21 22  1  0
 22 23  1  1
 22 24  1  0
 24 25  1  0
 25 26  1  0
 26 27  2  0
 26 28  1  0
 28 29  1  0
 28 30  1  0
 30 31  1  1
 30 32  1  0
 32 33  2  0
 32 34  1  0
 34 13  1  0
M  END
$$$$
