
     RDKit          3D

 34 34  0  0  0  0  0  0  0  0999 V2000
  -13.4122  -33.8382  -12.3850 C   0  0  0  0  0  0  0  0  0  0  0  0
  -12.9258  -35.2173  -12.7883 C   0  0  0  0  0  0  0  0  0  0  0  0
  -12.9103  -36.1647  -11.6110 C   0  0  0  0  0  0  0  0  0  0  0  0
  -12.5502  -37.5707  -12.0063 C   0  0  0  0  0  0  0  0  0  0  0  0
  -12.5849  -38.4943  -10.9124 N   0  0  0  0  0  0  0  0  0  0  0  0
  -13.8467  -38.9914  -10.4751 C   0  0  0  0  0  0  0  0  0  0  0  0
  -14.8332  -38.7957  -11.2100 O   0  0  0  0  0  0  0  0  0  0  0  0
  -13.9256  -39.6949   -9.2088 C   0  0  2  0  0  0  0  0  0  0  0  0
  -12.9858  -40.9167   -9.2475 C   0  0  0  0  0  0  0  0  0  0  0  0
  -15.2448  -40.1152   -8.7055 C   0  0  0  0  0  0  0  0  0  0  0  0
  -16.1408  -39.0982   -8.1151 C   0  0  2  0  0  0  0  0  0  0  0  0
  -15.7427  -38.4770   -6.9694 O   0  0  0  0  0  0  0  0  0  0  0  0
  -17.5544  -39.7089   -7.9503 C   0  0  2  0  0  0  0  0  0  0  0  0
  -17.9912  -39.5999   -6.5438 C   0  0  0  0  0  0  0  0  0  0  0  0
  -19.2395  -38.8042   -6.3105 C   0  0  2  0  0  0  0  0  0  0  0  0
  -19.7856  -39.2315   -4.9477 C   0  0  0  0  0  0  0  0  0  0  0  0
  -20.3114  -38.9184   -7.3129 C   0  0  0  0  0  0  0  0  0  0  0  0
  -21.6625  -39.3806   -6.7455 C   0  0  0  0  0  0  0  0  0  0  0  0
  -22.5054  -39.7770   -7.9386 C   0  0  0  0  0  0  0  0  0  0  0  0
  -23.4293  -40.9440   -7.6212 C   0  0  0  0  0  0  0  0  0  0  0  0
  -23.2268  -42.0799   -8.5809 C   0  0  0  0  0  0  0  0  0  0  0  0
  -23.6646  -43.4085   -8.0849 C   0  0  2  0  0  0  0  0  0  0  0  0
  -25.1907  -43.5061   -8.1478 C   0  0  0  0  0  0  0  0  0  0  0  0
  -23.2360  -43.7647   -6.7107 C   0  0  0  0  0  0  0  0  0  0  0  0
  -21.7412  -43.7237   -6.5091 C   0  0  0  0  0  0  0  0  0  0  0  0
  -20.9717  -44.2294   -7.6431 C   0  0  0  0  0  0  0  0  0  0  0  0
  -21.3081  -45.2865   -8.2318 O   0  0  0  0  0  0  0  0  0  0  0  0
  -19.8083  -43.5595   -8.1405 N   0  0  0  0  0  0  0  0  0  0  0  0
  -19.3436  -43.8632   -9.4692 C   0  0  0  0  0  0  0  0  0  0  0  0
  -19.1281  -42.5799   -7.2716 C   0  0  1  0  0  0  0  0  0  0  0  0
  -18.8805  -43.3325   -5.9615 C   0  0  0  0  0  0  0  0  0  0  0  0
  -17.8204  -42.2565   -7.8936 C   0  0  0  0  0  0  0  0  0  0  0  0
  -16.9837  -43.2328   -7.8533 O   0  0  0  0  0  0  0  0  0  0  0  0
  -17.4474  -41.0392   -8.4882 N   0  0  0  0  0  0  0  0  0  0  0  0
  1  2  1  0
  2  3  1  0
  3  4  1  0
  4  5  1  0
  5  6  1  0
  6  7  2  0
  6  8  1  0
  8  9  1  6
  8 10  1  0
 10 11  1  0
 11 12  1  1
 11 13  1  0
 13 14  1  1
 14 15  1  0
 15 16  1  1
 15 17  1  0
 17 18  1  0
 18 19  1  0
 19 20  1  0
 20 21  1  0
 21 22  1  0
 22 23  1  1
 22 24  1  0
 24 25  1  0
 25 26  1  0
 26 27  2  0
 26 28  1  0
 28 29  1  0
 28 30  1  0
 30 31  1  1
 30 32  1  0
 32 33  2  0
 32 34  1  0
 34 13  1  0
M  END
$$$$
