
     RDKit          3D

 34 34  0  0  0  0  0  0  0  0999 V2000
  -15.8159  -34.8569  -13.1658 C   0  0  0  0  0  0  0  0  0  0  0  0
  -15.3614  -35.4933  -11.8659 C   0  0  0  0  0  0  0  0  0  0  0  0
  -13.9270  -35.9616  -11.9511 C   0  0  0  0  0  0  0  0  0  0  0  0
  -13.4084  -36.4749  -10.6357 C   0  0  0  0  0  0  0  0  0  0  0  0
  -13.0624  -37.8642  -10.6652 N   0  0  0  0  0  0  0  0  0  0  0  0
  -14.0779  -38.8290  -10.4037 C   0  0  0  0  0  0  0  0  0  0  0  0
  -15.0269  -38.9042  -11.2071 O   0  0  0  0  0  0  0  0  0  0  0  0
  -13.9631  -39.6706   -9.2276 C   0  0  2  0  0  0  0  0  0  0  0  0
  -12.9490  -40.7979   -9.5071 C   0  0  0  0  0  0  0  0  0  0  0  0
  -15.1838  -40.2521   -8.6429 C   0  0  0  0  0  0  0  0  0  0  0  0
  -16.0762  -39.3850   -7.8446 C   0  0  2  0  0  0  0  0  0  0  0  0
  -15.6848  -39.0451   -6.5843 O   0  0  0  0  0  0  0  0  0  0  0  0
  -17.4976  -39.9997   -7.8352 C   0  0  2  0  0  0  0  0  0  0  0  0
  -18.1428  -39.7609   -6.5284 C   0  0  0  0  0  0  0  0  0  0  0  0
  -19.4132  -38.9667   -6.5660 C   0  0  2  0  0  0  0  0  0  0  0  0
  -20.1591  -39.2677   -5.2655 C   0  0  0  0  0  0  0  0  0  0  0  0
  -20.3205  -39.1959   -7.7022 C   0  0  0  0  0  0  0  0  0  0  0  0
  -21.7414  -39.6225   -7.3021 C   0  0  0  0  0  0  0  0  0  0  0  0
  -22.3930  -40.1473   -8.5635 C   0  0  0  0  0  0  0  0  0  0  0  0
  -23.3528  -41.2927   -8.2750 C   0  0  0  0  0  0  0  0  0  0  0  0
  -23.0055  -42.5134   -9.0759 C   0  0  0  0  0  0  0  0  0  0  0  0
  -23.5117  -43.7941   -8.5224 C   0  0  2  0  0  0  0  0  0  0  0  0
  -25.0105  -43.9224   -8.8048 C   0  0  0  0  0  0  0  0  0  0  0  0
  -23.2960  -44.0073   -7.0709 C   0  0  0  0  0  0  0  0  0  0  0  0
  -21.8491  -43.9224   -6.6512 C   0  0  0  0  0  0  0  0  0  0  0  0
  -20.9158  -44.5238   -7.6005 C   0  0  0  0  0  0  0  0  0  0  0  0
  -21.1576  -45.6387   -8.1256 O   0  0  0  0  0  0  0  0  0  0  0  0
  -19.6913  -43.8868   -7.9807 N   0  0  0  0  0  0  0  0  0  0  0  0
  -19.0301  -44.3112   -9.1875 C   0  0  0  0  0  0  0  0  0  0  0  0
  -19.1522  -42.8160   -7.1205 C   0  0  1  0  0  0  0  0  0  0  0  0
  -19.1051  -43.4328   -5.7200 C   0  0  0  0  0  0  0  0  0  0  0  0
  -17.7657  -42.5335   -7.5672 C   0  0  0  0  0  0  0  0  0  0  0  0
  -16.9435  -43.4874   -7.3046 O   0  0  0  0  0  0  0  0  0  0  0  0
  -17.3084  -41.3742   -8.2163 N   0  0  0  0  0  0  0  0  0  0  0  0
  1  2  1  0
  2  3  1  0
  3  4  1  0
  4  5  1  0
  5  6  1  0
  6  7  2  0
  6  8  1  0
  8  9  1  6
  8 10  1  0
 10 11  1  0
 11 12  1  1
 11 13  1  0
 13 14  1  1
 14 15  1  0
 15 16  1  1
 15 17  1  0
 17 18  1  0
 18 19  1  0
 19 20  1  0
 20 21  1  0
 21 22  1  0
 22 23  1  1
 22 24  1  0
 24 25  1  0
 25 26  1  0
 26 27  2  0
 26 28  1  0
 28 29  1  0
 28 30  1  0
 30 31  1  1
 30 32  1  0
 32 33  2  0
 32 34  1  0
 34 13  1  0
M  END
$$$$
