
     RDKit          3D

 34 34  0  0  0  0  0  0  0  0999 V2000
  -12.4513  -35.3765  -13.5958 C   0  0  0  0  0  0  0  0  0  0  0  0
  -11.4740  -36.4794  -13.2361 C   0  0  0  0  0  0  0  0  0  0  0  0
  -11.6820  -36.9626  -11.8194 C   0  0  0  0  0  0  0  0  0  0  0  0
  -12.6477  -38.1132  -11.7380 C   0  0  0  0  0  0  0  0  0  0  0  0
  -12.8560  -38.5858  -10.4023 N   0  0  0  0  0  0  0  0  0  0  0  0
  -13.7125  -39.7059  -10.1975 C   0  0  0  0  0  0  0  0  0  0  0  0
  -14.2317  -40.2299  -11.2012 O   0  0  0  0  0  0  0  0  0  0  0  0
  -13.9392  -40.1808   -8.8455 C   0  0  2  0  0  0  0  0  0  0  0  0
  -13.0963  -41.4491   -8.6049 C   0  0  0  0  0  0  0  0  0  0  0  0
  -15.3207  -40.4257   -8.3962 C   0  0  0  0  0  0  0  0  0  0  0  0
  -16.2550  -39.2836   -8.3055 C   0  0  2  0  0  0  0  0  0  0  0  0
  -15.9721  -38.2894   -7.4174 O   0  0  0  0  0  0  0  0  0  0  0  0
  -17.6903  -39.8243   -8.0911 C   0  0  2  0  0  0  0  0  0  0  0  0
  -18.1495  -39.5104   -6.7231 C   0  0  0  0  0  0  0  0  0  0  0  0
  -19.3759  -38.6541   -6.6295 C   0  0  2  0  0  0  0  0  0  0  0  0
  -19.9608  -38.8739   -5.2339 C   0  0  0  0  0  0  0  0  0  0  0  0
  -20.4320  -38.8737   -7.6311 C   0  0  0  0  0  0  0  0  0  0  0  0
  -21.8076  -39.2140   -7.0369 C   0  0  0  0  0  0  0  0  0  0  0  0
  -22.6403  -39.7459   -8.1836 C   0  0  0  0  0  0  0  0  0  0  0  0
  -23.6068  -40.8308   -7.7308 C   0  0  0  0  0  0  0  0  0  0  0  0
  -23.4229  -42.0932   -8.5211 C   0  0  0  0  0  0  0  0  0  0  0  0
  -23.9121  -43.3276   -7.8582 C   0  0  2  0  0  0  0  0  0  0  0  0
  -25.4392  -43.3885   -7.9421 C   0  0  0  0  0  0  0  0  0  0  0  0
  -23.5209  -43.5039   -6.4387 C   0  0  0  0  0  0  0  0  0  0  0  0
  -22.0296  -43.4792   -6.2104 C   0  0  0  0  0  0  0  0  0  0  0  0
  -21.2556  -44.1582   -7.2466 C   0  0  0  0  0  0  0  0  0  0  0  0
  -21.6146  -45.2759   -7.6928 O   0  0  0  0  0  0  0  0  0  0  0  0
  -20.0623  -43.5973   -7.8043 N   0  0  0  0  0  0  0  0  0  0  0  0
  -19.5829  -44.0941   -9.0680 C   0  0  0  0  0  0  0  0  0  0  0  0
  -19.3675  -42.5278   -7.0622 C   0  0  1  0  0  0  0  0  0  0  0  0
  -19.1686  -43.1000   -5.6562 C   0  0  0  0  0  0  0  0  0  0  0  0
  -18.0387  -42.3311   -7.6926 C   0  0  0  0  0  0  0  0  0  0  0  0
  -17.2346  -43.3165   -7.4998 O   0  0  0  0  0  0  0  0  0  0  0  0
  -17.6158  -41.2185   -8.4393 N   0  0  0  0  0  0  0  0  0  0  0  0
  1  2  1  0
  2  3  1  0
  3  4  1  0
  4  5  1  0
  5  6  1  0
  6  7  2  0
  6  8  1  0
  8  9  1  6
  8 10  1  0
 10 11  1  0
 11 12  1  1
 11 13  1  0
 13 14  1  1
 14 15  1  0
 15 16  1  1
 15 17  1  0
 17 18  1  0
 18 19  1  0
 19 20  1  0
 20 21  1  0
 21 22  1  0
 22 23  1  1
 22 24  1  0
 24 25  1  0
 25 26  1  0
 26 27  2  0
 26 28  1  0
 28 29  1  0
 28 30  1  0
 30 31  1  1
 30 32  1  0
 32 33  2  0
 32 34  1  0
 34 13  1  0
M  END
$$$$
