
     RDKit          3D

 34 34  0  0  0  0  0  0  0  0999 V2000
  -15.1170  -35.4449  -14.6303 C   0  0  0  0  0  0  0  0  0  0  0  0
  -14.1070  -35.0584  -13.5665 C   0  0  0  0  0  0  0  0  0  0  0  0
  -14.2932  -35.8707  -12.3057 C   0  0  0  0  0  0  0  0  0  0  0  0
  -13.2704  -36.9651  -12.1680 C   0  0  0  0  0  0  0  0  0  0  0  0
  -13.3435  -37.6558  -10.9156 N   0  0  0  0  0  0  0  0  0  0  0  0
  -14.3330  -38.6671  -10.7474 C   0  0  0  0  0  0  0  0  0  0  0  0
  -15.2653  -38.7090  -11.5725 O   0  0  0  0  0  0  0  0  0  0  0  0
  -14.2125  -39.5920   -9.6362 C   0  0  2  0  0  0  0  0  0  0  0  0
  -13.2512  -40.7324  -10.0269 C   0  0  0  0  0  0  0  0  0  0  0  0
  -15.4349  -40.1691   -9.0507 C   0  0  0  0  0  0  0  0  0  0  0  0
  -16.2379  -39.3471   -8.1205 C   0  0  2  0  0  0  0  0  0  0  0  0
  -15.7840  -39.1893   -6.8453 O   0  0  0  0  0  0  0  0  0  0  0  0
  -17.6984  -39.8620   -8.1277 C   0  0  2  0  0  0  0  0  0  0  0  0
  -18.3066  -39.6754   -6.7948 C   0  0  0  0  0  0  0  0  0  0  0  0
  -19.5188  -38.7954   -6.7508 C   0  0  2  0  0  0  0  0  0  0  0  0
  -20.2652  -39.1385   -5.4611 C   0  0  0  0  0  0  0  0  0  0  0  0
  -20.4561  -38.8784   -7.8828 C   0  0  0  0  0  0  0  0  0  0  0  0
  -21.8975  -39.2346   -7.4868 C   0  0  0  0  0  0  0  0  0  0  0  0
  -22.6021  -39.6201   -8.7698 C   0  0  0  0  0  0  0  0  0  0  0  0
  -23.6353  -40.7150   -8.5457 C   0  0  0  0  0  0  0  0  0  0  0  0
  -23.3856  -41.8950   -9.4386 C   0  0  0  0  0  0  0  0  0  0  0  0
  -23.9718  -43.1750   -8.9687 C   0  0  2  0  0  0  0  0  0  0  0  0
  -25.4799  -43.1792   -9.2305 C   0  0  0  0  0  0  0  0  0  0  0  0
  -23.7508  -43.5077   -7.5407 C   0  0  0  0  0  0  0  0  0  0  0  0
  -22.2956  -43.5530   -7.1441 C   0  0  0  0  0  0  0  0  0  0  0  0
  -21.4203  -44.1462   -8.1519 C   0  0  0  0  0  0  0  0  0  0  0  0
  -21.7468  -45.2006   -8.7509 O   0  0  0  0  0  0  0  0  0  0  0  0
  -20.1599  -43.5686   -8.5091 N   0  0  0  0  0  0  0  0  0  0  0  0
  -19.5473  -43.9482   -9.7558 C   0  0  0  0  0  0  0  0  0  0  0  0
  -19.5351  -42.6028   -7.5849 C   0  0  1  0  0  0  0  0  0  0  0  0
  -19.5111  -43.3218   -6.2335 C   0  0  0  0  0  0  0  0  0  0  0  0
  -18.1388  -42.3842   -8.0370 C   0  0  0  0  0  0  0  0  0  0  0  0
  -17.3815  -43.4088   -7.8594 O   0  0  0  0  0  0  0  0  0  0  0  0
  -17.6111  -41.2148   -8.6100 N   0  0  0  0  0  0  0  0  0  0  0  0
  1  2  1  0
  2  3  1  0
  3  4  1  0
  4  5  1  0
  5  6  1  0
  6  7  2  0
  6  8  1  0
  8  9  1  6
  8 10  1  0
 10 11  1  0
 11 12  1  1
 11 13  1  0
 13 14  1  1
 14 15  1  0
 15 16  1  1
 15 17  1  0
 17 18  1  0
 18 19  1  0
 19 20  1  0
 20 21  1  0
 21 22  1  0
 22 23  1  1
 22 24  1  0
 24 25  1  0
 25 26  1  0
 26 27  2  0
 26 28  1  0
 28 29  1  0
 28 30  1  0
 30 31  1  1
 30 32  1  0
 32 33  2  0
 32 34  1  0
 34 13  1  0
M  END
$$$$
