
     RDKit          3D

 34 34  0  0  0  0  0  0  0  0999 V2000
  -12.2860  -34.5175  -13.3996 C   0  0  0  0  0  0  0  0  0  0  0  0
  -13.0645  -35.6950  -12.8441 C   0  0  0  0  0  0  0  0  0  0  0  0
  -12.1619  -36.8763  -12.5722 C   0  0  0  0  0  0  0  0  0  0  0  0
  -12.2798  -37.3795  -11.1595 C   0  0  0  0  0  0  0  0  0  0  0  0
  -13.4082  -38.2373  -10.9550 N   0  0  0  0  0  0  0  0  0  0  0  0
  -13.5571  -38.8848   -9.6945 C   0  0  0  0  0  0  0  0  0  0  0  0
  -13.1455  -38.2859   -8.6828 O   0  0  0  0  0  0  0  0  0  0  0  0
  -14.1742  -40.1969   -9.6458 C   0  0  2  0  0  0  0  0  0  0  0  0
  -13.8954  -40.9384  -10.9685 C   0  0  0  0  0  0  0  0  0  0  0  0
  -15.6084  -40.3009   -9.3260 C   0  0  0  0  0  0  0  0  0  0  0  0
  -16.2606  -39.1901   -8.6005 C   0  0  2  0  0  0  0  0  0  0  0  0
  -15.6504  -38.7055   -7.4825 O   0  0  0  0  0  0  0  0  0  0  0  0
  -17.7303  -39.5777   -8.3042 C   0  0  2  0  0  0  0  0  0  0  0  0
  -18.1303  -39.0665   -6.9776 C   0  0  0  0  0  0  0  0  0  0  0  0
  -19.2789  -38.1040   -6.9711 C   0  0  2  0  0  0  0  0  0  0  0  0
  -19.8476  -38.1069   -5.5517 C   0  0  0  0  0  0  0  0  0  0  0  0
  -20.3725  -38.3497   -7.9253 C   0  0  0  0  0  0  0  0  0  0  0  0
  -21.7574  -38.4992   -7.2767 C   0  0  0  0  0  0  0  0  0  0  0  0
  -22.6576  -39.0900   -8.3405 C   0  0  0  0  0  0  0  0  0  0  0  0
  -23.7001  -40.0277   -7.7485 C   0  0  0  0  0  0  0  0  0  0  0  0
  -23.6397  -41.3857   -8.3845 C   0  0  0  0  0  0  0  0  0  0  0  0
  -24.2141  -42.4871   -7.5723 C   0  0  2  0  0  0  0  0  0  0  0  0
  -25.7425  -42.4273   -7.6283 C   0  0  0  0  0  0  0  0  0  0  0  0
  -23.8061  -42.5271   -6.1472 C   0  0  0  0  0  0  0  0  0  0  0  0
  -22.3130  -42.6025   -5.9431 C   0  0  0  0  0  0  0  0  0  0  0  0
  -21.6222  -43.4625   -6.9007 C   0  0  0  0  0  0  0  0  0  0  0  0
  -22.0828  -44.5904   -7.2052 O   0  0  0  0  0  0  0  0  0  0  0  0
  -20.3997  -43.0749   -7.5370 N   0  0  0  0  0  0  0  0  0  0  0  0
  -19.9924  -43.7564   -8.7384 C   0  0  0  0  0  0  0  0  0  0  0  0
  -19.6016  -41.9882   -6.9374 C   0  0  1  0  0  0  0  0  0  0  0  0
  -19.4184  -42.4052   -5.4757 C   0  0  0  0  0  0  0  0  0  0  0  0
  -18.2760  -41.9811   -7.6041 C   0  0  0  0  0  0  0  0  0  0  0  0
  -17.5521  -43.0017   -7.3054 O   0  0  0  0  0  0  0  0  0  0  0  0
  -17.7798  -41.0045   -8.4840 N   0  0  0  0  0  0  0  0  0  0  0  0
  1  2  1  0
  2  3  1  0
  3  4  1  0
  4  5  1  0
  5  6  1  0
  6  7  2  0
  6  8  1  0
  8  9  1  6
  8 10  1  0
 10 11  1  0
 11 12  1  1
 11 13  1  0
 13 14  1  1
 14 15  1  0
 15 16  1  1
 15 17  1  0
 17 18  1  0
 18 19  1  0
 19 20  1  0
 20 21  1  0
 21 22  1  0
 22 23  1  1
 22 24  1  0
 24 25  1  0
 25 26  1  0
 26 27  2  0
 26 28  1  0
 28 29  1  0
 28 30  1  0
 30 31  1  1
 30 32  1  0
 32 33  2  0
 32 34  1  0
 34 13  1  0
M  END
$$$$
