
     RDKit          3D

 34 34  0  0  0  0  0  0  0  0999 V2000
  -10.2152  -36.2688  -12.3392 C   0  0  0  0  0  0  0  0  0  0  0  0
  -10.8652  -36.0472  -10.9867 C   0  0  0  0  0  0  0  0  0  0  0  0
  -12.2265  -35.4056  -11.1255 C   0  0  0  0  0  0  0  0  0  0  0  0
  -13.3490  -36.3966  -10.9822 C   0  0  0  0  0  0  0  0  0  0  0  0
  -12.9937  -37.5485  -10.2089 N   0  0  0  0  0  0  0  0  0  0  0  0
  -13.9402  -38.6057  -10.0799 C   0  0  0  0  0  0  0  0  0  0  0  0
  -14.5124  -39.0011  -11.1133 O   0  0  0  0  0  0  0  0  0  0  0  0
  -14.1927  -39.1681   -8.7666 C   0  0  2  0  0  0  0  0  0  0  0  0
  -13.3049  -40.4130   -8.5682 C   0  0  0  0  0  0  0  0  0  0  0  0
  -15.5769  -39.4951   -8.3831 C   0  0  0  0  0  0  0  0  0  0  0  0
  -16.6805  -39.0941   -9.2814 C   0  0  2  0  0  0  0  0  0  0  0  0
  -16.7757  -37.7822   -9.6379 O   0  0  0  0  0  0  0  0  0  0  0  0
  -18.0185  -39.6057   -8.6931 C   0  0  2  0  0  0  0  0  0  0  0  0
  -18.1553  -39.1646   -7.2903 C   0  0  0  0  0  0  0  0  0  0  0  0
  -19.3410  -38.2973   -6.9942 C   0  0  2  0  0  0  0  0  0  0  0  0
  -19.5848  -38.3846   -5.4872 C   0  0  0  0  0  0  0  0  0  0  0  0
  -20.5957  -38.6031   -7.7006 C   0  0  0  0  0  0  0  0  0  0  0  0
  -21.7916  -38.8804   -6.7763 C   0  0  0  0  0  0  0  0  0  0  0  0
  -22.8572  -39.5116   -7.6464 C   0  0  0  0  0  0  0  0  0  0  0  0
  -23.6754  -40.5453   -6.8859 C   0  0  0  0  0  0  0  0  0  0  0  0
  -23.6577  -41.8761   -7.5793 C   0  0  0  0  0  0  0  0  0  0  0  0
  -23.9605  -43.0417   -6.7120 C   0  0  2  0  0  0  0  0  0  0  0  0
  -25.4646  -43.1025   -6.4350 C   0  0  0  0  0  0  0  0  0  0  0  0
  -23.2499  -43.0883   -5.4113 C   0  0  0  0  0  0  0  0  0  0  0  0
  -21.7467  -43.0500   -5.5369 C   0  0  0  0  0  0  0  0  0  0  0  0
  -21.2213  -43.8255   -6.6578 C   0  0  0  0  0  0  0  0  0  0  0  0
  -21.6549  -44.9778   -6.9055 O   0  0  0  0  0  0  0  0  0  0  0  0
  -20.1980  -43.3243   -7.5246 N   0  0  0  0  0  0  0  0  0  0  0  0
  -20.0145  -43.9379   -8.8143 C   0  0  0  0  0  0  0  0  0  0  0  0
  -19.3687  -42.1944   -7.0634 C   0  0  1  0  0  0  0  0  0  0  0  0
  -18.8416  -42.6354   -5.6953 C   0  0  0  0  0  0  0  0  0  0  0  0
  -18.2243  -42.0632   -7.9988 C   0  0  0  0  0  0  0  0  0  0  0  0
  -17.3812  -43.0307   -7.9083 O   0  0  0  0  0  0  0  0  0  0  0  0
  -18.0033  -41.0263   -8.9209 N   0  0  0  0  0  0  0  0  0  0  0  0
  1  2  1  0
  2  3  1  0
  3  4  1  0
  4  5  1  0
  5  6  1  0
  6  7  2  0
  6  8  1  0
  8  9  1  6
  8 10  1  0
 10 11  1  0
 11 12  1  1
 11 13  1  0
 13 14  1  1
 14 15  1  0
 15 16  1  1
 15 17  1  0
 17 18  1  0
 18 19  1  0
 19 20  1  0
 20 21  1  0
 21 22  1  0
 22 23  1  1
 22 24  1  0
 24 25  1  0
 25 26  1  0
 26 27  2  0
 26 28  1  0
 28 29  1  0
 28 30  1  0
 30 31  1  1
 30 32  1  0
 32 33  2  0
 32 34  1  0
 34 13  1  0
M  END
$$$$
