
     RDKit          3D

 34 34  0  0  0  0  0  0  0  0999 V2000
  -13.1953  -34.2696  -12.9331 C   0  0  0  0  0  0  0  0  0  0  0  0
  -12.9880  -35.7604  -13.1221 C   0  0  0  0  0  0  0  0  0  0  0  0
  -12.8699  -36.4751  -11.7958 C   0  0  0  0  0  0  0  0  0  0  0  0
  -12.6182  -37.9495  -11.9551 C   0  0  0  0  0  0  0  0  0  0  0  0
  -12.6329  -38.6650  -10.7146 N   0  0  0  0  0  0  0  0  0  0  0  0
  -13.8256  -39.3422  -10.3282 C   0  0  0  0  0  0  0  0  0  0  0  0
  -14.7590  -39.3879  -11.1517 O   0  0  0  0  0  0  0  0  0  0  0  0
  -13.8991  -39.9410   -9.0088 C   0  0  2  0  0  0  0  0  0  0  0  0
  -12.8429  -41.0589   -8.8992 C   0  0  0  0  0  0  0  0  0  0  0  0
  -15.1943  -40.4503   -8.5262 C   0  0  0  0  0  0  0  0  0  0  0  0
  -15.9677  -39.6370   -7.5638 C   0  0  2  0  0  0  0  0  0  0  0  0
  -15.5891  -39.6560   -6.2549 O   0  0  0  0  0  0  0  0  0  0  0  0
  -17.4707  -39.9802   -7.7096 C   0  0  2  0  0  0  0  0  0  0  0  0
  -18.1903  -39.6371   -6.4664 C   0  0  0  0  0  0  0  0  0  0  0  0
  -19.2845  -38.6229   -6.6074 C   0  0  2  0  0  0  0  0  0  0  0  0
  -20.2002  -38.7918   -5.3945 C   0  0  0  0  0  0  0  0  0  0  0  0
  -20.0989  -38.6727   -7.8326 C   0  0  0  0  0  0  0  0  0  0  0  0
  -21.6068  -38.8341   -7.5847 C   0  0  0  0  0  0  0  0  0  0  0  0
  -22.2123  -39.2205   -8.9170 C   0  0  0  0  0  0  0  0  0  0  0  0
  -23.3886  -40.1723   -8.7539 C   0  0  0  0  0  0  0  0  0  0  0  0
  -23.1902  -41.4298   -9.5485 C   0  0  0  0  0  0  0  0  0  0  0  0
  -23.9742  -42.6001   -9.0809 C   0  0  2  0  0  0  0  0  0  0  0  0
  -25.4350  -42.4486   -9.5118 C   0  0  0  0  0  0  0  0  0  0  0  0
  -23.9486  -42.8604   -7.6213 C   0  0  0  0  0  0  0  0  0  0  0  0
  -22.5604  -43.0460   -7.0600 C   0  0  0  0  0  0  0  0  0  0  0  0
  -21.6611  -43.8012   -7.9287 C   0  0  0  0  0  0  0  0  0  0  0  0
  -22.0474  -44.8486   -8.5039 O   0  0  0  0  0  0  0  0  0  0  0  0
  -20.3091  -43.3971   -8.1706 N   0  0  0  0  0  0  0  0  0  0  0  0
  -19.6178  -43.9263   -9.3175 C   0  0  0  0  0  0  0  0  0  0  0  0
  -19.6738  -42.4502   -7.2341 C   0  0  1  0  0  0  0  0  0  0  0  0
  -19.8814  -43.0759   -5.8523 C   0  0  0  0  0  0  0  0  0  0  0  0
  -18.2211  -42.4237   -7.5354 C   0  0  0  0  0  0  0  0  0  0  0  0
  -17.6170  -43.5144   -7.2186 O   0  0  0  0  0  0  0  0  0  0  0  0
  -17.4974  -41.3632   -8.1061 N   0  0  0  0  0  0  0  0  0  0  0  0
  1  2  1  0
  2  3  1  0
  3  4  1  0
  4  5  1  0
  5  6  1  0
  6  7  2  0
  6  8  1  0
  8  9  1  6
  8 10  1  0
 10 11  1  0
 11 12  1  1
 11 13  1  0
 13 14  1  1
 14 15  1  0
 15 16  1  1
 15 17  1  0
 17 18  1  0
 18 19  1  0
 19 20  1  0
 20 21  1  0
 21 22  1  0
 22 23  1  1
 22 24  1  0
 24 25  1  0
 25 26  1  0
 26 27  2  0
 26 28  1  0
 28 29  1  0
 28 30  1  0
 30 31  1  1
 30 32  1  0
 32 33  2  0
 32 34  1  0
 34 13  1  0
M  END
$$$$
