
     RDKit          3D

 34 34  0  0  0  0  0  0  0  0999 V2000
   -8.9156  -39.8564  -11.3002 C   0  0  0  0  0  0  0  0  0  0  0  0
  -10.2223  -39.1030  -11.4614 C   0  0  0  0  0  0  0  0  0  0  0  0
  -11.1804  -39.8442  -12.3651 C   0  0  0  0  0  0  0  0  0  0  0  0
  -12.4966  -39.1323  -12.5186 C   0  0  0  0  0  0  0  0  0  0  0  0
  -13.2047  -38.9760  -11.2836 N   0  0  0  0  0  0  0  0  0  0  0  0
  -14.4119  -38.2191  -11.2769 C   0  0  0  0  0  0  0  0  0  0  0  0
  -14.3370  -37.0058  -11.5486 O   0  0  0  0  0  0  0  0  0  0  0  0
  -15.6596  -38.8869  -10.9577 C   0  0  2  0  0  0  0  0  0  0  0  0
  -16.8247  -37.8901  -11.1193 C   0  0  0  0  0  0  0  0  0  0  0  0
  -15.7899  -39.5774   -9.6630 C   0  0  0  0  0  0  0  0  0  0  0  0
  -16.3775  -38.8467   -8.5200 C   0  0  2  0  0  0  0  0  0  0  0  0
  -15.5832  -38.5913   -7.4425 O   0  0  0  0  0  0  0  0  0  0  0  0
  -17.6840  -39.5568   -8.0876 C   0  0  2  0  0  0  0  0  0  0  0  0
  -17.8128  -39.5265   -6.6167 C   0  0  0  0  0  0  0  0  0  0  0  0
  -19.0258  -38.8255   -6.0846 C   0  0  2  0  0  0  0  0  0  0  0  0
  -19.2392  -39.3358   -4.6591 C   0  0  0  0  0  0  0  0  0  0  0  0
  -20.2801  -38.9769   -6.8400 C   0  0  0  0  0  0  0  0  0  0  0  0
  -21.4476  -39.5488   -6.0209 C   0  0  0  0  0  0  0  0  0  0  0  0
  -22.5033  -39.9594   -7.0248 C   0  0  0  0  0  0  0  0  0  0  0  0
  -23.2672  -41.1965   -6.5749 C   0  0  0  0  0  0  0  0  0  0  0  0
  -23.2103  -42.2820   -7.6095 C   0  0  0  0  0  0  0  0  0  0  0  0
  -23.4523  -43.6536   -7.0966 C   0  0  2  0  0  0  0  0  0  0  0  0
  -24.9478  -43.8518   -6.8377 C   0  0  0  0  0  0  0  0  0  0  0  0
  -22.7174  -44.0276   -5.8642 C   0  0  0  0  0  0  0  0  0  0  0  0
  -21.2193  -43.8928   -5.9838 C   0  0  0  0  0  0  0  0  0  0  0  0
  -20.6842  -44.3057   -7.2788 C   0  0  0  0  0  0  0  0  0  0  0  0
  -21.0773  -45.3619   -7.8329 O   0  0  0  0  0  0  0  0  0  0  0  0
  -19.6967  -43.5419   -7.9797 N   0  0  0  0  0  0  0  0  0  0  0  0
  -19.5126  -43.7671   -9.3900 C   0  0  0  0  0  0  0  0  0  0  0  0
  -18.9037  -42.5494   -7.2292 C   0  0  1  0  0  0  0  0  0  0  0  0
  -18.3357  -43.3285   -6.0399 C   0  0  0  0  0  0  0  0  0  0  0  0
  -17.7821  -42.1169   -8.0991 C   0  0  0  0  0  0  0  0  0  0  0  0
  -16.9008  -43.0353   -8.2852 O   0  0  0  0  0  0  0  0  0  0  0  0
  -17.6179  -40.8573   -8.6997 N   0  0  0  0  0  0  0  0  0  0  0  0
  1  2  1  0
  2  3  1  0
  3  4  1  0
  4  5  1  0
  5  6  1  0
  6  7  2  0
  6  8  1  0
  8  9  1  1
  8 10  1  0
 10 11  1  0
 11 12  1  1
 11 13  1  0
 13 14  1  1
 14 15  1  0
 15 16  1  1
 15 17  1  0
 17 18  1  0
 18 19  1  0
 19 20  1  0
 20 21  1  0
 21 22  1  0
 22 23  1  1
 22 24  1  0
 24 25  1  0
 25 26  1  0
 26 27  2  0
 26 28  1  0
 28 29  1  0
 28 30  1  0
 30 31  1  1
 30 32  1  0
 32 33  2  0
 32 34  1  0
 34 13  1  0
M  END
$$$$
