
     RDKit          3D

 34 34  0  0  0  0  0  0  0  0999 V2000
   -8.8951  -37.5128  -12.0056 C   0  0  0  0  0  0  0  0  0  0  0  0
   -9.7528  -38.6430  -12.5426 C   0  0  0  0  0  0  0  0  0  0  0  0
  -10.7060  -39.1619  -11.4909 C   0  0  0  0  0  0  0  0  0  0  0  0
  -11.9621  -38.3399  -11.3944 C   0  0  0  0  0  0  0  0  0  0  0  0
  -12.8006  -38.7118  -10.2947 N   0  0  0  0  0  0  0  0  0  0  0  0
  -13.8189  -39.6853  -10.5081 C   0  0  0  0  0  0  0  0  0  0  0  0
  -13.6738  -40.8024   -9.9764 O   0  0  0  0  0  0  0  0  0  0  0  0
  -14.9658  -39.3367  -11.3253 C   0  0  2  0  0  0  0  0  0  0  0  0
  -14.5344  -38.3144  -12.3958 C   0  0  0  0  0  0  0  0  0  0  0  0
  -16.1939  -38.8586  -10.6669 C   0  0  0  0  0  0  0  0  0  0  0  0
  -17.5041  -39.2541  -11.2259 C   0  0  2  0  0  0  0  0  0  0  0  0
  -18.0581  -38.4644  -12.1885 O   0  0  0  0  0  0  0  0  0  0  0  0
  -18.4981  -39.4855  -10.0611 C   0  0  2  0  0  0  0  0  0  0  0  0
  -18.0423  -38.7627   -8.8566 C   0  0  0  0  0  0  0  0  0  0  0  0
  -18.9852  -37.7265   -8.3245 C   0  0  2  0  0  0  0  0  0  0  0  0
  -18.5966  -37.4856   -6.8654 C   0  0  0  0  0  0  0  0  0  0  0  0
  -20.4253  -38.0235   -8.3935 C   0  0  0  0  0  0  0  0  0  0  0  0
  -21.1474  -37.9762   -7.0380 C   0  0  0  0  0  0  0  0  0  0  0  0
  -22.4887  -38.6436   -7.2534 C   0  0  0  0  0  0  0  0  0  0  0  0
  -22.9496  -39.4077   -6.0205 C   0  0  0  0  0  0  0  0  0  0  0  0
  -23.2454  -40.8429   -6.3441 C   0  0  0  0  0  0  0  0  0  0  0  0
  -23.1952  -41.7721   -5.1879 C   0  0  2  0  0  0  0  0  0  0  0  0
  -24.4573  -41.6076   -4.3379 C   0  0  0  0  0  0  0  0  0  0  0  0
  -22.0180  -41.6394   -4.2959 C   0  0  0  0  0  0  0  0  0  0  0  0
  -20.6955  -41.7957   -5.0055 C   0  0  0  0  0  0  0  0  0  0  0  0
  -20.6892  -42.8318   -6.0351 C   0  0  0  0  0  0  0  0  0  0  0  0
  -21.2118  -43.9543   -5.8250 O   0  0  0  0  0  0  0  0  0  0  0  0
  -20.0962  -42.6304   -7.3226 N   0  0  0  0  0  0  0  0  0  0  0  0
  -20.4673  -43.5040   -8.4055 C   0  0  0  0  0  0  0  0  0  0  0  0
  -19.1259  -41.5318   -7.4923 C   0  0  1  0  0  0  0  0  0  0  0  0
  -18.0978  -41.7493   -6.3788 C   0  0  0  0  0  0  0  0  0  0  0  0
  -18.4586  -41.7178   -8.8044 C   0  0  0  0  0  0  0  0  0  0  0  0
  -17.6736  -42.7365   -8.8348 O   0  0  0  0  0  0  0  0  0  0  0  0
  -18.6088  -40.9158   -9.9483 N   0  0  0  0  0  0  0  0  0  0  0  0
  1  2  1  0
  2  3  1  0
  3  4  1  0
  4  5  1  0
  5  6  1  0
  6  7  2  0
  6  8  1  0
  8  9  1  6
  8 10  1  0
 10 11  1  0
 11 12  1  6
 11 13  1  0
 13 14  1  1
 14 15  1  0
 15 16  1  1
 15 17  1  0
 17 18  1  0
 18 19  1  0
 19 20  1  0
 20 21  1  0
 21 22  1  0
 22 23  1  1
 22 24  1  0
 24 25  1  0
 25 26  1  0
 26 27  2  0
 26 28  1  0
 28 29  1  0
 28 30  1  0
 30 31  1  1
 30 32  1  0
 32 33  2  0
 32 34  1  0
 34 13  1  0
M  END
$$$$
