
     RDKit          3D

 34 34  0  0  0  0  0  0  0  0999 V2000
  -13.4603  -34.8272  -13.4127 C   0  0  0  0  0  0  0  0  0  0  0  0
  -12.3077  -35.7918  -13.2074 C   0  0  0  0  0  0  0  0  0  0  0  0
  -12.2791  -36.3268  -11.7943 C   0  0  0  0  0  0  0  0  0  0  0  0
  -13.1814  -37.5161  -11.6090 C   0  0  0  0  0  0  0  0  0  0  0  0
  -13.1078  -38.0853  -10.2970 N   0  0  0  0  0  0  0  0  0  0  0  0
  -13.8888  -39.2412  -10.0068 C   0  0  0  0  0  0  0  0  0  0  0  0
  -14.2696  -39.9394  -10.9655 O   0  0  0  0  0  0  0  0  0  0  0  0
  -14.2021  -39.5502   -8.6243 C   0  0  2  0  0  0  0  0  0  0  0  0
  -13.2964  -40.7017   -8.1437 C   0  0  0  0  0  0  0  0  0  0  0  0
  -15.5975  -39.8465   -8.2567 C   0  0  0  0  0  0  0  0  0  0  0  0
  -16.5962  -38.7577   -8.3087 C   0  0  2  0  0  0  0  0  0  0  0  0
  -16.4301  -37.6916   -7.4762 O   0  0  0  0  0  0  0  0  0  0  0  0
  -18.0116  -39.3663   -8.1519 C   0  0  2  0  0  0  0  0  0  0  0  0
  -18.5011  -39.1589   -6.7740 C   0  0  0  0  0  0  0  0  0  0  0  0
  -19.7615  -38.3585   -6.6454 C   0  0  2  0  0  0  0  0  0  0  0  0
  -20.3557  -38.6901   -5.2761 C   0  0  0  0  0  0  0  0  0  0  0  0
  -20.7947  -38.5540   -7.6756 C   0  0  0  0  0  0  0  0  0  0  0  0
  -22.1635  -38.9848   -7.1260 C   0  0  0  0  0  0  0  0  0  0  0  0
  -22.9592  -39.4736   -8.3173 C   0  0  0  0  0  0  0  0  0  0  0  0
  -23.8879  -40.6220   -7.9498 C   0  0  0  0  0  0  0  0  0  0  0  0
  -23.6436  -41.8229   -8.8160 C   0  0  0  0  0  0  0  0  0  0  0  0
  -24.0923  -43.1154   -8.2409 C   0  0  2  0  0  0  0  0  0  0  0  0
  -25.6145  -43.2297   -8.3526 C   0  0  0  0  0  0  0  0  0  0  0  0
  -23.7133  -43.3673   -6.8296 C   0  0  0  0  0  0  0  0  0  0  0  0
  -22.2273  -43.2997   -6.5767 C   0  0  0  0  0  0  0  0  0  0  0  0
  -21.4134  -43.8801   -7.6417 C   0  0  0  0  0  0  0  0  0  0  0  0
  -21.7218  -44.9799   -8.1638 O   0  0  0  0  0  0  0  0  0  0  0  0
  -20.2359  -43.2388   -8.1436 N   0  0  0  0  0  0  0  0  0  0  0  0
  -19.7204  -43.6344   -9.4287 C   0  0  0  0  0  0  0  0  0  0  0  0
  -19.5939  -42.1931   -7.3240 C   0  0  1  0  0  0  0  0  0  0  0  0
  -19.3912  -42.8464   -5.9543 C   0  0  0  0  0  0  0  0  0  0  0  0
  -18.2657  -41.9051   -7.9195 C   0  0  0  0  0  0  0  0  0  0  0  0
  -17.4258  -42.8690   -7.7773 O   0  0  0  0  0  0  0  0  0  0  0  0
  -17.8774  -40.7312   -8.5870 N   0  0  0  0  0  0  0  0  0  0  0  0
  1  2  1  0
  2  3  1  0
  3  4  1  0
  4  5  1  0
  5  6  1  0
  6  7  2  0
  6  8  1  0
  8  9  1  6
  8 10  1  0
 10 11  1  0
 11 12  1  1
 11 13  1  0
 13 14  1  1
 14 15  1  0
 15 16  1  1
 15 17  1  0
 17 18  1  0
 18 19  1  0
 19 20  1  0
 20 21  1  0
 21 22  1  0
 22 23  1  1
 22 24  1  0
 24 25  1  0
 25 26  1  0
 26 27  2  0
 26 28  1  0
 28 29  1  0
 28 30  1  0
 30 31  1  1
 30 32  1  0
 32 33  2  0
 32 34  1  0
 34 13  1  0
M  END
$$$$
