
     RDKit          3D

 34 34  0  0  0  0  0  0  0  0999 V2000
  -11.6492  -39.1937  -13.6719 C   0  0  0  0  0  0  0  0  0  0  0  0
  -13.0090  -39.8110  -13.9383 C   0  0  0  0  0  0  0  0  0  0  0  0
  -14.0980  -39.1064  -13.1627 C   0  0  0  0  0  0  0  0  0  0  0  0
  -14.1582  -39.5443  -11.7249 C   0  0  0  0  0  0  0  0  0  0  0  0
  -15.3458  -39.1143  -11.0499 N   0  0  0  0  0  0  0  0  0  0  0  0
  -15.2356  -38.1193  -10.0360 C   0  0  0  0  0  0  0  0  0  0  0  0
  -14.1495  -37.5189   -9.9285 O   0  0  0  0  0  0  0  0  0  0  0  0
  -16.3793  -37.8528   -9.1840 C   0  0  2  0  0  0  0  0  0  0  0  0
  -17.2788  -36.7971   -9.8573 C   0  0  0  0  0  0  0  0  0  0  0  0
  -16.1508  -37.4693   -7.7802 C   0  0  0  0  0  0  0  0  0  0  0  0
  -16.6288  -38.3676   -6.7077 C   0  0  2  0  0  0  0  0  0  0  0  0
  -15.7367  -39.2315   -6.1464 O   0  0  0  0  0  0  0  0  0  0  0  0
  -17.8878  -39.1193   -7.2058 C   0  0  2  0  0  0  0  0  0  0  0  0
  -18.7188  -39.5305   -6.0561 C   0  0  0  0  0  0  0  0  0  0  0  0
  -20.1095  -38.9729   -6.0267 C   0  0  2  0  0  0  0  0  0  0  0  0
  -20.9287  -39.8815   -5.1094 C   0  0  0  0  0  0  0  0  0  0  0  0
  -20.8101  -38.8353   -7.3140 C   0  0  0  0  0  0  0  0  0  0  0  0
  -22.1531  -39.5784   -7.3867 C   0  0  0  0  0  0  0  0  0  0  0  0
  -22.5307  -39.6207   -8.8519 C   0  0  0  0  0  0  0  0  0  0  0  0
  -23.2671  -40.9025   -9.2139 C   0  0  0  0  0  0  0  0  0  0  0  0
  -22.5880  -41.6251  -10.3403 C   0  0  0  0  0  0  0  0  0  0  0  0
  -22.8876  -43.0760  -10.4285 C   0  0  2  0  0  0  0  0  0  0  0  0
  -24.2853  -43.2799  -11.0181 C   0  0  0  0  0  0  0  0  0  0  0  0
  -22.8076  -43.8364   -9.1580 C   0  0  0  0  0  0  0  0  0  0  0  0
  -21.4681  -43.7352   -8.4709 C   0  0  0  0  0  0  0  0  0  0  0  0
  -20.3265  -43.7588   -9.3820 C   0  0  0  0  0  0  0  0  0  0  0  0
  -20.2742  -44.5800  -10.3307 O   0  0  0  0  0  0  0  0  0  0  0  0
  -19.2192  -42.8611   -9.2478 N   0  0  0  0  0  0  0  0  0  0  0  0
  -18.3472  -42.6562  -10.3753 C   0  0  0  0  0  0  0  0  0  0  0  0
  -19.0134  -42.1770   -7.9568 C   0  0  1  0  0  0  0  0  0  0  0  0
  -19.0099  -43.3030   -6.9194 C   0  0  0  0  0  0  0  0  0  0  0  0
  -17.6693  -41.5492   -7.9880 C   0  0  0  0  0  0  0  0  0  0  0  0
  -16.7088  -42.4046   -7.9607 O   0  0  0  0  0  0  0  0  0  0  0  0
  -17.3813  -40.1750   -8.0421 N   0  0  0  0  0  0  0  0  0  0  0  0
  1  2  1  0
  2  3  1  0
  3  4  1  0
  4  5  1  0
  5  6  1  0
  6  7  2  0
  6  8  1  0
  8  9  1  6
  8 10  1  0
 10 11  1  0
 11 12  1  6
 11 13  1  0
 13 14  1  1
 14 15  1  0
 15 16  1  1
 15 17  1  0
 17 18  1  0
 18 19  1  0
 19 20  1  0
 20 21  1  0
 21 22  1  0
 22 23  1  1
 22 24  1  0
 24 25  1  0
 25 26  1  0
 26 27  2  0
 26 28  1  0
 28 29  1  0
 28 30  1  0
 30 31  1  1
 30 32  1  0
 32 33  2  0
 32 34  1  0
 34 13  1  0
M  END
$$$$
