
     RDKit          3D

 34 34  0  0  0  0  0  0  0  0999 V2000
  -11.6023  -36.9654  -14.4924 C   0  0  0  0  0  0  0  0  0  0  0  0
  -12.0605  -37.2191  -13.0688 C   0  0  0  0  0  0  0  0  0  0  0  0
  -12.5276  -35.9455  -12.4026 C   0  0  0  0  0  0  0  0  0  0  0  0
  -13.1365  -36.1918  -11.0493 C   0  0  0  0  0  0  0  0  0  0  0  0
  -12.9591  -37.5342  -10.5831 N   0  0  0  0  0  0  0  0  0  0  0  0
  -14.0883  -38.4026  -10.5488 C   0  0  0  0  0  0  0  0  0  0  0  0
  -15.0598  -38.1193  -11.2751 O   0  0  0  0  0  0  0  0  0  0  0  0
  -14.0570  -39.5640   -9.6800 C   0  0  2  0  0  0  0  0  0  0  0  0
  -13.3313  -40.7177  -10.4008 C   0  0  0  0  0  0  0  0  0  0  0  0
  -15.3203  -40.0666   -9.1128 C   0  0  0  0  0  0  0  0  0  0  0  0
  -16.0124  -39.2601   -8.0851 C   0  0  2  0  0  0  0  0  0  0  0  0
  -15.4197  -39.1259   -6.8654 O   0  0  0  0  0  0  0  0  0  0  0  0
  -17.4667  -39.7722   -7.9398 C   0  0  2  0  0  0  0  0  0  0  0  0
  -17.9299  -39.5904   -6.5493 C   0  0  0  0  0  0  0  0  0  0  0  0
  -19.1286  -38.7084   -6.3734 C   0  0  2  0  0  0  0  0  0  0  0  0
  -19.7350  -39.0558   -5.0134 C   0  0  0  0  0  0  0  0  0  0  0  0
  -20.1806  -38.7846   -7.4001 C   0  0  0  0  0  0  0  0  0  0  0  0
  -21.5728  -39.1399   -6.8553 C   0  0  0  0  0  0  0  0  0  0  0  0
  -22.4102  -39.5185   -8.0580 C   0  0  0  0  0  0  0  0  0  0  0  0
  -23.4164  -40.6124   -7.7303 C   0  0  0  0  0  0  0  0  0  0  0  0
  -23.2653  -41.7889   -8.6496 C   0  0  0  0  0  0  0  0  0  0  0  0
  -23.8015  -43.0699   -8.1257 C   0  0  2  0  0  0  0  0  0  0  0  0
  -25.3287  -43.0702   -8.2263 C   0  0  0  0  0  0  0  0  0  0  0  0
  -23.4312  -43.4093   -6.7305 C   0  0  0  0  0  0  0  0  0  0  0  0
  -21.9424  -43.4590   -6.4904 C   0  0  0  0  0  0  0  0  0  0  0  0
  -21.1801  -44.0494   -7.5878 C   0  0  0  0  0  0  0  0  0  0  0  0
  -21.5706  -45.1005   -8.1532 O   0  0  0  0  0  0  0  0  0  0  0  0
  -19.9633  -43.4726   -8.0740 N   0  0  0  0  0  0  0  0  0  0  0  0
  -19.4870  -43.8478   -9.3801 C   0  0  0  0  0  0  0  0  0  0  0  0
  -19.2419  -42.5121   -7.2171 C   0  0  1  0  0  0  0  0  0  0  0  0
  -19.0765  -43.2370   -5.8789 C   0  0  0  0  0  0  0  0  0  0  0  0
  -17.9008  -42.2940   -7.8136 C   0  0  0  0  0  0  0  0  0  0  0  0
  -17.1313  -43.3208   -7.7215 O   0  0  0  0  0  0  0  0  0  0  0  0
  -17.4340  -41.1231   -8.4343 N   0  0  0  0  0  0  0  0  0  0  0  0
  1  2  1  0
  2  3  1  0
  3  4  1  0
  4  5  1  0
  5  6  1  0
  6  7  2  0
  6  8  1  0
  8  9  1  6
  8 10  1  0
 10 11  1  0
 11 12  1  1
 11 13  1  0
 13 14  1  1
 14 15  1  0
 15 16  1  1
 15 17  1  0
 17 18  1  0
 18 19  1  0
 19 20  1  0
 20 21  1  0
 21 22  1  0
 22 23  1  1
 22 24  1  0
 24 25  1  0
 25 26  1  0
 26 27  2  0
 26 28  1  0
 28 29  1  0
 28 30  1  0
 30 31  1  1
 30 32  1  0
 32 33  2  0
 32 34  1  0
 34 13  1  0
M  END
$$$$
