
     RDKit          3D

 34 34  0  0  0  0  0  0  0  0999 V2000
  -12.1476  -34.5883  -13.0284 C   0  0  0  0  0  0  0  0  0  0  0  0
  -11.4988  -35.7102  -12.2401 C   0  0  0  0  0  0  0  0  0  0  0  0
  -12.0663  -35.8044  -10.8426 C   0  0  0  0  0  0  0  0  0  0  0  0
  -13.1379  -36.8534  -10.7244 C   0  0  0  0  0  0  0  0  0  0  0  0
  -12.7390  -37.9869   -9.9453 N   0  0  0  0  0  0  0  0  0  0  0  0
  -13.6252  -39.0985   -9.8491 C   0  0  0  0  0  0  0  0  0  0  0  0
  -14.2243  -39.4535  -10.8819 O   0  0  0  0  0  0  0  0  0  0  0  0
  -13.7888  -39.7595   -8.5680 C   0  0  2  0  0  0  0  0  0  0  0  0
  -12.8384  -40.9715   -8.4972 C   0  0  0  0  0  0  0  0  0  0  0  0
  -15.1371  -40.1767   -8.1459 C   0  0  0  0  0  0  0  0  0  0  0  0
  -16.0785  -39.1514   -7.6478 C   0  0  2  0  0  0  0  0  0  0  0  0
  -15.7916  -38.5334   -6.4676 O   0  0  0  0  0  0  0  0  0  0  0  0
  -17.5070  -39.7492   -7.6259 C   0  0  2  0  0  0  0  0  0  0  0  0
  -18.1007  -39.5904   -6.2829 C   0  0  0  0  0  0  0  0  0  0  0  0
  -19.3605  -38.7811   -6.2206 C   0  0  2  0  0  0  0  0  0  0  0  0
  -20.0625  -39.1593   -4.9159 C   0  0  0  0  0  0  0  0  0  0  0  0
  -20.3117  -38.9239   -7.3348 C   0  0  0  0  0  0  0  0  0  0  0  0
  -21.7229  -39.3600   -6.9109 C   0  0  0  0  0  0  0  0  0  0  0  0
  -22.4273  -39.7923   -8.1790 C   0  0  0  0  0  0  0  0  0  0  0  0
  -23.3917  -40.9434   -7.9311 C   0  0  0  0  0  0  0  0  0  0  0  0
  -23.0908  -42.1121   -8.8231 C   0  0  0  0  0  0  0  0  0  0  0  0
  -23.5940  -43.4209   -8.3369 C   0  0  2  0  0  0  0  0  0  0  0  0
  -25.1038  -43.5130   -8.5709 C   0  0  0  0  0  0  0  0  0  0  0  0
  -23.3285  -43.7325   -6.9116 C   0  0  0  0  0  0  0  0  0  0  0  0
  -21.8662  -43.6921   -6.5416 C   0  0  0  0  0  0  0  0  0  0  0  0
  -20.9766  -44.2397   -7.5626 C   0  0  0  0  0  0  0  0  0  0  0  0
  -21.2528  -45.3144   -8.1507 O   0  0  0  0  0  0  0  0  0  0  0  0
  -19.7581  -43.5929   -7.9455 N   0  0  0  0  0  0  0  0  0  0  0  0
  -19.1473  -43.9436   -9.2014 C   0  0  0  0  0  0  0  0  0  0  0  0
  -19.1732  -42.5878   -7.0372 C   0  0  1  0  0  0  0  0  0  0  0  0
  -19.0835  -43.2967   -5.6832 C   0  0  0  0  0  0  0  0  0  0  0  0
  -17.8001  -42.2920   -7.5158 C   0  0  0  0  0  0  0  0  0  0  0  0
  -16.9822  -43.2705   -7.3476 O   0  0  0  0  0  0  0  0  0  0  0  0
  -17.3509  -41.0975   -8.1036 N   0  0  0  0  0  0  0  0  0  0  0  0
  1  2  1  0
  2  3  1  0
  3  4  1  0
  4  5  1  0
  5  6  1  0
  6  7  2  0
  6  8  1  0
  8  9  1  6
  8 10  1  0
 10 11  1  0
 11 12  1  1
 11 13  1  0
 13 14  1  1
 14 15  1  0
 15 16  1  1
 15 17  1  0
 17 18  1  0
 18 19  1  0
 19 20  1  0
 20 21  1  0
 21 22  1  0
 22 23  1  1
 22 24  1  0
 24 25  1  0
 25 26  1  0
 26 27  2  0
 26 28  1  0
 28 29  1  0
 28 30  1  0
 30 31  1  1
 30 32  1  0
 32 33  2  0
 32 34  1  0
 34 13  1  0
M  END
$$$$
