
     RDKit          3D

 34 34  0  0  0  0  0  0  0  0999 V2000
  -15.3031  -34.1998  -12.8346 C   0  0  0  0  0  0  0  0  0  0  0  0
  -14.1857  -35.2171  -12.7025 C   0  0  0  0  0  0  0  0  0  0  0  0
  -14.6744  -36.4957  -12.0619 C   0  0  0  0  0  0  0  0  0  0  0  0
  -13.5587  -37.4663  -11.7863 C   0  0  0  0  0  0  0  0  0  0  0  0
  -13.5742  -37.9846  -10.4514 N   0  0  0  0  0  0  0  0  0  0  0  0
  -14.2035  -39.2402  -10.2111 C   0  0  0  0  0  0  0  0  0  0  0  0
  -14.9754  -39.6786  -11.0849 O   0  0  0  0  0  0  0  0  0  0  0  0
  -13.9207  -39.9440   -8.9744 C   0  0  2  0  0  0  0  0  0  0  0  0
  -13.2068  -41.2718   -9.2977 C   0  0  0  0  0  0  0  0  0  0  0  0
  -15.0227  -40.2043   -8.0321 C   0  0  0  0  0  0  0  0  0  0  0  0
  -15.9908  -39.1234   -7.7493 C   0  0  2  0  0  0  0  0  0  0  0  0
  -15.7226  -38.2724   -6.7192 O   0  0  0  0  0  0  0  0  0  0  0  0
  -17.4039  -39.7398   -7.6035 C   0  0  2  0  0  0  0  0  0  0  0  0
  -17.8214  -39.7174   -6.1870 C   0  0  0  0  0  0  0  0  0  0  0  0
  -19.0639  -38.9348   -5.8878 C   0  0  2  0  0  0  0  0  0  0  0  0
  -19.5930  -39.4447   -4.5468 C   0  0  0  0  0  0  0  0  0  0  0  0
  -20.1496  -38.9841   -6.8806 C   0  0  0  0  0  0  0  0  0  0  0  0
  -21.4944  -39.4775   -6.3247 C   0  0  0  0  0  0  0  0  0  0  0  0
  -22.3545  -39.7970   -7.5285 C   0  0  0  0  0  0  0  0  0  0  0  0
  -23.2778  -40.9794   -7.2716 C   0  0  0  0  0  0  0  0  0  0  0  0
  -23.0918  -42.0539   -8.3026 C   0  0  0  0  0  0  0  0  0  0  0  0
  -23.5270  -43.4097   -7.8842 C   0  0  2  0  0  0  0  0  0  0  0  0
  -25.0542  -43.4997   -7.9322 C   0  0  0  0  0  0  0  0  0  0  0  0
  -23.0811  -43.8516   -6.5407 C   0  0  0  0  0  0  0  0  0  0  0  0
  -21.5836  -43.8267   -6.3573 C   0  0  0  0  0  0  0  0  0  0  0  0
  -20.8311  -44.2628   -7.5309 C   0  0  0  0  0  0  0  0  0  0  0  0
  -21.1787  -45.2804   -8.1796 O   0  0  0  0  0  0  0  0  0  0  0  0
  -19.6723  -43.5660   -8.0017 N   0  0  0  0  0  0  0  0  0  0  0  0
  -19.2266  -43.7876   -9.3529 C   0  0  0  0  0  0  0  0  0  0  0  0
  -18.9775  -42.6438   -7.0830 C   0  0  1  0  0  0  0  0  0  0  0  0
  -18.7146  -43.4769   -5.8256 C   0  0  0  0  0  0  0  0  0  0  0  0
  -17.6772  -42.2853   -7.7015 C   0  0  0  0  0  0  0  0  0  0  0  0
  -16.8432  -43.2642   -7.7332 O   0  0  0  0  0  0  0  0  0  0  0  0
  -17.3084  -41.0344   -8.2243 N   0  0  0  0  0  0  0  0  0  0  0  0
  1  2  1  0
  2  3  1  0
  3  4  1  0
  4  5  1  0
  5  6  1  0
  6  7  2  0
  6  8  1  0
  8  9  1  6
  8 10  1  0
 10 11  1  0
 11 12  1  1
 11 13  1  0
 13 14  1  1
 14 15  1  0
 15 16  1  1
 15 17  1  0
 17 18  1  0
 18 19  1  0
 19 20  1  0
 20 21  1  0
 21 22  1  0
 22 23  1  1
 22 24  1  0
 24 25  1  0
 25 26  1  0
 26 27  2  0
 26 28  1  0
 28 29  1  0
 28 30  1  0
 30 31  1  1
 30 32  1  0
 32 33  2  0
 32 34  1  0
 34 13  1  0
M  END
$$$$
