
     RDKit          3D

 34 34  0  0  0  0  0  0  0  0999 V2000
  -12.0127  -35.2734  -13.7030 C   0  0  0  0  0  0  0  0  0  0  0  0
  -12.8091  -34.9636  -12.4497 C   0  0  0  0  0  0  0  0  0  0  0  0
  -13.5861  -36.1700  -11.9755 C   0  0  0  0  0  0  0  0  0  0  0  0
  -12.6945  -37.3305  -11.6278 C   0  0  0  0  0  0  0  0  0  0  0  0
  -12.8945  -37.8211  -10.2973 N   0  0  0  0  0  0  0  0  0  0  0  0
  -13.7317  -38.9579  -10.1048 C   0  0  0  0  0  0  0  0  0  0  0  0
  -14.1334  -39.5605  -11.1183 O   0  0  0  0  0  0  0  0  0  0  0  0
  -14.0751  -39.3583   -8.7533 C   0  0  2  0  0  0  0  0  0  0  0  0
  -13.1298  -40.4902   -8.3035 C   0  0  0  0  0  0  0  0  0  0  0  0
  -15.4655  -39.7413   -8.4528 C   0  0  0  0  0  0  0  0  0  0  0  0
  -16.4867  -38.6799   -8.3251 C   0  0  2  0  0  0  0  0  0  0  0  0
  -16.2315  -37.6391   -7.4833 O   0  0  0  0  0  0  0  0  0  0  0  0
  -17.8523  -39.3332   -7.9983 C   0  0  2  0  0  0  0  0  0  0  0  0
  -18.1258  -39.2351   -6.5503 C   0  0  0  0  0  0  0  0  0  0  0  0
  -19.3623  -38.4775   -6.1722 C   0  0  2  0  0  0  0  0  0  0  0  0
  -19.7331  -38.9188   -4.7559 C   0  0  0  0  0  0  0  0  0  0  0  0
  -20.5394  -38.6262   -7.0435 C   0  0  0  0  0  0  0  0  0  0  0  0
  -21.8007  -39.1285   -6.3238 C   0  0  0  0  0  0  0  0  0  0  0  0
  -22.7640  -39.5525   -7.4116 C   0  0  0  0  0  0  0  0  0  0  0  0
  -23.6087  -40.7467   -6.9911 C   0  0  0  0  0  0  0  0  0  0  0  0
  -23.4844  -41.8776   -7.9698 C   0  0  0  0  0  0  0  0  0  0  0  0
  -23.8208  -43.2180   -7.4287 C   0  0  2  0  0  0  0  0  0  0  0  0
  -25.3402  -43.3623   -7.3141 C   0  0  0  0  0  0  0  0  0  0  0  0
  -23.2248  -43.5585   -6.1142 C   0  0  0  0  0  0  0  0  0  0  0  0
  -21.7186  -43.4715   -6.0875 C   0  0  0  0  0  0  0  0  0  0  0  0
  -21.0710  -43.9555   -7.3041 C   0  0  0  0  0  0  0  0  0  0  0  0
  -21.4410  -45.0234   -7.8517 O   0  0  0  0  0  0  0  0  0  0  0  0
  -19.9943  -43.2513   -7.9322 N   0  0  0  0  0  0  0  0  0  0  0  0
  -19.6781  -43.5430   -9.3064 C   0  0  0  0  0  0  0  0  0  0  0  0
  -19.2481  -42.2498   -7.1464 C   0  0  1  0  0  0  0  0  0  0  0  0
  -18.8270  -42.9920   -5.8753 C   0  0  0  0  0  0  0  0  0  0  0  0
  -18.0319  -41.8876   -7.9156 C   0  0  0  0  0  0  0  0  0  0  0  0
  -17.1668  -42.8378   -7.9744 O   0  0  0  0  0  0  0  0  0  0  0  0
  -17.7679  -40.6606   -8.5473 N   0  0  0  0  0  0  0  0  0  0  0  0
  1  2  1  0
  2  3  1  0
  3  4  1  0
  4  5  1  0
  5  6  1  0
  6  7  2  0
  6  8  1  0
  8  9  1  6
  8 10  1  0
 10 11  1  0
 11 12  1  1
 11 13  1  0
 13 14  1  1
 14 15  1  0
 15 16  1  1
 15 17  1  0
 17 18  1  0
 18 19  1  0
 19 20  1  0
 20 21  1  0
 21 22  1  0
 22 23  1  1
 22 24  1  0
 24 25  1  0
 25 26  1  0
 26 27  2  0
 26 28  1  0
 28 29  1  0
 28 30  1  0
 30 31  1  1
 30 32  1  0
 32 33  2  0
 32 34  1  0
 34 13  1  0
M  END
$$$$
