
     RDKit          3D

 34 34  0  0  0  0  0  0  0  0999 V2000
   -9.4500  -36.6955  -12.8740 C   0  0  0  0  0  0  0  0  0  0  0  0
  -10.9285  -37.0021  -12.7285 C   0  0  0  0  0  0  0  0  0  0  0  0
  -11.1536  -38.3814  -12.1533 C   0  0  0  0  0  0  0  0  0  0  0  0
  -12.5882  -38.8220  -12.2549 C   0  0  0  0  0  0  0  0  0  0  0  0
  -13.3044  -38.7123  -11.0196 N   0  0  0  0  0  0  0  0  0  0  0  0
  -13.7234  -39.9050  -10.3622 C   0  0  0  0  0  0  0  0  0  0  0  0
  -13.4739  -40.9916  -10.9178 O   0  0  0  0  0  0  0  0  0  0  0  0
  -14.4137  -39.8024   -9.0903 C   0  0  2  0  0  0  0  0  0  0  0  0
  -13.5778  -40.5036   -8.0010 C   0  0  0  0  0  0  0  0  0  0  0  0
  -15.8112  -40.2592   -8.9966 C   0  0  0  0  0  0  0  0  0  0  0  0
  -16.8967  -39.3048   -9.3073 C   0  0  2  0  0  0  0  0  0  0  0  0
  -16.7225  -37.9977   -8.9633 O   0  0  0  0  0  0  0  0  0  0  0  0
  -18.2273  -39.8540   -8.7364 C   0  0  2  0  0  0  0  0  0  0  0  0
  -18.3976  -39.4125   -7.3374 C   0  0  0  0  0  0  0  0  0  0  0  0
  -19.6128  -38.5799   -7.0618 C   0  0  2  0  0  0  0  0  0  0  0  0
  -19.8758  -38.6694   -5.5581 C   0  0  0  0  0  0  0  0  0  0  0  0
  -20.8474  -38.9255   -7.7850 C   0  0  0  0  0  0  0  0  0  0  0  0
  -22.0478  -39.2351   -6.8770 C   0  0  0  0  0  0  0  0  0  0  0  0
  -23.0814  -39.9007   -7.7601 C   0  0  0  0  0  0  0  0  0  0  0  0
  -23.8794  -40.9558   -7.0075 C   0  0  0  0  0  0  0  0  0  0  0  0
  -23.8120  -42.2879   -7.6955 C   0  0  0  0  0  0  0  0  0  0  0  0
  -24.0926  -43.4591   -6.8282 C   0  0  2  0  0  0  0  0  0  0  0  0
  -25.5981  -43.5637   -6.5727 C   0  0  0  0  0  0  0  0  0  0  0  0
  -23.3999  -43.4800   -5.5172 C   0  0  0  0  0  0  0  0  0  0  0  0
  -21.8969  -43.3973   -5.6212 C   0  0  0  0  0  0  0  0  0  0  0  0
  -21.3323  -44.1606   -6.7314 C   0  0  0  0  0  0  0  0  0  0  0  0
  -21.7278  -45.3261   -6.9809 O   0  0  0  0  0  0  0  0  0  0  0  0
  -20.3119  -43.6320   -7.5852 N   0  0  0  0  0  0  0  0  0  0  0  0
  -20.0915  -44.2442   -8.8698 C   0  0  0  0  0  0  0  0  0  0  0  0
  -19.5234  -42.4763   -7.1164 C   0  0  1  0  0  0  0  0  0  0  0  0
  -19.0034  -42.8968   -5.7392 C   0  0  0  0  0  0  0  0  0  0  0  0
  -18.3699  -42.3143   -8.0357 C   0  0  0  0  0  0  0  0  0  0  0  0
  -17.4999  -43.2558   -7.9294 O   0  0  0  0  0  0  0  0  0  0  0  0
  -18.1665  -41.2744   -8.9585 N   0  0  0  0  0  0  0  0  0  0  0  0
  1  2  1  0
  2  3  1  0
  3  4  1  0
  4  5  1  0
  5  6  1  0
  6  7  2  0
  6  8  1  0
  8  9  1  1
  8 10  1  0
 10 11  1  0
 11 12  1  1
 11 13  1  0
 13 14  1  1
 14 15  1  0
 15 16  1  1
 15 17  1  0
 17 18  1  0
 18 19  1  0
 19 20  1  0
 20 21  1  0
 21 22  1  0
 22 23  1  1
 22 24  1  0
 24 25  1  0
 25 26  1  0
 26 27  2  0
 26 28  1  0
 28 29  1  0
 28 30  1  0
 30 31  1  1
 30 32  1  0
 32 33  2  0
 32 34  1  0
 34 13  1  0
M  END
$$$$
