
     RDKit          3D

 34 34  0  0  0  0  0  0  0  0999 V2000
  -10.7053  -36.4118  -14.4887 C   0  0  0  0  0  0  0  0  0  0  0  0
  -11.7271  -37.3991  -13.9576 C   0  0  0  0  0  0  0  0  0  0  0  0
  -12.5468  -36.7988  -12.8388 C   0  0  0  0  0  0  0  0  0  0  0  0
  -12.9526  -37.8181  -11.8096 C   0  0  0  0  0  0  0  0  0  0  0  0
  -13.9001  -37.3185  -10.8590 N   0  0  0  0  0  0  0  0  0  0  0  0
  -14.1579  -38.0808   -9.6831 C   0  0  0  0  0  0  0  0  0  0  0  0
  -13.6569  -39.2188   -9.6084 O   0  0  0  0  0  0  0  0  0  0  0  0
  -14.9827  -37.5049   -8.6377 C   0  0  2  0  0  0  0  0  0  0  0  0
  -14.1526  -37.3859   -7.3439 C   0  0  0  0  0  0  0  0  0  0  0  0
  -16.2795  -38.1298   -8.3246 C   0  0  0  0  0  0  0  0  0  0  0  0
  -16.3041  -39.3294   -7.4609 C   0  0  2  0  0  0  0  0  0  0  0  0
  -15.4466  -40.3483   -7.7500 O   0  0  0  0  0  0  0  0  0  0  0  0
  -17.7608  -39.8449   -7.3582 C   0  0  2  0  0  0  0  0  0  0  0  0
  -18.2688  -39.6541   -5.9847 C   0  0  0  0  0  0  0  0  0  0  0  0
  -19.4751  -38.7745   -5.8541 C   0  0  2  0  0  0  0  0  0  0  0  0
  -20.1237  -39.1135   -4.5115 C   0  0  0  0  0  0  0  0  0  0  0  0
  -20.4935  -38.8618   -6.9133 C   0  0  0  0  0  0  0  0  0  0  0  0
  -21.9014  -39.2173   -6.4106 C   0  0  0  0  0  0  0  0  0  0  0  0
  -22.6987  -39.6076   -7.6366 C   0  0  0  0  0  0  0  0  0  0  0  0
  -23.7117  -40.7021   -7.3329 C   0  0  0  0  0  0  0  0  0  0  0  0
  -23.5279  -41.8851   -8.2378 C   0  0  0  0  0  0  0  0  0  0  0  0
  -24.0768  -43.1637   -7.7215 C   0  0  2  0  0  0  0  0  0  0  0  0
  -25.6001  -43.1696   -7.8710 C   0  0  0  0  0  0  0  0  0  0  0  0
  -23.7505  -43.4914   -6.3126 C   0  0  0  0  0  0  0  0  0  0  0  0
  -22.2699  -43.5346   -6.0246 C   0  0  0  0  0  0  0  0  0  0  0  0
  -21.4711  -44.1309   -7.0924 C   0  0  0  0  0  0  0  0  0  0  0  0
  -21.8403  -45.1876   -7.6620 O   0  0  0  0  0  0  0  0  0  0  0  0
  -20.2411  -43.5540   -7.5439 N   0  0  0  0  0  0  0  0  0  0  0  0
  -19.7221  -43.9376   -8.8312 C   0  0  0  0  0  0  0  0  0  0  0  0
  -19.5503  -42.5847   -6.6718 C   0  0  1  0  0  0  0  0  0  0  0  0
  -19.4258  -43.2990   -5.3233 C   0  0  0  0  0  0  0  0  0  0  0  0
  -18.1914  -42.3671   -7.2266 C   0  0  0  0  0  0  0  0  0  0  0  0
  -17.4223  -43.3907   -7.1021 O   0  0  0  0  0  0  0  0  0  0  0  0
  -17.7084  -41.1994   -7.8411 N   0  0  0  0  0  0  0  0  0  0  0  0
  1  2  1  0
  2  3  1  0
  3  4  1  0
  4  5  1  0
  5  6  1  0
  6  7  2  0
  6  8  1  0
  8  9  1  1
  8 10  1  0
 10 11  1  0
 11 12  1  6
 11 13  1  0
 13 14  1  1
 14 15  1  0
 15 16  1  1
 15 17  1  0
 17 18  1  0
 18 19  1  0
 19 20  1  0
 20 21  1  0
 21 22  1  0
 22 23  1  1
 22 24  1  0
 24 25  1  0
 25 26  1  0
 26 27  2  0
 26 28  1  0
 28 29  1  0
 28 30  1  0
 30 31  1  1
 30 32  1  0
 32 33  2  0
 32 34  1  0
 34 13  1  0
M  END
$$$$
