
     RDKit          3D

 34 34  0  0  0  0  0  0  0  0999 V2000
  -12.7151  -33.8650  -12.1066 C   0  0  0  0  0  0  0  0  0  0  0  0
  -12.1589  -35.1640  -11.5549 C   0  0  0  0  0  0  0  0  0  0  0  0
  -13.0818  -36.3263  -11.8402 C   0  0  0  0  0  0  0  0  0  0  0  0
  -12.6456  -37.5915  -11.1534 C   0  0  0  0  0  0  0  0  0  0  0  0
  -13.4768  -38.7175  -11.4571 N   0  0  0  0  0  0  0  0  0  0  0  0
  -14.7361  -38.8363  -10.8011 C   0  0  0  0  0  0  0  0  0  0  0  0
  -15.5954  -37.9649  -11.0335 O   0  0  0  0  0  0  0  0  0  0  0  0
  -14.9591  -39.9532   -9.9025 C   0  0  2  0  0  0  0  0  0  0  0  0
  -16.0082  -40.8997  -10.5197 C   0  0  0  0  0  0  0  0  0  0  0  0
  -15.3185  -39.6815   -8.5000 C   0  0  0  0  0  0  0  0  0  0  0  0
  -16.3680  -38.6807   -8.2128 C   0  0  2  0  0  0  0  0  0  0  0  0
  -16.1778  -37.8314   -7.1641 O   0  0  0  0  0  0  0  0  0  0  0  0
  -17.7333  -39.4027   -8.0988 C   0  0  2  0  0  0  0  0  0  0  0  0
  -18.2033  -39.3769   -6.6990 C   0  0  0  0  0  0  0  0  0  0  0  0
  -19.5133  -38.6874   -6.4657 C   0  0  2  0  0  0  0  0  0  0  0  0
  -20.0502  -39.2028   -5.1300 C   0  0  0  0  0  0  0  0  0  0  0  0
  -20.5543  -38.8476   -7.4940 C   0  0  0  0  0  0  0  0  0  0  0  0
  -21.8763  -39.4312   -6.9714 C   0  0  0  0  0  0  0  0  0  0  0  0
  -22.6637  -39.8483   -8.1948 C   0  0  0  0  0  0  0  0  0  0  0  0
  -23.5009  -41.0928   -7.9367 C   0  0  0  0  0  0  0  0  0  0  0  0
  -23.1938  -42.1755   -8.9296 C   0  0  0  0  0  0  0  0  0  0  0  0
  -23.5373  -43.5502   -8.4880 C   0  0  2  0  0  0  0  0  0  0  0  0
  -25.0499  -43.7616   -8.5867 C   0  0  0  0  0  0  0  0  0  0  0  0
  -23.1083  -43.9209   -7.1178 C   0  0  0  0  0  0  0  0  0  0  0  0
  -21.6251  -43.7732   -6.8832 C   0  0  0  0  0  0  0  0  0  0  0  0
  -20.7979  -44.1786   -8.0169 C   0  0  0  0  0  0  0  0  0  0  0  0
  -21.0410  -45.2368   -8.6480 O   0  0  0  0  0  0  0  0  0  0  0  0
  -19.6804  -43.4049   -8.4666 N   0  0  0  0  0  0  0  0  0  0  0  0
  -19.1691  -43.6252   -9.7946 C   0  0  0  0  0  0  0  0  0  0  0  0
  -19.0940  -42.4075   -7.5509 C   0  0  1  0  0  0  0  0  0  0  0  0
  -18.8136  -43.1846   -6.2619 C   0  0  0  0  0  0  0  0  0  0  0  0
  -17.8036  -41.9635   -8.1337 C   0  0  0  0  0  0  0  0  0  0  0  0
  -16.8952  -42.8741   -8.1084 O   0  0  0  0  0  0  0  0  0  0  0  0
  -17.5142  -40.7012   -8.6788 N   0  0  0  0  0  0  0  0  0  0  0  0
  1  2  1  0
  2  3  1  0
  3  4  1  0
  4  5  1  0
  5  6  1  0
  6  7  2  0
  6  8  1  0
  8  9  1  6
  8 10  1  0
 10 11  1  0
 11 12  1  1
 11 13  1  0
 13 14  1  1
 14 15  1  0
 15 16  1  1
 15 17  1  0
 17 18  1  0
 18 19  1  0
 19 20  1  0
 20 21  1  0
 21 22  1  0
 22 23  1  1
 22 24  1  0
 24 25  1  0
 25 26  1  0
 26 27  2  0
 26 28  1  0
 28 29  1  0
 28 30  1  0
 30 31  1  1
 30 32  1  0
 32 33  2  0
 32 34  1  0
 34 13  1  0
M  END
$$$$
