
     RDKit          3D

 34 34  0  0  0  0  0  0  0  0999 V2000
  -13.3713  -33.4872  -12.0045 C   0  0  0  0  0  0  0  0  0  0  0  0
  -12.6737  -34.8306  -12.1031 C   0  0  0  0  0  0  0  0  0  0  0  0
  -13.0997  -35.7583  -10.9888 C   0  0  0  0  0  0  0  0  0  0  0  0
  -12.3868  -37.0821  -11.0356 C   0  0  0  0  0  0  0  0  0  0  0  0
  -13.0615  -38.0620  -11.8327 N   0  0  0  0  0  0  0  0  0  0  0  0
  -14.3662  -38.4820  -11.4431 C   0  0  0  0  0  0  0  0  0  0  0  0
  -15.3400  -37.8876  -11.9431 O   0  0  0  0  0  0  0  0  0  0  0  0
  -14.5010  -39.5699  -10.4929 C   0  0  2  0  0  0  0  0  0  0  0  0
  -13.9215  -40.8583  -11.1106 C   0  0  0  0  0  0  0  0  0  0  0  0
  -15.8279  -39.8611   -9.9231 C   0  0  0  0  0  0  0  0  0  0  0  0
  -15.9506  -40.0575   -8.4630 C   0  0  2  0  0  0  0  0  0  0  0  0
  -15.1229  -40.9586   -7.8630 O   0  0  0  0  0  0  0  0  0  0  0  0
  -17.4314  -40.3522   -8.1183 C   0  0  2  0  0  0  0  0  0  0  0  0
  -17.7790  -39.7418   -6.8191 C   0  0  0  0  0  0  0  0  0  0  0  0
  -18.8787  -38.7242   -6.8523 C   0  0  2  0  0  0  0  0  0  0  0  0
  -19.4181  -38.6124   -5.4259 C   0  0  0  0  0  0  0  0  0  0  0  0
  -20.0019  -38.9723   -7.7708 C   0  0  0  0  0  0  0  0  0  0  0  0
  -21.3792  -39.0125   -7.0906 C   0  0  0  0  0  0  0  0  0  0  0  0
  -22.3286  -39.6208   -8.1004 C   0  0  0  0  0  0  0  0  0  0  0  0
  -23.4036  -40.4673   -7.4340 C   0  0  0  0  0  0  0  0  0  0  0  0
  -23.4227  -41.8627   -7.9859 C   0  0  0  0  0  0  0  0  0  0  0  0
  -24.0340  -42.8825   -7.0977 C   0  0  2  0  0  0  0  0  0  0  0  0
  -25.5584  -42.7496   -7.1311 C   0  0  0  0  0  0  0  0  0  0  0  0
  -23.5999  -42.8563   -5.6800 C   0  0  0  0  0  0  0  0  0  0  0  0
  -22.1085  -42.9941   -5.4971 C   0  0  0  0  0  0  0  0  0  0  0  0
  -21.4800  -43.9442   -6.4115 C   0  0  0  0  0  0  0  0  0  0  0  0
  -22.0015  -45.0640   -6.6380 O   0  0  0  0  0  0  0  0  0  0  0  0
  -20.2530  -43.6578   -7.0914 N   0  0  0  0  0  0  0  0  0  0  0  0
  -19.9040  -44.4307   -8.2552 C   0  0  0  0  0  0  0  0  0  0  0  0
  -19.3908  -42.5782   -6.5736 C   0  0  1  0  0  0  0  0  0  0  0  0
  -19.1988  -42.9142   -5.0924 C   0  0  0  0  0  0  0  0  0  0  0  0
  -18.0801  -42.6781   -7.2620 C   0  0  0  0  0  0  0  0  0  0  0  0
  -17.4013  -43.7137   -6.9134 O   0  0  0  0  0  0  0  0  0  0  0  0
  -17.5544  -41.7829   -8.2089 N   0  0  0  0  0  0  0  0  0  0  0  0
  1  2  1  0
  2  3  1  0
  3  4  1  0
  4  5  1  0
  5  6  1  0
  6  7  2  0
  6  8  1  0
  8  9  1  6
  8 10  1  0
 10 11  1  0
 11 12  1  6
 11 13  1  0
 13 14  1  1
 14 15  1  0
 15 16  1  1
 15 17  1  0
 17 18  1  0
 18 19  1  0
 19 20  1  0
 20 21  1  0
 21 22  1  0
 22 23  1  1
 22 24  1  0
 24 25  1  0
 25 26  1  0
 26 27  2  0
 26 28  1  0
 28 29  1  0
 28 30  1  0
 30 31  1  1
 30 32  1  0
 32 33  2  0
 32 34  1  0
 34 13  1  0
M  END
$$$$
