
     RDKit          3D

 34 34  0  0  0  0  0  0  0  0999 V2000
   -9.3257  -34.9629  -11.5556 C   0  0  0  0  0  0  0  0  0  0  0  0
  -10.2569  -36.0820  -11.9818 C   0  0  0  0  0  0  0  0  0  0  0  0
  -10.9140  -36.7391  -10.7900 C   0  0  0  0  0  0  0  0  0  0  0  0
  -11.9514  -37.7527  -11.1890 C   0  0  0  0  0  0  0  0  0  0  0  0
  -12.6422  -38.3269  -10.0737 N   0  0  0  0  0  0  0  0  0  0  0  0
  -13.5285  -39.4184  -10.3047 C   0  0  0  0  0  0  0  0  0  0  0  0
  -13.6688  -39.8131  -11.4778 O   0  0  0  0  0  0  0  0  0  0  0  0
  -14.2198  -40.0146   -9.1771 C   0  0  2  0  0  0  0  0  0  0  0  0
  -13.4026  -41.2142   -8.6572 C   0  0  0  0  0  0  0  0  0  0  0  0
  -15.6272  -40.4200   -9.3347 C   0  0  0  0  0  0  0  0  0  0  0  0
  -16.6509  -39.3760   -9.5533 C   0  0  2  0  0  0  0  0  0  0  0  0
  -16.3330  -38.0878   -9.2422 O   0  0  0  0  0  0  0  0  0  0  0  0
  -17.9642  -39.8056   -8.8541 C   0  0  2  0  0  0  0  0  0  0  0  0
  -17.9173  -39.4421   -7.4234 C   0  0  0  0  0  0  0  0  0  0  0  0
  -18.9820  -38.4957   -6.9579 C   0  0  2  0  0  0  0  0  0  0  0  0
  -19.0794  -38.6548   -5.4403 C   0  0  0  0  0  0  0  0  0  0  0  0
  -20.3245  -38.6478   -7.5423 C   0  0  0  0  0  0  0  0  0  0  0  0
  -21.4413  -38.8775   -6.5122 C   0  0  0  0  0  0  0  0  0  0  0  0
  -22.6430  -39.3592   -7.2964 C   0  0  0  0  0  0  0  0  0  0  0  0
  -23.4721  -40.3636   -6.5088 C   0  0  0  0  0  0  0  0  0  0  0  0
  -23.6474  -41.6455   -7.2692 C   0  0  0  0  0  0  0  0  0  0  0  0
  -23.9674  -42.8321   -6.4372 C   0  0  2  0  0  0  0  0  0  0  0  0
  -25.4349  -42.7798   -6.0058 C   0  0  0  0  0  0  0  0  0  0  0  0
  -23.1364  -43.0203   -5.2235 C   0  0  0  0  0  0  0  0  0  0  0  0
  -21.6565  -43.1041   -5.5057 C   0  0  0  0  0  0  0  0  0  0  0  0
  -21.3207  -43.8512   -6.7152 C   0  0  0  0  0  0  0  0  0  0  0  0
  -21.8816  -44.9442   -6.9758 O   0  0  0  0  0  0  0  0  0  0  0  0
  -20.3483  -43.3874   -7.6582 N   0  0  0  0  0  0  0  0  0  0  0  0
  -20.3534  -43.9335   -8.9906 C   0  0  0  0  0  0  0  0  0  0  0  0
  -19.3759  -42.3640   -7.2288 C   0  0  1  0  0  0  0  0  0  0  0  0
  -18.7564  -42.9328   -5.9494 C   0  0  0  0  0  0  0  0  0  0  0  0
  -18.3247  -42.2745   -8.2721 C   0  0  0  0  0  0  0  0  0  0  0  0
  -17.5697  -43.3148   -8.3226 O   0  0  0  0  0  0  0  0  0  0  0  0
  -18.1032  -41.2055   -9.1567 N   0  0  0  0  0  0  0  0  0  0  0  0
  1  2  1  0
  2  3  1  0
  3  4  1  0
  4  5  1  0
  5  6  1  0
  6  7  2  0
  6  8  1  0
  8  9  1  6
  8 10  1  0
 10 11  1  0
 11 12  1  1
 11 13  1  0
 13 14  1  1
 14 15  1  0
 15 16  1  1
 15 17  1  0
 17 18  1  0
 18 19  1  0
 19 20  1  0
 20 21  1  0
 21 22  1  0
 22 23  1  1
 22 24  1  0
 24 25  1  0
 25 26  1  0
 26 27  2  0
 26 28  1  0
 28 29  1  0
 28 30  1  0
 30 31  1  1
 30 32  1  0
 32 33  2  0
 32 34  1  0
 34 13  1  0
M  END
$$$$
