
     RDKit          3D

 36 38  0  0  0  0  0  0  0  0999 V2000
  -13.8955  -43.5273   -9.1954 C   0  0  0  0  0  0  0  0  0  0  0  0
  -12.8442  -43.5020  -10.3018 C   0  0  0  0  0  0  0  0  0  0  0  0
  -11.5356  -43.9238   -9.6867 C   0  0  0  0  0  0  0  0  0  0  0  0
  -12.7807  -42.1514  -10.9162 C   0  0  0  0  0  0  0  0  0  0  0  0
  -11.8595  -41.8962  -11.8782 C   0  0  0  0  0  0  0  0  0  0  0  0
  -11.7888  -40.6500  -12.4558 C   0  0  0  0  0  0  0  0  0  0  0  0
  -12.6645  -39.6302  -12.0599 C   0  0  0  0  0  0  0  0  0  0  0  0
  -13.5926  -39.8872  -11.0907 C   0  0  0  0  0  0  0  0  0  0  0  0
  -14.5211  -38.7926  -10.6763 C   0  0  0  0  0  0  0  0  0  0  0  0
  -14.7326  -38.7883   -9.2657 N   0  0  0  0  0  0  0  0  0  0  0  0
  -15.8090  -38.0265   -8.7418 C   0  0  0  0  0  0  0  0  0  0  0  0
  -16.3308  -38.5703   -7.4664 C   0  0  1  0  0  0  0  0  0  0  0  0
  -16.8933  -37.5389   -6.7050 O   0  0  0  0  0  0  0  0  0  0  0  0
  -17.3634  -39.6944   -7.6436 C   0  0  2  0  0  0  0  0  0  0  0  0
  -17.9941  -39.9452   -6.3038 C   0  0  0  0  0  0  0  0  0  0  0  0
  -19.3729  -39.2670   -6.2183 C   0  0  2  0  0  0  0  0  0  0  0  0
  -19.5233  -38.3963   -5.0240 C   0  0  0  0  0  0  0  0  0  0  0  0
  -20.4023  -40.3272   -6.3578 C   0  0  0  0  0  0  0  0  0  0  0  0
  -21.7899  -39.9159   -5.9780 C   0  0  0  0  0  0  0  0  0  0  0  0
  -22.4026  -40.7161   -4.8705 C   0  0  0  0  0  0  0  0  0  0  0  0
  -23.5893  -41.5411   -5.2919 C   0  0  0  0  0  0  0  0  0  0  0  0
  -23.2414  -42.6504   -6.2429 C   0  0  0  0  0  0  0  0  0  0  0  0
  -23.0143  -43.9837   -5.5600 C   0  0  0  0  0  0  0  0  0  0  0  0
  -21.5686  -44.3413   -5.5322 C   0  0  0  0  0  0  0  0  0  0  0  0
  -20.9604  -44.6286   -6.7384 O   0  0  0  0  0  0  0  0  0  0  0  0
  -20.3088  -43.8799   -7.7096 C   0  0  0  0  0  0  0  0  0  0  0  0
  -19.0708  -43.2678   -7.6620 C   0  0  0  0  0  0  0  0  0  0  0  0
  -18.6765  -42.5836   -8.7878 C   0  0  0  0  0  0  0  0  0  0  0  0
  -19.5427  -42.5468   -9.9150 C   0  0  0  0  0  0  0  0  0  0  0  0
  -20.7715  -43.1627   -9.9460 C   0  0  0  0  0  0  0  0  0  0  0  0
  -21.8060  -43.0900  -11.3608 Cl  0  0  0  0  0  0  0  0  0  0  0  0
  -21.1051  -43.8041   -8.8421 N   0  0  0  0  0  0  0  0  0  0  0  0
  -17.4590  -41.8057   -9.0885 C   0  0  0  0  0  0  0  0  0  0  0  0
  -16.9417  -42.0660  -10.2667 O   0  0  0  0  0  0  0  0  0  0  0  0
  -16.7822  -40.8258   -8.2883 N   0  0  0  0  0  0  0  0  0  0  0  0
  -13.6483  -41.1343  -10.5267 C   0  0  0  0  0  0  0  0  0  0  0  0
  1  2  1  0
  2  3  1  0
  2  4  1  0
  4  5  2  0
  5  6  1  0
  6  7  2  0
  7  8  1  0
  8  9  1  0
  9 10  1  0
 10 11  1  0
 11 12  1  0
 12 13  1  6
 12 14  1  0
 14 15  1  1
 15 16  1  0
 16 17  1  1
 16 18  1  0
 18 19  1  0
 19 20  1  0
 20 21  1  0
 21 22  1  0
 22 23  1  0
 23 24  1  0
 24 25  1  0
 25 26  1  0
 26 27  2  0
 27 28  1  0
 28 29  2  0
 29 30  1  0
 30 31  1  0
 30 32  2  0
 28 33  1  0
 33 34  2  0
 33 35  1  0
  8 36  2  0
 32 26  1  0
 35 14  1  0
 36  4  1  0
M  END
$$$$
