
     RDKit          3D

 36 38  0  0  0  0  0  0  0  0999 V2000
  -12.3197  -33.7690  -10.3058 C   0  0  0  0  0  0  0  0  0  0  0  0
  -12.2582  -34.2219  -11.7622 C   0  0  0  0  0  0  0  0  0  0  0  0
  -13.0654  -33.2409  -12.5714 C   0  0  0  0  0  0  0  0  0  0  0  0
  -12.7567  -35.6154  -11.8860 C   0  0  0  0  0  0  0  0  0  0  0  0
  -13.4914  -35.9699  -12.9694 C   0  0  0  0  0  0  0  0  0  0  0  0
  -13.9600  -37.2566  -13.0973 C   0  0  0  0  0  0  0  0  0  0  0  0
  -13.6859  -38.2159  -12.1134 C   0  0  0  0  0  0  0  0  0  0  0  0
  -12.9457  -37.8590  -11.0218 C   0  0  0  0  0  0  0  0  0  0  0  0
  -12.6597  -38.8898   -9.9790 C   0  0  0  0  0  0  0  0  0  0  0  0
  -13.5242  -38.7527   -8.8528 N   0  0  0  0  0  0  0  0  0  0  0  0
  -14.9221  -38.6568   -9.0763 C   0  0  0  0  0  0  0  0  0  0  0  0
  -15.7185  -38.9116   -7.8535 C   0  0  1  0  0  0  0  0  0  0  0  0
  -16.1111  -37.6962   -7.2803 O   0  0  0  0  0  0  0  0  0  0  0  0
  -16.9585  -39.7885   -8.0881 C   0  0  2  0  0  0  0  0  0  0  0  0
  -17.5197  -40.1485   -6.7423 C   0  0  0  0  0  0  0  0  0  0  0  0
  -18.7316  -39.2618   -6.4055 C   0  0  2  0  0  0  0  0  0  0  0  0
  -18.6187  -38.5948   -5.0829 C   0  0  0  0  0  0  0  0  0  0  0  0
  -19.9532  -40.0836   -6.5936 C   0  0  0  0  0  0  0  0  0  0  0  0
  -21.2021  -39.5043   -6.0077 C   0  0  0  0  0  0  0  0  0  0  0  0
  -21.8693  -40.3604   -4.9762 C   0  0  0  0  0  0  0  0  0  0  0  0
  -23.2215  -40.8785   -5.3882 C   0  0  0  0  0  0  0  0  0  0  0  0
  -23.1681  -41.8531   -6.5298 C   0  0  0  0  0  0  0  0  0  0  0  0
  -23.1491  -43.3022   -6.0876 C   0  0  0  0  0  0  0  0  0  0  0  0
  -21.8013  -43.9092   -6.2711 C   0  0  0  0  0  0  0  0  0  0  0  0
  -21.3552  -44.0896   -7.5656 O   0  0  0  0  0  0  0  0  0  0  0  0
  -20.6493  -43.3136   -8.4755 C   0  0  0  0  0  0  0  0  0  0  0  0
  -19.3168  -42.9473   -8.4687 C   0  0  0  0  0  0  0  0  0  0  0  0
  -18.8871  -42.1618   -9.5124 C   0  0  0  0  0  0  0  0  0  0  0  0
  -19.8149  -41.7808  -10.5205 C   0  0  0  0  0  0  0  0  0  0  0  0
  -21.1378  -42.1552  -10.5125 C   0  0  0  0  0  0  0  0  0  0  0  0
  -22.2456  -41.6606  -11.7794 Cl  0  0  0  0  0  0  0  0  0  0  0  0
  -21.5016  -42.9062   -9.4903 N   0  0  0  0  0  0  0  0  0  0  0  0
  -17.5698  -41.5718   -9.8202 C   0  0  0  0  0  0  0  0  0  0  0  0
  -17.2053  -41.7147  -11.0733 O   0  0  0  0  0  0  0  0  0  0  0  0
  -16.6573  -40.8781   -8.9573 N   0  0  0  0  0  0  0  0  0  0  0  0
  -12.4874  -36.5728  -10.9115 C   0  0  0  0  0  0  0  0  0  0  0  0
  1  2  1  0
  2  3  1  0
  2  4  1  0
  4  5  2  0
  5  6  1  0
  6  7  2  0
  7  8  1  0
  8  9  1  0
  9 10  1  0
 10 11  1  0
 11 12  1  0
 12 13  1  6
 12 14  1  0
 14 15  1  1
 15 16  1  0
 16 17  1  1
 16 18  1  0
 18 19  1  0
 19 20  1  0
 20 21  1  0
 21 22  1  0
 22 23  1  0
 23 24  1  0
 24 25  1  0
 25 26  1  0
 26 27  2  0
 27 28  1  0
 28 29  2  0
 29 30  1  0
 30 31  1  0
 30 32  2  0
 28 33  1  0
 33 34  2  0
 33 35  1  0
  8 36  2  0
 32 26  1  0
 35 14  1  0
 36  4  1  0
M  END
$$$$
