
     RDKit          3D

 36 38  0  0  0  0  0  0  0  0999 V2000
  -12.4091  -34.0318  -12.5614 C   0  0  0  0  0  0  0  0  0  0  0  0
  -13.7864  -34.6745  -12.7020 C   0  0  0  0  0  0  0  0  0  0  0  0
  -14.6791  -34.0549  -11.6590 C   0  0  0  0  0  0  0  0  0  0  0  0
  -13.6793  -36.1493  -12.5630 C   0  0  0  0  0  0  0  0  0  0  0  0
  -13.9931  -36.9455  -13.6150 C   0  0  0  0  0  0  0  0  0  0  0  0
  -13.8990  -38.3128  -13.5007 C   0  0  0  0  0  0  0  0  0  0  0  0
  -13.4790  -38.9003  -12.2999 C   0  0  0  0  0  0  0  0  0  0  0  0
  -13.1629  -38.0983  -11.2399 C   0  0  0  0  0  0  0  0  0  0  0  0
  -12.7164  -38.7355   -9.9645 C   0  0  0  0  0  0  0  0  0  0  0  0
  -13.6173  -38.4576   -8.8942 N   0  0  0  0  0  0  0  0  0  0  0  0
  -15.0097  -38.6114   -9.1200 C   0  0  0  0  0  0  0  0  0  0  0  0
  -15.7728  -38.8396   -7.8710 C   0  0  1  0  0  0  0  0  0  0  0  0
  -16.1888  -37.6139   -7.3377 O   0  0  0  0  0  0  0  0  0  0  0  0
  -16.9911  -39.7601   -8.0437 C   0  0  2  0  0  0  0  0  0  0  0  0
  -17.5571  -40.0232   -6.6776 C   0  0  0  0  0  0  0  0  0  0  0  0
  -18.7911  -39.1398   -6.4226 C   0  0  2  0  0  0  0  0  0  0  0  0
  -18.7053  -38.3663   -5.1572 C   0  0  0  0  0  0  0  0  0  0  0  0
  -19.9927  -40.0012   -6.5533 C   0  0  0  0  0  0  0  0  0  0  0  0
  -21.2594  -39.4048   -6.0256 C   0  0  0  0  0  0  0  0  0  0  0  0
  -21.9176  -40.1900   -4.9335 C   0  0  0  0  0  0  0  0  0  0  0  0
  -23.2542  -40.7696   -5.3129 C   0  0  0  0  0  0  0  0  0  0  0  0
  -23.1689  -41.8314   -6.3718 C   0  0  0  0  0  0  0  0  0  0  0  0
  -23.1226  -43.2395   -5.8142 C   0  0  0  0  0  0  0  0  0  0  0  0
  -21.7603  -43.8290   -5.9378 C   0  0  0  0  0  0  0  0  0  0  0  0
  -21.2981  -44.1028   -7.2101 O   0  0  0  0  0  0  0  0  0  0  0  0
  -20.6006  -43.3867   -8.1741 C   0  0  0  0  0  0  0  0  0  0  0  0
  -19.2766  -42.9913   -8.1866 C   0  0  0  0  0  0  0  0  0  0  0  0
  -18.8542  -42.2829   -9.2869 C   0  0  0  0  0  0  0  0  0  0  0  0
  -19.7805  -42.0050  -10.3295 C   0  0  0  0  0  0  0  0  0  0  0  0
  -21.0949  -42.4071  -10.3015 C   0  0  0  0  0  0  0  0  0  0  0  0
  -22.2013  -42.0408  -11.6126 Cl  0  0  0  0  0  0  0  0  0  0  0  0
  -21.4520  -43.0814   -9.2249 N   0  0  0  0  0  0  0  0  0  0  0  0
  -17.5472  -41.6902   -9.6311 C   0  0  0  0  0  0  0  0  0  0  0  0
  -17.1678  -41.9251  -10.8658 O   0  0  0  0  0  0  0  0  0  0  0  0
  -16.6582  -40.9090   -8.8199 N   0  0  0  0  0  0  0  0  0  0  0  0
  -13.2626  -36.7386  -11.3722 C   0  0  0  0  0  0  0  0  0  0  0  0
  1  2  1  0
  2  3  1  0
  2  4  1  0
  4  5  2  0
  5  6  1  0
  6  7  2  0
  7  8  1  0
  8  9  1  0
  9 10  1  0
 10 11  1  0
 11 12  1  0
 12 13  1  6
 12 14  1  0
 14 15  1  1
 15 16  1  0
 16 17  1  1
 16 18  1  0
 18 19  1  0
 19 20  1  0
 20 21  1  0
 21 22  1  0
 22 23  1  0
 23 24  1  0
 24 25  1  0
 25 26  1  0
 26 27  2  0
 27 28  1  0
 28 29  2  0
 29 30  1  0
 30 31  1  0
 30 32  2  0
 28 33  1  0
 33 34  2  0
 33 35  1  0
  8 36  2  0
 32 26  1  0
 35 14  1  0
 36  4  1  0
M  END
$$$$
