
     RDKit          3D

 36 38  0  0  0  0  0  0  0  0999 V2000
   -9.3717  -38.0001  -11.8411 C   0  0  0  0  0  0  0  0  0  0  0  0
  -10.1911  -39.0625  -12.5691 C   0  0  0  0  0  0  0  0  0  0  0  0
   -9.4837  -39.3650  -13.8640 C   0  0  0  0  0  0  0  0  0  0  0  0
  -11.5823  -38.5845  -12.7732 C   0  0  0  0  0  0  0  0  0  0  0  0
  -12.1660  -38.7226  -13.9895 C   0  0  0  0  0  0  0  0  0  0  0  0
  -13.4536  -38.2843  -14.1932 C   0  0  0  0  0  0  0  0  0  0  0  0
  -14.1779  -37.6911  -13.1506 C   0  0  0  0  0  0  0  0  0  0  0  0
  -13.5900  -37.5519  -11.9252 C   0  0  0  0  0  0  0  0  0  0  0  0
  -14.3714  -36.9179  -10.8209 C   0  0  0  0  0  0  0  0  0  0  0  0
  -15.2780  -37.8413  -10.2208 N   0  0  0  0  0  0  0  0  0  0  0  0
  -16.6502  -37.4902  -10.1374 C   0  0  0  0  0  0  0  0  0  0  0  0
  -17.1496  -37.4503   -8.7433 C   0  0  1  0  0  0  0  0  0  0  0  0
  -18.0338  -36.3763   -8.5859 O   0  0  0  0  0  0  0  0  0  0  0  0
  -17.8375  -38.7473   -8.2897 C   0  0  2  0  0  0  0  0  0  0  0  0
  -18.4259  -38.4966   -6.9307 C   0  0  0  0  0  0  0  0  0  0  0  0
  -19.9378  -38.2295   -7.0355 C   0  0  2  0  0  0  0  0  0  0  0  0
  -20.3579  -36.9734   -6.3627 C   0  0  0  0  0  0  0  0  0  0  0  0
  -20.6411  -39.4540   -6.5781 C   0  0  0  0  0  0  0  0  0  0  0  0
  -22.1007  -39.2788   -6.2998 C   0  0  0  0  0  0  0  0  0  0  0  0
  -22.5167  -39.5977   -4.8971 C   0  0  0  0  0  0  0  0  0  0  0  0
  -23.4241  -40.7934   -4.7818 C   0  0  0  0  0  0  0  0  0  0  0  0
  -22.7589  -42.0890   -5.1490 C   0  0  0  0  0  0  0  0  0  0  0  0
  -22.2085  -42.8455   -3.9571 C   0  0  0  0  0  0  0  0  0  0  0  0
  -20.7218  -42.7708   -3.9048 C   0  0  0  0  0  0  0  0  0  0  0  0
  -20.0163  -43.4218   -4.8976 O   0  0  0  0  0  0  0  0  0  0  0  0
  -19.5539  -43.0736   -6.1599 C   0  0  0  0  0  0  0  0  0  0  0  0
  -18.5269  -42.2193   -6.5135 C   0  0  0  0  0  0  0  0  0  0  0  0
  -18.2897  -42.0626   -7.8589 C   0  0  0  0  0  0  0  0  0  0  0  0
  -19.0933  -42.7743   -8.7916 C   0  0  0  0  0  0  0  0  0  0  0  0
  -20.1111  -43.6217   -8.4225 C   0  0  0  0  0  0  0  0  0  0  0  0
  -21.0762  -44.4790   -9.6102 Cl  0  0  0  0  0  0  0  0  0  0  0  0
  -20.3005  -43.7369   -7.1217 N   0  0  0  0  0  0  0  0  0  0  0  0
  -17.3141  -41.2348   -8.5945 C   0  0  0  0  0  0  0  0  0  0  0  0
  -16.7044  -41.8729   -9.5664 O   0  0  0  0  0  0  0  0  0  0  0  0
  -16.9527  -39.8603   -8.3977 N   0  0  0  0  0  0  0  0  0  0  0  0
  -12.3067  -37.9943  -11.7408 C   0  0  0  0  0  0  0  0  0  0  0  0
  1  2  1  0
  2  3  1  0
  2  4  1  0
  4  5  2  0
  5  6  1  0
  6  7  2  0
  7  8  1  0
  8  9  1  0
  9 10  1  0
 10 11  1  0
 11 12  1  0
 12 13  1  6
 12 14  1  0
 14 15  1  1
 15 16  1  0
 16 17  1  1
 16 18  1  0
 18 19  1  0
 19 20  1  0
 20 21  1  0
 21 22  1  0
 22 23  1  0
 23 24  1  0
 24 25  1  0
 25 26  1  0
 26 27  2  0
 27 28  1  0
 28 29  2  0
 29 30  1  0
 30 31  1  0
 30 32  2  0
 28 33  1  0
 33 34  2  0
 33 35  1  0
  8 36  2  0
 32 26  1  0
 35 14  1  0
 36  4  1  0
M  END
$$$$
