
     RDKit          3D

 36 38  0  0  0  0  0  0  0  0999 V2000
  -11.1601  -35.4332  -11.9684 C   0  0  0  0  0  0  0  0  0  0  0  0
  -12.4820  -36.0640  -12.3982 C   0  0  0  0  0  0  0  0  0  0  0  0
  -13.5843  -35.3240  -11.6868 C   0  0  0  0  0  0  0  0  0  0  0  0
  -12.4777  -37.5177  -12.0946 C   0  0  0  0  0  0  0  0  0  0  0  0
  -12.5189  -38.4142  -13.1113 C   0  0  0  0  0  0  0  0  0  0  0  0
  -12.5159  -39.7635  -12.8451 C   0  0  0  0  0  0  0  0  0  0  0  0
  -12.4703  -40.2293  -11.5243 C   0  0  0  0  0  0  0  0  0  0  0  0
  -12.4288  -39.3262  -10.4999 C   0  0  0  0  0  0  0  0  0  0  0  0
  -12.3805  -39.8340   -9.0957 C   0  0  0  0  0  0  0  0  0  0  0  0
  -13.4869  -39.3638   -8.3281 N   0  0  0  0  0  0  0  0  0  0  0  0
  -14.8001  -39.6703   -8.7696 C   0  0  0  0  0  0  0  0  0  0  0  0
  -15.8399  -39.2991   -7.7819 C   0  0  1  0  0  0  0  0  0  0  0  0
  -16.2515  -37.9788   -7.9987 O   0  0  0  0  0  0  0  0  0  0  0  0
  -17.0674  -40.2236   -7.7911 C   0  0  2  0  0  0  0  0  0  0  0  0
  -17.8830  -39.9057   -6.5707 C   0  0  0  0  0  0  0  0  0  0  0  0
  -19.0804  -39.0111   -6.9368 C   0  0  2  0  0  0  0  0  0  0  0  0
  -19.1685  -37.7828   -6.1059 C   0  0  0  0  0  0  0  0  0  0  0  0
  -20.2949  -39.8643   -6.9295 C   0  0  0  0  0  0  0  0  0  0  0  0
  -21.5922  -39.1188   -6.9410 C   0  0  0  0  0  0  0  0  0  0  0  0
  -22.4847  -39.3905   -5.7698 C   0  0  0  0  0  0  0  0  0  0  0  0
  -23.7688  -40.0915   -6.1251 C   0  0  0  0  0  0  0  0  0  0  0  0
  -23.5686  -41.4949   -6.6215 C   0  0  0  0  0  0  0  0  0  0  0  0
  -23.7166  -42.5460   -5.5403 C   0  0  0  0  0  0  0  0  0  0  0  0
  -22.3967  -43.1170   -5.1525 C   0  0  0  0  0  0  0  0  0  0  0  0
  -21.7357  -43.8864   -6.0898 O   0  0  0  0  0  0  0  0  0  0  0  0
  -20.8319  -43.6242   -7.1110 C   0  0  0  0  0  0  0  0  0  0  0  0
  -19.5031  -43.2530   -7.0330 C   0  0  0  0  0  0  0  0  0  0  0  0
  -18.8456  -43.0575   -8.2249 C   0  0  0  0  0  0  0  0  0  0  0  0
  -19.5516  -43.2467   -9.4447 C   0  0  0  0  0  0  0  0  0  0  0  0
  -20.8742  -43.6175   -9.5044 C   0  0  0  0  0  0  0  0  0  0  0  0
  -21.7035  -43.8395  -11.0341 Cl  0  0  0  0  0  0  0  0  0  0  0  0
  -21.4610  -43.7910   -8.3352 N   0  0  0  0  0  0  0  0  0  0  0  0
  -17.4615  -42.6439   -8.5268 C   0  0  0  0  0  0  0  0  0  0  0  0
  -16.8859  -43.3634   -9.4620 O   0  0  0  0  0  0  0  0  0  0  0  0
  -16.6800  -41.5864   -7.9528 N   0  0  0  0  0  0  0  0  0  0  0  0
  -12.4325  -37.9862  -10.7841 C   0  0  0  0  0  0  0  0  0  0  0  0
  1  2  1  0
  2  3  1  0
  2  4  1  0
  4  5  2  0
  5  6  1  0
  6  7  2  0
  7  8  1  0
  8  9  1  0
  9 10  1  0
 10 11  1  0
 11 12  1  0
 12 13  1  6
 12 14  1  0
 14 15  1  1
 15 16  1  0
 16 17  1  1
 16 18  1  0
 18 19  1  0
 19 20  1  0
 20 21  1  0
 21 22  1  0
 22 23  1  0
 23 24  1  0
 24 25  1  0
 25 26  1  0
 26 27  2  0
 27 28  1  0
 28 29  2  0
 29 30  1  0
 30 31  1  0
 30 32  2  0
 28 33  1  0
 33 34  2  0
 33 35  1  0
  8 36  2  0
 32 26  1  0
 35 14  1  0
 36  4  1  0
M  END
$$$$
