
     RDKit          3D

 36 38  0  0  0  0  0  0  0  0999 V2000
  -12.3977  -35.1407  -12.1966 C   0  0  0  0  0  0  0  0  0  0  0  0
  -13.7963  -35.5914  -12.6100 C   0  0  0  0  0  0  0  0  0  0  0  0
  -14.7832  -34.7597  -11.8335 C   0  0  0  0  0  0  0  0  0  0  0  0
  -13.9569  -37.0478  -12.3675 C   0  0  0  0  0  0  0  0  0  0  0  0
  -14.3115  -37.8620  -13.3924 C   0  0  0  0  0  0  0  0  0  0  0  0
  -14.4643  -39.2126  -13.1826 C   0  0  0  0  0  0  0  0  0  0  0  0
  -14.2564  -39.7644  -11.9115 C   0  0  0  0  0  0  0  0  0  0  0  0
  -13.8991  -38.9442  -10.8788 C   0  0  0  0  0  0  0  0  0  0  0  0
  -13.6801  -39.5433   -9.5279 C   0  0  0  0  0  0  0  0  0  0  0  0
  -14.1133  -38.6682   -8.4881 N   0  0  0  0  0  0  0  0  0  0  0  0
  -14.6864  -39.2325   -7.3191 C   0  0  0  0  0  0  0  0  0  0  0  0
  -16.1109  -38.8660   -7.1429 C   0  0  1  0  0  0  0  0  0  0  0  0
  -16.4552  -37.8507   -8.0433 O   0  0  0  0  0  0  0  0  0  0  0  0
  -17.0832  -40.0445   -7.3076 C   0  0  2  0  0  0  0  0  0  0  0  0
  -18.0634  -39.9851   -6.1711 C   0  0  0  0  0  0  0  0  0  0  0  0
  -19.3952  -39.3697   -6.6355 C   0  0  2  0  0  0  0  0  0  0  0  0
  -19.8455  -38.2389   -5.7837 C   0  0  0  0  0  0  0  0  0  0  0  0
  -20.3732  -40.4768   -6.7802 C   0  0  0  0  0  0  0  0  0  0  0  0
  -21.8009  -40.0475   -6.9069 C   0  0  0  0  0  0  0  0  0  0  0  0
  -22.7138  -40.5765   -5.8443 C   0  0  0  0  0  0  0  0  0  0  0  0
  -23.7597  -41.5326   -6.3525 C   0  0  0  0  0  0  0  0  0  0  0  0
  -23.1923  -42.8254   -6.8650 C   0  0  0  0  0  0  0  0  0  0  0  0
  -23.1947  -43.9374   -5.8358 C   0  0  0  0  0  0  0  0  0  0  0  0
  -21.8216  -44.2114   -5.3278 C   0  0  0  0  0  0  0  0  0  0  0  0
  -20.9133  -44.7597   -6.2119 O   0  0  0  0  0  0  0  0  0  0  0  0
  -20.0017  -44.2453   -7.1245 C   0  0  0  0  0  0  0  0  0  0  0  0
  -18.8093  -43.5852   -6.8966 C   0  0  0  0  0  0  0  0  0  0  0  0
  -18.1043  -43.1829   -8.0066 C   0  0  0  0  0  0  0  0  0  0  0  0
  -18.6269  -43.4645   -9.2989 C   0  0  0  0  0  0  0  0  0  0  0  0
  -19.8151  -44.1238   -9.5079 C   0  0  0  0  0  0  0  0  0  0  0  0
  -20.4197  -44.4493  -11.1220 Cl  0  0  0  0  0  0  0  0  0  0  0  0
  -20.4547  -44.4873   -8.4123 N   0  0  0  0  0  0  0  0  0  0  0  0
  -16.8318  -42.4491   -8.1495 C   0  0  0  0  0  0  0  0  0  0  0  0
  -16.0180  -42.9685   -9.0391 O   0  0  0  0  0  0  0  0  0  0  0  0
  -16.3761  -41.2725   -7.4664 N   0  0  0  0  0  0  0  0  0  0  0  0
  -13.7515  -37.6016  -11.1065 C   0  0  0  0  0  0  0  0  0  0  0  0
  1  2  1  0
  2  3  1  0
  2  4  1  0
  4  5  2  0
  5  6  1  0
  6  7  2  0
  7  8  1  0
  8  9  1  0
  9 10  1  0
 10 11  1  0
 11 12  1  0
 12 13  1  6
 12 14  1  0
 14 15  1  1
 15 16  1  0
 16 17  1  1
 16 18  1  0
 18 19  1  0
 19 20  1  0
 20 21  1  0
 21 22  1  0
 22 23  1  0
 23 24  1  0
 24 25  1  0
 25 26  1  0
 26 27  2  0
 27 28  1  0
 28 29  2  0
 29 30  1  0
 30 31  1  0
 30 32  2  0
 28 33  1  0
 33 34  2  0
 33 35  1  0
  8 36  2  0
 32 26  1  0
 35 14  1  0
 36  4  1  0
M  END
$$$$
