
     RDKit          3D

 36 38  0  0  0  0  0  0  0  0999 V2000
  -14.4343  -34.4457  -11.4750 C   0  0  0  0  0  0  0  0  0  0  0  0
  -14.3022  -35.3947  -12.6633 C   0  0  0  0  0  0  0  0  0  0  0  0
  -15.6952  -35.7148  -13.1384 C   0  0  0  0  0  0  0  0  0  0  0  0
  -13.5380  -36.6054  -12.2685 C   0  0  0  0  0  0  0  0  0  0  0  0
  -12.2013  -36.6556  -12.4917 C   0  0  0  0  0  0  0  0  0  0  0  0
  -11.4808  -37.7704  -12.1317 C   0  0  0  0  0  0  0  0  0  0  0  0
  -12.1154  -38.8661  -11.5315 C   0  0  0  0  0  0  0  0  0  0  0  0
  -13.4621  -38.8156  -11.3067 C   0  0  0  0  0  0  0  0  0  0  0  0
  -14.1284  -39.9895  -10.6663 C   0  0  0  0  0  0  0  0  0  0  0  0
  -13.9737  -39.9731   -9.2484 N   0  0  0  0  0  0  0  0  0  0  0  0
  -14.5651  -38.9142   -8.5120 C   0  0  0  0  0  0  0  0  0  0  0  0
  -15.6266  -39.3787   -7.5890 C   0  0  1  0  0  0  0  0  0  0  0  0
  -16.0117  -38.3321   -6.7426 O   0  0  0  0  0  0  0  0  0  0  0  0
  -16.8673  -39.9429   -8.2986 C   0  0  2  0  0  0  0  0  0  0  0  0
  -17.7643  -40.5282   -7.2457 C   0  0  0  0  0  0  0  0  0  0  0  0
  -18.9144  -39.5608   -6.9146 C   0  0  2  0  0  0  0  0  0  0  0  0
  -19.0402  -39.2772   -5.4618 C   0  0  0  0  0  0  0  0  0  0  0  0
  -20.1421  -40.0875   -7.5615 C   0  0  0  0  0  0  0  0  0  0  0  0
  -21.4207  -39.4692   -7.0905 C   0  0  0  0  0  0  0  0  0  0  0  0
  -22.4019  -40.4300   -6.4937 C   0  0  0  0  0  0  0  0  0  0  0  0
  -23.6694  -40.5886   -7.2904 C   0  0  0  0  0  0  0  0  0  0  0  0
  -23.4598  -41.2393   -8.6278 C   0  0  0  0  0  0  0  0  0  0  0  0
  -23.7067  -42.7342   -8.6185 C   0  0  0  0  0  0  0  0  0  0  0  0
  -22.4299  -43.4969   -8.7001 C   0  0  0  0  0  0  0  0  0  0  0  0
  -21.7165  -43.4197   -9.8801 O   0  0  0  0  0  0  0  0  0  0  0  0
  -20.7352  -42.5725  -10.3778 C   0  0  0  0  0  0  0  0  0  0  0  0
  -19.4090  -42.4532  -10.0084 C   0  0  0  0  0  0  0  0  0  0  0  0
  -18.6621  -41.5160  -10.6830 C   0  0  0  0  0  0  0  0  0  0  0  0
  -19.2799  -40.7409  -11.7027 C   0  0  0  0  0  0  0  0  0  0  0  0
  -20.6013  -40.8733  -12.0586 C   0  0  0  0  0  0  0  0  0  0  0  0
  -21.3198  -39.8942  -13.3243 Cl  0  0  0  0  0  0  0  0  0  0  0  0
  -21.2756  -41.7834  -11.3817 N   0  0  0  0  0  0  0  0  0  0  0  0
  -17.2519  -41.1019  -10.5488 C   0  0  0  0  0  0  0  0  0  0  0  0
  -16.6228  -40.9854  -11.6952 O   0  0  0  0  0  0  0  0  0  0  0  0
  -16.4949  -40.8140   -9.3645 N   0  0  0  0  0  0  0  0  0  0  0  0
  -14.1634  -37.6970  -11.6718 C   0  0  0  0  0  0  0  0  0  0  0  0
  1  2  1  0
  2  3  1  0
  2  4  1  0
  4  5  2  0
  5  6  1  0
  6  7  2  0
  7  8  1  0
  8  9  1  0
  9 10  1  0
 10 11  1  0
 11 12  1  0
 12 13  1  6
 12 14  1  0
 14 15  1  1
 15 16  1  0
 16 17  1  1
 16 18  1  0
 18 19  1  0
 19 20  1  0
 20 21  1  0
 21 22  1  0
 22 23  1  0
 23 24  1  0
 24 25  1  0
 25 26  1  0
 26 27  2  0
 27 28  1  0
 28 29  2  0
 29 30  1  0
 30 31  1  0
 30 32  2  0
 28 33  1  0
 33 34  2  0
 33 35  1  0
  8 36  2  0
 32 26  1  0
 35 14  1  0
 36  4  1  0
M  END
$$$$
