
     RDKit          3D

 36 38  0  0  0  0  0  0  0  0999 V2000
  -23.1614  -37.0815   -7.1073 C   0  0  0  0  0  0  0  0  0  0  0  0
  -23.5365  -38.5588   -7.0251 C   0  0  0  0  0  0  0  0  0  0  0  0
  -23.9383  -38.8408   -5.6011 C   0  0  0  0  0  0  0  0  0  0  0  0
  -22.4004  -39.4010   -7.4784 C   0  0  0  0  0  0  0  0  0  0  0  0
  -22.4990  -40.0873   -8.6439 C   0  0  0  0  0  0  0  0  0  0  0  0
  -21.4550  -40.8715   -9.0760 C   0  0  0  0  0  0  0  0  0  0  0  0
  -20.2790  -40.9720   -8.3207 C   0  0  0  0  0  0  0  0  0  0  0  0
  -20.1795  -40.2807   -7.1465 C   0  0  0  0  0  0  0  0  0  0  0  0
  -18.9212  -40.3952   -6.3494 C   0  0  0  0  0  0  0  0  0  0  0  0
  -17.8835  -39.5755   -6.8839 N   0  0  0  0  0  0  0  0  0  0  0  0
  -16.8871  -40.1808   -7.6927 C   0  0  0  0  0  0  0  0  0  0  0  0
  -15.8138  -39.2379   -8.0845 C   0  0  1  0  0  0  0  0  0  0  0  0
  -14.9946  -38.9659   -6.9823 O   0  0  0  0  0  0  0  0  0  0  0  0
  -14.9473  -39.7303   -9.2542 C   0  0  2  0  0  0  0  0  0  0  0  0
  -15.0595  -38.7182  -10.3582 C   0  0  0  0  0  0  0  0  0  0  0  0
  -13.8235  -37.8016  -10.3809 C   0  0  2  0  0  0  0  0  0  0  0  0
  -14.1667  -36.3564  -10.3585 C   0  0  0  0  0  0  0  0  0  0  0  0
  -12.9709  -38.2284  -11.5185 C   0  0  0  0  0  0  0  0  0  0  0  0
  -11.8955  -37.2611  -11.9011 C   0  0  0  0  0  0  0  0  0  0  0  0
  -11.9715  -36.7605  -13.3103 C   0  0  0  0  0  0  0  0  0  0  0  0
  -10.8226  -37.1960  -14.1803 C   0  0  0  0  0  0  0  0  0  0  0  0
  -10.7930  -38.6753  -14.4386 C   0  0  0  0  0  0  0  0  0  0  0  0
  -11.4577  -39.0756  -15.7400 C   0  0  0  0  0  0  0  0  0  0  0  0
  -12.7719  -39.7342  -15.4994 C   0  0  0  0  0  0  0  0  0  0  0  0
  -12.7608  -40.9741  -14.8912 O   0  0  0  0  0  0  0  0  0  0  0  0
  -12.7889  -41.4205  -13.5765 C   0  0  0  0  0  0  0  0  0  0  0  0
  -13.8278  -41.4020  -12.6655 C   0  0  0  0  0  0  0  0  0  0  0  0
  -13.5646  -41.9179  -11.4183 C   0  0  0  0  0  0  0  0  0  0  0  0
  -12.2686  -42.4337  -11.1413 C   0  0  0  0  0  0  0  0  0  0  0  0
  -11.2460  -42.4455  -12.0602 C   0  0  0  0  0  0  0  0  0  0  0  0
   -9.6627  -43.0931  -11.6725 Cl  0  0  0  0  0  0  0  0  0  0  0  0
  -11.5474  -41.9382  -13.2406 N   0  0  0  0  0  0  0  0  0  0  0  0
  -14.4024  -42.0421  -10.2097 C   0  0  0  0  0  0  0  0  0  0  0  0
  -14.3223  -43.2163   -9.6281 O   0  0  0  0  0  0  0  0  0  0  0  0
  -15.2693  -41.0762   -9.5981 N   0  0  0  0  0  0  0  0  0  0  0  0
  -21.2294  -39.5046   -6.7320 C   0  0  0  0  0  0  0  0  0  0  0  0
  1  2  1  0
  2  3  1  0
  2  4  1  0
  4  5  2  0
  5  6  1  0
  6  7  2  0
  7  8  1  0
  8  9  1  0
  9 10  1  0
 10 11  1  0
 11 12  1  0
 12 13  1  1
 12 14  1  0
 14 15  1  6
 15 16  1  0
 16 17  1  6
 16 18  1  0
 18 19  1  0
 19 20  1  0
 20 21  1  0
 21 22  1  0
 22 23  1  0
 23 24  1  0
 24 25  1  0
 25 26  1  0
 26 27  2  0
 27 28  1  0
 28 29  2  0
 29 30  1  0
 30 31  1  0
 30 32  2  0
 28 33  1  0
 33 34  2  0
 33 35  1  0
  8 36  2  0
 32 26  1  0
 35 14  1  0
 36  4  1  0
M  END
$$$$
