
     RDKit          3D

 36 38  0  0  0  0  0  0  0  0999 V2000
  -23.8282  -38.8821   -4.4805 C   0  0  0  0  0  0  0  0  0  0  0  0
  -23.3558  -40.1190   -5.2402 C   0  0  0  0  0  0  0  0  0  0  0  0
  -22.7459  -41.0581   -4.2329 C   0  0  0  0  0  0  0  0  0  0  0  0
  -22.4037  -39.7289   -6.3112 C   0  0  0  0  0  0  0  0  0  0  0  0
  -22.6620  -40.0773   -7.5961 C   0  0  0  0  0  0  0  0  0  0  0  0
  -21.7892  -39.7233   -8.5982 C   0  0  0  0  0  0  0  0  0  0  0  0
  -20.6249  -39.0000   -8.3067 C   0  0  0  0  0  0  0  0  0  0  0  0
  -20.3646  -38.6489   -7.0123 C   0  0  0  0  0  0  0  0  0  0  0  0
  -19.1203  -37.8780   -6.7130 C   0  0  0  0  0  0  0  0  0  0  0  0
  -17.9668  -38.7169   -6.7225 N   0  0  0  0  0  0  0  0  0  0  0  0
  -17.0566  -38.6095   -7.8057 C   0  0  0  0  0  0  0  0  0  0  0  0
  -17.5129  -39.3349   -9.0140 C   0  0  1  0  0  0  0  0  0  0  0  0
  -17.0543  -38.6797  -10.1630 O   0  0  0  0  0  0  0  0  0  0  0  0
  -17.0771  -40.8078   -9.0590 C   0  0  2  0  0  0  0  0  0  0  0  0
  -18.1578  -41.5786   -9.7616 C   0  0  0  0  0  0  0  0  0  0  0  0
  -17.7634  -41.8559  -11.2230 C   0  0  2  0  0  0  0  0  0  0  0  0
  -18.7988  -41.4297  -12.1993 C   0  0  0  0  0  0  0  0  0  0  0  0
  -17.3608  -43.2816  -11.3149 C   0  0  0  0  0  0  0  0  0  0  0  0
  -17.2564  -43.8214  -12.7064 C   0  0  0  0  0  0  0  0  0  0  0  0
  -18.1526  -44.9847  -12.9991 C   0  0  0  0  0  0  0  0  0  0  0  0
  -17.4205  -46.2721  -13.2692 C   0  0  0  0  0  0  0  0  0  0  0  0
  -16.6910  -46.8100  -12.0715 C   0  0  0  0  0  0  0  0  0  0  0  0
  -17.4815  -47.8438  -11.2956 C   0  0  0  0  0  0  0  0  0  0  0  0
  -17.9873  -47.2888  -10.0093 C   0  0  0  0  0  0  0  0  0  0  0  0
  -17.0548  -46.9806   -9.0384 O   0  0  0  0  0  0  0  0  0  0  0  0
  -16.3026  -45.8562   -8.7245 C   0  0  0  0  0  0  0  0  0  0  0  0
  -16.7088  -44.6522   -8.1815 C   0  0  0  0  0  0  0  0  0  0  0  0
  -15.7319  -43.7062   -7.9770 C   0  0  0  0  0  0  0  0  0  0  0  0
  -14.3873  -44.0126   -8.3242 C   0  0  0  0  0  0  0  0  0  0  0  0
  -14.0000  -45.2168   -8.8628 C   0  0  0  0  0  0  0  0  0  0  0  0
  -12.3278  -45.5494   -9.2751 Cl  0  0  0  0  0  0  0  0  0  0  0  0
  -14.9732  -46.0898   -9.0414 N   0  0  0  0  0  0  0  0  0  0  0  0
  -15.7930  -42.3293   -7.4494 C   0  0  0  0  0  0  0  0  0  0  0  0
  -14.8565  -42.0568   -6.5706 O   0  0  0  0  0  0  0  0  0  0  0  0
  -16.7129  -41.2733   -7.7613 N   0  0  0  0  0  0  0  0  0  0  0  0
  -21.2453  -39.0102   -6.0273 C   0  0  0  0  0  0  0  0  0  0  0  0
  1  2  1  0
  2  3  1  0
  2  4  1  0
  4  5  2  0
  5  6  1  0
  6  7  2  0
  7  8  1  0
  8  9  1  0
  9 10  1  0
 10 11  1  0
 11 12  1  0
 12 13  1  6
 12 14  1  0
 14 15  1  1
 15 16  1  0
 16 17  1  6
 16 18  1  0
 18 19  1  0
 19 20  1  0
 20 21  1  0
 21 22  1  0
 22 23  1  0
 23 24  1  0
 24 25  1  0
 25 26  1  0
 26 27  2  0
 27 28  1  0
 28 29  2  0
 29 30  1  0
 30 31  1  0
 30 32  2  0
 28 33  1  0
 33 34  2  0
 33 35  1  0
  8 36  2  0
 32 26  1  0
 35 14  1  0
 36  4  1  0
M  END
$$$$
