
     RDKit          3D

 36 38  0  0  0  0  0  0  0  0999 V2000
  -11.7493  -35.1563  -14.1358 C   0  0  0  0  0  0  0  0  0  0  0  0
  -11.7081  -35.5342  -12.6575 C   0  0  0  0  0  0  0  0  0  0  0  0
  -10.2634  -35.7503  -12.2900 C   0  0  0  0  0  0  0  0  0  0  0  0
  -12.5483  -36.7340  -12.4126 C   0  0  0  0  0  0  0  0  0  0  0  0
  -13.2597  -37.2729  -13.4337 C   0  0  0  0  0  0  0  0  0  0  0  0
  -14.0424  -38.3837  -13.2216 C   0  0  0  0  0  0  0  0  0  0  0  0
  -14.1155  -38.9722  -11.9520 C   0  0  0  0  0  0  0  0  0  0  0  0
  -13.3988  -38.4294  -10.9232 C   0  0  0  0  0  0  0  0  0  0  0  0
  -13.4842  -39.0650   -9.5739 C   0  0  0  0  0  0  0  0  0  0  0  0
  -14.8087  -39.5082   -9.2842 N   0  0  0  0  0  0  0  0  0  0  0  0
  -15.8527  -38.5483   -9.2403 C   0  0  0  0  0  0  0  0  0  0  0  0
  -16.7111  -38.6870   -8.0410 C   0  0  1  0  0  0  0  0  0  0  0  0
  -17.5616  -37.5801   -7.9347 O   0  0  0  0  0  0  0  0  0  0  0  0
  -17.5472  -39.9761   -8.0180 C   0  0  2  0  0  0  0  0  0  0  0  0
  -18.2237  -40.0533   -6.6793 C   0  0  0  0  0  0  0  0  0  0  0  0
  -19.6917  -39.6043   -6.7871 C   0  0  2  0  0  0  0  0  0  0  0  0
  -20.0540  -38.5489   -5.8064 C   0  0  0  0  0  0  0  0  0  0  0  0
  -20.5370  -40.8235   -6.7404 C   0  0  0  0  0  0  0  0  0  0  0  0
  -21.9936  -40.5752   -6.5054 C   0  0  0  0  0  0  0  0  0  0  0  0
  -22.5532  -41.2267   -5.2788 C   0  0  0  0  0  0  0  0  0  0  0  0
  -23.5696  -42.3005   -5.5624 C   0  0  0  0  0  0  0  0  0  0  0  0
  -22.9933  -43.5059   -6.2485 C   0  0  0  0  0  0  0  0  0  0  0  0
  -22.6149  -44.6213   -5.2953 C   0  0  0  0  0  0  0  0  0  0  0  0
  -21.1371  -44.7269   -5.1409 C   0  0  0  0  0  0  0  0  0  0  0  0
  -20.4108  -45.1467   -6.2379 O   0  0  0  0  0  0  0  0  0  0  0  0
  -19.8144  -44.5115   -7.3192 C   0  0  0  0  0  0  0  0  0  0  0  0
  -18.6894  -43.7098   -7.3548 C   0  0  0  0  0  0  0  0  0  0  0  0
  -18.3264  -43.2095   -8.5832 C   0  0  0  0  0  0  0  0  0  0  0  0
  -19.1083  -43.5394   -9.7242 C   0  0  0  0  0  0  0  0  0  0  0  0
  -20.2248  -44.3399   -9.6713 C   0  0  0  0  0  0  0  0  0  0  0  0
  -21.1583  -44.7198  -11.1070 Cl  0  0  0  0  0  0  0  0  0  0  0  0
  -20.5329  -44.7934   -8.4710 N   0  0  0  0  0  0  0  0  0  0  0  0
  -17.2226  -42.3204   -8.9945 C   0  0  0  0  0  0  0  0  0  0  0  0
  -16.5919  -42.7233  -10.0731 O   0  0  0  0  0  0  0  0  0  0  0  0
  -16.7586  -41.1039   -8.3915 N   0  0  0  0  0  0  0  0  0  0  0  0
  -12.6247  -37.3230  -11.1532 C   0  0  0  0  0  0  0  0  0  0  0  0
  1  2  1  0
  2  3  1  0
  2  4  1  0
  4  5  2  0
  5  6  1  0
  6  7  2  0
  7  8  1  0
  8  9  1  0
  9 10  1  0
 10 11  1  0
 11 12  1  0
 12 13  1  6
 12 14  1  0
 14 15  1  1
 15 16  1  0
 16 17  1  1
 16 18  1  0
 18 19  1  0
 19 20  1  0
 20 21  1  0
 21 22  1  0
 22 23  1  0
 23 24  1  0
 24 25  1  0
 25 26  1  0
 26 27  2  0
 27 28  1  0
 28 29  2  0
 29 30  1  0
 30 31  1  0
 30 32  2  0
 28 33  1  0
 33 34  2  0
 33 35  1  0
  8 36  2  0
 32 26  1  0
 35 14  1  0
 36  4  1  0
M  END
$$$$
