
     RDKit          3D

 36 38  0  0  0  0  0  0  0  0999 V2000
  -11.2578  -39.2159  -14.4642 C   0  0  0  0  0  0  0  0  0  0  0  0
  -12.0496  -39.4120  -13.1740 C   0  0  0  0  0  0  0  0  0  0  0  0
  -12.9510  -40.6014  -13.3775 C   0  0  0  0  0  0  0  0  0  0  0  0
  -12.7993  -38.1740  -12.8408 C   0  0  0  0  0  0  0  0  0  0  0  0
  -13.1559  -37.3200  -13.8321 C   0  0  0  0  0  0  0  0  0  0  0  0
  -13.8500  -36.1695  -13.5384 C   0  0  0  0  0  0  0  0  0  0  0  0
  -14.1973  -35.8648  -12.2155 C   0  0  0  0  0  0  0  0  0  0  0  0
  -13.8380  -36.7250  -11.2167 C   0  0  0  0  0  0  0  0  0  0  0  0
  -14.2134  -36.3900   -9.8100 C   0  0  0  0  0  0  0  0  0  0  0  0
  -14.4187  -37.5642   -9.0266 N   0  0  0  0  0  0  0  0  0  0  0  0
  -15.5525  -38.3731   -9.2980 C   0  0  0  0  0  0  0  0  0  0  0  0
  -16.6073  -38.2495   -8.2653 C   0  0  1  0  0  0  0  0  0  0  0  0
  -17.4173  -37.1421   -8.5436 O   0  0  0  0  0  0  0  0  0  0  0  0
  -17.4873  -39.5008   -8.1196 C   0  0  2  0  0  0  0  0  0  0  0  0
  -18.1873  -39.4102   -6.7938 C   0  0  0  0  0  0  0  0  0  0  0  0
  -19.6371  -38.9284   -6.9780 C   0  0  2  0  0  0  0  0  0  0  0  0
  -19.9786  -37.7616   -6.1243 C   0  0  0  0  0  0  0  0  0  0  0  0
  -20.5243  -40.1074   -6.8165 C   0  0  0  0  0  0  0  0  0  0  0  0
  -21.9751  -39.7881   -6.6381 C   0  0  0  0  0  0  0  0  0  0  0  0
  -22.5761  -40.2842   -5.3595 C   0  0  0  0  0  0  0  0  0  0  0  0
  -23.6241  -41.3490   -5.5453 C   0  0  0  0  0  0  0  0  0  0  0  0
  -23.0785  -42.6397   -6.0858 C   0  0  0  0  0  0  0  0  0  0  0  0
  -22.7537  -43.6567   -5.0106 C   0  0  0  0  0  0  0  0  0  0  0  0
  -21.2831  -43.7926   -4.8169 C   0  0  0  0  0  0  0  0  0  0  0  0
  -20.5542  -44.3523   -5.8478 O   0  0  0  0  0  0  0  0  0  0  0  0
  -19.9193  -43.8579   -6.9796 C   0  0  0  0  0  0  0  0  0  0  0  0
  -18.7671  -43.1015   -7.0795 C   0  0  0  0  0  0  0  0  0  0  0  0
  -18.3677  -42.7495   -8.3475 C   0  0  0  0  0  0  0  0  0  0  0  0
  -19.1422  -43.1758   -9.4613 C   0  0  0  0  0  0  0  0  0  0  0  0
  -20.2862  -43.9294   -9.3440 C   0  0  0  0  0  0  0  0  0  0  0  0
  -21.2092  -44.4326  -10.7482 Cl  0  0  0  0  0  0  0  0  0  0  0  0
  -20.6287  -44.2397   -8.1080 N   0  0  0  0  0  0  0  0  0  0  0  0
  -17.2277  -41.9464   -8.8307 C   0  0  0  0  0  0  0  0  0  0  0  0
  -16.5942  -42.4842   -9.8471 O   0  0  0  0  0  0  0  0  0  0  0  0
  -16.7320  -40.6874   -8.3537 N   0  0  0  0  0  0  0  0  0  0  0  0
  -13.1470  -37.8660  -11.5281 C   0  0  0  0  0  0  0  0  0  0  0  0
  1  2  1  0
  2  3  1  0
  2  4  1  0
  4  5  2  0
  5  6  1  0
  6  7  2  0
  7  8  1  0
  8  9  1  0
  9 10  1  0
 10 11  1  0
 11 12  1  0
 12 13  1  6
 12 14  1  0
 14 15  1  1
 15 16  1  0
 16 17  1  1
 16 18  1  0
 18 19  1  0
 19 20  1  0
 20 21  1  0
 21 22  1  0
 22 23  1  0
 23 24  1  0
 24 25  1  0
 25 26  1  0
 26 27  2  0
 27 28  1  0
 28 29  2  0
 29 30  1  0
 30 31  1  0
 30 32  2  0
 28 33  1  0
 33 34  2  0
 33 35  1  0
  8 36  2  0
 32 26  1  0
 35 14  1  0
 36  4  1  0
M  END
$$$$
