
     RDKit          3D

 36 38  0  0  0  0  0  0  0  0999 V2000
  -11.5091  -34.0086  -10.8001 C   0  0  0  0  0  0  0  0  0  0  0  0
  -12.6871  -34.2631  -11.7368 C   0  0  0  0  0  0  0  0  0  0  0  0
  -13.8797  -33.5441  -11.1630 C   0  0  0  0  0  0  0  0  0  0  0  0
  -12.9147  -35.7229  -11.8875 C   0  0  0  0  0  0  0  0  0  0  0  0
  -13.2720  -36.2235  -13.0961 C   0  0  0  0  0  0  0  0  0  0  0  0
  -13.4865  -37.5732  -13.2504 C   0  0  0  0  0  0  0  0  0  0  0  0
  -13.3394  -38.4469  -12.1648 C   0  0  0  0  0  0  0  0  0  0  0  0
  -12.9794  -37.9427  -10.9471 C   0  0  0  0  0  0  0  0  0  0  0  0
  -12.8255  -38.8833   -9.7967 C   0  0  0  0  0  0  0  0  0  0  0  0
  -13.8671  -38.7151   -8.8368 N   0  0  0  0  0  0  0  0  0  0  0  0
  -15.1524  -39.2404   -9.1289 C   0  0  0  0  0  0  0  0  0  0  0  0
  -16.0416  -39.2760   -7.9446 C   0  0  1  0  0  0  0  0  0  0  0  0
  -16.5714  -38.0016   -7.7098 O   0  0  0  0  0  0  0  0  0  0  0  0
  -17.1889  -40.2921   -8.0562 C   0  0  2  0  0  0  0  0  0  0  0  0
  -17.8664  -40.3592   -6.7174 C   0  0  0  0  0  0  0  0  0  0  0  0
  -19.1630  -39.5304   -6.7240 C   0  0  2  0  0  0  0  0  0  0  0  0
  -19.2368  -38.5510   -5.6094 C   0  0  0  0  0  0  0  0  0  0  0  0
  -20.3007  -40.4804   -6.8032 C   0  0  0  0  0  0  0  0  0  0  0  0
  -21.6406  -39.8903   -6.4949 C   0  0  0  0  0  0  0  0  0  0  0  0
  -22.3569  -40.5230   -5.3421 C   0  0  0  0  0  0  0  0  0  0  0  0
  -23.6200  -41.2467   -5.7256 C   0  0  0  0  0  0  0  0  0  0  0  0
  -23.3805  -42.4634   -6.5731 C   0  0  0  0  0  0  0  0  0  0  0  0
  -23.3138  -43.7512   -5.7776 C   0  0  0  0  0  0  0  0  0  0  0  0
  -21.9171  -44.2601   -5.6826 C   0  0  0  0  0  0  0  0  0  0  0  0
  -21.3239  -44.7124   -6.8448 O   0  0  0  0  0  0  0  0  0  0  0  0
  -20.5770  -44.1235   -7.8566 C   0  0  0  0  0  0  0  0  0  0  0  0
  -19.2800  -43.6477   -7.8268 C   0  0  0  0  0  0  0  0  0  0  0  0
  -18.7933  -43.1077   -8.9941 C   0  0  0  0  0  0  0  0  0  0  0  0
  -19.6307  -43.0721  -10.1429 C   0  0  0  0  0  0  0  0  0  0  0  0
  -20.9193  -43.5513  -10.1557 C   0  0  0  0  0  0  0  0  0  0  0  0
  -21.9151  -43.4861  -11.5983 Cl  0  0  0  0  0  0  0  0  0  0  0  0
  -21.3405  -44.0573   -9.0121 N   0  0  0  0  0  0  0  0  0  0  0  0
  -17.4923  -42.4948   -9.3254 C   0  0  0  0  0  0  0  0  0  0  0  0
  -16.9869  -42.9081  -10.4644 O   0  0  0  0  0  0  0  0  0  0  0  0
  -16.7253  -41.5303   -8.5906 N   0  0  0  0  0  0  0  0  0  0  0  0
  -12.7699  -36.5958  -10.8123 C   0  0  0  0  0  0  0  0  0  0  0  0
  1  2  1  0
  2  3  1  0
  2  4  1  0
  4  5  2  0
  5  6  1  0
  6  7  2  0
  7  8  1  0
  8  9  1  0
  9 10  1  0
 10 11  1  0
 11 12  1  0
 12 13  1  6
 12 14  1  0
 14 15  1  1
 15 16  1  0
 16 17  1  1
 16 18  1  0
 18 19  1  0
 19 20  1  0
 20 21  1  0
 21 22  1  0
 22 23  1  0
 23 24  1  0
 24 25  1  0
 25 26  1  0
 26 27  2  0
 27 28  1  0
 28 29  2  0
 29 30  1  0
 30 31  1  0
 30 32  2  0
 28 33  1  0
 33 34  2  0
 33 35  1  0
  8 36  2  0
 32 26  1  0
 35 14  1  0
 36  4  1  0
M  END
$$$$
