
     RDKit          3D

 36 38  0  0  0  0  0  0  0  0999 V2000
  -14.5248  -35.0443  -13.4568 C   0  0  0  0  0  0  0  0  0  0  0  0
  -13.3528  -35.4500  -12.5669 C   0  0  0  0  0  0  0  0  0  0  0  0
  -12.1083  -34.8433  -13.1601 C   0  0  0  0  0  0  0  0  0  0  0  0
  -13.2770  -36.9296  -12.4638 C   0  0  0  0  0  0  0  0  0  0  0  0
  -13.6266  -37.6937  -13.5283 C   0  0  0  0  0  0  0  0  0  0  0  0
  -13.5618  -39.0651  -13.4472 C   0  0  0  0  0  0  0  0  0  0  0  0
  -13.1351  -39.6899  -12.2678 C   0  0  0  0  0  0  0  0  0  0  0  0
  -12.7828  -38.9202  -11.1953 C   0  0  0  0  0  0  0  0  0  0  0  0
  -12.3294  -39.5970   -9.9430 C   0  0  0  0  0  0  0  0  0  0  0  0
  -13.2285  -39.3591   -8.8615 N   0  0  0  0  0  0  0  0  0  0  0  0
  -14.4284  -40.1136   -8.7962 C   0  0  0  0  0  0  0  0  0  0  0  0
  -15.4759  -39.4580   -7.9792 C   0  0  1  0  0  0  0  0  0  0  0  0
  -15.9053  -38.2843   -8.6100 O   0  0  0  0  0  0  0  0  0  0  0  0
  -16.6903  -40.3531   -7.6869 C   0  0  2  0  0  0  0  0  0  0  0  0
  -17.5204  -39.6632   -6.6424 C   0  0  0  0  0  0  0  0  0  0  0  0
  -18.7270  -38.9586   -7.2872 C   0  0  2  0  0  0  0  0  0  0  0  0
  -18.8390  -37.5265   -6.9085 C   0  0  0  0  0  0  0  0  0  0  0  0
  -19.9296  -39.7807   -7.0027 C   0  0  0  0  0  0  0  0  0  0  0  0
  -21.2369  -39.1014   -7.2639 C   0  0  0  0  0  0  0  0  0  0  0  0
  -22.1354  -38.9856   -6.0716 C   0  0  0  0  0  0  0  0  0  0  0  0
  -23.4066  -39.7848   -6.1798 C   0  0  0  0  0  0  0  0  0  0  0  0
  -23.1828  -41.2700   -6.1847 C   0  0  0  0  0  0  0  0  0  0  0  0
  -23.3252  -41.9077   -4.8176 C   0  0  0  0  0  0  0  0  0  0  0  0
  -22.0008  -42.2979   -4.2588 C   0  0  0  0  0  0  0  0  0  0  0  0
  -21.3215  -43.3229   -4.8875 O   0  0  0  0  0  0  0  0  0  0  0  0
  -20.4129  -43.3980   -5.9350 C   0  0  0  0  0  0  0  0  0  0  0  0
  -19.0900  -43.0008   -5.9795 C   0  0  0  0  0  0  0  0  0  0  0  0
  -18.4255  -43.1991   -7.1669 C   0  0  0  0  0  0  0  0  0  0  0  0
  -19.1186  -43.7914   -8.2583 C   0  0  0  0  0  0  0  0  0  0  0  0
  -20.4354  -44.1819   -8.1966 C   0  0  0  0  0  0  0  0  0  0  0  0
  -21.2487  -44.9093   -9.5701 Cl  0  0  0  0  0  0  0  0  0  0  0  0
  -21.0294  -43.9692   -7.0377 N   0  0  0  0  0  0  0  0  0  0  0  0
  -17.0448  -42.8865   -7.5839 C   0  0  0  0  0  0  0  0  0  0  0  0
  -16.4515  -43.8650   -8.2274 O   0  0  0  0  0  0  0  0  0  0  0  0
  -16.2828  -41.6866   -7.3884 N   0  0  0  0  0  0  0  0  0  0  0  0
  -12.8536  -37.5559  -11.2944 C   0  0  0  0  0  0  0  0  0  0  0  0
  1  2  1  0
  2  3  1  0
  2  4  1  0
  4  5  2  0
  5  6  1  0
  6  7  2  0
  7  8  1  0
  8  9  1  0
  9 10  1  0
 10 11  1  0
 11 12  1  0
 12 13  1  6
 12 14  1  0
 14 15  1  1
 15 16  1  0
 16 17  1  1
 16 18  1  0
 18 19  1  0
 19 20  1  0
 20 21  1  0
 21 22  1  0
 22 23  1  0
 23 24  1  0
 24 25  1  0
 25 26  1  0
 26 27  2  0
 27 28  1  0
 28 29  2  0
 29 30  1  0
 30 31  1  0
 30 32  2  0
 28 33  1  0
 33 34  2  0
 33 35  1  0
  8 36  2  0
 32 26  1  0
 35 14  1  0
 36  4  1  0
M  END
$$$$
