
     RDKit          3D

 36 38  0  0  0  0  0  0  0  0999 V2000
  -18.6563  -35.1136  -14.4649 C   0  0  0  0  0  0  0  0  0  0  0  0
  -18.4623  -36.5197  -13.9035 C   0  0  0  0  0  0  0  0  0  0  0  0
  -19.5625  -37.3822  -14.4643 C   0  0  0  0  0  0  0  0  0  0  0  0
  -18.4626  -36.4823  -12.4188 C   0  0  0  0  0  0  0  0  0  0  0  0
  -19.6319  -36.3112  -11.7537 C   0  0  0  0  0  0  0  0  0  0  0  0
  -19.6474  -36.2741  -10.3789 C   0  0  0  0  0  0  0  0  0  0  0  0
  -18.4594  -36.4122   -9.6488 C   0  0  0  0  0  0  0  0  0  0  0  0
  -17.2812  -36.5846  -10.3188 C   0  0  0  0  0  0  0  0  0  0  0  0
  -16.0207  -36.7307   -9.5304 C   0  0  0  0  0  0  0  0  0  0  0  0
  -15.7476  -38.0966   -9.2234 N   0  0  0  0  0  0  0  0  0  0  0  0
  -16.3090  -38.6544   -8.0457 C   0  0  0  0  0  0  0  0  0  0  0  0
  -16.1134  -40.1199   -7.9540 C   0  0  1  0  0  0  0  0  0  0  0  0
  -15.0634  -40.4048   -7.0729 O   0  0  0  0  0  0  0  0  0  0  0  0
  -17.3688  -40.8907   -7.5168 C   0  0  2  0  0  0  0  0  0  0  0  0
  -17.7236  -41.8429   -8.6229 C   0  0  0  0  0  0  0  0  0  0  0  0
  -17.2468  -43.2668   -8.2861 C   0  0  2  0  0  0  0  0  0  0  0  0
  -16.4219  -43.8768   -9.3605 C   0  0  0  0  0  0  0  0  0  0  0  0
  -18.4389  -44.0544   -7.8841 C   0  0  0  0  0  0  0  0  0  0  0  0
  -18.2315  -45.5353   -7.8338 C   0  0  0  0  0  0  0  0  0  0  0  0
  -19.1246  -46.3270   -8.7383 C   0  0  0  0  0  0  0  0  0  0  0  0
  -20.1022  -47.2139   -8.0144 C   0  0  0  0  0  0  0  0  0  0  0  0
  -21.1389  -46.4547   -7.2367 C   0  0  0  0  0  0  0  0  0  0  0  0
  -22.4362  -46.2541   -7.9933 C   0  0  0  0  0  0  0  0  0  0  0  0
  -22.5877  -44.8441   -8.4490 C   0  0  0  0  0  0  0  0  0  0  0  0
  -22.7706  -43.8779   -7.4793 O   0  0  0  0  0  0  0  0  0  0  0  0
  -21.9250  -43.0819   -6.7179 C   0  0  0  0  0  0  0  0  0  0  0  0
  -21.1459  -42.0082   -7.1051 C   0  0  0  0  0  0  0  0  0  0  0  0
  -20.3981  -41.4020   -6.1230 C   0  0  0  0  0  0  0  0  0  0  0  0
  -20.4682  -41.8993   -4.7926 C   0  0  0  0  0  0  0  0  0  0  0  0
  -21.2499  -42.9686   -4.4241 C   0  0  0  0  0  0  0  0  0  0  0  0
  -21.3042  -43.5466   -2.7688 Cl  0  0  0  0  0  0  0  0  0  0  0  0
  -21.9465  -43.5168   -5.4016 N   0  0  0  0  0  0  0  0  0  0  0  0
  -19.4531  -40.2693   -6.1663 C   0  0  0  0  0  0  0  0  0  0  0  0
  -19.6224  -39.4010   -5.1963 O   0  0  0  0  0  0  0  0  0  0  0  0
  -18.3987  -39.9967   -7.1004 N   0  0  0  0  0  0  0  0  0  0  0  0
  -17.2851  -36.6190  -11.6882 C   0  0  0  0  0  0  0  0  0  0  0  0
  1  2  1  0
  2  3  1  0
  2  4  1  0
  4  5  2  0
  5  6  1  0
  6  7  2  0
  7  8  1  0
  8  9  1  0
  9 10  1  0
 10 11  1  0
 11 12  1  0
 12 13  1  1
 12 14  1  0
 14 15  1  6
 15 16  1  0
 16 17  1  6
 16 18  1  0
 18 19  1  0
 19 20  1  0
 20 21  1  0
 21 22  1  0
 22 23  1  0
 23 24  1  0
 24 25  1  0
 25 26  1  0
 26 27  2  0
 27 28  1  0
 28 29  2  0
 29 30  1  0
 30 31  1  0
 30 32  2  0
 28 33  1  0
 33 34  2  0
 33 35  1  0
  8 36  2  0
 32 26  1  0
 35 14  1  0
 36  4  1  0
M  END
$$$$
