
     RDKit          3D

 36 38  0  0  0  0  0  0  0  0999 V2000
  -23.1151  -36.2728  -10.0863 C   0  0  0  0  0  0  0  0  0  0  0  0
  -21.6079  -36.2224   -9.8499 C   0  0  0  0  0  0  0  0  0  0  0  0
  -20.9465  -36.0994  -11.1976 C   0  0  0  0  0  0  0  0  0  0  0  0
  -21.1669  -37.4272   -9.1019 C   0  0  0  0  0  0  0  0  0  0  0  0
  -21.2460  -38.6466   -9.6900 C   0  0  0  0  0  0  0  0  0  0  0  0
  -20.8417  -39.7711   -9.0093 C   0  0  0  0  0  0  0  0  0  0  0  0
  -20.3439  -39.6730   -7.7031 C   0  0  0  0  0  0  0  0  0  0  0  0
  -20.2641  -38.4446   -7.1104 C   0  0  0  0  0  0  0  0  0  0  0  0
  -19.7319  -38.3518   -5.7175 C   0  0  0  0  0  0  0  0  0  0  0  0
  -18.3715  -37.9232   -5.7018 N   0  0  0  0  0  0  0  0  0  0  0  0
  -17.3544  -38.8792   -5.9564 C   0  0  0  0  0  0  0  0  0  0  0  0
  -17.2831  -39.2769   -7.3816 C   0  0  1  0  0  0  0  0  0  0  0  0
  -16.0518  -38.8879   -7.9225 O   0  0  0  0  0  0  0  0  0  0  0  0
  -17.4927  -40.7803   -7.6209 C   0  0  2  0  0  0  0  0  0  0  0  0
  -17.7220  -40.9770   -9.0922 C   0  0  0  0  0  0  0  0  0  0  0  0
  -16.4385  -41.4764   -9.7789 C   0  0  2  0  0  0  0  0  0  0  0  0
  -16.0462  -40.6556  -10.9533 C   0  0  0  0  0  0  0  0  0  0  0  0
  -16.6125  -42.9247  -10.0531 C   0  0  0  0  0  0  0  0  0  0  0  0
  -15.6153  -43.5137  -11.0005 C   0  0  0  0  0  0  0  0  0  0  0  0
  -16.2039  -44.1238  -12.2348 C   0  0  0  0  0  0  0  0  0  0  0  0
  -16.0240  -45.6155  -12.3290 C   0  0  0  0  0  0  0  0  0  0  0  0
  -16.7843  -46.3787  -11.2824 C   0  0  0  0  0  0  0  0  0  0  0  0
  -18.1347  -46.8753  -11.7574 C   0  0  0  0  0  0  0  0  0  0  0  0
  -19.2464  -46.0872  -11.1560 C   0  0  0  0  0  0  0  0  0  0  0  0
  -19.4539  -46.2139   -9.7965 O   0  0  0  0  0  0  0  0  0  0  0  0
  -18.9677  -45.5686   -8.6671 C   0  0  0  0  0  0  0  0  0  0  0  0
  -19.2274  -44.2922   -8.2056 C   0  0  0  0  0  0  0  0  0  0  0  0
  -18.5961  -43.9156   -7.0434 C   0  0  0  0  0  0  0  0  0  0  0  0
  -17.7329  -44.8397   -6.3929 C   0  0  0  0  0  0  0  0  0  0  0  0
  -17.4863  -46.1071   -6.8655 C   0  0  0  0  0  0  0  0  0  0  0  0
  -16.4131  -47.2131   -6.0277 Cl  0  0  0  0  0  0  0  0  0  0  0  0
  -18.1134  -46.4202   -7.9835 N   0  0  0  0  0  0  0  0  0  0  0  0
  -18.6135  -42.6520   -6.2812 C   0  0  0  0  0  0  0  0  0  0  0  0
  -18.7566  -42.8163   -4.9866 O   0  0  0  0  0  0  0  0  0  0  0  0
  -18.4956  -41.3016   -6.7516 N   0  0  0  0  0  0  0  0  0  0  0  0
  -20.6714  -37.3357   -7.8038 C   0  0  0  0  0  0  0  0  0  0  0  0
  1  2  1  0
  2  3  1  0
  2  4  1  0
  4  5  2  0
  5  6  1  0
  6  7  2  0
  7  8  1  0
  8  9  1  0
  9 10  1  0
 10 11  1  0
 11 12  1  0
 12 13  1  1
 12 14  1  0
 14 15  1  6
 15 16  1  0
 16 17  1  6
 16 18  1  0
 18 19  1  0
 19 20  1  0
 20 21  1  0
 21 22  1  0
 22 23  1  0
 23 24  1  0
 24 25  1  0
 25 26  1  0
 26 27  2  0
 27 28  1  0
 28 29  2  0
 29 30  1  0
 30 31  1  0
 30 32  2  0
 28 33  1  0
 33 34  2  0
 33 35  1  0
  8 36  2  0
 32 26  1  0
 35 14  1  0
 36  4  1  0
M  END
$$$$
