
     RDKit          3D

 36 38  0  0  0  0  0  0  0  0999 V2000
  -15.8012  -36.0914  -13.6377 C   0  0  0  0  0  0  0  0  0  0  0  0
  -16.0700  -37.5919  -13.5573 C   0  0  0  0  0  0  0  0  0  0  0  0
  -17.4632  -37.7692  -13.0130 C   0  0  0  0  0  0  0  0  0  0  0  0
  -15.0377  -38.2522  -12.7185 C   0  0  0  0  0  0  0  0  0  0  0  0
  -14.5500  -39.4630  -13.0865 C   0  0  0  0  0  0  0  0  0  0  0  0
  -13.5940  -40.0866  -12.3192 C   0  0  0  0  0  0  0  0  0  0  0  0
  -13.1121  -39.4818  -11.1506 C   0  0  0  0  0  0  0  0  0  0  0  0
  -13.6033  -38.2621  -10.7797 C   0  0  0  0  0  0  0  0  0  0  0  0
  -13.0825  -37.6266   -9.5319 C   0  0  0  0  0  0  0  0  0  0  0  0
  -13.7494  -38.1211   -8.3721 N   0  0  0  0  0  0  0  0  0  0  0  0
  -15.0477  -38.6746   -8.5182 C   0  0  0  0  0  0  0  0  0  0  0  0
  -15.6510  -39.0744   -7.2256 C   0  0  1  0  0  0  0  0  0  0  0  0
  -15.9955  -37.9347   -6.4894 O   0  0  0  0  0  0  0  0  0  0  0  0
  -16.8830  -39.9819   -7.3665 C   0  0  2  0  0  0  0  0  0  0  0  0
  -17.6633  -39.8879   -6.0866 C   0  0  0  0  0  0  0  0  0  0  0  0
  -18.8656  -38.9418   -6.2529 C   0  0  2  0  0  0  0  0  0  0  0  0
  -18.9245  -37.8826   -5.2129 C   0  0  0  0  0  0  0  0  0  0  0  0
  -20.0840  -39.7821   -6.3649 C   0  0  0  0  0  0  0  0  0  0  0  0
  -21.3771  -39.0463   -6.2065 C   0  0  0  0  0  0  0  0  0  0  0  0
  -22.2387  -39.5236   -5.0787 C   0  0  0  0  0  0  0  0  0  0  0  0
  -23.5357  -40.1491   -5.5181 C   0  0  0  0  0  0  0  0  0  0  0  0
  -23.3565  -41.4406   -6.2636 C   0  0  0  0  0  0  0  0  0  0  0  0
  -23.4805  -42.6686   -5.3848 C   0  0  0  0  0  0  0  0  0  0  0  0
  -22.1535  -43.3004   -5.1426 C   0  0  0  0  0  0  0  0  0  0  0  0
  -21.5224  -43.8892   -6.2208 O   0  0  0  0  0  0  0  0  0  0  0  0
  -20.6454  -43.4483   -7.2030 C   0  0  0  0  0  0  0  0  0  0  0  0
  -19.3130  -43.0975   -7.0967 C   0  0  0  0  0  0  0  0  0  0  0  0
  -18.6874  -42.6914   -8.2520 C   0  0  0  0  0  0  0  0  0  0  0  0
  -19.4274  -42.6584   -9.4658 C   0  0  0  0  0  0  0  0  0  0  0  0
  -20.7531  -43.0121   -9.5543 C   0  0  0  0  0  0  0  0  0  0  0  0
  -21.6249  -42.9556  -11.0753 Cl  0  0  0  0  0  0  0  0  0  0  0  0
  -21.3086  -43.3924   -8.4194 N   0  0  0  0  0  0  0  0  0  0  0  0
  -17.3099  -42.2307   -8.5132 C   0  0  0  0  0  0  0  0  0  0  0  0
  -16.7638  -42.7708   -9.5779 O   0  0  0  0  0  0  0  0  0  0  0  0
  -16.5074  -41.2937   -7.7807 N   0  0  0  0  0  0  0  0  0  0  0  0
  -14.5552  -37.6560  -11.5563 C   0  0  0  0  0  0  0  0  0  0  0  0
  1  2  1  0
  2  3  1  0
  2  4  1  0
  4  5  2  0
  5  6  1  0
  6  7  2  0
  7  8  1  0
  8  9  1  0
  9 10  1  0
 10 11  1  0
 11 12  1  0
 12 13  1  6
 12 14  1  0
 14 15  1  1
 15 16  1  0
 16 17  1  1
 16 18  1  0
 18 19  1  0
 19 20  1  0
 20 21  1  0
 21 22  1  0
 22 23  1  0
 23 24  1  0
 24 25  1  0
 25 26  1  0
 26 27  2  0
 27 28  1  0
 28 29  2  0
 29 30  1  0
 30 31  1  0
 30 32  2  0
 28 33  1  0
 33 34  2  0
 33 35  1  0
  8 36  2  0
 32 26  1  0
 35 14  1  0
 36  4  1  0
M  END
$$$$
