
     RDKit          3D

 36 38  0  0  0  0  0  0  0  0999 V2000
  -12.5163  -32.8628  -11.5672 C   0  0  0  0  0  0  0  0  0  0  0  0
  -13.9894  -32.7896  -11.1739 C   0  0  0  0  0  0  0  0  0  0  0  0
  -14.0519  -32.2549   -9.7672 C   0  0  0  0  0  0  0  0  0  0  0  0
  -14.6217  -34.1266  -11.3084 C   0  0  0  0  0  0  0  0  0  0  0  0
  -14.4287  -34.8477  -12.4406 C   0  0  0  0  0  0  0  0  0  0  0  0
  -15.0084  -36.0872  -12.5792 C   0  0  0  0  0  0  0  0  0  0  0  0
  -15.8037  -36.6205  -11.5562 C   0  0  0  0  0  0  0  0  0  0  0  0
  -15.9983  -35.8941  -10.4155 C   0  0  0  0  0  0  0  0  0  0  0  0
  -16.8481  -36.4724   -9.3314 C   0  0  0  0  0  0  0  0  0  0  0  0
  -16.6390  -37.8764   -9.1916 N   0  0  0  0  0  0  0  0  0  0  0  0
  -16.1811  -38.3750   -7.9446 C   0  0  0  0  0  0  0  0  0  0  0  0
  -16.3755  -39.8368   -7.8035 C   0  0  1  0  0  0  0  0  0  0  0  0
  -15.5346  -40.3333   -6.8004 O   0  0  0  0  0  0  0  0  0  0  0  0
  -17.8255  -40.2470   -7.5024 C   0  0  2  0  0  0  0  0  0  0  0  0
  -18.1725  -41.3874   -8.4162 C   0  0  0  0  0  0  0  0  0  0  0  0
  -18.0830  -42.7287   -7.6671 C   0  0  2  0  0  0  0  0  0  0  0  0
  -17.2297  -43.7290   -8.3587 C   0  0  0  0  0  0  0  0  0  0  0  0
  -19.4695  -43.1747   -7.3811 C   0  0  0  0  0  0  0  0  0  0  0  0
  -19.5994  -44.6022   -6.9520 C   0  0  0  0  0  0  0  0  0  0  0  0
  -20.4645  -45.4483   -7.8340 C   0  0  0  0  0  0  0  0  0  0  0  0
  -21.7246  -45.9382   -7.1717 C   0  0  0  0  0  0  0  0  0  0  0  0
  -22.6955  -44.8403   -6.8431 C   0  0  0  0  0  0  0  0  0  0  0  0
  -23.7610  -44.6382   -7.9012 C   0  0  0  0  0  0  0  0  0  0  0  0
  -23.5198  -43.3950   -8.6854 C   0  0  0  0  0  0  0  0  0  0  0  0
  -23.6612  -42.1894   -8.0269 O   0  0  0  0  0  0  0  0  0  0  0  0
  -22.8149  -41.3694   -7.2922 C   0  0  0  0  0  0  0  0  0  0  0  0
  -21.7657  -40.5800   -7.7231 C   0  0  0  0  0  0  0  0  0  0  0  0
  -21.0939  -39.8657   -6.7589 C   0  0  0  0  0  0  0  0  0  0  0  0
  -21.5080  -39.9731   -5.4027 C   0  0  0  0  0  0  0  0  0  0  0  0
  -22.5555  -40.7628   -4.9911 C   0  0  0  0  0  0  0  0  0  0  0  0
  -23.0303  -40.8630   -3.3055 Cl  0  0  0  0  0  0  0  0  0  0  0  0
  -23.1664  -41.4292   -5.9523 N   0  0  0  0  0  0  0  0  0  0  0  0
  -19.9346  -38.9561   -6.8396 C   0  0  0  0  0  0  0  0  0  0  0  0
  -20.0842  -37.8456   -6.1554 O   0  0  0  0  0  0  0  0  0  0  0  0
  -18.6957  -39.1182   -7.5449 N   0  0  0  0  0  0  0  0  0  0  0  0
  -15.4130  -34.6615  -10.2951 C   0  0  0  0  0  0  0  0  0  0  0  0
  1  2  1  0
  2  3  1  0
  2  4  1  0
  4  5  2  0
  5  6  1  0
  6  7  2  0
  7  8  1  0
  8  9  1  0
  9 10  1  0
 10 11  1  0
 11 12  1  0
 12 13  1  1
 12 14  1  0
 14 15  1  6
 15 16  1  0
 16 17  1  6
 16 18  1  0
 18 19  1  0
 19 20  1  0
 20 21  1  0
 21 22  1  0
 22 23  1  0
 23 24  1  0
 24 25  1  0
 25 26  1  0
 26 27  2  0
 27 28  1  0
 28 29  2  0
 29 30  1  0
 30 31  1  0
 30 32  2  0
 28 33  1  0
 33 34  2  0
 33 35  1  0
  8 36  2  0
 32 26  1  0
 35 14  1  0
 36  4  1  0
M  END
$$$$
