
     RDKit          3D

 36 38  0  0  0  0  0  0  0  0999 V2000
  -13.8647  -35.1805  -12.4945 C   0  0  0  0  0  0  0  0  0  0  0  0
  -12.8220  -36.1401  -13.0619 C   0  0  0  0  0  0  0  0  0  0  0  0
  -12.7400  -35.8876  -14.5446 C   0  0  0  0  0  0  0  0  0  0  0  0
  -13.1876  -37.5426  -12.7379 C   0  0  0  0  0  0  0  0  0  0  0  0
  -13.6934  -38.3439  -13.7082 C   0  0  0  0  0  0  0  0  0  0  0  0
  -14.0368  -39.6446  -13.4226 C   0  0  0  0  0  0  0  0  0  0  0  0
  -13.8694  -40.1585  -12.1297 C   0  0  0  0  0  0  0  0  0  0  0  0
  -13.3599  -39.3514  -11.1521 C   0  0  0  0  0  0  0  0  0  0  0  0
  -13.1859  -39.9096   -9.7774 C   0  0  0  0  0  0  0  0  0  0  0  0
  -13.8103  -39.0876   -8.7930 N   0  0  0  0  0  0  0  0  0  0  0  0
  -15.2137  -38.8905   -8.8625 C   0  0  0  0  0  0  0  0  0  0  0  0
  -15.8675  -38.9395   -7.5340 C   0  0  1  0  0  0  0  0  0  0  0  0
  -16.3916  -37.6810   -7.2156 O   0  0  0  0  0  0  0  0  0  0  0  0
  -16.9775  -39.9965   -7.4238 C   0  0  2  0  0  0  0  0  0  0  0  0
  -17.6996  -39.7614   -6.1279 C   0  0  0  0  0  0  0  0  0  0  0  0
  -19.0207  -39.0109   -6.3720 C   0  0  2  0  0  0  0  0  0  0  0  0
  -19.1648  -37.7928   -5.5338 C   0  0  0  0  0  0  0  0  0  0  0  0
  -20.1243  -39.9954   -6.2463 C   0  0  0  0  0  0  0  0  0  0  0  0
  -21.4923  -39.4010   -6.1279 C   0  0  0  0  0  0  0  0  0  0  0  0
  -22.2286  -39.7609   -4.8747 C   0  0  0  0  0  0  0  0  0  0  0  0
  -23.4539  -40.6055   -5.1027 C   0  0  0  0  0  0  0  0  0  0  0  0
  -23.1462  -41.9818   -5.6194 C   0  0  0  0  0  0  0  0  0  0  0  0
  -23.0672  -43.0329   -4.5310 C   0  0  0  0  0  0  0  0  0  0  0  0
  -21.6594  -43.4480   -4.2769 C   0  0  0  0  0  0  0  0  0  0  0  0
  -21.0113  -44.1465   -5.2766 O   0  0  0  0  0  0  0  0  0  0  0  0
  -20.2479  -43.7934   -6.3816 C   0  0  0  0  0  0  0  0  0  0  0  0
  -18.9684  -43.2741   -6.4347 C   0  0  0  0  0  0  0  0  0  0  0  0
  -18.4580  -43.0166   -7.6853 C   0  0  0  0  0  0  0  0  0  0  0  0
  -19.2548  -43.2953   -8.8298 C   0  0  0  0  0  0  0  0  0  0  0  0
  -20.5264  -43.8133   -8.7591 C   0  0  0  0  0  0  0  0  0  0  0  0
  -21.4719  -44.1413  -10.1997 Cl  0  0  0  0  0  0  0  0  0  0  0  0
  -20.9717  -44.0412   -7.5380 N   0  0  0  0  0  0  0  0  0  0  0  0
  -17.1660  -42.4524   -8.1219 C   0  0  0  0  0  0  0  0  0  0  0  0
  -16.6077  -43.1109   -9.1110 O   0  0  0  0  0  0  0  0  0  0  0  0
  -16.4564  -41.3084   -7.6258 N   0  0  0  0  0  0  0  0  0  0  0  0
  -13.0235  -38.0585  -11.4550 C   0  0  0  0  0  0  0  0  0  0  0  0
  1  2  1  0
  2  3  1  0
  2  4  1  0
  4  5  2  0
  5  6  1  0
  6  7  2  0
  7  8  1  0
  8  9  1  0
  9 10  1  0
 10 11  1  0
 11 12  1  0
 12 13  1  6
 12 14  1  0
 14 15  1  1
 15 16  1  0
 16 17  1  1
 16 18  1  0
 18 19  1  0
 19 20  1  0
 20 21  1  0
 21 22  1  0
 22 23  1  0
 23 24  1  0
 24 25  1  0
 25 26  1  0
 26 27  2  0
 27 28  1  0
 28 29  2  0
 29 30  1  0
 30 31  1  0
 30 32  2  0
 28 33  1  0
 33 34  2  0
 33 35  1  0
  8 36  2  0
 32 26  1  0
 35 14  1  0
 36  4  1  0
M  END
$$$$
