
     RDKit          3D

 36 38  0  0  0  0  0  0  0  0999 V2000
  -10.8817  -34.4003  -12.3686 C   0  0  0  0  0  0  0  0  0  0  0  0
  -12.4013  -34.4718  -12.4940 C   0  0  0  0  0  0  0  0  0  0  0  0
  -12.9778  -33.4505  -11.5489 C   0  0  0  0  0  0  0  0  0  0  0  0
  -12.8739  -35.8503  -12.2074 C   0  0  0  0  0  0  0  0  0  0  0  0
  -13.4597  -36.5755  -13.1923 C   0  0  0  0  0  0  0  0  0  0  0  0
  -13.9025  -37.8532  -12.9413 C   0  0  0  0  0  0  0  0  0  0  0  0
  -13.7551  -38.4215  -11.6690 C   0  0  0  0  0  0  0  0  0  0  0  0
  -13.1649  -37.6910  -10.6767 C   0  0  0  0  0  0  0  0  0  0  0  0
  -13.0129  -38.3068   -9.3241 C   0  0  0  0  0  0  0  0  0  0  0  0
  -14.1652  -38.0856   -8.5130 N   0  0  0  0  0  0  0  0  0  0  0  0
  -14.9541  -39.2021   -8.1331 C   0  0  0  0  0  0  0  0  0  0  0  0
  -16.1372  -39.3931   -9.0039 C   0  0  1  0  0  0  0  0  0  0  0  0
  -15.7310  -39.8463  -10.2646 O   0  0  0  0  0  0  0  0  0  0  0  0
  -17.1857  -40.3580   -8.4289 C   0  0  2  0  0  0  0  0  0  0  0  0
  -17.7335  -39.7373   -7.1757 C   0  0  0  0  0  0  0  0  0  0  0  0
  -19.1000  -39.0837   -7.4470 C   0  0  2  0  0  0  0  0  0  0  0  0
  -19.1704  -37.6685   -7.0006 C   0  0  0  0  0  0  0  0  0  0  0  0
  -20.1426  -39.9750   -6.8801 C   0  0  0  0  0  0  0  0  0  0  0  0
  -21.5013  -39.3607   -6.7560 C   0  0  0  0  0  0  0  0  0  0  0  0
  -22.0489  -39.3201   -5.3629 C   0  0  0  0  0  0  0  0  0  0  0  0
  -23.2646  -40.1833   -5.1548 C   0  0  0  0  0  0  0  0  0  0  0  0
  -22.9834  -41.6540   -5.2732 C   0  0  0  0  0  0  0  0  0  0  0  0
  -22.7225  -42.3292   -3.9421 C   0  0  0  0  0  0  0  0  0  0  0  0
  -21.2801  -42.6606   -3.7738 C   0  0  0  0  0  0  0  0  0  0  0  0
  -20.7499  -43.6334   -4.5984 O   0  0  0  0  0  0  0  0  0  0  0  0
  -20.1554  -43.6362   -5.8534 C   0  0  0  0  0  0  0  0  0  0  0  0
  -18.9130  -43.1681   -6.2369 C   0  0  0  0  0  0  0  0  0  0  0  0
  -18.5854  -43.3037   -7.5656 C   0  0  0  0  0  0  0  0  0  0  0  0
  -19.5198  -43.9073   -8.4515 C   0  0  0  0  0  0  0  0  0  0  0  0
  -20.7519  -44.3689   -8.0528 C   0  0  0  0  0  0  0  0  0  0  0  0
  -21.8720  -45.1073   -9.1829 Cl  0  0  0  0  0  0  0  0  0  0  0  0
  -21.0201  -44.2145   -6.7700 N   0  0  0  0  0  0  0  0  0  0  0  0
  -17.3841  -42.9085   -8.3263 C   0  0  0  0  0  0  0  0  0  0  0  0
  -16.9428  -43.8391   -9.1403 O   0  0  0  0  0  0  0  0  0  0  0  0
  -16.6528  -41.6743   -8.2992 N   0  0  0  0  0  0  0  0  0  0  0  0
  -12.7299  -36.4201  -10.9451 C   0  0  0  0  0  0  0  0  0  0  0  0
  1  2  1  0
  2  3  1  0
  2  4  1  0
  4  5  2  0
  5  6  1  0
  6  7  2  0
  7  8  1  0
  8  9  1  0
  9 10  1  0
 10 11  1  0
 11 12  1  0
 12 13  1  6
 12 14  1  0
 14 15  1  1
 15 16  1  0
 16 17  1  1
 16 18  1  0
 18 19  1  0
 19 20  1  0
 20 21  1  0
 21 22  1  0
 22 23  1  0
 23 24  1  0
 24 25  1  0
 25 26  1  0
 26 27  2  0
 27 28  1  0
 28 29  2  0
 29 30  1  0
 30 31  1  0
 30 32  2  0
 28 33  1  0
 33 34  2  0
 33 35  1  0
  8 36  2  0
 32 26  1  0
 35 14  1  0
 36  4  1  0
M  END
$$$$
