
     RDKit          3D

 36 38  0  0  0  0  0  0  0  0999 V2000
  -21.1899  -38.9951   -9.3031 C   0  0  0  0  0  0  0  0  0  0  0  0
  -22.5365  -38.8339   -8.6025 C   0  0  0  0  0  0  0  0  0  0  0  0
  -22.8476  -37.3607   -8.5624 C   0  0  0  0  0  0  0  0  0  0  0  0
  -22.4864  -39.4470   -7.2507 C   0  0  0  0  0  0  0  0  0  0  0  0
  -23.6365  -39.8484   -6.6547 C   0  0  0  0  0  0  0  0  0  0  0  0
  -23.6055  -40.4174   -5.4029 C   0  0  0  0  0  0  0  0  0  0  0  0
  -22.3894  -40.5896   -4.7283 C   0  0  0  0  0  0  0  0  0  0  0  0
  -21.2307  -40.1852   -5.3287 C   0  0  0  0  0  0  0  0  0  0  0  0
  -19.9400  -40.3737   -4.6003 C   0  0  0  0  0  0  0  0  0  0  0  0
  -18.9649  -39.4128   -5.0008 N   0  0  0  0  0  0  0  0  0  0  0  0
  -18.6309  -39.3156   -6.3764 C   0  0  0  0  0  0  0  0  0  0  0  0
  -17.1691  -39.2611   -6.6105 C   0  0  1  0  0  0  0  0  0  0  0  0
  -16.4887  -39.7121   -5.4732 O   0  0  0  0  0  0  0  0  0  0  0  0
  -16.7031  -40.0640   -7.8350 C   0  0  2  0  0  0  0  0  0  0  0  0
  -16.5433  -39.0994   -8.9750 C   0  0  0  0  0  0  0  0  0  0  0  0
  -15.0609  -38.7379   -9.1756 C   0  0  2  0  0  0  0  0  0  0  0  0
  -14.8138  -37.2732   -9.1967 C   0  0  0  0  0  0  0  0  0  0  0  0
  -14.5785  -39.4748  -10.3703 C   0  0  0  0  0  0  0  0  0  0  0  0
  -13.2654  -39.0076  -10.9145 C   0  0  0  0  0  0  0  0  0  0  0  0
  -13.3058  -38.5310  -12.3335 C   0  0  0  0  0  0  0  0  0  0  0  0
  -12.5245  -39.3888  -13.2926 C   0  0  0  0  0  0  0  0  0  0  0  0
  -13.0992  -40.7649  -13.4716 C   0  0  0  0  0  0  0  0  0  0  0  0
  -14.0138  -40.8870  -14.6733 C   0  0  0  0  0  0  0  0  0  0  0  0
  -15.4426  -40.9782  -14.2624 C   0  0  0  0  0  0  0  0  0  0  0  0
  -15.8407  -42.1181  -13.5919 O   0  0  0  0  0  0  0  0  0  0  0  0
  -15.8857  -42.5051  -12.2590 C   0  0  0  0  0  0  0  0  0  0  0  0
  -16.7227  -42.0737  -11.2476 C   0  0  0  0  0  0  0  0  0  0  0  0
  -16.5358  -42.6391  -10.0081 C   0  0  0  0  0  0  0  0  0  0  0  0
  -15.5171  -43.6168   -9.8390 C   0  0  0  0  0  0  0  0  0  0  0  0
  -14.6933  -44.0358  -10.8570 C   0  0  0  0  0  0  0  0  0  0  0  0
  -13.4498  -45.2460  -10.6005 Cl  0  0  0  0  0  0  0  0  0  0  0  0
  -14.9106  -43.4628  -12.0256 N   0  0  0  0  0  0  0  0  0  0  0  0
  -17.2094  -42.4145   -8.7143 C   0  0  0  0  0  0  0  0  0  0  0  0
  -17.5221  -43.5212   -8.0810 O   0  0  0  0  0  0  0  0  0  0  0  0
  -17.5579  -41.1810   -8.0698 N   0  0  0  0  0  0  0  0  0  0  0  0
  -21.2810  -39.6206   -6.5757 C   0  0  0  0  0  0  0  0  0  0  0  0
  1  2  1  0
  2  3  1  0
  2  4  1  0
  4  5  2  0
  5  6  1  0
  6  7  2  0
  7  8  1  0
  8  9  1  0
  9 10  1  0
 10 11  1  0
 11 12  1  0
 12 13  1  1
 12 14  1  0
 14 15  1  6
 15 16  1  0
 16 17  1  6
 16 18  1  0
 18 19  1  0
 19 20  1  0
 20 21  1  0
 21 22  1  0
 22 23  1  0
 23 24  1  0
 24 25  1  0
 25 26  1  0
 26 27  2  0
 27 28  1  0
 28 29  2  0
 29 30  1  0
 30 31  1  0
 30 32  2  0
 28 33  1  0
 33 34  2  0
 33 35  1  0
  8 36  2  0
 32 26  1  0
 35 14  1  0
 36  4  1  0
M  END
$$$$
