
     RDKit          3D

 36 38  0  0  0  0  0  0  0  0999 V2000
  -12.6354  -38.0202  -14.7084 C   0  0  0  0  0  0  0  0  0  0  0  0
  -12.3457  -36.7107  -13.9796 C   0  0  0  0  0  0  0  0  0  0  0  0
  -10.8803  -36.7061  -13.6311 C   0  0  0  0  0  0  0  0  0  0  0  0
  -13.2200  -36.5856  -12.7856 C   0  0  0  0  0  0  0  0  0  0  0  0
  -14.2578  -35.7129  -12.8043 C   0  0  0  0  0  0  0  0  0  0  0  0
  -15.0756  -35.5861  -11.7058 C   0  0  0  0  0  0  0  0  0  0  0  0
  -14.8486  -36.3541  -10.5559 C   0  0  0  0  0  0  0  0  0  0  0  0
  -13.8031  -37.2333  -10.5369 C   0  0  0  0  0  0  0  0  0  0  0  0
  -13.5704  -38.0470   -9.3058 C   0  0  0  0  0  0  0  0  0  0  0  0
  -14.3730  -37.5944   -8.2169 N   0  0  0  0  0  0  0  0  0  0  0  0
  -15.7832  -37.7178   -8.3142 C   0  0  0  0  0  0  0  0  0  0  0  0
  -16.3397  -38.7135   -7.3689 C   0  0  1  0  0  0  0  0  0  0  0  0
  -16.8958  -38.0597   -6.2630 O   0  0  0  0  0  0  0  0  0  0  0  0
  -17.3909  -39.6453   -7.9918 C   0  0  2  0  0  0  0  0  0  0  0  0
  -18.0183  -40.4303   -6.8756 C   0  0  0  0  0  0  0  0  0  0  0  0
  -19.3857  -39.8349   -6.4960 C   0  0  2  0  0  0  0  0  0  0  0  0
  -19.5158  -39.5477   -5.0443 C   0  0  0  0  0  0  0  0  0  0  0  0
  -20.4325  -40.7246   -7.0577 C   0  0  0  0  0  0  0  0  0  0  0  0
  -21.8113  -40.4952   -6.5238 C   0  0  0  0  0  0  0  0  0  0  0  0
  -22.4307  -41.6805   -5.8502 C   0  0  0  0  0  0  0  0  0  0  0  0
  -23.6326  -42.2362   -6.5665 C   0  0  0  0  0  0  0  0  0  0  0  0
  -23.3074  -42.8448   -7.9007 C   0  0  0  0  0  0  0  0  0  0  0  0
  -23.0979  -44.3444   -7.8466 C   0  0  0  0  0  0  0  0  0  0  0  0
  -21.6579  -44.6978   -7.9889 C   0  0  0  0  0  0  0  0  0  0  0  0
  -21.0609  -44.4567   -9.2107 O   0  0  0  0  0  0  0  0  0  0  0  0
  -20.4027  -43.3761   -9.7830 C   0  0  0  0  0  0  0  0  0  0  0  0
  -19.1549  -42.8563   -9.4960 C   0  0  0  0  0  0  0  0  0  0  0  0
  -18.7559  -41.7658  -10.2326 C   0  0  0  0  0  0  0  0  0  0  0  0
  -19.6275  -41.2463  -11.2290 C   0  0  0  0  0  0  0  0  0  0  0  0
  -20.8661  -41.7766  -11.5027 C   0  0  0  0  0  0  0  0  0  0  0  0
  -21.9069  -41.1013  -12.7427 Cl  0  0  0  0  0  0  0  0  0  0  0  0
  -21.2038  -42.8198  -10.7685 N   0  0  0  0  0  0  0  0  0  0  0  0
  -17.5278  -40.9485  -10.1912 C   0  0  0  0  0  0  0  0  0  0  0  0
  -17.0211  -40.6935  -11.3752 O   0  0  0  0  0  0  0  0  0  0  0  0
  -16.8313  -40.4060   -9.0602 N   0  0  0  0  0  0  0  0  0  0  0  0
  -12.9992  -37.3462  -11.6403 C   0  0  0  0  0  0  0  0  0  0  0  0
  1  2  1  0
  2  3  1  0
  2  4  1  0
  4  5  2  0
  5  6  1  0
  6  7  2  0
  7  8  1  0
  8  9  1  0
  9 10  1  0
 10 11  1  0
 11 12  1  0
 12 13  1  1
 12 14  1  0
 14 15  1  1
 15 16  1  0
 16 17  1  1
 16 18  1  0
 18 19  1  0
 19 20  1  0
 20 21  1  0
 21 22  1  0
 22 23  1  0
 23 24  1  0
 24 25  1  0
 25 26  1  0
 26 27  2  0
 27 28  1  0
 28 29  2  0
 29 30  1  0
 30 31  1  0
 30 32  2  0
 28 33  1  0
 33 34  2  0
 33 35  1  0
  8 36  2  0
 32 26  1  0
 35 14  1  0
 36  4  1  0
M  END
$$$$
