
     RDKit          3D

 40 42  0  0  0  0  0  0  0  0999 V2000
  -10.6230  -43.6804   -9.8418 C   0  0  0  0  0  0  0  0  0  0  0  0
  -11.8949  -44.2293   -9.6518 O   0  0  0  0  0  0  0  0  0  0  0  0
  -12.5982  -44.0706  -10.8225 C   0  0  0  0  0  0  0  0  0  0  0  0
  -14.0535  -43.9545  -10.5519 C   0  0  0  0  0  0  0  0  0  0  0  0
  -14.8498  -45.0496  -10.3788 C   0  0  0  0  0  0  0  0  0  0  0  0
  -16.2470  -44.9830  -10.1193 C   0  0  0  0  0  0  0  0  0  0  0  0
  -16.8481  -43.7469  -10.0399 C   0  0  0  0  0  0  0  0  0  0  0  0
  -16.0813  -42.6178  -10.2037 C   0  0  0  0  0  0  0  0  0  0  0  0
  -14.6933  -42.7491  -10.4588 C   0  0  0  0  0  0  0  0  0  0  0  0
  -16.4312  -41.1852  -10.1202 C   0  0  0  0  0  0  0  0  0  0  0  0
  -15.9065  -40.3536  -11.0045 O   0  0  0  0  0  0  0  0  0  0  0  0
  -17.2708  -40.4801   -9.2192 N   0  0  0  0  0  0  0  0  0  0  0  0
  -17.2443  -40.4995   -7.7777 C   0  0  1  0  0  0  0  0  0  0  0  0
  -17.5719  -41.7928   -7.1330 C   0  0  0  0  0  0  0  0  0  0  0  0
  -19.0446  -42.1380   -7.2630 C   0  0  2  0  0  0  0  0  0  0  0  0
  -19.8551  -40.8766   -7.1736 C   0  0  0  0  0  0  0  0  0  0  0  0
  -19.4109  -43.1081   -6.1534 C   0  0  0  0  0  0  0  0  0  0  0  0
  -20.7756  -43.6477   -6.3153 C   0  0  0  0  0  0  0  0  0  0  0  0
  -21.0613  -44.2271   -7.5266 O   0  0  0  0  0  0  0  0  0  0  0  0
  -20.6223  -45.5673   -7.6387 C   0  0  0  0  0  0  0  0  0  0  0  0
  -19.5143  -45.5475   -8.6580 C   0  0  0  0  0  0  0  0  0  0  0  0
  -18.9912  -46.8776   -9.1036 C   0  0  0  0  0  0  0  0  0  0  0  0
  -17.5073  -46.8989   -8.8320 C   0  0  0  0  0  0  0  0  0  0  0  0
  -16.7709  -46.3019   -9.9287 N   0  0  0  0  0  0  0  0  0  0  0  0
  -15.9521  -39.8868   -7.2530 C   0  0  2  0  0  0  0  0  0  0  0  0
  -16.1972  -39.2668   -6.0403 O   0  0  0  0  0  0  0  0  0  0  0  0
  -15.3919  -38.8692   -8.2204 C   0  0  0  0  0  0  0  0  0  0  0  0
  -16.3696  -38.3131   -9.0759 N   0  0  0  0  0  0  0  0  0  0  0  0
  -17.0860  -37.1632   -8.6337 C   0  0  0  0  0  0  0  0  0  0  0  0
  -18.4195  -36.9478   -9.2076 C   0  0  0  0  0  0  0  0  0  0  0  0
  -19.5239  -36.7297   -8.3731 C   0  0  0  0  0  0  0  0  0  0  0  0
  -20.7752  -36.5565   -8.9013 C   0  0  0  0  0  0  0  0  0  0  0  0
  -21.0156  -36.5859  -10.2559 C   0  0  0  0  0  0  0  0  0  0  0  0
  -19.9337  -36.7989  -11.0723 C   0  0  0  0  0  0  0  0  0  0  0  0
  -18.6681  -36.9745  -10.5570 C   0  0  0  0  0  0  0  0  0  0  0  0
  -17.6576  -37.1496  -11.4784 F   0  0  0  0  0  0  0  0  0  0  0  0
  -21.9471  -36.3246   -8.0031 C   0  0  0  0  0  0  0  0  0  0  0  0
  -21.7796  -37.0546   -6.8462 F   0  0  0  0  0  0  0  0  0  0  0  0
  -23.1206  -36.7509   -8.5837 F   0  0  0  0  0  0  0  0  0  0  0  0
  -22.0087  -34.9885   -7.6705 F   0  0  0  0  0  0  0  0  0  0  0  0
  1  2  1  0
  2  3  1  0
  3  4  1  0
  4  5  2  0
  5  6  1  0
  6  7  2  0
  7  8  1  0
  8  9  2  0
  8 10  1  0
 10 11  2  0
 10 12  1  0
 12 13  1  0
 13 14  1  6
 14 15  1  0
 15 16  1  1
 15 17  1  0
 17 18  1  0
 18 19  1  0
 19 20  1  0
 20 21  1  0
 21 22  1  0
 22 23  1  0
 23 24  1  0
 13 25  1  0
 25 26  1  1
 25 27  1  0
 27 28  1  0
 28 29  1  0
 29 30  1  0
 30 31  2  0
 31 32  1  0
 32 33  2  0
 33 34  1  0
 34 35  2  0
 35 36  1  0
 32 37  1  0
 37 38  1  0
 37 39  1  0
 37 40  1  0
  9  4  1  0
 24  6  1  0
 35 30  1  0
M  END
$$$$
