
     RDKit          3D

 40 42  0  0  0  0  0  0  0  0999 V2000
  -19.1731  -40.0199  -12.1395 C   0  0  0  0  0  0  0  0  0  0  0  0
  -20.5296  -40.1683  -11.8345 O   0  0  0  0  0  0  0  0  0  0  0  0
  -20.6587  -41.2757  -11.0299 C   0  0  0  0  0  0  0  0  0  0  0  0
  -19.3283  -41.7642  -10.5874 C   0  0  0  0  0  0  0  0  0  0  0  0
  -18.5631  -42.5887  -11.3606 C   0  0  0  0  0  0  0  0  0  0  0  0
  -17.2850  -43.0800  -10.9745 C   0  0  0  0  0  0  0  0  0  0  0  0
  -16.7775  -42.7151   -9.7478 C   0  0  0  0  0  0  0  0  0  0  0  0
  -17.5141  -41.8820   -8.9396 C   0  0  0  0  0  0  0  0  0  0  0  0
  -18.7809  -41.4243   -9.3807 C   0  0  0  0  0  0  0  0  0  0  0  0
  -17.2104  -41.2894   -7.6212 C   0  0  0  0  0  0  0  0  0  0  0  0
  -18.1727  -41.2348   -6.7157 O   0  0  0  0  0  0  0  0  0  0  0  0
  -16.0142  -40.7292   -7.1025 N   0  0  0  0  0  0  0  0  0  0  0  0
  -15.1818  -39.7088   -7.6896 C   0  0  1  0  0  0  0  0  0  0  0  0
  -14.5112  -40.0617   -8.9630 C   0  0  0  0  0  0  0  0  0  0  0  0
  -13.3949  -41.0704   -8.7591 C   0  0  2  0  0  0  0  0  0  0  0  0
  -12.7134  -40.7918   -7.4500 C   0  0  0  0  0  0  0  0  0  0  0  0
  -12.4242  -40.9546   -9.9214 C   0  0  0  0  0  0  0  0  0  0  0  0
  -11.4101  -42.0275   -9.9071 C   0  0  0  0  0  0  0  0  0  0  0  0
  -11.8858  -43.3140   -9.8498 O   0  0  0  0  0  0  0  0  0  0  0  0
  -12.2800  -43.8358  -11.1043 C   0  0  0  0  0  0  0  0  0  0  0  0
  -13.7765  -43.9839  -11.0301 C   0  0  0  0  0  0  0  0  0  0  0  0
  -14.4361  -44.6933  -12.1717 C   0  0  0  0  0  0  0  0  0  0  0  0
  -15.4704  -43.7609  -12.7522 C   0  0  0  0  0  0  0  0  0  0  0  0
  -16.7246  -43.8654  -12.0326 N   0  0  0  0  0  0  0  0  0  0  0  0
  -15.9241  -38.3804   -7.7597 C   0  0  2  0  0  0  0  0  0  0  0  0
  -15.0114  -37.3412   -7.7123 O   0  0  0  0  0  0  0  0  0  0  0  0
  -16.8975  -38.2317   -6.6126 C   0  0  0  0  0  0  0  0  0  0  0  0
  -18.1209  -38.9059   -6.8261 N   0  0  0  0  0  0  0  0  0  0  0  0
  -19.3280  -38.2742   -6.4078 C   0  0  0  0  0  0  0  0  0  0  0  0
  -20.5859  -38.9471   -6.7524 C   0  0  0  0  0  0  0  0  0  0  0  0
  -21.2707  -39.7048   -5.7930 C   0  0  0  0  0  0  0  0  0  0  0  0
  -22.4298  -40.3583   -6.1161 C   0  0  0  0  0  0  0  0  0  0  0  0
  -22.9783  -40.3094   -7.3772 C   0  0  0  0  0  0  0  0  0  0  0  0
  -22.3075  -39.5668   -8.3158 C   0  0  0  0  0  0  0  0  0  0  0  0
  -21.1405  -38.9028   -8.0070 C   0  0  0  0  0  0  0  0  0  0  0  0
  -20.5755  -38.1649   -9.0253 F   0  0  0  0  0  0  0  0  0  0  0  0
  -23.1531  -41.1642   -5.0859 C   0  0  0  0  0  0  0  0  0  0  0  0
  -24.1050  -41.9420   -5.7090 F   0  0  0  0  0  0  0  0  0  0  0  0
  -23.8150  -40.3580   -4.1871 F   0  0  0  0  0  0  0  0  0  0  0  0
  -22.2587  -41.9969   -4.4485 F   0  0  0  0  0  0  0  0  0  0  0  0
  1  2  1  0
  2  3  1  0
  3  4  1  0
  4  5  2  0
  5  6  1  0
  6  7  2  0
  7  8  1  0
  8  9  2  0
  8 10  1  0
 10 11  2  0
 10 12  1  0
 12 13  1  0
 13 14  1  6
 14 15  1  0
 15 16  1  1
 15 17  1  0
 17 18  1  0
 18 19  1  0
 19 20  1  0
 20 21  1  0
 21 22  1  0
 22 23  1  0
 23 24  1  0
 13 25  1  0
 25 26  1  1
 25 27  1  0
 27 28  1  0
 28 29  1  0
 29 30  1  0
 30 31  2  0
 31 32  1  0
 32 33  2  0
 33 34  1  0
 34 35  2  0
 35 36  1  0
 32 37  1  0
 37 38  1  0
 37 39  1  0
 37 40  1  0
  9  4  1  0
 24  6  1  0
 35 30  1  0
M  END
$$$$
