
     RDKit          3D

 40 42  0  0  0  0  0  0  0  0999 V2000
  -20.7144  -38.5443  -11.5028 C   0  0  0  0  0  0  0  0  0  0  0  0
  -20.9368  -39.8948  -11.2165 O   0  0  0  0  0  0  0  0  0  0  0  0
  -20.3808  -40.6350  -12.2329 C   0  0  0  0  0  0  0  0  0  0  0  0
  -19.0496  -41.1595  -11.8362 C   0  0  0  0  0  0  0  0  0  0  0  0
  -18.1121  -41.5320  -12.7558 C   0  0  0  0  0  0  0  0  0  0  0  0
  -16.8265  -42.0398  -12.4188 C   0  0  0  0  0  0  0  0  0  0  0  0
  -16.4947  -42.1744  -11.0895 C   0  0  0  0  0  0  0  0  0  0  0  0
  -17.4085  -41.8064  -10.1307 C   0  0  0  0  0  0  0  0  0  0  0  0
  -18.6731  -41.3056  -10.5293 C   0  0  0  0  0  0  0  0  0  0  0  0
  -17.3160  -41.7874   -8.6568 C   0  0  0  0  0  0  0  0  0  0  0  0
  -18.3627  -42.1835   -7.9523 O   0  0  0  0  0  0  0  0  0  0  0  0
  -16.2588  -41.4009   -7.7925 N   0  0  0  0  0  0  0  0  0  0  0  0
  -15.5093  -40.1692   -7.7988 C   0  0  1  0  0  0  0  0  0  0  0  0
  -14.6756  -39.9149   -8.9971 C   0  0  0  0  0  0  0  0  0  0  0  0
  -13.4655  -40.8299   -9.0546 C   0  0  2  0  0  0  0  0  0  0  0  0
  -12.9590  -41.0636   -7.6600 C   0  0  0  0  0  0  0  0  0  0  0  0
  -12.4066  -40.1727   -9.9226 C   0  0  0  0  0  0  0  0  0  0  0  0
  -11.2702  -41.0759  -10.1920 C   0  0  0  0  0  0  0  0  0  0  0  0
  -11.5809  -42.3041  -10.7206 O   0  0  0  0  0  0  0  0  0  0  0  0
  -11.7782  -42.2920  -12.1215 C   0  0  0  0  0  0  0  0  0  0  0  0
  -13.2434  -42.5709  -12.3274 C   0  0  0  0  0  0  0  0  0  0  0  0
  -13.6899  -42.7957  -13.7386 C   0  0  0  0  0  0  0  0  0  0  0  0
  -14.7719  -41.7888  -14.0411 C   0  0  0  0  0  0  0  0  0  0  0  0
  -16.0677  -42.2751  -13.6102 N   0  0  0  0  0  0  0  0  0  0  0  0
  -16.4046  -38.9904   -7.4392 C   0  0  2  0  0  0  0  0  0  0  0  0
  -15.9728  -38.4320   -6.2489 O   0  0  0  0  0  0  0  0  0  0  0  0
  -17.8460  -39.4195   -7.2860 C   0  0  0  0  0  0  0  0  0  0  0  0
  -18.7704  -38.3980   -7.6003 N   0  0  0  0  0  0  0  0  0  0  0  0
  -19.9010  -38.2184   -6.7514 C   0  0  0  0  0  0  0  0  0  0  0  0
  -21.1326  -38.9240   -7.1242 C   0  0  0  0  0  0  0  0  0  0  0  0
  -21.8244  -39.6915   -6.1776 C   0  0  0  0  0  0  0  0  0  0  0  0
  -22.9583  -40.3751   -6.5264 C   0  0  0  0  0  0  0  0  0  0  0  0
  -23.4739  -40.3483   -7.8019 C   0  0  0  0  0  0  0  0  0  0  0  0
  -22.7964  -39.5962   -8.7280 C   0  0  0  0  0  0  0  0  0  0  0  0
  -21.6543  -38.9019   -8.3934 C   0  0  0  0  0  0  0  0  0  0  0  0
  -21.0803  -38.1576   -9.4018 F   0  0  0  0  0  0  0  0  0  0  0  0
  -23.6893  -41.1913   -5.5097 C   0  0  0  0  0  0  0  0  0  0  0  0
  -23.3478  -42.5173   -5.6662 F   0  0  0  0  0  0  0  0  0  0  0  0
  -25.0531  -41.1027   -5.6767 F   0  0  0  0  0  0  0  0  0  0  0  0
  -23.3116  -40.7900   -4.2464 F   0  0  0  0  0  0  0  0  0  0  0  0
  1  2  1  0
  2  3  1  0
  3  4  1  0
  4  5  2  0
  5  6  1  0
  6  7  2  0
  7  8  1  0
  8  9  2  0
  8 10  1  0
 10 11  2  0
 10 12  1  0
 12 13  1  0
 13 14  1  6
 14 15  1  0
 15 16  1  1
 15 17  1  0
 17 18  1  0
 18 19  1  0
 19 20  1  0
 20 21  1  0
 21 22  1  0
 22 23  1  0
 23 24  1  0
 13 25  1  0
 25 26  1  1
 25 27  1  0
 27 28  1  0
 28 29  1  0
 29 30  1  0
 30 31  2  0
 31 32  1  0
 32 33  2  0
 33 34  1  0
 34 35  2  0
 35 36  1  0
 32 37  1  0
 37 38  1  0
 37 39  1  0
 37 40  1  0
  9  4  1  0
 24  6  1  0
 35 30  1  0
M  END
$$$$
