
     RDKit          3D

 40 42  0  0  0  0  0  0  0  0999 V2000
  -18.3648  -33.7928  -10.5993 C   0  0  0  0  0  0  0  0  0  0  0  0
  -17.4345  -34.7402  -10.1612 O   0  0  0  0  0  0  0  0  0  0  0  0
  -16.3207  -34.6333  -10.9602 C   0  0  0  0  0  0  0  0  0  0  0  0
  -15.7068  -35.9655  -11.1904 C   0  0  0  0  0  0  0  0  0  0  0  0
  -14.5012  -36.1120  -11.8135 C   0  0  0  0  0  0  0  0  0  0  0  0
  -13.8789  -37.3684  -12.0547 C   0  0  0  0  0  0  0  0  0  0  0  0
  -14.5210  -38.5154  -11.6454 C   0  0  0  0  0  0  0  0  0  0  0  0
  -15.7354  -38.4123  -11.0096 C   0  0  0  0  0  0  0  0  0  0  0  0
  -16.3040  -37.1316  -10.7969 C   0  0  0  0  0  0  0  0  0  0  0  0
  -16.6149  -39.4431  -10.4219 C   0  0  0  0  0  0  0  0  0  0  0  0
  -17.9212  -39.3345  -10.5972 O   0  0  0  0  0  0  0  0  0  0  0  0
  -16.3157  -40.5993   -9.6553 N   0  0  0  0  0  0  0  0  0  0  0  0
  -15.5056  -40.6935   -8.4663 C   0  0  1  0  0  0  0  0  0  0  0  0
  -14.0665  -40.3788   -8.6265 C   0  0  0  0  0  0  0  0  0  0  0  0
  -13.3293  -41.4580   -9.3991 C   0  0  2  0  0  0  0  0  0  0  0  0
  -13.9056  -42.7985   -9.0429 C   0  0  0  0  0  0  0  0  0  0  0  0
  -11.8545  -41.3805   -9.0450 C   0  0  0  0  0  0  0  0  0  0  0  0
  -11.0323  -42.2660   -9.8933 C   0  0  0  0  0  0  0  0  0  0  0  0
  -11.1738  -42.1124  -11.2501 O   0  0  0  0  0  0  0  0  0  0  0  0
  -10.4120  -41.0492  -11.7892 C   0  0  0  0  0  0  0  0  0  0  0  0
  -11.4139  -40.0180  -12.2362 C   0  0  0  0  0  0  0  0  0  0  0  0
  -10.8777  -38.8582  -13.0165 C   0  0  0  0  0  0  0  0  0  0  0  0
  -11.2693  -37.5970  -12.2871 C   0  0  0  0  0  0  0  0  0  0  0  0
  -12.6007  -37.1694  -12.6689 N   0  0  0  0  0  0  0  0  0  0  0  0
  -16.1517  -39.9391   -7.3113 C   0  0  2  0  0  0  0  0  0  0  0  0
  -15.1685  -39.5031   -6.4404 O   0  0  0  0  0  0  0  0  0  0  0  0
  -17.1237  -40.8160   -6.5553 C   0  0  0  0  0  0  0  0  0  0  0  0
  -18.3518  -41.0004   -7.2295 N   0  0  0  0  0  0  0  0  0  0  0  0
  -19.5468  -40.5379   -6.6055 C   0  0  0  0  0  0  0  0  0  0  0  0
  -20.4417  -39.7038   -7.4162 C   0  0  0  0  0  0  0  0  0  0  0  0
  -20.8765  -40.1445   -8.6734 C   0  0  0  0  0  0  0  0  0  0  0  0
  -21.6884  -39.3587   -9.4467 C   0  0  0  0  0  0  0  0  0  0  0  0
  -22.1160  -38.1150   -9.0417 C   0  0  0  0  0  0  0  0  0  0  0  0
  -21.6904  -37.6845   -7.8105 C   0  0  0  0  0  0  0  0  0  0  0  0
  -20.8737  -38.4630   -7.0198 C   0  0  0  0  0  0  0  0  0  0  0  0
  -20.5383  -37.9354   -5.7911 F   0  0  0  0  0  0  0  0  0  0  0  0
  -22.1469  -39.8374  -10.7864 C   0  0  0  0  0  0  0  0  0  0  0  0
  -21.7963  -38.9076  -11.7414 F   0  0  0  0  0  0  0  0  0  0  0  0
  -23.5167  -39.9689  -10.8340 F   0  0  0  0  0  0  0  0  0  0  0  0
  -21.5182  -41.0271  -11.0847 F   0  0  0  0  0  0  0  0  0  0  0  0
  1  2  1  0
  2  3  1  0
  3  4  1  0
  4  5  2  0
  5  6  1  0
  6  7  2  0
  7  8  1  0
  8  9  2  0
  8 10  1  0
 10 11  2  0
 10 12  1  0
 12 13  1  0
 13 14  1  6
 14 15  1  0
 15 16  1  1
 15 17  1  0
 17 18  1  0
 18 19  1  0
 19 20  1  0
 20 21  1  0
 21 22  1  0
 22 23  1  0
 23 24  1  0
 13 25  1  0
 25 26  1  1
 25 27  1  0
 27 28  1  0
 28 29  1  0
 29 30  1  0
 30 31  2  0
 31 32  1  0
 32 33  2  0
 33 34  1  0
 34 35  2  0
 35 36  1  0
 32 37  1  0
 37 38  1  0
 37 39  1  0
 37 40  1  0
  9  4  1  0
 24  6  1  0
 35 30  1  0
M  END
$$$$
