
     RDKit          3D

 40 42  0  0  0  0  0  0  0  0999 V2000
  -15.2105  -38.8265  -11.4634 C   0  0  0  0  0  0  0  0  0  0  0  0
  -16.4770  -39.1033  -10.9396 O   0  0  0  0  0  0  0  0  0  0  0  0
  -16.3011  -39.7595   -9.7442 C   0  0  0  0  0  0  0  0  0  0  0  0
  -16.9162  -41.1102   -9.7885 C   0  0  0  0  0  0  0  0  0  0  0  0
  -16.1941  -42.2276  -10.0934 C   0  0  0  0  0  0  0  0  0  0  0  0
  -16.7439  -43.5387  -10.1479 C   0  0  0  0  0  0  0  0  0  0  0  0
  -18.0848  -43.7064   -9.8846 C   0  0  0  0  0  0  0  0  0  0  0  0
  -18.8476  -42.6073   -9.5687 C   0  0  0  0  0  0  0  0  0  0  0  0
  -18.2417  -41.3266   -9.5291 C   0  0  0  0  0  0  0  0  0  0  0  0
  -20.2711  -42.4882   -9.1931 C   0  0  0  0  0  0  0  0  0  0  0  0
  -20.9729  -41.4814   -9.6859 O   0  0  0  0  0  0  0  0  0  0  0  0
  -21.0853  -43.2907   -8.3523 N   0  0  0  0  0  0  0  0  0  0  0  0
  -20.8224  -43.7133   -6.9991 C   0  0  1  0  0  0  0  0  0  0  0  0
  -19.6644  -44.6179   -6.8078 C   0  0  0  0  0  0  0  0  0  0  0  0
  -19.9317  -46.0095   -7.3530 C   0  0  2  0  0  0  0  0  0  0  0  0
  -21.3736  -46.3600   -7.1209 C   0  0  0  0  0  0  0  0  0  0  0  0
  -19.0068  -46.9873   -6.6494 C   0  0  0  0  0  0  0  0  0  0  0  0
  -19.0612  -48.3344   -7.2511 C   0  0  0  0  0  0  0  0  0  0  0  0
  -18.8402  -48.4062   -8.6041 O   0  0  0  0  0  0  0  0  0  0  0  0
  -17.4715  -48.4071   -8.9621 C   0  0  0  0  0  0  0  0  0  0  0  0
  -17.2344  -47.0958   -9.6629 C   0  0  0  0  0  0  0  0  0  0  0  0
  -15.8973  -46.9162  -10.3121 C   0  0  0  0  0  0  0  0  0  0  0  0
  -15.2692  -45.6752   -9.7278 C   0  0  0  0  0  0  0  0  0  0  0  0
  -15.7114  -44.4888  -10.4337 N   0  0  0  0  0  0  0  0  0  0  0  0
  -20.8029  -42.5186   -6.0542 C   0  0  2  0  0  0  0  0  0  0  0  0
  -20.6809  -42.9662   -4.7504 O   0  0  0  0  0  0  0  0  0  0  0  0
  -22.0672  -41.6990   -6.1758 C   0  0  0  0  0  0  0  0  0  0  0  0
  -22.0242  -40.4918   -5.4425 N   0  0  0  0  0  0  0  0  0  0  0  0
  -22.9215  -39.4447   -5.8022 C   0  0  0  0  0  0  0  0  0  0  0  0
  -22.6173  -38.6988   -7.0290 C   0  0  0  0  0  0  0  0  0  0  0  0
  -21.3591  -38.1077   -7.2058 C   0  0  0  0  0  0  0  0  0  0  0  0
  -21.0786  -37.3866   -8.3355 C   0  0  0  0  0  0  0  0  0  0  0  0
  -21.9983  -37.2044   -9.3428 C   0  0  0  0  0  0  0  0  0  0  0  0
  -23.2297  -37.7840   -9.1691 C   0  0  0  0  0  0  0  0  0  0  0  0
  -23.5279  -38.5131   -8.0388 C   0  0  0  0  0  0  0  0  0  0  0  0
  -24.7873  -39.0722   -7.9931 F   0  0  0  0  0  0  0  0  0  0  0  0
  -19.7337  -36.7597   -8.5151 C   0  0  0  0  0  0  0  0  0  0  0  0
  -19.8713  -35.3884   -8.5091 F   0  0  0  0  0  0  0  0  0  0  0  0
  -19.1733  -37.1044   -9.7246 F   0  0  0  0  0  0  0  0  0  0  0  0
  -18.9188  -37.1207   -7.4638 F   0  0  0  0  0  0  0  0  0  0  0  0
  1  2  1  0
  2  3  1  0
  3  4  1  0
  4  5  2  0
  5  6  1  0
  6  7  2  0
  7  8  1  0
  8  9  2  0
  8 10  1  0
 10 11  2  0
 10 12  1  0
 12 13  1  0
 13 14  1  6
 14 15  1  0
 15 16  1  1
 15 17  1  0
 17 18  1  0
 18 19  1  0
 19 20  1  0
 20 21  1  0
 21 22  1  0
 22 23  1  0
 23 24  1  0
 13 25  1  0
 25 26  1  1
 25 27  1  0
 27 28  1  0
 28 29  1  0
 29 30  1  0
 30 31  2  0
 31 32  1  0
 32 33  2  0
 33 34  1  0
 34 35  2  0
 35 36  1  0
 32 37  1  0
 37 38  1  0
 37 39  1  0
 37 40  1  0
  9  4  1  0
 24  6  1  0
 35 30  1  0
M  END
$$$$
