
     RDKit          3D

 40 42  0  0  0  0  0  0  0  0999 V2000
  -22.4965  -41.4111   -8.7497 C   0  0  0  0  0  0  0  0  0  0  0  0
  -21.3413  -40.6451   -8.9334 O   0  0  0  0  0  0  0  0  0  0  0  0
  -20.9355  -40.8064  -10.2371 C   0  0  0  0  0  0  0  0  0  0  0  0
  -19.4701  -41.0348  -10.3090 C   0  0  0  0  0  0  0  0  0  0  0  0
  -18.7980  -41.0719  -11.4965 C   0  0  0  0  0  0  0  0  0  0  0  0
  -17.3966  -41.2889  -11.6098 C   0  0  0  0  0  0  0  0  0  0  0  0
  -16.6605  -41.4797  -10.4621 C   0  0  0  0  0  0  0  0  0  0  0  0
  -17.2978  -41.4453   -9.2446 C   0  0  0  0  0  0  0  0  0  0  0  0
  -18.6969  -41.2235   -9.1965 C   0  0  0  0  0  0  0  0  0  0  0  0
  -16.7720  -41.5606   -7.8692 C   0  0  0  0  0  0  0  0  0  0  0  0
  -17.4576  -42.2686   -6.9874 O   0  0  0  0  0  0  0  0  0  0  0  0
  -15.6030  -41.0252   -7.2685 N   0  0  0  0  0  0  0  0  0  0  0  0
  -15.1512  -39.6560   -7.2658 C   0  0  1  0  0  0  0  0  0  0  0  0
  -14.7846  -39.0837   -8.5825 C   0  0  0  0  0  0  0  0  0  0  0  0
  -13.4910  -39.6700   -9.1190 C   0  0  2  0  0  0  0  0  0  0  0  0
  -12.5527  -39.9213   -7.9734 C   0  0  0  0  0  0  0  0  0  0  0  0
  -12.8952  -38.6899  -10.1144 C   0  0  0  0  0  0  0  0  0  0  0  0
  -11.7365  -39.2601  -10.8299 C   0  0  0  0  0  0  0  0  0  0  0  0
  -11.9407  -40.4640  -11.4571 O   0  0  0  0  0  0  0  0  0  0  0  0
  -12.5484  -40.3516  -12.7297 C   0  0  0  0  0  0  0  0  0  0  0  0
  -13.9213  -40.9508  -12.5782 C   0  0  0  0  0  0  0  0  0  0  0  0
  -14.7174  -41.1258  -13.8340 C   0  0  0  0  0  0  0  0  0  0  0  0
  -16.0180  -40.3819  -13.6575 C   0  0  0  0  0  0  0  0  0  0  0  0
  -17.0002  -41.2079  -12.9835 N   0  0  0  0  0  0  0  0  0  0  0  0
  -16.1128  -38.7714   -6.4827 C   0  0  2  0  0  0  0  0  0  0  0  0
  -15.7625  -38.7848   -5.1439 O   0  0  0  0  0  0  0  0  0  0  0  0
  -17.5399  -39.2504   -6.6217 C   0  0  0  0  0  0  0  0  0  0  0  0
  -18.4163  -38.2605   -7.1205 N   0  0  0  0  0  0  0  0  0  0  0  0
  -19.2958  -38.6054   -8.1876 C   0  0  0  0  0  0  0  0  0  0  0  0
  -20.6553  -39.0205   -7.8225 C   0  0  0  0  0  0  0  0  0  0  0  0
  -20.9195  -39.5418   -6.5489 C   0  0  0  0  0  0  0  0  0  0  0  0
  -22.1799  -39.9573   -6.2118 C   0  0  0  0  0  0  0  0  0  0  0  0
  -23.2392  -39.8881   -7.0875 C   0  0  0  0  0  0  0  0  0  0  0  0
  -22.9798  -39.3771   -8.3340 C   0  0  0  0  0  0  0  0  0  0  0  0
  -21.7175  -38.9541   -8.6889 C   0  0  0  0  0  0  0  0  0  0  0  0
  -21.5882  -38.4312   -9.9579 F   0  0  0  0  0  0  0  0  0  0  0  0
  -22.4520  -40.5121   -4.8509 C   0  0  0  0  0  0  0  0  0  0  0  0
  -23.6768  -41.1439   -4.8584 F   0  0  0  0  0  0  0  0  0  0  0  0
  -22.5171  -39.5155   -3.9030 F   0  0  0  0  0  0  0  0  0  0  0  0
  -21.4841  -41.4413   -4.5359 F   0  0  0  0  0  0  0  0  0  0  0  0
  1  2  1  0
  2  3  1  0
  3  4  1  0
  4  5  2  0
  5  6  1  0
  6  7  2  0
  7  8  1  0
  8  9  2  0
  8 10  1  0
 10 11  2  0
 10 12  1  0
 12 13  1  0
 13 14  1  6
 14 15  1  0
 15 16  1  1
 15 17  1  0
 17 18  1  0
 18 19  1  0
 19 20  1  0
 20 21  1  0
 21 22  1  0
 22 23  1  0
 23 24  1  0
 13 25  1  0
 25 26  1  1
 25 27  1  0
 27 28  1  0
 28 29  1  0
 29 30  1  0
 30 31  2  0
 31 32  1  0
 32 33  2  0
 33 34  1  0
 34 35  2  0
 35 36  1  0
 32 37  1  0
 37 38  1  0
 37 39  1  0
 37 40  1  0
  9  4  1  0
 24  6  1  0
 35 30  1  0
M  END
$$$$
