
     RDKit          3D

 40 42  0  0  0  0  0  0  0  0999 V2000
  -17.6549  -33.8282  -11.9175 C   0  0  0  0  0  0  0  0  0  0  0  0
  -17.2390  -32.9790  -10.8875 O   0  0  0  0  0  0  0  0  0  0  0  0
  -16.8985  -33.7631   -9.8106 C   0  0  0  0  0  0  0  0  0  0  0  0
  -16.1563  -34.9712  -10.2515 C   0  0  0  0  0  0  0  0  0  0  0  0
  -14.9228  -34.8947  -10.8310 C   0  0  0  0  0  0  0  0  0  0  0  0
  -14.1789  -36.0258  -11.2683 C   0  0  0  0  0  0  0  0  0  0  0  0
  -14.7244  -37.2798  -11.1089 C   0  0  0  0  0  0  0  0  0  0  0  0
  -15.9631  -37.4018  -10.5254 C   0  0  0  0  0  0  0  0  0  0  0  0
  -16.6549  -36.2370  -10.1089 C   0  0  0  0  0  0  0  0  0  0  0  0
  -16.7615  -38.5958  -10.1811 C   0  0  0  0  0  0  0  0  0  0  0  0
  -18.0659  -38.5681  -10.3973 O   0  0  0  0  0  0  0  0  0  0  0  0
  -16.3810  -39.8454   -9.6264 N   0  0  0  0  0  0  0  0  0  0  0  0
  -15.6045  -40.0915   -8.4368 C   0  0  1  0  0  0  0  0  0  0  0  0
  -14.1964  -39.6307   -8.4656 C   0  0  0  0  0  0  0  0  0  0  0  0
  -13.3376  -40.4789   -9.3864 C   0  0  2  0  0  0  0  0  0  0  0  0
  -13.7979  -41.9066   -9.3115 C   0  0  0  0  0  0  0  0  0  0  0  0
  -11.8885  -40.3436   -8.9522 C   0  0  0  0  0  0  0  0  0  0  0  0
  -10.9606  -40.9808   -9.9075 C   0  0  0  0  0  0  0  0  0  0  0  0
  -11.0718  -40.5881  -11.2182 O   0  0  0  0  0  0  0  0  0  0  0  0
  -10.3952  -39.3815  -11.5146 C   0  0  0  0  0  0  0  0  0  0  0  0
  -11.4737  -38.3741  -11.8129 C   0  0  0  0  0  0  0  0  0  0  0  0
  -11.0227  -37.0471  -12.3393 C   0  0  0  0  0  0  0  0  0  0  0  0
  -11.5532  -35.9833  -11.4105 C   0  0  0  0  0  0  0  0  0  0  0  0
  -12.9056  -35.6069  -11.7720 N   0  0  0  0  0  0  0  0  0  0  0  0
  -16.3548  -39.6251   -7.1959 C   0  0  2  0  0  0  0  0  0  0  0  0
  -16.1875  -40.5524   -6.1824 O   0  0  0  0  0  0  0  0  0  0  0  0
  -17.8319  -39.4623   -7.4736 C   0  0  0  0  0  0  0  0  0  0  0  0
  -18.4505  -38.4882   -6.6579 N   0  0  0  0  0  0  0  0  0  0  0  0
  -19.8339  -38.2110   -6.8593 C   0  0  0  0  0  0  0  0  0  0  0  0
  -20.7375  -39.3637   -6.9532 C   0  0  0  0  0  0  0  0  0  0  0  0
  -21.1076  -39.8745   -8.2045 C   0  0  0  0  0  0  0  0  0  0  0  0
  -21.9726  -40.9316   -8.2994 C   0  0  0  0  0  0  0  0  0  0  0  0
  -22.5176  -41.5416   -7.1928 C   0  0  0  0  0  0  0  0  0  0  0  0
  -22.1543  -41.0412   -5.9681 C   0  0  0  0  0  0  0  0  0  0  0  0
  -21.2848  -39.9785   -5.8551 C   0  0  0  0  0  0  0  0  0  0  0  0
  -20.9716  -39.5857   -4.5712 F   0  0  0  0  0  0  0  0  0  0  0  0
  -22.3616  -41.4695   -9.6386 C   0  0  0  0  0  0  0  0  0  0  0  0
  -21.8664  -40.6376  -10.6195 F   0  0  0  0  0  0  0  0  0  0  0  0
  -23.7296  -41.5043   -9.7909 F   0  0  0  0  0  0  0  0  0  0  0  0
  -21.8064  -42.7198   -9.8060 F   0  0  0  0  0  0  0  0  0  0  0  0
  1  2  1  0
  2  3  1  0
  3  4  1  0
  4  5  2  0
  5  6  1  0
  6  7  2  0
  7  8  1  0
  8  9  2  0
  8 10  1  0
 10 11  2  0
 10 12  1  0
 12 13  1  0
 13 14  1  6
 14 15  1  0
 15 16  1  1
 15 17  1  0
 17 18  1  0
 18 19  1  0
 19 20  1  0
 20 21  1  0
 21 22  1  0
 22 23  1  0
 23 24  1  0
 13 25  1  0
 25 26  1  1
 25 27  1  0
 27 28  1  0
 28 29  1  0
 29 30  1  0
 30 31  2  0
 31 32  1  0
 32 33  2  0
 33 34  1  0
 34 35  2  0
 35 36  1  0
 32 37  1  0
 37 38  1  0
 37 39  1  0
 37 40  1  0
  9  4  1  0
 24  6  1  0
 35 30  1  0
M  END
$$$$
