
     RDKit          3D

 40 42  0  0  0  0  0  0  0  0999 V2000
  -19.3241  -40.1056  -13.9044 C   0  0  0  0  0  0  0  0  0  0  0  0
  -19.5428  -39.8639  -12.5447 O   0  0  0  0  0  0  0  0  0  0  0  0
  -19.9689  -41.0399  -11.9740 C   0  0  0  0  0  0  0  0  0  0  0  0
  -18.8347  -41.7615  -11.3435 C   0  0  0  0  0  0  0  0  0  0  0  0
  -18.0462  -42.6285  -12.0433 C   0  0  0  0  0  0  0  0  0  0  0  0
  -16.9517  -43.3403  -11.4781 C   0  0  0  0  0  0  0  0  0  0  0  0
  -16.6605  -43.1584  -10.1449 C   0  0  0  0  0  0  0  0  0  0  0  0
  -17.4271  -42.2902   -9.4045 C   0  0  0  0  0  0  0  0  0  0  0  0
  -18.5040  -41.6088  -10.0250 C   0  0  0  0  0  0  0  0  0  0  0  0
  -17.3214  -41.8602   -7.9955 C   0  0  0  0  0  0  0  0  0  0  0  0
  -18.4317  -41.7317   -7.2886 O   0  0  0  0  0  0  0  0  0  0  0  0
  -16.1916  -41.5346   -7.2008 N   0  0  0  0  0  0  0  0  0  0  0  0
  -15.1273  -40.6103   -7.5035 C   0  0  1  0  0  0  0  0  0  0  0  0
  -14.2651  -40.9578   -8.6575 C   0  0  0  0  0  0  0  0  0  0  0  0
  -13.3601  -42.1394   -8.3577 C   0  0  2  0  0  0  0  0  0  0  0  0
  -12.9284  -42.0760   -6.9206 C   0  0  0  0  0  0  0  0  0  0  0  0
  -12.1664  -42.0806   -9.2948 C   0  0  0  0  0  0  0  0  0  0  0  0
  -11.3305  -43.2944   -9.2064 C   0  0  0  0  0  0  0  0  0  0  0  0
  -11.9768  -44.4927   -9.3822 O   0  0  0  0  0  0  0  0  0  0  0  0
  -12.1738  -44.8443  -10.7383 C   0  0  0  0  0  0  0  0  0  0  0  0
  -13.6601  -44.7658  -10.9661 C   0  0  0  0  0  0  0  0  0  0  0  0
  -14.1627  -45.2704  -12.2830 C   0  0  0  0  0  0  0  0  0  0  0  0
  -14.9218  -44.1460  -12.9431 C   0  0  0  0  0  0  0  0  0  0  0  0
  -16.2986  -44.1142  -12.4905 N   0  0  0  0  0  0  0  0  0  0  0  0
  -15.6538  -39.1822   -7.5667 C   0  0  2  0  0  0  0  0  0  0  0  0
  -14.9302  -38.3870   -6.6955 O   0  0  0  0  0  0  0  0  0  0  0  0
  -17.1167  -39.1170   -7.1913 C   0  0  0  0  0  0  0  0  0  0  0  0
  -17.7552  -37.9358   -7.6316 N   0  0  0  0  0  0  0  0  0  0  0  0
  -19.1007  -37.6980   -7.2262 C   0  0  0  0  0  0  0  0  0  0  0  0
  -20.1517  -38.4287   -7.9442 C   0  0  0  0  0  0  0  0  0  0  0  0
  -20.3924  -38.1736   -9.3009 C   0  0  0  0  0  0  0  0  0  0  0  0
  -21.3902  -38.8315   -9.9690 C   0  0  0  0  0  0  0  0  0  0  0  0
  -22.1984  -39.7630   -9.3585 C   0  0  0  0  0  0  0  0  0  0  0  0
  -21.9616  -40.0125   -8.0303 C   0  0  0  0  0  0  0  0  0  0  0  0
  -20.9615  -39.3597   -7.3435 C   0  0  0  0  0  0  0  0  0  0  0  0
  -20.8005  -39.7178   -6.0220 F   0  0  0  0  0  0  0  0  0  0  0  0
  -21.6395  -38.5527  -11.4161 C   0  0  0  0  0  0  0  0  0  0  0  0
  -20.6479  -37.7224  -11.8924 F   0  0  0  0  0  0  0  0  0  0  0  0
  -22.8377  -37.9015  -11.6059 F   0  0  0  0  0  0  0  0  0  0  0  0
  -21.5942  -39.7355  -12.1222 F   0  0  0  0  0  0  0  0  0  0  0  0
  1  2  1  0
  2  3  1  0
  3  4  1  0
  4  5  2  0
  5  6  1  0
  6  7  2  0
  7  8  1  0
  8  9  2  0
  8 10  1  0
 10 11  2  0
 10 12  1  0
 12 13  1  0
 13 14  1  6
 14 15  1  0
 15 16  1  1
 15 17  1  0
 17 18  1  0
 18 19  1  0
 19 20  1  0
 20 21  1  0
 21 22  1  0
 22 23  1  0
 23 24  1  0
 13 25  1  0
 25 26  1  1
 25 27  1  0
 27 28  1  0
 28 29  1  0
 29 30  1  0
 30 31  2  0
 31 32  1  0
 32 33  2  0
 33 34  1  0
 34 35  2  0
 35 36  1  0
 32 37  1  0
 37 38  1  0
 37 39  1  0
 37 40  1  0
  9  4  1  0
 24  6  1  0
 35 30  1  0
M  END
$$$$
