
     RDKit          3D

 40 42  0  0  0  0  0  0  0  0999 V2000
  -24.0884  -42.9012   -6.0623 C   0  0  0  0  0  0  0  0  0  0  0  0
  -23.7766  -42.6444   -7.4009 O   0  0  0  0  0  0  0  0  0  0  0  0
  -22.7239  -41.7603   -7.4231 C   0  0  0  0  0  0  0  0  0  0  0  0
  -21.4388  -42.4754   -7.6277 C   0  0  0  0  0  0  0  0  0  0  0  0
  -21.2724  -43.4019   -8.6162 C   0  0  0  0  0  0  0  0  0  0  0  0
  -20.0599  -44.1099   -8.8457 C   0  0  0  0  0  0  0  0  0  0  0  0
  -18.9816  -43.8605   -8.0268 C   0  0  0  0  0  0  0  0  0  0  0  0
  -19.1053  -42.9311   -7.0214 C   0  0  0  0  0  0  0  0  0  0  0  0
  -20.3394  -42.2571   -6.8436 C   0  0  0  0  0  0  0  0  0  0  0  0
  -18.1242  -42.4247   -6.0404 C   0  0  0  0  0  0  0  0  0  0  0  0
  -18.5205  -42.2261   -4.7945 O   0  0  0  0  0  0  0  0  0  0  0  0
  -16.7534  -42.0853   -6.1808 N   0  0  0  0  0  0  0  0  0  0  0  0
  -16.1487  -41.2088   -7.1529 C   0  0  1  0  0  0  0  0  0  0  0  0
  -16.2264  -41.6447   -8.5670 C   0  0  0  0  0  0  0  0  0  0  0  0
  -15.3224  -42.8314   -8.8485 C   0  0  2  0  0  0  0  0  0  0  0  0
  -14.0678  -42.6982   -8.0334 C   0  0  0  0  0  0  0  0  0  0  0  0
  -15.0133  -42.8584  -10.3352 C   0  0  0  0  0  0  0  0  0  0  0  0
  -14.2976  -44.0874  -10.7316 C   0  0  0  0  0  0  0  0  0  0  0  0
  -14.8862  -45.2758  -10.3768 O   0  0  0  0  0  0  0  0  0  0  0  0
  -15.9044  -45.6984  -11.2635 C   0  0  0  0  0  0  0  0  0  0  0  0
  -17.1894  -45.5927  -10.4859 C   0  0  0  0  0  0  0  0  0  0  0  0
  -18.4137  -46.1575  -11.1367 C   0  0  0  0  0  0  0  0  0  0  0  0
  -19.4372  -45.0524  -11.2206 C   0  0  0  0  0  0  0  0  0  0  0  0
  -20.1996  -44.9575   -9.9913 N   0  0  0  0  0  0  0  0  0  0  0  0
  -16.6148  -39.7729   -6.9494 C   0  0  2  0  0  0  0  0  0  0  0  0
  -15.7120  -39.1075   -6.1387 O   0  0  0  0  0  0  0  0  0  0  0  0
  -17.9819  -39.7231   -6.3061 C   0  0  0  0  0  0  0  0  0  0  0  0
  -18.9750  -39.1687   -7.1447 N   0  0  0  0  0  0  0  0  0  0  0  0
  -18.8890  -37.7859   -7.4791 C   0  0  0  0  0  0  0  0  0  0  0  0
  -19.7059  -37.3212   -8.6063 C   0  0  0  0  0  0  0  0  0  0  0  0
  -19.1005  -36.7418   -9.7294 C   0  0  0  0  0  0  0  0  0  0  0  0
  -19.8590  -36.2804  -10.7718 C   0  0  0  0  0  0  0  0  0  0  0  0
  -21.2329  -36.3577  -10.7765 C   0  0  0  0  0  0  0  0  0  0  0  0
  -21.8248  -36.9256   -9.6767 C   0  0  0  0  0  0  0  0  0  0  0  0
  -21.0762  -37.3953   -8.6197 C   0  0  0  0  0  0  0  0  0  0  0  0
  -21.7826  -37.9726   -7.5862 F   0  0  0  0  0  0  0  0  0  0  0  0
  -19.2042  -35.6638  -11.9656 C   0  0  0  0  0  0  0  0  0  0  0  0
  -18.7458  -36.6643  -12.7952 F   0  0  0  0  0  0  0  0  0  0  0  0
  -18.1130  -34.9043  -11.6071 F   0  0  0  0  0  0  0  0  0  0  0  0
  -20.1313  -34.9144  -12.6573 F   0  0  0  0  0  0  0  0  0  0  0  0
  1  2  1  0
  2  3  1  0
  3  4  1  0
  4  5  2  0
  5  6  1  0
  6  7  2  0
  7  8  1  0
  8  9  2  0
  8 10  1  0
 10 11  2  0
 10 12  1  0
 12 13  1  0
 13 14  1  6
 14 15  1  0
 15 16  1  1
 15 17  1  0
 17 18  1  0
 18 19  1  0
 19 20  1  0
 20 21  1  0
 21 22  1  0
 22 23  1  0
 23 24  1  0
 13 25  1  0
 25 26  1  1
 25 27  1  0
 27 28  1  0
 28 29  1  0
 29 30  1  0
 30 31  2  0
 31 32  1  0
 32 33  2  0
 33 34  1  0
 34 35  2  0
 35 36  1  0
 32 37  1  0
 37 38  1  0
 37 39  1  0
 37 40  1  0
  9  4  1  0
 24  6  1  0
 35 30  1  0
M  END
$$$$
