
     RDKit          3D

 40 42  0  0  0  0  0  0  0  0999 V2000
  -23.6171  -39.4403   -6.4294 C   0  0  0  0  0  0  0  0  0  0  0  0
  -22.3930  -38.9092   -6.8473 O   0  0  0  0  0  0  0  0  0  0  0  0
  -22.6480  -38.0220   -7.8663 C   0  0  0  0  0  0  0  0  0  0  0  0
  -21.5308  -38.0065   -8.8441 C   0  0  0  0  0  0  0  0  0  0  0  0
  -21.4589  -37.0872   -9.8505 C   0  0  0  0  0  0  0  0  0  0  0  0
  -20.4078  -37.0379  -10.8080 C   0  0  0  0  0  0  0  0  0  0  0  0
  -19.3973  -37.9698  -10.7315 C   0  0  0  0  0  0  0  0  0  0  0  0
  -19.4289  -38.9108   -9.7299 C   0  0  0  0  0  0  0  0  0  0  0  0
  -20.5025  -38.9078   -8.8046 C   0  0  0  0  0  0  0  0  0  0  0  0
  -18.4755  -39.9804   -9.3713 C   0  0  0  0  0  0  0  0  0  0  0  0
  -18.9541  -41.1591   -9.0100 O   0  0  0  0  0  0  0  0  0  0  0  0
  -17.0569  -39.9925   -9.3332 N   0  0  0  0  0  0  0  0  0  0  0  0
  -16.1765  -39.0634   -8.6696 C   0  0  1  0  0  0  0  0  0  0  0  0
  -16.1905  -37.6708   -9.1759 C   0  0  0  0  0  0  0  0  0  0  0  0
  -15.5353  -37.5536  -10.5405 C   0  0  2  0  0  0  0  0  0  0  0  0
  -14.3781  -38.5082  -10.6140 C   0  0  0  0  0  0  0  0  0  0  0  0
  -15.0785  -36.1180  -10.7327 C   0  0  0  0  0  0  0  0  0  0  0  0
  -14.6028  -35.8658  -12.1074 C   0  0  0  0  0  0  0  0  0  0  0  0
  -15.4666  -36.1985  -13.1212 O   0  0  0  0  0  0  0  0  0  0  0  0
  -16.4483  -35.2143  -13.3839 C   0  0  0  0  0  0  0  0  0  0  0  0
  -17.7583  -35.8249  -12.9615 C   0  0  0  0  0  0  0  0  0  0  0  0
  -18.9963  -35.0558  -13.3042 C   0  0  0  0  0  0  0  0  0  0  0  0
  -19.7449  -34.7998  -12.0196 C   0  0  0  0  0  0  0  0  0  0  0  0
  -20.5992  -35.9222  -11.6850 N   0  0  0  0  0  0  0  0  0  0  0  0
  -16.3448  -39.1454   -7.1578 C   0  0  2  0  0  0  0  0  0  0  0  0
  -15.2142  -38.6381   -6.5417 O   0  0  0  0  0  0  0  0  0  0  0  0
  -16.5537  -40.5719   -6.7031 C   0  0  0  0  0  0  0  0  0  0  0  0
  -17.8734  -40.8340   -6.2713 N   0  0  0  0  0  0  0  0  0  0  0  0
  -18.6089  -41.8682   -6.9199 C   0  0  0  0  0  0  0  0  0  0  0  0
  -18.9620  -43.0415   -6.1120 C   0  0  0  0  0  0  0  0  0  0  0  0
  -18.4768  -43.1739   -4.8041 C   0  0  0  0  0  0  0  0  0  0  0  0
  -18.7793  -44.2797   -4.0554 C   0  0  0  0  0  0  0  0  0  0  0  0
  -19.5623  -45.3047   -4.5350 C   0  0  0  0  0  0  0  0  0  0  0  0
  -20.0374  -45.1740   -5.8154 C   0  0  0  0  0  0  0  0  0  0  0  0
  -19.7428  -44.0677   -6.5819 C   0  0  0  0  0  0  0  0  0  0  0  0
  -20.3032  -44.0362   -7.8410 F   0  0  0  0  0  0  0  0  0  0  0  0
  -18.2570  -44.4121   -2.6612 C   0  0  0  0  0  0  0  0  0  0  0  0
  -17.2941  -45.3977   -2.6325 F   0  0  0  0  0  0  0  0  0  0  0  0
  -19.2488  -44.7902   -1.7841 F   0  0  0  0  0  0  0  0  0  0  0  0
  -17.6752  -43.2229   -2.2780 F   0  0  0  0  0  0  0  0  0  0  0  0
  1  2  1  0
  2  3  1  0
  3  4  1  0
  4  5  2  0
  5  6  1  0
  6  7  2  0
  7  8  1  0
  8  9  2  0
  8 10  1  0
 10 11  2  0
 10 12  1  0
 12 13  1  0
 13 14  1  6
 14 15  1  0
 15 16  1  1
 15 17  1  0
 17 18  1  0
 18 19  1  0
 19 20  1  0
 20 21  1  0
 21 22  1  0
 22 23  1  0
 23 24  1  0
 13 25  1  0
 25 26  1  1
 25 27  1  0
 27 28  1  0
 28 29  1  0
 29 30  1  0
 30 31  2  0
 31 32  1  0
 32 33  2  0
 33 34  1  0
 34 35  2  0
 35 36  1  0
 32 37  1  0
 37 38  1  0
 37 39  1  0
 37 40  1  0
  9  4  1  0
 24  6  1  0
 35 30  1  0
M  END
$$$$
