
     RDKit          3D

 40 42  0  0  0  0  0  0  0  0999 V2000
  -13.0122  -45.2098   -9.2986 C   0  0  0  0  0  0  0  0  0  0  0  0
  -14.2014  -44.7087   -8.7602 O   0  0  0  0  0  0  0  0  0  0  0  0
  -15.2314  -45.4988   -9.2131 C   0  0  0  0  0  0  0  0  0  0  0  0
  -16.5339  -44.8004   -9.0708 C   0  0  0  0  0  0  0  0  0  0  0  0
  -17.6354  -45.4162   -8.5506 C   0  0  0  0  0  0  0  0  0  0  0  0
  -18.9010  -44.7847   -8.3980 C   0  0  0  0  0  0  0  0  0  0  0  0
  -19.0409  -43.4751   -8.7991 C   0  0  0  0  0  0  0  0  0  0  0  0
  -17.9547  -42.8162   -9.3244 C   0  0  0  0  0  0  0  0  0  0  0  0
  -16.7192  -43.4992   -9.4499 C   0  0  0  0  0  0  0  0  0  0  0  0
  -17.7923  -41.4209   -9.7810 C   0  0  0  0  0  0  0  0  0  0  0  0
  -17.0944  -41.1927  -10.8807 O   0  0  0  0  0  0  0  0  0  0  0  0
  -18.2658  -40.1991   -9.2360 N   0  0  0  0  0  0  0  0  0  0  0  0
  -18.1260  -39.7136   -7.8857 C   0  0  1  0  0  0  0  0  0  0  0  0
  -18.8152  -40.4960   -6.8327 C   0  0  0  0  0  0  0  0  0  0  0  0
  -20.3234  -40.3345   -6.8975 C   0  0  2  0  0  0  0  0  0  0  0  0
  -20.6502  -38.9272   -7.3081 C   0  0  0  0  0  0  0  0  0  0  0  0
  -20.9007  -40.6577   -5.5304 C   0  0  0  0  0  0  0  0  0  0  0  0
  -22.3759  -40.7138   -5.5495 C   0  0  0  0  0  0  0  0  0  0  0  0
  -22.9413  -41.5486   -6.4810 O   0  0  0  0  0  0  0  0  0  0  0  0
  -22.9914  -42.9045   -6.0803 C   0  0  0  0  0  0  0  0  0  0  0  0
  -22.0317  -43.6308   -6.9851 C   0  0  0  0  0  0  0  0  0  0  0  0
  -22.0276  -45.1252   -6.8946 C   0  0  0  0  0  0  0  0  0  0  0  0
  -20.6206  -45.5587   -6.5650 C   0  0  0  0  0  0  0  0  0  0  0  0
  -19.8212  -45.6828   -7.7679 N   0  0  0  0  0  0  0  0  0  0  0  0
  -16.6635  -39.4403   -7.5585 C   0  0  2  0  0  0  0  0  0  0  0  0
  -16.5853  -38.4397   -6.6058 O   0  0  0  0  0  0  0  0  0  0  0  0
  -15.8950  -39.0098   -8.7871 C   0  0  0  0  0  0  0  0  0  0  0  0
  -15.9393  -37.6159   -9.0148 N   0  0  0  0  0  0  0  0  0  0  0  0
  -15.6630  -37.1315  -10.3264 C   0  0  0  0  0  0  0  0  0  0  0  0
  -16.8082  -36.9598  -11.2280 C   0  0  0  0  0  0  0  0  0  0  0  0
  -17.8234  -36.0447  -10.9184 C   0  0  0  0  0  0  0  0  0  0  0  0
  -18.9084  -35.9005  -11.7411 C   0  0  0  0  0  0  0  0  0  0  0  0
  -19.0614  -36.6316  -12.8968 C   0  0  0  0  0  0  0  0  0  0  0  0
  -18.0667  -37.5268  -13.1994 C   0  0  0  0  0  0  0  0  0  0  0  0
  -16.9683  -37.6838  -12.3828 C   0  0  0  0  0  0  0  0  0  0  0  0
  -16.0216  -38.5911  -12.8084 F   0  0  0  0  0  0  0  0  0  0  0  0
  -19.9863  -34.9219  -11.4025 C   0  0  0  0  0  0  0  0  0  0  0  0
  -19.4131  -33.7024  -11.1131 F   0  0  0  0  0  0  0  0  0  0  0  0
  -20.6906  -35.3127  -10.2858 F   0  0  0  0  0  0  0  0  0  0  0  0
  -20.8177  -34.7656  -12.4905 F   0  0  0  0  0  0  0  0  0  0  0  0
  1  2  1  0
  2  3  1  0
  3  4  1  0
  4  5  2  0
  5  6  1  0
  6  7  2  0
  7  8  1  0
  8  9  2  0
  8 10  1  0
 10 11  2  0
 10 12  1  0
 12 13  1  0
 13 14  1  1
 14 15  1  0
 15 16  1  1
 15 17  1  0
 17 18  1  0
 18 19  1  0
 19 20  1  0
 20 21  1  0
 21 22  1  0
 22 23  1  0
 23 24  1  0
 13 25  1  0
 25 26  1  1
 25 27  1  0
 27 28  1  0
 28 29  1  0
 29 30  1  0
 30 31  2  0
 31 32  1  0
 32 33  2  0
 33 34  1  0
 34 35  2  0
 35 36  1  0
 32 37  1  0
 37 38  1  0
 37 39  1  0
 37 40  1  0
  9  4  1  0
 24  6  1  0
 35 30  1  0
M  END
$$$$
