
     RDKit          3D

 40 42  0  0  0  0  0  0  0  0999 V2000
  -23.6125  -43.1838  -10.5107 C   0  0  0  0  0  0  0  0  0  0  0  0
  -22.8369  -42.4093   -9.6425 O   0  0  0  0  0  0  0  0  0  0  0  0
  -22.6545  -43.1320   -8.4871 C   0  0  0  0  0  0  0  0  0  0  0  0
  -21.2472  -43.5898   -8.3679 C   0  0  0  0  0  0  0  0  0  0  0  0
  -20.8619  -44.8520   -8.7166 C   0  0  0  0  0  0  0  0  0  0  0  0
  -19.5259  -45.3310   -8.6170 C   0  0  0  0  0  0  0  0  0  0  0  0
  -18.5523  -44.4841   -8.1372 C   0  0  0  0  0  0  0  0  0  0  0  0
  -18.8970  -43.2025   -7.7789 C   0  0  0  0  0  0  0  0  0  0  0  0
  -20.2453  -42.7833   -7.9022 C   0  0  0  0  0  0  0  0  0  0  0  0
  -18.0755  -42.0753   -7.2930 C   0  0  0  0  0  0  0  0  0  0  0  0
  -18.5546  -41.3160   -6.3221 O   0  0  0  0  0  0  0  0  0  0  0  0
  -16.7927  -41.6157   -7.6898 N   0  0  0  0  0  0  0  0  0  0  0  0
  -16.3309  -41.3050   -9.0198 C   0  0  1  0  0  0  0  0  0  0  0  0
  -16.2629  -42.4383   -9.9719 C   0  0  0  0  0  0  0  0  0  0  0  0
  -15.1335  -43.3965   -9.6383 C   0  0  2  0  0  0  0  0  0  0  0  0
  -13.9643  -42.6142   -9.1120 C   0  0  0  0  0  0  0  0  0  0  0  0
  -14.7633  -44.1605  -10.8976 C   0  0  0  0  0  0  0  0  0  0  0  0
  -13.8055  -45.2503  -10.6248 C   0  0  0  0  0  0  0  0  0  0  0  0
  -14.1649  -46.1465   -9.6489 O   0  0  0  0  0  0  0  0  0  0  0  0
  -15.0430  -47.1610  -10.0975 C   0  0  0  0  0  0  0  0  0  0  0  0
  -16.3551  -46.8959   -9.4083 C   0  0  0  0  0  0  0  0  0  0  0  0
  -17.4173  -47.9390   -9.5676 C   0  0  0  0  0  0  0  0  0  0  0  0
  -18.6326  -47.2667  -10.1569 C   0  0  0  0  0  0  0  0  0  0  0  0
  -19.4495  -46.6700   -9.1185 N   0  0  0  0  0  0  0  0  0  0  0  0
  -17.0766  -40.1021   -9.5833 C   0  0  2  0  0  0  0  0  0  0  0  0
  -16.1634  -39.1484   -9.9975 O   0  0  0  0  0  0  0  0  0  0  0  0
  -17.9933  -39.4882   -8.5498 C   0  0  0  0  0  0  0  0  0  0  0  0
  -17.3920  -38.4359   -7.8232 N   0  0  0  0  0  0  0  0  0  0  0  0
  -18.2323  -37.5470   -7.0918 C   0  0  0  0  0  0  0  0  0  0  0  0
  -19.6276  -37.4353   -7.5327 C   0  0  0  0  0  0  0  0  0  0  0  0
  -20.6652  -37.9391   -6.7368 C   0  0  0  0  0  0  0  0  0  0  0  0
  -21.9666  -37.8634   -7.1556 C   0  0  0  0  0  0  0  0  0  0  0  0
  -22.3236  -37.2993   -8.3589 C   0  0  0  0  0  0  0  0  0  0  0  0
  -21.3072  -36.8058   -9.1372 C   0  0  0  0  0  0  0  0  0  0  0  0
  -19.9926  -36.8735   -8.7304 C   0  0  0  0  0  0  0  0  0  0  0  0
  -19.0647  -36.3163   -9.5841 F   0  0  0  0  0  0  0  0  0  0  0  0
  -23.0665  -38.4036   -6.2998 C   0  0  0  0  0  0  0  0  0  0  0  0
  -23.6075  -37.3751   -5.5590 F   0  0  0  0  0  0  0  0  0  0  0  0
  -22.5978  -39.3416   -5.4074 F   0  0  0  0  0  0  0  0  0  0  0  0
  -24.0547  -38.9275   -7.1052 F   0  0  0  0  0  0  0  0  0  0  0  0
  1  2  1  0
  2  3  1  0
  3  4  1  0
  4  5  2  0
  5  6  1  0
  6  7  2  0
  7  8  1  0
  8  9  2  0
  8 10  1  0
 10 11  2  0
 10 12  1  0
 12 13  1  0
 13 14  1  6
 14 15  1  0
 15 16  1  6
 15 17  1  0
 17 18  1  0
 18 19  1  0
 19 20  1  0
 20 21  1  0
 21 22  1  0
 22 23  1  0
 23 24  1  0
 13 25  1  0
 25 26  1  1
 25 27  1  0
 27 28  1  0
 28 29  1  0
 29 30  1  0
 30 31  2  0
 31 32  1  0
 32 33  2  0
 33 34  1  0
 34 35  2  0
 35 36  1  0
 32 37  1  0
 37 38  1  0
 37 39  1  0
 37 40  1  0
  9  4  1  0
 24  6  1  0
 35 30  1  0
M  END
$$$$
