
     RDKit          3D

 40 42  0  0  0  0  0  0  0  0999 V2000
  -22.9531  -39.4498   -2.8527 C   0  0  0  0  0  0  0  0  0  0  0  0
  -22.4087  -38.5779   -3.8006 O   0  0  0  0  0  0  0  0  0  0  0  0
  -22.8099  -39.0078   -5.0435 C   0  0  0  0  0  0  0  0  0  0  0  0
  -22.0482  -40.2138   -5.4558 C   0  0  0  0  0  0  0  0  0  0  0  0
  -22.6674  -41.3590   -5.8657 C   0  0  0  0  0  0  0  0  0  0  0  0
  -21.9762  -42.5359   -6.2675 C   0  0  0  0  0  0  0  0  0  0  0  0
  -20.5996  -42.5373   -6.2422 C   0  0  0  0  0  0  0  0  0  0  0  0
  -19.9363  -41.4024   -5.8400 C   0  0  0  0  0  0  0  0  0  0  0  0
  -20.6811  -40.2604   -5.4525 C   0  0  0  0  0  0  0  0  0  0  0  0
  -18.4935  -41.0959   -5.7637 C   0  0  0  0  0  0  0  0  0  0  0  0
  -18.0453  -40.4181   -4.7203 O   0  0  0  0  0  0  0  0  0  0  0  0
  -17.4258  -41.4029   -6.6467 N   0  0  0  0  0  0  0  0  0  0  0  0
  -17.3452  -41.1566   -8.0650 C   0  0  1  0  0  0  0  0  0  0  0  0
  -18.3114  -41.8921   -8.9143 C   0  0  0  0  0  0  0  0  0  0  0  0
  -17.9857  -43.3726   -8.9979 C   0  0  2  0  0  0  0  0  0  0  0  0
  -16.4941  -43.5484   -9.0022 C   0  0  0  0  0  0  0  0  0  0  0  0
  -18.6102  -43.9315  -10.2645 C   0  0  0  0  0  0  0  0  0  0  0  0
  -18.5083  -45.4029  -10.3314 C   0  0  0  0  0  0  0  0  0  0  0  0
  -18.9943  -46.0965   -9.2510 O   0  0  0  0  0  0  0  0  0  0  0  0
  -20.3956  -46.2890   -9.2765 C   0  0  0  0  0  0  0  0  0  0  0  0
  -20.9404  -45.4553   -8.1472 C   0  0  0  0  0  0  0  0  0  0  0  0
  -22.3949  -45.6218   -7.8338 C   0  0  0  0  0  0  0  0  0  0  0  0
  -23.0430  -44.2635   -7.9389 C   0  0  0  0  0  0  0  0  0  0  0  0
  -22.9139  -43.5300   -6.6952 N   0  0  0  0  0  0  0  0  0  0  0  0
  -17.3223  -39.6610   -8.3532 C   0  0  2  0  0  0  0  0  0  0  0  0
  -16.0140  -39.2102   -8.3370 O   0  0  0  0  0  0  0  0  0  0  0  0
  -18.1202  -38.8896   -7.3268 C   0  0  0  0  0  0  0  0  0  0  0  0
  -18.6560  -37.6816   -7.8271 N   0  0  0  0  0  0  0  0  0  0  0  0
  -17.7611  -36.7114   -8.3650 C   0  0  0  0  0  0  0  0  0  0  0  0
  -17.6818  -36.6169   -9.8274 C   0  0  0  0  0  0  0  0  0  0  0  0
  -16.5118  -36.1559  -10.4457 C   0  0  0  0  0  0  0  0  0  0  0  0
  -16.4414  -36.0384  -11.8081 C   0  0  0  0  0  0  0  0  0  0  0  0
  -17.4952  -36.3601  -12.6325 C   0  0  0  0  0  0  0  0  0  0  0  0
  -18.6401  -36.8119  -12.0264 C   0  0  0  0  0  0  0  0  0  0  0  0
  -18.7272  -36.9364  -10.6570 C   0  0  0  0  0  0  0  0  0  0  0  0
  -19.9179  -37.4301  -10.1680 F   0  0  0  0  0  0  0  0  0  0  0  0
  -15.1892  -35.5456  -12.4585 C   0  0  0  0  0  0  0  0  0  0  0  0
  -14.4324  -34.8703  -11.5255 F   0  0  0  0  0  0  0  0  0  0  0  0
  -15.4635  -34.6585  -13.4752 F   0  0  0  0  0  0  0  0  0  0  0  0
  -14.4594  -36.6219  -12.9154 F   0  0  0  0  0  0  0  0  0  0  0  0
  1  2  1  0
  2  3  1  0
  3  4  1  0
  4  5  2  0
  5  6  1  0
  6  7  2  0
  7  8  1  0
  8  9  2  0
  8 10  1  0
 10 11  2  0
 10 12  1  0
 12 13  1  0
 13 14  1  6
 14 15  1  0
 15 16  1  6
 15 17  1  0
 17 18  1  0
 18 19  1  0
 19 20  1  0
 20 21  1  0
 21 22  1  0
 22 23  1  0
 23 24  1  0
 13 25  1  0
 25 26  1  1
 25 27  1  0
 27 28  1  0
 28 29  1  0
 29 30  1  0
 30 31  2  0
 31 32  1  0
 32 33  2  0
 33 34  1  0
 34 35  2  0
 35 36  1  0
 32 37  1  0
 37 38  1  0
 37 39  1  0
 37 40  1  0
  9  4  1  0
 24  6  1  0
 35 30  1  0
M  END
$$$$
