
     RDKit          3D

 40 42  0  0  0  0  0  0  0  0999 V2000
  -20.5900  -45.3790   -9.9946 C   0  0  0  0  0  0  0  0  0  0  0  0
  -21.1676  -44.1059   -9.9689 O   0  0  0  0  0  0  0  0  0  0  0  0
  -20.3221  -43.2494  -10.6336 C   0  0  0  0  0  0  0  0  0  0  0  0
  -18.9189  -43.4421  -10.1880 C   0  0  0  0  0  0  0  0  0  0  0  0
  -18.0506  -44.2576  -10.8543 C   0  0  0  0  0  0  0  0  0  0  0  0
  -16.7001  -44.4709  -10.4611 C   0  0  0  0  0  0  0  0  0  0  0  0
  -16.2267  -43.8270   -9.3400 C   0  0  0  0  0  0  0  0  0  0  0  0
  -17.0673  -42.9926   -8.6422 C   0  0  0  0  0  0  0  0  0  0  0  0
  -18.4026  -42.8197   -9.0847 C   0  0  0  0  0  0  0  0  0  0  0  0
  -16.8294  -42.1431   -7.4575 C   0  0  0  0  0  0  0  0  0  0  0  0
  -17.7638  -42.0845   -6.5236 O   0  0  0  0  0  0  0  0  0  0  0  0
  -15.7267  -41.3234   -7.1026 N   0  0  0  0  0  0  0  0  0  0  0  0
  -15.0865  -40.3017   -7.8933 C   0  0  1  0  0  0  0  0  0  0  0  0
  -14.4010  -40.7589   -9.1249 C   0  0  0  0  0  0  0  0  0  0  0  0
  -13.1310  -41.5318   -8.8173 C   0  0  2  0  0  0  0  0  0  0  0  0
  -12.4697  -40.9307   -7.6102 C   0  0  0  0  0  0  0  0  0  0  0  0
  -12.2226  -41.4673  -10.0327 C   0  0  0  0  0  0  0  0  0  0  0  0
  -11.0479  -42.3511   -9.8957 C   0  0  0  0  0  0  0  0  0  0  0  0
  -11.3069  -43.6668   -9.6019 O   0  0  0  0  0  0  0  0  0  0  0  0
  -11.6439  -44.4505  -10.7305 C   0  0  0  0  0  0  0  0  0  0  0  0
  -13.0942  -44.8145  -10.5535 C   0  0  0  0  0  0  0  0  0  0  0  0
  -13.6596  -45.8026  -11.5258 C   0  0  0  0  0  0  0  0  0  0  0  0
  -14.8462  -45.1557  -12.1961 C   0  0  0  0  0  0  0  0  0  0  0  0
  -16.0476  -45.3290  -11.4036 N   0  0  0  0  0  0  0  0  0  0  0  0
  -16.0359  -39.1367   -8.1418 C   0  0  2  0  0  0  0  0  0  0  0  0
  -15.5552  -38.0079   -7.5017 O   0  0  0  0  0  0  0  0  0  0  0  0
  -17.4251  -39.4386   -7.6278 C   0  0  0  0  0  0  0  0  0  0  0  0
  -18.3327  -39.8014   -8.6483 N   0  0  0  0  0  0  0  0  0  0  0  0
  -19.7296  -39.6997   -8.3845 C   0  0  0  0  0  0  0  0  0  0  0  0
  -20.5079  -38.8068   -9.2511 C   0  0  0  0  0  0  0  0  0  0  0  0
  -20.3934  -38.8945  -10.6450 C   0  0  0  0  0  0  0  0  0  0  0  0
  -21.0952  -38.0454  -11.4582 C   0  0  0  0  0  0  0  0  0  0  0  0
  -21.9369  -37.0759  -10.9631 C   0  0  0  0  0  0  0  0  0  0  0  0
  -22.0488  -36.9911   -9.5984 C   0  0  0  0  0  0  0  0  0  0  0  0
  -21.3501  -37.8380   -8.7660 C   0  0  0  0  0  0  0  0  0  0  0  0
  -21.5689  -37.6759   -7.4145 F   0  0  0  0  0  0  0  0  0  0  0  0
  -20.9666  -38.1465  -12.9439 C   0  0  0  0  0  0  0  0  0  0  0  0
  -21.9731  -37.4132  -13.5343 F   0  0  0  0  0  0  0  0  0  0  0  0
  -21.1070  -39.4464  -13.3757 F   0  0  0  0  0  0  0  0  0  0  0  0
  -19.7552  -37.6168  -13.3333 F   0  0  0  0  0  0  0  0  0  0  0  0
  1  2  1  0
  2  3  1  0
  3  4  1  0
  4  5  2  0
  5  6  1  0
  6  7  2  0
  7  8  1  0
  8  9  2  0
  8 10  1  0
 10 11  2  0
 10 12  1  0
 12 13  1  0
 13 14  1  6
 14 15  1  0
 15 16  1  1
 15 17  1  0
 17 18  1  0
 18 19  1  0
 19 20  1  0
 20 21  1  0
 21 22  1  0
 22 23  1  0
 23 24  1  0
 13 25  1  0
 25 26  1  1
 25 27  1  0
 27 28  1  0
 28 29  1  0
 29 30  1  0
 30 31  2  0
 31 32  1  0
 32 33  2  0
 33 34  1  0
 34 35  2  0
 35 36  1  0
 32 37  1  0
 37 38  1  0
 37 39  1  0
 37 40  1  0
  9  4  1  0
 24  6  1  0
 35 30  1  0
M  END
$$$$
