
     RDKit          3D

 40 42  0  0  0  0  0  0  0  0999 V2000
  -13.8032  -43.6241  -12.6124 C   0  0  0  0  0  0  0  0  0  0  0  0
  -15.0897  -44.1209  -12.3816 O   0  0  0  0  0  0  0  0  0  0  0  0
  -15.1654  -44.4876  -11.0587 C   0  0  0  0  0  0  0  0  0  0  0  0
  -16.4555  -44.0550  -10.4644 C   0  0  0  0  0  0  0  0  0  0  0  0
  -17.2589  -44.9122   -9.7695 C   0  0  0  0  0  0  0  0  0  0  0  0
  -18.5016  -44.5395   -9.1857 C   0  0  0  0  0  0  0  0  0  0  0  0
  -18.9365  -43.2407   -9.3257 C   0  0  0  0  0  0  0  0  0  0  0  0
  -18.1552  -42.3436  -10.0145 C   0  0  0  0  0  0  0  0  0  0  0  0
  -16.9257  -42.7751  -10.5724 C   0  0  0  0  0  0  0  0  0  0  0  0
  -18.3324  -40.9006  -10.2751 C   0  0  0  0  0  0  0  0  0  0  0  0
  -18.0244  -40.4319  -11.4727 O   0  0  0  0  0  0  0  0  0  0  0  0
  -18.7952  -39.8509   -9.4397 N   0  0  0  0  0  0  0  0  0  0  0  0
  -18.3389  -39.4983   -8.1183 C   0  0  1  0  0  0  0  0  0  0  0  0
  -18.5736  -40.5021   -7.0538 C   0  0  0  0  0  0  0  0  0  0  0  0
  -20.0423  -40.6089   -6.6845 C   0  0  2  0  0  0  0  0  0  0  0  0
  -20.6707  -39.2473   -6.7680 C   0  0  0  0  0  0  0  0  0  0  0  0
  -20.1449  -41.1780   -5.2802 C   0  0  0  0  0  0  0  0  0  0  0  0
  -21.5382  -41.4965   -4.9102 C   0  0  0  0  0  0  0  0  0  0  0  0
  -22.2258  -42.3129   -5.7735 O   0  0  0  0  0  0  0  0  0  0  0  0
  -21.9641  -43.6911   -5.5901 C   0  0  0  0  0  0  0  0  0  0  0  0
  -21.2164  -44.1295   -6.8211 C   0  0  0  0  0  0  0  0  0  0  0  0
  -20.9740  -45.5996   -6.9687 C   0  0  0  0  0  0  0  0  0  0  0  0
  -19.4854  -45.8058   -7.1013 C   0  0  0  0  0  0  0  0  0  0  0  0
  -19.0614  -45.6519   -8.4790 N   0  0  0  0  0  0  0  0  0  0  0  0
  -16.8988  -39.0033   -8.1582 C   0  0  2  0  0  0  0  0  0  0  0  0
  -16.6307  -38.2775   -7.0108 O   0  0  0  0  0  0  0  0  0  0  0  0
  -16.6509  -38.1256   -9.3637 C   0  0  0  0  0  0  0  0  0  0  0  0
  -15.3056  -38.1358   -9.7962 N   0  0  0  0  0  0  0  0  0  0  0  0
  -15.0255  -37.8147  -11.1562 C   0  0  0  0  0  0  0  0  0  0  0  0
  -15.4971  -36.5134  -11.6440 C   0  0  0  0  0  0  0  0  0  0  0  0
  -14.7084  -35.3667  -11.4808 C   0  0  0  0  0  0  0  0  0  0  0  0
  -15.1551  -34.1449  -11.9081 C   0  0  0  0  0  0  0  0  0  0  0  0
  -16.3805  -33.9761  -12.5110 C   0  0  0  0  0  0  0  0  0  0  0  0
  -17.1519  -35.0994  -12.6710 C   0  0  0  0  0  0  0  0  0  0  0  0
  -16.7171  -36.3361  -12.2470 C   0  0  0  0  0  0  0  0  0  0  0  0
  -17.5674  -37.3936  -12.4907 F   0  0  0  0  0  0  0  0  0  0  0  0
  -14.3067  -32.9274  -11.7295 C   0  0  0  0  0  0  0  0  0  0  0  0
  -13.0215  -33.3155  -11.4180 F   0  0  0  0  0  0  0  0  0  0  0  0
  -14.7566  -32.1466  -10.6886 F   0  0  0  0  0  0  0  0  0  0  0  0
  -14.2737  -32.2180  -12.9107 F   0  0  0  0  0  0  0  0  0  0  0  0
  1  2  1  0
  2  3  1  0
  3  4  1  0
  4  5  2  0
  5  6  1  0
  6  7  2  0
  7  8  1  0
  8  9  2  0
  8 10  1  0
 10 11  2  0
 10 12  1  0
 12 13  1  0
 13 14  1  1
 14 15  1  0
 15 16  1  1
 15 17  1  0
 17 18  1  0
 18 19  1  0
 19 20  1  0
 20 21  1  0
 21 22  1  0
 22 23  1  0
 23 24  1  0
 13 25  1  0
 25 26  1  1
 25 27  1  0
 27 28  1  0
 28 29  1  0
 29 30  1  0
 30 31  2  0
 31 32  1  0
 32 33  2  0
 33 34  1  0
 34 35  2  0
 35 36  1  0
 32 37  1  0
 37 38  1  0
 37 39  1  0
 37 40  1  0
  9  4  1  0
 24  6  1  0
 35 30  1  0
M  END
$$$$
