
     RDKit          3D

 40 42  0  0  0  0  0  0  0  0999 V2000
  -22.2567  -44.1812   -7.0651 C   0  0  0  0  0  0  0  0  0  0  0  0
  -21.2487  -44.8817   -7.7348 O   0  0  0  0  0  0  0  0  0  0  0  0
  -20.8556  -44.1219   -8.8112 C   0  0  0  0  0  0  0  0  0  0  0  0
  -19.3792  -43.9657   -8.8354 C   0  0  0  0  0  0  0  0  0  0  0  0
  -18.5827  -44.7155   -9.6518 C   0  0  0  0  0  0  0  0  0  0  0  0
  -17.1658  -44.5985   -9.7053 C   0  0  0  0  0  0  0  0  0  0  0  0
  -16.5451  -43.6819   -8.8867 C   0  0  0  0  0  0  0  0  0  0  0  0
  -17.3110  -42.9030   -8.0521 C   0  0  0  0  0  0  0  0  0  0  0  0
  -18.7190  -43.0653   -8.0452 C   0  0  0  0  0  0  0  0  0  0  0  0
  -16.9376  -41.8198   -7.1200 C   0  0  0  0  0  0  0  0  0  0  0  0
  -17.5381  -41.7633   -5.9432 O   0  0  0  0  0  0  0  0  0  0  0  0
  -16.0037  -40.7588   -7.2476 N   0  0  0  0  0  0  0  0  0  0  0  0
  -15.8862  -39.8007   -8.3185 C   0  0  1  0  0  0  0  0  0  0  0  0
  -15.5112  -40.3430   -9.6456 C   0  0  0  0  0  0  0  0  0  0  0  0
  -14.0631  -40.7970   -9.6876 C   0  0  2  0  0  0  0  0  0  0  0  0
  -13.2328  -39.8710   -8.8455 C   0  0  0  0  0  0  0  0  0  0  0  0
  -13.5992  -40.7916  -11.1337 C   0  0  0  0  0  0  0  0  0  0  0  0
  -12.2641  -41.4018  -11.2911 C   0  0  0  0  0  0  0  0  0  0  0  0
  -12.1078  -42.6652  -10.7774 O   0  0  0  0  0  0  0  0  0  0  0  0
  -12.5717  -43.6929  -11.6319 C   0  0  0  0  0  0  0  0  0  0  0  0
  -13.7757  -44.2798  -10.9442 C   0  0  0  0  0  0  0  0  0  0  0  0
  -14.3566  -45.5181  -11.5530 C   0  0  0  0  0  0  0  0  0  0  0  0
  -15.8060  -45.2375  -11.8637 C   0  0  0  0  0  0  0  0  0  0  0  0
  -16.6412  -45.4804  -10.7040 N   0  0  0  0  0  0  0  0  0  0  0  0
  -17.1121  -38.8981   -8.3727 C   0  0  2  0  0  0  0  0  0  0  0  0
  -16.7665  -37.6883   -8.9489 O   0  0  0  0  0  0  0  0  0  0  0  0
  -17.6699  -38.6424   -6.9911 C   0  0  0  0  0  0  0  0  0  0  0  0
  -19.0398  -38.2959   -6.9961 N   0  0  0  0  0  0  0  0  0  0  0  0
  -19.9815  -39.2507   -7.4787 C   0  0  0  0  0  0  0  0  0  0  0  0
  -20.8247  -39.9181   -6.4800 C   0  0  0  0  0  0  0  0  0  0  0  0
  -22.2012  -39.6605   -6.4280 C   0  0  0  0  0  0  0  0  0  0  0  0
  -22.9884  -40.2582   -5.4805 C   0  0  0  0  0  0  0  0  0  0  0  0
  -22.4830  -41.1294   -4.5429 C   0  0  0  0  0  0  0  0  0  0  0  0
  -21.1354  -41.3815   -4.5948 C   0  0  0  0  0  0  0  0  0  0  0  0
  -20.3293  -40.7888   -5.5420 C   0  0  0  0  0  0  0  0  0  0  0  0
  -18.9976  -41.1443   -5.5126 F   0  0  0  0  0  0  0  0  0  0  0  0
  -24.4557  -39.9772   -5.4330 C   0  0  0  0  0  0  0  0  0  0  0  0
  -25.1350  -41.1604   -5.2379 F   0  0  0  0  0  0  0  0  0  0  0  0
  -24.9064  -39.4433   -6.6194 F   0  0  0  0  0  0  0  0  0  0  0  0
  -24.7249  -39.1399   -4.3719 F   0  0  0  0  0  0  0  0  0  0  0  0
  1  2  1  0
  2  3  1  0
  3  4  1  0
  4  5  2  0
  5  6  1  0
  6  7  2  0
  7  8  1  0
  8  9  2  0
  8 10  1  0
 10 11  2  0
 10 12  1  0
 12 13  1  0
 13 14  1  6
 14 15  1  0
 15 16  1  1
 15 17  1  0
 17 18  1  0
 18 19  1  0
 19 20  1  0
 20 21  1  0
 21 22  1  0
 22 23  1  0
 23 24  1  0
 13 25  1  0
 25 26  1  1
 25 27  1  0
 27 28  1  0
 28 29  1  0
 29 30  1  0
 30 31  2  0
 31 32  1  0
 32 33  2  0
 33 34  1  0
 34 35  2  0
 35 36  1  0
 32 37  1  0
 37 38  1  0
 37 39  1  0
 37 40  1  0
  9  4  1  0
 24  6  1  0
 35 30  1  0
M  END
$$$$
