
     RDKit          3D

 40 42  0  0  0  0  0  0  0  0999 V2000
  -22.5556  -41.3473   -7.3396 C   0  0  0  0  0  0  0  0  0  0  0  0
  -22.3194  -42.0461   -8.5275 O   0  0  0  0  0  0  0  0  0  0  0  0
  -21.4631  -41.2912   -9.2938 C   0  0  0  0  0  0  0  0  0  0  0  0
  -20.0942  -41.8662   -9.2769 C   0  0  0  0  0  0  0  0  0  0  0  0
  -19.6038  -42.6050  -10.3147 C   0  0  0  0  0  0  0  0  0  0  0  0
  -18.3002  -43.1743  -10.3385 C   0  0  0  0  0  0  0  0  0  0  0  0
  -17.4731  -42.9818   -9.2548 C   0  0  0  0  0  0  0  0  0  0  0  0
  -17.9264  -42.2397   -8.1901 C   0  0  0  0  0  0  0  0  0  0  0  0
  -19.2352  -41.6970   -8.2259 C   0  0  0  0  0  0  0  0  0  0  0  0
  -17.2588  -41.8278   -6.9386 C   0  0  0  0  0  0  0  0  0  0  0  0
  -17.9500  -41.8641   -5.8118 O   0  0  0  0  0  0  0  0  0  0  0  0
  -15.9387  -41.3693   -6.6917 N   0  0  0  0  0  0  0  0  0  0  0  0
  -15.2281  -40.3042   -7.3546 C   0  0  1  0  0  0  0  0  0  0  0  0
  -14.9304  -40.5093   -8.7916 C   0  0  0  0  0  0  0  0  0  0  0  0
  -13.8601  -41.5641   -9.0075 C   0  0  2  0  0  0  0  0  0  0  0  0
  -12.8488  -41.4722   -7.9008 C   0  0  0  0  0  0  0  0  0  0  0  0
  -13.2171  -41.3264  -10.3627 C   0  0  0  0  0  0  0  0  0  0  0  0
  -12.2980  -42.4182  -10.7406 C   0  0  0  0  0  0  0  0  0  0  0  0
  -12.8168  -43.6888  -10.7099 O   0  0  0  0  0  0  0  0  0  0  0  0
  -13.5511  -44.0363  -11.8682 C   0  0  0  0  0  0  0  0  0  0  0  0
  -14.9837  -44.1539  -11.4204 C   0  0  0  0  0  0  0  0  0  0  0  0
  -15.9557  -44.6949  -12.4224 C   0  0  0  0  0  0  0  0  0  0  0  0
  -17.0487  -43.6699  -12.5977 C   0  0  0  0  0  0  0  0  0  0  0  0
  -18.0785  -43.8327  -11.5906 N   0  0  0  0  0  0  0  0  0  0  0  0
  -15.8846  -38.9590   -7.0720 C   0  0  2  0  0  0  0  0  0  0  0  0
  -15.9658  -38.7659   -5.7040 O   0  0  0  0  0  0  0  0  0  0  0  0
  -17.2751  -38.8898   -7.6611 C   0  0  0  0  0  0  0  0  0  0  0  0
  -17.5678  -37.6435   -8.2594 N   0  0  0  0  0  0  0  0  0  0  0  0
  -18.9286  -37.2257   -8.3308 C   0  0  0  0  0  0  0  0  0  0  0  0
  -19.8244  -38.0169   -9.1825 C   0  0  0  0  0  0  0  0  0  0  0  0
  -19.5418  -38.1857  -10.5446 C   0  0  0  0  0  0  0  0  0  0  0  0
  -20.3884  -38.8987  -11.3506 C   0  0  0  0  0  0  0  0  0  0  0  0
  -21.5433  -39.4794  -10.8785 C   0  0  0  0  0  0  0  0  0  0  0  0
  -21.8189  -39.3141   -9.5447 C   0  0  0  0  0  0  0  0  0  0  0  0
  -20.9773  -38.6000   -8.7199 C   0  0  0  0  0  0  0  0  0  0  0  0
  -21.3452  -38.5297   -7.3932 F   0  0  0  0  0  0  0  0  0  0  0  0
  -20.0786  -39.0734  -12.8023 C   0  0  0  0  0  0  0  0  0  0  0  0
  -19.1872  -38.0977  -13.1933 F   0  0  0  0  0  0  0  0  0  0  0  0
  -21.2051  -38.9269  -13.5803 F   0  0  0  0  0  0  0  0  0  0  0  0
  -19.4908  -40.3046  -12.9977 F   0  0  0  0  0  0  0  0  0  0  0  0
  1  2  1  0
  2  3  1  0
  3  4  1  0
  4  5  2  0
  5  6  1  0
  6  7  2  0
  7  8  1  0
  8  9  2  0
  8 10  1  0
 10 11  2  0
 10 12  1  0
 12 13  1  0
 13 14  1  6
 14 15  1  0
 15 16  1  1
 15 17  1  0
 17 18  1  0
 18 19  1  0
 19 20  1  0
 20 21  1  0
 21 22  1  0
 22 23  1  0
 23 24  1  0
 13 25  1  0
 25 26  1  1
 25 27  1  0
 27 28  1  0
 28 29  1  0
 29 30  1  0
 30 31  2  0
 31 32  1  0
 32 33  2  0
 33 34  1  0
 34 35  2  0
 35 36  1  0
 32 37  1  0
 37 38  1  0
 37 39  1  0
 37 40  1  0
  9  4  1  0
 24  6  1  0
 35 30  1  0
M  END
$$$$
