
     RDKit          3D

 40 42  0  0  0  0  0  0  0  0999 V2000
  -22.8323  -41.7148   -4.7097 C   0  0  0  0  0  0  0  0  0  0  0  0
  -23.1656  -42.4363   -5.8601 O   0  0  0  0  0  0  0  0  0  0  0  0
  -22.5352  -41.8387   -6.9259 C   0  0  0  0  0  0  0  0  0  0  0  0
  -21.2198  -42.4765   -7.1858 C   0  0  0  0  0  0  0  0  0  0  0  0
  -21.0917  -43.5811   -7.9774 C   0  0  0  0  0  0  0  0  0  0  0  0
  -19.8520  -44.2232   -8.2510 C   0  0  0  0  0  0  0  0  0  0  0  0
  -18.7036  -43.7149   -7.6868 C   0  0  0  0  0  0  0  0  0  0  0  0
  -18.7876  -42.6003   -6.8866 C   0  0  0  0  0  0  0  0  0  0  0  0
  -20.0521  -42.0043   -6.6523 C   0  0  0  0  0  0  0  0  0  0  0  0
  -17.7407  -41.8142   -6.2027 C   0  0  0  0  0  0  0  0  0  0  0  0
  -17.9764  -41.3791   -4.9764 O   0  0  0  0  0  0  0  0  0  0  0  0
  -16.4507  -41.4057   -6.6305 N   0  0  0  0  0  0  0  0  0  0  0  0
  -16.0925  -40.7187   -7.8464 C   0  0  1  0  0  0  0  0  0  0  0  0
  -16.3202  -41.4593   -9.1096 C   0  0  0  0  0  0  0  0  0  0  0  0
  -15.3372  -42.6029   -9.2852 C   0  0  2  0  0  0  0  0  0  0  0  0
  -14.0029  -42.1943   -8.7296 C   0  0  0  0  0  0  0  0  0  0  0  0
  -15.2408  -42.9310  -10.7650 C   0  0  0  0  0  0  0  0  0  0  0  0
  -14.4547  -44.1560  -11.0123 C   0  0  0  0  0  0  0  0  0  0  0  0
  -14.8493  -45.2805  -10.3309 O   0  0  0  0  0  0  0  0  0  0  0  0
  -15.9287  -45.9674  -10.9349 C   0  0  0  0  0  0  0  0  0  0  0  0
  -17.0942  -45.7963   -9.9971 C   0  0  0  0  0  0  0  0  0  0  0  0
  -18.3268  -46.5860  -10.3107 C   0  0  0  0  0  0  0  0  0  0  0  0
  -19.4698  -45.6115  -10.4516 C   0  0  0  0  0  0  0  0  0  0  0  0
  -20.0563  -45.3101   -9.1606 N   0  0  0  0  0  0  0  0  0  0  0  0
  -16.6839  -39.3151   -7.8682 C   0  0  2  0  0  0  0  0  0  0  0  0
  -16.0017  -38.5436   -8.7927 O   0  0  0  0  0  0  0  0  0  0  0  0
  -16.5876  -38.6553   -6.5115 C   0  0  0  0  0  0  0  0  0  0  0  0
  -17.7401  -38.8422   -5.7154 N   0  0  0  0  0  0  0  0  0  0  0  0
  -18.9447  -38.1828   -6.0966 C   0  0  0  0  0  0  0  0  0  0  0  0
  -19.6066  -38.6581   -7.3173 C   0  0  0  0  0  0  0  0  0  0  0  0
  -20.9155  -38.2569   -7.6163 C   0  0  0  0  0  0  0  0  0  0  0  0
  -21.5487  -38.7193   -8.7388 C   0  0  0  0  0  0  0  0  0  0  0  0
  -20.9477  -39.5879   -9.6209 C   0  0  0  0  0  0  0  0  0  0  0  0
  -19.6660  -39.9798   -9.3276 C   0  0  0  0  0  0  0  0  0  0  0  0
  -19.0145  -39.5235   -8.2027 C   0  0  0  0  0  0  0  0  0  0  0  0
  -17.7192  -39.9636   -8.0322 F   0  0  0  0  0  0  0  0  0  0  0  0
  -22.9449  -38.2858   -9.0494 C   0  0  0  0  0  0  0  0  0  0  0  0
  -23.2315  -38.5951  -10.3615 F   0  0  0  0  0  0  0  0  0  0  0  0
  -23.0928  -36.9236   -8.9136 F   0  0  0  0  0  0  0  0  0  0  0  0
  -23.8251  -38.9690   -8.2381 F   0  0  0  0  0  0  0  0  0  0  0  0
  1  2  1  0
  2  3  1  0
  3  4  1  0
  4  5  2  0
  5  6  1  0
  6  7  2  0
  7  8  1  0
  8  9  2  0
  8 10  1  0
 10 11  2  0
 10 12  1  0
 12 13  1  0
 13 14  1  6
 14 15  1  0
 15 16  1  6
 15 17  1  0
 17 18  1  0
 18 19  1  0
 19 20  1  0
 20 21  1  0
 21 22  1  0
 22 23  1  0
 23 24  1  0
 13 25  1  0
 25 26  1  6
 25 27  1  0
 27 28  1  0
 28 29  1  0
 29 30  1  0
 30 31  2  0
 31 32  1  0
 32 33  2  0
 33 34  1  0
 34 35  2  0
 35 36  1  0
 32 37  1  0
 37 38  1  0
 37 39  1  0
 37 40  1  0
  9  4  1  0
 24  6  1  0
 35 30  1  0
M  END
$$$$
