
     RDKit          3D

 40 42  0  0  0  0  0  0  0  0999 V2000
  -21.2754  -41.9398  -13.5305 C   0  0  0  0  0  0  0  0  0  0  0  0
  -22.0484  -41.9324  -12.3653 O   0  0  0  0  0  0  0  0  0  0  0  0
  -21.4128  -41.1309  -11.4467 C   0  0  0  0  0  0  0  0  0  0  0  0
  -20.1682  -41.7751  -10.9563 C   0  0  0  0  0  0  0  0  0  0  0  0
  -19.4137  -42.5933  -11.7465 C   0  0  0  0  0  0  0  0  0  0  0  0
  -18.2168  -43.2307  -11.3163 C   0  0  0  0  0  0  0  0  0  0  0  0
  -17.7825  -43.0238  -10.0263 C   0  0  0  0  0  0  0  0  0  0  0  0
  -18.5107  -42.2027   -9.1984 C   0  0  0  0  0  0  0  0  0  0  0  0
  -19.6947  -41.5949   -9.6857 C   0  0  0  0  0  0  0  0  0  0  0  0
  -18.2674  -41.7597   -7.8106 C   0  0  0  0  0  0  0  0  0  0  0  0
  -19.2924  -41.6990   -6.9773 O   0  0  0  0  0  0  0  0  0  0  0  0
  -17.0749  -41.3584   -7.1540 N   0  0  0  0  0  0  0  0  0  0  0  0
  -16.1154  -40.3692   -7.5779 C   0  0  1  0  0  0  0  0  0  0  0  0
  -15.3748  -40.6667   -8.8264 C   0  0  0  0  0  0  0  0  0  0  0  0
  -14.3668  -41.7863   -8.6386 C   0  0  2  0  0  0  0  0  0  0  0  0
  -13.7735  -41.6881   -7.2623 C   0  0  0  0  0  0  0  0  0  0  0  0
  -13.2981  -41.6559   -9.7099 C   0  0  0  0  0  0  0  0  0  0  0  0
  -12.3815  -42.8132   -9.7238 C   0  0  0  0  0  0  0  0  0  0  0  0
  -12.9657  -44.0513   -9.8251 O   0  0  0  0  0  0  0  0  0  0  0  0
  -13.2983  -44.4217  -11.1494 C   0  0  0  0  0  0  0  0  0  0  0  0
  -14.8030  -44.4397  -11.2000 C   0  0  0  0  0  0  0  0  0  0  0  0
  -15.4240  -44.9821  -12.4496 C   0  0  0  0  0  0  0  0  0  0  0  0
  -16.3262  -43.9121  -13.0127 C   0  0  0  0  0  0  0  0  0  0  0  0
  -17.6392  -43.9663  -12.4006 N   0  0  0  0  0  0  0  0  0  0  0  0
  -16.7363  -38.9782   -7.5749 C   0  0  2  0  0  0  0  0  0  0  0  0
  -15.8624  -38.0866   -6.9778 O   0  0  0  0  0  0  0  0  0  0  0  0
  -18.0465  -38.9611   -6.8212 C   0  0  0  0  0  0  0  0  0  0  0  0
  -18.6010  -37.6677   -6.6922 N   0  0  0  0  0  0  0  0  0  0  0  0
  -19.9393  -37.4540   -7.1330 C   0  0  0  0  0  0  0  0  0  0  0  0
  -20.9178  -38.5034   -6.8245 C   0  0  0  0  0  0  0  0  0  0  0  0
  -20.8591  -39.1913   -5.6051 C   0  0  0  0  0  0  0  0  0  0  0  0
  -21.7514  -40.1908   -5.3232 C   0  0  0  0  0  0  0  0  0  0  0  0
  -22.7383  -40.5700   -6.2042 C   0  0  0  0  0  0  0  0  0  0  0  0
  -22.7954  -39.8956   -7.3976 C   0  0  0  0  0  0  0  0  0  0  0  0
  -21.9055  -38.8872   -7.6966 C   0  0  0  0  0  0  0  0  0  0  0  0
  -22.0830  -38.2635   -8.9132 F   0  0  0  0  0  0  0  0  0  0  0  0
  -21.6808  -40.9190   -4.0198 C   0  0  0  0  0  0  0  0  0  0  0  0
  -21.9841  -42.2471   -4.2286 F   0  0  0  0  0  0  0  0  0  0  0  0
  -22.6003  -40.4313   -3.1184 F   0  0  0  0  0  0  0  0  0  0  0  0
  -20.3984  -40.8378   -3.5216 F   0  0  0  0  0  0  0  0  0  0  0  0
  1  2  1  0
  2  3  1  0
  3  4  1  0
  4  5  2  0
  5  6  1  0
  6  7  2  0
  7  8  1  0
  8  9  2  0
  8 10  1  0
 10 11  2  0
 10 12  1  0
 12 13  1  0
 13 14  1  6
 14 15  1  0
 15 16  1  1
 15 17  1  0
 17 18  1  0
 18 19  1  0
 19 20  1  0
 20 21  1  0
 21 22  1  0
 22 23  1  0
 23 24  1  0
 13 25  1  0
 25 26  1  1
 25 27  1  0
 27 28  1  0
 28 29  1  0
 29 30  1  0
 30 31  2  0
 31 32  1  0
 32 33  2  0
 33 34  1  0
 34 35  2  0
 35 36  1  0
 32 37  1  0
 37 38  1  0
 37 39  1  0
 37 40  1  0
  9  4  1  0
 24  6  1  0
 35 30  1  0
M  END
$$$$
