
     RDKit          3D

 40 42  0  0  0  0  0  0  0  0999 V2000
  -22.7402  -44.0770   -6.8975 C   0  0  0  0  0  0  0  0  0  0  0  0
  -22.4236  -44.5381   -8.1791 O   0  0  0  0  0  0  0  0  0  0  0  0
  -21.8197  -43.5060   -8.8577 C   0  0  0  0  0  0  0  0  0  0  0  0
  -20.3412  -43.6200   -8.7839 C   0  0  0  0  0  0  0  0  0  0  0  0
  -19.6550  -44.6040   -9.4351 C   0  0  0  0  0  0  0  0  0  0  0  0
  -18.2405  -44.7496   -9.3901 C   0  0  0  0  0  0  0  0  0  0  0  0
  -17.5055  -43.8551   -8.6451 C   0  0  0  0  0  0  0  0  0  0  0  0
  -18.1572  -42.8457   -7.9771 C   0  0  0  0  0  0  0  0  0  0  0  0
  -19.5689  -42.7521   -8.0617 C   0  0  0  0  0  0  0  0  0  0  0  0
  -17.6398  -41.7293   -7.1600 C   0  0  0  0  0  0  0  0  0  0  0  0
  -18.2832  -41.4065   -6.0507 O   0  0  0  0  0  0  0  0  0  0  0  0
  -16.5185  -40.8791   -7.3438 N   0  0  0  0  0  0  0  0  0  0  0  0
  -16.1650  -40.1127   -8.5127 C   0  0  1  0  0  0  0  0  0  0  0  0
  -15.8253  -40.8892   -9.7282 C   0  0  0  0  0  0  0  0  0  0  0  0
  -14.4875  -41.5952   -9.5985 C   0  0  2  0  0  0  0  0  0  0  0  0
  -13.5465  -40.7257   -8.8148 C   0  0  0  0  0  0  0  0  0  0  0  0
  -13.9518  -41.8701  -10.9928 C   0  0  0  0  0  0  0  0  0  0  0  0
  -12.7477  -42.7240  -10.9668 C   0  0  0  0  0  0  0  0  0  0  0  0
  -12.8589  -43.9128  -10.2894 O   0  0  0  0  0  0  0  0  0  0  0  0
  -13.4589  -44.9485  -11.0437 C   0  0  0  0  0  0  0  0  0  0  0  0
  -14.7875  -45.2120  -10.3862 C   0  0  0  0  0  0  0  0  0  0  0  0
  -15.5552  -46.3985  -10.8807 C   0  0  0  0  0  0  0  0  0  0  0  0
  -16.9071  -45.9093  -11.3378 C   0  0  0  0  0  0  0  0  0  0  0  0
  -17.8357  -45.8389  -10.2268 N   0  0  0  0  0  0  0  0  0  0  0  0
  -17.1956  -39.0221   -8.7757 C   0  0  2  0  0  0  0  0  0  0  0  0
  -16.5454  -37.8263   -9.0253 O   0  0  0  0  0  0  0  0  0  0  0  0
  -18.1202  -38.8410   -7.5935 C   0  0  0  0  0  0  0  0  0  0  0  0
  -19.2820  -38.0974   -7.9006 N   0  0  0  0  0  0  0  0  0  0  0  0
  -20.1990  -37.8030   -6.8500 C   0  0  0  0  0  0  0  0  0  0  0  0
  -21.2966  -38.7539   -6.6380 C   0  0  0  0  0  0  0  0  0  0  0  0
  -21.3551  -39.5194   -5.4657 C   0  0  0  0  0  0  0  0  0  0  0  0
  -22.3608  -40.4287   -5.2746 C   0  0  0  0  0  0  0  0  0  0  0  0
  -23.3528  -40.6391   -6.2048 C   0  0  0  0  0  0  0  0  0  0  0  0
  -23.2951  -39.8889   -7.3521 C   0  0  0  0  0  0  0  0  0  0  0  0
  -22.2903  -38.9694   -7.5597 C   0  0  0  0  0  0  0  0  0  0  0  0
  -22.3568  -38.2545   -8.7366 F   0  0  0  0  0  0  0  0  0  0  0  0
  -22.4147  -41.2407   -4.0209 C   0  0  0  0  0  0  0  0  0  0  0  0
  -23.7209  -41.3140   -3.5874 F   0  0  0  0  0  0  0  0  0  0  0  0
  -21.6853  -40.6570   -3.0094 F   0  0  0  0  0  0  0  0  0  0  0  0
  -21.9710  -42.5183   -4.2863 F   0  0  0  0  0  0  0  0  0  0  0  0
  1  2  1  0
  2  3  1  0
  3  4  1  0
  4  5  2  0
  5  6  1  0
  6  7  2  0
  7  8  1  0
  8  9  2  0
  8 10  1  0
 10 11  2  0
 10 12  1  0
 12 13  1  0
 13 14  1  6
 14 15  1  0
 15 16  1  1
 15 17  1  0
 17 18  1  0
 18 19  1  0
 19 20  1  0
 20 21  1  0
 21 22  1  0
 22 23  1  0
 23 24  1  0
 13 25  1  0
 25 26  1  1
 25 27  1  0
 27 28  1  0
 28 29  1  0
 29 30  1  0
 30 31  2  0
 31 32  1  0
 32 33  2  0
 33 34  1  0
 34 35  2  0
 35 36  1  0
 32 37  1  0
 37 38  1  0
 37 39  1  0
 37 40  1  0
  9  4  1  0
 24  6  1  0
 35 30  1  0
M  END
$$$$
