
     RDKit          3D

 40 42  0  0  0  0  0  0  0  0999 V2000
  -18.9774  -47.3591   -7.3738 C   0  0  0  0  0  0  0  0  0  0  0  0
  -19.6154  -46.1238   -7.2252 O   0  0  0  0  0  0  0  0  0  0  0  0
  -19.4124  -45.4065   -8.3805 C   0  0  0  0  0  0  0  0  0  0  0  0
  -18.0302  -44.8665   -8.4301 C   0  0  0  0  0  0  0  0  0  0  0  0
  -17.0816  -45.3742   -9.2702 C   0  0  0  0  0  0  0  0  0  0  0  0
  -15.7471  -44.8876   -9.3483 C   0  0  0  0  0  0  0  0  0  0  0  0
  -15.3726  -43.8454   -8.5303 C   0  0  0  0  0  0  0  0  0  0  0  0
  -16.2989  -43.3017   -7.6724 C   0  0  0  0  0  0  0  0  0  0  0  0
  -17.6140  -43.8293   -7.6414 C   0  0  0  0  0  0  0  0  0  0  0  0
  -16.2044  -42.1648   -6.7343 C   0  0  0  0  0  0  0  0  0  0  0  0
  -16.7737  -42.2766   -5.5459 O   0  0  0  0  0  0  0  0  0  0  0  0
  -15.5859  -40.8943   -6.8661 N   0  0  0  0  0  0  0  0  0  0  0  0
  -15.7474  -39.9318   -7.9273 C   0  0  1  0  0  0  0  0  0  0  0  0
  -15.2708  -40.3470   -9.2676 C   0  0  0  0  0  0  0  0  0  0  0  0
  -13.7554  -40.4030   -9.3418 C   0  0  2  0  0  0  0  0  0  0  0  0
  -13.1808  -39.2966   -8.5041 C   0  0  0  0  0  0  0  0  0  0  0  0
  -13.3399  -40.2656  -10.7962 C   0  0  0  0  0  0  0  0  0  0  0  0
  -11.8948  -40.5012  -10.9856 C   0  0  0  0  0  0  0  0  0  0  0  0
  -11.4005  -41.6822  -10.4902 O   0  0  0  0  0  0  0  0  0  0  0  0
  -11.5952  -42.7900  -11.3484 C   0  0  0  0  0  0  0  0  0  0  0  0
  -12.5874  -43.6782  -10.6458 C   0  0  0  0  0  0  0  0  0  0  0  0
  -12.8343  -45.0216  -11.2587 C   0  0  0  0  0  0  0  0  0  0  0  0
  -14.3126  -45.1308  -11.5391 C   0  0  0  0  0  0  0  0  0  0  0  0
  -15.0298  -45.5932  -10.3672 N   0  0  0  0  0  0  0  0  0  0  0  0
  -17.1686  -39.3838   -7.9479 C   0  0  2  0  0  0  0  0  0  0  0  0
  -17.1359  -38.0336   -8.2496 O   0  0  0  0  0  0  0  0  0  0  0  0
  -17.8513  -39.5722   -6.6124 C   0  0  0  0  0  0  0  0  0  0  0  0
  -19.1766  -40.0499   -6.7240 N   0  0  0  0  0  0  0  0  0  0  0  0
  -19.8790  -39.8292   -7.9443 C   0  0  0  0  0  0  0  0  0  0  0  0
  -21.0218  -38.9095   -7.8980 C   0  0  0  0  0  0  0  0  0  0  0  0
  -21.8283  -38.8377   -6.7543 C   0  0  0  0  0  0  0  0  0  0  0  0
  -22.9126  -38.0025   -6.7155 C   0  0  0  0  0  0  0  0  0  0  0  0
  -23.2659  -37.2010   -7.7769 C   0  0  0  0  0  0  0  0  0  0  0  0
  -22.4754  -37.2716   -8.8960 C   0  0  0  0  0  0  0  0  0  0  0  0
  -21.3806  -38.1062   -8.9512 C   0  0  0  0  0  0  0  0  0  0  0  0
  -20.6465  -38.0663  -10.1174 F   0  0  0  0  0  0  0  0  0  0  0  0
  -23.7671  -37.9328   -5.4911 C   0  0  0  0  0  0  0  0  0  0  0  0
  -24.0120  -36.6111   -5.1872 F   0  0  0  0  0  0  0  0  0  0  0  0
  -23.1342  -38.4876   -4.4014 F   0  0  0  0  0  0  0  0  0  0  0  0
  -24.9722  -38.5533   -5.7408 F   0  0  0  0  0  0  0  0  0  0  0  0
  1  2  1  0
  2  3  1  0
  3  4  1  0
  4  5  2  0
  5  6  1  0
  6  7  2  0
  7  8  1  0
  8  9  2  0
  8 10  1  0
 10 11  2  0
 10 12  1  0
 12 13  1  0
 13 14  1  6
 14 15  1  0
 15 16  1  1
 15 17  1  0
 17 18  1  0
 18 19  1  0
 19 20  1  0
 20 21  1  0
 21 22  1  0
 22 23  1  0
 23 24  1  0
 13 25  1  0
 25 26  1  1
 25 27  1  0
 27 28  1  0
 28 29  1  0
 29 30  1  0
 30 31  2  0
 31 32  1  0
 32 33  2  0
 33 34  1  0
 34 35  2  0
 35 36  1  0
 32 37  1  0
 37 38  1  0
 37 39  1  0
 37 40  1  0
  9  4  1  0
 24  6  1  0
 35 30  1  0
M  END
$$$$
