
     RDKit          3D

 40 42  0  0  0  0  0  0  0  0999 V2000
  -17.3018  -38.8196   -3.9386 C   0  0  0  0  0  0  0  0  0  0  0  0
  -17.1121  -37.7632   -4.8348 O   0  0  0  0  0  0  0  0  0  0  0  0
  -18.2453  -37.6608   -5.6067 C   0  0  0  0  0  0  0  0  0  0  0  0
  -18.6674  -38.9948   -6.1035 C   0  0  0  0  0  0  0  0  0  0  0  0
  -19.6433  -39.7239   -5.4876 C   0  0  0  0  0  0  0  0  0  0  0  0
  -20.0765  -41.0049   -5.9295 C   0  0  0  0  0  0  0  0  0  0  0  0
  -19.4820  -41.5585   -7.0411 C   0  0  0  0  0  0  0  0  0  0  0  0
  -18.4977  -40.8553   -7.6941 C   0  0  0  0  0  0  0  0  0  0  0  0
  -18.1103  -39.5823   -7.2059 C   0  0  0  0  0  0  0  0  0  0  0  0
  -17.7330  -41.1642   -8.9194 C   0  0  0  0  0  0  0  0  0  0  0  0
  -16.4409  -40.8839   -8.9458 O   0  0  0  0  0  0  0  0  0  0  0  0
  -18.1378  -41.7367  -10.1532 N   0  0  0  0  0  0  0  0  0  0  0  0
  -19.2304  -41.3357  -11.0043 C   0  0  1  0  0  0  0  0  0  0  0  0
  -20.5920  -41.4904  -10.4405 C   0  0  0  0  0  0  0  0  0  0  0  0
  -21.0049  -42.9478  -10.3388 C   0  0  2  0  0  0  0  0  0  0  0  0
  -20.4440  -43.7008  -11.5111 C   0  0  0  0  0  0  0  0  0  0  0  0
  -22.5218  -43.0172  -10.3141 C   0  0  0  0  0  0  0  0  0  0  0  0
  -23.0109  -44.3796  -10.0236 C   0  0  0  0  0  0  0  0  0  0  0  0
  -22.5188  -44.9738   -8.8882 O   0  0  0  0  0  0  0  0  0  0  0  0
  -23.1863  -44.5858   -7.7027 C   0  0  0  0  0  0  0  0  0  0  0  0
  -22.1845  -43.7815   -6.9175 C   0  0  0  0  0  0  0  0  0  0  0  0
  -22.5776  -43.3991   -5.5245 C   0  0  0  0  0  0  0  0  0  0  0  0
  -22.4987  -41.8958   -5.4243 C   0  0  0  0  0  0  0  0  0  0  0  0
  -21.1513  -41.4676   -5.1041 N   0  0  0  0  0  0  0  0  0  0  0  0
  -18.9833  -39.9484  -11.5830 C   0  0  2  0  0  0  0  0  0  0  0  0
  -18.7138  -40.0566  -12.9361 O   0  0  0  0  0  0  0  0  0  0  0  0
  -17.8176  -39.2671  -10.9030 C   0  0  0  0  0  0  0  0  0  0  0  0
  -17.6609  -37.9150  -11.2825 N   0  0  0  0  0  0  0  0  0  0  0  0
  -17.3405  -36.9584  -10.2758 C   0  0  0  0  0  0  0  0  0  0  0  0
  -16.1919  -36.0814  -10.5318 C   0  0  0  0  0  0  0  0  0  0  0  0
  -16.3093  -34.6942  -10.3712 C   0  0  0  0  0  0  0  0  0  0  0  0
  -15.2499  -33.8682  -10.6358 C   0  0  0  0  0  0  0  0  0  0  0  0
  -14.0323  -34.3436  -11.0664 C   0  0  0  0  0  0  0  0  0  0  0  0
  -13.9181  -35.7018  -11.2228 C   0  0  0  0  0  0  0  0  0  0  0  0
  -14.9742  -36.5469  -10.9604 C   0  0  0  0  0  0  0  0  0  0  0  0
  -14.7281  -37.8933  -11.1248 F   0  0  0  0  0  0  0  0  0  0  0  0
  -15.3847  -32.3899  -10.4617 C   0  0  0  0  0  0  0  0  0  0  0  0
  -16.5762  -32.1180   -9.8247 F   0  0  0  0  0  0  0  0  0  0  0  0
  -15.4172  -31.7393  -11.6747 F   0  0  0  0  0  0  0  0  0  0  0  0
  -14.3532  -31.9283   -9.6726 F   0  0  0  0  0  0  0  0  0  0  0  0
  1  2  1  0
  2  3  1  0
  3  4  1  0
  4  5  2  0
  5  6  1  0
  6  7  2  0
  7  8  1  0
  8  9  2  0
  8 10  1  0
 10 11  2  0
 10 12  1  0
 12 13  1  0
 13 14  1  1
 14 15  1  0
 15 16  1  6
 15 17  1  0
 17 18  1  0
 18 19  1  0
 19 20  1  0
 20 21  1  0
 21 22  1  0
 22 23  1  0
 23 24  1  0
 13 25  1  0
 25 26  1  6
 25 27  1  0
 27 28  1  0
 28 29  1  0
 29 30  1  0
 30 31  2  0
 31 32  1  0
 32 33  2  0
 33 34  1  0
 34 35  2  0
 35 36  1  0
 32 37  1  0
 37 38  1  0
 37 39  1  0
 37 40  1  0
  9  4  1  0
 24  6  1  0
 35 30  1  0
M  END
$$$$
