
     RDKit          3D

 40 42  0  0  0  0  0  0  0  0999 V2000
  -17.8629  -34.5062  -10.1136 C   0  0  0  0  0  0  0  0  0  0  0  0
  -17.1615  -34.5145  -11.3231 O   0  0  0  0  0  0  0  0  0  0  0  0
  -17.5570  -35.6264  -12.0285 C   0  0  0  0  0  0  0  0  0  0  0  0
  -16.4988  -36.6678  -12.0084 C   0  0  0  0  0  0  0  0  0  0  0  0
  -15.2620  -36.4571  -12.5461 C   0  0  0  0  0  0  0  0  0  0  0  0
  -14.2212  -37.4270  -12.5491 C   0  0  0  0  0  0  0  0  0  0  0  0
  -14.4618  -38.6591  -11.9838 C   0  0  0  0  0  0  0  0  0  0  0  0
  -15.6930  -38.9111  -11.4268 C   0  0  0  0  0  0  0  0  0  0  0  0
  -16.6894  -37.9035  -11.4536 C   0  0  0  0  0  0  0  0  0  0  0  0
  -16.2132  -40.0963  -10.7151 C   0  0  0  0  0  0  0  0  0  0  0  0
  -17.4515  -40.4891  -10.9621 O   0  0  0  0  0  0  0  0  0  0  0  0
  -15.6083  -40.9492   -9.7556 N   0  0  0  0  0  0  0  0  0  0  0  0
  -14.9382  -40.5800   -8.5336 C   0  0  1  0  0  0  0  0  0  0  0  0
  -13.6898  -39.7954   -8.6815 C   0  0  0  0  0  0  0  0  0  0  0  0
  -12.5508  -40.6345   -9.2324 C   0  0  2  0  0  0  0  0  0  0  0  0
  -12.6575  -42.0289   -8.6846 C   0  0  0  0  0  0  0  0  0  0  0  0
  -11.2377  -39.9845   -8.8327 C   0  0  0  0  0  0  0  0  0  0  0  0
  -10.0792  -40.6248   -9.4866 C   0  0  0  0  0  0  0  0  0  0  0  0
  -10.1299  -40.7228  -10.8549 O   0  0  0  0  0  0  0  0  0  0  0  0
   -9.7357  -39.5431  -11.5292 C   0  0  0  0  0  0  0  0  0  0  0  0
  -10.9840  -39.0132  -12.1834 C   0  0  0  0  0  0  0  0  0  0  0  0
  -10.8097  -37.8590  -13.1209 C   0  0  0  0  0  0  0  0  0  0  0  0
  -11.6855  -36.7339  -12.6277 C   0  0  0  0  0  0  0  0  0  0  0  0
  -13.0377  -36.8702  -13.1321 N   0  0  0  0  0  0  0  0  0  0  0  0
  -15.9173  -39.9547   -7.5483 C   0  0  2  0  0  0  0  0  0  0  0  0
  -15.4008  -40.0454   -6.2676 O   0  0  0  0  0  0  0  0  0  0  0  0
  -17.2586  -40.6507   -7.5874 C   0  0  0  0  0  0  0  0  0  0  0  0
  -18.3495  -39.7745   -7.3895 N   0  0  0  0  0  0  0  0  0  0  0  0
  -19.6420  -40.3351   -7.1733 C   0  0  0  0  0  0  0  0  0  0  0  0
  -20.7857  -39.4180   -7.2425 C   0  0  0  0  0  0  0  0  0  0  0  0
  -21.6879  -39.3279   -6.1741 C   0  0  0  0  0  0  0  0  0  0  0  0
  -22.7727  -38.4953   -6.2442 C   0  0  0  0  0  0  0  0  0  0  0  0
  -23.0343  -37.7143   -7.3466 C   0  0  0  0  0  0  0  0  0  0  0  0
  -22.1502  -37.8028   -8.3919 C   0  0  0  0  0  0  0  0  0  0  0  0
  -21.0536  -38.6350   -8.3373 C   0  0  0  0  0  0  0  0  0  0  0  0
  -20.2217  -38.6142   -9.4365 F   0  0  0  0  0  0  0  0  0  0  0  0
  -23.7296  -38.4059   -5.0994 C   0  0  0  0  0  0  0  0  0  0  0  0
  -24.1649  -39.6729   -4.7760 F   0  0  0  0  0  0  0  0  0  0  0  0
  -24.8440  -37.6675   -5.4292 F   0  0  0  0  0  0  0  0  0  0  0  0
  -23.0820  -37.8748   -4.0049 F   0  0  0  0  0  0  0  0  0  0  0  0
  1  2  1  0
  2  3  1  0
  3  4  1  0
  4  5  2  0
  5  6  1  0
  6  7  2  0
  7  8  1  0
  8  9  2  0
  8 10  1  0
 10 11  2  0
 10 12  1  0
 12 13  1  0
 13 14  1  6
 14 15  1  0
 15 16  1  1
 15 17  1  0
 17 18  1  0
 18 19  1  0
 19 20  1  0
 20 21  1  0
 21 22  1  0
 22 23  1  0
 23 24  1  0
 13 25  1  0
 25 26  1  1
 25 27  1  0
 27 28  1  0
 28 29  1  0
 29 30  1  0
 30 31  2  0
 31 32  1  0
 32 33  2  0
 33 34  1  0
 34 35  2  0
 35 36  1  0
 32 37  1  0
 37 38  1  0
 37 39  1  0
 37 40  1  0
  9  4  1  0
 24  6  1  0
 35 30  1  0
M  END
$$$$
