
     RDKit          3D

 40 42  0  0  0  0  0  0  0  0999 V2000
  -19.8470  -47.5901   -9.7258 C   0  0  0  0  0  0  0  0  0  0  0  0
  -19.8422  -46.4785   -8.8775 O   0  0  0  0  0  0  0  0  0  0  0  0
  -19.7713  -45.3527   -9.6635 C   0  0  0  0  0  0  0  0  0  0  0  0
  -18.3890  -44.8109   -9.6855 C   0  0  0  0  0  0  0  0  0  0  0  0
  -17.4848  -45.1658  -10.6445 C   0  0  0  0  0  0  0  0  0  0  0  0
  -16.1519  -44.6718  -10.7015 C   0  0  0  0  0  0  0  0  0  0  0  0
  -15.7318  -43.7853   -9.7355 C   0  0  0  0  0  0  0  0  0  0  0  0
  -16.6126  -43.3980   -8.7537 C   0  0  0  0  0  0  0  0  0  0  0  0
  -17.9286  -43.9244   -8.7511 C   0  0  0  0  0  0  0  0  0  0  0  0
  -16.4657  -42.4392   -7.6399 C   0  0  0  0  0  0  0  0  0  0  0  0
  -16.9792  -42.7541   -6.4626 O   0  0  0  0  0  0  0  0  0  0  0  0
  -15.8449  -41.1644   -7.5810 N   0  0  0  0  0  0  0  0  0  0  0  0
  -16.0492  -40.0339   -8.4522 C   0  0  1  0  0  0  0  0  0  0  0  0
  -15.6393  -40.2122   -9.8650 C   0  0  0  0  0  0  0  0  0  0  0  0
  -14.1296  -40.2531  -10.0199 C   0  0  2  0  0  0  0  0  0  0  0  0
  -13.5081  -39.3067   -9.0330 C   0  0  0  0  0  0  0  0  0  0  0  0
  -13.7821  -39.8674  -11.4472 C   0  0  0  0  0  0  0  0  0  0  0  0
  -12.3493  -40.0656  -11.7430 C   0  0  0  0  0  0  0  0  0  0  0  0
  -11.8408  -41.3137  -11.4819 O   0  0  0  0  0  0  0  0  0  0  0  0
  -12.0838  -42.2577  -12.5072 C   0  0  0  0  0  0  0  0  0  0  0  0
  -13.0482  -43.2544  -11.9211 C   0  0  0  0  0  0  0  0  0  0  0  0
  -13.3335  -44.4727  -12.7432 C   0  0  0  0  0  0  0  0  0  0  0  0
  -14.8241  -44.5334  -12.9674 C   0  0  0  0  0  0  0  0  0  0  0  0
  -15.4886  -45.1910  -11.8594 N   0  0  0  0  0  0  0  0  0  0  0  0
  -17.4658  -39.4919   -8.3106 C   0  0  2  0  0  0  0  0  0  0  0  0
  -17.7077  -38.5711   -9.3149 O   0  0  0  0  0  0  0  0  0  0  0  0
  -17.6682  -38.8218   -6.9707 C   0  0  0  0  0  0  0  0  0  0  0  0
  -18.8529  -39.2270   -6.3157 N   0  0  0  0  0  0  0  0  0  0  0  0
  -20.0623  -38.5302   -6.6040 C   0  0  0  0  0  0  0  0  0  0  0  0
  -21.1858  -39.3272   -7.1104 C   0  0  0  0  0  0  0  0  0  0  0  0
  -21.6117  -39.1889   -8.4382 C   0  0  0  0  0  0  0  0  0  0  0  0
  -22.6772  -39.9088   -8.9086 C   0  0  0  0  0  0  0  0  0  0  0  0
  -23.3776  -40.7924   -8.1197 C   0  0  0  0  0  0  0  0  0  0  0  0
  -22.9596  -40.9276   -6.8200 C   0  0  0  0  0  0  0  0  0  0  0  0
  -21.8891  -40.2112   -6.3311 C   0  0  0  0  0  0  0  0  0  0  0  0
  -21.5449  -40.4558   -5.0187 F   0  0  0  0  0  0  0  0  0  0  0  0
  -23.1242  -39.7544  -10.3265 C   0  0  0  0  0  0  0  0  0  0  0  0
  -22.5895  -40.7761  -11.0813 F   0  0  0  0  0  0  0  0  0  0  0  0
  -22.6761  -38.5721  -10.8715 F   0  0  0  0  0  0  0  0  0  0  0  0
  -24.4984  -39.8437  -10.3831 F   0  0  0  0  0  0  0  0  0  0  0  0
  1  2  1  0
  2  3  1  0
  3  4  1  0
  4  5  2  0
  5  6  1  0
  6  7  2  0
  7  8  1  0
  8  9  2  0
  8 10  1  0
 10 11  2  0
 10 12  1  0
 12 13  1  0
 13 14  1  6
 14 15  1  0
 15 16  1  1
 15 17  1  0
 17 18  1  0
 18 19  1  0
 19 20  1  0
 20 21  1  0
 21 22  1  0
 22 23  1  0
 23 24  1  0
 13 25  1  0
 25 26  1  6
 25 27  1  0
 27 28  1  0
 28 29  1  0
 29 30  1  0
 30 31  2  0
 31 32  1  0
 32 33  2  0
 33 34  1  0
 34 35  2  0
 35 36  1  0
 32 37  1  0
 37 38  1  0
 37 39  1  0
 37 40  1  0
  9  4  1  0
 24  6  1  0
 35 30  1  0
M  END
$$$$
