
     RDKit          3D

 40 42  0  0  0  0  0  0  0  0999 V2000
  -22.7217  -44.6440   -7.9316 C   0  0  0  0  0  0  0  0  0  0  0  0
  -22.4396  -43.3750   -8.4464 O   0  0  0  0  0  0  0  0  0  0  0  0
  -21.7060  -43.5439   -9.5969 C   0  0  0  0  0  0  0  0  0  0  0  0
  -20.2554  -43.6245   -9.2904 C   0  0  0  0  0  0  0  0  0  0  0  0
  -19.4126  -44.4499   -9.9771 C   0  0  0  0  0  0  0  0  0  0  0  0
  -18.0185  -44.5583   -9.7150 C   0  0  0  0  0  0  0  0  0  0  0  0
  -17.4721  -43.7950   -8.7079 C   0  0  0  0  0  0  0  0  0  0  0  0
  -18.2852  -42.9467   -7.9945 C   0  0  0  0  0  0  0  0  0  0  0  0
  -19.6669  -42.8820   -8.3037 C   0  0  0  0  0  0  0  0  0  0  0  0
  -17.9785  -41.9854   -6.9159 C   0  0  0  0  0  0  0  0  0  0  0  0
  -18.8139  -41.8929   -5.8949 O   0  0  0  0  0  0  0  0  0  0  0  0
  -16.8965  -41.0822   -6.7500 N   0  0  0  0  0  0  0  0  0  0  0  0
  -16.4036  -40.1025   -7.6859 C   0  0  1  0  0  0  0  0  0  0  0  0
  -15.8219  -40.6304   -8.9425 C   0  0  0  0  0  0  0  0  0  0  0  0
  -14.4828  -41.3072   -8.7108 C   0  0  2  0  0  0  0  0  0  0  0  0
  -13.7384  -40.5693   -7.6351 C   0  0  0  0  0  0  0  0  0  0  0  0
  -13.7096  -41.3033  -10.0180 C   0  0  0  0  0  0  0  0  0  0  0  0
  -12.4760  -42.1103   -9.9360 C   0  0  0  0  0  0  0  0  0  0  0  0
  -12.6238  -43.4066   -9.5093 O   0  0  0  0  0  0  0  0  0  0  0  0
  -13.0272  -44.3027  -10.5270 C   0  0  0  0  0  0  0  0  0  0  0  0
  -14.4270  -44.7235  -10.1659 C   0  0  0  0  0  0  0  0  0  0  0  0
  -15.0288  -45.8209  -10.9876 C   0  0  0  0  0  0  0  0  0  0  0  0
  -16.3148  -45.2970  -11.5773 C   0  0  0  0  0  0  0  0  0  0  0  0
  -17.4157  -45.4614  -10.6487 N   0  0  0  0  0  0  0  0  0  0  0  0
  -17.4419  -39.0140   -7.9256 C   0  0  2  0  0  0  0  0  0  0  0  0
  -16.8000  -37.8228   -8.2154 O   0  0  0  0  0  0  0  0  0  0  0  0
  -18.3220  -38.8152   -6.7127 C   0  0  0  0  0  0  0  0  0  0  0  0
  -19.2529  -37.7627   -6.8633 N   0  0  0  0  0  0  0  0  0  0  0  0
  -20.2913  -37.9056   -7.8290 C   0  0  0  0  0  0  0  0  0  0  0  0
  -21.3541  -38.8714   -7.5262 C   0  0  0  0  0  0  0  0  0  0  0  0
  -21.4454  -39.4492   -6.2528 C   0  0  0  0  0  0  0  0  0  0  0  0
  -22.4172  -40.3721   -5.9725 C   0  0  0  0  0  0  0  0  0  0  0  0
  -23.3423  -40.7775   -6.9072 C   0  0  0  0  0  0  0  0  0  0  0  0
  -23.2526  -40.2109   -8.1534 C   0  0  0  0  0  0  0  0  0  0  0  0
  -22.2811  -39.2805   -8.4517 C   0  0  0  0  0  0  0  0  0  0  0  0
  -22.3119  -38.7602   -9.7280 F   0  0  0  0  0  0  0  0  0  0  0  0
  -22.5066  -40.9830   -4.6114 C   0  0  0  0  0  0  0  0  0  0  0  0
  -23.7365  -41.5883   -4.4690 F   0  0  0  0  0  0  0  0  0  0  0  0
  -22.4084  -40.0298   -3.6226 F   0  0  0  0  0  0  0  0  0  0  0  0
  -21.5290  -41.9455   -4.4790 F   0  0  0  0  0  0  0  0  0  0  0  0
  1  2  1  0
  2  3  1  0
  3  4  1  0
  4  5  2  0
  5  6  1  0
  6  7  2  0
  7  8  1  0
  8  9  2  0
  8 10  1  0
 10 11  2  0
 10 12  1  0
 12 13  1  0
 13 14  1  6
 14 15  1  0
 15 16  1  1
 15 17  1  0
 17 18  1  0
 18 19  1  0
 19 20  1  0
 20 21  1  0
 21 22  1  0
 22 23  1  0
 23 24  1  0
 13 25  1  0
 25 26  1  1
 25 27  1  0
 27 28  1  0
 28 29  1  0
 29 30  1  0
 30 31  2  0
 31 32  1  0
 32 33  2  0
 33 34  1  0
 34 35  2  0
 35 36  1  0
 32 37  1  0
 37 38  1  0
 37 39  1  0
 37 40  1  0
  9  4  1  0
 24  6  1  0
 35 30  1  0
M  END
$$$$
