
     RDKit          3D

 40 42  0  0  0  0  0  0  0  0999 V2000
  -22.8959  -40.5520  -11.6939 C   0  0  0  0  0  0  0  0  0  0  0  0
  -21.9321  -40.5590  -10.6808 O   0  0  0  0  0  0  0  0  0  0  0  0
  -21.1017  -39.4826  -10.8860 C   0  0  0  0  0  0  0  0  0  0  0  0
  -19.6873  -39.9208  -10.9957 C   0  0  0  0  0  0  0  0  0  0  0  0
  -19.0236  -39.9414  -12.1882 C   0  0  0  0  0  0  0  0  0  0  0  0
  -17.6705  -40.3548  -12.3374 C   0  0  0  0  0  0  0  0  0  0  0  0
  -16.9764  -40.7664  -11.2220 C   0  0  0  0  0  0  0  0  0  0  0  0
  -17.6064  -40.7567  -10.0002 C   0  0  0  0  0  0  0  0  0  0  0  0
  -18.9561  -40.3326   -9.9155 C   0  0  0  0  0  0  0  0  0  0  0  0
  -17.1097  -41.0850   -8.6484 C   0  0  0  0  0  0  0  0  0  0  0  0
  -17.8980  -41.7652   -7.8331 O   0  0  0  0  0  0  0  0  0  0  0  0
  -15.8759  -40.7936   -8.0107 N   0  0  0  0  0  0  0  0  0  0  0  0
  -15.2226  -39.5151   -7.8785 C   0  0  1  0  0  0  0  0  0  0  0  0
  -14.7683  -38.8775   -9.1366 C   0  0  0  0  0  0  0  0  0  0  0  0
  -13.5758  -39.5962   -9.7419 C   0  0  2  0  0  0  0  0  0  0  0  0
  -12.6910  -40.0976   -8.6367 C   0  0  0  0  0  0  0  0  0  0  0  0
  -12.8348  -38.6235  -10.6427 C   0  0  0  0  0  0  0  0  0  0  0  0
  -11.7724  -39.2884  -11.4231 C   0  0  0  0  0  0  0  0  0  0  0  0
  -12.1533  -40.3800  -12.1633 O   0  0  0  0  0  0  0  0  0  0  0  0
  -12.7317  -40.0524  -13.4121 C   0  0  0  0  0  0  0  0  0  0  0  0
  -14.1800  -40.4499  -13.3053 C   0  0  0  0  0  0  0  0  0  0  0  0
  -14.9881  -40.3783  -14.5636 C   0  0  0  0  0  0  0  0  0  0  0  0
  -16.1623  -39.4682  -14.3010 C   0  0  0  0  0  0  0  0  0  0  0  0
  -17.2607  -40.1992  -13.7007 N   0  0  0  0  0  0  0  0  0  0  0  0
  -16.0430  -38.5774   -7.0021 C   0  0  2  0  0  0  0  0  0  0  0  0
  -15.2101  -37.9585   -6.0864 O   0  0  0  0  0  0  0  0  0  0  0  0
  -17.1239  -39.3254   -6.2556 C   0  0  0  0  0  0  0  0  0  0  0  0
  -18.0141  -38.4761   -5.5605 N   0  0  0  0  0  0  0  0  0  0  0  0
  -19.1249  -37.9300   -6.2668 C   0  0  0  0  0  0  0  0  0  0  0  0
  -20.4287  -38.5696   -6.0548 C   0  0  0  0  0  0  0  0  0  0  0  0
  -20.7076  -39.2286   -4.8500 C   0  0  0  0  0  0  0  0  0  0  0  0
  -21.9115  -39.8517   -4.6570 C   0  0  0  0  0  0  0  0  0  0  0  0
  -22.8978  -39.8662   -5.6166 C   0  0  0  0  0  0  0  0  0  0  0  0
  -22.6241  -39.2203   -6.7956 C   0  0  0  0  0  0  0  0  0  0  0  0
  -21.4181  -38.5881   -7.0057 C   0  0  0  0  0  0  0  0  0  0  0  0
  -21.2727  -37.9477   -8.2178 F   0  0  0  0  0  0  0  0  0  0  0  0
  -22.1999  -40.5521   -3.3685 C   0  0  0  0  0  0  0  0  0  0  0  0
  -23.2924  -41.3749   -3.5376 F   0  0  0  0  0  0  0  0  0  0  0  0
  -22.5166  -39.6601   -2.3686 F   0  0  0  0  0  0  0  0  0  0  0  0
  -21.1171  -41.3310   -3.0213 F   0  0  0  0  0  0  0  0  0  0  0  0
  1  2  1  0
  2  3  1  0
  3  4  1  0
  4  5  2  0
  5  6  1  0
  6  7  2  0
  7  8  1  0
  8  9  2  0
  8 10  1  0
 10 11  2  0
 10 12  1  0
 12 13  1  0
 13 14  1  6
 14 15  1  0
 15 16  1  1
 15 17  1  0
 17 18  1  0
 18 19  1  0
 19 20  1  0
 20 21  1  0
 21 22  1  0
 22 23  1  0
 23 24  1  0
 13 25  1  0
 25 26  1  1
 25 27  1  0
 27 28  1  0
 28 29  1  0
 29 30  1  0
 30 31  2  0
 31 32  1  0
 32 33  2  0
 33 34  1  0
 34 35  2  0
 35 36  1  0
 32 37  1  0
 37 38  1  0
 37 39  1  0
 37 40  1  0
  9  4  1  0
 24  6  1  0
 35 30  1  0
M  END
$$$$
