
     RDKit          3D

 40 42  0  0  0  0  0  0  0  0999 V2000
  -13.8420  -33.8402  -14.0626 C   0  0  0  0  0  0  0  0  0  0  0  0
  -14.7772  -34.4611  -13.2289 O   0  0  0  0  0  0  0  0  0  0  0  0
  -14.1331  -34.8113  -12.0657 C   0  0  0  0  0  0  0  0  0  0  0  0
  -13.9905  -36.2858  -11.9652 C   0  0  0  0  0  0  0  0  0  0  0  0
  -12.8342  -36.9285  -12.3016 C   0  0  0  0  0  0  0  0  0  0  0  0
  -12.6561  -38.3377  -12.2212 C   0  0  0  0  0  0  0  0  0  0  0  0
  -13.7055  -39.1145  -11.7845 C   0  0  0  0  0  0  0  0  0  0  0  0
  -14.8867  -38.5066  -11.4312 C   0  0  0  0  0  0  0  0  0  0  0  0
  -15.0026  -37.0976  -11.5317 C   0  0  0  0  0  0  0  0  0  0  0  0
  -16.1416  -39.0643  -10.8872 C   0  0  0  0  0  0  0  0  0  0  0  0
  -17.2914  -38.5916  -11.3383 O   0  0  0  0  0  0  0  0  0  0  0  0
  -16.3712  -40.0695   -9.9121 N   0  0  0  0  0  0  0  0  0  0  0  0
  -15.8204  -40.1624   -8.5830 C   0  0  1  0  0  0  0  0  0  0  0  0
  -14.3538  -40.3542   -8.4928 C   0  0  0  0  0  0  0  0  0  0  0  0
  -13.9327  -41.7459   -8.9299 C   0  0  2  0  0  0  0  0  0  0  0  0
  -14.9803  -42.7336   -8.5023 C   0  0  0  0  0  0  0  0  0  0  0  0
  -12.5876  -42.0615   -8.2993 C   0  0  0  0  0  0  0  0  0  0  0  0
  -12.0101  -43.3160   -8.8213 C   0  0  0  0  0  0  0  0  0  0  0  0
  -11.8965  -43.4123  -10.1859 O   0  0  0  0  0  0  0  0  0  0  0  0
  -10.7465  -42.7775  -10.7116 C   0  0  0  0  0  0  0  0  0  0  0  0
  -11.2572  -41.6018  -11.5013 C   0  0  0  0  0  0  0  0  0  0  0  0
  -10.2492  -40.8573  -12.3206 C   0  0  0  0  0  0  0  0  0  0  0  0
  -10.2806  -39.4141  -11.8822 C   0  0  0  0  0  0  0  0  0  0  0  0
  -11.3146  -38.6811  -12.5858 N   0  0  0  0  0  0  0  0  0  0  0  0
  -16.3230  -39.0205   -7.7089 C   0  0  2  0  0  0  0  0  0  0  0  0
  -15.7654  -39.1284   -6.4469 O   0  0  0  0  0  0  0  0  0  0  0  0
  -17.8293  -39.0440   -7.5839 C   0  0  0  0  0  0  0  0  0  0  0  0
  -18.3595  -37.8779   -6.9873 N   0  0  0  0  0  0  0  0  0  0  0  0
  -19.7686  -37.6698   -7.0344 C   0  0  0  0  0  0  0  0  0  0  0  0
  -20.6135  -38.8614   -7.1770 C   0  0  0  0  0  0  0  0  0  0  0  0
  -20.7785  -39.7463   -6.1030 C   0  0  0  0  0  0  0  0  0  0  0  0
  -21.5424  -40.8745   -6.2386 C   0  0  0  0  0  0  0  0  0  0  0  0
  -22.1797  -41.1981   -7.4145 C   0  0  0  0  0  0  0  0  0  0  0  0
  -22.0180  -40.3309   -8.4653 C   0  0  0  0  0  0  0  0  0  0  0  0
  -21.2533  -39.1911   -8.3455 C   0  0  0  0  0  0  0  0  0  0  0  0
  -21.1915  -38.3829   -9.4606 F   0  0  0  0  0  0  0  0  0  0  0  0
  -21.7124  -41.8125   -5.0873 C   0  0  0  0  0  0  0  0  0  0  0  0
  -20.9326  -41.3815   -4.0359 F   0  0  0  0  0  0  0  0  0  0  0  0
  -21.2935  -43.0847   -5.4064 F   0  0  0  0  0  0  0  0  0  0  0  0
  -23.0305  -41.8048   -4.6845 F   0  0  0  0  0  0  0  0  0  0  0  0
  1  2  1  0
  2  3  1  0
  3  4  1  0
  4  5  2  0
  5  6  1  0
  6  7  2  0
  7  8  1  0
  8  9  2  0
  8 10  1  0
 10 11  2  0
 10 12  1  0
 12 13  1  0
 13 14  1  6
 14 15  1  0
 15 16  1  1
 15 17  1  0
 17 18  1  0
 18 19  1  0
 19 20  1  0
 20 21  1  0
 21 22  1  0
 22 23  1  0
 23 24  1  0
 13 25  1  0
 25 26  1  1
 25 27  1  0
 27 28  1  0
 28 29  1  0
 29 30  1  0
 30 31  2  0
 31 32  1  0
 32 33  2  0
 33 34  1  0
 34 35  2  0
 35 36  1  0
 32 37  1  0
 37 38  1  0
 37 39  1  0
 37 40  1  0
  9  4  1  0
 24  6  1  0
 35 30  1  0
M  END
$$$$
