
     RDKit          3D

 36 38  0  0  0  0  0  0  0  0999 V2000
  -20.8484  -36.3565  -11.3955 C   0  0  0  0  0  0  0  0  0  0  0  0
  -20.9610  -37.8757  -11.2194 C   0  0  0  0  0  0  0  0  0  0  0  0
  -19.8142  -38.5295  -11.9461 C   0  0  0  0  0  0  0  0  0  0  0  0
  -20.9970  -38.2087   -9.7748 C   0  0  0  0  0  0  0  0  0  0  0  0
  -22.0021  -39.0365   -9.2807 C   0  0  0  0  0  0  0  0  0  0  0  0
  -22.0001  -39.3188   -7.9332 C   0  0  0  0  0  0  0  0  0  0  0  0
  -21.0393  -38.8075   -7.0756 C   0  0  0  0  0  0  0  0  0  0  0  0
  -20.0705  -37.9968   -7.6112 C   0  0  0  0  0  0  0  0  0  0  0  0
  -19.0191  -37.4274   -6.6890 C   0  0  0  0  0  0  0  0  0  0  0  0
  -17.7704  -37.6084   -7.3439 N   0  0  0  0  0  0  0  0  0  0  0  0
  -16.8494  -38.5101   -6.7358 C   0  0  0  0  0  0  0  0  0  0  0  0
  -15.6477  -38.7318   -7.5626 C   0  0  1  0  0  0  0  0  0  0  0  0
  -14.4884  -38.3229   -6.9129 O   0  0  0  0  0  0  0  0  0  0  0  0
  -15.4551  -40.2120   -7.8243 C   0  0  2  0  0  0  0  0  0  0  0  0
  -15.2655  -40.4941   -9.3042 C   0  0  0  0  0  0  0  0  0  0  0  0
  -14.3394  -40.5391  -10.1942 C   0  0  0  0  0  0  0  0  0  0  0  0
  -12.8201  -40.2873  -10.1249 C   0  0  0  0  0  0  0  0  0  0  0  0
  -14.4375  -40.9155  -11.6893 C   0  0  0  0  0  0  0  0  0  0  0  0
  -13.6908  -42.2105  -11.9311 C   0  0  0  0  0  0  0  0  0  0  0  0
  -14.0351  -43.0993  -10.9505 O   0  0  0  0  0  0  0  0  0  0  0  0
  -13.2741  -44.2444  -10.8683 C   0  0  0  0  0  0  0  0  0  0  0  0
  -13.9141  -45.2965  -11.7479 C   0  0  0  0  0  0  0  0  0  0  0  0
  -14.5342  -46.3433  -10.8904 C   0  0  0  0  0  0  0  0  0  0  0  0
  -16.0401  -46.4352  -10.9924 C   0  0  0  0  0  0  0  0  0  0  0  0
  -16.6473  -45.2001  -11.3754 N   0  0  0  0  0  0  0  0  0  0  0  0
  -17.2746  -44.1714  -10.5858 C   0  0  0  0  0  0  0  0  0  0  0  0
  -16.8715  -43.4823   -9.4720 C   0  0  0  0  0  0  0  0  0  0  0  0
  -17.7382  -42.5278   -8.9906 C   0  0  0  0  0  0  0  0  0  0  0  0
  -18.9724  -42.3111   -9.6509 C   0  0  0  0  0  0  0  0  0  0  0  0
  -19.3720  -43.0089  -10.7703 C   0  0  0  0  0  0  0  0  0  0  0  0
  -20.9096  -42.7004  -11.5474 Cl  0  0  0  0  0  0  0  0  0  0  0  0
  -18.5038  -43.9045  -11.1829 N   0  0  0  0  0  0  0  0  0  0  0  0
  -17.6274  -41.6032   -7.8436 C   0  0  0  0  0  0  0  0  0  0  0  0
  -18.7476  -41.3195   -7.1821 O   0  0  0  0  0  0  0  0  0  0  0  0
  -16.5784  -40.9111   -7.2464 N   0  0  0  0  0  0  0  0  0  0  0  0
  -20.0322  -37.6839   -8.9685 C   0  0  0  0  0  0  0  0  0  0  0  0
  1  2  1  0
  2  3  1  0
  2  4  1  0
  4  5  2  0
  5  6  1  0
  6  7  2  0
  7  8  1  0
  8  9  1  0
  9 10  1  0
 10 11  1  0
 11 12  1  0
 12 13  1  1
 12 14  1  0
 14 15  1  0
 15 16  2  0
 16 17  1  0
 16 18  1  0
 18 19  1  0
 19 20  1  0
 20 21  1  0
 21 22  1  0
 22 23  1  0
 23 24  1  0
 24 25  1  0
 25 26  1  0
 26 27  2  0
 27 28  1  0
 28 29  2  0
 29 30  1  0
 30 31  1  0
 30 32  2  0
 28 33  1  0
 33 34  2  0
 33 35  1  0
  8 36  2  0
 32 26  1  0
 14 35  1  6
 36  4  1  0
M  END
$$$$
