
     RDKit          3D

 36 38  0  0  0  0  0  0  0  0999 V2000
  -19.5821  -35.9177  -12.1902 C   0  0  0  0  0  0  0  0  0  0  0  0
  -18.5989  -36.9027  -11.5462 C   0  0  0  0  0  0  0  0  0  0  0  0
  -17.2575  -36.2280  -11.4189 C   0  0  0  0  0  0  0  0  0  0  0  0
  -19.1392  -37.3681  -10.2461 C   0  0  0  0  0  0  0  0  0  0  0  0
  -20.3955  -37.9671  -10.1937 C   0  0  0  0  0  0  0  0  0  0  0  0
  -20.8607  -38.3827   -8.9664 C   0  0  0  0  0  0  0  0  0  0  0  0
  -20.1210  -38.2212   -7.8058 C   0  0  0  0  0  0  0  0  0  0  0  0
  -18.8894  -37.6253   -7.9102 C   0  0  0  0  0  0  0  0  0  0  0  0
  -18.0730  -37.4373   -6.6540 C   0  0  0  0  0  0  0  0  0  0  0  0
  -16.7172  -37.6590   -7.0195 N   0  0  0  0  0  0  0  0  0  0  0  0
  -16.1441  -38.9074   -6.6397 C   0  0  0  0  0  0  0  0  0  0  0  0
  -16.1733  -39.8975   -7.7331 C   0  0  1  0  0  0  0  0  0  0  0  0
  -14.9036  -40.3800   -8.0301 O   0  0  0  0  0  0  0  0  0  0  0  0
  -16.9740  -41.1155   -7.3184 C   0  0  2  0  0  0  0  0  0  0  0  0
  -17.4967  -41.8737   -8.5257 C   0  0  0  0  0  0  0  0  0  0  0  0
  -17.1358  -42.7860   -9.3559 C   0  0  0  0  0  0  0  0  0  0  0  0
  -15.8383  -43.6063   -9.4974 C   0  0  0  0  0  0  0  0  0  0  0  0
  -17.9319  -43.4213  -10.5175 C   0  0  0  0  0  0  0  0  0  0  0  0
  -18.2072  -44.8762  -10.2008 C   0  0  0  0  0  0  0  0  0  0  0  0
  -18.6447  -44.9635   -8.9081 O   0  0  0  0  0  0  0  0  0  0  0  0
  -18.7133  -46.2294   -8.3698 C   0  0  0  0  0  0  0  0  0  0  0  0
  -20.0941  -46.7829   -8.6478 C   0  0  0  0  0  0  0  0  0  0  0  0
  -20.8694  -46.8307   -7.3782 C   0  0  0  0  0  0  0  0  0  0  0  0
  -22.0757  -45.9196   -7.3380 C   0  0  0  0  0  0  0  0  0  0  0  0
  -21.9426  -44.7839   -8.1944 N   0  0  0  0  0  0  0  0  0  0  0  0
  -21.5472  -43.4282   -7.9103 C   0  0  0  0  0  0  0  0  0  0  0  0
  -20.4728  -42.8955   -7.2470 C   0  0  0  0  0  0  0  0  0  0  0  0
  -20.4023  -41.5222   -7.1908 C   0  0  0  0  0  0  0  0  0  0  0  0
  -21.4173  -40.7470   -7.8031 C   0  0  0  0  0  0  0  0  0  0  0  0
  -22.4960  -41.2896   -8.4678 C   0  0  0  0  0  0  0  0  0  0  0  0
  -23.7227  -40.2838   -9.2073 Cl  0  0  0  0  0  0  0  0  0  0  0  0
  -22.5081  -42.6032   -8.4890 N   0  0  0  0  0  0  0  0  0  0  0  0
  -19.3979  -40.6237   -6.5852 C   0  0  0  0  0  0  0  0  0  0  0  0
  -19.8424  -39.4867   -6.0538 O   0  0  0  0  0  0  0  0  0  0  0  0
  -18.0168  -40.6729   -6.4233 N   0  0  0  0  0  0  0  0  0  0  0  0
  -18.3775  -37.1891   -9.1306 C   0  0  0  0  0  0  0  0  0  0  0  0
  1  2  1  0
  2  3  1  0
  2  4  1  0
  4  5  2  0
  5  6  1  0
  6  7  2  0
  7  8  1  0
  8  9  1  0
  9 10  1  0
 10 11  1  0
 11 12  1  0
 12 13  1  1
 12 14  1  0
 14 15  1  0
 15 16  2  0
 16 17  1  0
 16 18  1  0
 18 19  1  0
 19 20  1  0
 20 21  1  0
 21 22  1  0
 22 23  1  0
 23 24  1  0
 24 25  1  0
 25 26  1  0
 26 27  2  0
 27 28  1  0
 28 29  2  0
 29 30  1  0
 30 31  1  0
 30 32  2  0
 28 33  1  0
 33 34  2  0
 33 35  1  0
  8 36  2  0
 32 26  1  0
 14 35  1  1
 36  4  1  0
M  END
$$$$
