
     RDKit          3D

 36 38  0  0  0  0  0  0  0  0999 V2000
  -21.7091  -42.0041   -4.8986 C   0  0  0  0  0  0  0  0  0  0  0  0
  -22.7199  -41.1361   -5.6579 C   0  0  0  0  0  0  0  0  0  0  0  0
  -23.4183  -40.2374   -4.6704 C   0  0  0  0  0  0  0  0  0  0  0  0
  -22.0252  -40.3869   -6.7327 C   0  0  0  0  0  0  0  0  0  0  0  0
  -22.0710  -40.8557   -8.0433 C   0  0  0  0  0  0  0  0  0  0  0  0
  -21.4108  -40.1314   -9.0103 C   0  0  0  0  0  0  0  0  0  0  0  0
  -20.7160  -38.9697   -8.7137 C   0  0  0  0  0  0  0  0  0  0  0  0
  -20.7008  -38.5497   -7.4075 C   0  0  0  0  0  0  0  0  0  0  0  0
  -19.9439  -37.2883   -7.0668 C   0  0  0  0  0  0  0  0  0  0  0  0
  -18.5665  -37.6396   -7.0477 N   0  0  0  0  0  0  0  0  0  0  0  0
  -18.1583  -38.6912   -7.9186 C   0  0  0  0  0  0  0  0  0  0  0  0
  -16.7162  -38.6412   -8.2261 C   0  0  1  0  0  0  0  0  0  0  0  0
  -15.9949  -37.9963   -7.2276 O   0  0  0  0  0  0  0  0  0  0  0  0
  -16.1427  -40.0426   -8.2881 C   0  0  2  0  0  0  0  0  0  0  0  0
  -15.7318  -40.4124   -9.7023 C   0  0  0  0  0  0  0  0  0  0  0  0
  -14.7321  -40.3090  -10.5034 C   0  0  0  0  0  0  0  0  0  0  0  0
  -13.3361  -39.6745  -10.3447 C   0  0  0  0  0  0  0  0  0  0  0  0
  -14.5741  -40.8439  -11.9440 C   0  0  0  0  0  0  0  0  0  0  0  0
  -13.5136  -41.9246  -11.9648 C   0  0  0  0  0  0  0  0  0  0  0  0
  -13.7353  -42.7701  -10.9131 O   0  0  0  0  0  0  0  0  0  0  0  0
  -12.7324  -43.6709  -10.6307 C   0  0  0  0  0  0  0  0  0  0  0  0
  -12.9989  -44.9326  -11.4227 C   0  0  0  0  0  0  0  0  0  0  0  0
  -13.4349  -46.0123  -10.4954 C   0  0  0  0  0  0  0  0  0  0  0  0
  -14.8533  -46.4926  -10.7050 C   0  0  0  0  0  0  0  0  0  0  0  0
  -15.6974  -45.4960  -11.2839 N   0  0  0  0  0  0  0  0  0  0  0  0
  -16.6372  -44.5871  -10.6790 C   0  0  0  0  0  0  0  0  0  0  0  0
  -16.5360  -43.7115   -9.6296 C   0  0  0  0  0  0  0  0  0  0  0  0
  -17.6553  -42.9652   -9.3396 C   0  0  0  0  0  0  0  0  0  0  0  0
  -18.8266  -43.1350  -10.1177 C   0  0  0  0  0  0  0  0  0  0  0  0
  -18.9216  -44.0185  -11.1714 C   0  0  0  0  0  0  0  0  0  0  0  0
  -20.3952  -44.1884  -12.1005 Cl  0  0  0  0  0  0  0  0  0  0  0  0
  -17.8226  -44.7010  -11.4004 N   0  0  0  0  0  0  0  0  0  0  0  0
  -17.8969  -41.9339   -8.3096 C   0  0  0  0  0  0  0  0  0  0  0  0
  -19.1170  -41.8796   -7.7793 O   0  0  0  0  0  0  0  0  0  0  0  0
  -17.1181  -40.9429   -7.7201 N   0  0  0  0  0  0  0  0  0  0  0  0
  -21.3545  -39.2498   -6.3955 C   0  0  0  0  0  0  0  0  0  0  0  0
  1  2  1  0
  2  3  1  0
  2  4  1  0
  4  5  2  0
  5  6  1  0
  6  7  2  0
  7  8  1  0
  8  9  1  0
  9 10  1  0
 10 11  1  0
 11 12  1  0
 12 13  1  1
 12 14  1  0
 14 15  1  0
 15 16  2  0
 16 17  1  0
 16 18  1  0
 18 19  1  0
 19 20  1  0
 20 21  1  0
 21 22  1  0
 22 23  1  0
 23 24  1  0
 24 25  1  0
 25 26  1  0
 26 27  2  0
 27 28  1  0
 28 29  2  0
 29 30  1  0
 30 31  1  0
 30 32  2  0
 28 33  1  0
 33 34  2  0
 33 35  1  0
  8 36  2  0
 32 26  1  0
 14 35  1  6
 36  4  1  0
M  END
$$$$
