
     RDKit          3D

 36 38  0  0  0  0  0  0  0  0999 V2000
  -21.7454  -35.3972   -7.6779 C   0  0  0  0  0  0  0  0  0  0  0  0
  -21.7854  -36.7463   -8.4060 C   0  0  0  0  0  0  0  0  0  0  0  0
  -20.6352  -36.8017   -9.3778 C   0  0  0  0  0  0  0  0  0  0  0  0
  -21.7600  -37.8486   -7.4144 C   0  0  0  0  0  0  0  0  0  0  0  0
  -22.9555  -38.3409   -6.8967 C   0  0  0  0  0  0  0  0  0  0  0  0
  -22.8870  -39.3632   -5.9770 C   0  0  0  0  0  0  0  0  0  0  0  0
  -21.6790  -39.9018   -5.5638 C   0  0  0  0  0  0  0  0  0  0  0  0
  -20.5293  -39.3821   -6.1034 C   0  0  0  0  0  0  0  0  0  0  0  0
  -19.2044  -39.9546   -5.6597 C   0  0  0  0  0  0  0  0  0  0  0  0
  -18.3030  -39.7662   -6.7427 N   0  0  0  0  0  0  0  0  0  0  0  0
  -17.3252  -38.7399   -6.5954 C   0  0  0  0  0  0  0  0  0  0  0  0
  -16.6225  -38.4447   -7.8586 C   0  0  1  0  0  0  0  0  0  0  0  0
  -15.9606  -37.2228   -7.8107 O   0  0  0  0  0  0  0  0  0  0  0  0
  -15.5388  -39.4736   -8.1106 C   0  0  2  0  0  0  0  0  0  0  0  0
  -15.2501  -39.6240   -9.5937 C   0  0  0  0  0  0  0  0  0  0  0  0
  -14.5295  -39.1025  -10.5213 C   0  0  0  0  0  0  0  0  0  0  0  0
  -13.5164  -37.9405  -10.5192 C   0  0  0  0  0  0  0  0  0  0  0  0
  -14.4030  -39.5089  -12.0064 C   0  0  0  0  0  0  0  0  0  0  0  0
  -13.0094  -40.0423  -12.2640 C   0  0  0  0  0  0  0  0  0  0  0  0
  -12.6849  -40.9113  -11.2592 O   0  0  0  0  0  0  0  0  0  0  0  0
  -11.3676  -41.3084  -11.1956 C   0  0  0  0  0  0  0  0  0  0  0  0
  -11.2137  -42.5582  -12.0348 C   0  0  0  0  0  0  0  0  0  0  0  0
  -11.0046  -43.7288  -11.1396 C   0  0  0  0  0  0  0  0  0  0  0  0
  -12.1099  -44.7601  -11.1769 C   0  0  0  0  0  0  0  0  0  0  0  0
  -13.3734  -44.2068  -11.5487 N   0  0  0  0  0  0  0  0  0  0  0  0
  -14.4919  -43.7834  -10.7456 C   0  0  0  0  0  0  0  0  0  0  0  0
  -14.5916  -42.9555   -9.6581 C   0  0  0  0  0  0  0  0  0  0  0  0
  -15.8552  -42.7525   -9.1520 C   0  0  0  0  0  0  0  0  0  0  0  0
  -16.9612  -43.3931   -9.7622 C   0  0  0  0  0  0  0  0  0  0  0  0
  -16.8534  -44.2256  -10.8554 C   0  0  0  0  0  0  0  0  0  0  0  0
  -18.2548  -44.9924  -11.5707 Cl  0  0  0  0  0  0  0  0  0  0  0  0
  -15.6244  -44.3798  -11.2936 N   0  0  0  0  0  0  0  0  0  0  0  0
  -16.3294  -41.9275   -8.0217 C   0  0  0  0  0  0  0  0  0  0  0  0
  -17.3572  -42.3966   -7.3170 O   0  0  0  0  0  0  0  0  0  0  0  0
  -15.9459  -40.7057   -7.4775 N   0  0  0  0  0  0  0  0  0  0  0  0
  -20.5497  -38.3480   -7.0371 C   0  0  0  0  0  0  0  0  0  0  0  0
  1  2  1  0
  2  3  1  0
  2  4  1  0
  4  5  2  0
  5  6  1  0
  6  7  2  0
  7  8  1  0
  8  9  1  0
  9 10  1  0
 10 11  1  0
 11 12  1  0
 12 13  1  1
 12 14  1  0
 14 15  1  0
 15 16  2  0
 16 17  1  0
 16 18  1  0
 18 19  1  0
 19 20  1  0
 20 21  1  0
 21 22  1  0
 22 23  1  0
 23 24  1  0
 24 25  1  0
 25 26  1  0
 26 27  2  0
 27 28  1  0
 28 29  2  0
 29 30  1  0
 30 31  1  0
 30 32  2  0
 28 33  1  0
 33 34  2  0
 33 35  1  0
  8 36  2  0
 32 26  1  0
 14 35  1  6
 36  4  1  0
M  END
$$$$
