
     RDKit          3D

 36 38  0  0  0  0  0  0  0  0999 V2000
  -20.7172  -41.7434   -3.2199 C   0  0  0  0  0  0  0  0  0  0  0  0
  -21.9655  -40.8648   -3.3667 C   0  0  0  0  0  0  0  0  0  0  0  0
  -21.8955  -39.7570   -2.3475 C   0  0  0  0  0  0  0  0  0  0  0  0
  -22.0626  -40.3654   -4.7596 C   0  0  0  0  0  0  0  0  0  0  0  0
  -23.1360  -40.7503   -5.5591 C   0  0  0  0  0  0  0  0  0  0  0  0
  -23.1868  -40.2658   -6.8468 C   0  0  0  0  0  0  0  0  0  0  0  0
  -22.2127  -39.4208   -7.3541 C   0  0  0  0  0  0  0  0  0  0  0  0
  -21.1755  -39.0711   -6.5267 C   0  0  0  0  0  0  0  0  0  0  0  0
  -20.1033  -38.1549   -7.0660 C   0  0  0  0  0  0  0  0  0  0  0  0
  -19.0332  -38.9921   -7.4844 N   0  0  0  0  0  0  0  0  0  0  0  0
  -17.7690  -38.7807   -6.8614 C   0  0  0  0  0  0  0  0  0  0  0  0
  -16.6676  -38.6853   -7.8383 C   0  0  1  0  0  0  0  0  0  0  0  0
  -15.6583  -37.8349   -7.4008 O   0  0  0  0  0  0  0  0  0  0  0  0
  -16.0013  -40.0351   -8.0133 C   0  0  2  0  0  0  0  0  0  0  0  0
  -15.6332  -40.2887   -9.4645 C   0  0  0  0  0  0  0  0  0  0  0  0
  -14.6824  -40.0652  -10.2997 C   0  0  0  0  0  0  0  0  0  0  0  0
  -13.3281  -39.3418  -10.1616 C   0  0  0  0  0  0  0  0  0  0  0  0
  -14.5560  -40.5000  -11.7767 C   0  0  0  0  0  0  0  0  0  0  0  0
  -13.4249  -41.4977  -11.9114 C   0  0  0  0  0  0  0  0  0  0  0  0
  -13.5368  -42.4185  -10.9066 O   0  0  0  0  0  0  0  0  0  0  0  0
  -12.4612  -43.2595  -10.7252 C   0  0  0  0  0  0  0  0  0  0  0  0
  -12.6763  -44.4875  -11.5830 C   0  0  0  0  0  0  0  0  0  0  0  0
  -12.9914  -45.6495  -10.7078 C   0  0  0  0  0  0  0  0  0  0  0  0
  -14.3812  -46.2182  -10.8860 C   0  0  0  0  0  0  0  0  0  0  0  0
  -15.3193  -45.2525  -11.3639 N   0  0  0  0  0  0  0  0  0  0  0  0
  -16.2904  -44.4521  -10.6629 C   0  0  0  0  0  0  0  0  0  0  0  0
  -16.2009  -43.6359   -9.5657 C   0  0  0  0  0  0  0  0  0  0  0  0
  -17.3545  -42.9915   -9.1812 C   0  0  0  0  0  0  0  0  0  0  0  0
  -18.5467  -43.1989   -9.9172 C   0  0  0  0  0  0  0  0  0  0  0  0
  -18.6298  -44.0223  -11.0195 C   0  0  0  0  0  0  0  0  0  0  0  0
  -20.1303  -44.2427  -11.8932 Cl  0  0  0  0  0  0  0  0  0  0  0  0
  -17.4980  -44.6083  -11.3383 N   0  0  0  0  0  0  0  0  0  0  0  0
  -17.6183  -42.0441   -8.0786 C   0  0  0  0  0  0  0  0  0  0  0  0
  -18.8127  -42.1103   -7.4938 O   0  0  0  0  0  0  0  0  0  0  0  0
  -16.8834  -41.0363   -7.4618 N   0  0  0  0  0  0  0  0  0  0  0  0
  -21.0825  -39.5364   -5.2165 C   0  0  0  0  0  0  0  0  0  0  0  0
  1  2  1  0
  2  3  1  0
  2  4  1  0
  4  5  2  0
  5  6  1  0
  6  7  2  0
  7  8  1  0
  8  9  1  0
  9 10  1  0
 10 11  1  0
 11 12  1  0
 12 13  1  1
 12 14  1  0
 14 15  1  0
 15 16  2  0
 16 17  1  0
 16 18  1  0
 18 19  1  0
 19 20  1  0
 20 21  1  0
 21 22  1  0
 22 23  1  0
 23 24  1  0
 24 25  1  0
 25 26  1  0
 26 27  2  0
 27 28  1  0
 28 29  2  0
 29 30  1  0
 30 31  1  0
 30 32  2  0
 28 33  1  0
 33 34  2  0
 33 35  1  0
  8 36  2  0
 32 26  1  0
 14 35  1  6
 36  4  1  0
M  END
$$$$
