
     RDKit          3D

 36 38  0  0  0  0  0  0  0  0999 V2000
  -24.2645  -40.9401   -5.6848 C   0  0  0  0  0  0  0  0  0  0  0  0
  -22.7583  -40.8245   -5.4209 C   0  0  0  0  0  0  0  0  0  0  0  0
  -22.1998  -42.2084   -5.2121 C   0  0  0  0  0  0  0  0  0  0  0  0
  -22.1101  -40.1010   -6.5414 C   0  0  0  0  0  0  0  0  0  0  0  0
  -22.6154  -40.2306   -7.8327 C   0  0  0  0  0  0  0  0  0  0  0  0
  -21.9827  -39.5436   -8.8443 C   0  0  0  0  0  0  0  0  0  0  0  0
  -20.8765  -38.7426   -8.6101 C   0  0  0  0  0  0  0  0  0  0  0  0
  -20.4171  -38.6480   -7.3206 C   0  0  0  0  0  0  0  0  0  0  0  0
  -19.2095  -37.7830   -7.0494 C   0  0  0  0  0  0  0  0  0  0  0  0
  -18.2744  -38.6036   -6.3617 N   0  0  0  0  0  0  0  0  0  0  0  0
  -16.8952  -38.2833   -6.5243 C   0  0  0  0  0  0  0  0  0  0  0  0
  -16.4436  -38.4269   -7.9215 C   0  0  1  0  0  0  0  0  0  0  0  0
  -15.5082  -37.4578   -8.2666 O   0  0  0  0  0  0  0  0  0  0  0  0
  -15.7316  -39.7512   -8.1106 C   0  0  2  0  0  0  0  0  0  0  0  0
  -15.4422  -40.0216   -9.5765 C   0  0  0  0  0  0  0  0  0  0  0  0
  -14.5547  -39.7773  -10.4733 C   0  0  0  0  0  0  0  0  0  0  0  0
  -13.2271  -38.9948  -10.4338 C   0  0  0  0  0  0  0  0  0  0  0  0
  -14.5002  -40.2394  -11.9465 C   0  0  0  0  0  0  0  0  0  0  0  0
  -13.3373  -41.1916  -12.1312 C   0  0  0  0  0  0  0  0  0  0  0  0
  -13.3478  -42.0936  -11.1033 O   0  0  0  0  0  0  0  0  0  0  0  0
  -12.2277  -42.8844  -10.9723 C   0  0  0  0  0  0  0  0  0  0  0  0
  -12.4416  -44.1393  -11.7906 C   0  0  0  0  0  0  0  0  0  0  0  0
  -12.6521  -45.2936  -10.8747 C   0  0  0  0  0  0  0  0  0  0  0  0
  -14.0243  -45.9238  -10.9551 C   0  0  0  0  0  0  0  0  0  0  0  0
  -15.0307  -45.0093  -11.3930 N   0  0  0  0  0  0  0  0  0  0  0  0
  -15.9909  -44.2348  -10.6491 C   0  0  0  0  0  0  0  0  0  0  0  0
  -15.8699  -43.3911   -9.5759 C   0  0  0  0  0  0  0  0  0  0  0  0
  -17.0246  -42.7872   -9.1335 C   0  0  0  0  0  0  0  0  0  0  0  0
  -18.2495  -43.0608   -9.7900 C   0  0  0  0  0  0  0  0  0  0  0  0
  -18.3641  -43.9115  -10.8685 C   0  0  0  0  0  0  0  0  0  0  0  0
  -19.9042  -44.2141  -11.6428 Cl  0  0  0  0  0  0  0  0  0  0  0  0
  -17.2296  -44.4565  -11.2451 N   0  0  0  0  0  0  0  0  0  0  0  0
  -17.2612  -41.8271   -8.0357 C   0  0  0  0  0  0  0  0  0  0  0  0
  -18.4136  -41.9302   -7.3768 O   0  0  0  0  0  0  0  0  0  0  0  0
  -16.5343  -40.7758   -7.4858 N   0  0  0  0  0  0  0  0  0  0  0  0
  -21.0252  -39.3244   -6.2650 C   0  0  0  0  0  0  0  0  0  0  0  0
  1  2  1  0
  2  3  1  0
  2  4  1  0
  4  5  2  0
  5  6  1  0
  6  7  2  0
  7  8  1  0
  8  9  1  0
  9 10  1  0
 10 11  1  0
 11 12  1  0
 12 13  1  1
 12 14  1  0
 14 15  1  0
 15 16  2  0
 16 17  1  0
 16 18  1  0
 18 19  1  0
 19 20  1  0
 20 21  1  0
 21 22  1  0
 22 23  1  0
 23 24  1  0
 24 25  1  0
 25 26  1  0
 26 27  2  0
 27 28  1  0
 28 29  2  0
 29 30  1  0
 30 31  1  0
 30 32  2  0
 28 33  1  0
 33 34  2  0
 33 35  1  0
  8 36  2  0
 32 26  1  0
 14 35  1  6
 36  4  1  0
M  END
$$$$
