
     RDKit          3D

 36 38  0  0  0  0  0  0  0  0999 V2000
  -20.8879  -37.0595  -12.2242 C   0  0  0  0  0  0  0  0  0  0  0  0
  -21.3846  -38.2403  -11.3811 C   0  0  0  0  0  0  0  0  0  0  0  0
  -20.8153  -39.5124  -11.9541 C   0  0  0  0  0  0  0  0  0  0  0  0
  -21.0156  -38.0285   -9.9605 C   0  0  0  0  0  0  0  0  0  0  0  0
  -21.9594  -38.2490   -8.9605 C   0  0  0  0  0  0  0  0  0  0  0  0
  -21.5763  -38.0385   -7.6549 C   0  0  0  0  0  0  0  0  0  0  0  0
  -20.2979  -37.6205   -7.3214 C   0  0  0  0  0  0  0  0  0  0  0  0
  -19.4048  -37.4171   -8.3430 C   0  0  0  0  0  0  0  0  0  0  0  0
  -18.0091  -36.9566   -7.9966 C   0  0  0  0  0  0  0  0  0  0  0  0
  -17.1204  -37.9198   -8.5475 N   0  0  0  0  0  0  0  0  0  0  0  0
  -17.3551  -39.2829   -8.2041 C   0  0  0  0  0  0  0  0  0  0  0  0
  -16.1037  -40.0470   -8.0410 C   0  0  1  0  0  0  0  0  0  0  0  0
  -15.3262  -39.5531   -6.9994 O   0  0  0  0  0  0  0  0  0  0  0  0
  -16.4093  -41.4822   -7.6622 C   0  0  2  0  0  0  0  0  0  0  0  0
  -16.3602  -42.3984   -8.8721 C   0  0  0  0  0  0  0  0  0  0  0  0
  -15.5224  -43.0908   -9.5579 C   0  0  0  0  0  0  0  0  0  0  0  0
  -14.0024  -43.3108   -9.4243 C   0  0  0  0  0  0  0  0  0  0  0  0
  -15.7764  -44.0061  -10.7763 C   0  0  0  0  0  0  0  0  0  0  0  0
  -15.4975  -45.4437  -10.3911 C   0  0  0  0  0  0  0  0  0  0  0  0
  -16.0862  -45.6908   -9.1817 O   0  0  0  0  0  0  0  0  0  0  0  0
  -15.7367  -46.8695   -8.5608 C   0  0  0  0  0  0  0  0  0  0  0  0
  -16.7065  -47.9411   -9.0096 C   0  0  0  0  0  0  0  0  0  0  0  0
  -17.6105  -48.2903   -7.8798 C   0  0  0  0  0  0  0  0  0  0  0  0
  -19.0667  -47.9512   -8.1059 C   0  0  0  0  0  0  0  0  0  0  0  0
  -19.2494  -46.8678   -9.0190 N   0  0  0  0  0  0  0  0  0  0  0  0
  -19.4877  -45.4664   -8.7859 C   0  0  0  0  0  0  0  0  0  0  0  0
  -18.8537  -44.5355   -8.0052 C   0  0  0  0  0  0  0  0  0  0  0  0
  -19.3504  -43.2528   -8.0495 C   0  0  0  0  0  0  0  0  0  0  0  0
  -20.4640  -42.9652   -8.8761 C   0  0  0  0  0  0  0  0  0  0  0  0
  -21.0976  -43.9069   -9.6581 C   0  0  0  0  0  0  0  0  0  0  0  0
  -22.4713  -43.4966  -10.6621 Cl  0  0  0  0  0  0  0  0  0  0  0  0
  -20.5786  -45.1110   -9.5748 N   0  0  0  0  0  0  0  0  0  0  0  0
  -18.9155  -42.0171   -7.3663 C   0  0  0  0  0  0  0  0  0  0  0  0
  -19.8652  -41.1562   -7.0059 O   0  0  0  0  0  0  0  0  0  0  0  0
  -17.6834  -41.4964   -6.9831 N   0  0  0  0  0  0  0  0  0  0  0  0
  -19.7474  -37.6175   -9.6787 C   0  0  0  0  0  0  0  0  0  0  0  0
  1  2  1  0
  2  3  1  0
  2  4  1  0
  4  5  2  0
  5  6  1  0
  6  7  2  0
  7  8  1  0
  8  9  1  0
  9 10  1  0
 10 11  1  0
 11 12  1  0
 12 13  1  1
 12 14  1  0
 14 15  1  0
 15 16  2  0
 16 17  1  0
 16 18  1  0
 18 19  1  0
 19 20  1  0
 20 21  1  0
 21 22  1  0
 22 23  1  0
 23 24  1  0
 24 25  1  0
 25 26  1  0
 26 27  2  0
 27 28  1  0
 28 29  2  0
 29 30  1  0
 30 31  1  0
 30 32  2  0
 28 33  1  0
 33 34  2  0
 33 35  1  0
  8 36  2  0
 32 26  1  0
 14 35  1  6
 36  4  1  0
M  END
$$$$
