
     RDKit          3D

 36 38  0  0  0  0  0  0  0  0999 V2000
  -22.0753  -42.1300   -5.8286 C   0  0  0  0  0  0  0  0  0  0  0  0
  -22.5093  -40.6820   -5.5704 C   0  0  0  0  0  0  0  0  0  0  0  0
  -21.7752  -40.1697   -4.3583 C   0  0  0  0  0  0  0  0  0  0  0  0
  -22.2661  -39.8649   -6.7836 C   0  0  0  0  0  0  0  0  0  0  0  0
  -23.1999  -39.8658   -7.8169 C   0  0  0  0  0  0  0  0  0  0  0  0
  -22.9343  -39.0951   -8.9264 C   0  0  0  0  0  0  0  0  0  0  0  0
  -21.7814  -38.3341   -9.0349 C   0  0  0  0  0  0  0  0  0  0  0  0
  -20.8927  -38.3671   -7.9900 C   0  0  0  0  0  0  0  0  0  0  0  0
  -19.6290  -37.5473   -8.0949 C   0  0  0  0  0  0  0  0  0  0  0  0
  -18.6099  -38.2957   -7.4452 N   0  0  0  0  0  0  0  0  0  0  0  0
  -17.8110  -39.1434   -8.2664 C   0  0  0  0  0  0  0  0  0  0  0  0
  -16.3928  -38.7371   -8.2851 C   0  0  1  0  0  0  0  0  0  0  0  0
  -16.0604  -37.9627   -7.1791 O   0  0  0  0  0  0  0  0  0  0  0  0
  -15.4955  -39.9553   -8.2009 C   0  0  2  0  0  0  0  0  0  0  0  0
  -15.0455  -40.4098   -9.5781 C   0  0  0  0  0  0  0  0  0  0  0  0
  -14.1240  -40.1833  -10.4448 C   0  0  0  0  0  0  0  0  0  0  0  0
  -12.9221  -39.2180  -10.4538 C   0  0  0  0  0  0  0  0  0  0  0  0
  -13.8794  -40.8605  -11.8116 C   0  0  0  0  0  0  0  0  0  0  0  0
  -12.5875  -41.6486  -11.7574 C   0  0  0  0  0  0  0  0  0  0  0  0
  -12.5664  -42.3674  -10.5942 O   0  0  0  0  0  0  0  0  0  0  0  0
  -11.3660  -42.9541  -10.2596 C   0  0  0  0  0  0  0  0  0  0  0  0
  -11.3370  -44.3406  -10.8651 C   0  0  0  0  0  0  0  0  0  0  0  0
  -11.4697  -45.3530   -9.7820 C   0  0  0  0  0  0  0  0  0  0  0  0
  -12.7324  -46.1827   -9.8419 C   0  0  0  0  0  0  0  0  0  0  0  0
  -13.8105  -45.5073  -10.4920 N   0  0  0  0  0  0  0  0  0  0  0  0
  -14.9273  -44.7741   -9.9532 C   0  0  0  0  0  0  0  0  0  0  0  0
  -15.0149  -43.7622   -9.0332 C   0  0  0  0  0  0  0  0  0  0  0  0
  -16.2745  -43.2719   -8.7744 C   0  0  0  0  0  0  0  0  0  0  0  0
  -17.3894  -43.8234   -9.4519 C   0  0  0  0  0  0  0  0  0  0  0  0
  -17.2940  -44.8421  -10.3755 C   0  0  0  0  0  0  0  0  0  0  0  0
  -18.7060  -45.4869  -11.1841 Cl  0  0  0  0  0  0  0  0  0  0  0  0
  -16.0681  -45.2673  -10.5809 N   0  0  0  0  0  0  0  0  0  0  0  0
  -16.7329  -42.1950   -7.8728 C   0  0  0  0  0  0  0  0  0  0  0  0
  -17.9142  -42.3603   -7.2810 O   0  0  0  0  0  0  0  0  0  0  0  0
  -16.2047  -40.9744   -7.4639 N   0  0  0  0  0  0  0  0  0  0  0  0
  -21.1193  -39.1319   -6.8474 C   0  0  0  0  0  0  0  0  0  0  0  0
  1  2  1  0
  2  3  1  0
  2  4  1  0
  4  5  2  0
  5  6  1  0
  6  7  2  0
  7  8  1  0
  8  9  1  0
  9 10  1  0
 10 11  1  0
 11 12  1  0
 12 13  1  1
 12 14  1  0
 14 15  1  0
 15 16  2  0
 16 17  1  0
 16 18  1  0
 18 19  1  0
 19 20  1  0
 20 21  1  0
 21 22  1  0
 22 23  1  0
 23 24  1  0
 24 25  1  0
 25 26  1  0
 26 27  2  0
 27 28  1  0
 28 29  2  0
 29 30  1  0
 30 31  1  0
 30 32  2  0
 28 33  1  0
 33 34  2  0
 33 35  1  0
  8 36  2  0
 32 26  1  0
 14 35  1  6
 36  4  1  0
M  END
$$$$
