
     RDKit          3D

 36 38  0  0  0  0  0  0  0  0999 V2000
  -19.5484  -36.3486  -13.3757 C   0  0  0  0  0  0  0  0  0  0  0  0
  -18.4940  -35.8826  -12.3645 C   0  0  0  0  0  0  0  0  0  0  0  0
  -18.5573  -34.3805  -12.2627 C   0  0  0  0  0  0  0  0  0  0  0  0
  -18.7155  -36.5614  -11.0648 C   0  0  0  0  0  0  0  0  0  0  0  0
  -19.9498  -37.1454  -10.7911 C   0  0  0  0  0  0  0  0  0  0  0  0
  -20.1142  -37.7634   -9.5718 C   0  0  0  0  0  0  0  0  0  0  0  0
  -19.0987  -37.8159   -8.6305 C   0  0  0  0  0  0  0  0  0  0  0  0
  -17.9014  -37.2255   -8.9480 C   0  0  0  0  0  0  0  0  0  0  0  0
  -16.7862  -37.2696   -7.9310 C   0  0  0  0  0  0  0  0  0  0  0  0
  -17.2781  -38.0199   -6.8283 N   0  0  0  0  0  0  0  0  0  0  0  0
  -16.4334  -39.0507   -6.3231 C   0  0  0  0  0  0  0  0  0  0  0  0
  -16.0232  -40.0070   -7.3690 C   0  0  1  0  0  0  0  0  0  0  0  0
  -14.6689  -40.3120   -7.2907 O   0  0  0  0  0  0  0  0  0  0  0  0
  -16.7394  -41.3295   -7.1828 C   0  0  2  0  0  0  0  0  0  0  0  0
  -17.0216  -42.0006   -8.5153 C   0  0  0  0  0  0  0  0  0  0  0  0
  -16.4646  -42.7839   -9.3684 C   0  0  0  0  0  0  0  0  0  0  0  0
  -15.0814  -43.4638   -9.4049 C   0  0  0  0  0  0  0  0  0  0  0  0
  -17.0349  -43.3629  -10.6822 C   0  0  0  0  0  0  0  0  0  0  0  0
  -17.1959  -44.8620  -10.5421 C   0  0  0  0  0  0  0  0  0  0  0  0
  -17.7838  -45.1242   -9.3355 O   0  0  0  0  0  0  0  0  0  0  0  0
  -17.7889  -46.4408   -8.9309 C   0  0  0  0  0  0  0  0  0  0  0  0
  -19.0576  -47.0848   -9.4464 C   0  0  0  0  0  0  0  0  0  0  0  0
  -19.9799  -47.3361   -8.3055 C   0  0  0  0  0  0  0  0  0  0  0  0
  -21.2695  -46.5475   -8.3480 C   0  0  0  0  0  0  0  0  0  0  0  0
  -21.1466  -45.3206   -9.0695 N   0  0  0  0  0  0  0  0  0  0  0  0
  -20.9339  -43.9720   -8.6097 C   0  0  0  0  0  0  0  0  0  0  0  0
  -20.0145  -43.4170   -7.7585 C   0  0  0  0  0  0  0  0  0  0  0  0
  -20.0949  -42.0566   -7.5666 C   0  0  0  0  0  0  0  0  0  0  0  0
  -21.0981  -41.3164   -8.2388 C   0  0  0  0  0  0  0  0  0  0  0  0
  -22.0205  -41.8815   -9.0929 C   0  0  0  0  0  0  0  0  0  0  0  0
  -23.2403  -40.9189   -9.8984 Cl  0  0  0  0  0  0  0  0  0  0  0  0
  -21.8932  -43.1812   -9.2367 N   0  0  0  0  0  0  0  0  0  0  0  0
  -19.2751  -41.1395   -6.7482 C   0  0  0  0  0  0  0  0  0  0  0  0
  -19.8997  -40.1097   -6.1805 O   0  0  0  0  0  0  0  0  0  0  0  0
  -17.9285  -41.0800   -6.4028 N   0  0  0  0  0  0  0  0  0  0  0  0
  -17.6890  -36.5890  -10.1693 C   0  0  0  0  0  0  0  0  0  0  0  0
  1  2  1  0
  2  3  1  0
  2  4  1  0
  4  5  2  0
  5  6  1  0
  6  7  2  0
  7  8  1  0
  8  9  1  0
  9 10  1  0
 10 11  1  0
 11 12  1  0
 12 13  1  1
 12 14  1  0
 14 15  1  0
 15 16  2  0
 16 17  1  0
 16 18  1  0
 18 19  1  0
 19 20  1  0
 20 21  1  0
 21 22  1  0
 22 23  1  0
 23 24  1  0
 24 25  1  0
 25 26  1  0
 26 27  2  0
 27 28  1  0
 28 29  2  0
 29 30  1  0
 30 31  1  0
 30 32  2  0
 28 33  1  0
 33 34  2  0
 33 35  1  0
  8 36  2  0
 32 26  1  0
 14 35  1  6
 36  4  1  0
M  END
$$$$
