
     RDKit          3D

 36 38  0  0  0  0  0  0  0  0999 V2000
  -23.6811  -39.9998   -4.1800 C   0  0  0  0  0  0  0  0  0  0  0  0
  -22.5954  -40.7412   -4.9695 C   0  0  0  0  0  0  0  0  0  0  0  0
  -23.0612  -42.1527   -5.2172 C   0  0  0  0  0  0  0  0  0  0  0  0
  -22.2958  -40.0020   -6.2196 C   0  0  0  0  0  0  0  0  0  0  0  0
  -23.2059  -40.0279   -7.2735 C   0  0  0  0  0  0  0  0  0  0  0  0
  -22.8879  -39.3300   -8.4170 C   0  0  0  0  0  0  0  0  0  0  0  0
  -21.7061  -38.6170   -8.5393 C   0  0  0  0  0  0  0  0  0  0  0  0
  -20.8426  -38.6228   -7.4729 C   0  0  0  0  0  0  0  0  0  0  0  0
  -19.5480  -37.8548   -7.5921 C   0  0  0  0  0  0  0  0  0  0  0  0
  -18.5058  -38.8216   -7.5877 N   0  0  0  0  0  0  0  0  0  0  0  0
  -17.1805  -38.3386   -7.3848 C   0  0  0  0  0  0  0  0  0  0  0  0
  -16.2249  -38.8832   -8.3682 C   0  0  1  0  0  0  0  0  0  0  0  0
  -15.0047  -38.2178   -8.3292 O   0  0  0  0  0  0  0  0  0  0  0  0
  -15.9003  -40.3271   -8.0422 C   0  0  2  0  0  0  0  0  0  0  0  0
  -15.3541  -41.0607   -9.2544 C   0  0  0  0  0  0  0  0  0  0  0  0
  -14.2439  -41.2796   -9.8635 C   0  0  0  0  0  0  0  0  0  0  0  0
  -12.7984  -40.8232   -9.5829 C   0  0  0  0  0  0  0  0  0  0  0  0
  -13.9686  -42.1438  -11.1141 C   0  0  0  0  0  0  0  0  0  0  0  0
  -13.1204  -43.3360  -10.7239 C   0  0  0  0  0  0  0  0  0  0  0  0
  -13.6391  -43.8824   -9.5826 O   0  0  0  0  0  0  0  0  0  0  0  0
  -12.8609  -44.8244   -8.9471 C   0  0  0  0  0  0  0  0  0  0  0  0
  -13.2213  -46.1841   -9.5052 C   0  0  0  0  0  0  0  0  0  0  0  0
  -13.9708  -46.9551   -8.4760 C   0  0  0  0  0  0  0  0  0  0  0  0
  -15.4039  -47.2714   -8.8405 C   0  0  0  0  0  0  0  0  0  0  0  0
  -15.9668  -46.3259   -9.7516 N   0  0  0  0  0  0  0  0  0  0  0  0
  -16.8141  -45.1835   -9.5232 C   0  0  0  0  0  0  0  0  0  0  0  0
  -16.7199  -44.1152   -8.6701 C   0  0  0  0  0  0  0  0  0  0  0  0
  -17.7233  -43.1763   -8.7450 C   0  0  0  0  0  0  0  0  0  0  0  0
  -18.7774  -43.3559   -9.6739 C   0  0  0  0  0  0  0  0  0  0  0  0
  -18.8664  -44.4338  -10.5284 C   0  0  0  0  0  0  0  0  0  0  0  0
  -20.1923  -44.6063  -11.6578 Cl  0  0  0  0  0  0  0  0  0  0  0  0
  -17.8807  -45.2945  -10.4113 N   0  0  0  0  0  0  0  0  0  0  0  0
  -17.9328  -41.9152   -8.0043 C   0  0  0  0  0  0  0  0  0  0  0  0
  -19.1901  -41.5753   -7.7276 O   0  0  0  0  0  0  0  0  0  0  0  0
  -17.0905  -40.9327   -7.4933 N   0  0  0  0  0  0  0  0  0  0  0  0
  -21.1221  -39.3142   -6.2959 C   0  0  0  0  0  0  0  0  0  0  0  0
  1  2  1  0
  2  3  1  0
  2  4  1  0
  4  5  2  0
  5  6  1  0
  6  7  2  0
  7  8  1  0
  8  9  1  0
  9 10  1  0
 10 11  1  0
 11 12  1  0
 12 13  1  1
 12 14  1  0
 14 15  1  0
 15 16  2  0
 16 17  1  0
 16 18  1  0
 18 19  1  0
 19 20  1  0
 20 21  1  0
 21 22  1  0
 22 23  1  0
 23 24  1  0
 24 25  1  0
 25 26  1  0
 26 27  2  0
 27 28  1  0
 28 29  2  0
 29 30  1  0
 30 31  1  0
 30 32  2  0
 28 33  1  0
 33 34  2  0
 33 35  1  0
  8 36  2  0
 32 26  1  0
 14 35  1  6
 36  4  1  0
M  END
$$$$
