
     RDKit          3D

 36 38  0  0  0  0  0  0  0  0999 V2000
  -18.6294  -34.7445  -12.1319 C   0  0  0  0  0  0  0  0  0  0  0  0
  -19.1995  -36.1270  -11.7922 C   0  0  0  0  0  0  0  0  0  0  0  0
  -20.0654  -36.5839  -12.9376 C   0  0  0  0  0  0  0  0  0  0  0  0
  -18.0897  -37.0644  -11.4948 C   0  0  0  0  0  0  0  0  0  0  0  0
  -17.9739  -38.2502  -12.2160 C   0  0  0  0  0  0  0  0  0  0  0  0
  -16.9304  -39.0934  -11.9067 C   0  0  0  0  0  0  0  0  0  0  0  0
  -16.0117  -38.7938  -10.9135 C   0  0  0  0  0  0  0  0  0  0  0  0
  -16.1694  -37.6135  -10.2316 C   0  0  0  0  0  0  0  0  0  0  0  0
  -15.1796  -37.2747   -9.1428 C   0  0  0  0  0  0  0  0  0  0  0  0
  -15.6587  -37.8960   -7.9573 N   0  0  0  0  0  0  0  0  0  0  0  0
  -14.8742  -38.9607   -7.4263 C   0  0  0  0  0  0  0  0  0  0  0  0
  -15.3633  -40.2870   -7.8489 C   0  0  1  0  0  0  0  0  0  0  0  0
  -14.4277  -41.2865   -7.6061 O   0  0  0  0  0  0  0  0  0  0  0  0
  -16.5830  -40.6800   -7.0400 C   0  0  2  0  0  0  0  0  0  0  0  0
  -17.4806  -41.6289   -7.8144 C   0  0  0  0  0  0  0  0  0  0  0  0
  -17.6261  -42.8834   -8.0524 C   0  0  0  0  0  0  0  0  0  0  0  0
  -16.8389  -44.1258   -7.5905 C   0  0  0  0  0  0  0  0  0  0  0  0
  -18.7103  -43.6010   -8.8868 C   0  0  0  0  0  0  0  0  0  0  0  0
  -19.5726  -44.4440   -7.9710 C   0  0  0  0  0  0  0  0  0  0  0  0
  -19.8994  -43.6965   -6.8735 O   0  0  0  0  0  0  0  0  0  0  0  0
  -20.4759  -44.3738   -5.8218 C   0  0  0  0  0  0  0  0  0  0  0  0
  -21.9765  -44.3521   -6.0165 C   0  0  0  0  0  0  0  0  0  0  0  0
  -22.5898  -43.4435   -5.0096 C   0  0  0  0  0  0  0  0  0  0  0  0
  -23.2635  -42.2195   -5.5881 C   0  0  0  0  0  0  0  0  0  0  0  0
  -22.7121  -41.8241   -6.8453 N   0  0  0  0  0  0  0  0  0  0  0  0
  -21.7384  -40.8146   -7.1737 C   0  0  0  0  0  0  0  0  0  0  0  0
  -20.4902  -40.5355   -6.6815 C   0  0  0  0  0  0  0  0  0  0  0  0
  -19.8174  -39.4870   -7.2662 C   0  0  0  0  0  0  0  0  0  0  0  0
  -20.4318  -38.7655   -8.3189 C   0  0  0  0  0  0  0  0  0  0  0  0
  -21.6883  -39.0511   -8.8083 C   0  0  0  0  0  0  0  0  0  0  0  0
  -22.4006  -38.1261  -10.1123 Cl  0  0  0  0  0  0  0  0  0  0  0  0
  -22.2798  -40.0614   -8.2120 N   0  0  0  0  0  0  0  0  0  0  0  0
  -18.4751  -38.9268   -7.0067 C   0  0  0  0  0  0  0  0  0  0  0  0
  -18.3290  -37.6108   -7.1468 O   0  0  0  0  0  0  0  0  0  0  0  0
  -17.2491  -39.4664   -6.6301 N   0  0  0  0  0  0  0  0  0  0  0  0
  -17.2096  -36.7292  -10.5102 C   0  0  0  0  0  0  0  0  0  0  0  0
  1  2  1  0
  2  3  1  0
  2  4  1  0
  4  5  2  0
  5  6  1  0
  6  7  2  0
  7  8  1  0
  8  9  1  0
  9 10  1  0
 10 11  1  0
 11 12  1  0
 12 13  1  1
 12 14  1  0
 14 15  1  0
 15 16  2  0
 16 17  1  0
 16 18  1  0
 18 19  1  0
 19 20  1  0
 20 21  1  0
 21 22  1  0
 22 23  1  0
 23 24  1  0
 24 25  1  0
 25 26  1  0
 26 27  2  0
 27 28  1  0
 28 29  2  0
 29 30  1  0
 30 31  1  0
 30 32  2  0
 28 33  1  0
 33 34  2  0
 33 35  1  0
  8 36  2  0
 32 26  1  0
 14 35  1  6
 36  4  1  0
M  END
$$$$
