
     RDKit          3D

 36 38  0  0  0  0  0  0  0  0999 V2000
  -23.4590  -42.3470   -5.4373 C   0  0  0  0  0  0  0  0  0  0  0  0
  -23.1184  -40.8848   -5.1250 C   0  0  0  0  0  0  0  0  0  0  0  0
  -22.1150  -40.8550   -4.0012 C   0  0  0  0  0  0  0  0  0  0  0  0
  -22.6321  -40.2128   -6.3542 C   0  0  0  0  0  0  0  0  0  0  0  0
  -23.4070  -40.2418   -7.5110 C   0  0  0  0  0  0  0  0  0  0  0  0
  -22.9176  -39.6074   -8.6307 C   0  0  0  0  0  0  0  0  0  0  0  0
  -21.6955  -38.9542   -8.6313 C   0  0  0  0  0  0  0  0  0  0  0  0
  -20.9698  -38.9543   -7.4668 C   0  0  0  0  0  0  0  0  0  0  0  0
  -19.6336  -38.2512   -7.4524 C   0  0  0  0  0  0  0  0  0  0  0  0
  -18.6473  -39.2601   -7.6258 N   0  0  0  0  0  0  0  0  0  0  0  0
  -17.5004  -39.1909   -6.7825 C   0  0  0  0  0  0  0  0  0  0  0  0
  -16.3364  -38.5904   -7.4616 C   0  0  1  0  0  0  0  0  0  0  0  0
  -15.5644  -37.8284   -6.5917 O   0  0  0  0  0  0  0  0  0  0  0  0
  -15.4077  -39.6743   -7.9708 C   0  0  2  0  0  0  0  0  0  0  0  0
  -14.9879  -39.4162   -9.4071 C   0  0  0  0  0  0  0  0  0  0  0  0
  -14.0983  -38.7786  -10.0805 C   0  0  0  0  0  0  0  0  0  0  0  0
  -12.9208  -37.8792   -9.6546 C   0  0  0  0  0  0  0  0  0  0  0  0
  -13.8779  -38.7294  -11.6088 C   0  0  0  0  0  0  0  0  0  0  0  0
  -12.5663  -39.4053  -11.9490 C   0  0  0  0  0  0  0  0  0  0  0  0
  -12.4933  -40.5831  -11.2580 O   0  0  0  0  0  0  0  0  0  0  0  0
  -11.2697  -41.2155  -11.2548 C   0  0  0  0  0  0  0  0  0  0  0  0
  -11.2251  -42.1563  -12.4393 C   0  0  0  0  0  0  0  0  0  0  0  0
  -11.3011  -43.5615  -11.9542 C   0  0  0  0  0  0  0  0  0  0  0  0
  -12.5446  -44.3110  -12.3766 C   0  0  0  0  0  0  0  0  0  0  0  0
  -13.6574  -43.4486  -12.6188 N   0  0  0  0  0  0  0  0  0  0  0  0
  -14.7752  -43.0920  -11.7830 C   0  0  0  0  0  0  0  0  0  0  0  0
  -14.8600  -42.6312  -10.4952 C   0  0  0  0  0  0  0  0  0  0  0  0
  -16.1229  -42.3635  -10.0183 C   0  0  0  0  0  0  0  0  0  0  0  0
  -17.2437  -42.5734  -10.8585 C   0  0  0  0  0  0  0  0  0  0  0  0
  -17.1511  -43.0383  -12.1527 C   0  0  0  0  0  0  0  0  0  0  0  0
  -18.5704  -43.2797  -13.1481 Cl  0  0  0  0  0  0  0  0  0  0  0  0
  -15.9218  -43.2746  -12.5516 N   0  0  0  0  0  0  0  0  0  0  0  0
  -16.5803  -41.8497   -8.7108 C   0  0  0  0  0  0  0  0  0  0  0  0
  -17.7391  -42.3140   -8.2477 O   0  0  0  0  0  0  0  0  0  0  0  0
  -16.0699  -40.9440   -7.7860 N   0  0  0  0  0  0  0  0  0  0  0  0
  -21.4249  -39.5826   -6.3092 C   0  0  0  0  0  0  0  0  0  0  0  0
  1  2  1  0
  2  3  1  0
  2  4  1  0
  4  5  2  0
  5  6  1  0
  6  7  2  0
  7  8  1  0
  8  9  1  0
  9 10  1  0
 10 11  1  0
 11 12  1  0
 12 13  1  1
 12 14  1  0
 14 15  1  0
 15 16  2  0
 16 17  1  0
 16 18  1  0
 18 19  1  0
 19 20  1  0
 20 21  1  0
 21 22  1  0
 22 23  1  0
 23 24  1  0
 24 25  1  0
 25 26  1  0
 26 27  2  0
 27 28  1  0
 28 29  2  0
 29 30  1  0
 30 31  1  0
 30 32  2  0
 28 33  1  0
 33 34  2  0
 33 35  1  0
  8 36  2  0
 32 26  1  0
 14 35  1  6
 36  4  1  0
M  END
$$$$
