
     RDKit          3D

 36 38  0  0  0  0  0  0  0  0999 V2000
  -21.7310  -36.9565   -5.6792 C   0  0  0  0  0  0  0  0  0  0  0  0
  -22.9612  -37.8720   -5.6726 C   0  0  0  0  0  0  0  0  0  0  0  0
  -23.8392  -37.5048   -6.8409 C   0  0  0  0  0  0  0  0  0  0  0  0
  -22.5274  -39.2898   -5.6968 C   0  0  0  0  0  0  0  0  0  0  0  0
  -23.4446  -40.2987   -5.4131 C   0  0  0  0  0  0  0  0  0  0  0  0
  -23.0001  -41.6014   -5.4443 C   0  0  0  0  0  0  0  0  0  0  0  0
  -21.6865  -41.9237   -5.7457 C   0  0  0  0  0  0  0  0  0  0  0  0
  -20.8217  -40.8937   -6.0178 C   0  0  0  0  0  0  0  0  0  0  0  0
  -19.3856  -41.2279   -6.3431 C   0  0  0  0  0  0  0  0  0  0  0  0
  -18.9644  -40.2825   -7.3177 N   0  0  0  0  0  0  0  0  0  0  0  0
  -17.8095  -39.5079   -7.0060 C   0  0  0  0  0  0  0  0  0  0  0  0
  -17.3803  -38.6568   -8.1322 C   0  0  1  0  0  0  0  0  0  0  0  0
  -17.4543  -37.3044   -7.8179 O   0  0  0  0  0  0  0  0  0  0  0  0
  -15.9218  -38.9097   -8.4566 C   0  0  2  0  0  0  0  0  0  0  0  0
  -15.6299  -38.6677   -9.9269 C   0  0  0  0  0  0  0  0  0  0  0  0
  -15.3162  -37.7162  -10.7318 C   0  0  0  0  0  0  0  0  0  0  0  0
  -15.0738  -36.2094  -10.5136 C   0  0  0  0  0  0  0  0  0  0  0  0
  -15.0262  -37.7737  -12.2481 C   0  0  0  0  0  0  0  0  0  0  0  0
  -13.5679  -37.4476  -12.4931 C   0  0  0  0  0  0  0  0  0  0  0  0
  -12.8099  -38.1499  -11.5974 O   0  0  0  0  0  0  0  0  0  0  0  0
  -11.4815  -37.7965  -11.5107 C   0  0  0  0  0  0  0  0  0  0  0  0
  -10.7067  -38.6395  -12.5003 C   0  0  0  0  0  0  0  0  0  0  0  0
   -9.8890  -39.6391  -11.7603 C   0  0  0  0  0  0  0  0  0  0  0  0
  -10.2797  -41.0800  -12.0011 C   0  0  0  0  0  0  0  0  0  0  0  0
  -11.6521  -41.2293  -12.3684 N   0  0  0  0  0  0  0  0  0  0  0  0
  -12.8069  -41.5817  -11.5826 C   0  0  0  0  0  0  0  0  0  0  0  0
  -13.3066  -41.0995  -10.4011 C   0  0  0  0  0  0  0  0  0  0  0  0
  -14.4740  -41.6696   -9.9473 C   0  0  0  0  0  0  0  0  0  0  0  0
  -15.0851  -42.7006  -10.7021 C   0  0  0  0  0  0  0  0  0  0  0  0
  -14.5763  -43.1816  -11.8894 C   0  0  0  0  0  0  0  0  0  0  0  0
  -15.3731  -44.4587  -12.7825 Cl  0  0  0  0  0  0  0  0  0  0  0  0
  -13.4626  -42.5987  -12.2715 N   0  0  0  0  0  0  0  0  0  0  0  0
  -15.2885  -41.3937   -8.7459 C   0  0  0  0  0  0  0  0  0  0  0  0
  -15.8953  -42.4309   -8.1724 O   0  0  0  0  0  0  0  0  0  0  0  0
  -15.5994  -40.2478   -8.0204 N   0  0  0  0  0  0  0  0  0  0  0  0
  -21.2265  -39.5605   -5.9984 C   0  0  0  0  0  0  0  0  0  0  0  0
  1  2  1  0
  2  3  1  0
  2  4  1  0
  4  5  2  0
  5  6  1  0
  6  7  2  0
  7  8  1  0
  8  9  1  0
  9 10  1  0
 10 11  1  0
 11 12  1  0
 12 13  1  1
 12 14  1  0
 14 15  1  0
 15 16  2  0
 16 17  1  0
 16 18  1  0
 18 19  1  0
 19 20  1  0
 20 21  1  0
 21 22  1  0
 22 23  1  0
 23 24  1  0
 24 25  1  0
 25 26  1  0
 26 27  2  0
 27 28  1  0
 28 29  2  0
 29 30  1  0
 30 31  1  0
 30 32  2  0
 28 33  1  0
 33 34  2  0
 33 35  1  0
  8 36  2  0
 32 26  1  0
 14 35  1  6
 36  4  1  0
M  END
$$$$
