
     RDKit          3D

 36 38  0  0  0  0  0  0  0  0999 V2000
  -22.8629  -38.0276   -4.8858 C   0  0  0  0  0  0  0  0  0  0  0  0
  -23.6134  -38.2290   -6.2079 C   0  0  0  0  0  0  0  0  0  0  0  0
  -24.2296  -36.9156   -6.6151 C   0  0  0  0  0  0  0  0  0  0  0  0
  -22.6870  -38.7757   -7.2286 C   0  0  0  0  0  0  0  0  0  0  0  0
  -22.9009  -38.4978   -8.5764 C   0  0  0  0  0  0  0  0  0  0  0  0
  -22.0186  -39.0267   -9.4914 C   0  0  0  0  0  0  0  0  0  0  0  0
  -20.9442  -39.8135   -9.1081 C   0  0  0  0  0  0  0  0  0  0  0  0
  -20.7768  -40.0582   -7.7683 C   0  0  0  0  0  0  0  0  0  0  0  0
  -19.6138  -40.9180   -7.3345 C   0  0  0  0  0  0  0  0  0  0  0  0
  -18.8900  -40.1593   -6.3746 N   0  0  0  0  0  0  0  0  0  0  0  0
  -18.3305  -38.9259   -6.8181 C   0  0  0  0  0  0  0  0  0  0  0  0
  -17.6965  -39.0390   -8.1455 C   0  0  1  0  0  0  0  0  0  0  0  0
  -17.0693  -37.8569   -8.5233 O   0  0  0  0  0  0  0  0  0  0  0  0
  -16.5960  -40.0803   -8.1158 C   0  0  2  0  0  0  0  0  0  0  0  0
  -16.1058  -40.4103   -9.5146 C   0  0  0  0  0  0  0  0  0  0  0  0
  -15.2599  -40.0003  -10.3911 C   0  0  0  0  0  0  0  0  0  0  0  0
  -14.2484  -38.8370  -10.3929 C   0  0  0  0  0  0  0  0  0  0  0  0
  -14.9321  -40.5861  -11.7825 C   0  0  0  0  0  0  0  0  0  0  0  0
  -13.5202  -41.1334  -11.7769 C   0  0  0  0  0  0  0  0  0  0  0  0
  -13.3444  -41.8682  -10.6370 O   0  0  0  0  0  0  0  0  0  0  0  0
  -12.0514  -42.2412  -10.3432 C   0  0  0  0  0  0  0  0  0  0  0  0
  -11.7920  -43.5837  -10.9917 C   0  0  0  0  0  0  0  0  0  0  0  0
  -11.7174  -44.6324   -9.9380 C   0  0  0  0  0  0  0  0  0  0  0  0
  -12.8145  -45.6713   -9.9997 C   0  0  0  0  0  0  0  0  0  0  0  0
  -14.0103  -45.1808  -10.6083 N   0  0  0  0  0  0  0  0  0  0  0  0
  -15.2260  -44.6724  -10.0263 C   0  0  0  0  0  0  0  0  0  0  0  0
  -15.4693  -43.7174   -9.0740 C   0  0  0  0  0  0  0  0  0  0  0  0
  -16.7892  -43.4658   -8.7766 C   0  0  0  0  0  0  0  0  0  0  0  0
  -17.8048  -44.1881   -9.4497 C   0  0  0  0  0  0  0  0  0  0  0  0
  -17.5528  -45.1483  -10.4059 C   0  0  0  0  0  0  0  0  0  0  0  0
  -18.8473  -46.0115  -11.2074 Cl  0  0  0  0  0  0  0  0  0  0  0  0
  -16.2762  -45.3433  -10.6474 N   0  0  0  0  0  0  0  0  0  0  0  0
  -17.4092  -42.5122   -7.8338 C   0  0  0  0  0  0  0  0  0  0  0  0
  -18.5281  -42.9006   -7.2253 O   0  0  0  0  0  0  0  0  0  0  0  0
  -17.0958  -41.2287   -7.3974 N   0  0  0  0  0  0  0  0  0  0  0  0
  -21.6440  -39.5441   -6.8064 C   0  0  0  0  0  0  0  0  0  0  0  0
  1  2  1  0
  2  3  1  0
  2  4  1  0
  4  5  2  0
  5  6  1  0
  6  7  2  0
  7  8  1  0
  8  9  1  0
  9 10  1  0
 10 11  1  0
 11 12  1  0
 12 13  1  1
 12 14  1  0
 14 15  1  0
 15 16  2  0
 16 17  1  0
 16 18  1  0
 18 19  1  0
 19 20  1  0
 20 21  1  0
 21 22  1  0
 22 23  1  0
 23 24  1  0
 24 25  1  0
 25 26  1  0
 26 27  2  0
 27 28  1  0
 28 29  2  0
 29 30  1  0
 30 31  1  0
 30 32  2  0
 28 33  1  0
 33 34  2  0
 33 35  1  0
  8 36  2  0
 32 26  1  0
 14 35  1  6
 36  4  1  0
M  END
$$$$
