
     RDKit          3D

 36 38  0  0  0  0  0  0  0  0999 V2000
  -17.2617  -33.0466  -11.6769 C   0  0  0  0  0  0  0  0  0  0  0  0
  -16.6624  -34.2047  -12.4841 C   0  0  0  0  0  0  0  0  0  0  0  0
  -15.1714  -34.0058  -12.5745 C   0  0  0  0  0  0  0  0  0  0  0  0
  -17.0380  -35.4954  -11.8581 C   0  0  0  0  0  0  0  0  0  0  0  0
  -17.6933  -36.4653  -12.6127 C   0  0  0  0  0  0  0  0  0  0  0  0
  -18.0260  -37.6485  -11.9924 C   0  0  0  0  0  0  0  0  0  0  0  0
  -17.7291  -37.8902  -10.6606 C   0  0  0  0  0  0  0  0  0  0  0  0
  -17.0829  -36.9030   -9.9603 C   0  0  0  0  0  0  0  0  0  0  0  0
  -16.7567  -37.1487   -8.5066 C   0  0  0  0  0  0  0  0  0  0  0  0
  -15.7167  -38.1178   -8.4869 N   0  0  0  0  0  0  0  0  0  0  0  0
  -15.8252  -39.1587   -7.5196 C   0  0  0  0  0  0  0  0  0  0  0  0
  -15.8374  -40.5002   -8.1336 C   0  0  1  0  0  0  0  0  0  0  0  0
  -14.6065  -41.1360   -8.0154 O   0  0  0  0  0  0  0  0  0  0  0  0
  -16.8199  -41.4002   -7.4116 C   0  0  2  0  0  0  0  0  0  0  0  0
  -17.4869  -42.3737   -8.3672 C   0  0  0  0  0  0  0  0  0  0  0  0
  -17.3002  -43.5310   -8.8938 C   0  0  0  0  0  0  0  0  0  0  0  0
  -16.1601  -44.5601   -8.7611 C   0  0  0  0  0  0  0  0  0  0  0  0
  -18.2153  -44.3303   -9.8480 C   0  0  0  0  0  0  0  0  0  0  0  0
  -18.7213  -45.5686   -9.1384 C   0  0  0  0  0  0  0  0  0  0  0  0
  -19.1395  -45.2107   -7.8865 O   0  0  0  0  0  0  0  0  0  0  0  0
  -19.4056  -46.2415   -7.0126 C   0  0  0  0  0  0  0  0  0  0  0  0
  -20.8647  -46.6154   -7.1592 C   0  0  0  0  0  0  0  0  0  0  0  0
  -21.6099  -46.1710   -5.9497 C   0  0  0  0  0  0  0  0  0  0  0  0
  -22.6471  -45.1002   -6.2028 C   0  0  0  0  0  0  0  0  0  0  0  0
  -22.3459  -44.2936   -7.3428 N   0  0  0  0  0  0  0  0  0  0  0  0
  -21.7251  -42.9977   -7.4452 C   0  0  0  0  0  0  0  0  0  0  0  0
  -20.5633  -42.4832   -6.9318 C   0  0  0  0  0  0  0  0  0  0  0  0
  -20.2647  -41.1821   -7.2663 C   0  0  0  0  0  0  0  0  0  0  0  0
  -21.1499  -40.4568   -8.1010 C   0  0  0  0  0  0  0  0  0  0  0  0
  -22.3176  -40.9804   -8.6130 C   0  0  0  0  0  0  0  0  0  0  0  0
  -23.3761  -40.0387   -9.6407 Cl  0  0  0  0  0  0  0  0  0  0  0  0
  -22.5479  -42.2248   -8.2602 N   0  0  0  0  0  0  0  0  0  0  0  0
  -19.1125  -40.3270   -6.9143 C   0  0  0  0  0  0  0  0  0  0  0  0
  -19.3507  -39.0286   -6.7402 O   0  0  0  0  0  0  0  0  0  0  0  0
  -17.7555  -40.5553   -6.7077 N   0  0  0  0  0  0  0  0  0  0  0  0
  -16.7262  -35.6900  -10.5461 C   0  0  0  0  0  0  0  0  0  0  0  0
  1  2  1  0
  2  3  1  0
  2  4  1  0
  4  5  2  0
  5  6  1  0
  6  7  2  0
  7  8  1  0
  8  9  1  0
  9 10  1  0
 10 11  1  0
 11 12  1  0
 12 13  1  1
 12 14  1  0
 14 15  1  0
 15 16  2  0
 16 17  1  0
 16 18  1  0
 18 19  1  0
 19 20  1  0
 20 21  1  0
 21 22  1  0
 22 23  1  0
 23 24  1  0
 24 25  1  0
 25 26  1  0
 26 27  2  0
 27 28  1  0
 28 29  2  0
 29 30  1  0
 30 31  1  0
 30 32  2  0
 28 33  1  0
 33 34  2  0
 33 35  1  0
  8 36  2  0
 32 26  1  0
 14 35  1  6
 36  4  1  0
M  END
$$$$
