
     RDKit          3D

 36 38  0  0  0  0  0  0  0  0999 V2000
  -12.9854  -35.0556  -12.5232 C   0  0  0  0  0  0  0  0  0  0  0  0
  -14.2834  -35.8036  -12.1953 C   0  0  0  0  0  0  0  0  0  0  0  0
  -14.9081  -36.2694  -13.4851 C   0  0  0  0  0  0  0  0  0  0  0  0
  -13.9949  -36.9147  -11.2566 C   0  0  0  0  0  0  0  0  0  0  0  0
  -13.2938  -38.0324  -11.7026 C   0  0  0  0  0  0  0  0  0  0  0  0
  -13.0490  -39.0422  -10.7994 C   0  0  0  0  0  0  0  0  0  0  0  0
  -13.4765  -38.9720   -9.4831 C   0  0  0  0  0  0  0  0  0  0  0  0
  -14.1634  -37.8500   -9.0929 C   0  0  0  0  0  0  0  0  0  0  0  0
  -14.6405  -37.7603   -7.6632 C   0  0  0  0  0  0  0  0  0  0  0  0
  -14.8293  -39.0973   -7.2184 N   0  0  0  0  0  0  0  0  0  0  0  0
  -15.8284  -39.8629   -7.8868 C   0  0  0  0  0  0  0  0  0  0  0  0
  -17.1540  -39.2165   -7.8488 C   0  0  1  0  0  0  0  0  0  0  0  0
  -17.2866  -38.2463   -8.8360 O   0  0  0  0  0  0  0  0  0  0  0  0
  -18.2421  -40.2302   -8.1398 C   0  0  2  0  0  0  0  0  0  0  0  0
  -19.6109  -39.7042   -7.7455 C   0  0  0  0  0  0  0  0  0  0  0  0
  -20.5775  -39.0022   -8.2195 C   0  0  0  0  0  0  0  0  0  0  0  0
  -20.7810  -38.2976   -9.5754 C   0  0  0  0  0  0  0  0  0  0  0  0
  -21.9355  -38.6465   -7.5746 C   0  0  0  0  0  0  0  0  0  0  0  0
  -23.0496  -39.3251   -8.3437 C   0  0  0  0  0  0  0  0  0  0  0  0
  -22.6900  -40.6245   -8.5722 O   0  0  0  0  0  0  0  0  0  0  0  0
  -23.4696  -41.3270   -9.4643 C   0  0  0  0  0  0  0  0  0  0  0  0
  -24.5825  -41.9969   -8.6879 C   0  0  0  0  0  0  0  0  0  0  0  0
  -24.3358  -43.4640   -8.6418 C   0  0  0  0  0  0  0  0  0  0  0  0
  -24.0715  -44.0187   -7.2601 C   0  0  0  0  0  0  0  0  0  0  0  0
  -23.5177  -43.0491   -6.3690 N   0  0  0  0  0  0  0  0  0  0  0  0
  -22.1552  -42.8003   -5.9727 C   0  0  0  0  0  0  0  0  0  0  0  0
  -21.0005  -42.6174   -6.6876 C   0  0  0  0  0  0  0  0  0  0  0  0
  -19.8585  -42.3692   -5.9608 C   0  0  0  0  0  0  0  0  0  0  0  0
  -19.9298  -42.3180   -4.5472 C   0  0  0  0  0  0  0  0  0  0  0  0
  -21.0948  -42.5040   -3.8344 C   0  0  0  0  0  0  0  0  0  0  0  0
  -21.1263  -42.4301   -2.0860 Cl  0  0  0  0  0  0  0  0  0  0  0  0
  -22.1501  -42.7359   -4.5818 N   0  0  0  0  0  0  0  0  0  0  0  0
  -18.4684  -42.1128   -6.3906 C   0  0  0  0  0  0  0  0  0  0  0  0
  -17.4957  -42.5826   -5.6121 O   0  0  0  0  0  0  0  0  0  0  0  0
  -17.8868  -41.4609   -7.4736 N   0  0  0  0  0  0  0  0  0  0  0  0
  -14.4340  -36.8030   -9.9717 C   0  0  0  0  0  0  0  0  0  0  0  0
  1  2  1  0
  2  3  1  0
  2  4  1  0
  4  5  2  0
  5  6  1  0
  6  7  2  0
  7  8  1  0
  8  9  1  0
  9 10  1  0
 10 11  1  0
 11 12  1  0
 12 13  1  6
 12 14  1  0
 14 15  1  0
 15 16  2  0
 16 17  1  0
 16 18  1  0
 18 19  1  0
 19 20  1  0
 20 21  1  0
 21 22  1  0
 22 23  1  0
 23 24  1  0
 24 25  1  0
 25 26  1  0
 26 27  2  0
 27 28  1  0
 28 29  2  0
 29 30  1  0
 30 31  1  0
 30 32  2  0
 28 33  1  0
 33 34  2  0
 33 35  1  0
  8 36  2  0
 32 26  1  0
 14 35  1  1
 36  4  1  0
M  END
$$$$
