
     RDKit          3D

 36 38  0  0  0  0  0  0  0  0999 V2000
  -21.9028  -37.8583   -7.5744 C   0  0  0  0  0  0  0  0  0  0  0  0
  -22.1684  -37.4541   -9.0297 C   0  0  0  0  0  0  0  0  0  0  0  0
  -22.6884  -36.0399   -9.0479 C   0  0  0  0  0  0  0  0  0  0  0  0
  -20.9313  -37.6271   -9.8287 C   0  0  0  0  0  0  0  0  0  0  0  0
  -21.0200  -37.9719  -11.1751 C   0  0  0  0  0  0  0  0  0  0  0  0
  -19.8472  -38.1248  -11.8799 C   0  0  0  0  0  0  0  0  0  0  0  0
  -18.6059  -37.9466  -11.2906 C   0  0  0  0  0  0  0  0  0  0  0  0
  -18.5718  -37.6075   -9.9614 C   0  0  0  0  0  0  0  0  0  0  0  0
  -17.2267  -37.4147   -9.3030 C   0  0  0  0  0  0  0  0  0  0  0  0
  -16.5509  -38.6618   -9.3981 N   0  0  0  0  0  0  0  0  0  0  0  0
  -15.6908  -39.0118   -8.3170 C   0  0  0  0  0  0  0  0  0  0  0  0
  -16.4250  -39.5951   -7.1780 C   0  0  1  0  0  0  0  0  0  0  0  0
  -17.2054  -38.6481   -6.5241 O   0  0  0  0  0  0  0  0  0  0  0  0
  -17.4017  -40.6466   -7.6647 C   0  0  2  0  0  0  0  0  0  0  0  0
  -17.4470  -41.8393   -6.7260 C   0  0  0  0  0  0  0  0  0  0  0  0
  -18.0396  -42.2380   -5.6576 C   0  0  0  0  0  0  0  0  0  0  0  0
  -19.0990  -41.5803   -4.7511 C   0  0  0  0  0  0  0  0  0  0  0  0
  -17.9113  -43.5856   -4.9132 C   0  0  0  0  0  0  0  0  0  0  0  0
  -19.2183  -44.3433   -5.0177 C   0  0  0  0  0  0  0  0  0  0  0  0
  -19.6506  -44.2856   -6.3137 O   0  0  0  0  0  0  0  0  0  0  0  0
  -20.9395  -44.7110   -6.5480 C   0  0  0  0  0  0  0  0  0  0  0  0
  -20.8959  -46.1923   -6.8543 C   0  0  0  0  0  0  0  0  0  0  0  0
  -21.1819  -46.4041   -8.2997 C   0  0  0  0  0  0  0  0  0  0  0  0
  -20.0328  -46.9822   -9.0946 C   0  0  0  0  0  0  0  0  0  0  0  0
  -18.7569  -46.6737   -8.5309 N   0  0  0  0  0  0  0  0  0  0  0  0
  -17.8009  -45.6485   -8.8629 C   0  0  0  0  0  0  0  0  0  0  0  0
  -17.9150  -44.2928   -9.0276 C   0  0  0  0  0  0  0  0  0  0  0  0
  -16.7582  -43.6083   -9.3230 C   0  0  0  0  0  0  0  0  0  0  0  0
  -15.5389  -44.3194   -9.4410 C   0  0  0  0  0  0  0  0  0  0  0  0
  -15.4316  -45.6835   -9.2751 C   0  0  0  0  0  0  0  0  0  0  0  0
  -13.8981  -46.5123   -9.4323 Cl  0  0  0  0  0  0  0  0  0  0  0  0
  -16.5675  -46.2810   -8.9941 N   0  0  0  0  0  0  0  0  0  0  0  0
  -16.5095  -42.1692   -9.5464 C   0  0  0  0  0  0  0  0  0  0  0  0
  -15.5818  -41.8457  -10.4451 O   0  0  0  0  0  0  0  0  0  0  0  0
  -17.0357  -40.9948   -9.0173 N   0  0  0  0  0  0  0  0  0  0  0  0
  -19.7324  -37.4418   -9.2083 C   0  0  0  0  0  0  0  0  0  0  0  0
  1  2  1  0
  2  3  1  0
  2  4  1  0
  4  5  2  0
  5  6  1  0
  6  7  2  0
  7  8  1  0
  8  9  1  0
  9 10  1  0
 10 11  1  0
 11 12  1  0
 12 13  1  6
 12 14  1  0
 14 15  1  0
 15 16  2  0
 16 17  1  0
 16 18  1  0
 18 19  1  0
 19 20  1  0
 20 21  1  0
 21 22  1  0
 22 23  1  0
 23 24  1  0
 24 25  1  0
 25 26  1  0
 26 27  2  0
 27 28  1  0
 28 29  2  0
 29 30  1  0
 30 31  1  0
 30 32  2  0
 28 33  1  0
 33 34  2  0
 33 35  1  0
  8 36  2  0
 32 26  1  0
 14 35  1  6
 36  4  1  0
M  END
$$$$
