
     RDKit          3D

 36 38  0  0  0  0  0  0  0  0999 V2000
  -16.9084  -32.9870  -10.0804 C   0  0  0  0  0  0  0  0  0  0  0  0
  -16.3335  -33.5612  -11.3810 C   0  0  0  0  0  0  0  0  0  0  0  0
  -14.9177  -33.0698  -11.5383 C   0  0  0  0  0  0  0  0  0  0  0  0
  -16.4346  -35.0405  -11.3603 C   0  0  0  0  0  0  0  0  0  0  0  0
  -15.9626  -35.7812  -12.4410 C   0  0  0  0  0  0  0  0  0  0  0  0
  -16.0777  -37.1519  -12.3823 C   0  0  0  0  0  0  0  0  0  0  0  0
  -16.6416  -37.7971  -11.2934 C   0  0  0  0  0  0  0  0  0  0  0  0
  -17.0918  -37.0227  -10.2540 C   0  0  0  0  0  0  0  0  0  0  0  0
  -17.7135  -37.7102   -9.0621 C   0  0  0  0  0  0  0  0  0  0  0  0
  -16.9206  -37.3569   -7.9363 N   0  0  0  0  0  0  0  0  0  0  0  0
  -15.9558  -38.3123   -7.5032 C   0  0  0  0  0  0  0  0  0  0  0  0
  -15.9815  -39.5462   -8.3116 C   0  0  1  0  0  0  0  0  0  0  0  0
  -14.7059  -40.0620   -8.5117 O   0  0  0  0  0  0  0  0  0  0  0  0
  -16.7408  -40.6366   -7.5830 C   0  0  2  0  0  0  0  0  0  0  0  0
  -17.5541  -41.4847   -8.5448 C   0  0  0  0  0  0  0  0  0  0  0  0
  -17.4333  -42.5145   -9.3041 C   0  0  0  0  0  0  0  0  0  0  0  0
  -16.2454  -43.4507   -9.6022 C   0  0  0  0  0  0  0  0  0  0  0  0
  -18.4962  -43.2128  -10.1811 C   0  0  0  0  0  0  0  0  0  0  0  0
  -18.7780  -44.5929   -9.6251 C   0  0  0  0  0  0  0  0  0  0  0  0
  -18.9298  -44.4918   -8.2698 O   0  0  0  0  0  0  0  0  0  0  0  0
  -18.9515  -45.6760   -7.5669 C   0  0  0  0  0  0  0  0  0  0  0  0
  -20.3886  -46.1415   -7.4770 C   0  0  0  0  0  0  0  0  0  0  0  0
  -20.8725  -45.9760   -6.0792 C   0  0  0  0  0  0  0  0  0  0  0  0
  -21.9882  -44.9695   -5.9102 C   0  0  0  0  0  0  0  0  0  0  0  0
  -21.9798  -43.9567   -6.9177 N   0  0  0  0  0  0  0  0  0  0  0  0
  -21.4566  -42.6146   -6.9030 C   0  0  0  0  0  0  0  0  0  0  0  0
  -20.2360  -42.0992   -6.5532 C   0  0  0  0  0  0  0  0  0  0  0  0
  -20.0778  -40.7394   -6.6944 C   0  0  0  0  0  0  0  0  0  0  0  0
  -21.1558  -39.9593   -7.1797 C   0  0  0  0  0  0  0  0  0  0  0  0
  -22.3815  -40.4844   -7.5287 C   0  0  0  0  0  0  0  0  0  0  0  0
  -23.6806  -39.4735   -8.1236 Cl  0  0  0  0  0  0  0  0  0  0  0  0
  -22.4719  -41.7859   -7.3735 N   0  0  0  0  0  0  0  0  0  0  0  0
  -18.9172  -39.8629   -6.4343 C   0  0  0  0  0  0  0  0  0  0  0  0
  -19.1715  -38.6385   -5.9769 O   0  0  0  0  0  0  0  0  0  0  0  0
  -17.5388  -40.0074   -6.5573 N   0  0  0  0  0  0  0  0  0  0  0  0
  -16.9961  -35.6326  -10.2691 C   0  0  0  0  0  0  0  0  0  0  0  0
  1  2  1  0
  2  3  1  0
  2  4  1  0
  4  5  2  0
  5  6  1  0
  6  7  2  0
  7  8  1  0
  8  9  1  0
  9 10  1  0
 10 11  1  0
 11 12  1  0
 12 13  1  1
 12 14  1  0
 14 15  1  0
 15 16  2  0
 16 17  1  0
 16 18  1  0
 18 19  1  0
 19 20  1  0
 20 21  1  0
 21 22  1  0
 22 23  1  0
 23 24  1  0
 24 25  1  0
 25 26  1  0
 26 27  2  0
 27 28  1  0
 28 29  2  0
 29 30  1  0
 30 31  1  0
 30 32  2  0
 28 33  1  0
 33 34  2  0
 33 35  1  0
  8 36  2  0
 32 26  1  0
 14 35  1  1
 36  4  1  0
M  END
$$$$
