
     RDKit          3D

 36 38  0  0  0  0  0  0  0  0999 V2000
  -13.6586  -34.5152  -10.7592 C   0  0  0  0  0  0  0  0  0  0  0  0
  -13.0781  -35.3681  -11.8937 C   0  0  0  0  0  0  0  0  0  0  0  0
  -11.6493  -34.9496  -12.1262 C   0  0  0  0  0  0  0  0  0  0  0  0
  -13.2133  -36.8056  -11.5559 C   0  0  0  0  0  0  0  0  0  0  0  0
  -13.2872  -37.7517  -12.5752 C   0  0  0  0  0  0  0  0  0  0  0  0
  -13.4144  -39.0753  -12.2181 C   0  0  0  0  0  0  0  0  0  0  0  0
  -13.4695  -39.4781  -10.8933 C   0  0  0  0  0  0  0  0  0  0  0  0
  -13.3927  -38.5077   -9.9263 C   0  0  0  0  0  0  0  0  0  0  0  0
  -13.4563  -38.9297   -8.4779 C   0  0  0  0  0  0  0  0  0  0  0  0
  -14.6194  -38.3204   -7.9330 N   0  0  0  0  0  0  0  0  0  0  0  0
  -15.8755  -38.7621   -8.4411 C   0  0  0  0  0  0  0  0  0  0  0  0
  -16.8424  -39.0661   -7.3690 C   0  0  1  0  0  0  0  0  0  0  0  0
  -17.4981  -37.9241   -6.9227 O   0  0  0  0  0  0  0  0  0  0  0  0
  -17.9376  -39.9745   -7.8904 C   0  0  2  0  0  0  0  0  0  0  0  0
  -19.0276  -40.1816   -6.8537 C   0  0  0  0  0  0  0  0  0  0  0  0
  -20.1143  -39.6377   -6.4355 C   0  0  0  0  0  0  0  0  0  0  0  0
  -20.8725  -38.3671   -6.8683 C   0  0  0  0  0  0  0  0  0  0  0  0
  -21.0881  -40.1177   -5.3365 C   0  0  0  0  0  0  0  0  0  0  0  0
  -22.4102  -40.4991   -5.9686 C   0  0  0  0  0  0  0  0  0  0  0  0
  -22.1578  -41.2602   -7.0764 O   0  0  0  0  0  0  0  0  0  0  0  0
  -23.2262  -41.4953   -7.9132 C   0  0  0  0  0  0  0  0  0  0  0  0
  -23.9067  -42.7681   -7.4581 C   0  0  0  0  0  0  0  0  0  0  0  0
  -23.6406  -43.8484   -8.4469 C   0  0  0  0  0  0  0  0  0  0  0  0
  -22.8188  -45.0025   -7.9183 C   0  0  0  0  0  0  0  0  0  0  0  0
  -21.9603  -44.6251   -6.8405 N   0  0  0  0  0  0  0  0  0  0  0  0
  -20.5601  -44.2868   -6.8227 C   0  0  0  0  0  0  0  0  0  0  0  0
  -19.8086  -43.4105   -7.5612 C   0  0  0  0  0  0  0  0  0  0  0  0
  -18.4721  -43.3260   -7.2444 C   0  0  0  0  0  0  0  0  0  0  0  0
  -17.9517  -44.1285   -6.1997 C   0  0  0  0  0  0  0  0  0  0  0  0
  -18.7133  -45.0087   -5.4615 C   0  0  0  0  0  0  0  0  0  0  0  0
  -18.0183  -45.9772   -4.1801 Cl  0  0  0  0  0  0  0  0  0  0  0  0
  -19.9799  -45.0446   -5.8089 N   0  0  0  0  0  0  0  0  0  0  0  0
  -17.3894  -42.4939   -7.8086 C   0  0  0  0  0  0  0  0  0  0  0  0
  -16.1744  -43.0356   -7.8658 O   0  0  0  0  0  0  0  0  0  0  0  0
  -17.3192  -41.2043   -8.3262 N   0  0  0  0  0  0  0  0  0  0  0  0
  -13.2632  -37.1563  -10.2402 C   0  0  0  0  0  0  0  0  0  0  0  0
  1  2  1  0
  2  3  1  0
  2  4  1  0
  4  5  2  0
  5  6  1  0
  6  7  2  0
  7  8  1  0
  8  9  1  0
  9 10  1  0
 10 11  1  0
 11 12  1  0
 12 13  1  6
 12 14  1  0
 14 15  1  0
 15 16  2  0
 16 17  1  0
 16 18  1  0
 18 19  1  0
 19 20  1  0
 20 21  1  0
 21 22  1  0
 22 23  1  0
 23 24  1  0
 24 25  1  0
 25 26  1  0
 26 27  2  0
 27 28  1  0
 28 29  2  0
 29 30  1  0
 30 31  1  0
 30 32  2  0
 28 33  1  0
 33 34  2  0
 33 35  1  0
  8 36  2  0
 32 26  1  0
 14 35  1  1
 36  4  1  0
M  END
$$$$
