
     RDKit          3D

 36 38  0  0  0  0  0  0  0  0999 V2000
  -19.0172  -36.4159  -11.7513 C   0  0  0  0  0  0  0  0  0  0  0  0
  -19.6270  -37.8052  -11.5280 C   0  0  0  0  0  0  0  0  0  0  0  0
  -18.6072  -38.8450  -11.9146 C   0  0  0  0  0  0  0  0  0  0  0  0
  -20.0783  -37.9310  -10.1211 C   0  0  0  0  0  0  0  0  0  0  0  0
  -21.3581  -38.4059   -9.8451 C   0  0  0  0  0  0  0  0  0  0  0  0
  -21.7381  -38.5052   -8.5255 C   0  0  0  0  0  0  0  0  0  0  0  0
  -20.8919  -38.1500   -7.4873 C   0  0  0  0  0  0  0  0  0  0  0  0
  -19.6414  -37.6876   -7.8114 C   0  0  0  0  0  0  0  0  0  0  0  0
  -18.7090  -37.2915   -6.6917 C   0  0  0  0  0  0  0  0  0  0  0  0
  -17.3932  -37.5869   -7.1416 N   0  0  0  0  0  0  0  0  0  0  0  0
  -16.8611  -38.8596   -6.7837 C   0  0  0  0  0  0  0  0  0  0  0  0
  -15.8026  -39.3087   -7.7082 C   0  0  1  0  0  0  0  0  0  0  0  0
  -14.5503  -38.8365   -7.3316 O   0  0  0  0  0  0  0  0  0  0  0  0
  -15.6831  -40.8191   -7.6771 C   0  0  2  0  0  0  0  0  0  0  0  0
  -15.4281  -41.3846   -9.0631 C   0  0  0  0  0  0  0  0  0  0  0  0
  -14.4580  -41.6408   -9.8662 C   0  0  0  0  0  0  0  0  0  0  0  0
  -12.9327  -41.4526   -9.7449 C   0  0  0  0  0  0  0  0  0  0  0  0
  -14.4944  -42.2880  -11.2685 C   0  0  0  0  0  0  0  0  0  0  0  0
  -13.8129  -43.6392  -11.2157 C   0  0  0  0  0  0  0  0  0  0  0  0
  -14.2631  -44.3093  -10.1119 O   0  0  0  0  0  0  0  0  0  0  0  0
  -13.5767  -45.4529   -9.7685 C   0  0  0  0  0  0  0  0  0  0  0  0
  -14.2273  -46.6209  -10.4775 C   0  0  0  0  0  0  0  0  0  0  0  0
  -14.9550  -47.4561   -9.4833 C   0  0  0  0  0  0  0  0  0  0  0  0
  -16.4556  -47.4942   -9.6654 C   0  0  0  0  0  0  0  0  0  0  0  0
  -16.9667  -46.3265  -10.3104 N   0  0  0  0  0  0  0  0  0  0  0  0
  -17.5755  -45.1386   -9.7688 C   0  0  0  0  0  0  0  0  0  0  0  0
  -17.1953  -44.2711   -8.7783 C   0  0  0  0  0  0  0  0  0  0  0  0
  -18.0299  -43.2029   -8.5408 C   0  0  0  0  0  0  0  0  0  0  0  0
  -19.2104  -43.0568   -9.3097 C   0  0  0  0  0  0  0  0  0  0  0  0
  -19.5872  -43.9340  -10.3040 C   0  0  0  0  0  0  0  0  0  0  0  0
  -21.0582  -43.7055  -11.2245 Cl  0  0  0  0  0  0  0  0  0  0  0  0
  -18.7515  -44.9315  -10.4848 N   0  0  0  0  0  0  0  0  0  0  0  0
  -17.9292  -42.0844   -7.5808 C   0  0  0  0  0  0  0  0  0  0  0  0
  -19.0659  -41.6282   -7.0588 O   0  0  0  0  0  0  0  0  0  0  0  0
  -16.8762  -41.3424   -7.0547 N   0  0  0  0  0  0  0  0  0  0  0  0
  -19.2131  -37.5704   -9.1322 C   0  0  0  0  0  0  0  0  0  0  0  0
  1  2  1  0
  2  3  1  0
  2  4  1  0
  4  5  2  0
  5  6  1  0
  6  7  2  0
  7  8  1  0
  8  9  1  0
  9 10  1  0
 10 11  1  0
 11 12  1  0
 12 13  1  1
 12 14  1  0
 14 15  1  0
 15 16  2  0
 16 17  1  0
 16 18  1  0
 18 19  1  0
 19 20  1  0
 20 21  1  0
 21 22  1  0
 22 23  1  0
 23 24  1  0
 24 25  1  0
 25 26  1  0
 26 27  2  0
 27 28  1  0
 28 29  2  0
 29 30  1  0
 30 31  1  0
 30 32  2  0
 28 33  1  0
 33 34  2  0
 33 35  1  0
  8 36  2  0
 32 26  1  0
 14 35  1  6
 36  4  1  0
M  END
$$$$
