
     RDKit          3D

 36 38  0  0  0  0  0  0  0  0999 V2000
  -12.4925  -36.1436  -13.1731 C   0  0  0  0  0  0  0  0  0  0  0  0
  -12.6612  -35.9019  -11.6682 C   0  0  0  0  0  0  0  0  0  0  0  0
  -11.7915  -34.7381  -11.2684 C   0  0  0  0  0  0  0  0  0  0  0  0
  -14.0949  -35.6885  -11.3553 C   0  0  0  0  0  0  0  0  0  0  0  0
  -14.8212  -34.7307  -12.0586 C   0  0  0  0  0  0  0  0  0  0  0  0
  -16.1489  -34.5629  -11.7352 C   0  0  0  0  0  0  0  0  0  0  0  0
  -16.7654  -35.3112  -10.7452 C   0  0  0  0  0  0  0  0  0  0  0  0
  -16.0068  -36.2419  -10.0812 C   0  0  0  0  0  0  0  0  0  0  0  0
  -16.6625  -37.0620   -8.9961 C   0  0  0  0  0  0  0  0  0  0  0  0
  -15.6934  -38.0102   -8.5686 N   0  0  0  0  0  0  0  0  0  0  0  0
  -16.1469  -39.0496   -7.7055 C   0  0  0  0  0  0  0  0  0  0  0  0
  -16.3216  -40.3332   -8.4115 C   0  0  1  0  0  0  0  0  0  0  0  0
  -15.1025  -40.9014   -8.7641 O   0  0  0  0  0  0  0  0  0  0  0  0
  -16.9842  -41.3480   -7.5018 C   0  0  2  0  0  0  0  0  0  0  0  0
  -18.0520  -42.1388   -8.2368 C   0  0  0  0  0  0  0  0  0  0  0  0
  -18.1809  -43.1848   -8.9722 C   0  0  0  0  0  0  0  0  0  0  0  0
  -17.1636  -44.2193   -9.4931 C   0  0  0  0  0  0  0  0  0  0  0  0
  -19.4613  -43.8048   -9.5747 C   0  0  0  0  0  0  0  0  0  0  0  0
  -19.7199  -45.1497   -8.9285 C   0  0  0  0  0  0  0  0  0  0  0  0
  -19.5620  -45.0189   -7.5765 O   0  0  0  0  0  0  0  0  0  0  0  0
  -19.5202  -46.1881   -6.8497 C   0  0  0  0  0  0  0  0  0  0  0  0
  -20.9341  -46.5327   -6.4345 C   0  0  0  0  0  0  0  0  0  0  0  0
  -21.0848  -46.3098   -4.9706 C   0  0  0  0  0  0  0  0  0  0  0  0
  -22.0549  -45.2129   -4.5935 C   0  0  0  0  0  0  0  0  0  0  0  0
  -22.1897  -44.2174   -5.6092 N   0  0  0  0  0  0  0  0  0  0  0  0
  -21.5739  -42.9227   -5.7502 C   0  0  0  0  0  0  0  0  0  0  0  0
  -20.2702  -42.5048   -5.6908 C   0  0  0  0  0  0  0  0  0  0  0  0
  -20.0422  -41.1646   -5.9047 C   0  0  0  0  0  0  0  0  0  0  0  0
  -21.1369  -40.3050   -6.1671 C   0  0  0  0  0  0  0  0  0  0  0  0
  -22.4462  -40.7321   -6.2243 C   0  0  0  0  0  0  0  0  0  0  0  0
  -23.7620  -39.6257   -6.5526 Cl  0  0  0  0  0  0  0  0  0  0  0  0
  -22.6005  -42.0196   -6.0133 N   0  0  0  0  0  0  0  0  0  0  0  0
  -18.7886  -40.3831   -5.9308 C   0  0  0  0  0  0  0  0  0  0  0  0
  -18.8408  -39.1362   -5.4668 O   0  0  0  0  0  0  0  0  0  0  0  0
  -17.4863  -40.6420   -6.3467 N   0  0  0  0  0  0  0  0  0  0  0  0
  -14.6600  -36.4468  -10.3744 C   0  0  0  0  0  0  0  0  0  0  0  0
  1  2  1  0
  2  3  1  0
  2  4  1  0
  4  5  2  0
  5  6  1  0
  6  7  2  0
  7  8  1  0
  8  9  1  0
  9 10  1  0
 10 11  1  0
 11 12  1  0
 12 13  1  1
 12 14  1  0
 14 15  1  0
 15 16  2  0
 16 17  1  0
 16 18  1  0
 18 19  1  0
 19 20  1  0
 20 21  1  0
 21 22  1  0
 22 23  1  0
 23 24  1  0
 24 25  1  0
 25 26  1  0
 26 27  2  0
 27 28  1  0
 28 29  2  0
 29 30  1  0
 30 31  1  0
 30 32  2  0
 28 33  1  0
 33 34  2  0
 33 35  1  0
  8 36  2  0
 32 26  1  0
 14 35  1  1
 36  4  1  0
M  END
$$$$
