
     RDKit          3D

 36 38  0  0  0  0  0  0  0  0999 V2000
  -23.3631  -38.3602   -4.2454 C   0  0  0  0  0  0  0  0  0  0  0  0
  -21.9363  -38.7203   -4.6771 C   0  0  0  0  0  0  0  0  0  0  0  0
  -21.6896  -40.1718   -4.3565 C   0  0  0  0  0  0  0  0  0  0  0  0
  -21.7563  -38.4056   -6.1150 C   0  0  0  0  0  0  0  0  0  0  0  0
  -22.8328  -38.5289   -6.9900 C   0  0  0  0  0  0  0  0  0  0  0  0
  -22.6222  -38.2290   -8.3172 C   0  0  0  0  0  0  0  0  0  0  0  0
  -21.3874  -37.8158   -8.7913 C   0  0  0  0  0  0  0  0  0  0  0  0
  -20.3588  -37.7103   -7.8894 C   0  0  0  0  0  0  0  0  0  0  0  0
  -19.0056  -37.2662   -8.3910 C   0  0  0  0  0  0  0  0  0  0  0  0
  -18.2488  -38.4502   -8.6059 N   0  0  0  0  0  0  0  0  0  0  0  0
  -17.6722  -39.0632   -7.4558 C   0  0  0  0  0  0  0  0  0  0  0  0
  -16.3542  -39.6633   -7.7374 C   0  0  1  0  0  0  0  0  0  0  0  0
  -15.4326  -39.3858   -6.7339 O   0  0  0  0  0  0  0  0  0  0  0  0
  -16.4608  -41.1746   -7.7715 C   0  0  2  0  0  0  0  0  0  0  0  0
  -15.6827  -41.7600   -8.9368 C   0  0  0  0  0  0  0  0  0  0  0  0
  -14.4973  -42.1531   -9.2396 C   0  0  0  0  0  0  0  0  0  0  0  0
  -13.1820  -42.1990   -8.4367 C   0  0  0  0  0  0  0  0  0  0  0  0
  -13.9796  -42.7749  -10.5557 C   0  0  0  0  0  0  0  0  0  0  0  0
  -13.5795  -44.2142  -10.3076 C   0  0  0  0  0  0  0  0  0  0  0  0
  -14.5639  -44.8180   -9.5752 O   0  0  0  0  0  0  0  0  0  0  0  0
  -14.2637  -46.0553   -9.0499 C   0  0  0  0  0  0  0  0  0  0  0  0
  -14.6699  -47.1051  -10.0614 C   0  0  0  0  0  0  0  0  0  0  0  0
  -15.8711  -47.8292   -9.5631 C   0  0  0  0  0  0  0  0  0  0  0  0
  -17.1173  -47.6382  -10.3979 C   0  0  0  0  0  0  0  0  0  0  0  0
  -17.1232  -46.4009  -11.1121 N   0  0  0  0  0  0  0  0  0  0  0  0
  -17.7496  -45.1394  -10.8101 C   0  0  0  0  0  0  0  0  0  0  0  0
  -17.7488  -44.3482   -9.6912 C   0  0  0  0  0  0  0  0  0  0  0  0
  -18.4524  -43.1681   -9.7703 C   0  0  0  0  0  0  0  0  0  0  0  0
  -19.1266  -42.8382  -10.9715 C   0  0  0  0  0  0  0  0  0  0  0  0
  -19.1241  -43.6395  -12.0930 C   0  0  0  0  0  0  0  0  0  0  0  0
  -19.9751  -43.1829  -13.5527 Cl  0  0  0  0  0  0  0  0  0  0  0  0
  -18.4358  -44.7504  -11.9575 N   0  0  0  0  0  0  0  0  0  0  0  0
  -18.6514  -42.0861   -8.7840 C   0  0  0  0  0  0  0  0  0  0  0  0
  -19.8305  -41.4677   -8.7909 O   0  0  0  0  0  0  0  0  0  0  0  0
  -17.8634  -41.5166   -7.7886 N   0  0  0  0  0  0  0  0  0  0  0  0
  -20.5251  -38.0027   -6.5371 C   0  0  0  0  0  0  0  0  0  0  0  0
  1  2  1  0
  2  3  1  0
  2  4  1  0
  4  5  2  0
  5  6  1  0
  6  7  2  0
  7  8  1  0
  8  9  1  0
  9 10  1  0
 10 11  1  0
 11 12  1  0
 12 13  1  1
 12 14  1  0
 14 15  1  0
 15 16  2  0
 16 17  1  0
 16 18  1  0
 18 19  1  0
 19 20  1  0
 20 21  1  0
 21 22  1  0
 22 23  1  0
 23 24  1  0
 24 25  1  0
 25 26  1  0
 26 27  2  0
 27 28  1  0
 28 29  2  0
 29 30  1  0
 30 31  1  0
 30 32  2  0
 28 33  1  0
 33 34  2  0
 33 35  1  0
  8 36  2  0
 32 26  1  0
 14 35  1  6
 36  4  1  0
M  END
$$$$
