
     RDKit          3D

 36 38  0  0  0  0  0  0  0  0999 V2000
  -22.3158  -38.0577   -5.0702 C   0  0  0  0  0  0  0  0  0  0  0  0
  -22.4496  -38.9509   -6.3096 C   0  0  0  0  0  0  0  0  0  0  0  0
  -23.8980  -38.9837   -6.7238 C   0  0  0  0  0  0  0  0  0  0  0  0
  -21.5516  -38.4551   -7.3805 C   0  0  0  0  0  0  0  0  0  0  0  0
  -22.0823  -38.0969   -8.6173 C   0  0  0  0  0  0  0  0  0  0  0  0
  -21.2135  -37.6437   -9.5845 C   0  0  0  0  0  0  0  0  0  0  0  0
  -19.8505  -37.5384   -9.3584 C   0  0  0  0  0  0  0  0  0  0  0  0
  -19.3770  -37.9038   -8.1235 C   0  0  0  0  0  0  0  0  0  0  0  0
  -17.8934  -37.7997   -7.8628 C   0  0  0  0  0  0  0  0  0  0  0  0
  -17.3365  -39.0625   -8.2035 N   0  0  0  0  0  0  0  0  0  0  0  0
  -16.2930  -39.5529   -7.3658 C   0  0  0  0  0  0  0  0  0  0  0  0
  -15.5260  -40.6425   -7.9994 C   0  0  1  0  0  0  0  0  0  0  0  0
  -14.2180  -40.6966   -7.5309 O   0  0  0  0  0  0  0  0  0  0  0  0
  -16.1305  -41.9862   -7.6451 C   0  0  2  0  0  0  0  0  0  0  0  0
  -16.3505  -42.8395   -8.8818 C   0  0  0  0  0  0  0  0  0  0  0  0
  -15.7268  -43.6741   -9.6341 C   0  0  0  0  0  0  0  0  0  0  0  0
  -14.2918  -44.2360   -9.5944 C   0  0  0  0  0  0  0  0  0  0  0  0
  -16.2418  -44.4578  -10.8618 C   0  0  0  0  0  0  0  0  0  0  0  0
  -16.2781  -45.9359  -10.5348 C   0  0  0  0  0  0  0  0  0  0  0  0
  -16.8471  -46.0934   -9.3013 O   0  0  0  0  0  0  0  0  0  0  0  0
  -16.7442  -47.3451   -8.7356 C   0  0  0  0  0  0  0  0  0  0  0  0
  -17.9529  -48.1514   -9.1587 C   0  0  0  0  0  0  0  0  0  0  0  0
  -18.8558  -48.3341   -7.9895 C   0  0  0  0  0  0  0  0  0  0  0  0
  -20.2062  -47.6667   -8.1218 C   0  0  0  0  0  0  0  0  0  0  0  0
  -20.1829  -46.5335   -8.9914 N   0  0  0  0  0  0  0  0  0  0  0  0
  -20.0850  -45.1252   -8.7047 C   0  0  0  0  0  0  0  0  0  0  0  0
  -19.2184  -44.3938   -7.9352 C   0  0  0  0  0  0  0  0  0  0  0  0
  -19.4124  -43.0316   -7.9139 C   0  0  0  0  0  0  0  0  0  0  0  0
  -20.4709  -42.4669   -8.6667 C   0  0  0  0  0  0  0  0  0  0  0  0
  -21.3397  -43.2088   -9.4379 C   0  0  0  0  0  0  0  0  0  0  0  0
  -22.6321  -42.4588  -10.3493 Cl  0  0  0  0  0  0  0  0  0  0  0  0
  -21.1042  -44.5012   -9.4192 N   0  0  0  0  0  0  0  0  0  0  0  0
  -18.6750  -41.9546   -7.2215 C   0  0  0  0  0  0  0  0  0  0  0  0
  -19.3854  -40.9175   -6.7826 O   0  0  0  0  0  0  0  0  0  0  0  0
  -17.3394  -41.7410   -6.8948 N   0  0  0  0  0  0  0  0  0  0  0  0
  -20.2183  -38.3677   -7.1141 C   0  0  0  0  0  0  0  0  0  0  0  0
  1  2  1  0
  2  3  1  0
  2  4  1  0
  4  5  2  0
  5  6  1  0
  6  7  2  0
  7  8  1  0
  8  9  1  0
  9 10  1  0
 10 11  1  0
 11 12  1  0
 12 13  1  1
 12 14  1  0
 14 15  1  0
 15 16  2  0
 16 17  1  0
 16 18  1  0
 18 19  1  0
 19 20  1  0
 20 21  1  0
 21 22  1  0
 22 23  1  0
 23 24  1  0
 24 25  1  0
 25 26  1  0
 26 27  2  0
 27 28  1  0
 28 29  2  0
 29 30  1  0
 30 31  1  0
 30 32  2  0
 28 33  1  0
 33 34  2  0
 33 35  1  0
  8 36  2  0
 32 26  1  0
 14 35  1  6
 36  4  1  0
M  END
$$$$
