
     RDKit          3D

 36 38  0  0  0  0  0  0  0  0999 V2000
  -23.9565  -39.9503   -4.6129 C   0  0  0  0  0  0  0  0  0  0  0  0
  -23.5206  -38.6934   -5.3757 C   0  0  0  0  0  0  0  0  0  0  0  0
  -22.9625  -37.7016   -4.3880 C   0  0  0  0  0  0  0  0  0  0  0  0
  -22.5515  -39.0643   -6.4350 C   0  0  0  0  0  0  0  0  0  0  0  0
  -22.9311  -38.9990   -7.7734 C   0  0  0  0  0  0  0  0  0  0  0  0
  -22.0017  -39.3541   -8.7250 C   0  0  0  0  0  0  0  0  0  0  0  0
  -20.7228  -39.7668   -8.3867 C   0  0  0  0  0  0  0  0  0  0  0  0
  -20.3977  -39.8142   -7.0545 C   0  0  0  0  0  0  0  0  0  0  0  0
  -19.0097  -40.2666   -6.6690 C   0  0  0  0  0  0  0  0  0  0  0  0
  -18.5421  -39.3421   -5.6956 N   0  0  0  0  0  0  0  0  0  0  0  0
  -17.4172  -38.5437   -6.0542 C   0  0  0  0  0  0  0  0  0  0  0  0
  -17.1088  -38.6185   -7.4950 C   0  0  1  0  0  0  0  0  0  0  0  0
  -16.6376  -37.4068   -7.9882 O   0  0  0  0  0  0  0  0  0  0  0  0
  -15.9898  -39.6100   -7.7427 C   0  0  2  0  0  0  0  0  0  0  0  0
  -15.6922  -39.7525   -9.2248 C   0  0  0  0  0  0  0  0  0  0  0  0
  -14.9875  -39.2079  -10.1513 C   0  0  0  0  0  0  0  0  0  0  0  0
  -14.0148  -38.0119  -10.1483 C   0  0  0  0  0  0  0  0  0  0  0  0
  -14.8433  -39.6119  -11.6355 C   0  0  0  0  0  0  0  0  0  0  0  0
  -13.4315  -40.0976  -11.8887 C   0  0  0  0  0  0  0  0  0  0  0  0
  -13.0801  -40.9535  -10.8818 O   0  0  0  0  0  0  0  0  0  0  0  0
  -11.7501  -41.3051  -10.8142 C   0  0  0  0  0  0  0  0  0  0  0  0
  -11.5512  -42.5501  -11.6511 C   0  0  0  0  0  0  0  0  0  0  0  0
  -11.3045  -43.7116  -10.7536 C   0  0  0  0  0  0  0  0  0  0  0  0
  -12.3737  -44.7802  -10.7921 C   0  0  0  0  0  0  0  0  0  0  0  0
  -13.6545  -44.2710  -11.1680 N   0  0  0  0  0  0  0  0  0  0  0  0
  -14.7889  -43.8851  -10.3685 C   0  0  0  0  0  0  0  0  0  0  0  0
  -14.9199  -43.0596   -9.2825 C   0  0  0  0  0  0  0  0  0  0  0  0
  -16.1909  -42.8992   -8.7800 C   0  0  0  0  0  0  0  0  0  0  0  0
  -17.2728  -43.5783   -9.3920 C   0  0  0  0  0  0  0  0  0  0  0  0
  -17.1336  -44.4081  -10.4838 C   0  0  0  0  0  0  0  0  0  0  0  0
  -18.5060  -45.2235  -11.2014 Cl  0  0  0  0  0  0  0  0  0  0  0  0
  -15.8989  -44.5208  -10.9185 N   0  0  0  0  0  0  0  0  0  0  0  0
  -16.6961  -42.0894   -7.6522 C   0  0  0  0  0  0  0  0  0  0  0  0
  -17.7091  -42.5924   -6.9494 O   0  0  0  0  0  0  0  0  0  0  0  0
  -16.3561  -40.8544   -7.1088 N   0  0  0  0  0  0  0  0  0  0  0  0
  -21.3051  -39.4640   -6.0566 C   0  0  0  0  0  0  0  0  0  0  0  0
  1  2  1  0
  2  3  1  0
  2  4  1  0
  4  5  2  0
  5  6  1  0
  6  7  2  0
  7  8  1  0
  8  9  1  0
  9 10  1  0
 10 11  1  0
 11 12  1  0
 12 13  1  1
 12 14  1  0
 14 15  1  0
 15 16  2  0
 16 17  1  0
 16 18  1  0
 18 19  1  0
 19 20  1  0
 20 21  1  0
 21 22  1  0
 22 23  1  0
 23 24  1  0
 24 25  1  0
 25 26  1  0
 26 27  2  0
 27 28  1  0
 28 29  2  0
 29 30  1  0
 30 31  1  0
 30 32  2  0
 28 33  1  0
 33 34  2  0
 33 35  1  0
  8 36  2  0
 32 26  1  0
 14 35  1  6
 36  4  1  0
M  END
$$$$
