
     RDKit          3D

 36 38  0  0  0  0  0  0  0  0999 V2000
  -20.8565  -36.9571  -12.1799 C   0  0  0  0  0  0  0  0  0  0  0  0
  -19.4886  -36.3305  -12.4761 C   0  0  0  0  0  0  0  0  0  0  0  0
  -19.4188  -34.9871  -11.7971 C   0  0  0  0  0  0  0  0  0  0  0  0
  -18.4128  -37.2550  -12.0436 C   0  0  0  0  0  0  0  0  0  0  0  0
  -18.2293  -38.4633  -12.7114 C   0  0  0  0  0  0  0  0  0  0  0  0
  -17.2206  -39.2933  -12.2765 C   0  0  0  0  0  0  0  0  0  0  0  0
  -16.4009  -38.9593  -11.2104 C   0  0  0  0  0  0  0  0  0  0  0  0
  -16.6222  -37.7579  -10.5856 C   0  0  0  0  0  0  0  0  0  0  0  0
  -15.7408  -37.3813   -9.4189 C   0  0  0  0  0  0  0  0  0  0  0  0
  -16.4288  -37.7958   -8.2459 N   0  0  0  0  0  0  0  0  0  0  0  0
  -16.1285  -39.0976   -7.7497 C   0  0  0  0  0  0  0  0  0  0  0  0
  -17.0893  -39.5456   -6.7237 C   0  0  1  0  0  0  0  0  0  0  0  0
  -17.5885  -38.4817   -5.9806 O   0  0  0  0  0  0  0  0  0  0  0  0
  -18.3019  -40.1762   -7.3783 C   0  0  2  0  0  0  0  0  0  0  0  0
  -19.0454  -41.0827   -6.4133 C   0  0  0  0  0  0  0  0  0  0  0  0
  -19.9550  -41.0324   -5.5069 C   0  0  0  0  0  0  0  0  0  0  0  0
  -20.7880  -39.8677   -4.9357 C   0  0  0  0  0  0  0  0  0  0  0  0
  -20.5730  -42.1796   -4.6770 C   0  0  0  0  0  0  0  0  0  0  0  0
  -22.0274  -42.3510   -5.0624 C   0  0  0  0  0  0  0  0  0  0  0  0
  -22.1198  -42.3311   -6.4266 O   0  0  0  0  0  0  0  0  0  0  0  0
  -23.3890  -42.2311   -6.9522 C   0  0  0  0  0  0  0  0  0  0  0  0
  -23.9257  -43.6321   -7.1510 C   0  0  0  0  0  0  0  0  0  0  0  0
  -23.9750  -43.9376   -8.6069 C   0  0  0  0  0  0  0  0  0  0  0  0
  -23.0516  -45.0491   -9.0523 C   0  0  0  0  0  0  0  0  0  0  0  0
  -21.9109  -45.1966   -8.2050 N   0  0  0  0  0  0  0  0  0  0  0  0
  -20.5616  -44.7119   -8.3451 C   0  0  0  0  0  0  0  0  0  0  0  0
  -20.0453  -43.4708   -8.6118 C   0  0  0  0  0  0  0  0  0  0  0  0
  -18.6734  -43.3683   -8.6462 C   0  0  0  0  0  0  0  0  0  0  0  0
  -17.8828  -44.5200   -8.4123 C   0  0  0  0  0  0  0  0  0  0  0  0
  -18.4089  -45.7658   -8.1456 C   0  0  0  0  0  0  0  0  0  0  0  0
  -17.3846  -47.1568   -7.8638 Cl  0  0  0  0  0  0  0  0  0  0  0  0
  -19.7221  -45.8007   -8.1250 N   0  0  0  0  0  0  0  0  0  0  0  0
  -17.7902  -42.2079   -8.8833 C   0  0  0  0  0  0  0  0  0  0  0  0
  -16.6526  -42.4343   -9.5371 O   0  0  0  0  0  0  0  0  0  0  0  0
  -17.8552  -40.8531   -8.5728 N   0  0  0  0  0  0  0  0  0  0  0  0
  -17.6306  -36.8857  -10.9909 C   0  0  0  0  0  0  0  0  0  0  0  0
  1  2  1  0
  2  3  1  0
  2  4  1  0
  4  5  2  0
  5  6  1  0
  6  7  2  0
  7  8  1  0
  8  9  1  0
  9 10  1  0
 10 11  1  0
 11 12  1  0
 12 13  1  6
 12 14  1  0
 14 15  1  0
 15 16  2  0
 16 17  1  0
 16 18  1  0
 18 19  1  0
 19 20  1  0
 20 21  1  0
 21 22  1  0
 22 23  1  0
 23 24  1  0
 24 25  1  0
 25 26  1  0
 26 27  2  0
 27 28  1  0
 28 29  2  0
 29 30  1  0
 30 31  1  0
 30 32  2  0
 28 33  1  0
 33 34  2  0
 33 35  1  0
  8 36  2  0
 32 26  1  0
 14 35  1  6
 36  4  1  0
M  END
$$$$
