
     RDKit          3D

 36 38  0  0  0  0  0  0  0  0999 V2000
  -23.6798  -37.1120   -5.6330 C   0  0  0  0  0  0  0  0  0  0  0  0
  -23.3840  -37.0387   -7.1360 C   0  0  0  0  0  0  0  0  0  0  0  0
  -22.7863  -35.6899   -7.4425 C   0  0  0  0  0  0  0  0  0  0  0  0
  -22.5023  -38.1655   -7.5259 C   0  0  0  0  0  0  0  0  0  0  0  0
  -22.6073  -38.7167   -8.8006 C   0  0  0  0  0  0  0  0  0  0  0  0
  -21.7715  -39.7627   -9.1213 C   0  0  0  0  0  0  0  0  0  0  0  0
  -20.8471  -40.2686   -8.2214 C   0  0  0  0  0  0  0  0  0  0  0  0
  -20.7828  -39.6913   -6.9783 C   0  0  0  0  0  0  0  0  0  0  0  0
  -19.7843  -40.2344   -5.9843 C   0  0  0  0  0  0  0  0  0  0  0  0
  -18.5497  -40.3520   -6.6791 N   0  0  0  0  0  0  0  0  0  0  0  0
  -17.4323  -39.6601   -6.1278 C   0  0  0  0  0  0  0  0  0  0  0  0
  -16.5407  -39.1102   -7.1666 C   0  0  1  0  0  0  0  0  0  0  0  0
  -15.7716  -38.0565   -6.6855 O   0  0  0  0  0  0  0  0  0  0  0  0
  -15.5421  -40.1595   -7.6120 C   0  0  2  0  0  0  0  0  0  0  0  0
  -15.2290  -40.0351   -9.0926 C   0  0  0  0  0  0  0  0  0  0  0  0
  -14.4431  -39.4042   -9.8901 C   0  0  0  0  0  0  0  0  0  0  0  0
  -13.3355  -38.3602   -9.6456 C   0  0  0  0  0  0  0  0  0  0  0  0
  -14.3134  -39.5149  -11.4256 C   0  0  0  0  0  0  0  0  0  0  0  0
  -12.9639  -40.1069  -11.7740 C   0  0  0  0  0  0  0  0  0  0  0  0
  -12.7403  -41.1845  -10.9624 O   0  0  0  0  0  0  0  0  0  0  0  0
  -11.4635  -41.7010  -10.9694 C   0  0  0  0  0  0  0  0  0  0  0  0
  -11.3946  -42.7663  -12.0420 C   0  0  0  0  0  0  0  0  0  0  0  0
  -11.3087  -44.1062  -11.3993 C   0  0  0  0  0  0  0  0  0  0  0  0
  -12.4962  -45.0074  -11.6527 C   0  0  0  0  0  0  0  0  0  0  0  0
  -13.6982  -44.2815  -11.9157 N   0  0  0  0  0  0  0  0  0  0  0  0
  -14.7971  -43.9303  -11.0529 C   0  0  0  0  0  0  0  0  0  0  0  0
  -14.8542  -43.3312   -9.8217 C   0  0  0  0  0  0  0  0  0  0  0  0
  -16.1086  -43.1227   -9.2954 C   0  0  0  0  0  0  0  0  0  0  0  0
  -17.2489  -43.5282  -10.0312 C   0  0  0  0  0  0  0  0  0  0  0  0
  -17.1840  -44.1313  -11.2689 C   0  0  0  0  0  0  0  0  0  0  0  0
  -18.6265  -44.6127  -12.1354 Cl  0  0  0  0  0  0  0  0  0  0  0  0
  -15.9617  -44.3027  -11.7190 N   0  0  0  0  0  0  0  0  0  0  0  0
  -16.5401  -42.5020   -8.0260 C   0  0  0  0  0  0  0  0  0  0  0  0
  -17.6217  -43.0099   -7.4387 O   0  0  0  0  0  0  0  0  0  0  0  0
  -16.0684  -41.4525   -7.2436 N   0  0  0  0  0  0  0  0  0  0  0  0
  -21.6080  -38.6308   -6.6094 C   0  0  0  0  0  0  0  0  0  0  0  0
  1  2  1  0
  2  3  1  0
  2  4  1  0
  4  5  2  0
  5  6  1  0
  6  7  2  0
  7  8  1  0
  8  9  1  0
  9 10  1  0
 10 11  1  0
 11 12  1  0
 12 13  1  1
 12 14  1  0
 14 15  1  0
 15 16  2  0
 16 17  1  0
 16 18  1  0
 18 19  1  0
 19 20  1  0
 20 21  1  0
 21 22  1  0
 22 23  1  0
 23 24  1  0
 24 25  1  0
 25 26  1  0
 26 27  2  0
 27 28  1  0
 28 29  2  0
 29 30  1  0
 30 31  1  0
 30 32  2  0
 28 33  1  0
 33 34  2  0
 33 35  1  0
  8 36  2  0
 32 26  1  0
 14 35  1  6
 36  4  1  0
M  END
$$$$
