
     RDKit          3D

 39 41  0  0  0  0  0  0  0  0999 V2000
  -10.7498  -40.7815  -12.4689 C   0  0  0  0  0  0  0  0  0  0  0  0
  -11.8494  -39.8859  -11.9225 C   0  0  0  0  0  0  0  0  0  0  0  0
  -12.3525  -39.0319  -12.9219 O   0  0  0  0  0  0  0  0  0  0  0  0
  -13.3373  -38.1193  -12.6034 C   0  0  0  0  0  0  0  0  0  0  0  0
  -14.0404  -38.1935  -11.4057 C   0  0  0  0  0  0  0  0  0  0  0  0
  -15.0467  -37.2680  -11.0699 C   0  0  0  0  0  0  0  0  0  0  0  0
  -15.6427  -37.4846   -9.7367 C   0  0  0  0  0  0  0  0  0  0  0  0
  -15.2616  -38.5691   -8.9787 N   0  0  0  0  0  0  0  0  0  0  0  0
  -15.9813  -39.2843   -8.0547 C   0  0  0  0  0  0  0  0  0  0  0  0
  -17.4783  -39.0966   -8.0110 C   0  0  1  0  0  0  0  0  0  0  0  0
  -18.0366  -38.3683   -9.0026 O   0  0  0  0  0  0  0  0  0  0  0  0
  -18.2164  -40.4401   -7.8193 C   0  0  2  0  0  0  0  0  0  0  0  0
  -19.6628  -40.2866   -7.9759 C   0  0  0  0  0  0  0  0  0  0  0  0
  -20.5477  -40.0392   -6.8269 C   0  0  2  0  0  0  0  0  0  0  0  0
  -20.1700  -38.9293   -5.8989 C   0  0  0  0  0  0  0  0  0  0  0  0
  -20.9834  -41.2495   -6.0439 C   0  0  0  0  0  0  0  0  0  0  0  0
  -22.2543  -41.8048   -6.6426 C   0  0  0  0  0  0  0  0  0  0  0  0
  -22.0549  -42.9612   -7.3998 O   0  0  0  0  0  0  0  0  0  0  0  0
  -23.2003  -43.7592   -7.4222 C   0  0  0  0  0  0  0  0  0  0  0  0
  -22.8418  -45.2240   -7.5939 C   0  0  0  0  0  0  0  0  0  0  0  0
  -22.8099  -45.6342   -9.0476 C   0  0  0  0  0  0  0  0  0  0  0  0
  -21.5345  -45.2799   -9.7285 C   0  0  0  0  0  0  0  0  0  0  0  0
  -20.3384  -45.8101   -9.1252 N   0  0  0  0  0  0  0  0  0  0  0  0
  -19.4260  -45.2478   -8.1674 C   0  0  0  0  0  0  0  0  0  0  0  0
  -18.8887  -43.9827   -8.0526 C   0  0  0  0  0  0  0  0  0  0  0  0
  -18.0648  -43.7187   -6.9787 C   0  0  0  0  0  0  0  0  0  0  0  0
  -17.8002  -44.7576   -6.0419 C   0  0  0  0  0  0  0  0  0  0  0  0
  -18.3104  -46.0203   -6.1251 C   0  0  0  0  0  0  0  0  0  0  0  0
  -19.1263  -46.2448   -7.2033 C   0  0  0  0  0  0  0  0  0  0  0  0
  -17.3778  -42.4958   -6.5546 C   0  0  0  0  0  0  0  0  0  0  0  0
  -16.2015  -42.6076   -5.9434 O   0  0  0  0  0  0  0  0  0  0  0  0
  -17.7071  -41.1176   -6.6514 N   0  0  0  0  0  0  0  0  0  0  0  0
  -15.3185  -36.2861  -11.9604 C   0  0  0  0  0  0  0  0  0  0  0  0
  -14.5967  -36.2295  -13.1645 C   0  0  0  0  0  0  0  0  0  0  0  0
  -13.6228  -37.1172  -13.4969 C   0  0  0  0  0  0  0  0  0  0  0  0
  -16.3613  -35.2645  -11.7383 C   0  0  0  0  0  0  0  0  0  0  0  0
  -16.0775  -34.4756  -10.6228 F   0  0  0  0  0  0  0  0  0  0  0  0
  -16.7941  -34.5945  -12.8293 F   0  0  0  0  0  0  0  0  0  0  0  0
  -17.5327  -35.9568  -11.2889 F   0  0  0  0  0  0  0  0  0  0  0  0
  1  2  1  0
  2  3  1  0
  3  4  1  0
  4  5  2  0
  5  6  1  0
  6  7  1  0
  7  8  1  0
  8  9  1  0
  9 10  1  0
 10 11  1  6
 10 12  1  0
 12 13  1  1
 13 14  1  0
 14 15  1  1
 14 16  1  0
 16 17  1  0
 17 18  1  0
 18 19  1  0
 19 20  1  0
 20 21  1  0
 21 22  1  0
 22 23  1  0
 23 24  1  0
 24 25  2  0
 25 26  1  0
 26 27  2  0
 27 28  1  0
 28 29  2  0
 26 30  1  0
 30 31  2  0
 30 32  1  0
  6 33  2  0
 33 34  1  0
 34 35  2  0
 33 36  1  0
 36 37  1  0
 36 38  1  0
 36 39  1  0
 29 24  1  0
 32 12  1  0
 35  4  1  0
M  END
$$$$
