
     RDKit          3D

 39 41  0  0  0  0  0  0  0  0999 V2000
  -20.4819  -36.0480  -12.6364 C   0  0  0  0  0  0  0  0  0  0  0  0
  -19.1059  -36.1701  -12.0028 C   0  0  0  0  0  0  0  0  0  0  0  0
  -18.1575  -36.6347  -12.9334 O   0  0  0  0  0  0  0  0  0  0  0  0
  -16.8123  -36.5137  -12.6507 C   0  0  0  0  0  0  0  0  0  0  0  0
  -16.2743  -36.9748  -11.4539 C   0  0  0  0  0  0  0  0  0  0  0  0
  -14.9036  -36.8572  -11.1549 C   0  0  0  0  0  0  0  0  0  0  0  0
  -14.5178  -37.4489   -9.8585 C   0  0  0  0  0  0  0  0  0  0  0  0
  -15.4824  -37.7498   -8.9233 N   0  0  0  0  0  0  0  0  0  0  0  0
  -16.2756  -38.8646   -8.8151 C   0  0  0  0  0  0  0  0  0  0  0  0
  -17.3915  -38.8543   -7.7989 C   0  0  1  0  0  0  0  0  0  0  0  0
  -18.2166  -37.7845   -7.8015 O   0  0  0  0  0  0  0  0  0  0  0  0
  -18.1896  -40.1770   -7.8145 C   0  0  2  0  0  0  0  0  0  0  0  0
  -19.6323  -39.9351   -7.8039 C   0  0  0  0  0  0  0  0  0  0  0  0
  -20.4049  -39.8928   -6.5525 C   0  0  2  0  0  0  0  0  0  0  0  0
  -19.8882  -39.0137   -5.4590 C   0  0  0  0  0  0  0  0  0  0  0  0
  -20.8461  -41.2191   -5.9924 C   0  0  0  0  0  0  0  0  0  0  0  0
  -22.1920  -41.5868   -6.5716 C   0  0  0  0  0  0  0  0  0  0  0  0
  -22.1233  -42.5701   -7.5607 O   0  0  0  0  0  0  0  0  0  0  0  0
  -23.3119  -43.2987   -7.6382 C   0  0  0  0  0  0  0  0  0  0  0  0
  -23.0555  -44.7104   -8.1330 C   0  0  0  0  0  0  0  0  0  0  0  0
  -23.1660  -44.8142   -9.6361 C   0  0  0  0  0  0  0  0  0  0  0  0
  -21.9315  -44.3804  -10.3457 C   0  0  0  0  0  0  0  0  0  0  0  0
  -20.7237  -45.0721   -9.9735 N   0  0  0  0  0  0  0  0  0  0  0  0
  -19.7049  -44.7566   -9.0099 C   0  0  0  0  0  0  0  0  0  0  0  0
  -19.0863  -43.5653   -8.6927 C   0  0  0  0  0  0  0  0  0  0  0  0
  -18.1639  -43.5617   -7.6677 C   0  0  0  0  0  0  0  0  0  0  0  0
  -17.8857  -44.7810   -6.9871 C   0  0  0  0  0  0  0  0  0  0  0  0
  -18.4746  -45.9775   -7.2754 C   0  0  0  0  0  0  0  0  0  0  0  0
  -19.3872  -45.9419   -8.2974 C   0  0  0  0  0  0  0  0  0  0  0  0
  -17.3737  -42.4813   -7.0711 C   0  0  0  0  0  0  0  0  0  0  0  0
  -16.1603  -42.7647   -6.6052 O   0  0  0  0  0  0  0  0  0  0  0  0
  -17.6280  -41.1003   -6.8583 N   0  0  0  0  0  0  0  0  0  0  0  0
  -14.1079  -36.2712  -12.0792 C   0  0  0  0  0  0  0  0  0  0  0  0
  -14.6717  -35.8121  -13.2814 C   0  0  0  0  0  0  0  0  0  0  0  0
  -15.9930  -35.9223  -13.5797 C   0  0  0  0  0  0  0  0  0  0  0  0
  -12.6584  -36.0701  -11.8817 C   0  0  0  0  0  0  0  0  0  0  0  0
  -11.9129  -36.6924  -12.8839 F   0  0  0  0  0  0  0  0  0  0  0  0
  -12.2603  -34.8216  -11.5511 F   0  0  0  0  0  0  0  0  0  0  0  0
  -12.2819  -36.8506  -10.7406 F   0  0  0  0  0  0  0  0  0  0  0  0
  1  2  1  0
  2  3  1  0
  3  4  1  0
  4  5  2  0
  5  6  1  0
  6  7  1  0
  7  8  1  0
  8  9  1  0
  9 10  1  0
 10 11  1  6
 10 12  1  0
 12 13  1  1
 13 14  1  0
 14 15  1  1
 14 16  1  0
 16 17  1  0
 17 18  1  0
 18 19  1  0
 19 20  1  0
 20 21  1  0
 21 22  1  0
 22 23  1  0
 23 24  1  0
 24 25  2  0
 25 26  1  0
 26 27  2  0
 27 28  1  0
 28 29  2  0
 26 30  1  0
 30 31  2  0
 30 32  1  0
  6 33  2  0
 33 34  1  0
 34 35  2  0
 33 36  1  0
 36 37  1  0
 36 38  1  0
 36 39  1  0
 29 24  1  0
 32 12  1  0
 35  4  1  0
M  END
$$$$
