
     RDKit          3D

 39 41  0  0  0  0  0  0  0  0999 V2000
  -23.7659  -40.8911   -4.2195 C   0  0  0  0  0  0  0  0  0  0  0  0
  -22.8448  -39.9958   -5.0316 C   0  0  0  0  0  0  0  0  0  0  0  0
  -23.0837  -40.1394   -6.4114 O   0  0  0  0  0  0  0  0  0  0  0  0
  -22.2535  -39.5070   -7.3142 C   0  0  0  0  0  0  0  0  0  0  0  0
  -20.9466  -39.1627   -6.9858 C   0  0  0  0  0  0  0  0  0  0  0  0
  -20.0905  -38.5179   -7.8987 C   0  0  0  0  0  0  0  0  0  0  0  0
  -18.7286  -38.2797   -7.3810 C   0  0  0  0  0  0  0  0  0  0  0  0
  -17.9176  -39.3444   -7.0578 N   0  0  0  0  0  0  0  0  0  0  0  0
  -16.6072  -39.3512   -6.6498 C   0  0  0  0  0  0  0  0  0  0  0  0
  -15.5283  -39.3877   -7.7047 C   0  0  1  0  0  0  0  0  0  0  0  0
  -14.2889  -39.0006   -7.3313 O   0  0  0  0  0  0  0  0  0  0  0  0
  -15.4932  -40.7469   -8.4381 C   0  0  2  0  0  0  0  0  0  0  0  0
  -14.1495  -41.3253   -8.4354 C   0  0  0  0  0  0  0  0  0  0  0  0
  -13.2045  -41.1025   -9.5408 C   0  0  2  0  0  0  0  0  0  0  0  0
  -12.9835  -39.6897   -9.9776 C   0  0  0  0  0  0  0  0  0  0  0  0
  -13.3504  -42.0031  -10.7388 C   0  0  0  0  0  0  0  0  0  0  0  0
  -12.5101  -43.2428  -10.5411 C   0  0  0  0  0  0  0  0  0  0  0  0
  -13.2559  -44.3734  -10.2011 O   0  0  0  0  0  0  0  0  0  0  0  0
  -12.6157  -45.5465  -10.6053 C   0  0  0  0  0  0  0  0  0  0  0  0
  -13.6216  -46.6459  -10.8935 C   0  0  0  0  0  0  0  0  0  0  0  0
  -13.9008  -47.4939   -9.6747 C   0  0  0  0  0  0  0  0  0  0  0  0
  -14.8916  -46.8803   -8.7486 C   0  0  0  0  0  0  0  0  0  0  0  0
  -16.1709  -46.5600   -9.3286 N   0  0  0  0  0  0  0  0  0  0  0  0
  -16.6763  -45.3449   -9.9067 C   0  0  0  0  0  0  0  0  0  0  0  0
  -16.5577  -44.0285   -9.5123 C   0  0  0  0  0  0  0  0  0  0  0  0
  -17.1187  -43.0548  -10.3115 C   0  0  0  0  0  0  0  0  0  0  0  0
  -17.7976  -43.4463  -11.5002 C   0  0  0  0  0  0  0  0  0  0  0  0
  -17.9378  -44.7370  -11.9196 C   0  0  0  0  0  0  0  0  0  0  0  0
  -17.3655  -45.6764  -11.1018 C   0  0  0  0  0  0  0  0  0  0  0  0
  -17.1393  -41.5939  -10.1992 C   0  0  0  0  0  0  0  0  0  0  0  0
  -18.2060  -40.9375  -10.6475 O   0  0  0  0  0  0  0  0  0  0  0  0
  -16.2106  -40.6495   -9.6864 N   0  0  0  0  0  0  0  0  0  0  0  0
  -20.5820  -38.2349   -9.1272 C   0  0  0  0  0  0  0  0  0  0  0  0
  -21.9050  -38.5910   -9.4383 C   0  0  0  0  0  0  0  0  0  0  0  0
  -22.7384  -39.2148   -8.5645 C   0  0  0  0  0  0  0  0  0  0  0  0
  -19.7951  -37.5458  -10.1695 C   0  0  0  0  0  0  0  0  0  0  0  0
  -20.4725  -36.4346  -10.6732 F   0  0  0  0  0  0  0  0  0  0  0  0
  -18.4819  -37.3582   -9.9110 F   0  0  0  0  0  0  0  0  0  0  0  0
  -19.7873  -38.4016  -11.3187 F   0  0  0  0  0  0  0  0  0  0  0  0
  1  2  1  0
  2  3  1  0
  3  4  1  0
  4  5  2  0
  5  6  1  0
  6  7  1  0
  7  8  1  0
  8  9  1  0
  9 10  1  0
 10 11  1  1
 10 12  1  0
 12 13  1  6
 13 14  1  0
 14 15  1  6
 14 16  1  0
 16 17  1  0
 17 18  1  0
 18 19  1  0
 19 20  1  0
 20 21  1  0
 21 22  1  0
 22 23  1  0
 23 24  1  0
 24 25  2  0
 25 26  1  0
 26 27  2  0
 27 28  1  0
 28 29  2  0
 26 30  1  0
 30 31  2  0
 30 32  1  0
  6 33  2  0
 33 34  1  0
 34 35  2  0
 33 36  1  0
 36 37  1  0
 36 38  1  0
 36 39  1  0
 29 24  1  0
 32 12  1  0
 35  4  1  0
M  END
$$$$
