
     RDKit          3D

 39 41  0  0  0  0  0  0  0  0999 V2000
  -23.0405  -36.0305   -8.4354 C   0  0  0  0  0  0  0  0  0  0  0  0
  -21.5504  -36.1542   -8.7072 C   0  0  0  0  0  0  0  0  0  0  0  0
  -21.2769  -36.0716  -10.0855 O   0  0  0  0  0  0  0  0  0  0  0  0
  -19.9693  -36.1241  -10.5232 C   0  0  0  0  0  0  0  0  0  0  0  0
  -18.9092  -36.2790   -9.6363 C   0  0  0  0  0  0  0  0  0  0  0  0
  -17.5714  -36.3342  -10.0713 C   0  0  0  0  0  0  0  0  0  0  0  0
  -16.5943  -36.5507   -8.9858 C   0  0  0  0  0  0  0  0  0  0  0  0
  -16.9516  -37.2747   -7.8705 N   0  0  0  0  0  0  0  0  0  0  0  0
  -16.1977  -38.1304   -7.1070 C   0  0  0  0  0  0  0  0  0  0  0  0
  -15.8469  -39.4820   -7.6800 C   0  0  1  0  0  0  0  0  0  0  0  0
  -14.7095  -40.0617   -7.2377 O   0  0  0  0  0  0  0  0  0  0  0  0
  -17.0399  -40.4606   -7.6050 C   0  0  2  0  0  0  0  0  0  0  0  0
  -16.6171  -41.7923   -7.1713 C   0  0  0  0  0  0  0  0  0  0  0  0
  -16.2648  -42.8483   -8.1333 C   0  0  2  0  0  0  0  0  0  0  0  0
  -15.2866  -42.4962   -9.2079 C   0  0  0  0  0  0  0  0  0  0  0  0
  -17.4095  -43.6404   -8.7076 C   0  0  0  0  0  0  0  0  0  0  0  0
  -17.6947  -44.8283   -7.8191 C   0  0  0  0  0  0  0  0  0  0  0  0
  -18.8320  -44.6698   -7.0244 O   0  0  0  0  0  0  0  0  0  0  0  0
  -19.4050  -45.9019   -6.7034 C   0  0  0  0  0  0  0  0  0  0  0  0
  -20.9012  -45.7681   -6.4864 C   0  0  0  0  0  0  0  0  0  0  0  0
  -21.2431  -45.4948   -5.0404 C   0  0  0  0  0  0  0  0  0  0  0  0
  -21.0974  -44.0619   -4.6647 C   0  0  0  0  0  0  0  0  0  0  0  0
  -21.8648  -43.1306   -5.4519 N   0  0  0  0  0  0  0  0  0  0  0  0
  -21.5237  -42.3634   -6.6185 C   0  0  0  0  0  0  0  0  0  0  0  0
  -20.3850  -41.6570   -6.9452 C   0  0  0  0  0  0  0  0  0  0  0  0
  -20.3258  -41.0504   -8.1822 C   0  0  0  0  0  0  0  0  0  0  0  0
  -21.4376  -41.1728   -9.0632 C   0  0  0  0  0  0  0  0  0  0  0  0
  -22.5803  -41.8595   -8.7731 C   0  0  0  0  0  0  0  0  0  0  0  0
  -22.6019  -42.4508   -7.5367 C   0  0  0  0  0  0  0  0  0  0  0  0
  -19.2701  -40.2735   -8.8375 C   0  0  0  0  0  0  0  0  0  0  0  0
  -19.6234  -39.2922   -9.6634 O   0  0  0  0  0  0  0  0  0  0  0  0
  -17.8520  -40.3361   -8.7912 N   0  0  0  0  0  0  0  0  0  0  0  0
  -17.3389  -36.2293  -11.4002 C   0  0  0  0  0  0  0  0  0  0  0  0
  -18.4241  -36.0731  -12.2787 C   0  0  0  0  0  0  0  0  0  0  0  0
  -19.7187  -36.0200  -11.8687 C   0  0  0  0  0  0  0  0  0  0  0  0
  -15.9829  -36.2537  -11.9841 C   0  0  0  0  0  0  0  0  0  0  0  0
  -15.0381  -35.7144  -11.1102 F   0  0  0  0  0  0  0  0  0  0  0  0
  -15.6133  -37.3941  -12.6082 F   0  0  0  0  0  0  0  0  0  0  0  0
  -15.9652  -35.2804  -13.0356 F   0  0  0  0  0  0  0  0  0  0  0  0
  1  2  1  0
  2  3  1  0
  3  4  1  0
  4  5  2  0
  5  6  1  0
  6  7  1  0
  7  8  1  0
  8  9  1  0
  9 10  1  0
 10 11  1  1
 10 12  1  0
 12 13  1  6
 13 14  1  0
 14 15  1  6
 14 16  1  0
 16 17  1  0
 17 18  1  0
 18 19  1  0
 19 20  1  0
 20 21  1  0
 21 22  1  0
 22 23  1  0
 23 24  1  0
 24 25  2  0
 25 26  1  0
 26 27  2  0
 27 28  1  0
 28 29  2  0
 26 30  1  0
 30 31  2  0
 30 32  1  0
  6 33  2  0
 33 34  1  0
 34 35  2  0
 33 36  1  0
 36 37  1  0
 36 38  1  0
 36 39  1  0
 29 24  1  0
 32 12  1  0
 35  4  1  0
M  END
$$$$
