
     RDKit          3D

 39 41  0  0  0  0  0  0  0  0999 V2000
  -20.4119  -36.8517  -10.1774 C   0  0  0  0  0  0  0  0  0  0  0  0
  -19.8403  -37.9975  -10.9959 C   0  0  0  0  0  0  0  0  0  0  0  0
  -19.2492  -37.5278  -12.1839 O   0  0  0  0  0  0  0  0  0  0  0  0
  -17.9187  -37.1621  -12.1825 C   0  0  0  0  0  0  0  0  0  0  0  0
  -17.1612  -37.1714  -11.0160 C   0  0  0  0  0  0  0  0  0  0  0  0
  -15.8031  -36.8008  -11.0025 C   0  0  0  0  0  0  0  0  0  0  0  0
  -15.1594  -36.9225   -9.6794 C   0  0  0  0  0  0  0  0  0  0  0  0
  -15.9130  -37.2435   -8.5727 N   0  0  0  0  0  0  0  0  0  0  0  0
  -16.3321  -38.4726   -8.1288 C   0  0  0  0  0  0  0  0  0  0  0  0
  -17.5936  -38.5445   -7.3033 C   0  0  1  0  0  0  0  0  0  0  0  0
  -18.5344  -37.6025   -7.5334 O   0  0  0  0  0  0  0  0  0  0  0  0
  -18.2058  -39.9628   -7.3190 C   0  0  2  0  0  0  0  0  0  0  0  0
  -19.6351  -39.9355   -7.0085 C   0  0  0  0  0  0  0  0  0  0  0  0
  -20.1367  -40.1158   -5.6371 C   0  0  2  0  0  0  0  0  0  0  0  0
  -19.5234  -39.2698   -4.5676 C   0  0  0  0  0  0  0  0  0  0  0  0
  -20.2851  -41.5361   -5.1593 C   0  0  0  0  0  0  0  0  0  0  0  0
  -21.6634  -42.0438   -5.5119 C   0  0  0  0  0  0  0  0  0  0  0  0
  -21.6740  -42.9164   -6.6022 O   0  0  0  0  0  0  0  0  0  0  0  0
  -22.7525  -43.8007   -6.5365 C   0  0  0  0  0  0  0  0  0  0  0  0
  -22.4267  -45.1113   -7.2291 C   0  0  0  0  0  0  0  0  0  0  0  0
  -22.8260  -45.0982   -8.6861 C   0  0  0  0  0  0  0  0  0  0  0  0
  -21.8255  -44.4289   -9.5618 C   0  0  0  0  0  0  0  0  0  0  0  0
  -20.4903  -44.9671   -9.5062 N   0  0  0  0  0  0  0  0  0  0  0  0
  -19.3450  -44.5921   -8.7228 C   0  0  0  0  0  0  0  0  0  0  0  0
  -18.8295  -43.3557   -8.3939 C   0  0  0  0  0  0  0  0  0  0  0  0
  -17.7261  -43.3074   -7.5682 C   0  0  0  0  0  0  0  0  0  0  0  0
  -17.1649  -44.5280   -7.0965 C   0  0  0  0  0  0  0  0  0  0  0  0
  -17.6450  -45.7677   -7.4034 C   0  0  0  0  0  0  0  0  0  0  0  0
  -18.7431  -45.7761   -8.2236 C   0  0  0  0  0  0  0  0  0  0  0  0
  -16.9734  -42.1798   -7.0120 C   0  0  0  0  0  0  0  0  0  0  0  0
  -15.6649  -42.3231   -6.8192 O   0  0  0  0  0  0  0  0  0  0  0  0
  -17.3504  -40.8745   -6.5983 N   0  0  0  0  0  0  0  0  0  0  0  0
  -15.2431  -36.4267  -12.1762 C   0  0  0  0  0  0  0  0  0  0  0  0
  -16.0262  -36.4241  -13.3427 C   0  0  0  0  0  0  0  0  0  0  0  0
  -17.3373  -36.7813  -13.3661 C   0  0  0  0  0  0  0  0  0  0  0  0
  -13.8351  -35.9981  -12.2955 C   0  0  0  0  0  0  0  0  0  0  0  0
  -13.5078  -35.6721  -13.6122 F   0  0  0  0  0  0  0  0  0  0  0  0
  -13.3820  -35.1405  -11.3543 F   0  0  0  0  0  0  0  0  0  0  0  0
  -13.0270  -37.1646  -12.0968 F   0  0  0  0  0  0  0  0  0  0  0  0
  1  2  1  0
  2  3  1  0
  3  4  1  0
  4  5  2  0
  5  6  1  0
  6  7  1  0
  7  8  1  0
  8  9  1  0
  9 10  1  0
 10 11  1  6
 10 12  1  0
 12 13  1  1
 13 14  1  0
 14 15  1  1
 14 16  1  0
 16 17  1  0
 17 18  1  0
 18 19  1  0
 19 20  1  0
 20 21  1  0
 21 22  1  0
 22 23  1  0
 23 24  1  0
 24 25  2  0
 25 26  1  0
 26 27  2  0
 27 28  1  0
 28 29  2  0
 26 30  1  0
 30 31  2  0
 30 32  1  0
  6 33  2  0
 33 34  1  0
 34 35  2  0
 33 36  1  0
 36 37  1  0
 36 38  1  0
 36 39  1  0
 29 24  1  0
 32 12  1  0
 35  4  1  0
M  END
$$$$
