
     RDKit          3D

 39 41  0  0  0  0  0  0  0  0999 V2000
  -23.1558  -39.5181  -10.3473 C   0  0  0  0  0  0  0  0  0  0  0  0
  -22.1683  -40.0959   -9.3470 C   0  0  0  0  0  0  0  0  0  0  0  0
  -22.7874  -41.0456   -8.5126 O   0  0  0  0  0  0  0  0  0  0  0  0
  -22.3987  -41.1464   -7.1924 C   0  0  0  0  0  0  0  0  0  0  0  0
  -21.3256  -40.4176   -6.6906 C   0  0  0  0  0  0  0  0  0  0  0  0
  -20.9203  -40.5120   -5.3457 C   0  0  0  0  0  0  0  0  0  0  0  0
  -19.7937  -39.6252   -4.9932 C   0  0  0  0  0  0  0  0  0  0  0  0
  -18.7819  -39.4019   -5.8999 N   0  0  0  0  0  0  0  0  0  0  0  0
  -17.4486  -39.1632   -5.6786 C   0  0  0  0  0  0  0  0  0  0  0  0
  -16.6510  -38.4880   -6.7677 C   0  0  1  0  0  0  0  0  0  0  0  0
  -15.5432  -37.8126   -6.3908 O   0  0  0  0  0  0  0  0  0  0  0  0
  -16.3482  -39.4534   -7.9351 C   0  0  2  0  0  0  0  0  0  0  0  0
  -15.3090  -38.9220   -8.8171 C   0  0  0  0  0  0  0  0  0  0  0  0
  -15.6345  -38.1343  -10.0163 C   0  0  2  0  0  0  0  0  0  0  0  0
  -16.5782  -36.9871   -9.8460 C   0  0  0  0  0  0  0  0  0  0  0  0
  -15.9790  -38.9146  -11.2573 C   0  0  0  0  0  0  0  0  0  0  0  0
  -14.7176  -39.2011  -12.0374 C   0  0  0  0  0  0  0  0  0  0  0  0
  -14.2721  -40.5188  -11.9127 O   0  0  0  0  0  0  0  0  0  0  0  0
  -13.5390  -40.9169  -13.0322 C   0  0  0  0  0  0  0  0  0  0  0  0
  -13.6510  -42.4141  -13.2540 C   0  0  0  0  0  0  0  0  0  0  0  0
  -12.5515  -43.1761  -12.5519 C   0  0  0  0  0  0  0  0  0  0  0  0
  -12.8282  -43.4061  -11.1075 C   0  0  0  0  0  0  0  0  0  0  0  0
  -14.0590  -44.0938  -10.8111 N   0  0  0  0  0  0  0  0  0  0  0  0
  -15.3712  -43.6015  -10.4919 C   0  0  0  0  0  0  0  0  0  0  0  0
  -15.7850  -42.5691   -9.6761 C   0  0  0  0  0  0  0  0  0  0  0  0
  -17.1345  -42.2945   -9.6049 C   0  0  0  0  0  0  0  0  0  0  0  0
  -18.0396  -43.0862  -10.3672 C   0  0  0  0  0  0  0  0  0  0  0  0
  -17.6675  -44.1162  -11.1810 C   0  0  0  0  0  0  0  0  0  0  0  0
  -16.3191  -44.3580  -11.2284 C   0  0  0  0  0  0  0  0  0  0  0  0
  -17.8829  -41.2657   -8.8777 C   0  0  0  0  0  0  0  0  0  0  0  0
  -19.1022  -41.5610   -8.4352 O   0  0  0  0  0  0  0  0  0  0  0  0
  -17.5826  -39.9260   -8.5139 N   0  0  0  0  0  0  0  0  0  0  0  0
  -21.6141  -41.3474   -4.5385 C   0  0  0  0  0  0  0  0  0  0  0  0
  -22.6945  -42.0746   -5.0657 C   0  0  0  0  0  0  0  0  0  0  0  0
  -23.0941  -41.9892   -6.3618 C   0  0  0  0  0  0  0  0  0  0  0  0
  -21.2807  -41.5516   -3.1146 C   0  0  0  0  0  0  0  0  0  0  0  0
  -21.4447  -40.3791   -2.3759 F   0  0  0  0  0  0  0  0  0  0  0  0
  -21.7601  -42.6750   -2.5360 F   0  0  0  0  0  0  0  0  0  0  0  0
  -19.8599  -41.7216   -3.0403 F   0  0  0  0  0  0  0  0  0  0  0  0
  1  2  1  0
  2  3  1  0
  3  4  1  0
  4  5  2  0
  5  6  1  0
  6  7  1  0
  7  8  1  0
  8  9  1  0
  9 10  1  0
 10 11  1  1
 10 12  1  0
 12 13  1  6
 13 14  1  0
 14 15  1  1
 14 16  1  0
 16 17  1  0
 17 18  1  0
 18 19  1  0
 19 20  1  0
 20 21  1  0
 21 22  1  0
 22 23  1  0
 23 24  1  0
 24 25  2  0
 25 26  1  0
 26 27  2  0
 27 28  1  0
 28 29  2  0
 26 30  1  0
 30 31  2  0
 30 32  1  0
  6 33  2  0
 33 34  1  0
 34 35  2  0
 33 36  1  0
 36 37  1  0
 36 38  1  0
 36 39  1  0
 29 24  1  0
 32 12  1  0
 35  4  1  0
M  END
$$$$
