
     RDKit          3D

 39 41  0  0  0  0  0  0  0  0999 V2000
  -20.4138  -38.6643  -12.0848 C   0  0  0  0  0  0  0  0  0  0  0  0
  -19.3332  -39.2365  -12.9874 C   0  0  0  0  0  0  0  0  0  0  0  0
  -18.7531  -38.2321  -13.7850 O   0  0  0  0  0  0  0  0  0  0  0  0
  -17.7544  -37.4386  -13.2588 C   0  0  0  0  0  0  0  0  0  0  0  0
  -17.1536  -37.7351  -12.0399 C   0  0  0  0  0  0  0  0  0  0  0  0
  -16.1336  -36.9332  -11.4935 C   0  0  0  0  0  0  0  0  0  0  0  0
  -15.5895  -37.4386  -10.2175 C   0  0  0  0  0  0  0  0  0  0  0  0
  -16.3681  -38.2261   -9.3994 N   0  0  0  0  0  0  0  0  0  0  0  0
  -17.4404  -37.8785   -8.6164 C   0  0  0  0  0  0  0  0  0  0  0  0
  -17.5915  -38.5457   -7.2710 C   0  0  1  0  0  0  0  0  0  0  0  0
  -17.9752  -37.7657   -6.2367 O   0  0  0  0  0  0  0  0  0  0  0  0
  -18.4572  -39.8220   -7.3610 C   0  0  2  0  0  0  0  0  0  0  0  0
  -19.7320  -39.6579   -6.6625 C   0  0  0  0  0  0  0  0  0  0  0  0
  -19.9075  -40.0618   -5.2587 C   0  0  2  0  0  0  0  0  0  0  0  0
  -18.8957  -39.5702   -4.2738 C   0  0  0  0  0  0  0  0  0  0  0  0
  -20.2124  -41.5159   -5.0131 C   0  0  0  0  0  0  0  0  0  0  0  0
  -21.7075  -41.7290   -5.0480 C   0  0  0  0  0  0  0  0  0  0  0  0
  -22.1578  -42.3287   -6.2261 O   0  0  0  0  0  0  0  0  0  0  0  0
  -23.3403  -43.0406   -6.0157 C   0  0  0  0  0  0  0  0  0  0  0  0
  -23.4605  -44.1991   -6.9888 C   0  0  0  0  0  0  0  0  0  0  0  0
  -24.1941  -43.8075   -8.2501 C   0  0  0  0  0  0  0  0  0  0  0  0
  -23.3269  -43.1130   -9.2407 C   0  0  0  0  0  0  0  0  0  0  0  0
  -22.1526  -43.8372   -9.6560 N   0  0  0  0  0  0  0  0  0  0  0  0
  -20.7994  -43.8135   -9.1722 C   0  0  0  0  0  0  0  0  0  0  0  0
  -19.9846  -42.7678   -8.7912 C   0  0  0  0  0  0  0  0  0  0  0  0
  -18.7255  -43.0625   -8.3124 C   0  0  0  0  0  0  0  0  0  0  0  0
  -18.3189  -44.4250   -8.2367 C   0  0  0  0  0  0  0  0  0  0  0  0
  -19.0953  -45.4839   -8.6075 C   0  0  0  0  0  0  0  0  0  0  0  0
  -20.3402  -45.1526   -9.0756 C   0  0  0  0  0  0  0  0  0  0  0  0
  -17.6514  -42.2062   -7.8022 C   0  0  0  0  0  0  0  0  0  0  0  0
  -16.3907  -42.5757   -8.0118 O   0  0  0  0  0  0  0  0  0  0  0  0
  -17.6493  -40.9838   -7.0789 N   0  0  0  0  0  0  0  0  0  0  0  0
  -15.7462  -35.8446  -12.1978 C   0  0  0  0  0  0  0  0  0  0  0  0
  -16.3664  -35.5631  -13.4266 C   0  0  0  0  0  0  0  0  0  0  0  0
  -17.3506  -36.3317  -13.9628 C   0  0  0  0  0  0  0  0  0  0  0  0
  -14.7016  -34.9125  -11.7283 C   0  0  0  0  0  0  0  0  0  0  0  0
  -14.9929  -34.4129  -10.4583 F   0  0  0  0  0  0  0  0  0  0  0  0
  -13.4195  -35.2926  -11.9235 F   0  0  0  0  0  0  0  0  0  0  0  0
  -14.8186  -33.7239  -12.5199 F   0  0  0  0  0  0  0  0  0  0  0  0
  1  2  1  0
  2  3  1  0
  3  4  1  0
  4  5  2  0
  5  6  1  0
  6  7  1  0
  7  8  1  0
  8  9  1  0
  9 10  1  0
 10 11  1  1
 10 12  1  0
 12 13  1  1
 13 14  1  0
 14 15  1  1
 14 16  1  0
 16 17  1  0
 17 18  1  0
 18 19  1  0
 19 20  1  0
 20 21  1  0
 21 22  1  0
 22 23  1  0
 23 24  1  0
 24 25  2  0
 25 26  1  0
 26 27  2  0
 27 28  1  0
 28 29  2  0
 26 30  1  0
 30 31  2  0
 30 32  1  0
  6 33  2  0
 33 34  1  0
 34 35  2  0
 33 36  1  0
 36 37  1  0
 36 38  1  0
 36 39  1  0
 29 24  1  0
 32 12  1  0
 35  4  1  0
M  END
$$$$
