
     RDKit          3D

 39 41  0  0  0  0  0  0  0  0999 V2000
  -22.5439  -42.5363   -3.0372 C   0  0  0  0  0  0  0  0  0  0  0  0
  -21.9470  -41.7460   -4.1900 C   0  0  0  0  0  0  0  0  0  0  0  0
  -22.7980  -41.7617   -5.3111 O   0  0  0  0  0  0  0  0  0  0  0  0
  -22.4922  -40.9814   -6.4074 C   0  0  0  0  0  0  0  0  0  0  0  0
  -21.3178  -40.2389   -6.4691 C   0  0  0  0  0  0  0  0  0  0  0  0
  -20.9951  -39.4398   -7.5823 C   0  0  0  0  0  0  0  0  0  0  0  0
  -19.6847  -38.7673   -7.4806 C   0  0  0  0  0  0  0  0  0  0  0  0
  -18.5309  -39.4563   -7.7802 N   0  0  0  0  0  0  0  0  0  0  0  0
  -17.4251  -39.6875   -7.0009 C   0  0  0  0  0  0  0  0  0  0  0  0
  -16.1690  -38.9016   -7.2879 C   0  0  1  0  0  0  0  0  0  0  0  0
  -15.3160  -38.7067   -6.2584 O   0  0  0  0  0  0  0  0  0  0  0  0
  -15.4302  -39.4412   -8.5327 C   0  0  2  0  0  0  0  0  0  0  0  0
  -14.0358  -38.9998   -8.5643 C   0  0  0  0  0  0  0  0  0  0  0  0
  -13.6210  -37.7832   -9.2802 C   0  0  2  0  0  0  0  0  0  0  0  0
  -14.3854  -36.5294   -8.9983 C   0  0  0  0  0  0  0  0  0  0  0  0
  -13.3786  -37.9261  -10.7595 C   0  0  0  0  0  0  0  0  0  0  0  0
  -11.9376  -38.3116  -10.9979 C   0  0  0  0  0  0  0  0  0  0  0  0
  -11.7679  -39.6582  -11.3267 O   0  0  0  0  0  0  0  0  0  0  0  0
  -10.6207  -39.8536  -12.0982 C   0  0  0  0  0  0  0  0  0  0  0  0
  -10.7740  -41.0580  -13.0088 C   0  0  0  0  0  0  0  0  0  0  0  0
  -10.2725  -42.3273  -12.3609 C   0  0  0  0  0  0  0  0  0  0  0  0
  -11.2635  -42.9450  -11.4378 C   0  0  0  0  0  0  0  0  0  0  0  0
  -12.5444  -43.2580  -12.0183 N   0  0  0  0  0  0  0  0  0  0  0  0
  -13.7732  -42.5140  -12.0697 C   0  0  0  0  0  0  0  0  0  0  0  0
  -14.4222  -41.7570  -11.1166 C   0  0  0  0  0  0  0  0  0  0  0  0
  -15.5825  -41.1062  -11.4793 C   0  0  0  0  0  0  0  0  0  0  0  0
  -16.0627  -41.2458  -12.8125 C   0  0  0  0  0  0  0  0  0  0  0  0
  -15.4502  -41.9881  -13.7796 C   0  0  0  0  0  0  0  0  0  0  0  0
  -14.2991  -42.6180  -13.3835 C   0  0  0  0  0  0  0  0  0  0  0  0
  -16.4738  -40.2138  -10.7332 C   0  0  0  0  0  0  0  0  0  0  0  0
  -17.7742  -40.2360  -11.0128 O   0  0  0  0  0  0  0  0  0  0  0  0
  -16.2488  -39.2582   -9.7068 N   0  0  0  0  0  0  0  0  0  0  0  0
  -21.8749  -39.4110   -8.6100 C   0  0  0  0  0  0  0  0  0  0  0  0
  -23.0554  -40.1682   -8.5272 C   0  0  0  0  0  0  0  0  0  0  0  0
  -23.3750  -40.9435   -7.4577 C   0  0  0  0  0  0  0  0  0  0  0  0
  -21.6652  -38.6001   -9.8262 C   0  0  0  0  0  0  0  0  0  0  0  0
  -20.8310  -37.5093   -9.5780 F   0  0  0  0  0  0  0  0  0  0  0  0
  -21.4129  -39.2769  -10.9685 F   0  0  0  0  0  0  0  0  0  0  0  0
  -22.9044  -37.9357  -10.1019 F   0  0  0  0  0  0  0  0  0  0  0  0
  1  2  1  0
  2  3  1  0
  3  4  1  0
  4  5  2  0
  5  6  1  0
  6  7  1  0
  7  8  1  0
  8  9  1  0
  9 10  1  0
 10 11  1  1
 10 12  1  0
 12 13  1  6
 13 14  1  0
 14 15  1  6
 14 16  1  0
 16 17  1  0
 17 18  1  0
 18 19  1  0
 19 20  1  0
 20 21  1  0
 21 22  1  0
 22 23  1  0
 23 24  1  0
 24 25  2  0
 25 26  1  0
 26 27  2  0
 27 28  1  0
 28 29  2  0
 26 30  1  0
 30 31  2  0
 30 32  1  0
  6 33  2  0
 33 34  1  0
 34 35  2  0
 33 36  1  0
 36 37  1  0
 36 38  1  0
 36 39  1  0
 29 24  1  0
 32 12  1  0
 35  4  1  0
M  END
$$$$
