
     RDKit          3D

 39 41  0  0  0  0  0  0  0  0999 V2000
  -13.1195  -31.8053  -12.2309 C   0  0  0  0  0  0  0  0  0  0  0  0
  -14.4383  -32.4866  -12.5566 C   0  0  0  0  0  0  0  0  0  0  0  0
  -14.3907  -33.8593  -12.2486 O   0  0  0  0  0  0  0  0  0  0  0  0
  -15.5312  -34.6250  -12.3788 C   0  0  0  0  0  0  0  0  0  0  0  0
  -15.5133  -36.0006  -12.1743 C   0  0  0  0  0  0  0  0  0  0  0  0
  -16.6705  -36.7918  -12.3039 C   0  0  0  0  0  0  0  0  0  0  0  0
  -16.4593  -38.2210  -11.9998 C   0  0  0  0  0  0  0  0  0  0  0  0
  -16.1591  -38.6158  -10.7154 N   0  0  0  0  0  0  0  0  0  0  0  0
  -16.9900  -38.7767   -9.6350 C   0  0  0  0  0  0  0  0  0  0  0  0
  -16.6097  -39.7899   -8.5830 C   0  0  1  0  0  0  0  0  0  0  0  0
  -15.8397  -39.3567   -7.5608 O   0  0  0  0  0  0  0  0  0  0  0  0
  -17.8417  -40.5657   -8.0662 C   0  0  2  0  0  0  0  0  0  0  0  0
  -17.4527  -41.6744   -7.1947 C   0  0  0  0  0  0  0  0  0  0  0  0
  -17.2510  -43.0368   -7.7121 C   0  0  2  0  0  0  0  0  0  0  0  0
  -16.3612  -43.1913   -8.9038 C   0  0  0  0  0  0  0  0  0  0  0  0
  -18.4863  -43.8837   -7.8690 C   0  0  0  0  0  0  0  0  0  0  0  0
  -18.7502  -44.6309   -6.5829 C   0  0  0  0  0  0  0  0  0  0  0  0
  -19.7969  -44.0935   -5.8307 O   0  0  0  0  0  0  0  0  0  0  0  0
  -20.4030  -45.0662   -5.0333 C   0  0  0  0  0  0  0  0  0  0  0  0
  -21.8624  -44.7342   -4.7817 C   0  0  0  0  0  0  0  0  0  0  0  0
  -22.0506  -43.9185   -3.5241 C   0  0  0  0  0  0  0  0  0  0  0  0
  -21.7923  -42.4661   -3.7236 C   0  0  0  0  0  0  0  0  0  0  0  0
  -22.5790  -41.8289   -4.7486 N   0  0  0  0  0  0  0  0  0  0  0  0
  -22.3087  -41.5784   -6.1379 C   0  0  0  0  0  0  0  0  0  0  0  0
  -21.1693  -41.1428   -6.7818 C   0  0  0  0  0  0  0  0  0  0  0  0
  -21.1946  -41.0428   -8.1569 C   0  0  0  0  0  0  0  0  0  0  0  0
  -22.3898  -41.3858   -8.8505 C   0  0  0  0  0  0  0  0  0  0  0  0
  -23.5356  -41.8163   -8.2476 C   0  0  0  0  0  0  0  0  0  0  0  0
  -23.4721  -41.9057   -6.8813 C   0  0  0  0  0  0  0  0  0  0  0  0
  -20.1651  -40.6560   -9.1253 C   0  0  0  0  0  0  0  0  0  0  0  0
  -20.5411  -40.0222  -10.2328 O   0  0  0  0  0  0  0  0  0  0  0  0
  -18.7544  -40.8185   -9.1549 N   0  0  0  0  0  0  0  0  0  0  0  0
  -17.8229  -36.1674  -12.6404 C   0  0  0  0  0  0  0  0  0  0  0  0
  -17.8189  -34.7771  -12.8428 C   0  0  0  0  0  0  0  0  0  0  0  0
  -16.7076  -34.0048  -12.7187 C   0  0  0  0  0  0  0  0  0  0  0  0
  -19.1011  -36.8830  -12.8259 C   0  0  0  0  0  0  0  0  0  0  0  0
  -19.9411  -36.7273  -11.7224 F   0  0  0  0  0  0  0  0  0  0  0  0
  -19.6965  -36.7553  -14.0324 F   0  0  0  0  0  0  0  0  0  0  0  0
  -18.8089  -38.2836  -12.7476 F   0  0  0  0  0  0  0  0  0  0  0  0
  1  2  1  0
  2  3  1  0
  3  4  1  0
  4  5  2  0
  5  6  1  0
  6  7  1  0
  7  8  1  0
  8  9  1  0
  9 10  1  0
 10 11  1  1
 10 12  1  0
 12 13  1  6
 13 14  1  0
 14 15  1  6
 14 16  1  0
 16 17  1  0
 17 18  1  0
 18 19  1  0
 19 20  1  0
 20 21  1  0
 21 22  1  0
 22 23  1  0
 23 24  1  0
 24 25  2  0
 25 26  1  0
 26 27  2  0
 27 28  1  0
 28 29  2  0
 26 30  1  0
 30 31  2  0
 30 32  1  0
  6 33  2  0
 33 34  1  0
 34 35  2  0
 33 36  1  0
 36 37  1  0
 36 38  1  0
 36 39  1  0
 29 24  1  0
 32 12  1  0
 35  4  1  0
M  END
$$$$
