
     RDKit          3D

 39 41  0  0  0  0  0  0  0  0999 V2000
  -23.3916  -42.1981   -2.7590 C   0  0  0  0  0  0  0  0  0  0  0  0
  -22.6073  -41.3326   -3.7314 C   0  0  0  0  0  0  0  0  0  0  0  0
  -23.0963  -41.4722   -5.0440 O   0  0  0  0  0  0  0  0  0  0  0  0
  -22.6647  -40.6040   -6.0259 C   0  0  0  0  0  0  0  0  0  0  0  0
  -21.4679  -39.9055   -5.9069 C   0  0  0  0  0  0  0  0  0  0  0  0
  -21.0173  -39.0176   -6.9022 C   0  0  0  0  0  0  0  0  0  0  0  0
  -19.7028  -38.4096   -6.6157 C   0  0  0  0  0  0  0  0  0  0  0  0
  -18.8229  -39.0386   -5.7638 N   0  0  0  0  0  0  0  0  0  0  0  0
  -17.4760  -39.2598   -5.9076 C   0  0  0  0  0  0  0  0  0  0  0  0
  -16.7569  -38.5847   -7.0500 C   0  0  1  0  0  0  0  0  0  0  0  0
  -15.9229  -37.5686   -6.7379 O   0  0  0  0  0  0  0  0  0  0  0  0
  -16.0671  -39.6110   -7.9761 C   0  0  2  0  0  0  0  0  0  0  0  0
  -14.8035  -39.0959   -8.5034 C   0  0  0  0  0  0  0  0  0  0  0  0
  -14.7262  -38.4024   -9.7987 C   0  0  2  0  0  0  0  0  0  0  0  0
  -15.6927  -37.2865  -10.0360 C   0  0  0  0  0  0  0  0  0  0  0  0
  -14.6258  -39.2758  -11.0213 C   0  0  0  0  0  0  0  0  0  0  0  0
  -13.1722  -39.5603  -11.3180 C   0  0  0  0  0  0  0  0  0  0  0  0
  -12.7706  -40.8474  -10.9544 O   0  0  0  0  0  0  0  0  0  0  0  0
  -11.7007  -41.2872  -11.7362 C   0  0  0  0  0  0  0  0  0  0  0  0
  -11.7069  -42.7991  -11.8689 C   0  0  0  0  0  0  0  0  0  0  0  0
  -10.8896  -43.4674  -10.7883 C   0  0  0  0  0  0  0  0  0  0  0  0
  -11.6259  -43.6138   -9.5029 C   0  0  0  0  0  0  0  0  0  0  0  0
  -12.8732  -44.3309   -9.5780 N   0  0  0  0  0  0  0  0  0  0  0  0
  -14.2253  -43.8734   -9.7474 C   0  0  0  0  0  0  0  0  0  0  0  0
  -14.9042  -42.8079   -9.1939 C   0  0  0  0  0  0  0  0  0  0  0  0
  -16.2054  -42.5852   -9.5926 C   0  0  0  0  0  0  0  0  0  0  0  0
  -16.7924  -43.4618  -10.5487 C   0  0  0  0  0  0  0  0  0  0  0  0
  -16.1535  -44.5265  -11.1142 C   0  0  0  0  0  0  0  0  0  0  0  0
  -14.8619  -44.7150  -10.6960 C   0  0  0  0  0  0  0  0  0  0  0  0
  -17.1704  -41.5429   -9.2325 C   0  0  0  0  0  0  0  0  0  0  0  0
  -18.4622  -41.8587   -9.1960 O   0  0  0  0  0  0  0  0  0  0  0  0
  -17.0312  -40.1710   -8.8921 N   0  0  0  0  0  0  0  0  0  0  0  0
  -21.7945  -38.8571   -7.9982 C   0  0  0  0  0  0  0  0  0  0  0  0
  -22.9998  -39.5720   -8.0983 C   0  0  0  0  0  0  0  0  0  0  0  0
  -23.4424  -40.4322   -7.1437 C   0  0  0  0  0  0  0  0  0  0  0  0
  -21.4461  -37.9434   -9.1047 C   0  0  0  0  0  0  0  0  0  0  0  0
  -20.0651  -37.7786   -9.2186 F   0  0  0  0  0  0  0  0  0  0  0  0
  -22.1082  -38.1233  -10.2691 F   0  0  0  0  0  0  0  0  0  0  0  0
  -21.8428  -36.6278   -8.6983 F   0  0  0  0  0  0  0  0  0  0  0  0
  1  2  1  0
  2  3  1  0
  3  4  1  0
  4  5  2  0
  5  6  1  0
  6  7  1  0
  7  8  1  0
  8  9  1  0
  9 10  1  0
 10 11  1  1
 10 12  1  0
 12 13  1  6
 13 14  1  0
 14 15  1  6
 14 16  1  0
 16 17  1  0
 17 18  1  0
 18 19  1  0
 19 20  1  0
 20 21  1  0
 21 22  1  0
 22 23  1  0
 23 24  1  0
 24 25  2  0
 25 26  1  0
 26 27  2  0
 27 28  1  0
 28 29  2  0
 26 30  1  0
 30 31  2  0
 30 32  1  0
  6 33  2  0
 33 34  1  0
 34 35  2  0
 33 36  1  0
 36 37  1  0
 36 38  1  0
 36 39  1  0
 29 24  1  0
 32 12  1  0
 35  4  1  0
M  END
$$$$
