
     RDKit          3D

 39 41  0  0  0  0  0  0  0  0999 V2000
  -20.5704  -37.6212  -12.8165 C   0  0  0  0  0  0  0  0  0  0  0  0
  -19.1567  -37.6838  -12.2623 C   0  0  0  0  0  0  0  0  0  0  0  0
  -18.2729  -36.9083  -13.0361 O   0  0  0  0  0  0  0  0  0  0  0  0
  -16.9430  -36.8312  -12.6761 C   0  0  0  0  0  0  0  0  0  0  0  0
  -16.4472  -37.5092  -11.5676 C   0  0  0  0  0  0  0  0  0  0  0  0
  -15.0925  -37.4383  -11.1910 C   0  0  0  0  0  0  0  0  0  0  0  0
  -14.7505  -38.2653  -10.0168 C   0  0  0  0  0  0  0  0  0  0  0  0
  -15.3146  -37.9899   -8.7913 N   0  0  0  0  0  0  0  0  0  0  0  0
  -15.7925  -38.8525   -7.8368 C   0  0  0  0  0  0  0  0  0  0  0  0
  -17.1990  -38.6505   -7.3281 C   0  0  1  0  0  0  0  0  0  0  0  0
  -17.8491  -37.5400   -7.7400 O   0  0  0  0  0  0  0  0  0  0  0  0
  -18.0655  -39.9136   -7.5292 C   0  0  2  0  0  0  0  0  0  0  0  0
  -19.4572  -39.6784   -7.1444 C   0  0  0  0  0  0  0  0  0  0  0  0
  -19.9525  -39.9822   -5.7928 C   0  0  2  0  0  0  0  0  0  0  0  0
  -19.1680  -39.4435   -4.6395 C   0  0  0  0  0  0  0  0  0  0  0  0
  -20.3527  -41.4101   -5.5311 C   0  0  0  0  0  0  0  0  0  0  0  0
  -21.8092  -41.5971   -5.8855 C   0  0  0  0  0  0  0  0  0  0  0  0
  -22.0072  -42.2673   -7.0946 O   0  0  0  0  0  0  0  0  0  0  0  0
  -23.2300  -42.9409   -7.1093 C   0  0  0  0  0  0  0  0  0  0  0  0
  -23.1705  -44.1607   -8.0105 C   0  0  0  0  0  0  0  0  0  0  0  0
  -23.5931  -43.8424   -9.4256 C   0  0  0  0  0  0  0  0  0  0  0  0
  -22.5053  -43.2335  -10.2391 C   0  0  0  0  0  0  0  0  0  0  0  0
  -21.2931  -44.0062  -10.3359 N   0  0  0  0  0  0  0  0  0  0  0  0
  -20.0806  -43.9749   -9.5647 C   0  0  0  0  0  0  0  0  0  0  0  0
  -19.3359  -42.9210   -9.0775 C   0  0  0  0  0  0  0  0  0  0  0  0
  -18.2246  -43.2059   -8.3124 C   0  0  0  0  0  0  0  0  0  0  0  0
  -17.8906  -44.5674   -8.0631 C   0  0  0  0  0  0  0  0  0  0  0  0
  -18.6006  -45.6344   -8.5310 C   0  0  0  0  0  0  0  0  0  0  0  0
  -19.6992  -45.3126   -9.2848 C   0  0  0  0  0  0  0  0  0  0  0  0
  -17.2622  -42.3369   -7.6298 C   0  0  0  0  0  0  0  0  0  0  0  0
  -15.9995  -42.7435   -7.5294 O   0  0  0  0  0  0  0  0  0  0  0  0
  -17.3794  -41.0683   -7.0020 N   0  0  0  0  0  0  0  0  0  0  0  0
  -14.2696  -36.6775  -11.9493 C   0  0  0  0  0  0  0  0  0  0  0  0
  -14.7910  -36.0006  -13.0646 C   0  0  0  0  0  0  0  0  0  0  0  0
  -16.0965  -36.0640  -13.4368 C   0  0  0  0  0  0  0  0  0  0  0  0
  -12.8334  -36.5045  -11.6527 C   0  0  0  0  0  0  0  0  0  0  0  0
  -12.0504  -36.6650  -12.7966 F   0  0  0  0  0  0  0  0  0  0  0  0
  -12.5005  -35.4602  -10.8620 F   0  0  0  0  0  0  0  0  0  0  0  0
  -12.4270  -37.6439  -10.8848 F   0  0  0  0  0  0  0  0  0  0  0  0
  1  2  1  0
  2  3  1  0
  3  4  1  0
  4  5  2  0
  5  6  1  0
  6  7  1  0
  7  8  1  0
  8  9  1  0
  9 10  1  0
 10 11  1  6
 10 12  1  0
 12 13  1  1
 13 14  1  0
 14 15  1  1
 14 16  1  0
 16 17  1  0
 17 18  1  0
 18 19  1  0
 19 20  1  0
 20 21  1  0
 21 22  1  0
 22 23  1  0
 23 24  1  0
 24 25  2  0
 25 26  1  0
 26 27  2  0
 27 28  1  0
 28 29  2  0
 26 30  1  0
 30 31  2  0
 30 32  1  0
  6 33  2  0
 33 34  1  0
 34 35  2  0
 33 36  1  0
 36 37  1  0
 36 38  1  0
 36 39  1  0
 29 24  1  0
 32 12  1  0
 35  4  1  0
M  END
$$$$
