
     RDKit          3D

 39 41  0  0  0  0  0  0  0  0999 V2000
   -9.9493  -39.3743  -10.9408 C   0  0  0  0  0  0  0  0  0  0  0  0
  -11.2385  -38.5953  -10.7395 C   0  0  0  0  0  0  0  0  0  0  0  0
  -11.3998  -37.6137  -11.7355 O   0  0  0  0  0  0  0  0  0  0  0  0
  -12.6045  -36.9500  -11.8468 C   0  0  0  0  0  0  0  0  0  0  0  0
  -13.6585  -37.2009  -10.9747 C   0  0  0  0  0  0  0  0  0  0  0  0
  -14.8917  -36.5297  -11.0783 C   0  0  0  0  0  0  0  0  0  0  0  0
  -15.8667  -36.8979  -10.0327 C   0  0  0  0  0  0  0  0  0  0  0  0
  -16.5337  -38.1003  -10.1041 N   0  0  0  0  0  0  0  0  0  0  0  0
  -16.6294  -39.1021   -9.1710 C   0  0  0  0  0  0  0  0  0  0  0  0
  -17.6800  -38.9805   -8.0942 C   0  0  1  0  0  0  0  0  0  0  0  0
  -18.4486  -37.8694   -8.1067 O   0  0  0  0  0  0  0  0  0  0  0  0
  -18.5435  -40.2575   -7.9927 C   0  0  2  0  0  0  0  0  0  0  0  0
  -19.9588  -39.9368   -7.8080 C   0  0  0  0  0  0  0  0  0  0  0  0
  -20.5671  -39.8430   -6.4717 C   0  0  2  0  0  0  0  0  0  0  0  0
  -19.8728  -38.9855   -5.4626 C   0  0  0  0  0  0  0  0  0  0  0  0
  -21.0060  -41.1389   -5.8428 C   0  0  0  0  0  0  0  0  0  0  0  0
  -22.4309  -41.4365   -6.2466 C   0  0  0  0  0  0  0  0  0  0  0  0
  -22.5380  -42.4294   -7.2227 O   0  0  0  0  0  0  0  0  0  0  0  0
  -23.7642  -43.0922   -7.1429 C   0  0  0  0  0  0  0  0  0  0  0  0
  -23.6470  -44.5195   -7.6456 C   0  0  0  0  0  0  0  0  0  0  0  0
  -23.9481  -44.6281   -9.1221 C   0  0  0  0  0  0  0  0  0  0  0  0
  -22.7894  -44.2679   -9.9844 C   0  0  0  0  0  0  0  0  0  0  0  0
  -21.5836  -45.0220   -9.7541 N   0  0  0  0  0  0  0  0  0  0  0  0
  -20.4380  -44.7558   -8.9278 C   0  0  0  0  0  0  0  0  0  0  0  0
  -19.7220  -43.5979   -8.7060 C   0  0  0  0  0  0  0  0  0  0  0  0
  -18.6810  -43.6373   -7.8026 C   0  0  0  0  0  0  0  0  0  0  0  0
  -18.3863  -44.8650   -7.1444 C   0  0  0  0  0  0  0  0  0  0  0  0
  -19.0695  -46.0295   -7.3411 C   0  0  0  0  0  0  0  0  0  0  0  0
  -20.0984  -45.9514   -8.2433 C   0  0  0  0  0  0  0  0  0  0  0  0
  -17.7664  -42.5976   -7.3232 C   0  0  0  0  0  0  0  0  0  0  0  0
  -16.5216  -42.9437   -7.0063 O   0  0  0  0  0  0  0  0  0  0  0  0
  -17.9180  -41.2031   -7.1001 N   0  0  0  0  0  0  0  0  0  0  0  0
  -15.0282  -35.6175  -12.0684 C   0  0  0  0  0  0  0  0  0  0  0  0
  -13.9512  -35.3795  -12.9386 C   0  0  0  0  0  0  0  0  0  0  0  0
  -12.7567  -36.0212  -12.8458 C   0  0  0  0  0  0  0  0  0  0  0  0
  -16.2742  -34.8588  -12.2972 C   0  0  0  0  0  0  0  0  0  0  0  0
  -16.0191  -33.6170  -12.8802 F   0  0  0  0  0  0  0  0  0  0  0  0
  -17.3128  -35.5455  -12.8228 F   0  0  0  0  0  0  0  0  0  0  0  0
  -16.7598  -34.4586  -11.0099 F   0  0  0  0  0  0  0  0  0  0  0  0
  1  2  1  0
  2  3  1  0
  3  4  1  0
  4  5  2  0
  5  6  1  0
  6  7  1  0
  7  8  1  0
  8  9  1  0
  9 10  1  0
 10 11  1  6
 10 12  1  0
 12 13  1  1
 13 14  1  0
 14 15  1  1
 14 16  1  0
 16 17  1  0
 17 18  1  0
 18 19  1  0
 19 20  1  0
 20 21  1  0
 21 22  1  0
 22 23  1  0
 23 24  1  0
 24 25  2  0
 25 26  1  0
 26 27  2  0
 27 28  1  0
 28 29  2  0
 26 30  1  0
 30 31  2  0
 30 32  1  0
  6 33  2  0
 33 34  1  0
 34 35  2  0
 33 36  1  0
 36 37  1  0
 36 38  1  0
 36 39  1  0
 29 24  1  0
 32 12  1  0
 35  4  1  0
M  END
$$$$
