
     RDKit          3D

 39 41  0  0  0  0  0  0  0  0999 V2000
  -13.2747  -41.4458  -14.6477 C   0  0  0  0  0  0  0  0  0  0  0  0
  -12.7958  -40.3407  -13.7209 C   0  0  0  0  0  0  0  0  0  0  0  0
  -13.8715  -39.7638  -13.0198 O   0  0  0  0  0  0  0  0  0  0  0  0
  -13.8247  -38.4261  -12.6844 C   0  0  0  0  0  0  0  0  0  0  0  0
  -14.4304  -37.9424  -11.5296 C   0  0  0  0  0  0  0  0  0  0  0  0
  -14.3889  -36.5801  -11.1770 C   0  0  0  0  0  0  0  0  0  0  0  0
  -15.0472  -36.2708   -9.8922 C   0  0  0  0  0  0  0  0  0  0  0  0
  -15.1084  -37.2249   -8.9013 N   0  0  0  0  0  0  0  0  0  0  0  0
  -16.2010  -37.7292   -8.2416 C   0  0  0  0  0  0  0  0  0  0  0  0
  -16.1720  -39.1745   -7.8076 C   0  0  1  0  0  0  0  0  0  0  0  0
  -15.4798  -39.4663   -6.6846 O   0  0  0  0  0  0  0  0  0  0  0  0
  -17.5899  -39.7865   -7.7662 C   0  0  2  0  0  0  0  0  0  0  0  0
  -17.5895  -41.1026   -7.1276 C   0  0  0  0  0  0  0  0  0  0  0  0
  -17.4579  -42.3446   -7.9053 C   0  0  2  0  0  0  0  0  0  0  0  0
  -16.3297  -42.4228   -8.8835 C   0  0  0  0  0  0  0  0  0  0  0  0
  -18.7210  -42.8874   -8.5197 C   0  0  0  0  0  0  0  0  0  0  0  0
  -19.3990  -43.8147   -7.5387 C   0  0  0  0  0  0  0  0  0  0  0  0
  -20.5144  -43.2494   -6.9169 O   0  0  0  0  0  0  0  0  0  0  0  0
  -21.4300  -44.2280   -6.5255 C   0  0  0  0  0  0  0  0  0  0  0  0
  -22.8448  -43.6787   -6.5146 C   0  0  0  0  0  0  0  0  0  0  0  0
  -23.2245  -43.1143   -5.1656 C   0  0  0  0  0  0  0  0  0  0  0  0
  -22.7241  -41.7294   -4.9480 C   0  0  0  0  0  0  0  0  0  0  0  0
  -23.1334  -40.7580   -5.9302 N   0  0  0  0  0  0  0  0  0  0  0  0
  -22.4929  -40.2879   -7.1280 C   0  0  0  0  0  0  0  0  0  0  0  0
  -21.1796  -39.9590   -7.3918 C   0  0  0  0  0  0  0  0  0  0  0  0
  -20.8471  -39.5792   -8.6750 C   0  0  0  0  0  0  0  0  0  0  0  0
  -21.8675  -39.5373   -9.6672 C   0  0  0  0  0  0  0  0  0  0  0  0
  -23.1759  -39.8519   -9.4423 C   0  0  0  0  0  0  0  0  0  0  0  0
  -23.4682  -40.2269   -8.1568 C   0  0  0  0  0  0  0  0  0  0  0  0
  -19.5650  -39.2102   -9.2812 C   0  0  0  0  0  0  0  0  0  0  0  0
  -19.5605  -38.3046  -10.2557 O   0  0  0  0  0  0  0  0  0  0  0  0
  -18.2285  -39.6323   -9.0510 N   0  0  0  0  0  0  0  0  0  0  0  0
  -13.7330  -35.7368  -12.0074 C   0  0  0  0  0  0  0  0  0  0  0  0
  -13.1284  -36.2461  -13.1689 C   0  0  0  0  0  0  0  0  0  0  0  0
  -13.1619  -37.5594  -13.5170 C   0  0  0  0  0  0  0  0  0  0  0  0
  -13.6314  -34.2841  -11.7630 C   0  0  0  0  0  0  0  0  0  0  0  0
  -13.7279  -33.9845  -10.4035 F   0  0  0  0  0  0  0  0  0  0  0  0
  -12.6638  -33.6234  -12.4368 F   0  0  0  0  0  0  0  0  0  0  0  0
  -14.8402  -33.6938  -12.2564 F   0  0  0  0  0  0  0  0  0  0  0  0
  1  2  1  0
  2  3  1  0
  3  4  1  0
  4  5  2  0
  5  6  1  0
  6  7  1  0
  7  8  1  0
  8  9  1  0
  9 10  1  0
 10 11  1  1
 10 12  1  0
 12 13  1  6
 13 14  1  0
 14 15  1  6
 14 16  1  0
 16 17  1  0
 17 18  1  0
 18 19  1  0
 19 20  1  0
 20 21  1  0
 21 22  1  0
 22 23  1  0
 23 24  1  0
 24 25  2  0
 25 26  1  0
 26 27  2  0
 27 28  1  0
 28 29  2  0
 26 30  1  0
 30 31  2  0
 30 32  1  0
  6 33  2  0
 33 34  1  0
 34 35  2  0
 33 36  1  0
 36 37  1  0
 36 38  1  0
 36 39  1  0
 29 24  1  0
 32 12  1  0
 35  4  1  0
M  END
$$$$
