
     RDKit          3D

 39 41  0  0  0  0  0  0  0  0999 V2000
  -16.1571  -34.3927  -12.9625 C   0  0  0  0  0  0  0  0  0  0  0  0
  -16.7246  -35.0415  -11.7109 C   0  0  0  0  0  0  0  0  0  0  0  0
  -18.1156  -34.8447  -11.6227 O   0  0  0  0  0  0  0  0  0  0  0  0
  -18.8581  -35.6208  -10.7564 C   0  0  0  0  0  0  0  0  0  0  0  0
  -18.3091  -36.1385   -9.5881 C   0  0  0  0  0  0  0  0  0  0  0  0
  -19.0570  -36.9309   -8.6967 C   0  0  0  0  0  0  0  0  0  0  0  0
  -18.3130  -37.3451   -7.4906 C   0  0  0  0  0  0  0  0  0  0  0  0
  -17.3887  -38.3628   -7.5660 N   0  0  0  0  0  0  0  0  0  0  0  0
  -17.2450  -39.4720   -6.7706 C   0  0  0  0  0  0  0  0  0  0  0  0
  -16.1204  -40.4315   -7.0754 C   0  0  1  0  0  0  0  0  0  0  0  0
  -15.3704  -40.8517   -6.0332 O   0  0  0  0  0  0  0  0  0  0  0  0
  -16.6028  -41.6217   -7.9340 C   0  0  2  0  0  0  0  0  0  0  0  0
  -15.6713  -42.7476   -7.8649 C   0  0  0  0  0  0  0  0  0  0  0  0
  -14.5941  -42.9276   -8.8507 C   0  0  2  0  0  0  0  0  0  0  0  0
  -13.7119  -41.7514   -9.1225 C   0  0  0  0  0  0  0  0  0  0  0  0
  -14.9729  -43.6060  -10.1406 C   0  0  0  0  0  0  0  0  0  0  0  0
  -14.8073  -45.0999   -9.9905 C   0  0  0  0  0  0  0  0  0  0  0  0
  -16.0160  -45.7820   -9.8350 O   0  0  0  0  0  0  0  0  0  0  0  0
  -15.9212  -47.0975  -10.2930 C   0  0  0  0  0  0  0  0  0  0  0  0
  -17.2663  -47.6039  -10.7807 C   0  0  0  0  0  0  0  0  0  0  0  0
  -18.0474  -48.2881   -9.6833 C   0  0  0  0  0  0  0  0  0  0  0  0
  -18.7689  -47.3351   -8.7961 C   0  0  0  0  0  0  0  0  0  0  0  0
  -19.6851  -46.4410   -9.4569 N   0  0  0  0  0  0  0  0  0  0  0  0
  -19.5166  -45.1034   -9.9554 C   0  0  0  0  0  0  0  0  0  0  0  0
  -18.8740  -44.0052   -9.4228 C   0  0  0  0  0  0  0  0  0  0  0  0
  -18.8344  -42.8466  -10.1695 C   0  0  0  0  0  0  0  0  0  0  0  0
  -19.4592  -42.8301  -11.4489 C   0  0  0  0  0  0  0  0  0  0  0  0
  -20.1063  -43.8944  -12.0056 C   0  0  0  0  0  0  0  0  0  0  0  0
  -20.1229  -45.0285  -11.2361 C   0  0  0  0  0  0  0  0  0  0  0  0
  -18.2147  -41.5434   -9.9149 C   0  0  0  0  0  0  0  0  0  0  0  0
  -18.8094  -40.4533  -10.3922 O   0  0  0  0  0  0  0  0  0  0  0  0
  -17.0358  -41.1502   -9.2272 N   0  0  0  0  0  0  0  0  0  0  0  0
  -20.3485  -37.1820   -9.0127 C   0  0  0  0  0  0  0  0  0  0  0  0
  -20.8833  -36.6497  -10.1979 C   0  0  0  0  0  0  0  0  0  0  0  0
  -20.1699  -35.8827  -11.0638 C   0  0  0  0  0  0  0  0  0  0  0  0
  -21.2353  -38.0127   -8.1737 C   0  0  0  0  0  0  0  0  0  0  0  0
  -22.1806  -37.2369   -7.5016 F   0  0  0  0  0  0  0  0  0  0  0  0
  -21.7071  -39.1491   -8.7328 F   0  0  0  0  0  0  0  0  0  0  0  0
  -20.4452  -38.4871   -7.0764 F   0  0  0  0  0  0  0  0  0  0  0  0
  1  2  1  0
  2  3  1  0
  3  4  1  0
  4  5  2  0
  5  6  1  0
  6  7  1  0
  7  8  1  0
  8  9  1  0
  9 10  1  0
 10 11  1  1
 10 12  1  0
 12 13  1  6
 13 14  1  0
 14 15  1  6
 14 16  1  0
 16 17  1  0
 17 18  1  0
 18 19  1  0
 19 20  1  0
 20 21  1  0
 21 22  1  0
 22 23  1  0
 23 24  1  0
 24 25  2  0
 25 26  1  0
 26 27  2  0
 27 28  1  0
 28 29  2  0
 26 30  1  0
 30 31  2  0
 30 32  1  0
  6 33  2  0
 33 34  1  0
 34 35  2  0
 33 36  1  0
 36 37  1  0
 36 38  1  0
 36 39  1  0
 29 24  1  0
 32 12  1  0
 35  4  1  0
M  END
$$$$
