
     RDKit          3D

 39 41  0  0  0  0  0  0  0  0999 V2000
  -13.1721  -38.1198  -12.2494 C   0  0  0  0  0  0  0  0  0  0  0  0
  -14.5980  -38.6262  -12.3911 C   0  0  0  0  0  0  0  0  0  0  0  0
  -15.4238  -37.6574  -12.9919 O   0  0  0  0  0  0  0  0  0  0  0  0
  -16.0254  -36.6956  -12.2063 C   0  0  0  0  0  0  0  0  0  0  0  0
  -15.9995  -36.7676  -10.8176 C   0  0  0  0  0  0  0  0  0  0  0  0
  -16.6094  -35.7923  -10.0060 C   0  0  0  0  0  0  0  0  0  0  0  0
  -16.4321  -36.0180   -8.5578 C   0  0  0  0  0  0  0  0  0  0  0  0
  -17.3934  -36.6964   -7.8427 N   0  0  0  0  0  0  0  0  0  0  0  0
  -17.2738  -37.8270   -7.0740 C   0  0  0  0  0  0  0  0  0  0  0  0
  -17.0724  -39.1501   -7.7718 C   0  0  1  0  0  0  0  0  0  0  0  0
  -15.8694  -39.7470   -7.6243 O   0  0  0  0  0  0  0  0  0  0  0  0
  -18.2258  -40.1338   -7.4738 C   0  0  2  0  0  0  0  0  0  0  0  0
  -18.0954  -41.3669   -8.2500 C   0  0  0  0  0  0  0  0  0  0  0  0
  -18.7550  -41.5387   -9.5539 C   0  0  2  0  0  0  0  0  0  0  0  0
  -18.5589  -40.4572  -10.5675 C   0  0  0  0  0  0  0  0  0  0  0  0
  -20.1971  -41.9712   -9.5234 C   0  0  0  0  0  0  0  0  0  0  0  0
  -20.2695  -43.4800   -9.5176 C   0  0  0  0  0  0  0  0  0  0  0  0
  -20.5808  -44.0184   -8.2672 O   0  0  0  0  0  0  0  0  0  0  0  0
  -21.2160  -45.2557   -8.3891 C   0  0  0  0  0  0  0  0  0  0  0  0
  -22.1420  -45.5121   -7.2143 C   0  0  0  0  0  0  0  0  0  0  0  0
  -21.4448  -46.2420   -6.0903 C   0  0  0  0  0  0  0  0  0  0  0  0
  -20.6438  -45.3426   -5.2156 C   0  0  0  0  0  0  0  0  0  0  0  0
  -21.3687  -44.2538   -4.6116 N   0  0  0  0  0  0  0  0  0  0  0  0
  -21.5586  -42.8909   -5.0265 C   0  0  0  0  0  0  0  0  0  0  0  0
  -20.6841  -41.9711   -5.5667 C   0  0  0  0  0  0  0  0  0  0  0  0
  -21.1757  -40.7317   -5.9186 C   0  0  0  0  0  0  0  0  0  0  0  0
  -22.5556  -40.4525   -5.7062 C   0  0  0  0  0  0  0  0  0  0  0  0
  -23.4483  -41.3350   -5.1717 C   0  0  0  0  0  0  0  0  0  0  0  0
  -22.9244  -42.5565   -4.8367 C   0  0  0  0  0  0  0  0  0  0  0  0
  -20.5341  -39.5678   -6.5360 C   0  0  0  0  0  0  0  0  0  0  0  0
  -20.9614  -38.3540   -6.1989 O   0  0  0  0  0  0  0  0  0  0  0  0
  -19.4856  -39.4303   -7.4842 N   0  0  0  0  0  0  0  0  0  0  0  0
  -17.2348  -34.7636  -10.6239 C   0  0  0  0  0  0  0  0  0  0  0  0
  -17.2494  -34.7102  -12.0278 C   0  0  0  0  0  0  0  0  0  0  0  0
  -16.6625  -35.6460  -12.8196 C   0  0  0  0  0  0  0  0  0  0  0  0
  -17.9282  -33.6860   -9.8902 C   0  0  0  0  0  0  0  0  0  0  0  0
  -18.7463  -34.1963   -8.8814 F   0  0  0  0  0  0  0  0  0  0  0  0
  -17.1837  -32.6115   -9.5472 F   0  0  0  0  0  0  0  0  0  0  0  0
  -18.9076  -33.1392  -10.7818 F   0  0  0  0  0  0  0  0  0  0  0  0
  1  2  1  0
  2  3  1  0
  3  4  1  0
  4  5  2  0
  5  6  1  0
  6  7  1  0
  7  8  1  0
  8  9  1  0
  9 10  1  0
 10 11  1  1
 10 12  1  0
 12 13  1  6
 13 14  1  0
 14 15  1  1
 14 16  1  0
 16 17  1  0
 17 18  1  0
 18 19  1  0
 19 20  1  0
 20 21  1  0
 21 22  1  0
 22 23  1  0
 23 24  1  0
 24 25  2  0
 25 26  1  0
 26 27  2  0
 27 28  1  0
 28 29  2  0
 26 30  1  0
 30 31  2  0
 30 32  1  0
  6 33  2  0
 33 34  1  0
 34 35  2  0
 33 36  1  0
 36 37  1  0
 36 38  1  0
 36 39  1  0
 29 24  1  0
 32 12  1  0
 35  4  1  0
M  END
$$$$
