
     RDKit          3D

 39 41  0  0  0  0  0  0  0  0999 V2000
  -13.5419  -41.3064  -11.2352 C   0  0  0  0  0  0  0  0  0  0  0  0
  -12.7841  -40.1678  -11.8978 C   0  0  0  0  0  0  0  0  0  0  0  0
  -13.5419  -39.5874  -12.9323 O   0  0  0  0  0  0  0  0  0  0  0  0
  -14.0785  -38.3282  -12.7575 C   0  0  0  0  0  0  0  0  0  0  0  0
  -14.6984  -37.9584  -11.5687 C   0  0  0  0  0  0  0  0  0  0  0  0
  -15.2490  -36.6767  -11.3788 C   0  0  0  0  0  0  0  0  0  0  0  0
  -15.8194  -36.4600  -10.0344 C   0  0  0  0  0  0  0  0  0  0  0  0
  -15.8810  -37.5011   -9.1354 N   0  0  0  0  0  0  0  0  0  0  0  0
  -16.7872  -38.5283   -9.0502 C   0  0  0  0  0  0  0  0  0  0  0  0
  -18.2126  -38.1976   -8.6805 C   0  0  1  0  0  0  0  0  0  0  0  0
  -18.9682  -37.5915   -9.6224 O   0  0  0  0  0  0  0  0  0  0  0  0
  -18.9431  -39.4175   -8.0764 C   0  0  2  0  0  0  0  0  0  0  0  0
  -20.2750  -39.0598   -7.5885 C   0  0  0  0  0  0  0  0  0  0  0  0
  -20.5122  -38.6689   -6.1901 C   0  0  2  0  0  0  0  0  0  0  0  0
  -19.6262  -37.6100   -5.6161 C   0  0  0  0  0  0  0  0  0  0  0  0
  -20.6931  -39.7909   -5.2022 C   0  0  0  0  0  0  0  0  0  0  0  0
  -22.1544  -40.1671   -5.1307 C   0  0  0  0  0  0  0  0  0  0  0  0
  -22.4585  -41.3522   -5.8039 O   0  0  0  0  0  0  0  0  0  0  0  0
  -23.5793  -41.9773   -5.2540 C   0  0  0  0  0  0  0  0  0  0  0  0
  -23.5171  -43.4810   -5.4502 C   0  0  0  0  0  0  0  0  0  0  0  0
  -24.1916  -43.9151   -6.7304 C   0  0  0  0  0  0  0  0  0  0  0  0
  -23.3255  -43.7593   -7.9310 C   0  0  0  0  0  0  0  0  0  0  0  0
  -22.0602  -44.4464   -7.8794 N   0  0  0  0  0  0  0  0  0  0  0  0
  -20.7541  -44.0059   -7.4720 C   0  0  0  0  0  0  0  0  0  0  0  0
  -20.0732  -42.8296   -7.7072 C   0  0  0  0  0  0  0  0  0  0  0  0
  -18.8296  -42.6695   -7.1333 C   0  0  0  0  0  0  0  0  0  0  0  0
  -18.3007  -43.7205   -6.3314 C   0  0  0  0  0  0  0  0  0  0  0  0
  -18.9430  -44.8977   -6.0801 C   0  0  0  0  0  0  0  0  0  0  0  0
  -20.1768  -45.0198   -6.6645 C   0  0  0  0  0  0  0  0  0  0  0  0
  -17.8824  -41.5516   -7.1552 C   0  0  0  0  0  0  0  0  0  0  0  0
  -16.5802  -41.8218   -7.1208 O   0  0  0  0  0  0  0  0  0  0  0  0
  -18.0500  -40.1421   -7.2049 N   0  0  0  0  0  0  0  0  0  0  0  0
  -15.1590  -35.7971  -12.4032 C   0  0  0  0  0  0  0  0  0  0  0  0
  -14.5290  -36.1912  -13.5956 C   0  0  0  0  0  0  0  0  0  0  0  0
  -13.9935  -37.4254  -13.7878 C   0  0  0  0  0  0  0  0  0  0  0  0
  -15.7111  -34.4291  -12.3399 C   0  0  0  0  0  0  0  0  0  0  0  0
  -16.9085  -34.3916  -11.6241 F   0  0  0  0  0  0  0  0  0  0  0  0
  -14.8371  -33.4361  -12.0633 F   0  0  0  0  0  0  0  0  0  0  0  0
  -16.1733  -34.1058  -13.6571 F   0  0  0  0  0  0  0  0  0  0  0  0
  1  2  1  0
  2  3  1  0
  3  4  1  0
  4  5  2  0
  5  6  1  0
  6  7  1  0
  7  8  1  0
  8  9  1  0
  9 10  1  0
 10 11  1  6
 10 12  1  0
 12 13  1  1
 13 14  1  0
 14 15  1  1
 14 16  1  0
 16 17  1  0
 17 18  1  0
 18 19  1  0
 19 20  1  0
 20 21  1  0
 21 22  1  0
 22 23  1  0
 23 24  1  0
 24 25  2  0
 25 26  1  0
 26 27  2  0
 27 28  1  0
 28 29  2  0
 26 30  1  0
 30 31  2  0
 30 32  1  0
  6 33  2  0
 33 34  1  0
 34 35  2  0
 33 36  1  0
 36 37  1  0
 36 38  1  0
 36 39  1  0
 29 24  1  0
 32 12  1  0
 35  4  1  0
M  END
$$$$
