
     RDKit          3D

 39 41  0  0  0  0  0  0  0  0999 V2000
  -21.1235  -38.8829   -7.6381 C   0  0  0  0  0  0  0  0  0  0  0  0
  -21.1422  -37.3649   -7.7076 C   0  0  0  0  0  0  0  0  0  0  0  0
  -21.2664  -36.9187   -9.0368 O   0  0  0  0  0  0  0  0  0  0  0  0
  -20.1543  -36.4427   -9.7006 C   0  0  0  0  0  0  0  0  0  0  0  0
  -18.8661  -36.7067   -9.2475 C   0  0  0  0  0  0  0  0  0  0  0  0
  -17.7242  -36.2268   -9.9166 C   0  0  0  0  0  0  0  0  0  0  0  0
  -16.4477  -36.6528   -9.3095 C   0  0  0  0  0  0  0  0  0  0  0  0
  -16.4100  -37.7547   -8.4847 N   0  0  0  0  0  0  0  0  0  0  0  0
  -16.5927  -39.0802   -8.7901 C   0  0  0  0  0  0  0  0  0  0  0  0
  -15.9174  -40.1150   -7.9233 C   0  0  1  0  0  0  0  0  0  0  0  0
  -15.8252  -39.8463   -6.6024 O   0  0  0  0  0  0  0  0  0  0  0  0
  -16.4923  -41.5277   -8.1685 C   0  0  2  0  0  0  0  0  0  0  0  0
  -15.6425  -42.5638   -7.5816 C   0  0  0  0  0  0  0  0  0  0  0  0
  -14.5914  -43.2398   -8.3580 C   0  0  2  0  0  0  0  0  0  0  0  0
  -13.6307  -42.3736   -9.1080 C   0  0  0  0  0  0  0  0  0  0  0  0
  -15.0311  -44.3968   -9.2156 C   0  0  0  0  0  0  0  0  0  0  0  0
  -14.9706  -45.6724   -8.4087 C   0  0  0  0  0  0  0  0  0  0  0  0
  -16.2230  -46.1279   -7.9913 O   0  0  0  0  0  0  0  0  0  0  0  0
  -16.2269  -47.5122   -7.8094 C   0  0  0  0  0  0  0  0  0  0  0  0
  -17.6097  -48.0903   -8.0486 C   0  0  0  0  0  0  0  0  0  0  0  0
  -18.4257  -48.1548   -6.7788 C   0  0  0  0  0  0  0  0  0  0  0  0
  -19.0681  -46.8584   -6.4288 C   0  0  0  0  0  0  0  0  0  0  0  0
  -19.9255  -46.2952   -7.4404 N   0  0  0  0  0  0  0  0  0  0  0  0
  -19.6676  -45.3380   -8.4813 C   0  0  0  0  0  0  0  0  0  0  0  0
  -18.9429  -44.1644   -8.4827 C   0  0  0  0  0  0  0  0  0  0  0  0
  -18.8290  -43.4692   -9.6681 C   0  0  0  0  0  0  0  0  0  0  0  0
  -19.4645  -43.9853  -10.8330 C   0  0  0  0  0  0  0  0  0  0  0  0
  -20.1915  -45.1393  -10.8685 C   0  0  0  0  0  0  0  0  0  0  0  0
  -20.2806  -45.8040   -9.6731 C   0  0  0  0  0  0  0  0  0  0  0  0
  -18.1155  -42.2358  -10.0103 C   0  0  0  0  0  0  0  0  0  0  0  0
  -18.6362  -41.4376  -10.9384 O   0  0  0  0  0  0  0  0  0  0  0  0
  -16.9044  -41.6577   -9.5453 N   0  0  0  0  0  0  0  0  0  0  0  0
  -17.9160  -35.4865  -11.0329 C   0  0  0  0  0  0  0  0  0  0  0  0
  -19.2256  -35.2314  -11.4733 C   0  0  0  0  0  0  0  0  0  0  0  0
  -20.3338  -35.6913  -10.8351 C   0  0  0  0  0  0  0  0  0  0  0  0
  -16.8053  -34.9091  -11.8161 C   0  0  0  0  0  0  0  0  0  0  0  0
  -16.1827  -33.8651  -11.1308 F   0  0  0  0  0  0  0  0  0  0  0  0
  -15.9731  -35.7848  -12.4222 F   0  0  0  0  0  0  0  0  0  0  0  0
  -17.3945  -34.1994  -12.9126 F   0  0  0  0  0  0  0  0  0  0  0  0
  1  2  1  0
  2  3  1  0
  3  4  1  0
  4  5  2  0
  5  6  1  0
  6  7  1  0
  7  8  1  0
  8  9  1  0
  9 10  1  0
 10 11  1  1
 10 12  1  0
 12 13  1  6
 13 14  1  0
 14 15  1  6
 14 16  1  0
 16 17  1  0
 17 18  1  0
 18 19  1  0
 19 20  1  0
 20 21  1  0
 21 22  1  0
 22 23  1  0
 23 24  1  0
 24 25  2  0
 25 26  1  0
 26 27  2  0
 27 28  1  0
 28 29  2  0
 26 30  1  0
 30 31  2  0
 30 32  1  0
  6 33  2  0
 33 34  1  0
 34 35  2  0
 33 36  1  0
 36 37  1  0
 36 38  1  0
 36 39  1  0
 29 24  1  0
 32 12  1  0
 35  4  1  0
M  END
$$$$
