
     RDKit          3D

 39 41  0  0  0  0  0  0  0  0999 V2000
  -23.2113  -41.9134   -3.3420 C   0  0  0  0  0  0  0  0  0  0  0  0
  -23.1660  -40.9949   -4.5519 C   0  0  0  0  0  0  0  0  0  0  0  0
  -21.8704  -40.9393   -5.0994 O   0  0  0  0  0  0  0  0  0  0  0  0
  -21.6492  -40.2089   -6.2490 C   0  0  0  0  0  0  0  0  0  0  0  0
  -20.5259  -39.4019   -6.3954 C   0  0  0  0  0  0  0  0  0  0  0  0
  -20.2896  -38.6527   -7.5636 C   0  0  0  0  0  0  0  0  0  0  0  0
  -19.0210  -37.8976   -7.5478 C   0  0  0  0  0  0  0  0  0  0  0  0
  -17.9158  -38.4193   -6.9137 N   0  0  0  0  0  0  0  0  0  0  0  0
  -17.3650  -39.6727   -7.0098 C   0  0  0  0  0  0  0  0  0  0  0  0
  -15.8650  -39.8060   -6.9088 C   0  0  1  0  0  0  0  0  0  0  0  0
  -15.3812  -40.5765   -5.9100 O   0  0  0  0  0  0  0  0  0  0  0  0
  -15.2334  -40.1871   -8.2662 C   0  0  2  0  0  0  0  0  0  0  0  0
  -14.1467  -41.1527   -8.1019 C   0  0  0  0  0  0  0  0  0  0  0  0
  -12.7441  -40.7297   -7.9666 C   0  0  2  0  0  0  0  0  0  0  0  0
  -12.4421  -39.6768   -6.9489 C   0  0  0  0  0  0  0  0  0  0  0  0
  -12.0032  -40.4469   -9.2468 C   0  0  0  0  0  0  0  0  0  0  0  0
  -11.3582  -41.7185   -9.7458 C   0  0  0  0  0  0  0  0  0  0  0  0
  -12.0295  -42.2979  -10.8247 O   0  0  0  0  0  0  0  0  0  0  0  0
  -11.1625  -43.0500  -11.6197 C   0  0  0  0  0  0  0  0  0  0  0  0
  -11.6375  -43.0876  -13.0607 C   0  0  0  0  0  0  0  0  0  0  0  0
  -12.5382  -44.2700  -13.3311 C   0  0  0  0  0  0  0  0  0  0  0  0
  -13.9477  -44.0411  -12.9108 C   0  0  0  0  0  0  0  0  0  0  0  0
  -14.5921  -42.8916  -13.4930 N   0  0  0  0  0  0  0  0  0  0  0  0
  -14.7366  -41.5413  -13.0220 C   0  0  0  0  0  0  0  0  0  0  0  0
  -15.0309  -41.0373  -11.7722 C   0  0  0  0  0  0  0  0  0  0  0  0
  -15.0529  -39.6682  -11.6093 C   0  0  0  0  0  0  0  0  0  0  0  0
  -14.7783  -38.8365  -12.7318 C   0  0  0  0  0  0  0  0  0  0  0  0
  -14.4873  -39.2988  -13.9821 C   0  0  0  0  0  0  0  0  0  0  0  0
  -14.4720  -40.6638  -14.1052 C   0  0  0  0  0  0  0  0  0  0  0  0
  -15.2895  -38.8304  -10.4305 C   0  0  0  0  0  0  0  0  0  0  0  0
  -15.8892  -37.6547  -10.5971 O   0  0  0  0  0  0  0  0  0  0  0  0
  -15.0004  -38.9983   -9.0501 N   0  0  0  0  0  0  0  0  0  0  0  0
  -21.2020  -38.7384   -8.5592 C   0  0  0  0  0  0  0  0  0  0  0  0
  -22.3298  -39.5592   -8.3907 C   0  0  0  0  0  0  0  0  0  0  0  0
  -22.5659  -40.2871   -7.2676 C   0  0  0  0  0  0  0  0  0  0  0  0
  -21.0824  -37.9905   -9.8268 C   0  0  0  0  0  0  0  0  0  0  0  0
  -21.3477  -36.6322   -9.6481 F   0  0  0  0  0  0  0  0  0  0  0  0
  -20.0112  -38.2770  -10.5995 F   0  0  0  0  0  0  0  0  0  0  0  0
  -22.1934  -38.3778  -10.6446 F   0  0  0  0  0  0  0  0  0  0  0  0
  1  2  1  0
  2  3  1  0
  3  4  1  0
  4  5  2  0
  5  6  1  0
  6  7  1  0
  7  8  1  0
  8  9  1  0
  9 10  1  0
 10 11  1  1
 10 12  1  0
 12 13  1  1
 13 14  1  0
 14 15  1  1
 14 16  1  0
 16 17  1  0
 17 18  1  0
 18 19  1  0
 19 20  1  0
 20 21  1  0
 21 22  1  0
 22 23  1  0
 23 24  1  0
 24 25  2  0
 25 26  1  0
 26 27  2  0
 27 28  1  0
 28 29  2  0
 26 30  1  0
 30 31  2  0
 30 32  1  0
  6 33  2  0
 33 34  1  0
 34 35  2  0
 33 36  1  0
 36 37  1  0
 36 38  1  0
 36 39  1  0
 29 24  1  0
 32 12  1  0
 35  4  1  0
M  END
$$$$
