
     RDKit          3D

 39 41  0  0  0  0  0  0  0  0999 V2000
  -21.8378  -37.9589  -11.4231 C   0  0  0  0  0  0  0  0  0  0  0  0
  -20.3906  -37.6102  -11.1168 C   0  0  0  0  0  0  0  0  0  0  0  0
  -19.7723  -36.9931  -12.2205 O   0  0  0  0  0  0  0  0  0  0  0  0
  -18.4639  -36.5670  -12.1160 C   0  0  0  0  0  0  0  0  0  0  0  0
  -17.6964  -36.8388  -10.9884 C   0  0  0  0  0  0  0  0  0  0  0  0
  -16.3608  -36.4097  -10.8709 C   0  0  0  0  0  0  0  0  0  0  0  0
  -15.6993  -36.8371   -9.6221 C   0  0  0  0  0  0  0  0  0  0  0  0
  -16.3808  -37.6125   -8.7111 N   0  0  0  0  0  0  0  0  0  0  0  0
  -15.9061  -38.3004   -7.6224 C   0  0  0  0  0  0  0  0  0  0  0  0
  -15.8753  -39.8081   -7.6850 C   0  0  1  0  0  0  0  0  0  0  0  0
  -14.9340  -40.4358   -6.9466 O   0  0  0  0  0  0  0  0  0  0  0  0
  -17.2742  -40.4179   -7.4446 C   0  0  2  0  0  0  0  0  0  0  0  0
  -17.1893  -41.8319   -7.0792 C   0  0  0  0  0  0  0  0  0  0  0  0
  -17.2823  -42.9021   -8.0845 C   0  0  2  0  0  0  0  0  0  0  0  0
  -16.3992  -42.7909   -9.2859 C   0  0  0  0  0  0  0  0  0  0  0  0
  -18.6706  -43.3186   -8.4931 C   0  0  0  0  0  0  0  0  0  0  0  0
  -19.1562  -44.4169   -7.5767 C   0  0  0  0  0  0  0  0  0  0  0  0
  -20.0844  -43.9819   -6.6283 O   0  0  0  0  0  0  0  0  0  0  0  0
  -20.9325  -45.0182   -6.2329 C   0  0  0  0  0  0  0  0  0  0  0  0
  -22.2867  -44.4823   -5.8056 C   0  0  0  0  0  0  0  0  0  0  0  0
  -22.3390  -44.1866   -4.3250 C   0  0  0  0  0  0  0  0  0  0  0  0
  -21.7459  -42.8684   -3.9695 C   0  0  0  0  0  0  0  0  0  0  0  0
  -22.3188  -41.7275   -4.6371 N   0  0  0  0  0  0  0  0  0  0  0  0
  -21.9362  -41.0365   -5.8380 C   0  0  0  0  0  0  0  0  0  0  0  0
  -20.6996  -40.6620   -6.3208 C   0  0  0  0  0  0  0  0  0  0  0  0
  -20.6397  -40.0436   -7.5519 C   0  0  0  0  0  0  0  0  0  0  0  0
  -21.8494  -39.8137   -8.2668 C   0  0  0  0  0  0  0  0  0  0  0  0
  -23.0891  -40.1665   -7.8196 C   0  0  0  0  0  0  0  0  0  0  0  0
  -23.1092  -40.7808   -6.5944 C   0  0  0  0  0  0  0  0  0  0  0  0
  -19.5066  -39.5643   -8.3480 C   0  0  0  0  0  0  0  0  0  0  0  0
  -19.6772  -38.4891   -9.1125 O   0  0  0  0  0  0  0  0  0  0  0  0
  -18.1709  -40.0215   -8.5034 N   0  0  0  0  0  0  0  0  0  0  0  0
  -15.8331  -35.7112  -11.9027 C   0  0  0  0  0  0  0  0  0  0  0  0
  -16.6258  -35.4473  -13.0323 C   0  0  0  0  0  0  0  0  0  0  0  0
  -17.9153  -35.8584  -13.1556 C   0  0  0  0  0  0  0  0  0  0  0  0
  -14.4520  -35.1887  -11.8978 C   0  0  0  0  0  0  0  0  0  0  0  0
  -14.3866  -33.9064  -12.4444 F   0  0  0  0  0  0  0  0  0  0  0  0
  -13.7387  -35.3750  -10.7652 F   0  0  0  0  0  0  0  0  0  0  0  0
  -13.7206  -35.9374  -12.8765 F   0  0  0  0  0  0  0  0  0  0  0  0
  1  2  1  0
  2  3  1  0
  3  4  1  0
  4  5  2  0
  5  6  1  0
  6  7  1  0
  7  8  1  0
  8  9  1  0
  9 10  1  0
 10 11  1  1
 10 12  1  0
 12 13  1  6
 13 14  1  0
 14 15  1  6
 14 16  1  0
 16 17  1  0
 17 18  1  0
 18 19  1  0
 19 20  1  0
 20 21  1  0
 21 22  1  0
 22 23  1  0
 23 24  1  0
 24 25  2  0
 25 26  1  0
 26 27  2  0
 27 28  1  0
 28 29  2  0
 26 30  1  0
 30 31  2  0
 30 32  1  0
  6 33  2  0
 33 34  1  0
 34 35  2  0
 33 36  1  0
 36 37  1  0
 36 38  1  0
 36 39  1  0
 29 24  1  0
 32 12  1  0
 35  4  1  0
M  END
$$$$
