
     RDKit          3D

 39 41  0  0  0  0  0  0  0  0999 V2000
  -19.7884  -36.5940  -15.0783 C   0  0  0  0  0  0  0  0  0  0  0  0
  -18.6994  -36.6371  -14.0192 C   0  0  0  0  0  0  0  0  0  0  0  0
  -17.9287  -35.4593  -14.0349 O   0  0  0  0  0  0  0  0  0  0  0  0
  -16.6410  -35.4831  -13.5394 C   0  0  0  0  0  0  0  0  0  0  0  0
  -16.2215  -36.4629  -12.6459 C   0  0  0  0  0  0  0  0  0  0  0  0
  -14.9105  -36.4974  -12.1342 C   0  0  0  0  0  0  0  0  0  0  0  0
  -14.6441  -37.6406  -11.2387 C   0  0  0  0  0  0  0  0  0  0  0  0
  -15.5722  -38.6500  -11.1142 N   0  0  0  0  0  0  0  0  0  0  0  0
  -16.7550  -38.6672  -10.4184 C   0  0  0  0  0  0  0  0  0  0  0  0
  -16.7094  -38.9369   -8.9340 C   0  0  1  0  0  0  0  0  0  0  0  0
  -16.5061  -37.8767   -8.1217 O   0  0  0  0  0  0  0  0  0  0  0  0
  -17.9214  -39.7744   -8.4688 C   0  0  2  0  0  0  0  0  0  0  0  0
  -18.4883  -39.2553   -7.2241 C   0  0  0  0  0  0  0  0  0  0  0  0
  -18.0755  -39.7677   -5.9082 C   0  0  2  0  0  0  0  0  0  0  0  0
  -16.6079  -39.8359   -5.6302 C   0  0  0  0  0  0  0  0  0  0  0  0
  -18.7560  -41.0250   -5.4352 C   0  0  0  0  0  0  0  0  0  0  0  0
  -20.0091  -40.6624   -4.6735 C   0  0  0  0  0  0  0  0  0  0  0  0
  -21.1833  -40.8726   -5.3997 O   0  0  0  0  0  0  0  0  0  0  0  0
  -22.2673  -41.1194   -4.5551 C   0  0  0  0  0  0  0  0  0  0  0  0
  -23.3028  -41.9944   -5.2374 C   0  0  0  0  0  0  0  0  0  0  0  0
  -24.3493  -41.1781   -5.9592 C   0  0  0  0  0  0  0  0  0  0  0  0
  -23.9075  -40.7159   -7.3034 C   0  0  0  0  0  0  0  0  0  0  0  0
  -23.4949  -41.7533   -8.2141 N   0  0  0  0  0  0  0  0  0  0  0  0
  -22.1994  -42.3033   -8.5061 C   0  0  0  0  0  0  0  0  0  0  0  0
  -20.9706  -41.7014   -8.6804 C   0  0  0  0  0  0  0  0  0  0  0  0
  -19.8749  -42.5079   -8.9048 C   0  0  0  0  0  0  0  0  0  0  0  0
  -20.0567  -43.9192   -8.9526 C   0  0  0  0  0  0  0  0  0  0  0  0
  -21.2559  -44.5489   -8.7885 C   0  0  0  0  0  0  0  0  0  0  0  0
  -22.3211  -43.7158   -8.5651 C   0  0  0  0  0  0  0  0  0  0  0  0
  -18.4554  -42.1946   -9.0898 C   0  0  0  0  0  0  0  0  0  0  0  0
  -17.7340  -42.9689   -9.8959 O   0  0  0  0  0  0  0  0  0  0  0  0
  -17.6116  -41.1805   -8.5636 N   0  0  0  0  0  0  0  0  0  0  0  0
  -14.0527  -35.5332  -12.5409 C   0  0  0  0  0  0  0  0  0  0  0  0
  -14.4969  -34.5526  -13.4438 C   0  0  0  0  0  0  0  0  0  0  0  0
  -15.7598  -34.5117  -13.9442 C   0  0  0  0  0  0  0  0  0  0  0  0
  -12.6573  -35.4452  -12.0660 C   0  0  0  0  0  0  0  0  0  0  0  0
  -11.8199  -36.3109  -12.7708 F   0  0  0  0  0  0  0  0  0  0  0  0
  -12.1665  -34.2034  -11.8570 F   0  0  0  0  0  0  0  0  0  0  0  0
  -12.6235  -36.0382  -10.7620 F   0  0  0  0  0  0  0  0  0  0  0  0
  1  2  1  0
  2  3  1  0
  3  4  1  0
  4  5  2  0
  5  6  1  0
  6  7  1  0
  7  8  1  0
  8  9  1  0
  9 10  1  0
 10 11  1  1
 10 12  1  0
 12 13  1  1
 13 14  1  0
 14 15  1  6
 14 16  1  0
 16 17  1  0
 17 18  1  0
 18 19  1  0
 19 20  1  0
 20 21  1  0
 21 22  1  0
 22 23  1  0
 23 24  1  0
 24 25  2  0
 25 26  1  0
 26 27  2  0
 27 28  1  0
 28 29  2  0
 26 30  1  0
 30 31  2  0
 30 32  1  0
  6 33  2  0
 33 34  1  0
 34 35  2  0
 33 36  1  0
 36 37  1  0
 36 38  1  0
 36 39  1  0
 29 24  1  0
 32 12  1  0
 35  4  1  0
M  END
$$$$
