
     RDKit          3D

 39 41  0  0  0  0  0  0  0  0999 V2000
  -19.8466  -42.8052  -12.3939 C   0  0  0  0  0  0  0  0  0  0  0  0
  -20.0795  -41.4378  -13.0148 C   0  0  0  0  0  0  0  0  0  0  0  0
  -18.8716  -40.7269  -13.1456 O   0  0  0  0  0  0  0  0  0  0  0  0
  -18.8697  -39.3559  -12.9898 C   0  0  0  0  0  0  0  0  0  0  0  0
  -18.0433  -38.7284  -12.0637 C   0  0  0  0  0  0  0  0  0  0  0  0
  -18.0325  -37.3306  -11.8963 C   0  0  0  0  0  0  0  0  0  0  0  0
  -17.0539  -36.8515  -10.9001 C   0  0  0  0  0  0  0  0  0  0  0  0
  -16.7431  -37.6309   -9.8085 N   0  0  0  0  0  0  0  0  0  0  0  0
  -17.4756  -37.8760   -8.6740 C   0  0  0  0  0  0  0  0  0  0  0  0
  -17.0593  -39.0234   -7.7861 C   0  0  1  0  0  0  0  0  0  0  0  0
  -16.4723  -38.7102   -6.6102 O   0  0  0  0  0  0  0  0  0  0  0  0
  -18.2087  -40.0361   -7.5860 C   0  0  2  0  0  0  0  0  0  0  0  0
  -17.9269  -40.9596   -6.4869 C   0  0  0  0  0  0  0  0  0  0  0  0
  -17.2868  -42.2649   -6.7124 C   0  0  2  0  0  0  0  0  0  0  0  0
  -16.0294  -42.2796   -7.5214 C   0  0  0  0  0  0  0  0  0  0  0  0
  -18.1927  -43.3915   -7.1340 C   0  0  0  0  0  0  0  0  0  0  0  0
  -18.7256  -44.0940   -5.9075 C   0  0  0  0  0  0  0  0  0  0  0  0
  -20.0533  -43.7748   -5.6150 O   0  0  0  0  0  0  0  0  0  0  0  0
  -20.6856  -44.8099   -4.9235 C   0  0  0  0  0  0  0  0  0  0  0  0
  -22.1774  -44.8214   -5.2027 C   0  0  0  0  0  0  0  0  0  0  0  0
  -22.9489  -43.9937   -4.2016 C   0  0  0  0  0  0  0  0  0  0  0  0
  -22.9389  -42.5382   -4.5131 C   0  0  0  0  0  0  0  0  0  0  0  0
  -23.4364  -42.1768   -5.8160 N   0  0  0  0  0  0  0  0  0  0  0  0
  -22.7611  -41.9607   -7.0663 C   0  0  0  0  0  0  0  0  0  0  0  0
  -21.5836  -41.3080   -7.3665 C   0  0  0  0  0  0  0  0  0  0  0  0
  -21.1535  -41.3076   -8.6767 C   0  0  0  0  0  0  0  0  0  0  0  0
  -21.9402  -41.9718   -9.6601 C   0  0  0  0  0  0  0  0  0  0  0  0
  -23.1104  -42.6237   -9.4010 C   0  0  0  0  0  0  0  0  0  0  0  0
  -23.5047  -42.6053   -8.0884 C   0  0  0  0  0  0  0  0  0  0  0  0
  -19.9550  -40.7499   -9.3091 C   0  0  0  0  0  0  0  0  0  0  0  0
  -20.0470  -40.2988  -10.5572 O   0  0  0  0  0  0  0  0  0  0  0  0
  -18.6189  -40.5712   -8.8618 N   0  0  0  0  0  0  0  0  0  0  0  0
  -18.8641  -36.5992  -12.6739 C   0  0  0  0  0  0  0  0  0  0  0  0
  -19.6908  -37.2530  -13.6029 C   0  0  0  0  0  0  0  0  0  0  0  0
  -19.7073  -38.6013  -13.7727 C   0  0  0  0  0  0  0  0  0  0  0  0
  -18.9629  -35.1285  -12.5851 C   0  0  0  0  0  0  0  0  0  0  0  0
  -18.8045  -34.5273  -13.8344 F   0  0  0  0  0  0  0  0  0  0  0  0
  -19.9650  -34.6343  -11.8248 F   0  0  0  0  0  0  0  0  0  0  0  0
  -17.7821  -34.6721  -11.9138 F   0  0  0  0  0  0  0  0  0  0  0  0
  1  2  1  0
  2  3  1  0
  3  4  1  0
  4  5  2  0
  5  6  1  0
  6  7  1  0
  7  8  1  0
  8  9  1  0
  9 10  1  0
 10 11  1  1
 10 12  1  0
 12 13  1  1
 13 14  1  0
 14 15  1  6
 14 16  1  0
 16 17  1  0
 17 18  1  0
 18 19  1  0
 19 20  1  0
 20 21  1  0
 21 22  1  0
 22 23  1  0
 23 24  1  0
 24 25  2  0
 25 26  1  0
 26 27  2  0
 27 28  1  0
 28 29  2  0
 26 30  1  0
 30 31  2  0
 30 32  1  0
  6 33  2  0
 33 34  1  0
 34 35  2  0
 33 36  1  0
 36 37  1  0
 36 38  1  0
 36 39  1  0
 29 24  1  0
 32 12  1  0
 35  4  1  0
M  END
$$$$
