
     RDKit          3D

 39 41  0  0  0  0  0  0  0  0999 V2000
  -20.3514  -35.2383  -10.9791 C   0  0  0  0  0  0  0  0  0  0  0  0
  -19.0274  -35.9625  -10.7996 C   0  0  0  0  0  0  0  0  0  0  0  0
  -18.3702  -36.1326  -12.0327 O   0  0  0  0  0  0  0  0  0  0  0  0
  -16.9973  -36.2687  -12.0580 C   0  0  0  0  0  0  0  0  0  0  0  0
  -16.3162  -36.9741  -11.0716 C   0  0  0  0  0  0  0  0  0  0  0  0
  -14.9160  -37.1199  -11.0872 C   0  0  0  0  0  0  0  0  0  0  0  0
  -14.3845  -37.9428   -9.9827 C   0  0  0  0  0  0  0  0  0  0  0  0
  -15.2423  -38.4859   -9.0526 N   0  0  0  0  0  0  0  0  0  0  0  0
  -16.0954  -37.8575   -8.1804 C   0  0  0  0  0  0  0  0  0  0  0  0
  -16.6128  -38.6380   -6.9966 C   0  0  1  0  0  0  0  0  0  0  0  0
  -17.1899  -37.9328   -5.9991 O   0  0  0  0  0  0  0  0  0  0  0  0
  -17.5066  -39.8182   -7.4378 C   0  0  2  0  0  0  0  0  0  0  0  0
  -18.8680  -39.6855   -6.9191 C   0  0  0  0  0  0  0  0  0  0  0  0
  -19.2809  -40.3055   -5.6504 C   0  0  2  0  0  0  0  0  0  0  0  0
  -18.4182  -40.0569   -4.4547 C   0  0  0  0  0  0  0  0  0  0  0  0
  -19.6823  -41.7556   -5.7127 C   0  0  0  0  0  0  0  0  0  0  0  0
  -21.1606  -41.8558   -6.0069 C   0  0  0  0  0  0  0  0  0  0  0  0
  -21.4433  -42.2172   -7.3258 O   0  0  0  0  0  0  0  0  0  0  0  0
  -22.6734  -42.8707   -7.4225 C   0  0  0  0  0  0  0  0  0  0  0  0
  -22.6868  -43.8388   -8.5913 C   0  0  0  0  0  0  0  0  0  0  0  0
  -23.1938  -43.1919   -9.8589 C   0  0  0  0  0  0  0  0  0  0  0  0
  -22.1517  -42.4031  -10.5714 C   0  0  0  0  0  0  0  0  0  0  0  0
  -20.9582  -43.1271  -10.9282 N   0  0  0  0  0  0  0  0  0  0  0  0
  -19.6991  -43.2785  -10.2517 C   0  0  0  0  0  0  0  0  0  0  0  0
  -18.9114  -42.3702   -9.5755 C   0  0  0  0  0  0  0  0  0  0  0  0
  -17.7578  -42.8273   -8.9741 C   0  0  0  0  0  0  0  0  0  0  0  0
  -17.4266  -44.2081   -9.0798 C   0  0  0  0  0  0  0  0  0  0  0  0
  -18.1786  -45.1336   -9.7426 C   0  0  0  0  0  0  0  0  0  0  0  0
  -19.3183  -44.6434  -10.3252 C   0  0  0  0  0  0  0  0  0  0  0  0
  -16.7429  -42.1449   -8.1669 C   0  0  0  0  0  0  0  0  0  0  0  0
  -15.4818  -42.5605   -8.2483 O   0  0  0  0  0  0  0  0  0  0  0  0
  -16.8037  -41.0639   -7.2476 N   0  0  0  0  0  0  0  0  0  0  0  0
  -14.2366  -36.5436  -12.1057 C   0  0  0  0  0  0  0  0  0  0  0  0
  -14.9440  -35.8353  -13.0915 C   0  0  0  0  0  0  0  0  0  0  0  0
  -16.2952  -35.6903  -13.0858 C   0  0  0  0  0  0  0  0  0  0  0  0
  -12.7665  -36.6061  -12.2293 C   0  0  0  0  0  0  0  0  0  0  0  0
  -12.3565  -37.7590  -12.9001 F   0  0  0  0  0  0  0  0  0  0  0  0
  -12.1413  -35.4659  -12.5974 F   0  0  0  0  0  0  0  0  0  0  0  0
  -12.2491  -36.8584  -10.9171 F   0  0  0  0  0  0  0  0  0  0  0  0
  1  2  1  0
  2  3  1  0
  3  4  1  0
  4  5  2  0
  5  6  1  0
  6  7  1  0
  7  8  1  0
  8  9  1  0
  9 10  1  0
 10 11  1  1
 10 12  1  0
 12 13  1  1
 13 14  1  0
 14 15  1  1
 14 16  1  0
 16 17  1  0
 17 18  1  0
 18 19  1  0
 19 20  1  0
 20 21  1  0
 21 22  1  0
 22 23  1  0
 23 24  1  0
 24 25  2  0
 25 26  1  0
 26 27  2  0
 27 28  1  0
 28 29  2  0
 26 30  1  0
 30 31  2  0
 30 32  1  0
  6 33  2  0
 33 34  1  0
 34 35  2  0
 33 36  1  0
 36 37  1  0
 36 38  1  0
 36 39  1  0
 29 24  1  0
 32 12  1  0
 35  4  1  0
M  END
$$$$
