
     RDKit          3D

 39 41  0  0  0  0  0  0  0  0999 V2000
  -11.1986  -42.0850  -11.6261 C   0  0  0  0  0  0  0  0  0  0  0  0
  -12.1670  -40.9234  -11.4762 C   0  0  0  0  0  0  0  0  0  0  0  0
  -12.0436  -40.0178  -12.5468 O   0  0  0  0  0  0  0  0  0  0  0  0
  -12.7910  -38.8578  -12.5452 C   0  0  0  0  0  0  0  0  0  0  0  0
  -13.7923  -38.6368  -11.6055 C   0  0  0  0  0  0  0  0  0  0  0  0
  -14.5608  -37.4573  -11.5939 C   0  0  0  0  0  0  0  0  0  0  0  0
  -15.5398  -37.3879  -10.4911 C   0  0  0  0  0  0  0  0  0  0  0  0
  -15.5806  -38.3840   -9.5413 N   0  0  0  0  0  0  0  0  0  0  0  0
  -15.3747  -38.3071   -8.1866 C   0  0  0  0  0  0  0  0  0  0  0  0
  -15.9391  -39.4008   -7.3128 C   0  0  1  0  0  0  0  0  0  0  0  0
  -16.0071  -39.1552   -5.9860 O   0  0  0  0  0  0  0  0  0  0  0  0
  -17.2872  -39.9256   -7.8549 C   0  0  2  0  0  0  0  0  0  0  0  0
  -18.4080  -39.1055   -7.3952 C   0  0  0  0  0  0  0  0  0  0  0  0
  -19.1684  -39.4380   -6.1804 C   0  0  2  0  0  0  0  0  0  0  0  0
  -18.3856  -39.7023   -4.9342 C   0  0  0  0  0  0  0  0  0  0  0  0
  -20.2652  -40.4582   -6.3347 C   0  0  0  0  0  0  0  0  0  0  0  0
  -21.5531  -39.7600   -6.7033 C   0  0  0  0  0  0  0  0  0  0  0  0
  -21.8944  -39.8948   -8.0507 O   0  0  0  0  0  0  0  0  0  0  0  0
  -23.2747  -39.8011   -8.2384 C   0  0  0  0  0  0  0  0  0  0  0  0
  -23.7156  -40.5961   -9.4538 C   0  0  0  0  0  0  0  0  0  0  0  0
  -23.7221  -39.7565  -10.7098 C   0  0  0  0  0  0  0  0  0  0  0  0
  -22.3763  -39.6218  -11.3315 C   0  0  0  0  0  0  0  0  0  0  0  0
  -21.7188  -40.8590  -11.6673 N   0  0  0  0  0  0  0  0  0  0  0  0
  -20.7745  -41.6626  -10.9404 C   0  0  0  0  0  0  0  0  0  0  0  0
  -19.6748  -41.3172  -10.1827 C   0  0  0  0  0  0  0  0  0  0  0  0
  -18.9754  -42.3238   -9.5510 C   0  0  0  0  0  0  0  0  0  0  0  0
  -19.4109  -43.6700   -9.7104 C   0  0  0  0  0  0  0  0  0  0  0  0
  -20.4903  -44.0491  -10.4539 C   0  0  0  0  0  0  0  0  0  0  0  0
  -21.1619  -43.0219  -11.0644 C   0  0  0  0  0  0  0  0  0  0  0  0
  -17.8099  -42.2924   -8.6632 C   0  0  0  0  0  0  0  0  0  0  0  0
  -16.9518  -43.3080   -8.7056 O   0  0  0  0  0  0  0  0  0  0  0  0
  -17.3563  -41.3580   -7.6945 N   0  0  0  0  0  0  0  0  0  0  0  0
  -14.2960  -36.5267  -12.5400 C   0  0  0  0  0  0  0  0  0  0  0  0
  -13.2806  -36.7701  -13.4800 C   0  0  0  0  0  0  0  0  0  0  0  0
  -12.5326  -37.9047  -13.4984 C   0  0  0  0  0  0  0  0  0  0  0  0
  -15.0404  -35.2561  -12.6493 C   0  0  0  0  0  0  0  0  0  0  0  0
  -14.6574  -34.5326  -13.7794 F   0  0  0  0  0  0  0  0  0  0  0  0
  -16.3709  -35.3126  -12.4185 F   0  0  0  0  0  0  0  0  0  0  0  0
  -14.5593  -34.4011  -11.6049 F   0  0  0  0  0  0  0  0  0  0  0  0
  1  2  1  0
  2  3  1  0
  3  4  1  0
  4  5  2  0
  5  6  1  0
  6  7  1  0
  7  8  1  0
  8  9  1  0
  9 10  1  0
 10 11  1  1
 10 12  1  0
 12 13  1  1
 13 14  1  0
 14 15  1  1
 14 16  1  0
 16 17  1  0
 17 18  1  0
 18 19  1  0
 19 20  1  0
 20 21  1  0
 21 22  1  0
 22 23  1  0
 23 24  1  0
 24 25  2  0
 25 26  1  0
 26 27  2  0
 27 28  1  0
 28 29  2  0
 26 30  1  0
 30 31  2  0
 30 32  1  0
  6 33  2  0
 33 34  1  0
 34 35  2  0
 33 36  1  0
 36 37  1  0
 36 38  1  0
 36 39  1  0
 29 24  1  0
 32 12  1  0
 35  4  1  0
M  END
$$$$
