
     RDKit          3D

 39 41  0  0  0  0  0  0  0  0999 V2000
  -14.7655  -34.2832  -12.2172 C   0  0  0  0  0  0  0  0  0  0  0  0
  -15.0443  -35.6839  -11.6975 C   0  0  0  0  0  0  0  0  0  0  0  0
  -16.1891  -36.2327  -12.3054 O   0  0  0  0  0  0  0  0  0  0  0  0
  -17.3627  -36.3251  -11.5854 C   0  0  0  0  0  0  0  0  0  0  0  0
  -17.3618  -36.5935  -10.2208 C   0  0  0  0  0  0  0  0  0  0  0  0
  -18.5526  -36.6895   -9.4760 C   0  0  0  0  0  0  0  0  0  0  0  0
  -18.3429  -36.9316   -8.0348 C   0  0  0  0  0  0  0  0  0  0  0  0
  -17.8739  -38.1514   -7.6013 N   0  0  0  0  0  0  0  0  0  0  0  0
  -16.7836  -38.4394   -6.8191 C   0  0  0  0  0  0  0  0  0  0  0  0
  -16.0744  -39.7543   -7.0343 C   0  0  1  0  0  0  0  0  0  0  0  0
  -15.1194  -40.0922   -6.1403 O   0  0  0  0  0  0  0  0  0  0  0  0
  -17.0734  -40.9126   -7.2511 C   0  0  2  0  0  0  0  0  0  0  0  0
  -16.5291  -42.1873   -6.7835 C   0  0  0  0  0  0  0  0  0  0  0  0
  -15.8123  -43.1042   -7.6837 C   0  0  2  0  0  0  0  0  0  0  0  0
  -14.7082  -42.5270   -8.5105 C   0  0  0  0  0  0  0  0  0  0  0  0
  -16.6629  -44.0256   -8.5175 C   0  0  0  0  0  0  0  0  0  0  0  0
  -16.9187  -45.3030   -7.7528 C   0  0  0  0  0  0  0  0  0  0  0  0
  -18.2053  -45.3828   -7.2155 O   0  0  0  0  0  0  0  0  0  0  0  0
  -18.6143  -46.7096   -7.0680 C   0  0  0  0  0  0  0  0  0  0  0  0
  -20.1236  -46.8304   -7.1725 C   0  0  0  0  0  0  0  0  0  0  0  0
  -20.7971  -46.7166   -5.8249 C   0  0  0  0  0  0  0  0  0  0  0  0
  -20.9773  -45.3086   -5.3770 C   0  0  0  0  0  0  0  0  0  0  0  0
  -21.7131  -44.4580   -6.2775 N   0  0  0  0  0  0  0  0  0  0  0  0
  -21.2746  -43.5666   -7.3163 C   0  0  0  0  0  0  0  0  0  0  0  0
  -20.2299  -42.6674   -7.3664 C   0  0  0  0  0  0  0  0  0  0  0  0
  -20.0214  -41.9741   -8.5400 C   0  0  0  0  0  0  0  0  0  0  0  0
  -20.8908  -42.2093   -9.6427 C   0  0  0  0  0  0  0  0  0  0  0  0
  -21.9352  -43.0871   -9.6285 C   0  0  0  0  0  0  0  0  0  0  0  0
  -22.1099  -43.7595   -8.4470 C   0  0  0  0  0  0  0  0  0  0  0  0
  -19.0010  -40.9957   -8.9261 C   0  0  0  0  0  0  0  0  0  0  0  0
  -19.3383  -40.0274   -9.7738 O   0  0  0  0  0  0  0  0  0  0  0  0
  -17.6332  -40.8357   -8.5789 N   0  0  0  0  0  0  0  0  0  0  0  0
  -19.7209  -36.5119  -10.1352 C   0  0  0  0  0  0  0  0  0  0  0  0
  -19.6994  -36.2420  -11.5138 C   0  0  0  0  0  0  0  0  0  0  0  0
  -18.5552  -36.1461  -12.2409 C   0  0  0  0  0  0  0  0  0  0  0  0
  -21.0389  -36.6047   -9.4758 C   0  0  0  0  0  0  0  0  0  0  0  0
  -22.0812  -36.5409  -10.4014 F   0  0  0  0  0  0  0  0  0  0  0  0
  -21.1703  -37.5473   -8.5163 F   0  0  0  0  0  0  0  0  0  0  0  0
  -21.2347  -35.3773   -8.7630 F   0  0  0  0  0  0  0  0  0  0  0  0
  1  2  1  0
  2  3  1  0
  3  4  1  0
  4  5  2  0
  5  6  1  0
  6  7  1  0
  7  8  1  0
  8  9  1  0
  9 10  1  0
 10 11  1  1
 10 12  1  0
 12 13  1  6
 13 14  1  0
 14 15  1  6
 14 16  1  0
 16 17  1  0
 17 18  1  0
 18 19  1  0
 19 20  1  0
 20 21  1  0
 21 22  1  0
 22 23  1  0
 23 24  1  0
 24 25  2  0
 25 26  1  0
 26 27  2  0
 27 28  1  0
 28 29  2  0
 26 30  1  0
 30 31  2  0
 30 32  1  0
  6 33  2  0
 33 34  1  0
 34 35  2  0
 33 36  1  0
 36 37  1  0
 36 38  1  0
 36 39  1  0
 29 24  1  0
 32 12  1  0
 35  4  1  0
M  END
$$$$
