
     RDKit          3D

 39 41  0  0  0  0  0  0  0  0999 V2000
  -21.4390  -40.1256   -5.9431 C   0  0  0  0  0  0  0  0  0  0  0  0
  -21.9319  -38.6911   -6.0370 C   0  0  0  0  0  0  0  0  0  0  0  0
  -22.6259  -38.4702   -7.2415 O   0  0  0  0  0  0  0  0  0  0  0  0
  -21.9195  -38.1621   -8.3861 C   0  0  0  0  0  0  0  0  0  0  0  0
  -20.5611  -37.8660   -8.3471 C   0  0  0  0  0  0  0  0  0  0  0  0
  -19.8301  -37.5507   -9.5082 C   0  0  0  0  0  0  0  0  0  0  0  0
  -18.3926  -37.3145   -9.2685 C   0  0  0  0  0  0  0  0  0  0  0  0
  -17.8120  -37.7314   -8.0918 N   0  0  0  0  0  0  0  0  0  0  0  0
  -17.6271  -39.0042   -7.6127 C   0  0  0  0  0  0  0  0  0  0  0  0
  -16.2697  -39.6426   -7.7797 C   0  0  1  0  0  0  0  0  0  0  0  0
  -15.4370  -39.6056   -6.7163 O   0  0  0  0  0  0  0  0  0  0  0  0
  -16.3783  -41.0717   -8.3564 C   0  0  2  0  0  0  0  0  0  0  0  0
  -15.1750  -41.8564   -8.0799 C   0  0  0  0  0  0  0  0  0  0  0  0
  -14.0599  -41.9338   -9.0365 C   0  0  2  0  0  0  0  0  0  0  0  0
  -13.5283  -40.6435   -9.5733 C   0  0  0  0  0  0  0  0  0  0  0  0
  -14.1968  -42.9441  -10.1447 C   0  0  0  0  0  0  0  0  0  0  0  0
  -13.6304  -44.2687   -9.6903 C   0  0  0  0  0  0  0  0  0  0  0  0
  -14.6084  -45.2097   -9.3613 O   0  0  0  0  0  0  0  0  0  0  0  0
  -14.1404  -46.5134   -9.5366 C   0  0  0  0  0  0  0  0  0  0  0  0
  -15.2779  -47.4616   -9.8691 C   0  0  0  0  0  0  0  0  0  0  0  0
  -15.8737  -48.0900   -8.6312 C   0  0  0  0  0  0  0  0  0  0  0  0
  -16.8572  -47.2098   -7.9427 C   0  0  0  0  0  0  0  0  0  0  0  0
  -17.9635  -46.7618   -8.7496 N   0  0  0  0  0  0  0  0  0  0  0  0
  -18.1549  -45.5644   -9.5213 C   0  0  0  0  0  0  0  0  0  0  0  0
  -17.8569  -44.2455   -9.2486 C   0  0  0  0  0  0  0  0  0  0  0  0
  -18.1151  -43.3035  -10.2220 C   0  0  0  0  0  0  0  0  0  0  0  0
  -18.6802  -43.7274  -11.4582 C   0  0  0  0  0  0  0  0  0  0  0  0
  -18.9911  -45.0208  -11.7614 C   0  0  0  0  0  0  0  0  0  0  0  0
  -18.7183  -45.9288  -10.7715 C   0  0  0  0  0  0  0  0  0  0  0  0
  -17.8870  -41.8565  -10.2632 C   0  0  0  0  0  0  0  0  0  0  0  0
  -18.7441  -41.0976  -10.9407 O   0  0  0  0  0  0  0  0  0  0  0  0
  -16.8841  -41.0187   -9.7067 N   0  0  0  0  0  0  0  0  0  0  0  0
  -20.4964  -37.5416  -10.6859 C   0  0  0  0  0  0  0  0  0  0  0  0
  -21.8685  -37.8432  -10.7030 C   0  0  0  0  0  0  0  0  0  0  0  0
  -22.5824  -38.1501   -9.5880 C   0  0  0  0  0  0  0  0  0  0  0  0
  -19.8520  -37.2097  -11.9724 C   0  0  0  0  0  0  0  0  0  0  0  0
  -20.6346  -36.3356  -12.7279 F   0  0  0  0  0  0  0  0  0  0  0  0
  -18.5323  -36.9210  -11.9313 F   0  0  0  0  0  0  0  0  0  0  0  0
  -19.9073  -38.3906  -12.7821 F   0  0  0  0  0  0  0  0  0  0  0  0
  1  2  1  0
  2  3  1  0
  3  4  1  0
  4  5  2  0
  5  6  1  0
  6  7  1  0
  7  8  1  0
  8  9  1  0
  9 10  1  0
 10 11  1  1
 10 12  1  0
 12 13  1  6
 13 14  1  0
 14 15  1  6
 14 16  1  0
 16 17  1  0
 17 18  1  0
 18 19  1  0
 19 20  1  0
 20 21  1  0
 21 22  1  0
 22 23  1  0
 23 24  1  0
 24 25  2  0
 25 26  1  0
 26 27  2  0
 27 28  1  0
 28 29  2  0
 26 30  1  0
 30 31  2  0
 30 32  1  0
  6 33  2  0
 33 34  1  0
 34 35  2  0
 33 36  1  0
 36 37  1  0
 36 38  1  0
 36 39  1  0
 29 24  1  0
 32 12  1  0
 35  4  1  0
M  END
$$$$
