
     RDKit          3D

 39 41  0  0  0  0  0  0  0  0999 V2000
  -22.6343  -36.7072   -8.6175 C   0  0  0  0  0  0  0  0  0  0  0  0
  -21.5522  -37.4401   -9.3930 C   0  0  0  0  0  0  0  0  0  0  0  0
  -21.0738  -36.6574  -10.4608 O   0  0  0  0  0  0  0  0  0  0  0  0
  -19.7137  -36.5016  -10.6331 C   0  0  0  0  0  0  0  0  0  0  0  0
  -18.7990  -37.0238   -9.7247 C   0  0  0  0  0  0  0  0  0  0  0  0
  -17.4093  -36.8715   -9.8904 C   0  0  0  0  0  0  0  0  0  0  0  0
  -16.6027  -37.5371   -8.8483 C   0  0  0  0  0  0  0  0  0  0  0  0
  -17.2157  -38.0674   -7.7354 N   0  0  0  0  0  0  0  0  0  0  0  0
  -16.7656  -39.0291   -6.8659 C   0  0  0  0  0  0  0  0  0  0  0  0
  -16.0229  -40.2153   -7.4312 C   0  0  1  0  0  0  0  0  0  0  0  0
  -14.9954  -40.7029   -6.7018 O   0  0  0  0  0  0  0  0  0  0  0  0
  -16.9891  -41.3417   -7.8603 C   0  0  2  0  0  0  0  0  0  0  0  0
  -16.5346  -42.6495   -7.3879 C   0  0  0  0  0  0  0  0  0  0  0  0
  -15.6990  -43.5297   -8.2196 C   0  0  2  0  0  0  0  0  0  0  0  0
  -14.4767  -42.9294   -8.8371 C   0  0  0  0  0  0  0  0  0  0  0  0
  -16.4226  -44.3893   -9.2221 C   0  0  0  0  0  0  0  0  0  0  0  0
  -16.8042  -45.7010   -8.5772 C   0  0  0  0  0  0  0  0  0  0  0  0
  -18.1580  -45.7860   -8.2453 O   0  0  0  0  0  0  0  0  0  0  0  0
  -18.5979  -47.1110   -8.2353 C   0  0  0  0  0  0  0  0  0  0  0  0
  -20.0751  -47.1983   -8.5726 C   0  0  0  0  0  0  0  0  0  0  0  0
  -20.9437  -47.1447   -7.3377 C   0  0  0  0  0  0  0  0  0  0  0  0
  -21.1756  -45.7596   -6.8441 C   0  0  0  0  0  0  0  0  0  0  0  0
  -21.7579  -44.8487   -7.7963 N   0  0  0  0  0  0  0  0  0  0  0  0
  -21.1583  -43.9110   -8.7058 C   0  0  0  0  0  0  0  0  0  0  0  0
  -20.1090  -43.0297   -8.5476 C   0  0  0  0  0  0  0  0  0  0  0  0
  -19.7183  -42.2783   -9.6358 C   0  0  0  0  0  0  0  0  0  0  0  0
  -20.4130  -42.4380  -10.8684 C   0  0  0  0  0  0  0  0  0  0  0  0
  -21.4562  -43.2960  -11.0607 C   0  0  0  0  0  0  0  0  0  0  0  0
  -21.8146  -44.0275   -9.9584 C   0  0  0  0  0  0  0  0  0  0  0  0
  -18.6415  -41.2995   -9.8086 C   0  0  0  0  0  0  0  0  0  0  0  0
  -18.8368  -40.2811  -10.6420 O   0  0  0  0  0  0  0  0  0  0  0  0
  -17.3405  -41.1835   -9.2509 N   0  0  0  0  0  0  0  0  0  0  0  0
  -16.9780  -36.1895  -10.9766 C   0  0  0  0  0  0  0  0  0  0  0  0
  -17.9188  -35.6700  -11.8816 C   0  0  0  0  0  0  0  0  0  0  0  0
  -19.2619  -35.8130  -11.7311 C   0  0  0  0  0  0  0  0  0  0  0  0
  -15.5493  -35.9436  -11.2573 C   0  0  0  0  0  0  0  0  0  0  0  0
  -14.7407  -36.3474  -10.1941 F   0  0  0  0  0  0  0  0  0  0  0  0
  -15.1066  -36.2865  -12.4873 F   0  0  0  0  0  0  0  0  0  0  0  0
  -15.3563  -34.5243  -11.2199 F   0  0  0  0  0  0  0  0  0  0  0  0
  1  2  1  0
  2  3  1  0
  3  4  1  0
  4  5  2  0
  5  6  1  0
  6  7  1  0
  7  8  1  0
  8  9  1  0
  9 10  1  0
 10 11  1  1
 10 12  1  0
 12 13  1  6
 13 14  1  0
 14 15  1  6
 14 16  1  0
 16 17  1  0
 17 18  1  0
 18 19  1  0
 19 20  1  0
 20 21  1  0
 21 22  1  0
 22 23  1  0
 23 24  1  0
 24 25  2  0
 25 26  1  0
 26 27  2  0
 27 28  1  0
 28 29  2  0
 26 30  1  0
 30 31  2  0
 30 32  1  0
  6 33  2  0
 33 34  1  0
 34 35  2  0
 33 36  1  0
 36 37  1  0
 36 38  1  0
 36 39  1  0
 29 24  1  0
 32 12  1  0
 35  4  1  0
M  END
$$$$
