
     RDKit          3D

 36 39  0  0  0  0  0  0  0  0999 V2000
  -14.4207  -39.9445  -10.6824 C   0  0  0  0  0  0  0  0  0  0  0  0
  -13.5663  -39.1240   -9.7336 C   0  0  0  0  0  0  0  0  0  0  0  0
  -12.6577  -39.9830   -8.9211 C   0  0  0  0  0  0  0  0  0  0  0  0
  -14.3371  -38.2415   -8.9266 N   0  0  0  0  0  0  0  0  0  0  0  0
  -15.7320  -38.2705   -8.9873 C   0  0  0  0  0  0  0  0  0  0  0  0
  -16.5105  -38.5635   -7.7536 C   0  0  1  0  0  0  0  0  0  0  0  0
  -17.0381  -37.4808   -7.0961 O   0  0  0  0  0  0  0  0  0  0  0  0
  -17.6302  -39.6010   -8.0616 C   0  0  2  0  0  0  0  0  0  0  0  0
  -18.3670  -40.0081   -6.8525 C   0  0  0  0  0  0  0  0  0  0  0  0
  -19.7757  -39.5995   -6.5916 C   0  0  0  0  0  0  0  0  0  0  0  0
  -19.9782  -39.5829   -5.1724 C   0  0  0  0  0  0  0  0  0  0  0  0
  -21.1725  -39.3220   -4.5786 C   0  0  0  0  0  0  0  0  0  0  0  0
  -22.1992  -39.0705   -5.4399 C   0  0  0  0  0  0  0  0  0  0  0  0
  -22.0610  -39.0722   -6.8610 C   0  0  0  0  0  0  0  0  0  0  0  0
  -23.3756  -38.7903   -7.4709 C   0  0  0  0  0  0  0  0  0  0  0  0
  -23.8233  -39.1820   -8.7934 C   0  0  0  0  0  0  0  0  0  0  0  0
  -23.3512  -40.5328   -9.2386 C   0  0  0  0  0  0  0  0  0  0  0  0
  -23.4164  -41.5281   -8.1253 C   0  0  0  0  0  0  0  0  0  0  0  0
  -22.6021  -42.7376   -8.3843 N   0  0  0  0  0  0  0  0  0  0  0  0
  -21.1923  -42.9188   -8.3106 C   0  0  0  0  0  0  0  0  0  0  0  0
  -20.9085  -44.0490   -7.4804 C   0  0  0  0  0  0  0  0  0  0  0  0
  -19.6958  -44.4625   -7.1670 N   0  0  0  0  0  0  0  0  0  0  0  0
  -18.6713  -43.7710   -7.6636 C   0  0  0  0  0  0  0  0  0  0  0  0
  -18.8459  -42.6348   -8.4976 C   0  0  0  0  0  0  0  0  0  0  0  0
  -20.1280  -42.2057   -8.8292 C   0  0  0  0  0  0  0  0  0  0  0  0
  -17.5188  -42.0595   -8.8114 C   0  0  0  0  0  0  0  0  0  0  0  0
  -16.6176  -42.9534   -9.1369 O   0  0  0  0  0  0  0  0  0  0  0  0
  -17.0681  -40.7146   -8.8144 N   0  0  0  0  0  0  0  0  0  0  0  0
  -20.8421  -39.3358   -7.4118 C   0  0  0  0  0  0  0  0  0  0  0  0
  -12.6868  -38.2923  -10.6584 C   0  0  0  0  0  0  0  0  0  0  0  0
  -12.0030  -37.2040  -10.1864 C   0  0  0  0  0  0  0  0  0  0  0  0
  -11.2265  -36.4451  -11.0498 C   0  0  0  0  0  0  0  0  0  0  0  0
  -11.1471  -36.7908  -12.3805 C   0  0  0  0  0  0  0  0  0  0  0  0
  -11.8292  -37.8799  -12.8647 C   0  0  0  0  0  0  0  0  0  0  0  0
  -11.7079  -38.3415  -14.7001 Br  0  0  0  0  0  0  0  0  0  0  0  0
  -12.6113  -38.6375  -11.9764 C   0  0  0  0  0  0  0  0  0  0  0  0
  1  2  1  0
  2  3  1  0
  2  4  1  0
  4  5  1  0
  5  6  1  0
  6  7  1  6
  6  8  1  0
  8  9  1  1
  9 10  1  0
 10 11  1  0
 11 12  2  0
 12 13  1  0
 13 14  2  0
 14 15  1  0
 15 16  1  0
 16 17  1  0
 17 18  1  0
 18 19  1  0
 19 20  1  0
 20 21  1  0
 21 22  2  0
 22 23  1  0
 23 24  2  0
 24 25  1  0
 24 26  1  0
 26 27  2  0
 26 28  1  0
 14 29  1  0
  2 30  1  0
 30 31  2  0
 31 32  1  0
 32 33  2  0
 33 34  1  0
 34 35  1  0
 34 36  2  0
 25 20  2  0
 28  8  1  0
 29 10  2  0
 36 30  1  0
M  END
$$$$
