
     RDKit          3D

 36 39  0  0  0  0  0  0  0  0999 V2000
  -14.3083  -40.6086  -10.0558 C   0  0  0  0  0  0  0  0  0  0  0  0
  -13.5359  -39.4976   -9.3684 C   0  0  0  0  0  0  0  0  0  0  0  0
  -12.3239  -40.0140   -8.6700 C   0  0  0  0  0  0  0  0  0  0  0  0
  -14.3550  -38.7091   -8.5131 N   0  0  0  0  0  0  0  0  0  0  0  0
  -15.7040  -38.5126   -8.8164 C   0  0  0  0  0  0  0  0  0  0  0  0
  -16.7144  -38.5778   -7.7261 C   0  0  1  0  0  0  0  0  0  0  0  0
  -17.3150  -37.3929   -7.3821 O   0  0  0  0  0  0  0  0  0  0  0  0
  -17.7944  -39.6484   -8.0612 C   0  0  2  0  0  0  0  0  0  0  0  0
  -18.4836  -40.1469   -6.8582 C   0  0  0  0  0  0  0  0  0  0  0  0
  -19.9024  -39.8154   -6.5469 C   0  0  0  0  0  0  0  0  0  0  0  0
  -20.0715  -39.8774   -5.1246 C   0  0  0  0  0  0  0  0  0  0  0  0
  -21.2617  -39.6999   -4.4929 C   0  0  0  0  0  0  0  0  0  0  0  0
  -22.3187  -39.4531   -5.3182 C   0  0  0  0  0  0  0  0  0  0  0  0
  -22.2144  -39.3792   -6.7403 C   0  0  0  0  0  0  0  0  0  0  0  0
  -23.5542  -39.1273   -7.3069 C   0  0  0  0  0  0  0  0  0  0  0  0
  -24.0156  -39.4737   -8.6372 C   0  0  0  0  0  0  0  0  0  0  0  0
  -23.4954  -40.7784   -9.1594 C   0  0  0  0  0  0  0  0  0  0  0  0
  -23.4902  -41.8289   -8.0960 C   0  0  0  0  0  0  0  0  0  0  0  0
  -22.6299  -42.9863   -8.4325 N   0  0  0  0  0  0  0  0  0  0  0  0
  -21.2122  -43.1072   -8.3983 C   0  0  0  0  0  0  0  0  0  0  0  0
  -20.8593  -44.2627   -7.6319 C   0  0  0  0  0  0  0  0  0  0  0  0
  -19.6225  -44.6360   -7.3658 N   0  0  0  0  0  0  0  0  0  0  0  0
  -18.6415  -43.8755   -7.8492 C   0  0  0  0  0  0  0  0  0  0  0  0
  -18.8857  -42.7090   -8.6216 C   0  0  0  0  0  0  0  0  0  0  0  0
  -20.1929  -42.3224   -8.9037 C   0  0  0  0  0  0  0  0  0  0  0  0
  -17.5930  -42.0598   -8.9349 C   0  0  0  0  0  0  0  0  0  0  0  0
  -16.6613  -42.8952   -9.3240 O   0  0  0  0  0  0  0  0  0  0  0  0
  -17.2020  -40.6974   -8.8806 N   0  0  0  0  0  0  0  0  0  0  0  0
  -20.9985  -39.5603   -7.3297 C   0  0  0  0  0  0  0  0  0  0  0  0
  -13.0511  -38.6228  -10.5176 C   0  0  0  0  0  0  0  0  0  0  0  0
  -13.0058  -39.1065  -11.7977 C   0  0  0  0  0  0  0  0  0  0  0  0
  -12.5383  -38.3020  -12.8265 C   0  0  0  0  0  0  0  0  0  0  0  0
  -12.1212  -37.0179  -12.5548 C   0  0  0  0  0  0  0  0  0  0  0  0
  -12.1618  -36.5230  -11.2744 C   0  0  0  0  0  0  0  0  0  0  0  0
  -11.5839  -34.7522  -10.9185 Br  0  0  0  0  0  0  0  0  0  0  0  0
  -12.6380  -37.3515  -10.2441 C   0  0  0  0  0  0  0  0  0  0  0  0
  1  2  1  0
  2  3  1  0
  2  4  1  0
  4  5  1  0
  5  6  1  0
  6  7  1  6
  6  8  1  0
  8  9  1  1
  9 10  1  0
 10 11  1  0
 11 12  2  0
 12 13  1  0
 13 14  2  0
 14 15  1  0
 15 16  1  0
 16 17  1  0
 17 18  1  0
 18 19  1  0
 19 20  1  0
 20 21  1  0
 21 22  2  0
 22 23  1  0
 23 24  2  0
 24 25  1  0
 24 26  1  0
 26 27  2  0
 26 28  1  0
 14 29  1  0
  2 30  1  0
 30 31  2  0
 31 32  1  0
 32 33  2  0
 33 34  1  0
 34 35  1  0
 34 36  2  0
 25 20  2  0
 28  8  1  0
 29 10  2  0
 36 30  1  0
M  END
$$$$
