
     RDKit          3D

 36 39  0  0  0  0  0  0  0  0999 V2000
  -12.8147  -40.9498   -8.0520 C   0  0  0  0  0  0  0  0  0  0  0  0
  -13.6472  -40.0739   -8.9702 C   0  0  0  0  0  0  0  0  0  0  0  0
  -13.2197  -38.6466   -8.9136 C   0  0  0  0  0  0  0  0  0  0  0  0
  -15.0451  -40.2262   -8.7533 N   0  0  0  0  0  0  0  0  0  0  0  0
  -15.8726  -39.1033   -8.6843 C   0  0  0  0  0  0  0  0  0  0  0  0
  -16.8064  -38.9540   -7.5356 C   0  0  1  0  0  0  0  0  0  0  0  0
  -17.2039  -37.6749   -7.2376 O   0  0  0  0  0  0  0  0  0  0  0  0
  -18.0506  -39.8688   -7.7354 C   0  0  2  0  0  0  0  0  0  0  0  0
  -18.8801  -39.9620   -6.5214 C   0  0  0  0  0  0  0  0  0  0  0  0
  -20.2248  -39.3297   -6.4139 C   0  0  0  0  0  0  0  0  0  0  0  0
  -20.4730  -39.0453   -5.0309 C   0  0  0  0  0  0  0  0  0  0  0  0
  -21.6384  -38.5293   -4.5589 C   0  0  0  0  0  0  0  0  0  0  0  0
  -22.5878  -38.2923   -5.5085 C   0  0  0  0  0  0  0  0  0  0  0  0
  -22.4009  -38.5539   -6.8996 C   0  0  0  0  0  0  0  0  0  0  0  0
  -23.6396  -38.2058   -7.6236 C   0  0  0  0  0  0  0  0  0  0  0  0
  -24.0912  -38.7527   -8.8884 C   0  0  0  0  0  0  0  0  0  0  0  0
  -23.8006  -40.2104   -9.0786 C   0  0  0  0  0  0  0  0  0  0  0  0
  -24.0460  -40.9843   -7.8235 C   0  0  0  0  0  0  0  0  0  0  0  0
  -23.4033  -42.3184   -7.8333 N   0  0  0  0  0  0  0  0  0  0  0  0
  -22.0371  -42.6721   -7.6482 C   0  0  0  0  0  0  0  0  0  0  0  0
  -21.9465  -43.6726   -6.6294 C   0  0  0  0  0  0  0  0  0  0  0  0
  -20.8169  -44.1859   -6.1820 N   0  0  0  0  0  0  0  0  0  0  0  0
  -19.6875  -43.7326   -6.7237 C   0  0  0  0  0  0  0  0  0  0  0  0
  -19.6691  -42.7416   -7.7409 C   0  0  0  0  0  0  0  0  0  0  0  0
  -20.8645  -42.2069   -8.2129 C   0  0  0  0  0  0  0  0  0  0  0  0
  -18.2633  -42.4113   -8.0659 C   0  0  0  0  0  0  0  0  0  0  0  0
  -17.4874  -43.4603   -8.1875 O   0  0  0  0  0  0  0  0  0  0  0  0
  -17.6262  -41.1593   -8.2619 N   0  0  0  0  0  0  0  0  0  0  0  0
  -21.2131  -39.0684   -7.3274 C   0  0  0  0  0  0  0  0  0  0  0  0
  -13.3143  -40.5855  -10.3660 C   0  0  0  0  0  0  0  0  0  0  0  0
  -14.3068  -40.9508  -11.2354 C   0  0  0  0  0  0  0  0  0  0  0  0
  -13.9822  -41.4371  -12.4934 C   0  0  0  0  0  0  0  0  0  0  0  0
  -12.6602  -41.5504  -12.8624 C   0  0  0  0  0  0  0  0  0  0  0  0
  -11.6567  -41.1874  -11.9979 C   0  0  0  0  0  0  0  0  0  0  0  0
   -9.8417  -41.3496  -12.5230 Br  0  0  0  0  0  0  0  0  0  0  0  0
  -12.0033  -40.6970  -10.7275 C   0  0  0  0  0  0  0  0  0  0  0  0
  1  2  1  0
  2  3  1  0
  2  4  1  0
  4  5  1  0
  5  6  1  0
  6  7  1  6
  6  8  1  0
  8  9  1  1
  9 10  1  0
 10 11  1  0
 11 12  2  0
 12 13  1  0
 13 14  2  0
 14 15  1  0
 15 16  1  0
 16 17  1  0
 17 18  1  0
 18 19  1  0
 19 20  1  0
 20 21  1  0
 21 22  2  0
 22 23  1  0
 23 24  2  0
 24 25  1  0
 24 26  1  0
 26 27  2  0
 26 28  1  0
 14 29  1  0
  2 30  1  0
 30 31  2  0
 31 32  1  0
 32 33  2  0
 33 34  1  0
 34 35  1  0
 34 36  2  0
 25 20  2  0
 28  8  1  0
 29 10  2  0
 36 30  1  0
M  END
$$$$
