
     RDKit          3D

 36 39  0  0  0  0  0  0  0  0999 V2000
  -13.6943  -41.0078   -9.4510 C   0  0  0  0  0  0  0  0  0  0  0  0
  -13.2753  -39.5716   -9.1957 C   0  0  0  0  0  0  0  0  0  0  0  0
  -11.7936  -39.4341   -9.1012 C   0  0  0  0  0  0  0  0  0  0  0  0
  -13.9416  -38.9972   -8.0776 N   0  0  0  0  0  0  0  0  0  0  0  0
  -14.6228  -39.8115   -7.1703 C   0  0  0  0  0  0  0  0  0  0  0  0
  -16.0086  -39.4524   -6.7646 C   0  0  1  0  0  0  0  0  0  0  0  0
  -16.2877  -38.1119   -6.6750 O   0  0  0  0  0  0  0  0  0  0  0  0
  -17.0381  -40.1527   -7.6997 C   0  0  2  0  0  0  0  0  0  0  0  0
  -18.2471  -40.5874   -6.9787 C   0  0  0  0  0  0  0  0  0  0  0  0
  -19.5724  -39.9310   -7.1587 C   0  0  0  0  0  0  0  0  0  0  0  0
  -20.3251  -40.1109   -5.9519 C   0  0  0  0  0  0  0  0  0  0  0  0
  -21.6102  -39.6996   -5.7900 C   0  0  0  0  0  0  0  0  0  0  0  0
  -22.1588  -39.0878   -6.8782 C   0  0  0  0  0  0  0  0  0  0  0  0
  -21.4615  -38.8794   -8.1065 C   0  0  0  0  0  0  0  0  0  0  0  0
  -22.3678  -38.2181   -9.0661 C   0  0  0  0  0  0  0  0  0  0  0  0
  -22.2932  -38.2730  -10.5132 C   0  0  0  0  0  0  0  0  0  0  0  0
  -21.8688  -39.5990  -11.0674 C   0  0  0  0  0  0  0  0  0  0  0  0
  -22.5105  -40.7296  -10.3298 C   0  0  0  0  0  0  0  0  0  0  0  0
  -21.8322  -42.0261  -10.5577 N   0  0  0  0  0  0  0  0  0  0  0  0
  -20.6101  -42.5209  -10.0214 C   0  0  0  0  0  0  0  0  0  0  0  0
  -20.8402  -43.8095   -9.4438 C   0  0  0  0  0  0  0  0  0  0  0  0
  -19.9244  -44.5249   -8.8198 N   0  0  0  0  0  0  0  0  0  0  0  0
  -18.7036  -44.0001   -8.7265 C   0  0  0  0  0  0  0  0  0  0  0  0
  -18.3724  -42.7290   -9.2664 C   0  0  0  0  0  0  0  0  0  0  0  0
  -19.3415  -41.9804   -9.9283 C   0  0  0  0  0  0  0  0  0  0  0  0
  -16.9670  -42.4130   -8.9264 C   0  0  0  0  0  0  0  0  0  0  0  0
  -16.1406  -43.4140   -9.1063 O   0  0  0  0  0  0  0  0  0  0  0  0
  -16.3763  -41.2184   -8.4406 N   0  0  0  0  0  0  0  0  0  0  0  0
  -20.1717  -39.3058   -8.2214 C   0  0  0  0  0  0  0  0  0  0  0  0
  -13.7136  -38.8326  -10.4538 C   0  0  0  0  0  0  0  0  0  0  0  0
  -13.7851  -39.4787  -11.6588 C   0  0  0  0  0  0  0  0  0  0  0  0
  -14.1631  -38.7822  -12.7974 C   0  0  0  0  0  0  0  0  0  0  0  0
  -14.4654  -37.4415  -12.7099 C   0  0  0  0  0  0  0  0  0  0  0  0
  -14.3964  -36.7836  -11.5065 C   0  0  0  0  0  0  0  0  0  0  0  0
  -14.8165  -34.9371  -11.4044 Br  0  0  0  0  0  0  0  0  0  0  0  0
  -14.0115  -37.5041  -10.3631 C   0  0  0  0  0  0  0  0  0  0  0  0
  1  2  1  0
  2  3  1  0
  2  4  1  0
  4  5  1  0
  5  6  1  0
  6  7  1  6
  6  8  1  0
  8  9  1  1
  9 10  1  0
 10 11  1  0
 11 12  2  0
 12 13  1  0
 13 14  2  0
 14 15  1  0
 15 16  1  0
 16 17  1  0
 17 18  1  0
 18 19  1  0
 19 20  1  0
 20 21  1  0
 21 22  2  0
 22 23  1  0
 23 24  2  0
 24 25  1  0
 24 26  1  0
 26 27  2  0
 26 28  1  0
 14 29  1  0
  2 30  1  0
 30 31  2  0
 31 32  1  0
 32 33  2  0
 33 34  1  0
 34 35  1  0
 34 36  2  0
 25 20  2  0
 28  8  1  0
 29 10  2  0
 36 30  1  0
M  END
$$$$
