
     RDKit          3D

 36 39  0  0  0  0  0  0  0  0999 V2000
  -12.2788  -40.9708   -8.5638 C   0  0  0  0  0  0  0  0  0  0  0  0
  -13.4019  -40.1653   -9.1910 C   0  0  0  0  0  0  0  0  0  0  0  0
  -12.8848  -38.9958   -9.9579 C   0  0  0  0  0  0  0  0  0  0  0  0
  -14.4006  -39.7924   -8.2489 N   0  0  0  0  0  0  0  0  0  0  0  0
  -15.4407  -38.9404   -8.6266 C   0  0  0  0  0  0  0  0  0  0  0  0
  -16.5616  -38.6924   -7.6800 C   0  0  1  0  0  0  0  0  0  0  0  0
  -17.1289  -37.4437   -7.7234 O   0  0  0  0  0  0  0  0  0  0  0  0
  -17.6578  -39.7851   -7.8511 C   0  0  2  0  0  0  0  0  0  0  0  0
  -18.6902  -39.7142   -6.8025 C   0  0  0  0  0  0  0  0  0  0  0  0
  -20.0825  -39.2574   -7.0721 C   0  0  0  0  0  0  0  0  0  0  0  0
  -20.6126  -38.7072   -5.8590 C   0  0  0  0  0  0  0  0  0  0  0  0
  -21.8879  -38.2579   -5.7226 C   0  0  0  0  0  0  0  0  0  0  0  0
  -22.6578  -38.3662   -6.8427 C   0  0  0  0  0  0  0  0  0  0  0  0
  -22.1883  -38.9044   -8.0790 C   0  0  0  0  0  0  0  0  0  0  0  0
  -23.2938  -38.8934   -9.0574 C   0  0  0  0  0  0  0  0  0  0  0  0
  -23.4468  -39.7634  -10.2074 C   0  0  0  0  0  0  0  0  0  0  0  0
  -22.9950  -41.1752   -9.9878 C   0  0  0  0  0  0  0  0  0  0  0  0
  -23.4027  -41.6752   -8.6394 C   0  0  0  0  0  0  0  0  0  0  0  0
  -22.6519  -42.8809   -8.2200 N   0  0  0  0  0  0  0  0  0  0  0  0
  -21.3192  -43.0005   -7.7348 C   0  0  0  0  0  0  0  0  0  0  0  0
  -21.3331  -43.7277   -6.5027 C   0  0  0  0  0  0  0  0  0  0  0  0
  -20.2669  -43.9742   -5.7664 N   0  0  0  0  0  0  0  0  0  0  0  0
  -19.1010  -43.5078   -6.2109 C   0  0  0  0  0  0  0  0  0  0  0  0
  -18.9800  -42.7750   -7.4215 C   0  0  0  0  0  0  0  0  0  0  0  0
  -20.1078  -42.5220   -8.1972 C   0  0  0  0  0  0  0  0  0  0  0  0
  -17.5738  -42.3425   -7.5838 C   0  0  0  0  0  0  0  0  0  0  0  0
  -16.6975  -43.2801   -7.3190 O   0  0  0  0  0  0  0  0  0  0  0  0
  -17.0267  -41.0927   -7.9720 N   0  0  0  0  0  0  0  0  0  0  0  0
  -20.8995  -39.3394   -8.1699 C   0  0  0  0  0  0  0  0  0  0  0  0
  -14.0209  -41.1237  -10.2004 C   0  0  0  0  0  0  0  0  0  0  0  0
  -14.3542  -40.6994  -11.4588 C   0  0  0  0  0  0  0  0  0  0  0  0
  -14.9393  -41.5814  -12.3555 C   0  0  0  0  0  0  0  0  0  0  0  0
  -15.1826  -42.8823  -11.9748 C   0  0  0  0  0  0  0  0  0  0  0  0
  -14.8529  -43.3182  -10.7150 C   0  0  0  0  0  0  0  0  0  0  0  0
  -15.1948  -45.1133  -10.2079 Br  0  0  0  0  0  0  0  0  0  0  0  0
  -14.2611  -42.4116   -9.8191 C   0  0  0  0  0  0  0  0  0  0  0  0
  1  2  1  0
  2  3  1  0
  2  4  1  0
  4  5  1  0
  5  6  1  0
  6  7  1  6
  6  8  1  0
  8  9  1  1
  9 10  1  0
 10 11  1  0
 11 12  2  0
 12 13  1  0
 13 14  2  0
 14 15  1  0
 15 16  1  0
 16 17  1  0
 17 18  1  0
 18 19  1  0
 19 20  1  0
 20 21  1  0
 21 22  2  0
 22 23  1  0
 23 24  2  0
 24 25  1  0
 24 26  1  0
 26 27  2  0
 26 28  1  0
 14 29  1  0
  2 30  1  0
 30 31  2  0
 31 32  1  0
 32 33  2  0
 33 34  1  0
 34 35  1  0
 34 36  2  0
 25 20  2  0
 28  8  1  0
 29 10  2  0
 36 30  1  0
M  END
$$$$
