
     RDKit          3D

 36 39  0  0  0  0  0  0  0  0999 V2000
  -22.0180  -38.5015   -6.3632 C   0  0  0  0  0  0  0  0  0  0  0  0
  -20.8886  -39.5112   -6.2715 C   0  0  0  0  0  0  0  0  0  0  0  0
  -20.5625  -39.8523   -4.8571 C   0  0  0  0  0  0  0  0  0  0  0  0
  -19.7382  -39.1144   -7.0085 N   0  0  0  0  0  0  0  0  0  0  0  0
  -18.5778  -38.7168   -6.3409 C   0  0  0  0  0  0  0  0  0  0  0  0
  -17.5636  -37.9011   -7.0620 C   0  0  1  0  0  0  0  0  0  0  0  0
  -16.6363  -37.2561   -6.2828 O   0  0  0  0  0  0  0  0  0  0  0  0
  -16.8480  -38.7679   -8.1397 C   0  0  2  0  0  0  0  0  0  0  0  0
  -17.3645  -38.5168   -9.4964 C   0  0  0  0  0  0  0  0  0  0  0  0
  -16.5748  -37.8052  -10.5403 C   0  0  0  0  0  0  0  0  0  0  0  0
  -17.4948  -37.1789  -11.4438 C   0  0  0  0  0  0  0  0  0  0  0  0
  -17.1200  -36.5008  -12.5604 C   0  0  0  0  0  0  0  0  0  0  0  0
  -15.7748  -36.4513  -12.7778 C   0  0  0  0  0  0  0  0  0  0  0  0
  -14.8093  -37.0542  -11.9160 C   0  0  0  0  0  0  0  0  0  0  0  0
  -13.4611  -36.8265  -12.4726 C   0  0  0  0  0  0  0  0  0  0  0  0
  -12.2807  -37.6401  -12.2545 C   0  0  0  0  0  0  0  0  0  0  0  0
  -12.5422  -39.1137  -12.1799 C   0  0  0  0  0  0  0  0  0  0  0  0
  -13.5413  -39.5434  -13.2054 C   0  0  0  0  0  0  0  0  0  0  0  0
  -14.1278  -40.8725  -12.9180 N   0  0  0  0  0  0  0  0  0  0  0  0
  -15.1172  -41.2441  -11.9647 C   0  0  0  0  0  0  0  0  0  0  0  0
  -16.1572  -41.9692  -12.6279 C   0  0  0  0  0  0  0  0  0  0  0  0
  -17.2492  -42.4184  -12.0403 N   0  0  0  0  0  0  0  0  0  0  0  0
  -17.3825  -42.1731  -10.7378 C   0  0  0  0  0  0  0  0  0  0  0  0
  -16.4077  -41.4628   -9.9879 C   0  0  0  0  0  0  0  0  0  0  0  0
  -15.2547  -40.9952  -10.6122 C   0  0  0  0  0  0  0  0  0  0  0  0
  -16.8939  -41.2988   -8.5996 C   0  0  0  0  0  0  0  0  0  0  0  0
  -17.4182  -42.3863   -8.0901 O   0  0  0  0  0  0  0  0  0  0  0  0
  -16.8875  -40.1690   -7.7420 N   0  0  0  0  0  0  0  0  0  0  0  0
  -15.2322  -37.7214  -10.8047 C   0  0  0  0  0  0  0  0  0  0  0  0
  -21.4662  -40.7666   -6.9125 C   0  0  0  0  0  0  0  0  0  0  0  0
  -22.2285  -40.6888   -8.0472 C   0  0  0  0  0  0  0  0  0  0  0  0
  -22.7656  -41.8412   -8.6019 C   0  0  0  0  0  0  0  0  0  0  0  0
  -22.5290  -43.0607   -8.0073 C   0  0  0  0  0  0  0  0  0  0  0  0
  -21.7663  -43.1501   -6.8688 C   0  0  0  0  0  0  0  0  0  0  0  0
  -21.4503  -44.8378   -6.0636 Br  0  0  0  0  0  0  0  0  0  0  0  0
  -21.2301  -41.9729   -6.3200 C   0  0  0  0  0  0  0  0  0  0  0  0
  1  2  1  0
  2  3  1  0
  2  4  1  0
  4  5  1  0
  5  6  1  0
  6  7  1  1
  6  8  1  0
  8  9  1  6
  9 10  1  0
 10 11  1  0
 11 12  2  0
 12 13  1  0
 13 14  2  0
 14 15  1  0
 15 16  1  0
 16 17  1  0
 17 18  1  0
 18 19  1  0
 19 20  1  0
 20 21  1  0
 21 22  2  0
 22 23  1  0
 23 24  2  0
 24 25  1  0
 24 26  1  0
 26 27  2  0
 26 28  1  0
 14 29  1  0
  2 30  1  0
 30 31  2  0
 31 32  1  0
 32 33  2  0
 33 34  1  0
 34 35  1  0
 34 36  2  0
 25 20  2  0
 28  8  1  0
 29 10  2  0
 36 30  1  0
M  END
$$$$
