
     RDKit          3D

 36 39  0  0  0  0  0  0  0  0999 V2000
  -21.4418  -40.0022   -4.7319 C   0  0  0  0  0  0  0  0  0  0  0  0
  -20.4436  -39.9333   -5.8731 C   0  0  0  0  0  0  0  0  0  0  0  0
  -19.6992  -41.2147   -6.0375 C   0  0  0  0  0  0  0  0  0  0  0  0
  -19.5717  -38.8136   -5.7712 N   0  0  0  0  0  0  0  0  0  0  0  0
  -18.1936  -38.9789   -5.9252 C   0  0  0  0  0  0  0  0  0  0  0  0
  -17.5429  -38.5440   -7.1907 C   0  0  1  0  0  0  0  0  0  0  0  0
  -16.6193  -37.5348   -7.0838 O   0  0  0  0  0  0  0  0  0  0  0  0
  -16.9155  -39.7696   -7.9180 C   0  0  2  0  0  0  0  0  0  0  0  0
  -16.5442  -39.4665   -9.3112 C   0  0  0  0  0  0  0  0  0  0  0  0
  -15.1285  -39.3506   -9.7607 C   0  0  0  0  0  0  0  0  0  0  0  0
  -15.0925  -38.4736  -10.8943 C   0  0  0  0  0  0  0  0  0  0  0  0
  -13.9676  -38.1970  -11.6050 C   0  0  0  0  0  0  0  0  0  0  0  0
  -12.8403  -38.8239  -11.1629 C   0  0  0  0  0  0  0  0  0  0  0  0
  -12.8118  -39.7072  -10.0415 C   0  0  0  0  0  0  0  0  0  0  0  0
  -11.4384  -40.2211   -9.8707 C   0  0  0  0  0  0  0  0  0  0  0  0
  -11.0477  -41.4676   -9.2412 C   0  0  0  0  0  0  0  0  0  0  0  0
  -11.9767  -42.6153   -9.4971 C   0  0  0  0  0  0  0  0  0  0  0  0
  -12.4433  -42.6337  -10.9170 C   0  0  0  0  0  0  0  0  0  0  0  0
  -13.6456  -43.4746  -11.1184 N   0  0  0  0  0  0  0  0  0  0  0  0
  -15.0061  -43.2100  -10.7949 C   0  0  0  0  0  0  0  0  0  0  0  0
  -15.8134  -43.4223  -11.9570 C   0  0  0  0  0  0  0  0  0  0  0  0
  -17.1156  -43.2200  -12.0116 N   0  0  0  0  0  0  0  0  0  0  0  0
  -17.7098  -42.7868  -10.9008 C   0  0  0  0  0  0  0  0  0  0  0  0
  -16.9987  -42.5457   -9.6953 C   0  0  0  0  0  0  0  0  0  0  0  0
  -15.6252  -42.7657   -9.6419 C   0  0  0  0  0  0  0  0  0  0  0  0
  -17.9346  -42.0041   -8.6846 C   0  0  0  0  0  0  0  0  0  0  0  0
  -19.0801  -42.6381   -8.6299 O   0  0  0  0  0  0  0  0  0  0  0  0
  -17.7963  -40.9217   -7.7783 N   0  0  0  0  0  0  0  0  0  0  0  0
  -13.9648  -39.9519   -9.3563 C   0  0  0  0  0  0  0  0  0  0  0  0
  -21.3137  -39.7595   -7.1113 C   0  0  0  0  0  0  0  0  0  0  0  0
  -22.6051  -39.3171   -7.0058 C   0  0  0  0  0  0  0  0  0  0  0  0
  -23.3890  -39.1886   -8.1430 C   0  0  0  0  0  0  0  0  0  0  0  0
  -22.8634  -39.5074   -9.3754 C   0  0  0  0  0  0  0  0  0  0  0  0
  -21.5696  -39.9527   -9.4926 C   0  0  0  0  0  0  0  0  0  0  0  0
  -20.8619  -40.3867  -11.1977 Br  0  0  0  0  0  0  0  0  0  0  0  0
  -20.7895  -40.0772   -8.3304 C   0  0  0  0  0  0  0  0  0  0  0  0
  1  2  1  0
  2  3  1  0
  2  4  1  0
  4  5  1  0
  5  6  1  0
  6  7  1  1
  6  8  1  0
  8  9  1  6
  9 10  1  0
 10 11  1  0
 11 12  2  0
 12 13  1  0
 13 14  2  0
 14 15  1  0
 15 16  1  0
 16 17  1  0
 17 18  1  0
 18 19  1  0
 19 20  1  0
 20 21  1  0
 21 22  2  0
 22 23  1  0
 23 24  2  0
 24 25  1  0
 24 26  1  0
 26 27  2  0
 26 28  1  0
 14 29  1  0
  2 30  1  0
 30 31  2  0
 31 32  1  0
 32 33  2  0
 33 34  1  0
 34 35  1  0
 34 36  2  0
 25 20  2  0
 28  8  1  0
 29 10  2  0
 36 30  1  0
M  END
$$$$
