
     RDKit          3D

 36 39  0  0  0  0  0  0  0  0999 V2000
  -12.6804  -38.6360   -8.7189 C   0  0  0  0  0  0  0  0  0  0  0  0
  -13.6463  -39.0004   -9.8314 C   0  0  0  0  0  0  0  0  0  0  0  0
  -13.6695  -37.9678  -10.9067 C   0  0  0  0  0  0  0  0  0  0  0  0
  -14.9496  -39.3032   -9.3476 N   0  0  0  0  0  0  0  0  0  0  0  0
  -15.6191  -38.4011   -8.5180 C   0  0  0  0  0  0  0  0  0  0  0  0
  -16.4672  -38.9188   -7.4104 C   0  0  1  0  0  0  0  0  0  0  0  0
  -17.0141  -37.9791   -6.5733 O   0  0  0  0  0  0  0  0  0  0  0  0
  -17.5831  -39.8441   -7.9790 C   0  0  2  0  0  0  0  0  0  0  0  0
  -18.4855  -40.3467   -6.9284 C   0  0  0  0  0  0  0  0  0  0  0  0
  -19.8966  -39.8887   -6.7915 C   0  0  0  0  0  0  0  0  0  0  0  0
  -20.2777  -40.0279   -5.4165 C   0  0  0  0  0  0  0  0  0  0  0  0
  -21.5253  -39.7684   -4.9442 C   0  0  0  0  0  0  0  0  0  0  0  0
  -22.4215  -39.3562   -5.8856 C   0  0  0  0  0  0  0  0  0  0  0  0
  -22.1033  -39.1983   -7.2684 C   0  0  0  0  0  0  0  0  0  0  0  0
  -23.3154  -38.7686   -7.9934 C   0  0  0  0  0  0  0  0  0  0  0  0
  -23.6074  -38.9740   -9.3989 C   0  0  0  0  0  0  0  0  0  0  0  0
  -23.1426  -40.2884   -9.9484 C   0  0  0  0  0  0  0  0  0  0  0  0
  -23.3933  -41.4025   -8.9841 C   0  0  0  0  0  0  0  0  0  0  0  0
  -22.6069  -42.6193   -9.2911 N   0  0  0  0  0  0  0  0  0  0  0  0
  -21.2275  -42.8915   -9.0700 C   0  0  0  0  0  0  0  0  0  0  0  0
  -21.1023  -44.1267   -8.3589 C   0  0  0  0  0  0  0  0  0  0  0  0
  -19.9591  -44.6458   -7.9547 N   0  0  0  0  0  0  0  0  0  0  0  0
  -18.8500  -43.9625   -8.2331 C   0  0  0  0  0  0  0  0  0  0  0  0
  -18.8662  -42.7274   -8.9340 C   0  0  0  0  0  0  0  0  0  0  0  0
  -20.0752  -42.1867   -9.3627 C   0  0  0  0  0  0  0  0  0  0  0  0
  -17.4857  -42.1990   -9.0102 C   0  0  0  0  0  0  0  0  0  0  0  0
  -16.5908  -43.1002   -9.3328 O   0  0  0  0  0  0  0  0  0  0  0  0
  -16.9793  -40.8924   -8.7908 N   0  0  0  0  0  0  0  0  0  0  0  0
  -20.8368  -39.4669   -7.6957 C   0  0  0  0  0  0  0  0  0  0  0  0
  -13.0481  -40.2636  -10.4372 C   0  0  0  0  0  0  0  0  0  0  0  0
  -13.6369  -40.8740  -11.5121 C   0  0  0  0  0  0  0  0  0  0  0  0
  -13.0902  -42.0372  -12.0340 C   0  0  0  0  0  0  0  0  0  0  0  0
  -11.9555  -42.5736  -11.4673 C   0  0  0  0  0  0  0  0  0  0  0  0
  -11.3572  -41.9699  -10.3886 C   0  0  0  0  0  0  0  0  0  0  0  0
   -9.7947  -42.7222   -9.6211 Br  0  0  0  0  0  0  0  0  0  0  0  0
  -11.9242  -40.7924   -9.8723 C   0  0  0  0  0  0  0  0  0  0  0  0
  1  2  1  0
  2  3  1  0
  2  4  1  0
  4  5  1  0
  5  6  1  0
  6  7  1  6
  6  8  1  0
  8  9  1  1
  9 10  1  0
 10 11  1  0
 11 12  2  0
 12 13  1  0
 13 14  2  0
 14 15  1  0
 15 16  1  0
 16 17  1  0
 17 18  1  0
 18 19  1  0
 19 20  1  0
 20 21  1  0
 21 22  2  0
 22 23  1  0
 23 24  2  0
 24 25  1  0
 24 26  1  0
 26 27  2  0
 26 28  1  0
 14 29  1  0
  2 30  1  0
 30 31  2  0
 31 32  1  0
 32 33  2  0
 33 34  1  0
 34 35  1  0
 34 36  2  0
 25 20  2  0
 28  8  1  0
 29 10  2  0
 36 30  1  0
M  END
$$$$
