
     RDKit          3D

 36 39  0  0  0  0  0  0  0  0999 V2000
  -12.2688  -40.3217   -8.5846 C   0  0  0  0  0  0  0  0  0  0  0  0
  -13.0835  -39.9136   -9.7983 C   0  0  0  0  0  0  0  0  0  0  0  0
  -12.6228  -38.6135  -10.3646 C   0  0  0  0  0  0  0  0  0  0  0  0
  -14.4838  -39.9253   -9.5470 N   0  0  0  0  0  0  0  0  0  0  0  0
  -15.1235  -38.7766   -9.0761 C   0  0  0  0  0  0  0  0  0  0  0  0
  -16.0460  -38.8794   -7.9132 C   0  0  1  0  0  0  0  0  0  0  0  0
  -16.5166  -37.6953   -7.4040 O   0  0  0  0  0  0  0  0  0  0  0  0
  -17.2346  -39.8255   -8.2554 C   0  0  2  0  0  0  0  0  0  0  0  0
  -18.0992  -40.0851   -7.0911 C   0  0  0  0  0  0  0  0  0  0  0  0
  -19.4772  -39.5314   -6.9714 C   0  0  0  0  0  0  0  0  0  0  0  0
  -19.7865  -39.4065   -5.5771 C   0  0  0  0  0  0  0  0  0  0  0  0
  -20.9920  -38.9986   -5.1002 C   0  0  0  0  0  0  0  0  0  0  0  0
  -21.9192  -38.7074   -6.0566 C   0  0  0  0  0  0  0  0  0  0  0  0
  -21.6721  -38.8118   -7.4589 C   0  0  0  0  0  0  0  0  0  0  0  0
  -22.9014  -38.4478   -8.1909 C   0  0  0  0  0  0  0  0  0  0  0  0
  -23.2813  -38.8788   -9.5223 C   0  0  0  0  0  0  0  0  0  0  0  0
  -22.9107  -40.2930   -9.8512 C   0  0  0  0  0  0  0  0  0  0  0  0
  -23.1591  -41.2056   -8.6937 C   0  0  0  0  0  0  0  0  0  0  0  0
  -22.4495  -42.4996   -8.8166 N   0  0  0  0  0  0  0  0  0  0  0  0
  -21.0742  -42.8063   -8.6158 C   0  0  0  0  0  0  0  0  0  0  0  0
  -20.9677  -43.9034   -7.7035 C   0  0  0  0  0  0  0  0  0  0  0  0
  -19.8293  -44.4074   -7.2678 N   0  0  0  0  0  0  0  0  0  0  0  0
  -18.7066  -43.8469   -7.7149 C   0  0  0  0  0  0  0  0  0  0  0  0
  -18.7039  -42.7544   -8.6223 C   0  0  0  0  0  0  0  0  0  0  0  0
  -19.9082  -42.2296   -9.0828 C   0  0  0  0  0  0  0  0  0  0  0  0
  -17.3065  -42.3261   -8.8559 C   0  0  0  0  0  0  0  0  0  0  0  0
  -16.4746  -43.3188   -9.0552 O   0  0  0  0  0  0  0  0  0  0  0  0
  -16.7275  -41.0319   -8.8959 N   0  0  0  0  0  0  0  0  0  0  0  0
  -20.4457  -39.2219   -7.8909 C   0  0  0  0  0  0  0  0  0  0  0  0
  -12.7669  -40.9883  -10.8306 C   0  0  0  0  0  0  0  0  0  0  0  0
  -12.8270  -40.7144  -12.1707 C   0  0  0  0  0  0  0  0  0  0  0  0
  -12.5587  -41.7132  -13.0952 C   0  0  0  0  0  0  0  0  0  0  0  0
  -12.2325  -42.9783  -12.6595 C   0  0  0  0  0  0  0  0  0  0  0  0
  -12.1700  -43.2641  -11.3178 C   0  0  0  0  0  0  0  0  0  0  0  0
  -11.7187  -45.0117  -10.7358 Br  0  0  0  0  0  0  0  0  0  0  0  0
  -12.4449  -42.2407  -10.3950 C   0  0  0  0  0  0  0  0  0  0  0  0
  1  2  1  0
  2  3  1  0
  2  4  1  0
  4  5  1  0
  5  6  1  0
  6  7  1  6
  6  8  1  0
  8  9  1  1
  9 10  1  0
 10 11  1  0
 11 12  2  0
 12 13  1  0
 13 14  2  0
 14 15  1  0
 15 16  1  0
 16 17  1  0
 17 18  1  0
 18 19  1  0
 19 20  1  0
 20 21  1  0
 21 22  2  0
 22 23  1  0
 23 24  2  0
 24 25  1  0
 24 26  1  0
 26 27  2  0
 26 28  1  0
 14 29  1  0
  2 30  1  0
 30 31  2  0
 31 32  1  0
 32 33  2  0
 33 34  1  0
 34 35  1  0
 34 36  2  0
 25 20  2  0
 28  8  1  0
 29 10  2  0
 36 30  1  0
M  END
$$$$
