
     RDKit          3D

 36 39  0  0  0  0  0  0  0  0999 V2000
  -13.9666  -40.4816   -9.8952 C   0  0  0  0  0  0  0  0  0  0  0  0
  -14.9278  -39.3434   -9.6053 C   0  0  0  0  0  0  0  0  0  0  0  0
  -14.3024  -38.0124   -9.8517 C   0  0  0  0  0  0  0  0  0  0  0  0
  -15.5086  -39.4336   -8.3096 N   0  0  0  0  0  0  0  0  0  0  0  0
  -16.4251  -38.4710   -7.8811 C   0  0  0  0  0  0  0  0  0  0  0  0
  -17.3702  -38.8016   -6.7804 C   0  0  1  0  0  0  0  0  0  0  0  0
  -18.0621  -37.7488   -6.2365 O   0  0  0  0  0  0  0  0  0  0  0  0
  -18.3597  -39.9123   -7.2408 C   0  0  2  0  0  0  0  0  0  0  0  0
  -19.0982  -40.5089   -6.1141 C   0  0  0  0  0  0  0  0  0  0  0  0
  -20.5520  -40.2734   -5.8887 C   0  0  0  0  0  0  0  0  0  0  0  0
  -20.8133  -40.4168   -4.4864 C   0  0  0  0  0  0  0  0  0  0  0  0
  -22.0520  -40.3382   -3.9328 C   0  0  0  0  0  0  0  0  0  0  0  0
  -23.0633  -40.1093   -4.8183 C   0  0  0  0  0  0  0  0  0  0  0  0
  -22.8673  -39.9576   -6.2244 C   0  0  0  0  0  0  0  0  0  0  0  0
  -24.1781  -39.7525   -6.8719 C   0  0  0  0  0  0  0  0  0  0  0  0
  -24.5268  -40.0561   -8.2463 C   0  0  0  0  0  0  0  0  0  0  0  0
  -23.8960  -41.3016   -8.7908 C   0  0  0  0  0  0  0  0  0  0  0  0
  -23.9009  -42.4027   -7.7799 C   0  0  0  0  0  0  0  0  0  0  0  0
  -22.9527  -43.4918   -8.1086 N   0  0  0  0  0  0  0  0  0  0  0  0
  -21.5359  -43.5350   -7.9800 C   0  0  0  0  0  0  0  0  0  0  0  0
  -21.1681  -44.7064   -7.2454 C   0  0  0  0  0  0  0  0  0  0  0  0
  -19.9324  -45.0231   -6.9102 N   0  0  0  0  0  0  0  0  0  0  0  0
  -18.9675  -44.1855   -7.2870 C   0  0  0  0  0  0  0  0  0  0  0  0
  -19.2273  -42.9967   -8.0194 C   0  0  0  0  0  0  0  0  0  0  0  0
  -20.5329  -42.6699   -8.3747 C   0  0  0  0  0  0  0  0  0  0  0  0
  -17.9570  -42.2613   -8.2098 C   0  0  0  0  0  0  0  0  0  0  0  0
  -16.9533  -43.0226   -8.5706 O   0  0  0  0  0  0  0  0  0  0  0  0
  -17.6520  -40.8837   -8.0643 N   0  0  0  0  0  0  0  0  0  0  0  0
  -21.6056  -40.0404   -6.7343 C   0  0  0  0  0  0  0  0  0  0  0  0
  -16.0285  -39.5195  -10.6436 C   0  0  0  0  0  0  0  0  0  0  0  0
  -16.1676  -40.6979  -11.3267 C   0  0  0  0  0  0  0  0  0  0  0  0
  -17.1611  -40.8302  -12.2857 C   0  0  0  0  0  0  0  0  0  0  0  0
  -18.0045  -39.7732  -12.5467 C   0  0  0  0  0  0  0  0  0  0  0  0
  -17.8734  -38.5866  -11.8679 C   0  0  0  0  0  0  0  0  0  0  0  0
  -19.0440  -37.1417  -12.2399 Br  0  0  0  0  0  0  0  0  0  0  0  0
  -16.8616  -38.4697  -10.8999 C   0  0  0  0  0  0  0  0  0  0  0  0
  1  2  1  0
  2  3  1  0
  2  4  1  0
  4  5  1  0
  5  6  1  0
  6  7  1  6
  6  8  1  0
  8  9  1  1
  9 10  1  0
 10 11  1  0
 11 12  2  0
 12 13  1  0
 13 14  2  0
 14 15  1  0
 15 16  1  0
 16 17  1  0
 17 18  1  0
 18 19  1  0
 19 20  1  0
 20 21  1  0
 21 22  2  0
 22 23  1  0
 23 24  2  0
 24 25  1  0
 24 26  1  0
 26 27  2  0
 26 28  1  0
 14 29  1  0
  2 30  1  0
 30 31  2  0
 31 32  1  0
 32 33  2  0
 33 34  1  0
 34 35  1  0
 34 36  2  0
 25 20  2  0
 28  8  1  0
 29 10  2  0
 36 30  1  0
M  END
$$$$
