
     RDKit          3D

 36 39  0  0  0  0  0  0  0  0999 V2000
  -13.0035  -41.4369   -9.6905 C   0  0  0  0  0  0  0  0  0  0  0  0
  -13.8846  -40.2023   -9.7437 C   0  0  0  0  0  0  0  0  0  0  0  0
  -13.0899  -38.9473   -9.6152 C   0  0  0  0  0  0  0  0  0  0  0  0
  -14.9597  -40.2563   -8.8135 N   0  0  0  0  0  0  0  0  0  0  0  0
  -15.3898  -39.0953   -8.1674 C   0  0  0  0  0  0  0  0  0  0  0  0
  -16.3333  -39.2040   -7.0220 C   0  0  1  0  0  0  0  0  0  0  0  0
  -16.7971  -38.0218   -6.5022 O   0  0  0  0  0  0  0  0  0  0  0  0
  -17.5281  -40.1286   -7.3993 C   0  0  2  0  0  0  0  0  0  0  0  0
  -18.4298  -40.3744   -6.2603 C   0  0  0  0  0  0  0  0  0  0  0  0
  -19.8007  -39.7968   -6.1788 C   0  0  0  0  0  0  0  0  0  0  0  0
  -20.1472  -39.6681   -4.7936 C   0  0  0  0  0  0  0  0  0  0  0  0
  -21.3583  -39.2396   -4.3504 C   0  0  0  0  0  0  0  0  0  0  0  0
  -22.2529  -38.9311   -5.3321 C   0  0  0  0  0  0  0  0  0  0  0  0
  -21.9680  -39.0382   -6.7271 C   0  0  0  0  0  0  0  0  0  0  0  0
  -23.1695  -38.6519   -7.4930 C   0  0  0  0  0  0  0  0  0  0  0  0
  -23.5191  -39.0746   -8.8353 C   0  0  0  0  0  0  0  0  0  0  0  0
  -23.1641  -40.4948   -9.1558 C   0  0  0  0  0  0  0  0  0  0  0  0
  -23.4611  -41.4042   -8.0073 C   0  0  0  0  0  0  0  0  0  0  0  0
  -22.7710  -42.7103   -8.1122 N   0  0  0  0  0  0  0  0  0  0  0  0
  -21.4076  -43.0413   -7.8731 C   0  0  0  0  0  0  0  0  0  0  0  0
  -21.3461  -44.1411   -6.9599 C   0  0  0  0  0  0  0  0  0  0  0  0
  -20.2296  -44.6655   -6.4930 N   0  0  0  0  0  0  0  0  0  0  0  0
  -19.0850  -44.1243   -6.9072 C   0  0  0  0  0  0  0  0  0  0  0  0
  -19.0375  -43.0309   -7.8124 C   0  0  0  0  0  0  0  0  0  0  0  0
  -20.2189  -42.4846   -8.3059 C   0  0  0  0  0  0  0  0  0  0  0  0
  -17.6268  -42.6269   -8.0056 C   0  0  0  0  0  0  0  0  0  0  0  0
  -16.8071  -43.6338   -8.1829 O   0  0  0  0  0  0  0  0  0  0  0  0
  -17.0243  -41.3430   -8.0271 N   0  0  0  0  0  0  0  0  0  0  0  0
  -20.7372  -39.4692   -7.1248 C   0  0  0  0  0  0  0  0  0  0  0  0
  -14.4613  -40.2240  -11.1535 C   0  0  0  0  0  0  0  0  0  0  0  0
  -14.5873  -41.4003  -11.8428 C   0  0  0  0  0  0  0  0  0  0  0  0
  -15.0923  -41.3961  -13.1348 C   0  0  0  0  0  0  0  0  0  0  0  0
  -15.4654  -40.2061  -13.7192 C   0  0  0  0  0  0  0  0  0  0  0  0
  -15.3427  -39.0205  -13.0371 C   0  0  0  0  0  0  0  0  0  0  0  0
  -15.8618  -37.3913  -13.8571 Br  0  0  0  0  0  0  0  0  0  0  0  0
  -14.8291  -39.0429  -11.7293 C   0  0  0  0  0  0  0  0  0  0  0  0
  1  2  1  0
  2  3  1  0
  2  4  1  0
  4  5  1  0
  5  6  1  0
  6  7  1  6
  6  8  1  0
  8  9  1  1
  9 10  1  0
 10 11  1  0
 11 12  2  0
 12 13  1  0
 13 14  2  0
 14 15  1  0
 15 16  1  0
 16 17  1  0
 17 18  1  0
 18 19  1  0
 19 20  1  0
 20 21  1  0
 21 22  2  0
 22 23  1  0
 23 24  2  0
 24 25  1  0
 24 26  1  0
 26 27  2  0
 26 28  1  0
 14 29  1  0
  2 30  1  0
 30 31  2  0
 31 32  1  0
 32 33  2  0
 33 34  1  0
 34 35  1  0
 34 36  2  0
 25 20  2  0
 28  8  1  0
 29 10  2  0
 36 30  1  0
M  END
$$$$
