
     RDKit          3D

 36 39  0  0  0  0  0  0  0  0999 V2000
  -13.9082  -40.6195  -10.8141 C   0  0  0  0  0  0  0  0  0  0  0  0
  -13.5220  -39.2469  -10.2941 C   0  0  0  0  0  0  0  0  0  0  0  0
  -12.1972  -39.2650   -9.6101 C   0  0  0  0  0  0  0  0  0  0  0  0
  -14.5368  -38.6617   -9.4866 N   0  0  0  0  0  0  0  0  0  0  0  0
  -14.5870  -38.9290   -8.1168 C   0  0  0  0  0  0  0  0  0  0  0  0
  -15.8524  -38.6883   -7.3719 C   0  0  1  0  0  0  0  0  0  0  0  0
  -16.3453  -37.4082   -7.4087 O   0  0  0  0  0  0  0  0  0  0  0  0
  -16.9452  -39.6967   -7.8339 C   0  0  2  0  0  0  0  0  0  0  0  0
  -17.7336  -40.2259   -6.7075 C   0  0  0  0  0  0  0  0  0  0  0  0
  -19.1574  -39.8536   -6.4753 C   0  0  0  0  0  0  0  0  0  0  0  0
  -19.4265  -39.9788   -5.0727 C   0  0  0  0  0  0  0  0  0  0  0  0
  -20.6502  -39.7850   -4.5140 C   0  0  0  0  0  0  0  0  0  0  0  0
  -21.6379  -39.4556   -5.3944 C   0  0  0  0  0  0  0  0  0  0  0  0
  -21.4330  -39.3159   -6.8005 C   0  0  0  0  0  0  0  0  0  0  0  0
  -22.7203  -38.9828   -7.4419 C   0  0  0  0  0  0  0  0  0  0  0  0
  -23.1011  -39.2443   -8.8164 C   0  0  0  0  0  0  0  0  0  0  0  0
  -22.5942  -40.5415   -9.3696 C   0  0  0  0  0  0  0  0  0  0  0  0
  -22.7011  -41.6425   -8.3642 C   0  0  0  0  0  0  0  0  0  0  0  0
  -21.8626  -42.8155   -8.7020 N   0  0  0  0  0  0  0  0  0  0  0  0
  -20.4560  -42.9948   -8.5790 C   0  0  0  0  0  0  0  0  0  0  0  0
  -20.1996  -44.1999   -7.8517 C   0  0  0  0  0  0  0  0  0  0  0  0
  -18.9987  -44.6352   -7.5229 N   0  0  0  0  0  0  0  0  0  0  0  0
  -17.9594  -43.8918   -7.8993 C   0  0  0  0  0  0  0  0  0  0  0  0
  -18.1067  -42.6797   -8.6246 C   0  0  0  0  0  0  0  0  0  0  0  0
  -19.3762  -42.2276   -8.9733 C   0  0  0  0  0  0  0  0  0  0  0  0
  -16.7724  -42.0682   -8.8163 C   0  0  0  0  0  0  0  0  0  0  0  0
  -15.8474  -42.9202   -9.1848 O   0  0  0  0  0  0  0  0  0  0  0  0
  -16.3365  -40.7270   -8.6651 N   0  0  0  0  0  0  0  0  0  0  0  0
  -20.1867  -39.5163   -7.3156 C   0  0  0  0  0  0  0  0  0  0  0  0
  -13.3624  -38.4084  -11.5559 C   0  0  0  0  0  0  0  0  0  0  0  0
  -12.8943  -38.9663  -12.7153 C   0  0  0  0  0  0  0  0  0  0  0  0
  -12.7331  -38.1804  -13.8470 C   0  0  0  0  0  0  0  0  0  0  0  0
  -13.0454  -36.8400  -13.7987 C   0  0  0  0  0  0  0  0  0  0  0  0
  -13.5150  -36.2701  -12.6409 C   0  0  0  0  0  0  0  0  0  0  0  0
  -13.9404  -34.4226  -12.5925 Br  0  0  0  0  0  0  0  0  0  0  0  0
  -13.6721  -37.0805  -11.5037 C   0  0  0  0  0  0  0  0  0  0  0  0
  1  2  1  0
  2  3  1  0
  2  4  1  0
  4  5  1  0
  5  6  1  0
  6  7  1  6
  6  8  1  0
  8  9  1  1
  9 10  1  0
 10 11  1  0
 11 12  2  0
 12 13  1  0
 13 14  2  0
 14 15  1  0
 15 16  1  0
 16 17  1  0
 17 18  1  0
 18 19  1  0
 19 20  1  0
 20 21  1  0
 21 22  2  0
 22 23  1  0
 23 24  2  0
 24 25  1  0
 24 26  1  0
 26 27  2  0
 26 28  1  0
 14 29  1  0
  2 30  1  0
 30 31  2  0
 31 32  1  0
 32 33  2  0
 33 34  1  0
 34 35  1  0
 34 36  2  0
 25 20  2  0
 28  8  1  0
 29 10  2  0
 36 30  1  0
M  END
$$$$
