
     RDKit          3D

 36 39  0  0  0  0  0  0  0  0999 V2000
  -13.8551  -40.9475  -10.6151 C   0  0  0  0  0  0  0  0  0  0  0  0
  -13.8564  -39.5813   -9.9541 C   0  0  0  0  0  0  0  0  0  0  0  0
  -12.6995  -39.4112   -9.0289 C   0  0  0  0  0  0  0  0  0  0  0  0
  -15.0967  -39.2778   -9.3265 N   0  0  0  0  0  0  0  0  0  0  0  0
  -15.1205  -38.7554   -8.0316 C   0  0  0  0  0  0  0  0  0  0  0  0
  -16.0154  -39.3686   -7.0133 C   0  0  1  0  0  0  0  0  0  0  0  0
  -16.5321  -38.5191   -6.0676 O   0  0  0  0  0  0  0  0  0  0  0  0
  -17.1639  -40.1530   -7.7136 C   0  0  2  0  0  0  0  0  0  0  0  0
  -18.0622  -40.8131   -6.7502 C   0  0  0  0  0  0  0  0  0  0  0  0
  -19.4585  -40.3547   -6.5059 C   0  0  0  0  0  0  0  0  0  0  0  0
  -19.8211  -40.7267   -5.1697 C   0  0  0  0  0  0  0  0  0  0  0  0
  -21.0538  -40.5267   -4.6337 C   0  0  0  0  0  0  0  0  0  0  0  0
  -21.9540  -39.9341   -5.4690 C   0  0  0  0  0  0  0  0  0  0  0  0
  -21.6539  -39.5409   -6.8083 C   0  0  0  0  0  0  0  0  0  0  0  0
  -22.8659  -38.9622   -7.4212 C   0  0  0  0  0  0  0  0  0  0  0  0
  -23.1856  -38.9086   -8.8346 C   0  0  0  0  0  0  0  0  0  0  0  0
  -22.7638  -40.1150   -9.6171 C   0  0  0  0  0  0  0  0  0  0  0  0
  -23.0279  -41.3765   -8.8600 C   0  0  0  0  0  0  0  0  0  0  0  0
  -22.2783  -42.5371   -9.3931 N   0  0  0  0  0  0  0  0  0  0  0  0
  -20.9031  -42.8754   -9.2516 C   0  0  0  0  0  0  0  0  0  0  0  0
  -20.7986  -44.2196   -8.7728 C   0  0  0  0  0  0  0  0  0  0  0  0
  -19.6629  -44.8278   -8.4900 N   0  0  0  0  0  0  0  0  0  0  0  0
  -18.5411  -44.1314   -8.6658 C   0  0  0  0  0  0  0  0  0  0  0  0
  -18.5365  -42.7916   -9.1369 C   0  0  0  0  0  0  0  0  0  0  0  0
  -19.7377  -42.1562   -9.4386 C   0  0  0  0  0  0  0  0  0  0  0  0
  -17.1442  -42.2895   -9.1466 C   0  0  0  0  0  0  0  0  0  0  0  0
  -16.2782  -43.1394   -9.6415 O   0  0  0  0  0  0  0  0  0  0  0  0
  -16.6006  -41.0543   -8.7101 N   0  0  0  0  0  0  0  0  0  0  0  0
  -20.4018  -39.7582   -7.3021 C   0  0  0  0  0  0  0  0  0  0  0  0
  -13.6490  -38.6136  -11.1121 C   0  0  0  0  0  0  0  0  0  0  0  0
  -13.2960  -39.0696  -12.3539 C   0  0  0  0  0  0  0  0  0  0  0  0
  -13.0880  -38.1703  -13.3894 C   0  0  0  0  0  0  0  0  0  0  0  0
  -13.2381  -36.8202  -13.1629 C   0  0  0  0  0  0  0  0  0  0  0  0
  -13.5913  -36.3519  -11.9212 C   0  0  0  0  0  0  0  0  0  0  0  0
  -13.7939  -34.4894  -11.6273 Br  0  0  0  0  0  0  0  0  0  0  0  0
  -13.7978  -37.2766  -10.8834 C   0  0  0  0  0  0  0  0  0  0  0  0
  1  2  1  0
  2  3  1  0
  2  4  1  0
  4  5  1  0
  5  6  1  0
  6  7  1  1
  6  8  1  0
  8  9  1  1
  9 10  1  0
 10 11  1  0
 11 12  2  0
 12 13  1  0
 13 14  2  0
 14 15  1  0
 15 16  1  0
 16 17  1  0
 17 18  1  0
 18 19  1  0
 19 20  1  0
 20 21  1  0
 21 22  2  0
 22 23  1  0
 23 24  2  0
 24 25  1  0
 24 26  1  0
 26 27  2  0
 26 28  1  0
 14 29  1  0
  2 30  1  0
 30 31  2  0
 31 32  1  0
 32 33  2  0
 33 34  1  0
 34 35  1  0
 34 36  2  0
 25 20  2  0
 28  8  1  0
 29 10  2  0
 36 30  1  0
M  END
$$$$
