
     RDKit          3D

 36 39  0  0  0  0  0  0  0  0999 V2000
  -13.6620  -37.4848  -10.7750 C   0  0  0  0  0  0  0  0  0  0  0  0
  -14.8128  -38.4251  -10.4666 C   0  0  0  0  0  0  0  0  0  0  0  0
  -15.9036  -38.3177  -11.4774 C   0  0  0  0  0  0  0  0  0  0  0  0
  -15.2958  -38.2814   -9.1361 N   0  0  0  0  0  0  0  0  0  0  0  0
  -14.9513  -39.2167   -8.1579 C   0  0  0  0  0  0  0  0  0  0  0  0
  -15.8552  -40.3701   -7.9000 C   0  0  1  0  0  0  0  0  0  0  0  0
  -15.5544  -41.1462   -6.8090 O   0  0  0  0  0  0  0  0  0  0  0  0
  -17.3326  -39.8845   -7.8211 C   0  0  2  0  0  0  0  0  0  0  0  0
  -18.2935  -40.9538   -8.1438 C   0  0  0  0  0  0  0  0  0  0  0  0
  -19.1721  -41.5838   -7.1186 C   0  0  0  0  0  0  0  0  0  0  0  0
  -19.4788  -42.9150   -7.5535 C   0  0  0  0  0  0  0  0  0  0  0  0
  -20.3178  -43.7554   -6.8927 C   0  0  0  0  0  0  0  0  0  0  0  0
  -20.8690  -43.2406   -5.7567 C   0  0  0  0  0  0  0  0  0  0  0  0
  -20.6033  -41.9241   -5.2723 C   0  0  0  0  0  0  0  0  0  0  0  0
  -21.3887  -41.6979   -4.0428 C   0  0  0  0  0  0  0  0  0  0  0  0
  -21.8311  -40.4217   -3.5153 C   0  0  0  0  0  0  0  0  0  0  0  0
  -22.2423  -39.4241   -4.5551 C   0  0  0  0  0  0  0  0  0  0  0  0
  -23.0291  -40.0695   -5.6499 C   0  0  0  0  0  0  0  0  0  0  0  0
  -23.1069  -39.2372   -6.8723 N   0  0  0  0  0  0  0  0  0  0  0  0
  -22.1253  -38.9979   -7.8748 C   0  0  0  0  0  0  0  0  0  0  0  0
  -22.6907  -39.2758   -9.1594 C   0  0  0  0  0  0  0  0  0  0  0  0
  -22.0325  -39.1994  -10.2998 N   0  0  0  0  0  0  0  0  0  0  0  0
  -20.7519  -38.8379  -10.2387 C   0  0  0  0  0  0  0  0  0  0  0  0
  -20.0971  -38.5403   -9.0141 C   0  0  0  0  0  0  0  0  0  0  0  0
  -20.7979  -38.6177   -7.8138 C   0  0  0  0  0  0  0  0  0  0  0  0
  -18.6719  -38.2498   -9.2884 C   0  0  0  0  0  0  0  0  0  0  0  0
  -18.4806  -37.4623  -10.3182 O   0  0  0  0  0  0  0  0  0  0  0  0
  -17.4934  -38.6821   -8.6280 N   0  0  0  0  0  0  0  0  0  0  0  0
  -19.7513  -41.1176   -5.9669 C   0  0  0  0  0  0  0  0  0  0  0  0
  -14.2018  -39.8128  -10.6137 C   0  0  0  0  0  0  0  0  0  0  0  0
  -13.0373  -40.1392   -9.9717 C   0  0  0  0  0  0  0  0  0  0  0  0
  -12.4841  -41.4004  -10.1378 C   0  0  0  0  0  0  0  0  0  0  0  0
  -13.1102  -42.3201  -10.9494 C   0  0  0  0  0  0  0  0  0  0  0  0
  -14.2782  -42.0031  -11.5984 C   0  0  0  0  0  0  0  0  0  0  0  0
  -15.1271  -43.2822  -12.7118 Br  0  0  0  0  0  0  0  0  0  0  0  0
  -14.8248  -40.7210  -11.4192 C   0  0  0  0  0  0  0  0  0  0  0  0
  1  2  1  0
  2  3  1  0
  2  4  1  0
  4  5  1  0
  5  6  1  0
  6  7  1  1
  6  8  1  0
  8  9  1  6
  9 10  1  0
 10 11  1  0
 11 12  2  0
 12 13  1  0
 13 14  2  0
 14 15  1  0
 15 16  1  0
 16 17  1  0
 17 18  1  0
 18 19  1  0
 19 20  1  0
 20 21  1  0
 21 22  2  0
 22 23  1  0
 23 24  2  0
 24 25  1  0
 24 26  1  0
 26 27  2  0
 26 28  1  0
 14 29  1  0
  2 30  1  0
 30 31  2  0
 31 32  1  0
 32 33  2  0
 33 34  1  0
 34 35  1  0
 34 36  2  0
 25 20  2  0
 28  8  1  0
 29 10  2  0
 36 30  1  0
M  END
$$$$
