
     RDKit          3D

 36 39  0  0  0  0  0  0  0  0999 V2000
  -19.6581  -39.2651   -8.5249 C   0  0  0  0  0  0  0  0  0  0  0  0
  -20.2820  -38.8397   -7.2084 C   0  0  0  0  0  0  0  0  0  0  0  0
  -21.4235  -37.9023   -7.4124 C   0  0  0  0  0  0  0  0  0  0  0  0
  -19.3244  -38.3295   -6.2882 N   0  0  0  0  0  0  0  0  0  0  0  0
  -18.0058  -38.7887   -6.3183 C   0  0  0  0  0  0  0  0  0  0  0  0
  -17.2487  -38.7509   -7.5987 C   0  0  1  0  0  0  0  0  0  0  0  0
  -16.2100  -37.8566   -7.6646 O   0  0  0  0  0  0  0  0  0  0  0  0
  -16.7500  -40.1793   -7.9674 C   0  0  2  0  0  0  0  0  0  0  0  0
  -16.5812  -40.3578   -9.4201 C   0  0  0  0  0  0  0  0  0  0  0  0
  -15.2445  -40.4753  -10.0674 C   0  0  0  0  0  0  0  0  0  0  0  0
  -15.3619  -40.0083  -11.4178 C   0  0  0  0  0  0  0  0  0  0  0  0
  -14.3487  -40.0395  -12.3230 C   0  0  0  0  0  0  0  0  0  0  0  0
  -13.1775  -40.5590  -11.8563 C   0  0  0  0  0  0  0  0  0  0  0  0
  -12.9981  -41.0398  -10.5240 C   0  0  0  0  0  0  0  0  0  0  0  0
  -11.6214  -41.5534  -10.3808 C   0  0  0  0  0  0  0  0  0  0  0  0
  -11.1600  -42.5557   -9.4400 C   0  0  0  0  0  0  0  0  0  0  0  0
  -12.1315  -43.6678   -9.1849 C   0  0  0  0  0  0  0  0  0  0  0  0
  -12.7997  -44.1092  -10.4470 C   0  0  0  0  0  0  0  0  0  0  0  0
  -14.0296  -44.8974  -10.2034 N   0  0  0  0  0  0  0  0  0  0  0  0
  -15.3250  -44.4632   -9.8046 C   0  0  0  0  0  0  0  0  0  0  0  0
  -16.2953  -44.9858  -10.7170 C   0  0  0  0  0  0  0  0  0  0  0  0
  -17.5889  -44.7343  -10.6599 N   0  0  0  0  0  0  0  0  0  0  0  0
  -18.0095  -43.9358   -9.6802 C   0  0  0  0  0  0  0  0  0  0  0  0
  -17.1276  -43.3664   -8.7236 C   0  0  0  0  0  0  0  0  0  0  0  0
  -15.7640  -43.6392   -8.7855 C   0  0  0  0  0  0  0  0  0  0  0  0
  -17.8993  -42.4767   -7.8271 C   0  0  0  0  0  0  0  0  0  0  0  0
  -19.0331  -42.9911   -7.4182 O   0  0  0  0  0  0  0  0  0  0  0  0
  -17.6164  -41.1725   -7.3465 N   0  0  0  0  0  0  0  0  0  0  0  0
  -14.0424  -40.9848   -9.6492 C   0  0  0  0  0  0  0  0  0  0  0  0
  -20.8592  -40.1307   -6.6421 C   0  0  0  0  0  0  0  0  0  0  0  0
  -20.7014  -41.3197   -7.3024 C   0  0  0  0  0  0  0  0  0  0  0  0
  -21.2554  -42.4803   -6.7825 C   0  0  0  0  0  0  0  0  0  0  0  0
  -21.9630  -42.4309   -5.6021 C   0  0  0  0  0  0  0  0  0  0  0  0
  -22.1280  -41.2436   -4.9319 C   0  0  0  0  0  0  0  0  0  0  0  0
  -23.1051  -41.1942   -3.3074 Br  0  0  0  0  0  0  0  0  0  0  0  0
  -21.5603  -40.0774   -5.4727 C   0  0  0  0  0  0  0  0  0  0  0  0
  1  2  1  0
  2  3  1  0
  2  4  1  0
  4  5  1  0
  5  6  1  0
  6  7  1  1
  6  8  1  0
  8  9  1  6
  9 10  1  0
 10 11  1  0
 11 12  2  0
 12 13  1  0
 13 14  2  0
 14 15  1  0
 15 16  1  0
 16 17  1  0
 17 18  1  0
 18 19  1  0
 19 20  1  0
 20 21  1  0
 21 22  2  0
 22 23  1  0
 23 24  2  0
 24 25  1  0
 24 26  1  0
 26 27  2  0
 26 28  1  0
 14 29  1  0
  2 30  1  0
 30 31  2  0
 31 32  1  0
 32 33  2  0
 33 34  1  0
 34 35  1  0
 34 36  2  0
 25 20  2  0
 28  8  1  0
 29 10  2  0
 36 30  1  0
M  END
$$$$
