
     RDKit          3D

 36 39  0  0  0  0  0  0  0  0999 V2000
  -13.3724  -38.8581   -8.1079 C   0  0  0  0  0  0  0  0  0  0  0  0
  -14.2907  -39.2938   -9.2350 C   0  0  0  0  0  0  0  0  0  0  0  0
  -14.3692  -38.2684  -10.3147 C   0  0  0  0  0  0  0  0  0  0  0  0
  -15.5771  -39.6876   -8.7721 N   0  0  0  0  0  0  0  0  0  0  0  0
  -16.5339  -38.7232   -8.4487 C   0  0  0  0  0  0  0  0  0  0  0  0
  -17.4347  -38.9494   -7.2863 C   0  0  1  0  0  0  0  0  0  0  0  0
  -18.0672  -37.8408   -6.7825 O   0  0  0  0  0  0  0  0  0  0  0  0
  -18.4786  -40.0539   -7.6256 C   0  0  2  0  0  0  0  0  0  0  0  0
  -19.3612  -40.3616   -6.4868 C   0  0  0  0  0  0  0  0  0  0  0  0
  -20.8013  -39.9810   -6.4578 C   0  0  0  0  0  0  0  0  0  0  0  0
  -21.1927  -39.8261   -5.0873 C   0  0  0  0  0  0  0  0  0  0  0  0
  -22.4615  -39.5500   -4.6864 C   0  0  0  0  0  0  0  0  0  0  0  0
  -23.3690  -39.4268   -5.6966 C   0  0  0  0  0  0  0  0  0  0  0  0
  -23.0415  -39.5696   -7.0789 C   0  0  0  0  0  0  0  0  0  0  0  0
  -24.2685  -39.4010   -7.8824 C   0  0  0  0  0  0  0  0  0  0  0  0
  -24.5255  -39.9430   -9.2026 C   0  0  0  0  0  0  0  0  0  0  0  0
  -23.9668  -41.3139   -9.4352 C   0  0  0  0  0  0  0  0  0  0  0  0
  -24.1577  -42.1911   -8.2401 C   0  0  0  0  0  0  0  0  0  0  0  0
  -23.2882  -43.3897   -8.2594 N   0  0  0  0  0  0  0  0  0  0  0  0
  -21.8972  -43.5099   -7.9827 C   0  0  0  0  0  0  0  0  0  0  0  0
  -21.7012  -44.5374   -7.0065 C   0  0  0  0  0  0  0  0  0  0  0  0
  -20.5323  -44.8711   -6.4947 N   0  0  0  0  0  0  0  0  0  0  0  0
  -19.4667  -44.1966   -6.9238 C   0  0  0  0  0  0  0  0  0  0  0  0
  -19.5542  -43.1596   -7.8902 C   0  0  0  0  0  0  0  0  0  0  0  0
  -20.7898  -42.8149   -8.4308 C   0  0  0  0  0  0  0  0  0  0  0  0
  -18.2106  -42.5706   -8.0872 C   0  0  0  0  0  0  0  0  0  0  0  0
  -17.2534  -43.4592   -8.1944 O   0  0  0  0  0  0  0  0  0  0  0  0
  -17.7949  -41.2173   -8.1749 N   0  0  0  0  0  0  0  0  0  0  0  0
  -21.7538  -39.8429   -7.4340 C   0  0  0  0  0  0  0  0  0  0  0  0
  -13.5934  -40.5127   -9.8256 C   0  0  0  0  0  0  0  0  0  0  0  0
  -13.7431  -40.8355  -11.1477 C   0  0  0  0  0  0  0  0  0  0  0  0
  -13.1194  -41.9633  -11.6609 C   0  0  0  0  0  0  0  0  0  0  0  0
  -12.3509  -42.7544  -10.8362 C   0  0  0  0  0  0  0  0  0  0  0  0
  -12.1945  -42.4402   -9.5086 C   0  0  0  0  0  0  0  0  0  0  0  0
  -11.1322  -43.5408   -8.3876 Br  0  0  0  0  0  0  0  0  0  0  0  0
  -12.8335  -41.2944   -9.0051 C   0  0  0  0  0  0  0  0  0  0  0  0
  1  2  1  0
  2  3  1  0
  2  4  1  0
  4  5  1  0
  5  6  1  0
  6  7  1  6
  6  8  1  0
  8  9  1  1
  9 10  1  0
 10 11  1  0
 11 12  2  0
 12 13  1  0
 13 14  2  0
 14 15  1  0
 15 16  1  0
 16 17  1  0
 17 18  1  0
 18 19  1  0
 19 20  1  0
 20 21  1  0
 21 22  2  0
 22 23  1  0
 23 24  2  0
 24 25  1  0
 24 26  1  0
 26 27  2  0
 26 28  1  0
 14 29  1  0
  2 30  1  0
 30 31  2  0
 31 32  1  0
 32 33  2  0
 33 34  1  0
 34 35  1  0
 34 36  2  0
 25 20  2  0
 28  8  1  0
 29 10  2  0
 36 30  1  0
M  END
$$$$
