
     RDKit          3D

 36 39  0  0  0  0  0  0  0  0999 V2000
  -14.1844  -37.6428   -8.9203 C   0  0  0  0  0  0  0  0  0  0  0  0
  -14.2870  -38.8993   -9.7654 C   0  0  0  0  0  0  0  0  0  0  0  0
  -14.0360  -38.6197  -11.2084 C   0  0  0  0  0  0  0  0  0  0  0  0
  -15.5069  -39.6011   -9.5573 N   0  0  0  0  0  0  0  0  0  0  0  0
  -16.6729  -39.1933  -10.2089 C   0  0  0  0  0  0  0  0  0  0  0  0
  -17.7748  -38.5809   -9.4186 C   0  0  1  0  0  0  0  0  0  0  0  0
  -18.6620  -37.8001  -10.1160 O   0  0  0  0  0  0  0  0  0  0  0  0
  -18.5388  -39.6811   -8.6243 C   0  0  2  0  0  0  0  0  0  0  0  0
  -19.4697  -39.1142   -7.6331 C   0  0  0  0  0  0  0  0  0  0  0  0
  -20.9500  -39.1755   -7.7907 C   0  0  0  0  0  0  0  0  0  0  0  0
  -21.5185  -38.0645   -7.0852 C   0  0  0  0  0  0  0  0  0  0  0  0
  -22.8543  -37.8486   -6.9584 C   0  0  0  0  0  0  0  0  0  0  0  0
  -23.6464  -38.7815   -7.5596 C   0  0  0  0  0  0  0  0  0  0  0  0
  -23.1410  -39.9084   -8.2758 C   0  0  0  0  0  0  0  0  0  0  0  0
  -24.2769  -40.7150   -8.7642 C   0  0  0  0  0  0  0  0  0  0  0  0
  -24.2708  -42.1331   -9.0670 C   0  0  0  0  0  0  0  0  0  0  0  0
  -23.4340  -42.9658   -8.1441 C   0  0  0  0  0  0  0  0  0  0  0  0
  -23.5869  -42.5271   -6.7234 C   0  0  0  0  0  0  0  0  0  0  0  0
  -22.5051  -43.0285   -5.8451 N   0  0  0  0  0  0  0  0  0  0  0  0
  -21.1584  -42.5863   -5.7165 C   0  0  0  0  0  0  0  0  0  0  0  0
  -20.8802  -42.3281   -4.3370 C   0  0  0  0  0  0  0  0  0  0  0  0
  -19.7354  -41.8601   -3.8786 N   0  0  0  0  0  0  0  0  0  0  0  0
  -18.7787  -41.6138   -4.7723 C   0  0  0  0  0  0  0  0  0  0  0  0
  -18.9542  -41.8365   -6.1639 C   0  0  0  0  0  0  0  0  0  0  0  0
  -20.1628  -42.3352   -6.6417 C   0  0  0  0  0  0  0  0  0  0  0  0
  -17.7368  -41.3932   -6.8796 C   0  0  0  0  0  0  0  0  0  0  0  0
  -16.6196  -41.7756   -6.3114 O   0  0  0  0  0  0  0  0  0  0  0  0
  -17.5841  -40.6286   -8.0645 N   0  0  0  0  0  0  0  0  0  0  0  0
  -21.7927  -40.0820   -8.3801 C   0  0  0  0  0  0  0  0  0  0  0  0
  -13.1371  -39.7680   -9.2716 C   0  0  0  0  0  0  0  0  0  0  0  0
  -12.1486  -39.2430   -8.4831 C   0  0  0  0  0  0  0  0  0  0  0  0
  -11.0972  -40.0448   -8.0637 C   0  0  0  0  0  0  0  0  0  0  0  0
  -11.0527  -41.3679   -8.4433 C   0  0  0  0  0  0  0  0  0  0  0  0
  -12.0386  -41.9046   -9.2345 C   0  0  0  0  0  0  0  0  0  0  0  0
  -11.9615  -43.7287   -9.7473 Br  0  0  0  0  0  0  0  0  0  0  0  0
  -13.0963  -41.0782   -9.6505 C   0  0  0  0  0  0  0  0  0  0  0  0
  1  2  1  0
  2  3  1  0
  2  4  1  0
  4  5  1  0
  5  6  1  0
  6  7  1  6
  6  8  1  0
  8  9  1  1
  9 10  1  0
 10 11  1  0
 11 12  2  0
 12 13  1  0
 13 14  2  0
 14 15  1  0
 15 16  1  0
 16 17  1  0
 17 18  1  0
 18 19  1  0
 19 20  1  0
 20 21  1  0
 21 22  2  0
 22 23  1  0
 23 24  2  0
 24 25  1  0
 24 26  1  0
 26 27  2  0
 26 28  1  0
 14 29  1  0
  2 30  1  0
 30 31  2  0
 31 32  1  0
 32 33  2  0
 33 34  1  0
 34 35  1  0
 34 36  2  0
 25 20  2  0
 28  8  1  0
 29 10  2  0
 36 30  1  0
M  END
$$$$
